
     RDKit          3D

 50 53  0  0  0  0  0  0  0  0999 V2000
    0.5189   -0.8870    3.3238 C   0  0  0  0  0  0  0  0  0  0  0  0
    1.1301   -0.5338    2.0941 O   0  0  0  0  0  0  0  0  0  0  0  0
    0.4115   -0.2165    0.9595 C   0  0  0  0  0  0  0  0  0  0  0  0
   -0.9879   -0.2192    0.9356 C   0  0  0  0  0  0  0  0  0  0  0  0
   -1.6814    0.1067   -0.2286 C   0  0  0  0  0  0  0  0  0  0  0  0
   -1.0123    0.4407   -1.3891 C   0  0  0  0  0  0  0  0  0  0  0  0
    0.3692    0.4462   -1.3755 C   0  0  0  0  0  0  0  0  0  0  0  0
    1.0599    0.1228   -0.2203 C   0  0  0  0  0  0  0  0  0  0  0  0
    2.4845    0.1286   -0.2061 N   0  0  0  0  0  0  0  0  0  0  0  0
    3.2589   -1.0185   -0.5263 C   0  0  0  0  0  0  0  0  0  0  0  0
    2.7502   -2.1208   -0.8451 O   0  0  0  0  0  0  0  0  0  0  0  0
    4.7142   -0.9359   -0.4899 C   0  0  0  0  0  0  0  0  0  0  0  0
    5.5813   -1.9666   -0.7769 C   0  0  0  0  0  0  0  0  0  0  0  0
    6.8479   -1.4528   -0.6188 C   0  0  0  0  0  0  0  0  0  0  0  0
    6.7114   -0.1320   -0.2423 C   0  0  0  0  0  0  0  0  0  0  0  0
    5.4296    0.1394   -0.1761 O   0  0  0  0  0  0  0  0  0  0  0  0
    7.7887    0.6948    0.0036 C   0  0  0  0  0  0  0  0  0  0  0  0
    9.0530    0.1635   -0.1371 C   0  0  0  0  0  0  0  0  0  0  0  0
    9.2017   -1.1666   -0.5161 C   0  0  0  0  0  0  0  0  0  0  0  0
    8.1029   -1.9807   -0.7587 C   0  0  0  0  0  0  0  0  0  0  0  0
   -3.1158    0.0775   -0.1603 N   0  0  0  0  0  0  0  0  0  0  0  0
   -3.7934    1.2702    0.2141 C   0  0  0  0  0  0  0  0  0  0  0  0
   -3.1268    2.3054    0.4721 O   0  0  0  0  0  0  0  0  0  0  0  0
   -5.2449    1.3662    0.3188 C   0  0  0  0  0  0  0  0  0  0  0  0
   -5.7806    2.5795    0.6916 C   0  0  0  0  0  0  0  0  0  0  0  0
   -7.1651    2.7376    0.8104 C   0  0  0  0  0  0  0  0  0  0  0  0
   -7.9962    1.6638    0.5502 C   0  0  0  0  0  0  0  0  0  0  0  0
   -7.4693    0.4348    0.1735 C   0  0  0  0  0  0  0  0  0  0  0  0
   -6.0941    0.3105    0.0647 C   0  0  0  0  0  0  0  0  0  0  0  0
   -8.3550   -0.7309   -0.1098 C   0  0  0  0  0  0  0  0  0  0  0  0
   -0.3672   -1.5396    3.1055 H   0  0  0  0  0  0  0  0  0  0  0  0
    0.2269    0.0624    3.8194 H   0  0  0  0  0  0  0  0  0  0  0  0
    1.1965   -1.4267    3.9872 H   0  0  0  0  0  0  0  0  0  0  0  0
   -1.5436   -0.4751    1.8239 H   0  0  0  0  0  0  0  0  0  0  0  0
   -1.5722    0.6901   -2.2807 H   0  0  0  0  0  0  0  0  0  0  0  0
    0.9344    0.7024   -2.2643 H   0  0  0  0  0  0  0  0  0  0  0  0
    2.9692    1.0224    0.0530 H   0  0  0  0  0  0  0  0  0  0  0  0
    5.3266   -2.9762   -1.0679 H   0  0  0  0  0  0  0  0  0  0  0  0
    7.6202    1.7330    0.2990 H   0  0  0  0  0  0  0  0  0  0  0  0
    9.9034    0.8124    0.0561 H   0  0  0  0  0  0  0  0  0  0  0  0
   10.2065   -1.5452   -0.6154 H   0  0  0  0  0  0  0  0  0  0  0  0
    8.2590   -3.0156   -1.0532 H   0  0  0  0  0  0  0  0  0  0  0  0
   -3.6628   -0.7843   -0.3755 H   0  0  0  0  0  0  0  0  0  0  0  0
   -5.1836    3.4547    0.9080 H   0  0  0  0  0  0  0  0  0  0  0  0
   -7.5680    3.7037    1.1060 H   0  0  0  0  0  0  0  0  0  0  0  0
   -9.0612    1.7516    0.6321 H   0  0  0  0  0  0  0  0  0  0  0  0
   -5.6910   -0.6427   -0.2272 H   0  0  0  0  0  0  0  0  0  0  0  0
   -7.7766   -1.4573   -0.7217 H   0  0  0  0  0  0  0  0  0  0  0  0
   -8.4856   -1.2585    0.8795 H   0  0  0  0  0  0  0  0  0  0  0  0
   -9.3222   -0.4384   -0.5578 H   0  0  0  0  0  0  0  0  0  0  0  0
  1  2  1  0
  2  3  1  0
  3  4  2  0
  4  5  1  0
  5  6  2  0
  6  7  1  0
  7  8  2  0
  8  9  1  0
  9 10  1  0
 10 11  2  0
 10 12  1  0
 12 13  2  0
 13 14  1  0
 14 15  2  0
 15 16  1  0
 15 17  1  0
 17 18  2  0
 18 19  1  0
 19 20  2  0
  5 21  1  0
 21 22  1  0
 22 23  2  0
 22 24  1  0
 24 25  2  0
 25 26  1  0
 26 27  2  0
 27 28  1  0
 28 29  2  0
 28 30  1  0
  8  3  1  0
 16 12  1  0
 29 24  1  0
 20 14  1  0
  1 31  1  0
  1 32  1  0
  1 33  1  0
  4 34  1  0
  6 35  1  0
  7 36  1  0
  9 37  1  0
 13 38  1  0
 17 39  1  0
 18 40  1  0
 19 41  1  0
 20 42  1  0
 21 43  1  0
 25 44  1  0
 26 45  1  0
 27 46  1  0
 29 47  1  0
 30 48  1  0
 30 49  1  0
 30 50  1  0
M  END
>  <Ligand ID>  (1) 
LIG0003847

>  <Ligand>  (1) 
MLS001197120

>  <SMILES>  (1) 
COc1cc(ccc1NC(=O)c1cc2c(o1)cccc2)NC(=O)c1cccc(c1)C

>  <CID>  (1) 
3962444.0

>  <ChEMBL ID>  (1) 
nan

>  <InChiKey>  (1) 
CCNCCGSRFQMVNQ-UHFFFAOYSA-N

>  <InChi>  (1) 
InChI=1S/C24H20N2O4/c1-15-6-5-8-17(12-15)23(27)25-18-10-11-19(21(14-18)29-2)26-24(28)22-13-16-7-3-4-9-20(16)30-22/h3-14H,1-2H3,(H,25,27)(H,26,28)

>  <IUPAC Name>  (1) 
N-[2-methoxy-4-[(3-methylbenzoyl)amino]phenyl]-1-benzofuran-2-carboxamide

$$$$
