
     RDKit          3D

 50 53  0  0  0  0  0  0  0  0999 V2000
    0.4671   -2.0236    0.8870 O   0  0  0  0  0  0  0  0  0  0  0  0
    0.5087   -0.7466    0.7109 C   0  0  0  0  0  0  0  0  0  0  0  0
    1.7470   -0.1306    1.1397 C   0  0  0  0  0  0  0  0  0  0  0  0
    2.0149    0.7645    2.0959 N   0  0  0  0  0  0  0  0  0  0  0  0
    3.2883    0.9761    2.0828 O   0  0  0  0  0  0  0  0  0  0  0  0
    3.9127    0.2820    1.1761 C   0  0  0  0  0  0  0  0  0  0  0  0
    2.9635   -0.4656    0.5214 C   0  0  0  0  0  0  0  0  0  0  0  0
    3.3131   -1.3162   -0.5046 C   0  0  0  0  0  0  0  0  0  0  0  0
    4.6485   -1.3970   -0.8595 C   0  0  0  0  0  0  0  0  0  0  0  0
    5.6161   -0.6343   -0.1928 C   0  0  0  0  0  0  0  0  0  0  0  0
    5.2438    0.2097    0.8310 C   0  0  0  0  0  0  0  0  0  0  0  0
   -0.6105   -0.1139    0.1385 N   0  0  0  0  0  0  0  0  0  0  0  0
   -1.7394   -0.9825   -0.2098 C   0  0  0  0  0  0  0  0  0  0  0  0
   -2.3623   -1.4640    1.0686 C   0  0  0  0  0  0  0  0  0  0  0  0
   -3.4974   -2.4302    0.8426 C   0  0  0  0  0  0  0  0  0  0  0  0
   -3.4521   -3.1157   -0.4977 C   0  0  0  0  0  0  0  0  0  0  0  0
   -1.9958   -3.3936   -0.8104 C   0  0  0  0  0  0  0  0  0  0  0  0
   -1.3646   -2.0604   -1.1533 C   0  0  0  0  0  0  0  0  0  0  0  0
   -0.7592    1.2839   -0.1285 C   0  0  0  0  0  0  0  0  0  0  0  0
    0.2701    1.8448   -1.0774 C   0  0  0  0  0  0  0  0  0  0  0  0
    0.2335    3.3623   -1.0757 C   0  0  0  0  0  0  0  0  0  0  0  0
   -1.0956    3.8952   -0.6564 C   0  0  0  0  0  0  0  0  0  0  0  0
   -1.5852    3.4263    0.6734 C   0  0  0  0  0  0  0  0  0  0  0  0
   -0.7570    2.1895    1.0771 C   0  0  0  0  0  0  0  0  0  0  0  0
    2.5743   -1.8938   -1.0100 H   0  0  0  0  0  0  0  0  0  0  0  0
    4.9898   -2.0391   -1.6503 H   0  0  0  0  0  0  0  0  0  0  0  0
    6.6625   -0.7317   -0.5054 H   0  0  0  0  0  0  0  0  0  0  0  0
    5.9914    0.8079    1.3559 H   0  0  0  0  0  0  0  0  0  0  0  0
   -2.5159   -0.3150   -0.6765 H   0  0  0  0  0  0  0  0  0  0  0  0
   -2.7968   -0.5729    1.5846 H   0  0  0  0  0  0  0  0  0  0  0  0
   -1.6124   -1.9346    1.7090 H   0  0  0  0  0  0  0  0  0  0  0  0
   -3.4544   -3.2355    1.6250 H   0  0  0  0  0  0  0  0  0  0  0  0
   -4.4940   -1.9362    0.9569 H   0  0  0  0  0  0  0  0  0  0  0  0
   -3.9112   -2.4216   -1.2372 H   0  0  0  0  0  0  0  0  0  0  0  0
   -4.0334   -4.0779   -0.4161 H   0  0  0  0  0  0  0  0  0  0  0  0
   -1.9638   -4.1002   -1.6566 H   0  0  0  0  0  0  0  0  0  0  0  0
   -1.5399   -3.7933    0.1176 H   0  0  0  0  0  0  0  0  0  0  0  0
   -0.2809   -2.2236   -1.2836 H   0  0  0  0  0  0  0  0  0  0  0  0
   -1.7414   -1.8087   -2.1713 H   0  0  0  0  0  0  0  0  0  0  0  0
   -1.7666    1.4940   -0.6179 H   0  0  0  0  0  0  0  0  0  0  0  0
    1.2579    1.5392   -0.6650 H   0  0  0  0  0  0  0  0  0  0  0  0
    0.1865    1.4680   -2.0990 H   0  0  0  0  0  0  0  0  0  0  0  0
    1.0464    3.8130   -0.4782 H   0  0  0  0  0  0  0  0  0  0  0  0
    0.3987    3.6838   -2.1291 H   0  0  0  0  0  0  0  0  0  0  0  0
   -1.8140    3.6858   -1.4882 H   0  0  0  0  0  0  0  0  0  0  0  0
   -1.0368    5.0081   -0.6244 H   0  0  0  0  0  0  0  0  0  0  0  0
   -1.5370    4.1918    1.4721 H   0  0  0  0  0  0  0  0  0  0  0  0
   -2.6130    3.0418    0.5599 H   0  0  0  0  0  0  0  0  0  0  0  0
    0.2446    2.6374    1.2946 H   0  0  0  0  0  0  0  0  0  0  0  0
   -1.2489    1.7532    1.9547 H   0  0  0  0  0  0  0  0  0  0  0  0
  1  2  2  0
  2  3  1  0
  3  4  2  0
  4  5  1  0
  5  6  1  0
  6  7  2  0
  7  8  1  0
  8  9  2  0
  9 10  1  0
 10 11  2  0
  2 12  1  0
 12 13  1  0
 13 14  1  0
 14 15  1  0
 15 16  1  0
 16 17  1  0
 17 18  1  0
 12 19  1  0
 19 20  1  0
 20 21  1  0
 21 22  1  0
 22 23  1  0
 23 24  1  0
  7  3  1  0
 18 13  1  0
 24 19  1  0
 11  6  1  0
  8 25  1  0
  9 26  1  0
 10 27  1  0
 11 28  1  0
 13 29  1  0
 14 30  1  0
 14 31  1  0
 15 32  1  0
 15 33  1  0
 16 34  1  0
 16 35  1  0
 17 36  1  0
 17 37  1  0
 18 38  1  0
 18 39  1  0
 19 40  1  0
 20 41  1  0
 20 42  1  0
 21 43  1  0
 21 44  1  0
 22 45  1  0
 22 46  1  0
 23 47  1  0
 23 48  1  0
 24 49  1  0
 24 50  1  0
M  END
>  <Ligand ID>  (1) 
LIG0001365

>  <Ligand>  (1) 
CHEMBL1976643

>  <SMILES>  (1) 
O=C(c1noc2c1cccc2)N(C1CCCCC1)C1CCCCC1

>  <CID>  (1) 
25110524.0

>  <ChEMBL ID>  (1) 
nan

>  <InChiKey>  (1) 
PXIFKCZYAVDHBY-UHFFFAOYSA-N

>  <InChi>  (1) 
InChI=1S/C20H26N2O2/c23-20(19-17-13-7-8-14-18(17)24-21-19)22(15-9-3-1-4-10-15)16-11-5-2-6-12-16/h7-8,13-16H,1-6,9-12H2

>  <IUPAC Name>  (1) 
N,N-dicyclohexyl-1,2-benzoxazole-3-carboxamide

$$$$
