
     RDKit          3D

 25 25  0  0  0  0  0  0  0  0999 V2000
   -2.9091   -1.0639    0.2432 C   0  0  0  0  0  0  0  0  0  0  0  0
   -2.0668    0.1335   -0.0319 C   0  0  0  0  0  0  0  0  0  0  0  0
   -2.6244    1.3416   -0.0426 C   0  0  0  0  0  0  0  0  0  0  0  0
   -0.6173   -0.0971   -0.2847 C   0  0  1  0  0  0  0  0  0  0  0  0
    0.1072    1.1854   -0.6130 C   0  0  0  0  0  0  0  0  0  0  0  0
    1.5480    0.9328   -0.8116 C   0  0  0  0  0  0  0  0  0  0  0  0
    2.1690    0.0116   -0.1145 C   0  0  0  0  0  0  0  0  0  0  0  0
    1.4103   -0.7511    0.8531 C   0  0  0  0  0  0  0  0  0  0  0  0
    2.0535   -1.4607    1.6674 O   0  0  0  0  0  0  0  0  0  0  0  0
   -0.0606   -0.7578    0.9549 C   0  0  0  0  0  0  0  0  0  0  0  0
    3.6298   -0.2483   -0.3122 C   0  0  0  0  0  0  0  0  0  0  0  0
   -3.9188   -0.7891    0.6076 H   0  0  0  0  0  0  0  0  0  0  0  0
   -2.4841   -1.7145    1.0341 H   0  0  0  0  0  0  0  0  0  0  0  0
   -2.9620   -1.6924   -0.6890 H   0  0  0  0  0  0  0  0  0  0  0  0
   -3.6916    1.3750    0.1566 H   0  0  0  0  0  0  0  0  0  0  0  0
   -2.0198    2.2199   -0.2419 H   0  0  0  0  0  0  0  0  0  0  0  0
   -0.4314   -0.7757   -1.1506 H   0  0  0  0  0  0  0  0  0  0  0  0
   -0.2764    1.5697   -1.5802 H   0  0  0  0  0  0  0  0  0  0  0  0
   -0.0279    1.9878    0.1312 H   0  0  0  0  0  0  0  0  0  0  0  0
    2.1485    1.4911   -1.5337 H   0  0  0  0  0  0  0  0  0  0  0  0
   -0.4471   -1.7988    0.9734 H   0  0  0  0  0  0  0  0  0  0  0  0
   -0.3522   -0.1721    1.8482 H   0  0  0  0  0  0  0  0  0  0  0  0
    4.1742    0.3935    0.4065 H   0  0  0  0  0  0  0  0  0  0  0  0
    3.7951   -1.3218   -0.1055 H   0  0  0  0  0  0  0  0  0  0  0  0
    3.8538    0.0015   -1.3647 H   0  0  0  0  0  0  0  0  0  0  0  0
  1  2  1  0
  2  3  2  0
  2  4  1  0
  4  5  1  0
  5  6  1  0
  6  7  2  0
  7  8  1  0
  8  9  2  0
  8 10  1  0
  7 11  1  0
 10  4  1  0
  1 12  1  0
  1 13  1  0
  1 14  1  0
  3 15  1  0
  3 16  1  0
  4 17  1  6
  5 18  1  0
  5 19  1  0
  6 20  1  0
 10 21  1  0
 10 22  1  0
 11 23  1  0
 11 24  1  0
 11 25  1  0
M  END
>  <Ligand ID>  (1) 
LIG0000009

>  <Ligand>  (1) 
Carvone, (+)-

>  <SMILES>  (1) 
CC(=C)[C@H]1CC=C(C(=O)C1)C

>  <CID>  (1) 
16724.0

>  <ChEMBL ID>  (1) 
nan

>  <InChiKey>  (1) 
ULDHMXUKGWMISQ-VIFPVBQESA-N

>  <InChi>  (1) 
InChI=1S/C10H14O/c1-7(2)9-5-4-8(3)10(11)6-9/h4,9H,1,5-6H2,2-3H3/t9-/m0/s1

>  <IUPAC Name>  (1) 
(5S)-2-methyl-5-prop-1-en-2-ylcyclohex-2-en-1-one

$$$$
