
     RDKit          3D

 67 69  0  0  0  0  0  0  0  0999 V2000
   -1.4649   -3.7316   -0.8924 O   0  0  0  0  0  0  0  0  0  0  0  0
   -1.9901   -2.6213   -0.2615 C   0  0  2  0  0  0  0  0  0  0  0  0
   -3.5255   -2.6851   -0.1609 C   0  0  2  0  0  0  0  0  0  0  0  0
   -4.0390   -3.4929   -1.2021 O   0  0  0  0  0  0  0  0  0  0  0  0
   -3.9009   -1.2382   -0.4992 C   0  0  2  0  0  0  0  0  0  0  0  0
   -2.7056   -0.4951   -0.3629 O   0  0  0  0  0  0  0  0  0  0  0  0
   -1.8280   -1.3512   -1.0215 C   0  0  1  0  0  0  0  0  0  0  0  0
   -0.4917   -0.8047   -1.0422 N   0  0  0  0  0  0  0  0  0  0  0  0
    0.5064   -1.5633   -1.5392 C   0  0  0  0  0  0  0  0  0  0  0  0
    1.7819   -1.0244   -1.5862 C   0  0  0  0  0  0  0  0  0  0  0  0
    1.9976    0.2638   -1.1276 C   0  0  0  0  0  0  0  0  0  0  0  0
    0.9753    0.9902   -0.6357 N   0  0  0  0  0  0  0  0  0  0  0  0
   -0.2843    0.4599   -0.5888 C   0  0  0  0  0  0  0  0  0  0  0  0
   -1.2607    1.1191   -0.1331 O   0  0  0  0  0  0  0  0  0  0  0  0
    3.3055    0.7841   -1.2451 N   0  0  0  0  0  0  0  0  0  0  0  0
    4.3415    0.6192   -0.4581 O   0  0  0  0  0  0  0  0  0  0  0  0
    4.5733    1.5561    0.5202 C   0  0  0  0  0  0  0  0  0  0  0  0
    6.1084    1.6775    0.5912 C   0  0  0  0  0  0  0  0  0  0  0  0
    6.6114    0.2986    0.9269 C   0  0  0  0  0  0  0  0  0  0  0  0
    8.0961    0.3467    0.9812 C   0  0  0  0  0  0  0  0  0  0  0  0
    8.8168    0.5980    2.1220 C   0  0  0  0  0  0  0  0  0  0  0  0
   10.1983    0.6092    1.9947 C   0  0  0  0  0  0  0  0  0  0  0  0
   10.8406    0.3826    0.7922 C   0  0  0  0  0  0  0  0  0  0  0  0
   10.1150    0.1312   -0.3522 C   0  0  0  0  0  0  0  0  0  0  0  0
    8.7458    0.1173   -0.2374 C   0  0  0  0  0  0  0  0  0  0  0  0
   10.7211   -0.1049   -1.6138 N   0  0  0  0  0  0  0  0  0  0  0  0
   11.9520   -0.1022   -1.7819 O   0  0  0  0  0  0  0  0  0  0  0  0
    9.9339   -0.3470   -2.7065 O   0  0  0  0  0  0  0  0  0  0  0  0
   -4.9732   -0.6895    0.3817 C   0  0  0  0  0  0  0  0  0  0  0  0
   -6.1426   -1.4317    0.2368 O   0  0  0  0  0  0  0  0  0  0  0  0
   -7.3807   -0.7478    1.1257 P   0  0  0  0  0  0  0  0  0  0  0  0
   -8.7201   -1.3301    0.7319 O   0  0  0  0  0  0  0  0  0  0  0  0
   -7.4927    0.9183    0.8537 O   0  0  0  0  0  0  0  0  0  0  0  0
   -8.9322    1.5457    1.4745 P   0  0  0  0  0  0  0  0  0  0  0  0
   -9.8841    0.4569    1.8920 O   0  0  0  0  0  0  0  0  0  0  0  0
   -9.7398    2.5456    0.3922 O   0  0  0  0  0  0  0  0  0  0  0  0
   -9.4399    2.1420   -1.2018 P   0  0  0  0  0  0  0  0  0  0  0  0
   -8.1201    1.4187   -1.2551 O   0  0  0  0  0  0  0  0  0  0  0  0
  -10.6701    1.2034   -1.8775 O   0  0  0  0  0  0  0  0  0  0  0  0
   -9.2701    3.5689   -2.1118 O   0  0  0  0  0  0  0  0  0  0  0  0
   -8.5583    2.4542    2.8502 O   0  0  0  0  0  0  0  0  0  0  0  0
   -7.1320   -1.0009    2.7629 O   0  0  0  0  0  0  0  0  0  0  0  0
   -1.7570   -3.8389   -1.8219 H   0  0  0  0  0  0  0  0  0  0  0  0
   -1.5284   -2.5307    0.7246 H   0  0  0  0  0  0  0  0  0  0  0  0
   -3.8450   -2.9960    0.8273 H   0  0  0  0  0  0  0  0  0  0  0  0
   -3.9053   -3.0382   -2.0725 H   0  0  0  0  0  0  0  0  0  0  0  0
   -4.2026   -1.1400   -1.5817 H   0  0  0  0  0  0  0  0  0  0  0  0
   -2.2380   -1.4876   -2.0462 H   0  0  0  0  0  0  0  0  0  0  0  0
    0.3449   -2.5825   -1.9025 H   0  0  0  0  0  0  0  0  0  0  0  0
    2.5548   -1.6569   -1.9868 H   0  0  0  0  0  0  0  0  0  0  0  0
    3.4542    1.4039   -2.1116 H   0  0  0  0  0  0  0  0  0  0  0  0
    4.1982    2.5587    0.2500 H   0  0  0  0  0  0  0  0  0  0  0  0
    4.1961    1.2619    1.5320 H   0  0  0  0  0  0  0  0  0  0  0  0
    6.3929    2.4502    1.3385 H   0  0  0  0  0  0  0  0  0  0  0  0
    6.4858    1.9364   -0.4179 H   0  0  0  0  0  0  0  0  0  0  0  0
    6.1943   -0.0440    1.8997 H   0  0  0  0  0  0  0  0  0  0  0  0
    6.2636   -0.3722    0.1404 H   0  0  0  0  0  0  0  0  0  0  0  0
    8.3035    0.7719    3.0464 H   0  0  0  0  0  0  0  0  0  0  0  0
   10.8204    0.8015    2.8527 H   0  0  0  0  0  0  0  0  0  0  0  0
   11.9229    0.3897    0.6860 H   0  0  0  0  0  0  0  0  0  0  0  0
    8.1762   -0.0833   -1.1509 H   0  0  0  0  0  0  0  0  0  0  0  0
   -5.1801    0.3416    0.0909 H   0  0  0  0  0  0  0  0  0  0  0  0
   -4.6129   -0.7721    1.4298 H   0  0  0  0  0  0  0  0  0  0  0  0
  -10.6812    0.3063   -1.4839 H   0  0  0  0  0  0  0  0  0  0  0  0
   -8.4305    4.0413   -1.8118 H   0  0  0  0  0  0  0  0  0  0  0  0
   -8.2746    3.3432    2.5732 H   0  0  0  0  0  0  0  0  0  0  0  0
   -6.3265   -0.5096    3.0431 H   0  0  0  0  0  0  0  0  0  0  0  0
  1  2  1  0
  2  3  1  0
  3  4  1  0
  3  5  1  0
  5  6  1  0
  6  7  1  0
  7  8  1  0
  8  9  1  0
  9 10  2  0
 10 11  1  0
 11 12  2  0
 12 13  1  0
 13 14  2  0
 11 15  1  0
 15 16  1  0
 16 17  1  0
 17 18  1  0
 18 19  1  0
 19 20  1  0
 20 21  2  0
 21 22  1  0
 22 23  2  0
 23 24  1  0
 24 25  2  0
 24 26  1  0
 26 27  2  0
 26 28  1  0
  5 29  1  0
 29 30  1  0
 30 31  1  0
 31 32  2  0
 31 33  1  0
 33 34  1  0
 34 35  2  0
 34 36  1  0
 36 37  1  0
 37 38  2  0
 37 39  1  0
 37 40  1  0
 34 41  1  0
 31 42  1  0
  7  2  1  0
 13  8  1  0
 25 20  1  0
  1 43  1  0
  2 44  1  1
  3 45  1  1
  4 46  1  0
  5 47  1  6
  7 48  1  6
  9 49  1  0
 10 50  1  0
 15 51  1  0
 17 52  1  0
 17 53  1  0
 18 54  1  0
 18 55  1  0
 19 56  1  0
 19 57  1  0
 21 58  1  0
 22 59  1  0
 23 60  1  0
 25 61  1  0
 29 62  1  0
 29 63  1  0
 39 64  1  0
 40 65  1  0
 41 66  1  0
 42 67  1  0
M  CHG  2  26   1  28  -1
M  END
>  <Ligand ID>  (1) 
LIG0002492

>  <Ligand>  (1) 
CHEMBL3261367

>  <SMILES>  (1) 
O[C@@H]1[C@H](O)[C@H](O[C@H]1n1ccc(nc1=O)NOCCCc1cccc(c1)[N+](=O)[O-])COP(=O)(OP(=O)(OP(=O)(O)O)O)O

>  <CID>  (1) 
90656218.0

>  <ChEMBL ID>  (1) 
nan

>  <InChiKey>  (1) 
VRMSKJWDXHXVTC-MWQQHZPXSA-N

>  <InChi>  (1) 
InChI=1S/C18H25N4O17P3/c23-15-13(10-36-41(31,32)39-42(33,34)38-40(28,29)30)37-17(16(15)24)21-7-6-14(19-18(21)25)20-35-8-2-4-11-3-1-5-12(9-11)22(26)27/h1,3,5-7,9,13,15-17,23-24H,2,4,8,10H2,(H,31,32)(H,33,34)(H,19,20,25)(H2,28,29,30)/t13-,15-,16-,17-/m1/s1

>  <IUPAC Name>  (1) 
[[(2R,3S,4R,5R)-3,4-dihydroxy-5-[4-[3-(3-nitrophenyl)propoxyamino]-2-oxopyrimidin-1-yl]oxolan-2-yl]methoxy-hydroxyphosphoryl] phosphono hydrogen phosphate

$$$$
