
     RDKit          3D

 51 55  0  0  0  0  0  0  0  0999 V2000
   -4.3485    5.4425   -0.2603 Cl  0  0  0  0  0  0  0  0  0  0  0  0
   -3.9121    3.7485   -0.1249 C   0  0  0  0  0  0  0  0  0  0  0  0
   -2.9345    3.1707   -0.9121 C   0  0  0  0  0  0  0  0  0  0  0  0
   -2.6017    1.8173   -0.7880 C   0  0  0  0  0  0  0  0  0  0  0  0
   -3.2935    1.0827    0.1568 C   0  0  0  0  0  0  0  0  0  0  0  0
   -4.2779    1.6864    0.9420 C   0  0  0  0  0  0  0  0  0  0  0  0
   -4.6009    3.0022    0.8207 C   0  0  0  0  0  0  0  0  0  0  0  0
   -3.0219   -0.3785    0.3790 C   0  0  0  0  0  0  0  0  0  0  0  0
   -1.9803   -0.6161    1.3964 C   0  0  0  0  0  0  0  0  0  0  0  0
   -2.3462   -0.8924    2.7181 C   0  0  0  0  0  0  0  0  0  0  0  0
   -1.3906   -1.1128    3.6844 C   0  0  0  0  0  0  0  0  0  0  0  0
   -0.0602   -1.0605    3.3455 C   0  0  0  0  0  0  0  0  0  0  0  0
    0.3487   -0.7904    2.0510 C   0  0  0  0  0  0  0  0  0  0  0  0
   -0.6120   -0.5747    1.1073 C   0  0  0  0  0  0  0  0  0  0  0  0
    1.7123   -0.7438    1.7367 C   0  0  0  0  0  0  0  0  0  0  0  0
    2.1725   -0.4619    0.3824 C   0  0  0  0  0  0  0  0  0  0  0  0
    3.4569   -0.4097    0.0479 C   0  0  0  0  0  0  0  0  0  0  0  0
    3.9275   -0.1292   -1.3010 C   0  0  0  0  0  0  0  0  0  0  0  0
    3.1070    0.1117   -2.3732 C   0  0  0  0  0  0  0  0  0  0  0  0
    3.6213    0.3754   -3.6463 C   0  0  0  0  0  0  0  0  0  0  0  0
    4.9797    0.4048   -3.8794 C   0  0  0  0  0  0  0  0  0  0  0  0
    5.8119    0.1639   -2.8075 C   0  0  0  0  0  0  0  0  0  0  0  0
    5.2968   -0.0953   -1.5559 C   0  0  0  0  0  0  0  0  0  0  0  0
    7.1575    0.1866   -3.0084 F   0  0  0  0  0  0  0  0  0  0  0  0
    2.5740   -0.9785    2.7760 C   0  0  0  0  0  0  0  0  0  0  0  0
    2.1336   -1.2493    4.0765 C   0  0  0  0  0  0  0  0  0  0  0  0
    2.9519   -1.4615    5.0140 O   0  0  0  0  0  0  0  0  0  0  0  0
    0.8206   -1.2882    4.3512 N   0  0  0  0  0  0  0  0  0  0  0  0
   -2.6927   -0.9925   -0.8840 C   0  0  0  0  0  0  0  0  0  0  0  0
   -1.7105   -1.2317   -1.6099 N   0  0  0  0  0  0  0  0  0  0  0  0
   -1.6521   -1.8173   -2.7434 C   0  0  0  0  0  0  0  0  0  0  0  0
   -2.9116   -2.2718   -3.2650 C   0  0  0  0  0  0  0  0  0  0  0  0
   -4.1039   -1.7391   -1.9212 S   0  0  0  0  0  0  0  0  0  0  0  0
   -2.4158    3.7900   -1.6438 H   0  0  0  0  0  0  0  0  0  0  0  0
   -1.8490    1.3523   -1.3873 H   0  0  0  0  0  0  0  0  0  0  0  0
   -4.8122    1.0789    1.6852 H   0  0  0  0  0  0  0  0  0  0  0  0
   -5.3721    3.4272    1.4522 H   0  0  0  0  0  0  0  0  0  0  0  0
   -3.9700   -0.8431    0.7870 H   0  0  0  0  0  0  0  0  0  0  0  0
   -3.3881   -0.9384    3.0065 H   0  0  0  0  0  0  0  0  0  0  0  0
   -1.7058   -1.3247    4.7000 H   0  0  0  0  0  0  0  0  0  0  0  0
   -0.3581   -0.3611    0.1039 H   0  0  0  0  0  0  0  0  0  0  0  0
    1.4806   -0.2800   -0.4230 H   0  0  0  0  0  0  0  0  0  0  0  0
    4.1965   -0.5812    0.8007 H   0  0  0  0  0  0  0  0  0  0  0  0
    2.0512    0.1087   -2.2856 H   0  0  0  0  0  0  0  0  0  0  0  0
    2.9589    0.5638   -4.4839 H   0  0  0  0  0  0  0  0  0  0  0  0
    5.3264    0.6131   -4.8808 H   0  0  0  0  0  0  0  0  0  0  0  0
    6.0152   -0.2750   -0.7633 H   0  0  0  0  0  0  0  0  0  0  0  0
    3.6463   -0.9695    2.6585 H   0  0  0  0  0  0  0  0  0  0  0  0
    0.5246   -1.4927    5.3306 H   0  0  0  0  0  0  0  0  0  0  0  0
   -0.7739   -2.0093   -3.3509 H   0  0  0  0  0  0  0  0  0  0  0  0
   -3.1758   -2.7567   -4.1177 H   0  0  0  0  0  0  0  0  0  0  0  0
  1  2  1  0
  2  3  2  0
  3  4  1  0
  4  5  2  0
  5  6  1  0
  6  7  2  0
  5  8  1  0
  8  9  1  0
  9 10  2  0
 10 11  1  0
 11 12  2  0
 12 13  1  0
 13 14  2  0
 13 15  1  0
 15 16  1  0
 16 17  2  0
 17 18  1  0
 18 19  2  0
 19 20  1  0
 20 21  2  0
 21 22  1  0
 22 23  2  0
 22 24  1  0
 15 25  2  0
 25 26  1  0
 26 27  2  0
 26 28  1  0
  8 29  1  0
 29 30  2  0
 30 31  1  0
 31 32  2  0
 32 33  1  0
  7  2  1  0
 14  9  1  0
 23 18  1  0
 33 29  1  0
 28 12  1  0
  3 34  1  0
  4 35  1  0
  6 36  1  0
  7 37  1  0
  8 38  1  0
 10 39  1  0
 11 40  1  0
 14 41  1  0
 16 42  1  0
 17 43  1  0
 19 44  1  0
 20 45  1  0
 21 46  1  0
 23 47  1  0
 25 48  1  0
 28 49  1  0
 31 50  1  0
 32 51  1  0
M  END
>  <Ligand ID>  (1) 
LIG0005857

>  <Ligand>  (1) 
CHEMBL3897394

>  <SMILES>  (1) 
Clc1ccc(cc1)C(c1ccc2c(c1)c(/C=C/c1cccc(c1)F)cc(=O)[nH]2)c1nccs1

>  <CID>  (1) 
118324058.0

>  <ChEMBL ID>  (1) 
nan

>  <InChiKey>  (1) 
HDVMHXOEYWYEMX-SNAWJCMRSA-N

>  <InChi>  (1) 
InChI=1S/C27H18ClFN2OS/c28-21-9-6-18(7-10-21)26(27-30-12-13-33-27)20-8-11-24-23(15-20)19(16-25(32)31-24)5-4-17-2-1-3-22(29)14-17/h1-16,26H,(H,31,32)/b5-4+

>  <IUPAC Name>  (1) 
6-[(4-chlorophenyl)-(1,3-thiazol-2-yl)methyl]-4-[(E)-2-(3-fluorophenyl)ethenyl]-1H-quinolin-2-one

$$$$
