
     RDKit          3D

 78 85  0  0  0  0  0  0  0  0999 V2000
   -4.2575    5.8532    0.1978 C   0  0  0  0  0  0  0  0  0  0  0  0
   -3.1888    5.0240   -0.1365 O   0  0  0  0  0  0  0  0  0  0  0  0
   -3.1855    3.6462    0.0300 C   0  0  0  0  0  0  0  0  0  0  0  0
   -4.2777    2.9570    0.5587 C   0  0  0  0  0  0  0  0  0  0  0  0
   -4.2480    1.5636    0.7172 C   0  0  0  0  0  0  0  0  0  0  0  0
   -3.1149    0.8646    0.3413 C   0  0  0  0  0  0  0  0  0  0  0  0
   -2.0858    1.5922   -0.1679 C   0  0  0  0  0  0  0  0  0  0  0  0
   -2.0515    2.9398   -0.3452 C   0  0  0  0  0  0  0  0  0  0  0  0
   -0.8111    3.2329   -0.8818 O   0  0  0  0  0  0  0  0  0  0  0  0
    0.0596    2.0992   -0.7874 C   0  0  2  0  0  0  0  0  0  0  0  0
   -0.8645    0.9141   -0.6008 C   0  0  2  0  0  0  0  0  0  0  0  0
   -1.0962    0.2082   -1.8769 C   0  0  0  0  0  0  0  0  0  0  0  0
   -1.1906   -1.2720   -1.8618 C   0  0  0  0  0  0  0  0  0  0  0  0
   -1.3204   -1.9028   -0.6248 N   0  0  0  0  0  0  0  0  0  0  0  0
   -1.5532   -1.0719    0.5155 C   0  0  2  0  0  0  0  0  0  0  0  0
   -2.9546   -0.5926    0.4865 C   0  0  0  0  0  0  0  0  0  0  0  0
   -0.5113    0.0413    0.5800 C   0  0  2  0  0  0  0  0  0  0  0  0
   -0.5978    0.8089    1.8487 C   0  0  0  0  0  0  0  0  0  0  0  0
    0.2484    2.0691    1.7098 C   0  0  0  0  0  0  0  0  0  0  0  0
    0.9687    2.1021    0.3917 C   0  0  2  0  0  0  0  0  0  0  0  0
    1.9199    3.0999    0.4159 O   0  0  0  0  0  0  0  0  0  0  0  0
    1.4521    4.3846    0.4160 C   0  0  0  0  0  0  0  0  0  0  0  0
    1.7644    0.7912    0.2803 C   0  0  2  0  0  0  0  0  0  0  0  0
    0.8902   -0.4314    0.4147 C   0  0  0  0  0  0  0  0  0  0  0  0
    2.9714    0.7614    1.1490 C   0  0  0  0  0  0  0  0  0  0  0  0
    3.6811   -0.4327    1.0411 O   0  0  0  0  0  0  0  0  0  0  0  0
    4.1342   -0.7178   -0.2225 C   0  0  0  0  0  0  0  0  0  0  0  0
    4.8747   -2.0036   -0.1983 C   0  0  0  0  0  0  0  0  0  0  0  0
    5.2205   -2.8044    0.8691 C   0  0  0  0  0  0  0  0  0  0  0  0
    4.9145   -2.5339    2.2821 C   0  0  0  0  0  0  0  0  0  0  0  0
    5.8903   -3.8750    0.3602 N   0  0  0  0  0  0  0  0  0  0  0  0
    5.9455   -3.7336   -0.9138 O   0  0  0  0  0  0  0  0  0  0  0  0
    5.3596   -2.6371   -1.3265 C   0  0  0  0  0  0  0  0  0  0  0  0
    5.2202   -2.1348   -2.7180 C   0  0  0  0  0  0  0  0  0  0  0  0
   -1.6375   -3.2646   -0.5443 C   0  0  0  0  0  0  0  0  0  0  0  0
   -3.0516   -3.5273   -1.0244 C   0  0  0  0  0  0  0  0  0  0  0  0
   -3.5175   -4.9770   -0.9862 C   0  0  0  0  0  0  0  0  0  0  0  0
   -4.0714   -3.9956   -0.0056 C   0  0  0  0  0  0  0  0  0  0  0  0
   -4.1504    6.7820   -0.4268 H   0  0  0  0  0  0  0  0  0  0  0  0
   -4.2154    6.1590    1.2453 H   0  0  0  0  0  0  0  0  0  0  0  0
   -5.1859    5.3230   -0.0904 H   0  0  0  0  0  0  0  0  0  0  0  0
   -5.1631    3.5082    0.8505 H   0  0  0  0  0  0  0  0  0  0  0  0
   -5.0863    1.0175    1.1256 H   0  0  0  0  0  0  0  0  0  0  0  0
    0.6754    2.0137   -1.6900 H   0  0  0  0  0  0  0  0  0  0  0  0
   -2.0254    0.6212   -2.3474 H   0  0  0  0  0  0  0  0  0  0  0  0
   -0.2907    0.5530   -2.5953 H   0  0  0  0  0  0  0  0  0  0  0  0
   -2.0522   -1.6253   -2.5051 H   0  0  0  0  0  0  0  0  0  0  0  0
   -0.2986   -1.6828   -2.3811 H   0  0  0  0  0  0  0  0  0  0  0  0
   -1.3973   -1.6857    1.4223 H   0  0  0  0  0  0  0  0  0  0  0  0
   -3.5176   -1.0658   -0.3666 H   0  0  0  0  0  0  0  0  0  0  0  0
   -3.5132   -0.9714    1.3953 H   0  0  0  0  0  0  0  0  0  0  0  0
   -1.5944    1.0742    2.1977 H   0  0  0  0  0  0  0  0  0  0  0  0
   -0.1559    0.1798    2.6833 H   0  0  0  0  0  0  0  0  0  0  0  0
    1.0066    2.0995    2.5008 H   0  0  0  0  0  0  0  0  0  0  0  0
   -0.4013    2.9543    1.8638 H   0  0  0  0  0  0  0  0  0  0  0  0
    2.3445    5.0646    0.4482 H   0  0  0  0  0  0  0  0  0  0  0  0
    0.8656    4.6185    1.3106 H   0  0  0  0  0  0  0  0  0  0  0  0
    0.9469    4.6874   -0.5459 H   0  0  0  0  0  0  0  0  0  0  0  0
    2.1178    0.7856   -0.7794 H   0  0  0  0  0  0  0  0  0  0  0  0
    1.2424   -1.0211    1.3064 H   0  0  0  0  0  0  0  0  0  0  0  0
    0.9803   -1.1354   -0.4347 H   0  0  0  0  0  0  0  0  0  0  0  0
    2.6518    0.8143    2.2317 H   0  0  0  0  0  0  0  0  0  0  0  0
    3.6712    1.5912    0.9731 H   0  0  0  0  0  0  0  0  0  0  0  0
    3.3041   -0.8582   -0.9627 H   0  0  0  0  0  0  0  0  0  0  0  0
    4.8482    0.0598   -0.5944 H   0  0  0  0  0  0  0  0  0  0  0  0
    5.0934   -1.4886    2.5752 H   0  0  0  0  0  0  0  0  0  0  0  0
    3.8740   -2.8659    2.5680 H   0  0  0  0  0  0  0  0  0  0  0  0
    5.5906   -3.1722    2.9064 H   0  0  0  0  0  0  0  0  0  0  0  0
    5.3566   -1.0463   -2.7837 H   0  0  0  0  0  0  0  0  0  0  0  0
    4.2390   -2.4529   -3.1454 H   0  0  0  0  0  0  0  0  0  0  0  0
    5.9923   -2.6064   -3.3641 H   0  0  0  0  0  0  0  0  0  0  0  0
   -1.5737   -3.6398    0.4963 H   0  0  0  0  0  0  0  0  0  0  0  0
   -0.9076   -3.8394   -1.1548 H   0  0  0  0  0  0  0  0  0  0  0  0
   -3.4796   -2.9412   -1.8522 H   0  0  0  0  0  0  0  0  0  0  0  0
   -4.1350   -5.3310   -1.8241 H   0  0  0  0  0  0  0  0  0  0  0  0
   -2.7643   -5.7291   -0.6307 H   0  0  0  0  0  0  0  0  0  0  0  0
   -5.1138   -3.6674   -0.0527 H   0  0  0  0  0  0  0  0  0  0  0  0
   -3.7071   -4.1263    1.0442 H   0  0  0  0  0  0  0  0  0  0  0  0
  1  2  1  0
  2  3  1  0
  3  4  2  0
  4  5  1  0
  5  6  2  0
  6  7  1  0
  7  8  2  0
  8  9  1  0
  9 10  1  0
 10 11  1  0
 11 12  1  6
 12 13  1  0
 13 14  1  0
 14 15  1  0
 15 16  1  0
 15 17  1  0
 17 18  1  1
 18 19  1  0
 19 20  1  0
 20 21  1  1
 21 22  1  0
 20 23  1  0
 23 24  1  0
 23 25  1  0
 25 26  1  0
 26 27  1  0
 27 28  1  0
 28 29  1  0
 29 30  1  0
 29 31  2  0
 31 32  1  0
 32 33  1  0
 33 34  1  0
 14 35  1  0
 35 36  1  0
 36 37  1  0
 37 38  1  0
  8  3  1  0
 20 10  1  0
 33 28  2  0
 38 36  1  0
 16  6  1  0
 24 17  1  0
 11  7  1  0
 17 11  1  0
  1 39  1  0
  1 40  1  0
  1 41  1  0
  4 42  1  0
  5 43  1  0
 10 44  1  6
 12 45  1  0
 12 46  1  0
 13 47  1  0
 13 48  1  0
 15 49  1  1
 16 50  1  0
 16 51  1  0
 18 52  1  0
 18 53  1  0
 19 54  1  0
 19 55  1  0
 22 56  1  0
 22 57  1  0
 22 58  1  0
 23 59  1  6
 24 60  1  0
 24 61  1  0
 25 62  1  0
 25 63  1  0
 27 64  1  0
 27 65  1  0
 30 66  1  0
 30 67  1  0
 30 68  1  0
 34 69  1  0
 34 70  1  0
 34 71  1  0
 35 72  1  0
 35 73  1  0
 36 74  1  0
 37 75  1  0
 37 76  1  0
 38 77  1  0
 38 78  1  0
M  END
>  <Ligand ID>  (1) 
LIG0003599

>  <Ligand>  (1) 
SCHEMBL883111

>  <SMILES>  (1) 
COc1ccc2c3c1O[C@@H]1[C@@]43CCN([C@H](C2)[C@@]24CC[C@@]1(OC)[C@H](C2)COCc1c(C)noc1C)CC1CC1

>  <CID>  (1) 
66828846.0

>  <ChEMBL ID>  (1) 
nan

>  <InChiKey>  (1) 
SUKLBCXGVCYVGS-RRRALXMPSA-N

>  <InChi>  (1) 
InChI=1S/C31H40N2O5/c1-18-23(19(2)38-32-18)17-36-16-22-14-29-9-10-31(22,35-4)28-30(29)11-12-33(15-20-5-6-20)25(29)13-21-7-8-24(34-3)27(37-28)26(21)30/h7-8,20,22,25,28H,5-6,9-17H2,1-4H3/t22-,25-,28-,29-,30+,31-/m1/s1

>  <IUPAC Name>  (1) 
(1S,2S,6R,14R,15R,16R)-5-(cyclopropylmethyl)-16-[(3,5-dimethyl-1,2-oxazol-4-yl)methoxymethyl]-11,15-dimethoxy-13-oxa-5-azahexacyclo[13.2.2.12,8.01,6.02,14.012,20]icosa-8(20),9,11-triene

$$$$
