
     RDKit          3D

 51 55  0  0  0  0  0  0  0  0999 V2000
   -2.8234   -3.9714   -0.2129 C   0  0  0  0  0  0  0  0  0  0  0  0
   -2.2928   -2.5985   -0.0326 C   0  0  0  0  0  0  0  0  0  0  0  0
   -2.9770   -1.5199   -0.5892 C   0  0  0  0  0  0  0  0  0  0  0  0
   -2.4470   -0.2728   -0.3950 C   0  0  0  0  0  0  0  0  0  0  0  0
   -3.0555    0.9547   -0.9205 C   0  0  0  0  0  0  0  0  0  0  0  0
   -2.4749    2.1014   -0.6829 C   0  0  0  0  0  0  0  0  0  0  0  0
   -1.2467    2.3231    0.0708 C   0  0  0  0  0  0  0  0  0  0  0  0
   -0.6683    1.1201    0.5744 N   0  0  0  0  0  0  0  0  0  0  0  0
   -1.2820   -0.1144    0.3258 C   0  0  0  0  0  0  0  0  0  0  0  0
   -0.5854   -1.1641    0.8869 C   0  0  0  0  0  0  0  0  0  0  0  0
   -1.1229   -2.4292    0.6900 C   0  0  0  0  0  0  0  0  0  0  0  0
    0.5912   -0.5974    1.5687 C   0  0  0  0  0  0  0  0  0  0  0  0
    0.6456   -1.0322    3.3319 S   0  0  0  0  0  0  0  0  0  0  0  0
    1.7171   -2.4904    3.1593 C   0  0  0  0  0  0  0  0  0  0  0  0
    2.0873   -2.4242    1.7250 C   0  0  0  0  0  0  0  0  0  0  0  0
    2.5715   -3.4183    1.0821 O   0  0  0  0  0  0  0  0  0  0  0  0
    1.8515   -1.1698    1.1590 N   0  0  0  0  0  0  0  0  0  0  0  0
    2.7349   -0.4755    0.2536 C   0  0  0  0  0  0  0  0  0  0  0  0
    2.6090   -0.6774   -1.1188 C   0  0  0  0  0  0  0  0  0  0  0  0
    3.4647   -0.0025   -1.9905 C   0  0  0  0  0  0  0  0  0  0  0  0
    4.4338    0.8615   -1.5208 C   0  0  0  0  0  0  0  0  0  0  0  0
    4.5529    1.0570   -0.1562 C   0  0  0  0  0  0  0  0  0  0  0  0
    3.7069    0.3880    0.6797 C   0  0  0  0  0  0  0  0  0  0  0  0
    5.2983    1.5444   -2.3868 O   0  0  0  0  0  0  0  0  0  0  0  0
    0.4951    0.8435    1.3436 C   0  0  0  0  0  0  0  0  0  0  0  0
    1.2956    1.7253    1.7509 O   0  0  0  0  0  0  0  0  0  0  0  0
   -1.5936    3.2504    1.2360 C   0  0  0  0  0  0  0  0  0  0  0  0
   -0.2773    3.0545   -0.8320 C   0  0  0  0  0  0  0  0  0  0  0  0
   -4.3030    0.8318   -1.6977 C   0  0  0  0  0  0  0  0  0  0  0  0
   -3.7265   -3.9482   -0.8417 H   0  0  0  0  0  0  0  0  0  0  0  0
   -3.0379   -4.3599    0.8069 H   0  0  0  0  0  0  0  0  0  0  0  0
   -2.0045   -4.6102   -0.6211 H   0  0  0  0  0  0  0  0  0  0  0  0
   -3.8826   -1.6258   -1.1515 H   0  0  0  0  0  0  0  0  0  0  0  0
   -2.9748    2.9908   -1.1010 H   0  0  0  0  0  0  0  0  0  0  0  0
   -0.6120   -3.2801    1.1108 H   0  0  0  0  0  0  0  0  0  0  0  0
    2.5991   -2.4291    3.8281 H   0  0  0  0  0  0  0  0  0  0  0  0
    1.0997   -3.3879    3.3552 H   0  0  0  0  0  0  0  0  0  0  0  0
    1.8634   -1.3446   -1.5164 H   0  0  0  0  0  0  0  0  0  0  0  0
    3.4098   -0.1230   -3.0642 H   0  0  0  0  0  0  0  0  0  0  0  0
    5.3078    1.7321    0.2407 H   0  0  0  0  0  0  0  0  0  0  0  0
    3.8197    0.5580    1.7491 H   0  0  0  0  0  0  0  0  0  0  0  0
    6.2818    1.6410   -2.1533 H   0  0  0  0  0  0  0  0  0  0  0  0
   -2.1012    2.6065    1.9977 H   0  0  0  0  0  0  0  0  0  0  0  0
   -2.2917    4.0190    0.8251 H   0  0  0  0  0  0  0  0  0  0  0  0
   -0.6748    3.7097    1.6230 H   0  0  0  0  0  0  0  0  0  0  0  0
   -0.8264    3.8568   -1.4031 H   0  0  0  0  0  0  0  0  0  0  0  0
    0.5250    3.5766   -0.2919 H   0  0  0  0  0  0  0  0  0  0  0  0
    0.1072    2.3675   -1.6060 H   0  0  0  0  0  0  0  0  0  0  0  0
   -4.6073    1.8374   -2.0579 H   0  0  0  0  0  0  0  0  0  0  0  0
   -5.1073    0.3065   -1.1517 H   0  0  0  0  0  0  0  0  0  0  0  0
   -4.0721    0.2090   -2.5824 H   0  0  0  0  0  0  0  0  0  0  0  0
  1  2  1  0
  2  3  2  0
  3  4  1  0
  4  5  1  0
  5  6  2  0
  6  7  1  0
  7  8  1  0
  8  9  1  0
  9 10  1  0
 10 11  2  0
 10 12  1  0
 12 13  1  0
 13 14  1  0
 14 15  1  0
 15 16  2  0
 15 17  1  0
 17 18  1  0
 18 19  2  0
 19 20  1  0
 20 21  2  0
 21 22  1  0
 22 23  2  0
 21 24  1  0
 12 25  1  0
 25 26  2  0
  7 27  1  0
  7 28  1  0
  5 29  1  0
 11  2  1  0
 17 12  1  0
 23 18  1  0
  9  4  2  0
 25  8  1  0
  1 30  1  0
  1 31  1  0
  1 32  1  0
  3 33  1  0
  6 34  1  0
 11 35  1  0
 14 36  1  0
 14 37  1  0
 19 38  1  0
 20 39  1  0
 22 40  1  0
 23 41  1  0
 24 42  1  0
 27 43  1  0
 27 44  1  0
 27 45  1  0
 28 46  1  0
 28 47  1  0
 28 48  1  0
 29 49  1  0
 29 50  1  0
 29 51  1  0
M  END
>  <Ligand ID>  (1) 
LIG0003902

>  <Ligand>  (1) 
MLS000084485

>  <SMILES>  (1) 
Cc1cc2C(=CC(N3c2c(c1)C1(SCC(=O)N1c1ccc(cc1)O)C3=O)(C)C)C

>  <CID>  (1) 
667044.0

>  <ChEMBL ID>  (1) 
nan

>  <InChiKey>  (1) 
PQUSMSKDJBVHID-UHFFFAOYSA-N

>  <InChi>  (1) 
InChI=1S/C23H22N2O3S/c1-13-9-17-14(2)11-22(3,4)25-20(17)18(10-13)23(21(25)28)24(19(27)12-29-23)15-5-7-16(26)8-6-15/h5-11,26H,12H2,1-4H3

>  <IUPAC Name>  (1) 
3-(4-hydroxyphenyl)-6',9',11',11'-tetramethylspiro[1,3-thiazolidine-2,3'-1-azatricyclo[6.3.1.04,12]dodeca-4,6,8(12),9-tetraene]-2',4-dione

$$$$
