
     RDKit          3D

 48 51  0  0  0  0  0  0  0  0999 V2000
    5.3631   -2.2138    2.3017 C   0  0  0  0  0  0  0  0  0  0  0  0
    4.5492   -1.4435    1.3219 C   0  0  0  0  0  0  0  0  0  0  0  0
    5.0081   -1.1055    0.0769 C   0  0  0  0  0  0  0  0  0  0  0  0
    4.2728   -0.3960   -0.8450 C   0  0  0  0  0  0  0  0  0  0  0  0
    2.9991   -0.0067   -0.4824 C   0  0  0  0  0  0  0  0  0  0  0  0
    2.4656   -0.3184    0.7765 C   0  0  0  0  0  0  0  0  0  0  0  0
    3.2726   -1.0409    1.6565 C   0  0  0  0  0  0  0  0  0  0  0  0
    1.2641    0.1677    0.8401 O   0  0  0  0  0  0  0  0  0  0  0  0
    0.9201    0.7863   -0.2600 C   0  0  0  0  0  0  0  0  0  0  0  0
    1.9999    0.7036   -1.1438 C   0  0  0  0  0  0  0  0  0  0  0  0
    2.0710    1.2708   -2.5347 C   0  0  0  0  0  0  0  0  0  0  0  0
   -0.3091    1.4703   -0.6293 C   0  0  0  0  0  0  0  0  0  0  0  0
   -0.1958    2.7036   -0.8921 O   0  0  0  0  0  0  0  0  0  0  0  0
   -1.5891    0.7979   -0.6960 N   0  0  0  0  0  0  0  0  0  0  0  0
   -1.5745   -0.5963   -0.3894 C   0  0  0  0  0  0  0  0  0  0  0  0
   -1.9977   -1.3784   -1.5893 C   0  0  0  0  0  0  0  0  0  0  0  0
   -2.0436   -2.8319   -1.2029 C   0  0  0  0  0  0  0  0  0  0  0  0
   -2.1714   -2.8385    0.5722 S   0  0  0  0  0  0  0  0  0  0  0  0
   -0.8788   -3.2545    1.1554 O   0  0  0  0  0  0  0  0  0  0  0  0
   -3.3666   -3.5477    1.0783 O   0  0  0  0  0  0  0  0  0  0  0  0
   -2.3470   -1.0385    0.7831 C   0  0  0  0  0  0  0  0  0  0  0  0
   -2.7035    1.5956   -1.1029 C   0  0  0  0  0  0  0  0  0  0  0  0
   -3.3645    2.2425   -0.0027 C   0  0  0  0  0  0  0  0  0  0  0  0
   -3.0932    3.4500    0.6604 C   0  0  0  0  0  0  0  0  0  0  0  0
   -3.8728    3.8701    1.6297 C   0  0  0  0  0  0  0  0  0  0  0  0
   -4.9817    3.0945    1.9930 C   0  0  0  0  0  0  0  0  0  0  0  0
   -4.8875    1.6478    0.8440 S   0  0  0  0  0  0  0  0  0  0  0  0
    4.9782   -2.0562    3.3399 H   0  0  0  0  0  0  0  0  0  0  0  0
    6.4106   -1.9188    2.2776 H   0  0  0  0  0  0  0  0  0  0  0  0
    5.2679   -3.2851    1.9958 H   0  0  0  0  0  0  0  0  0  0  0  0
    6.0110   -1.4242   -0.1799 H   0  0  0  0  0  0  0  0  0  0  0  0
    4.6771   -0.1472   -1.8293 H   0  0  0  0  0  0  0  0  0  0  0  0
    2.8633   -1.2890    2.6418 H   0  0  0  0  0  0  0  0  0  0  0  0
    1.9885    2.3859   -2.5039 H   0  0  0  0  0  0  0  0  0  0  0  0
    1.3637    0.7891   -3.2249 H   0  0  0  0  0  0  0  0  0  0  0  0
    3.0806    1.0738   -2.9268 H   0  0  0  0  0  0  0  0  0  0  0  0
   -0.4877   -0.8801   -0.1734 H   0  0  0  0  0  0  0  0  0  0  0  0
   -2.9399   -1.0104   -2.0385 H   0  0  0  0  0  0  0  0  0  0  0  0
   -1.2135   -1.2708   -2.3639 H   0  0  0  0  0  0  0  0  0  0  0  0
   -2.9951   -3.2465   -1.5943 H   0  0  0  0  0  0  0  0  0  0  0  0
   -1.2016   -3.4246   -1.5728 H   0  0  0  0  0  0  0  0  0  0  0  0
   -3.3971   -0.7862    0.8479 H   0  0  0  0  0  0  0  0  0  0  0  0
   -1.8252   -0.7929    1.7076 H   0  0  0  0  0  0  0  0  0  0  0  0
   -2.3154    2.4079   -1.7967 H   0  0  0  0  0  0  0  0  0  0  0  0
   -3.3996    1.0347   -1.7818 H   0  0  0  0  0  0  0  0  0  0  0  0
   -2.1957    4.0164    0.3125 H   0  0  0  0  0  0  0  0  0  0  0  0
   -3.7149    4.8145    2.1972 H   0  0  0  0  0  0  0  0  0  0  0  0
   -5.7642    3.2199    2.7467 H   0  0  0  0  0  0  0  0  0  0  0  0
  1  2  1  0
  2  3  2  0
  3  4  1  0
  4  5  2  0
  5  6  1  0
  6  7  2  0
  6  8  1  0
  8  9  1  0
  9 10  2  0
 10 11  1  0
  9 12  1  0
 12 13  2  0
 12 14  1  0
 14 15  1  0
 15 16  1  0
 16 17  1  0
 17 18  1  0
 18 19  2  0
 18 20  2  0
 18 21  1  0
 14 22  1  0
 22 23  1  0
 23 24  2  0
 24 25  1  0
 25 26  2  0
 26 27  1  0
  7  2  1  0
 21 15  1  0
 27 23  1  0
 10  5  1  0
  1 28  1  0
  1 29  1  0
  1 30  1  0
  3 31  1  0
  4 32  1  0
  7 33  1  0
 11 34  1  0
 11 35  1  0
 11 36  1  0
 15 37  1  0
 16 38  1  0
 16 39  1  0
 17 40  1  0
 17 41  1  0
 21 42  1  0
 21 43  1  0
 22 44  1  0
 22 45  1  0
 24 46  1  0
 25 47  1  0
 26 48  1  0
M  END
>  <Ligand ID>  (1) 
LIG0003891

>  <Ligand>  (1) 
MLS000534974

>  <SMILES>  (1) 
Cc1ccc2c(c1)oc(c2C)C(=O)N(C1CCS(=O)(=O)C1)Cc1cccs1

>  <CID>  (1) 
2946860.0

>  <ChEMBL ID>  (1) 
nan

>  <InChiKey>  (1) 
DVEIXFGISKQTHR-UHFFFAOYSA-N

>  <InChi>  (1) 
InChI=1S/C20H21NO4S2/c1-13-5-6-17-14(2)19(25-18(17)10-13)20(22)21(11-16-4-3-8-26-16)15-7-9-27(23,24)12-15/h3-6,8,10,15H,7,9,11-12H2,1-2H3

>  <IUPAC Name>  (1) 
N-(1,1-dioxothiolan-3-yl)-3,6-dimethyl-N-(thiophen-2-ylmethyl)-1-benzofuran-2-carboxamide

$$$$
