
     RDKit          3D

 19 19  0  0  0  0  0  0  0  0999 V2000
    3.5092    0.2152   -1.4100 O   0  0  0  0  0  0  0  0  0  0  0  0
    2.4117    0.3623   -0.8126 C   0  0  0  0  0  0  0  0  0  0  0  0
    2.0421    1.3506    0.1586 N   0  0  0  0  0  0  0  0  0  0  0  0
    0.7007    1.2050    0.4162 O   0  0  0  0  0  0  0  0  0  0  0  0
    0.5651   -0.1570    0.3968 C   0  0  2  0  0  0  0  0  0  0  0  0
    1.1630   -0.4749   -0.9568 C   0  0  0  0  0  0  0  0  0  0  0  0
   -0.8032   -0.6955    0.5871 C   0  0  2  0  0  0  0  0  0  0  0  0
   -1.7825   -0.3084   -0.4253 C   0  0  0  0  0  0  0  0  0  0  0  0
   -1.6361   -0.5606   -1.6710 O   0  0  0  0  0  0  0  0  0  0  0  0
   -2.9606    0.3711   -0.1058 O   0  0  0  0  0  0  0  0  0  0  0  0
   -1.2962   -0.2549    1.8831 N   0  0  0  0  0  0  0  0  0  0  0  0
    2.7087    2.0374    0.5685 H   0  0  0  0  0  0  0  0  0  0  0  0
    1.2375   -0.5699    1.1591 H   0  0  0  0  0  0  0  0  0  0  0  0
    0.6296   -0.0125   -1.8025 H   0  0  0  0  0  0  0  0  0  0  0  0
    1.4086   -1.5366   -1.0931 H   0  0  0  0  0  0  0  0  0  0  0  0
   -0.7333   -1.7979    0.6291 H   0  0  0  0  0  0  0  0  0  0  0  0
   -3.3923    1.0549   -0.7449 H   0  0  0  0  0  0  0  0  0  0  0  0
   -2.0468   -0.9307    2.1720 H   0  0  0  0  0  0  0  0  0  0  0  0
   -1.7250    0.7024    1.7117 H   0  0  0  0  0  0  0  0  0  0  0  0
  1  2  2  0
  2  3  1  0
  3  4  1  0
  4  5  1  0
  5  6  1  0
  5  7  1  0
  7  8  1  0
  8  9  2  0
  8 10  1  0
  7 11  1  0
  6  2  1  0
  3 12  1  0
  5 13  1  1
  6 14  1  0
  6 15  1  0
  7 16  1  1
 10 17  1  0
 11 18  1  0
 11 19  1  0
M  END
>  <Ligand ID>  (1) 
LIG0001190

>  <Ligand>  (1) 
CHEMBL260327

>  <SMILES>  (1) 
O=C1NO[C@H](C1)[C@H](C(=O)O)N

>  <CID>  (1) 
44450471.0

>  <ChEMBL ID>  (1) 
nan

>  <InChiKey>  (1) 
NTHMUJMQOXQYBR-VVJJHMBFSA-N

>  <InChi>  (1) 
InChI=1S/C5H8N2O4/c6-4(5(9)10)2-1-3(8)7-11-2/h2,4H,1,6H2,(H,7,8)(H,9,10)/t2-,4-/m1/s1

>  <IUPAC Name>  (1) 
(2R)-2-amino-2-[(5R)-3-oxo-1,2-oxazolidin-5-yl]acetic acid

$$$$
