
     RDKit          3D

 15 15  0  0  0  0  0  0  0  0999 V2000
    2.7769   -0.2123   -0.3375 C   0  0  0  0  0  0  0  0  0  0  0  0
    1.3148   -0.0705   -0.1568 C   0  0  0  0  0  0  0  0  0  0  0  0
    0.6170    1.0154    0.2467 C   0  0  0  0  0  0  0  0  0  0  0  0
   -0.7175    0.9212    0.3419 C   0  0  0  0  0  0  0  0  0  0  0  0
   -1.2832   -0.2899    0.0174 C   0  0  0  0  0  0  0  0  0  0  0  0
    0.0717   -1.3134   -0.4279 S   0  0  0  0  0  0  0  0  0  0  0  0
   -2.7430   -0.6702    0.0353 C   0  0  0  0  0  0  0  0  0  0  0  0
    3.0626   -1.2394    0.0111 H   0  0  0  0  0  0  0  0  0  0  0  0
    3.1038   -0.1069   -1.3835 H   0  0  0  0  0  0  0  0  0  0  0  0
    3.2629    0.4779    0.3686 H   0  0  0  0  0  0  0  0  0  0  0  0
    1.1549    1.9668    0.4928 H   0  0  0  0  0  0  0  0  0  0  0  0
   -1.3707    1.7586    0.6638 H   0  0  0  0  0  0  0  0  0  0  0  0
   -2.9677   -1.2771   -0.8634 H   0  0  0  0  0  0  0  0  0  0  0  0
   -2.9945   -1.2339    0.9516 H   0  0  0  0  0  0  0  0  0  0  0  0
   -3.2880    0.2736    0.0400 H   0  0  0  0  0  0  0  0  0  0  0  0
  1  2  1  0
  2  3  2  0
  3  4  1  0
  4  5  2  0
  5  6  1  0
  5  7  1  0
  6  2  1  0
  1  8  1  0
  1  9  1  0
  1 10  1  0
  3 11  1  0
  4 12  1  0
  7 13  1  0
  7 14  1  0
  7 15  1  0
M  END
>  <Ligand ID>  (1) 
LIG0000738

>  <Ligand>  (1) 
2,5-dimethylthiophene

>  <SMILES>  (1) 
Cc1ccc(s1)C

>  <CID>  (1) 
12514.0

>  <ChEMBL ID>  (1) 
nan

>  <InChiKey>  (1) 
GWQOOADXMVQEFT-UHFFFAOYSA-N

>  <InChi>  (1) 
InChI=1S/C6H8S/c1-5-3-4-6(2)7-5/h3-4H,1-2H3

>  <IUPAC Name>  (1) 
2,5-dimethylthiophene

$$$$
