
     RDKit          3D

 77 81  0  0  0  0  0  0  0  0999 V2000
    4.6617    1.8958   -0.0028 O   0  0  0  0  0  0  0  0  0  0  0  0
    5.2784    1.7830    1.0829 C   0  0  0  0  0  0  0  0  0  0  0  0
    6.7553    1.6973    1.0206 C   0  0  0  0  0  0  0  0  0  0  0  0
    7.2904    1.6450   -0.3940 C   0  0  0  0  0  0  0  0  0  0  0  0
    6.7997    0.4752   -1.1266 C   0  0  0  0  0  0  0  0  0  0  0  0
    5.8502    0.3243   -2.1050 C   0  0  0  0  0  0  0  0  0  0  0  0
    5.7633   -0.9861   -2.4649 N   0  0  0  0  0  0  0  0  0  0  0  0
    6.6490   -1.7067   -1.7316 C   0  0  0  0  0  0  0  0  0  0  0  0
    7.2948   -0.8157   -0.9018 C   0  0  0  0  0  0  0  0  0  0  0  0
    8.2610   -1.3012   -0.0401 C   0  0  0  0  0  0  0  0  0  0  0  0
    8.5984   -2.6458    0.0145 C   0  0  0  0  0  0  0  0  0  0  0  0
    7.9492   -3.5372   -0.8180 C   0  0  0  0  0  0  0  0  0  0  0  0
    6.9736   -3.0526   -1.6890 C   0  0  0  0  0  0  0  0  0  0  0  0
    4.6220    1.7364    2.3273 N   0  0  0  0  0  0  0  0  0  0  0  0
    3.1708    1.8179    2.4441 C   0  0  0  0  0  0  0  0  0  0  0  0
    2.5864    0.6744    1.6902 C   0  0  0  0  0  0  0  0  0  0  0  0
    1.0700    0.6195    1.7128 C   0  0  0  0  0  0  0  0  0  0  0  0
    0.4462    1.8447    1.1363 C   0  0  0  0  0  0  0  0  0  0  0  0
   -1.0609    1.8465    1.1254 C   0  0  0  0  0  0  0  0  0  0  0  0
   -1.6758    0.7724    0.3480 C   0  0  0  0  0  0  0  0  0  0  0  0
   -1.0188   -0.0947   -0.3201 O   0  0  0  0  0  0  0  0  0  0  0  0
   -3.0934    0.6563    0.3105 N   0  0  0  0  0  0  0  0  0  0  0  0
   -3.9820    1.5687    1.0141 C   0  0  0  0  0  0  0  0  0  0  0  0
   -4.8269    2.2048   -0.0251 C   0  0  2  0  0  0  0  0  0  0  0  0
   -6.1232    2.6927    0.6214 C   0  0  0  0  0  0  0  0  0  0  0  0
   -7.1310    2.7003   -0.5164 C   0  0  0  0  0  0  0  0  0  0  0  0
   -6.4996    1.8402   -1.5897 C   0  0  0  0  0  0  0  0  0  0  0  0
   -5.1848    1.4746   -1.1564 N   0  0  0  0  0  0  0  0  0  0  0  0
   -4.8142    0.1262   -1.3224 C   0  0  0  0  0  0  0  0  0  0  0  0
   -3.7605   -0.4152   -0.4543 C   0  0  2  0  0  0  0  0  0  0  0  0
   -4.2264   -1.4805    0.5063 C   0  0  0  0  0  0  0  0  0  0  0  0
   -4.9121   -2.6207   -0.1133 C   0  0  0  0  0  0  0  0  0  0  0  0
   -6.2726   -2.7428   -0.2673 C   0  0  0  0  0  0  0  0  0  0  0  0
   -6.8817   -3.8290   -0.8693 C   0  0  0  0  0  0  0  0  0  0  0  0
   -6.0521   -4.8390   -1.3357 C   0  0  0  0  0  0  0  0  0  0  0  0
   -4.6739   -4.7542   -1.1994 C   0  0  0  0  0  0  0  0  0  0  0  0
   -4.1087   -3.6572   -0.5953 C   0  0  0  0  0  0  0  0  0  0  0  0
    7.1906    2.6462    1.4581 H   0  0  0  0  0  0  0  0  0  0  0  0
    7.1629    0.8494    1.5755 H   0  0  0  0  0  0  0  0  0  0  0  0
    7.0957    2.6142   -0.9298 H   0  0  0  0  0  0  0  0  0  0  0  0
    8.3979    1.6052   -0.3064 H   0  0  0  0  0  0  0  0  0  0  0  0
    5.2559    1.1151   -2.5383 H   0  0  0  0  0  0  0  0  0  0  0  0
    5.1238   -1.3861   -3.1843 H   0  0  0  0  0  0  0  0  0  0  0  0
    8.7960   -0.6292    0.6326 H   0  0  0  0  0  0  0  0  0  0  0  0
    9.3710   -2.9597    0.7167 H   0  0  0  0  0  0  0  0  0  0  0  0
    8.1983   -4.6025   -0.7902 H   0  0  0  0  0  0  0  0  0  0  0  0
    6.4681   -3.7757   -2.3457 H   0  0  0  0  0  0  0  0  0  0  0  0
    5.2383    1.6380    3.1853 H   0  0  0  0  0  0  0  0  0  0  0  0
    2.9246    1.7647    3.5223 H   0  0  0  0  0  0  0  0  0  0  0  0
    2.7973    2.8087    2.1085 H   0  0  0  0  0  0  0  0  0  0  0  0
    2.9137   -0.2615    2.2245 H   0  0  0  0  0  0  0  0  0  0  0  0
    2.9068    0.5573    0.6603 H   0  0  0  0  0  0  0  0  0  0  0  0
    0.6657    0.3568    2.7099 H   0  0  0  0  0  0  0  0  0  0  0  0
    0.8166   -0.2451    1.0602 H   0  0  0  0  0  0  0  0  0  0  0  0
    0.7677    1.9995    0.0713 H   0  0  0  0  0  0  0  0  0  0  0  0
    0.7548    2.7797    1.6496 H   0  0  0  0  0  0  0  0  0  0  0  0
   -1.4847    1.8272    2.1527 H   0  0  0  0  0  0  0  0  0  0  0  0
   -1.3715    2.8141    0.6351 H   0  0  0  0  0  0  0  0  0  0  0  0
   -3.3730    2.3069    1.5732 H   0  0  0  0  0  0  0  0  0  0  0  0
   -4.6709    0.9909    1.6886 H   0  0  0  0  0  0  0  0  0  0  0  0
   -4.3082    3.1552   -0.3500 H   0  0  0  0  0  0  0  0  0  0  0  0
   -6.0501    3.6936    1.0484 H   0  0  0  0  0  0  0  0  0  0  0  0
   -6.4728    1.9979    1.4051 H   0  0  0  0  0  0  0  0  0  0  0  0
   -7.2973    3.7249   -0.8983 H   0  0  0  0  0  0  0  0  0  0  0  0
   -8.0820    2.2671   -0.1811 H   0  0  0  0  0  0  0  0  0  0  0  0
   -7.1351    0.9725   -1.8114 H   0  0  0  0  0  0  0  0  0  0  0  0
   -6.3835    2.4538   -2.5218 H   0  0  0  0  0  0  0  0  0  0  0  0
   -4.4634    0.0242   -2.3973 H   0  0  0  0  0  0  0  0  0  0  0  0
   -5.7156   -0.5109   -1.2859 H   0  0  0  0  0  0  0  0  0  0  0  0
   -2.9319   -0.8963   -1.0582 H   0  0  0  0  0  0  0  0  0  0  0  0
   -4.9538   -1.0133    1.2194 H   0  0  0  0  0  0  0  0  0  0  0  0
   -3.3505   -1.8829    1.0698 H   0  0  0  0  0  0  0  0  0  0  0  0
   -6.9286   -1.9678    0.1006 H   0  0  0  0  0  0  0  0  0  0  0  0
   -7.9587   -3.8763   -0.9657 H   0  0  0  0  0  0  0  0  0  0  0  0
   -6.5381   -5.6929   -1.8079 H   0  0  0  0  0  0  0  0  0  0  0  0
   -4.0677   -5.5599   -1.5727 H   0  0  0  0  0  0  0  0  0  0  0  0
   -3.0301   -3.6206   -0.5038 H   0  0  0  0  0  0  0  0  0  0  0  0
  1  2  2  0
  2  3  1  0
  3  4  1  0
  4  5  1  0
  5  6  2  0
  6  7  1  0
  7  8  1  0
  8  9  2  0
  9 10  1  0
 10 11  2  0
 11 12  1  0
 12 13  2  0
  2 14  1  0
 14 15  1  0
 15 16  1  0
 16 17  1  0
 17 18  1  0
 18 19  1  0
 19 20  1  0
 20 21  2  0
 20 22  1  0
 22 23  1  0
 23 24  1  0
 24 25  1  0
 25 26  1  0
 26 27  1  0
 27 28  1  0
 28 29  1  0
 29 30  1  0
 30 31  1  0
 31 32  1  0
 32 33  2  0
 33 34  1  0
 34 35  2  0
 35 36  1  0
 36 37  2  0
  9  5  1  0
 30 22  1  0
 37 32  1  0
 13  8  1  0
 28 24  1  0
  3 38  1  0
  3 39  1  0
  4 40  1  0
  4 41  1  0
  6 42  1  0
  7 43  1  0
 10 44  1  0
 11 45  1  0
 12 46  1  0
 13 47  1  0
 14 48  1  0
 15 49  1  0
 15 50  1  0
 16 51  1  0
 16 52  1  0
 17 53  1  0
 17 54  1  0
 18 55  1  0
 18 56  1  0
 19 57  1  0
 19 58  1  0
 23 59  1  0
 23 60  1  0
 24 61  1  6
 25 62  1  0
 25 63  1  0
 26 64  1  0
 26 65  1  0
 27 66  1  0
 27 67  1  0
 29 68  1  0
 29 69  1  0
 30 70  1  6
 31 71  1  0
 31 72  1  0
 33 73  1  0
 34 74  1  0
 35 75  1  0
 36 76  1  0
 37 77  1  0
M  END
>  <Ligand ID>  (1) 
LIG0001310

>  <Ligand>  (1) 
CHEMBL218558

>  <SMILES>  (1) 
O=C(CCc1c[nH]c2c1cccc2)NCCCCCC(=O)N1C[C@@H]2CCCN2C[C@@H]1Cc1ccccc1

>  <CID>  (1) 
44418413.0

>  <ChEMBL ID>  (1) 
nan

>  <InChiKey>  (1) 
RERDNSGJFYIBFA-SVBPBHIXSA-N

>  <InChi>  (1) 
InChI=1S/C31H40N4O2/c36-30(17-16-25-21-33-29-14-7-6-13-28(25)29)32-18-8-2-5-15-31(37)35-23-26-12-9-19-34(26)22-27(35)20-24-10-3-1-4-11-24/h1,3-4,6-7,10-11,13-14,21,26-27,33H,2,5,8-9,12,15-20,22-23H2,(H,32,36)/t26-,27-/m0/s1

>  <IUPAC Name>  (1) 
N-[6-[(3S,8aS)-3-benzyl-3,4,6,7,8,8a-hexahydro-1H-pyrrolo[1,2-a]pyrazin-2-yl]-6-oxohexyl]-3-(1H-indol-3-yl)propanamide

$$$$
