
     RDKit          3D

 42 45  0  0  0  0  0  0  0  0999 V2000
   -7.5224   -3.0685    1.4988 F   0  0  0  0  0  0  0  0  0  0  0  0
   -6.4228   -2.3980    1.0542 C   0  0  0  0  0  0  0  0  0  0  0  0
   -5.1889   -3.0337    0.9255 C   0  0  0  0  0  0  0  0  0  0  0  0
   -4.0899   -2.3341    0.4725 C   0  0  0  0  0  0  0  0  0  0  0  0
   -4.1612   -0.9894    0.1304 C   0  0  0  0  0  0  0  0  0  0  0  0
   -5.4047   -0.3978    0.2734 C   0  0  0  0  0  0  0  0  0  0  0  0
   -6.4633   -1.0969    0.7164 N   0  0  0  0  0  0  0  0  0  0  0  0
   -2.9907   -0.2527   -0.3517 C   0  0  0  0  0  0  0  0  0  0  0  0
   -1.9886   -0.8548   -1.0943 C   0  0  0  0  0  0  0  0  0  0  0  0
   -0.8971   -0.1109   -1.5256 C   0  0  0  0  0  0  0  0  0  0  0  0
   -0.8232    1.2253   -1.2078 C   0  0  0  0  0  0  0  0  0  0  0  0
   -1.8380    1.7999   -0.4652 C   0  0  0  0  0  0  0  0  0  0  0  0
   -2.9322    1.0862   -0.0243 C   0  0  0  0  0  0  0  0  0  0  0  0
    0.2936    2.1119   -1.6132 C   0  0  0  0  0  0  0  0  0  0  0  0
    1.3272    2.0861   -0.5781 N   0  0  0  0  0  0  0  0  0  0  0  0
    2.4496    1.2493   -0.4447 C   0  0  0  0  0  0  0  0  0  0  0  0
    2.9049    0.2175   -1.2392 C   0  0  0  0  0  0  0  0  0  0  0  0
    4.0648   -0.4879   -0.9119 C   0  0  0  0  0  0  0  0  0  0  0  0
    4.7998   -0.1709    0.2294 C   0  0  0  0  0  0  0  0  0  0  0  0
    4.3358    0.8715    1.0280 C   0  0  0  0  0  0  0  0  0  0  0  0
    3.1788    1.5719    0.6978 C   0  0  0  0  0  0  0  0  0  0  0  0
    2.5170    2.6865    1.3768 C   0  0  0  0  0  0  0  0  0  0  0  0
    2.8740    3.2583    2.4412 O   0  0  0  0  0  0  0  0  0  0  0  0
    1.3459    2.9829    0.5346 C   0  0  0  0  0  0  0  0  0  0  0  0
    0.5425    3.9033    0.8313 O   0  0  0  0  0  0  0  0  0  0  0  0
    5.9396   -0.8813    0.5276 O   0  0  0  0  0  0  0  0  0  0  0  0
    5.8406   -2.0382    1.3309 C   0  0  0  0  0  0  0  0  0  0  0  0
    5.3082   -1.6502    2.5552 F   0  0  0  0  0  0  0  0  0  0  0  0
    5.0420   -2.9460    0.6766 F   0  0  0  0  0  0  0  0  0  0  0  0
    7.0833   -2.6292    1.5125 F   0  0  0  0  0  0  0  0  0  0  0  0
   -5.1483   -4.0771    1.1947 H   0  0  0  0  0  0  0  0  0  0  0  0
   -3.1247   -2.8312    0.3733 H   0  0  0  0  0  0  0  0  0  0  0  0
   -5.5403    0.6413    0.0281 H   0  0  0  0  0  0  0  0  0  0  0  0
   -2.0747   -1.9177   -1.3314 H   0  0  0  0  0  0  0  0  0  0  0  0
   -0.1039   -0.5605   -2.1068 H   0  0  0  0  0  0  0  0  0  0  0  0
   -1.8234    2.8596   -0.1874 H   0  0  0  0  0  0  0  0  0  0  0  0
   -3.7067    1.5686    0.5543 H   0  0  0  0  0  0  0  0  0  0  0  0
   -0.0637    3.1440   -1.8185 H   0  0  0  0  0  0  0  0  0  0  0  0
    0.7803    1.6907   -2.5330 H   0  0  0  0  0  0  0  0  0  0  0  0
    2.3856   -0.0847   -2.1414 H   0  0  0  0  0  0  0  0  0  0  0  0
    4.4203   -1.2969   -1.5360 H   0  0  0  0  0  0  0  0  0  0  0  0
    4.8750    1.1537    1.9277 H   0  0  0  0  0  0  0  0  0  0  0  0
  1  2  1  0
  2  3  2  0
  3  4  1  0
  4  5  2  0
  5  6  1  0
  6  7  2  0
  5  8  1  0
  8  9  2  0
  9 10  1  0
 10 11  2  0
 11 12  1  0
 12 13  2  0
 11 14  1  0
 14 15  1  0
 15 16  1  0
 16 17  2  0
 17 18  1  0
 18 19  2  0
 19 20  1  0
 20 21  2  0
 21 22  1  0
 22 23  2  0
 22 24  1  0
 24 25  2  0
 19 26  1  0
 26 27  1  0
 27 28  1  0
 27 29  1  0
 27 30  1  0
  7  2  1  0
 13  8  1  0
 24 15  1  0
 21 16  1  0
  3 31  1  0
  4 32  1  0
  6 33  1  0
  9 34  1  0
 10 35  1  0
 12 36  1  0
 13 37  1  0
 14 38  1  0
 14 39  1  0
 17 40  1  0
 18 41  1  0
 20 42  1  0
M  END
>  <Ligand ID>  (1) 
LIG0005944

>  <Ligand>  (1) 
CHEMBL596509

>  <SMILES>  (1) 
Fc1ccc(cn1)c1ccc(cc1)CN1c2ccc(cc2C(=O)C1=O)OC(F)(F)F

>  <CID>  (1) 
45281801.0

>  <ChEMBL ID>  (1) 
nan

>  <InChiKey>  (1) 
AWIDPYRUVXANEO-UHFFFAOYSA-N

>  <InChi>  (1) 
InChI=1S/C21H12F4N2O3/c22-18-8-5-14(10-26-18)13-3-1-12(2-4-13)11-27-17-7-6-15(30-21(23,24)25)9-16(17)19(28)20(27)29/h1-10H,11H2

>  <IUPAC Name>  (1) 
1-[[4-(6-fluoropyridin-3-yl)phenyl]methyl]-5-(trifluoromethoxy)indole-2,3-dione

$$$$
