
     RDKit          3D

 32 33  0  0  0  0  0  0  0  0999 V2000
    4.8127   -0.8668    0.0274 N   0  0  0  0  0  0  0  0  0  0  0  0
    4.7421    0.5684   -0.1498 C   0  0  0  0  0  0  0  0  0  0  0  0
    3.5975    1.0511    0.7176 C   0  0  0  0  0  0  0  0  0  0  0  0
    2.3147    0.4380    0.3336 C   0  0  0  0  0  0  0  0  0  0  0  0
    1.5600    1.1140   -0.6272 C   0  0  0  0  0  0  0  0  0  0  0  0
    0.3429    0.6243   -1.0566 C   0  0  0  0  0  0  0  0  0  0  0  0
   -0.7281    1.6990   -2.5021 I   0  0  0  0  0  0  0  0  0  0  0  0
   -0.1270   -0.5641   -0.5140 C   0  0  0  0  0  0  0  0  0  0  0  0
    0.6113   -1.2417    0.4376 C   0  0  0  0  0  0  0  0  0  0  0  0
    1.8309   -0.7427    0.8620 C   0  0  0  0  0  0  0  0  0  0  0  0
   -0.1437   -3.0373    1.2289 I   0  0  0  0  0  0  0  0  0  0  0  0
   -1.3568   -1.0137   -0.9799 O   0  0  0  0  0  0  0  0  0  0  0  0
   -2.5588   -0.6413   -0.3657 C   0  0  0  0  0  0  0  0  0  0  0  0
   -2.5474    0.1924    0.7313 C   0  0  0  0  0  0  0  0  0  0  0  0
   -3.7100    0.5643    1.3408 C   0  0  0  0  0  0  0  0  0  0  0  0
   -4.8946    0.0731    0.8157 C   0  0  0  0  0  0  0  0  0  0  0  0
   -4.9052   -0.7714   -0.2955 C   0  0  0  0  0  0  0  0  0  0  0  0
   -3.7229   -1.1461   -0.9108 C   0  0  0  0  0  0  0  0  0  0  0  0
   -6.0689    0.4591    1.4451 O   0  0  0  0  0  0  0  0  0  0  0  0
    5.6980   -1.2092    0.4296 H   0  0  0  0  0  0  0  0  0  0  0  0
    4.4423   -1.4184   -0.7570 H   0  0  0  0  0  0  0  0  0  0  0  0
    5.7030    0.9819    0.2085 H   0  0  0  0  0  0  0  0  0  0  0  0
    4.5938    0.8933   -1.1854 H   0  0  0  0  0  0  0  0  0  0  0  0
    3.5141    2.1704    0.6420 H   0  0  0  0  0  0  0  0  0  0  0  0
    3.8413    0.7625    1.7663 H   0  0  0  0  0  0  0  0  0  0  0  0
    1.9290    2.0509   -1.0560 H   0  0  0  0  0  0  0  0  0  0  0  0
    2.4130   -1.2607    1.6008 H   0  0  0  0  0  0  0  0  0  0  0  0
   -1.6000    0.5703    1.1316 H   0  0  0  0  0  0  0  0  0  0  0  0
   -3.6757    1.2196    2.2004 H   0  0  0  0  0  0  0  0  0  0  0  0
   -5.8607   -1.1329   -0.6734 H   0  0  0  0  0  0  0  0  0  0  0  0
   -3.7080   -1.7959   -1.7683 H   0  0  0  0  0  0  0  0  0  0  0  0
   -6.3390    1.4097    1.6033 H   0  0  0  0  0  0  0  0  0  0  0  0
  1  2  1  0
  2  3  1  0
  3  4  1  0
  4  5  2  0
  5  6  1  0
  6  7  1  0
  6  8  2  0
  8  9  1  0
  9 10  2  0
  9 11  1  0
  8 12  1  0
 12 13  1  0
 13 14  2  0
 14 15  1  0
 15 16  2  0
 16 17  1  0
 17 18  2  0
 16 19  1  0
 10  4  1  0
 18 13  1  0
  1 20  1  0
  1 21  1  0
  2 22  1  0
  2 23  1  0
  3 24  1  0
  3 25  1  0
  5 26  1  0
 10 27  1  0
 14 28  1  0
 15 29  1  0
 17 30  1  0
 18 31  1  0
 19 32  1  0
M  END
>  <Ligand ID>  (1) 
LIG0005968

>  <Ligand>  (1) 
CHEMBL201922

>  <SMILES>  (1) 
NCCc1cc(I)c(c(c1)I)Oc1ccc(cc1)O

>  <CID>  (1) 
11283037.0

>  <ChEMBL ID>  (1) 
nan

>  <InChiKey>  (1) 
VRTFFYRVOATSBT-UHFFFAOYSA-N

>  <InChi>  (1) 
InChI=1S/C14H13I2NO2/c15-12-7-9(5-6-17)8-13(16)14(12)19-11-3-1-10(18)2-4-11/h1-4,7-8,18H,5-6,17H2

>  <IUPAC Name>  (1) 
4-[4-(2-aminoethyl)-2,6-diiodophenoxy]phenol

$$$$
