
     RDKit          3D

 58 62  0  0  0  0  0  0  0  0999 V2000
   -1.0054   -4.9798   -0.7779 C   0  0  0  0  0  0  0  0  0  0  0  0
   -2.3661   -4.5339   -0.8086 O   0  0  0  0  0  0  0  0  0  0  0  0
   -2.5463   -3.1621   -0.5628 C   0  0  0  0  0  0  0  0  0  0  0  0
   -1.4740   -2.3257   -0.3125 C   0  0  0  0  0  0  0  0  0  0  0  0
   -1.6812   -1.0047   -0.0787 C   0  0  0  0  0  0  0  0  0  0  0  0
   -2.9866   -0.5408   -0.1012 C   0  0  0  0  0  0  0  0  0  0  0  0
   -4.0683   -1.3530   -0.3477 C   0  0  0  0  0  0  0  0  0  0  0  0
   -3.8479   -2.7089   -0.5870 C   0  0  0  0  0  0  0  0  0  0  0  0
   -4.9088   -3.5630   -0.8396 O   0  0  0  0  0  0  0  0  0  0  0  0
   -6.2205   -3.0360   -0.8509 C   0  0  0  0  0  0  0  0  0  0  0  0
   -3.2166    0.7529    0.1261 N   0  0  0  0  0  0  0  0  0  0  0  0
   -2.1877    1.5869    0.3728 C   0  0  0  0  0  0  0  0  0  0  0  0
   -0.9197    1.1411    0.3957 N   0  0  0  0  0  0  0  0  0  0  0  0
   -0.6131   -0.1700    0.1715 C   0  0  0  0  0  0  0  0  0  0  0  0
    0.7382   -0.6073    0.2009 N   0  0  0  0  0  0  0  0  0  0  0  0
    1.4076   -1.2063   -0.9422 C   0  0  0  0  0  0  0  0  0  0  0  0
    2.5881   -0.2679   -1.2353 C   0  0  0  0  0  0  0  0  0  0  0  0
    3.4086   -0.2171   -0.0375 N   0  0  0  0  0  0  0  0  0  0  0  0
    2.9371   -0.8141    1.2087 C   0  0  0  0  0  0  0  0  0  0  0  0
    1.4861   -0.4461    1.4294 C   0  0  0  0  0  0  0  0  0  0  0  0
    4.6877    0.3977    0.0011 C   0  0  0  0  0  0  0  0  0  0  0  0
    5.7585   -0.4163    0.3310 C   0  0  0  0  0  0  0  0  0  0  0  0
    7.0443    0.0923    0.3936 C   0  0  0  0  0  0  0  0  0  0  0  0
    7.2726    1.4285    0.1252 C   0  0  0  0  0  0  0  0  0  0  0  0
    6.1930    2.2317   -0.2034 C   0  0  0  0  0  0  0  0  0  0  0  0
    4.9075    1.7293   -0.2674 C   0  0  0  0  0  0  0  0  0  0  0  0
    3.5650    2.7581   -0.6813 Cl  0  0  0  0  0  0  0  0  0  0  0  0
   -2.4855    2.9932    0.6157 C   0  0  0  0  0  0  0  0  0  0  0  0
   -1.5094    3.9229    0.8763 C   0  0  0  0  0  0  0  0  0  0  0  0
   -1.8371    5.2393    1.0993 C   0  0  0  0  0  0  0  0  0  0  0  0
   -3.1497    5.6640    1.0683 C   0  0  0  0  0  0  0  0  0  0  0  0
   -4.1610    4.7330    0.8045 C   0  0  0  0  0  0  0  0  0  0  0  0
   -3.8107    3.4027    0.5807 C   0  0  0  0  0  0  0  0  0  0  0  0
   -0.4549   -4.3717   -1.5244 H   0  0  0  0  0  0  0  0  0  0  0  0
   -0.5484   -4.7593    0.2102 H   0  0  0  0  0  0  0  0  0  0  0  0
   -0.9781   -6.0740   -0.9931 H   0  0  0  0  0  0  0  0  0  0  0  0
   -0.4899   -2.7238   -0.3042 H   0  0  0  0  0  0  0  0  0  0  0  0
   -5.0773   -0.9401   -0.3547 H   0  0  0  0  0  0  0  0  0  0  0  0
   -6.3093   -2.3343   -1.7241 H   0  0  0  0  0  0  0  0  0  0  0  0
   -6.3707   -2.4551    0.1004 H   0  0  0  0  0  0  0  0  0  0  0  0
   -6.9703   -3.8497   -0.9643 H   0  0  0  0  0  0  0  0  0  0  0  0
    0.7696   -1.3241   -1.8152 H   0  0  0  0  0  0  0  0  0  0  0  0
    1.8146   -2.2148   -0.6783 H   0  0  0  0  0  0  0  0  0  0  0  0
    3.1375   -0.5533   -2.1443 H   0  0  0  0  0  0  0  0  0  0  0  0
    2.1516    0.7558   -1.3599 H   0  0  0  0  0  0  0  0  0  0  0  0
    2.9318   -1.9250    1.0051 H   0  0  0  0  0  0  0  0  0  0  0  0
    3.5614   -0.5514    2.0587 H   0  0  0  0  0  0  0  0  0  0  0  0
    1.0999   -1.0888    2.2449 H   0  0  0  0  0  0  0  0  0  0  0  0
    1.3867    0.6148    1.7815 H   0  0  0  0  0  0  0  0  0  0  0  0
    5.6132   -1.4654    0.5462 H   0  0  0  0  0  0  0  0  0  0  0  0
    7.8985   -0.5461    0.6543 H   0  0  0  0  0  0  0  0  0  0  0  0
    8.2844    1.8069    0.1795 H   0  0  0  0  0  0  0  0  0  0  0  0
    6.3439    3.2919   -0.4204 H   0  0  0  0  0  0  0  0  0  0  0  0
   -0.4740    3.5983    0.9027 H   0  0  0  0  0  0  0  0  0  0  0  0
   -1.0434    5.9599    1.3043 H   0  0  0  0  0  0  0  0  0  0  0  0
   -3.4512    6.6839    1.2369 H   0  0  0  0  0  0  0  0  0  0  0  0
   -5.2132    5.0524    0.7754 H   0  0  0  0  0  0  0  0  0  0  0  0
   -4.6110    2.6926    0.3771 H   0  0  0  0  0  0  0  0  0  0  0  0
  1  2  1  0
  2  3  1  0
  3  4  2  0
  4  5  1  0
  5  6  2  0
  6  7  1  0
  7  8  2  0
  8  9  1  0
  9 10  1  0
  6 11  1  0
 11 12  2  0
 12 13  1  0
 13 14  2  0
 14 15  1  0
 15 16  1  0
 16 17  1  0
 17 18  1  0
 18 19  1  0
 19 20  1  0
 18 21  1  0
 21 22  2  0
 22 23  1  0
 23 24  2  0
 24 25  1  0
 25 26  2  0
 26 27  1  0
 12 28  1  0
 28 29  2  0
 29 30  1  0
 30 31  2  0
 31 32  1  0
 32 33  2  0
  8  3  1  0
 20 15  1  0
 26 21  1  0
 33 28  1  0
 14  5  1  0
  1 34  1  0
  1 35  1  0
  1 36  1  0
  4 37  1  0
  7 38  1  0
 10 39  1  0
 10 40  1  0
 10 41  1  0
 16 42  1  0
 16 43  1  0
 17 44  1  0
 17 45  1  0
 19 46  1  0
 19 47  1  0
 20 48  1  0
 20 49  1  0
 22 50  1  0
 23 51  1  0
 24 52  1  0
 25 53  1  0
 29 54  1  0
 30 55  1  0
 31 56  1  0
 32 57  1  0
 33 58  1  0
M  END
>  <Ligand ID>  (1) 
LIG0004746

>  <Ligand>  (1) 
CHEMBL2431137

>  <SMILES>  (1) 
COc1cc2c(cc1OC)nc(nc2N1CCN(CC1)c1ccccc1Cl)c1ccccc1

>  <CID>  (1) 
73347807.0

>  <ChEMBL ID>  (1) 
nan

>  <InChiKey>  (1) 
UKCACNHYQQFMNR-UHFFFAOYSA-N

>  <InChi>  (1) 
InChI=1S/C26H25ClN4O2/c1-32-23-16-19-21(17-24(23)33-2)28-25(18-8-4-3-5-9-18)29-26(19)31-14-12-30(13-15-31)22-11-7-6-10-20(22)27/h3-11,16-17H,12-15H2,1-2H3

>  <IUPAC Name>  (1) 
4-[4-(2-chlorophenyl)piperazin-1-yl]-6,7-dimethoxy-2-phenylquinazoline

$$$$
