
     RDKit          3D

100103  0  0  0  0  0  0  0  0999 V2000
    1.4250    6.5971   -1.9405 N   0  0  0  0  0  0  0  0  0  0  0  0
    2.7965    6.2498   -2.1152 C   0  0  0  0  0  0  0  0  0  0  0  0
    3.1239    5.3041   -2.8980 N   0  0  0  0  0  0  0  0  0  0  0  0
    2.2591    4.4763   -3.6894 C   0  0  0  0  0  0  0  0  0  0  0  0
    1.6808    3.3258   -2.8944 C   0  0  0  0  0  0  0  0  0  0  0  0
    2.7582    2.4303   -2.3386 C   0  0  0  0  0  0  0  0  0  0  0  0
    2.1931    1.2928   -1.5667 C   0  0  1  0  0  0  0  0  0  0  0  0
    3.1727    0.3632   -0.9811 C   0  0  0  0  0  0  0  0  0  0  0  0
    2.9177   -0.0395    0.2102 O   0  0  0  0  0  0  0  0  0  0  0  0
    4.3367   -0.1208   -1.5767 N   0  0  0  0  0  0  0  0  0  0  0  0
    5.1559   -1.0505   -0.7979 C   0  0  2  0  0  0  0  0  0  0  0  0
    6.3234   -0.1925   -0.3443 C   0  0  0  0  0  0  0  0  0  0  0  0
    6.3926    1.0132   -0.7088 O   0  0  0  0  0  0  0  0  0  0  0  0
    7.3458   -0.7488    0.4980 N   0  0  0  0  0  0  0  0  0  0  0  0
    5.7189   -2.1748   -1.5941 C   0  0  0  0  0  0  0  0  0  0  0  0
    6.5305   -3.1104   -0.7694 C   0  0  0  0  0  0  0  0  0  0  0  0
    7.8797   -3.2654   -0.6485 C   0  0  0  0  0  0  0  0  0  0  0  0
    8.1429   -4.2371    0.2229 N   0  0  0  0  0  0  0  0  0  0  0  0
    6.9605   -4.7335    0.6867 C   0  0  0  0  0  0  0  0  0  0  0  0
    5.9281   -4.0388    0.0754 C   0  0  0  0  0  0  0  0  0  0  0  0
    4.6330   -4.3716    0.3907 C   0  0  0  0  0  0  0  0  0  0  0  0
    4.3185   -5.3727    1.2948 C   0  0  0  0  0  0  0  0  0  0  0  0
    5.3373   -6.0591    1.8994 C   0  0  0  0  0  0  0  0  0  0  0  0
    6.6495   -5.7260    1.5834 C   0  0  0  0  0  0  0  0  0  0  0  0
    1.1536    1.6478   -0.6189 N   0  0  0  0  0  0  0  0  0  0  0  0
   -0.1694    1.1400   -0.6689 C   0  0  0  0  0  0  0  0  0  0  0  0
   -0.5422    0.3186   -1.5770 O   0  0  0  0  0  0  0  0  0  0  0  0
   -1.2165    1.5113    0.3164 C   0  0  1  0  0  0  0  0  0  0  0  0
   -2.4470    0.8303    0.1214 N   0  0  0  0  0  0  0  0  0  0  0  0
   -3.7228    1.4080   -0.0182 C   0  0  0  0  0  0  0  0  0  0  0  0
   -3.8909    2.6448    0.0247 O   0  0  0  0  0  0  0  0  0  0  0  0
   -4.9104    0.5533   -0.2207 C   0  0  2  0  0  0  0  0  0  0  0  0
   -5.8927    0.7952    0.9341 C   0  0  0  0  0  0  0  0  0  0  0  0
   -7.1029   -0.0524    0.7646 C   0  0  0  0  0  0  0  0  0  0  0  0
   -7.1053   -1.3302    1.2870 C   0  0  0  0  0  0  0  0  0  0  0  0
   -8.1767   -2.1889    1.1831 C   0  0  0  0  0  0  0  0  0  0  0  0
   -9.2876   -1.7211    0.5191 C   0  0  0  0  0  0  0  0  0  0  0  0
   -9.3638   -0.4512   -0.0340 C   0  0  0  0  0  0  0  0  0  0  0  0
   -8.2375    0.3692    0.1092 C   0  0  0  0  0  0  0  0  0  0  0  0
  -10.6624   -2.8097    0.3802 Cl  0  0  0  0  0  0  0  0  0  0  0  0
   -4.6045   -0.8630   -0.3114 N   0  0  0  0  0  0  0  0  0  0  0  0
   -4.9977   -1.6148   -1.4409 C   0  0  0  0  0  0  0  0  0  0  0  0
   -5.6261   -0.9446   -2.3446 O   0  0  0  0  0  0  0  0  0  0  0  0
   -4.7878   -3.0213   -1.7054 C   0  0  0  0  0  0  0  0  0  0  0  0
   -4.0943   -3.8390   -0.7191 C   0  0  0  0  0  0  0  0  0  0  0  0
   -3.6102   -3.4953    0.3643 O   0  0  0  0  0  0  0  0  0  0  0  0
   -3.9494   -5.2477   -1.0458 N   0  0  0  0  0  0  0  0  0  0  0  0
   -0.5923    1.3360    1.6735 C   0  0  0  0  0  0  0  0  0  0  0  0
   -1.5384    1.6824    2.7919 C   0  0  0  0  0  0  0  0  0  0  0  0
   -1.6075    2.9691    3.2821 C   0  0  0  0  0  0  0  0  0  0  0  0
   -2.4467    3.3564    4.3042 C   0  0  0  0  0  0  0  0  0  0  0  0
   -3.2690    2.3807    4.8669 C   0  0  0  0  0  0  0  0  0  0  0  0
   -3.2359    1.0594    4.4037 C   0  0  0  0  0  0  0  0  0  0  0  0
   -2.3608    0.7286    3.3616 C   0  0  0  0  0  0  0  0  0  0  0  0
    3.8423    6.9367   -1.4323 N   0  0  0  0  0  0  0  0  0  0  0  0
    0.7128    6.4426   -2.6955 H   0  0  0  0  0  0  0  0  0  0  0  0
    1.0505    7.0204   -1.0607 H   0  0  0  0  0  0  0  0  0  0  0  0
    2.7593    4.0742   -4.5958 H   0  0  0  0  0  0  0  0  0  0  0  0
    1.4200    5.1030   -4.0500 H   0  0  0  0  0  0  0  0  0  0  0  0
    1.0717    3.7776   -2.0817 H   0  0  0  0  0  0  0  0  0  0  0  0
    0.9730    2.7687   -3.5415 H   0  0  0  0  0  0  0  0  0  0  0  0
    3.3205    2.0375   -3.2201 H   0  0  0  0  0  0  0  0  0  0  0  0
    3.4615    3.0799   -1.7916 H   0  0  0  0  0  0  0  0  0  0  0  0
    1.6414    0.6529   -2.3326 H   0  0  0  0  0  0  0  0  0  0  0  0
    4.5805    0.1893   -2.5369 H   0  0  0  0  0  0  0  0  0  0  0  0
    4.6470   -1.3998    0.0977 H   0  0  0  0  0  0  0  0  0  0  0  0
    8.3760   -0.5849    0.2869 H   0  0  0  0  0  0  0  0  0  0  0  0
    7.0385   -1.3199    1.3281 H   0  0  0  0  0  0  0  0  0  0  0  0
    6.4567   -1.7083   -2.3165 H   0  0  0  0  0  0  0  0  0  0  0  0
    4.9868   -2.7026   -2.2433 H   0  0  0  0  0  0  0  0  0  0  0  0
    8.6133   -2.6816   -1.1854 H   0  0  0  0  0  0  0  0  0  0  0  0
    9.1174   -4.5432    0.4862 H   0  0  0  0  0  0  0  0  0  0  0  0
    3.8156   -3.8571   -0.0621 H   0  0  0  0  0  0  0  0  0  0  0  0
    3.2773   -5.5980    1.5092 H   0  0  0  0  0  0  0  0  0  0  0  0
    5.1363   -6.8491    2.6112 H   0  0  0  0  0  0  0  0  0  0  0  0
    7.4734   -6.2532    2.0461 H   0  0  0  0  0  0  0  0  0  0  0  0
    1.4372    2.3215    0.1343 H   0  0  0  0  0  0  0  0  0  0  0  0
   -1.4157    2.6001    0.2247 H   0  0  0  0  0  0  0  0  0  0  0  0
   -2.4066   -0.2338    0.0753 H   0  0  0  0  0  0  0  0  0  0  0  0
   -5.4605    0.8543   -1.1299 H   0  0  0  0  0  0  0  0  0  0  0  0
   -6.2264    1.8500    0.9669 H   0  0  0  0  0  0  0  0  0  0  0  0
   -5.3524    0.5840    1.8789 H   0  0  0  0  0  0  0  0  0  0  0  0
   -6.2184   -1.6873    1.8106 H   0  0  0  0  0  0  0  0  0  0  0  0
   -8.1620   -3.2003    1.6052 H   0  0  0  0  0  0  0  0  0  0  0  0
  -10.2583   -0.1024   -0.5561 H   0  0  0  0  0  0  0  0  0  0  0  0
   -8.2757    1.3693   -0.3184 H   0  0  0  0  0  0  0  0  0  0  0  0
   -4.0921   -1.3100    0.4676 H   0  0  0  0  0  0  0  0  0  0  0  0
   -5.8104   -3.5034   -1.8357 H   0  0  0  0  0  0  0  0  0  0  0  0
   -4.3423   -3.1771   -2.7450 H   0  0  0  0  0  0  0  0  0  0  0  0
   -4.1518   -5.9353   -0.2665 H   0  0  0  0  0  0  0  0  0  0  0  0
   -3.6604   -5.5546   -2.0005 H   0  0  0  0  0  0  0  0  0  0  0  0
    0.2085    2.1007    1.7430 H   0  0  0  0  0  0  0  0  0  0  0  0
   -0.0768    0.3789    1.8289 H   0  0  0  0  0  0  0  0  0  0  0  0
   -0.9775    3.7431    2.8623 H   0  0  0  0  0  0  0  0  0  0  0  0
   -2.4648    4.3914    4.6578 H   0  0  0  0  0  0  0  0  0  0  0  0
   -3.9363    2.6242    5.6591 H   0  0  0  0  0  0  0  0  0  0  0  0
   -3.8722    0.2888    4.8346 H   0  0  0  0  0  0  0  0  0  0  0  0
   -2.3343   -0.3112    2.9987 H   0  0  0  0  0  0  0  0  0  0  0  0
    4.0580    7.8988   -1.7721 H   0  0  0  0  0  0  0  0  0  0  0  0
    4.3343    6.4623   -0.6453 H   0  0  0  0  0  0  0  0  0  0  0  0
  1  2  1  0
  2  3  2  3
  3  4  1  0
  4  5  1  0
  5  6  1  0
  6  7  1  0
  7  8  1  0
  8  9  2  0
  8 10  1  0
 10 11  1  0
 11 12  1  0
 12 13  2  0
 12 14  1  0
 11 15  1  0
 15 16  1  0
 16 17  2  0
 17 18  1  0
 18 19  1  0
 19 20  2  0
 20 21  1  0
 21 22  2  0
 22 23  1  0
 23 24  2  0
  7 25  1  0
 25 26  1  0
 26 27  2  0
 26 28  1  0
 28 29  1  0
 29 30  1  0
 30 31  2  0
 30 32  1  0
 32 33  1  0
 33 34  1  0
 34 35  2  0
 35 36  1  0
 36 37  2  0
 37 38  1  0
 38 39  2  0
 37 40  1  0
 32 41  1  0
 41 42  1  0
 42 43  2  0
 42 44  1  0
 44 45  1  0
 45 46  2  0
 45 47  1  0
 28 48  1  0
 48 49  1  0
 49 50  2  0
 50 51  1  0
 51 52  2  0
 52 53  1  0
 53 54  2  0
  2 55  1  0
 20 16  1  0
 39 34  1  0
 54 49  1  0
 24 19  1  0
  1 56  1  0
  1 57  1  0
  4 58  1  0
  4 59  1  0
  5 60  1  0
  5 61  1  0
  6 62  1  0
  6 63  1  0
  7 64  1  6
 10 65  1  0
 11 66  1  1
 14 67  1  0
 14 68  1  0
 15 69  1  0
 15 70  1  0
 17 71  1  0
 18 72  1  0
 21 73  1  0
 22 74  1  0
 23 75  1  0
 24 76  1  0
 25 77  1  0
 28 78  1  6
 29 79  1  0
 32 80  1  6
 33 81  1  0
 33 82  1  0
 35 83  1  0
 36 84  1  0
 38 85  1  0
 39 86  1  0
 41 87  1  0
 44 88  1  0
 44 89  1  0
 47 90  1  0
 47 91  1  0
 48 92  1  0
 48 93  1  0
 50 94  1  0
 51 95  1  0
 52 96  1  0
 53 97  1  0
 54 98  1  0
 55 99  1  0
 55100  1  0
M  END
>  <Ligand ID>  (1) 
LIG0002625

>  <Ligand>  (1) 
CHEMBL187167

>  <SMILES>  (1) 
NC(=NCCC[C@@H](C(=O)N[C@H](C(=O)N)Cc1c[nH]c2c1cccc2)NC(=O)[C@@H](NC(=O)[C@H](Cc1ccc(cc1)Cl)NC(=O)CC(=O)N)Cc1ccccc1)N

>  <CID>  (1) 
44394660.0

>  <ChEMBL ID>  (1) 
nan

>  <InChiKey>  (1) 
UALYLLNCUOTCCI-ORYMTKCHSA-N

>  <InChi>  (1) 
InChI=1S/C38H45ClN10O6/c39-25-14-12-23(13-15-25)18-30(46-33(51)20-32(40)50)36(54)49-31(17-22-7-2-1-3-8-22)37(55)47-28(11-6-16-44-38(42)43)35(53)48-29(34(41)52)19-24-21-45-27-10-5-4-9-26(24)27/h1-5,7-10,12-15,21,28-31,45H,6,11,16-20H2,(H2,40,50)(H2,41,52)(H,46,51)(H,47,55)(H,48,53)(H,49,54)(H4,42,43,44)/t28-,29-,30-,31-/m0/s1

>  <IUPAC Name>  (1) 
N'-[(2S)-1-[[(2S)-1-[[(2S)-1-[[(2S)-1-amino-3-(1H-indol-3-yl)-1-oxopropan-2-yl]amino]-5-(diaminomethylideneamino)-1-oxopentan-2-yl]amino]-1-oxo-3-phenylpropan-2-yl]amino]-3-(4-chlorophenyl)-1-oxopropan-2-yl]propanediamide

$$$$
