
     RDKit          3D

 72 79  0  0  0  0  0  0  0  0999 V2000
    1.9653   -3.9786   -1.0517 C   0  0  0  0  0  0  0  0  0  0  0  0
    2.0368   -2.6160   -0.9663 O   0  0  0  0  0  0  0  0  0  0  0  0
    0.9089   -1.9621   -0.5405 C   0  0  1  0  0  0  0  0  0  0  0  0
    0.5126   -2.4107    0.8381 C   0  0  0  0  0  0  0  0  0  0  0  0
   -0.7358   -1.7144    1.3303 C   0  0  0  0  0  0  0  0  0  0  0  0
   -0.9607   -0.5578    0.4003 C   0  0  1  0  0  0  0  0  0  0  0  0
    0.3154    0.2169    0.4148 C   0  0  0  0  0  0  0  0  0  0  0  0
    1.2977   -0.4807   -0.4642 C   0  0  1  0  0  0  0  0  0  0  0  0
    2.7360   -0.2692   -0.1180 C   0  0  0  0  0  0  0  0  0  0  0  0
    3.1420   -0.7820    1.0860 O   0  0  0  0  0  0  0  0  0  0  0  0
    4.4863   -0.5652    1.3728 C   0  0  0  0  0  0  0  0  0  0  0  0
    4.8640    0.8584    1.4310 C   0  0  0  0  0  0  0  0  0  0  0  0
    4.8214    1.6244    2.5776 C   0  0  0  0  0  0  0  0  0  0  0  0
    5.2060    2.9450    2.4761 C   0  0  0  0  0  0  0  0  0  0  0  0
    5.6246    3.5286    1.3027 C   0  0  0  0  0  0  0  0  0  0  0  0
    5.6672    2.7666    0.1609 C   0  0  0  0  0  0  0  0  0  0  0  0
    5.2887    1.4472    0.2362 C   0  0  0  0  0  0  0  0  0  0  0  0
   -1.2904   -1.1244   -0.9694 C   0  0  1  0  0  0  0  0  0  0  0  0
   -0.2210   -1.9942   -1.5353 C   0  0  2  0  0  0  0  0  0  0  0  0
   -0.8004   -3.2763   -1.7397 O   0  0  0  0  0  0  0  0  0  0  0  0
   -2.0385   -3.3601   -1.1186 C   0  0  0  0  0  0  0  0  0  0  0  0
   -2.3252   -2.1356   -0.6545 C   0  0  0  0  0  0  0  0  0  0  0  0
   -3.4322   -1.7227    0.0356 C   0  0  0  0  0  0  0  0  0  0  0  0
   -3.4860   -0.3224    0.4754 C   0  0  0  0  0  0  0  0  0  0  0  0
   -2.1230    0.3031    0.7315 C   0  0  2  0  0  0  0  0  0  0  0  0
   -1.9319    1.4942   -0.0587 N   0  0  0  0  0  0  0  0  0  0  0  0
   -1.8988    1.2863   -1.4639 C   0  0  0  0  0  0  0  0  0  0  0  0
   -1.8687   -0.1371   -1.9183 C   0  0  0  0  0  0  0  0  0  0  0  0
   -2.7238    2.6065    0.3710 C   0  0  0  0  0  0  0  0  0  0  0  0
   -2.4409    3.7862   -0.5243 C   0  0  0  0  0  0  0  0  0  0  0  0
   -3.2276    5.0813   -0.1870 C   0  0  0  0  0  0  0  0  0  0  0  0
   -3.5888    4.3087   -1.3960 C   0  0  0  0  0  0  0  0  0  0  0  0
   -4.3791   -2.6939    0.2824 C   0  0  0  0  0  0  0  0  0  0  0  0
   -4.1570   -3.9995   -0.1716 C   0  0  0  0  0  0  0  0  0  0  0  0
   -2.9941   -4.3498   -0.8723 C   0  0  0  0  0  0  0  0  0  0  0  0
   -2.7598   -5.5933   -1.3160 F   0  0  0  0  0  0  0  0  0  0  0  0
    1.7409   -4.5179   -0.1226 H   0  0  0  0  0  0  0  0  0  0  0  0
    1.2838   -4.3368   -1.8628 H   0  0  0  0  0  0  0  0  0  0  0  0
    2.9713   -4.3324   -1.3648 H   0  0  0  0  0  0  0  0  0  0  0  0
    0.2924   -3.4942    0.8837 H   0  0  0  0  0  0  0  0  0  0  0  0
    1.3683   -2.2328    1.5088 H   0  0  0  0  0  0  0  0  0  0  0  0
   -1.5746   -2.3849    1.4824 H   0  0  0  0  0  0  0  0  0  0  0  0
   -0.4977   -1.2981    2.3541 H   0  0  0  0  0  0  0  0  0  0  0  0
    0.1887    1.2908    0.1843 H   0  0  0  0  0  0  0  0  0  0  0  0
    0.7729    0.2172    1.4456 H   0  0  0  0  0  0  0  0  0  0  0  0
    1.1622   -0.0169   -1.4870 H   0  0  0  0  0  0  0  0  0  0  0  0
    2.9670    0.7861   -0.2705 H   0  0  0  0  0  0  0  0  0  0  0  0
    3.3255   -0.8176   -0.9058 H   0  0  0  0  0  0  0  0  0  0  0  0
    4.6405   -1.0133    2.3952 H   0  0  0  0  0  0  0  0  0  0  0  0
    5.1636   -1.1086    0.6975 H   0  0  0  0  0  0  0  0  0  0  0  0
    4.4924    1.1668    3.5014 H   0  0  0  0  0  0  0  0  0  0  0  0
    5.1865    3.5849    3.3611 H   0  0  0  0  0  0  0  0  0  0  0  0
    5.9280    4.5620    1.2120 H   0  0  0  0  0  0  0  0  0  0  0  0
    5.9885    3.1787   -0.7847 H   0  0  0  0  0  0  0  0  0  0  0  0
    5.3314    0.8722   -0.6735 H   0  0  0  0  0  0  0  0  0  0  0  0
    0.1577   -1.5696   -2.4768 H   0  0  0  0  0  0  0  0  0  0  0  0
   -4.0109    0.2707   -0.2856 H   0  0  0  0  0  0  0  0  0  0  0  0
   -4.1229   -0.2718    1.4011 H   0  0  0  0  0  0  0  0  0  0  0  0
   -2.0785    0.5870    1.7985 H   0  0  0  0  0  0  0  0  0  0  0  0
   -2.7608    1.8332   -1.9133 H   0  0  0  0  0  0  0  0  0  0  0  0
   -0.9986    1.7961   -1.8676 H   0  0  0  0  0  0  0  0  0  0  0  0
   -2.8845   -0.3986   -2.2900 H   0  0  0  0  0  0  0  0  0  0  0  0
   -1.2412   -0.2109   -2.8573 H   0  0  0  0  0  0  0  0  0  0  0  0
   -2.4129    2.8789    1.3977 H   0  0  0  0  0  0  0  0  0  0  0  0
   -3.8014    2.4113    0.4064 H   0  0  0  0  0  0  0  0  0  0  0  0
   -1.4107    3.9988   -0.8416 H   0  0  0  0  0  0  0  0  0  0  0  0
   -2.7328    6.0423   -0.3251 H   0  0  0  0  0  0  0  0  0  0  0  0
   -3.8829    5.0379    0.7125 H   0  0  0  0  0  0  0  0  0  0  0  0
   -4.5287    3.7148   -1.3459 H   0  0  0  0  0  0  0  0  0  0  0  0
   -3.3321    4.7430   -2.3725 H   0  0  0  0  0  0  0  0  0  0  0  0
   -5.2678   -2.4100    0.8228 H   0  0  0  0  0  0  0  0  0  0  0  0
   -4.9117   -4.7656    0.0263 H   0  0  0  0  0  0  0  0  0  0  0  0
  1  2  1  0
  3  2  1  6
  3  4  1  0
  4  5  1  0
  6  5  1  1
  6  7  1  0
  7  8  1  0
  8  9  1  0
  9 10  1  0
 10 11  1  0
 11 12  1  0
 12 13  2  0
 13 14  1  0
 14 15  2  0
 15 16  1  0
 16 17  2  0
  6 18  1  0
 18 19  1  0
 19 20  1  0
 20 21  1  0
 21 22  2  0
 22 23  1  0
 23 24  1  0
 24 25  1  0
 25 26  1  0
 26 27  1  0
 27 28  1  0
 26 29  1  0
 29 30  1  0
 30 31  1  0
 31 32  1  0
 23 33  2  0
 33 34  1  0
 34 35  2  0
 35 36  1  0
  8  3  1  0
 17 12  1  0
 18 28  1  6
 32 30  1  0
 19  3  1  0
 35 21  1  0
 25  6  1  0
 22 18  1  0
  1 37  1  0
  1 38  1  0
  1 39  1  0
  4 40  1  0
  4 41  1  0
  5 42  1  0
  5 43  1  0
  7 44  1  0
  7 45  1  0
  8 46  1  6
  9 47  1  0
  9 48  1  0
 11 49  1  0
 11 50  1  0
 13 51  1  0
 14 52  1  0
 15 53  1  0
 16 54  1  0
 17 55  1  0
 19 56  1  6
 24 57  1  0
 24 58  1  0
 25 59  1  1
 27 60  1  0
 27 61  1  0
 28 62  1  0
 28 63  1  0
 29 64  1  0
 29 65  1  0
 30 66  1  0
 31 67  1  0
 31 68  1  0
 32 69  1  0
 32 70  1  0
 33 71  1  0
 34 72  1  0
M  END
>  <Ligand ID>  (1) 
LIG0004700

>  <Ligand>  (1) 
CHEMBL3911178

>  <SMILES>  (1) 
CO[C@@]12CC[C@@]3(C[C@H]1COCc1ccccc1)[C@]14[C@@H]2Oc2c4c(C[C@@H]3N(CC1)CC1CC1)ccc2F

>  <CID>  (1) 
134132362.0

>  <ChEMBL ID>  (1) 
nan

>  <InChiKey>  (1) 
WMVWSQOJKZZWCI-RFEMKGLMSA-N

>  <InChi>  (1) 
InChI=1S/C31H36FNO3/c1-34-31-12-11-29(16-23(31)19-35-18-21-5-3-2-4-6-21)25-15-22-9-10-24(32)27-26(22)30(29,28(31)36-27)13-14-33(25)17-20-7-8-20/h2-6,9-10,20,23,25,28H,7-8,11-19H2,1H3/t23-,25-,28-,29-,30+,31-/m0/s1

>  <IUPAC Name>  (1) 
(1R,2R,6S,14S,15S,16S)-5-(cyclopropylmethyl)-11-fluoro-15-methoxy-16-(phenylmethoxymethyl)-13-oxa-5-azahexacyclo[13.2.2.12,8.01,6.02,14.012,20]icosa-8(20),9,11-triene

$$$$
