
     RDKit          3D

 31 32  0  0  0  0  0  0  0  0999 V2000
    1.5162   -2.6215   -0.4585 O   0  0  0  0  0  0  0  0  0  0  0  0
    0.7094   -1.7241   -0.1837 C   0  0  0  0  0  0  0  0  0  0  0  0
   -0.7084   -1.9703   -0.0097 N   0  0  0  0  0  0  0  0  0  0  0  0
   -1.5835   -0.9245   -0.4303 C   0  0  1  0  0  0  0  0  0  0  0  0
   -3.0287   -1.0700   -0.1097 C   0  0  0  0  0  0  0  0  0  0  0  0
   -3.5259    0.3021    0.1072 N   0  0  0  0  0  0  0  0  0  0  0  0
   -2.3406    1.1760    0.0305 C   0  0  0  0  0  0  0  0  0  0  0  0
   -1.2887    0.2547    0.5143 C   0  0  2  0  0  0  0  0  0  0  0  0
    0.1036    0.6215    0.3064 C   0  0  0  0  0  0  0  0  0  0  0  0
    1.0997   -0.3073   -0.0036 C   0  0  0  0  0  0  0  0  0  0  0  0
    2.4190    0.0498   -0.1786 C   0  0  0  0  0  0  0  0  0  0  0  0
    2.7128    1.3995   -0.0314 C   0  0  0  0  0  0  0  0  0  0  0  0
    1.7681    2.3501    0.2716 C   0  0  0  0  0  0  0  0  0  0  0  0
    0.4666    1.9459    0.4380 C   0  0  0  0  0  0  0  0  0  0  0  0
    3.4879   -0.9200   -0.4797 C   0  0  0  0  0  0  0  0  0  0  0  0
    3.6932   -1.8724    0.4979 F   0  0  0  0  0  0  0  0  0  0  0  0
    3.4030   -1.4355   -1.7558 F   0  0  0  0  0  0  0  0  0  0  0  0
    4.6851   -0.2247   -0.4920 F   0  0  0  0  0  0  0  0  0  0  0  0
    0.6840    0.0000    0.0000 Cl  0  0  0  0  0  0  0  0  0  0  0  0
   -0.9943   -2.8853    0.4043 H   0  0  0  0  0  0  0  0  0  0  0  0
   -1.3922   -0.5644   -1.4581 H   0  0  0  0  0  0  0  0  0  0  0  0
   -3.1252   -1.6765    0.8153 H   0  0  0  0  0  0  0  0  0  0  0  0
   -3.5254   -1.5181   -0.9926 H   0  0  0  0  0  0  0  0  0  0  0  0
   -3.8366    0.4106    1.1148 H   0  0  0  0  0  0  0  0  0  0  0  0
   -2.2015    1.4015   -1.0348 H   0  0  0  0  0  0  0  0  0  0  0  0
   -2.4919    2.0700    0.6593 H   0  0  0  0  0  0  0  0  0  0  0  0
   -1.5005   -0.0568    1.5656 H   0  0  0  0  0  0  0  0  0  0  0  0
    3.7502    1.7156   -0.1647 H   0  0  0  0  0  0  0  0  0  0  0  0
    2.0209    3.3923    0.3805 H   0  0  0  0  0  0  0  0  0  0  0  0
   -0.2923    2.6816    0.6777 H   0  0  0  0  0  0  0  0  0  0  0  0
   -0.6840    0.0000    0.0000 H   0  0  0  0  0  0  0  0  0  0  0  0
  1  2  2  0
  2  3  1  0
  3  4  1  0
  4  5  1  0
  5  6  1  0
  6  7  1  0
  7  8  1  0
  8  9  1  0
  9 10  2  0
 10 11  1  0
 11 12  2  0
 12 13  1  0
 13 14  2  0
 11 15  1  0
 15 16  1  0
 15 17  1  0
 15 18  1  0
 10  2  1  0
  8  4  1  0
 14  9  1  0
  3 20  1  0
  4 21  1  6
  5 22  1  0
  5 23  1  0
  6 24  1  0
  7 25  1  0
  7 26  1  0
  8 27  1  1
 12 28  1  0
 13 29  1  0
 14 30  1  0
 19 31  1  0
M  END
>  <Ligand ID>  (1) 
LIG0002442

>  <Ligand>  (1) 
CHEMBL2337490

>  <SMILES>  (1) 
O=C1N[C@H]2CNC[C@@H]2c2c1c(ccc2)C(F)(F)F.Cl

>  <CID>  (1) 
11694999.0

>  <ChEMBL ID>  (1) 
nan

>  <InChiKey>  (1) 
UTJBWKFHAQHTJG-JXLXBRSFSA-N

>  <InChi>  (1) 
InChI=1S/C12H11F3N2O.ClH/c13-12(14,15)8-3-1-2-6-7-4-16-5-9(7)17-11(18)10(6)8;/h1-3,7,9,16H,4-5H2,(H,17,18);1H/t7-,9+;/m1./s1

>  <IUPAC Name>  (1) 
(3aR,9bS)-6-(trifluoromethyl)-1,2,3,3a,4,9b-hexahydropyrrolo[3,4-c]isoquinolin-5-one;hydrochloride

$$$$
