
     RDKit          3D

 43 46  0  0  0  0  0  0  0  0999 V2000
   -6.7014   -0.8203   -1.1523 C   0  0  0  0  0  0  0  0  0  0  0  0
   -5.7703    0.3102   -0.7653 C   0  0  1  0  0  0  0  0  0  0  0  0
   -6.6098    1.2761    0.0600 C   0  0  0  0  0  0  0  0  0  0  0  0
   -7.0802    0.5845    1.1704 F   0  0  0  0  0  0  0  0  0  0  0  0
   -7.6814    1.6979   -0.6842 F   0  0  0  0  0  0  0  0  0  0  0  0
   -5.8475    2.3212    0.5128 F   0  0  0  0  0  0  0  0  0  0  0  0
   -4.7166   -0.1037    0.0384 O   0  0  0  0  0  0  0  0  0  0  0  0
   -3.3805    0.0750   -0.2224 C   0  0  0  0  0  0  0  0  0  0  0  0
   -2.8676    0.7002   -1.3351 C   0  0  0  0  0  0  0  0  0  0  0  0
   -1.5160    0.8611   -1.5628 C   0  0  0  0  0  0  0  0  0  0  0  0
   -0.6531    0.3588   -0.6074 C   0  0  0  0  0  0  0  0  0  0  0  0
   -1.1109   -0.2775    0.5283 C   0  0  0  0  0  0  0  0  0  0  0  0
   -2.4781   -0.4191    0.7202 C   0  0  0  0  0  0  0  0  0  0  0  0
   -2.9156   -1.1079    1.9524 C   0  0  0  0  0  0  0  0  0  0  0  0
   -1.8737   -1.5191    2.7508 F   0  0  0  0  0  0  0  0  0  0  0  0
   -3.6390   -0.1755    2.7001 F   0  0  0  0  0  0  0  0  0  0  0  0
   -3.7884   -2.1323    1.6642 F   0  0  0  0  0  0  0  0  0  0  0  0
    0.7797    0.5241   -0.8392 C   0  0  0  0  0  0  0  0  0  0  0  0
    1.3023    1.1150   -1.8894 O   0  0  0  0  0  0  0  0  0  0  0  0
    2.6031    1.1094   -1.8166 N   0  0  0  0  0  0  0  0  0  0  0  0
    2.9829    0.4955   -0.6812 C   0  0  0  0  0  0  0  0  0  0  0  0
    1.8150    0.1313   -0.0748 N   0  0  0  0  0  0  0  0  0  0  0  0
    4.3389    0.2594   -0.1864 C   0  0  0  0  0  0  0  0  0  0  0  0
    4.6617    0.7737    1.0577 C   0  0  0  0  0  0  0  0  0  0  0  0
    5.9406    0.5729    1.5675 C   0  0  0  0  0  0  0  0  0  0  0  0
    6.8846   -0.1423    0.8244 C   0  0  0  0  0  0  0  0  0  0  0  0
    6.5560   -0.6540   -0.4185 C   0  0  0  0  0  0  0  0  0  0  0  0
    5.2736   -0.4505   -0.9254 C   0  0  0  0  0  0  0  0  0  0  0  0
    7.6538   -1.2763   -0.8691 N   0  0  0  0  0  0  0  0  0  0  0  0
    8.6382   -1.1577    0.0626 C   0  0  0  0  0  0  0  0  0  0  0  0
    8.1622   -0.4621    1.0985 N   0  0  0  0  0  0  0  0  0  0  0  0
   -6.2334   -1.4428   -1.9290 H   0  0  0  0  0  0  0  0  0  0  0  0
   -7.0118   -1.3708   -0.2426 H   0  0  0  0  0  0  0  0  0  0  0  0
   -7.6367   -0.4032   -1.5757 H   0  0  0  0  0  0  0  0  0  0  0  0
   -5.5014    0.8303   -1.6985 H   0  0  0  0  0  0  0  0  0  0  0  0
   -3.5338    1.0925   -2.0811 H   0  0  0  0  0  0  0  0  0  0  0  0
   -1.1724    1.3564   -2.4475 H   0  0  0  0  0  0  0  0  0  0  0  0
   -0.3723   -0.6377    1.2193 H   0  0  0  0  0  0  0  0  0  0  0  0
    3.9183    1.3300    1.6291 H   0  0  0  0  0  0  0  0  0  0  0  0
    6.2035    0.9732    2.5439 H   0  0  0  0  0  0  0  0  0  0  0  0
    4.9976   -0.8385   -1.8871 H   0  0  0  0  0  0  0  0  0  0  0  0
    7.7376   -1.7744   -1.7929 H   0  0  0  0  0  0  0  0  0  0  0  0
    9.6420   -1.5831   -0.0658 H   0  0  0  0  0  0  0  0  0  0  0  0
  1  2  1  0
  2  3  1  0
  3  4  1  0
  3  5  1  0
  3  6  1  0
  2  7  1  0
  7  8  1  0
  8  9  2  0
  9 10  1  0
 10 11  2  0
 11 12  1  0
 12 13  2  0
 13 14  1  0
 14 15  1  0
 14 16  1  0
 14 17  1  0
 11 18  1  0
 18 19  1  0
 19 20  1  0
 20 21  2  0
 21 22  1  0
 21 23  1  0
 23 24  2  0
 24 25  1  0
 25 26  2  0
 26 27  1  0
 27 28  2  0
 27 29  1  0
 29 30  1  0
 30 31  2  0
 13  8  1  0
 22 18  2  0
 28 23  1  0
 31 26  1  0
  1 32  1  0
  1 33  1  0
  1 34  1  0
  2 35  1  6
  9 36  1  0
 10 37  1  0
 12 38  1  0
 24 39  1  0
 25 40  1  0
 28 41  1  0
 29 42  1  0
 30 43  1  0
M  END
>  <Ligand ID>  (1) 
LIG0005172

>  <Ligand>  (1) 
ASP-4058

>  <SMILES>  (1) 
C[C@@H](C(F)(F)F)Oc1ccc(cc1C(F)(F)F)c1onc(n1)c1ccc2c(c1)[nH]cn2

>  <CID>  (1) 
16755143.0

>  <ChEMBL ID>  (1) 
nan

>  <InChiKey>  (1) 
NJNXCJPSMWKXHO-VIFPVBQESA-N

>  <InChi>  (1) 
InChI=1S/C19H12F6N4O2/c1-9(18(20,21)22)30-15-5-3-11(6-12(15)19(23,24)25)17-28-16(29-31-17)10-2-4-13-14(7-10)27-8-26-13/h2-9H,1H3,(H,26,27)/t9-/m0/s1

>  <IUPAC Name>  (1) 
3-(3H-benzimidazol-5-yl)-5-[3-(trifluoromethyl)-4-[(2S)-1,1,1-trifluoropropan-2-yl]oxyphenyl]-1,2,4-oxadiazole

$$$$
