
     RDKit          3D

 46 47  0  0  0  0  0  0  0  0999 V2000
   -0.3468    4.4201   -0.4462 C   0  0  0  0  0  0  0  0  0  0  0  0
   -0.1799    3.1992    0.4339 C   0  0  0  0  0  0  0  0  0  0  0  0
   -0.4768    1.9674   -0.3795 C   0  0  0  0  0  0  0  0  0  0  0  0
   -0.3604    0.7429    0.3020 N   0  0  0  0  0  0  0  0  0  0  0  0
    0.9379    0.3334    0.7020 C   0  0  0  0  0  0  0  0  0  0  0  0
    1.7953   -0.0067   -0.5007 C   0  0  0  0  0  0  0  0  0  0  0  0
    3.1586   -0.4437   -0.1506 C   0  0  0  0  0  0  0  0  0  0  0  0
    3.3716   -1.7865    0.0670 C   0  0  0  0  0  0  0  0  0  0  0  0
    4.6483   -2.2514    0.3992 C   0  0  0  0  0  0  0  0  0  0  0  0
    5.6562   -1.3301    0.4967 C   0  0  0  0  0  0  0  0  0  0  0  0
    5.4712    0.0199    0.2843 C   0  0  0  0  0  0  0  0  0  0  0  0
    4.1960    0.4860   -0.0477 C   0  0  0  0  0  0  0  0  0  0  0  0
    6.4792    0.9546    0.3795 O   0  0  0  0  0  0  0  0  0  0  0  0
   -1.2976   -0.2773    0.0338 C   0  0  0  0  0  0  0  0  0  0  0  0
   -2.6841   -0.0026    0.4944 C   0  0  0  0  0  0  0  0  0  0  0  0
   -3.6334   -1.0947    0.1998 C   0  0  0  0  0  0  0  0  0  0  0  0
   -3.7722   -2.0913    1.1719 C   0  0  0  0  0  0  0  0  0  0  0  0
   -4.6272   -3.1598    1.0068 C   0  0  0  0  0  0  0  0  0  0  0  0
   -5.3734   -3.2596   -0.1472 C   0  0  0  0  0  0  0  0  0  0  0  0
   -5.2361   -2.2869   -1.0920 C   0  0  0  0  0  0  0  0  0  0  0  0
   -4.3762   -1.1958   -0.9466 C   0  0  0  0  0  0  0  0  0  0  0  0
   -1.3786    4.8140   -0.4527 H   0  0  0  0  0  0  0  0  0  0  0  0
   -0.0194    4.2378   -1.4935 H   0  0  0  0  0  0  0  0  0  0  0  0
    0.2841    5.2688   -0.0596 H   0  0  0  0  0  0  0  0  0  0  0  0
    0.8943    3.1463    0.7120 H   0  0  0  0  0  0  0  0  0  0  0  0
   -0.8517    3.3427    1.2917 H   0  0  0  0  0  0  0  0  0  0  0  0
    0.1298    2.0438   -1.3125 H   0  0  0  0  0  0  0  0  0  0  0  0
   -1.5369    2.0580   -0.7410 H   0  0  0  0  0  0  0  0  0  0  0  0
    0.9202   -0.5193    1.3860 H   0  0  0  0  0  0  0  0  0  0  0  0
    1.4695    1.1544    1.2367 H   0  0  0  0  0  0  0  0  0  0  0  0
    1.3271   -0.7619   -1.1569 H   0  0  0  0  0  0  0  0  0  0  0  0
    1.9400    0.9071   -1.1517 H   0  0  0  0  0  0  0  0  0  0  0  0
    2.5750   -2.5171   -0.0093 H   0  0  0  0  0  0  0  0  0  0  0  0
    4.7779   -3.3180    0.5626 H   0  0  0  0  0  0  0  0  0  0  0  0
    6.6536   -1.6482    0.7503 H   0  0  0  0  0  0  0  0  0  0  0  0
    4.0334    1.5281   -0.2177 H   0  0  0  0  0  0  0  0  0  0  0  0
    7.4423    0.7503    0.5366 H   0  0  0  0  0  0  0  0  0  0  0  0
   -1.2426   -0.4654   -1.0780 H   0  0  0  0  0  0  0  0  0  0  0  0
   -0.9595   -1.2236    0.4889 H   0  0  0  0  0  0  0  0  0  0  0  0
   -3.0859    0.9370    0.0536 H   0  0  0  0  0  0  0  0  0  0  0  0
   -2.6682    0.1546    1.5899 H   0  0  0  0  0  0  0  0  0  0  0  0
   -3.1873   -2.0256    2.0901 H   0  0  0  0  0  0  0  0  0  0  0  0
   -4.7102   -3.9124    1.7782 H   0  0  0  0  0  0  0  0  0  0  0  0
   -6.0545   -4.0820   -0.3123 H   0  0  0  0  0  0  0  0  0  0  0  0
   -5.8255   -2.3700   -1.9950 H   0  0  0  0  0  0  0  0  0  0  0  0
   -4.2771   -0.4366   -1.6993 H   0  0  0  0  0  0  0  0  0  0  0  0
  1  2  1  0
  2  3  1  0
  3  4  1  0
  4  5  1  0
  5  6  1  0
  6  7  1  0
  7  8  2  0
  8  9  1  0
  9 10  2  0
 10 11  1  0
 11 12  2  0
 11 13  1  0
  4 14  1  0
 14 15  1  0
 15 16  1  0
 16 17  2  0
 17 18  1  0
 18 19  2  0
 19 20  1  0
 20 21  2  0
 12  7  1  0
 21 16  1  0
  1 22  1  0
  1 23  1  0
  1 24  1  0
  2 25  1  0
  2 26  1  0
  3 27  1  0
  3 28  1  0
  5 29  1  0
  5 30  1  0
  6 31  1  0
  6 32  1  0
  8 33  1  0
  9 34  1  0
 10 35  1  0
 12 36  1  0
 13 37  1  0
 14 38  1  0
 14 39  1  0
 15 40  1  0
 15 41  1  0
 17 42  1  0
 18 43  1  0
 19 44  1  0
 20 45  1  0
 21 46  1  0
M  END
>  <Ligand ID>  (1) 
LIG0004343

>  <Ligand>  (1) 
CHEMBL1188090

>  <SMILES>  (1) 
CCCN(CCc1cccc(c1)O)CCc1ccccc1

>  <CID>  (1) 
114876.0

>  <ChEMBL ID>  (1) 
nan

>  <InChiKey>  (1) 
QUZUPTMNMJTYGL-UHFFFAOYSA-N

>  <InChi>  (1) 
InChI=1S/C19H25NO/c1-2-13-20(14-11-17-7-4-3-5-8-17)15-12-18-9-6-10-19(21)16-18/h3-10,16,21H,2,11-15H2,1H3

>  <IUPAC Name>  (1) 
3-[2-[2-phenylethyl(propyl)amino]ethyl]phenol

$$$$
