
     RDKit          3D

 80 79  0  0  0  0  0  0  0  0999 V2000
   -9.7505   -2.6515   -0.0552 C   0  0  0  0  0  0  0  0  0  0  0  0
   -9.8045   -2.2940   -1.5047 C   0  0  0  0  0  0  0  0  0  0  0  0
   -8.5222   -2.4326   -2.2038 C   0  0  0  0  0  0  0  0  0  0  0  0
   -7.4211   -1.5304   -1.8056 C   0  0  0  0  0  0  0  0  0  0  0  0
   -6.9855   -1.6276   -0.4050 C   0  0  0  0  0  0  0  0  0  0  0  0
   -5.7651   -0.6862   -0.2066 C   0  0  0  0  0  0  0  0  0  0  0  0
   -6.0753    0.7383   -0.5122 C   0  0  0  0  0  0  0  0  0  0  0  0
   -4.7715    1.5416   -0.2247 C   0  0  0  0  0  0  0  0  0  0  0  0
   -4.5106    1.3116    1.2060 C   0  0  0  0  0  0  0  0  0  0  0  0
   -3.4596    0.7851    1.7652 C   0  0  0  0  0  0  0  0  0  0  0  0
   -2.2283    0.2720    1.1345 C   0  0  0  0  0  0  0  0  0  0  0  0
   -1.0843    1.0627    1.7734 C   0  0  0  0  0  0  0  0  0  0  0  0
   -1.2793    2.5245    1.4751 C   0  0  0  0  0  0  0  0  0  0  0  0
   -1.1562    2.7997    0.0317 C   0  0  0  0  0  0  0  0  0  0  0  0
    0.1041    2.5156   -0.6729 C   0  0  0  0  0  0  0  0  0  0  0  0
    1.2746    3.3017   -0.2821 C   0  0  0  0  0  0  0  0  0  0  0  0
    1.8583    3.2492    1.0612 C   0  0  0  0  0  0  0  0  0  0  0  0
    2.3406    1.8579    1.3859 C   0  0  0  0  0  0  0  0  0  0  0  0
    2.6679    1.6748    2.5836 O   0  0  0  0  0  0  0  0  0  0  0  0
    2.3811    0.9530    0.3878 O   0  0  0  0  0  0  0  0  0  0  0  0
    2.8103   -0.3672    0.5335 C   0  0  0  0  0  0  0  0  0  0  0  0
    4.2455   -0.5267    0.9554 C   0  0  1  0  0  0  0  0  0  0  0  0
    5.2087    0.1044   -0.0296 C   0  0  0  0  0  0  0  0  0  0  0  0
    6.4909   -0.1262    0.5031 O   0  0  0  0  0  0  0  0  0  0  0  0
    7.6278    0.6786   -0.4255 P   0  0  0  0  0  0  0  0  0  0  0  0
    7.7933    2.1296    0.0385 O   0  0  0  0  0  0  0  0  0  0  0  0
    9.1514   -0.0298   -0.3219 O   0  0  0  0  0  0  0  0  0  0  0  0
    9.2825   -1.1926   -1.0531 C   0  0  0  0  0  0  0  0  0  0  0  0
   10.5935   -1.9052   -0.7817 C   0  0  1  0  0  0  0  0  0  0  0  0
   10.6115   -2.3725    0.6502 C   0  0  0  0  0  0  0  0  0  0  0  0
   10.6369   -1.5485    1.6074 O   0  0  0  0  0  0  0  0  0  0  0  0
   10.6014   -3.7130    0.9878 O   0  0  0  0  0  0  0  0  0  0  0  0
   10.5675   -3.0999   -1.6224 N   0  0  0  0  0  0  0  0  0  0  0  0
    7.1149    0.7630   -2.0368 O   0  0  0  0  0  0  0  0  0  0  0  0
    4.4594   -0.0102    2.2003 F   0  0  0  0  0  0  0  0  0  0  0  0
   -9.8992   -1.7894    0.6149 H   0  0  0  0  0  0  0  0  0  0  0  0
  -10.6317   -3.3619    0.1317 H   0  0  0  0  0  0  0  0  0  0  0  0
   -8.8584   -3.2386    0.1929 H   0  0  0  0  0  0  0  0  0  0  0  0
  -10.5527   -2.9388   -2.0408 H   0  0  0  0  0  0  0  0  0  0  0  0
  -10.1223   -1.2168   -1.5878 H   0  0  0  0  0  0  0  0  0  0  0  0
   -8.6617   -2.3818   -3.3421 H   0  0  0  0  0  0  0  0  0  0  0  0
   -8.2019   -3.5279   -2.0754 H   0  0  0  0  0  0  0  0  0  0  0  0
   -7.7021   -0.4399   -1.9908 H   0  0  0  0  0  0  0  0  0  0  0  0
   -6.5391   -1.6970   -2.4851 H   0  0  0  0  0  0  0  0  0  0  0  0
   -6.5954   -2.6230   -0.1483 H   0  0  0  0  0  0  0  0  0  0  0  0
   -7.7345   -1.2546    0.3387 H   0  0  0  0  0  0  0  0  0  0  0  0
   -4.9980   -1.0460   -0.9448 H   0  0  0  0  0  0  0  0  0  0  0  0
   -5.4583   -0.8541    0.8255 H   0  0  0  0  0  0  0  0  0  0  0  0
   -6.8250    1.1639    0.1778 H   0  0  0  0  0  0  0  0  0  0  0  0
   -6.3051    0.9011   -1.5856 H   0  0  0  0  0  0  0  0  0  0  0  0
   -3.9903    1.1982   -0.9133 H   0  0  0  0  0  0  0  0  0  0  0  0
   -5.0144    2.6041   -0.3965 H   0  0  0  0  0  0  0  0  0  0  0  0
   -5.3245    1.6355    1.8882 H   0  0  0  0  0  0  0  0  0  0  0  0
   -3.4791    0.7027    2.8773 H   0  0  0  0  0  0  0  0  0  0  0  0
   -2.0445   -0.8068    1.4259 H   0  0  0  0  0  0  0  0  0  0  0  0
   -2.1463    0.3777    0.0616 H   0  0  0  0  0  0  0  0  0  0  0  0
   -0.1724    0.6239    1.3431 H   0  0  0  0  0  0  0  0  0  0  0  0
   -1.0441    0.8687    2.8711 H   0  0  0  0  0  0  0  0  0  0  0  0
   -0.8112    3.2132    2.1803 H   0  0  0  0  0  0  0  0  0  0  0  0
   -2.4152    2.7570    1.6915 H   0  0  0  0  0  0  0  0  0  0  0  0
   -1.9806    2.2416   -0.5107 H   0  0  0  0  0  0  0  0  0  0  0  0
   -1.4530    3.8946   -0.1527 H   0  0  0  0  0  0  0  0  0  0  0  0
   -0.1224    2.6148   -1.7821 H   0  0  0  0  0  0  0  0  0  0  0  0
    0.3196    1.4088   -0.5564 H   0  0  0  0  0  0  0  0  0  0  0  0
    2.1235    2.9763   -0.9976 H   0  0  0  0  0  0  0  0  0  0  0  0
    1.1377    4.3882   -0.6350 H   0  0  0  0  0  0  0  0  0  0  0  0
    2.8658    3.8121    0.9662 H   0  0  0  0  0  0  0  0  0  0  0  0
    1.3188    3.6373    1.9111 H   0  0  0  0  0  0  0  0  0  0  0  0
    2.6278   -0.8898   -0.4490 H   0  0  0  0  0  0  0  0  0  0  0  0
    2.1199   -0.8650    1.2873 H   0  0  0  0  0  0  0  0  0  0  0  0
    4.4318   -1.6269    1.0384 H   0  0  0  0  0  0  0  0  0  0  0  0
    4.9941    1.1763   -0.1764 H   0  0  0  0  0  0  0  0  0  0  0  0
    5.0444   -0.4172   -0.9859 H   0  0  0  0  0  0  0  0  0  0  0  0
    8.4867   -1.9005   -0.6876 H   0  0  0  0  0  0  0  0  0  0  0  0
    9.1020   -1.0843   -2.1388 H   0  0  0  0  0  0  0  0  0  0  0  0
   11.4804   -1.3305   -1.0510 H   0  0  0  0  0  0  0  0  0  0  0  0
   11.0857   -4.0649    1.8019 H   0  0  0  0  0  0  0  0  0  0  0  0
   10.5596   -2.8592   -2.6285 H   0  0  0  0  0  0  0  0  0  0  0  0
    9.7918   -3.7351   -1.3527 H   0  0  0  0  0  0  0  0  0  0  0  0
    6.5857    1.6045   -2.1736 H   0  0  0  0  0  0  0  0  0  0  0  0
  1  2  1  0
  2  3  1  0
  3  4  1  0
  4  5  1  0
  5  6  1  0
  6  7  1  0
  7  8  1  0
  8  9  1  0
  9 10  2  0
 10 11  1  0
 11 12  1  0
 12 13  1  0
 13 14  1  0
 14 15  1  0
 15 16  1  0
 16 17  1  0
 17 18  1  0
 18 19  2  0
 18 20  1  0
 20 21  1  0
 21 22  1  0
 22 23  1  0
 23 24  1  0
 24 25  1  0
 25 26  2  0
 25 27  1  0
 27 28  1  0
 28 29  1  0
 29 30  1  0
 30 31  2  0
 30 32  1  0
 29 33  1  0
 25 34  1  0
 22 35  1  0
  1 36  1  0
  1 37  1  0
  1 38  1  0
  2 39  1  0
  2 40  1  0
  3 41  1  0
  3 42  1  0
  4 43  1  0
  4 44  1  0
  5 45  1  0
  5 46  1  0
  6 47  1  0
  6 48  1  0
  7 49  1  0
  7 50  1  0
  8 51  1  0
  8 52  1  0
  9 53  1  0
 10 54  1  0
 11 55  1  0
 11 56  1  0
 12 57  1  0
 12 58  1  0
 13 59  1  0
 13 60  1  0
 14 61  1  0
 14 62  1  0
 15 63  1  0
 15 64  1  0
 16 65  1  0
 16 66  1  0
 17 67  1  0
 17 68  1  0
 21 69  1  0
 21 70  1  0
 22 71  1  1
 23 72  1  0
 23 73  1  0
 28 74  1  0
 28 75  1  0
 29 76  1  6
 32 77  1  0
 33 78  1  0
 33 79  1  0
 34 80  1  0
M  END
>  <Ligand ID>  (1) 
LIG0004225

>  <Ligand>  (1) 
CHEMBL3577142

>  <SMILES>  (1) 
CCCCCCCC/C=C\CCCCCCCC(=O)OC[C@@H](COP(=O)(OC[C@@H](C(=O)O)N)O)F

>  <CID>  (1) 
122177494.0

>  <ChEMBL ID>  (1) 
nan

>  <InChiKey>  (1) 
DXUUBZLPNHDDHL-QXLPFXRRSA-N

>  <InChi>  (1) 
InChI=1S/C24H45FNO8P/c1-2-3-4-5-6-7-8-9-10-11-12-13-14-15-16-17-23(27)32-18-21(25)19-33-35(30,31)34-20-22(26)24(28)29/h9-10,21-22H,2-8,11-20,26H2,1H3,(H,28,29)(H,30,31)/b10-9-/t21-,22-/m0/s1

>  <IUPAC Name>  (1) 
(2S)-2-amino-3-[[(2S)-2-fluoro-3-[(Z)-octadec-9-enoyl]oxypropoxy]-hydroxyphosphoryl]oxypropanoic acid

$$$$
