
     RDKit          3D

 72 73  0  0  0  0  0  0  0  0999 V2000
   -3.4393    2.7421    4.2522 O   0  0  0  0  0  0  0  0  0  0  0  0
   -4.3092    3.0337    3.2283 C   0  0  0  0  0  0  0  0  0  0  0  0
   -4.6868    1.8012    2.4734 C   0  0  0  0  0  0  0  0  0  0  0  0
   -4.1118    1.5866    1.2358 C   0  0  0  0  0  0  0  0  0  0  0  0
   -4.4014    0.4741    0.4638 C   0  0  0  0  0  0  0  0  0  0  0  0
   -5.2942   -0.4251    0.9770 C   0  0  0  0  0  0  0  0  0  0  0  0
   -5.9001   -0.2494    2.2230 C   0  0  0  0  0  0  0  0  0  0  0  0
   -5.5845    0.8774    2.9654 C   0  0  0  0  0  0  0  0  0  0  0  0
   -6.1610    1.1009    4.2115 O   0  0  0  0  0  0  0  0  0  0  0  0
   -3.7171    0.3599   -0.8348 C   0  0  2  0  0  0  0  0  0  0  0  0
   -4.0904   -0.8919   -1.6000 C   0  0  0  0  0  0  0  0  0  0  0  0
   -3.6101   -2.0784   -1.0467 N   0  0  0  0  0  0  0  0  0  0  0  0
   -2.2783   -2.4387   -0.9740 C   0  0  0  0  0  0  0  0  0  0  0  0
   -1.4743   -2.8259   -2.1562 C   0  0  0  0  0  0  0  0  0  0  0  0
   -1.3223   -1.8183   -3.2548 C   0  0  0  0  0  0  0  0  0  0  0  0
   -0.3990   -2.2491   -4.3439 C   0  0  0  0  0  0  0  0  0  0  0  0
    1.0376   -2.4123   -4.0310 C   0  0  0  0  0  0  0  0  0  0  0  0
    1.7642   -1.1817   -3.6293 C   0  0  0  0  0  0  0  0  0  0  0  0
    1.4443   -0.5201   -2.5029 O   0  0  0  0  0  0  0  0  0  0  0  0
    1.7223   -1.0934   -1.2928 C   0  0  0  0  0  0  0  0  0  0  0  0
    3.2201   -1.3187   -1.1081 C   0  0  0  0  0  0  0  0  0  0  0  0
    3.4319   -1.9536    0.2311 C   0  0  0  0  0  0  0  0  0  0  0  0
    3.0037   -1.1411    1.4069 C   0  0  0  0  0  0  0  0  0  0  0  0
    3.7127    0.1415    1.5599 C   0  0  0  0  0  0  0  0  0  0  0  0
    4.9171    0.1136    2.2714 C   0  0  0  0  0  0  0  0  0  0  0  0
    5.6595    1.2597    2.4895 C   0  0  0  0  0  0  0  0  0  0  0  0
    5.2121    2.4759    1.9971 C   0  0  0  0  0  0  0  0  0  0  0  0
    4.0198    2.5253    1.2889 C   0  0  0  0  0  0  0  0  0  0  0  0
    3.3023    1.3560    1.0895 C   0  0  0  0  0  0  0  0  0  0  0  0
    6.0707    3.9720    2.2162 S   0  0  0  0  0  0  0  0  0  0  0  0
    5.0918    5.0966    2.3005 O   0  0  0  0  0  0  0  0  0  0  0  0
    6.8779    3.9249    3.4883 O   0  0  0  0  0  0  0  0  0  0  0  0
    7.1171    4.1973    0.8486 N   0  0  0  0  0  0  0  0  0  0  0  0
   -2.3574    0.5753   -0.7364 O   0  0  0  0  0  0  0  0  0  0  0  0
   -3.4693    3.4728    4.9229 H   0  0  0  0  0  0  0  0  0  0  0  0
   -5.2814    3.4177    3.6520 H   0  0  0  0  0  0  0  0  0  0  0  0
   -3.9545    3.8178    2.5281 H   0  0  0  0  0  0  0  0  0  0  0  0
   -3.4074    2.3277    0.8690 H   0  0  0  0  0  0  0  0  0  0  0  0
   -5.5591   -1.3144    0.4262 H   0  0  0  0  0  0  0  0  0  0  0  0
   -6.6009   -0.9872    2.5869 H   0  0  0  0  0  0  0  0  0  0  0  0
   -6.8468    1.8594    4.2621 H   0  0  0  0  0  0  0  0  0  0  0  0
   -4.1075    1.2253   -1.4500 H   0  0  0  0  0  0  0  0  0  0  0  0
   -3.9451   -0.6656   -2.6511 H   0  0  0  0  0  0  0  0  0  0  0  0
   -5.2343   -0.9336   -1.5033 H   0  0  0  0  0  0  0  0  0  0  0  0
   -4.3185   -2.8416   -1.0269 H   0  0  0  0  0  0  0  0  0  0  0  0
   -2.2146   -3.3076   -0.2190 H   0  0  0  0  0  0  0  0  0  0  0  0
   -1.7072   -1.6312   -0.4172 H   0  0  0  0  0  0  0  0  0  0  0  0
   -0.4774   -3.1706   -1.8402 H   0  0  0  0  0  0  0  0  0  0  0  0
   -1.9072   -3.7931   -2.6210 H   0  0  0  0  0  0  0  0  0  0  0  0
   -1.0799   -0.8158   -2.9149 H   0  0  0  0  0  0  0  0  0  0  0  0
   -2.3593   -1.7577   -3.7296 H   0  0  0  0  0  0  0  0  0  0  0  0
   -0.5899   -1.6044   -5.2352 H   0  0  0  0  0  0  0  0  0  0  0  0
   -0.7685   -3.2668   -4.6786 H   0  0  0  0  0  0  0  0  0  0  0  0
    1.5314   -2.7843   -4.9726 H   0  0  0  0  0  0  0  0  0  0  0  0
    1.1400   -3.2512   -3.3122 H   0  0  0  0  0  0  0  0  0  0  0  0
    1.6025   -0.4418   -4.4856 H   0  0  0  0  0  0  0  0  0  0  0  0
    2.8815   -1.3406   -3.6853 H   0  0  0  0  0  0  0  0  0  0  0  0
    1.2545   -2.0391   -1.0496 H   0  0  0  0  0  0  0  0  0  0  0  0
    1.4066   -0.3766   -0.5110 H   0  0  0  0  0  0  0  0  0  0  0  0
    3.7091   -0.3213   -1.1342 H   0  0  0  0  0  0  0  0  0  0  0  0
    3.6598   -1.9698   -1.8676 H   0  0  0  0  0  0  0  0  0  0  0  0
    2.7799   -2.8755    0.2438 H   0  0  0  0  0  0  0  0  0  0  0  0
    4.4663   -2.3500    0.3568 H   0  0  0  0  0  0  0  0  0  0  0  0
    3.2129   -1.7819    2.3122 H   0  0  0  0  0  0  0  0  0  0  0  0
    1.9098   -0.9590    1.3590 H   0  0  0  0  0  0  0  0  0  0  0  0
    5.3106   -0.8005    2.6747 H   0  0  0  0  0  0  0  0  0  0  0  0
    6.5860    1.2310    3.0377 H   0  0  0  0  0  0  0  0  0  0  0  0
    3.6541    3.4692    0.8941 H   0  0  0  0  0  0  0  0  0  0  0  0
    2.3848    1.4544    0.5392 H   0  0  0  0  0  0  0  0  0  0  0  0
    7.3070    5.2305    0.7267 H   0  0  0  0  0  0  0  0  0  0  0  0
    6.5978    3.9239   -0.0194 H   0  0  0  0  0  0  0  0  0  0  0  0
   -2.0338    0.9357   -1.5832 H   0  0  0  0  0  0  0  0  0  0  0  0
  1  2  1  0
  2  3  1  0
  3  4  2  0
  4  5  1  0
  5  6  2  0
  6  7  1  0
  7  8  2  0
  8  9  1  0
  5 10  1  0
 10 11  1  0
 11 12  1  0
 12 13  1  0
 13 14  1  0
 14 15  1  0
 15 16  1  0
 16 17  1  0
 17 18  1  0
 18 19  1  0
 19 20  1  0
 20 21  1  0
 21 22  1  0
 22 23  1  0
 23 24  1  0
 24 25  2  0
 25 26  1  0
 26 27  2  0
 27 28  1  0
 28 29  2  0
 27 30  1  0
 30 31  2  0
 30 32  2  0
 30 33  1  0
 10 34  1  0
  8  3  1  0
 29 24  1  0
  1 35  1  0
  2 36  1  0
  2 37  1  0
  4 38  1  0
  6 39  1  0
  7 40  1  0
  9 41  1  0
 10 42  1  6
 11 43  1  0
 11 44  1  0
 12 45  1  0
 13 46  1  0
 13 47  1  0
 14 48  1  0
 14 49  1  0
 15 50  1  0
 15 51  1  0
 16 52  1  0
 16 53  1  0
 17 54  1  0
 17 55  1  0
 18 56  1  0
 18 57  1  0
 20 58  1  0
 20 59  1  0
 21 60  1  0
 21 61  1  0
 22 62  1  0
 22 63  1  0
 23 64  1  0
 23 65  1  0
 25 66  1  0
 26 67  1  0
 28 68  1  0
 29 69  1  0
 33 70  1  0
 33 71  1  0
 34 72  1  0
M  END
>  <Ligand ID>  (1) 
LIG0002547

>  <Ligand>  (1) 
CHEMBL475389

>  <SMILES>  (1) 
OCc1cc(ccc1O)[C@H](CNCCCCCCOCCCCc1ccc(cc1)S(=O)(=O)N)O

>  <CID>  (1) 
42625513.0

>  <ChEMBL ID>  (1) 
nan

>  <InChiKey>  (1) 
AEALFDTWOAFNEO-VWLOTQADSA-N

>  <InChi>  (1) 
InChI=1S/C25H38N2O6S/c26-34(31,32)23-11-8-20(9-12-23)7-3-6-16-33-15-5-2-1-4-14-27-18-25(30)21-10-13-24(29)22(17-21)19-28/h8-13,17,25,27-30H,1-7,14-16,18-19H2,(H2,26,31,32)/t25-/m0/s1

>  <IUPAC Name>  (1) 
4-[4-[6-[[(2R)-2-hydroxy-2-[4-hydroxy-3-(hydroxymethyl)phenyl]ethyl]amino]hexoxy]butyl]benzenesulfonamide

$$$$
