
     RDKit          3D

 91 92  0  0  0  0  0  0  0  0999 V2000
   -0.9882   -0.0396   -0.0455 C   0  0  0  0  0  0  0  0  0  0  0  0
    0.4560    0.2743    0.1338 C   0  0  0  0  0  0  0  0  0  0  0  0
    0.8346    1.4738    0.1673 O   0  0  0  0  0  0  0  0  0  0  0  0
    1.4311   -0.7069    0.2694 O   0  0  0  0  0  0  0  0  0  0  0  0
   10.2091    2.2888   -0.4332 O   0  0  0  0  0  0  0  0  0  0  0  0
   10.1866    0.9880   -0.9537 C   0  0  0  0  0  0  0  0  0  0  0  0
    9.4275    0.0864   -0.0627 C   0  0  0  0  0  0  0  0  0  0  0  0
    8.1487   -0.3402   -0.3613 C   0  0  0  0  0  0  0  0  0  0  0  0
    7.4430   -1.1792    0.4624 C   0  0  0  0  0  0  0  0  0  0  0  0
    8.0340   -1.6115    1.6326 C   0  0  0  0  0  0  0  0  0  0  0  0
    9.3169   -1.1949    1.9512 C   0  0  0  0  0  0  0  0  0  0  0  0
   10.0116   -0.3500    1.1083 C   0  0  0  0  0  0  0  0  0  0  0  0
   11.3119    0.0925    1.3974 O   0  0  0  0  0  0  0  0  0  0  0  0
    6.0631   -1.6673    0.1725 C   0  0  2  0  0  0  0  0  0  0  0  0
    5.5191   -0.9081   -0.9882 C   0  0  0  0  0  0  0  0  0  0  0  0
    4.2234   -1.2820   -1.3780 N   0  0  0  0  0  0  0  0  0  0  0  0
    3.1899   -0.9465   -0.4688 C   0  0  0  0  0  0  0  0  0  0  0  0
    2.9856    0.5758   -0.3582 C   0  0  0  0  0  0  0  0  0  0  0  0
    1.8577    0.7571    0.6197 C   0  0  0  0  0  0  0  0  0  0  0  0
    1.5013    2.1871    0.8735 C   0  0  0  0  0  0  0  0  0  0  0  0
    1.0701    2.9953   -0.2693 C   0  0  0  0  0  0  0  0  0  0  0  0
   -0.0773    2.6055   -1.1011 C   0  0  0  0  0  0  0  0  0  0  0  0
   -1.3268    2.4751   -0.6440 O   0  0  0  0  0  0  0  0  0  0  0  0
   -1.6250    1.5143    0.2601 C   0  0  0  0  0  0  0  0  0  0  0  0
   -3.1357    1.5192    0.5884 C   0  0  0  0  0  0  0  0  0  0  0  0
   -3.4233    0.4500    1.5843 C   0  0  0  0  0  0  0  0  0  0  0  0
   -3.1373   -0.9182    1.0317 C   0  0  0  0  0  0  0  0  0  0  0  0
   -4.0233   -1.1410   -0.1394 C   0  0  0  0  0  0  0  0  0  0  0  0
   -3.7297   -0.8753   -1.4301 C   0  0  0  0  0  0  0  0  0  0  0  0
   -4.6324   -1.1115   -2.4705 C   0  0  0  0  0  0  0  0  0  0  0  0
   -5.8828   -1.6358   -2.2150 C   0  0  0  0  0  0  0  0  0  0  0  0
   -6.1988   -1.9139   -0.8962 C   0  0  0  0  0  0  0  0  0  0  0  0
   -5.2896   -1.6734    0.1313 C   0  0  0  0  0  0  0  0  0  0  0  0
   -7.7778   -2.5800   -0.5441 S   0  0  0  0  0  0  0  0  0  0  0  0
   -8.2338   -3.3458   -1.7619 O   0  0  0  0  0  0  0  0  0  0  0  0
   -7.7739   -3.5304    0.5934 O   0  0  0  0  0  0  0  0  0  0  0  0
   -8.9379   -1.3540   -0.2491 N   0  0  0  0  0  0  0  0  0  0  0  0
   -8.5524   -0.5671    0.9057 C   0  0  0  0  0  0  0  0  0  0  0  0
   -7.8239    0.6820    0.4157 C   0  0  0  0  0  0  0  0  0  0  0  0
   -8.8113    1.5567   -0.0567 O   0  0  0  0  0  0  0  0  0  0  0  0
   -9.6804    0.8678   -0.8695 C   0  0  0  0  0  0  0  0  0  0  0  0
   -9.1392   -0.4633   -1.3568 C   0  0  0  0  0  0  0  0  0  0  0  0
    5.3036   -1.5111    1.3189 O   0  0  0  0  0  0  0  0  0  0  0  0
   -1.5656    0.0259    0.8811 H   0  0  0  0  0  0  0  0  0  0  0  0
   -1.1342   -1.0735   -0.4403 H   0  0  0  0  0  0  0  0  0  0  0  0
   -1.3946    0.6473   -0.8452 H   0  0  0  0  0  0  0  0  0  0  0  0
    2.3608   -0.6014   -0.1207 H   0  0  0  0  0  0  0  0  0  0  0  0
    9.2852    2.5212   -0.1634 H   0  0  0  0  0  0  0  0  0  0  0  0
    9.6508    1.0974   -1.9415 H   0  0  0  0  0  0  0  0  0  0  0  0
   11.2080    0.5909   -1.1192 H   0  0  0  0  0  0  0  0  0  0  0  0
    7.7255    0.0246   -1.2826 H   0  0  0  0  0  0  0  0  0  0  0  0
    7.5322   -2.2695    2.3178 H   0  0  0  0  0  0  0  0  0  0  0  0
    9.8185   -1.5178    2.8712 H   0  0  0  0  0  0  0  0  0  0  0  0
   11.8863   -0.5847    1.8962 H   0  0  0  0  0  0  0  0  0  0  0  0
    6.0952   -2.7561   -0.1114 H   0  0  0  0  0  0  0  0  0  0  0  0
    5.6243    0.1880   -0.7228 H   0  0  0  0  0  0  0  0  0  0  0  0
    6.1847   -1.0757   -1.9053 H   0  0  0  0  0  0  0  0  0  0  0  0
    3.9464   -0.9920   -2.3383 H   0  0  0  0  0  0  0  0  0  0  0  0
    3.2397   -1.4247    0.5229 H   0  0  0  0  0  0  0  0  0  0  0  0
    2.2254   -1.3577   -0.9521 H   0  0  0  0  0  0  0  0  0  0  0  0
    2.8113    0.9429   -1.3641 H   0  0  0  0  0  0  0  0  0  0  0  0
    3.9444    0.9732    0.0299 H   0  0  0  0  0  0  0  0  0  0  0  0
    0.9594    0.1957    0.2982 H   0  0  0  0  0  0  0  0  0  0  0  0
    2.1834    0.3188    1.5850 H   0  0  0  0  0  0  0  0  0  0  0  0
    0.8575    2.3086    1.7438 H   0  0  0  0  0  0  0  0  0  0  0  0
    2.4775    2.7141    1.2426 H   0  0  0  0  0  0  0  0  0  0  0  0
    1.9606    3.3263   -0.9150 H   0  0  0  0  0  0  0  0  0  0  0  0
    0.7868    4.0143    0.1802 H   0  0  0  0  0  0  0  0  0  0  0  0
    0.1819    1.5720   -1.5656 H   0  0  0  0  0  0  0  0  0  0  0  0
   -0.1640    3.3097   -2.0182 H   0  0  0  0  0  0  0  0  0  0  0  0
   -1.1651    1.6202    1.2650 H   0  0  0  0  0  0  0  0  0  0  0  0
   -1.3996    0.5246   -0.1598 H   0  0  0  0  0  0  0  0  0  0  0  0
   -3.7263    1.4336   -0.3390 H   0  0  0  0  0  0  0  0  0  0  0  0
   -3.3513    2.5357    0.9816 H   0  0  0  0  0  0  0  0  0  0  0  0
   -2.9122    0.6219    2.5613 H   0  0  0  0  0  0  0  0  0  0  0  0
   -4.5340    0.4995    1.8027 H   0  0  0  0  0  0  0  0  0  0  0  0
   -3.4370   -1.6332    1.8701 H   0  0  0  0  0  0  0  0  0  0  0  0
   -2.0726   -1.0213    0.8133 H   0  0  0  0  0  0  0  0  0  0  0  0
   -2.7806   -0.4704   -1.7289 H   0  0  0  0  0  0  0  0  0  0  0  0
   -4.3667   -0.8877   -3.4969 H   0  0  0  0  0  0  0  0  0  0  0  0
   -6.6063   -1.8346   -2.9701 H   0  0  0  0  0  0  0  0  0  0  0  0
   -5.5698   -1.9043    1.1655 H   0  0  0  0  0  0  0  0  0  0  0  0
   -9.4221   -0.2479    1.5154 H   0  0  0  0  0  0  0  0  0  0  0  0
   -7.8271   -1.1669    1.5009 H   0  0  0  0  0  0  0  0  0  0  0  0
   -7.2425    1.1736    1.2222 H   0  0  0  0  0  0  0  0  0  0  0  0
   -7.1741    0.4576   -0.4461 H   0  0  0  0  0  0  0  0  0  0  0  0
   -9.9009    1.5013   -1.7674 H   0  0  0  0  0  0  0  0  0  0  0  0
  -10.6395    0.7102   -0.3531 H   0  0  0  0  0  0  0  0  0  0  0  0
   -8.2486   -0.3157   -1.9975 H   0  0  0  0  0  0  0  0  0  0  0  0
   -9.9784   -0.9137   -1.9613 H   0  0  0  0  0  0  0  0  0  0  0  0
    5.3434   -2.3426    1.8624 H   0  0  0  0  0  0  0  0  0  0  0  0
  1  2  1  0
  2  3  2  0
  2  4  1  0
  5  6  1  0
  6  7  1  0
  7  8  2  0
  8  9  1  0
  9 10  2  0
 10 11  1  0
 11 12  2  0
 12 13  1  0
  9 14  1  0
 14 15  1  0
 15 16  1  0
 16 17  1  0
 17 18  1  0
 18 19  1  0
 19 20  1  0
 20 21  1  0
 21 22  1  0
 22 23  1  0
 23 24  1  0
 24 25  1  0
 25 26  1  0
 26 27  1  0
 27 28  1  0
 28 29  2  0
 29 30  1  0
 30 31  2  0
 31 32  1  0
 32 33  2  0
 32 34  1  0
 34 35  2  0
 34 36  2  0
 34 37  1  0
 37 38  1  0
 38 39  1  0
 39 40  1  0
 40 41  1  0
 41 42  1  0
 14 43  1  0
 12  7  1  0
 33 28  1  0
 42 37  1  0
  1 44  1  0
  1 45  1  0
  1 46  1  0
  4 47  1  0
  5 48  1  0
  6 49  1  0
  6 50  1  0
  8 51  1  0
 10 52  1  0
 11 53  1  0
 13 54  1  0
 14 55  1  6
 15 56  1  0
 15 57  1  0
 16 58  1  0
 17 59  1  0
 17 60  1  0
 18 61  1  0
 18 62  1  0
 19 63  1  0
 19 64  1  0
 20 65  1  0
 20 66  1  0
 21 67  1  0
 21 68  1  0
 22 69  1  0
 22 70  1  0
 24 71  1  0
 24 72  1  0
 25 73  1  0
 25 74  1  0
 26 75  1  0
 26 76  1  0
 27 77  1  0
 27 78  1  0
 29 79  1  0
 30 80  1  0
 31 81  1  0
 33 82  1  0
 38 83  1  0
 38 84  1  0
 39 85  1  0
 39 86  1  0
 41 87  1  0
 41 88  1  0
 42 89  1  0
 42 90  1  0
 43 91  1  0
M  END
>  <Ligand ID>  (1) 
LIG0003358

>  <Ligand>  (1) 
CHEMBL456485

>  <SMILES>  (1) 
CC(=O)O.OCc1cc(ccc1O)[C@H](CNCCCCCCOCCCCc1cccc(c1)S(=O)(=O)N1CCOCC1)O

>  <CID>  (1) 
42625896.0

>  <ChEMBL ID>  (1) 
nan

>  <InChiKey>  (1) 
LXBXMZRUYAZNDE-JMAPEOGHSA-N

>  <InChi>  (1) 
InChI=1S/C29H44N2O7S.C2H4O2/c32-23-26-21-25(11-12-28(26)33)29(34)22-30-13-4-1-2-5-16-37-17-6-3-8-24-9-7-10-27(20-24)39(35,36)31-14-18-38-19-15-31;1-2(3)4/h7,9-12,20-21,29-30,32-34H,1-6,8,13-19,22-23H2;1H3,(H,3,4)/t29-;/m0./s1

>  <IUPAC Name>  (1) 
acetic acid;2-(hydroxymethyl)-4-[(1R)-1-hydroxy-2-[6-[4-(3-morpholin-4-ylsulfonylphenyl)butoxy]hexylamino]ethyl]phenol

$$$$
