
     RDKit          3D

 96103  0  0  0  0  0  0  0  0999 V2000
    1.5087   -1.1406   -0.6826 O   0  0  0  0  0  0  0  0  0  0  0  0
    1.8213   -0.0491   -0.1382 C   0  0  0  0  0  0  0  0  0  0  0  0
    1.2444    1.1798   -0.6742 C   0  0  0  0  0  0  0  0  0  0  0  0
    1.5425    2.4113   -0.1276 C   0  0  0  0  0  0  0  0  0  0  0  0
    0.9826    3.5576   -0.6546 C   0  0  0  0  0  0  0  0  0  0  0  0
    0.1184    3.5060   -1.7309 C   0  0  0  0  0  0  0  0  0  0  0  0
   -0.1761    2.2694   -2.2738 C   0  0  0  0  0  0  0  0  0  0  0  0
    0.3819    1.0971   -1.7529 C   0  0  0  0  0  0  0  0  0  0  0  0
    0.0070   -0.1390   -2.3952 C   0  0  0  0  0  0  0  0  0  0  0  0
    0.8046   -0.5680   -3.4540 C   0  0  0  0  0  0  0  0  0  0  0  0
    0.5096   -1.7554   -4.1298 C   0  0  0  0  0  0  0  0  0  0  0  0
   -0.5886   -2.4804   -3.7150 C   0  0  0  0  0  0  0  0  0  0  0  0
   -1.3829   -2.0609   -2.6666 C   0  0  0  0  0  0  0  0  0  0  0  0
   -1.0852   -0.8888   -2.0056 C   0  0  0  0  0  0  0  0  0  0  0  0
   -1.9177   -0.4341   -0.8949 C   0  0  0  0  0  0  0  0  0  0  0  0
   -1.6187    0.6424   -0.3107 O   0  0  0  0  0  0  0  0  0  0  0  0
   -3.0716   -1.2312   -0.4872 C   0  0  0  0  0  0  0  0  0  0  0  0
   -4.4699   -0.6328   -0.0176 P   0  0  0  0  0  0  0  0  0  0  0  0
   -5.3021   -1.8684    0.9861 C   0  0  0  0  0  0  0  0  0  0  0  0
   -4.6042   -2.6190    1.9044 C   0  0  0  0  0  0  0  0  0  0  0  0
   -5.2704   -3.5750    2.6752 C   0  0  0  0  0  0  0  0  0  0  0  0
   -6.6121   -3.7844    2.5373 C   0  0  0  0  0  0  0  0  0  0  0  0
   -7.3181   -3.0471    1.6300 C   0  0  0  0  0  0  0  0  0  0  0  0
   -6.6559   -2.1123    0.8791 C   0  0  0  0  0  0  0  0  0  0  0  0
   -5.5805   -0.2396   -1.3603 C   0  0  0  0  0  0  0  0  0  0  0  0
   -5.3922   -0.6966   -2.6426 C   0  0  0  0  0  0  0  0  0  0  0  0
   -6.3267   -0.3237   -3.6098 C   0  0  0  0  0  0  0  0  0  0  0  0
   -7.4085    0.4765   -3.3043 C   0  0  0  0  0  0  0  0  0  0  0  0
   -7.5934    0.9335   -2.0134 C   0  0  0  0  0  0  0  0  0  0  0  0
   -6.6669    0.5623   -1.0599 C   0  0  0  0  0  0  0  0  0  0  0  0
   -4.2964    0.8880    0.9331 C   0  0  0  0  0  0  0  0  0  0  0  0
   -4.0467    0.7736    2.2859 C   0  0  0  0  0  0  0  0  0  0  0  0
   -3.9149    1.9337    3.0081 C   0  0  0  0  0  0  0  0  0  0  0  0
   -4.0277    3.1686    2.4047 C   0  0  0  0  0  0  0  0  0  0  0  0
   -4.2770    3.2927    1.0542 C   0  0  0  0  0  0  0  0  0  0  0  0
   -4.4099    2.1204    0.3257 C   0  0  0  0  0  0  0  0  0  0  0  0
    2.7306    0.0457    1.0002 C   0  0  0  0  0  0  0  0  0  0  0  0
    4.3341   -0.0453    0.8686 P   0  0  0  0  0  0  0  0  0  0  0  0
    5.0941    1.2385    1.8854 C   0  0  0  0  0  0  0  0  0  0  0  0
    4.3856    1.9567    2.8020 C   0  0  0  0  0  0  0  0  0  0  0  0
    5.0346    2.9373    3.5576 C   0  0  0  0  0  0  0  0  0  0  0  0
    6.3998    3.1670    3.3625 C   0  0  0  0  0  0  0  0  0  0  0  0
    7.1174    2.4387    2.4333 C   0  0  0  0  0  0  0  0  0  0  0  0
    6.4503    1.4776    1.7022 C   0  0  0  0  0  0  0  0  0  0  0  0
    4.9783   -1.6425    1.3722 C   0  0  0  0  0  0  0  0  0  0  0  0
    4.3670   -2.7871    0.9232 C   0  0  0  0  0  0  0  0  0  0  0  0
    4.8991   -3.9920    1.3379 C   0  0  0  0  0  0  0  0  0  0  0  0
    5.9962   -4.0786    2.1670 C   0  0  0  0  0  0  0  0  0  0  0  0
    6.5981   -2.9380    2.6090 C   0  0  0  0  0  0  0  0  0  0  0  0
    6.0782   -1.7132    2.2032 C   0  0  0  0  0  0  0  0  0  0  0  0
    4.7593    0.3277   -0.8257 C   0  0  0  0  0  0  0  0  0  0  0  0
    4.8242   -0.6483   -1.8014 C   0  0  0  0  0  0  0  0  0  0  0  0
    5.1567   -0.3349   -3.1111 C   0  0  0  0  0  0  0  0  0  0  0  0
    5.4357    0.9752   -3.4830 C   0  0  0  0  0  0  0  0  0  0  0  0
    5.3669    1.9391   -2.4974 C   0  0  0  0  0  0  0  0  0  0  0  0
    5.0398    1.6291   -1.2102 C   0  0  0  0  0  0  0  0  0  0  0  0
    2.2280    2.4366    0.7239 H   0  0  0  0  0  0  0  0  0  0  0  0
    1.2288    4.5257   -0.2101 H   0  0  0  0  0  0  0  0  0  0  0  0
   -0.3370    4.3856   -2.1671 H   0  0  0  0  0  0  0  0  0  0  0  0
   -0.8532    2.2408   -3.1154 H   0  0  0  0  0  0  0  0  0  0  0  0
    1.6634    0.0181   -3.7632 H   0  0  0  0  0  0  0  0  0  0  0  0
    1.1255   -2.0933   -4.9526 H   0  0  0  0  0  0  0  0  0  0  0  0
   -0.8217   -3.4003   -4.2343 H   0  0  0  0  0  0  0  0  0  0  0  0
   -2.2168   -2.6838   -2.4092 H   0  0  0  0  0  0  0  0  0  0  0  0
   -2.9189   -2.3199   -0.5224 H   0  0  0  0  0  0  0  0  0  0  0  0
   -3.5547   -2.4843    2.0409 H   0  0  0  0  0  0  0  0  0  0  0  0
   -4.7431   -4.1759    3.4023 H   0  0  0  0  0  0  0  0  0  0  0  0
   -7.1648   -4.5205    3.1206 H   0  0  0  0  0  0  0  0  0  0  0  0
   -8.3685   -3.1904    1.5017 H   0  0  0  0  0  0  0  0  0  0  0  0
   -7.2430   -1.5302    0.1551 H   0  0  0  0  0  0  0  0  0  0  0  0
   -4.5410   -1.3228   -2.8696 H   0  0  0  0  0  0  0  0  0  0  0  0
   -6.2165   -0.6614   -4.6318 H   0  0  0  0  0  0  0  0  0  0  0  0
   -8.1486    0.7805   -4.0368 H   0  0  0  0  0  0  0  0  0  0  0  0
   -8.4418    1.5712   -1.7344 H   0  0  0  0  0  0  0  0  0  0  0  0
   -6.8280    0.9344   -0.0361 H   0  0  0  0  0  0  0  0  0  0  0  0
   -3.9505   -0.1724    2.8013 H   0  0  0  0  0  0  0  0  0  0  0  0
   -3.7197    1.9009    4.0662 H   0  0  0  0  0  0  0  0  0  0  0  0
   -3.9234    4.0797    2.9760 H   0  0  0  0  0  0  0  0  0  0  0  0
   -4.3705    4.2536    0.5532 H   0  0  0  0  0  0  0  0  0  0  0  0
   -4.6077    2.1183   -0.7467 H   0  0  0  0  0  0  0  0  0  0  0  0
    2.2904    0.1830    1.9672 H   0  0  0  0  0  0  0  0  0  0  0  0
    3.3185    1.7652    2.9428 H   0  0  0  0  0  0  0  0  0  0  0  0
    4.4991    3.5305    4.2994 H   0  0  0  0  0  0  0  0  0  0  0  0
    6.9378    3.9210    3.9314 H   0  0  0  0  0  0  0  0  0  0  0  0
    8.1746    2.5825    2.2490 H   0  0  0  0  0  0  0  0  0  0  0  0
    7.0087    0.8994    0.9680 H   0  0  0  0  0  0  0  0  0  0  0  0
    3.5066   -2.7988    0.2739 H   0  0  0  0  0  0  0  0  0  0  0  0
    4.4632   -4.9331    1.0191 H   0  0  0  0  0  0  0  0  0  0  0  0
    6.4163   -5.0237    2.4944 H   0  0  0  0  0  0  0  0  0  0  0  0
    7.4685   -2.9877    3.2665 H   0  0  0  0  0  0  0  0  0  0  0  0
    6.5853   -0.8331    2.5764 H   0  0  0  0  0  0  0  0  0  0  0  0
    4.6118   -1.6803   -1.5427 H   0  0  0  0  0  0  0  0  0  0  0  0
    5.2010   -1.1088   -3.8522 H   0  0  0  0  0  0  0  0  0  0  0  0
    5.6973    1.2559   -4.4899 H   0  0  0  0  0  0  0  0  0  0  0  0
    5.5841    2.9713   -2.7786 H   0  0  0  0  0  0  0  0  0  0  0  0
    5.0075    2.4480   -0.4928 H   0  0  0  0  0  0  0  0  0  0  0  0
  1  2  2  0
  2  3  1  0
  3  4  2  0
  4  5  1  0
  5  6  2  0
  6  7  1  0
  7  8  2  0
  8  9  1  0
  9 10  2  0
 10 11  1  0
 11 12  2  0
 12 13  1  0
 13 14  2  0
 14 15  1  0
 15 16  2  0
 15 17  1  0
 17 18  2  0
 18 19  1  0
 19 20  2  0
 20 21  1  0
 21 22  2  0
 22 23  1  0
 23 24  2  0
 18 25  1  0
 25 26  2  0
 26 27  1  0
 27 28  2  0
 28 29  1  0
 29 30  2  0
 18 31  1  0
 31 32  2  0
 32 33  1  0
 33 34  2  0
 34 35  1  0
 35 36  2  0
  2 37  1  0
 37 38  2  0
 38 39  1  0
 39 40  2  0
 40 41  1  0
 41 42  2  0
 42 43  1  0
 43 44  2  0
 38 45  1  0
 45 46  2  0
 46 47  1  0
 47 48  2  0
 48 49  1  0
 49 50  2  0
 38 51  1  0
 51 52  2  0
 52 53  1  0
 53 54  2  0
 54 55  1  0
 55 56  2  0
  8  3  1  0
 14  9  1  0
 24 19  1  0
 30 25  1  0
 36 31  1  0
 44 39  1  0
 50 45  1  0
 56 51  1  0
  4 57  1  0
  5 58  1  0
  6 59  1  0
  7 60  1  0
 10 61  1  0
 11 62  1  0
 12 63  1  0
 13 64  1  0
 17 65  1  0
 20 66  1  0
 21 67  1  0
 22 68  1  0
 23 69  1  0
 24 70  1  0
 26 71  1  0
 27 72  1  0
 28 73  1  0
 29 74  1  0
 30 75  1  0
 32 76  1  0
 33 77  1  0
 34 78  1  0
 35 79  1  0
 36 80  1  0
 37 81  1  0
 40 82  1  0
 41 83  1  0
 42 84  1  0
 43 85  1  0
 44 86  1  0
 46 87  1  0
 47 88  1  0
 48 89  1  0
 49 90  1  0
 50 91  1  0
 52 92  1  0
 53 93  1  0
 54 94  1  0
 55 95  1  0
 56 96  1  0
M  END
>  <Ligand ID>  (1) 
LIG0002733

>  <Ligand>  (1) 
MLS002702210

>  <SMILES>  (1) 
O=C(c1ccccc1c1ccccc1C(=O)C=P(c1ccccc1)(c1ccccc1)c1ccccc1)C=P(c1ccccc1)(c1ccccc1)c1ccccc1

>  <CID>  (1) 
381571.0

>  <ChEMBL ID>  (1) 
nan

>  <InChiKey>  (1) 
HMLIJGSRQAHTFN-UHFFFAOYSA-N

>  <InChi>  (1) 
InChI=1S/C52H40O2P2/c53-51(39-55(41-23-7-1-8-24-41,42-25-9-2-10-26-42)43-27-11-3-12-28-43)49-37-21-19-35-47(49)48-36-20-22-38-50(48)52(54)40-56(44-29-13-4-14-30-44,45-31-15-5-16-32-45)46-33-17-6-18-34-46/h1-40H

>  <IUPAC Name>  (1) 
2-(triphenyl-lambda5-phosphanylidene)-1-[2-[2-[2-(triphenyl-lambda5-phosphanylidene)acetyl]phenyl]phenyl]ethanone

$$$$
