
     RDKit          3D

 45 47  0  0  0  0  0  0  0  0999 V2000
    8.1020    0.6552   -0.6402 C   0  0  0  0  0  0  0  0  0  0  0  0
    6.7826    0.9369   -0.0616 N   0  0  0  0  0  0  0  0  0  0  0  0
    5.7995   -0.0654   -0.1476 C   0  0  0  0  0  0  0  0  0  0  0  0
    6.1354   -1.1551   -0.7290 O   0  0  0  0  0  0  0  0  0  0  0  0
    4.4490    0.0829    0.3849 C   0  0  0  0  0  0  0  0  0  0  0  0
    4.0175    1.1921    1.0089 N   0  0  0  0  0  0  0  0  0  0  0  0
    2.7504    1.2880    1.4908 C   0  0  0  0  0  0  0  0  0  0  0  0
    1.8342    0.2651    1.3728 C   0  0  0  0  0  0  0  0  0  0  0  0
    2.2535   -0.8807    0.7376 C   0  0  0  0  0  0  0  0  0  0  0  0
    3.5503   -0.9514    0.2560 C   0  0  0  0  0  0  0  0  0  0  0  0
    1.3875   -2.0702    0.5306 C   0  0  0  0  0  0  0  0  0  0  0  0
    0.4742   -2.0047   -1.0347 S   0  0  0  0  0  0  0  0  0  0  0  0
   -0.7022   -0.6611   -0.9775 C   0  0  0  0  0  0  0  0  0  0  0  0
   -0.4242    0.5849   -1.3635 N   0  0  0  0  0  0  0  0  0  0  0  0
   -1.3405    1.5875   -1.3093 C   0  0  0  0  0  0  0  0  0  0  0  0
   -1.0158    2.9116   -1.7298 N   0  0  0  0  0  0  0  0  0  0  0  0
   -2.6266    1.3222   -0.8345 C   0  0  0  0  0  0  0  0  0  0  0  0
   -2.9494    0.0412   -0.4257 C   0  0  0  0  0  0  0  0  0  0  0  0
   -1.9648   -0.9326   -0.5087 C   0  0  0  0  0  0  0  0  0  0  0  0
   -2.3003   -2.2571   -0.0853 C   0  0  0  0  0  0  0  0  0  0  0  0
   -2.5739   -3.3291    0.2472 N   0  0  0  0  0  0  0  0  0  0  0  0
   -4.2710   -0.3156    0.0828 C   0  0  0  0  0  0  0  0  0  0  0  0
   -5.2292   -0.7412   -0.8022 C   0  0  0  0  0  0  0  0  0  0  0  0
   -6.4808   -1.0817   -0.3372 C   0  0  0  0  0  0  0  0  0  0  0  0
   -6.8183   -1.0129    0.9980 C   0  0  0  0  0  0  0  0  0  0  0  0
   -5.8509   -0.5858    1.8728 C   0  0  0  0  0  0  0  0  0  0  0  0
   -4.5797   -0.2367    1.4247 C   0  0  0  0  0  0  0  0  0  0  0  0
   -6.1185   -0.4958    3.1958 F   0  0  0  0  0  0  0  0  0  0  0  0
   -8.0507   -1.3541    1.4132 F   0  0  0  0  0  0  0  0  0  0  0  0
   -3.6330    2.3417   -0.7550 C   0  0  0  0  0  0  0  0  0  0  0  0
   -4.4435    3.1810   -0.6947 N   0  0  0  0  0  0  0  0  0  0  0  0
    8.7320    0.1484    0.1170 H   0  0  0  0  0  0  0  0  0  0  0  0
    8.5615    1.5993   -0.9848 H   0  0  0  0  0  0  0  0  0  0  0  0
    7.9677   -0.0638   -1.4843 H   0  0  0  0  0  0  0  0  0  0  0  0
    6.5594    1.8372    0.4000 H   0  0  0  0  0  0  0  0  0  0  0  0
    2.4786    2.2038    1.9763 H   0  0  0  0  0  0  0  0  0  0  0  0
    0.8233    0.3160    1.7467 H   0  0  0  0  0  0  0  0  0  0  0  0
    3.8948   -1.8449   -0.2460 H   0  0  0  0  0  0  0  0  0  0  0  0
    0.6666   -2.1155    1.3727 H   0  0  0  0  0  0  0  0  0  0  0  0
    2.0321   -2.9805    0.5529 H   0  0  0  0  0  0  0  0  0  0  0  0
   -1.7858    3.5728   -1.9517 H   0  0  0  0  0  0  0  0  0  0  0  0
   -0.0123    3.2000   -1.8091 H   0  0  0  0  0  0  0  0  0  0  0  0
   -5.0219   -0.8152   -1.8612 H   0  0  0  0  0  0  0  0  0  0  0  0
   -7.2494   -1.4193   -1.0219 H   0  0  0  0  0  0  0  0  0  0  0  0
   -3.8093    0.1028    2.1191 H   0  0  0  0  0  0  0  0  0  0  0  0
  1  2  1  0
  2  3  1  0
  3  4  2  0
  3  5  1  0
  5  6  2  0
  6  7  1  0
  7  8  2  0
  8  9  1  0
  9 10  2  0
  9 11  1  0
 11 12  1  0
 12 13  1  0
 13 14  2  0
 14 15  1  0
 15 16  1  0
 15 17  2  0
 17 18  1  0
 18 19  2  0
 19 20  1  0
 20 21  3  0
 18 22  1  0
 22 23  2  0
 23 24  1  0
 24 25  2  0
 25 26  1  0
 26 27  2  0
 26 28  1  0
 25 29  1  0
 17 30  1  0
 30 31  3  0
 10  5  1  0
 19 13  1  0
 27 22  1  0
  1 32  1  0
  1 33  1  0
  1 34  1  0
  2 35  1  0
  7 36  1  0
  8 37  1  0
 10 38  1  0
 11 39  1  0
 11 40  1  0
 16 41  1  0
 16 42  1  0
 23 43  1  0
 24 44  1  0
 27 45  1  0
M  END
>  <Ligand ID>  (1) 
LIG0004659

>  <Ligand>  (1) 
SCHEMBL245320

>  <SMILES>  (1) 
CNC(=O)c1nccc(c1)CSc1nc(N)c(c(c1C#N)c1ccc(c(c1)F)F)C#N

>  <CID>  (1) 
56592011.0

>  <ChEMBL ID>  (1) 
nan

>  <InChiKey>  (1) 
FANKFIQCLPRMTG-UHFFFAOYSA-N

>  <InChi>  (1) 
InChI=1S/C21H14F2N6OS/c1-27-20(30)17-6-11(4-5-28-17)10-31-21-14(9-25)18(13(8-24)19(26)29-21)12-2-3-15(22)16(23)7-12/h2-7H,10H2,1H3,(H2,26,29)(H,27,30)

>  <IUPAC Name>  (1) 
4-[[6-amino-3,5-dicyano-4-(3,4-difluorophenyl)pyridin-2-yl]sulfanylmethyl]-N-methylpyridine-2-carboxamide

$$$$
