
     RDKit          3D

202208  0  0  0  0  0  0  0  0999 V2000
    9.7406   -3.7037   -1.9472 N   0  0  0  0  0  0  0  0  0  0  0  0
    8.6105   -2.9235   -1.5373 C   0  0  0  0  0  0  0  0  0  0  0  0
    8.8756   -1.7715   -1.0203 N   0  0  0  0  0  0  0  0  0  0  0  0
    7.2662   -3.4015   -1.7042 N   0  0  0  0  0  0  0  0  0  0  0  0
    6.2364   -2.4112   -1.9257 C   0  0  0  0  0  0  0  0  0  0  0  0
    4.8906   -2.9873   -2.1229 C   0  0  0  0  0  0  0  0  0  0  0  0
    4.2436   -3.7940   -1.0947 C   0  0  0  0  0  0  0  0  0  0  0  0
    3.9427   -3.1546    0.2498 C   0  0  1  0  0  0  0  0  0  0  0  0
    5.1564   -2.7417    0.9440 C   0  0  0  0  0  0  0  0  0  0  0  0
    5.4786   -1.5698    1.2479 O   0  0  0  0  0  0  0  0  0  0  0  0
    6.0567   -3.8136    1.3065 N   0  0  0  0  0  0  0  0  0  0  0  0
    7.3272   -3.5886    1.9887 C   0  0  2  0  0  0  0  0  0  0  0  0
    8.3004   -4.5450    1.4474 C   0  0  0  0  0  0  0  0  0  0  0  0
    7.8172   -5.5250    0.7823 O   0  0  0  0  0  0  0  0  0  0  0  0
    9.6944   -4.5011    1.5753 N   0  0  0  0  0  0  0  0  0  0  0  0
   10.4475   -5.5933    0.9485 C   0  0  0  0  0  0  0  0  0  0  0  0
   11.8823   -5.3450    1.1828 C   0  0  0  0  0  0  0  0  0  0  0  0
   12.3532   -4.3768    1.8175 O   0  0  0  0  0  0  0  0  0  0  0  0
   12.8152   -6.2779    0.6438 N   0  0  0  0  0  0  0  0  0  0  0  0
    7.1199   -3.8985    3.4758 C   0  0  0  0  0  0  0  0  0  0  0  0
    8.3828   -3.7047    4.1944 C   0  0  0  0  0  0  0  0  0  0  0  0
    9.1977   -4.8095    4.4323 C   0  0  0  0  0  0  0  0  0  0  0  0
   10.3905   -4.6317    5.1048 C   0  0  0  0  0  0  0  0  0  0  0  0
   10.7301   -3.3545    5.5174 C   0  0  0  0  0  0  0  0  0  0  0  0
    9.9132   -2.2709    5.2748 C   0  0  0  0  0  0  0  0  0  0  0  0
    8.7231   -2.4354    4.6064 C   0  0  0  0  0  0  0  0  0  0  0  0
    3.1102   -1.9596    0.0073 N   0  0  0  0  0  0  0  0  0  0  0  0
    1.7107   -2.1246    0.0574 C   0  0  0  0  0  0  0  0  0  0  0  0
    1.3077   -3.3183    0.3229 O   0  0  0  0  0  0  0  0  0  0  0  0
    0.6869   -1.1280   -0.1579 C   0  0  1  0  0  0  0  0  0  0  0  0
   -0.5642   -1.2678    0.6797 C   0  0  0  0  0  0  0  0  0  0  0  0
   -1.4602   -2.7753    0.1214 S   0  0  0  0  0  0  0  0  0  0  0  0
   -1.8474   -2.5601   -1.9913 S   0  0  0  0  0  0  0  0  0  0  0  0
   -3.3308   -1.6193   -2.1655 C   0  0  0  0  0  0  0  0  0  0  0  0
   -4.6361   -2.2067   -1.7552 C   0  0  1  0  0  0  0  0  0  0  0  0
   -4.5735   -2.7289   -0.3800 N   0  0  0  0  0  0  0  0  0  0  0  0
   -5.1992   -3.9785   -0.1894 C   0  0  0  0  0  0  0  0  0  0  0  0
   -5.7519   -4.6067   -1.1527 O   0  0  0  0  0  0  0  0  0  0  0  0
   -5.2925   -4.6915    1.1359 C   0  0  2  0  0  0  0  0  0  0  0  0
   -4.0224   -4.8338    1.8657 C   0  0  0  0  0  0  0  0  0  0  0  0
   -4.3366   -5.5675    3.1796 C   0  0  0  0  0  0  0  0  0  0  0  0
   -3.0093   -5.6933    1.1247 C   0  0  0  0  0  0  0  0  0  0  0  0
   -6.0101   -5.9489    0.9162 N   0  0  0  0  0  0  0  0  0  0  0  0
   -7.4211   -5.8788    0.9296 C   0  0  0  0  0  0  0  0  0  0  0  0
   -8.0337   -4.7750    1.1283 O   0  0  0  0  0  0  0  0  0  0  0  0
   -8.3063   -7.0578    0.7122 C   0  0  2  0  0  0  0  0  0  0  0  0
   -7.7255   -8.0318   -0.2814 C   0  0  0  0  0  0  0  0  0  0  0  0
   -8.6143   -9.1955   -0.5117 C   0  0  0  0  0  0  0  0  0  0  0  0
   -9.5192   -9.0776   -1.5572 C   0  0  0  0  0  0  0  0  0  0  0  0
  -10.4156  -10.0672   -1.8896 C   0  0  0  0  0  0  0  0  0  0  0  0
  -10.3818  -11.2212   -1.1192 C   0  0  0  0  0  0  0  0  0  0  0  0
   -9.4912  -11.3309   -0.0946 C   0  0  0  0  0  0  0  0  0  0  0  0
   -8.5782  -10.3440    0.2563 C   0  0  0  0  0  0  0  0  0  0  0  0
  -11.2906  -12.2264   -1.4530 O   0  0  0  0  0  0  0  0  0  0  0  0
   -9.6650   -6.6628    0.4226 N   0  0  0  0  0  0  0  0  0  0  0  0
   -5.5288   -0.9424   -1.6633 C   0  0  0  0  0  0  0  0  0  0  0  0
   -5.8265   -0.2784   -2.6432 O   0  0  0  0  0  0  0  0  0  0  0  0
   -6.0216   -0.5136   -0.4066 N   0  0  0  0  0  0  0  0  0  0  0  0
   -6.8205    0.6915   -0.2063 C   0  0  0  0  0  0  0  0  0  0  0  0
   -5.9356    1.8337   -0.6614 C   0  0  0  0  0  0  0  0  0  0  0  0
   -4.8155    1.6548   -1.1614 O   0  0  0  0  0  0  0  0  0  0  0  0
   -6.3284    3.1978   -0.5374 N   0  0  0  0  0  0  0  0  0  0  0  0
   -5.4541    4.2932   -0.9982 C   0  0  2  0  0  0  0  0  0  0  0  0
   -4.3488    4.4265   -0.0208 C   0  0  0  0  0  0  0  0  0  0  0  0
   -4.2281    3.6409    0.9265 O   0  0  0  0  0  0  0  0  0  0  0  0
   -3.3388    5.4531   -0.0709 N   0  0  0  0  0  0  0  0  0  0  0  0
   -2.1948    5.4151    0.8703 C   0  0  1  0  0  0  0  0  0  0  0  0
   -0.9085    5.6032    0.2158 C   0  0  0  0  0  0  0  0  0  0  0  0
   -0.8073    5.9841   -0.9605 O   0  0  0  0  0  0  0  0  0  0  0  0
    0.3742    5.3610    0.8484 N   0  0  0  0  0  0  0  0  0  0  0  0
    1.6304    5.4843    0.1450 C   0  0  2  0  0  0  0  0  0  0  0  0
    1.9173    4.3975   -0.8313 C   0  0  0  0  0  0  0  0  0  0  0  0
    2.9232    4.5177   -1.5329 O   0  0  0  0  0  0  0  0  0  0  0  0
    1.1384    3.2331   -1.0096 N   0  0  0  0  0  0  0  0  0  0  0  0
    1.2180    2.2493   -2.0187 C   0  0  2  0  0  0  0  0  0  0  0  0
    1.0367    0.8486   -1.6959 C   0  0  0  0  0  0  0  0  0  0  0  0
    0.8779    0.0257   -2.6182 O   0  0  0  0  0  0  0  0  0  0  0  0
    1.0259    0.2538   -0.3768 N   0  0  0  0  0  0  0  0  0  0  0  0
    2.2841    2.4068   -3.0836 C   0  0  0  0  0  0  0  0  0  0  0  0
    2.0502    3.6349   -3.8682 C   0  0  0  0  0  0  0  0  0  0  0  0
    0.9387    4.4443   -3.9860 C   0  0  0  0  0  0  0  0  0  0  0  0
    1.1719    5.4607   -4.8409 N   0  0  0  0  0  0  0  0  0  0  0  0
    2.4348    5.3395   -5.3007 C   0  0  0  0  0  0  0  0  0  0  0  0
    2.9904    4.2213   -4.7132 C   0  0  0  0  0  0  0  0  0  0  0  0
    4.3034    3.9138   -5.0516 C   0  0  0  0  0  0  0  0  0  0  0  0
    4.9913    4.7178   -5.9410 C   0  0  0  0  0  0  0  0  0  0  0  0
    4.4049    5.8283   -6.5093 C   0  0  0  0  0  0  0  0  0  0  0  0
    3.1031    6.1498   -6.1878 C   0  0  0  0  0  0  0  0  0  0  0  0
    2.7510    5.6179    1.0770 C   0  0  0  0  0  0  0  0  0  0  0  0
    2.8272    6.8538    1.9119 C   0  0  0  0  0  0  0  0  0  0  0  0
    3.1840    8.0698    1.1263 C   0  0  0  0  0  0  0  0  0  0  0  0
    2.3360    8.5214    0.0864 N   0  0  0  0  0  0  0  0  0  0  0  0
    1.0823    9.1569    0.4302 C   0  0  0  0  0  0  0  0  0  0  0  0
    1.1051    9.7872    1.5454 N   0  0  0  0  0  0  0  0  0  0  0  0
   -0.0269    9.0782   -0.4413 N   0  0  0  0  0  0  0  0  0  0  0  0
   -2.5192    6.1421    2.1163 C   0  0  0  0  0  0  0  0  0  0  0  0
   -2.8943    7.5467    2.0392 C   0  0  0  0  0  0  0  0  0  0  0  0
   -2.0660    8.6271    2.2434 C   0  0  0  0  0  0  0  0  0  0  0  0
   -2.5595    9.9139    2.1388 C   0  0  0  0  0  0  0  0  0  0  0  0
   -3.8809   10.1925    1.8305 C   0  0  0  0  0  0  0  0  0  0  0  0
   -4.7101    9.1201    1.6260 C   0  0  0  0  0  0  0  0  0  0  0  0
   -4.2175    7.8489    1.7304 C   0  0  0  0  0  0  0  0  0  0  0  0
   -6.1484    5.5243   -1.3792 C   0  0  0  0  0  0  0  0  0  0  0  0
   -6.9757    6.1687   -0.3424 C   0  0  0  0  0  0  0  0  0  0  0  0
   -7.6876    7.3440   -0.6033 C   0  0  0  0  0  0  0  0  0  0  0  0
   -8.3398    7.6723    0.5250 N   0  0  0  0  0  0  0  0  0  0  0  0
   -8.0847    6.7798    1.4734 C   0  0  0  0  0  0  0  0  0  0  0  0
   -7.2441    5.8656    0.9167 N   0  0  0  0  0  0  0  0  0  0  0  0
   10.6174   -3.6818   -1.3528 H   0  0  0  0  0  0  0  0  0  0  0  0
    9.7741   -4.2910   -2.7846 H   0  0  0  0  0  0  0  0  0  0  0  0
    8.2030   -1.0845   -0.6734 H   0  0  0  0  0  0  0  0  0  0  0  0
    7.1074   -4.4253   -1.6569 H   0  0  0  0  0  0  0  0  0  0  0  0
    6.5120   -1.9641   -2.9541 H   0  0  0  0  0  0  0  0  0  0  0  0
    6.3123   -1.5574   -1.2284 H   0  0  0  0  0  0  0  0  0  0  0  0
    4.9732   -3.6425   -3.0613 H   0  0  0  0  0  0  0  0  0  0  0  0
    4.2037   -2.1617   -2.4895 H   0  0  0  0  0  0  0  0  0  0  0  0
    4.9476   -4.6462   -0.8326 H   0  0  0  0  0  0  0  0  0  0  0  0
    3.3359   -4.3200   -1.4589 H   0  0  0  0  0  0  0  0  0  0  0  0
    3.3310   -3.8944    0.7857 H   0  0  0  0  0  0  0  0  0  0  0  0
    5.8298   -4.8119    1.0925 H   0  0  0  0  0  0  0  0  0  0  0  0
    7.6169   -2.5288    1.9508 H   0  0  0  0  0  0  0  0  0  0  0  0
   10.1468   -3.7158    2.0704 H   0  0  0  0  0  0  0  0  0  0  0  0
   10.2054   -6.5582    1.4628 H   0  0  0  0  0  0  0  0  0  0  0  0
   10.1692   -5.7160   -0.1082 H   0  0  0  0  0  0  0  0  0  0  0  0
   12.5110   -7.0566   -0.0138 H   0  0  0  0  0  0  0  0  0  0  0  0
   13.8353   -6.2588    0.8532 H   0  0  0  0  0  0  0  0  0  0  0  0
    6.3388   -3.2243    3.8930 H   0  0  0  0  0  0  0  0  0  0  0  0
    6.7964   -4.9601    3.5514 H   0  0  0  0  0  0  0  0  0  0  0  0
    8.9105   -5.8011    4.1016 H   0  0  0  0  0  0  0  0  0  0  0  0
   11.0216   -5.4977    5.2861 H   0  0  0  0  0  0  0  0  0  0  0  0
   11.6554   -3.1808    6.0447 H   0  0  0  0  0  0  0  0  0  0  0  0
   10.1832   -1.2562    5.6032 H   0  0  0  0  0  0  0  0  0  0  0  0
    8.0381   -1.6138    4.3862 H   0  0  0  0  0  0  0  0  0  0  0  0
    3.4885   -1.0317   -0.1915 H   0  0  0  0  0  0  0  0  0  0  0  0
    0.2665   -1.4327   -1.2207 H   0  0  0  0  0  0  0  0  0  0  0  0
   -0.2462   -1.4748    1.7248 H   0  0  0  0  0  0  0  0  0  0  0  0
   -1.1950   -0.3858    0.6538 H   0  0  0  0  0  0  0  0  0  0  0  0
   -3.2386   -0.5920   -1.6916 H   0  0  0  0  0  0  0  0  0  0  0  0
   -3.4398   -1.3748   -3.2832 H   0  0  0  0  0  0  0  0  0  0  0  0
   -5.0977   -2.9228   -2.4103 H   0  0  0  0  0  0  0  0  0  0  0  0
   -4.1213   -2.2569    0.3970 H   0  0  0  0  0  0  0  0  0  0  0  0
   -5.9980   -4.0398    1.7108 H   0  0  0  0  0  0  0  0  0  0  0  0
   -3.6307   -3.8415    2.1301 H   0  0  0  0  0  0  0  0  0  0  0  0
   -5.3725   -5.3277    3.4677 H   0  0  0  0  0  0  0  0  0  0  0  0
   -3.6009   -5.2638    3.9551 H   0  0  0  0  0  0  0  0  0  0  0  0
   -4.2272   -6.6385    3.0111 H   0  0  0  0  0  0  0  0  0  0  0  0
   -2.9385   -5.4577    0.0598 H   0  0  0  0  0  0  0  0  0  0  0  0
   -1.9920   -5.4789    1.5658 H   0  0  0  0  0  0  0  0  0  0  0  0
   -3.2384   -6.7444    1.3696 H   0  0  0  0  0  0  0  0  0  0  0  0
   -5.5250   -6.8557    0.7567 H   0  0  0  0  0  0  0  0  0  0  0  0
   -8.2856   -7.6151    1.7056 H   0  0  0  0  0  0  0  0  0  0  0  0
   -6.7842   -8.4422    0.1660 H   0  0  0  0  0  0  0  0  0  0  0  0
   -7.4351   -7.5450   -1.2237 H   0  0  0  0  0  0  0  0  0  0  0  0
   -9.5460   -8.1674   -2.1718 H   0  0  0  0  0  0  0  0  0  0  0  0
  -11.0919   -9.9148   -2.7110 H   0  0  0  0  0  0  0  0  0  0  0  0
   -9.5194  -12.2715    0.4753 H   0  0  0  0  0  0  0  0  0  0  0  0
   -7.8847  -10.4319    1.0565 H   0  0  0  0  0  0  0  0  0  0  0  0
  -12.2482  -12.1369   -1.0968 H   0  0  0  0  0  0  0  0  0  0  0  0
   -9.9661   -6.0402    1.2118 H   0  0  0  0  0  0  0  0  0  0  0  0
   -9.6830   -6.0903   -0.4548 H   0  0  0  0  0  0  0  0  0  0  0  0
   -5.7846   -1.1163    0.3887 H   0  0  0  0  0  0  0  0  0  0  0  0
   -6.9202    0.8351    0.8873 H   0  0  0  0  0  0  0  0  0  0  0  0
   -7.7552    0.6671   -0.7663 H   0  0  0  0  0  0  0  0  0  0  0  0
   -7.2476    3.3423   -0.1181 H   0  0  0  0  0  0  0  0  0  0  0  0
   -4.9680    3.8596   -1.9661 H   0  0  0  0  0  0  0  0  0  0  0  0
   -3.4865    6.1622   -0.7731 H   0  0  0  0  0  0  0  0  0  0  0  0
   -2.1543    4.2949    1.2112 H   0  0  0  0  0  0  0  0  0  0  0  0
    0.2890    5.0983    1.8339 H   0  0  0  0  0  0  0  0  0  0  0  0
    1.4758    6.3754   -0.5568 H   0  0  0  0  0  0  0  0  0  0  0  0
    0.4110    3.1107   -0.2664 H   0  0  0  0  0  0  0  0  0  0  0  0
    0.2869    2.5300   -2.6948 H   0  0  0  0  0  0  0  0  0  0  0  0
    1.2869    0.9159    0.3593 H   0  0  0  0  0  0  0  0  0  0  0  0
    3.2994    2.4595   -2.6749 H   0  0  0  0  0  0  0  0  0  0  0  0
    2.2295    1.4853   -3.7053 H   0  0  0  0  0  0  0  0  0  0  0  0
   -0.0012    4.3251   -3.4856 H   0  0  0  0  0  0  0  0  0  0  0  0
    0.4885    6.2299   -5.1135 H   0  0  0  0  0  0  0  0  0  0  0  0
    4.7509    3.0525   -4.6084 H   0  0  0  0  0  0  0  0  0  0  0  0
    5.9958    4.4896   -6.2013 H   0  0  0  0  0  0  0  0  0  0  0  0
    4.9336    6.4654   -7.2085 H   0  0  0  0  0  0  0  0  0  0  0  0
    2.6684    7.0244   -6.6495 H   0  0  0  0  0  0  0  0  0  0  0  0
    3.7555    5.5144    0.5736 H   0  0  0  0  0  0  0  0  0  0  0  0
    2.6628    4.7515    1.8172 H   0  0  0  0  0  0  0  0  0  0  0  0
    3.5545    6.7165    2.7542 H   0  0  0  0  0  0  0  0  0  0  0  0
    1.8586    7.0844    2.4262 H   0  0  0  0  0  0  0  0  0  0  0  0
    3.3351    8.9137    1.8761 H   0  0  0  0  0  0  0  0  0  0  0  0
    4.2135    7.9048    0.6963 H   0  0  0  0  0  0  0  0  0  0  0  0
    2.5866    8.4169   -0.9436 H   0  0  0  0  0  0  0  0  0  0  0  0
    0.3119   10.2933    1.9425 H   0  0  0  0  0  0  0  0  0  0  0  0
   -0.9252    9.5554   -0.2288 H   0  0  0  0  0  0  0  0  0  0  0  0
    0.0244    8.5423   -1.3257 H   0  0  0  0  0  0  0  0  0  0  0  0
   -3.4085    5.6074    2.5788 H   0  0  0  0  0  0  0  0  0  0  0  0
   -1.7253    5.9629    2.8997 H   0  0  0  0  0  0  0  0  0  0  0  0
   -1.0417    8.4009    2.4889 H   0  0  0  0  0  0  0  0  0  0  0  0
   -1.9318   10.7844    2.3034 H   0  0  0  0  0  0  0  0  0  0  0  0
   -4.2369   11.2046    1.7601 H   0  0  0  0  0  0  0  0  0  0  0  0
   -5.7544    9.3389    1.3822 H   0  0  0  0  0  0  0  0  0  0  0  0
   -4.8837    7.0226    1.5673 H   0  0  0  0  0  0  0  0  0  0  0  0
   -6.8587    5.2627   -2.2252 H   0  0  0  0  0  0  0  0  0  0  0  0
   -5.3970    6.2342   -1.8052 H   0  0  0  0  0  0  0  0  0  0  0  0
   -7.7260    7.9067   -1.5239 H   0  0  0  0  0  0  0  0  0  0  0  0
   -8.4684    6.7662    2.5059 H   0  0  0  0  0  0  0  0  0  0  0  0
   -6.8881    5.0621    1.4489 H   0  0  0  0  0  0  0  0  0  0  0  0
  1  2  1  0
  2  3  2  3
  2  4  1  0
  4  5  1  0
  5  6  1  0
  6  7  1  0
  7  8  1  0
  8  9  1  0
  9 10  2  0
  9 11  1  0
 11 12  1  0
 12 13  1  0
 13 14  2  0
 13 15  1  0
 15 16  1  0
 16 17  1  0
 17 18  2  0
 17 19  1  0
 12 20  1  0
 20 21  1  0
 21 22  2  0
 22 23  1  0
 23 24  2  0
 24 25  1  0
 25 26  2  0
  8 27  1  0
 27 28  1  0
 28 29  2  0
 28 30  1  0
 30 31  1  0
 31 32  1  0
 32 33  1  0
 33 34  1  0
 34 35  1  0
 35 36  1  0
 36 37  1  0
 37 38  2  0
 37 39  1  0
 39 40  1  0
 40 41  1  0
 40 42  1  0
 39 43  1  0
 43 44  1  0
 44 45  2  0
 44 46  1  0
 46 47  1  0
 47 48  1  0
 48 49  2  0
 49 50  1  0
 50 51  2  0
 51 52  1  0
 52 53  2  0
 51 54  1  0
 46 55  1  0
 35 56  1  0
 56 57  2  0
 56 58  1  0
 58 59  1  0
 59 60  1  0
 60 61  2  0
 60 62  1  0
 62 63  1  0
 63 64  1  0
 64 65  2  0
 64 66  1  0
 66 67  1  0
 67 68  1  0
 68 69  2  0
 68 70  1  0
 70 71  1  0
 71 72  1  0
 72 73  2  0
 72 74  1  0
 74 75  1  0
 75 76  1  0
 76 77  2  0
 76 78  1  0
 75 79  1  0
 79 80  1  0
 80 81  2  0
 81 82  1  0
 82 83  1  0
 83 84  2  0
 84 85  1  0
 85 86  2  0
 86 87  1  0
 87 88  2  0
 71 89  1  0
 89 90  1  0
 90 91  1  0
 91 92  1  0
 92 93  1  0
 93 94  2  3
 93 95  1  0
 67 96  1  0
 96 97  1  0
 97 98  2  0
 98 99  1  0
 99100  2  0
100101  1  0
101102  2  0
 63103  1  0
103104  1  0
104105  2  0
105106  1  0
106107  2  0
107108  1  0
 26 21  1  0
 78 30  1  0
 84 80  1  0
102 97  1  0
108104  1  0
 53 48  1  0
 88 83  1  0
  1109  1  0
  1110  1  0
  3111  1  0
  4112  1  0
  5113  1  0
  5114  1  0
  6115  1  0
  6116  1  0
  7117  1  0
  7118  1  0
  8119  1  1
 11120  1  0
 12121  1  1
 15122  1  0
 16123  1  0
 16124  1  0
 19125  1  0
 19126  1  0
 20127  1  0
 20128  1  0
 22129  1  0
 23130  1  0
 24131  1  0
 25132  1  0
 26133  1  0
 27134  1  0
 30135  1  6
 31136  1  0
 31137  1  0
 34138  1  0
 34139  1  0
 35140  1  6
 36141  1  0
 39142  1  1
 40143  1  0
 41144  1  0
 41145  1  0
 41146  1  0
 42147  1  0
 42148  1  0
 42149  1  0
 43150  1  0
 46151  1  1
 47152  1  0
 47153  1  0
 49154  1  0
 50155  1  0
 52156  1  0
 53157  1  0
 54158  1  0
 55159  1  0
 55160  1  0
 58161  1  0
 59162  1  0
 59163  1  0
 62164  1  0
 63165  1  6
 66166  1  0
 67167  1  1
 70168  1  0
 71169  1  6
 74170  1  0
 75171  1  6
 78172  1  0
 79173  1  0
 79174  1  0
 81175  1  0
 82176  1  0
 85177  1  0
 86178  1  0
 87179  1  0
 88180  1  0
 89181  1  0
 89182  1  0
 90183  1  0
 90184  1  0
 91185  1  0
 91186  1  0
 92187  1  0
 94188  1  0
 95189  1  0
 95190  1  0
 96191  1  0
 96192  1  0
 98193  1  0
 99194  1  0
100195  1  0
101196  1  0
102197  1  0
103198  1  0
103199  1  0
105200  1  0
107201  1  0
108202  1  0
M  END
>  <Ligand ID>  (1) 
LIG0003411

>  <Ligand>  (1) 
BDBM50134942

>  <SMILES>  (1) 
NC(=N)NCCC[C@@H](C(=O)N[C@H](C(=O)NCC(=O)N)Cc1ccccc1)NC(=O)[C@H]1CSSC[C@@H](NC(=O)[C@H](C(C)C)NC(=O)[C@H](Cc2ccc(cc2)O)N)C(=O)NCC(=O)N[C@H](C(=O)N[C@@H](C(=O)N[C@H](C(=O)N[C@H](C(=O)N1)Cc1c[nH]c2c1cccc2)CCCNC(=N)N)Cc1ccccc1)Cc1cnc[nH]1

>  <CID>  (1) 
91932688.0

>  <ChEMBL ID>  (1) 
nan

>  <InChiKey>  (1) 
SMAWMSUKCNWJNR-UROBEHEXSA-N

>  <InChi>  (1) 
InChI=1S/C71H94N22O13S2/c1-39(2)59(93-60(97)47(72)27-42-21-23-45(94)24-22-42)69(106)92-55-36-107-108-37-56(68(105)87-50(20-12-26-80-71(76)77)63(100)88-51(61(98)82-34-57(73)95)28-40-13-5-3-6-14-40)91-66(103)53(30-43-32-81-48-18-10-9-17-46(43)48)90-64(101)49(19-11-25-79-70(74)75)86-65(102)52(29-41-15-7-4-8-16-41)89-67(104)54(31-44-33-78-38-84-44)85-58(96)35-83-62(55)99/h3-10,13-18,21-24,32-33,38-39,47,49-56,59,81,94H,11-12,19-20,25-31,34-37,72H2,1-2H3,(H2,73,95)(H,78,84)(H,82,98)(H,83,99)(H,85,96)(H,86,102)(H,87,105)(H,88,100)(H,89,104)(H,90,101)(H,91,103)(H,92,106)(H,93,97)(H4,74,75,79)(H4,76,77,80)/t47-,49-,50-,51-,52+,53-,54-,55+,56+,59-/m0/s1

>  <IUPAC Name>  (1) 
(4S,7S,10S,13R,16S,22S)-22-[[(2S)-2-[[(2S)-2-amino-3-(4-hydroxyphenyl)propanoyl]amino]-3-methylbutanoyl]amino]-N-[(2S)-1-[[(2S)-1-[(2-amino-2-oxoethyl)amino]-1-oxo-3-phenylpropan-2-yl]amino]-5-carbamimidamido-1-oxopentan-2-yl]-13-benzyl-10-(3-carbamimidamidopropyl)-16-(1H-imidazol-5-ylmethyl)-7-(1H-indol-3-ylmethyl)-6,9,12,15,18,21-hexaoxo-1,2-dithia-5,8,11,14,17,20-hexazacyclotricosane-4-carboxamide

$$$$
