
     RDKit          3D

 21 22  0  0  0  0  0  0  0  0999 V2000
   -3.8872    0.2672   -0.2930 C   0  0  0  0  0  0  0  0  0  0  0  0
   -2.6672    0.9639   -0.2812 O   0  0  0  0  0  0  0  0  0  0  0  0
   -1.4152    0.3672   -0.2030 C   0  0  0  0  0  0  0  0  0  0  0  0
   -1.2324   -0.9992   -0.1272 C   0  0  0  0  0  0  0  0  0  0  0  0
    0.0770   -1.4793   -0.0527 C   0  0  0  0  0  0  0  0  0  0  0  0
    1.1640   -0.6343   -0.0535 C   0  0  0  0  0  0  0  0  0  0  0  0
    0.9633    0.7292   -0.1299 C   0  0  0  0  0  0  0  0  0  0  0  0
   -0.3254    1.2170   -0.2040 C   0  0  0  0  0  0  0  0  0  0  0  0
    1.9453    1.6016   -0.1361 O   0  0  0  0  0  0  0  0  0  0  0  0
    3.2027    1.2277   -0.0690 C   0  0  0  0  0  0  0  0  0  0  0  0
    4.0755    2.1180   -0.0803 O   0  0  0  0  0  0  0  0  0  0  0  0
    3.4805   -0.1259    0.0099 C   0  0  0  0  0  0  0  0  0  0  0  0
    2.4713   -1.0775    0.0191 C   0  0  0  0  0  0  0  0  0  0  0  0
   -4.2527    0.0398    0.7352 H   0  0  0  0  0  0  0  0  0  0  0  0
   -4.6308    0.9309   -0.8219 H   0  0  0  0  0  0  0  0  0  0  0  0
   -3.8643   -0.6900   -0.8409 H   0  0  0  0  0  0  0  0  0  0  0  0
   -2.0867   -1.6508   -0.1272 H   0  0  0  0  0  0  0  0  0  0  0  0
    0.2678   -2.5398    0.0081 H   0  0  0  0  0  0  0  0  0  0  0  0
   -0.4755    2.3053   -0.2646 H   0  0  0  0  0  0  0  0  0  0  0  0
    4.5200   -0.4297    0.0652 H   0  0  0  0  0  0  0  0  0  0  0  0
    2.6701   -2.1414    0.0803 H   0  0  0  0  0  0  0  0  0  0  0  0
  1  2  1  0
  2  3  1  0
  3  4  2  0
  4  5  1  0
  5  6  2  0
  6  7  1  0
  7  8  2  0
  7  9  1  0
  9 10  1  0
 10 11  2  0
 10 12  1  0
 12 13  2  0
  8  3  1  0
 13  6  1  0
  1 14  1  0
  1 15  1  0
  1 16  1  0
  4 17  1  0
  5 18  1  0
  8 19  1  0
 12 20  1  0
 13 21  1  0
M  END
>  <Ligand ID>  (1) 
LIG0000634

>  <Ligand>  (1) 
7-Methoxycoumarin

>  <SMILES>  (1) 
COc1ccc2c(c1)oc(=O)cc2

>  <CID>  (1) 
10748.0

>  <ChEMBL ID>  (1) 
nan

>  <InChiKey>  (1) 
LIIALPBMIOVAHH-UHFFFAOYSA-N

>  <InChi>  (1) 
InChI=1S/C10H8O3/c1-12-8-4-2-7-3-5-10(11)13-9(7)6-8/h2-6H,1H3

>  <IUPAC Name>  (1) 
7-methoxychromen-2-one

$$$$
