
     RDKit          3D

 64 65  0  0  0  0  0  0  0  0999 V2000
   -7.6712    0.4486   -1.4832 O   0  0  0  0  0  0  0  0  0  0  0  0
   -6.8178   -0.4081   -0.7707 C   0  0  0  0  0  0  0  0  0  0  0  0
   -6.7197   -0.1758    0.4485 O   0  0  0  0  0  0  0  0  0  0  0  0
   -6.1525   -1.4598   -1.5365 C   0  0  0  0  0  0  0  0  0  0  0  0
   -5.1586   -2.2708   -0.8165 C   0  0  0  0  0  0  0  0  0  0  0  0
   -3.9337   -1.6279   -0.2827 C   0  0  0  0  0  0  0  0  0  0  0  0
   -4.0407   -0.5925    0.7205 C   0  0  0  0  0  0  0  0  0  0  0  0
   -3.6258    0.6688    0.6060 C   0  0  0  0  0  0  0  0  0  0  0  0
   -2.9747    1.2263   -0.5921 C   0  0  0  0  0  0  0  0  0  0  0  0
   -1.5783    1.7465   -0.2925 C   0  0  2  0  0  0  0  0  0  0  0  0
   -0.6754    0.6528    0.2319 C   0  0  1  0  0  0  0  0  0  0  0  0
    0.1445   -0.0084   -0.7951 C   0  0  0  0  0  0  0  0  0  0  0  0
    1.4602   -0.0774   -0.8185 C   0  0  0  0  0  0  0  0  0  0  0  0
    2.1278   -0.8006   -1.9586 C   0  0  0  0  0  0  0  0  0  0  0  0
    3.6102   -0.7717   -1.7185 C   0  0  0  0  0  0  0  0  0  0  0  0
    4.0271   -1.4332   -0.4331 C   0  0  0  0  0  0  0  0  0  0  0  0
    5.5057   -1.3795   -0.2413 C   0  0  0  0  0  0  0  0  0  0  0  0
    6.0428   -0.2930    0.4256 C   0  0  0  0  0  0  0  0  0  0  0  0
    7.3958   -0.1549    0.6514 C   0  0  0  0  0  0  0  0  0  0  0  0
    8.2269   -1.1563    0.1824 C   0  0  0  0  0  0  0  0  0  0  0  0
    7.7392   -2.2683   -0.4932 C   0  0  0  0  0  0  0  0  0  0  0  0
    6.3588   -2.3494   -0.6901 C   0  0  0  0  0  0  0  0  0  0  0  0
    1.6197   -2.0690   -2.1110 O   0  0  0  0  0  0  0  0  0  0  0  0
    0.1562    1.2936    1.3139 C   0  0  1  0  0  0  0  0  0  0  0  0
   -0.7462    2.3468    1.9374 C   0  0  0  0  0  0  0  0  0  0  0  0
   -1.7123    2.6940    0.8598 C   0  0  0  0  0  0  0  0  0  0  0  0
   -2.4875    3.6243    0.9391 O   0  0  0  0  0  0  0  0  0  0  0  0
    0.0741    3.5741    2.2689 C   0  0  0  0  0  0  0  0  0  0  0  0
   -1.3922    1.7303    3.1478 C   0  0  0  0  0  0  0  0  0  0  0  0
    0.6594    0.3879    2.2288 O   0  0  0  0  0  0  0  0  0  0  0  0
   -8.3564    0.9822   -0.9773 H   0  0  0  0  0  0  0  0  0  0  0  0
   -6.9825   -2.1824   -1.8406 H   0  0  0  0  0  0  0  0  0  0  0  0
   -5.7895   -1.0823   -2.5306 H   0  0  0  0  0  0  0  0  0  0  0  0
   -4.8619   -3.1614   -1.4652 H   0  0  0  0  0  0  0  0  0  0  0  0
   -5.7372   -2.8072    0.0109 H   0  0  0  0  0  0  0  0  0  0  0  0
   -3.2056   -1.3584   -1.1158 H   0  0  0  0  0  0  0  0  0  0  0  0
   -3.3494   -2.4799    0.2114 H   0  0  0  0  0  0  0  0  0  0  0  0
   -4.4878   -0.8540    1.6972 H   0  0  0  0  0  0  0  0  0  0  0  0
   -3.7668    1.3678    1.4515 H   0  0  0  0  0  0  0  0  0  0  0  0
   -3.5573    2.1650   -0.8438 H   0  0  0  0  0  0  0  0  0  0  0  0
   -3.0334    0.6298   -1.4981 H   0  0  0  0  0  0  0  0  0  0  0  0
   -1.1551    2.2159   -1.1906 H   0  0  0  0  0  0  0  0  0  0  0  0
   -1.2933   -0.1172    0.7498 H   0  0  0  0  0  0  0  0  0  0  0  0
   -0.3995   -0.4910   -1.6219 H   0  0  0  0  0  0  0  0  0  0  0  0
    2.0392    0.3746   -0.0292 H   0  0  0  0  0  0  0  0  0  0  0  0
    1.9538   -0.1568   -2.8615 H   0  0  0  0  0  0  0  0  0  0  0  0
    3.9462    0.2759   -1.6635 H   0  0  0  0  0  0  0  0  0  0  0  0
    4.1230   -1.2648   -2.5516 H   0  0  0  0  0  0  0  0  0  0  0  0
    3.5684   -0.9480    0.4591 H   0  0  0  0  0  0  0  0  0  0  0  0
    3.7351   -2.5053   -0.3729 H   0  0  0  0  0  0  0  0  0  0  0  0
    5.3553    0.4793    0.7821 H   0  0  0  0  0  0  0  0  0  0  0  0
    7.7253    0.7126    1.1732 H   0  0  0  0  0  0  0  0  0  0  0  0
    9.2827   -1.0346    0.3659 H   0  0  0  0  0  0  0  0  0  0  0  0
    8.4165   -3.0359   -0.8481 H   0  0  0  0  0  0  0  0  0  0  0  0
    5.9503   -3.2148   -1.2191 H   0  0  0  0  0  0  0  0  0  0  0  0
    1.9683   -2.6254   -1.3861 H   0  0  0  0  0  0  0  0  0  0  0  0
    1.0240    1.8353    0.8618 H   0  0  0  0  0  0  0  0  0  0  0  0
    0.4578    3.9493    1.2820 H   0  0  0  0  0  0  0  0  0  0  0  0
    0.9710    3.3312    2.8761 H   0  0  0  0  0  0  0  0  0  0  0  0
   -0.5295    4.3784    2.6963 H   0  0  0  0  0  0  0  0  0  0  0  0
   -1.7313    0.7047    2.8569 H   0  0  0  0  0  0  0  0  0  0  0  0
   -0.5944    1.5973    3.8989 H   0  0  0  0  0  0  0  0  0  0  0  0
   -2.2523    2.3179    3.5218 H   0  0  0  0  0  0  0  0  0  0  0  0
    1.1050    0.9050    2.9432 H   0  0  0  0  0  0  0  0  0  0  0  0
  1  2  1  0
  2  3  2  0
  2  4  1  0
  4  5  1  0
  5  6  1  0
  6  7  1  0
  7  8  2  0
  8  9  1  0
  9 10  1  0
 10 11  1  0
 11 12  1  0
 12 13  2  0
 13 14  1  0
 14 15  1  0
 15 16  1  0
 16 17  1  0
 17 18  2  0
 18 19  1  0
 19 20  2  0
 20 21  1  0
 21 22  2  0
 14 23  1  0
 11 24  1  0
 24 25  1  0
 25 26  1  0
 26 27  2  0
 25 28  1  0
 25 29  1  0
 24 30  1  0
 26 10  1  0
 22 17  1  0
  1 31  1  0
  4 32  1  0
  4 33  1  0
  5 34  1  0
  5 35  1  0
  6 36  1  0
  6 37  1  0
  7 38  1  0
  8 39  1  0
  9 40  1  0
  9 41  1  0
 10 42  1  6
 11 43  1  1
 12 44  1  0
 13 45  1  0
 14 46  1  0
 15 47  1  0
 15 48  1  0
 16 49  1  0
 16 50  1  0
 18 51  1  0
 19 52  1  0
 20 53  1  0
 21 54  1  0
 22 55  1  0
 23 56  1  0
 24 57  1  6
 28 58  1  0
 28 59  1  0
 28 60  1  0
 29 61  1  0
 29 62  1  0
 29 63  1  0
 30 64  1  0
M  END
>  <Ligand ID>  (1) 
LIG0003556

>  <Ligand>  (1) 
SCHEMBL2192993

>  <SMILES>  (1) 
OC(=O)CCC/C=C\C[C@@H]1[C@@H](/C=C/C(CCc2ccccc2)O)[C@@H](C(C1=O)(C)C)O

>  <CID>  (1) 
10409554.0

>  <ChEMBL ID>  (1) 
nan

>  <InChiKey>  (1) 
XBDPKIKSINIXBV-WWYBHACOSA-N

>  <InChi>  (1) 
InChI=1S/C25H34O5/c1-25(2)23(29)20(12-8-3-4-9-13-22(27)28)21(24(25)30)17-16-19(26)15-14-18-10-6-5-7-11-18/h3,5-8,10-11,16-17,19-21,24,26,30H,4,9,12-15H2,1-2H3,(H,27,28)/b8-3-,17-16+/t19?,20-,21-,24+/m1/s1

>  <IUPAC Name>  (1) 
(Z)-7-[(1R,4S,5R)-4-hydroxy-5-[(E)-3-hydroxy-5-phenylpent-1-enyl]-3,3-dimethyl-2-oxocyclopentyl]hept-5-enoic acid

$$$$
