
     RDKit          3D

 32 33  0  0  0  0  0  0  0  0999 V2000
    0.3588    3.1369    0.6697 F   0  0  0  0  0  0  0  0  0  0  0  0
    1.3368    2.2243    0.4572 C   0  0  0  0  0  0  0  0  0  0  0  0
    2.6377    2.7401    0.4135 C   0  0  0  0  0  0  0  0  0  0  0  0
    3.6814    1.8810    0.2022 C   0  0  0  0  0  0  0  0  0  0  0  0
    3.4109    0.5534    0.0423 C   0  0  0  0  0  0  0  0  0  0  0  0
    2.1111    0.0356    0.0856 C   0  0  0  0  0  0  0  0  0  0  0  0
    1.0548    0.9012    0.2990 C   0  0  0  0  0  0  0  0  0  0  0  0
   -0.2594    0.3950    0.3456 N   0  0  0  0  0  0  0  0  0  0  0  0
   -1.4039    1.2585    0.5678 C   0  0  0  0  0  0  0  0  0  0  0  0
   -2.6852    0.4730    0.5686 C   0  0  0  0  0  0  0  0  0  0  0  0
   -3.5522    0.3588    1.5179 N   0  0  0  0  0  0  0  0  0  0  0  0
   -4.6574   -0.4931    1.1219 C   0  0  0  0  0  0  0  0  0  0  0  0
   -4.0579   -1.2563   -0.0417 C   0  0  0  0  0  0  0  0  0  0  0  0
   -3.1069   -0.2822   -0.5603 N   0  0  0  0  0  0  0  0  0  0  0  0
    1.7938   -1.6671   -0.1224 S   0  0  0  0  0  0  0  0  0  0  0  0
    1.2228   -2.2147    1.1562 O   0  0  0  0  0  0  0  0  0  0  0  0
    0.8178   -1.9651   -1.2126 O   0  0  0  0  0  0  0  0  0  0  0  0
    3.3462   -2.4857   -0.3720 C   0  0  0  0  0  0  0  0  0  0  0  0
    2.8204    3.8107    0.5455 H   0  0  0  0  0  0  0  0  0  0  0  0
    4.6848    2.2889    0.1698 H   0  0  0  0  0  0  0  0  0  0  0  0
    4.2006   -0.1657   -0.1271 H   0  0  0  0  0  0  0  0  0  0  0  0
   -0.4487   -0.6233    0.2210 H   0  0  0  0  0  0  0  0  0  0  0  0
   -1.4664    1.9660   -0.2880 H   0  0  0  0  0  0  0  0  0  0  0  0
   -1.2969    1.8128    1.5418 H   0  0  0  0  0  0  0  0  0  0  0  0
   -5.4788    0.1281    0.7171 H   0  0  0  0  0  0  0  0  0  0  0  0
   -4.9798   -1.1624    1.9448 H   0  0  0  0  0  0  0  0  0  0  0  0
   -4.8236   -1.5262   -0.7970 H   0  0  0  0  0  0  0  0  0  0  0  0
   -3.5253   -2.1633    0.3235 H   0  0  0  0  0  0  0  0  0  0  0  0
   -2.7856   -0.1494   -1.5599 H   0  0  0  0  0  0  0  0  0  0  0  0
    3.2363   -3.5780   -0.4093 H   0  0  0  0  0  0  0  0  0  0  0  0
    3.9648   -2.2108    0.5320 H   0  0  0  0  0  0  0  0  0  0  0  0
    3.8489   -2.0212   -1.2286 H   0  0  0  0  0  0  0  0  0  0  0  0
  1  2  1  0
  2  3  2  0
  3  4  1  0
  4  5  2  0
  5  6  1  0
  6  7  2  0
  7  8  1  0
  8  9  1  0
  9 10  1  0
 10 11  2  0
 11 12  1  0
 12 13  1  0
 13 14  1  0
  6 15  1  0
 15 16  2  0
 15 17  2  0
 15 18  1  0
  7  2  1  0
 14 10  1  0
  3 19  1  0
  4 20  1  0
  5 21  1  0
  8 22  1  0
  9 23  1  0
  9 24  1  0
 12 25  1  0
 12 26  1  0
 13 27  1  0
 13 28  1  0
 14 29  1  0
 18 30  1  0
 18 31  1  0
 18 32  1  0
M  END
>  <Ligand ID>  (1) 
LIG0001004

>  <Ligand>  (1) 
CHEMBL74114

>  <SMILES>  (1) 
Fc1cccc(c1NCC1=NCCN1)S(=O)(=O)C

>  <CID>  (1) 
11058166.0

>  <ChEMBL ID>  (1) 
nan

>  <InChiKey>  (1) 
FAINGUBYHMRNKU-UHFFFAOYSA-N

>  <InChi>  (1) 
InChI=1S/C11H14FN3O2S/c1-18(16,17)9-4-2-3-8(12)11(9)15-7-10-13-5-6-14-10/h2-4,15H,5-7H2,1H3,(H,13,14)

>  <IUPAC Name>  (1) 
N-(4,5-dihydro-1H-imidazol-2-ylmethyl)-2-fluoro-6-methylsulfonylaniline

$$$$
