
     RDKit          3D

 13 12  0  0  0  0  0  0  0  0999 V2000
   -1.5064   -0.2017    0.8034 O   0  0  0  0  0  0  0  0  0  0  0  0
   -1.0954   -0.0408   -0.5010 C   0  0  0  0  0  0  0  0  0  0  0  0
    0.3234    0.5180   -0.4548 C   0  0  0  0  0  0  0  0  0  0  0  0
    0.2515    1.7221    0.2180 O   0  0  0  0  0  0  0  0  0  0  0  0
    1.1769   -0.5118    0.2491 C   0  0  0  0  0  0  0  0  0  0  0  0
   -1.8707   -1.1095    0.9780 H   0  0  0  0  0  0  0  0  0  0  0  0
   -1.7503    0.6450   -1.0904 H   0  0  0  0  0  0  0  0  0  0  0  0
   -0.9980   -1.0213   -1.0129 H   0  0  0  0  0  0  0  0  0  0  0  0
    0.6806    0.7303   -1.4848 H   0  0  0  0  0  0  0  0  0  0  0  0
    0.6446    1.7261    1.1105 H   0  0  0  0  0  0  0  0  0  0  0  0
    1.8866   -0.0976    0.9762 H   0  0  0  0  0  0  0  0  0  0  0  0
    0.5642   -1.2838    0.7797 H   0  0  0  0  0  0  0  0  0  0  0  0
    1.6929   -1.0749   -0.5710 H   0  0  0  0  0  0  0  0  0  0  0  0
  1  2  1  0
  2  3  1  0
  3  4  1  0
  3  5  1  0
  1  6  1  0
  2  7  1  0
  2  8  1  0
  3  9  1  0
  4 10  1  0
  5 11  1  0
  5 12  1  0
  5 13  1  0
M  END
>  <Ligand ID>  (1) 
LIG0005059

>  <Ligand>  (1) 
Propylene Glycol

>  <SMILES>  (1) 
OCC(O)C

>  <CID>  (1) 
1030.0

>  <ChEMBL ID>  (1) 
nan

>  <InChiKey>  (1) 
DNIAPMSPPWPWGF-UHFFFAOYSA-N

>  <InChi>  (1) 
InChI=1S/C3H8O2/c1-3(5)2-4/h3-5H,2H2,1H3

>  <IUPAC Name>  (1) 
propane-1,2-diol

$$$$
