
     RDKit          3D

 84 87  0  0  0  0  0  0  0  0999 V2000
   -1.5611   -0.5369   -4.6168 O   0  0  0  0  0  0  0  0  0  0  0  0
   -0.5726   -0.4864   -3.8250 C   0  0  0  0  0  0  0  0  0  0  0  0
   -0.8100   -0.8795   -2.4847 N   0  0  0  0  0  0  0  0  0  0  0  0
   -2.1306   -1.3245   -2.0818 C   0  0  2  0  0  0  0  0  0  0  0  0
   -2.7260   -0.1100   -1.3858 C   0  0  0  0  0  0  0  0  0  0  0  0
   -1.9687    0.8885   -1.3489 O   0  0  0  0  0  0  0  0  0  0  0  0
   -3.9848   -0.1152   -0.8491 O   0  0  0  0  0  0  0  0  0  0  0  0
   -4.6253    0.9444   -0.1983 C   0  0  0  0  0  0  0  0  0  0  0  0
   -3.8936    1.3931    1.0063 C   0  0  0  0  0  0  0  0  0  0  0  0
   -2.9836    2.4262    1.0105 C   0  0  0  0  0  0  0  0  0  0  0  0
   -2.3067    2.8215    2.1580 C   0  0  0  0  0  0  0  0  0  0  0  0
   -2.5654    2.1447    3.3347 C   0  0  0  0  0  0  0  0  0  0  0  0
   -3.4847    1.0906    3.3648 C   0  0  0  0  0  0  0  0  0  0  0  0
   -4.1455    0.7173    2.2049 C   0  0  0  0  0  0  0  0  0  0  0  0
   -3.7860    0.3449    4.6135 C   0  0  0  0  0  0  0  0  0  0  0  0
   -5.1008    0.4823    5.0062 F   0  0  0  0  0  0  0  0  0  0  0  0
   -3.4121   -0.9574    4.4019 F   0  0  0  0  0  0  0  0  0  0  0  0
   -2.9256    0.8578    5.5955 F   0  0  0  0  0  0  0  0  0  0  0  0
   -1.3216    3.9312    2.1636 C   0  0  0  0  0  0  0  0  0  0  0  0
   -1.4693    4.7455    1.0794 F   0  0  0  0  0  0  0  0  0  0  0  0
   -1.5361    4.7049    3.2897 F   0  0  0  0  0  0  0  0  0  0  0  0
   -0.0401    3.4024    2.1926 F   0  0  0  0  0  0  0  0  0  0  0  0
   -2.0977   -2.4696   -1.1292 C   0  0  0  0  0  0  0  0  0  0  0  0
   -3.4883   -2.8622   -0.7758 C   0  0  0  0  0  0  0  0  0  0  0  0
   -4.1974   -2.5958    0.3772 C   0  0  0  0  0  0  0  0  0  0  0  0
   -5.4110   -3.1552    0.2222 N   0  0  0  0  0  0  0  0  0  0  0  0
   -5.5029   -3.7670   -0.9822 C   0  0  0  0  0  0  0  0  0  0  0  0
   -4.2945   -3.5901   -1.6244 C   0  0  0  0  0  0  0  0  0  0  0  0
   -4.0628   -4.1092   -2.9029 C   0  0  0  0  0  0  0  0  0  0  0  0
   -5.0572   -4.8152   -3.5450 C   0  0  0  0  0  0  0  0  0  0  0  0
   -6.2787   -5.0074   -2.9242 C   0  0  0  0  0  0  0  0  0  0  0  0
   -6.4749   -4.4773   -1.6528 C   0  0  0  0  0  0  0  0  0  0  0  0
    0.7082   -0.0243   -4.3670 C   0  0  0  0  0  0  0  0  0  0  0  0
    1.7270   -0.1210   -3.3334 N   0  0  0  0  0  0  0  0  0  0  0  0
    2.0231   -1.4322   -2.8667 C   0  0  0  0  0  0  0  0  0  0  0  0
    1.4108   -2.4454   -3.3588 O   0  0  0  0  0  0  0  0  0  0  0  0
    3.0216   -1.7392   -1.8179 C   0  0  2  0  0  0  0  0  0  0  0  0
    3.5639   -0.4835   -1.3320 N   0  0  0  0  0  0  0  0  0  0  0  0
    3.5723   -0.3013    0.0796 C   0  0  0  0  0  0  0  0  0  0  0  0
    3.1202   -1.2337    0.8083 O   0  0  0  0  0  0  0  0  0  0  0  0
    4.0753    0.9087    0.7601 C   0  0  2  0  0  0  0  0  0  0  0  0
    5.4810    1.2256    0.3724 C   0  0  0  0  0  0  0  0  0  0  0  0
    5.9907    2.4461    1.0663 C   0  0  0  0  0  0  0  0  0  0  0  0
    5.8129    3.6965    0.5129 C   0  0  0  0  0  0  0  0  0  0  0  0
    6.2682    4.8379    1.1250 C   0  0  0  0  0  0  0  0  0  0  0  0
    6.9209    4.6887    2.3332 C   0  0  0  0  0  0  0  0  0  0  0  0
    7.1234    3.4526    2.9285 C   0  0  0  0  0  0  0  0  0  0  0  0
    6.6542    2.3194    2.2895 C   0  0  0  0  0  0  0  0  0  0  0  0
    7.4186    5.7876    3.0298 O   0  0  0  0  0  0  0  0  0  0  0  0
    4.0195    0.6356    2.2037 N   0  0  0  0  0  0  0  0  0  0  0  0
    4.1164   -2.5438   -2.5401 C   0  0  0  0  0  0  0  0  0  0  0  0
   -0.0640   -0.8506   -1.7629 H   0  0  0  0  0  0  0  0  0  0  0  0
   -2.7545   -1.5409   -2.9843 H   0  0  0  0  0  0  0  0  0  0  0  0
   -5.6666    0.6400    0.0327 H   0  0  0  0  0  0  0  0  0  0  0  0
   -4.6030    1.8172   -0.8976 H   0  0  0  0  0  0  0  0  0  0  0  0
   -2.7630    2.9849    0.1201 H   0  0  0  0  0  0  0  0  0  0  0  0
   -2.0678    2.4084    4.2681 H   0  0  0  0  0  0  0  0  0  0  0  0
   -4.8580   -0.0961    2.2176 H   0  0  0  0  0  0  0  0  0  0  0  0
   -1.6050   -2.1524   -0.1850 H   0  0  0  0  0  0  0  0  0  0  0  0
   -1.5311   -3.3020   -1.6232 H   0  0  0  0  0  0  0  0  0  0  0  0
   -3.8422   -2.0468    1.2293 H   0  0  0  0  0  0  0  0  0  0  0  0
   -6.1461   -3.1087    0.9373 H   0  0  0  0  0  0  0  0  0  0  0  0
   -3.0997   -3.9599   -3.3950 H   0  0  0  0  0  0  0  0  0  0  0  0
   -4.8849   -5.2205   -4.5353 H   0  0  0  0  0  0  0  0  0  0  0  0
   -7.0642   -5.5635   -3.4273 H   0  0  0  0  0  0  0  0  0  0  0  0
   -7.4199   -4.6024   -1.1241 H   0  0  0  0  0  0  0  0  0  0  0  0
    0.9871   -0.6254   -5.2813 H   0  0  0  0  0  0  0  0  0  0  0  0
    0.6222    1.0260   -4.7400 H   0  0  0  0  0  0  0  0  0  0  0  0
    2.2291    0.6772   -2.9320 H   0  0  0  0  0  0  0  0  0  0  0  0
    2.6460   -2.3738   -1.0055 H   0  0  0  0  0  0  0  0  0  0  0  0
    3.9389    0.2689   -1.9400 H   0  0  0  0  0  0  0  0  0  0  0  0
    3.3794    1.7657    0.6017 H   0  0  0  0  0  0  0  0  0  0  0  0
    5.4995    1.4485   -0.7264 H   0  0  0  0  0  0  0  0  0  0  0  0
    6.1189    0.3615    0.5725 H   0  0  0  0  0  0  0  0  0  0  0  0
    5.2993    3.8384   -0.4409 H   0  0  0  0  0  0  0  0  0  0  0  0
    6.1361    5.8415    0.7014 H   0  0  0  0  0  0  0  0  0  0  0  0
    7.6377    3.3365    3.8806 H   0  0  0  0  0  0  0  0  0  0  0  0
    6.8073    1.3311    2.7495 H   0  0  0  0  0  0  0  0  0  0  0  0
    7.9076    6.4909    2.5170 H   0  0  0  0  0  0  0  0  0  0  0  0
    3.0280    0.5977    2.5373 H   0  0  0  0  0  0  0  0  0  0  0  0
    4.4115   -0.3326    2.3952 H   0  0  0  0  0  0  0  0  0  0  0  0
    4.4331   -2.0219   -3.4493 H   0  0  0  0  0  0  0  0  0  0  0  0
    4.9078   -2.8821   -1.8673 H   0  0  0  0  0  0  0  0  0  0  0  0
    3.5679   -3.4657   -2.8929 H   0  0  0  0  0  0  0  0  0  0  0  0
  1  2  2  0
  2  3  1  0
  3  4  1  0
  4  5  1  0
  5  6  2  0
  5  7  1  0
  7  8  1  0
  8  9  1  0
  9 10  2  0
 10 11  1  0
 11 12  2  0
 12 13  1  0
 13 14  2  0
 13 15  1  0
 15 16  1  0
 15 17  1  0
 15 18  1  0
 11 19  1  0
 19 20  1  0
 19 21  1  0
 19 22  1  0
  4 23  1  0
 23 24  1  0
 24 25  2  0
 25 26  1  0
 26 27  1  0
 27 28  2  0
 28 29  1  0
 29 30  2  0
 30 31  1  0
 31 32  2  0
  2 33  1  0
 33 34  1  0
 34 35  1  0
 35 36  2  0
 35 37  1  0
 37 38  1  0
 38 39  1  0
 39 40  2  0
 39 41  1  0
 41 42  1  0
 42 43  1  0
 43 44  2  0
 44 45  1  0
 45 46  2  0
 46 47  1  0
 47 48  2  0
 46 49  1  0
 41 50  1  0
 37 51  1  0
 14  9  1  0
 28 24  1  0
 48 43  1  0
 32 27  1  0
  3 52  1  0
  4 53  1  6
  8 54  1  0
  8 55  1  0
 10 56  1  0
 12 57  1  0
 14 58  1  0
 23 59  1  0
 23 60  1  0
 25 61  1  0
 26 62  1  0
 29 63  1  0
 30 64  1  0
 31 65  1  0
 32 66  1  0
 33 67  1  0
 33 68  1  0
 34 69  1  0
 37 70  1  1
 38 71  1  0
 41 72  1  1
 42 73  1  0
 42 74  1  0
 44 75  1  0
 45 76  1  0
 47 77  1  0
 48 78  1  0
 49 79  1  0
 50 80  1  0
 50 81  1  0
 51 82  1  0
 51 83  1  0
 51 84  1  0
M  END
>  <Ligand ID>  (1) 
LIG0005400

>  <Ligand>  (1) 
CHEMBL3609617

>  <SMILES>  (1) 
O=C(N[C@H](C(=O)OCc1cc(cc(c1)C(F)(F)F)C(F)(F)F)Cc1c[nH]c2c1cccc2)CNC(=O)[C@H](NC(=O)[C@H](Cc1ccc(cc1)O)N)C

>  <CID>  (1) 
44176572.0

>  <ChEMBL ID>  (1) 
nan

>  <InChiKey>  (1) 
VUBAEISRKSELTE-OGPKSRJFSA-N

>  <InChi>  (1) 
InChI=1S/C34H33F6N5O6/c1-18(44-31(49)26(41)12-19-6-8-24(46)9-7-19)30(48)43-16-29(47)45-28(13-21-15-42-27-5-3-2-4-25(21)27)32(50)51-17-20-10-22(33(35,36)37)14-23(11-20)34(38,39)40/h2-11,14-15,18,26,28,42,46H,12-13,16-17,41H2,1H3,(H,43,48)(H,44,49)(H,45,47)/t18-,26+,28+/m1/s1

>  <IUPAC Name>  (1) 
[3,5-bis(trifluoromethyl)phenyl]methyl (2S)-2-[[2-[[(2R)-2-[[(2S)-2-amino-3-(4-hydroxyphenyl)propanoyl]amino]propanoyl]amino]acetyl]amino]-3-(1H-indol-3-yl)propanoate

$$$$
