
     RDKit          3D

 56 58  0  0  0  0  0  0  0  0999 V2000
    4.4536   -2.0630   -1.6313 O   0  0  0  0  0  0  0  0  0  0  0  0
    3.4037   -1.2954   -1.0676 C   0  0  0  0  0  0  0  0  0  0  0  0
    3.2047   -0.1086   -1.9424 C   0  0  0  0  0  0  0  0  0  0  0  0
    2.2107    0.7605   -1.5457 O   0  0  0  0  0  0  0  0  0  0  0  0
    0.8889    0.5252   -1.4644 C   0  0  0  0  0  0  0  0  0  0  0  0
    0.2024   -0.6174   -1.7799 C   0  0  0  0  0  0  0  0  0  0  0  0
   -1.1854   -0.7293   -1.6422 C   0  0  0  0  0  0  0  0  0  0  0  0
   -1.9352    0.3213   -1.1768 C   0  0  0  0  0  0  0  0  0  0  0  0
   -1.2612    1.4816   -0.8546 C   0  0  0  0  0  0  0  0  0  0  0  0
    0.0877    1.5861   -0.9895 C   0  0  0  0  0  0  0  0  0  0  0  0
   -2.1164    2.6108   -0.3517 C   0  0  0  0  0  0  0  0  0  0  0  0
   -3.3704    2.6828   -1.1989 C   0  0  0  0  0  0  0  0  0  0  0  0
   -4.1577    1.4010   -1.1684 C   0  0  0  0  0  0  0  0  0  0  0  0
   -3.3418    0.2249   -1.0306 N   0  0  0  0  0  0  0  0  0  0  0  0
   -3.9189   -1.0544   -0.7498 C   0  0  0  0  0  0  0  0  0  0  0  0
   -4.6754   -0.9345    0.5468 C   0  0  0  0  0  0  0  0  0  0  0  0
   -6.0084   -0.5830    0.5300 C   0  0  0  0  0  0  0  0  0  0  0  0
   -6.6995   -0.4719    1.7044 C   0  0  0  0  0  0  0  0  0  0  0  0
   -6.1071   -0.7019    2.9384 C   0  0  0  0  0  0  0  0  0  0  0  0
   -4.7674   -1.0556    2.9632 C   0  0  0  0  0  0  0  0  0  0  0  0
   -4.0726   -1.1660    1.7610 C   0  0  0  0  0  0  0  0  0  0  0  0
    3.8281   -0.9119    0.3390 C   0  0  0  0  0  0  0  0  0  0  0  0
    5.0343   -0.1417    0.3261 N   0  0  0  0  0  0  0  0  0  0  0  0
    5.4331    0.2213    1.6801 C   0  0  0  0  0  0  0  0  0  0  0  0
    5.6598   -1.0450    2.4693 C   0  0  0  0  0  0  0  0  0  0  0  0
    6.7182    1.0072    1.5775 C   0  0  0  0  0  0  0  0  0  0  0  0
    4.3547   -3.0151   -1.3845 H   0  0  0  0  0  0  0  0  0  0  0  0
    2.5481   -1.9506   -0.9930 H   0  0  0  0  0  0  0  0  0  0  0  0
    2.9485   -0.4904   -2.9834 H   0  0  0  0  0  0  0  0  0  0  0  0
    4.1595    0.4497   -2.1205 H   0  0  0  0  0  0  0  0  0  0  0  0
    0.6924   -1.4886   -2.1718 H   0  0  0  0  0  0  0  0  0  0  0  0
   -1.6990   -1.6603   -1.9058 H   0  0  0  0  0  0  0  0  0  0  0  0
    0.5486    2.5293   -0.7164 H   0  0  0  0  0  0  0  0  0  0  0  0
   -1.5868    3.5599   -0.3814 H   0  0  0  0  0  0  0  0  0  0  0  0
   -2.4541    2.4060    0.6907 H   0  0  0  0  0  0  0  0  0  0  0  0
   -4.0426    3.4784   -0.8567 H   0  0  0  0  0  0  0  0  0  0  0  0
   -3.0532    2.9542   -2.2290 H   0  0  0  0  0  0  0  0  0  0  0  0
   -4.9902    1.4256   -0.4554 H   0  0  0  0  0  0  0  0  0  0  0  0
   -4.6479    1.3112   -2.1792 H   0  0  0  0  0  0  0  0  0  0  0  0
   -4.6345   -1.3902   -1.5267 H   0  0  0  0  0  0  0  0  0  0  0  0
   -3.1737   -1.8497   -0.5599 H   0  0  0  0  0  0  0  0  0  0  0  0
   -6.5589   -0.3838   -0.3878 H   0  0  0  0  0  0  0  0  0  0  0  0
   -7.7516   -0.1946    1.6942 H   0  0  0  0  0  0  0  0  0  0  0  0
   -6.6907   -0.6039    3.8613 H   0  0  0  0  0  0  0  0  0  0  0  0
   -4.3148   -1.2322    3.9202 H   0  0  0  0  0  0  0  0  0  0  0  0
   -3.0475   -1.4379    1.8001 H   0  0  0  0  0  0  0  0  0  0  0  0
    3.9749   -1.8049    0.9777 H   0  0  0  0  0  0  0  0  0  0  0  0
    3.0450   -0.2863    0.7937 H   0  0  0  0  0  0  0  0  0  0  0  0
    5.8469   -0.6446   -0.0811 H   0  0  0  0  0  0  0  0  0  0  0  0
    4.6157    0.8276    2.1378 H   0  0  0  0  0  0  0  0  0  0  0  0
    4.8304   -1.2991    3.1528 H   0  0  0  0  0  0  0  0  0  0  0  0
    5.8307   -1.9386    1.8163 H   0  0  0  0  0  0  0  0  0  0  0  0
    6.5701   -0.9478    3.1264 H   0  0  0  0  0  0  0  0  0  0  0  0
    7.6250    0.4120    1.7544 H   0  0  0  0  0  0  0  0  0  0  0  0
    6.7144    1.8534    2.2906 H   0  0  0  0  0  0  0  0  0  0  0  0
    6.8322    1.4679    0.5584 H   0  0  0  0  0  0  0  0  0  0  0  0
  1  2  1  0
  2  3  1  0
  3  4  1  0
  4  5  1  0
  5  6  2  0
  6  7  1  0
  7  8  2  0
  8  9  1  0
  9 10  2  0
  9 11  1  0
 11 12  1  0
 12 13  1  0
 13 14  1  0
 14 15  1  0
 15 16  1  0
 16 17  2  0
 17 18  1  0
 18 19  2  0
 19 20  1  0
 20 21  2  0
  2 22  1  0
 22 23  1  0
 23 24  1  0
 24 25  1  0
 24 26  1  0
 10  5  1  0
 21 16  1  0
 14  8  1  0
  1 27  1  0
  2 28  1  0
  3 29  1  0
  3 30  1  0
  6 31  1  0
  7 32  1  0
 10 33  1  0
 11 34  1  0
 11 35  1  0
 12 36  1  0
 12 37  1  0
 13 38  1  0
 13 39  1  0
 15 40  1  0
 15 41  1  0
 17 42  1  0
 18 43  1  0
 19 44  1  0
 20 45  1  0
 21 46  1  0
 22 47  1  0
 22 48  1  0
 23 49  1  0
 24 50  1  0
 25 51  1  0
 25 52  1  0
 25 53  1  0
 26 54  1  0
 26 55  1  0
 26 56  1  0
M  END
>  <Ligand ID>  (1) 
LIG0003488

>  <Ligand>  (1) 
CHEMBL458541

>  <SMILES>  (1) 
OC(COc1ccc2c(c1)CCCN2Cc1ccccc1)CNC(C)C

>  <CID>  (1) 
44589133.0

>  <ChEMBL ID>  (1) 
nan

>  <InChiKey>  (1) 
JUVWASPQEPNQTK-UHFFFAOYSA-N

>  <InChi>  (1) 
InChI=1S/C22H30N2O2/c1-17(2)23-14-20(25)16-26-21-10-11-22-19(13-21)9-6-12-24(22)15-18-7-4-3-5-8-18/h3-5,7-8,10-11,13,17,20,23,25H,6,9,12,14-16H2,1-2H3

>  <IUPAC Name>  (1) 
1-[(1-benzyl-3,4-dihydro-2H-quinolin-6-yl)oxy]-3-(propan-2-ylamino)propan-2-ol

$$$$
