
     RDKit          2D

136139  0  0  0  0  0  0  0  0999 V2000
   31.9626   23.6548    0.0000 N   0  0  0  0  0  0  0  0  0  0  0  0
   31.4990   22.2282    0.0000 C   0  0  0  0  0  0  0  0  0  0  0  0
   31.0355   20.8017    0.0000 C   0  0  0  0  0  0  0  0  0  0  0  0
   30.5720   19.3751    0.0000 C   0  0  0  0  0  0  0  0  0  0  0  0
   30.1085   17.9485    0.0000 O   0  0  0  0  0  0  0  0  0  0  0  0
   28.6412   17.6366    0.0000 C   0  0  0  0  0  0  0  0  0  0  0  0
   27.1740   17.3248    0.0000 C   0  0  0  0  0  0  0  0  0  0  0  0
   25.7068   17.0129    0.0000 O   0  0  0  0  0  0  0  0  0  0  0  0
   25.2433   15.5863    0.0000 C   0  0  0  0  0  0  0  0  0  0  0  0
   24.7797   14.1597    0.0000 C   0  0  0  0  0  0  0  0  0  0  0  0
   24.3162   12.7331    0.0000 O   0  0  0  0  0  0  0  0  0  0  0  0
   22.8490   12.4213    0.0000 C   0  0  0  0  0  0  0  0  0  0  0  0
   21.3818   12.1094    0.0000 C   0  0  0  0  0  0  0  0  0  0  0  0
   19.9146   11.7975    0.0000 C   0  0  0  0  0  0  0  0  0  0  0  0
   18.4473   11.4857    0.0000 N   0  0  0  0  0  0  0  0  0  0  0  0
   17.4436   12.6004    0.0000 C   0  0  0  0  0  0  0  0  0  0  0  0
   17.9072   14.0270    0.0000 O   0  0  0  0  0  0  0  0  0  0  0  0
   15.9764   12.2885    0.0000 C   0  0  0  0  0  0  0  0  0  0  0  0
   14.5092   11.9766    0.0000 O   0  0  0  0  0  0  0  0  0  0  0  0
   14.0457   10.5501    0.0000 C   0  0  0  0  0  0  0  0  0  0  0  0
   13.5821    9.1235    0.0000 C   0  0  0  0  0  0  0  0  0  0  0  0
   14.5858    8.0088    0.0000 O   0  0  0  0  0  0  0  0  0  0  0  0
   12.1149    8.8116    0.0000 N   0  0  0  0  0  0  0  0  0  0  0  0
   11.6514    7.3850    0.0000 C   0  0  0  0  0  0  0  0  0  0  0  0
   10.2248    7.8485    0.0000 C   0  0  0  0  0  0  0  0  0  0  0  0
   10.0407    8.7149    0.0000 O   0  0  0  0  0  0  0  0  0  0  0  0
    9.1101    6.8449    0.0000 N   0  0  0  0  0  0  0  0  0  0  0  0
    7.6835    7.3084    0.0000 C   0  0  0  0  0  0  0  0  0  0  0  0
    7.2200    5.8818    0.0000 C   0  0  0  0  0  0  0  0  0  0  0  0
    8.0453    5.1644    0.0000 O   0  0  0  0  0  0  0  0  0  0  0  0
    5.7528    5.5699    0.0000 N   0  0  0  0  0  0  0  0  0  0  0  0
    5.2892    4.1433    0.0000 C   0  0  0  0  0  0  0  0  0  0  0  0
    3.8627    4.6069    0.0000 C   0  0  0  0  0  0  0  0  0  0  0  0
    3.7674    5.6962    0.0000 O   0  0  0  0  0  0  0  0  0  0  0  0
    2.7479    3.6032    0.0000 N   0  0  0  0  0  0  0  0  0  0  0  0
    1.3213    4.0667    0.0000 C   0  0  0  0  0  0  0  0  0  0  0  0
    1.7849    5.4933    0.0000 C   0  0  0  0  0  0  0  0  0  0  0  0
    2.8188    5.8493    0.0000 O   0  0  0  0  0  0  0  0  0  0  0  0
    0.7812    6.6080    0.0000 N   0  0  0  0  0  0  0  0  0  0  0  0
    0.8578    2.6401    0.0000 C   0  0  0  0  0  0  0  0  0  0  0  0
    0.3943    1.2135    0.0000 C   0  0  0  0  0  0  0  0  0  0  0  0
    1.2760    0.0000    0.0000 C   0  0  0  0  0  0  0  0  0  0  0  0
    0.3943   -1.2135    0.0000 N   0  0  0  0  0  0  0  0  0  0  0  0
   -1.0323   -0.7500    0.0000 C   0  0  0  0  0  0  0  0  0  0  0  0
   -1.0323    0.7500    0.0000 C   0  0  0  0  0  0  0  0  0  0  0  0
   -2.3313    1.5000    0.0000 C   0  0  0  0  0  0  0  0  0  0  0  0
   -3.6304    0.7500    0.0000 C   0  0  0  0  0  0  0  0  0  0  0  0
   -3.6304   -0.7500    0.0000 C   0  0  0  0  0  0  0  0  0  0  0  0
   -2.3313   -1.5000    0.0000 C   0  0  0  0  0  0  0  0  0  0  0  0
    6.7158    3.6798    0.0000 C   0  0  0  0  0  0  0  0  0  0  0  0
    8.1424    3.2163    0.0000 C   0  0  0  0  0  0  0  0  0  0  0  0
    9.5690    2.7528    0.0000 C   0  0  0  0  0  0  0  0  0  0  0  0
   10.9956    2.2892    0.0000 N   0  0  0  0  0  0  0  0  0  0  0  0
   12.1103    3.2929    0.0000 C   0  0  0  0  0  0  0  0  0  0  0  0
   13.5369    2.8294    0.0000 N   0  0  0  0  0  0  0  0  0  0  0  0
   11.7984    4.7602    0.0000 N   0  0  0  0  0  0  0  0  0  0  0  0
    8.1470    8.7350    0.0000 C   0  0  0  0  0  0  0  0  0  0  0  0
    8.6106   10.1615    0.0000 C   0  0  0  0  0  0  0  0  0  0  0  0
   10.0778   10.4734    0.0000 C   0  0  0  0  0  0  0  0  0  0  0  0
   10.5413   11.9000    0.0000 C   0  0  0  0  0  0  0  0  0  0  0  0
    9.5376   13.0147    0.0000 C   0  0  0  0  0  0  0  0  0  0  0  0
    8.0704   12.7028    0.0000 C   0  0  0  0  0  0  0  0  0  0  0  0
    7.6069   11.2763    0.0000 C   0  0  0  0  0  0  0  0  0  0  0  0
   13.0780    6.9215    0.0000 C   0  0  0  0  0  0  0  0  0  0  0  0
   14.5046    6.4580    0.0000 C   0  0  0  0  0  0  0  0  0  0  0  0
   15.7181    7.3396    0.0000 C   0  0  0  0  0  0  0  0  0  0  0  0
   16.9316    6.4580    0.0000 N   0  0  0  0  0  0  0  0  0  0  0  0
   16.4681    5.0314    0.0000 C   0  0  0  0  0  0  0  0  0  0  0  0
   14.9681    5.0314    0.0000 N   0  0  0  0  0  0  0  0  0  0  0  0
   30.9589   24.7695    0.0000 H   0  0  0  0  0  0  0  0  0  0  0  0
   33.4298   23.9667    0.0000 H   0  0  0  0  0  0  0  0  0  0  0  0
   32.9256   21.7647    0.0000 H   0  0  0  0  0  0  0  0  0  0  0  0
   30.0724   22.6918    0.0000 H   0  0  0  0  0  0  0  0  0  0  0  0
   32.4621   20.3381    0.0000 H   0  0  0  0  0  0  0  0  0  0  0  0
   29.6089   21.2652    0.0000 H   0  0  0  0  0  0  0  0  0  0  0  0
   29.1454   19.8386    0.0000 H   0  0  0  0  0  0  0  0  0  0  0  0
   31.9986   18.9115    0.0000 H   0  0  0  0  0  0  0  0  0  0  0  0
   28.9531   16.1694    0.0000 H   0  0  0  0  0  0  0  0  0  0  0  0
   28.3294   19.1038    0.0000 H   0  0  0  0  0  0  0  0  0  0  0  0
   27.4859   15.8575    0.0000 H   0  0  0  0  0  0  0  0  0  0  0  0
   26.8621   18.7920    0.0000 H   0  0  0  0  0  0  0  0  0  0  0  0
   23.8167   16.0498    0.0000 H   0  0  0  0  0  0  0  0  0  0  0  0
   26.6699   15.1228    0.0000 H   0  0  0  0  0  0  0  0  0  0  0  0
   23.3532   14.6232    0.0000 H   0  0  0  0  0  0  0  0  0  0  0  0
   26.2063   13.6962    0.0000 H   0  0  0  0  0  0  0  0  0  0  0  0
   23.1609   10.9540    0.0000 H   0  0  0  0  0  0  0  0  0  0  0  0
   22.5371   13.8885    0.0000 H   0  0  0  0  0  0  0  0  0  0  0  0
   21.6936   10.6422    0.0000 H   0  0  0  0  0  0  0  0  0  0  0  0
   21.0699   13.5766    0.0000 H   0  0  0  0  0  0  0  0  0  0  0  0
   19.6027   13.2648    0.0000 H   0  0  0  0  0  0  0  0  0  0  0  0
   20.2264   10.3303    0.0000 H   0  0  0  0  0  0  0  0  0  0  0  0
   17.9838   10.0591    0.0000 H   0  0  0  0  0  0  0  0  0  0  0  0
   16.2883   10.8213    0.0000 H   0  0  0  0  0  0  0  0  0  0  0  0
   15.6645   13.7557    0.0000 H   0  0  0  0  0  0  0  0  0  0  0  0
   15.4723   10.0865    0.0000 H   0  0  0  0  0  0  0  0  0  0  0  0
   12.6191   11.0136    0.0000 H   0  0  0  0  0  0  0  0  0  0  0  0
   11.3722    9.4572    0.0000 H   0  0  0  0  0  0  0  0  0  0  0  0
   11.1879    5.9584    0.0000 H   0  0  0  0  0  0  0  0  0  0  0  0
    9.4220    5.3776    0.0000 H   0  0  0  0  0  0  0  0  0  0  0  0
    6.2569    7.7719    0.0000 H   0  0  0  0  0  0  0  0  0  0  0  0
    4.7491    6.6846    0.0000 H   0  0  0  0  0  0  0  0  0  0  0  0
    4.8257    2.7168    0.0000 H   0  0  0  0  0  0  0  0  0  0  0  0
    3.2363    2.1849    0.0000 H   0  0  0  0  0  0  0  0  0  0  0  0
   -0.1052    4.5302    0.0000 H   0  0  0  0  0  0  0  0  0  0  0  0
    1.2447    8.0346    0.0000 H   0  0  0  0  0  0  0  0  0  0  0  0
   -0.6860    6.2961    0.0000 H   0  0  0  0  0  0  0  0  0  0  0  0
    2.2173    2.0061    0.0000 H   0  0  0  0  0  0  0  0  0  0  0  0
   -0.5688    3.1036    0.0000 H   0  0  0  0  0  0  0  0  0  0  0  0
    2.7760    0.0000    0.0000 H   0  0  0  0  0  0  0  0  0  0  0  0
    0.8578   -2.6401    0.0000 H   0  0  0  0  0  0  0  0  0  0  0  0
   -2.3313    3.0000    0.0000 H   0  0  0  0  0  0  0  0  0  0  0  0
   -4.9294    1.5000    0.0000 H   0  0  0  0  0  0  0  0  0  0  0  0
   -4.9294   -1.5000    0.0000 H   0  0  0  0  0  0  0  0  0  0  0  0
   -2.3313   -3.0000    0.0000 H   0  0  0  0  0  0  0  0  0  0  0  0
    6.2523    2.2532    0.0000 H   0  0  0  0  0  0  0  0  0  0  0  0
    7.2953    4.6071    0.0000 H   0  0  0  0  0  0  0  0  0  0  0  0
    7.6789    1.7897    0.0000 H   0  0  0  0  0  0  0  0  0  0  0  0
    8.7764    4.5757    0.0000 H   0  0  0  0  0  0  0  0  0  0  0  0
    9.1055    1.3262    0.0000 H   0  0  0  0  0  0  0  0  0  0  0  0
   10.0325    4.1793    0.0000 H   0  0  0  0  0  0  0  0  0  0  0  0
   14.5209    3.9615    0.0000 H   0  0  0  0  0  0  0  0  0  0  0  0
   13.8487    1.3622    0.0000 H   0  0  0  0  0  0  0  0  0  0  0  0
   13.0272    5.6205    0.0000 H   0  0  0  0  0  0  0  0  0  0  0  0
   10.3718    5.2237    0.0000 H   0  0  0  0  0  0  0  0  0  0  0  0
    9.0306    8.6732    0.0000 H   0  0  0  0  0  0  0  0  0  0  0  0
    6.7204    9.1985    0.0000 H   0  0  0  0  0  0  0  0  0  0  0  0
   10.6422    9.6672    0.0000 H   0  0  0  0  0  0  0  0  0  0  0  0
   12.0085   12.2119    0.0000 H   0  0  0  0  0  0  0  0  0  0  0  0
   10.0011   14.4413    0.0000 H   0  0  0  0  0  0  0  0  0  0  0  0
    7.0667   13.8176    0.0000 H   0  0  0  0  0  0  0  0  0  0  0  0
    6.1396   10.9644    0.0000 H   0  0  0  0  0  0  0  0  0  0  0  0
   12.7918    5.4490    0.0000 H   0  0  0  0  0  0  0  0  0  0  0  0
   13.8729    8.1935    0.0000 H   0  0  0  0  0  0  0  0  0  0  0  0
   15.7181    8.8396    0.0000 H   0  0  0  0  0  0  0  0  0  0  0  0
   17.3498    3.8179    0.0000 H   0  0  0  0  0  0  0  0  0  0  0  0
   13.9451    3.9344    0.0000 H   0  0  0  0  0  0  0  0  0  0  0  0
  1  2  1  0
  2  3  1  0
  3  4  1  0
  4  5  1  0
  5  6  1  0
  6  7  1  0
  7  8  1  0
  8  9  1  0
  9 10  1  0
 10 11  1  0
 11 12  1  0
 12 13  1  0
 13 14  1  0
 14 15  1  0
 15 16  1  0
 16 17  2  0
 16 18  1  0
 18 19  1  0
 19 20  1  0
 20 21  1  0
 21 22  2  0
 21 23  1  0
 23 24  1  0
 24 25  1  0
 25 26  2  0
 25 27  1  0
 27 28  1  0
 28 29  1  0
 29 30  2  0
 29 31  1  0
 31 32  1  0
 32 33  1  0
 33 34  2  0
 33 35  1  0
 35 36  1  0
 36 37  1  0
 37 38  2  0
 37 39  1  0
 36 40  1  0
 40 41  1  0
 41 42  2  0
 42 43  1  0
 43 44  1  0
 44 45  2  0
 45 46  1  0
 46 47  2  0
 47 48  1  0
 48 49  2  0
 32 50  1  0
 50 51  1  0
 51 52  1  0
 52 53  1  0
 53 54  2  3
 54 55  1  0
 54 56  1  0
 28 57  1  0
 57 58  1  0
 58 59  2  0
 59 60  1  0
 60 61  2  0
 61 62  1  0
 62 63  2  0
 24 64  1  0
 64 65  1  0
 65 66  2  0
 66 67  1  0
 67 68  2  0
 68 69  1  0
 45 41  1  0
 63 58  1  0
 69 65  1  0
 49 44  1  0
  1 70  1  0
  1 71  1  0
  2 72  1  0
  2 73  1  0
  3 74  1  0
  3 75  1  0
  4 76  1  0
  4 77  1  0
  6 78  1  0
  6 79  1  0
  7 80  1  0
  7 81  1  0
  9 82  1  0
  9 83  1  0
 10 84  1  0
 10 85  1  0
 12 86  1  0
 12 87  1  0
 13 88  1  0
 13 89  1  0
 14 90  1  0
 14 91  1  0
 15 92  1  0
 18 93  1  0
 18 94  1  0
 20 95  1  0
 20 96  1  0
 23 97  1  0
 24 98  1  6
 27 99  1  0
 28100  1  6
 31101  1  0
 32102  1  6
 35103  1  0
 36104  1  6
 39105  1  0
 39106  1  0
 40107  1  0
 40108  1  0
 42109  1  0
 43110  1  0
 46111  1  0
 47112  1  0
 48113  1  0
 49114  1  0
 50115  1  0
 50116  1  0
 51117  1  0
 51118  1  0
 52119  1  0
 52120  1  0
 55121  1  0
 55122  1  0
 56123  1  0
 56124  1  0
 57125  1  0
 57126  1  0
 59127  1  0
 60128  1  0
 61129  1  0
 62130  1  0
 63131  1  0
 64132  1  0
 64133  1  0
 66134  1  0
 68135  1  0
 69136  1  0
M  END
>  <Ligand ID>  (1) 
LIG0001249

>  <Ligand>  (1) 
CHEMBL3799563

>  <SMILES>  (1) 
NCCCOCCOCCOCCCNC(=O)COCC(=O)N[C@H](C(=O)N[C@@H](C(=O)N[C@H](C(=O)N[C@H](C(=O)N)Cc1c[nH]c2c1cccc2)CCCN=C(N)N)Cc1ccccc1)Cc1cnc[nH]1

>  <CID>  (1) 
127047913.0

>  <ChEMBL ID>  (1) 
nan

>  <InChiKey>  (1) 
AQJDAJIMJIJQME-RUPCYPOASA-N

>  <InChi>  (1) 
InChI=1S/C46H67N13O10/c47-14-7-17-66-19-21-68-22-20-67-18-8-16-52-40(60)28-69-29-41(61)56-39(25-33-27-51-30-55-33)45(65)59-38(23-31-9-2-1-3-10-31)44(64)57-36(13-6-15-53-46(49)50)43(63)58-37(42(48)62)24-32-26-54-35-12-5-4-11-34(32)35/h1-5,9-12,26-27,30,36-39,54H,6-8,13-25,28-29,47H2,(H2,48,62)(H,51,55)(H,52,60)(H,56,61)(H,57,64)(H,58,63)(H,59,65)(H4,49,50,53)/t36-,37-,38+,39-/m0/s1

>  <IUPAC Name>  (1) 
(2S)-N-[(2S)-1-amino-3-(1H-indol-3-yl)-1-oxopropan-2-yl]-2-[[(2R)-2-[[(2S)-2-[[2-[2-[3-[2-[2-(3-aminopropoxy)ethoxy]ethoxy]propylamino]-2-oxoethoxy]acetyl]amino]-3-(1H-imidazol-5-yl)propanoyl]amino]-3-phenylpropanoyl]amino]-5-(diaminomethylideneamino)pentanamide

$$$$
