
     RDKit          3D

 70 68  0  0  0  0  0  0  0  0999 V2000
    5.0155    0.1596    5.0931 C   0  0  0  0  0  0  0  0  0  0  0  0
    6.0846   -0.4821    4.2989 C   0  0  0  0  0  0  0  0  0  0  0  0
    6.6150    0.3659    3.2033 C   0  0  0  0  0  0  0  0  0  0  0  0
    5.7588    0.7574    2.0658 C   0  0  0  0  0  0  0  0  0  0  0  0
    4.5688    1.5517    2.4064 C   0  0  0  0  0  0  0  0  0  0  0  0
    3.7782    1.9624    1.1455 C   0  0  0  0  0  0  0  0  0  0  0  0
    3.3149    0.7610    0.3915 C   0  0  0  0  0  0  0  0  0  0  0  0
    2.5322    1.1243   -0.8559 C   0  0  0  0  0  0  0  0  0  0  0  0
    1.3075    1.9234   -0.5532 C   0  0  0  0  0  0  0  0  0  0  0  0
    0.6021    2.2437   -1.8490 C   0  0  0  0  0  0  0  0  0  0  0  0
    0.1734    1.0299   -2.6244 C   0  0  0  0  0  0  0  0  0  0  0  0
   -0.7810    0.1498   -1.8625 C   0  0  0  0  0  0  0  0  0  0  0  0
   -2.0445    0.8896   -1.4822 C   0  0  0  0  0  0  0  0  0  0  0  0
   -2.7405    1.3634   -2.7197 C   0  0  0  0  0  0  0  0  0  0  0  0
   -3.1678    0.3019   -3.6767 C   0  0  0  0  0  0  0  0  0  0  0  0
   -4.1717   -0.6450   -3.0838 C   0  0  0  0  0  0  0  0  0  0  0  0
   -3.6694   -1.2993   -1.9991 O   0  0  0  0  0  0  0  0  0  0  0  0
   -4.5647   -2.1890   -1.4181 C   0  0  0  0  0  0  0  0  0  0  0  0
   -4.7381   -1.8069    0.0323 C   0  0  0  0  0  0  0  0  0  0  0  0
   -5.2311   -0.5190    0.1599 O   0  0  0  0  0  0  0  0  0  0  0  0
   -5.4704   -0.0356    1.7428 P   0  0  0  0  0  0  0  0  0  0  0  0
   -6.1199   -1.3857    2.6393 S   0  0  0  0  0  0  0  0  0  0  0  0
   -6.6395    1.1891    1.7410 O   0  0  0  0  0  0  0  0  0  0  0  0
   -4.0418    0.4335    2.4777 O   0  0  0  0  0  0  0  0  0  0  0  0
   -3.9569   -3.5582   -1.4877 C   0  0  0  0  0  0  0  0  0  0  0  0
   -2.7461   -3.5699   -0.7943 O   0  0  0  0  0  0  0  0  0  0  0  0
   -2.1553   -4.8381   -0.8410 C   0  0  0  0  0  0  0  0  0  0  0  0
    0.0000    0.0000    0.0000 Na  0  0  0  0  0 15  0  0  0  0  0  0
    4.9840    1.2480    5.0028 H   0  0  0  0  0  0  0  0  0  0  0  0
    5.2334   -0.1223    6.1817 H   0  0  0  0  0  0  0  0  0  0  0  0
    4.0286   -0.2685    4.9250 H   0  0  0  0  0  0  0  0  0  0  0  0
    6.9213   -0.8874    4.9448 H   0  0  0  0  0  0  0  0  0  0  0  0
    5.6694   -1.4448    3.8374 H   0  0  0  0  0  0  0  0  0  0  0  0
    7.5507   -0.1963    2.8296 H   0  0  0  0  0  0  0  0  0  0  0  0
    7.1228    1.2848    3.6690 H   0  0  0  0  0  0  0  0  0  0  0  0
    5.4677   -0.2087    1.5414 H   0  0  0  0  0  0  0  0  0  0  0  0
    6.4288    1.3407    1.3450 H   0  0  0  0  0  0  0  0  0  0  0  0
    4.8425    2.4473    2.9791 H   0  0  0  0  0  0  0  0  0  0  0  0
    3.8644    0.9485    3.0273 H   0  0  0  0  0  0  0  0  0  0  0  0
    2.8947    2.5303    1.4952 H   0  0  0  0  0  0  0  0  0  0  0  0
    4.4273    2.6317    0.5811 H   0  0  0  0  0  0  0  0  0  0  0  0
    2.7135    0.1142    1.0304 H   0  0  0  0  0  0  0  0  0  0  0  0
    4.2326    0.2321   -0.0018 H   0  0  0  0  0  0  0  0  0  0  0  0
    2.1692    0.1337   -1.2553 H   0  0  0  0  0  0  0  0  0  0  0  0
    3.1413    1.5902   -1.6298 H   0  0  0  0  0  0  0  0  0  0  0  0
    0.5942    1.3701    0.0894 H   0  0  0  0  0  0  0  0  0  0  0  0
    1.5326    2.9012   -0.0765 H   0  0  0  0  0  0  0  0  0  0  0  0
   -0.2205    2.9644   -1.7170 H   0  0  0  0  0  0  0  0  0  0  0  0
    1.3751    2.7684   -2.4794 H   0  0  0  0  0  0  0  0  0  0  0  0
    1.0309    0.3869   -2.9122 H   0  0  0  0  0  0  0  0  0  0  0  0
   -0.2924    1.3451   -3.5698 H   0  0  0  0  0  0  0  0  0  0  0  0
   -1.0694   -0.7461   -2.4356 H   0  0  0  0  0  0  0  0  0  0  0  0
   -0.2742   -0.1651   -0.9222 H   0  0  0  0  0  0  0  0  0  0  0  0
   -2.6442    0.3079   -0.7855 H   0  0  0  0  0  0  0  0  0  0  0  0
   -1.7351    1.8180   -0.9119 H   0  0  0  0  0  0  0  0  0  0  0  0
   -3.6974    1.9080   -2.4319 H   0  0  0  0  0  0  0  0  0  0  0  0
   -2.1335    2.1114   -3.2787 H   0  0  0  0  0  0  0  0  0  0  0  0
   -3.6049    0.8487   -4.5637 H   0  0  0  0  0  0  0  0  0  0  0  0
   -2.2782   -0.2876   -4.0151 H   0  0  0  0  0  0  0  0  0  0  0  0
   -5.0276    0.0088   -2.7360 H   0  0  0  0  0  0  0  0  0  0  0  0
   -4.6006   -1.3288   -3.8513 H   0  0  0  0  0  0  0  0  0  0  0  0
   -5.5350   -2.1919   -1.9640 H   0  0  0  0  0  0  0  0  0  0  0  0
   -3.7059   -1.8290    0.4825 H   0  0  0  0  0  0  0  0  0  0  0  0
   -5.3202   -2.5673    0.5763 H   0  0  0  0  0  0  0  0  0  0  0  0
   -7.2715    1.0019    0.9996 H   0  0  0  0  0  0  0  0  0  0  0  0
   -4.6303   -4.3468   -1.0937 H   0  0  0  0  0  0  0  0  0  0  0  0
   -3.7254   -3.8237   -2.5353 H   0  0  0  0  0  0  0  0  0  0  0  0
   -2.8314   -5.5703   -0.3842 H   0  0  0  0  0  0  0  0  0  0  0  0
   -1.2156   -4.7713   -0.2485 H   0  0  0  0  0  0  0  0  0  0  0  0
   -1.9239   -5.1352   -1.8882 H   0  0  0  0  0  0  0  0  0  0  0  0
  1  2  1  0
  2  3  1  0
  3  4  1  0
  4  5  1  0
  5  6  1  0
  6  7  1  0
  7  8  1  0
  8  9  1  0
  9 10  1  0
 10 11  1  0
 11 12  1  0
 12 13  1  0
 13 14  1  0
 14 15  1  0
 15 16  1  0
 16 17  1  0
 17 18  1  0
 18 19  1  0
 19 20  1  0
 20 21  1  0
 21 22  2  0
 21 23  1  0
 21 24  1  0
 18 25  1  0
 25 26  1  0
 26 27  1  0
  1 29  1  0
  1 30  1  0
  1 31  1  0
  2 32  1  0
  2 33  1  0
  3 34  1  0
  3 35  1  0
  4 36  1  0
  4 37  1  0
  5 38  1  0
  5 39  1  0
  6 40  1  0
  6 41  1  0
  7 42  1  0
  7 43  1  0
  8 44  1  0
  8 45  1  0
  9 46  1  0
  9 47  1  0
 10 48  1  0
 10 49  1  0
 11 50  1  0
 11 51  1  0
 12 52  1  0
 12 53  1  0
 13 54  1  0
 13 55  1  0
 14 56  1  0
 14 57  1  0
 15 58  1  0
 15 59  1  0
 16 60  1  0
 16 61  1  0
 18 62  1  0
 19 63  1  0
 19 64  1  0
 23 65  1  0
 25 66  1  0
 25 67  1  0
 27 68  1  0
 27 69  1  0
 27 70  1  0
M  CHG  2  24  -1  28   1
M  END
>  <Ligand ID>  (1) 
LIG0000705

>  <Ligand>  (1) 
CHEMBL2335049

>  <SMILES>  (1) 
CCCCCCCCCCCCCCCCOC(COP(=S)(O)[O-])COC.[Na+]

>  <CID>  (1) 
71569053.0

>  <ChEMBL ID>  (1) 
nan

>  <InChiKey>  (1) 
QZHWXBYUIWJGDD-UHFFFAOYSA-M

>  <InChi>  (1) 
InChI=1S/C20H43O5PS.Na/c1-3-4-5-6-7-8-9-10-11-12-13-14-15-16-17-24-20(18-23-2)19-25-26(21,22)27;/h20H,3-19H2,1-2H3,(H2,21,22,27);/q;+1/p-1

>  <IUPAC Name>  (1) 
sodium;(2-hexadecoxy-3-methoxypropoxy)-hydroxy-oxido-sulfanylidene-lambda5-phosphane

$$$$
