
     RDKit          3D

 53 57  0  0  0  0  0  0  0  0999 V2000
   -6.1148   -1.7126    1.9476 C   0  0  0  0  0  0  0  0  0  0  0  0
   -5.2850   -0.5107    2.3631 C   0  0  0  0  0  0  0  0  0  0  0  0
   -4.7184    0.1212    1.1829 N   0  0  0  0  0  0  0  0  0  0  0  0
   -3.5349   -0.1709    0.6264 C   0  0  0  0  0  0  0  0  0  0  0  0
   -2.5184   -1.0583    0.9020 C   0  0  0  0  0  0  0  0  0  0  0  0
   -1.3750   -1.1110    0.0927 C   0  0  0  0  0  0  0  0  0  0  0  0
   -1.2025   -0.3032   -0.9953 C   0  0  0  0  0  0  0  0  0  0  0  0
   -2.2431    0.5915   -1.2612 C   0  0  0  0  0  0  0  0  0  0  0  0
   -3.3606    0.6465   -0.4742 C   0  0  0  0  0  0  0  0  0  0  0  0
   -4.4898    1.4326   -0.5441 C   0  0  0  0  0  0  0  0  0  0  0  0
   -5.3342    1.1042    0.4886 C   0  0  0  0  0  0  0  0  0  0  0  0
   -6.5486    1.7730    0.6227 C   0  0  0  0  0  0  0  0  0  0  0  0
   -6.9136    2.7711   -0.2808 C   0  0  0  0  0  0  0  0  0  0  0  0
   -6.0574    3.0891   -1.3101 C   0  0  0  0  0  0  0  0  0  0  0  0
   -4.8646    2.4203   -1.4277 C   0  0  0  0  0  0  0  0  0  0  0  0
   -0.0904   -0.2923   -1.8561 N   0  0  0  0  0  0  0  0  0  0  0  0
    1.0505   -1.1059   -1.7627 C   0  0  0  0  0  0  0  0  0  0  0  0
    1.1973   -1.9526   -0.8722 O   0  0  0  0  0  0  0  0  0  0  0  0
    2.1531   -0.9690   -2.7655 C   0  0  0  0  0  0  0  0  0  0  0  0
    3.2907   -1.8993   -2.5106 C   0  0  0  0  0  0  0  0  0  0  0  0
    3.9281   -1.6873   -1.1860 C   0  0  0  0  0  0  0  0  0  0  0  0
    3.6648   -2.2238   -0.0243 O   0  0  0  0  0  0  0  0  0  0  0  0
    4.4587   -1.7689    0.8990 N   0  0  0  0  0  0  0  0  0  0  0  0
    5.3127   -0.8707    0.3360 C   0  0  0  0  0  0  0  0  0  0  0  0
    4.9550   -0.8439   -0.9616 N   0  0  0  0  0  0  0  0  0  0  0  0
    6.3751   -0.1068    0.9816 C   0  0  0  0  0  0  0  0  0  0  0  0
    7.6651   -0.3242    0.4983 C   0  0  0  0  0  0  0  0  0  0  0  0
    8.7513    0.3545    1.0451 C   0  0  0  0  0  0  0  0  0  0  0  0
    8.4898    1.2391    2.0734 C   0  0  0  0  0  0  0  0  0  0  0  0
    7.2161    1.4626    2.5604 C   0  0  0  0  0  0  0  0  0  0  0  0
    6.1325    0.7852    2.0145 C   0  0  0  0  0  0  0  0  0  0  0  0
    9.5811    1.8915    2.5901 F   0  0  0  0  0  0  0  0  0  0  0  0
   -7.1785   -1.4815    2.1012 H   0  0  0  0  0  0  0  0  0  0  0  0
   -5.8932   -1.9393    0.8729 H   0  0  0  0  0  0  0  0  0  0  0  0
   -5.8789   -2.6178    2.5440 H   0  0  0  0  0  0  0  0  0  0  0  0
   -4.4750   -0.8673    3.0300 H   0  0  0  0  0  0  0  0  0  0  0  0
   -5.9073    0.2400    2.9010 H   0  0  0  0  0  0  0  0  0  0  0  0
   -2.6322   -1.7082    1.7583 H   0  0  0  0  0  0  0  0  0  0  0  0
   -0.6419   -1.8200    0.3732 H   0  0  0  0  0  0  0  0  0  0  0  0
   -2.1944    1.2788   -2.1122 H   0  0  0  0  0  0  0  0  0  0  0  0
   -7.2209    1.5154    1.4403 H   0  0  0  0  0  0  0  0  0  0  0  0
   -7.8743    3.2588   -0.1257 H   0  0  0  0  0  0  0  0  0  0  0  0
   -6.3729    3.8714   -1.9958 H   0  0  0  0  0  0  0  0  0  0  0  0
   -4.2163    2.7056   -2.2599 H   0  0  0  0  0  0  0  0  0  0  0  0
   -0.0976    0.3972   -2.6669 H   0  0  0  0  0  0  0  0  0  0  0  0
    1.6968   -1.2768   -3.7354 H   0  0  0  0  0  0  0  0  0  0  0  0
    2.5124    0.0718   -2.8392 H   0  0  0  0  0  0  0  0  0  0  0  0
    2.9728   -2.9557   -2.6243 H   0  0  0  0  0  0  0  0  0  0  0  0
    4.0536   -1.7008   -3.2912 H   0  0  0  0  0  0  0  0  0  0  0  0
    7.8457   -1.0296   -0.3165 H   0  0  0  0  0  0  0  0  0  0  0  0
    9.7466    0.1782    0.6626 H   0  0  0  0  0  0  0  0  0  0  0  0
    7.0628    2.1773    3.3803 H   0  0  0  0  0  0  0  0  0  0  0  0
    5.1222    0.9313    2.3664 H   0  0  0  0  0  0  0  0  0  0  0  0
  1  2  1  0
  2  3  1  0
  3  4  1  0
  4  5  2  0
  5  6  1  0
  6  7  2  0
  7  8  1  0
  8  9  2  0
  9 10  1  0
 10 11  2  0
 11 12  1  0
 12 13  2  0
 13 14  1  0
 14 15  2  0
  7 16  1  0
 16 17  1  0
 17 18  2  0
 17 19  1  0
 19 20  1  0
 20 21  1  0
 21 22  1  0
 22 23  1  0
 23 24  2  0
 24 25  1  0
 24 26  1  0
 26 27  2  0
 27 28  1  0
 28 29  2  0
 29 30  1  0
 30 31  2  0
 29 32  1  0
 11  3  1  0
 25 21  2  0
 31 26  1  0
  9  4  1  0
 15 10  1  0
  1 33  1  0
  1 34  1  0
  1 35  1  0
  2 36  1  0
  2 37  1  0
  5 38  1  0
  6 39  1  0
  8 40  1  0
 12 41  1  0
 13 42  1  0
 14 43  1  0
 15 44  1  0
 16 45  1  0
 19 46  1  0
 19 47  1  0
 20 48  1  0
 20 49  1  0
 27 50  1  0
 28 51  1  0
 30 52  1  0
 31 53  1  0
M  END
>  <Ligand ID>  (1) 
LIG0001915

>  <Ligand>  (1) 
CHEMBL499628

>  <SMILES>  (1) 
CCn1c2ccc(cc2c2c1cccc2)NC(=O)CCc1onc(n1)c1ccc(cc1)F

>  <CID>  (1) 
25034137.0

>  <ChEMBL ID>  (1) 
nan

>  <InChiKey>  (1) 
LWGMCCRZWULJJR-UHFFFAOYSA-N

>  <InChi>  (1) 
InChI=1S/C25H21FN4O2/c1-2-30-21-6-4-3-5-19(21)20-15-18(11-12-22(20)30)27-23(31)13-14-24-28-25(29-32-24)16-7-9-17(26)10-8-16/h3-12,15H,2,13-14H2,1H3,(H,27,31)

>  <IUPAC Name>  (1) 
N-(9-ethylcarbazol-3-yl)-3-[3-(4-fluorophenyl)-1,2,4-oxadiazol-5-yl]propanamide

$$$$
