
     RDKit          3D

 44 46  0  0  0  0  0  0  0  0999 V2000
   -6.5235    0.8109   -0.1201 C   0  0  0  0  0  0  0  0  0  0  0  0
   -5.4404    0.6390    0.8322 N   0  0  0  0  0  0  0  0  0  0  0  0
   -4.0954    0.4999    0.3980 C   0  0  0  0  0  0  0  0  0  0  0  0
   -3.7816    0.5229   -0.9099 N   0  0  0  0  0  0  0  0  0  0  0  0
   -2.5032    0.3898   -1.3028 C   0  0  0  0  0  0  0  0  0  0  0  0
   -1.4800    0.2294   -0.4479 N   0  0  0  0  0  0  0  0  0  0  0  0
   -1.7397    0.1994    0.8742 C   0  0  0  0  0  0  0  0  0  0  0  0
   -3.0497    0.3353    1.2882 C   0  0  0  0  0  0  0  0  0  0  0  0
   -3.0692    0.2757    2.6334 N   0  0  0  0  0  0  0  0  0  0  0  0
   -1.8036    0.1063    3.0625 C   0  0  0  0  0  0  0  0  0  0  0  0
   -0.9682    0.0570    1.9851 N   0  0  0  0  0  0  0  0  0  0  0  0
    0.4740   -0.1148    2.0111 C   0  0  1  0  0  0  0  0  0  0  0  0
    0.8570   -1.5295    1.6932 C   0  0  0  0  0  0  0  0  0  0  0  0
    1.7464   -1.4075    0.4846 C   0  0  1  0  0  0  0  0  0  0  0  0
    2.1453    0.0408    0.5260 C   0  0  2  0  0  0  0  0  0  0  0  0
    1.1496    0.7406    1.1693 O   0  0  0  0  0  0  0  0  0  0  0  0
    2.3301    0.6502   -0.8481 C   0  0  0  0  0  0  0  0  0  0  0  0
    2.6863    1.9804   -0.6516 O   0  0  0  0  0  0  0  0  0  0  0  0
    2.9265    2.7917   -2.1151 P   0  0  0  0  0  0  0  0  0  0  0  0
    2.5906    1.9098   -3.2854 O   0  0  0  0  0  0  0  0  0  0  0  0
    4.5562    3.2264   -2.2283 O   0  0  0  0  0  0  0  0  0  0  0  0
    2.0174    4.2251   -2.1903 O   0  0  0  0  0  0  0  0  0  0  0  0
    2.8272   -2.2545    0.4746 O   0  0  0  0  0  0  0  0  0  0  0  0
    2.9477   -3.1638   -0.9375 P   0  0  0  0  0  0  0  0  0  0  0  0
    1.6590   -3.2358   -1.7123 O   0  0  0  0  0  0  0  0  0  0  0  0
    3.5487   -4.6892   -0.5242 O   0  0  0  0  0  0  0  0  0  0  0  0
    4.0919   -2.4601   -1.9975 O   0  0  0  0  0  0  0  0  0  0  0  0
   -6.5214    1.8791   -0.4539 H   0  0  0  0  0  0  0  0  0  0  0  0
   -7.4605    0.5264    0.4038 H   0  0  0  0  0  0  0  0  0  0  0  0
   -6.3583    0.1231   -0.9754 H   0  0  0  0  0  0  0  0  0  0  0  0
   -5.6269    0.6134    1.8659 H   0  0  0  0  0  0  0  0  0  0  0  0
   -2.3254    0.4182   -2.3777 H   0  0  0  0  0  0  0  0  0  0  0  0
   -1.5188    0.0244    4.1113 H   0  0  0  0  0  0  0  0  0  0  0  0
    0.8074    0.1517    3.0488 H   0  0  0  0  0  0  0  0  0  0  0  0
   -0.0699   -2.1059    1.5077 H   0  0  0  0  0  0  0  0  0  0  0  0
    1.4797   -1.9349    2.5173 H   0  0  0  0  0  0  0  0  0  0  0  0
    1.2069   -1.5472   -0.4840 H   0  0  0  0  0  0  0  0  0  0  0  0
    3.1222    0.1171    1.0389 H   0  0  0  0  0  0  0  0  0  0  0  0
    1.3328    0.6941   -1.3759 H   0  0  0  0  0  0  0  0  0  0  0  0
    3.0589    0.0734   -1.4439 H   0  0  0  0  0  0  0  0  0  0  0  0
    5.0053    3.2423   -1.3396 H   0  0  0  0  0  0  0  0  0  0  0  0
    2.4643    4.9669   -1.7411 H   0  0  0  0  0  0  0  0  0  0  0  0
    3.2558   -4.9973    0.3666 H   0  0  0  0  0  0  0  0  0  0  0  0
    4.0480   -3.0199   -2.8309 H   0  0  0  0  0  0  0  0  0  0  0  0
  1  2  1  0
  2  3  1  0
  3  4  2  0
  4  5  1  0
  5  6  2  0
  6  7  1  0
  7  8  2  0
  8  9  1  0
  9 10  2  0
 10 11  1  0
 11 12  1  0
 12 13  1  0
 13 14  1  0
 14 15  1  0
 15 16  1  0
 15 17  1  0
 17 18  1  0
 18 19  1  0
 19 20  2  0
 19 21  1  0
 19 22  1  0
 14 23  1  0
 23 24  1  0
 24 25  2  0
 24 26  1  0
 24 27  1  0
  8  3  1  0
 16 12  1  0
 11  7  1  0
  1 28  1  0
  1 29  1  0
  1 30  1  0
  2 31  1  0
  5 32  1  0
 10 33  1  0
 12 34  1  1
 13 35  1  0
 13 36  1  0
 14 37  1  6
 15 38  1  1
 17 39  1  0
 17 40  1  0
 21 41  1  0
 22 42  1  0
 26 43  1  0
 27 44  1  0
M  END
>  <Ligand ID>  (1) 
LIG0001989

>  <Ligand>  (1) 
CHEMBL129841

>  <SMILES>  (1) 
CNc1ncnc2c1ncn2[C@H]1C[C@@H]([C@H](O1)COP(=O)(O)O)OP(=O)(O)O

>  <CID>  (1) 
5311303.0

>  <ChEMBL ID>  (1) 
nan

>  <InChiKey>  (1) 
CCPLITQNIFLYQB-XLPZGREQSA-N

>  <InChi>  (1) 
InChI=1S/C11H17N5O9P2/c1-12-10-9-11(14-4-13-10)16(5-15-9)8-2-6(25-27(20,21)22)7(24-8)3-23-26(17,18)19/h4-8H,2-3H2,1H3,(H,12,13,14)(H2,17,18,19)(H2,20,21,22)/t6-,7+,8+/m0/s1

>  <IUPAC Name>  (1) 
[(2R,3S,5R)-5-[6-(methylamino)purin-9-yl]-2-(phosphonooxymethyl)oxolan-3-yl] dihydrogen phosphate

$$$$
