
     RDKit          3D

 50 50  0  0  0  0  0  0  0  0999 V2000
    1.3420   -3.3111    1.6503 O   0  0  0  0  0  0  0  0  0  0  0  0
    0.9020   -2.9946    0.5655 C   0  0  0  0  0  0  0  0  0  0  0  0
    1.7319   -2.2635   -0.4665 C   0  0  0  0  0  0  0  0  0  0  0  0
    2.8333   -1.6367    0.3453 C   0  0  0  0  0  0  0  0  0  0  0  0
    3.8644   -0.8822   -0.3377 C   0  0  0  0  0  0  0  0  0  0  0  0
    3.6414    0.2458   -1.2224 C   0  0  0  0  0  0  0  0  0  0  0  0
    2.9745    1.4827   -0.7687 C   0  0  0  0  0  0  0  0  0  0  0  0
    1.4875    1.4015   -0.5292 C   0  0  0  0  0  0  0  0  0  0  0  0
    0.9638    2.7786   -0.1622 C   0  0  0  0  0  0  0  0  0  0  0  0
   -0.5108    2.8233   -0.0718 C   0  0  0  0  0  0  0  0  0  0  0  0
   -1.0947    1.9489    0.9807 C   0  0  0  0  0  0  0  0  0  0  0  0
   -2.6224    2.0759    1.0337 C   0  0  0  0  0  0  0  0  0  0  0  0
   -3.2415    1.7026   -0.3017 C   0  0  0  0  0  0  0  0  0  0  0  0
   -2.8731    0.2821   -0.6772 C   0  0  0  0  0  0  0  0  0  0  0  0
   -3.3950   -0.7401    0.2373 C   0  0  0  0  0  0  0  0  0  0  0  0
   -2.7523   -2.1208   -0.0453 C   0  0  0  0  0  0  0  0  0  0  0  0
   -1.3094   -2.0085    0.3154 C   0  0  0  0  0  0  0  0  0  0  0  0
   -0.5134   -3.2826    0.1375 C   0  0  0  0  0  0  0  0  0  0  0  0
    2.0989   -3.0472   -1.1612 H   0  0  0  0  0  0  0  0  0  0  0  0
    1.0645   -1.5430   -0.9332 H   0  0  0  0  0  0  0  0  0  0  0  0
    3.3483   -2.5421    0.8310 H   0  0  0  0  0  0  0  0  0  0  0  0
    2.3588   -1.1541    1.2329 H   0  0  0  0  0  0  0  0  0  0  0  0
    4.5562   -0.4932    0.5007 H   0  0  0  0  0  0  0  0  0  0  0  0
    4.6087   -1.6069   -0.8417 H   0  0  0  0  0  0  0  0  0  0  0  0
    4.6711    0.5987   -1.6122 H   0  0  0  0  0  0  0  0  0  0  0  0
    3.1693   -0.0403   -2.2167 H   0  0  0  0  0  0  0  0  0  0  0  0
    3.4025    1.8223    0.2338 H   0  0  0  0  0  0  0  0  0  0  0  0
    3.2044    2.3637   -1.4313 H   0  0  0  0  0  0  0  0  0  0  0  0
    1.0379    1.1745   -1.5282 H   0  0  0  0  0  0  0  0  0  0  0  0
    1.2882    0.6575    0.2341 H   0  0  0  0  0  0  0  0  0  0  0  0
    1.3507    3.4622   -0.9600 H   0  0  0  0  0  0  0  0  0  0  0  0
    1.4339    3.1480    0.7763 H   0  0  0  0  0  0  0  0  0  0  0  0
   -0.8573    3.8950    0.0383 H   0  0  0  0  0  0  0  0  0  0  0  0
   -0.8959    2.5061   -1.0920 H   0  0  0  0  0  0  0  0  0  0  0  0
   -0.7531    2.3713    1.9692 H   0  0  0  0  0  0  0  0  0  0  0  0
   -0.7689    0.9192    0.8342 H   0  0  0  0  0  0  0  0  0  0  0  0
   -2.8307    3.1532    1.1867 H   0  0  0  0  0  0  0  0  0  0  0  0
   -3.0595    1.5377    1.8875 H   0  0  0  0  0  0  0  0  0  0  0  0
   -4.3377    1.7492   -0.1901 H   0  0  0  0  0  0  0  0  0  0  0  0
   -2.9296    2.4462   -1.0351 H   0  0  0  0  0  0  0  0  0  0  0  0
   -1.7914    0.2781   -0.8303 H   0  0  0  0  0  0  0  0  0  0  0  0
   -3.3003    0.0601   -1.7046 H   0  0  0  0  0  0  0  0  0  0  0  0
   -3.2543   -0.5427    1.3123 H   0  0  0  0  0  0  0  0  0  0  0  0
   -4.4940   -0.8805    0.1094 H   0  0  0  0  0  0  0  0  0  0  0  0
   -2.8613   -2.3216   -1.1297 H   0  0  0  0  0  0  0  0  0  0  0  0
   -3.2931   -2.9195    0.4878 H   0  0  0  0  0  0  0  0  0  0  0  0
   -0.8643   -1.1820   -0.2537 H   0  0  0  0  0  0  0  0  0  0  0  0
   -1.2381   -1.6643    1.3932 H   0  0  0  0  0  0  0  0  0  0  0  0
   -0.5803   -3.6852   -0.8774 H   0  0  0  0  0  0  0  0  0  0  0  0
   -0.9117   -4.0215    0.8449 H   0  0  0  0  0  0  0  0  0  0  0  0
  1  2  2  0
  2  3  1  0
  3  4  1  0
  4  5  1  0
  5  6  1  0
  6  7  1  0
  7  8  1  0
  8  9  1  0
  9 10  1  0
 10 11  1  0
 11 12  1  0
 12 13  1  0
 13 14  1  0
 14 15  1  0
 15 16  1  0
 16 17  1  0
 17 18  1  0
 18  2  1  0
  3 19  1  0
  3 20  1  0
  4 21  1  0
  4 22  1  0
  5 23  1  0
  5 24  1  0
  6 25  1  0
  6 26  1  0
  7 27  1  0
  7 28  1  0
  8 29  1  0
  8 30  1  0
  9 31  1  0
  9 32  1  0
 10 33  1  0
 10 34  1  0
 11 35  1  0
 11 36  1  0
 12 37  1  0
 12 38  1  0
 13 39  1  0
 13 40  1  0
 14 41  1  0
 14 42  1  0
 15 43  1  0
 15 44  1  0
 16 45  1  0
 16 46  1  0
 17 47  1  0
 17 48  1  0
 18 49  1  0
 18 50  1  0
M  END
>  <Ligand ID>  (1) 
LIG0002096

>  <Ligand>  (1) 
cycloheptadecanone

>  <SMILES>  (1) 
O=C1CCCCCCCCCCCCCCCC1

>  <CID>  (1) 
77226.0

>  <ChEMBL ID>  (1) 
nan

>  <InChiKey>  (1) 
KBQDZEMXPBDNGH-UHFFFAOYSA-N

>  <InChi>  (1) 
InChI=1S/C17H32O/c18-17-15-13-11-9-7-5-3-1-2-4-6-8-10-12-14-16-17/h1-16H2

>  <IUPAC Name>  (1) 
cycloheptadecanone

$$$$
