
     RDKit          3D

 27 26  0  0  0  0  0  0  0  0999 V2000
   -3.4213    1.8826   -0.5025 C   0  0  0  0  0  0  0  0  0  0  0  0
   -2.3627    1.0187    0.1685 C   0  0  0  0  0  0  0  0  0  0  0  0
   -2.3752   -0.3604   -0.4304 C   0  0  0  0  0  0  0  0  0  0  0  0
   -1.3382   -1.2621    0.2038 C   0  0  0  0  0  0  0  0  0  0  0  0
    0.0504   -0.6797    0.0052 C   0  0  0  0  0  0  0  0  0  0  0  0
    1.0784   -1.5839    0.6394 C   0  0  0  0  0  0  0  0  0  0  0  0
    2.4557   -1.0691    0.4795 C   0  0  0  0  0  0  0  0  0  0  0  0
    2.7661    0.0412   -0.1382 C   0  0  0  0  0  0  0  0  0  0  0  0
    4.1675    0.4475   -0.2322 C   0  0  0  0  0  0  0  0  0  0  0  0
    5.0509   -0.2770    0.2822 O   0  0  0  0  0  0  0  0  0  0  0  0
    4.5312    1.6108   -0.8754 O   0  0  0  0  0  0  0  0  0  0  0  0
   -2.9836    2.3108   -1.4182 H   0  0  0  0  0  0  0  0  0  0  0  0
   -3.7934    2.6372    0.2192 H   0  0  0  0  0  0  0  0  0  0  0  0
   -4.2439    1.2125   -0.8166 H   0  0  0  0  0  0  0  0  0  0  0  0
   -2.6225    0.9120    1.2358 H   0  0  0  0  0  0  0  0  0  0  0  0
   -1.4119    1.5513    0.0087 H   0  0  0  0  0  0  0  0  0  0  0  0
   -2.1438   -0.2926   -1.5034 H   0  0  0  0  0  0  0  0  0  0  0  0
   -3.3557   -0.8295   -0.2125 H   0  0  0  0  0  0  0  0  0  0  0  0
   -1.5244   -1.3977    1.2964 H   0  0  0  0  0  0  0  0  0  0  0  0
   -1.3909   -2.2569   -0.2804 H   0  0  0  0  0  0  0  0  0  0  0  0
    0.0743    0.2773    0.5790 H   0  0  0  0  0  0  0  0  0  0  0  0
    0.1765   -0.5596   -1.0656 H   0  0  0  0  0  0  0  0  0  0  0  0
    1.0094   -2.5635    0.1299 H   0  0  0  0  0  0  0  0  0  0  0  0
    0.8932   -1.7553    1.7110 H   0  0  0  0  0  0  0  0  0  0  0  0
    3.2528   -1.6619    0.9080 H   0  0  0  0  0  0  0  0  0  0  0  0
    1.9796    0.6427   -0.5707 H   0  0  0  0  0  0  0  0  0  0  0  0
    5.4815    2.0045   -0.8264 H   0  0  0  0  0  0  0  0  0  0  0  0
  1  2  1  0
  2  3  1  0
  3  4  1  0
  4  5  1  0
  5  6  1  0
  6  7  1  0
  7  8  2  0
  8  9  1  0
  9 10  2  0
  9 11  1  0
  1 12  1  0
  1 13  1  0
  1 14  1  0
  2 15  1  0
  2 16  1  0
  3 17  1  0
  3 18  1  0
  4 19  1  0
  4 20  1  0
  5 21  1  0
  5 22  1  0
  6 23  1  0
  6 24  1  0
  7 25  1  0
  8 26  1  0
 11 27  1  0
M  END
>  <Ligand ID>  (1) 
LIG0000377

>  <Ligand>  (1) 
2-Nonenoic acid

>  <SMILES>  (1) 
CCCCCC/C=C/C(=O)O

>  <CID>  (1) 
5312586.0

>  <ChEMBL ID>  (1) 
nan

>  <InChiKey>  (1) 
ADLXTJMPCFOTOO-BQYQJAHWSA-N

>  <InChi>  (1) 
InChI=1S/C9H16O2/c1-2-3-4-5-6-7-8-9(10)11/h7-8H,2-6H2,1H3,(H,10,11)/b8-7+

>  <IUPAC Name>  (1) 
(E)-non-2-enoic acid

$$$$
