
     RDKit          3D

 64 65  0  0  0  0  0  0  0  0999 V2000
    2.6976   -1.3133    1.0887 O   0  0  0  0  0  0  0  0  0  0  0  0
    2.0896   -1.2619   -0.0009 C   0  0  0  0  0  0  0  0  0  0  0  0
    2.8468   -0.7911   -1.1370 N   0  0  0  0  0  0  0  0  0  0  0  0
    4.2221   -0.4069   -0.9930 C   0  0  0  0  0  0  0  0  0  0  0  0
    4.7281   -0.5126    0.1648 N   0  0  0  0  0  0  0  0  0  0  0  0
    6.0923   -0.1721    0.4822 C   0  0  0  0  0  0  0  0  0  0  0  0
    7.0617   -1.0000   -0.2969 C   0  0  0  0  0  0  0  0  0  0  0  0
    8.4986   -0.7089   -0.0442 C   0  0  0  0  0  0  0  0  0  0  0  0
    8.9738    0.6256   -0.4063 C   0  0  0  0  0  0  0  0  0  0  0  0
    8.3909    1.6886   -0.9725 N   0  0  0  0  0  0  0  0  0  0  0  0
    9.2441    2.7204   -1.0840 C   0  0  0  0  0  0  0  0  0  0  0  0
   10.4112    2.2960   -0.5703 N   0  0  0  0  0  0  0  0  0  0  0  0
   10.2924    1.0317   -0.1479 C   0  0  0  0  0  0  0  0  0  0  0  0
    4.8793    0.0613   -2.1579 N   0  0  0  0  0  0  0  0  0  0  0  0
    0.6809   -1.6328   -0.2233 C   0  0  0  0  0  0  0  0  0  0  0  0
   -0.0245   -1.9495    1.0505 C   0  0  0  0  0  0  0  0  0  0  0  0
   -0.0339   -0.7626    1.9569 C   0  0  0  0  0  0  0  0  0  0  0  0
   -0.7045    0.4532    1.3880 C   0  0  0  0  0  0  0  0  0  0  0  0
   -2.1401    0.2485    1.0563 C   0  0  0  0  0  0  0  0  0  0  0  0
   -2.7462   -0.8387    1.2818 O   0  0  0  0  0  0  0  0  0  0  0  0
   -2.8215    1.3513    0.4604 N   0  0  0  0  0  0  0  0  0  0  0  0
   -4.2278    1.2000    0.1212 C   0  0  0  0  0  0  0  0  0  0  0  0
   -4.8323    0.2365    0.3154 N   0  0  0  0  0  0  0  0  0  0  0  0
   -5.4706   -0.9085    0.5688 C   0  0  0  0  0  0  0  0  0  0  0  0
   -6.8853   -0.9422   -0.0642 C   0  0  0  0  0  0  0  0  0  0  0  0
   -7.6762    0.1921    0.4977 C   0  0  0  0  0  0  0  0  0  0  0  0
   -9.0658    0.2202   -0.0684 C   0  0  0  0  0  0  0  0  0  0  0  0
   -9.5034    0.8501   -1.1653 N   0  0  0  0  0  0  0  0  0  0  0  0
  -10.8363    0.5984   -1.2882 C   0  0  0  0  0  0  0  0  0  0  0  0
  -11.1845   -0.1801   -0.2643 N   0  0  0  0  0  0  0  0  0  0  0  0
  -10.1236   -0.4447    0.5231 C   0  0  0  0  0  0  0  0  0  0  0  0
   -4.7909    2.3919   -0.4873 N   0  0  0  0  0  0  0  0  0  0  0  0
    2.3611   -0.7367   -2.0739 H   0  0  0  0  0  0  0  0  0  0  0  0
    6.1870    0.9093    0.4133 H   0  0  0  0  0  0  0  0  0  0  0  0
    6.2279   -0.3849    1.5915 H   0  0  0  0  0  0  0  0  0  0  0  0
    6.8304   -1.0108   -1.3866 H   0  0  0  0  0  0  0  0  0  0  0  0
    6.9011   -2.0693    0.0400 H   0  0  0  0  0  0  0  0  0  0  0  0
    9.1075   -1.4518   -0.6462 H   0  0  0  0  0  0  0  0  0  0  0  0
    8.7883   -0.9121    1.0094 H   0  0  0  0  0  0  0  0  0  0  0  0
    7.4130    1.7453   -1.3121 H   0  0  0  0  0  0  0  0  0  0  0  0
    9.1030    3.7113   -1.4874 H   0  0  0  0  0  0  0  0  0  0  0  0
   11.0872    0.4489    0.3049 H   0  0  0  0  0  0  0  0  0  0  0  0
    5.0446   -0.6219   -2.9339 H   0  0  0  0  0  0  0  0  0  0  0  0
    5.2100    1.0470   -2.2893 H   0  0  0  0  0  0  0  0  0  0  0  0
    0.1280   -0.8244   -0.7645 H   0  0  0  0  0  0  0  0  0  0  0  0
    0.6756   -2.5294   -0.9127 H   0  0  0  0  0  0  0  0  0  0  0  0
    0.5825   -2.7431    1.5711 H   0  0  0  0  0  0  0  0  0  0  0  0
   -1.0294   -2.3677    0.8695 H   0  0  0  0  0  0  0  0  0  0  0  0
   -0.5651   -0.9790    2.9269 H   0  0  0  0  0  0  0  0  0  0  0  0
    0.9761   -0.4504    2.2680 H   0  0  0  0  0  0  0  0  0  0  0  0
   -0.5950    1.2662    2.1530 H   0  0  0  0  0  0  0  0  0  0  0  0
   -0.1943    0.8334    0.4696 H   0  0  0  0  0  0  0  0  0  0  0  0
   -2.3127    2.2422    0.2775 H   0  0  0  0  0  0  0  0  0  0  0  0
   -5.0189   -1.8687    0.1304 H   0  0  0  0  0  0  0  0  0  0  0  0
   -5.5870   -1.1620    1.6666 H   0  0  0  0  0  0  0  0  0  0  0  0
   -7.3214   -1.9275    0.1063 H   0  0  0  0  0  0  0  0  0  0  0  0
   -6.7036   -0.8232   -1.1483 H   0  0  0  0  0  0  0  0  0  0  0  0
   -7.6704    0.1310    1.6029 H   0  0  0  0  0  0  0  0  0  0  0  0
   -7.2067    1.1500    0.2222 H   0  0  0  0  0  0  0  0  0  0  0  0
   -8.9586    1.4306   -1.8207 H   0  0  0  0  0  0  0  0  0  0  0  0
  -11.4383    0.9955   -2.1012 H   0  0  0  0  0  0  0  0  0  0  0  0
  -10.0642   -1.0412    1.4258 H   0  0  0  0  0  0  0  0  0  0  0  0
   -4.4222    2.7550   -1.3980 H   0  0  0  0  0  0  0  0  0  0  0  0
   -5.5778    2.8986   -0.0087 H   0  0  0  0  0  0  0  0  0  0  0  0
  1  2  2  0
  2  3  1  0
  3  4  1  0
  4  5  2  3
  5  6  1  0
  6  7  1  0
  7  8  1  0
  8  9  1  0
  9 10  1  0
 10 11  1  0
 11 12  2  0
 12 13  1  0
  4 14  1  0
  2 15  1  0
 15 16  1  0
 16 17  1  0
 17 18  1  0
 18 19  1  0
 19 20  2  0
 19 21  1  0
 21 22  1  0
 22 23  2  3
 23 24  1  0
 24 25  1  0
 25 26  1  0
 26 27  1  0
 27 28  1  0
 28 29  1  0
 29 30  2  0
 30 31  1  0
 22 32  1  0
 13  9  2  0
 31 27  2  0
  3 33  1  0
  6 34  1  0
  6 35  1  0
  7 36  1  0
  7 37  1  0
  8 38  1  0
  8 39  1  0
 10 40  1  0
 11 41  1  0
 13 42  1  0
 14 43  1  0
 14 44  1  0
 15 45  1  0
 15 46  1  0
 16 47  1  0
 16 48  1  0
 17 49  1  0
 17 50  1  0
 18 51  1  0
 18 52  1  0
 21 53  1  0
 24 54  1  0
 24 55  1  0
 25 56  1  0
 25 57  1  0
 26 58  1  0
 26 59  1  0
 28 60  1  0
 29 61  1  0
 31 62  1  0
 32 63  1  0
 32 64  1  0
M  END
>  <Ligand ID>  (1) 
LIG0001213

>  <Ligand>  (1) 
CHEMBL2165640

>  <SMILES>  (1) 
O=C(NC(=NCCCc1[nH]cnc1)N)CCCCC(=O)NC(=NCCCc1[nH]cnc1)N

>  <CID>  (1) 
56954318.0

>  <ChEMBL ID>  (1) 
nan

>  <InChiKey>  (1) 
RDIRTKGXGDOIAE-UHFFFAOYSA-N

>  <InChi>  (1) 
InChI=1S/C20H32N10O2/c21-19(25-9-3-5-15-11-23-13-27-15)29-17(31)7-1-2-8-18(32)30-20(22)26-10-4-6-16-12-24-14-28-16/h11-14H,1-10H2,(H,23,27)(H,24,28)(H3,21,25,29,31)(H3,22,26,30,32)

>  <IUPAC Name>  (1) 
N,N'-bis[N'-[3-(1H-imidazol-5-yl)propyl]carbamimidoyl]hexanediamide

$$$$
