
     RDKit          3D

 40 42  0  0  0  0  0  0  0  0999 V2000
   -2.7524   -2.7804   -0.7990 N   0  0  0  0  0  0  0  0  0  0  0  0
   -2.1730   -1.9062   -0.3100 C   0  0  0  0  0  0  0  0  0  0  0  0
   -1.4698   -0.8160    0.3157 C   0  0  0  0  0  0  0  0  0  0  0  0
   -0.1644   -0.9846    0.8005 C   0  0  0  0  0  0  0  0  0  0  0  0
    0.5425   -2.5950    0.6022 S   0  0  0  0  0  0  0  0  0  0  0  0
    2.2153   -2.6412    1.2574 C   0  0  0  0  0  0  0  0  0  0  0  0
    3.1189   -1.8076    0.4385 C   0  0  0  0  0  0  0  0  0  0  0  0
    3.6441   -2.3859   -0.7058 C   0  0  0  0  0  0  0  0  0  0  0  0
    4.5091   -1.7200   -1.5358 C   0  0  0  0  0  0  0  0  0  0  0  0
    4.8659   -0.4366   -1.2208 C   0  0  0  0  0  0  0  0  0  0  0  0
    4.3637    0.1790   -0.0854 C   0  0  0  0  0  0  0  0  0  0  0  0
    3.4960   -0.5280    0.7224 C   0  0  0  0  0  0  0  0  0  0  0  0
    4.7415    1.5618    0.2635 C   0  0  0  0  0  0  0  0  0  0  0  0
    4.2912    2.1338    1.2951 O   0  0  0  0  0  0  0  0  0  0  0  0
    5.6184    2.2317   -0.5824 O   0  0  0  0  0  0  0  0  0  0  0  0
    0.4264    0.0594    1.3663 N   0  0  0  0  0  0  0  0  0  0  0  0
   -0.2205    1.2271    1.4612 C   0  0  0  0  0  0  0  0  0  0  0  0
   -1.5002    1.4457    1.0025 C   0  0  0  0  0  0  0  0  0  0  0  0
   -2.1411    0.3807    0.4096 C   0  0  0  0  0  0  0  0  0  0  0  0
   -3.4980    0.5735   -0.0900 C   0  0  0  0  0  0  0  0  0  0  0  0
   -3.6006    1.0002   -1.4154 C   0  0  0  0  0  0  0  0  0  0  0  0
   -4.8389    1.2192   -2.0065 C   0  0  0  0  0  0  0  0  0  0  0  0
   -5.9574    1.0017   -1.2429 C   0  0  0  0  0  0  0  0  0  0  0  0
   -5.8463    0.5765    0.0767 C   0  0  0  0  0  0  0  0  0  0  0  0
   -4.6224    0.3547    0.6777 C   0  0  0  0  0  0  0  0  0  0  0  0
   -2.1478    2.7355    1.1349 C   0  0  0  0  0  0  0  0  0  0  0  0
   -2.6783    3.7707    1.2590 N   0  0  0  0  0  0  0  0  0  0  0  0
    2.5389   -3.7077    1.2150 H   0  0  0  0  0  0  0  0  0  0  0  0
    2.2504   -2.2558    2.3100 H   0  0  0  0  0  0  0  0  0  0  0  0
    3.3851   -3.4037   -0.9911 H   0  0  0  0  0  0  0  0  0  0  0  0
    4.8961   -2.2066   -2.4191 H   0  0  0  0  0  0  0  0  0  0  0  0
    5.5499    0.1396   -1.8456 H   0  0  0  0  0  0  0  0  0  0  0  0
    3.1350   -0.0316    1.5997 H   0  0  0  0  0  0  0  0  0  0  0  0
    5.4964    3.2500   -0.6675 H   0  0  0  0  0  0  0  0  0  0  0  0
    0.3141    2.0508    1.9360 H   0  0  0  0  0  0  0  0  0  0  0  0
   -2.7228    1.1734   -2.0221 H   0  0  0  0  0  0  0  0  0  0  0  0
   -4.8724    1.5502   -3.0371 H   0  0  0  0  0  0  0  0  0  0  0  0
   -6.9487    1.1617   -1.6687 H   0  0  0  0  0  0  0  0  0  0  0  0
   -6.7300    0.4054    0.6781 H   0  0  0  0  0  0  0  0  0  0  0  0
   -4.5140    0.0243    1.7013 H   0  0  0  0  0  0  0  0  0  0  0  0
  1  2  3  0
  2  3  1  0
  3  4  2  0
  4  5  1  0
  5  6  1  0
  6  7  1  0
  7  8  2  0
  8  9  1  0
  9 10  2  0
 10 11  1  0
 11 12  2  0
 11 13  1  0
 13 14  2  0
 13 15  1  0
  4 16  1  0
 16 17  2  0
 17 18  1  0
 18 19  2  0
 19 20  1  0
 20 21  2  0
 21 22  1  0
 22 23  2  0
 23 24  1  0
 24 25  2  0
 18 26  1  0
 26 27  3  0
 19  3  1  0
 25 20  1  0
 12  7  1  0
  6 28  1  0
  6 29  1  0
  8 30  1  0
  9 31  1  0
 10 32  1  0
 12 33  1  0
 15 34  1  0
 17 35  1  0
 21 36  1  0
 22 37  1  0
 23 38  1  0
 24 39  1  0
 25 40  1  0
M  END
>  <Ligand ID>  (1) 
LIG0002662

>  <Ligand>  (1) 
SCHEMBL3324335

>  <SMILES>  (1) 
N#Cc1c(SCc2cccc(c2)C(=O)O)ncc(c1c1ccccc1)C#N

>  <CID>  (1) 
68596111.0

>  <ChEMBL ID>  (1) 
nan

>  <InChiKey>  (1) 
NIEOZFINVHWHCA-UHFFFAOYSA-N

>  <InChi>  (1) 
InChI=1S/C21H13N3O2S/c22-10-17-12-24-20(18(11-23)19(17)15-6-2-1-3-7-15)27-13-14-5-4-8-16(9-14)21(25)26/h1-9,12H,13H2,(H,25,26)

>  <IUPAC Name>  (1) 
3-[(3,5-dicyano-4-phenylpyridin-2-yl)sulfanylmethyl]benzoic acid

$$$$
