
     RDKit          3D

 46 50  0  0  0  0  0  0  0  0999 V2000
   -7.8524    1.8636   -1.1984 O   0  0  0  0  0  0  0  0  0  0  0  0
   -7.0825    0.9097   -1.8429 C   0  0  0  0  0  0  0  0  0  0  0  0
   -6.7429    1.1016   -3.0396 O   0  0  0  0  0  0  0  0  0  0  0  0
   -6.6996   -0.3007   -1.0686 C   0  0  0  0  0  0  0  0  0  0  0  0
   -5.8671   -1.3032   -1.8112 C   0  0  0  0  0  0  0  0  0  0  0  0
   -4.6449   -0.8781   -1.1552 N   0  0  0  0  0  0  0  0  0  0  0  0
   -5.4487   -0.1163   -0.2267 C   0  0  0  0  0  0  0  0  0  0  0  0
   -3.8663   -1.9004   -0.5177 C   0  0  0  0  0  0  0  0  0  0  0  0
   -2.6400   -1.3976    0.1271 C   0  0  0  0  0  0  0  0  0  0  0  0
   -1.3617   -1.2356   -0.3714 C   0  0  0  0  0  0  0  0  0  0  0  0
   -0.4198   -0.7554    0.4352 C   0  0  0  0  0  0  0  0  0  0  0  0
   -0.7395   -0.4355    1.7322 C   0  0  0  0  0  0  0  0  0  0  0  0
   -2.5650   -0.8417    1.8751 S   0  0  0  0  0  0  0  0  0  0  0  0
    0.0650    0.0538    2.6801 C   0  0  0  0  0  0  0  0  0  0  0  0
    1.3992    0.2891    2.3770 C   0  0  0  0  0  0  0  0  0  0  0  0
    1.7854   -0.0119    1.0880 C   0  0  0  0  0  0  0  0  0  0  0  0
    0.9446   -0.5144    0.1264 C   0  0  0  0  0  0  0  0  0  0  0  0
    3.1913    0.2278    0.7441 C   0  0  0  0  0  0  0  0  0  0  0  0
    4.1326    0.0655    1.7642 C   0  0  0  0  0  0  0  0  0  0  0  0
    5.4630    0.2677    1.5365 C   0  0  0  0  0  0  0  0  0  0  0  0
    5.9019    0.6386    0.2842 C   0  0  0  0  0  0  0  0  0  0  0  0
    4.9731    0.8029   -0.7383 C   0  0  0  0  0  0  0  0  0  0  0  0
    3.6115    0.5957   -0.5043 C   0  0  0  0  0  0  0  0  0  0  0  0
    5.4435    1.1736   -1.9766 C   0  0  0  0  0  0  0  0  0  0  0  0
    6.8111    1.3748   -2.1851 C   0  0  0  0  0  0  0  0  0  0  0  0
    7.7231    1.2044   -1.1459 C   0  0  0  0  0  0  0  0  0  0  0  0
    7.2557    0.8345    0.0900 C   0  0  0  0  0  0  0  0  0  0  0  0
   -7.8066    2.8499   -1.4470 H   0  0  0  0  0  0  0  0  0  0  0  0
   -7.5638   -0.7081   -0.5057 H   0  0  0  0  0  0  0  0  0  0  0  0
   -6.2002   -2.3304   -1.5354 H   0  0  0  0  0  0  0  0  0  0  0  0
   -5.7850   -1.1027   -2.9092 H   0  0  0  0  0  0  0  0  0  0  0  0
   -5.2152    0.9673   -0.1595 H   0  0  0  0  0  0  0  0  0  0  0  0
   -5.5640   -0.6403    0.7250 H   0  0  0  0  0  0  0  0  0  0  0  0
   -3.5791   -2.6424   -1.2897 H   0  0  0  0  0  0  0  0  0  0  0  0
   -4.4628   -2.4837    0.2199 H   0  0  0  0  0  0  0  0  0  0  0  0
   -1.1878   -1.5196   -1.4362 H   0  0  0  0  0  0  0  0  0  0  0  0
   -0.2924    0.2707    3.6746 H   0  0  0  0  0  0  0  0  0  0  0  0
    2.0500    0.6822    3.1331 H   0  0  0  0  0  0  0  0  0  0  0  0
    1.3466   -0.7116   -0.8370 H   0  0  0  0  0  0  0  0  0  0  0  0
    3.8417   -0.2260    2.7699 H   0  0  0  0  0  0  0  0  0  0  0  0
    6.1836    0.1342    2.3546 H   0  0  0  0  0  0  0  0  0  0  0  0
    2.8904    0.7231   -1.2968 H   0  0  0  0  0  0  0  0  0  0  0  0
    4.7341    1.3080   -2.7892 H   0  0  0  0  0  0  0  0  0  0  0  0
    7.1476    1.6674   -3.1775 H   0  0  0  0  0  0  0  0  0  0  0  0
    8.7718    1.3624   -1.3202 H   0  0  0  0  0  0  0  0  0  0  0  0
    7.9203    0.6869    0.9401 H   0  0  0  0  0  0  0  0  0  0  0  0
  1  2  1  0
  2  3  2  0
  2  4  1  0
  4  5  1  0
  5  6  1  0
  6  7  1  0
  6  8  1  0
  8  9  1  0
  9 10  2  0
 10 11  1  0
 11 12  2  0
 12 13  1  0
 12 14  1  0
 14 15  2  0
 15 16  1  0
 16 17  2  0
 16 18  1  0
 18 19  2  0
 19 20  1  0
 20 21  2  0
 21 22  1  0
 22 23  2  0
 22 24  1  0
 24 25  2  0
 25 26  1  0
 26 27  2  0
  7  4  1  0
 13  9  1  0
 23 18  1  0
 17 11  1  0
 27 21  1  0
  1 28  1  0
  4 29  1  0
  5 30  1  0
  5 31  1  0
  7 32  1  0
  7 33  1  0
  8 34  1  0
  8 35  1  0
 10 36  1  0
 14 37  1  0
 15 38  1  0
 17 39  1  0
 19 40  1  0
 20 41  1  0
 23 42  1  0
 24 43  1  0
 25 44  1  0
 26 45  1  0
 27 46  1  0
M  END
>  <Ligand ID>  (1) 
LIG0001292

>  <Ligand>  (1) 
CHEMBL3883597

>  <SMILES>  (1) 
OC(=O)C1CN(C1)Cc1cc2c(s1)ccc(c2)c1ccc2c(c1)cccc2

>  <CID>  (1) 
134130169.0

>  <ChEMBL ID>  (1) 
nan

>  <InChiKey>  (1) 
PQTJBCHIJUZFPZ-UHFFFAOYSA-N

>  <InChi>  (1) 
InChI=1S/C23H19NO2S/c25-23(26)20-12-24(13-20)14-21-11-19-10-18(7-8-22(19)27-21)17-6-5-15-3-1-2-4-16(15)9-17/h1-11,20H,12-14H2,(H,25,26)

>  <IUPAC Name>  (1) 
1-[(5-naphthalen-2-yl-1-benzothiophen-2-yl)methyl]azetidine-3-carboxylic acid

$$$$
