
     RDKit          3D

 26 26  0  0  0  0  0  0  0  0999 V2000
   -3.6693    1.1588   -0.2455 N   0  0  0  0  0  0  0  0  0  0  0  0
   -2.9078   -0.0802   -0.1609 C   0  0  0  0  0  0  0  0  0  0  0  0
   -1.4510    0.2584   -0.1799 C   0  0  1  0  0  0  0  0  0  0  0  0
   -1.0105    1.1503    0.9628 C   0  0  0  0  0  0  0  0  0  0  0  0
   -0.5328   -0.2956    0.8110 C   0  0  2  0  0  0  0  0  0  0  0  0
    0.9114   -0.4402    0.5865 C   0  0  0  0  0  0  0  0  0  0  0  0
    1.5106    0.4115   -0.3345 C   0  0  0  0  0  0  0  0  0  0  0  0
    2.8762    0.3041   -0.5734 C   0  0  0  0  0  0  0  0  0  0  0  0
    3.6293   -0.6505    0.1079 C   0  0  0  0  0  0  0  0  0  0  0  0
    3.0445   -1.5068    1.0296 C   0  0  0  0  0  0  0  0  0  0  0  0
    1.6929   -1.3747    1.2426 C   0  0  0  0  0  0  0  0  0  0  0  0
    5.5173   -0.7675   -0.2509 Br  0  0  0  0  0  0  0  0  0  0  0  0
    0.6841    0.0000    0.0000 Cl  0  0  0  0  0  0  0  0  0  0  0  0
   -4.4030    1.2091    0.4975 H   0  0  0  0  0  0  0  0  0  0  0  0
   -4.0213    1.3466   -1.1973 H   0  0  0  0  0  0  0  0  0  0  0  0
   -3.2038   -0.7862   -0.9653 H   0  0  0  0  0  0  0  0  0  0  0  0
   -3.1682   -0.5501    0.8091 H   0  0  0  0  0  0  0  0  0  0  0  0
   -1.0353    0.4488   -1.1904 H   0  0  0  0  0  0  0  0  0  0  0  0
   -0.2983    1.9426    0.6567 H   0  0  0  0  0  0  0  0  0  0  0  0
   -1.7058    1.3948    1.7790 H   0  0  0  0  0  0  0  0  0  0  0  0
   -0.9565   -1.0007    1.5555 H   0  0  0  0  0  0  0  0  0  0  0  0
    0.9403    1.1585   -0.8724 H   0  0  0  0  0  0  0  0  0  0  0  0
    3.3835    0.9546   -1.2891 H   0  0  0  0  0  0  0  0  0  0  0  0
    3.6447   -2.2559    1.5621 H   0  0  0  0  0  0  0  0  0  0  0  0
    1.2131   -2.0297    1.9556 H   0  0  0  0  0  0  0  0  0  0  0  0
   -0.6841    0.0000    0.0000 H   0  0  0  0  0  0  0  0  0  0  0  0
  1  2  1  0
  2  3  1  0
  3  4  1  0
  4  5  1  0
  5  6  1  0
  6  7  2  0
  7  8  1  0
  8  9  2  0
  9 10  1  0
 10 11  2  0
  9 12  1  0
  5  3  1  0
 11  6  1  0
  1 14  1  0
  1 15  1  0
  2 16  1  0
  2 17  1  0
  3 18  1  6
  4 19  1  0
  4 20  1  0
  5 21  1  1
  7 22  1  0
  8 23  1  0
 10 24  1  0
 11 25  1  0
 13 26  1  0
M  END
>  <Ligand ID>  (1) 
LIG0002381

>  <Ligand>  (1) 
CHEMBL501854

>  <SMILES>  (1) 
NC[C@H]1C[C@@H]1c1ccc(cc1)Br.Cl

>  <CID>  (1) 
44573001.0

>  <ChEMBL ID>  (1) 
nan

>  <InChiKey>  (1) 
XYFRNMVFUDZAFV-GHXDPTCOSA-N

>  <InChi>  (1) 
InChI=1S/C10H12BrN.ClH/c11-9-3-1-7(2-4-9)10-5-8(10)6-12;/h1-4,8,10H,5-6,12H2;1H/t8-,10-;/m1./s1

>  <IUPAC Name>  (1) 
[(1S,2S)-2-(4-bromophenyl)cyclopropyl]methanamine;hydrochloride

$$$$
