
     RDKit          3D

 13 12  0  0  0  0  0  0  0  0999 V2000
   -1.2112    2.1429    0.0870 O   0  0  0  0  0  0  0  0  0  0  0  0
   -1.4289    0.7733   -0.1489 C   0  0  0  0  0  0  0  0  0  0  0  0
   -2.1796    0.3914   -1.1139 O   0  0  0  0  0  0  0  0  0  0  0  0
   -0.7975   -0.2710    0.7101 C   0  0  0  0  0  0  0  0  0  0  0  0
    0.3950   -0.8061   -0.0479 C   0  0  0  0  0  0  0  0  0  0  0  0
    1.3631    0.2279   -0.3405 N   0  0  0  0  0  0  0  0  0  0  0  0
   -1.5574   -1.0766    0.8124 H   0  0  0  0  0  0  0  0  0  0  0  0
   -0.5310    0.0888    1.7038 H   0  0  0  0  0  0  0  0  0  0  0  0
    0.9181   -1.5589    0.6050 H   0  0  0  0  0  0  0  0  0  0  0  0
    0.0889   -1.2946   -0.9931 H   0  0  0  0  0  0  0  0  0  0  0  0
    2.1754    0.2008    0.3412 H   0  0  0  0  0  0  0  0  0  0  0  0
    0.9536    1.1891   -0.3502 H   0  0  0  0  0  0  0  0  0  0  0  0
    1.8114   -0.0069   -1.2649 H   0  0  0  0  0  0  0  0  0  0  0  0
  1  2  1  0
  2  3  2  0
  2  4  1  0
  4  5  1  0
  5  6  1  0
  4  7  1  0
  4  8  1  0
  5  9  1  0
  5 10  1  0
  6 11  1  0
  6 12  1  0
  6 13  1  0
M  CHG  2   1  -1   6   1
M  END
>  <Ligand ID>  (1) 
LIG0002116

>  <Ligand>  (1) 
3-azaniumylpropanoate

>  <SMILES>  (1) 
[O-]C(=O)CC[NH3+]

>  <CID>  (1) 
4755801.0

>  <ChEMBL ID>  (1) 
nan

>  <InChiKey>  (1) 
UCMIRNVEIXFBKS-UHFFFAOYSA-N

>  <InChi>  (1) 
InChI=1S/C3H7NO2/c4-2-1-3(5)6/h1-2,4H2,(H,5,6)

>  <IUPAC Name>  (1) 
3-azaniumylpropanoate

$$$$
