
     RDKit          3D

144146  0  0  0  0  0  0  0  0999 V2000
   -7.0950    3.0371    2.6070 C   0  0  0  0  0  0  0  0  0  0  0  0
   -5.6859    2.5328    2.6473 C   0  0  0  0  0  0  0  0  0  0  0  0
   -5.4946    1.1244    2.2121 C   0  0  1  0  0  0  0  0  0  0  0  0
   -5.9199    0.8237    0.8653 C   0  0  2  0  0  0  0  0  0  0  0  0
   -5.6611   -0.6351    0.5372 N   0  0  0  0  0  0  0  0  0  0  0  0
   -6.4528   -1.3098   -0.4167 C   0  0  0  0  0  0  0  0  0  0  0  0
   -7.4092   -0.6591   -0.8679 O   0  0  0  0  0  0  0  0  0  0  0  0
   -6.1634   -2.7348   -0.8713 C   0  0  1  0  0  0  0  0  0  0  0  0
   -5.0658   -3.3003   -0.1152 N   0  0  0  0  0  0  0  0  0  0  0  0
   -3.7015   -2.8629   -0.3199 C   0  0  0  0  0  0  0  0  0  0  0  0
   -3.5977   -1.9543   -1.1541 O   0  0  0  0  0  0  0  0  0  0  0  0
   -2.5409   -3.4235    0.4011 C   0  0  0  0  0  0  0  0  0  0  0  0
   -1.9162   -2.4144    1.3339 C   0  0  0  0  0  0  0  0  0  0  0  0
   -1.7570   -1.0964    0.6724 C   0  0  0  0  0  0  0  0  0  0  0  0
   -0.5056   -1.0834   -0.5957 S   0  0  0  0  0  0  0  0  0  0  0  0
    1.1384   -0.9243    0.2690 C   0  0  0  0  0  0  0  0  0  0  0  0
    1.1543    0.4189    0.9023 C   0  0  2  0  0  0  0  0  0  0  0  0
    0.8317    1.4046   -0.1858 N   0  0  0  0  0  0  0  0  0  0  0  0
   -0.3192    2.1987   -0.0897 C   0  0  0  0  0  0  0  0  0  0  0  0
   -1.0360    2.0222    0.9078 O   0  0  0  0  0  0  0  0  0  0  0  0
   -0.8001    3.2389   -1.0535 C   0  0  1  0  0  0  0  0  0  0  0  0
   -2.2679    3.3728   -0.8387 N   0  0  0  0  0  0  0  0  0  0  0  0
   -3.1644    3.2967   -1.9544 C   0  0  0  0  0  0  0  0  0  0  0  0
   -2.6185    3.2646   -3.0596 O   0  0  0  0  0  0  0  0  0  0  0  0
   -4.6277    3.2628   -1.8795 C   0  0  1  0  0  0  0  0  0  0  0  0
   -5.1904    2.9183   -0.5815 N   0  0  0  0  0  0  0  0  0  0  0  0
   -5.3421    1.5767   -0.2612 C   0  0  0  0  0  0  0  0  0  0  0  0
   -4.8549    0.7875   -1.1737 O   0  0  0  0  0  0  0  0  0  0  0  0
   -5.2769    4.4219   -2.5444 C   0  0  0  0  0  0  0  0  0  0  0  0
   -4.9286    5.7616   -2.0046 C   0  0  0  0  0  0  0  0  0  0  0  0
   -5.6643    6.7783   -2.8139 C   0  0  0  0  0  0  0  0  0  0  0  0
   -6.4510    6.4290   -3.7662 O   0  0  0  0  0  0  0  0  0  0  0  0
   -5.5346    8.1781   -2.5741 N   0  0  0  0  0  0  0  0  0  0  0  0
   -0.2055    4.5678   -0.6394 C   0  0  0  0  0  0  0  0  0  0  0  0
   -0.5326    5.7246   -1.4541 C   0  0  0  0  0  0  0  0  0  0  0  0
   -1.1821    5.8135   -2.4978 O   0  0  0  0  0  0  0  0  0  0  0  0
   -0.0064    6.9993   -0.9543 N   0  0  0  0  0  0  0  0  0  0  0  0
    2.4107    0.8098    1.5038 C   0  0  0  0  0  0  0  0  0  0  0  0
    2.8643    1.9513    1.0070 O   0  0  0  0  0  0  0  0  0  0  0  0
    3.2347    0.2630    2.4871 N   0  0  0  0  0  0  0  0  0  0  0  0
    3.1678   -1.0004    3.1352 C   0  0  0  0  0  0  0  0  0  0  0  0
    4.0922   -2.0337    2.6689 C   0  0  0  0  0  0  0  0  0  0  0  0
    5.3301   -2.1091    3.3345 C   0  0  0  0  0  0  0  0  0  0  0  0
    6.2908   -3.0283    2.9836 C   0  0  0  0  0  0  0  0  0  0  0  0
    6.0771   -3.9211    1.9558 C   0  0  0  0  0  0  0  0  0  0  0  0
    4.8743   -3.8716    1.2843 C   0  0  0  0  0  0  0  0  0  0  0  0
    3.9123   -2.9240    1.6641 C   0  0  0  0  0  0  0  0  0  0  0  0
    4.5937   -4.8090    0.1671 C   0  0  0  0  0  0  0  0  0  0  0  0
    4.2820    1.1940    2.9890 C   0  0  0  0  0  0  0  0  0  0  0  0
    5.5251    1.1982    2.2360 C   0  0  0  0  0  0  0  0  0  0  0  0
    6.4232    2.0438    2.6132 O   0  0  0  0  0  0  0  0  0  0  0  0
    5.8779    0.3941    1.1427 N   0  0  0  0  0  0  0  0  0  0  0  0
    7.2376    0.6500    0.5472 C   0  0  2  0  0  0  0  0  0  0  0  0
    7.2377    0.1624   -0.8152 C   0  0  0  0  0  0  0  0  0  0  0  0
    6.2251   -0.5550   -1.1675 O   0  0  0  0  0  0  0  0  0  0  0  0
    8.1954    0.3667   -1.8289 N   0  0  0  0  0  0  0  0  0  0  0  0
    8.0316   -0.1961   -3.1350 C   0  0  0  0  0  0  0  0  0  0  0  0
    7.9519   -1.6509   -3.2351 C   0  0  0  0  0  0  0  0  0  0  0  0
    7.7905   -2.1313   -4.4142 O   0  0  0  0  0  0  0  0  0  0  0  0
    8.0321   -2.5946   -2.2005 N   0  0  0  0  0  0  0  0  0  0  0  0
    8.2425    0.0006    1.4322 C   0  0  0  0  0  0  0  0  0  0  0  0
    9.6782    0.0725    1.1314 C   0  0  0  0  0  0  0  0  0  0  0  0
   10.2812    1.4264    0.9934 C   0  0  0  0  0  0  0  0  0  0  0  0
   10.2775   -0.8928    0.1739 C   0  0  0  0  0  0  0  0  0  0  0  0
   -7.4305   -3.4854   -0.8470 C   0  0  0  0  0  0  0  0  0  0  0  0
   -7.2135   -4.8789   -1.3026 C   0  0  0  0  0  0  0  0  0  0  0  0
   -6.9097   -5.9257   -0.4620 C   0  0  0  0  0  0  0  0  0  0  0  0
   -6.7259   -7.1869   -1.0101 C   0  0  0  0  0  0  0  0  0  0  0  0
   -6.8453   -7.3955   -2.3890 C   0  0  0  0  0  0  0  0  0  0  0  0
   -7.1470   -6.3458   -3.2074 C   0  0  0  0  0  0  0  0  0  0  0  0
   -7.3310   -5.0950   -2.6777 C   0  0  0  0  0  0  0  0  0  0  0  0
   -6.6645   -8.6361   -2.9418 O   0  0  0  0  0  0  0  0  0  0  0  0
   -4.0039    0.7986    2.4505 C   0  0  0  0  0  0  0  0  0  0  0  0
   -7.7429    2.5563    3.3796 H   0  0  0  0  0  0  0  0  0  0  0  0
   -7.1667    4.1257    2.7912 H   0  0  0  0  0  0  0  0  0  0  0  0
   -7.5410    2.8558    1.6103 H   0  0  0  0  0  0  0  0  0  0  0  0
   -5.3922    2.6014    3.7622 H   0  0  0  0  0  0  0  0  0  0  0  0
   -4.9828    3.2439    2.1812 H   0  0  0  0  0  0  0  0  0  0  0  0
   -6.0887    0.4829    2.9484 H   0  0  0  0  0  0  0  0  0  0  0  0
   -7.0437    0.9555    0.7553 H   0  0  0  0  0  0  0  0  0  0  0  0
   -4.9337   -1.1546    1.0038 H   0  0  0  0  0  0  0  0  0  0  0  0
   -5.8290   -2.5352   -1.9369 H   0  0  0  0  0  0  0  0  0  0  0  0
   -5.1491   -4.0276    0.6024 H   0  0  0  0  0  0  0  0  0  0  0  0
   -2.7966   -4.3442    0.9611 H   0  0  0  0  0  0  0  0  0  0  0  0
   -1.8103   -3.7392   -0.3987 H   0  0  0  0  0  0  0  0  0  0  0  0
   -2.4719   -2.3591    2.3004 H   0  0  0  0  0  0  0  0  0  0  0  0
   -0.8675   -2.7488    1.6123 H   0  0  0  0  0  0  0  0  0  0  0  0
   -2.7058   -0.6307    0.3199 H   0  0  0  0  0  0  0  0  0  0  0  0
   -1.4374   -0.4169    1.5599 H   0  0  0  0  0  0  0  0  0  0  0  0
    1.9071   -1.0672   -0.4819 H   0  0  0  0  0  0  0  0  0  0  0  0
    1.0655   -1.7522    1.0241 H   0  0  0  0  0  0  0  0  0  0  0  0
    0.3505    0.4968    1.6750 H   0  0  0  0  0  0  0  0  0  0  0  0
    1.4211    1.5225   -1.0026 H   0  0  0  0  0  0  0  0  0  0  0  0
   -0.5067    2.9949   -2.0414 H   0  0  0  0  0  0  0  0  0  0  0  0
   -2.6990    3.5214    0.0598 H   0  0  0  0  0  0  0  0  0  0  0  0
   -4.8785    2.3727   -2.5536 H   0  0  0  0  0  0  0  0  0  0  0  0
   -5.4638    3.6469    0.0398 H   0  0  0  0  0  0  0  0  0  0  0  0
   -6.3946    4.2918   -2.4192 H   0  0  0  0  0  0  0  0  0  0  0  0
   -5.1020    4.3325   -3.6344 H   0  0  0  0  0  0  0  0  0  0  0  0
   -5.3488    5.8473   -0.9599 H   0  0  0  0  0  0  0  0  0  0  0  0
   -3.8739    6.0251   -2.0183 H   0  0  0  0  0  0  0  0  0  0  0  0
   -6.2686    8.8430   -2.8907 H   0  0  0  0  0  0  0  0  0  0  0  0
   -4.6953    8.5722   -2.0722 H   0  0  0  0  0  0  0  0  0  0  0  0
    0.9266    4.4853   -0.6338 H   0  0  0  0  0  0  0  0  0  0  0  0
   -0.5471    4.7844    0.4069 H   0  0  0  0  0  0  0  0  0  0  0  0
    0.9022    7.3662   -1.2814 H   0  0  0  0  0  0  0  0  0  0  0  0
   -0.6440    7.4498   -0.2703 H   0  0  0  0  0  0  0  0  0  0  0  0
    2.1396   -1.4711    3.1067 H   0  0  0  0  0  0  0  0  0  0  0  0
    3.3334   -0.8967    4.2574 H   0  0  0  0  0  0  0  0  0  0  0  0
    5.5622   -1.4311    4.1591 H   0  0  0  0  0  0  0  0  0  0  0  0
    7.2468   -3.0980    3.4879 H   0  0  0  0  0  0  0  0  0  0  0  0
    6.8047   -4.6548    1.6535 H   0  0  0  0  0  0  0  0  0  0  0  0
    3.0135   -2.9388    1.1149 H   0  0  0  0  0  0  0  0  0  0  0  0
    4.1199   -4.2614   -0.6877 H   0  0  0  0  0  0  0  0  0  0  0  0
    5.5842   -5.1660   -0.2467 H   0  0  0  0  0  0  0  0  0  0  0  0
    3.9657   -5.6683    0.4608 H   0  0  0  0  0  0  0  0  0  0  0  0
    3.8600    2.2230    3.0445 H   0  0  0  0  0  0  0  0  0  0  0  0
    4.5170    0.8905    4.0427 H   0  0  0  0  0  0  0  0  0  0  0  0
    5.2578   -0.3237    0.7541 H   0  0  0  0  0  0  0  0  0  0  0  0
    7.4321    1.7601    0.5654 H   0  0  0  0  0  0  0  0  0  0  0  0
    9.0163    0.9653   -1.5944 H   0  0  0  0  0  0  0  0  0  0  0  0
    7.1475    0.3057   -3.6359 H   0  0  0  0  0  0  0  0  0  0  0  0
    8.9077    0.1588   -3.7728 H   0  0  0  0  0  0  0  0  0  0  0  0
    8.9980   -2.9491   -1.9463 H   0  0  0  0  0  0  0  0  0  0  0  0
    7.2438   -2.9974   -1.6555 H   0  0  0  0  0  0  0  0  0  0  0  0
    7.9912   -1.1070    1.5580 H   0  0  0  0  0  0  0  0  0  0  0  0
    8.0431    0.3831    2.4878 H   0  0  0  0  0  0  0  0  0  0  0  0
   10.1484   -0.3038    2.1653 H   0  0  0  0  0  0  0  0  0  0  0  0
    9.5969    2.1731    0.5368 H   0  0  0  0  0  0  0  0  0  0  0  0
   10.5283    1.8327    1.9889 H   0  0  0  0  0  0  0  0  0  0  0  0
   11.2517    1.3729    0.4246 H   0  0  0  0  0  0  0  0  0  0  0  0
   10.6340   -0.4544   -0.7761 H   0  0  0  0  0  0  0  0  0  0  0  0
   11.2403   -1.3513    0.5968 H   0  0  0  0  0  0  0  0  0  0  0  0
    9.6472   -1.7623   -0.0474 H   0  0  0  0  0  0  0  0  0  0  0  0
   -7.8357   -3.4697    0.1997 H   0  0  0  0  0  0  0  0  0  0  0  0
   -8.1880   -3.0221   -1.5165 H   0  0  0  0  0  0  0  0  0  0  0  0
   -6.8278   -5.7337    0.5964 H   0  0  0  0  0  0  0  0  0  0  0  0
   -6.4873   -8.0317   -0.3816 H   0  0  0  0  0  0  0  0  0  0  0  0
   -7.2467   -6.4854   -4.2920 H   0  0  0  0  0  0  0  0  0  0  0  0
   -7.5754   -4.2621   -3.3428 H   0  0  0  0  0  0  0  0  0  0  0  0
   -6.1255   -9.3360   -2.4480 H   0  0  0  0  0  0  0  0  0  0  0  0
   -3.7187    1.3423    3.3972 H   0  0  0  0  0  0  0  0  0  0  0  0
   -3.9381   -0.2825    2.5485 H   0  0  0  0  0  0  0  0  0  0  0  0
   -3.5006    1.2314    1.5664 H   0  0  0  0  0  0  0  0  0  0  0  0
  1  2  1  0
  2  3  1  0
  3  4  1  0
  4  5  1  0
  5  6  1  0
  6  7  2  0
  6  8  1  0
  8  9  1  0
  9 10  1  0
 10 11  2  0
 10 12  1  0
 12 13  1  0
 13 14  1  0
 14 15  1  0
 15 16  1  0
 16 17  1  0
 17 18  1  0
 18 19  1  0
 19 20  2  0
 19 21  1  0
 21 22  1  0
 22 23  1  0
 23 24  2  0
 23 25  1  0
 25 26  1  0
 26 27  1  0
 27 28  2  0
 25 29  1  0
 29 30  1  0
 30 31  1  0
 31 32  2  0
 31 33  1  0
 21 34  1  0
 34 35  1  0
 35 36  2  0
 35 37  1  0
 17 38  1  0
 38 39  2  0
 38 40  1  0
 40 41  1  0
 41 42  1  0
 42 43  2  0
 43 44  1  0
 44 45  2  0
 45 46  1  0
 46 47  2  0
 46 48  1  0
 40 49  1  0
 49 50  1  0
 50 51  2  0
 50 52  1  0
 52 53  1  0
 53 54  1  0
 54 55  2  0
 54 56  1  0
 56 57  1  0
 57 58  1  0
 58 59  2  0
 58 60  1  0
 53 61  1  0
 61 62  1  0
 62 63  1  0
 62 64  1  0
  8 65  1  0
 65 66  1  0
 66 67  2  0
 67 68  1  0
 68 69  2  0
 69 70  1  0
 70 71  2  0
 69 72  1  0
  3 73  1  0
 27  4  1  0
 47 42  1  0
 71 66  1  0
  1 74  1  0
  1 75  1  0
  1 76  1  0
  2 77  1  0
  2 78  1  0
  3 79  1  1
  4 80  1  1
  5 81  1  0
  8 82  1  6
  9 83  1  0
 12 84  1  0
 12 85  1  0
 13 86  1  0
 13 87  1  0
 14 88  1  0
 14 89  1  0
 16 90  1  0
 16 91  1  0
 17 92  1  1
 18 93  1  0
 21 94  1  6
 22 95  1  0
 25 96  1  6
 26 97  1  0
 29 98  1  0
 29 99  1  0
 30100  1  0
 30101  1  0
 33102  1  0
 33103  1  0
 34104  1  0
 34105  1  0
 37106  1  0
 37107  1  0
 41108  1  0
 41109  1  0
 43110  1  0
 44111  1  0
 45112  1  0
 47113  1  0
 48114  1  0
 48115  1  0
 48116  1  0
 49117  1  0
 49118  1  0
 52119  1  0
 53120  1  6
 56121  1  0
 57122  1  0
 57123  1  0
 60124  1  0
 60125  1  0
 61126  1  0
 61127  1  0
 62128  1  0
 63129  1  0
 63130  1  0
 63131  1  0
 64132  1  0
 64133  1  0
 64134  1  0
 65135  1  0
 65136  1  0
 67137  1  0
 68138  1  0
 70139  1  0
 71140  1  0
 72141  1  0
 73142  1  0
 73143  1  0
 73144  1  0
M  END
>  <Ligand ID>  (1) 
LIG0001569

>  <Ligand>  (1) 
CHEMBL3354591

>  <SMILES>  (1) 
CC[C@@H]([C@@H]1NC(=O)[C@@H](NC(=O)CCCSC[C@H](NC(=O)[C@@H](NC(=O)[C@@H](NC1=O)CCC(=O)N)CC(=O)N)C(=O)N(Cc1cccc(c1)C)CC(=O)N[C@H](C(=O)NCC(=O)N)CC(C)C)Cc1ccc(cc1)O)C

>  <CID>  (1) 
118720281.0

>  <ChEMBL ID>  (1) 
nan

>  <InChiKey>  (1) 
RBCKKMPMZOMCJF-ASIWTYMMSA-N

>  <InChi>  (1) 
InChI=1S/C49H71N11O12S/c1-6-29(5)43-48(71)56-33(16-17-38(50)62)45(68)57-36(22-39(51)63)46(69)58-37(26-73-18-8-11-41(65)54-35(47(70)59-43)21-30-12-14-32(61)15-13-30)49(72)60(24-31-10-7-9-28(4)20-31)25-42(66)55-34(19-27(2)3)44(67)53-23-40(52)64/h7,9-10,12-15,20,27,29,33-37,43,61H,6,8,11,16-19,21-26H2,1-5H3,(H2,50,62)(H2,51,63)(H2,52,64)(H,53,67)(H,54,65)(H,55,66)(H,56,71)(H,57,68)(H,58,69)(H,59,70)/t29-,33-,34-,35-,36-,37-,43-/m0/s1

>  <IUPAC Name>  (1) 
(3R,6S,9S,12S,15S)-6-(2-amino-2-oxoethyl)-N-[2-[[(2S)-1-[(2-amino-2-oxoethyl)amino]-4-methyl-1-oxopentan-2-yl]amino]-2-oxoethyl]-9-(3-amino-3-oxopropyl)-12-[(2S)-butan-2-yl]-15-[(4-hydroxyphenyl)methyl]-N-[(3-methylphenyl)methyl]-5,8,11,14,17-pentaoxo-1-thia-4,7,10,13,16-pentazacycloicosane-3-carboxamide

$$$$
