
     RDKit          3D

 33 34  0  0  0  0  0  0  0  0999 V2000
   -3.0183   -1.7544    0.6074 N   0  0  0  0  0  0  0  0  0  0  0  0
   -3.5982   -0.4647    0.9338 C   0  0  0  0  0  0  0  0  0  0  0  0
   -3.3719    0.5214   -0.2183 C   0  0  0  0  0  0  0  0  0  0  0  0
   -1.9048    0.6583   -0.4161 C   0  0  0  0  0  0  0  0  0  0  0  0
   -1.3207    0.2924   -1.6118 C   0  0  0  0  0  0  0  0  0  0  0  0
    0.0403    0.4472   -1.7213 C   0  0  0  0  0  0  0  0  0  0  0  0
    0.8080    0.9403   -0.7050 C   0  0  0  0  0  0  0  0  0  0  0  0
    0.1811    1.2932    0.4726 C   0  0  0  0  0  0  0  0  0  0  0  0
   -1.1821    1.1638    0.6507 C   0  0  0  0  0  0  0  0  0  0  0  0
    2.1752    1.0945   -0.8184 O   0  0  0  0  0  0  0  0  0  0  0  0
    3.0787    0.1012   -0.4748 C   0  0  0  0  0  0  0  0  0  0  0  0
    3.5236    0.1094    0.8451 C   0  0  0  0  0  0  0  0  0  0  0  0
    4.4237   -0.8256    1.3134 C   0  0  0  0  0  0  0  0  0  0  0  0
    4.8597   -1.7709    0.4014 C   0  0  0  0  0  0  0  0  0  0  0  0
    4.4349   -1.8013   -0.9108 C   0  0  0  0  0  0  0  0  0  0  0  0
    3.5342   -0.8552   -1.3554 C   0  0  0  0  0  0  0  0  0  0  0  0
   -4.0081    1.7833    0.1636 C   0  0  0  0  0  0  0  0  0  0  0  0
   -4.5257    2.8334    0.4645 C   0  0  0  0  0  0  0  0  0  0  0  0
   -3.6396   -2.4916    1.0083 H   0  0  0  0  0  0  0  0  0  0  0  0
   -3.0457   -1.8880   -0.4409 H   0  0  0  0  0  0  0  0  0  0  0  0
   -4.6839   -0.5908    1.1251 H   0  0  0  0  0  0  0  0  0  0  0  0
   -3.1295   -0.0160    1.8530 H   0  0  0  0  0  0  0  0  0  0  0  0
   -3.8686    0.1073   -1.1290 H   0  0  0  0  0  0  0  0  0  0  0  0
   -1.9585   -0.0924   -2.3902 H   0  0  0  0  0  0  0  0  0  0  0  0
    0.4840    0.1513   -2.6775 H   0  0  0  0  0  0  0  0  0  0  0  0
    0.8084    1.6859    1.2761 H   0  0  0  0  0  0  0  0  0  0  0  0
   -1.6022    1.4552    1.5856 H   0  0  0  0  0  0  0  0  0  0  0  0
    3.1792    0.8550    1.5630 H   0  0  0  0  0  0  0  0  0  0  0  0
    4.7702   -0.8138    2.3536 H   0  0  0  0  0  0  0  0  0  0  0  0
    5.5723   -2.5010    0.7958 H   0  0  0  0  0  0  0  0  0  0  0  0
    4.8057   -2.5697   -1.6043 H   0  0  0  0  0  0  0  0  0  0  0  0
    3.1666   -0.8329   -2.3786 H   0  0  0  0  0  0  0  0  0  0  0  0
   -4.9881    3.7751    0.7158 H   0  0  0  0  0  0  0  0  0  0  0  0
  1  2  1  0
  2  3  1  0
  3  4  1  0
  4  5  2  0
  5  6  1  0
  6  7  2  0
  7  8  1  0
  8  9  2  0
  7 10  1  0
 10 11  1  0
 11 12  2  0
 12 13  1  0
 13 14  2  0
 14 15  1  0
 15 16  2  0
  3 17  1  0
 17 18  3  0
  9  4  1  0
 16 11  1  0
  1 19  1  0
  1 20  1  0
  2 21  1  0
  2 22  1  0
  3 23  1  0
  5 24  1  0
  6 25  1  0
  8 26  1  0
  9 27  1  0
 12 28  1  0
 13 29  1  0
 14 30  1  0
 15 31  1  0
 16 32  1  0
 18 33  1  0
M  END
>  <Ligand ID>  (1) 
LIG0005594

>  <Ligand>  (1) 
CHEMBL541905

>  <SMILES>  (1) 
NCC(c1ccc(cc1)Oc1ccccc1)C#C

>  <CID>  (1) 
16735072.0

>  <ChEMBL ID>  (1) 
nan

>  <InChiKey>  (1) 
GIFOOVBSEIDETG-UHFFFAOYSA-N

>  <InChi>  (1) 
InChI=1S/C16H15NO/c1-2-13(12-17)14-8-10-16(11-9-14)18-15-6-4-3-5-7-15/h1,3-11,13H,12,17H2

>  <IUPAC Name>  (1) 
2-(4-phenoxyphenyl)but-3-yn-1-amine

$$$$
