
     RDKit          3D

 35 34  0  0  0  0  0  0  0  0999 V2000
   -5.2656    0.0917   -0.2031 O   0  0  0  0  0  0  0  0  0  0  0  0
   -4.4244    0.3210    0.8974 C   0  0  0  0  0  0  0  0  0  0  0  0
   -4.9793    0.5162    2.0084 O   0  0  0  0  0  0  0  0  0  0  0  0
   -2.9510    0.3227    0.7047 C   0  0  0  0  0  0  0  0  0  0  0  0
   -2.5955    0.0585   -0.7451 C   0  0  0  0  0  0  0  0  0  0  0  0
   -3.1126   -1.2610   -1.1906 C   0  0  0  0  0  0  0  0  0  0  0  0
   -3.9359   -1.3844   -2.1491 O   0  0  0  0  0  0  0  0  0  0  0  0
   -2.7064   -2.4351   -0.5620 O   0  0  0  0  0  0  0  0  0  0  0  0
   -1.1668    0.3016   -1.0562 C   0  0  0  0  0  0  0  0  0  0  0  0
    0.0142   -0.6788   -0.1478 P   0  0  0  0  0  0  0  0  0  0  0  0
   -0.2117   -0.6556    1.3450 O   0  0  0  0  0  0  0  0  0  0  0  0
    1.6712    0.0039   -0.4389 C   0  0  0  0  0  0  0  0  0  0  0  0
    2.2360    0.6650    0.7975 C   0  0  0  0  0  0  0  0  0  0  0  0
    3.6222    1.1878    0.4034 C   0  0  1  0  0  0  0  0  0  0  0  0
    4.4880    0.0768   -0.0348 C   0  0  0  0  0  0  0  0  0  0  0  0
    4.9538    0.0624   -1.1846 O   0  0  0  0  0  0  0  0  0  0  0  0
    4.7803   -0.9528    0.8424 O   0  0  0  0  0  0  0  0  0  0  0  0
    3.4547    2.1490   -0.6810 N   0  0  0  0  0  0  0  0  0  0  0  0
    0.0442   -2.2911   -0.6790 O   0  0  0  0  0  0  0  0  0  0  0  0
   -6.1559    0.5774   -0.2942 H   0  0  0  0  0  0  0  0  0  0  0  0
   -2.5589   -0.5593    1.2802 H   0  0  0  0  0  0  0  0  0  0  0  0
   -2.4727    1.2114    1.1066 H   0  0  0  0  0  0  0  0  0  0  0  0
   -3.1672    0.8309   -1.3245 H   0  0  0  0  0  0  0  0  0  0  0  0
   -3.0643   -3.3274   -0.8909 H   0  0  0  0  0  0  0  0  0  0  0  0
   -1.0191    0.0954   -2.1323 H   0  0  0  0  0  0  0  0  0  0  0  0
   -0.9460    1.3604   -0.8905 H   0  0  0  0  0  0  0  0  0  0  0  0
    1.6537    0.7805   -1.2304 H   0  0  0  0  0  0  0  0  0  0  0  0
    2.3897   -0.7630   -0.7962 H   0  0  0  0  0  0  0  0  0  0  0  0
    2.3714   -0.0670    1.6093 H   0  0  0  0  0  0  0  0  0  0  0  0
    1.6035    1.5025    1.1048 H   0  0  0  0  0  0  0  0  0  0  0  0
    4.1131    1.6977    1.2596 H   0  0  0  0  0  0  0  0  0  0  0  0
    5.1415   -1.8443    0.5217 H   0  0  0  0  0  0  0  0  0  0  0  0
    3.6488    1.7396   -1.6105 H   0  0  0  0  0  0  0  0  0  0  0  0
    4.0465    2.9878   -0.5534 H   0  0  0  0  0  0  0  0  0  0  0  0
    0.5004   -2.3203   -1.5772 H   0  0  0  0  0  0  0  0  0  0  0  0
  1  2  1  0
  2  3  2  0
  2  4  1  0
  4  5  1  0
  5  6  1  0
  6  7  2  0
  6  8  1  0
  5  9  1  0
  9 10  1  0
 10 11  2  0
 10 12  1  0
 12 13  1  0
 13 14  1  0
 14 15  1  0
 15 16  2  0
 15 17  1  0
 14 18  1  0
 10 19  1  0
  1 20  1  0
  4 21  1  0
  4 22  1  0
  5 23  1  0
  8 24  1  0
  9 25  1  0
  9 26  1  0
 12 27  1  0
 12 28  1  0
 13 29  1  0
 13 30  1  0
 14 31  1  1
 17 32  1  0
 18 33  1  0
 18 34  1  0
 19 35  1  0
M  END
>  <Ligand ID>  (1) 
LIG0005080

>  <Ligand>  (1) 
CHEMBL1092315

>  <SMILES>  (1) 
OC(=O)CC(C(=O)O)CP(=O)(CC[C@@H](C(=O)O)N)O

>  <CID>  (1) 
24779945.0

>  <ChEMBL ID>  (1) 
nan

>  <InChiKey>  (1) 
PGKLRXONCFHSCZ-GDVGLLTNSA-N

>  <InChi>  (1) 
InChI=1S/C9H16NO8P/c10-6(9(15)16)1-2-19(17,18)4-5(8(13)14)3-7(11)12/h5-6H,1-4,10H2,(H,11,12)(H,13,14)(H,15,16)(H,17,18)/t5?,6-/m0/s1

>  <IUPAC Name>  (1) 
2-[[[(3S)-3-amino-3-carboxypropyl]-hydroxyphosphoryl]methyl]butanedioic acid

$$$$
