
     RDKit          3D

 14 14  0  0  0  0  0  0  0  0999 V2000
    2.7117    0.1469   -0.0365 C   0  0  0  0  0  0  0  0  0  0  0  0
    1.2230   -0.1071    0.0222 C   0  0  0  0  0  0  0  0  0  0  0  0
    0.6399   -1.8650    0.4177 S   0  0  0  0  0  0  0  0  0  0  0  0
   -1.1016   -1.3389    0.3015 C   0  0  0  0  0  0  0  0  0  0  0  0
   -1.0055   -0.0007    0.0008 C   0  0  0  0  0  0  0  0  0  0  0  0
    0.2246    0.4326   -0.0979 N   0  0  0  0  0  0  0  0  0  0  0  0
   -2.2292    0.8530   -0.1895 C   0  0  0  0  0  0  0  0  0  0  0  0
    2.8297    0.8739   -0.8459 H   0  0  0  0  0  0  0  0  0  0  0  0
    3.2314   -0.8017   -0.2697 H   0  0  0  0  0  0  0  0  0  0  0  0
    3.0576    0.6034    0.9090 H   0  0  0  0  0  0  0  0  0  0  0  0
   -1.9345   -1.9874    0.4481 H   0  0  0  0  0  0  0  0  0  0  0  0
   -3.0440    0.2591   -0.6645 H   0  0  0  0  0  0  0  0  0  0  0  0
   -2.5293    1.2108    0.8280 H   0  0  0  0  0  0  0  0  0  0  0  0
   -2.0736    1.7209   -0.8234 H   0  0  0  0  0  0  0  0  0  0  0  0
  1  2  1  0
  2  3  1  0
  3  4  1  0
  4  5  2  0
  5  6  1  0
  5  7  1  0
  6  2  2  0
  1  8  1  0
  1  9  1  0
  1 10  1  0
  4 11  1  0
  7 12  1  0
  7 13  1  0
  7 14  1  0
M  END
>  <Ligand ID>  (1) 
LIG0001036

>  <Ligand>  (1) 
2,4-Dimethylthiazole

>  <SMILES>  (1) 
Cc1scc(n1)C

>  <CID>  (1) 
10934.0

>  <ChEMBL ID>  (1) 
nan

>  <InChiKey>  (1) 
OBSLLHNATPQFMJ-UHFFFAOYSA-N

>  <InChi>  (1) 
InChI=1S/C5H7NS/c1-4-3-7-5(2)6-4/h3H,1-2H3

>  <IUPAC Name>  (1) 
2,4-dimethyl-1,3-thiazole

$$$$
