
     RDKit          3D

 32 31  0  0  0  0  0  0  0  0999 V2000
   -4.7723    1.3506   -0.4611 C   0  0  0  0  0  0  0  0  0  0  0  0
   -4.0552    0.1652    0.1989 C   0  0  0  0  0  0  0  0  0  0  0  0
   -2.5843    0.2841   -0.2099 C   0  0  0  0  0  0  0  0  0  0  0  0
   -1.7561   -0.8574    0.3951 C   0  0  0  0  0  0  0  0  0  0  0  0
   -0.3285   -0.6470   -0.0675 C   0  0  0  0  0  0  0  0  0  0  0  0
    0.5980   -1.7141    0.4641 C   0  0  0  0  0  0  0  0  0  0  0  0
    2.0067   -1.4629   -0.0260 C   0  0  0  0  0  0  0  0  0  0  0  0
    2.5480   -0.1343    0.4158 C   0  0  0  0  0  0  0  0  0  0  0  0
    3.9646   -0.0055   -0.1373 C   0  0  0  0  0  0  0  0  0  0  0  0
    4.5492    1.3008    0.2742 C   0  0  0  0  0  0  0  0  0  0  0  0
    5.7341    1.5746   -0.1037 O   0  0  0  0  0  0  0  0  0  0  0  0
    3.8692    2.2246    1.0432 O   0  0  0  0  0  0  0  0  0  0  0  0
   -5.7480    1.5453    0.0179 H   0  0  0  0  0  0  0  0  0  0  0  0
   -4.0877    2.2173   -0.3549 H   0  0  0  0  0  0  0  0  0  0  0  0
   -4.8810    1.0685   -1.5351 H   0  0  0  0  0  0  0  0  0  0  0  0
   -4.5048   -0.7491   -0.2402 H   0  0  0  0  0  0  0  0  0  0  0  0
   -4.1409    0.1965    1.2925 H   0  0  0  0  0  0  0  0  0  0  0  0
   -2.5106    0.2796   -1.3111 H   0  0  0  0  0  0  0  0  0  0  0  0
   -2.2096    1.2770    0.1143 H   0  0  0  0  0  0  0  0  0  0  0  0
   -2.1795   -1.7940   -0.0136 H   0  0  0  0  0  0  0  0  0  0  0  0
   -1.7437   -0.8063    1.4809 H   0  0  0  0  0  0  0  0  0  0  0  0
   -0.3560   -0.6598   -1.1766 H   0  0  0  0  0  0  0  0  0  0  0  0
   -0.0397    0.3628    0.2859 H   0  0  0  0  0  0  0  0  0  0  0  0
    0.6181   -1.6272    1.5773 H   0  0  0  0  0  0  0  0  0  0  0  0
    0.2572   -2.7281    0.2428 H   0  0  0  0  0  0  0  0  0  0  0  0
    2.6658   -2.2749    0.2976 H   0  0  0  0  0  0  0  0  0  0  0  0
    1.9824   -1.4197   -1.1546 H   0  0  0  0  0  0  0  0  0  0  0  0
    1.9460    0.7157    0.0433 H   0  0  0  0  0  0  0  0  0  0  0  0
    2.5434   -0.0570    1.5165 H   0  0  0  0  0  0  0  0  0  0  0  0
    3.9572   -0.0277   -1.2311 H   0  0  0  0  0  0  0  0  0  0  0  0
    4.6031   -0.8184    0.2434 H   0  0  0  0  0  0  0  0  0  0  0  0
    4.0548    3.2209    0.8853 H   0  0  0  0  0  0  0  0  0  0  0  0
  1  2  1  0
  2  3  1  0
  3  4  1  0
  4  5  1  0
  5  6  1  0
  6  7  1  0
  7  8  1  0
  8  9  1  0
  9 10  1  0
 10 11  2  0
 10 12  1  0
  1 13  1  0
  1 14  1  0
  1 15  1  0
  2 16  1  0
  2 17  1  0
  3 18  1  0
  3 19  1  0
  4 20  1  0
  4 21  1  0
  5 22  1  0
  5 23  1  0
  6 24  1  0
  6 25  1  0
  7 26  1  0
  7 27  1  0
  8 28  1  0
  8 29  1  0
  9 30  1  0
  9 31  1  0
 12 32  1  0
M  END
>  <Ligand ID>  (1) 
LIG0000086

>  <Ligand>  (1) 
decanoic acid

>  <SMILES>  (1) 
CCCCCCCCCC(=O)O

>  <CID>  (1) 
2969.0

>  <ChEMBL ID>  (1) 
nan

>  <InChiKey>  (1) 
GHVNFZFCNZKVNT-UHFFFAOYSA-N

>  <InChi>  (1) 
InChI=1S/C10H20O2/c1-2-3-4-5-6-7-8-9-10(11)12/h2-9H2,1H3,(H,11,12)

>  <IUPAC Name>  (1) 
decanoic acid

$$$$
