
     RDKit          3D

202208  0  0  0  0  0  0  0  0999 V2000
  -11.0812   -6.6985    0.4577 N   0  0  0  0  0  0  0  0  0  0  0  0
  -11.8572   -5.5352    0.4293 C   0  0  0  0  0  0  0  0  0  0  0  0
  -12.9931   -5.6122    1.0390 O   0  0  0  0  0  0  0  0  0  0  0  0
  -11.5762   -4.2392   -0.1892 C   0  0  0  0  0  0  0  0  0  0  0  0
  -10.3214   -4.1614   -0.8629 N   0  0  0  0  0  0  0  0  0  0  0  0
   -9.0352   -4.3499   -0.2961 C   0  0  0  0  0  0  0  0  0  0  0  0
   -9.0083   -4.6115    0.9425 O   0  0  0  0  0  0  0  0  0  0  0  0
   -7.7703   -4.2521   -1.0465 C   0  0  1  0  0  0  0  0  0  0  0  0
   -6.6262   -4.1944   -0.1210 N   0  0  0  0  0  0  0  0  0  0  0  0
   -5.7744   -3.0919   -0.2081 C   0  0  0  0  0  0  0  0  0  0  0  0
   -6.0382   -2.2265   -1.1119 O   0  0  0  0  0  0  0  0  0  0  0  0
   -4.5960   -2.7840    0.6120 C   0  0  1  0  0  0  0  0  0  0  0  0
   -3.8161   -1.7206    0.0091 N   0  0  0  0  0  0  0  0  0  0  0  0
   -2.6511   -1.1056    0.5327 C   0  0  0  0  0  0  0  0  0  0  0  0
   -2.2542   -1.4889    1.6431 O   0  0  0  0  0  0  0  0  0  0  0  0
   -2.0349   -0.0537   -0.3117 C   0  0  2  0  0  0  0  0  0  0  0  0
   -1.1821   -0.7107   -1.3957 C   0  0  0  0  0  0  0  0  0  0  0  0
   -0.1685   -2.0552   -0.8244 S   0  0  0  0  0  0  0  0  0  0  0  0
    1.2489   -1.7217    0.6266 S   0  0  0  0  0  0  0  0  0  0  0  0
    2.8854   -1.2404    0.0883 C   0  0  0  0  0  0  0  0  0  0  0  0
    3.0322   -1.4518   -1.3727 C   0  0  2  0  0  0  0  0  0  0  0  0
    2.8312   -2.7864   -1.8268 N   0  0  0  0  0  0  0  0  0  0  0  0
    3.9112   -3.6880   -1.7959 C   0  0  0  0  0  0  0  0  0  0  0  0
    5.0088   -3.1869   -1.3297 O   0  0  0  0  0  0  0  0  0  0  0  0
    3.9626   -5.0714   -2.2127 C   0  0  2  0  0  0  0  0  0  0  0  0
    2.9227   -6.0155   -1.6762 C   0  0  0  0  0  0  0  0  0  0  0  0
    3.2024   -7.3951   -2.2775 C   0  0  0  0  0  0  0  0  0  0  0  0
    1.5620   -5.6176   -2.2700 C   0  0  0  0  0  0  0  0  0  0  0  0
    5.3116   -5.6229   -2.0085 N   0  0  0  0  0  0  0  0  0  0  0  0
    5.6690   -6.5514   -1.0253 C   0  0  0  0  0  0  0  0  0  0  0  0
    4.8854   -7.0362   -0.1498 O   0  0  0  0  0  0  0  0  0  0  0  0
    7.0772   -7.0726   -0.9227 C   0  0  2  0  0  0  0  0  0  0  0  0
    7.6238   -6.6194    0.4403 C   0  0  0  0  0  0  0  0  0  0  0  0
    9.0077   -7.1287    0.5914 C   0  0  0  0  0  0  0  0  0  0  0  0
    9.1330   -8.3617    1.2353 C   0  0  0  0  0  0  0  0  0  0  0  0
   10.3897   -8.8784    1.3935 C   0  0  0  0  0  0  0  0  0  0  0  0
   11.5204   -8.2200    0.9388 C   0  0  0  0  0  0  0  0  0  0  0  0
   11.3660   -6.9830    0.2971 C   0  0  0  0  0  0  0  0  0  0  0  0
   10.1058   -6.4345    0.1219 C   0  0  0  0  0  0  0  0  0  0  0  0
   12.7959   -8.7553    1.1051 O   0  0  0  0  0  0  0  0  0  0  0  0
    7.9342   -6.5611   -1.9463 N   0  0  0  0  0  0  0  0  0  0  0  0
    4.2224   -0.8076   -2.0100 C   0  0  0  0  0  0  0  0  0  0  0  0
    4.8220   -1.2544   -2.9961 O   0  0  0  0  0  0  0  0  0  0  0  0
    4.7802    0.4330   -1.5099 N   0  0  0  0  0  0  0  0  0  0  0  0
    5.8956    1.0944   -2.1452 C   0  0  0  0  0  0  0  0  0  0  0  0
    6.2810    2.3181   -1.3943 C   0  0  0  0  0  0  0  0  0  0  0  0
    7.0659    3.1054   -1.9216 O   0  0  0  0  0  0  0  0  0  0  0  0
    5.8278    2.6470   -0.0885 N   0  0  0  0  0  0  0  0  0  0  0  0
    5.9537    3.9482    0.5412 C   0  0  2  0  0  0  0  0  0  0  0  0
    5.1304    4.8701   -0.3082 C   0  0  0  0  0  0  0  0  0  0  0  0
    4.7348    4.3755   -1.3889 O   0  0  0  0  0  0  0  0  0  0  0  0
    4.7515    6.1908   -0.0474 N   0  0  0  0  0  0  0  0  0  0  0  0
    3.7945    6.7519   -1.0607 C   0  0  1  0  0  0  0  0  0  0  0  0
    2.4717    6.3358   -0.4746 C   0  0  0  0  0  0  0  0  0  0  0  0
    2.2850    6.2539    0.7370 O   0  0  0  0  0  0  0  0  0  0  0  0
    1.3362    5.9875   -1.3028 N   0  0  0  0  0  0  0  0  0  0  0  0
    0.1585    5.5589   -0.6029 C   0  0  2  0  0  0  0  0  0  0  0  0
    0.5670    4.2764    0.2025 C   0  0  0  0  0  0  0  0  0  0  0  0
    1.6867    3.7982    0.0975 O   0  0  0  0  0  0  0  0  0  0  0  0
   -0.3428    3.6471    1.0619 N   0  0  0  0  0  0  0  0  0  0  0  0
   -0.1344    2.5162    1.9358 C   0  0  2  0  0  0  0  0  0  0  0  0
   -0.7227    1.2322    1.5302 C   0  0  0  0  0  0  0  0  0  0  0  0
   -0.7009    0.2888    2.3285 O   0  0  0  0  0  0  0  0  0  0  0  0
   -1.3095    0.9765    0.2781 N   0  0  0  0  0  0  0  0  0  0  0  0
   -0.3977    2.9089    3.3765 C   0  0  0  0  0  0  0  0  0  0  0  0
   -1.7317    3.4725    3.5683 C   0  0  0  0  0  0  0  0  0  0  0  0
   -1.9103    4.8814    3.6144 C   0  0  0  0  0  0  0  0  0  0  0  0
   -3.2142    5.1464    3.7582 N   0  0  0  0  0  0  0  0  0  0  0  0
   -3.8982    4.0042    3.8113 C   0  0  0  0  0  0  0  0  0  0  0  0
   -2.9853    2.9787    3.6948 C   0  0  0  0  0  0  0  0  0  0  0  0
   -3.4586    1.6993    3.7274 C   0  0  0  0  0  0  0  0  0  0  0  0
   -4.8051    1.4705    3.8691 C   0  0  0  0  0  0  0  0  0  0  0  0
   -5.7305    2.5001    3.9850 C   0  0  0  0  0  0  0  0  0  0  0  0
   -5.2538    3.7884    3.9530 C   0  0  0  0  0  0  0  0  0  0  0  0
   -1.0497    5.2632   -1.3392 C   0  0  0  0  0  0  0  0  0  0  0  0
   -1.8634    6.1530   -2.1547 C   0  0  0  0  0  0  0  0  0  0  0  0
   -1.3218    6.8345   -3.3382 C   0  0  0  0  0  0  0  0  0  0  0  0
   -0.3589    7.8200   -3.1149 N   0  0  0  0  0  0  0  0  0  0  0  0
   -0.2335    8.7182   -2.2345 C   0  0  0  0  0  0  0  0  0  0  0  0
   -1.1408    8.9487   -1.1537 N   0  0  0  0  0  0  0  0  0  0  0  0
    0.8729    9.6180   -2.3623 N   0  0  0  0  0  0  0  0  0  0  0  0
    3.9953    8.2200   -1.1289 C   0  0  0  0  0  0  0  0  0  0  0  0
    3.8043    8.8880    0.1894 C   0  0  0  0  0  0  0  0  0  0  0  0
    4.9358    9.1610    0.9556 C   0  0  0  0  0  0  0  0  0  0  0  0
    4.8540    9.7669    2.1959 C   0  0  0  0  0  0  0  0  0  0  0  0
    3.6326   10.1259    2.7255 C   0  0  0  0  0  0  0  0  0  0  0  0
    2.5076    9.8545    1.9658 C   0  0  0  0  0  0  0  0  0  0  0  0
    2.6013    9.2462    0.7187 C   0  0  0  0  0  0  0  0  0  0  0  0
    7.2231    4.4207    1.0477 C   0  0  0  0  0  0  0  0  0  0  0  0
    8.3884    4.5524    0.1576 C   0  0  0  0  0  0  0  0  0  0  0  0
    9.3999    3.5804    0.0179 C   0  0  0  0  0  0  0  0  0  0  0  0
   10.3416    4.0707   -0.8428 N   0  0  0  0  0  0  0  0  0  0  0  0
    9.9590    5.2928   -1.2368 C   0  0  0  0  0  0  0  0  0  0  0  0
    8.7959    5.5578   -0.6296 N   0  0  0  0  0  0  0  0  0  0  0  0
   -5.1148   -2.2793    1.9873 C   0  0  0  0  0  0  0  0  0  0  0  0
   -5.9545   -3.2700    2.7024 C   0  0  0  0  0  0  0  0  0  0  0  0
   -6.3269   -2.6843    4.0810 C   0  0  0  0  0  0  0  0  0  0  0  0
   -7.0775   -1.4695    3.9866 N   0  0  0  0  0  0  0  0  0  0  0  0
   -8.2741   -1.3653    4.5265 C   0  0  0  0  0  0  0  0  0  0  0  0
   -9.0354   -0.1667    4.4440 N   0  0  0  0  0  0  0  0  0  0  0  0
   -8.8543   -2.4681    5.2105 N   0  0  0  0  0  0  0  0  0  0  0  0
   -7.6003   -5.4194   -1.9788 C   0  0  0  0  0  0  0  0  0  0  0  0
   -8.6906   -5.4872   -2.9508 C   0  0  0  0  0  0  0  0  0  0  0  0
   -8.6598   -4.6653   -4.0658 C   0  0  0  0  0  0  0  0  0  0  0  0
   -9.6445   -4.7364   -5.0186 C   0  0  0  0  0  0  0  0  0  0  0  0
  -10.7167   -5.6046   -4.9518 C   0  0  0  0  0  0  0  0  0  0  0  0
  -10.7383   -6.4280   -3.8213 C   0  0  0  0  0  0  0  0  0  0  0  0
   -9.7654   -6.3785   -2.8528 C   0  0  0  0  0  0  0  0  0  0  0  0
  -11.3160   -7.4459   -0.2672 H   0  0  0  0  0  0  0  0  0  0  0  0
  -10.3144   -6.9372    1.0954 H   0  0  0  0  0  0  0  0  0  0  0  0
  -12.4267   -4.0180   -0.8987 H   0  0  0  0  0  0  0  0  0  0  0  0
  -11.6679   -3.4257    0.6091 H   0  0  0  0  0  0  0  0  0  0  0  0
  -10.3469   -3.8973   -1.8860 H   0  0  0  0  0  0  0  0  0  0  0  0
   -7.7819   -3.2877   -1.6455 H   0  0  0  0  0  0  0  0  0  0  0  0
   -6.4040   -4.9407    0.5591 H   0  0  0  0  0  0  0  0  0  0  0  0
   -4.0162   -3.6437    0.8753 H   0  0  0  0  0  0  0  0  0  0  0  0
   -4.1856   -1.3842   -0.9415 H   0  0  0  0  0  0  0  0  0  0  0  0
   -2.9182    0.4232   -0.8933 H   0  0  0  0  0  0  0  0  0  0  0  0
   -0.5382    0.1025   -1.7856 H   0  0  0  0  0  0  0  0  0  0  0  0
   -1.8915   -1.0499   -2.1776 H   0  0  0  0  0  0  0  0  0  0  0  0
    3.6826   -1.8678    0.5797 H   0  0  0  0  0  0  0  0  0  0  0  0
    3.0311   -0.1878    0.4109 H   0  0  0  0  0  0  0  0  0  0  0  0
    2.1191   -0.8735   -1.8209 H   0  0  0  0  0  0  0  0  0  0  0  0
    1.9222   -3.0912   -2.1735 H   0  0  0  0  0  0  0  0  0  0  0  0
    3.8088   -5.1465   -3.3333 H   0  0  0  0  0  0  0  0  0  0  0  0
    2.8412   -6.0978   -0.6085 H   0  0  0  0  0  0  0  0  0  0  0  0
    2.4881   -7.5857   -3.1485 H   0  0  0  0  0  0  0  0  0  0  0  0
    2.9652   -8.2079   -1.5721 H   0  0  0  0  0  0  0  0  0  0  0  0
    4.1906   -7.5079   -2.7209 H   0  0  0  0  0  0  0  0  0  0  0  0
    1.0234   -6.5705   -2.5401 H   0  0  0  0  0  0  0  0  0  0  0  0
    0.9392   -5.0780   -1.5639 H   0  0  0  0  0  0  0  0  0  0  0  0
    1.6791   -5.0933   -3.2240 H   0  0  0  0  0  0  0  0  0  0  0  0
    6.0363   -5.2692   -2.6713 H   0  0  0  0  0  0  0  0  0  0  0  0
    7.0728   -8.1786   -0.9838 H   0  0  0  0  0  0  0  0  0  0  0  0
    6.9374   -6.9380    1.2343 H   0  0  0  0  0  0  0  0  0  0  0  0
    7.6162   -5.4976    0.4421 H   0  0  0  0  0  0  0  0  0  0  0  0
    8.2600   -8.8948    1.5975 H   0  0  0  0  0  0  0  0  0  0  0  0
   10.4600   -9.8379    1.9026 H   0  0  0  0  0  0  0  0  0  0  0  0
   12.2511   -6.4586   -0.0620 H   0  0  0  0  0  0  0  0  0  0  0  0
    9.9396   -5.4777   -0.3775 H   0  0  0  0  0  0  0  0  0  0  0  0
   12.9232   -9.4243    1.8469 H   0  0  0  0  0  0  0  0  0  0  0  0
    7.9649   -5.5351   -2.0468 H   0  0  0  0  0  0  0  0  0  0  0  0
    8.0106   -7.1048   -2.8062 H   0  0  0  0  0  0  0  0  0  0  0  0
    4.3070    0.7893   -0.6888 H   0  0  0  0  0  0  0  0  0  0  0  0
    5.5705    1.3209   -3.1807 H   0  0  0  0  0  0  0  0  0  0  0  0
    6.7861    0.4187   -2.2660 H   0  0  0  0  0  0  0  0  0  0  0  0
    5.4045    1.8724    0.4294 H   0  0  0  0  0  0  0  0  0  0  0  0
    5.2495    3.8478    1.4846 H   0  0  0  0  0  0  0  0  0  0  0  0
    5.1058    6.6718    0.7437 H   0  0  0  0  0  0  0  0  0  0  0  0
    3.9283    6.2780   -2.0359 H   0  0  0  0  0  0  0  0  0  0  0  0
    1.5045    6.0730   -2.2941 H   0  0  0  0  0  0  0  0  0  0  0  0
   -0.0070    6.3112    0.2212 H   0  0  0  0  0  0  0  0  0  0  0  0
   -1.2976    4.0544    1.0853 H   0  0  0  0  0  0  0  0  0  0  0  0
    0.9861    2.3455    1.9042 H   0  0  0  0  0  0  0  0  0  0  0  0
   -1.1249    1.8279   -0.3835 H   0  0  0  0  0  0  0  0  0  0  0  0
    0.4089    3.5947    3.7154 H   0  0  0  0  0  0  0  0  0  0  0  0
   -0.2914    1.9942    3.9862 H   0  0  0  0  0  0  0  0  0  0  0  0
   -1.1399    5.6297    3.5534 H   0  0  0  0  0  0  0  0  0  0  0  0
   -3.6494    6.1174    3.8206 H   0  0  0  0  0  0  0  0  0  0  0  0
   -2.7917    0.8979    3.6566 H   0  0  0  0  0  0  0  0  0  0  0  0
   -5.1183    0.4260    3.8806 H   0  0  0  0  0  0  0  0  0  0  0  0
   -6.7756    2.3422    4.0933 H   0  0  0  0  0  0  0  0  0  0  0  0
   -5.9222    4.6356    4.0394 H   0  0  0  0  0  0  0  0  0  0  0  0
   -0.8751    4.2853   -1.9861 H   0  0  0  0  0  0  0  0  0  0  0  0
   -1.8073    4.7852   -0.6014 H   0  0  0  0  0  0  0  0  0  0  0  0
   -2.7959    5.5814   -2.5131 H   0  0  0  0  0  0  0  0  0  0  0  0
   -2.3902    6.9335   -1.4723 H   0  0  0  0  0  0  0  0  0  0  0  0
   -2.1800    7.2348   -3.9989 H   0  0  0  0  0  0  0  0  0  0  0  0
   -0.8896    6.0445   -4.0459 H   0  0  0  0  0  0  0  0  0  0  0  0
   -0.9261    8.5889   -0.1743 H   0  0  0  0  0  0  0  0  0  0  0  0
   -2.0340    9.4863   -1.3518 H   0  0  0  0  0  0  0  0  0  0  0  0
    1.5416    9.5513   -3.1956 H   0  0  0  0  0  0  0  0  0  0  0  0
    1.0915   10.3708   -1.6970 H   0  0  0  0  0  0  0  0  0  0  0  0
    5.0731    8.4020   -1.4294 H   0  0  0  0  0  0  0  0  0  0  0  0
    3.3690    8.6478   -1.9198 H   0  0  0  0  0  0  0  0  0  0  0  0
    5.9227    8.8939    0.5765 H   0  0  0  0  0  0  0  0  0  0  0  0
    5.7479    9.9638    2.7563 H   0  0  0  0  0  0  0  0  0  0  0  0
    3.6170   10.5996    3.6921 H   0  0  0  0  0  0  0  0  0  0  0  0
    1.5641   10.1380    2.4015 H   0  0  0  0  0  0  0  0  0  0  0  0
    1.7023    9.0675    0.1980 H   0  0  0  0  0  0  0  0  0  0  0  0
    7.5046    3.8297    1.9773 H   0  0  0  0  0  0  0  0  0  0  0  0
    7.0570    5.4558    1.4996 H   0  0  0  0  0  0  0  0  0  0  0  0
    9.4346    2.6103    0.5007 H   0  0  0  0  0  0  0  0  0  0  0  0
   11.2225    3.6222   -1.1716 H   0  0  0  0  0  0  0  0  0  0  0  0
   10.5228    5.9132   -1.9258 H   0  0  0  0  0  0  0  0  0  0  0  0
   -5.5706   -1.2799    1.8591 H   0  0  0  0  0  0  0  0  0  0  0  0
   -4.1986   -2.1270    2.5987 H   0  0  0  0  0  0  0  0  0  0  0  0
   -5.4501   -4.2225    2.8962 H   0  0  0  0  0  0  0  0  0  0  0  0
   -6.9135   -3.4937    2.1665 H   0  0  0  0  0  0  0  0  0  0  0  0
   -6.8753   -3.4616    4.6702 H   0  0  0  0  0  0  0  0  0  0  0  0
   -5.4105   -2.4833    4.6710 H   0  0  0  0  0  0  0  0  0  0  0  0
   -8.4967    0.7284    4.4544 H   0  0  0  0  0  0  0  0  0  0  0  0
  -10.0780   -0.1750    4.3808 H   0  0  0  0  0  0  0  0  0  0  0  0
   -8.9836   -3.3906    4.7093 H   0  0  0  0  0  0  0  0  0  0  0  0
   -9.1672   -2.4318    6.2064 H   0  0  0  0  0  0  0  0  0  0  0  0
   -7.5887   -6.3419   -1.3228 H   0  0  0  0  0  0  0  0  0  0  0  0
   -6.6010   -5.3351   -2.4816 H   0  0  0  0  0  0  0  0  0  0  0  0
   -7.8670   -3.9479   -4.2260 H   0  0  0  0  0  0  0  0  0  0  0  0
   -9.5911   -4.0827   -5.8698 H   0  0  0  0  0  0  0  0  0  0  0  0
  -11.4710   -5.6354   -5.7126 H   0  0  0  0  0  0  0  0  0  0  0  0
  -11.5745   -7.1084   -3.7637 H   0  0  0  0  0  0  0  0  0  0  0  0
   -9.7854   -7.0102   -2.0020 H   0  0  0  0  0  0  0  0  0  0  0  0
  1  2  1  0
  2  3  2  0
  2  4  1  0
  4  5  1  0
  5  6  1  0
  6  7  2  0
  6  8  1  0
  8  9  1  0
  9 10  1  0
 10 11  2  0
 10 12  1  0
 12 13  1  0
 13 14  1  0
 14 15  2  0
 14 16  1  0
 16 17  1  0
 17 18  1  0
 18 19  1  0
 19 20  1  0
 20 21  1  0
 21 22  1  0
 22 23  1  0
 23 24  2  0
 23 25  1  0
 25 26  1  0
 26 27  1  0
 26 28  1  0
 25 29  1  0
 29 30  1  0
 30 31  2  0
 30 32  1  0
 32 33  1  0
 33 34  1  0
 34 35  2  0
 35 36  1  0
 36 37  2  0
 37 38  1  0
 38 39  2  0
 37 40  1  0
 32 41  1  0
 21 42  1  0
 42 43  2  0
 42 44  1  0
 44 45  1  0
 45 46  1  0
 46 47  2  0
 46 48  1  0
 48 49  1  0
 49 50  1  0
 50 51  2  0
 50 52  1  0
 52 53  1  0
 53 54  1  0
 54 55  2  0
 54 56  1  0
 56 57  1  0
 57 58  1  0
 58 59  2  0
 58 60  1  0
 60 61  1  0
 61 62  1  0
 62 63  2  0
 62 64  1  0
 61 65  1  0
 65 66  1  0
 66 67  2  0
 67 68  1  0
 68 69  1  0
 69 70  2  0
 70 71  1  0
 71 72  2  0
 72 73  1  0
 73 74  2  0
 57 75  1  0
 75 76  1  0
 76 77  1  0
 77 78  1  0
 78 79  2  3
 79 80  1  0
 79 81  1  0
 53 82  1  0
 82 83  1  0
 83 84  2  0
 84 85  1  0
 85 86  2  0
 86 87  1  0
 87 88  2  0
 49 89  1  0
 89 90  1  0
 90 91  2  0
 91 92  1  0
 92 93  1  0
 93 94  2  0
 12 95  1  0
 95 96  1  0
 96 97  1  0
 97 98  1  0
 98 99  2  3
 99100  1  0
 99101  1  0
  8102  1  0
102103  1  0
103104  2  0
104105  1  0
105106  2  0
106107  1  0
107108  2  0
 64 16  1  0
 70 66  1  0
 88 83  1  0
 94 90  1  0
108103  1  0
 39 34  1  0
 74 69  1  0
  1109  1  0
  1110  1  0
  4111  1  0
  4112  1  0
  5113  1  0
  8114  1  6
  9115  1  0
 12116  1  1
 13117  1  0
 16118  1  6
 17119  1  0
 17120  1  0
 20121  1  0
 20122  1  0
 21123  1  6
 22124  1  0
 25125  1  6
 26126  1  0
 27127  1  0
 27128  1  0
 27129  1  0
 28130  1  0
 28131  1  0
 28132  1  0
 29133  1  0
 32134  1  1
 33135  1  0
 33136  1  0
 35137  1  0
 36138  1  0
 38139  1  0
 39140  1  0
 40141  1  0
 41142  1  0
 41143  1  0
 44144  1  0
 45145  1  0
 45146  1  0
 48147  1  0
 49148  1  1
 52149  1  0
 53150  1  6
 56151  1  0
 57152  1  1
 60153  1  0
 61154  1  1
 64155  1  0
 65156  1  0
 65157  1  0
 67158  1  0
 68159  1  0
 71160  1  0
 72161  1  0
 73162  1  0
 74163  1  0
 75164  1  0
 75165  1  0
 76166  1  0
 76167  1  0
 77168  1  0
 77169  1  0
 80170  1  0
 80171  1  0
 81172  1  0
 81173  1  0
 82174  1  0
 82175  1  0
 84176  1  0
 85177  1  0
 86178  1  0
 87179  1  0
 88180  1  0
 89181  1  0
 89182  1  0
 91183  1  0
 92184  1  0
 93185  1  0
 95186  1  0
 95187  1  0
 96188  1  0
 96189  1  0
 97190  1  0
 97191  1  0
100192  1  0
100193  1  0
101194  1  0
101195  1  0
102196  1  0
102197  1  0
104198  1  0
105199  1  0
106200  1  0
107201  1  0
108202  1  0
M  END
>  <Ligand ID>  (1) 
LIG0003415

>  <Ligand>  (1) 
CID 44363974

>  <SMILES>  (1) 
NC(=O)CNC(=O)[C@@H](NC(=O)[C@@H](NC(=O)[C@@H]1CSSC[C@H](NC(=O)[C@H](C(C)C)NC(=O)[C@H](Cc2ccc(cc2)O)N)C(=O)NCC(=O)N[C@H](C(=O)N[C@@H](C(=O)N[C@H](C(=O)N[C@H](C(=O)N1)Cc1c[nH]c2c1cccc2)CCCN=C(N)N)Cc1ccccc1)Cc1c[nH]cn1)CCCN=C(N)N)Cc1ccccc1

>  <CID>  (1) 
44363974.0

>  <ChEMBL ID>  (1) 
nan

>  <InChiKey>  (1) 
SMAWMSUKCNWJNR-YAUXYEBKSA-N

>  <InChi>  (1) 
InChI=1S/C71H94N22O13S2/c1-39(2)59(93-60(97)47(72)27-42-21-23-45(94)24-22-42)69(106)92-55-36-107-108-37-56(68(105)87-50(20-12-26-80-71(76)77)63(100)88-51(61(98)82-34-57(73)95)28-40-13-5-3-6-14-40)91-66(103)53(30-43-32-81-48-18-10-9-17-46(43)48)90-64(101)49(19-11-25-79-70(74)75)86-65(102)52(29-41-15-7-4-8-16-41)89-67(104)54(31-44-33-78-38-84-44)85-58(96)35-83-62(55)99/h3-10,13-18,21-24,32-33,38-39,47,49-56,59,81,94H,11-12,19-20,25-31,34-37,72H2,1-2H3,(H2,73,95)(H,78,84)(H,82,98)(H,83,99)(H,85,96)(H,86,102)(H,87,105)(H,88,100)(H,89,104)(H,90,101)(H,91,103)(H,92,106)(H,93,97)(H4,74,75,79)(H4,76,77,80)/t47-,49-,50-,51-,52+,53-,54-,55-,56-,59-/m0/s1

>  <IUPAC Name>  (1) 
(4R,7S,10S,13R,16S,22R)-22-[[(2S)-2-[[(2S)-2-amino-3-(4-hydroxyphenyl)propanoyl]amino]-3-methylbutanoyl]amino]-N-[(2S)-1-[[(2S)-1-[(2-amino-2-oxoethyl)amino]-1-oxo-3-phenylpropan-2-yl]amino]-5-(diaminomethylideneamino)-1-oxopentan-2-yl]-13-benzyl-10-[3-(diaminomethylideneamino)propyl]-16-(1H-imidazol-4-ylmethyl)-7-(1H-indol-3-ylmethyl)-6,9,12,15,18,21-hexaoxo-1,2-dithia-5,8,11,14,17,20-hexazacyclotricosane-4-carboxamide

$$$$
