
     RDKit          3D

 25 25  0  0  0  0  0  0  0  0999 V2000
   -2.8660   -0.3286   -0.9267 C   0  0  0  0  0  0  0  0  0  0  0  0
   -1.9870    0.4714   -0.0821 C   0  0  0  0  0  0  0  0  0  0  0  0
   -0.5462    0.2108   -0.0955 C   0  0  0  0  0  0  0  0  0  0  0  0
   -0.1314   -1.1053    0.1133 C   0  0  0  0  0  0  0  0  0  0  0  0
    1.2143   -1.4147    0.1121 C   0  0  0  0  0  0  0  0  0  0  0  0
    2.1578   -0.4272   -0.0950 C   0  0  0  0  0  0  0  0  0  0  0  0
    1.7581    0.8842   -0.3035 C   0  0  0  0  0  0  0  0  0  0  0  0
    0.4134    1.2095   -0.3052 C   0  0  0  0  0  0  0  0  0  0  0  0
    2.7280    1.8671   -0.5110 O   0  0  0  0  0  0  0  0  0  0  0  0
    3.6083   -0.7194   -0.1033 C   0  0  0  0  0  0  0  0  0  0  0  0
   -2.4270    0.3233    1.3839 C   0  0  0  0  0  0  0  0  0  0  0  0
   -3.5437   -1.0069   -0.3434 H   0  0  0  0  0  0  0  0  0  0  0  0
   -3.5733    0.3357   -1.5003 H   0  0  0  0  0  0  0  0  0  0  0  0
   -2.4140   -0.9632   -1.7045 H   0  0  0  0  0  0  0  0  0  0  0  0
   -2.1169    1.5708   -0.2651 H   0  0  0  0  0  0  0  0  0  0  0  0
   -0.8236   -1.9148    0.2798 H   0  0  0  0  0  0  0  0  0  0  0  0
    1.5246   -2.4373    0.2748 H   0  0  0  0  0  0  0  0  0  0  0  0
    0.0688    2.2435   -0.4684 H   0  0  0  0  0  0  0  0  0  0  0  0
    2.4587    2.8529   -0.4363 H   0  0  0  0  0  0  0  0  0  0  0  0
    4.2106    0.0418    0.4153 H   0  0  0  0  0  0  0  0  0  0  0  0
    3.8400   -1.6979    0.4034 H   0  0  0  0  0  0  0  0  0  0  0  0
    4.0081   -0.8468   -1.1295 H   0  0  0  0  0  0  0  0  0  0  0  0
   -3.3693    0.8612    1.5800 H   0  0  0  0  0  0  0  0  0  0  0  0
   -1.6325    0.7378    2.0641 H   0  0  0  0  0  0  0  0  0  0  0  0
   -2.5597   -0.7477    1.6430 H   0  0  0  0  0  0  0  0  0  0  0  0
  1  2  1  0
  2  3  1  0
  3  4  2  0
  4  5  1  0
  5  6  2  0
  6  7  1  0
  7  8  2  0
  7  9  1  0
  6 10  1  0
  2 11  1  0
  8  3  1  0
  1 12  1  0
  1 13  1  0
  1 14  1  0
  2 15  1  0
  4 16  1  0
  5 17  1  0
  8 18  1  0
  9 19  1  0
 10 20  1  0
 10 21  1  0
 10 22  1  0
 11 23  1  0
 11 24  1  0
 11 25  1  0
M  END
>  <Ligand ID>  (1) 
LIG0000311

>  <Ligand>  (1) 
carvacrol

>  <SMILES>  (1) 
CC(c1ccc(c(c1)O)C)C

>  <CID>  (1) 
10364.0

>  <ChEMBL ID>  (1) 
nan

>  <InChiKey>  (1) 
RECUKUPTGUEGMW-UHFFFAOYSA-N

>  <InChi>  (1) 
InChI=1S/C10H14O/c1-7(2)9-5-4-8(3)10(11)6-9/h4-7,11H,1-3H3

>  <IUPAC Name>  (1) 
2-methyl-5-propan-2-ylphenol

$$$$
