
     RDKit          3D

 95 98  0  0  0  0  0  0  0  0999 V2000
  -15.4113    0.2387   -0.4540 C   0  0  0  0  0  0  0  0  0  0  0  0
  -13.9218    0.2628   -0.7104 C   0  0  0  0  0  0  0  0  0  0  0  0
  -13.1827    1.0231    0.3731 C   0  0  0  0  0  0  0  0  0  0  0  0
  -11.6898    0.9717   -0.0059 C   0  0  0  0  0  0  0  0  0  0  0  0
  -10.8837    1.6930    1.0012 C   0  0  0  0  0  0  0  0  0  0  0  0
   -9.4461    1.8393    0.7904 C   0  0  0  0  0  0  0  0  0  0  0  0
   -8.5197    0.7077    0.6587 C   0  0  0  0  0  0  0  0  0  0  0  0
   -8.6255   -0.2233   -0.4866 C   0  0  0  0  0  0  0  0  0  0  0  0
   -7.5646   -1.2495   -0.3603 N   0  0  0  0  0  0  0  0  0  0  0  0
   -6.1924   -0.9418   -0.3663 C   0  0  0  0  0  0  0  0  0  0  0  0
   -5.6962    0.2003   -0.4806 O   0  0  0  0  0  0  0  0  0  0  0  0
   -5.2759   -2.0281   -0.2315 N   0  0  0  0  0  0  0  0  0  0  0  0
   -3.8662   -1.8619   -0.2268 C   0  0  0  0  0  0  0  0  0  0  0  0
   -3.2515   -1.9129   -1.4849 C   0  0  0  0  0  0  0  0  0  0  0  0
   -1.8853   -1.7647   -1.5403 C   0  0  0  0  0  0  0  0  0  0  0  0
   -1.1272   -1.5693   -0.3842 C   0  0  0  0  0  0  0  0  0  0  0  0
   -1.7287   -1.5186    0.8556 C   0  0  0  0  0  0  0  0  0  0  0  0
   -3.1196   -1.6691    0.9141 C   0  0  0  0  0  0  0  0  0  0  0  0
    0.5983   -1.4000   -0.6179 S   0  0  0  0  0  0  0  0  0  0  0  0
    1.0705   -2.2621   -1.7537 O   0  0  0  0  0  0  0  0  0  0  0  0
    1.2363   -2.0026    0.6279 O   0  0  0  0  0  0  0  0  0  0  0  0
    0.9920    0.2097   -0.7665 N   0  0  0  0  0  0  0  0  0  0  0  0
    0.7359    1.0775    0.2963 C   0  0  0  0  0  0  0  0  0  0  0  0
    2.0509    1.6206    0.8009 C   0  0  0  0  0  0  0  0  0  0  0  0
    2.9073    2.2147   -0.2492 C   0  0  0  0  0  0  0  0  0  0  0  0
    2.6788    1.7677   -1.6452 C   0  0  0  0  0  0  0  0  0  0  0  0
    1.6932    0.6788   -1.8807 C   0  0  0  0  0  0  0  0  0  0  0  0
    4.3630    1.8397    0.1113 C   0  0  0  0  0  0  0  0  0  0  0  0
    4.3574    0.4012    0.1032 N   0  0  0  0  0  0  0  0  0  0  0  0
    5.5868   -0.2577    0.3165 C   0  0  0  0  0  0  0  0  0  0  0  0
    6.0749   -0.0570    1.7246 C   0  0  1  0  0  0  0  0  0  0  0  0
    7.3255   -0.9026    1.8686 C   0  0  0  0  0  0  0  0  0  0  0  0
    8.2973   -0.3463    0.9787 O   0  0  0  0  0  0  0  0  0  0  0  0
    9.5724   -0.9343    0.8876 C   0  0  0  0  0  0  0  0  0  0  0  0
    9.8678   -2.0401    1.6569 C   0  0  0  0  0  0  0  0  0  0  0  0
   11.0824   -2.6723    1.6278 C   0  0  0  0  0  0  0  0  0  0  0  0
   12.0481   -2.1680    0.7836 C   0  0  0  0  0  0  0  0  0  0  0  0
   11.7811   -1.0692    0.0077 C   0  0  0  0  0  0  0  0  0  0  0  0
   10.5414   -0.4253    0.0384 C   0  0  0  0  0  0  0  0  0  0  0  0
   10.2565    0.7662   -0.8091 C   0  0  0  0  0  0  0  0  0  0  0  0
   11.5537    1.4989   -1.1084 C   0  0  0  0  0  0  0  0  0  0  0  0
   12.5646    0.5534   -1.6512 C   0  0  0  0  0  0  0  0  0  0  0  0
   13.1614    0.7119   -2.7361 O   0  0  0  0  0  0  0  0  0  0  0  0
   12.8400   -0.6056   -0.8377 N   0  0  0  0  0  0  0  0  0  0  0  0
   13.3011   -2.7966    0.7339 O   0  0  0  0  0  0  0  0  0  0  0  0
    6.3074    1.2524    2.0575 O   0  0  0  0  0  0  0  0  0  0  0  0
  -15.6104    0.7824    0.5049 H   0  0  0  0  0  0  0  0  0  0  0  0
  -15.9643    0.6680   -1.2960 H   0  0  0  0  0  0  0  0  0  0  0  0
  -15.7681   -0.8201   -0.3618 H   0  0  0  0  0  0  0  0  0  0  0  0
  -13.7575    0.7079   -1.7112 H   0  0  0  0  0  0  0  0  0  0  0  0
  -13.5162   -0.7725   -0.7889 H   0  0  0  0  0  0  0  0  0  0  0  0
  -13.3069    0.4839    1.3305 H   0  0  0  0  0  0  0  0  0  0  0  0
  -13.5377    2.0583    0.4586 H   0  0  0  0  0  0  0  0  0  0  0  0
  -11.4743   -0.1190    0.0903 H   0  0  0  0  0  0  0  0  0  0  0  0
  -11.5627    1.3932   -0.9957 H   0  0  0  0  0  0  0  0  0  0  0  0
  -11.1104    1.3410    2.0551 H   0  0  0  0  0  0  0  0  0  0  0  0
  -11.3100    2.7576    1.0380 H   0  0  0  0  0  0  0  0  0  0  0  0
   -9.2506    2.5683   -0.0765 H   0  0  0  0  0  0  0  0  0  0  0  0
   -9.0560    2.4796    1.6696 H   0  0  0  0  0  0  0  0  0  0  0  0
   -7.4583    1.1296    0.6155 H   0  0  0  0  0  0  0  0  0  0  0  0
   -8.4560    0.1152    1.6411 H   0  0  0  0  0  0  0  0  0  0  0  0
   -9.5685   -0.6928   -0.7121 H   0  0  0  0  0  0  0  0  0  0  0  0
   -8.3081    0.3094   -1.4509 H   0  0  0  0  0  0  0  0  0  0  0  0
   -7.8759   -2.2421   -0.2629 H   0  0  0  0  0  0  0  0  0  0  0  0
   -5.6159   -3.0263   -0.1267 H   0  0  0  0  0  0  0  0  0  0  0  0
   -3.8199   -2.0629   -2.3886 H   0  0  0  0  0  0  0  0  0  0  0  0
   -1.4284   -1.8076   -2.5235 H   0  0  0  0  0  0  0  0  0  0  0  0
   -1.1277   -1.3668    1.7408 H   0  0  0  0  0  0  0  0  0  0  0  0
   -3.6164   -1.6335    1.8738 H   0  0  0  0  0  0  0  0  0  0  0  0
    0.2745    0.5186    1.1338 H   0  0  0  0  0  0  0  0  0  0  0  0
    0.1306    1.9358   -0.0433 H   0  0  0  0  0  0  0  0  0  0  0  0
    2.5386    0.7730    1.3304 H   0  0  0  0  0  0  0  0  0  0  0  0
    1.8009    2.3489    1.6023 H   0  0  0  0  0  0  0  0  0  0  0  0
    2.8876    3.3202   -0.1406 H   0  0  0  0  0  0  0  0  0  0  0  0
    2.3496    2.6787   -2.2314 H   0  0  0  0  0  0  0  0  0  0  0  0
    3.6273    1.4912   -2.1625 H   0  0  0  0  0  0  0  0  0  0  0  0
    0.9058    1.0045   -2.6270 H   0  0  0  0  0  0  0  0  0  0  0  0
    2.1478   -0.2039   -2.4050 H   0  0  0  0  0  0  0  0  0  0  0  0
    4.4765    2.2366    1.1438 H   0  0  0  0  0  0  0  0  0  0  0  0
    5.0671    2.2782   -0.6046 H   0  0  0  0  0  0  0  0  0  0  0  0
    3.7783    0.0222   -0.6704 H   0  0  0  0  0  0  0  0  0  0  0  0
    6.3739    0.0119   -0.4340 H   0  0  0  0  0  0  0  0  0  0  0  0
    5.3727   -1.3670    0.2242 H   0  0  0  0  0  0  0  0  0  0  0  0
    5.2531   -0.4444    2.3860 H   0  0  0  0  0  0  0  0  0  0  0  0
    7.1180   -1.9562    1.5984 H   0  0  0  0  0  0  0  0  0  0  0  0
    7.6829   -0.8217    2.9125 H   0  0  0  0  0  0  0  0  0  0  0  0
    9.0800   -2.4030    2.3055 H   0  0  0  0  0  0  0  0  0  0  0  0
   11.2462   -3.5423    2.2638 H   0  0  0  0  0  0  0  0  0  0  0  0
    9.5938    1.4888   -0.2935 H   0  0  0  0  0  0  0  0  0  0  0  0
    9.7316    0.4854   -1.7597 H   0  0  0  0  0  0  0  0  0  0  0  0
   11.3646    2.3246   -1.8142 H   0  0  0  0  0  0  0  0  0  0  0  0
   11.8937    1.9484   -0.1440 H   0  0  0  0  0  0  0  0  0  0  0  0
   13.7757   -1.0669   -0.8819 H   0  0  0  0  0  0  0  0  0  0  0  0
   13.3428   -3.5976    0.0978 H   0  0  0  0  0  0  0  0  0  0  0  0
    7.2288    1.4350    2.3997 H   0  0  0  0  0  0  0  0  0  0  0  0
  1  2  1  0
  2  3  1  0
  3  4  1  0
  4  5  1  0
  5  6  1  0
  6  7  1  0
  7  8  1  0
  8  9  1  0
  9 10  1  0
 10 11  2  0
 10 12  1  0
 12 13  1  0
 13 14  2  0
 14 15  1  0
 15 16  2  0
 16 17  1  0
 17 18  2  0
 16 19  1  0
 19 20  2  0
 19 21  2  0
 19 22  1  0
 22 23  1  0
 23 24  1  0
 24 25  1  0
 25 26  1  0
 26 27  1  0
 25 28  1  0
 28 29  1  0
 29 30  1  0
 30 31  1  0
 31 32  1  0
 32 33  1  0
 33 34  1  0
 34 35  2  0
 35 36  1  0
 36 37  2  0
 37 38  1  0
 38 39  2  0
 39 40  1  0
 40 41  1  0
 41 42  1  0
 42 43  2  0
 42 44  1  0
 37 45  1  0
 31 46  1  0
 18 13  1  0
 27 22  1  0
 39 34  1  0
 44 38  1  0
  1 47  1  0
  1 48  1  0
  1 49  1  0
  2 50  1  0
  2 51  1  0
  3 52  1  0
  3 53  1  0
  4 54  1  0
  4 55  1  0
  5 56  1  0
  5 57  1  0
  6 58  1  0
  6 59  1  0
  7 60  1  0
  7 61  1  0
  8 62  1  0
  8 63  1  0
  9 64  1  0
 12 65  1  0
 14 66  1  0
 15 67  1  0
 17 68  1  0
 18 69  1  0
 23 70  1  0
 23 71  1  0
 24 72  1  0
 24 73  1  0
 25 74  1  0
 26 75  1  0
 26 76  1  0
 27 77  1  0
 27 78  1  0
 28 79  1  0
 28 80  1  0
 29 81  1  0
 30 82  1  0
 30 83  1  0
 31 84  1  1
 32 85  1  0
 32 86  1  0
 35 87  1  0
 36 88  1  0
 40 89  1  0
 40 90  1  0
 41 91  1  0
 41 92  1  0
 44 93  1  0
 45 94  1  0
 46 95  1  0
M  END
>  <Ligand ID>  (1) 
LIG0004290

>  <Ligand>  (1) 
CHEMBL327519

>  <SMILES>  (1) 
CCCCCCCCNC(=O)Nc1ccc(cc1)S(=O)(=O)N1CCC(CC1)CNC[C@@H](COc1ccc(c2c1CCC(=O)N2)O)O

>  <CID>  (1) 
10305108.0

>  <ChEMBL ID>  (1) 
nan

>  <InChiKey>  (1) 
SRQIEPXVDNZHRF-SANMLTNESA-N

>  <InChi>  (1) 
InChI=1S/C33H49N5O7S/c1-2-3-4-5-6-7-18-35-33(42)36-25-8-10-27(11-9-25)46(43,44)38-19-16-24(17-20-38)21-34-22-26(39)23-45-30-14-13-29(40)32-28(30)12-15-31(41)37-32/h8-11,13-14,24,26,34,39-40H,2-7,12,15-23H2,1H3,(H,37,41)(H2,35,36,42)/t26-/m0/s1

>  <IUPAC Name>  (1) 
1-[4-[4-[[[(2S)-2-hydroxy-3-[(8-hydroxy-2-oxo-3,4-dihydro-1H-quinolin-5-yl)oxy]propyl]amino]methyl]piperidin-1-yl]sulfonylphenyl]-3-octylurea

$$$$
