
     RDKit          3D

 93 94  0  0  0  0  0  0  0  0999 V2000
   -0.9920   -0.0925    0.0942 C   0  0  0  0  0  0  0  0  0  0  0  0
    0.4205    0.3003   -0.1686 C   0  0  0  0  0  0  0  0  0  0  0  0
    0.7550    1.4684   -0.5041 O   0  0  0  0  0  0  0  0  0  0  0  0
    1.3811   -0.6951   -0.0263 O   0  0  0  0  0  0  0  0  0  0  0  0
  -10.7453   -3.9392   -0.1283 O   0  0  0  0  0  0  0  0  0  0  0  0
  -11.2111   -2.7531   -0.6765 C   0  0  0  0  0  0  0  0  0  0  0  0
  -10.4837   -1.6125   -0.0683 C   0  0  0  0  0  0  0  0  0  0  0  0
   -9.4893   -0.9529   -0.7651 C   0  0  0  0  0  0  0  0  0  0  0  0
   -8.8583    0.0990   -0.1368 C   0  0  0  0  0  0  0  0  0  0  0  0
   -9.2158    0.4785    1.1562 C   0  0  0  0  0  0  0  0  0  0  0  0
  -10.1995   -0.1856    1.8263 C   0  0  0  0  0  0  0  0  0  0  0  0
  -10.8456   -1.2447    1.2128 C   0  0  0  0  0  0  0  0  0  0  0  0
  -11.8341   -1.8786    1.9427 O   0  0  0  0  0  0  0  0  0  0  0  0
   -7.7705    0.8931   -0.7758 C   0  0  2  0  0  0  0  0  0  0  0  0
   -6.4621    0.5471   -0.1128 C   0  0  0  0  0  0  0  0  0  0  0  0
   -5.4095    1.3076   -0.6995 N   0  0  0  0  0  0  0  0  0  0  0  0
   -5.0919    0.9515   -2.0535 C   0  0  0  0  0  0  0  0  0  0  0  0
   -3.9805    1.8164   -2.5630 C   0  0  0  0  0  0  0  0  0  0  0  0
   -2.7255    1.6372   -1.7891 C   0  0  0  0  0  0  0  0  0  0  0  0
   -2.7385    1.9245   -0.3471 C   0  0  0  0  0  0  0  0  0  0  0  0
   -1.3489    1.7165    0.3126 C   0  0  0  0  0  0  0  0  0  0  0  0
   -0.3657    2.6330   -0.3001 C   0  0  0  0  0  0  0  0  0  0  0  0
    0.8726    2.7692    0.1175 O   0  0  0  0  0  0  0  0  0  0  0  0
    1.8192    1.8692    0.2138 C   0  0  0  0  0  0  0  0  0  0  0  0
    1.6007    0.8079    1.2413 C   0  0  0  0  0  0  0  0  0  0  0  0
    2.7920   -0.1399    1.2136 C   0  0  0  0  0  0  0  0  0  0  0  0
    4.0999    0.5264    1.5293 C   0  0  0  0  0  0  0  0  0  0  0  0
    5.1379   -0.5737    1.4690 C   0  0  0  0  0  0  0  0  0  0  0  0
    5.4322   -1.2929    2.6187 C   0  0  0  0  0  0  0  0  0  0  0  0
    6.3715   -2.2972    2.6026 C   0  0  0  0  0  0  0  0  0  0  0  0
    7.0234   -2.5876    1.4299 C   0  0  0  0  0  0  0  0  0  0  0  0
    6.7493   -1.8897    0.2794 C   0  0  0  0  0  0  0  0  0  0  0  0
    5.7996   -0.8767    0.3024 C   0  0  0  0  0  0  0  0  0  0  0  0
    7.6012   -2.2936   -1.1800 S   0  0  0  0  0  0  0  0  0  0  0  0
    6.7829   -1.8969   -2.3838 O   0  0  0  0  0  0  0  0  0  0  0  0
    7.9202   -3.7539   -1.2038 O   0  0  0  0  0  0  0  0  0  0  0  0
    9.0478   -1.3508   -1.2295 N   0  0  0  0  0  0  0  0  0  0  0  0
    8.7055    0.0548   -1.2576 C   0  0  0  0  0  0  0  0  0  0  0  0
    9.9132    0.8427   -0.7355 C   0  0  0  0  0  0  0  0  0  0  0  0
   11.1810    0.0764   -1.0442 C   0  0  0  0  0  0  0  0  0  0  0  0
   11.2149   -1.2084   -0.2394 C   0  0  0  0  0  0  0  0  0  0  0  0
    9.7611   -1.6062    0.0080 C   0  0  0  0  0  0  0  0  0  0  0  0
   -7.9929    2.2581   -0.5975 O   0  0  0  0  0  0  0  0  0  0  0  0
   -1.6024    0.6861   -0.4060 H   0  0  0  0  0  0  0  0  0  0  0  0
   -1.2304   -1.1244   -0.2310 H   0  0  0  0  0  0  0  0  0  0  0  0
   -1.1016   -0.0590    1.2006 H   0  0  0  0  0  0  0  0  0  0  0  0
    2.3697   -0.4838    0.0413 H   0  0  0  0  0  0  0  0  0  0  0  0
   -9.8092   -3.7964    0.1464 H   0  0  0  0  0  0  0  0  0  0  0  0
  -10.9351   -2.7955   -1.7667 H   0  0  0  0  0  0  0  0  0  0  0  0
  -12.3052   -2.6106   -0.5557 H   0  0  0  0  0  0  0  0  0  0  0  0
   -9.2003   -1.2334   -1.7659 H   0  0  0  0  0  0  0  0  0  0  0  0
   -8.7145    1.3045    1.6385 H   0  0  0  0  0  0  0  0  0  0  0  0
  -10.4520    0.1355    2.8304 H   0  0  0  0  0  0  0  0  0  0  0  0
  -12.5725   -2.3605    1.4500 H   0  0  0  0  0  0  0  0  0  0  0  0
   -7.7550    0.6003   -1.8282 H   0  0  0  0  0  0  0  0  0  0  0  0
   -6.2255   -0.5377   -0.2015 H   0  0  0  0  0  0  0  0  0  0  0  0
   -6.4899    0.7361    0.9855 H   0  0  0  0  0  0  0  0  0  0  0  0
   -5.5687    2.3351   -0.6682 H   0  0  0  0  0  0  0  0  0  0  0  0
   -4.8561   -0.1376   -2.1442 H   0  0  0  0  0  0  0  0  0  0  0  0
   -6.0233    1.1116   -2.6611 H   0  0  0  0  0  0  0  0  0  0  0  0
   -4.3452    2.8715   -2.5686 H   0  0  0  0  0  0  0  0  0  0  0  0
   -3.7418    1.5646   -3.6399 H   0  0  0  0  0  0  0  0  0  0  0  0
   -1.9564    2.2987   -2.3089 H   0  0  0  0  0  0  0  0  0  0  0  0
   -2.3414    0.6088   -1.9999 H   0  0  0  0  0  0  0  0  0  0  0  0
   -3.3555    1.1359    0.1815 H   0  0  0  0  0  0  0  0  0  0  0  0
   -3.0532    2.9257   -0.0574 H   0  0  0  0  0  0  0  0  0  0  0  0
   -1.4454    1.8993    1.3871 H   0  0  0  0  0  0  0  0  0  0  0  0
   -1.1656    0.6369    0.0721 H   0  0  0  0  0  0  0  0  0  0  0  0
   -0.8232    3.6842   -0.3887 H   0  0  0  0  0  0  0  0  0  0  0  0
   -0.2802    2.3496   -1.4263 H   0  0  0  0  0  0  0  0  0  0  0  0
    2.1117    1.3751   -0.7702 H   0  0  0  0  0  0  0  0  0  0  0  0
    2.8012    2.4315    0.4425 H   0  0  0  0  0  0  0  0  0  0  0  0
    1.6435    1.2423    2.2928 H   0  0  0  0  0  0  0  0  0  0  0  0
    0.6681    0.2586    1.1907 H   0  0  0  0  0  0  0  0  0  0  0  0
    2.5645   -0.9654    1.8982 H   0  0  0  0  0  0  0  0  0  0  0  0
    2.9037   -0.5982    0.1922 H   0  0  0  0  0  0  0  0  0  0  0  0
    4.3807    1.3443    0.8668 H   0  0  0  0  0  0  0  0  0  0  0  0
    4.0808    0.9264    2.5697 H   0  0  0  0  0  0  0  0  0  0  0  0
    4.8895   -1.0315    3.5384 H   0  0  0  0  0  0  0  0  0  0  0  0
    6.5910   -2.8458    3.4968 H   0  0  0  0  0  0  0  0  0  0  0  0
    7.7532   -3.3801    1.4525 H   0  0  0  0  0  0  0  0  0  0  0  0
    5.5553   -0.3048   -0.5839 H   0  0  0  0  0  0  0  0  0  0  0  0
    7.8695    0.3088   -0.5957 H   0  0  0  0  0  0  0  0  0  0  0  0
    8.4775    0.4049   -2.2829 H   0  0  0  0  0  0  0  0  0  0  0  0
    9.8119    0.9942    0.3659 H   0  0  0  0  0  0  0  0  0  0  0  0
    9.9847    1.8317   -1.2502 H   0  0  0  0  0  0  0  0  0  0  0  0
   12.0456    0.7319   -0.7980 H   0  0  0  0  0  0  0  0  0  0  0  0
   11.1557   -0.1684   -2.1359 H   0  0  0  0  0  0  0  0  0  0  0  0
   11.7663   -1.0887    0.7137 H   0  0  0  0  0  0  0  0  0  0  0  0
   11.6455   -2.0315   -0.8709 H   0  0  0  0  0  0  0  0  0  0  0  0
    9.7342   -2.6912    0.2788 H   0  0  0  0  0  0  0  0  0  0  0  0
    9.3822   -0.9602    0.8394 H   0  0  0  0  0  0  0  0  0  0  0  0
   -7.4585    2.6144    0.1544 H   0  0  0  0  0  0  0  0  0  0  0  0
  1  2  1  0
  2  3  2  0
  2  4  1  0
  5  6  1  0
  6  7  1  0
  7  8  2  0
  8  9  1  0
  9 10  2  0
 10 11  1  0
 11 12  2  0
 12 13  1  0
  9 14  1  0
 14 15  1  0
 15 16  1  0
 16 17  1  0
 17 18  1  0
 18 19  1  0
 19 20  1  0
 20 21  1  0
 21 22  1  0
 22 23  1  0
 23 24  1  0
 24 25  1  0
 25 26  1  0
 26 27  1  0
 27 28  1  0
 28 29  2  0
 29 30  1  0
 30 31  2  0
 31 32  1  0
 32 33  2  0
 32 34  1  0
 34 35  2  0
 34 36  2  0
 34 37  1  0
 37 38  1  0
 38 39  1  0
 39 40  1  0
 40 41  1  0
 41 42  1  0
 14 43  1  0
 12  7  1  0
 33 28  1  0
 42 37  1  0
  1 44  1  0
  1 45  1  0
  1 46  1  0
  4 47  1  0
  5 48  1  0
  6 49  1  0
  6 50  1  0
  8 51  1  0
 10 52  1  0
 11 53  1  0
 13 54  1  0
 14 55  1  6
 15 56  1  0
 15 57  1  0
 16 58  1  0
 17 59  1  0
 17 60  1  0
 18 61  1  0
 18 62  1  0
 19 63  1  0
 19 64  1  0
 20 65  1  0
 20 66  1  0
 21 67  1  0
 21 68  1  0
 22 69  1  0
 22 70  1  0
 24 71  1  0
 24 72  1  0
 25 73  1  0
 25 74  1  0
 26 75  1  0
 26 76  1  0
 27 77  1  0
 27 78  1  0
 29 79  1  0
 30 80  1  0
 31 81  1  0
 33 82  1  0
 38 83  1  0
 38 84  1  0
 39 85  1  0
 39 86  1  0
 40 87  1  0
 40 88  1  0
 41 89  1  0
 41 90  1  0
 42 91  1  0
 42 92  1  0
 43 93  1  0
M  END
>  <Ligand ID>  (1) 
LIG0003357

>  <Ligand>  (1) 
CHEMBL506518

>  <SMILES>  (1) 
CC(=O)O.OCc1cc(ccc1O)[C@H](CNCCCCCCOCCCCc1cccc(c1)S(=O)(=O)N1CCCCC1)O

>  <CID>  (1) 
42625586.0

>  <ChEMBL ID>  (1) 
nan

>  <InChiKey>  (1) 
ASGWGXWBDRYNIF-CZCBIWLKSA-N

>  <InChi>  (1) 
InChI=1S/C30H46N2O6S.C2H4O2/c33-24-27-22-26(14-15-29(27)34)30(35)23-31-16-5-1-2-8-19-38-20-9-4-11-25-12-10-13-28(21-25)39(36,37)32-17-6-3-7-18-32;1-2(3)4/h10,12-15,21-22,30-31,33-35H,1-9,11,16-20,23-24H2;1H3,(H,3,4)/t30-;/m0./s1

>  <IUPAC Name>  (1) 
acetic acid;2-(hydroxymethyl)-4-[(1R)-1-hydroxy-2-[6-[4-(3-piperidin-1-ylsulfonylphenyl)butoxy]hexylamino]ethyl]phenol

$$$$
