
     RDKit          3D

120124  0  0  0  0  0  0  0  0999 V2000
    3.6239    5.3479   -5.1180 N   0  0  0  0  0  0  0  0  0  0  0  0
    2.5600    5.6862   -4.2373 C   0  0  0  0  0  0  0  0  0  0  0  0
    1.4333    5.0083   -4.2326 N   0  0  0  0  0  0  0  0  0  0  0  0
    0.3779    5.3788   -3.3273 C   0  0  0  0  0  0  0  0  0  0  0  0
    0.3781    4.3969   -2.1420 C   0  0  0  0  0  0  0  0  0  0  0  0
    0.1285    2.9913   -2.5649 C   0  0  0  0  0  0  0  0  0  0  0  0
    0.1602    1.9272   -1.5151 C   0  0  2  0  0  0  0  0  0  0  0  0
   -0.7079    1.9693   -0.4187 N   0  0  0  0  0  0  0  0  0  0  0  0
   -0.7711    2.9237    0.6446 C   0  0  0  0  0  0  0  0  0  0  0  0
    0.1259    3.7684    0.6681 O   0  0  0  0  0  0  0  0  0  0  0  0
   -1.8156    2.9646    1.6805 C   0  0  0  0  0  0  0  0  0  0  0  0
   -2.7487    1.8561    1.7061 N   0  0  0  0  0  0  0  0  0  0  0  0
   -3.8558    1.8582    0.8364 C   0  0  0  0  0  0  0  0  0  0  0  0
   -4.2724    3.2674    0.5265 C   0  0  0  0  0  0  0  0  0  0  0  0
   -3.8049    3.7371   -0.7129 C   0  0  0  0  0  0  0  0  0  0  0  0
   -4.1117    5.0235   -1.1146 C   0  0  0  0  0  0  0  0  0  0  0  0
   -4.8853    5.8110   -0.2559 C   0  0  0  0  0  0  0  0  0  0  0  0
   -5.3398    5.3486    0.9557 C   0  0  0  0  0  0  0  0  0  0  0  0
   -5.0208    4.0636    1.3359 C   0  0  0  0  0  0  0  0  0  0  0  0
   -2.6485    0.8158    2.6713 C   0  0  0  0  0  0  0  0  0  0  0  0
   -1.8400    1.2035    3.5981 O   0  0  0  0  0  0  0  0  0  0  0  0
   -3.2337   -0.4687    2.8201 C   0  0  0  0  0  0  0  0  0  0  0  0
   -4.0500   -1.0866    1.8256 N   0  0  0  0  0  0  0  0  0  0  0  0
   -5.4557   -1.2088    1.7658 C   0  0  0  0  0  0  0  0  0  0  0  0
   -5.9730   -2.3181    2.6255 C   0  0  0  0  0  0  0  0  0  0  0  0
   -6.2013   -3.5942    2.1953 C   0  0  0  0  0  0  0  0  0  0  0  0
   -6.6916   -4.5988    3.0393 C   0  0  0  0  0  0  0  0  0  0  0  0
   -6.9566   -4.2950    4.3611 C   0  0  0  0  0  0  0  0  0  0  0  0
   -6.7344   -2.9989    4.8331 C   0  0  0  0  0  0  0  0  0  0  0  0
   -6.2498   -2.0475    3.9548 C   0  0  0  0  0  0  0  0  0  0  0  0
   -3.3197   -1.7814    0.7892 C   0  0  0  0  0  0  0  0  0  0  0  0
   -2.1056   -1.8305    1.0638 O   0  0  0  0  0  0  0  0  0  0  0  0
   -3.7898   -2.3856   -0.4450 C   0  0  0  0  0  0  0  0  0  0  0  0
   -2.6229   -3.3251   -0.8621 C   0  0  0  0  0  0  0  0  0  0  0  0
   -2.6957   -3.7998   -2.2516 C   0  0  0  0  0  0  0  0  0  0  0  0
   -1.5017   -4.6386   -2.6850 C   0  0  0  0  0  0  0  0  0  0  0  0
   -0.2364   -3.8986   -2.5069 C   0  0  0  0  0  0  0  0  0  0  0  0
   -0.1069   -2.8306   -1.8829 O   0  0  0  0  0  0  0  0  0  0  0  0
    1.0390   -4.3389   -3.0543 N   0  0  0  0  0  0  0  0  0  0  0  0
    2.1521   -3.4818   -2.7303 C   0  0  0  0  0  0  0  0  0  0  0  0
    2.5882   -3.4826   -1.2868 C   0  0  0  0  0  0  0  0  0  0  0  0
    3.5608   -2.3418   -1.0891 N   0  0  0  0  0  0  0  0  0  0  0  0
    3.0389   -1.1880   -0.5288 C   0  0  0  0  0  0  0  0  0  0  0  0
    1.8514   -1.4044   -0.0965 O   0  0  0  0  0  0  0  0  0  0  0  0
    3.4976    0.1771   -0.3228 C   0  0  1  0  0  0  0  0  0  0  0  0
    2.0848    0.8312   -0.2184 N   0  0  0  0  0  0  0  0  0  0  0  0
    1.5182    1.3927   -1.3741 C   0  0  0  0  0  0  0  0  0  0  0  0
    2.2692    1.4274   -2.3707 O   0  0  0  0  0  0  0  0  0  0  0  0
    4.2299    0.6787    0.8241 C   0  0  0  0  0  0  0  0  0  0  0  0
    5.5133    0.1382    1.2485 C   0  0  0  0  0  0  0  0  0  0  0  0
    6.7351    0.5668    0.6993 C   0  0  0  0  0  0  0  0  0  0  0  0
    7.7372   -0.1405    1.2470 N   0  0  0  0  0  0  0  0  0  0  0  0
    7.2354   -1.0281    2.1460 C   0  0  0  0  0  0  0  0  0  0  0  0
    5.8706   -0.8486    2.1396 C   0  0  0  0  0  0  0  0  0  0  0  0
    5.0747   -1.6146    3.0021 C   0  0  0  0  0  0  0  0  0  0  0  0
    5.7254   -2.5117    3.8107 C   0  0  0  0  0  0  0  0  0  0  0  0
    7.0927   -2.6976    3.8197 C   0  0  0  0  0  0  0  0  0  0  0  0
    7.8835   -1.9336    2.9609 C   0  0  0  0  0  0  0  0  0  0  0  0
    4.8648   -2.6382   -1.5192 C   0  0  0  0  0  0  0  0  0  0  0  0
    5.7010   -3.3808   -0.6030 C   0  0  0  0  0  0  0  0  0  0  0  0
    6.8400   -3.7275   -0.9701 O   0  0  0  0  0  0  0  0  0  0  0  0
    5.3393   -3.7630    0.7414 N   0  0  0  0  0  0  0  0  0  0  0  0
    2.6969    6.7950   -3.3260 N   0  0  0  0  0  0  0  0  0  0  0  0
    3.4481    4.5913   -5.8056 H   0  0  0  0  0  0  0  0  0  0  0  0
    4.5218    5.8539   -5.0485 H   0  0  0  0  0  0  0  0  0  0  0  0
   -0.6279    5.3495   -3.7750 H   0  0  0  0  0  0  0  0  0  0  0  0
    0.5787    6.3893   -2.9316 H   0  0  0  0  0  0  0  0  0  0  0  0
   -0.4781    4.8099   -1.5298 H   0  0  0  0  0  0  0  0  0  0  0  0
    1.3062    4.5882   -1.6006 H   0  0  0  0  0  0  0  0  0  0  0  0
   -0.7945    2.9198   -3.2074 H   0  0  0  0  0  0  0  0  0  0  0  0
    0.9807    2.7314   -3.2738 H   0  0  0  0  0  0  0  0  0  0  0  0
   -0.3667    1.0387   -2.1705 H   0  0  0  0  0  0  0  0  0  0  0  0
   -1.4305    1.2228   -0.2946 H   0  0  0  0  0  0  0  0  0  0  0  0
   -2.4326    3.8742    1.4555 H   0  0  0  0  0  0  0  0  0  0  0  0
   -1.3984    3.1739    2.6934 H   0  0  0  0  0  0  0  0  0  0  0  0
   -4.7658    1.4957    1.4300 H   0  0  0  0  0  0  0  0  0  0  0  0
   -3.7776    1.2061   -0.0293 H   0  0  0  0  0  0  0  0  0  0  0  0
   -3.2050    3.1055   -1.3589 H   0  0  0  0  0  0  0  0  0  0  0  0
   -3.7583    5.4052   -2.0705 H   0  0  0  0  0  0  0  0  0  0  0  0
   -5.1134    6.8118   -0.5990 H   0  0  0  0  0  0  0  0  0  0  0  0
   -5.9238    6.0198    1.5510 H   0  0  0  0  0  0  0  0  0  0  0  0
   -5.3541    3.6641    2.2785 H   0  0  0  0  0  0  0  0  0  0  0  0
   -3.8253   -0.4964    3.7946 H   0  0  0  0  0  0  0  0  0  0  0  0
   -2.4065   -1.1977    3.0709 H   0  0  0  0  0  0  0  0  0  0  0  0
   -5.9648   -0.2809    2.1381 H   0  0  0  0  0  0  0  0  0  0  0  0
   -5.8421   -1.3995    0.7290 H   0  0  0  0  0  0  0  0  0  0  0  0
   -6.0227   -3.9014    1.1830 H   0  0  0  0  0  0  0  0  0  0  0  0
   -6.8606   -5.5974    2.6517 H   0  0  0  0  0  0  0  0  0  0  0  0
   -7.3352   -5.0409    5.0467 H   0  0  0  0  0  0  0  0  0  0  0  0
   -6.9317   -2.7276    5.8728 H   0  0  0  0  0  0  0  0  0  0  0  0
   -6.0914   -1.0509    4.3844 H   0  0  0  0  0  0  0  0  0  0  0  0
   -4.7258   -2.9347   -0.4107 H   0  0  0  0  0  0  0  0  0  0  0  0
   -3.8411   -1.6185   -1.2861 H   0  0  0  0  0  0  0  0  0  0  0  0
   -1.7179   -2.8565   -0.5054 H   0  0  0  0  0  0  0  0  0  0  0  0
   -2.8743   -4.2507   -0.2223 H   0  0  0  0  0  0  0  0  0  0  0  0
   -2.8648   -3.0184   -3.0058 H   0  0  0  0  0  0  0  0  0  0  0  0
   -3.5659   -4.4926   -2.3405 H   0  0  0  0  0  0  0  0  0  0  0  0
   -1.4833   -5.5505   -2.0230 H   0  0  0  0  0  0  0  0  0  0  0  0
   -1.6434   -4.9633   -3.7122 H   0  0  0  0  0  0  0  0  0  0  0  0
    1.0009   -5.1809   -3.5913 H   0  0  0  0  0  0  0  0  0  0  0  0
    1.9834   -2.4303   -3.0541 H   0  0  0  0  0  0  0  0  0  0  0  0
    3.0060   -3.8398   -3.3551 H   0  0  0  0  0  0  0  0  0  0  0  0
    1.7283   -3.4170   -0.6418 H   0  0  0  0  0  0  0  0  0  0  0  0
    3.1703   -4.3791   -1.0490 H   0  0  0  0  0  0  0  0  0  0  0  0
    3.9326    0.5184   -1.2821 H   0  0  0  0  0  0  0  0  0  0  0  0
    1.6047    0.8449    0.6483 H   0  0  0  0  0  0  0  0  0  0  0  0
    3.5431    0.4872    1.7377 H   0  0  0  0  0  0  0  0  0  0  0  0
    4.2394    1.8226    0.8649 H   0  0  0  0  0  0  0  0  0  0  0  0
    6.8436    1.3539   -0.0521 H   0  0  0  0  0  0  0  0  0  0  0  0
    8.7447   -0.0119    1.0048 H   0  0  0  0  0  0  0  0  0  0  0  0
    4.0073   -1.4624    2.9869 H   0  0  0  0  0  0  0  0  0  0  0  0
    5.1458   -3.1273    4.4940 H   0  0  0  0  0  0  0  0  0  0  0  0
    7.5619   -3.4338    4.4890 H   0  0  0  0  0  0  0  0  0  0  0  0
    8.9549   -2.0484    2.9365 H   0  0  0  0  0  0  0  0  0  0  0  0
    4.7438   -3.2513   -2.4620 H   0  0  0  0  0  0  0  0  0  0  0  0
    5.3829   -1.6864   -1.8834 H   0  0  0  0  0  0  0  0  0  0  0  0
    4.3341   -3.5172    0.9835 H   0  0  0  0  0  0  0  0  0  0  0  0
    5.9965   -4.2237    1.3950 H   0  0  0  0  0  0  0  0  0  0  0  0
    2.3801    7.7300   -3.6621 H   0  0  0  0  0  0  0  0  0  0  0  0
    3.1027    6.6530   -2.3593 H   0  0  0  0  0  0  0  0  0  0  0  0
  1  2  1  0
  2  3  2  3
  3  4  1  0
  4  5  1  0
  5  6  1  0
  6  7  1  0
  7  8  1  0
  8  9  1  0
  9 10  2  0
  9 11  1  0
 11 12  1  0
 12 13  1  0
 13 14  1  0
 14 15  2  0
 15 16  1  0
 16 17  2  0
 17 18  1  0
 18 19  2  0
 12 20  1  0
 20 21  2  0
 20 22  1  0
 22 23  1  0
 23 24  1  0
 24 25  1  0
 25 26  2  0
 26 27  1  0
 27 28  2  0
 28 29  1  0
 29 30  2  0
 23 31  1  0
 31 32  2  0
 31 33  1  0
 33 34  1  0
 34 35  1  0
 35 36  1  0
 36 37  1  0
 37 38  2  0
 37 39  1  0
 39 40  1  0
 40 41  1  0
 41 42  1  0
 42 43  1  0
 43 44  2  0
 43 45  1  0
 45 46  1  0
 46 47  1  0
 47 48  2  0
 45 49  1  0
 49 50  1  0
 50 51  2  0
 51 52  1  0
 52 53  1  0
 53 54  2  0
 54 55  1  0
 55 56  2  0
 56 57  1  0
 57 58  2  0
 42 59  1  0
 59 60  1  0
 60 61  2  0
 60 62  1  0
  2 63  1  0
 47  7  1  0
 54 50  1  0
 19 14  1  0
 30 25  1  0
 58 53  1  0
  1 64  1  0
  1 65  1  0
  4 66  1  0
  4 67  1  0
  5 68  1  0
  5 69  1  0
  6 70  1  0
  6 71  1  0
  7 72  1  6
  8 73  1  0
 11 74  1  0
 11 75  1  0
 13 76  1  0
 13 77  1  0
 15 78  1  0
 16 79  1  0
 17 80  1  0
 18 81  1  0
 19 82  1  0
 22 83  1  0
 22 84  1  0
 24 85  1  0
 24 86  1  0
 26 87  1  0
 27 88  1  0
 28 89  1  0
 29 90  1  0
 30 91  1  0
 33 92  1  0
 33 93  1  0
 34 94  1  0
 34 95  1  0
 35 96  1  0
 35 97  1  0
 36 98  1  0
 36 99  1  0
 39100  1  0
 40101  1  0
 40102  1  0
 41103  1  0
 41104  1  0
 45105  1  6
 46106  1  0
 49107  1  0
 49108  1  0
 51109  1  0
 52110  1  0
 55111  1  0
 56112  1  0
 57113  1  0
 58114  1  0
 59115  1  0
 59116  1  0
 62117  1  0
 62118  1  0
 63119  1  0
 63120  1  0
M  END
>  <Ligand ID>  (1) 
LIG0001348

>  <Ligand>  (1) 
CHEMBL602299

>  <SMILES>  (1) 
NC(=NCCC[C@@H]1NC(=O)CN(Cc2ccccc2)C(=O)CN(Cc2ccccc2)C(=O)CCCCC(=O)NCCN(C(=O)[C@@H](NC1=O)Cc1c[nH]c2c1cccc2)CC(=O)N)N

>  <CID>  (1) 
46232228.0

>  <ChEMBL ID>  (1) 
nan

>  <InChiKey>  (1) 
IFVMGZUEGABMFC-BCRBLDSWSA-N

>  <InChi>  (1) 
InChI=1S/C45H57N11O7/c46-38(57)28-54-23-22-49-39(58)19-9-10-20-41(60)56(27-32-14-5-2-6-15-32)30-42(61)55(26-31-12-3-1-4-13-31)29-40(59)52-36(18-11-21-50-45(47)48)43(62)53-37(44(54)63)24-33-25-51-35-17-8-7-16-34(33)35/h1-8,12-17,25,36-37,51H,9-11,18-24,26-30H2,(H2,46,57)(H,49,58)(H,52,59)(H,53,62)(H4,47,48,50)/t36-,37-/m0/s1

>  <IUPAC Name>  (1) 
2-[(6S,9S)-13,16-dibenzyl-9-[3-(diaminomethylideneamino)propyl]-6-(1H-indol-3-ylmethyl)-5,8,11,14,17,22-hexaoxo-1,4,7,10,13,16-hexazacyclodocos-4-yl]acetamide

$$$$
