
     RDKit          3D

 52 55  0  0  0  0  0  0  0  0999 V2000
   -8.3226   -1.3965   -0.0571 Cl  0  0  0  0  0  0  0  0  0  0  0  0
   -6.8120   -0.6909    0.4883 C   0  0  0  0  0  0  0  0  0  0  0  0
   -6.3597   -0.9235    1.7788 C   0  0  0  0  0  0  0  0  0  0  0  0
   -5.1755   -0.3728    2.2143 C   0  0  0  0  0  0  0  0  0  0  0  0
   -4.4582    0.4156    1.3240 C   0  0  0  0  0  0  0  0  0  0  0  0
   -4.8704    0.6696    0.0412 C   0  0  0  0  0  0  0  0  0  0  0  0
   -6.0649    0.0992   -0.3603 C   0  0  0  0  0  0  0  0  0  0  0  0
   -4.1481    1.4942   -0.9419 C   0  0  2  0  0  0  0  0  0  0  0  0
   -3.0054    2.2860   -0.4082 C   0  0  0  0  0  0  0  0  0  0  0  0
   -1.9331    1.5478    0.1662 N   0  0  0  0  0  0  0  0  0  0  0  0
   -1.1420    0.7552   -0.7108 C   0  0  1  0  0  0  0  0  0  0  0  0
   -0.4626    1.5780   -1.7716 C   0  0  0  0  0  0  0  0  0  0  0  0
    0.3503    0.7102   -2.7029 C   0  0  0  0  0  0  0  0  0  0  0  0
    1.2401   -0.2167   -1.9437 C   0  0  0  0  0  0  0  0  0  0  0  0
    0.9689   -0.5315   -0.6280 C   0  0  0  0  0  0  0  0  0  0  0  0
   -0.1659   -0.0230    0.1428 C   0  0  0  0  0  0  0  0  0  0  0  0
    1.8471   -1.3944   -0.0054 C   0  0  0  0  0  0  0  0  0  0  0  0
    2.9475   -1.9273   -0.6469 C   0  0  0  0  0  0  0  0  0  0  0  0
    3.2004   -1.5965   -1.9705 C   0  0  0  0  0  0  0  0  0  0  0  0
    2.3281   -0.7266   -2.6229 C   0  0  0  0  0  0  0  0  0  0  0  0
    3.7634   -2.7855    0.0814 O   0  0  0  0  0  0  0  0  0  0  0  0
    4.8368   -2.3204    0.8183 C   0  0  0  0  0  0  0  0  0  0  0  0
    5.7680   -2.9320    1.6004 C   0  0  0  0  0  0  0  0  0  0  0  0
    6.7072   -2.2122    2.2010 C   0  0  0  0  0  0  0  0  0  0  0  0
    6.7131   -0.8267    2.0105 C   0  0  0  0  0  0  0  0  0  0  0  0
    5.2971   -0.5394    0.9119 S   0  0  0  0  0  0  0  0  0  0  0  0
    7.5958    0.1801    2.5281 C   0  0  0  0  0  0  0  0  0  0  0  0
    8.5353   -0.1496    3.2765 O   0  0  0  0  0  0  0  0  0  0  0  0
    7.3930    1.4934    2.1913 O   0  0  0  0  0  0  0  0  0  0  0  0
   -5.1459    2.3353   -1.5022 O   0  0  0  0  0  0  0  0  0  0  0  0
   -6.9336   -1.5406    2.4556 H   0  0  0  0  0  0  0  0  0  0  0  0
   -4.8244   -0.5512    3.2105 H   0  0  0  0  0  0  0  0  0  0  0  0
   -3.5394    0.8321    1.6992 H   0  0  0  0  0  0  0  0  0  0  0  0
   -6.4641    0.2496   -1.3585 H   0  0  0  0  0  0  0  0  0  0  0  0
   -3.7755    0.8581   -1.7768 H   0  0  0  0  0  0  0  0  0  0  0  0
   -2.6460    3.0621   -1.1286 H   0  0  0  0  0  0  0  0  0  0  0  0
   -3.4314    2.9114    0.4343 H   0  0  0  0  0  0  0  0  0  0  0  0
   -1.3795    2.1641    0.7878 H   0  0  0  0  0  0  0  0  0  0  0  0
   -1.8292   -0.0077   -1.1621 H   0  0  0  0  0  0  0  0  0  0  0  0
   -1.2493    2.0417   -2.3883 H   0  0  0  0  0  0  0  0  0  0  0  0
    0.1976    2.3034   -1.2648 H   0  0  0  0  0  0  0  0  0  0  0  0
   -0.2963    0.0616   -3.3285 H   0  0  0  0  0  0  0  0  0  0  0  0
    0.9040    1.3764   -3.3893 H   0  0  0  0  0  0  0  0  0  0  0  0
   -0.7000   -0.9229    0.5560 H   0  0  0  0  0  0  0  0  0  0  0  0
    0.1459    0.5519    1.0403 H   0  0  0  0  0  0  0  0  0  0  0  0
    1.6665   -1.6676    1.0350 H   0  0  0  0  0  0  0  0  0  0  0  0
    4.0659   -2.0185   -2.4679 H   0  0  0  0  0  0  0  0  0  0  0  0
    2.5368   -0.4775   -3.6529 H   0  0  0  0  0  0  0  0  0  0  0  0
    5.7154   -4.0500    1.7189 H   0  0  0  0  0  0  0  0  0  0  0  0
    7.4974   -2.6412    2.8518 H   0  0  0  0  0  0  0  0  0  0  0  0
    7.6977    2.2418    2.8002 H   0  0  0  0  0  0  0  0  0  0  0  0
   -4.7843    3.2240   -1.7204 H   0  0  0  0  0  0  0  0  0  0  0  0
  1  2  1  0
  2  3  2  0
  3  4  1  0
  4  5  2  0
  5  6  1  0
  6  7  2  0
  6  8  1  0
  8  9  1  0
  9 10  1  0
 10 11  1  0
 11 12  1  0
 12 13  1  0
 13 14  1  0
 14 15  2  0
 15 16  1  0
 15 17  1  0
 17 18  2  0
 18 19  1  0
 19 20  2  0
 18 21  1  0
 21 22  1  0
 22 23  2  0
 23 24  1  0
 24 25  2  0
 25 26  1  0
 25 27  1  0
 27 28  2  0
 27 29  1  0
  8 30  1  0
  7  2  1  0
 16 11  1  0
 26 22  1  0
 20 14  1  0
  3 31  1  0
  4 32  1  0
  5 33  1  0
  7 34  1  0
  8 35  1  6
  9 36  1  0
  9 37  1  0
 10 38  1  0
 11 39  1  6
 12 40  1  0
 12 41  1  0
 13 42  1  0
 13 43  1  0
 16 44  1  0
 16 45  1  0
 17 46  1  0
 19 47  1  0
 20 48  1  0
 23 49  1  0
 24 50  1  0
 29 51  1  0
 30 52  1  0
M  END
>  <Ligand ID>  (1) 
LIG0002991

>  <Ligand>  (1) 
CHEMBL497280

>  <SMILES>  (1) 
Clc1cccc(c1)[C@H](CN[C@H]1CCc2c(C1)cc(cc2)Oc1ccc(s1)C(=O)O)O

>  <CID>  (1) 
24950053.0

>  <ChEMBL ID>  (1) 
nan

>  <InChiKey>  (1) 
ICMKXYZWRPPWMR-ICSRJNTNSA-N

>  <InChi>  (1) 
InChI=1S/C23H22ClNO4S/c24-17-3-1-2-15(10-17)20(26)13-25-18-6-4-14-5-7-19(12-16(14)11-18)29-22-9-8-21(30-22)23(27)28/h1-3,5,7-10,12,18,20,25-26H,4,6,11,13H2,(H,27,28)/t18-,20-/m0/s1

>  <IUPAC Name>  (1) 
5-[[(7S)-7-[[(2R)-2-(3-chlorophenyl)-2-hydroxyethyl]amino]-5,6,7,8-tetrahydronaphthalen-2-yl]oxy]thiophene-2-carboxylic acid

$$$$
