
     RDKit          3D

 32 34  0  0  0  0  0  0  0  0999 V2000
   -3.7170    0.0133    1.0293 C   0  0  0  0  0  0  0  0  0  0  0  0
   -3.0329    0.2916   -0.2798 C   0  0  2  0  0  0  0  0  0  0  0  0
   -2.5374   -0.8918   -0.9420 N   0  0  0  0  0  0  0  0  0  0  0  0
   -1.3984   -1.4987   -0.3021 C   0  0  0  0  0  0  0  0  0  0  0  0
   -0.5487   -0.5204    0.4439 C   0  0  2  0  0  0  0  0  0  0  0  0
   -0.6868    0.8327   -0.0278 N   0  0  0  0  0  0  0  0  0  0  0  0
   -2.0274    1.3790   -0.0972 C   0  0  0  0  0  0  0  0  0  0  0  0
    0.5709    1.4048   -0.3574 C   0  0  0  0  0  0  0  0  0  0  0  0
    0.7580    2.5758   -0.7772 O   0  0  0  0  0  0  0  0  0  0  0  0
    1.5678    0.3691   -0.1101 C   0  0  0  0  0  0  0  0  0  0  0  0
    0.9072   -0.7511    0.3444 C   0  0  0  0  0  0  0  0  0  0  0  0
    1.6593   -1.8666    0.6350 C   0  0  0  0  0  0  0  0  0  0  0  0
    3.0507   -1.8652    0.4752 C   0  0  0  0  0  0  0  0  0  0  0  0
    3.6766   -0.7037    0.0112 C   0  0  0  0  0  0  0  0  0  0  0  0
    2.9358    0.4231   -0.2848 C   0  0  0  0  0  0  0  0  0  0  0  0
    3.5742    1.6703   -0.7793 C   0  0  0  0  0  0  0  0  0  0  0  0
    3.2682    2.6643    0.1503 F   0  0  0  0  0  0  0  0  0  0  0  0
    3.1482    2.0359   -2.0400 F   0  0  0  0  0  0  0  0  0  0  0  0
    4.9386    1.5285   -0.8023 F   0  0  0  0  0  0  0  0  0  0  0  0
   -3.0134    0.2837    1.8597 H   0  0  0  0  0  0  0  0  0  0  0  0
   -4.0904   -1.0063    1.1505 H   0  0  0  0  0  0  0  0  0  0  0  0
   -4.5848    0.7223    1.1675 H   0  0  0  0  0  0  0  0  0  0  0  0
   -3.8472    0.6779   -0.9615 H   0  0  0  0  0  0  0  0  0  0  0  0
   -2.4832   -0.7970   -1.9586 H   0  0  0  0  0  0  0  0  0  0  0  0
   -0.8262   -2.0569   -1.0680 H   0  0  0  0  0  0  0  0  0  0  0  0
   -1.7769   -2.2530    0.4224 H   0  0  0  0  0  0  0  0  0  0  0  0
   -0.7653   -0.4951    1.5488 H   0  0  0  0  0  0  0  0  0  0  0  0
   -2.1348    2.1415   -0.8953 H   0  0  0  0  0  0  0  0  0  0  0  0
   -2.2260    1.9354    0.8567 H   0  0  0  0  0  0  0  0  0  0  0  0
    1.2369   -2.7971    0.9978 H   0  0  0  0  0  0  0  0  0  0  0  0
    3.6510   -2.7313    0.6990 H   0  0  0  0  0  0  0  0  0  0  0  0
    4.7534   -0.7148   -0.1082 H   0  0  0  0  0  0  0  0  0  0  0  0
  1  2  1  0
  2  3  1  0
  3  4  1  0
  4  5  1  0
  5  6  1  0
  6  7  1  0
  6  8  1  0
  8  9  2  0
  8 10  1  0
 10 11  2  0
 11 12  1  0
 12 13  2  0
 13 14  1  0
 14 15  2  0
 15 16  1  0
 16 17  1  0
 16 18  1  0
 16 19  1  0
  7  2  1  0
 15 10  1  0
 11  5  1  0
  1 20  1  0
  1 21  1  0
  1 22  1  0
  2 23  1  6
  3 24  1  0
  4 25  1  0
  4 26  1  0
  5 27  1  1
  7 28  1  0
  7 29  1  0
 12 30  1  0
 13 31  1  0
 14 32  1  0
M  END
>  <Ligand ID>  (1) 
LIG0002310

>  <Ligand>  (1) 
CHEMBL373402

>  <SMILES>  (1) 
C[C@@H]1NC[C@@H]2N(C1)C(=O)c1c2cccc1C(F)(F)F

>  <CID>  (1) 
11312820.0

>  <ChEMBL ID>  (1) 
nan

>  <InChiKey>  (1) 
PUIRTIZGCOUFDH-XVKPBYJWSA-N

>  <InChi>  (1) 
InChI=1S/C13H13F3N2O/c1-7-6-18-10(5-17-7)8-3-2-4-9(13(14,15)16)11(8)12(18)19/h2-4,7,10,17H,5-6H2,1H3/t7-,10-/m0/s1

>  <IUPAC Name>  (1) 
(3S,10bR)-3-methyl-7-(trifluoromethyl)-2,3,4,10b-tetrahydro-1H-pyrazino[1,2-b]isoindol-6-one

$$$$
