
     RDKit          3D

 30 30  0  0  0  0  0  0  0  0999 V2000
   -2.3725   -2.0021    1.0708 C   0  0  0  0  0  0  0  0  0  0  0  0
   -1.2607   -1.3022    0.5516 O   0  0  0  0  0  0  0  0  0  0  0  0
   -1.4811   -0.0294    0.0516 C   0  0  0  0  0  0  0  0  0  0  0  0
   -2.7440    0.5538    0.0513 C   0  0  0  0  0  0  0  0  0  0  0  0
   -2.9807    1.8172   -0.4431 C   0  0  0  0  0  0  0  0  0  0  0  0
   -4.2500    2.3197   -0.4075 F   0  0  0  0  0  0  0  0  0  0  0  0
   -1.9397    2.5344   -0.9560 C   0  0  0  0  0  0  0  0  0  0  0  0
   -0.6791    1.9767   -0.9660 C   0  0  0  0  0  0  0  0  0  0  0  0
   -0.4341    0.6921   -0.4639 C   0  0  0  0  0  0  0  0  0  0  0  0
    0.9672    0.2287   -0.5293 C   0  0  0  0  0  0  0  0  0  0  0  0
    1.9073    0.7440    0.5813 C   0  0  0  0  0  0  0  0  0  0  0  0
    1.5389   -0.6889    0.4638 C   0  0  0  0  0  0  0  0  0  0  0  0
    2.7020   -1.5989    0.1008 C   0  0  0  0  0  0  0  0  0  0  0  0
    3.8614   -0.8233   -0.3198 N   0  0  0  0  0  0  0  0  0  0  0  0
   -2.1865    4.1539   -1.6013 Cl  0  0  0  0  0  0  0  0  0  0  0  0
    0.6862    0.0000    0.0000 Cl  0  0  0  0  0  0  0  0  0  0  0  0
   -3.1265   -2.2023    0.2647 H   0  0  0  0  0  0  0  0  0  0  0  0
   -2.0846   -2.9912    1.4889 H   0  0  0  0  0  0  0  0  0  0  0  0
   -2.9027   -1.3943    1.8184 H   0  0  0  0  0  0  0  0  0  0  0  0
   -3.5541   -0.0209    0.4576 H   0  0  0  0  0  0  0  0  0  0  0  0
    0.1455    2.5740   -1.3848 H   0  0  0  0  0  0  0  0  0  0  0  0
    1.4077    0.2679   -1.5746 H   0  0  0  0  0  0  0  0  0  0  0  0
    2.8590    1.1618    0.2235 H   0  0  0  0  0  0  0  0  0  0  0  0
    1.4558    1.3780    1.3748 H   0  0  0  0  0  0  0  0  0  0  0  0
    0.8780   -1.0391    1.2776 H   0  0  0  0  0  0  0  0  0  0  0  0
    2.4379   -2.3608   -0.6557 H   0  0  0  0  0  0  0  0  0  0  0  0
    3.0058   -2.1113    1.0477 H   0  0  0  0  0  0  0  0  0  0  0  0
    4.5956   -1.5215   -0.5815 H   0  0  0  0  0  0  0  0  0  0  0  0
    4.2345   -0.3161    0.5160 H   0  0  0  0  0  0  0  0  0  0  0  0
   -0.6862    0.0000    0.0000 H   0  0  0  0  0  0  0  0  0  0  0  0
  1  2  1  0
  2  3  1  0
  3  4  2  0
  4  5  1  0
  5  6  1  0
  5  7  2  0
  7  8  1  0
  8  9  2  0
  9 10  1  0
 10 11  1  0
 11 12  1  0
 12 13  1  0
 13 14  1  0
  7 15  1  0
  9  3  1  0
 12 10  1  0
  1 17  1  0
  1 18  1  0
  1 19  1  0
  4 20  1  0
  8 21  1  0
 10 22  1  0
 11 23  1  0
 11 24  1  0
 12 25  1  0
 13 26  1  0
 13 27  1  0
 14 28  1  0
 14 29  1  0
 16 30  1  0
M  END
>  <Ligand ID>  (1) 
LIG0004787

>  <Ligand>  (1) 
CHEMBL3770689

>  <SMILES>  (1) 
COc1cc(F)c(cc1C1CC1CN)Cl.Cl

>  <CID>  (1) 
127028405.0

>  <ChEMBL ID>  (1) 
nan

>  <InChiKey>  (1) 
MJLDXOHMJFYWSZ-UHFFFAOYSA-N

>  <InChi>  (1) 
InChI=1S/C11H13ClFNO.ClH/c1-15-11-4-10(13)9(12)3-8(11)7-2-6(7)5-14;/h3-4,6-7H,2,5,14H2,1H3;1H

>  <IUPAC Name>  (1) 
[2-(5-chloro-4-fluoro-2-methoxyphenyl)cyclopropyl]methanamine;hydrochloride

$$$$
