
     RDKit          3D

 67 69  0  0  0  0  0  0  0  0999 V2000
   -9.2730    3.5667   -1.4396 Cl  0  0  0  0  0  0  0  0  0  0  0  0
   -9.5211    2.1186   -0.4821 C   0  0  0  0  0  0  0  0  0  0  0  0
  -10.5224    2.0293    0.4768 C   0  0  0  0  0  0  0  0  0  0  0  0
  -10.6830    0.8639    1.2119 C   0  0  0  0  0  0  0  0  0  0  0  0
   -9.8659   -0.2437    1.0254 C   0  0  0  0  0  0  0  0  0  0  0  0
   -8.8781   -0.1398    0.0715 C   0  0  0  0  0  0  0  0  0  0  0  0
   -8.7012    1.0271   -0.6791 C   0  0  0  0  0  0  0  0  0  0  0  0
   -7.9270   -1.2475   -0.2367 C   0  0  2  0  0  0  0  0  0  0  0  0
   -6.5503   -0.8393    0.2534 C   0  0  0  0  0  0  0  0  0  0  0  0
   -5.6146   -1.8759   -0.1157 N   0  0  0  0  0  0  0  0  0  0  0  0
   -4.2798   -1.5384    0.3269 C   0  0  0  0  0  0  0  0  0  0  0  0
   -3.7383   -0.3692   -0.4298 C   0  0  0  0  0  0  0  0  0  0  0  0
   -2.3695   -0.0521    0.0502 C   0  0  0  0  0  0  0  0  0  0  0  0
   -2.1557    0.8379    1.0929 C   0  0  0  0  0  0  0  0  0  0  0  0
   -0.8547    1.1094    1.5142 C   0  0  0  0  0  0  0  0  0  0  0  0
    0.2285    0.4945    0.8970 C   0  0  0  0  0  0  0  0  0  0  0  0
    0.0074   -0.3888   -0.1385 C   0  0  0  0  0  0  0  0  0  0  0  0
   -1.2811   -0.6496   -0.5466 C   0  0  0  0  0  0  0  0  0  0  0  0
    1.0579   -1.0408   -0.8015 O   0  0  0  0  0  0  0  0  0  0  0  0
    2.3632   -0.7991   -0.4318 C   0  0  0  0  0  0  0  0  0  0  0  0
    3.0518   -1.4945    0.5234 C   0  0  0  0  0  0  0  0  0  0  0  0
    4.3774   -1.1584    0.8149 C   0  0  0  0  0  0  0  0  0  0  0  0
    5.0137   -0.1143    0.1391 C   0  0  0  0  0  0  0  0  0  0  0  0
    4.3197    0.5865   -0.8235 C   0  0  0  0  0  0  0  0  0  0  0  0
    3.0130    0.2408   -1.0974 C   0  0  0  0  0  0  0  0  0  0  0  0
    4.9280    1.6853   -1.5625 C   0  0  0  0  0  0  0  0  0  0  0  0
    4.2763    2.3160   -2.4413 O   0  0  0  0  0  0  0  0  0  0  0  0
    6.2311    2.0903   -1.3445 O   0  0  0  0  0  0  0  0  0  0  0  0
    6.3646    0.2076    0.4555 N   0  0  0  0  0  0  0  0  0  0  0  0
    7.4423   -0.4138   -0.2298 C   0  0  0  0  0  0  0  0  0  0  0  0
    7.1061   -1.2598   -1.1267 O   0  0  0  0  0  0  0  0  0  0  0  0
    8.8623   -0.1236    0.0522 C   0  0  0  0  0  0  0  0  0  0  0  0
    9.1728    1.3504   -0.1861 C   0  0  0  0  0  0  0  0  0  0  0  0
    9.7240   -0.8842   -0.9375 C   0  0  0  0  0  0  0  0  0  0  0  0
    9.2637   -0.5033    1.4571 C   0  0  0  0  0  0  0  0  0  0  0  0
   -7.8151   -1.3780   -1.6321 O   0  0  0  0  0  0  0  0  0  0  0  0
  -11.1817    2.8819    0.6482 H   0  0  0  0  0  0  0  0  0  0  0  0
  -11.4716    0.8303    1.9488 H   0  0  0  0  0  0  0  0  0  0  0  0
   -9.9781   -1.1504    1.5857 H   0  0  0  0  0  0  0  0  0  0  0  0
   -7.9165    1.0971   -1.4306 H   0  0  0  0  0  0  0  0  0  0  0  0
   -8.2671   -2.1893    0.2340 H   0  0  0  0  0  0  0  0  0  0  0  0
   -6.5512   -0.6813    1.3494 H   0  0  0  0  0  0  0  0  0  0  0  0
   -6.3351    0.1453   -0.1957 H   0  0  0  0  0  0  0  0  0  0  0  0
   -5.6770   -2.1371   -1.1112 H   0  0  0  0  0  0  0  0  0  0  0  0
   -4.3186   -1.3381    1.4087 H   0  0  0  0  0  0  0  0  0  0  0  0
   -3.6319   -2.4107    0.1442 H   0  0  0  0  0  0  0  0  0  0  0  0
   -3.7317   -0.6150   -1.5221 H   0  0  0  0  0  0  0  0  0  0  0  0
   -4.3402    0.5473   -0.3263 H   0  0  0  0  0  0  0  0  0  0  0  0
   -3.0175    1.2874    1.5391 H   0  0  0  0  0  0  0  0  0  0  0  0
   -0.7078    1.7991    2.3206 H   0  0  0  0  0  0  0  0  0  0  0  0
    1.2461    0.6982    1.2169 H   0  0  0  0  0  0  0  0  0  0  0  0
   -1.4737   -1.3338   -1.3505 H   0  0  0  0  0  0  0  0  0  0  0  0
    2.5348   -2.2941    1.0271 H   0  0  0  0  0  0  0  0  0  0  0  0
    4.8985   -1.7161    1.5672 H   0  0  0  0  0  0  0  0  0  0  0  0
    2.4884    0.8105   -1.8616 H   0  0  0  0  0  0  0  0  0  0  0  0
    6.5247    3.0650   -1.4431 H   0  0  0  0  0  0  0  0  0  0  0  0
    6.6120    0.8991    1.1886 H   0  0  0  0  0  0  0  0  0  0  0  0
    8.5211    2.0008    0.4307 H   0  0  0  0  0  0  0  0  0  0  0  0
   10.2364    1.5312    0.0036 H   0  0  0  0  0  0  0  0  0  0  0  0
    8.9426    1.5025   -1.2809 H   0  0  0  0  0  0  0  0  0  0  0  0
    9.8695   -1.9225   -0.5998 H   0  0  0  0  0  0  0  0  0  0  0  0
    9.2729   -0.8194   -1.9612 H   0  0  0  0  0  0  0  0  0  0  0  0
   10.7107   -0.3772   -0.9622 H   0  0  0  0  0  0  0  0  0  0  0  0
   10.2915   -0.1524    1.6315 H   0  0  0  0  0  0  0  0  0  0  0  0
    9.2758   -1.6163    1.5176 H   0  0  0  0  0  0  0  0  0  0  0  0
    8.5326   -0.0783    2.1759 H   0  0  0  0  0  0  0  0  0  0  0  0
   -8.1306   -2.2739   -1.8823 H   0  0  0  0  0  0  0  0  0  0  0  0
  1  2  1  0
  2  3  2  0
  3  4  1  0
  4  5  2  0
  5  6  1  0
  6  7  2  0
  6  8  1  0
  8  9  1  0
  9 10  1  0
 10 11  1  0
 11 12  1  0
 12 13  1  0
 13 14  2  0
 14 15  1  0
 15 16  2  0
 16 17  1  0
 17 18  2  0
 17 19  1  0
 19 20  1  0
 20 21  2  0
 21 22  1  0
 22 23  2  0
 23 24  1  0
 24 25  2  0
 24 26  1  0
 26 27  2  0
 26 28  1  0
 23 29  1  0
 29 30  1  0
 30 31  2  0
 30 32  1  0
 32 33  1  0
 32 34  1  0
 32 35  1  0
  8 36  1  0
  7  2  1  0
 18 13  1  0
 25 20  1  0
  3 37  1  0
  4 38  1  0
  5 39  1  0
  7 40  1  0
  8 41  1  1
  9 42  1  0
  9 43  1  0
 10 44  1  0
 11 45  1  0
 11 46  1  0
 12 47  1  0
 12 48  1  0
 14 49  1  0
 15 50  1  0
 16 51  1  0
 18 52  1  0
 21 53  1  0
 22 54  1  0
 25 55  1  0
 28 56  1  0
 29 57  1  0
 33 58  1  0
 33 59  1  0
 33 60  1  0
 34 61  1  0
 34 62  1  0
 34 63  1  0
 35 64  1  0
 35 65  1  0
 35 66  1  0
 36 67  1  0
M  END
>  <Ligand ID>  (1) 
LIG0003379

>  <Ligand>  (1) 
CHEMBL491645

>  <SMILES>  (1) 
Clc1cccc(c1)[C@H](CNCCc1cccc(c1)Oc1ccc(c(c1)C(=O)O)NC(=O)C(C)(C)C)O

>  <CID>  (1) 
44580040.0

>  <ChEMBL ID>  (1) 
nan

>  <InChiKey>  (1) 
KSUHGFRCLCFQDZ-VWLOTQADSA-N

>  <InChi>  (1) 
InChI=1S/C28H31ClN2O5/c1-28(2,3)27(35)31-24-11-10-22(16-23(24)26(33)34)36-21-9-4-6-18(14-21)12-13-30-17-25(32)19-7-5-8-20(29)15-19/h4-11,14-16,25,30,32H,12-13,17H2,1-3H3,(H,31,35)(H,33,34)/t25-/m0/s1

>  <IUPAC Name>  (1) 
5-[3-[2-[[(2R)-2-(3-chlorophenyl)-2-hydroxyethyl]amino]ethyl]phenoxy]-2-(2,2-dimethylpropanoylamino)benzoic acid

$$$$
