
     RDKit          3D

 20 20  0  0  0  0  0  0  0  0999 V2000
    2.2791    1.7707   -0.1837 O   0  0  0  0  0  0  0  0  0  0  0  0
    2.2888    0.4808    0.2865 C   0  0  0  0  0  0  0  0  0  0  0  0
    3.2055    0.0955    1.0714 O   0  0  0  0  0  0  0  0  0  0  0  0
    1.2132   -0.4558   -0.1356 C   0  0  2  0  0  0  0  0  0  0  0  0
   -0.1043    0.1640    0.2161 C   0  0  2  0  0  0  0  0  0  0  0  0
   -1.3828   -0.5256   -0.0773 C   0  0  2  0  0  0  0  0  0  0  0  0
   -0.9266    0.5749   -0.9997 C   0  0  0  0  0  0  0  0  0  0  0  0
   -0.5311    0.1253   -2.2456 F   0  0  0  0  0  0  0  0  0  0  0  0
   -1.5366    1.7965   -0.9720 F   0  0  0  0  0  0  0  0  0  0  0  0
   -2.5809   -0.2050    0.7288 C   0  0  0  0  0  0  0  0  0  0  0  0
   -3.4065   -1.1365    0.9891 O   0  0  0  0  0  0  0  0  0  0  0  0
   -2.8575    1.0572    1.2193 O   0  0  0  0  0  0  0  0  0  0  0  0
    1.4181   -1.7522    0.4743 N   0  0  0  0  0  0  0  0  0  0  0  0
    3.1585    2.2877   -0.2769 H   0  0  0  0  0  0  0  0  0  0  0  0
    1.3482   -0.5974   -1.2313 H   0  0  0  0  0  0  0  0  0  0  0  0
   -0.0867    0.9092    1.0398 H   0  0  0  0  0  0  0  0  0  0  0  0
   -1.3060   -1.5770   -0.3930 H   0  0  0  0  0  0  0  0  0  0  0  0
   -3.8141    1.3952    1.3676 H   0  0  0  0  0  0  0  0  0  0  0  0
    2.4547   -1.8604    0.5954 H   0  0  0  0  0  0  0  0  0  0  0  0
    1.1671   -2.5471   -0.1870 H   0  0  0  0  0  0  0  0  0  0  0  0
  1  2  1  0
  2  3  2  0
  2  4  1  0
  4  5  1  0
  5  6  1  0
  6  7  1  0
  7  8  1  0
  7  9  1  0
  6 10  1  0
 10 11  2  0
 10 12  1  0
  4 13  1  0
  7  5  1  0
  1 14  1  0
  4 15  1  6
  5 16  1  1
  6 17  1  6
 12 18  1  0
 13 19  1  0
 13 20  1  0
M  END
>  <Ligand ID>  (1) 
LIG0005069

>  <Ligand>  (1) 
CHEMBL61605

>  <SMILES>  (1) 
OC(=O)[C@H]([C@@H]1[C@H](C1(F)F)C(=O)O)N

>  <CID>  (1) 
6604805.0

>  <ChEMBL ID>  (1) 
nan

>  <InChiKey>  (1) 
WAAOLVVQWSHZNT-ZPAAKOCQSA-N

>  <InChi>  (1) 
InChI=1S/C6H7F2NO4/c7-6(8)1(2(6)4(10)11)3(9)5(12)13/h1-3H,9H2,(H,10,11)(H,12,13)/t1-,2-,3-/m0/s1

>  <IUPAC Name>  (1) 
(1S,3S)-3-[(S)-amino(carboxy)methyl]-2,2-difluorocyclopropane-1-carboxylic acid

$$$$
