
     RDKit          3D

134137  0  0  0  0  0  0  0  0999 V2000
    9.7953    3.0497   -2.3500 N   0  0  0  0  0  0  0  0  0  0  0  0
    8.5283    2.5718   -2.8518 C   0  0  0  0  0  0  0  0  0  0  0  0
    8.1169    1.3268   -2.0880 C   0  0  0  0  0  0  0  0  0  0  0  0
    7.9695    1.6357   -0.5950 C   0  0  0  0  0  0  0  0  0  0  0  0
    7.5616    0.3809    0.1802 C   0  0  1  0  0  0  0  0  0  0  0  0
    7.3964    0.6496    1.6164 C   0  0  0  0  0  0  0  0  0  0  0  0
    6.3887    0.3222    2.2953 O   0  0  0  0  0  0  0  0  0  0  0  0
    8.4733    1.3367    2.2725 N   0  0  0  0  0  0  0  0  0  0  0  0
    8.4311    1.6647    3.6765 C   0  0  0  0  0  0  0  0  0  0  0  0
    7.2976    2.5575    4.0083 C   0  0  0  0  0  0  0  0  0  0  0  0
    7.0808    2.9777    5.1904 O   0  0  0  0  0  0  0  0  0  0  0  0
    6.3580    3.0143    3.0270 N   0  0  0  0  0  0  0  0  0  0  0  0
    6.4829   -0.3331   -0.4413 N   0  0  0  0  0  0  0  0  0  0  0  0
    6.6754   -1.6170   -0.9783 C   0  0  0  0  0  0  0  0  0  0  0  0
    7.8617   -2.1012   -0.8634 O   0  0  0  0  0  0  0  0  0  0  0  0
    5.6977   -2.4610   -1.6471 C   0  0  2  0  0  0  0  0  0  0  0  0
    6.2162   -2.8377   -3.0283 C   0  0  0  0  0  0  0  0  0  0  0  0
    5.8252   -1.5871   -3.8167 C   0  0  0  0  0  0  0  0  0  0  0  0
    4.6726   -0.9659   -3.0572 C   0  0  0  0  0  0  0  0  0  0  0  0
    4.4236   -1.8936   -1.9533 N   0  0  0  0  0  0  0  0  0  0  0  0
    3.1584   -2.1973   -1.3341 C   0  0  0  0  0  0  0  0  0  0  0  0
    3.0917   -3.0383   -0.3790 O   0  0  0  0  0  0  0  0  0  0  0  0
    1.9487   -1.5288   -1.8231 C   0  0  2  0  0  0  0  0  0  0  0  0
    1.9165   -0.0421   -1.7298 C   0  0  0  0  0  0  0  0  0  0  0  0
    2.2429    0.6408   -0.0850 S   0  0  0  0  0  0  0  0  0  0  0  0
    1.8488    2.7637   -0.1895 S   0  0  0  0  0  0  0  0  0  0  0  0
    0.1160    3.0997    0.3004 C   0  0  0  0  0  0  0  0  0  0  0  0
   -0.0955    3.0182    1.7626 C   0  0  2  0  0  0  0  0  0  0  0  0
    0.3512    1.8540    2.4469 N   0  0  0  0  0  0  0  0  0  0  0  0
   -1.5839    3.1033    2.1052 C   0  0  0  0  0  0  0  0  0  0  0  0
   -1.9878    3.0026    3.2727 O   0  0  0  0  0  0  0  0  0  0  0  0
   -2.5526    3.2911    1.1100 N   0  0  0  0  0  0  0  0  0  0  0  0
   -4.0025    3.3440    1.2700 C   0  0  1  0  0  0  0  0  0  0  0  0
   -4.7328    4.1478    0.3031 C   0  0  0  0  0  0  0  0  0  0  0  0
   -4.6014    3.8362   -1.1157 C   0  0  0  0  0  0  0  0  0  0  0  0
   -3.5648    4.4898   -1.8107 C   0  0  0  0  0  0  0  0  0  0  0  0
   -3.3486    4.2918   -3.1491 C   0  0  0  0  0  0  0  0  0  0  0  0
   -4.1593    3.4271   -3.8608 C   0  0  0  0  0  0  0  0  0  0  0  0
   -5.1683    2.7763   -3.2306 C   0  0  0  0  0  0  0  0  0  0  0  0
   -5.3726    2.9944   -1.8616 C   0  0  0  0  0  0  0  0  0  0  0  0
   -4.5453    2.0455    1.6721 C   0  0  0  0  0  0  0  0  0  0  0  0
   -3.7740    1.3296    2.3859 O   0  0  0  0  0  0  0  0  0  0  0  0
   -5.7941    1.4561    1.3818 N   0  0  0  0  0  0  0  0  0  0  0  0
   -6.0116    0.1062    1.9414 C   0  0  2  0  0  0  0  0  0  0  0  0
   -4.8538   -0.7522    1.4454 C   0  0  0  0  0  0  0  0  0  0  0  0
   -3.9865   -0.3100    0.6758 O   0  0  0  0  0  0  0  0  0  0  0  0
   -4.6781   -2.1305    1.8199 N   0  0  0  0  0  0  0  0  0  0  0  0
   -3.3839   -2.6724    1.4520 C   0  0  2  0  0  0  0  0  0  0  0  0
   -3.2721   -3.1422    0.0445 C   0  0  0  0  0  0  0  0  0  0  0  0
   -4.2013   -3.5951   -0.5366 O   0  0  0  0  0  0  0  0  0  0  0  0
   -2.0164   -3.0091   -0.5782 N   0  0  0  0  0  0  0  0  0  0  0  0
   -1.4991   -3.3667   -1.8330 C   0  0  2  0  0  0  0  0  0  0  0  0
   -0.1548   -2.8437   -2.1222 C   0  0  0  0  0  0  0  0  0  0  0  0
    0.3238   -3.1154   -3.2515 O   0  0  0  0  0  0  0  0  0  0  0  0
    0.6899   -2.0686   -1.2977 N   0  0  0  0  0  0  0  0  0  0  0  0
   -2.3698   -3.2073   -3.0720 C   0  0  0  0  0  0  0  0  0  0  0  0
   -3.5587   -4.0320   -3.1296 C   0  0  0  0  0  0  0  0  0  0  0  0
   -4.6816   -3.5268   -3.4547 O   0  0  0  0  0  0  0  0  0  0  0  0
   -3.6008   -5.4416   -2.8469 N   0  0  0  0  0  0  0  0  0  0  0  0
   -2.9675   -3.7854    2.3604 C   0  0  0  0  0  0  0  0  0  0  0  0
   -1.6340   -4.3871    2.0385 C   0  0  0  0  0  0  0  0  0  0  0  0
   -1.3846   -5.4800    3.0182 C   0  0  0  0  0  0  0  0  0  0  0  0
   -2.2419   -5.7983    3.8987 O   0  0  0  0  0  0  0  0  0  0  0  0
   -0.1687   -6.2117    3.0051 N   0  0  0  0  0  0  0  0  0  0  0  0
   -7.3185   -0.4522    1.5636 C   0  0  0  0  0  0  0  0  0  0  0  0
   -8.5090    0.3105    1.9917 C   0  0  0  0  0  0  0  0  0  0  0  0
   -9.1041    1.2754    1.2220 C   0  0  0  0  0  0  0  0  0  0  0  0
  -10.2314    1.9832    1.6098 C   0  0  0  0  0  0  0  0  0  0  0  0
  -10.7970    1.7045    2.8450 C   0  0  0  0  0  0  0  0  0  0  0  0
  -10.2114    0.7379    3.6299 C   0  0  0  0  0  0  0  0  0  0  0  0
   -9.0815    0.0442    3.2179 C   0  0  0  0  0  0  0  0  0  0  0  0
    9.6976    3.5579   -1.4423 H   0  0  0  0  0  0  0  0  0  0  0  0
   10.4919    2.2851   -2.2962 H   0  0  0  0  0  0  0  0  0  0  0  0
    8.6172    2.3062   -3.9127 H   0  0  0  0  0  0  0  0  0  0  0  0
    7.7354    3.3404   -2.7231 H   0  0  0  0  0  0  0  0  0  0  0  0
    8.8845    0.5543   -2.2849 H   0  0  0  0  0  0  0  0  0  0  0  0
    7.1486    0.9319   -2.4748 H   0  0  0  0  0  0  0  0  0  0  0  0
    9.0007    1.9087   -0.2602 H   0  0  0  0  0  0  0  0  0  0  0  0
    7.3225    2.4885   -0.4220 H   0  0  0  0  0  0  0  0  0  0  0  0
    8.4791   -0.2775    0.1126 H   0  0  0  0  0  0  0  0  0  0  0  0
    9.3215    1.6170    1.7227 H   0  0  0  0  0  0  0  0  0  0  0  0
    9.4196    2.0672    3.9951 H   0  0  0  0  0  0  0  0  0  0  0  0
    8.3351    0.6781    4.2175 H   0  0  0  0  0  0  0  0  0  0  0  0
    6.6842    3.1179    2.0628 H   0  0  0  0  0  0  0  0  0  0  0  0
    5.3688    3.2383    3.2612 H   0  0  0  0  0  0  0  0  0  0  0  0
    5.5569    0.0997   -0.4884 H   0  0  0  0  0  0  0  0  0  0  0  0
    5.5119   -3.3809   -1.0451 H   0  0  0  0  0  0  0  0  0  0  0  0
    5.6195   -3.7019   -3.3678 H   0  0  0  0  0  0  0  0  0  0  0  0
    7.2986   -2.9931   -2.9880 H   0  0  0  0  0  0  0  0  0  0  0  0
    5.5235   -1.9557   -4.8349 H   0  0  0  0  0  0  0  0  0  0  0  0
    6.7290   -0.9626   -3.8727 H   0  0  0  0  0  0  0  0  0  0  0  0
    4.8421    0.0682   -2.7411 H   0  0  0  0  0  0  0  0  0  0  0  0
    3.8232   -0.9454   -3.7878 H   0  0  0  0  0  0  0  0  0  0  0  0
    1.9773   -1.7353   -2.9517 H   0  0  0  0  0  0  0  0  0  0  0  0
    2.5374    0.5117   -2.4361 H   0  0  0  0  0  0  0  0  0  0  0  0
    0.8534    0.2807   -1.9653 H   0  0  0  0  0  0  0  0  0  0  0  0
   -0.0894    4.1196   -0.0723 H   0  0  0  0  0  0  0  0  0  0  0  0
   -0.5033    2.4105   -0.2977 H   0  0  0  0  0  0  0  0  0  0  0  0
    0.3946    3.9172    2.2259 H   0  0  0  0  0  0  0  0  0  0  0  0
   -0.3356    1.0837    2.2445 H   0  0  0  0  0  0  0  0  0  0  0  0
    0.1977    2.0411    3.4803 H   0  0  0  0  0  0  0  0  0  0  0  0
   -2.2004    3.4092    0.1537 H   0  0  0  0  0  0  0  0  0  0  0  0
   -4.0778    3.9284    2.2886 H   0  0  0  0  0  0  0  0  0  0  0  0
   -4.4457    5.2478    0.4080 H   0  0  0  0  0  0  0  0  0  0  0  0
   -5.8170    4.1790    0.6322 H   0  0  0  0  0  0  0  0  0  0  0  0
   -2.8992    5.1850   -1.2790 H   0  0  0  0  0  0  0  0  0  0  0  0
   -2.5355    4.8093   -3.6757 H   0  0  0  0  0  0  0  0  0  0  0  0
   -4.0188    3.2418   -4.9250 H   0  0  0  0  0  0  0  0  0  0  0  0
   -5.8065    2.0966   -3.7885 H   0  0  0  0  0  0  0  0  0  0  0  0
   -6.1894    2.4593   -1.4182 H   0  0  0  0  0  0  0  0  0  0  0  0
   -6.4450    1.9809    0.8329 H   0  0  0  0  0  0  0  0  0  0  0  0
   -5.8817    0.1203    3.0517 H   0  0  0  0  0  0  0  0  0  0  0  0
   -5.4494   -2.5669    2.2792 H   0  0  0  0  0  0  0  0  0  0  0  0
   -2.6660   -1.8184    1.5567 H   0  0  0  0  0  0  0  0  0  0  0  0
   -1.3139   -2.5169    0.0791 H   0  0  0  0  0  0  0  0  0  0  0  0
   -1.4426   -4.5109   -1.7940 H   0  0  0  0  0  0  0  0  0  0  0  0
    0.4284   -1.8901   -0.3484 H   0  0  0  0  0  0  0  0  0  0  0  0
   -1.7141   -3.4524   -3.9411 H   0  0  0  0  0  0  0  0  0  0  0  0
   -2.6764   -2.1466   -3.2090 H   0  0  0  0  0  0  0  0  0  0  0  0
   -4.1853   -5.8473   -2.0838 H   0  0  0  0  0  0  0  0  0  0  0  0
   -3.0008   -6.0707   -3.4618 H   0  0  0  0  0  0  0  0  0  0  0  0
   -3.0047   -3.4596    3.4436 H   0  0  0  0  0  0  0  0  0  0  0  0
   -3.7281   -4.6274    2.3492 H   0  0  0  0  0  0  0  0  0  0  0  0
   -0.8552   -3.5787    2.1709 H   0  0  0  0  0  0  0  0  0  0  0  0
   -1.6511   -4.7374    1.0014 H   0  0  0  0  0  0  0  0  0  0  0  0
    0.1209   -6.7655    2.1743 H   0  0  0  0  0  0  0  0  0  0  0  0
    0.4132   -6.1510    3.8880 H   0  0  0  0  0  0  0  0  0  0  0  0
   -7.3986   -1.5090    1.9737 H   0  0  0  0  0  0  0  0  0  0  0  0
   -7.4084   -0.6190    0.4542 H   0  0  0  0  0  0  0  0  0  0  0  0
   -8.6988    1.5200    0.2499 H   0  0  0  0  0  0  0  0  0  0  0  0
  -10.6857    2.7396    0.9972 H   0  0  0  0  0  0  0  0  0  0  0  0
  -11.6593    2.2422    3.1460 H   0  0  0  0  0  0  0  0  0  0  0  0
  -10.6541    0.5188    4.5962 H   0  0  0  0  0  0  0  0  0  0  0  0
   -8.6357   -0.7121    3.8449 H   0  0  0  0  0  0  0  0  0  0  0  0
  1  2  1  0
  2  3  1  0
  3  4  1  0
  4  5  1  0
  5  6  1  0
  6  7  2  0
  6  8  1  0
  8  9  1  0
  9 10  1  0
 10 11  2  0
 10 12  1  0
  5 13  1  0
 13 14  1  0
 14 15  2  0
 14 16  1  0
 16 17  1  0
 17 18  1  0
 18 19  1  0
 19 20  1  0
 20 21  1  0
 21 22  2  0
 21 23  1  0
 23 24  1  0
 24 25  1  0
 25 26  1  0
 26 27  1  0
 27 28  1  0
 28 29  1  0
 28 30  1  0
 30 31  2  0
 30 32  1  0
 32 33  1  0
 33 34  1  0
 34 35  1  0
 35 36  2  0
 36 37  1  0
 37 38  2  0
 38 39  1  0
 39 40  2  0
 33 41  1  0
 41 42  2  0
 41 43  1  0
 43 44  1  0
 44 45  1  0
 45 46  2  0
 45 47  1  0
 47 48  1  0
 48 49  1  0
 49 50  2  0
 49 51  1  0
 51 52  1  0
 52 53  1  0
 53 54  2  0
 53 55  1  0
 52 56  1  0
 56 57  1  0
 57 58  2  0
 57 59  1  0
 48 60  1  0
 60 61  1  0
 61 62  1  0
 62 63  2  0
 62 64  1  0
 44 65  1  0
 65 66  1  0
 66 67  2  0
 67 68  1  0
 68 69  2  0
 69 70  1  0
 70 71  2  0
 20 16  1  0
 55 23  1  0
 71 66  1  0
 40 35  1  0
  1 72  1  0
  1 73  1  0
  2 74  1  0
  2 75  1  0
  3 76  1  0
  3 77  1  0
  4 78  1  0
  4 79  1  0
  5 80  1  1
  8 81  1  0
  9 82  1  0
  9 83  1  0
 12 84  1  0
 12 85  1  0
 13 86  1  0
 16 87  1  1
 17 88  1  0
 17 89  1  0
 18 90  1  0
 18 91  1  0
 19 92  1  0
 19 93  1  0
 23 94  1  6
 24 95  1  0
 24 96  1  0
 27 97  1  0
 27 98  1  0
 28 99  1  1
 29100  1  0
 29101  1  0
 32102  1  0
 33103  1  1
 34104  1  0
 34105  1  0
 36106  1  0
 37107  1  0
 38108  1  0
 39109  1  0
 40110  1  0
 43111  1  0
 44112  1  1
 47113  1  0
 48114  1  6
 51115  1  0
 52116  1  1
 55117  1  0
 56118  1  0
 56119  1  0
 59120  1  0
 59121  1  0
 60122  1  0
 60123  1  0
 61124  1  0
 61125  1  0
 64126  1  0
 64127  1  0
 65128  1  0
 65129  1  0
 67130  1  0
 68131  1  0
 69132  1  0
 70133  1  0
 71134  1  0
M  END
>  <Ligand ID>  (1) 
LIG0001301

>  <Ligand>  (1) 
CHEMBL1819540

>  <SMILES>  (1) 
NCCC[C@@H](C(=O)NCC(=O)N)NC(=O)[C@@H]1CCCN1C(=O)[C@@H]1CSSC[C@H](N)C(=O)N[C@@H](Cc2ccccc2)C(=O)N[C@H](C(=O)N[C@H](C(=O)N[C@H](C(=O)N1)CC(=O)N)CCC(=O)N)Cc1ccccc1

>  <CID>  (1) 
56665377.0

>  <ChEMBL ID>  (1) 
nan

>  <InChiKey>  (1) 
WCJHTAGXNQGKMD-LGYYRGKSSA-N

>  <InChi>  (1) 
InChI=1S/C45H63N13O11S2/c46-17-7-13-28(39(63)51-22-37(50)61)53-44(68)34-14-8-18-58(34)45(69)33-24-71-70-23-27(47)38(62)54-30(19-25-9-3-1-4-10-25)42(66)55-31(20-26-11-5-2-6-12-26)41(65)52-29(15-16-35(48)59)40(64)56-32(21-36(49)60)43(67)57-33/h1-6,9-12,27-34H,7-8,13-24,46-47H2,(H2,48,59)(H2,49,60)(H2,50,61)(H,51,63)(H,52,65)(H,53,68)(H,54,62)(H,55,66)(H,56,64)(H,57,67)/t27-,28-,29-,30-,31-,32-,33-,34-/m0/s1

>  <IUPAC Name>  (1) 
(2S)-N-[(2S)-5-amino-1-[(2-amino-2-oxoethyl)amino]-1-oxopentan-2-yl]-1-[(4R,7S,10S,13S,16S,19R)-19-amino-7-(2-amino-2-oxoethyl)-10-(3-amino-3-oxopropyl)-13,16-dibenzyl-6,9,12,15,18-pentaoxo-1,2-dithia-5,8,11,14,17-pentazacycloicosane-4-carbonyl]pyrrolidine-2-carboxamide

$$$$
