
     RDKit          3D

 63 67  0  0  0  0  0  0  0  0999 V2000
    8.1300    1.0617    1.3103 C   0  0  0  0  0  0  0  0  0  0  0  0
    6.8342    1.3181    1.7555 O   0  0  0  0  0  0  0  0  0  0  0  0
    5.7089    0.9679    1.0500 C   0  0  0  0  0  0  0  0  0  0  0  0
    5.8143    0.3190   -0.1835 C   0  0  0  0  0  0  0  0  0  0  0  0
    4.6288   -0.0034   -0.8380 C   0  0  0  0  0  0  0  0  0  0  0  0
    3.4012    0.3059   -0.2899 C   0  0  0  0  0  0  0  0  0  0  0  0
    3.2938    0.9450    0.9249 C   0  0  0  0  0  0  0  0  0  0  0  0
    4.4571    1.2664    1.5767 C   0  0  0  0  0  0  0  0  0  0  0  0
    2.1640   -0.0744   -1.0564 C   0  0  0  0  0  0  0  0  0  0  0  0
    1.5133    1.1806   -1.4429 C   0  0  0  0  0  0  0  0  0  0  0  0
    0.2733    1.4541   -1.1507 C   0  0  0  0  0  0  0  0  0  0  0  0
   -0.2860    2.7109   -1.5694 N   0  0  0  0  0  0  0  0  0  0  0  0
   -0.5116    0.5025   -0.4196 N   0  0  0  0  0  0  0  0  0  0  0  0
    0.0260   -0.7373   -0.0018 C   0  0  0  0  0  0  0  0  0  0  0  0
    1.2972   -0.9930   -0.3132 C   0  0  0  0  0  0  0  0  0  0  0  0
    1.8541   -2.2711    0.1165 C   0  0  0  0  0  0  0  0  0  0  0  0
    3.0371   -2.5978   -0.2367 O   0  0  0  0  0  0  0  0  0  0  0  0
    1.1166   -3.2412    0.9591 C   0  0  0  0  0  0  0  0  0  0  0  0
   -0.3424   -3.0992    0.6675 C   0  0  0  0  0  0  0  0  0  0  0  0
   -0.8242   -1.6701    0.7426 C   0  0  0  0  0  0  0  0  0  0  0  0
   -1.0897   -3.9289    1.6976 C   0  0  0  0  0  0  0  0  0  0  0  0
   -0.7023   -3.6818   -0.6806 C   0  0  0  0  0  0  0  0  0  0  0  0
   -1.8631    0.8986   -0.1488 C   0  0  0  0  0  0  0  0  0  0  0  0
   -2.3938    1.8020    1.3209 S   0  0  0  0  0  0  0  0  0  0  0  0
   -4.1148    1.8271    0.7927 C   0  0  0  0  0  0  0  0  0  0  0  0
   -4.1520    1.2054   -0.3533 C   0  0  0  0  0  0  0  0  0  0  0  0
   -3.0051    0.7001   -0.8918 C   0  0  0  0  0  0  0  0  0  0  0  0
   -2.8949   -0.0228   -2.1730 C   0  0  0  0  0  0  0  0  0  0  0  0
   -2.7862   -0.6034   -3.1961 N   0  0  0  0  0  0  0  0  0  0  0  0
   -5.5325    1.0852   -1.0288 C   0  0  0  0  0  0  0  0  0  0  0  0
   -6.5429    1.2751    0.0381 C   0  0  0  0  0  0  0  0  0  0  0  0
   -6.4083    2.5983    0.7568 C   0  0  0  0  0  0  0  0  0  0  0  0
   -5.1698    2.4635    1.6065 C   0  0  0  0  0  0  0  0  0  0  0  0
    2.2813    2.1465   -2.1753 C   0  0  0  0  0  0  0  0  0  0  0  0
    2.8892    2.9352   -2.7784 N   0  0  0  0  0  0  0  0  0  0  0  0
    8.2808    1.2340    0.2232 H   0  0  0  0  0  0  0  0  0  0  0  0
    8.4549    0.0109    1.5272 H   0  0  0  0  0  0  0  0  0  0  0  0
    8.8653    1.7037    1.8364 H   0  0  0  0  0  0  0  0  0  0  0  0
    6.7820    0.0860   -0.5950 H   0  0  0  0  0  0  0  0  0  0  0  0
    4.7057   -0.5083   -1.7980 H   0  0  0  0  0  0  0  0  0  0  0  0
    2.3190    1.1776    1.3355 H   0  0  0  0  0  0  0  0  0  0  0  0
    4.3559    1.7700    2.5333 H   0  0  0  0  0  0  0  0  0  0  0  0
    2.4887   -0.5743   -1.9982 H   0  0  0  0  0  0  0  0  0  0  0  0
   -0.4771    2.8144   -2.6077 H   0  0  0  0  0  0  0  0  0  0  0  0
   -0.4839    3.4612   -0.8788 H   0  0  0  0  0  0  0  0  0  0  0  0
    1.2852   -3.0079    2.0260 H   0  0  0  0  0  0  0  0  0  0  0  0
    1.3903   -4.2917    0.7448 H   0  0  0  0  0  0  0  0  0  0  0  0
   -0.9363   -1.4001    1.8179 H   0  0  0  0  0  0  0  0  0  0  0  0
   -1.8628   -1.6529    0.3272 H   0  0  0  0  0  0  0  0  0  0  0  0
   -2.1455   -4.0762    1.3864 H   0  0  0  0  0  0  0  0  0  0  0  0
   -0.9785   -3.4427    2.6886 H   0  0  0  0  0  0  0  0  0  0  0  0
   -0.5569   -4.9135    1.7592 H   0  0  0  0  0  0  0  0  0  0  0  0
   -0.9406   -4.7584   -0.6197 H   0  0  0  0  0  0  0  0  0  0  0  0
    0.1179   -3.5075   -1.4112 H   0  0  0  0  0  0  0  0  0  0  0  0
   -1.6142   -3.1558   -1.0544 H   0  0  0  0  0  0  0  0  0  0  0  0
   -5.6600    0.0947   -1.4784 H   0  0  0  0  0  0  0  0  0  0  0  0
   -5.6444    1.8686   -1.7989 H   0  0  0  0  0  0  0  0  0  0  0  0
   -7.5712    1.2032   -0.3625 H   0  0  0  0  0  0  0  0  0  0  0  0
   -6.4495    0.4771    0.8177 H   0  0  0  0  0  0  0  0  0  0  0  0
   -7.2792    2.7213    1.4168 H   0  0  0  0  0  0  0  0  0  0  0  0
   -6.2613    3.4411    0.0359 H   0  0  0  0  0  0  0  0  0  0  0  0
   -5.4342    1.7411    2.4327 H   0  0  0  0  0  0  0  0  0  0  0  0
   -4.8509    3.4396    2.0288 H   0  0  0  0  0  0  0  0  0  0  0  0
  1  2  1  0
  2  3  1  0
  3  4  2  0
  4  5  1  0
  5  6  2  0
  6  7  1  0
  7  8  2  0
  6  9  1  0
  9 10  1  0
 10 11  2  0
 11 12  1  0
 11 13  1  0
 13 14  1  0
 14 15  2  0
 15 16  1  0
 16 17  2  0
 16 18  1  0
 18 19  1  0
 19 20  1  0
 19 21  1  0
 19 22  1  0
 13 23  1  0
 23 24  1  0
 24 25  1  0
 25 26  2  0
 26 27  1  0
 27 28  1  0
 28 29  3  0
 26 30  1  0
 30 31  1  0
 31 32  1  0
 32 33  1  0
 10 34  1  0
 34 35  3  0
  8  3  1  0
 15  9  1  0
 27 23  2  0
 20 14  1  0
 33 25  1  0
  1 36  1  0
  1 37  1  0
  1 38  1  0
  4 39  1  0
  5 40  1  0
  7 41  1  0
  8 42  1  0
  9 43  1  0
 12 44  1  0
 12 45  1  0
 18 46  1  0
 18 47  1  0
 20 48  1  0
 20 49  1  0
 21 50  1  0
 21 51  1  0
 21 52  1  0
 22 53  1  0
 22 54  1  0
 22 55  1  0
 30 56  1  0
 30 57  1  0
 31 58  1  0
 31 59  1  0
 32 60  1  0
 32 61  1  0
 33 62  1  0
 33 63  1  0
M  END
>  <Ligand ID>  (1) 
LIG0003562

>  <Ligand>  (1) 
2-amino-1-(3-cyano-4,5,6,7-tetrahydro-1-benzothiophen-2-yl)-4-(4-methoxyphenyl)-7,7-dimethyl-5-oxo-1,4,5,6,7,8-hexahydro-3-quinolinecarbonitrile

>  <SMILES>  (1) 
COc1ccc(cc1)C1C(=C(N)N(C2=C1C(=O)CC(C2)(C)C)c1sc2c(c1C#N)CCCC2)C#N

>  <CID>  (1) 
3863202.0

>  <ChEMBL ID>  (1) 
nan

>  <InChiKey>  (1) 
PUYBITHZOHIIHC-UHFFFAOYSA-N

>  <InChi>  (1) 
InChI=1S/C28H28N4O2S/c1-28(2)12-21-25(22(33)13-28)24(16-8-10-17(34-3)11-9-16)20(15-30)26(31)32(21)27-19(14-29)18-6-4-5-7-23(18)35-27/h8-11,24H,4-7,12-13,31H2,1-3H3

>  <IUPAC Name>  (1) 
2-amino-1-(3-cyano-4,5,6,7-tetrahydro-1-benzothiophen-2-yl)-4-(4-methoxyphenyl)-7,7-dimethyl-5-oxo-6,8-dihydro-4H-quinoline-3-carbonitrile

$$$$
