
     RDKit          3D

 53 56  0  0  0  0  0  0  0  0999 V2000
   -6.1045   -1.4444    0.9145 C   0  0  0  0  0  0  0  0  0  0  0  0
   -5.2253   -1.8328   -0.2544 C   0  0  0  0  0  0  0  0  0  0  0  0
   -4.1655   -0.8597   -0.4424 N   0  0  0  0  0  0  0  0  0  0  0  0
   -2.9422   -1.0785    0.2508 C   0  0  0  0  0  0  0  0  0  0  0  0
   -2.8879   -2.1115    0.9756 O   0  0  0  0  0  0  0  0  0  0  0  0
   -1.8326   -0.1937    0.1448 N   0  0  0  0  0  0  0  0  0  0  0  0
   -0.5804   -0.4048    0.8456 C   0  0  2  0  0  0  0  0  0  0  0  0
   -0.3937    0.7305    1.7943 C   0  0  0  0  0  0  0  0  0  0  0  0
    0.6706    1.6197    1.4106 N   0  0  0  0  0  0  0  0  0  0  0  0
    0.4267    2.3708    0.2183 C   0  0  0  0  0  0  0  0  0  0  0  0
    1.8857    0.8339    1.3155 C   0  0  1  0  0  0  0  0  0  0  0  0
    1.7152   -0.0820    0.1338 C   0  0  0  0  0  0  0  0  0  0  0  0
    0.5427   -0.6519   -0.0631 C   0  0  0  0  0  0  0  0  0  0  0  0
    2.9097   -0.2561   -0.7269 C   0  0  0  0  0  0  0  0  0  0  0  0
    2.9516   -1.4217   -1.6168 C   0  0  0  0  0  0  0  0  0  0  0  0
    4.0914   -2.1125   -1.8342 C   0  0  0  0  0  0  0  0  0  0  0  0
    5.3489   -1.7798   -1.1640 C   0  0  0  0  0  0  0  0  0  0  0  0
    5.3164   -0.8240   -0.2699 C   0  0  0  0  0  0  0  0  0  0  0  0
    4.0812   -0.1914    0.0868 C   0  0  0  0  0  0  0  0  0  0  0  0
    4.3121    1.0368    0.8609 C   0  0  0  0  0  0  0  0  0  0  0  0
    5.5938    1.0999    1.0541 C   0  0  0  0  0  0  0  0  0  0  0  0
    6.3066   -0.0037    0.4252 N   0  0  0  0  0  0  0  0  0  0  0  0
    3.0514    1.7934    1.1869 C   0  0  0  0  0  0  0  0  0  0  0  0
   -4.3918    0.2771   -1.3142 C   0  0  0  0  0  0  0  0  0  0  0  0
   -4.9578    1.4559   -0.5945 C   0  0  0  0  0  0  0  0  0  0  0  0
   -6.9574   -0.7981    0.5539 H   0  0  0  0  0  0  0  0  0  0  0  0
   -6.4978   -2.3577    1.3974 H   0  0  0  0  0  0  0  0  0  0  0  0
   -5.5998   -0.8539    1.6838 H   0  0  0  0  0  0  0  0  0  0  0  0
   -4.7952   -2.8501   -0.1324 H   0  0  0  0  0  0  0  0  0  0  0  0
   -5.8770   -1.7955   -1.1593 H   0  0  0  0  0  0  0  0  0  0  0  0
   -1.9354    0.6405   -0.4668 H   0  0  0  0  0  0  0  0  0  0  0  0
   -0.7369   -1.3604    1.4240 H   0  0  0  0  0  0  0  0  0  0  0  0
   -0.1126    0.3395    2.8118 H   0  0  0  0  0  0  0  0  0  0  0  0
   -1.3315    1.3127    1.9778 H   0  0  0  0  0  0  0  0  0  0  0  0
    0.8250    1.8393   -0.6738 H   0  0  0  0  0  0  0  0  0  0  0  0
    0.9585    3.3541    0.2577 H   0  0  0  0  0  0  0  0  0  0  0  0
   -0.6403    2.5980    0.0422 H   0  0  0  0  0  0  0  0  0  0  0  0
    1.9424    0.2393    2.2465 H   0  0  0  0  0  0  0  0  0  0  0  0
    0.4254   -1.3029   -0.9048 H   0  0  0  0  0  0  0  0  0  0  0  0
    2.9417    0.6399   -1.4640 H   0  0  0  0  0  0  0  0  0  0  0  0
    2.0933   -1.8050   -2.1519 H   0  0  0  0  0  0  0  0  0  0  0  0
    4.1070   -2.9490   -2.5246 H   0  0  0  0  0  0  0  0  0  0  0  0
    6.2851   -2.2653   -1.3586 H   0  0  0  0  0  0  0  0  0  0  0  0
    3.7338   -0.9562    1.0670 H   0  0  0  0  0  0  0  0  0  0  0  0
    6.0679    1.8993    1.6272 H   0  0  0  0  0  0  0  0  0  0  0  0
    7.3277   -0.1962    0.4493 H   0  0  0  0  0  0  0  0  0  0  0  0
    2.8496    2.6161    0.5013 H   0  0  0  0  0  0  0  0  0  0  0  0
    3.2031    2.2129    2.2013 H   0  0  0  0  0  0  0  0  0  0  0  0
   -5.0982   -0.0283   -2.1169 H   0  0  0  0  0  0  0  0  0  0  0  0
   -3.4488    0.5590   -1.8483 H   0  0  0  0  0  0  0  0  0  0  0  0
   -6.0608    1.4402   -0.7017 H   0  0  0  0  0  0  0  0  0  0  0  0
   -4.6130    2.4385   -0.9725 H   0  0  0  0  0  0  0  0  0  0  0  0
   -4.7781    1.4201    0.5083 H   0  0  0  0  0  0  0  0  0  0  0  0
  1  2  1  0
  2  3  1  0
  3  4  1  0
  4  5  2  0
  4  6  1  0
  6  7  1  0
  7  8  1  0
  8  9  1  0
  9 10  1  0
  9 11  1  0
 11 12  1  0
 12 13  2  0
 12 14  1  0
 14 15  1  0
 15 16  2  0
 16 17  1  0
 17 18  2  0
 18 19  1  0
 19 20  1  0
 20 21  2  0
 21 22  1  0
 20 23  1  0
  3 24  1  0
 24 25  1  0
 13  7  1  0
 19 14  1  0
 23 11  1  0
 22 18  1  0
  1 26  1  0
  1 27  1  0
  1 28  1  0
  2 29  1  0
  2 30  1  0
  6 31  1  0
  7 32  1  1
  8 33  1  0
  8 34  1  0
 10 35  1  0
 10 36  1  0
 10 37  1  0
 11 38  1  1
 13 39  1  0
 14 40  1  0
 15 41  1  0
 16 42  1  0
 17 43  1  0
 19 44  1  0
 21 45  1  0
 22 46  1  0
 23 47  1  0
 23 48  1  0
 24 49  1  0
 24 50  1  0
 25 51  1  0
 25 52  1  0
 25 53  1  0
M  END
>  <Ligand ID>  (1) 
LIG0004371

>  <Ligand>  (1) 
CHEMBL461353

>  <SMILES>  (1) 
CCN(C(=O)N[C@@H]1CN(C)[C@H]2C(=C1)C1C=CC=C3C1C(=CN3)C2)CC

>  <CID>  (1) 
44563317.0

>  <ChEMBL ID>  (1) 
nan

>  <InChiKey>  (1) 
RABVCMHYPLVKSO-MZMPVIPJSA-N

>  <InChi>  (1) 
InChI=1S/C20H28N4O/c1-4-24(5-2)20(25)22-14-10-16-15-7-6-8-17-19(15)13(11-21-17)9-18(16)23(3)12-14/h6-8,10-11,14-15,18-19,21H,4-5,9,12H2,1-3H3,(H,22,25)/t14-,15?,18+,19?/m0/s1

>  <IUPAC Name>  (1) 
3-[(6aR,9S)-7-methyl-6,6a,8,9,10b,11-hexahydro-4H-indolo[4,3-fg]quinolin-9-yl]-1,1-diethylurea

$$$$
