
     RDKit          3D

139141  0  0  0  0  0  0  0  0999 V2000
   -6.4559   -1.4984   -2.4988 C   0  0  0  0  0  0  0  0  0  0  0  0
   -7.4177   -0.5283   -1.8781 C   0  0  0  0  0  0  0  0  0  0  0  0
   -7.5984   -0.5906   -0.4153 C   0  0  1  0  0  0  0  0  0  0  0  0
   -6.4071   -0.3331    0.4597 C   0  0  2  0  0  0  0  0  0  0  0  0
   -5.7730    0.9586    0.2187 N   0  0  0  0  0  0  0  0  0  0  0  0
   -6.1563    2.1693    0.8474 C   0  0  0  0  0  0  0  0  0  0  0  0
   -7.1878    2.1491    1.5219 O   0  0  0  0  0  0  0  0  0  0  0  0
   -5.4256    3.4602    0.7483 C   0  0  1  0  0  0  0  0  0  0  0  0
   -3.9934    3.1686    0.5433 N   0  0  0  0  0  0  0  0  0  0  0  0
   -3.2130    3.1580    1.7103 C   0  0  0  0  0  0  0  0  0  0  0  0
   -3.8388    3.3589    2.7898 O   0  0  0  0  0  0  0  0  0  0  0  0
   -1.7511    2.9408    1.8892 C   0  0  0  0  0  0  0  0  0  0  0  0
   -1.5934    2.8341    3.4008 C   0  0  0  0  0  0  0  0  0  0  0  0
    0.0974    2.6429    3.8838 S   0  0  0  0  0  0  0  0  0  0  0  0
    0.9226    0.8419    3.1354 S   0  0  0  0  0  0  0  0  0  0  0  0
    1.7563    1.0823    1.5705 C   0  0  0  0  0  0  0  0  0  0  0  0
    2.3874   -0.1372    0.9845 C   0  0  2  0  0  0  0  0  0  0  0  0
    1.3314   -1.0093    0.3953 N   0  0  0  0  0  0  0  0  0  0  0  0
    1.3387   -1.2462   -1.0041 C   0  0  0  0  0  0  0  0  0  0  0  0
    2.2781   -0.6985   -1.6223 O   0  0  0  0  0  0  0  0  0  0  0  0
    0.3888   -2.0444   -1.7803 C   0  0  1  0  0  0  0  0  0  0  0  0
   -0.7433   -2.5631   -1.0568 N   0  0  0  0  0  0  0  0  0  0  0  0
   -1.9608   -1.8464   -0.8799 C   0  0  0  0  0  0  0  0  0  0  0  0
   -1.9559   -0.6752   -1.2772 O   0  0  0  0  0  0  0  0  0  0  0  0
   -3.1870   -2.4764   -0.2412 C   0  0  1  0  0  0  0  0  0  0  0  0
   -4.2422   -1.4984   -0.2556 N   0  0  0  0  0  0  0  0  0  0  0  0
   -5.4330   -1.4553    0.4997 C   0  0  0  0  0  0  0  0  0  0  0  0
   -5.6656   -2.4263    1.2230 O   0  0  0  0  0  0  0  0  0  0  0  0
   -3.4431   -3.6651   -1.1937 C   0  0  0  0  0  0  0  0  0  0  0  0
   -4.5544   -4.5651   -0.8494 C   0  0  0  0  0  0  0  0  0  0  0  0
   -4.6681   -5.7031   -1.8617 C   0  0  0  0  0  0  0  0  0  0  0  0
   -3.8919   -5.8118   -2.8169 O   0  0  0  0  0  0  0  0  0  0  0  0
   -5.7490   -6.6151   -1.5943 N   0  0  0  0  0  0  0  0  0  0  0  0
    0.0098   -1.2751   -3.0469 C   0  0  0  0  0  0  0  0  0  0  0  0
   -0.8996   -2.0298   -3.8908 C   0  0  0  0  0  0  0  0  0  0  0  0
   -2.1400   -1.8943   -4.0023 O   0  0  0  0  0  0  0  0  0  0  0  0
   -0.3253   -3.0698   -4.7117 N   0  0  0  0  0  0  0  0  0  0  0  0
    3.1648   -0.9263    1.9420 C   0  0  0  0  0  0  0  0  0  0  0  0
    2.8451   -2.1832    1.9861 O   0  0  0  0  0  0  0  0  0  0  0  0
    4.1917   -0.5537    2.8177 N   0  0  0  0  0  0  0  0  0  0  0  0
    4.7842   -1.6384    3.6256 C   0  0  0  0  0  0  0  0  0  0  0  0
    5.9239   -2.3095    3.0127 C   0  0  0  0  0  0  0  0  0  0  0  0
    7.2248   -1.8363    3.1643 C   0  0  0  0  0  0  0  0  0  0  0  0
    8.3214   -2.4514    2.6208 C   0  0  0  0  0  0  0  0  0  0  0  0
    8.1832   -3.6091    1.8720 C   0  0  0  0  0  0  0  0  0  0  0  0
    6.9169   -4.0999    1.7053 C   0  0  0  0  0  0  0  0  0  0  0  0
    5.8001   -3.4750    2.2575 C   0  0  0  0  0  0  0  0  0  0  0  0
    4.6897    0.7594    3.0708 C   0  0  0  0  0  0  0  0  0  0  0  0
    5.7733    1.2727    2.2388 C   0  0  0  0  0  0  0  0  0  0  0  0
    6.1510    2.4772    2.5115 O   0  0  0  0  0  0  0  0  0  0  0  0
    6.4593    0.6429    1.1909 N   0  0  0  0  0  0  0  0  0  0  0  0
    7.5388    1.4069    0.5005 C   0  0  2  0  0  0  0  0  0  0  0  0
    7.3444    1.3082   -0.9373 C   0  0  0  0  0  0  0  0  0  0  0  0
    7.9172    2.0761   -1.7916 O   0  0  0  0  0  0  0  0  0  0  0  0
    6.4841    0.3315   -1.5748 N   0  0  0  0  0  0  0  0  0  0  0  0
    6.4541    0.4390   -3.0394 C   0  0  0  0  0  0  0  0  0  0  0  0
    5.5635   -0.6368   -3.5300 C   0  0  0  0  0  0  0  0  0  0  0  0
    5.0012   -1.4552   -2.7591 O   0  0  0  0  0  0  0  0  0  0  0  0
    5.3165   -0.7726   -4.9236 N   0  0  0  0  0  0  0  0  0  0  0  0
    8.8469    0.8632    0.9646 C   0  0  0  0  0  0  0  0  0  0  0  0
   10.1270    1.3962    0.4968 C   0  0  0  0  0  0  0  0  0  0  0  0
   10.4893    1.3258   -0.9355 C   0  0  0  0  0  0  0  0  0  0  0  0
   11.2245    0.6701    1.3087 C   0  0  0  0  0  0  0  0  0  0  0  0
   -5.9576    4.4040   -0.2774 C   0  0  0  0  0  0  0  0  0  0  0  0
   -7.3568    4.7983   -0.0390 C   0  0  0  0  0  0  0  0  0  0  0  0
   -8.4477    4.1215   -0.5719 C   0  0  0  0  0  0  0  0  0  0  0  0
   -9.7447    4.5478   -0.2970 C   0  0  0  0  0  0  0  0  0  0  0  0
  -10.0068    5.6452    0.5044 C   0  0  0  0  0  0  0  0  0  0  0  0
   -8.9124    6.3029    1.0238 C   0  0  0  0  0  0  0  0  0  0  0  0
   -7.6052    5.8998    0.7666 C   0  0  0  0  0  0  0  0  0  0  0  0
  -11.2935    6.0703    0.7777 O   0  0  0  0  0  0  0  0  0  0  0  0
   -8.8134    0.1307    0.0886 C   0  0  0  0  0  0  0  0  0  0  0  0
   -6.9465   -1.8791   -3.4449 H   0  0  0  0  0  0  0  0  0  0  0  0
   -5.4802   -1.0589   -2.7912 H   0  0  0  0  0  0  0  0  0  0  0  0
   -6.3562   -2.3374   -1.8217 H   0  0  0  0  0  0  0  0  0  0  0  0
   -7.1066    0.4813   -2.2490 H   0  0  0  0  0  0  0  0  0  0  0  0
   -8.4542   -0.6491   -2.3323 H   0  0  0  0  0  0  0  0  0  0  0  0
   -7.8625   -1.7028   -0.2088 H   0  0  0  0  0  0  0  0  0  0  0  0
   -6.8053   -0.2218    1.5253 H   0  0  0  0  0  0  0  0  0  0  0  0
   -4.9956    1.0547   -0.4468 H   0  0  0  0  0  0  0  0  0  0  0  0
   -5.5314    4.0114    1.7406 H   0  0  0  0  0  0  0  0  0  0  0  0
   -3.5472    2.9828   -0.3359 H   0  0  0  0  0  0  0  0  0  0  0  0
   -1.5080    1.9648    1.4265 H   0  0  0  0  0  0  0  0  0  0  0  0
   -1.1496    3.7397    1.4647 H   0  0  0  0  0  0  0  0  0  0  0  0
   -2.2350    1.9581    3.7266 H   0  0  0  0  0  0  0  0  0  0  0  0
   -2.1078    3.7068    3.8923 H   0  0  0  0  0  0  0  0  0  0  0  0
    0.8909    1.3113    0.8254 H   0  0  0  0  0  0  0  0  0  0  0  0
    2.4106    1.9398    1.4751 H   0  0  0  0  0  0  0  0  0  0  0  0
    3.0412    0.1953    0.1613 H   0  0  0  0  0  0  0  0  0  0  0  0
    0.6014   -1.4547    0.9300 H   0  0  0  0  0  0  0  0  0  0  0  0
    0.8640   -2.9813   -2.2373 H   0  0  0  0  0  0  0  0  0  0  0  0
   -0.7274   -3.4905   -0.6203 H   0  0  0  0  0  0  0  0  0  0  0  0
   -2.9465   -2.9303    0.7023 H   0  0  0  0  0  0  0  0  0  0  0  0
   -4.1315   -0.6986   -0.9085 H   0  0  0  0  0  0  0  0  0  0  0  0
   -2.4853   -4.2139   -1.3513 H   0  0  0  0  0  0  0  0  0  0  0  0
   -3.6691   -3.2516   -2.2243 H   0  0  0  0  0  0  0  0  0  0  0  0
   -5.5391   -4.1538   -0.7092 H   0  0  0  0  0  0  0  0  0  0  0  0
   -4.2879   -5.1285    0.0971 H   0  0  0  0  0  0  0  0  0  0  0  0
   -6.6091   -6.5635   -2.1860 H   0  0  0  0  0  0  0  0  0  0  0  0
   -5.7032   -7.3258   -0.8324 H   0  0  0  0  0  0  0  0  0  0  0  0
   -0.2701   -0.2405   -2.8278 H   0  0  0  0  0  0  0  0  0  0  0  0
    0.9980   -1.1924   -3.5869 H   0  0  0  0  0  0  0  0  0  0  0  0
    0.7003   -3.0605   -4.9627 H   0  0  0  0  0  0  0  0  0  0  0  0
   -0.8951   -3.8601   -5.0853 H   0  0  0  0  0  0  0  0  0  0  0  0
    3.9536   -2.3404    3.8473 H   0  0  0  0  0  0  0  0  0  0  0  0
    5.1101   -1.2291    4.6144 H   0  0  0  0  0  0  0  0  0  0  0  0
    7.4259   -0.9242    3.7433 H   0  0  0  0  0  0  0  0  0  0  0  0
    9.3444   -2.0831    2.7366 H   0  0  0  0  0  0  0  0  0  0  0  0
    9.0194   -4.1252    1.4263 H   0  0  0  0  0  0  0  0  0  0  0  0
    6.8120   -5.0118    1.1158 H   0  0  0  0  0  0  0  0  0  0  0  0
    4.8606   -3.9523    2.0643 H   0  0  0  0  0  0  0  0  0  0  0  0
    5.1363    0.7974    4.1463 H   0  0  0  0  0  0  0  0  0  0  0  0
    3.8331    1.4690    3.1366 H   0  0  0  0  0  0  0  0  0  0  0  0
    6.2060   -0.3175    0.9311 H   0  0  0  0  0  0  0  0  0  0  0  0
    7.4295    2.4840    0.8072 H   0  0  0  0  0  0  0  0  0  0  0  0
    5.9475   -0.3691   -1.0406 H   0  0  0  0  0  0  0  0  0  0  0  0
    7.4826    0.3565   -3.4643 H   0  0  0  0  0  0  0  0  0  0  0  0
    5.9905    1.4099   -3.2939 H   0  0  0  0  0  0  0  0  0  0  0  0
    5.5843   -0.0235   -5.6002 H   0  0  0  0  0  0  0  0  0  0  0  0
    4.8595   -1.6216   -5.3234 H   0  0  0  0  0  0  0  0  0  0  0  0
    8.8805   -0.2646    0.8217 H   0  0  0  0  0  0  0  0  0  0  0  0
    8.8369    0.9657    2.0883 H   0  0  0  0  0  0  0  0  0  0  0  0
   10.2847    2.4800    0.8000 H   0  0  0  0  0  0  0  0  0  0  0  0
   11.6053    1.0437   -0.9670 H   0  0  0  0  0  0  0  0  0  0  0  0
   10.5171    2.3256   -1.4442 H   0  0  0  0  0  0  0  0  0  0  0  0
   10.0311    0.5237   -1.5260 H   0  0  0  0  0  0  0  0  0  0  0  0
   10.8703    0.6033    2.3599 H   0  0  0  0  0  0  0  0  0  0  0  0
   11.2809   -0.3506    0.8887 H   0  0  0  0  0  0  0  0  0  0  0  0
   12.1676    1.2207    1.2411 H   0  0  0  0  0  0  0  0  0  0  0  0
   -5.3296    5.3256   -0.2148 H   0  0  0  0  0  0  0  0  0  0  0  0
   -5.7864    4.0381   -1.3238 H   0  0  0  0  0  0  0  0  0  0  0  0
   -8.2452    3.2782   -1.1926 H   0  0  0  0  0  0  0  0  0  0  0  0
  -10.5745    4.0043   -0.7190 H   0  0  0  0  0  0  0  0  0  0  0  0
   -9.0908    7.1708    1.6613 H   0  0  0  0  0  0  0  0  0  0  0  0
   -6.8088    6.4833    1.2211 H   0  0  0  0  0  0  0  0  0  0  0  0
  -11.7269    6.7809    0.1844 H   0  0  0  0  0  0  0  0  0  0  0  0
   -9.7565   -0.4364   -0.1981 H   0  0  0  0  0  0  0  0  0  0  0  0
   -8.9032    1.1794   -0.2432 H   0  0  0  0  0  0  0  0  0  0  0  0
   -8.8431    0.1083    1.1960 H   0  0  0  0  0  0  0  0  0  0  0  0
  1  2  1  0
  2  3  1  0
  3  4  1  0
  4  5  1  0
  5  6  1  0
  6  7  2  0
  6  8  1  0
  8  9  1  0
  9 10  1  0
 10 11  2  0
 10 12  1  0
 12 13  1  0
 13 14  1  0
 14 15  1  0
 15 16  1  0
 16 17  1  0
 17 18  1  0
 18 19  1  0
 19 20  2  0
 19 21  1  0
 21 22  1  0
 22 23  1  0
 23 24  2  0
 23 25  1  0
 25 26  1  0
 26 27  1  0
 27 28  2  0
 25 29  1  0
 29 30  1  0
 30 31  1  0
 31 32  2  0
 31 33  1  0
 21 34  1  0
 34 35  1  0
 35 36  2  0
 35 37  1  0
 17 38  1  0
 38 39  2  0
 38 40  1  0
 40 41  1  0
 41 42  1  0
 42 43  2  0
 43 44  1  0
 44 45  2  0
 45 46  1  0
 46 47  2  0
 40 48  1  0
 48 49  1  0
 49 50  2  0
 49 51  1  0
 51 52  1  0
 52 53  1  0
 53 54  2  0
 53 55  1  0
 55 56  1  0
 56 57  1  0
 57 58  2  0
 57 59  1  0
 52 60  1  0
 60 61  1  0
 61 62  1  0
 61 63  1  0
  8 64  1  0
 64 65  1  0
 65 66  2  0
 66 67  1  0
 67 68  2  0
 68 69  1  0
 69 70  2  0
 68 71  1  0
  3 72  1  0
 27  4  1  0
 47 42  1  0
 70 65  1  0
  1 73  1  0
  1 74  1  0
  1 75  1  0
  2 76  1  0
  2 77  1  0
  3 78  1  6
  4 79  1  1
  5 80  1  0
  8 81  1  1
  9 82  1  0
 12 83  1  0
 12 84  1  0
 13 85  1  0
 13 86  1  0
 16 87  1  0
 16 88  1  0
 17 89  1  6
 18 90  1  0
 21 91  1  6
 22 92  1  0
 25 93  1  1
 26 94  1  0
 29 95  1  0
 29 96  1  0
 30 97  1  0
 30 98  1  0
 33 99  1  0
 33100  1  0
 34101  1  0
 34102  1  0
 37103  1  0
 37104  1  0
 41105  1  0
 41106  1  0
 43107  1  0
 44108  1  0
 45109  1  0
 46110  1  0
 47111  1  0
 48112  1  0
 48113  1  0
 51114  1  0
 52115  1  1
 55116  1  0
 56117  1  0
 56118  1  0
 59119  1  0
 59120  1  0
 60121  1  0
 60122  1  0
 61123  1  0
 62124  1  0
 62125  1  0
 62126  1  0
 63127  1  0
 63128  1  0
 63129  1  0
 64130  1  0
 64131  1  0
 66132  1  0
 67133  1  0
 69134  1  0
 70135  1  0
 71136  1  0
 72137  1  0
 72138  1  0
 72139  1  0
M  END
>  <Ligand ID>  (1) 
LIG0001635

>  <Ligand>  (1) 
CHEMBL3353944

>  <SMILES>  (1) 
CC[C@@H]([C@@H]1NC(=O)[C@@H](NC(=O)CCSSC[C@H](NC(=O)[C@@H](NC(=O)[C@@H](NC1=O)CCC(=O)N)CC(=O)N)C(=O)N(Cc1ccccc1)CC(=O)N[C@H](C(=O)NCC(=O)N)CC(C)C)Cc1ccc(cc1)O)C

>  <CID>  (1) 
118719833.0

>  <ChEMBL ID>  (1) 
nan

>  <InChiKey>  (1) 
XHDZGDMJNNYGDX-SJMOYVGOSA-N

>  <InChi>  (1) 
InChI=1S/C47H67N11O12S2/c1-5-27(4)41-46(69)54-31(15-16-36(48)60)43(66)55-34(21-37(49)61)44(67)56-35(25-72-71-18-17-39(63)52-33(45(68)57-41)20-28-11-13-30(59)14-12-28)47(70)58(23-29-9-7-6-8-10-29)24-40(64)53-32(19-26(2)3)42(65)51-22-38(50)62/h6-14,26-27,31-35,41,59H,5,15-25H2,1-4H3,(H2,48,60)(H2,49,61)(H2,50,62)(H,51,65)(H,52,63)(H,53,64)(H,54,69)(H,55,66)(H,56,67)(H,57,68)/t27-,31-,32-,33-,34-,35-,41-/m0/s1

>  <IUPAC Name>  (1) 
(4R,7S,10S,13S,16S)-7-(2-amino-2-oxoethyl)-N-[2-[[(2S)-1-[(2-amino-2-oxoethyl)amino]-4-methyl-1-oxopentan-2-yl]amino]-2-oxoethyl]-10-(3-amino-3-oxopropyl)-N-benzyl-13-[(2S)-butan-2-yl]-16-[(4-hydroxyphenyl)methyl]-6,9,12,15,18-pentaoxo-1,2-dithia-5,8,11,14,17-pentazacycloicosane-4-carboxamide

$$$$
