
     RDKit          3D

 24 25  0  0  0  0  0  0  0  0999 V2000
   -0.2671    0.2324    2.5696 F   0  0  0  0  0  0  0  0  0  0  0  0
   -0.5861    1.0606    1.4940 C   0  0  2  0  0  0  0  0  0  0  0  0
   -1.6389    0.3735    0.6589 C   0  0  0  0  0  0  0  0  0  0  0  0
   -0.8757   -0.6466   -0.1111 C   0  0  1  0  0  0  0  0  0  0  0  0
    0.4223    0.0465   -0.4473 C   0  0  1  0  0  0  0  0  0  0  0  0
    0.5679    1.1675    0.5381 C   0  0  2  0  0  0  0  0  0  0  0  0
    1.5427    0.0780    0.5152 C   0  0  2  0  0  0  0  0  0  0  0  0
    2.9051    0.2922   -0.0090 C   0  0  0  0  0  0  0  0  0  0  0  0
    3.8545   -0.3002    0.5857 O   0  0  0  0  0  0  0  0  0  0  0  0
    3.1986    1.0956   -1.1022 O   0  0  0  0  0  0  0  0  0  0  0  0
   -0.6696   -1.9017    0.5679 N   0  0  0  0  0  0  0  0  0  0  0  0
   -1.5963   -0.9306   -1.3791 C   0  0  0  0  0  0  0  0  0  0  0  0
   -1.9107   -2.1300   -1.6775 O   0  0  0  0  0  0  0  0  0  0  0  0
   -1.9294    0.1057   -2.2415 O   0  0  0  0  0  0  0  0  0  0  0  0
   -0.9402    2.0632    1.8397 H   0  0  0  0  0  0  0  0  0  0  0  0
   -2.0759    1.1004   -0.0585 H   0  0  0  0  0  0  0  0  0  0  0  0
   -2.4594   -0.0377    1.2726 H   0  0  0  0  0  0  0  0  0  0  0  0
    0.6802    0.2026   -1.5175 H   0  0  0  0  0  0  0  0  0  0  0  0
    0.7415    2.1491    0.0541 H   0  0  0  0  0  0  0  0  0  0  0  0
    1.5477   -0.6119    1.4073 H   0  0  0  0  0  0  0  0  0  0  0  0
    4.1352    1.1376   -1.5032 H   0  0  0  0  0  0  0  0  0  0  0  0
   -0.8268   -1.8692    1.5852 H   0  0  0  0  0  0  0  0  0  0  0  0
   -1.0523   -2.7065    0.0599 H   0  0  0  0  0  0  0  0  0  0  0  0
   -2.7673    0.0294   -2.8258 H   0  0  0  0  0  0  0  0  0  0  0  0
  1  2  1  0
  2  3  1  0
  3  4  1  0
  4  5  1  0
  5  6  1  0
  6  7  1  0
  7  8  1  0
  8  9  2  0
  8 10  1  0
  4 11  1  1
  4 12  1  0
 12 13  2  0
 12 14  1  0
  6  2  1  0
  7  5  1  0
  2 15  1  1
  3 16  1  0
  3 17  1  0
  5 18  1  6
  6 19  1  6
  7 20  1  1
 10 21  1  0
 11 22  1  0
 11 23  1  0
 14 24  1  0
M  END
>  <Ligand ID>  (1) 
LIG0001197

>  <Ligand>  (1) 
CHEMBL2381652

>  <SMILES>  (1) 
F[C@@H]1C[C@@]([C@H]2[C@@H]1[C@@H]2C(=O)O)(N)C(=O)O

>  <CID>  (1) 
15479143.0

>  <ChEMBL ID>  (1) 
nan

>  <InChiKey>  (1) 
WLYANNSIDDXEGE-RTHBWCHNSA-N

>  <InChi>  (1) 
InChI=1S/C8H10FNO4/c9-2-1-8(10,7(13)14)5-3(2)4(5)6(11)12/h2-5H,1,10H2,(H,11,12)(H,13,14)/t2-,3+,4+,5+,8+/m1/s1

>  <IUPAC Name>  (1) 
(1R,2S,4R,5R,6R)-2-amino-4-fluorobicyclo[3.1.0]hexane-2,6-dicarboxylic acid

$$$$
