
     RDKit          3D

 40 43  0  0  0  0  0  0  0  0999 V2000
    8.8954   -1.6673    1.3077 F   0  0  0  0  0  0  0  0  0  0  0  0
    7.7540   -1.2157    0.7554 C   0  0  0  0  0  0  0  0  0  0  0  0
    6.5203   -1.6500    1.2103 C   0  0  0  0  0  0  0  0  0  0  0  0
    5.3808   -1.1562    0.6099 C   0  0  0  0  0  0  0  0  0  0  0  0
    5.4289   -0.2371   -0.4366 C   0  0  0  0  0  0  0  0  0  0  0  0
    6.6434    0.1855   -0.8789 C   0  0  0  0  0  0  0  0  0  0  0  0
    7.7968   -0.2974   -0.2905 C   0  0  0  0  0  0  0  0  0  0  0  0
    6.7992    1.3297   -2.1786 Cl  0  0  0  0  0  0  0  0  0  0  0  0
    4.1879    0.2477   -1.0301 C   0  0  0  0  0  0  0  0  0  0  0  0
    4.0043    1.1245   -2.0362 N   0  0  0  0  0  0  0  0  0  0  0  0
    2.7326    1.2852   -2.2609 O   0  0  0  0  0  0  0  0  0  0  0  0
    2.0377    0.5421   -1.4359 C   0  0  0  0  0  0  0  0  0  0  0  0
    2.9413   -0.1142   -0.6579 N   0  0  0  0  0  0  0  0  0  0  0  0
    0.5396    0.4131   -1.3375 C   0  0  0  0  0  0  0  0  0  0  0  0
    0.0357    1.4515   -0.3606 C   0  0  0  0  0  0  0  0  0  0  0  0
   -1.4683    1.3668   -0.2239 C   0  0  0  0  0  0  0  0  0  0  0  0
   -1.8944    0.0940    0.2505 N   0  0  0  0  0  0  0  0  0  0  0  0
   -3.2998   -0.1175    0.4191 C   0  0  0  0  0  0  0  0  0  0  0  0
   -4.3350    0.4646    0.2848 N   0  0  0  0  0  0  0  0  0  0  0  0
   -5.5500    0.0344    0.5172 C   0  0  0  0  0  0  0  0  0  0  0  0
   -5.6311   -1.2530    0.9736 C   0  0  0  0  0  0  0  0  0  0  0  0
   -3.8956   -1.7636    1.0357 S   0  0  0  0  0  0  0  0  0  0  0  0
   -6.7954   -1.9256    1.2874 C   0  0  0  0  0  0  0  0  0  0  0  0
   -8.0043   -1.2519    1.1328 C   0  0  0  0  0  0  0  0  0  0  0  0
   -7.9260    0.0436    0.6738 C   0  0  0  0  0  0  0  0  0  0  0  0
   -6.7741    0.7024    0.3655 C   0  0  0  0  0  0  0  0  0  0  0  0
   -9.5051   -2.0568    1.5156 Cl  0  0  0  0  0  0  0  0  0  0  0  0
    6.4421   -2.3629    2.0208 H   0  0  0  0  0  0  0  0  0  0  0  0
    4.3850   -1.4691    0.9341 H   0  0  0  0  0  0  0  0  0  0  0  0
    8.7721    0.0426   -0.6464 H   0  0  0  0  0  0  0  0  0  0  0  0
    0.0525    0.5046   -2.3111 H   0  0  0  0  0  0  0  0  0  0  0  0
    0.2878   -0.5824   -0.9187 H   0  0  0  0  0  0  0  0  0  0  0  0
    0.5301    1.3646    0.6267 H   0  0  0  0  0  0  0  0  0  0  0  0
    0.2828    2.4820   -0.7163 H   0  0  0  0  0  0  0  0  0  0  0  0
   -1.8833    1.4870   -1.2469 H   0  0  0  0  0  0  0  0  0  0  0  0
   -1.8350    2.2198    0.3757 H   0  0  0  0  0  0  0  0  0  0  0  0
   -1.2053   -0.6352    0.4602 H   0  0  0  0  0  0  0  0  0  0  0  0
   -6.7365   -2.9461    1.6409 H   0  0  0  0  0  0  0  0  0  0  0  0
   -8.8771    0.5708    0.5531 H   0  0  0  0  0  0  0  0  0  0  0  0
   -6.8338    1.7113    0.0162 H   0  0  0  0  0  0  0  0  0  0  0  0
  1  2  1  0
  2  3  2  0
  3  4  1  0
  4  5  2  0
  5  6  1  0
  6  7  2  0
  6  8  1  0
  5  9  1  0
  9 10  2  0
 10 11  1  0
 11 12  1  0
 12 13  2  0
 12 14  1  0
 14 15  1  0
 15 16  1  0
 16 17  1  0
 17 18  1  0
 18 19  2  0
 19 20  1  0
 20 21  2  0
 21 22  1  0
 21 23  1  0
 23 24  2  0
 24 25  1  0
 25 26  2  0
 24 27  1  0
  7  2  1  0
 13  9  1  0
 22 18  1  0
 26 20  1  0
  3 28  1  0
  4 29  1  0
  7 30  1  0
 14 31  1  0
 14 32  1  0
 15 33  1  0
 15 34  1  0
 16 35  1  0
 16 36  1  0
 17 37  1  0
 23 38  1  0
 25 39  1  0
 26 40  1  0
M  END
>  <Ligand ID>  (1) 
LIG0002489

>  <Ligand>  (1) 
CHEMBL498795

>  <SMILES>  (1) 
Fc1ccc(c(c1)Cl)c1noc(n1)CCCNc1nc2c(s1)cc(cc2)Cl

>  <CID>  (1) 
25034007.0

>  <ChEMBL ID>  (1) 
nan

>  <InChiKey>  (1) 
XABIDAQFJJMTAS-UHFFFAOYSA-N

>  <InChi>  (1) 
InChI=1S/C18H13Cl2FN4OS/c19-10-3-6-14-15(8-10)27-18(23-14)22-7-1-2-16-24-17(25-26-16)12-5-4-11(21)9-13(12)20/h3-6,8-9H,1-2,7H2,(H,22,23)

>  <IUPAC Name>  (1) 
6-chloro-N-[3-[3-(2-chloro-4-fluorophenyl)-1,2,4-oxadiazol-5-yl]propyl]-1,3-benzothiazol-2-amine

$$$$
