
     RDKit          3D

 58 61  0  0  0  0  0  0  0  0999 V2000
    7.8621   -1.6443    0.9271 O   0  0  0  0  0  0  0  0  0  0  0  0
    6.8163   -1.1587    0.1739 C   0  0  0  0  0  0  0  0  0  0  0  0
    6.9719   -0.4728   -0.8570 O   0  0  0  0  0  0  0  0  0  0  0  0
    5.4170   -1.4540    0.5909 C   0  0  0  0  0  0  0  0  0  0  0  0
    4.4344   -0.8244   -0.3765 C   0  0  2  0  0  0  0  0  0  0  0  0
    4.6466    0.6332   -0.3825 C   0  0  0  0  0  0  0  0  0  0  0  0
    5.0386    1.3197    0.7302 N   0  0  0  0  0  0  0  0  0  0  0  0
    5.1493    2.6103    0.4315 C   0  0  0  0  0  0  0  0  0  0  0  0
    4.8246    2.7800   -0.9027 C   0  0  0  0  0  0  0  0  0  0  0  0
    4.5274    1.5456   -1.3474 N   0  0  0  0  0  0  0  0  0  0  0  0
    4.1315    1.2563   -2.6966 C   0  0  0  0  0  0  0  0  0  0  0  0
    3.0652   -1.2419   -0.0397 C   0  0  0  0  0  0  0  0  0  0  0  0
    2.1427   -1.3945   -1.0520 C   0  0  0  0  0  0  0  0  0  0  0  0
    0.8572   -1.7858   -0.7410 C   0  0  0  0  0  0  0  0  0  0  0  0
    0.4152   -2.0410    0.5306 C   0  0  0  0  0  0  0  0  0  0  0  0
    1.3800   -1.8768    1.5440 C   0  0  0  0  0  0  0  0  0  0  0  0
    2.6675   -1.4874    1.2563 C   0  0  0  0  0  0  0  0  0  0  0  0
   -0.8162   -2.4246    0.9251 O   0  0  0  0  0  0  0  0  0  0  0  0
   -2.0122   -2.6891    0.3347 C   0  0  0  0  0  0  0  0  0  0  0  0
   -2.6858   -1.6208   -0.4066 C   0  0  0  0  0  0  0  0  0  0  0  0
   -2.6249   -1.3915   -1.7490 C   0  0  0  0  0  0  0  0  0  0  0  0
   -3.2759   -0.3569   -2.3955 C   0  0  0  0  0  0  0  0  0  0  0  0
   -4.0403    0.5066   -1.6456 C   0  0  0  0  0  0  0  0  0  0  0  0
   -4.1353    0.3143   -0.2654 C   0  0  0  0  0  0  0  0  0  0  0  0
   -3.4716   -0.7266    0.3362 C   0  0  0  0  0  0  0  0  0  0  0  0
   -4.9625    1.2759    0.4520 C   0  0  0  0  0  0  0  0  0  0  0  0
   -4.7729    2.6087    0.1485 C   0  0  0  0  0  0  0  0  0  0  0  0
   -5.4882    3.6082    0.7582 C   0  0  0  0  0  0  0  0  0  0  0  0
   -6.4190    3.2634    1.6975 C   0  0  0  0  0  0  0  0  0  0  0  0
   -6.6122    1.9409    2.0035 C   0  0  0  0  0  0  0  0  0  0  0  0
   -5.8987    0.9157    1.3978 C   0  0  0  0  0  0  0  0  0  0  0  0
   -6.1153   -0.4984    1.7308 C   0  0  0  0  0  0  0  0  0  0  0  0
   -7.3210    4.5644    2.4626 Cl  0  0  0  0  0  0  0  0  0  0  0  0
    8.7944   -1.6954    0.5221 H   0  0  0  0  0  0  0  0  0  0  0  0
    5.2890   -2.5421    0.6599 H   0  0  0  0  0  0  0  0  0  0  0  0
    5.3090   -1.0243    1.6123 H   0  0  0  0  0  0  0  0  0  0  0  0
    4.7475   -1.1857   -1.3982 H   0  0  0  0  0  0  0  0  0  0  0  0
    5.4519    3.3722    1.1608 H   0  0  0  0  0  0  0  0  0  0  0  0
    4.8268    3.7260   -1.4233 H   0  0  0  0  0  0  0  0  0  0  0  0
    3.1068    1.6671   -2.9355 H   0  0  0  0  0  0  0  0  0  0  0  0
    4.8042    1.8232   -3.4055 H   0  0  0  0  0  0  0  0  0  0  0  0
    4.2475    0.1982   -2.9925 H   0  0  0  0  0  0  0  0  0  0  0  0
    2.4454   -1.2025   -2.0875 H   0  0  0  0  0  0  0  0  0  0  0  0
    0.1750   -1.8974   -1.5618 H   0  0  0  0  0  0  0  0  0  0  0  0
    1.1055   -2.0621    2.5903 H   0  0  0  0  0  0  0  0  0  0  0  0
    3.3544   -1.3813    2.0805 H   0  0  0  0  0  0  0  0  0  0  0  0
   -2.7326   -3.0115    1.1496 H   0  0  0  0  0  0  0  0  0  0  0  0
   -1.9498   -3.6263   -0.2982 H   0  0  0  0  0  0  0  0  0  0  0  0
   -2.0390   -2.0578   -2.3589 H   0  0  0  0  0  0  0  0  0  0  0  0
   -3.1687   -0.2526   -3.4697 H   0  0  0  0  0  0  0  0  0  0  0  0
   -4.5565    1.3219   -2.1362 H   0  0  0  0  0  0  0  0  0  0  0  0
   -3.5565   -0.8528    1.3865 H   0  0  0  0  0  0  0  0  0  0  0  0
   -4.0335    2.9015   -0.5993 H   0  0  0  0  0  0  0  0  0  0  0  0
   -5.3022    4.6262    0.4862 H   0  0  0  0  0  0  0  0  0  0  0  0
   -7.3651    1.7044    2.7595 H   0  0  0  0  0  0  0  0  0  0  0  0
   -5.8769   -1.1772    0.8943 H   0  0  0  0  0  0  0  0  0  0  0  0
   -7.1919   -0.6172    1.9795 H   0  0  0  0  0  0  0  0  0  0  0  0
   -5.5802   -0.8081    2.6640 H   0  0  0  0  0  0  0  0  0  0  0  0
  1  2  1  0
  2  3  2  0
  2  4  1  0
  4  5  1  0
  5  6  1  0
  6  7  2  0
  7  8  1  0
  8  9  2  0
  9 10  1  0
 10 11  1  0
  5 12  1  0
 12 13  2  0
 13 14  1  0
 14 15  2  0
 15 16  1  0
 16 17  2  0
 15 18  1  0
 18 19  1  0
 19 20  1  0
 20 21  2  0
 21 22  1  0
 22 23  2  0
 23 24  1  0
 24 25  2  0
 24 26  1  0
 26 27  2  0
 27 28  1  0
 28 29  2  0
 29 30  1  0
 30 31  2  0
 31 32  1  0
 29 33  1  0
 10  6  1  0
 17 12  1  0
 25 20  1  0
 31 26  1  0
  1 34  1  0
  4 35  1  0
  4 36  1  0
  5 37  1  6
  8 38  1  0
  9 39  1  0
 11 40  1  0
 11 41  1  0
 11 42  1  0
 13 43  1  0
 14 44  1  0
 16 45  1  0
 17 46  1  0
 19 47  1  0
 19 48  1  0
 21 49  1  0
 22 50  1  0
 23 51  1  0
 25 52  1  0
 27 53  1  0
 28 54  1  0
 30 55  1  0
 32 56  1  0
 32 57  1  0
 32 58  1  0
M  END
>  <Ligand ID>  (1) 
LIG0001697

>  <Ligand>  (1) 
CHEMBL3287569

>  <SMILES>  (1) 
OC(=O)C[C@H](c1nccn1C)c1ccc(cc1)OCc1cccc(c1)c1ccc(cc1C)Cl

>  <CID>  (1) 
11961321.0

>  <ChEMBL ID>  (1) 
nan

>  <InChiKey>  (1) 
GFFXCPIMXLSUGF-VWLOTQADSA-N

>  <InChi>  (1) 
InChI=1S/C27H25ClN2O3/c1-18-14-22(28)8-11-24(18)21-5-3-4-19(15-21)17-33-23-9-6-20(7-10-23)25(16-26(31)32)27-29-12-13-30(27)2/h3-15,25H,16-17H2,1-2H3,(H,31,32)/t25-/m0/s1

>  <IUPAC Name>  (1) 
(3S)-3-[4-[[3-(4-chloro-2-methylphenyl)phenyl]methoxy]phenyl]-3-(1-methylimidazol-2-yl)propanoic acid

$$$$
