
     RDKit          3D

 51 53  0  0  0  0  0  0  0  0999 V2000
   -4.7201    3.8413    1.2356 C   0  0  0  0  0  0  0  0  0  0  0  0
   -4.7911    2.8769    0.2314 O   0  0  0  0  0  0  0  0  0  0  0  0
   -3.9989    1.7477    0.1418 C   0  0  0  0  0  0  0  0  0  0  0  0
   -3.0163    1.4245    1.0544 C   0  0  0  0  0  0  0  0  0  0  0  0
   -2.2717    0.2679    0.8799 C   0  0  0  0  0  0  0  0  0  0  0  0
   -2.4495   -0.5987   -0.1645 C   0  0  0  0  0  0  0  0  0  0  0  0
   -3.4547   -0.2489   -1.0797 C   0  0  0  0  0  0  0  0  0  0  0  0
   -4.1867    0.8863   -0.9096 C   0  0  0  0  0  0  0  0  0  0  0  0
   -1.7163   -1.8279   -0.4290 C   0  0  0  0  0  0  0  0  0  0  0  0
   -2.7313   -2.8543   -0.7321 N   0  0  0  0  0  0  0  0  0  0  0  0
   -3.5013   -3.1968    0.4283 C   0  0  0  0  0  0  0  0  0  0  0  0
   -2.1862   -3.9953   -1.3982 C   0  0  0  0  0  0  0  0  0  0  0  0
   -0.7888   -2.3299    0.6082 C   0  0  0  0  0  0  0  0  0  0  0  0
    0.3017   -1.4589    0.9739 N   0  0  0  0  0  0  0  0  0  0  0  0
    1.2500   -1.0334    0.0079 C   0  0  0  0  0  0  0  0  0  0  0  0
    1.0873   -1.4559   -1.1717 O   0  0  0  0  0  0  0  0  0  0  0  0
    2.3733   -0.1555    0.3029 C   0  0  0  0  0  0  0  0  0  0  0  0
    2.6357    0.3581    1.5546 C   0  0  0  0  0  0  0  0  0  0  0  0
    3.7129    1.1928    1.8103 C   0  0  0  0  0  0  0  0  0  0  0  0
    4.5781    1.5446    0.7944 C   0  0  0  0  0  0  0  0  0  0  0  0
    4.3191    1.0326   -0.4602 C   0  0  0  0  0  0  0  0  0  0  0  0
    3.2439    0.2015   -0.7074 C   0  0  0  0  0  0  0  0  0  0  0  0
    5.3548    1.5175   -1.4315 C   0  0  0  0  0  0  0  0  0  0  0  0
    6.4587    2.0856   -0.5329 C   0  0  0  0  0  0  0  0  0  0  0  0
    5.7913    2.4036    0.7716 C   0  0  0  0  0  0  0  0  0  0  0  0
   -4.2989    3.4577    2.1857 H   0  0  0  0  0  0  0  0  0  0  0  0
   -5.7348    4.2476    1.5027 H   0  0  0  0  0  0  0  0  0  0  0  0
   -4.1336    4.7440    0.9191 H   0  0  0  0  0  0  0  0  0  0  0  0
   -2.8363    2.0671    1.8884 H   0  0  0  0  0  0  0  0  0  0  0  0
   -1.5266    0.0600    1.6135 H   0  0  0  0  0  0  0  0  0  0  0  0
   -3.6672   -0.8772   -1.9404 H   0  0  0  0  0  0  0  0  0  0  0  0
   -4.9606    1.1252   -1.6431 H   0  0  0  0  0  0  0  0  0  0  0  0
   -1.2053   -1.6863   -1.4188 H   0  0  0  0  0  0  0  0  0  0  0  0
   -3.1422   -4.1314    0.9230 H   0  0  0  0  0  0  0  0  0  0  0  0
   -4.5425   -3.4323    0.1077 H   0  0  0  0  0  0  0  0  0  0  0  0
   -3.5875   -2.3573    1.1408 H   0  0  0  0  0  0  0  0  0  0  0  0
   -2.0883   -4.8312   -0.6951 H   0  0  0  0  0  0  0  0  0  0  0  0
   -2.9492   -4.3144   -2.1652 H   0  0  0  0  0  0  0  0  0  0  0  0
   -1.2480   -3.6882   -1.8864 H   0  0  0  0  0  0  0  0  0  0  0  0
   -1.3329   -2.7074    1.5151 H   0  0  0  0  0  0  0  0  0  0  0  0
   -0.3338   -3.2777    0.1850 H   0  0  0  0  0  0  0  0  0  0  0  0
    0.4620   -1.1059    1.9562 H   0  0  0  0  0  0  0  0  0  0  0  0
    1.9985    0.1219    2.3900 H   0  0  0  0  0  0  0  0  0  0  0  0
    3.8820    1.5739    2.8086 H   0  0  0  0  0  0  0  0  0  0  0  0
    3.0682   -0.1825   -1.6994 H   0  0  0  0  0  0  0  0  0  0  0  0
    5.7323    0.7014   -2.0672 H   0  0  0  0  0  0  0  0  0  0  0  0
    4.9876    2.3873   -2.0218 H   0  0  0  0  0  0  0  0  0  0  0  0
    7.1962    1.2444   -0.4082 H   0  0  0  0  0  0  0  0  0  0  0  0
    6.9282    2.9825   -0.9523 H   0  0  0  0  0  0  0  0  0  0  0  0
    5.5379    3.4787    0.8637 H   0  0  0  0  0  0  0  0  0  0  0  0
    6.5008    2.1749    1.6056 H   0  0  0  0  0  0  0  0  0  0  0  0
  1  2  1  0
  2  3  1  0
  3  4  2  0
  4  5  1  0
  5  6  2  0
  6  7  1  0
  7  8  2  0
  6  9  1  0
  9 10  1  0
 10 11  1  0
 10 12  1  0
  9 13  1  0
 13 14  1  0
 14 15  1  0
 15 16  2  0
 15 17  1  0
 17 18  2  0
 18 19  1  0
 19 20  2  0
 20 21  1  0
 21 22  2  0
 21 23  1  0
 23 24  1  0
 24 25  1  0
  8  3  1  0
 22 17  1  0
 25 20  1  0
  1 26  1  0
  1 27  1  0
  1 28  1  0
  4 29  1  0
  5 30  1  0
  7 31  1  0
  8 32  1  0
  9 33  1  0
 11 34  1  0
 11 35  1  0
 11 36  1  0
 12 37  1  0
 12 38  1  0
 12 39  1  0
 13 40  1  0
 13 41  1  0
 14 42  1  0
 18 43  1  0
 19 44  1  0
 22 45  1  0
 23 46  1  0
 23 47  1  0
 24 48  1  0
 24 49  1  0
 25 50  1  0
 25 51  1  0
M  END
>  <Ligand ID>  (1) 
LIG0004518

>  <Ligand>  (1) 
MLS001175746

>  <SMILES>  (1) 
COc1ccc(cc1)C(N(C)C)CNC(=O)c1ccc2c(c1)CCC2

>  <CID>  (1) 
16288533.0

>  <ChEMBL ID>  (1) 
nan

>  <InChiKey>  (1) 
VJJBQYIRWRXQLB-UHFFFAOYSA-N

>  <InChi>  (1) 
InChI=1S/C21H26N2O2/c1-23(2)20(16-9-11-19(25-3)12-10-16)14-22-21(24)18-8-7-15-5-4-6-17(15)13-18/h7-13,20H,4-6,14H2,1-3H3,(H,22,24)

>  <IUPAC Name>  (1) 
N-[2-(dimethylamino)-2-(4-methoxyphenyl)ethyl]-2,3-dihydro-1H-indene-5-carboxamide

$$$$
