
     RDKit          3D

 39 41  0  0  0  0  0  0  0  0999 V2000
   -6.7557   -2.0203   -2.0365 Cl  0  0  0  0  0  0  0  0  0  0  0  0
   -5.8953   -1.0829   -0.8304 C   0  0  0  0  0  0  0  0  0  0  0  0
   -6.5415   -0.5479    0.2491 C   0  0  0  0  0  0  0  0  0  0  0  0
   -5.8573    0.1966    1.2068 C   0  0  0  0  0  0  0  0  0  0  0  0
   -6.7727    0.8574    2.5690 Cl  0  0  0  0  0  0  0  0  0  0  0  0
   -4.5005    0.4035    1.0721 C   0  0  0  0  0  0  0  0  0  0  0  0
   -3.8442   -0.1306   -0.0079 C   0  0  0  0  0  0  0  0  0  0  0  0
   -4.5513   -0.8769   -0.9622 C   0  0  0  0  0  0  0  0  0  0  0  0
   -2.4185    0.0149   -0.2581 C   0  0  0  0  0  0  0  0  0  0  0  0
   -1.9308    1.0849   -0.9747 C   0  0  0  0  0  0  0  0  0  0  0  0
   -2.8638    2.0212   -1.4318 O   0  0  0  0  0  0  0  0  0  0  0  0
   -0.5876    1.2433   -1.2411 C   0  0  0  0  0  0  0  0  0  0  0  0
    0.3756    0.3112   -0.7909 C   0  0  0  0  0  0  0  0  0  0  0  0
   -0.1235   -0.7372   -0.0858 C   0  0  0  0  0  0  0  0  0  0  0  0
   -1.4911   -0.9018    0.1872 C   0  0  0  0  0  0  0  0  0  0  0  0
   -1.9313   -1.9961    0.9146 O   0  0  0  0  0  0  0  0  0  0  0  0
    1.7337    0.5977   -1.1560 C   0  0  0  0  0  0  0  0  0  0  0  0
    1.8370    1.2622   -2.2748 O   0  0  0  0  0  0  0  0  0  0  0  0
    2.9808    0.2981   -0.5273 C   0  0  0  0  0  0  0  0  0  0  0  0
    3.2945   -0.7295    0.3148 C   0  0  0  0  0  0  0  0  0  0  0  0
    4.5681   -0.8804    0.8886 C   0  0  0  0  0  0  0  0  0  0  0  0
    5.5672    0.0156    0.6206 C   0  0  0  0  0  0  0  0  0  0  0  0
    5.2805    1.0543   -0.2197 C   0  0  0  0  0  0  0  0  0  0  0  0
    4.0475    1.1990   -0.7743 C   0  0  0  0  0  0  0  0  0  0  0  0
    6.9032   -0.1555    1.2349 C   0  0  0  0  0  0  0  0  0  0  0  0
    7.4964   -1.2932    0.6724 F   0  0  0  0  0  0  0  0  0  0  0  0
    7.7018    0.9545    0.9851 F   0  0  0  0  0  0  0  0  0  0  0  0
    6.7755   -0.4069    2.5865 F   0  0  0  0  0  0  0  0  0  0  0  0
   -7.6224   -0.7081    0.3681 H   0  0  0  0  0  0  0  0  0  0  0  0
   -3.9601    0.9716    1.7996 H   0  0  0  0  0  0  0  0  0  0  0  0
   -4.0620   -1.3115   -1.8245 H   0  0  0  0  0  0  0  0  0  0  0  0
   -2.6815    3.0050   -1.3696 H   0  0  0  0  0  0  0  0  0  0  0  0
   -0.3030    2.1149   -1.8089 H   0  0  0  0  0  0  0  0  0  0  0  0
    0.4983   -1.5146    0.2968 H   0  0  0  0  0  0  0  0  0  0  0  0
   -1.6995   -2.9219    0.5588 H   0  0  0  0  0  0  0  0  0  0  0  0
    2.5981   -1.4895    0.5778 H   0  0  0  0  0  0  0  0  0  0  0  0
    4.7631   -1.7206    1.5567 H   0  0  0  0  0  0  0  0  0  0  0  0
    6.0737    1.7636   -0.4320 H   0  0  0  0  0  0  0  0  0  0  0  0
    3.8987    2.0558   -1.4323 H   0  0  0  0  0  0  0  0  0  0  0  0
  1  2  1  0
  2  3  2  0
  3  4  1  0
  4  5  1  0
  4  6  2  0
  6  7  1  0
  7  8  2  0
  7  9  1  0
  9 10  2  0
 10 11  1  0
 10 12  1  0
 12 13  2  0
 13 14  1  0
 14 15  2  0
 15 16  1  0
 13 17  1  0
 17 18  2  0
 17 19  1  0
 19 20  2  0
 20 21  1  0
 21 22  2  0
 22 23  1  0
 23 24  2  0
 22 25  1  0
 25 26  1  0
 25 27  1  0
 25 28  1  0
  8  2  1  0
 15  9  1  0
 24 19  1  0
  3 29  1  0
  6 30  1  0
  8 31  1  0
 11 32  1  0
 12 33  1  0
 14 34  1  0
 16 35  1  0
 20 36  1  0
 21 37  1  0
 23 38  1  0
 24 39  1  0
M  END
>  <Ligand ID>  (1) 
LIG0005880

>  <Ligand>  (1) 
CHEMBL3605038

>  <SMILES>  (1) 
Clc1cc(Cl)cc(c1)c1c(O)cc(cc1O)C(=O)c1ccc(cc1)C(F)(F)F

>  <CID>  (1) 
122186211.0

>  <ChEMBL ID>  (1) 
nan

>  <InChiKey>  (1) 
KYDVOTVCYRYBDK-UHFFFAOYSA-N

>  <InChi>  (1) 
InChI=1S/C20H11Cl2F3O3/c21-14-5-11(6-15(22)9-14)18-16(26)7-12(8-17(18)27)19(28)10-1-3-13(4-2-10)20(23,24)25/h1-9,26-27H

>  <IUPAC Name>  (1) 
[4-(3,5-dichlorophenyl)-3,5-dihydroxyphenyl]-[4-(trifluoromethyl)phenyl]methanone

$$$$
