
     RDKit          3D

 42 44  0  0  0  0  0  0  0  0999 V2000
   -1.2302    1.2133   -0.3431 O   0  0  0  0  0  0  0  0  0  0  0  0
   -1.2227   -0.0200   -0.1475 C   0  0  0  0  0  0  0  0  0  0  0  0
   -0.1278   -0.9300   -0.3789 C   0  0  0  0  0  0  0  0  0  0  0  0
   -0.3186   -2.2744   -0.0932 C   0  0  0  0  0  0  0  0  0  0  0  0
    0.6401   -3.2394   -0.2664 C   0  0  0  0  0  0  0  0  0  0  0  0
    1.8549   -2.8809   -0.7447 C   0  0  0  0  0  0  0  0  0  0  0  0
    2.0709   -1.5458   -1.0378 C   0  0  0  0  0  0  0  0  0  0  0  0
    1.1070   -0.5700   -0.8642 C   0  0  0  0  0  0  0  0  0  0  0  0
    1.4044    0.7744   -1.2015 N   0  0  0  0  0  0  0  0  0  0  0  0
    2.7294    1.0965   -1.6957 C   0  0  0  0  0  0  0  0  0  0  0  0
    3.7736    0.8729   -0.6379 C   0  0  0  0  0  0  0  0  0  0  0  0
    3.6078    0.5036    0.5869 N   0  0  0  0  0  0  0  0  0  0  0  0
    4.8678    0.4049    1.2740 C   0  0  0  0  0  0  0  0  0  0  0  0
    5.8152    1.1425    0.3777 C   0  0  0  0  0  0  0  0  0  0  0  0
    5.1574    1.0719   -0.9123 N   0  0  0  0  0  0  0  0  0  0  0  0
   -2.4329   -0.5411    0.3536 O   0  0  0  0  0  0  0  0  0  0  0  0
   -3.5031    0.3131    0.5855 C   0  0  0  0  0  0  0  0  0  0  0  0
   -4.7540   -0.0665   -0.1781 C   0  0  0  0  0  0  0  0  0  0  0  0
   -5.7437    0.9342    0.4263 C   0  0  0  0  0  0  0  0  0  0  0  0
   -5.3104    1.0544    1.8896 C   0  0  0  0  0  0  0  0  0  0  0  0
   -4.0030    0.2958    2.0074 C   0  0  0  0  0  0  0  0  0  0  0  0
   -1.2811   -2.6280    0.2970 H   0  0  0  0  0  0  0  0  0  0  0  0
    0.4444   -4.2703   -0.0301 H   0  0  0  0  0  0  0  0  0  0  0  0
    2.6241   -3.6292   -0.8878 H   0  0  0  0  0  0  0  0  0  0  0  0
    3.0718   -1.3235   -1.4280 H   0  0  0  0  0  0  0  0  0  0  0  0
    0.7469    1.5742   -1.1276 H   0  0  0  0  0  0  0  0  0  0  0  0
    2.7828    2.1517   -2.0276 H   0  0  0  0  0  0  0  0  0  0  0  0
    2.9540    0.3860   -2.5190 H   0  0  0  0  0  0  0  0  0  0  0  0
    5.1664   -0.6677    1.2548 H   0  0  0  0  0  0  0  0  0  0  0  0
    4.8306    0.8221    2.2926 H   0  0  0  0  0  0  0  0  0  0  0  0
    6.8360    0.7207    0.3773 H   0  0  0  0  0  0  0  0  0  0  0  0
    5.8585    2.2387    0.6407 H   0  0  0  0  0  0  0  0  0  0  0  0
    5.6494    1.1566   -1.8319 H   0  0  0  0  0  0  0  0  0  0  0  0
   -3.2577    1.3432    0.3353 H   0  0  0  0  0  0  0  0  0  0  0  0
   -4.5891    0.0951   -1.2445 H   0  0  0  0  0  0  0  0  0  0  0  0
   -5.0911   -1.0942    0.0476 H   0  0  0  0  0  0  0  0  0  0  0  0
   -6.7865    0.6431    0.3044 H   0  0  0  0  0  0  0  0  0  0  0  0
   -5.5470    1.9047   -0.1151 H   0  0  0  0  0  0  0  0  0  0  0  0
   -6.1073    0.6233    2.5276 H   0  0  0  0  0  0  0  0  0  0  0  0
   -5.1607    2.1324    2.1067 H   0  0  0  0  0  0  0  0  0  0  0  0
   -4.1850   -0.7037    2.4094 H   0  0  0  0  0  0  0  0  0  0  0  0
   -3.3419    0.9153    2.6511 H   0  0  0  0  0  0  0  0  0  0  0  0
  1  2  2  0
  2  3  1  0
  3  4  2  0
  4  5  1  0
  5  6  2  0
  6  7  1  0
  7  8  2  0
  8  9  1  0
  9 10  1  0
 10 11  1  0
 11 12  2  0
 12 13  1  0
 13 14  1  0
 14 15  1  0
  2 16  1  0
 16 17  1  0
 17 18  1  0
 18 19  1  0
 19 20  1  0
 20 21  1  0
  8  3  1  0
 15 11  1  0
 21 17  1  0
  4 22  1  0
  5 23  1  0
  6 24  1  0
  7 25  1  0
  9 26  1  0
 10 27  1  0
 10 28  1  0
 13 29  1  0
 13 30  1  0
 14 31  1  0
 14 32  1  0
 15 33  1  0
 17 34  1  0
 18 35  1  0
 18 36  1  0
 19 37  1  0
 19 38  1  0
 20 39  1  0
 20 40  1  0
 21 41  1  0
 21 42  1  0
M  END
>  <Ligand ID>  (1) 
LIG0003039

>  <Ligand>  (1) 
CHEMBL329272

>  <SMILES>  (1) 
O=C(c1ccccc1NCC1=NCCN1)OC1CCCC1

>  <CID>  (1) 
44329739.0

>  <ChEMBL ID>  (1) 
nan

>  <InChiKey>  (1) 
LQIINDYUOVEHJZ-UHFFFAOYSA-N

>  <InChi>  (1) 
InChI=1S/C16H21N3O2/c20-16(21-12-5-1-2-6-12)13-7-3-4-8-14(13)19-11-15-17-9-10-18-15/h3-4,7-8,12,19H,1-2,5-6,9-11H2,(H,17,18)

>  <IUPAC Name>  (1) 
cyclopentyl 2-(4,5-dihydro-1H-imidazol-2-ylmethylamino)benzoate

$$$$
