
     RDKit          3D

 46 50  0  0  0  0  0  0  0  0999 V2000
   -5.3267    0.9156   -0.9057 N   0  0  0  0  0  0  0  0  0  0  0  0
   -5.4020   -0.4986   -0.6325 C   0  0  0  0  0  0  0  0  0  0  0  0
   -4.0544   -1.1998   -0.8579 C   0  0  0  0  0  0  0  0  0  0  0  0
   -3.0948   -0.4181   -0.1354 N   0  0  0  0  0  0  0  0  0  0  0  0
   -3.6239    0.5757    0.8098 C   0  0  0  0  0  0  0  0  0  0  0  0
   -4.3614    1.5841   -0.0798 C   0  0  0  0  0  0  0  0  0  0  0  0
   -2.5490    1.3312    1.5242 C   0  0  0  0  0  0  0  0  0  0  0  0
   -1.3786    0.4597    1.9110 C   0  0  0  0  0  0  0  0  0  0  0  0
   -0.7881   -0.1446    0.6843 C   0  0  0  0  0  0  0  0  0  0  0  0
   -1.6899   -0.5578   -0.2886 C   0  0  0  0  0  0  0  0  0  0  0  0
   -1.2343   -1.1274   -1.4552 C   0  0  0  0  0  0  0  0  0  0  0  0
    0.1425   -1.2771   -1.6326 C   0  0  0  0  0  0  0  0  0  0  0  0
    1.0278   -0.8632   -0.6598 C   0  0  0  0  0  0  0  0  0  0  0  0
    0.5767   -0.2829    0.5301 C   0  0  0  0  0  0  0  0  0  0  0  0
    1.5082    0.1687    1.5878 C   0  0  0  0  0  0  0  0  0  0  0  0
    2.9262   -0.0714    1.2224 C   0  0  0  0  0  0  0  0  0  0  0  0
    3.5628   -1.2604    1.5485 C   0  0  0  0  0  0  0  0  0  0  0  0
    4.8961   -1.4922    1.2076 C   0  0  0  0  0  0  0  0  0  0  0  0
    5.6052   -0.5036    0.5222 C   0  0  0  0  0  0  0  0  0  0  0  0
    4.9821    0.6816    0.1933 C   0  0  0  0  0  0  0  0  0  0  0  0
    3.6655    0.8952    0.5368 C   0  0  0  0  0  0  0  0  0  0  0  0
    5.8889    1.4881   -0.4757 O   0  0  0  0  0  0  0  0  0  0  0  0
    7.0701    0.7608   -0.7448 C   0  0  0  0  0  0  0  0  0  0  0  0
    6.8936   -0.3969    0.0429 O   0  0  0  0  0  0  0  0  0  0  0  0
   -5.1918    1.1010   -1.9069 H   0  0  0  0  0  0  0  0  0  0  0  0
   -6.1028   -0.9420   -1.3733 H   0  0  0  0  0  0  0  0  0  0  0  0
   -5.7751   -0.6218    0.3846 H   0  0  0  0  0  0  0  0  0  0  0  0
   -3.9310   -1.2393   -1.9387 H   0  0  0  0  0  0  0  0  0  0  0  0
   -4.2173   -2.2228   -0.4125 H   0  0  0  0  0  0  0  0  0  0  0  0
   -4.2820    0.1268    1.5560 H   0  0  0  0  0  0  0  0  0  0  0  0
   -3.5634    2.0014   -0.7523 H   0  0  0  0  0  0  0  0  0  0  0  0
   -4.7492    2.4327    0.4882 H   0  0  0  0  0  0  0  0  0  0  0  0
   -2.9874    1.8135    2.3987 H   0  0  0  0  0  0  0  0  0  0  0  0
   -2.1339    2.1317    0.8661 H   0  0  0  0  0  0  0  0  0  0  0  0
   -0.6138    1.1408    2.3376 H   0  0  0  0  0  0  0  0  0  0  0  0
   -1.6132   -0.3237    2.6357 H   0  0  0  0  0  0  0  0  0  0  0  0
   -1.9193   -1.4470   -2.2064 H   0  0  0  0  0  0  0  0  0  0  0  0
    0.4541   -1.7239   -2.5522 H   0  0  0  0  0  0  0  0  0  0  0  0
    2.0845   -0.9788   -0.7973 H   0  0  0  0  0  0  0  0  0  0  0  0
    1.3747    1.2189    1.8890 H   0  0  0  0  0  0  0  0  0  0  0  0
    1.3198   -0.4599    2.5000 H   0  0  0  0  0  0  0  0  0  0  0  0
    2.9831   -2.0104    2.0824 H   0  0  0  0  0  0  0  0  0  0  0  0
    5.3890   -2.4172    1.4621 H   0  0  0  0  0  0  0  0  0  0  0  0
    3.1689    1.8294    0.2794 H   0  0  0  0  0  0  0  0  0  0  0  0
    7.1056    0.4831   -1.8106 H   0  0  0  0  0  0  0  0  0  0  0  0
    7.9579    1.3401   -0.4188 H   0  0  0  0  0  0  0  0  0  0  0  0
  1  2  1  0
  2  3  1  0
  3  4  1  0
  4  5  1  0
  5  6  1  0
  5  7  1  0
  7  8  1  0
  8  9  1  0
  9 10  2  0
 10 11  1  0
 11 12  2  0
 12 13  1  0
 13 14  2  0
 14 15  1  0
 15 16  1  0
 16 17  2  0
 17 18  1  0
 18 19  2  0
 19 20  1  0
 20 21  2  0
 20 22  1  0
 22 23  1  0
 23 24  1  0
  6  1  1  0
 14  9  1  0
 21 16  1  0
 10  4  1  0
 24 19  1  0
  1 25  1  0
  2 26  1  0
  2 27  1  0
  3 28  1  0
  3 29  1  0
  5 30  1  0
  6 31  1  0
  6 32  1  0
  7 33  1  0
  7 34  1  0
  8 35  1  0
  8 36  1  0
 11 37  1  0
 12 38  1  0
 13 39  1  0
 15 40  1  0
 15 41  1  0
 17 42  1  0
 18 43  1  0
 21 44  1  0
 23 45  1  0
 23 46  1  0
M  END
>  <Ligand ID>  (1) 
LIG0003002

>  <Ligand>  (1) 
CHEMBL3935339

>  <SMILES>  (1) 
N1CCN2C(C1)CCc1c2cccc1Cc1ccc2c(c1)OCO2

>  <CID>  (1) 
134149355.0

>  <ChEMBL ID>  (1) 
nan

>  <InChiKey>  (1) 
MYUNZXXMZICHEZ-UHFFFAOYSA-N

>  <InChi>  (1) 
InChI=1S/C20H22N2O2/c1-2-15(10-14-4-7-19-20(11-14)24-13-23-19)17-6-5-16-12-21-8-9-22(16)18(17)3-1/h1-4,7,11,16,21H,5-6,8-10,12-13H2

>  <IUPAC Name>  (1) 
7-(1,3-benzodioxol-5-ylmethyl)-2,3,4,4a,5,6-hexahydro-1H-pyrazino[1,2-a]quinoline

$$$$
