
     RDKit          3D

 29 31  0  0  0  0  0  0  0  0999 V2000
    4.2917    1.7157   -0.9360 C   0  0  0  0  0  0  0  0  0  0  0  0
    2.9399    1.4593   -0.7066 O   0  0  0  0  0  0  0  0  0  0  0  0
    2.3821    0.2945   -0.2480 C   0  0  0  0  0  0  0  0  0  0  0  0
    3.0955   -0.8451    0.0690 C   0  0  0  0  0  0  0  0  0  0  0  0
    2.4594   -1.9819    0.5261 C   0  0  0  0  0  0  0  0  0  0  0  0
    1.0898   -2.0416    0.6898 C   0  0  0  0  0  0  0  0  0  0  0  0
    0.3824   -0.8917    0.3685 C   0  0  0  0  0  0  0  0  0  0  0  0
    1.0097    0.2556   -0.0913 C   0  0  0  0  0  0  0  0  0  0  0  0
   -0.9175   -1.1436    0.5909 N   0  0  0  0  0  0  0  0  0  0  0  0
   -0.9961   -2.3970    1.0299 C   0  0  0  0  0  0  0  0  0  0  0  0
    0.2050   -2.9662    1.1000 N   0  0  0  0  0  0  0  0  0  0  0  0
   -1.9893   -0.2304    0.3892 C   0  0  0  0  0  0  0  0  0  0  0  0
   -3.0635   -0.6305   -0.3864 C   0  0  0  0  0  0  0  0  0  0  0  0
   -4.1237    0.2224   -0.6079 C   0  0  0  0  0  0  0  0  0  0  0  0
   -4.1395    1.5075   -0.0564 C   0  0  0  0  0  0  0  0  0  0  0  0
   -3.0686    1.9042    0.7159 C   0  0  0  0  0  0  0  0  0  0  0  0
   -1.9998    1.0349    0.9351 C   0  0  0  0  0  0  0  0  0  0  0  0
    4.3505    2.4825   -1.7342 H   0  0  0  0  0  0  0  0  0  0  0  0
    4.9073    0.8212   -1.1209 H   0  0  0  0  0  0  0  0  0  0  0  0
    4.6957    2.1760   -0.0035 H   0  0  0  0  0  0  0  0  0  0  0  0
    4.1681   -0.7941   -0.0606 H   0  0  0  0  0  0  0  0  0  0  0  0
    3.0619   -2.8601    0.7650 H   0  0  0  0  0  0  0  0  0  0  0  0
    0.3949    1.1232   -0.3251 H   0  0  0  0  0  0  0  0  0  0  0  0
   -1.9505   -2.8682    1.2915 H   0  0  0  0  0  0  0  0  0  0  0  0
   -3.0378   -1.6445   -0.8142 H   0  0  0  0  0  0  0  0  0  0  0  0
   -4.9422   -0.1343   -1.2216 H   0  0  0  0  0  0  0  0  0  0  0  0
   -4.9878    2.1840   -0.2363 H   0  0  0  0  0  0  0  0  0  0  0  0
   -3.0759    2.9030    1.1473 H   0  0  0  0  0  0  0  0  0  0  0  0
   -1.1421    1.3450    1.5503 H   0  0  0  0  0  0  0  0  0  0  0  0
  1  2  1  0
  2  3  1  0
  3  4  2  0
  4  5  1  0
  5  6  2  0
  6  7  1  0
  7  8  2  0
  7  9  1  0
  9 10  1  0
 10 11  2  0
  9 12  1  0
 12 13  2  0
 13 14  1  0
 14 15  2  0
 15 16  1  0
 16 17  2  0
  8  3  1  0
 17 12  1  0
 11  6  1  0
  1 18  1  0
  1 19  1  0
  1 20  1  0
  4 21  1  0
  5 22  1  0
  8 23  1  0
 10 24  1  0
 13 25  1  0
 14 26  1  0
 15 27  1  0
 16 28  1  0
 17 29  1  0
M  END
>  <Ligand ID>  (1) 
LIG0004888

>  <Ligand>  (1) 
6-Methoxy-1-phenyl-1H-benzimidazole

>  <SMILES>  (1) 
COc1ccc2c(c1)n(cn2)c1ccccc1

>  <CID>  (1) 
652633.0

>  <ChEMBL ID>  (1) 
nan

>  <InChiKey>  (1) 
DBDPQMUWFPDEFP-UHFFFAOYSA-N

>  <InChi>  (1) 
InChI=1S/C14H12N2O/c1-17-12-7-8-13-14(9-12)16(10-15-13)11-5-3-2-4-6-11/h2-10H,1H3

>  <IUPAC Name>  (1) 
6-methoxy-1-phenylbenzimidazole

$$$$
