
     RDKit          3D

 66 70  0  0  0  0  0  0  0  0999 V2000
   10.3641    2.2197   -0.1914 C   0  0  0  0  0  0  0  0  0  0  0  0
    9.8133    1.0601   -0.7754 O   0  0  0  0  0  0  0  0  0  0  0  0
    8.5459    0.5994   -0.4216 C   0  0  0  0  0  0  0  0  0  0  0  0
    7.9831   -0.5227   -0.9713 C   0  0  0  0  0  0  0  0  0  0  0  0
    6.7059   -0.9389   -0.5786 C   0  0  0  0  0  0  0  0  0  0  0  0
    5.9796   -0.2399    0.3652 C   0  0  0  0  0  0  0  0  0  0  0  0
    6.5589    0.8763    0.9010 C   0  0  0  0  0  0  0  0  0  0  0  0
    7.8349    1.2924    0.5089 C   0  0  0  0  0  0  0  0  0  0  0  0
    4.6656   -0.6967    0.7339 N   0  0  0  0  0  0  0  0  0  0  0  0
    4.1363   -1.7815   -0.0784 C   0  0  0  0  0  0  0  0  0  0  0  0
    2.6781   -2.0266    0.1021 C   0  0  0  0  0  0  0  0  0  0  0  0
    2.0049   -1.1992    1.0113 N   0  0  0  0  0  0  0  0  0  0  0  0
    2.5059    0.0874    1.2939 C   0  0  0  0  0  0  0  0  0  0  0  0
    3.9314   -0.1181    1.8406 C   0  0  0  0  0  0  0  0  0  0  0  0
    0.7012   -1.4621    1.4172 C   0  0  0  0  0  0  0  0  0  0  0  0
   -0.3981   -1.3099    0.3923 C   0  0  0  0  0  0  0  0  0  0  0  0
   -0.4778    0.0708   -0.1709 C   0  0  0  0  0  0  0  0  0  0  0  0
   -1.5303    0.2791   -1.1355 N   0  0  0  0  0  0  0  0  0  0  0  0
   -2.8882    0.0906   -0.7574 C   0  0  0  0  0  0  0  0  0  0  0  0
   -3.2317   -0.2619    0.4011 O   0  0  0  0  0  0  0  0  0  0  0  0
   -4.0022    0.3078   -1.7307 C   0  0  0  0  0  0  0  0  0  0  0  0
   -5.2678    0.0642   -1.0553 N   0  0  0  0  0  0  0  0  0  0  0  0
   -5.8256   -1.1667   -1.0834 C   0  0  0  0  0  0  0  0  0  0  0  0
   -5.2630   -2.0858   -1.6906 O   0  0  0  0  0  0  0  0  0  0  0  0
   -7.0347   -1.3819   -0.4228 C   0  0  0  0  0  0  0  0  0  0  0  0
   -7.8010   -2.5215   -0.2998 C   0  0  0  0  0  0  0  0  0  0  0  0
   -8.9230   -2.2144    0.4621 C   0  0  0  0  0  0  0  0  0  0  0  0
   -8.8048   -0.8677    0.7880 C   0  0  0  0  0  0  0  0  0  0  0  0
   -7.6551   -0.3779    0.2442 N   0  0  0  0  0  0  0  0  0  0  0  0
   -7.1046    0.8450    0.2747 C   0  0  0  0  0  0  0  0  0  0  0  0
   -5.8994    1.0542   -0.3855 C   0  0  0  0  0  0  0  0  0  0  0  0
   -5.3799    2.3246   -0.3149 C   0  0  0  0  0  0  0  0  0  0  0  0
   -6.0060    3.3606    0.3720 C   0  0  0  0  0  0  0  0  0  0  0  0
   -7.1877    3.0894    0.9988 C   0  0  0  0  0  0  0  0  0  0  0  0
   -7.7442    1.8403    0.9572 C   0  0  0  0  0  0  0  0  0  0  0  0
    9.7716    3.1295   -0.4240 H   0  0  0  0  0  0  0  0  0  0  0  0
   10.3855    2.1310    0.9053 H   0  0  0  0  0  0  0  0  0  0  0  0
   11.3642    2.4069   -0.6046 H   0  0  0  0  0  0  0  0  0  0  0  0
    8.5382   -1.0939   -1.7219 H   0  0  0  0  0  0  0  0  0  0  0  0
    6.3557   -1.8346   -1.0682 H   0  0  0  0  0  0  0  0  0  0  0  0
    6.0801    1.4868    1.6382 H   0  0  0  0  0  0  0  0  0  0  0  0
    8.2747    2.1916    0.9553 H   0  0  0  0  0  0  0  0  0  0  0  0
    4.3621   -1.5868   -1.1701 H   0  0  0  0  0  0  0  0  0  0  0  0
    4.6954   -2.7097    0.1967 H   0  0  0  0  0  0  0  0  0  0  0  0
    2.2126   -2.0764   -0.9133 H   0  0  0  0  0  0  0  0  0  0  0  0
    2.5522   -3.0938    0.4739 H   0  0  0  0  0  0  0  0  0  0  0  0
    2.5618    0.6793    0.3539 H   0  0  0  0  0  0  0  0  0  0  0  0
    1.8539    0.5989    2.0073 H   0  0  0  0  0  0  0  0  0  0  0  0
    3.8463   -0.8780    2.6552 H   0  0  0  0  0  0  0  0  0  0  0  0
    4.2707    0.8607    2.1638 H   0  0  0  0  0  0  0  0  0  0  0  0
    0.6559   -2.4630    1.9011 H   0  0  0  0  0  0  0  0  0  0  0  0
    0.4515   -0.7502    2.2593 H   0  0  0  0  0  0  0  0  0  0  0  0
   -1.3481   -1.5044    0.9604 H   0  0  0  0  0  0  0  0  0  0  0  0
   -0.3827   -2.0455   -0.4076 H   0  0  0  0  0  0  0  0  0  0  0  0
   -0.4915    0.8586    0.6365 H   0  0  0  0  0  0  0  0  0  0  0  0
    0.4803    0.2988   -0.7267 H   0  0  0  0  0  0  0  0  0  0  0  0
   -1.3642    0.5697   -2.1339 H   0  0  0  0  0  0  0  0  0  0  0  0
   -3.8471   -0.4643   -2.5412 H   0  0  0  0  0  0  0  0  0  0  0  0
   -3.9518    1.2859   -2.2335 H   0  0  0  0  0  0  0  0  0  0  0  0
   -7.6204   -3.5231   -0.7033 H   0  0  0  0  0  0  0  0  0  0  0  0
   -9.7410   -2.8645    0.7600 H   0  0  0  0  0  0  0  0  0  0  0  0
   -9.4867   -0.2925    1.3667 H   0  0  0  0  0  0  0  0  0  0  0  0
   -4.4479    2.5801   -0.7922 H   0  0  0  0  0  0  0  0  0  0  0  0
   -5.5800    4.3561    0.4174 H   0  0  0  0  0  0  0  0  0  0  0  0
   -7.7477    3.8488    1.5619 H   0  0  0  0  0  0  0  0  0  0  0  0
   -8.6879    1.6091    1.4533 H   0  0  0  0  0  0  0  0  0  0  0  0
  1  2  1  0
  2  3  1  0
  3  4  2  0
  4  5  1  0
  5  6  2  0
  6  7  1  0
  7  8  2  0
  6  9  1  0
  9 10  1  0
 10 11  1  0
 11 12  1  0
 12 13  1  0
 13 14  1  0
 12 15  1  0
 15 16  1  0
 16 17  1  0
 17 18  1  0
 18 19  1  0
 19 20  2  0
 19 21  1  0
 21 22  1  0
 22 23  1  0
 23 24  2  0
 23 25  1  0
 25 26  2  0
 26 27  1  0
 27 28  2  0
 28 29  1  0
 29 30  1  0
 30 31  2  0
 31 32  1  0
 32 33  2  0
 33 34  1  0
 34 35  2  0
  8  3  1  0
 14  9  1  0
 31 22  1  0
 29 25  1  0
 35 30  1  0
  1 36  1  0
  1 37  1  0
  1 38  1  0
  4 39  1  0
  5 40  1  0
  7 41  1  0
  8 42  1  0
 10 43  1  0
 10 44  1  0
 11 45  1  0
 11 46  1  0
 13 47  1  0
 13 48  1  0
 14 49  1  0
 14 50  1  0
 15 51  1  0
 15 52  1  0
 16 53  1  0
 16 54  1  0
 17 55  1  0
 17 56  1  0
 18 57  1  0
 21 58  1  0
 21 59  1  0
 26 60  1  0
 27 61  1  0
 28 62  1  0
 32 63  1  0
 33 64  1  0
 34 65  1  0
 35 66  1  0
M  END
>  <Ligand ID>  (1) 
LIG0004820

>  <Ligand>  (1) 
MLS-0362104.0001

>  <SMILES>  (1) 
COc1ccc(cc1)N1CCN(CC1)CCCNC(=O)Cn1c(=O)c2cccn2c2c1cccc2

>  <CID>  (1) 
22522554.0

>  <ChEMBL ID>  (1) 
nan

>  <InChiKey>  (1) 
ZIPIAVASCUUAGW-UHFFFAOYSA-N

>  <InChi>  (1) 
InChI=1S/C27H31N5O3/c1-35-22-11-9-21(10-12-22)30-18-16-29(17-19-30)14-5-13-28-26(33)20-32-24-7-3-2-6-23(24)31-15-4-8-25(31)27(32)34/h2-4,6-12,15H,5,13-14,16-20H2,1H3,(H,28,33)

>  <IUPAC Name>  (1) 
N-[3-[4-(4-methoxyphenyl)piperazin-1-yl]propyl]-2-(4-oxopyrrolo[1,2-a]quinoxalin-5-yl)acetamide

$$$$
