
     RDKit          3D

 30 31  0  0  0  0  0  0  0  0999 V2000
   -4.3061   -0.1997   -0.3477 N   0  0  0  0  0  0  0  0  0  0  0  0
   -2.9495    0.2743   -0.5512 C   0  0  0  0  0  0  0  0  0  0  0  0
   -2.1009   -0.2734    0.5789 C   0  0  0  0  0  0  0  0  0  0  0  0
   -0.6980    0.1555    0.4674 C   0  0  0  0  0  0  0  0  0  0  0  0
   -0.0900    1.3471    0.7800 C   0  0  0  0  0  0  0  0  0  0  0  0
   -0.7814    2.5259    1.3590 C   0  0  0  0  0  0  0  0  0  0  0  0
    1.2117    1.3043    0.4976 N   0  0  0  0  0  0  0  0  0  0  0  0
    1.4811    0.0765   -0.0072 C   0  0  0  0  0  0  0  0  0  0  0  0
    0.3002   -0.6760   -0.0413 C   0  0  0  0  0  0  0  0  0  0  0  0
    0.2668   -1.9682   -0.5134 C   0  0  0  0  0  0  0  0  0  0  0  0
    1.4232   -2.5726   -0.9781 C   0  0  0  0  0  0  0  0  0  0  0  0
    2.6216   -1.8498   -0.9595 C   0  0  0  0  0  0  0  0  0  0  0  0
    2.6367   -0.5366   -0.4751 C   0  0  0  0  0  0  0  0  0  0  0  0
    3.9075    0.2298   -0.4587 C   0  0  0  0  0  0  0  0  0  0  0  0
    4.9271   -0.5635   -0.9735 F   0  0  0  0  0  0  0  0  0  0  0  0
    3.8159    1.3635   -1.2288 F   0  0  0  0  0  0  0  0  0  0  0  0
    4.2368    0.5476    0.8585 F   0  0  0  0  0  0  0  0  0  0  0  0
   -4.4619   -1.1607   -0.7362 H   0  0  0  0  0  0  0  0  0  0  0  0
   -4.5896   -0.2061    0.6506 H   0  0  0  0  0  0  0  0  0  0  0  0
   -2.9983    1.3825   -0.5571 H   0  0  0  0  0  0  0  0  0  0  0  0
   -2.5582   -0.0343   -1.5467 H   0  0  0  0  0  0  0  0  0  0  0  0
   -2.2341   -1.3556    0.7376 H   0  0  0  0  0  0  0  0  0  0  0  0
   -2.5137    0.2234    1.5071 H   0  0  0  0  0  0  0  0  0  0  0  0
   -1.8659    2.3151    1.4762 H   0  0  0  0  0  0  0  0  0  0  0  0
   -0.3412    2.6875    2.3757 H   0  0  0  0  0  0  0  0  0  0  0  0
   -0.5717    3.3871    0.6857 H   0  0  0  0  0  0  0  0  0  0  0  0
    1.9305    2.0501    0.6224 H   0  0  0  0  0  0  0  0  0  0  0  0
   -0.6422   -2.5606   -0.5421 H   0  0  0  0  0  0  0  0  0  0  0  0
    1.4193   -3.5949   -1.3561 H   0  0  0  0  0  0  0  0  0  0  0  0
    3.5243   -2.3181   -1.3240 H   0  0  0  0  0  0  0  0  0  0  0  0
  1  2  1  0
  2  3  1  0
  3  4  1  0
  4  5  2  0
  5  6  1  0
  5  7  1  0
  7  8  1  0
  8  9  2  0
  9 10  1  0
 10 11  2  0
 11 12  1  0
 12 13  2  0
 13 14  1  0
 14 15  1  0
 14 16  1  0
 14 17  1  0
  9  4  1  0
 13  8  1  0
  1 18  1  0
  1 19  1  0
  2 20  1  0
  2 21  1  0
  3 22  1  0
  3 23  1  0
  6 24  1  0
  6 25  1  0
  6 26  1  0
  7 27  1  0
 10 28  1  0
 11 29  1  0
 12 30  1  0
M  END
>  <Ligand ID>  (1) 
LIG0003669

>  <Ligand>  (1) 
2-[2-methyl-7-(trifluoromethyl)-1H-indol-3-yl]ethanamine

>  <SMILES>  (1) 
NCCc1c(C)[nH]c2c1cccc2C(F)(F)F

>  <CID>  (1) 
723700.0

>  <ChEMBL ID>  (1) 
nan

>  <InChiKey>  (1) 
SIWMMFHMHBTSQJ-UHFFFAOYSA-N

>  <InChi>  (1) 
InChI=1S/C12H13F3N2/c1-7-8(5-6-16)9-3-2-4-10(11(9)17-7)12(13,14)15/h2-4,17H,5-6,16H2,1H3

>  <IUPAC Name>  (1) 
2-[2-methyl-7-(trifluoromethyl)-1H-indol-3-yl]ethanamine

$$$$
