
     RDKit          3D

 22 22  0  0  0  0  0  0  0  0999 V2000
    2.4988   -1.2554   -0.0369 C   0  0  0  0  0  0  0  0  0  0  0  0
    2.5600    0.2023    0.3425 C   0  0  0  0  0  0  0  0  0  0  0  0
    1.5821    0.9093   -0.3822 O   0  0  0  0  0  0  0  0  0  0  0  0
    0.2249    0.6589   -0.3020 C   0  0  0  0  0  0  0  0  0  0  0  0
   -0.3524   -0.2958    0.4868 C   0  0  0  0  0  0  0  0  0  0  0  0
   -1.7160   -0.4979    0.5226 C   0  0  0  0  0  0  0  0  0  0  0  0
   -2.2643   -1.5347    1.3874 C   0  0  0  0  0  0  0  0  0  0  0  0
   -1.4719   -2.2331    2.0927 O   0  0  0  0  0  0  0  0  0  0  0  0
   -2.5683    0.2662   -0.2476 C   0  0  0  0  0  0  0  0  0  0  0  0
   -1.9864    1.2315   -1.0453 C   0  0  0  0  0  0  0  0  0  0  0  0
   -0.6137    1.4346   -1.0810 C   0  0  0  0  0  0  0  0  0  0  0  0
   -0.0810    2.4176   -1.8996 O   0  0  0  0  0  0  0  0  0  0  0  0
    1.6733   -1.3944   -0.7559 H   0  0  0  0  0  0  0  0  0  0  0  0
    3.4507   -1.5875   -0.5428 H   0  0  0  0  0  0  0  0  0  0  0  0
    2.4272   -1.8906    0.8743 H   0  0  0  0  0  0  0  0  0  0  0  0
    3.5487    0.5910   -0.0052 H   0  0  0  0  0  0  0  0  0  0  0  0
    2.4379    0.3209    1.4394 H   0  0  0  0  0  0  0  0  0  0  0  0
    0.2584   -0.9167    1.1078 H   0  0  0  0  0  0  0  0  0  0  0  0
   -3.2981   -1.7523    1.4718 H   0  0  0  0  0  0  0  0  0  0  0  0
   -3.6466    0.1246   -0.2355 H   0  0  0  0  0  0  0  0  0  0  0  0
   -2.6672    1.8349   -1.6542 H   0  0  0  0  0  0  0  0  0  0  0  0
    0.0039    3.3666   -1.5371 H   0  0  0  0  0  0  0  0  0  0  0  0
  1  2  1  0
  2  3  1  0
  3  4  1  0
  4  5  2  0
  5  6  1  0
  6  7  1  0
  7  8  2  0
  6  9  2  0
  9 10  1  0
 10 11  2  0
 11 12  1  0
 11  4  1  0
  1 13  1  0
  1 14  1  0
  1 15  1  0
  2 16  1  0
  2 17  1  0
  5 18  1  0
  7 19  1  0
  9 20  1  0
 10 21  1  0
 12 22  1  0
M  END
>  <Ligand ID>  (1) 
LIG0000077

>  <Ligand>  (1) 
Ethyl Vanillin

>  <SMILES>  (1) 
CCOc1cc(C=O)ccc1O

>  <CID>  (1) 
8467.0

>  <ChEMBL ID>  (1) 
nan

>  <InChiKey>  (1) 
CBOQJANXLMLOSS-UHFFFAOYSA-N

>  <InChi>  (1) 
InChI=1S/C9H10O3/c1-2-12-9-5-7(6-10)3-4-8(9)11/h3-6,11H,2H2,1H3

>  <IUPAC Name>  (1) 
3-ethoxy-4-hydroxybenzaldehyde

$$$$
