
     RDKit          3D

 38 39  0  0  0  0  0  0  0  0999 V2000
    4.7547    1.1418    3.2545 C   0  0  0  0  0  0  0  0  0  0  0  0
    3.7607    0.8693    2.1892 C   0  0  0  0  0  0  0  0  0  0  0  0
    4.0935    0.3320    1.0305 C   0  0  0  0  0  0  0  0  0  0  0  0
    3.1502    0.0487   -0.0397 C   0  0  0  0  0  0  0  0  0  0  0  0
    3.5892   -0.5237   -1.2393 C   0  0  0  0  0  0  0  0  0  0  0  0
    2.7197   -0.8043   -2.2729 C   0  0  0  0  0  0  0  0  0  0  0  0
    1.3709   -0.5288   -2.1629 C   0  0  0  0  0  0  0  0  0  0  0  0
    0.9229    0.0272   -1.0066 C   0  0  0  0  0  0  0  0  0  0  0  0
    1.8022    0.3097    0.0356 C   0  0  0  0  0  0  0  0  0  0  0  0
   -0.4884    0.3331   -0.8491 C   0  0  0  0  0  0  0  0  0  0  0  0
   -1.3328   -0.6200   -0.3211 C   0  0  0  0  0  0  0  0  0  0  0  0
   -2.7003   -0.3832   -0.1457 C   0  0  0  0  0  0  0  0  0  0  0  0
   -3.5650   -1.4100    0.4145 C   0  0  0  0  0  0  0  0  0  0  0  0
   -4.8592   -1.2668    0.6113 C   0  0  0  0  0  0  0  0  0  0  0  0
   -5.6632   -2.3962    1.1989 C   0  0  0  0  0  0  0  0  0  0  0  0
   -3.1419    0.8620   -0.5353 C   0  0  0  0  0  0  0  0  0  0  0  0
   -2.3108    1.8289   -1.0661 C   0  0  0  0  0  0  0  0  0  0  0  0
   -0.9654    1.5708   -1.2290 C   0  0  0  0  0  0  0  0  0  0  0  0
   -0.0820    2.5037   -1.7570 O   0  0  0  0  0  0  0  0  0  0  0  0
    0.5130   -0.8088   -3.1902 O   0  0  0  0  0  0  0  0  0  0  0  0
    4.4267    0.7160    4.2275 H   0  0  0  0  0  0  0  0  0  0  0  0
    5.7586    0.7543    2.9904 H   0  0  0  0  0  0  0  0  0  0  0  0
    4.8564    2.2343    3.3853 H   0  0  0  0  0  0  0  0  0  0  0  0
    2.7336    1.1245    2.3826 H   0  0  0  0  0  0  0  0  0  0  0  0
    5.1353    0.0917    0.8792 H   0  0  0  0  0  0  0  0  0  0  0  0
    4.6663   -0.7399   -1.3179 H   0  0  0  0  0  0  0  0  0  0  0  0
    3.1378   -1.2540   -3.1852 H   0  0  0  0  0  0  0  0  0  0  0  0
    1.3811    0.7508    0.9259 H   0  0  0  0  0  0  0  0  0  0  0  0
   -0.9836   -1.6012   -0.0143 H   0  0  0  0  0  0  0  0  0  0  0  0
   -3.1287   -2.3556    0.6909 H   0  0  0  0  0  0  0  0  0  0  0  0
   -5.3376   -0.3351    0.3485 H   0  0  0  0  0  0  0  0  0  0  0  0
   -6.5505   -1.9805    1.7452 H   0  0  0  0  0  0  0  0  0  0  0  0
   -6.0645   -3.0346    0.3982 H   0  0  0  0  0  0  0  0  0  0  0  0
   -5.0125   -2.9947    1.8563 H   0  0  0  0  0  0  0  0  0  0  0  0
   -4.1826    1.1280   -0.4346 H   0  0  0  0  0  0  0  0  0  0  0  0
   -2.6682    2.8094   -1.3710 H   0  0  0  0  0  0  0  0  0  0  0  0
   -0.4421    3.2902   -2.3067 H   0  0  0  0  0  0  0  0  0  0  0  0
    0.7065   -0.4571   -4.1200 H   0  0  0  0  0  0  0  0  0  0  0  0
  1  2  1  0
  2  3  2  0
  3  4  1  0
  4  5  2  0
  5  6  1  0
  6  7  2  0
  7  8  1  0
  8  9  2  0
  8 10  1  0
 10 11  2  0
 11 12  1  0
 12 13  1  0
 13 14  2  0
 14 15  1  0
 12 16  2  0
 16 17  1  0
 17 18  2  0
 18 19  1  0
  7 20  1  0
  9  4  1  0
 18 10  1  0
  1 21  1  0
  1 22  1  0
  1 23  1  0
  2 24  1  0
  3 25  1  0
  5 26  1  0
  6 27  1  0
  9 28  1  0
 11 29  1  0
 13 30  1  0
 14 31  1  0
 15 32  1  0
 15 33  1  0
 15 34  1  0
 16 35  1  0
 17 36  1  0
 19 37  1  0
 20 38  1  0
M  END
>  <Ligand ID>  (1) 
LIG0005586

>  <Ligand>  (1) 
CHEMBL179840

>  <SMILES>  (1) 
C/C=C/c1ccc(c(c1)c1cc(/C=C/C)ccc1O)O

>  <CID>  (1) 
6440803.0

>  <ChEMBL ID>  (1) 
nan

>  <InChiKey>  (1) 
VLRNWUFGTCSJDO-GGWOSOGESA-N

>  <InChi>  (1) 
InChI=1S/C18H18O2/c1-3-5-13-7-9-17(19)15(11-13)16-12-14(6-4-2)8-10-18(16)20/h3-12,19-20H,1-2H3/b5-3+,6-4+

>  <IUPAC Name>  (1) 
2-[2-hydroxy-5-[(E)-prop-1-enyl]phenyl]-4-[(E)-prop-1-enyl]phenol

$$$$
