
     RDKit          3D

 96 99  0  0  0  0  0  0  0  0999 V2000
    1.1828   -0.0745   -1.1315 O   0  0  0  0  0  0  0  0  0  0  0  0
    1.8882    0.6652   -0.4107 C   0  0  0  0  0  0  0  0  0  0  0  0
    3.1624    0.2120    0.1314 N   0  0  0  0  0  0  0  0  0  0  0  0
    3.6123   -1.1670   -0.1448 C   0  0  2  0  0  0  0  0  0  0  0  0
    3.6803   -1.8644    1.1953 C   0  0  0  0  0  0  0  0  0  0  0  0
    3.2911   -1.1251    2.1646 O   0  0  0  0  0  0  0  0  0  0  0  0
    4.1219   -3.1850    1.3784 N   0  0  0  0  0  0  0  0  0  0  0  0
    4.9654   -1.1231   -0.8008 C   0  0  0  0  0  0  0  0  0  0  0  0
    5.3591   -2.5396   -1.0612 C   0  0  0  0  0  0  0  0  0  0  0  0
    6.2893   -3.3194   -0.3885 C   0  0  0  0  0  0  0  0  0  0  0  0
    6.3270   -4.5440   -0.9422 N   0  0  0  0  0  0  0  0  0  0  0  0
    5.4497   -4.5567   -1.9415 C   0  0  0  0  0  0  0  0  0  0  0  0
    4.8060   -3.3370   -2.0781 C   0  0  0  0  0  0  0  0  0  0  0  0
    3.8557   -3.1022   -3.0325 C   0  0  0  0  0  0  0  0  0  0  0  0
    3.4799   -4.0816   -3.9274 C   0  0  0  0  0  0  0  0  0  0  0  0
    4.0944   -5.3037   -3.8248 C   0  0  0  0  0  0  0  0  0  0  0  0
    5.0653   -5.5371   -2.8456 C   0  0  0  0  0  0  0  0  0  0  0  0
    1.5289    2.0478   -0.0165 C   0  0  0  0  0  0  0  0  0  0  0  0
    0.1970    2.5004   -0.4543 C   0  0  1  0  0  0  0  0  0  0  0  0
   -0.8744    1.6522    0.0015 N   0  0  0  0  0  0  0  0  0  0  0  0
   -2.2569    1.8689   -0.1997 C   0  0  0  0  0  0  0  0  0  0  0  0
   -2.7044    2.8837   -0.7877 O   0  0  0  0  0  0  0  0  0  0  0  0
   -3.1879    0.8547    0.3073 C   0  0  2  0  0  0  0  0  0  0  0  0
   -2.5335   -0.4239    0.5152 N   0  0  0  0  0  0  0  0  0  0  0  0
   -2.4626   -1.1553    1.7157 C   0  0  0  0  0  0  0  0  0  0  0  0
   -2.9834   -0.7515    2.8127 O   0  0  0  0  0  0  0  0  0  0  0  0
   -1.7355   -2.4619    1.6627 C   0  0  2  0  0  0  0  0  0  0  0  0
   -2.2369   -3.3045    0.5460 C   0  0  0  0  0  0  0  0  0  0  0  0
   -3.6591   -3.6589    0.5787 C   0  0  0  0  0  0  0  0  0  0  0  0
   -4.2346   -4.4157   -0.4006 N   0  0  0  0  0  0  0  0  0  0  0  0
   -5.5259   -4.6040   -0.1373 C   0  0  0  0  0  0  0  0  0  0  0  0
   -5.8113   -3.9740    1.0164 N   0  0  0  0  0  0  0  0  0  0  0  0
   -4.6769   -3.4009    1.4498 C   0  0  0  0  0  0  0  0  0  0  0  0
   -1.7747   -3.0743    2.9640 N   0  0  0  0  0  0  0  0  0  0  0  0
   -0.5418   -3.4679    3.5941 C   0  0  0  0  0  0  0  0  0  0  0  0
    0.5759   -3.2963    3.0554 O   0  0  0  0  0  0  0  0  0  0  0  0
   -0.5954   -4.1134    4.9587 C   0  0  0  0  0  0  0  0  0  0  0  0
   -4.3742    0.5836   -0.5720 C   0  0  0  0  0  0  0  0  0  0  0  0
   -5.2539    1.7186   -0.8314 C   0  0  0  0  0  0  0  0  0  0  0  0
   -5.2026    2.5436   -1.9362 C   0  0  0  0  0  0  0  0  0  0  0  0
   -6.0376    3.6175   -2.1381 C   0  0  0  0  0  0  0  0  0  0  0  0
   -6.9996    3.8890   -1.1586 C   0  0  0  0  0  0  0  0  0  0  0  0
   -7.0751    3.0821   -0.0465 C   0  0  0  0  0  0  0  0  0  0  0  0
   -6.2229    2.0232    0.1125 C   0  0  0  0  0  0  0  0  0  0  0  0
   -0.0458    3.9040    0.1711 C   0  0  0  0  0  0  0  0  0  0  0  0
    0.9787    4.9029   -0.2530 C   0  0  0  0  0  0  0  0  0  0  0  0
    0.5653    6.2221    0.4249 C   0  0  0  0  0  0  0  0  0  0  0  0
    1.4322    7.3087    0.1372 N   0  0  0  0  0  0  0  0  0  0  0  0
    2.5775    7.5679    0.6327 C   0  0  0  0  0  0  0  0  0  0  0  0
    3.1002    6.6834    1.6049 N   0  0  0  0  0  0  0  0  0  0  0  0
    3.2567    8.7422    0.1813 N   0  0  0  0  0  0  0  0  0  0  0  0
    3.7635    0.8180    0.6997 H   0  0  0  0  0  0  0  0  0  0  0  0
    2.9025   -1.7310   -0.7553 H   0  0  0  0  0  0  0  0  0  0  0  0
    4.8599   -3.3493    2.1082 H   0  0  0  0  0  0  0  0  0  0  0  0
    3.7883   -4.0239    0.8670 H   0  0  0  0  0  0  0  0  0  0  0  0
    5.7423   -0.7240   -0.0839 H   0  0  0  0  0  0  0  0  0  0  0  0
    5.0271   -0.4958   -1.6936 H   0  0  0  0  0  0  0  0  0  0  0  0
    6.8533   -2.9155    0.4487 H   0  0  0  0  0  0  0  0  0  0  0  0
    6.9222   -5.3434   -0.6517 H   0  0  0  0  0  0  0  0  0  0  0  0
    3.4055   -2.1268   -3.0698 H   0  0  0  0  0  0  0  0  0  0  0  0
    2.7235   -3.9091   -4.6980 H   0  0  0  0  0  0  0  0  0  0  0  0
    3.8213   -6.1094   -4.5130 H   0  0  0  0  0  0  0  0  0  0  0  0
    5.4874   -6.5294   -2.8443 H   0  0  0  0  0  0  0  0  0  0  0  0
    1.6918    2.1224    1.0818 H   0  0  0  0  0  0  0  0  0  0  0  0
    2.2929    2.7515   -0.4513 H   0  0  0  0  0  0  0  0  0  0  0  0
    0.1008    2.7089   -1.5113 H   0  0  0  0  0  0  0  0  0  0  0  0
   -0.5767    0.7864    0.5434 H   0  0  0  0  0  0  0  0  0  0  0  0
   -3.5529    1.2139    1.3314 H   0  0  0  0  0  0  0  0  0  0  0  0
   -2.0639   -0.8205   -0.3421 H   0  0  0  0  0  0  0  0  0  0  0  0
   -0.6547   -2.2399    1.4079 H   0  0  0  0  0  0  0  0  0  0  0  0
   -1.6727   -4.2742    0.4681 H   0  0  0  0  0  0  0  0  0  0  0  0
   -1.9928   -2.7936   -0.4185 H   0  0  0  0  0  0  0  0  0  0  0  0
   -3.7439   -4.8096   -1.2639 H   0  0  0  0  0  0  0  0  0  0  0  0
   -6.1917   -5.1785   -0.7825 H   0  0  0  0  0  0  0  0  0  0  0  0
   -4.6252   -2.8320    2.3538 H   0  0  0  0  0  0  0  0  0  0  0  0
   -2.6333   -3.2647    3.5180 H   0  0  0  0  0  0  0  0  0  0  0  0
   -0.9170   -5.1864    4.8139 H   0  0  0  0  0  0  0  0  0  0  0  0
    0.3519   -4.0097    5.4973 H   0  0  0  0  0  0  0  0  0  0  0  0
   -1.3971   -3.6621    5.5846 H   0  0  0  0  0  0  0  0  0  0  0  0
   -4.9217   -0.2836   -0.1072 H   0  0  0  0  0  0  0  0  0  0  0  0
   -3.9585    0.1868   -1.5428 H   0  0  0  0  0  0  0  0  0  0  0  0
   -4.4733    2.3438   -2.7151 H   0  0  0  0  0  0  0  0  0  0  0  0
   -5.9978    4.2492   -2.9893 H   0  0  0  0  0  0  0  0  0  0  0  0
   -7.6908    4.7218   -1.2517 H   0  0  0  0  0  0  0  0  0  0  0  0
   -7.8432    3.3236    0.6976 H   0  0  0  0  0  0  0  0  0  0  0  0
   -6.2805    1.3838    0.9930 H   0  0  0  0  0  0  0  0  0  0  0  0
   -1.0306    4.3000   -0.1231 H   0  0  0  0  0  0  0  0  0  0  0  0
   -0.0345    3.7687    1.2582 H   0  0  0  0  0  0  0  0  0  0  0  0
    1.0592    5.0855   -1.3233 H   0  0  0  0  0  0  0  0  0  0  0  0
    1.9907    4.6896    0.1445 H   0  0  0  0  0  0  0  0  0  0  0  0
   -0.4964    6.4682    0.1094 H   0  0  0  0  0  0  0  0  0  0  0  0
    0.5004    6.0992    1.5384 H   0  0  0  0  0  0  0  0  0  0  0  0
    3.8788    6.0531    1.3039 H   0  0  0  0  0  0  0  0  0  0  0  0
    2.7197    6.6602    2.5808 H   0  0  0  0  0  0  0  0  0  0  0  0
    3.8501    9.2894    0.8462 H   0  0  0  0  0  0  0  0  0  0  0  0
    3.1796    9.0778   -0.7902 H   0  0  0  0  0  0  0  0  0  0  0  0
  1  2  2  0
  2  3  1  0
  3  4  1  0
  4  5  1  0
  5  6  2  0
  5  7  1  0
  4  8  1  0
  8  9  1  0
  9 10  2  0
 10 11  1  0
 11 12  1  0
 12 13  2  0
 13 14  1  0
 14 15  2  0
 15 16  1  0
 16 17  2  0
  2 18  1  0
 18 19  1  0
 19 20  1  0
 20 21  1  0
 21 22  2  0
 21 23  1  0
 23 24  1  0
 24 25  1  0
 25 26  2  0
 25 27  1  0
 27 28  1  0
 28 29  1  0
 29 30  1  0
 30 31  1  0
 31 32  2  0
 32 33  1  0
 27 34  1  0
 34 35  1  0
 35 36  2  0
 35 37  1  0
 23 38  1  0
 38 39  1  0
 39 40  2  0
 40 41  1  0
 41 42  2  0
 42 43  1  0
 43 44  2  0
 19 45  1  0
 45 46  1  0
 46 47  1  0
 47 48  1  0
 48 49  2  3
 49 50  1  0
 49 51  1  0
 13  9  1  0
 33 29  2  0
 44 39  1  0
 17 12  1  0
  3 52  1  0
  4 53  1  6
  7 54  1  0
  7 55  1  0
  8 56  1  0
  8 57  1  0
 10 58  1  0
 11 59  1  0
 14 60  1  0
 15 61  1  0
 16 62  1  0
 17 63  1  0
 18 64  1  0
 18 65  1  0
 19 66  1  6
 20 67  1  0
 23 68  1  1
 24 69  1  0
 27 70  1  6
 28 71  1  0
 28 72  1  0
 30 73  1  0
 31 74  1  0
 33 75  1  0
 34 76  1  0
 37 77  1  0
 37 78  1  0
 37 79  1  0
 38 80  1  0
 38 81  1  0
 40 82  1  0
 41 83  1  0
 42 84  1  0
 43 85  1  0
 44 86  1  0
 45 87  1  0
 45 88  1  0
 46 89  1  0
 46 90  1  0
 47 91  1  0
 47 92  1  0
 50 93  1  0
 50 94  1  0
 51 95  1  0
 51 96  1  0
M  END
>  <Ligand ID>  (1) 
LIG0001438

>  <Ligand>  (1) 
CHEMBL3582445

>  <SMILES>  (1) 
O=C(N[C@H](C(=O)N)Cc1c[nH]c2c1cccc2)C[C@@H](NC(=O)[C@H](NC(=O)[C@H](Cc1[nH]cnc1)NC(=O)C)Cc1ccccc1)CCCN=C(N)N

>  <CID>  (1) 
122179551.0

>  <ChEMBL ID>  (1) 
nan

>  <InChiKey>  (1) 
FIBNUCOPNWMPIQ-ZPNBPFPUSA-N

>  <InChi>  (1) 
InChI=1S/C35H45N11O5/c1-21(47)43-30(16-25-19-39-20-42-25)34(51)46-29(14-22-8-3-2-4-9-22)33(50)44-24(10-7-13-40-35(37)38)17-31(48)45-28(32(36)49)15-23-18-41-27-12-6-5-11-26(23)27/h2-6,8-9,11-12,18-20,24,28-30,41H,7,10,13-17H2,1H3,(H2,36,49)(H,39,42)(H,43,47)(H,44,50)(H,45,48)(H,46,51)(H4,37,38,40)/t24-,28-,29+,30-/m0/s1

>  <IUPAC Name>  (1) 
(3S)-3-[[(2R)-2-[[(2S)-2-acetamido-3-(1H-imidazol-5-yl)propanoyl]amino]-3-phenylpropanoyl]amino]-N-[(2S)-1-amino-3-(1H-indol-3-yl)-1-oxopropan-2-yl]-6-(diaminomethylideneamino)hexanamide

$$$$
