
     RDKit          3D

111112  0  0  0  0  0  0  0  0999 V2000
    1.5245   -0.5758   -0.2558 O   0  0  0  0  0  0  0  0  0  0  0  0
    0.4707    0.1982    0.2288 C   0  0  0  0  0  0  0  0  0  0  0  0
    0.7980    1.1885    0.9419 O   0  0  0  0  0  0  0  0  0  0  0  0
   -0.9533   -0.1179   -0.0718 C   0  0  0  0  0  0  0  0  0  0  0  0
   -1.2108   -1.3918    0.4270 F   0  0  0  0  0  0  0  0  0  0  0  0
   -1.2521    0.0163   -1.3892 F   0  0  0  0  0  0  0  0  0  0  0  0
   -1.7436    0.7469    0.6485 F   0  0  0  0  0  0  0  0  0  0  0  0
    1.3860   -0.5830    0.6274 O   0  0  0  0  0  0  0  0  0  0  0  0
    0.4798    0.2815    0.0194 C   0  0  0  0  0  0  0  0  0  0  0  0
    0.9628    1.3580   -0.4519 O   0  0  0  0  0  0  0  0  0  0  0  0
   -0.9740   -0.0388   -0.0727 C   0  0  0  0  0  0  0  0  0  0  0  0
   -1.4295   -0.1750    1.2127 F   0  0  0  0  0  0  0  0  0  0  0  0
   -1.5762    0.9863   -0.7614 F   0  0  0  0  0  0  0  0  0  0  0  0
   -1.1666   -1.2221   -0.7638 F   0  0  0  0  0  0  0  0  0  0  0  0
    3.0856    1.6037   -1.6371 O   0  0  0  0  0  0  0  0  0  0  0  0
    2.8967    0.6663   -0.8198 C   0  0  0  0  0  0  0  0  0  0  0  0
    3.4228   -0.6886   -1.0707 C   0  0  1  0  0  0  0  0  0  0  0  0
    4.1078   -0.6871   -2.3554 N   0  0  0  0  0  0  0  0  0  0  0  0
    4.3510   -2.0440   -2.8198 C   0  0  0  0  0  0  0  0  0  0  0  0
    4.7250   -2.9050   -1.6001 C   0  0  0  0  0  0  0  0  0  0  0  0
    5.3735   -1.9964   -0.6888 N   0  0  0  0  0  0  0  0  0  0  0  0
    4.4311   -1.0704   -0.0022 C   0  0  0  0  0  0  0  0  0  0  0  0
    6.7386   -1.8923   -0.4035 C   0  0  0  0  0  0  0  0  0  0  0  0
    7.0618   -0.9909    0.4715 O   0  0  0  0  0  0  0  0  0  0  0  0
    7.8604   -2.6475   -0.9441 C   0  0  1  0  0  0  0  0  0  0  0  0
    7.5338   -3.6287   -1.9298 N   0  0  0  0  0  0  0  0  0  0  0  0
    8.9512   -1.7077   -1.4470 C   0  0  0  0  0  0  0  0  0  0  0  0
    2.1581    0.8625    0.4037 N   0  0  0  0  0  0  0  0  0  0  0  0
    1.6546    2.2003    0.6259 C   0  0  1  0  0  0  0  0  0  0  0  0
    0.2145    2.3432    0.7164 C   0  0  0  0  0  0  0  0  0  0  0  0
   -0.2273    3.5387    0.9453 O   0  0  0  0  0  0  0  0  0  0  0  0
   -0.7900    1.3694    0.5926 N   0  0  0  0  0  0  0  0  0  0  0  0
   -2.1768    1.8350    0.7714 C   0  0  0  0  0  0  0  0  0  0  0  0
   -3.0010    0.6890    1.3945 C   0  0  0  0  0  0  0  0  0  0  0  0
   -3.1439   -0.3436    0.3123 C   0  0  0  0  0  0  0  0  0  0  0  0
   -1.8636   -0.4504   -0.4754 C   0  0  0  0  0  0  0  0  0  0  0  0
   -0.6238   -0.0268    0.2997 C   0  0  0  0  0  0  0  0  0  0  0  0
   -3.6048   -1.6983    0.7802 C   0  0  0  0  0  0  0  0  0  0  0  0
   -4.9252   -1.7079    1.4523 C   0  0  0  0  0  0  0  0  0  0  0  0
   -4.9382   -2.1235    2.8788 C   0  0  0  0  0  0  0  0  0  0  0  0
   -3.9625   -3.1590    3.2969 C   0  0  0  0  0  0  0  0  0  0  0  0
   -3.2848   -3.7250    2.0671 C   0  0  0  0  0  0  0  0  0  0  0  0
   -2.5512   -2.5158    1.4663 C   0  0  0  0  0  0  0  0  0  0  0  0
   -4.2205    0.2389   -0.5820 C   0  0  0  0  0  0  0  0  0  0  0  0
   -4.7753    1.3302   -0.2852 O   0  0  0  0  0  0  0  0  0  0  0  0
   -4.5953   -0.4623   -1.7603 N   0  0  0  0  0  0  0  0  0  0  0  0
   -5.6254    0.1067   -2.6049 C   0  0  0  0  0  0  0  0  0  0  0  0
   -6.9393    0.2760   -1.9232 C   0  0  0  0  0  0  0  0  0  0  0  0
   -5.2027    1.4609   -3.1380 C   0  0  0  0  0  0  0  0  0  0  0  0
   -5.8075   -0.8302   -3.7801 C   0  0  0  0  0  0  0  0  0  0  0  0
    2.4083    2.7048    1.8566 C   0  0  0  0  0  0  0  0  0  0  0  0
    2.0437    4.0585    2.2587 C   0  0  0  0  0  0  0  0  0  0  0  0
    1.0694    4.3946    3.1692 C   0  0  0  0  0  0  0  0  0  0  0  0
    0.7731    5.7087    3.5043 C   0  0  0  0  0  0  0  0  0  0  0  0
    1.4689    6.7648    2.9163 C   0  0  0  0  0  0  0  0  0  0  0  0
    2.4418    6.4178    2.0066 C   0  0  0  0  0  0  0  0  0  0  0  0
    2.7321    5.1182    1.6777 C   0  0  0  0  0  0  0  0  0  0  0  0
    1.2292    8.0531    3.1972 F   0  0  0  0  0  0  0  0  0  0  0  0
    2.3665   -0.0645   -0.5294 H   0  0  0  0  0  0  0  0  0  0  0  0
    2.3176   -0.6069    0.1903 H   0  0  0  0  0  0  0  0  0  0  0  0
    2.6603   -1.4839   -1.0992 H   0  0  0  0  0  0  0  0  0  0  0  0
    3.4679   -0.2212   -3.0364 H   0  0  0  0  0  0  0  0  0  0  0  0
    5.2515   -2.0145   -3.4685 H   0  0  0  0  0  0  0  0  0  0  0  0
    3.5169   -2.4717   -3.3908 H   0  0  0  0  0  0  0  0  0  0  0  0
    3.7828   -3.3251   -1.1499 H   0  0  0  0  0  0  0  0  0  0  0  0
    5.2853   -3.7484   -1.9573 H   0  0  0  0  0  0  0  0  0  0  0  0
    3.9905   -1.5950    0.8451 H   0  0  0  0  0  0  0  0  0  0  0  0
    4.9851   -0.1846    0.3070 H   0  0  0  0  0  0  0  0  0  0  0  0
    8.3408   -3.1822   -0.0795 H   0  0  0  0  0  0  0  0  0  0  0  0
    7.6711   -3.3471   -2.9038 H   0  0  0  0  0  0  0  0  0  0  0  0
    7.8530   -4.5730   -1.6737 H   0  0  0  0  0  0  0  0  0  0  0  0
    9.8515   -2.2904   -1.6558 H   0  0  0  0  0  0  0  0  0  0  0  0
    8.5691   -1.2771   -2.4005 H   0  0  0  0  0  0  0  0  0  0  0  0
    9.0753   -0.9190   -0.6933 H   0  0  0  0  0  0  0  0  0  0  0  0
    1.9968    0.1127    1.0931 H   0  0  0  0  0  0  0  0  0  0  0  0
    1.9882    2.8859   -0.2146 H   0  0  0  0  0  0  0  0  0  0  0  0
   -2.6209    2.2186   -0.1492 H   0  0  0  0  0  0  0  0  0  0  0  0
   -2.1354    2.5953    1.5764 H   0  0  0  0  0  0  0  0  0  0  0  0
   -2.4509    0.3735    2.2813 H   0  0  0  0  0  0  0  0  0  0  0  0
   -3.9673    1.1997    1.6534 H   0  0  0  0  0  0  0  0  0  0  0  0
   -1.7401   -1.4247   -0.9746 H   0  0  0  0  0  0  0  0  0  0  0  0
   -1.9304    0.2961   -1.3181 H   0  0  0  0  0  0  0  0  0  0  0  0
   -0.4975   -0.5419    1.2596 H   0  0  0  0  0  0  0  0  0  0  0  0
    0.2173   -0.2491   -0.3962 H   0  0  0  0  0  0  0  0  0  0  0  0
   -3.7511   -2.2727   -0.1905 H   0  0  0  0  0  0  0  0  0  0  0  0
   -5.3819   -0.6739    1.4386 H   0  0  0  0  0  0  0  0  0  0  0  0
   -5.7017   -2.3117    0.9137 H   0  0  0  0  0  0  0  0  0  0  0  0
   -4.8534   -1.2511    3.5931 H   0  0  0  0  0  0  0  0  0  0  0  0
   -5.9659   -2.5226    3.1382 H   0  0  0  0  0  0  0  0  0  0  0  0
   -4.3867   -3.9423    3.9578 H   0  0  0  0  0  0  0  0  0  0  0  0
   -3.1319   -2.6674    3.8831 H   0  0  0  0  0  0  0  0  0  0  0  0
   -4.0333   -4.1047    1.3641 H   0  0  0  0  0  0  0  0  0  0  0  0
   -2.5630   -4.5266    2.3143 H   0  0  0  0  0  0  0  0  0  0  0  0
   -2.0445   -2.0516    2.3054 H   0  0  0  0  0  0  0  0  0  0  0  0
   -1.8151   -2.9662    0.7602 H   0  0  0  0  0  0  0  0  0  0  0  0
   -4.1113   -1.3764   -1.9837 H   0  0  0  0  0  0  0  0  0  0  0  0
   -7.2635   -0.6556   -1.4103 H   0  0  0  0  0  0  0  0  0  0  0  0
   -7.0458    1.1777   -1.2995 H   0  0  0  0  0  0  0  0  0  0  0  0
   -7.6958    0.3936   -2.7537 H   0  0  0  0  0  0  0  0  0  0  0  0
   -5.8435    2.2683   -2.7482 H   0  0  0  0  0  0  0  0  0  0  0  0
   -4.1519    1.6704   -2.7985 H   0  0  0  0  0  0  0  0  0  0  0  0
   -5.1760    1.4556   -4.2450 H   0  0  0  0  0  0  0  0  0  0  0  0
   -4.9672   -0.6267   -4.4844 H   0  0  0  0  0  0  0  0  0  0  0  0
   -6.7955   -0.7119   -4.2602 H   0  0  0  0  0  0  0  0  0  0  0  0
   -5.6747   -1.8846   -3.4615 H   0  0  0  0  0  0  0  0  0  0  0  0
    2.1716    1.9864    2.6798 H   0  0  0  0  0  0  0  0  0  0  0  0
    3.4901    2.6569    1.7171 H   0  0  0  0  0  0  0  0  0  0  0  0
    0.5238    3.5731    3.6313 H   0  0  0  0  0  0  0  0  0  0  0  0
    0.0113    5.9740    4.2166 H   0  0  0  0  0  0  0  0  0  0  0  0
    3.0109    7.2124    1.5219 H   0  0  0  0  0  0  0  0  0  0  0  0
    3.5110    4.9046    0.9522 H   0  0  0  0  0  0  0  0  0  0  0  0
  1  2  1  0
  2  3  2  0
  2  4  1  0
  4  5  1  0
  4  6  1  0
  4  7  1  0
  8  9  1  0
  9 10  2  0
  9 11  1  0
 11 12  1  0
 11 13  1  0
 11 14  1  0
 15 16  2  0
 16 17  1  0
 17 18  1  0
 18 19  1  0
 19 20  1  0
 20 21  1  0
 21 22  1  0
 21 23  1  0
 23 24  2  0
 23 25  1  0
 25 26  1  0
 25 27  1  0
 16 28  1  0
 28 29  1  0
 29 30  1  0
 30 31  2  0
 30 32  1  0
 32 33  1  0
 33 34  1  0
 34 35  1  0
 35 36  1  0
 36 37  1  0
 35 38  1  0
 38 39  1  0
 39 40  1  0
 40 41  1  0
 41 42  1  0
 42 43  1  0
 35 44  1  0
 44 45  2  0
 44 46  1  0
 46 47  1  0
 47 48  1  0
 47 49  1  0
 47 50  1  0
 29 51  1  0
 51 52  1  0
 52 53  2  0
 53 54  1  0
 54 55  2  0
 55 56  1  0
 56 57  2  0
 55 58  1  0
 22 17  1  0
 37 32  1  0
 43 38  1  0
 57 52  1  0
  1 59  1  0
  8 60  1  0
 17 61  1  6
 18 62  1  0
 19 63  1  0
 19 64  1  0
 20 65  1  0
 20 66  1  0
 22 67  1  0
 22 68  1  0
 25 69  1  1
 26 70  1  0
 26 71  1  0
 27 72  1  0
 27 73  1  0
 27 74  1  0
 28 75  1  0
 29 76  1  6
 33 77  1  0
 33 78  1  0
 34 79  1  0
 34 80  1  0
 36 81  1  0
 36 82  1  0
 37 83  1  0
 37 84  1  0
 38 85  1  0
 39 86  1  0
 39 87  1  0
 40 88  1  0
 40 89  1  0
 41 90  1  0
 41 91  1  0
 42 92  1  0
 42 93  1  0
 43 94  1  0
 43 95  1  0
 46 96  1  0
 48 97  1  0
 48 98  1  0
 48 99  1  0
 49100  1  0
 49101  1  0
 49102  1  0
 50103  1  0
 50104  1  0
 50105  1  0
 51106  1  0
 51107  1  0
 53108  1  0
 54109  1  0
 56110  1  0
 57111  1  0
M  END
>  <Ligand ID>  (1) 
LIG0005166

>  <Ligand>  (1) 
CHEMBL2145456

>  <SMILES>  (1) 
OC(=O)C(F)(F)F.OC(=O)C(F)(F)F.O=C([C@H]1NCCN(C1)C(=O)[C@@H](N)C)N[C@@H](C(=O)N1CCC(CC1)(C1CCCCC1)C(=O)NC(C)(C)C)Cc1ccc(cc1)F

>  <CID>  (1) 
71452826.0

>  <ChEMBL ID>  (1) 
nan

>  <InChiKey>  (1) 
OOYPVXPOPNRJGE-ZFQZKVMISA-N

>  <InChi>  (1) 
InChI=1S/C33H51FN6O4.2C2HF3O2/c1-22(35)29(42)40-19-16-36-27(21-40)28(41)37-26(20-23-10-12-25(34)13-11-23)30(43)39-17-14-33(15-18-39,24-8-6-5-7-9-24)31(44)38-32(2,3)4;2*3-2(4,5)1(6)7/h10-13,22,24,26-27,36H,5-9,14-21,35H2,1-4H3,(H,37,41)(H,38,44);2*(H,6,7)/t22-,26+,27-;;/m0../s1

>  <IUPAC Name>  (1) 
(2S)-4-[(2S)-2-aminopropanoyl]-N-[(2R)-1-[4-(tert-butylcarbamoyl)-4-cyclohexylpiperidin-1-yl]-3-(4-fluorophenyl)-1-oxopropan-2-yl]piperazine-2-carboxamide;2,2,2-trifluoroacetic acid

$$$$
