
     RDKit          3D

 63 69  0  0  0  0  0  0  0  0999 V2000
    0.7387   -2.6170   -1.8634 C   0  0  0  0  0  0  0  0  0  0  0  0
    1.1551   -1.5128   -1.1936 O   0  0  0  0  0  0  0  0  0  0  0  0
    0.2678   -0.8397   -0.4148 C   0  0  1  0  0  0  0  0  0  0  0  0
   -0.3316   -1.6498    0.6976 C   0  0  0  0  0  0  0  0  0  0  0  0
   -1.1609   -0.7870    1.5921 C   0  0  0  0  0  0  0  0  0  0  0  0
   -1.3259    0.5910    0.9963 C   0  0  1  0  0  0  0  0  0  0  0  0
   -0.0112    1.2537    0.9618 C   0  0  0  0  0  0  0  0  0  0  0  0
    1.0005    0.3669    0.2185 C   0  0  1  0  0  0  0  0  0  0  0  0
    2.0221   -0.0739    1.2112 C   0  0  0  0  0  0  0  0  0  0  0  0
    2.7305    0.9417    1.8267 O   0  0  0  0  0  0  0  0  0  0  0  0
    3.4947    1.6781    0.9747 C   0  0  0  0  0  0  0  0  0  0  0  0
    4.5767    0.9462    0.2786 C   0  0  0  0  0  0  0  0  0  0  0  0
    5.8002    0.8743    0.9174 C   0  0  0  0  0  0  0  0  0  0  0  0
    6.8938    0.2273    0.3799 C   0  0  0  0  0  0  0  0  0  0  0  0
    6.7678   -0.3729   -0.8415 C   0  0  0  0  0  0  0  0  0  0  0  0
    5.5578   -0.3047   -1.4790 C   0  0  0  0  0  0  0  0  0  0  0  0
    4.4677    0.3404   -0.9430 C   0  0  0  0  0  0  0  0  0  0  0  0
   -1.8425    0.4729   -0.4269 C   0  0  1  0  0  0  0  0  0  0  0  0
   -0.8423   -0.2871   -1.2609 C   0  0  2  0  0  0  0  0  0  0  0  0
   -1.6568   -1.2997   -1.8423 O   0  0  0  0  0  0  0  0  0  0  0  0
   -2.8431   -1.4894   -1.1628 C   0  0  0  0  0  0  0  0  0  0  0  0
   -2.9712   -0.4615   -0.2944 C   0  0  0  0  0  0  0  0  0  0  0  0
   -3.9573   -0.2029    0.6012 C   0  0  0  0  0  0  0  0  0  0  0  0
   -3.8034    0.9694    1.4733 C   0  0  0  0  0  0  0  0  0  0  0  0
   -2.3668    1.3990    1.7109 C   0  0  2  0  0  0  0  0  0  0  0  0
   -2.1629    2.7700    1.2513 N   0  0  0  0  0  0  0  0  0  0  0  0
   -2.4341    2.9268   -0.1378 C   0  0  0  0  0  0  0  0  0  0  0  0
   -2.2417    1.7565   -1.0193 C   0  0  0  0  0  0  0  0  0  0  0  0
   -4.9924   -1.1191    0.6339 C   0  0  0  0  0  0  0  0  0  0  0  0
   -4.9500   -2.2182   -0.2331 C   0  0  0  0  0  0  0  0  0  0  0  0
   -3.8902   -2.4148   -1.1291 C   0  0  0  0  0  0  0  0  0  0  0  0
   -3.8344   -3.4937   -1.9889 O   0  0  0  0  0  0  0  0  0  0  0  0
    0.3411   -3.4312   -1.2224 H   0  0  0  0  0  0  0  0  0  0  0  0
    1.6832   -3.0853   -2.2953 H   0  0  0  0  0  0  0  0  0  0  0  0
    0.1119   -2.4486   -2.7554 H   0  0  0  0  0  0  0  0  0  0  0  0
   -0.9477   -2.4702    0.2187 H   0  0  0  0  0  0  0  0  0  0  0  0
    0.4213   -2.1744    1.3294 H   0  0  0  0  0  0  0  0  0  0  0  0
   -0.7417   -0.6240    2.6066 H   0  0  0  0  0  0  0  0  0  0  0  0
   -2.1244   -1.3165    1.7677 H   0  0  0  0  0  0  0  0  0  0  0  0
   -0.1105    2.1838    0.3575 H   0  0  0  0  0  0  0  0  0  0  0  0
    0.3838    1.5349    1.9631 H   0  0  0  0  0  0  0  0  0  0  0  0
    1.4454    0.9040   -0.6177 H   0  0  0  0  0  0  0  0  0  0  0  0
    1.5718   -0.6652    2.0502 H   0  0  0  0  0  0  0  0  0  0  0  0
    2.7921   -0.7523    0.7613 H   0  0  0  0  0  0  0  0  0  0  0  0
    3.9446    2.5670    1.4844 H   0  0  0  0  0  0  0  0  0  0  0  0
    2.8684    2.1141    0.1455 H   0  0  0  0  0  0  0  0  0  0  0  0
    5.9314    1.3455    1.8968 H   0  0  0  0  0  0  0  0  0  0  0  0
    7.8565    0.1658    0.8732 H   0  0  0  0  0  0  0  0  0  0  0  0
    7.5997   -0.8978   -1.3125 H   0  0  0  0  0  0  0  0  0  0  0  0
    5.4878   -0.7930   -2.4521 H   0  0  0  0  0  0  0  0  0  0  0  0
    3.5441    0.3614   -1.4949 H   0  0  0  0  0  0  0  0  0  0  0  0
   -0.4060    0.3834   -2.0251 H   0  0  0  0  0  0  0  0  0  0  0  0
   -4.3704    1.8656    1.1189 H   0  0  0  0  0  0  0  0  0  0  0  0
   -4.2791    0.7149    2.4538 H   0  0  0  0  0  0  0  0  0  0  0  0
   -2.1522    1.3778    2.7868 H   0  0  0  0  0  0  0  0  0  0  0  0
   -2.7723    3.4124    1.7978 H   0  0  0  0  0  0  0  0  0  0  0  0
   -1.7263    3.7315   -0.5004 H   0  0  0  0  0  0  0  0  0  0  0  0
   -3.4405    3.4271   -0.2681 H   0  0  0  0  0  0  0  0  0  0  0  0
   -3.2363    1.5809   -1.5340 H   0  0  0  0  0  0  0  0  0  0  0  0
   -1.5613    1.9740   -1.8997 H   0  0  0  0  0  0  0  0  0  0  0  0
   -5.7994   -0.9560    1.3279 H   0  0  0  0  0  0  0  0  0  0  0  0
   -5.7746   -2.9494   -0.2095 H   0  0  0  0  0  0  0  0  0  0  0  0
   -4.3954   -3.4504   -2.8292 H   0  0  0  0  0  0  0  0  0  0  0  0
  1  2  1  0
  3  2  1  6
  3  4  1  0
  4  5  1  0
  6  5  1  1
  6  7  1  0
  7  8  1  0
  8  9  1  0
  9 10  1  0
 10 11  1  0
 11 12  1  0
 12 13  2  0
 13 14  1  0
 14 15  2  0
 15 16  1  0
 16 17  2  0
  6 18  1  0
 18 19  1  0
 19 20  1  0
 20 21  1  0
 21 22  2  0
 22 23  1  0
 23 24  1  0
 24 25  1  0
 25 26  1  0
 26 27  1  0
 27 28  1  0
 23 29  2  0
 29 30  1  0
 30 31  2  0
 31 32  1  0
  8  3  1  0
 17 12  1  0
 18 28  1  6
 19  3  1  0
 31 21  1  0
 25  6  1  0
 22 18  1  0
  1 33  1  0
  1 34  1  0
  1 35  1  0
  4 36  1  0
  4 37  1  0
  5 38  1  0
  5 39  1  0
  7 40  1  0
  7 41  1  0
  8 42  1  6
  9 43  1  0
  9 44  1  0
 11 45  1  0
 11 46  1  0
 13 47  1  0
 14 48  1  0
 15 49  1  0
 16 50  1  0
 17 51  1  0
 19 52  1  6
 24 53  1  0
 24 54  1  0
 25 55  1  1
 26 56  1  0
 27 57  1  0
 27 58  1  0
 28 59  1  0
 28 60  1  0
 29 61  1  0
 30 62  1  0
 32 63  1  0
M  END
>  <Ligand ID>  (1) 
LIG0004701

>  <Ligand>  (1) 
CHEMBL3977305

>  <SMILES>  (1) 
CO[C@@]12CC[C@@]3(C[C@H]1COCc1ccccc1)[C@]14[C@@H]2Oc2c4c(C[C@@H]3NCC1)ccc2O

>  <CID>  (1) 
134152593.0

>  <ChEMBL ID>  (1) 
nan

>  <InChiKey>  (1) 
ADMSKYBLTWMPPO-CEIBRGBLSA-N

>  <InChi>  (1) 
InChI=1S/C27H31NO4/c1-30-27-10-9-25(14-19(27)16-31-15-17-5-3-2-4-6-17)21-13-18-7-8-20(29)23-22(18)26(25,11-12-28-21)24(27)32-23/h2-8,19,21,24,28-29H,9-16H2,1H3/t19-,21-,24-,25-,26+,27-/m0/s1

>  <IUPAC Name>  (1) 
(1R,2R,6S,14S,15S,16S)-15-methoxy-16-(phenylmethoxymethyl)-13-oxa-5-azahexacyclo[13.2.2.12,8.01,6.02,14.012,20]icosa-8(20),9,11-trien-11-ol

$$$$
