
     RDKit          3D

 44 46  0  0  0  0  0  0  0  0999 V2000
    0.2623   -0.7333    1.6105 O   0  0  0  0  0  0  0  0  0  0  0  0
    0.4916   -1.2978    0.5172 C   0  0  0  0  0  0  0  0  0  0  0  0
    1.7456   -0.9508   -0.2053 C   0  0  0  0  0  0  0  0  0  0  0  0
    2.2386   -1.6360   -1.7696 S   0  0  0  0  0  0  0  0  0  0  0  0
    3.7941   -0.6387   -1.7926 C   0  0  0  0  0  0  0  0  0  0  0  0
    3.7743    0.0973   -0.6278 C   0  0  0  0  0  0  0  0  0  0  0  0
    2.7325   -0.0606    0.1808 C   0  0  0  0  0  0  0  0  0  0  0  0
    2.5746    0.6497    1.4457 N   0  0  0  0  0  0  0  0  0  0  0  0
    4.9080    0.9273   -0.4831 C   0  0  0  0  0  0  0  0  0  0  0  0
    5.0643    1.7915    0.7050 C   0  0  0  0  0  0  0  0  0  0  0  0
    5.8568    0.9095   -1.4706 C   0  0  0  0  0  0  0  0  0  0  0  0
    5.8300    0.1822   -2.5752 N   0  0  0  0  0  0  0  0  0  0  0  0
    4.7776   -0.6074   -2.7387 N   0  0  0  0  0  0  0  0  0  0  0  0
    7.0489    1.8091   -1.2740 C   0  0  0  0  0  0  0  0  0  0  0  0
   -0.3745   -2.2369   -0.0548 N   0  0  0  0  0  0  0  0  0  0  0  0
   -1.6252   -2.6541    0.5520 C   0  0  0  0  0  0  0  0  0  0  0  0
   -2.7165   -1.6845    0.4148 C   0  0  0  0  0  0  0  0  0  0  0  0
   -3.5385   -1.7666   -0.7139 C   0  0  0  0  0  0  0  0  0  0  0  0
   -4.5859   -0.8716   -0.8896 C   0  0  0  0  0  0  0  0  0  0  0  0
   -4.8510    0.1094    0.0185 C   0  0  0  0  0  0  0  0  0  0  0  0
   -4.0408    0.2058    1.1509 C   0  0  0  0  0  0  0  0  0  0  0  0
   -3.0117   -0.6851    1.3091 C   0  0  0  0  0  0  0  0  0  0  0  0
   -6.1563    1.2624   -0.1533 S   0  0  0  0  0  0  0  0  0  0  0  0
   -6.4885    1.4780   -1.6116 O   0  0  0  0  0  0  0  0  0  0  0  0
   -5.7319    2.5317    0.5098 O   0  0  0  0  0  0  0  0  0  0  0  0
   -7.6291    0.6498    0.6189 C   0  0  0  0  0  0  0  0  0  0  0  0
   -8.0083   -0.5392    0.0322 F   0  0  0  0  0  0  0  0  0  0  0  0
   -8.6367    1.5846    0.4457 F   0  0  0  0  0  0  0  0  0  0  0  0
   -7.3939    0.4597    1.9623 F   0  0  0  0  0  0  0  0  0  0  0  0
    1.9908    1.5349    1.4571 H   0  0  0  0  0  0  0  0  0  0  0  0
    3.0359    0.2780    2.3165 H   0  0  0  0  0  0  0  0  0  0  0  0
    5.8780    2.5198    0.5546 H   0  0  0  0  0  0  0  0  0  0  0  0
    4.1522    2.4085    0.8926 H   0  0  0  0  0  0  0  0  0  0  0  0
    5.2429    1.1392    1.5827 H   0  0  0  0  0  0  0  0  0  0  0  0
    7.8423    1.5663   -1.9909 H   0  0  0  0  0  0  0  0  0  0  0  0
    7.4595    1.5336   -0.2610 H   0  0  0  0  0  0  0  0  0  0  0  0
    6.7838    2.8682   -1.2326 H   0  0  0  0  0  0  0  0  0  0  0  0
   -0.0878   -2.6604   -0.9874 H   0  0  0  0  0  0  0  0  0  0  0  0
   -1.9353   -3.5916    0.0620 H   0  0  0  0  0  0  0  0  0  0  0  0
   -1.4623   -2.8646    1.6381 H   0  0  0  0  0  0  0  0  0  0  0  0
   -3.3677   -2.5282   -1.4629 H   0  0  0  0  0  0  0  0  0  0  0  0
   -5.2260   -0.9445   -1.7792 H   0  0  0  0  0  0  0  0  0  0  0  0
   -4.2128    0.9704    1.9014 H   0  0  0  0  0  0  0  0  0  0  0  0
   -2.4042   -0.5862    2.1960 H   0  0  0  0  0  0  0  0  0  0  0  0
  1  2  2  0
  2  3  1  0
  3  4  1  0
  4  5  1  0
  5  6  2  0
  6  7  1  0
  7  8  1  0
  6  9  1  0
  9 10  1  0
  9 11  2  0
 11 12  1  0
 12 13  2  0
 11 14  1  0
  2 15  1  0
 15 16  1  0
 16 17  1  0
 17 18  2  0
 18 19  1  0
 19 20  2  0
 20 21  1  0
 21 22  2  0
 20 23  1  0
 23 24  2  0
 23 25  2  0
 23 26  1  0
 26 27  1  0
 26 28  1  0
 26 29  1  0
  7  3  2  0
 22 17  1  0
 13  5  1  0
  8 30  1  0
  8 31  1  0
 10 32  1  0
 10 33  1  0
 10 34  1  0
 14 35  1  0
 14 36  1  0
 14 37  1  0
 15 38  1  0
 16 39  1  0
 16 40  1  0
 18 41  1  0
 19 42  1  0
 21 43  1  0
 22 44  1  0
M  END
>  <Ligand ID>  (1) 
LIG0000437

>  <Ligand>  (1) 
VU0467154

>  <SMILES>  (1) 
O=C(c1sc2c(c1N)c(C)c(nn2)C)NCc1ccc(cc1)S(=O)(=O)C(F)(F)F

>  <CID>  (1) 
73774630.0

>  <ChEMBL ID>  (1) 
nan

>  <InChiKey>  (1) 
UDSFKIFLJPECRN-UHFFFAOYSA-N

>  <InChi>  (1) 
InChI=1S/C17H15F3N4O3S2/c1-8-9(2)23-24-16-12(8)13(21)14(28-16)15(25)22-7-10-3-5-11(6-4-10)29(26,27)17(18,19)20/h3-6H,7,21H2,1-2H3,(H,22,25)

>  <IUPAC Name>  (1) 
5-amino-3,4-dimethyl-N-[[4-(trifluoromethylsulfonyl)phenyl]methyl]thieno[2,3-c]pyridazine-6-carboxamide

$$$$
