
     RDKit          3D

 57 61  0  0  0  0  0  0  0  0999 V2000
   -6.9573   -0.5489    1.5060 C   0  0  0  0  0  0  0  0  0  0  0  0
   -6.3567    0.0842    0.2580 C   0  0  2  0  0  0  0  0  0  0  0  0
   -7.4291    0.5129   -0.7008 C   0  0  0  0  0  0  0  0  0  0  0  0
   -7.5617   -0.6533   -1.6371 C   0  0  0  0  0  0  0  0  0  0  0  0
   -6.1234   -1.1202   -1.7254 C   0  0  0  0  0  0  0  0  0  0  0  0
   -5.5651   -0.8978   -0.4017 N   0  0  0  0  0  0  0  0  0  0  0  0
   -4.1604   -0.6308   -0.4418 C   0  0  0  0  0  0  0  0  0  0  0  0
   -3.6340   -0.4581    0.9623 C   0  0  0  0  0  0  0  0  0  0  0  0
   -2.1634   -0.1887    0.8192 C   0  0  0  0  0  0  0  0  0  0  0  0
   -1.3313   -1.3082    0.8244 C   0  0  0  0  0  0  0  0  0  0  0  0
    0.0362   -1.1698    0.6990 C   0  0  0  0  0  0  0  0  0  0  0  0
    0.5207    0.1155    0.5708 C   0  0  0  0  0  0  0  0  0  0  0  0
   -0.2860    1.2296    0.5638 C   0  0  0  0  0  0  0  0  0  0  0  0
   -1.6630    1.0904    0.6900 C   0  0  0  0  0  0  0  0  0  0  0  0
    0.2850    2.4853    0.4303 C   0  0  0  0  0  0  0  0  0  0  0  0
    1.6776    2.5578    0.3072 C   0  0  0  0  0  0  0  0  0  0  0  0
    2.4676    1.4278    0.3168 C   0  0  0  0  0  0  0  0  0  0  0  0
    1.8591    0.2452    0.4485 N   0  0  0  0  0  0  0  0  0  0  0  0
    3.9165    1.5294    0.1870 C   0  0  0  0  0  0  0  0  0  0  0  0
    4.7105    2.6487    0.0441 C   0  0  0  0  0  0  0  0  0  0  0  0
    6.0010    2.2714   -0.0398 N   0  0  0  0  0  0  0  0  0  0  0  0
    6.0426    0.9452    0.0463 N   0  0  0  0  0  0  0  0  0  0  0  0
    4.7852    0.4560    0.1859 C   0  0  0  0  0  0  0  0  0  0  0  0
    4.3717   -0.9661    0.3171 C   0  0  0  0  0  0  0  0  0  0  0  0
    7.2245    0.1317    0.0010 C   0  0  0  0  0  0  0  0  0  0  0  0
    8.2284    0.3448   -0.9238 C   0  0  0  0  0  0  0  0  0  0  0  0
    9.3135   -0.5051   -0.8642 C   0  0  0  0  0  0  0  0  0  0  0  0
    9.3719   -1.5087    0.0780 C   0  0  0  0  0  0  0  0  0  0  0  0
    8.3397   -1.6954    0.9971 C   0  0  0  0  0  0  0  0  0  0  0  0
    7.2911   -0.8554    0.9212 N   0  0  0  0  0  0  0  0  0  0  0  0
   -7.9679   -0.1257    1.7093 H   0  0  0  0  0  0  0  0  0  0  0  0
   -6.2527   -0.3893    2.3268 H   0  0  0  0  0  0  0  0  0  0  0  0
   -7.0427   -1.6320    1.3200 H   0  0  0  0  0  0  0  0  0  0  0  0
   -5.7466    0.9779    0.5683 H   0  0  0  0  0  0  0  0  0  0  0  0
   -7.0533    1.3662   -1.2983 H   0  0  0  0  0  0  0  0  0  0  0  0
   -8.3907    0.7681   -0.2112 H   0  0  0  0  0  0  0  0  0  0  0  0
   -8.1821   -1.4295   -1.1210 H   0  0  0  0  0  0  0  0  0  0  0  0
   -7.9839   -0.3996   -2.6197 H   0  0  0  0  0  0  0  0  0  0  0  0
   -5.5770   -0.5915   -2.5268 H   0  0  0  0  0  0  0  0  0  0  0  0
   -6.1372   -2.2072   -1.9160 H   0  0  0  0  0  0  0  0  0  0  0  0
   -3.6239   -1.4147   -0.9940 H   0  0  0  0  0  0  0  0  0  0  0  0
   -3.9176    0.3236   -0.9716 H   0  0  0  0  0  0  0  0  0  0  0  0
   -3.7709   -1.4031    1.5605 H   0  0  0  0  0  0  0  0  0  0  0  0
   -4.1120    0.3329    1.5317 H   0  0  0  0  0  0  0  0  0  0  0  0
   -1.7270   -2.2892    0.9244 H   0  0  0  0  0  0  0  0  0  0  0  0
    0.6991   -2.0243    0.7006 H   0  0  0  0  0  0  0  0  0  0  0  0
   -2.3290    1.9426    0.6889 H   0  0  0  0  0  0  0  0  0  0  0  0
   -0.3432    3.3547    0.4246 H   0  0  0  0  0  0  0  0  0  0  0  0
    2.1416    3.5444    0.2010 H   0  0  0  0  0  0  0  0  0  0  0  0
    4.3462    3.6670    0.0061 H   0  0  0  0  0  0  0  0  0  0  0  0
    3.5649   -1.2357   -0.4187 H   0  0  0  0  0  0  0  0  0  0  0  0
    4.0937   -1.2449    1.3559 H   0  0  0  0  0  0  0  0  0  0  0  0
    5.2206   -1.6321    0.0401 H   0  0  0  0  0  0  0  0  0  0  0  0
    8.1193    1.1449   -1.6303 H   0  0  0  0  0  0  0  0  0  0  0  0
   10.1178   -0.3439   -1.5959 H   0  0  0  0  0  0  0  0  0  0  0  0
   10.2439   -2.1355    0.0707 H   0  0  0  0  0  0  0  0  0  0  0  0
    8.3994   -2.4937    1.7372 H   0  0  0  0  0  0  0  0  0  0  0  0
  1  2  1  0
  2  3  1  0
  3  4  1  0
  4  5  1  0
  5  6  1  0
  6  7  1  0
  7  8  1  0
  8  9  1  0
  9 10  2  0
 10 11  1  0
 11 12  2  0
 12 13  1  0
 13 14  2  0
 13 15  1  0
 15 16  2  0
 16 17  1  0
 17 18  2  0
 17 19  1  0
 19 20  1  0
 20 21  2  0
 21 22  1  0
 22 23  1  0
 23 24  1  0
 22 25  1  0
 25 26  2  0
 26 27  1  0
 27 28  2  0
 28 29  1  0
 29 30  2  0
  6  2  1  0
 14  9  1  0
 23 19  2  0
 30 25  1  0
 18 12  1  0
  1 31  1  0
  1 32  1  0
  1 33  1  0
  2 34  1  1
  3 35  1  0
  3 36  1  0
  4 37  1  0
  4 38  1  0
  5 39  1  0
  5 40  1  0
  7 41  1  0
  7 42  1  0
  8 43  1  0
  8 44  1  0
 10 45  1  0
 11 46  1  0
 14 47  1  0
 15 48  1  0
 16 49  1  0
 20 50  1  0
 24 51  1  0
 24 52  1  0
 24 53  1  0
 26 54  1  0
 27 55  1  0
 28 56  1  0
 29 57  1  0
M  END
>  <Ligand ID>  (1) 
LIG0005243

>  <Ligand>  (1) 
CHEMBL393581

>  <SMILES>  (1) 
C[C@@H]1CCCN1CCc1ccc2c(c1)ccc(n2)c1cnn(c1C)c1ccccn1

>  <CID>  (1) 
11603648.0

>  <ChEMBL ID>  (1) 
nan

>  <InChiKey>  (1) 
TVAWFBREUZKKRV-GOSISDBHSA-N

>  <InChi>  (1) 
InChI=1S/C25H27N5/c1-18-6-5-14-29(18)15-12-20-8-10-23-21(16-20)9-11-24(28-23)22-17-27-30(19(22)2)25-7-3-4-13-26-25/h3-4,7-11,13,16-18H,5-6,12,14-15H2,1-2H3/t18-/m1/s1

>  <IUPAC Name>  (1) 
2-(5-methyl-1-pyridin-2-ylpyrazol-4-yl)-6-[2-[(2R)-2-methylpyrrolidin-1-yl]ethyl]quinoline

$$$$
