
     RDKit          3D

177182  0  0  0  0  0  0  0  0999 V2000
   13.4410   -3.3592    2.1488 C   0  0  0  0  0  0  0  0  0  0  0  0
   12.3752   -4.1382    1.6568 N   0  0  0  0  0  0  0  0  0  0  0  0
   11.8135   -4.0868    0.5438 C   0  0  0  0  0  0  0  0  0  0  0  0
   12.1218   -3.2144   -0.5086 N   0  0  0  0  0  0  0  0  0  0  0  0
   12.3166   -1.8048   -0.3496 C   0  0  0  0  0  0  0  0  0  0  0  0
   11.0287   -1.1125   -0.0340 C   0  0  0  0  0  0  0  0  0  0  0  0
   10.3053   -1.5198    1.2066 C   0  0  0  0  0  0  0  0  0  0  0  0
    9.0586   -0.6487    1.4308 C   0  0  1  0  0  0  0  0  0  0  0  0
    9.4937    0.7170    1.5567 C   0  0  0  0  0  0  0  0  0  0  0  0
   10.5891    0.8145    2.3245 O   0  0  0  0  0  0  0  0  0  0  0  0
    9.0933    1.9621    1.1049 N   0  0  0  0  0  0  0  0  0  0  0  0
    9.8081    3.1725    1.4890 C   0  0  2  0  0  0  0  0  0  0  0  0
    8.9125    4.3200    1.6709 C   0  0  0  0  0  0  0  0  0  0  0  0
    7.6397    4.2479    1.5576 O   0  0  0  0  0  0  0  0  0  0  0  0
    9.4551    5.6020    1.9909 N   0  0  0  0  0  0  0  0  0  0  0  0
   10.9634    3.4840    0.5845 C   0  0  0  0  0  0  0  0  0  0  0  0
   10.6416    3.7005   -0.8275 C   0  0  0  0  0  0  0  0  0  0  0  0
    9.4641    3.9046   -1.4983 C   0  0  0  0  0  0  0  0  0  0  0  0
    9.6622    4.0694   -2.8120 N   0  0  0  0  0  0  0  0  0  0  0  0
   10.9896    3.9732   -3.0235 C   0  0  0  0  0  0  0  0  0  0  0  0
   11.6241    3.7473   -1.8204 C   0  0  0  0  0  0  0  0  0  0  0  0
   12.9950    3.6078   -1.7428 C   0  0  0  0  0  0  0  0  0  0  0  0
   13.8097    3.6875   -2.8546 C   0  0  0  0  0  0  0  0  0  0  0  0
   13.1749    3.9169   -4.0901 C   0  0  0  0  0  0  0  0  0  0  0  0
   11.7970    4.0552   -4.1655 C   0  0  0  0  0  0  0  0  0  0  0  0
    7.9111   -1.1137    0.8305 N   0  0  0  0  0  0  0  0  0  0  0  0
    6.8354   -0.6440    0.0952 C   0  0  0  0  0  0  0  0  0  0  0  0
    6.7212    0.5790   -0.2528 O   0  0  0  0  0  0  0  0  0  0  0  0
    5.6650   -1.4640   -0.3724 C   0  0  1  0  0  0  0  0  0  0  0  0
    4.6271   -0.4214   -0.7751 N   0  0  0  0  0  0  0  0  0  0  0  0
    3.5338   -0.1699    0.0845 C   0  0  0  0  0  0  0  0  0  0  0  0
    3.4645   -0.8234    1.1589 O   0  0  0  0  0  0  0  0  0  0  0  0
    2.5492    0.7984   -0.2691 N   0  0  0  0  0  0  0  0  0  0  0  0
    1.4416    1.0719    0.5824 N   0  0  0  0  0  0  0  0  0  0  0  0
    0.2409    0.3237    0.4471 C   0  0  0  0  0  0  0  0  0  0  0  0
    0.2062   -0.5711   -0.4415 O   0  0  0  0  0  0  0  0  0  0  0  0
   -0.9436    0.5295    1.2617 C   0  0  1  0  0  0  0  0  0  0  0  0
   -2.0318   -0.3760    0.8640 N   0  0  0  0  0  0  0  0  0  0  0  0
   -3.3753    0.0448    0.7535 C   0  0  0  0  0  0  0  0  0  0  0  0
   -3.6608    1.2464    1.0041 O   0  0  0  0  0  0  0  0  0  0  0  0
   -4.4661   -0.9401    0.3541 C   0  0  2  0  0  0  0  0  0  0  0  0
   -4.4037   -1.2930   -1.0686 C   0  0  2  0  0  0  0  0  0  0  0  0
   -5.4609   -2.1973   -1.3449 O   0  0  0  0  0  0  0  0  0  0  0  0
   -3.1466   -2.0665   -1.3885 C   0  0  0  0  0  0  0  0  0  0  0  0
   -5.7555   -0.2924    0.6871 N   0  0  0  0  0  0  0  0  0  0  0  0
   -6.1225   -0.4256    2.0756 C   0  0  0  0  0  0  0  0  0  0  0  0
   -5.3729   -1.0209    2.8977 O   0  0  0  0  0  0  0  0  0  0  0  0
   -7.4256    0.1930    2.4598 C   0  0  1  0  0  0  0  0  0  0  0  0
   -8.3989    0.2075    1.4209 N   0  0  0  0  0  0  0  0  0  0  0  0
   -8.5345   -0.8714    0.5170 C   0  0  0  0  0  0  0  0  0  0  0  0
   -7.7906   -1.9211    0.5839 O   0  0  0  0  0  0  0  0  0  0  0  0
   -9.5298   -0.9211   -0.5964 C   0  0  1  0  0  0  0  0  0  0  0  0
  -10.2343   -2.2598   -0.6226 C   0  0  0  0  0  0  0  0  0  0  0  0
  -11.2166   -2.3734   -1.6971 C   0  0  0  0  0  0  0  0  0  0  0  0
  -12.6047   -2.3205   -1.6194 C   0  0  0  0  0  0  0  0  0  0  0  0
  -13.1253   -2.4886   -2.8455 N   0  0  0  0  0  0  0  0  0  0  0  0
  -12.1278   -2.6491   -3.7238 C   0  0  0  0  0  0  0  0  0  0  0  0
  -10.9458   -2.5813   -3.0282 C   0  0  0  0  0  0  0  0  0  0  0  0
   -9.7519   -2.7183   -3.7110 C   0  0  0  0  0  0  0  0  0  0  0  0
   -9.7687   -2.9251   -5.0919 C   0  0  0  0  0  0  0  0  0  0  0  0
  -10.9635   -2.9947   -5.7951 C   0  0  0  0  0  0  0  0  0  0  0  0
  -12.1355   -2.8495   -5.0634 C   0  0  0  0  0  0  0  0  0  0  0  0
  -10.5057    0.1242   -0.6101 N   0  0  0  0  0  0  0  0  0  0  0  0
  -10.4649    1.1956   -1.5256 C   0  0  0  0  0  0  0  0  0  0  0  0
   -9.4640    1.1950   -2.3279 O   0  0  0  0  0  0  0  0  0  0  0  0
  -11.4183    2.2773   -1.6644 C   0  0  1  0  0  0  0  0  0  0  0  0
  -12.0350    2.9387   -0.5122 C   0  0  0  0  0  0  0  0  0  0  0  0
  -11.1829    3.6135    0.4688 C   0  0  0  0  0  0  0  0  0  0  0  0
  -10.8364    2.9440    1.6324 C   0  0  0  0  0  0  0  0  0  0  0  0
  -10.0136    3.5130    2.5976 C   0  0  0  0  0  0  0  0  0  0  0  0
   -9.5372    4.7705    2.3811 C   0  0  0  0  0  0  0  0  0  0  0  0
   -9.8633    5.4544    1.2406 C   0  0  0  0  0  0  0  0  0  0  0  0
  -10.6919    4.9055    0.2529 C   0  0  0  0  0  0  0  0  0  0  0  0
   -8.7063    5.3543    3.3452 O   0  0  0  0  0  0  0  0  0  0  0  0
  -10.9326    3.2747   -2.6346 N   0  0  0  0  0  0  0  0  0  0  0  0
  -11.4255    3.3359   -3.9658 C   0  0  0  0  0  0  0  0  0  0  0  0
  -12.3026    2.5387   -4.3971 O   0  0  0  0  0  0  0  0  0  0  0  0
  -10.9328    4.3636   -4.9511 C   0  0  0  0  0  0  0  0  0  0  0  0
   -7.9196   -0.3072    3.7616 C   0  0  0  0  0  0  0  0  0  0  0  0
   -6.9956    0.0100    4.8914 C   0  0  0  0  0  0  0  0  0  0  0  0
   -5.9363    0.6648    4.7770 O   0  0  0  0  0  0  0  0  0  0  0  0
   -7.3074   -0.4531    6.2131 N   0  0  0  0  0  0  0  0  0  0  0  0
   -0.7660    0.2141    2.7568 C   0  0  0  0  0  0  0  0  0  0  0  0
   -0.4066   -1.1825    2.9975 C   0  0  0  0  0  0  0  0  0  0  0  0
   -1.4486   -2.1152    3.0486 C   0  0  0  0  0  0  0  0  0  0  0  0
   -1.2365   -3.4501    3.2822 C   0  0  0  0  0  0  0  0  0  0  0  0
    0.0467   -3.9331    3.4817 C   0  0  0  0  0  0  0  0  0  0  0  0
    1.0728   -3.0071    3.4302 C   0  0  0  0  0  0  0  0  0  0  0  0
    0.8561   -1.6751    3.1969 C   0  0  0  0  0  0  0  0  0  0  0  0
    5.8200   -2.3159   -1.5348 C   0  0  0  0  0  0  0  0  0  0  0  0
    6.8066   -3.4062   -1.6380 C   0  0  0  0  0  0  0  0  0  0  0  0
    8.2478   -3.0219   -1.5777 C   0  0  0  0  0  0  0  0  0  0  0  0
    6.5787   -4.5067   -0.6125 C   0  0  0  0  0  0  0  0  0  0  0  0
   10.7600   -5.0676    0.3084 N   0  0  0  0  0  0  0  0  0  0  0  0
   13.0676   -2.3843    2.5143 H   0  0  0  0  0  0  0  0  0  0  0  0
   13.9824   -3.8803    3.0044 H   0  0  0  0  0  0  0  0  0  0  0  0
   14.2864   -3.2150    1.4072 H   0  0  0  0  0  0  0  0  0  0  0  0
   12.2140   -3.6469   -1.4724 H   0  0  0  0  0  0  0  0  0  0  0  0
   13.1357   -1.5220    0.3527 H   0  0  0  0  0  0  0  0  0  0  0  0
   12.6214   -1.4255   -1.3737 H   0  0  0  0  0  0  0  0  0  0  0  0
   10.3939   -1.2499   -0.9565 H   0  0  0  0  0  0  0  0  0  0  0  0
   11.2634   -0.0176   -0.0313 H   0  0  0  0  0  0  0  0  0  0  0  0
   10.0202   -2.5635    1.2974 H   0  0  0  0  0  0  0  0  0  0  0  0
   10.9601   -1.2534    2.0554 H   0  0  0  0  0  0  0  0  0  0  0  0
    8.8201   -0.8821    2.5896 H   0  0  0  0  0  0  0  0  0  0  0  0
    8.2942    2.0847    0.4926 H   0  0  0  0  0  0  0  0  0  0  0  0
   10.2686    2.9198    2.4881 H   0  0  0  0  0  0  0  0  0  0  0  0
   10.2599    5.9865    1.4468 H   0  0  0  0  0  0  0  0  0  0  0  0
    9.0253    6.1589    2.7802 H   0  0  0  0  0  0  0  0  0  0  0  0
   11.4716    4.3980    1.0321 H   0  0  0  0  0  0  0  0  0  0  0  0
   11.7656    2.7081    0.6407 H   0  0  0  0  0  0  0  0  0  0  0  0
    8.4807    3.9365   -1.0435 H   0  0  0  0  0  0  0  0  0  0  0  0
    8.9633    4.2471   -3.5817 H   0  0  0  0  0  0  0  0  0  0  0  0
   13.4783    3.4341   -0.7876 H   0  0  0  0  0  0  0  0  0  0  0  0
   14.8851    3.5706   -2.7912 H   0  0  0  0  0  0  0  0  0  0  0  0
   13.7727    3.9823   -4.9835 H   0  0  0  0  0  0  0  0  0  0  0  0
   11.3253    4.2349   -5.1229 H   0  0  0  0  0  0  0  0  0  0  0  0
    7.7694   -2.2221    1.0355 H   0  0  0  0  0  0  0  0  0  0  0  0
    5.1978   -1.9459    0.4997 H   0  0  0  0  0  0  0  0  0  0  0  0
    4.7829    0.0682   -1.6844 H   0  0  0  0  0  0  0  0  0  0  0  0
    2.6286    1.3279   -1.1724 H   0  0  0  0  0  0  0  0  0  0  0  0
    1.5074    1.8258    1.3217 H   0  0  0  0  0  0  0  0  0  0  0  0
   -1.3124    1.5545    1.2265 H   0  0  0  0  0  0  0  0  0  0  0  0
   -1.7050   -1.3666    0.6847 H   0  0  0  0  0  0  0  0  0  0  0  0
   -4.3686   -1.8080    1.0218 H   0  0  0  0  0  0  0  0  0  0  0  0
   -4.5154   -0.4244   -1.7576 H   0  0  0  0  0  0  0  0  0  0  0  0
   -5.3790   -2.9849   -0.7370 H   0  0  0  0  0  0  0  0  0  0  0  0
   -2.2842   -1.4117   -1.5861 H   0  0  0  0  0  0  0  0  0  0  0  0
   -3.2882   -2.6539   -2.3516 H   0  0  0  0  0  0  0  0  0  0  0  0
   -2.9687   -2.8442   -0.6291 H   0  0  0  0  0  0  0  0  0  0  0  0
   -6.3237    0.2083   -0.0091 H   0  0  0  0  0  0  0  0  0  0  0  0
   -7.1010    1.3088    2.5509 H   0  0  0  0  0  0  0  0  0  0  0  0
   -9.0332    1.0109    1.2876 H   0  0  0  0  0  0  0  0  0  0  0  0
   -8.9749   -0.8207   -1.5807 H   0  0  0  0  0  0  0  0  0  0  0  0
   -9.4298   -3.0249   -0.7544 H   0  0  0  0  0  0  0  0  0  0  0  0
  -10.6969   -2.4791    0.3744 H   0  0  0  0  0  0  0  0  0  0  0  0
  -13.1283   -2.1660   -0.6916 H   0  0  0  0  0  0  0  0  0  0  0  0
  -14.1483   -2.4945   -3.0765 H   0  0  0  0  0  0  0  0  0  0  0  0
   -8.7975   -2.6742   -3.1728 H   0  0  0  0  0  0  0  0  0  0  0  0
   -8.8437   -3.0389   -5.6545 H   0  0  0  0  0  0  0  0  0  0  0  0
  -11.0092   -3.1514   -6.8610 H   0  0  0  0  0  0  0  0  0  0  0  0
  -13.0667   -2.8988   -5.6100 H   0  0  0  0  0  0  0  0  0  0  0  0
  -11.2896    0.1162    0.0866 H   0  0  0  0  0  0  0  0  0  0  0  0
  -12.2957    1.8027   -2.2724 H   0  0  0  0  0  0  0  0  0  0  0  0
  -12.7578    3.7186   -0.9209 H   0  0  0  0  0  0  0  0  0  0  0  0
  -12.7219    2.2660    0.0671 H   0  0  0  0  0  0  0  0  0  0  0  0
  -11.2311    1.9470    1.7882 H   0  0  0  0  0  0  0  0  0  0  0  0
   -9.7995    2.9081    3.4847 H   0  0  0  0  0  0  0  0  0  0  0  0
   -9.4897    6.4728    1.0313 H   0  0  0  0  0  0  0  0  0  0  0  0
  -10.9492    5.4536   -0.6430 H   0  0  0  0  0  0  0  0  0  0  0  0
   -8.8691    5.0688    4.3093 H   0  0  0  0  0  0  0  0  0  0  0  0
  -10.1830    3.9542   -2.2880 H   0  0  0  0  0  0  0  0  0  0  0  0
   -9.9792    4.1024   -5.4051 H   0  0  0  0  0  0  0  0  0  0  0  0
  -10.8044    5.3552   -4.4247 H   0  0  0  0  0  0  0  0  0  0  0  0
  -11.7229    4.5378   -5.7054 H   0  0  0  0  0  0  0  0  0  0  0  0
   -8.9509    0.0401    4.0118 H   0  0  0  0  0  0  0  0  0  0  0  0
   -7.9913   -1.4364    3.6731 H   0  0  0  0  0  0  0  0  0  0  0  0
   -6.8412   -1.2866    6.6437 H   0  0  0  0  0  0  0  0  0  0  0  0
   -8.0451    0.1005    6.7255 H   0  0  0  0  0  0  0  0  0  0  0  0
   -1.7491    0.4125    3.2253 H   0  0  0  0  0  0  0  0  0  0  0  0
    0.0122    0.8943    3.1482 H   0  0  0  0  0  0  0  0  0  0  0  0
   -2.4754   -1.7815    2.9035 H   0  0  0  0  0  0  0  0  0  0  0  0
   -2.1008   -4.1052    3.3048 H   0  0  0  0  0  0  0  0  0  0  0  0
    0.2321   -4.9651    3.6647 H   0  0  0  0  0  0  0  0  0  0  0  0
    2.0817   -3.3956    3.5811 H   0  0  0  0  0  0  0  0  0  0  0  0
    1.6772   -1.0007    3.1771 H   0  0  0  0  0  0  0  0  0  0  0  0
    6.0140   -1.6391   -2.4475 H   0  0  0  0  0  0  0  0  0  0  0  0
    4.7832   -2.7226   -1.8423 H   0  0  0  0  0  0  0  0  0  0  0  0
    6.6450   -3.9140   -2.6361 H   0  0  0  0  0  0  0  0  0  0  0  0
    8.7964   -3.3498   -0.6919 H   0  0  0  0  0  0  0  0  0  0  0  0
    8.7730   -3.4716   -2.4735 H   0  0  0  0  0  0  0  0  0  0  0  0
    8.3024   -1.9243   -1.7850 H   0  0  0  0  0  0  0  0  0  0  0  0
    6.9166   -5.4610   -1.0849 H   0  0  0  0  0  0  0  0  0  0  0  0
    5.4767   -4.6505   -0.4355 H   0  0  0  0  0  0  0  0  0  0  0  0
    7.1499   -4.3920    0.3074 H   0  0  0  0  0  0  0  0  0  0  0  0
   10.0962   -5.2750    1.1081 H   0  0  0  0  0  0  0  0  0  0  0  0
   10.6870   -5.5405   -0.6272 H   0  0  0  0  0  0  0  0  0  0  0  0
  1  2  1  0
  2  3  2  3
  3  4  1  0
  4  5  1  0
  5  6  1  0
  6  7  1  0
  7  8  1  0
  8  9  1  0
  9 10  2  0
  9 11  1  0
 11 12  1  0
 12 13  1  0
 13 14  2  0
 13 15  1  0
 12 16  1  0
 16 17  1  0
 17 18  2  0
 18 19  1  0
 19 20  1  0
 20 21  2  0
 21 22  1  0
 22 23  2  0
 23 24  1  0
 24 25  2  0
  8 26  1  0
 26 27  1  0
 27 28  2  0
 27 29  1  0
 29 30  1  0
 30 31  1  0
 31 32  2  0
 31 33  1  0
 33 34  1  0
 34 35  1  0
 35 36  2  0
 35 37  1  0
 37 38  1  0
 38 39  1  0
 39 40  2  0
 39 41  1  0
 41 42  1  0
 42 43  1  0
 42 44  1  0
 41 45  1  0
 45 46  1  0
 46 47  2  0
 46 48  1  0
 48 49  1  0
 49 50  1  0
 50 51  2  0
 50 52  1  0
 52 53  1  0
 53 54  1  0
 54 55  2  0
 55 56  1  0
 56 57  1  0
 57 58  2  0
 58 59  1  0
 59 60  2  0
 60 61  1  0
 61 62  2  0
 52 63  1  0
 63 64  1  0
 64 65  2  0
 64 66  1  0
 66 67  1  0
 67 68  1  0
 68 69  2  0
 69 70  1  0
 70 71  2  0
 71 72  1  0
 72 73  2  0
 71 74  1  0
 66 75  1  0
 75 76  1  0
 76 77  2  0
 76 78  1  0
 48 79  1  0
 79 80  1  0
 80 81  2  0
 80 82  1  0
 37 83  1  0
 83 84  1  0
 84 85  2  0
 85 86  1  0
 86 87  2  0
 87 88  1  0
 88 89  2  0
 29 90  1  0
 90 91  1  0
 91 92  1  0
 91 93  1  0
  3 94  1  0
 21 17  1  0
 58 54  1  0
 73 68  1  0
 89 84  1  0
 25 20  1  0
 62 57  1  0
  1 95  1  0
  1 96  1  0
  1 97  1  0
  4 98  1  0
  5 99  1  0
  5100  1  0
  6101  1  0
  6102  1  0
  7103  1  0
  7104  1  0
  8105  1  1
 11106  1  0
 12107  1  1
 15108  1  0
 15109  1  0
 16110  1  0
 16111  1  0
 18112  1  0
 19113  1  0
 22114  1  0
 23115  1  0
 24116  1  0
 25117  1  0
 26118  1  0
 29119  1  1
 30120  1  0
 33121  1  0
 34122  1  0
 37123  1  1
 38124  1  0
 41125  1  1
 42126  1  6
 43127  1  0
 44128  1  0
 44129  1  0
 44130  1  0
 45131  1  0
 48132  1  1
 49133  1  0
 52134  1  6
 53135  1  0
 53136  1  0
 55137  1  0
 56138  1  0
 59139  1  0
 60140  1  0
 61141  1  0
 62142  1  0
 63143  1  0
 66144  1  6
 67145  1  0
 67146  1  0
 69147  1  0
 70148  1  0
 72149  1  0
 73150  1  0
 74151  1  0
 75152  1  0
 78153  1  0
 78154  1  0
 78155  1  0
 79156  1  0
 79157  1  0
 82158  1  0
 82159  1  0
 83160  1  0
 83161  1  0
 85162  1  0
 86163  1  0
 87164  1  0
 88165  1  0
 89166  1  0
 90167  1  0
 90168  1  0
 91169  1  0
 92170  1  0
 92171  1  0
 92172  1  0
 93173  1  0
 93174  1  0
 93175  1  0
 94176  1  0
 94177  1  0
M  END
>  <Ligand ID>  (1) 
LIG0005342

>  <Ligand>  (1) 
CHEMBL3314224

>  <SMILES>  (1) 
CN=C(NCCC[C@@H](C(=O)N[C@H](C(=O)N)Cc1c[nH]c2c1cccc2)NC(=O)[C@@H](NC(=O)NNC(=O)[C@@H](NC(=O)[C@H]([C@H](O)C)NC(=O)[C@@H](NC(=O)[C@@H](Cc1c[nH]c2c1cccc2)NC(=O)[C@@H](Cc1ccc(cc1)O)NC(=O)C)CC(=O)N)Cc1ccccc1)CC(C)C)N

>  <CID>  (1) 
49787129.0

>  <ChEMBL ID>  (1) 
nan

>  <InChiKey>  (1) 
BDPDXFSIFWZPCE-PHOVXGMNSA-N

>  <InChi>  (1) 
InChI=1S/C64H83N17O13/c1-34(2)26-48(57(88)73-46(20-13-25-69-63(67)68-5)56(87)74-47(55(66)86)29-39-32-70-44-18-11-9-16-42(39)44)78-64(94)81-80-61(92)50(27-37-14-7-6-8-15-37)77-62(93)54(35(3)82)79-60(91)52(31-53(65)85)76-59(90)51(30-40-33-71-45-19-12-10-17-43(40)45)75-58(89)49(72-36(4)83)28-38-21-23-41(84)24-22-38/h6-12,14-19,21-24,32-35,46-52,54,70-71,82,84H,13,20,25-31H2,1-5H3,(H2,65,85)(H2,66,86)(H,72,83)(H,73,88)(H,74,87)(H,75,89)(H,76,90)(H,77,93)(H,79,91)(H,80,92)(H3,67,68,69)(H2,78,81,94)/t35-,46+,47+,48+,49-,50+,51-,52+,54+/m1/s1

>  <IUPAC Name>  (1) 
(2S)-2-[[(2R)-2-[[(2R)-2-acetamido-3-(4-hydroxyphenyl)propanoyl]amino]-3-(1H-indol-3-yl)propanoyl]amino]-N-[(2S,3R)-1-[[(2S)-1-[2-[[(2S)-1-[[(2S)-1-[[(2S)-1-amino-3-(1H-indol-3-yl)-1-oxopropan-2-yl]amino]-5-[(N'-methylcarbamimidoyl)amino]-1-oxopentan-2-yl]amino]-4-methyl-1-oxopentan-2-yl]carbamoyl]hydrazinyl]-1-oxo-3-phenylpropan-2-yl]amino]-3-hydroxy-1-oxobutan-2-yl]butanediamide

$$$$
