
     RDKit          3D

 32 33  0  0  0  0  0  0  0  0999 V2000
    5.4914   -0.2348    0.4302 O   0  0  0  0  0  0  0  0  0  0  0  0
    4.3490   -0.0710   -0.0345 C   0  0  0  0  0  0  0  0  0  0  0  0
    3.6141   -1.3390   -0.1643 C   0  0  0  0  0  0  0  0  0  0  0  0
    2.2396   -1.2831   -0.2077 O   0  0  0  0  0  0  0  0  0  0  0  0
    1.3066   -0.2619   -0.1801 C   0  0  0  0  0  0  0  0  0  0  0  0
    1.5301    1.0727   -0.2690 C   0  0  0  0  0  0  0  0  0  0  0  0
    2.7398    1.7164   -0.4073 O   0  0  0  0  0  0  0  0  0  0  0  0
    4.0616    1.3426   -0.3205 C   0  0  0  0  0  0  0  0  0  0  0  0
    0.4617    1.9381   -0.2216 C   0  0  0  0  0  0  0  0  0  0  0  0
   -0.8453    1.5022   -0.0857 C   0  0  0  0  0  0  0  0  0  0  0  0
   -1.0815    0.1353    0.0059 C   0  0  0  0  0  0  0  0  0  0  0  0
    0.0088   -0.7334   -0.0432 C   0  0  0  0  0  0  0  0  0  0  0  0
   -2.4515   -0.3774    0.1513 C   0  0  0  0  0  0  0  0  0  0  0  0
   -3.1332   -0.6597   -1.1612 C   0  0  0  0  0  0  0  0  0  0  0  0
   -2.5492   -1.5970    1.0301 C   0  0  0  0  0  0  0  0  0  0  0  0
   -3.3094    0.6941    0.8368 C   0  0  0  0  0  0  0  0  0  0  0  0
    3.9685   -1.8651   -1.0861 H   0  0  0  0  0  0  0  0  0  0  0  0
    3.9097   -2.0068    0.6697 H   0  0  0  0  0  0  0  0  0  0  0  0
    4.6528    1.6830   -1.2189 H   0  0  0  0  0  0  0  0  0  0  0  0
    4.5191    1.9447    0.5188 H   0  0  0  0  0  0  0  0  0  0  0  0
    0.6698    3.0072   -0.2953 H   0  0  0  0  0  0  0  0  0  0  0  0
   -1.6762    2.1856   -0.0494 H   0  0  0  0  0  0  0  0  0  0  0  0
   -0.1766   -1.8067    0.0288 H   0  0  0  0  0  0  0  0  0  0  0  0
   -2.5515   -1.3140   -1.8241 H   0  0  0  0  0  0  0  0  0  0  0  0
   -4.0920   -1.1844   -0.9041 H   0  0  0  0  0  0  0  0  0  0  0  0
   -3.4464    0.2944   -1.6408 H   0  0  0  0  0  0  0  0  0  0  0  0
   -2.0054   -2.4713    0.6661 H   0  0  0  0  0  0  0  0  0  0  0  0
   -2.1775   -1.3498    2.0546 H   0  0  0  0  0  0  0  0  0  0  0  0
   -3.6153   -1.8451    1.1399 H   0  0  0  0  0  0  0  0  0  0  0  0
   -4.2054    0.2600    1.3025 H   0  0  0  0  0  0  0  0  0  0  0  0
   -3.5717    1.4168    0.0239 H   0  0  0  0  0  0  0  0  0  0  0  0
   -2.6346    1.2074    1.5490 H   0  0  0  0  0  0  0  0  0  0  0  0
  1  2  2  0
  2  3  1  0
  3  4  1  0
  4  5  1  0
  5  6  2  0
  6  7  1  0
  7  8  1  0
  6  9  1  0
  9 10  2  0
 10 11  1  0
 11 12  2  0
 11 13  1  0
 13 14  1  0
 13 15  1  0
 13 16  1  0
  8  2  1  0
 12  5  1  0
  3 17  1  0
  3 18  1  0
  8 19  1  0
  8 20  1  0
  9 21  1  0
 10 22  1  0
 12 23  1  0
 14 24  1  0
 14 25  1  0
 14 26  1  0
 15 27  1  0
 15 28  1  0
 15 29  1  0
 16 30  1  0
 16 31  1  0
 16 32  1  0
M  END
>  <Ligand ID>  (1) 
LIG0000385

>  <Ligand>  (1) 
7-tert-butyl-1,5-benzodioxepin-3-one

>  <SMILES>  (1) 
O=C1COc2c(OC1)ccc(c2)C(C)(C)C

>  <CID>  (1) 
16723825.0

>  <ChEMBL ID>  (1) 
nan

>  <InChiKey>  (1) 
VFQHMVHBTUURKJ-UHFFFAOYSA-N

>  <InChi>  (1) 
InChI=1S/C13H16O3/c1-13(2,3)9-4-5-11-12(6-9)16-8-10(14)7-15-11/h4-6H,7-8H2,1-3H3

>  <IUPAC Name>  (1) 
7-tert-butyl-1,5-benzodioxepin-3-one

$$$$
