
     RDKit          3D

 57 58  0  0  0  0  0  0  0  0999 V2000
   10.2794    2.2796    0.2706 O   0  0  0  0  0  0  0  0  0  0  0  0
    9.4900    1.4201   -0.4412 C   0  0  0  0  0  0  0  0  0  0  0  0
    9.8554    1.1411   -1.6254 O   0  0  0  0  0  0  0  0  0  0  0  0
    8.2517    0.8220    0.1222 C   0  0  0  0  0  0  0  0  0  0  0  0
    7.6300   -0.0209   -0.8219 O   0  0  0  0  0  0  0  0  0  0  0  0
    6.4522   -0.6618   -0.4413 C   0  0  0  0  0  0  0  0  0  0  0  0
    5.7860   -1.5046   -1.3198 C   0  0  0  0  0  0  0  0  0  0  0  0
    4.6182   -2.1590   -0.9845 C   0  0  0  0  0  0  0  0  0  0  0  0
    4.0771   -1.9745    0.2823 C   0  0  0  0  0  0  0  0  0  0  0  0
    4.7328   -1.1391    1.1604 C   0  0  0  0  0  0  0  0  0  0  0  0
    5.9025   -0.4798    0.8330 C   0  0  0  0  0  0  0  0  0  0  0  0
    2.9067   -2.6034    0.6803 O   0  0  0  0  0  0  0  0  0  0  0  0
    1.6900   -1.9812    0.4828 C   0  0  0  0  0  0  0  0  0  0  0  0
    0.5625   -2.6875    0.8982 C   0  0  0  0  0  0  0  0  0  0  0  0
   -0.7013   -2.1596    0.7488 C   0  0  0  0  0  0  0  0  0  0  0  0
   -0.8461   -0.9053    0.1752 C   0  0  0  0  0  0  0  0  0  0  0  0
    0.2546   -0.2043   -0.2358 C   0  0  0  0  0  0  0  0  0  0  0  0
    1.5405   -0.7360   -0.0864 C   0  0  0  0  0  0  0  0  0  0  0  0
   -2.2515   -0.3358    0.0182 C   0  0  0  0  0  0  0  0  0  0  0  0
   -2.5623    0.4077    1.2526 C   0  0  0  0  0  0  0  0  0  0  0  0
   -3.7582    1.0362    1.4860 N   0  0  0  0  0  0  0  0  0  0  0  0
   -4.2802    2.1548    0.8744 C   0  0  0  0  0  0  0  0  0  0  0  0
   -4.7142    2.0009   -0.5619 C   0  0  1  0  0  0  0  0  0  0  0  0
   -5.8643    1.0456   -0.6536 C   0  0  0  0  0  0  0  0  0  0  0  0
   -5.6862   -0.2291   -1.1774 C   0  0  0  0  0  0  0  0  0  0  0  0
   -6.7471   -1.1320   -1.2711 C   0  0  0  0  0  0  0  0  0  0  0  0
   -8.0171   -0.7585   -0.8329 C   0  0  0  0  0  0  0  0  0  0  0  0
   -8.1924    0.5084   -0.3126 C   0  0  0  0  0  0  0  0  0  0  0  0
   -7.1269    1.4090   -0.2210 C   0  0  0  0  0  0  0  0  0  0  0  0
   -9.8029    0.9321    0.2252 Cl  0  0  0  0  0  0  0  0  0  0  0  0
   -5.2417    3.2266   -1.0405 O   0  0  0  0  0  0  0  0  0  0  0  0
    0.6860    0.0000    0.0000 Cl  0  0  0  0  0  0  0  0  0  0  0  0
   11.2816    2.4187    0.1263 H   0  0  0  0  0  0  0  0  0  0  0  0
    7.5530    1.6429    0.3954 H   0  0  0  0  0  0  0  0  0  0  0  0
    8.4301    0.2377    1.0457 H   0  0  0  0  0  0  0  0  0  0  0  0
    6.2370   -1.6239   -2.2972 H   0  0  0  0  0  0  0  0  0  0  0  0
    4.1041   -2.8166   -1.6763 H   0  0  0  0  0  0  0  0  0  0  0  0
    4.3313   -0.9842    2.1421 H   0  0  0  0  0  0  0  0  0  0  0  0
    6.3797    0.1624    1.5510 H   0  0  0  0  0  0  0  0  0  0  0  0
    0.6426   -3.6593    1.3443 H   0  0  0  0  0  0  0  0  0  0  0  0
   -1.5721   -2.6986    1.0663 H   0  0  0  0  0  0  0  0  0  0  0  0
    0.1231    0.7752   -0.6832 H   0  0  0  0  0  0  0  0  0  0  0  0
    2.4230   -0.1997   -0.4039 H   0  0  0  0  0  0  0  0  0  0  0  0
   -2.1930    0.2104   -0.9233 H   0  0  0  0  0  0  0  0  0  0  0  0
   -2.8975   -1.2250   -0.1299 H   0  0  0  0  0  0  0  0  0  0  0  0
   -1.6885    1.1230    1.4637 H   0  0  0  0  0  0  0  0  0  0  0  0
   -2.3986   -0.3436    2.1023 H   0  0  0  0  0  0  0  0  0  0  0  0
   -4.0767    0.9580    2.4933 H   0  0  0  0  0  0  0  0  0  0  0  0
   -3.6998    3.1076    1.0188 H   0  0  0  0  0  0  0  0  0  0  0  0
   -5.2543    2.4173    1.4144 H   0  0  0  0  0  0  0  0  0  0  0  0
   -3.9414    1.6274   -1.2489 H   0  0  0  0  0  0  0  0  0  0  0  0
   -4.7287   -0.5574   -1.5260 H   0  0  0  0  0  0  0  0  0  0  0  0
   -6.6236   -2.1286   -1.6768 H   0  0  0  0  0  0  0  0  0  0  0  0
   -8.8062   -1.4701   -0.9187 H   0  0  0  0  0  0  0  0  0  0  0  0
   -7.3073    2.3970    0.1953 H   0  0  0  0  0  0  0  0  0  0  0  0
   -4.5549    3.9173   -0.8706 H   0  0  0  0  0  0  0  0  0  0  0  0
   -0.6860    0.0000    0.0000 H   0  0  0  0  0  0  0  0  0  0  0  0
  1  2  1  0
  2  3  2  0
  2  4  1  0
  4  5  1  0
  5  6  1  0
  6  7  2  0
  7  8  1  0
  8  9  2  0
  9 10  1  0
 10 11  2  0
  9 12  1  0
 12 13  1  0
 13 14  2  0
 14 15  1  0
 15 16  2  0
 16 17  1  0
 17 18  2  0
 16 19  1  0
 19 20  1  0
 20 21  1  0
 21 22  1  0
 22 23  1  0
 23 24  1  0
 24 25  2  0
 25 26  1  0
 26 27  2  0
 27 28  1  0
 28 29  2  0
 28 30  1  0
 23 31  1  0
 11  6  1  0
 18 13  1  0
 29 24  1  0
  1 33  1  0
  4 34  1  0
  4 35  1  0
  7 36  1  0
  8 37  1  0
 10 38  1  0
 11 39  1  0
 14 40  1  0
 15 41  1  0
 17 42  1  0
 18 43  1  0
 19 44  1  0
 19 45  1  0
 20 46  1  0
 20 47  1  0
 21 48  1  0
 22 49  1  0
 22 50  1  0
 23 51  1  6
 25 52  1  0
 26 53  1  0
 27 54  1  0
 29 55  1  0
 31 56  1  0
 32 57  1  0
M  END
>  <Ligand ID>  (1) 
LIG0005832

>  <Ligand>  (1) 
CHEMBL537693

>  <SMILES>  (1) 
OC(=O)COc1ccc(cc1)Oc1ccc(cc1)CCNC[C@@H](c1cccc(c1)Cl)O.Cl

>  <CID>  (1) 
24824485.0

>  <ChEMBL ID>  (1) 
nan

>  <InChiKey>  (1) 
NNHGILYMMKEZGT-BQAIUKQQSA-N

>  <InChi>  (1) 
InChI=1S/C24H24ClNO5.ClH/c25-19-3-1-2-18(14-19)23(27)15-26-13-12-17-4-6-21(7-5-17)31-22-10-8-20(9-11-22)30-16-24(28)29;/h1-11,14,23,26-27H,12-13,15-16H2,(H,28,29);1H/t23-;/m0./s1

>  <IUPAC Name>  (1) 
2-[4-[4-[2-[[(2R)-2-(3-chlorophenyl)-2-hydroxyethyl]amino]ethyl]phenoxy]phenoxy]acetic acid;hydrochloride

$$$$
