
     RDKit          3D

 32 32  0  0  0  0  0  0  0  0999 V2000
    4.2178   -0.8835   -1.1073 C   0  0  0  0  0  0  0  0  0  0  0  0
    3.9646   -0.0674    0.1492 C   0  0  0  0  0  0  0  0  0  0  0  0
    2.5280    0.0718    0.4374 C   0  0  0  0  0  0  0  0  0  0  0  0
    1.8157   -0.8233    1.2223 C   0  0  0  0  0  0  0  0  0  0  0  0
    0.4628   -0.6004    1.4326 C   0  0  0  0  0  0  0  0  0  0  0  0
   -0.2030    0.4805    0.8895 C   0  0  0  0  0  0  0  0  0  0  0  0
    0.5113    1.3798    0.1013 C   0  0  0  0  0  0  0  0  0  0  0  0
    1.8617    1.1511   -0.1044 C   0  0  0  0  0  0  0  0  0  0  0  0
   -1.6347    0.7551    1.0863 C   0  0  0  0  0  0  0  0  0  0  0  0
   -2.5242    0.1229    0.0476 C   0  0  0  0  0  0  0  0  0  0  0  0
   -2.2149    0.5897   -1.3159 C   0  0  0  0  0  0  0  0  0  0  0  0
   -1.8678   -0.2057   -2.1792 O   0  0  0  0  0  0  0  0  0  0  0  0
   -2.5831   -1.3779    0.1295 C   0  0  0  0  0  0  0  0  0  0  0  0
   -3.9451    0.6197    0.3481 C   0  0  0  0  0  0  0  0  0  0  0  0
    3.5066   -1.7105   -1.1064 H   0  0  0  0  0  0  0  0  0  0  0  0
    5.2377   -1.3546   -1.0175 H   0  0  0  0  0  0  0  0  0  0  0  0
    4.1633   -0.2144   -1.9873 H   0  0  0  0  0  0  0  0  0  0  0  0
    4.5287    0.8870    0.1508 H   0  0  0  0  0  0  0  0  0  0  0  0
    4.3918   -0.7002    0.9798 H   0  0  0  0  0  0  0  0  0  0  0  0
    2.3471   -1.6673    1.6433 H   0  0  0  0  0  0  0  0  0  0  0  0
   -0.0864   -1.2994    2.0436 H   0  0  0  0  0  0  0  0  0  0  0  0
    0.0018    2.2431   -0.3383 H   0  0  0  0  0  0  0  0  0  0  0  0
    2.4016    1.8623   -0.7212 H   0  0  0  0  0  0  0  0  0  0  0  0
   -2.0072    0.4368    2.0877 H   0  0  0  0  0  0  0  0  0  0  0  0
   -1.8244    1.8556    1.0212 H   0  0  0  0  0  0  0  0  0  0  0  0
   -2.2932    1.6379   -1.5598 H   0  0  0  0  0  0  0  0  0  0  0  0
   -2.2532   -1.7733    1.1262 H   0  0  0  0  0  0  0  0  0  0  0  0
   -2.0311   -1.8545   -0.7222 H   0  0  0  0  0  0  0  0  0  0  0  0
   -3.6409   -1.7619    0.0434 H   0  0  0  0  0  0  0  0  0  0  0  0
   -4.6708   -0.1547    0.0678 H   0  0  0  0  0  0  0  0  0  0  0  0
   -4.0372    0.7508    1.4445 H   0  0  0  0  0  0  0  0  0  0  0  0
   -4.1233    1.6049   -0.1348 H   0  0  0  0  0  0  0  0  0  0  0  0
  1  2  1  0
  2  3  1  0
  3  4  2  0
  4  5  1  0
  5  6  2  0
  6  7  1  0
  7  8  2  0
  6  9  1  0
  9 10  1  0
 10 11  1  0
 11 12  2  0
 10 13  1  0
 10 14  1  0
  8  3  1  0
  1 15  1  0
  1 16  1  0
  1 17  1  0
  2 18  1  0
  2 19  1  0
  4 20  1  0
  5 21  1  0
  7 22  1  0
  8 23  1  0
  9 24  1  0
  9 25  1  0
 11 26  1  0
 13 27  1  0
 13 28  1  0
 13 29  1  0
 14 30  1  0
 14 31  1  0
 14 32  1  0
M  END
>  <Ligand ID>  (1) 
LIG0000374

>  <Ligand>  (1) 
Ethyl 2,2-dimethylhydrocinnamal

>  <SMILES>  (1) 
CCc1ccc(cc1)CC(C=O)(C)C

>  <CID>  (1) 
105513.0

>  <ChEMBL ID>  (1) 
nan

>  <InChiKey>  (1) 
JFTSYAALCNQOKO-UHFFFAOYSA-N

>  <InChi>  (1) 
InChI=1S/C13H18O/c1-4-11-5-7-12(8-6-11)9-13(2,3)10-14/h5-8,10H,4,9H2,1-3H3

>  <IUPAC Name>  (1) 
3-(4-ethylphenyl)-2,2-dimethylpropanal

$$$$
