
     RDKit          3D

 69 75  0  0  0  0  0  0  0  0999 V2000
   -3.4070    4.5207    1.1032 C   0  0  0  0  0  0  0  0  0  0  0  0
   -3.8193    3.5511    1.8905 C   0  0  0  0  0  0  0  0  0  0  0  0
   -3.5527    2.1405    1.6927 C   0  0  0  0  0  0  0  0  0  0  0  0
   -4.0338    1.1738    2.5856 C   0  0  0  0  0  0  0  0  0  0  0  0
   -3.7956   -0.1760    2.4237 C   0  0  0  0  0  0  0  0  0  0  0  0
   -3.0405   -0.6113    1.3203 C   0  0  0  0  0  0  0  0  0  0  0  0
   -2.6085    0.3759    0.4967 C   0  0  0  0  0  0  0  0  0  0  0  0
   -2.8049    1.7125    0.5995 C   0  0  0  0  0  0  0  0  0  0  0  0
   -2.1625    2.2955   -0.4760 O   0  0  0  0  0  0  0  0  0  0  0  0
   -1.2822    1.3697   -1.0872 C   0  0  2  0  0  0  0  0  0  0  0  0
   -1.8252   -0.0008   -0.7058 C   0  0  2  0  0  0  0  0  0  0  0  0
   -2.7546   -0.5452   -1.7099 C   0  0  0  0  0  0  0  0  0  0  0  0
   -2.6080   -1.9825   -1.9850 C   0  0  0  0  0  0  0  0  0  0  0  0
   -2.0555   -2.8464   -1.0283 N   0  0  0  0  0  0  0  0  0  0  0  0
   -1.5506   -2.2121    0.1640 C   0  0  2  0  0  0  0  0  0  0  0  0
   -2.7030   -2.0278    1.0877 C   0  0  0  0  0  0  0  0  0  0  0  0
   -0.8078   -0.9481   -0.1637 C   0  0  2  0  0  0  0  0  0  0  0  0
   -0.1824   -0.3651    1.0962 C   0  0  0  0  0  0  0  0  0  0  0  0
    0.2543    1.0455    0.8583 C   0  0  0  0  0  0  0  0  0  0  0  0
    0.1294    1.3992   -0.6066 C   0  0  2  0  0  0  0  0  0  0  0  0
    0.8235    2.5640   -0.8933 O   0  0  0  0  0  0  0  0  0  0  0  0
    0.3199    3.7178   -0.3820 C   0  0  0  0  0  0  0  0  0  0  0  0
    0.8497    0.3161   -1.3912 C   0  0  2  0  0  0  0  0  0  0  0  0
    0.3127   -1.0761   -1.1316 C   0  0  0  0  0  0  0  0  0  0  0  0
    2.3591    0.3976   -1.2271 C   0  0  0  0  0  0  0  0  0  0  0  0
    2.9656   -0.6157   -1.9667 O   0  0  0  0  0  0  0  0  0  0  0  0
    4.3476   -0.5872   -1.8545 C   0  0  0  0  0  0  0  0  0  0  0  0
    4.8402   -0.7529   -0.4689 C   0  0  0  0  0  0  0  0  0  0  0  0
    5.0574    0.3299    0.3853 C   0  0  0  0  0  0  0  0  0  0  0  0
    5.5228    0.1075    1.6804 C   0  0  0  0  0  0  0  0  0  0  0  0
    5.7730   -1.1666    2.1337 C   0  0  0  0  0  0  0  0  0  0  0  0
    5.5644   -2.2455    1.3050 C   0  0  0  0  0  0  0  0  0  0  0  0
    5.1026   -2.0175    0.0214 C   0  0  0  0  0  0  0  0  0  0  0  0
   -1.3204   -3.9583   -1.5064 C   0  0  0  0  0  0  0  0  0  0  0  0
   -3.6568    5.5707    1.3302 H   0  0  0  0  0  0  0  0  0  0  0  0
   -2.8178    4.3911    0.2095 H   0  0  0  0  0  0  0  0  0  0  0  0
   -4.4053    3.8233    2.7577 H   0  0  0  0  0  0  0  0  0  0  0  0
   -4.6264    1.5124    3.4509 H   0  0  0  0  0  0  0  0  0  0  0  0
   -4.1714   -0.9008    3.1174 H   0  0  0  0  0  0  0  0  0  0  0  0
   -1.3082    1.4953   -2.1686 H   0  0  0  0  0  0  0  0  0  0  0  0
   -3.8236   -0.3985   -1.3445 H   0  0  0  0  0  0  0  0  0  0  0  0
   -2.7397    0.0336   -2.6802 H   0  0  0  0  0  0  0  0  0  0  0  0
   -3.6216   -2.4105   -2.3279 H   0  0  0  0  0  0  0  0  0  0  0  0
   -2.0089   -2.0744   -2.9458 H   0  0  0  0  0  0  0  0  0  0  0  0
   -0.8253   -2.9185    0.6115 H   0  0  0  0  0  0  0  0  0  0  0  0
   -2.4622   -2.5248    2.0878 H   0  0  0  0  0  0  0  0  0  0  0  0
   -3.6316   -2.5218    0.6790 H   0  0  0  0  0  0  0  0  0  0  0  0
    0.7320   -1.0042    1.3312 H   0  0  0  0  0  0  0  0  0  0  0  0
   -0.7837   -0.4174    1.9911 H   0  0  0  0  0  0  0  0  0  0  0  0
   -0.2818    1.7630    1.5108 H   0  0  0  0  0  0  0  0  0  0  0  0
    1.3215    1.1418    1.1360 H   0  0  0  0  0  0  0  0  0  0  0  0
    1.0190    4.5445   -0.7133 H   0  0  0  0  0  0  0  0  0  0  0  0
    0.2188    3.7875    0.6993 H   0  0  0  0  0  0  0  0  0  0  0  0
   -0.6677    4.0288   -0.8363 H   0  0  0  0  0  0  0  0  0  0  0  0
    0.6828    0.6102   -2.4706 H   0  0  0  0  0  0  0  0  0  0  0  0
    0.1056   -1.5297   -2.0918 H   0  0  0  0  0  0  0  0  0  0  0  0
    1.1710   -1.6409   -0.6792 H   0  0  0  0  0  0  0  0  0  0  0  0
    2.6575    0.3230   -0.1594 H   0  0  0  0  0  0  0  0  0  0  0  0
    2.6824    1.3604   -1.6551 H   0  0  0  0  0  0  0  0  0  0  0  0
    4.7223    0.4033   -2.2477 H   0  0  0  0  0  0  0  0  0  0  0  0
    4.8140   -1.3359   -2.5175 H   0  0  0  0  0  0  0  0  0  0  0  0
    4.8565    1.3406    0.0190 H   0  0  0  0  0  0  0  0  0  0  0  0
    5.6642    1.0022    2.2766 H   0  0  0  0  0  0  0  0  0  0  0  0
    6.1330   -1.2604    3.1520 H   0  0  0  0  0  0  0  0  0  0  0  0
    5.7741   -3.2231    1.7038 H   0  0  0  0  0  0  0  0  0  0  0  0
    4.9479   -2.8885   -0.6082 H   0  0  0  0  0  0  0  0  0  0  0  0
   -2.0728   -4.7185   -1.8694 H   0  0  0  0  0  0  0  0  0  0  0  0
   -0.8456   -4.4524   -0.6322 H   0  0  0  0  0  0  0  0  0  0  0  0
   -0.6601   -3.7932   -2.3625 H   0  0  0  0  0  0  0  0  0  0  0  0
  1  2  2  0
  2  3  1  0
  3  4  2  0
  4  5  1  0
  5  6  2  0
  6  7  1  0
  7  8  2  0
  8  9  1  0
  9 10  1  0
 10 11  1  0
 11 12  1  6
 12 13  1  0
 13 14  1  0
 14 15  1  0
 15 16  1  0
 15 17  1  0
 17 18  1  1
 18 19  1  0
 19 20  1  0
 20 21  1  1
 21 22  1  0
 20 23  1  0
 23 24  1  0
 23 25  1  0
 25 26  1  0
 26 27  1  0
 27 28  1  0
 28 29  2  0
 29 30  1  0
 30 31  2  0
 31 32  1  0
 32 33  2  0
 14 34  1  0
  8  3  1  0
 20 10  1  0
 33 28  1  0
 16  6  1  0
 24 17  1  0
 11  7  1  0
 17 11  1  0
  1 35  1  0
  1 36  1  0
  2 37  1  0
  4 38  1  0
  5 39  1  0
 10 40  1  6
 12 41  1  0
 12 42  1  0
 13 43  1  0
 13 44  1  0
 15 45  1  1
 16 46  1  0
 16 47  1  0
 18 48  1  0
 18 49  1  0
 19 50  1  0
 19 51  1  0
 22 52  1  0
 22 53  1  0
 22 54  1  0
 23 55  1  6
 24 56  1  0
 24 57  1  0
 25 58  1  0
 25 59  1  0
 27 60  1  0
 27 61  1  0
 29 62  1  0
 30 63  1  0
 31 64  1  0
 32 65  1  0
 33 66  1  0
 34 67  1  0
 34 68  1  0
 34 69  1  0
M  END
>  <Ligand ID>  (1) 
LIG0004587

>  <Ligand>  (1) 
SCHEMBL15485694

>  <SMILES>  (1) 
C=Cc1ccc2c3c1O[C@@H]1[C@@]43CCN([C@H](C2)[C@@]24CC[C@@]1(OC)[C@H](C2)COCc1ccccc1)C

>  <CID>  (1) 
89978582.0

>  <ChEMBL ID>  (1) 
nan

>  <InChiKey>  (1) 
SXOUMZNAELVZJJ-YFMBSZHDSA-N

>  <InChi>  (1) 
InChI=1S/C30H35NO3/c1-4-21-10-11-22-16-24-28-12-13-30(32-3,23(17-28)19-33-18-20-8-6-5-7-9-20)27-29(28,14-15-31(24)2)25(22)26(21)34-27/h4-11,23-24,27H,1,12-19H2,2-3H3/t23-,24-,27-,28-,29+,30-/m1/s1

>  <IUPAC Name>  (1) 
(1S,2S,6R,14R,15R,16R)-11-ethenyl-15-methoxy-5-methyl-16-(phenylmethoxymethyl)-13-oxa-5-azahexacyclo[13.2.2.12,8.01,6.02,14.012,20]icosa-8(20),9,11-triene

$$$$
