
     RDKit          3D

 93 96  0  0  0  0  0  0  0  0999 V2000
    1.4253    6.8784   -3.5340 N   0  0  0  0  0  0  0  0  0  0  0  0
    0.3524    5.9820   -3.2743 C   0  0  0  0  0  0  0  0  0  0  0  0
    0.4928    4.7152   -3.1180 N   0  0  0  0  0  0  0  0  0  0  0  0
    1.7308    4.0124   -3.1782 C   0  0  0  0  0  0  0  0  0  0  0  0
    2.5487    4.0646   -1.9089 C   0  0  0  0  0  0  0  0  0  0  0  0
    1.8343    3.4812   -0.7354 C   0  0  0  0  0  0  0  0  0  0  0  0
    1.4580    2.0388   -0.9013 C   0  0  1  0  0  0  0  0  0  0  0  0
    2.6712    1.1704   -1.1132 C   0  0  0  0  0  0  0  0  0  0  0  0
    3.4667    1.3539   -2.0669 O   0  0  0  0  0  0  0  0  0  0  0  0
    2.9241    0.1202   -0.2160 N   0  0  0  0  0  0  0  0  0  0  0  0
    4.0617   -0.7952   -0.3158 C   0  0  2  0  0  0  0  0  0  0  0  0
    3.6313   -2.1695   -0.4734 C   0  0  0  0  0  0  0  0  0  0  0  0
    2.3799   -2.4153   -0.3372 O   0  0  0  0  0  0  0  0  0  0  0  0
    4.4423   -3.2902   -0.7701 N   0  0  0  0  0  0  0  0  0  0  0  0
    5.1128   -0.4808    0.6701 C   0  0  0  0  0  0  0  0  0  0  0  0
    6.2336   -1.4303    0.6113 C   0  0  0  0  0  0  0  0  0  0  0  0
    7.4042   -1.3256   -0.1535 C   0  0  0  0  0  0  0  0  0  0  0  0
    8.1418   -2.4529    0.0771 N   0  0  0  0  0  0  0  0  0  0  0  0
    7.4822   -3.2385    0.9431 C   0  0  0  0  0  0  0  0  0  0  0  0
    6.2769   -2.6354    1.3063 C   0  0  0  0  0  0  0  0  0  0  0  0
    5.4658   -3.2871    2.2094 C   0  0  0  0  0  0  0  0  0  0  0  0
    5.7784   -4.5066    2.7759 C   0  0  0  0  0  0  0  0  0  0  0  0
    6.9656   -5.0923    2.4110 C   0  0  0  0  0  0  0  0  0  0  0  0
    7.7887   -4.4639    1.5157 C   0  0  0  0  0  0  0  0  0  0  0  0
    0.7167    1.5222    0.2233 N   0  0  0  0  0  0  0  0  0  0  0  0
   -0.5615    0.9454   -0.0558 C   0  0  0  0  0  0  0  0  0  0  0  0
   -1.0238    0.8906   -1.2302 O   0  0  0  0  0  0  0  0  0  0  0  0
   -1.4177    0.3780    1.0170 C   0  0  2  0  0  0  0  0  0  0  0  0
   -2.6539   -0.1449    0.5017 N   0  0  0  0  0  0  0  0  0  0  0  0
   -3.1964   -1.4079    0.8164 C   0  0  0  0  0  0  0  0  0  0  0  0
   -2.5900   -2.1938    1.6174 O   0  0  0  0  0  0  0  0  0  0  0  0
   -4.5001   -1.7984    0.1856 C   0  0  2  0  0  0  0  0  0  0  0  0
   -4.3916   -3.0836   -0.5683 C   0  0  0  0  0  0  0  0  0  0  0  0
   -5.7254   -3.3941   -1.1564 C   0  0  0  0  0  0  0  0  0  0  0  0
   -6.2060   -3.0253   -2.3623 N   0  0  0  0  0  0  0  0  0  0  0  0
   -7.4676   -3.5267   -2.5023 C   0  0  0  0  0  0  0  0  0  0  0  0
   -7.7996   -4.2184   -1.3875 N   0  0  0  0  0  0  0  0  0  0  0  0
   -6.7345   -4.1355   -0.5682 C   0  0  0  0  0  0  0  0  0  0  0  0
   -4.9821   -0.7718   -0.7091 N   0  0  0  0  0  0  0  0  0  0  0  0
   -6.1900   -0.0596   -0.5390 C   0  0  0  0  0  0  0  0  0  0  0  0
   -6.9673   -0.2462    0.4078 O   0  0  0  0  0  0  0  0  0  0  0  0
   -6.5444    0.9686   -1.5529 C   0  0  0  0  0  0  0  0  0  0  0  0
   -1.6892    1.5231    2.0087 C   0  0  0  0  0  0  0  0  0  0  0  0
   -2.5445    1.0276    3.1200 C   0  0  0  0  0  0  0  0  0  0  0  0
   -1.9862    0.4876    4.2445 C   0  0  0  0  0  0  0  0  0  0  0  0
   -2.7910    0.0199    5.2894 C   0  0  0  0  0  0  0  0  0  0  0  0
   -4.1499    0.1287    5.1324 C   0  0  0  0  0  0  0  0  0  0  0  0
   -4.7031    0.6661    4.0133 C   0  0  0  0  0  0  0  0  0  0  0  0
   -3.9283    1.1371    2.9622 C   0  0  0  0  0  0  0  0  0  0  0  0
   -6.4505    0.8112    3.7966 Cl  0  0  0  0  0  0  0  0  0  0  0  0
   -5.2584   -0.4333    6.3933 Cl  0  0  0  0  0  0  0  0  0  0  0  0
   -0.9648    6.5241   -3.1813 N   0  0  0  0  0  0  0  0  0  0  0  0
    2.0226    7.2223   -2.7342 H   0  0  0  0  0  0  0  0  0  0  0  0
    1.6515    7.2191   -4.5097 H   0  0  0  0  0  0  0  0  0  0  0  0
    2.3450    4.5150   -3.9777 H   0  0  0  0  0  0  0  0  0  0  0  0
    1.6299    2.9679   -3.5384 H   0  0  0  0  0  0  0  0  0  0  0  0
    3.5494    3.6806   -2.0846 H   0  0  0  0  0  0  0  0  0  0  0  0
    2.6778    5.1642   -1.6946 H   0  0  0  0  0  0  0  0  0  0  0  0
    2.5523    3.5553    0.1355 H   0  0  0  0  0  0  0  0  0  0  0  0
    0.9250    4.0961   -0.5762 H   0  0  0  0  0  0  0  0  0  0  0  0
    0.8374    1.9202   -1.8053 H   0  0  0  0  0  0  0  0  0  0  0  0
    2.2535   -0.0338    0.5963 H   0  0  0  0  0  0  0  0  0  0  0  0
    4.5148   -0.4957   -1.3318 H   0  0  0  0  0  0  0  0  0  0  0  0
    4.2961   -4.2139   -0.2690 H   0  0  0  0  0  0  0  0  0  0  0  0
    5.2134   -3.2775   -1.4810 H   0  0  0  0  0  0  0  0  0  0  0  0
    4.7542   -0.4853    1.7254 H   0  0  0  0  0  0  0  0  0  0  0  0
    5.5693    0.5222    0.4193 H   0  0  0  0  0  0  0  0  0  0  0  0
    7.6823   -0.4987   -0.8131 H   0  0  0  0  0  0  0  0  0  0  0  0
    9.0846   -2.6292   -0.3838 H   0  0  0  0  0  0  0  0  0  0  0  0
    4.5321   -2.7915    2.4742 H   0  0  0  0  0  0  0  0  0  0  0  0
    5.0789   -4.9605    3.4895 H   0  0  0  0  0  0  0  0  0  0  0  0
    7.2040   -6.0547    2.8618 H   0  0  0  0  0  0  0  0  0  0  0  0
    8.7314   -4.9091    1.2137 H   0  0  0  0  0  0  0  0  0  0  0  0
    1.0509    1.5432    1.2119 H   0  0  0  0  0  0  0  0  0  0  0  0
   -0.9108   -0.3902    1.6371 H   0  0  0  0  0  0  0  0  0  0  0  0
   -3.1854    0.4822   -0.1651 H   0  0  0  0  0  0  0  0  0  0  0  0
   -5.2004   -1.9651    1.0286 H   0  0  0  0  0  0  0  0  0  0  0  0
   -3.6546   -3.0775   -1.3952 H   0  0  0  0  0  0  0  0  0  0  0  0
   -4.1484   -3.9508    0.0941 H   0  0  0  0  0  0  0  0  0  0  0  0
   -5.7010   -2.4442   -3.0888 H   0  0  0  0  0  0  0  0  0  0  0  0
   -8.1176   -3.4019   -3.3636 H   0  0  0  0  0  0  0  0  0  0  0  0
   -6.6779   -4.5819    0.4033 H   0  0  0  0  0  0  0  0  0  0  0  0
   -4.3807   -0.5547   -1.5362 H   0  0  0  0  0  0  0  0  0  0  0  0
   -7.5005    0.6626   -2.0345 H   0  0  0  0  0  0  0  0  0  0  0  0
   -5.7330    1.1180   -2.2877 H   0  0  0  0  0  0  0  0  0  0  0  0
   -6.7492    1.9332   -1.0099 H   0  0  0  0  0  0  0  0  0  0  0  0
   -0.7416    1.8977    2.4154 H   0  0  0  0  0  0  0  0  0  0  0  0
   -2.2335    2.3235    1.4925 H   0  0  0  0  0  0  0  0  0  0  0  0
   -0.9005    0.3978    4.3755 H   0  0  0  0  0  0  0  0  0  0  0  0
   -2.3741   -0.4106    6.1853 H   0  0  0  0  0  0  0  0  0  0  0  0
   -4.3662    1.5699    2.0607 H   0  0  0  0  0  0  0  0  0  0  0  0
   -1.1194    7.5724   -3.0933 H   0  0  0  0  0  0  0  0  0  0  0  0
   -1.8297    5.9394   -3.1939 H   0  0  0  0  0  0  0  0  0  0  0  0
  1  2  1  0
  2  3  2  3
  3  4  1  0
  4  5  1  0
  5  6  1  0
  6  7  1  0
  7  8  1  0
  8  9  2  0
  8 10  1  0
 10 11  1  0
 11 12  1  0
 12 13  2  0
 12 14  1  0
 11 15  1  0
 15 16  1  0
 16 17  2  0
 17 18  1  0
 18 19  1  0
 19 20  2  0
 20 21  1  0
 21 22  2  0
 22 23  1  0
 23 24  2  0
  7 25  1  0
 25 26  1  0
 26 27  2  0
 26 28  1  0
 28 29  1  0
 29 30  1  0
 30 31  2  0
 30 32  1  0
 32 33  1  0
 33 34  1  0
 34 35  1  0
 35 36  1  0
 36 37  2  0
 37 38  1  0
 32 39  1  0
 39 40  1  0
 40 41  2  0
 40 42  1  0
 28 43  1  0
 43 44  1  0
 44 45  2  0
 45 46  1  0
 46 47  2  0
 47 48  1  0
 48 49  2  0
 48 50  1  0
 47 51  1  0
  2 52  1  0
 20 16  1  0
 38 34  2  0
 49 44  1  0
 24 19  1  0
  1 53  1  0
  1 54  1  0
  4 55  1  0
  4 56  1  0
  5 57  1  0
  5 58  1  0
  6 59  1  0
  6 60  1  0
  7 61  1  6
 10 62  1  0
 11 63  1  6
 14 64  1  0
 14 65  1  0
 15 66  1  0
 15 67  1  0
 17 68  1  0
 18 69  1  0
 21 70  1  0
 22 71  1  0
 23 72  1  0
 24 73  1  0
 25 74  1  0
 28 75  1  1
 29 76  1  0
 32 77  1  1
 33 78  1  0
 33 79  1  0
 35 80  1  0
 36 81  1  0
 38 82  1  0
 39 83  1  0
 42 84  1  0
 42 85  1  0
 42 86  1  0
 43 87  1  0
 43 88  1  0
 45 89  1  0
 46 90  1  0
 49 91  1  0
 52 92  1  0
 52 93  1  0
M  END
>  <Ligand ID>  (1) 
LIG0003298

>  <Ligand>  (1) 
CHEMBL501394

>  <SMILES>  (1) 
NC(=NCCC[C@@H](C(=O)N[C@H](C(=O)N)Cc1c[nH]c2c1cccc2)NC(=O)[C@H](NC(=O)[C@H](Cc1[nH]cnc1)NC(=O)C)Cc1ccc(c(c1)Cl)Cl)N

>  <CID>  (1) 
25108218.0

>  <ChEMBL ID>  (1) 
nan

>  <InChiKey>  (1) 
ULVZZVUTBBXNBL-FKWFRFQNSA-N

>  <InChi>  (1) 
InChI=1S/C34H41Cl2N11O5/c1-18(48)44-29(14-21-16-40-17-43-21)33(52)47-28(12-19-8-9-23(35)24(36)11-19)32(51)45-26(7-4-10-41-34(38)39)31(50)46-27(30(37)49)13-20-15-42-25-6-3-2-5-22(20)25/h2-3,5-6,8-9,11,15-17,26-29,42H,4,7,10,12-14H2,1H3,(H2,37,49)(H,40,43)(H,44,48)(H,45,51)(H,46,50)(H,47,52)(H4,38,39,41)/t26-,27-,28+,29-/m0/s1

>  <IUPAC Name>  (1) 
(2S)-2-[[(2R)-2-[[(2S)-2-acetamido-3-(1H-imidazol-5-yl)propanoyl]amino]-3-(3,4-dichlorophenyl)propanoyl]amino]-N-[(2S)-1-amino-3-(1H-indol-3-yl)-1-oxopropan-2-yl]-5-(diaminomethylideneamino)pentanamide

$$$$
