
     RDKit          3D

 76 75  0  0  0  0  0  0  0  0999 V2000
    5.1690    5.3706    1.0354 C   0  0  0  0  0  0  0  0  0  0  0  0
    5.5798    4.4058   -0.0643 C   0  0  0  0  0  0  0  0  0  0  0  0
    6.1704    3.1965    0.6085 C   0  0  0  0  0  0  0  0  0  0  0  0
    6.6128    2.1956   -0.4051 C   0  0  0  0  0  0  0  0  0  0  0  0
    5.4832    1.7251   -1.2604 C   0  0  0  0  0  0  0  0  0  0  0  0
    4.3829    1.0703   -0.4594 C   0  0  0  0  0  0  0  0  0  0  0  0
    4.8995   -0.1398    0.2954 C   0  0  0  0  0  0  0  0  0  0  0  0
    5.4630   -1.1980   -0.6014 C   0  0  0  0  0  0  0  0  0  0  0  0
    4.4302   -1.7310   -1.5792 C   0  0  0  0  0  0  0  0  0  0  0  0
    3.2698   -2.3554   -0.7991 C   0  0  0  0  0  0  0  0  0  0  0  0
    2.2621   -2.8580   -1.7811 C   0  0  0  0  0  0  0  0  0  0  0  0
    1.0658   -3.4465   -0.9937 C   0  0  0  0  0  0  0  0  0  0  0  0
    1.5477   -4.5707   -0.1725 C   0  0  0  0  0  0  0  0  0  0  0  0
    0.5282   -5.2840    0.6245 C   0  0  0  0  0  0  0  0  0  0  0  0
   -0.1933   -4.4960    1.6414 C   0  0  0  0  0  0  0  0  0  0  0  0
   -1.1268   -3.4936    1.1413 C   0  0  0  0  0  0  0  0  0  0  0  0
   -1.6156   -3.4053   -0.0046 O   0  0  0  0  0  0  0  0  0  0  0  0
   -1.5331   -2.5021    2.0509 O   0  0  0  0  0  0  0  0  0  0  0  0
   -2.4250   -1.5083    1.6721 C   0  0  0  0  0  0  0  0  0  0  0  0
   -3.7824   -1.9957    1.2350 C   0  0  0  0  0  0  0  0  0  0  0  0
   -4.7113   -0.8821    0.8360 C   0  0  0  0  0  0  0  0  0  0  0  0
   -5.9413   -1.2921    0.4242 O   0  0  0  0  0  0  0  0  0  0  0  0
   -7.2232   -0.2861    0.5271 P   0  0  0  0  0  0  0  0  0  0  0  0
   -7.4098    0.0705    2.0124 O   0  0  0  0  0  0  0  0  0  0  0  0
   -7.2548    1.0993   -0.3377 O   0  0  0  0  0  0  0  0  0  0  0  0
   -6.9824    2.2714    0.3258 C   0  0  0  0  0  0  0  0  0  0  0  0
   -7.3245    3.5308   -0.4225 C   0  0  1  0  0  0  0  0  0  0  0  0
   -8.7951    3.6063   -0.6987 C   0  0  0  0  0  0  0  0  0  0  0  0
   -9.3155    2.6760   -1.3967 O   0  0  0  0  0  0  0  0  0  0  0  0
   -9.5820    4.6562   -0.2136 O   0  0  0  0  0  0  0  0  0  0  0  0
   -6.9933    4.6787    0.3994 N   0  0  0  0  0  0  0  0  0  0  0  0
   -8.6309   -1.1939    0.1517 O   0  0  0  0  0  0  0  0  0  0  0  0
    5.1458    6.3931    0.6294 H   0  0  0  0  0  0  0  0  0  0  0  0
    4.1907    5.0179    1.4084 H   0  0  0  0  0  0  0  0  0  0  0  0
    5.9017    5.2619    1.8739 H   0  0  0  0  0  0  0  0  0  0  0  0
    4.6609    4.1634   -0.6224 H   0  0  0  0  0  0  0  0  0  0  0  0
    6.3200    4.8332   -0.7646 H   0  0  0  0  0  0  0  0  0  0  0  0
    7.0030    3.4902    1.2866 H   0  0  0  0  0  0  0  0  0  0  0  0
    5.4204    2.6885    1.2643 H   0  0  0  0  0  0  0  0  0  0  0  0
    7.1149    1.3547    0.1416 H   0  0  0  0  0  0  0  0  0  0  0  0
    7.4160    2.5951   -1.0845 H   0  0  0  0  0  0  0  0  0  0  0  0
    5.0525    2.5794   -1.8039 H   0  0  0  0  0  0  0  0  0  0  0  0
    5.8040    0.9854   -2.0258 H   0  0  0  0  0  0  0  0  0  0  0  0
    3.6172    0.7078   -1.1761 H   0  0  0  0  0  0  0  0  0  0  0  0
    3.8883    1.7279    0.2553 H   0  0  0  0  0  0  0  0  0  0  0  0
    5.7131    0.1523    0.9951 H   0  0  0  0  0  0  0  0  0  0  0  0
    4.0687   -0.4888    0.9494 H   0  0  0  0  0  0  0  0  0  0  0  0
    6.2958   -0.7879   -1.1687 H   0  0  0  0  0  0  0  0  0  0  0  0
    5.8202   -2.0258    0.0557 H   0  0  0  0  0  0  0  0  0  0  0  0
    4.9175   -2.5440   -2.1329 H   0  0  0  0  0  0  0  0  0  0  0  0
    4.1016   -0.9443   -2.2532 H   0  0  0  0  0  0  0  0  0  0  0  0
    3.7012   -3.2151   -0.2221 H   0  0  0  0  0  0  0  0  0  0  0  0
    2.8005   -1.6786   -0.0920 H   0  0  0  0  0  0  0  0  0  0  0  0
    2.6841   -3.7376   -2.3470 H   0  0  0  0  0  0  0  0  0  0  0  0
    1.9261   -2.0729   -2.4864 H   0  0  0  0  0  0  0  0  0  0  0  0
    0.2791   -3.7249   -1.7250 H   0  0  0  0  0  0  0  0  0  0  0  0
    0.7938   -2.5979   -0.3202 H   0  0  0  0  0  0  0  0  0  0  0  0
    2.0448   -5.3751   -0.8225 H   0  0  0  0  0  0  0  0  0  0  0  0
    2.3240   -4.2314    0.5819 H   0  0  0  0  0  0  0  0  0  0  0  0
    0.9194   -6.2622    1.0379 H   0  0  0  0  0  0  0  0  0  0  0  0
   -0.2348   -5.6766   -0.1454 H   0  0  0  0  0  0  0  0  0  0  0  0
   -0.7240   -5.2506    2.3108 H   0  0  0  0  0  0  0  0  0  0  0  0
    0.5398   -4.0331    2.3839 H   0  0  0  0  0  0  0  0  0  0  0  0
   -1.9857   -0.9184    0.8141 H   0  0  0  0  0  0  0  0  0  0  0  0
   -2.4933   -0.7779    2.5077 H   0  0  0  0  0  0  0  0  0  0  0  0
   -4.2470   -2.4251    2.1815 H   0  0  0  0  0  0  0  0  0  0  0  0
   -3.7346   -2.8208    0.5472 H   0  0  0  0  0  0  0  0  0  0  0  0
   -4.8599   -0.1488    1.6565 H   0  0  0  0  0  0  0  0  0  0  0  0
   -4.2262   -0.3268    0.0062 H   0  0  0  0  0  0  0  0  0  0  0  0
   -7.5865    2.2798    1.2579 H   0  0  0  0  0  0  0  0  0  0  0  0
   -5.9185    2.2625    0.6626 H   0  0  0  0  0  0  0  0  0  0  0  0
   -6.7964    3.6552   -1.3860 H   0  0  0  0  0  0  0  0  0  0  0  0
  -10.6025    4.6035   -0.2310 H   0  0  0  0  0  0  0  0  0  0  0  0
   -6.0419    5.0105    0.1925 H   0  0  0  0  0  0  0  0  0  0  0  0
   -7.6873    5.4536    0.3383 H   0  0  0  0  0  0  0  0  0  0  0  0
   -9.3508   -1.0659    0.7861 H   0  0  0  0  0  0  0  0  0  0  0  0
  1  2  1  0
  2  3  1  0
  3  4  1  0
  4  5  1  0
  5  6  1  0
  6  7  1  0
  7  8  1  0
  8  9  1  0
  9 10  1  0
 10 11  1  0
 11 12  1  0
 12 13  1  0
 13 14  1  0
 14 15  1  0
 15 16  1  0
 16 17  2  0
 16 18  1  0
 18 19  1  0
 19 20  1  0
 20 21  1  0
 21 22  1  0
 22 23  1  0
 23 24  2  0
 23 25  1  0
 25 26  1  0
 26 27  1  0
 27 28  1  0
 28 29  2  0
 28 30  1  0
 27 31  1  0
 23 32  1  0
  1 33  1  0
  1 34  1  0
  1 35  1  0
  2 36  1  0
  2 37  1  0
  3 38  1  0
  3 39  1  0
  4 40  1  0
  4 41  1  0
  5 42  1  0
  5 43  1  0
  6 44  1  0
  6 45  1  0
  7 46  1  0
  7 47  1  0
  8 48  1  0
  8 49  1  0
  9 50  1  0
  9 51  1  0
 10 52  1  0
 10 53  1  0
 11 54  1  0
 11 55  1  0
 12 56  1  0
 12 57  1  0
 13 58  1  0
 13 59  1  0
 14 60  1  0
 14 61  1  0
 15 62  1  0
 15 63  1  0
 19 64  1  0
 19 65  1  0
 20 66  1  0
 20 67  1  0
 21 68  1  0
 21 69  1  0
 26 70  1  0
 26 71  1  0
 27 72  1  6
 30 73  1  0
 31 74  1  0
 31 75  1  0
 32 76  1  0
M  END
>  <Ligand ID>  (1) 
LIG0004264

>  <Ligand>  (1) 
CHEMBL3577150

>  <SMILES>  (1) 
CCCCCCCCCCCCCCCC(=O)OCCCOP(=O)(OC[C@@H](C(=O)O)N)O

>  <CID>  (1) 
122177498.0

>  <ChEMBL ID>  (1) 
nan

>  <InChiKey>  (1) 
SIUKGQNAMYOCLM-FQEVSTJZSA-N

>  <InChi>  (1) 
InChI=1S/C22H44NO8P/c1-2-3-4-5-6-7-8-9-10-11-12-13-14-16-21(24)29-17-15-18-30-32(27,28)31-19-20(23)22(25)26/h20H,2-19,23H2,1H3,(H,25,26)(H,27,28)/t20-/m0/s1

>  <IUPAC Name>  (1) 
(2S)-2-amino-3-[3-hexadecanoyloxypropoxy(hydroxy)phosphoryl]oxypropanoic acid

$$$$
