
     RDKit          3D

100103  0  0  0  0  0  0  0  0999 V2000
   -9.0156    4.6704   -0.1181 O   0  0  0  0  0  0  0  0  0  0  0  0
   -8.1526    3.8732    0.6692 C   0  0  0  0  0  0  0  0  0  0  0  0
   -6.7853    4.4464    0.5372 C   0  0  0  0  0  0  0  0  0  0  0  0
   -5.7031    3.7580    1.2939 C   0  0  0  0  0  0  0  0  0  0  0  0
   -5.5166    2.3533    0.8669 C   0  0  0  0  0  0  0  0  0  0  0  0
   -6.2310    1.9287   -0.0730 O   0  0  0  0  0  0  0  0  0  0  0  0
   -4.5460    1.5730    1.5401 N   0  0  0  0  0  0  0  0  0  0  0  0
   -4.2106    0.2143    1.3108 C   0  0  2  0  0  0  0  0  0  0  0  0
   -2.9637   -0.0256    0.5774 C   0  0  0  0  0  0  0  0  0  0  0  0
   -2.3065    0.9881    0.2116 O   0  0  0  0  0  0  0  0  0  0  0  0
   -2.4308   -1.2881    0.2416 N   0  0  0  0  0  0  0  0  0  0  0  0
   -1.2369   -1.4848   -0.4872 C   0  0  2  0  0  0  0  0  0  0  0  0
   -0.0994   -1.7497    0.3875 C   0  0  0  0  0  0  0  0  0  0  0  0
   -0.3311   -1.8472    1.6370 O   0  0  0  0  0  0  0  0  0  0  0  0
    1.2436   -1.9096   -0.0113 N   0  0  0  0  0  0  0  0  0  0  0  0
    2.2277   -2.1761    1.0197 C   0  0  2  0  0  0  0  0  0  0  0  0
    3.0738   -0.9350    1.2009 C   0  0  0  0  0  0  0  0  0  0  0  0
    3.9786   -0.9657    2.0753 O   0  0  0  0  0  0  0  0  0  0  0  0
    2.8281    0.1943    0.3940 N   0  0  0  0  0  0  0  0  0  0  0  0
    3.6378    1.4261    0.5122 C   0  0  2  0  0  0  0  0  0  0  0  0
    2.7368    2.5192    0.9284 C   0  0  0  0  0  0  0  0  0  0  0  0
    1.5035    2.2999    1.0961 O   0  0  0  0  0  0  0  0  0  0  0  0
    3.3151    3.8032    1.1268 N   0  0  0  0  0  0  0  0  0  0  0  0
    4.2279    1.6629   -0.8575 C   0  0  0  0  0  0  0  0  0  0  0  0
    5.0870    2.8320   -0.9826 C   0  0  0  0  0  0  0  0  0  0  0  0
    4.8728    4.0821   -1.5345 C   0  0  0  0  0  0  0  0  0  0  0  0
    5.9978    4.8025   -1.4049 N   0  0  0  0  0  0  0  0  0  0  0  0
    6.9605    4.1005   -0.7933 C   0  0  0  0  0  0  0  0  0  0  0  0
    6.4053    2.8689   -0.5239 C   0  0  0  0  0  0  0  0  0  0  0  0
    7.2040    1.9159    0.1199 C   0  0  0  0  0  0  0  0  0  0  0  0
    8.5117    2.1912    0.4789 C   0  0  0  0  0  0  0  0  0  0  0  0
    9.0199    3.4573    0.1799 C   0  0  0  0  0  0  0  0  0  0  0  0
    8.2464    4.4061   -0.4532 C   0  0  0  0  0  0  0  0  0  0  0  0
    3.1269   -3.2900    0.5036 C   0  0  0  0  0  0  0  0  0  0  0  0
    2.2922   -4.4964    0.1997 C   0  0  0  0  0  0  0  0  0  0  0  0
    3.0323   -5.6506   -0.3971 C   0  0  0  0  0  0  0  0  0  0  0  0
    4.0543   -6.2631    0.3180 N   0  0  0  0  0  0  0  0  0  0  0  0
    5.2108   -6.0138    0.6887 C   0  0  0  0  0  0  0  0  0  0  0  0
    5.9810   -4.8352    0.4584 N   0  0  0  0  0  0  0  0  0  0  0  0
    5.8939   -7.0275    1.4596 N   0  0  0  0  0  0  0  0  0  0  0  0
   -0.8798   -0.5929   -1.6140 C   0  0  0  0  0  0  0  0  0  0  0  0
   -1.9093   -0.6965   -2.6722 C   0  0  0  0  0  0  0  0  0  0  0  0
   -1.7444   -1.7584   -3.5793 C   0  0  0  0  0  0  0  0  0  0  0  0
   -2.6268   -1.9633   -4.6172 C   0  0  0  0  0  0  0  0  0  0  0  0
   -3.7068   -1.1425   -4.8150 C   0  0  0  0  0  0  0  0  0  0  0  0
   -3.8800   -0.0812   -3.9168 C   0  0  0  0  0  0  0  0  0  0  0  0
   -2.9716    0.1086   -2.8702 C   0  0  0  0  0  0  0  0  0  0  0  0
   -5.3421   -0.6689    0.7938 C   0  0  0  0  0  0  0  0  0  0  0  0
   -6.4651   -0.7867    1.7428 C   0  0  0  0  0  0  0  0  0  0  0  0
   -7.5926   -0.1241    1.9415 N   0  0  0  0  0  0  0  0  0  0  0  0
   -8.2967   -0.6476    2.9917 C   0  0  0  0  0  0  0  0  0  0  0  0
   -7.5838   -1.6740    3.4652 N   0  0  0  0  0  0  0  0  0  0  0  0
   -6.4634   -1.7909    2.7332 C   0  0  0  0  0  0  0  0  0  0  0  0
   -9.4359    4.1309   -0.8455 H   0  0  0  0  0  0  0  0  0  0  0  0
   -8.5603    3.9916    1.7157 H   0  0  0  0  0  0  0  0  0  0  0  0
   -8.2637    2.8197    0.4034 H   0  0  0  0  0  0  0  0  0  0  0  0
   -6.8471    5.5179    0.8919 H   0  0  0  0  0  0  0  0  0  0  0  0
   -6.4585    4.4812   -0.5436 H   0  0  0  0  0  0  0  0  0  0  0  0
   -5.8417    3.8189    2.3974 H   0  0  0  0  0  0  0  0  0  0  0  0
   -4.7548    4.2971    1.0713 H   0  0  0  0  0  0  0  0  0  0  0  0
   -4.0040    2.0779    2.3115 H   0  0  0  0  0  0  0  0  0  0  0  0
   -4.1059   -0.2260    2.3840 H   0  0  0  0  0  0  0  0  0  0  0  0
   -2.9922   -2.1277    0.5850 H   0  0  0  0  0  0  0  0  0  0  0  0
   -1.4422   -2.4812   -1.0552 H   0  0  0  0  0  0  0  0  0  0  0  0
    1.5162   -1.8400   -1.0110 H   0  0  0  0  0  0  0  0  0  0  0  0
    1.7624   -2.4435    1.9593 H   0  0  0  0  0  0  0  0  0  0  0  0
    2.0559    0.1757   -0.3107 H   0  0  0  0  0  0  0  0  0  0  0  0
    4.3912    1.2227    1.2855 H   0  0  0  0  0  0  0  0  0  0  0  0
    2.8824    4.6969    0.8337 H   0  0  0  0  0  0  0  0  0  0  0  0
    4.2443    3.8248    1.6051 H   0  0  0  0  0  0  0  0  0  0  0  0
    4.8238    0.7630   -1.1491 H   0  0  0  0  0  0  0  0  0  0  0  0
    3.3679    1.7974   -1.5611 H   0  0  0  0  0  0  0  0  0  0  0  0
    3.9279    4.3540   -1.9760 H   0  0  0  0  0  0  0  0  0  0  0  0
    6.1179    5.7697   -1.7294 H   0  0  0  0  0  0  0  0  0  0  0  0
    6.7796    0.9297    0.3436 H   0  0  0  0  0  0  0  0  0  0  0  0
    9.1048    1.4448    0.9720 H   0  0  0  0  0  0  0  0  0  0  0  0
   10.0236    3.7248    0.4325 H   0  0  0  0  0  0  0  0  0  0  0  0
    8.6834    5.3767   -0.6675 H   0  0  0  0  0  0  0  0  0  0  0  0
    3.8696   -3.5130    1.3146 H   0  0  0  0  0  0  0  0  0  0  0  0
    3.6241   -2.9679   -0.4291 H   0  0  0  0  0  0  0  0  0  0  0  0
    1.4486   -4.2488   -0.5064 H   0  0  0  0  0  0  0  0  0  0  0  0
    1.7636   -4.8840    1.1039 H   0  0  0  0  0  0  0  0  0  0  0  0
    3.3757   -5.3654   -1.4564 H   0  0  0  0  0  0  0  0  0  0  0  0
    2.2739   -6.4760   -0.6516 H   0  0  0  0  0  0  0  0  0  0  0  0
    6.2793   -4.2706    1.2618 H   0  0  0  0  0  0  0  0  0  0  0  0
    6.2559   -4.5183   -0.4897 H   0  0  0  0  0  0  0  0  0  0  0  0
    6.8834   -7.2814    1.2095 H   0  0  0  0  0  0  0  0  0  0  0  0
    5.3733   -7.4773    2.2482 H   0  0  0  0  0  0  0  0  0  0  0  0
   -0.6492    0.4503   -1.3363 H   0  0  0  0  0  0  0  0  0  0  0  0
    0.0699   -0.9599   -2.0505 H   0  0  0  0  0  0  0  0  0  0  0  0
   -0.8951   -2.4490   -3.4688 H   0  0  0  0  0  0  0  0  0  0  0  0
   -2.4345   -2.8030   -5.2751 H   0  0  0  0  0  0  0  0  0  0  0  0
   -4.4216   -1.2856   -5.6309 H   0  0  0  0  0  0  0  0  0  0  0  0
   -4.7136    0.5784   -4.0444 H   0  0  0  0  0  0  0  0  0  0  0  0
   -3.1790    0.9539   -2.2402 H   0  0  0  0  0  0  0  0  0  0  0  0
   -4.9263   -1.6797    0.5999 H   0  0  0  0  0  0  0  0  0  0  0  0
   -5.7325   -0.3133   -0.1866 H   0  0  0  0  0  0  0  0  0  0  0  0
   -7.9717    0.6848    1.4191 H   0  0  0  0  0  0  0  0  0  0  0  0
   -9.2467   -0.3197    3.3876 H   0  0  0  0  0  0  0  0  0  0  0  0
   -5.6998   -2.5425    2.8988 H   0  0  0  0  0  0  0  0  0  0  0  0
  1  2  1  0
  2  3  1  0
  3  4  1  0
  4  5  1  0
  5  6  2  0
  5  7  1  0
  7  8  1  0
  8  9  1  0
  9 10  2  0
  9 11  1  0
 11 12  1  0
 12 13  1  0
 13 14  2  0
 13 15  1  0
 15 16  1  0
 16 17  1  0
 17 18  2  0
 17 19  1  0
 19 20  1  0
 20 21  1  0
 21 22  2  0
 21 23  1  0
 20 24  1  0
 24 25  1  0
 25 26  2  0
 26 27  1  0
 27 28  1  0
 28 29  2  0
 29 30  1  0
 30 31  2  0
 31 32  1  0
 32 33  2  0
 16 34  1  0
 34 35  1  0
 35 36  1  0
 36 37  1  0
 37 38  2  3
 38 39  1  0
 38 40  1  0
 12 41  1  0
 41 42  1  0
 42 43  2  0
 43 44  1  0
 44 45  2  0
 45 46  1  0
 46 47  2  0
  8 48  1  0
 48 49  1  0
 49 50  1  0
 50 51  1  0
 51 52  2  0
 52 53  1  0
 29 25  1  0
 47 42  1  0
 53 49  2  0
 33 28  1  0
  1 54  1  0
  2 55  1  0
  2 56  1  0
  3 57  1  0
  3 58  1  0
  4 59  1  0
  4 60  1  0
  7 61  1  0
  8 62  1  1
 11 63  1  0
 12 64  1  6
 15 65  1  0
 16 66  1  1
 19 67  1  0
 20 68  1  1
 23 69  1  0
 23 70  1  0
 24 71  1  0
 24 72  1  0
 26 73  1  0
 27 74  1  0
 30 75  1  0
 31 76  1  0
 32 77  1  0
 33 78  1  0
 34 79  1  0
 34 80  1  0
 35 81  1  0
 35 82  1  0
 36 83  1  0
 36 84  1  0
 39 85  1  0
 39 86  1  0
 40 87  1  0
 40 88  1  0
 41 89  1  0
 41 90  1  0
 43 91  1  0
 44 92  1  0
 45 93  1  0
 46 94  1  0
 47 95  1  0
 48 96  1  0
 48 97  1  0
 50 98  1  0
 51 99  1  0
 53100  1  0
M  END
>  <Ligand ID>  (1) 
LIG0002645

>  <Ligand>  (1) 
CHEMBL88537

>  <SMILES>  (1) 
OCCCC(=O)N[C@H](C(=O)N[C@H](C(=O)N[C@H](C(=O)N[C@H](C(=O)N)Cc1c[nH]c2c1cccc2)CCCN=C(N)N)Cc1ccccc1)Cc1[nH]cnc1

>  <CID>  (1) 
44323034.0

>  <ChEMBL ID>  (1) 
nan

>  <InChiKey>  (1) 
RQIFYTAAHPOYSP-KRCBVYEFSA-N

>  <InChi>  (1) 
InChI=1S/C36H47N11O6/c37-32(50)28(17-23-19-42-26-11-5-4-10-25(23)26)46-33(51)27(12-6-14-41-36(38)39)45-34(52)29(16-22-8-2-1-3-9-22)47-35(53)30(18-24-20-40-21-43-24)44-31(49)13-7-15-48/h1-5,8-11,19-21,27-30,42,48H,6-7,12-18H2,(H2,37,50)(H,40,43)(H,44,49)(H,45,52)(H,46,51)(H,47,53)(H4,38,39,41)/t27-,28-,29-,30-/m0/s1

>  <IUPAC Name>  (1) 
(2S)-N-[(2S)-1-amino-3-(1H-indol-3-yl)-1-oxopropan-2-yl]-5-(diaminomethylideneamino)-2-[[(2S)-2-[[(2S)-2-(4-hydroxybutanoylamino)-3-(1H-imidazol-5-yl)propanoyl]amino]-3-phenylpropanoyl]amino]pentanamide

$$$$
