
     RDKit          3D

 37 39  0  0  0  0  0  0  0  0999 V2000
   -1.2490    1.1909   -2.0856 C   0  0  0  0  0  0  0  0  0  0  0  0
   -2.1086    1.2286   -0.9325 N   0  0  0  0  0  0  0  0  0  0  0  0
   -2.8428    2.3375   -0.6202 C   0  0  0  0  0  0  0  0  0  0  0  0
   -3.5887    2.0751    0.5104 C   0  0  0  0  0  0  0  0  0  0  0  0
   -3.2738    0.7781    0.8581 C   0  0  0  0  0  0  0  0  0  0  0  0
   -2.3472    0.2562   -0.0485 C   0  0  0  0  0  0  0  0  0  0  0  0
   -1.8614   -1.1033    0.0479 C   0  0  0  0  0  0  0  0  0  0  0  0
   -2.8405   -2.1034    0.1116 C   0  0  0  0  0  0  0  0  0  0  0  0
   -2.5160   -3.4380    0.2119 C   0  0  0  0  0  0  0  0  0  0  0  0
   -1.1854   -3.8008    0.2507 C   0  0  0  0  0  0  0  0  0  0  0  0
   -0.2537   -2.8087    0.1881 C   0  0  0  0  0  0  0  0  0  0  0  0
   -0.5382   -1.4654    0.0886 C   0  0  0  0  0  0  0  0  0  0  0  0
    0.5002   -0.5043    0.0823 N   0  0  0  0  0  0  0  0  0  0  0  0
    1.8740   -0.9773    0.1134 C   0  0  0  0  0  0  0  0  0  0  0  0
    2.8596    0.1326    0.1030 C   0  0  0  0  0  0  0  0  0  0  0  0
    3.7661    0.3382   -0.7857 N   0  0  0  0  0  0  0  0  0  0  0  0
    4.5619    1.5060   -0.5013 C   0  0  0  0  0  0  0  0  0  0  0  0
    3.9720    2.1173    0.7325 C   0  0  0  0  0  0  0  0  0  0  0  0
    2.9451    1.1497    1.0950 N   0  0  0  0  0  0  0  0  0  0  0  0
   -0.3501    1.8248   -1.8398 H   0  0  0  0  0  0  0  0  0  0  0  0
   -1.7717    1.6845   -2.9303 H   0  0  0  0  0  0  0  0  0  0  0  0
   -0.9125    0.1904   -2.3592 H   0  0  0  0  0  0  0  0  0  0  0  0
   -2.8611    3.2803   -1.1482 H   0  0  0  0  0  0  0  0  0  0  0  0
   -4.2749    2.7695    1.0019 H   0  0  0  0  0  0  0  0  0  0  0  0
   -3.6998    0.2773    1.7089 H   0  0  0  0  0  0  0  0  0  0  0  0
   -3.8963   -1.8419    0.0827 H   0  0  0  0  0  0  0  0  0  0  0  0
   -3.2381   -4.2365    0.2633 H   0  0  0  0  0  0  0  0  0  0  0  0
   -0.9146   -4.8607    0.3297 H   0  0  0  0  0  0  0  0  0  0  0  0
    0.7971   -3.1134    0.2201 H   0  0  0  0  0  0  0  0  0  0  0  0
    0.3729    0.5246    0.0729 H   0  0  0  0  0  0  0  0  0  0  0  0
    2.0622   -1.6461   -0.7680 H   0  0  0  0  0  0  0  0  0  0  0  0
    1.9849   -1.6332    0.9917 H   0  0  0  0  0  0  0  0  0  0  0  0
    5.6271    1.2198   -0.3296 H   0  0  0  0  0  0  0  0  0  0  0  0
    4.5492    2.2072   -1.3752 H   0  0  0  0  0  0  0  0  0  0  0  0
    3.5713    3.1332    0.5719 H   0  0  0  0  0  0  0  0  0  0  0  0
    4.7076    2.0902    1.5784 H   0  0  0  0  0  0  0  0  0  0  0  0
    2.3733    1.2211    1.9626 H   0  0  0  0  0  0  0  0  0  0  0  0
  1  2  1  0
  2  3  1  0
  3  4  2  0
  4  5  1  0
  5  6  2  0
  6  7  1  0
  7  8  2  0
  8  9  1  0
  9 10  2  0
 10 11  1  0
 11 12  2  0
 12 13  1  0
 13 14  1  0
 14 15  1  0
 15 16  2  0
 16 17  1  0
 17 18  1  0
 18 19  1  0
  6  2  1  0
 12  7  1  0
 19 15  1  0
  1 20  1  0
  1 21  1  0
  1 22  1  0
  3 23  1  0
  4 24  1  0
  5 25  1  0
  8 26  1  0
  9 27  1  0
 10 28  1  0
 11 29  1  0
 13 30  1  0
 14 31  1  0
 14 32  1  0
 17 33  1  0
 17 34  1  0
 18 35  1  0
 18 36  1  0
 19 37  1  0
M  END
>  <Ligand ID>  (1) 
LIG0004576

>  <Ligand>  (1) 
CHEMBL17492

>  <SMILES>  (1) 
Cn1cccc1c1ccccc1NCC1=NCCN1

>  <CID>  (1) 
9859855.0

>  <ChEMBL ID>  (1) 
nan

>  <InChiKey>  (1) 
XSSNKDIFQCVNLK-UHFFFAOYSA-N

>  <InChi>  (1) 
InChI=1S/C15H18N4/c1-19-10-4-7-14(19)12-5-2-3-6-13(12)18-11-15-16-8-9-17-15/h2-7,10,18H,8-9,11H2,1H3,(H,16,17)

>  <IUPAC Name>  (1) 
N-(4,5-dihydro-1H-imidazol-2-ylmethyl)-2-(1-methylpyrrol-2-yl)aniline

$$$$
