
     RDKit          3D

 31 33  0  0  0  0  0  0  0  0999 V2000
    3.4677    0.6892    3.1111 F   0  0  0  0  0  0  0  0  0  0  0  0
    3.7670    0.9646    1.8058 C   0  0  0  0  0  0  0  0  0  0  0  0
    3.1180    0.0243    0.8530 C   0  0  0  0  0  0  0  0  0  0  0  0
    3.8092   -0.9917    0.2147 C   0  0  0  0  0  0  0  0  0  0  0  0
    3.1541   -1.8404   -0.6648 C   0  0  0  0  0  0  0  0  0  0  0  0
    1.8401   -1.6836   -0.9056 N   0  0  0  0  0  0  0  0  0  0  0  0
    1.1786   -0.7026   -0.2876 C   0  0  0  0  0  0  0  0  0  0  0  0
    1.7964    0.1314    0.5693 N   0  0  0  0  0  0  0  0  0  0  0  0
   -0.2174   -0.5211   -0.5312 N   0  0  0  0  0  0  0  0  0  0  0  0
   -1.0557   -1.3117   -1.4146 C   0  0  0  0  0  0  0  0  0  0  0  0
   -2.1070   -0.3081   -1.9066 C   0  0  0  0  0  0  0  0  0  0  0  0
   -1.7829    0.9945   -1.2081 C   0  0  2  0  0  0  0  0  0  0  0  0
   -1.0907    0.4768    0.0411 C   0  0  1  0  0  0  0  0  0  0  0  0
   -2.2645   -0.1055    0.7743 C   0  0  0  0  0  0  0  0  0  0  0  0
   -3.2632    0.9555    0.6308 N   0  0  0  0  0  0  0  0  0  0  0  0
   -2.9791    1.6567   -0.5937 C   0  0  0  0  0  0  0  0  0  0  0  0
    3.3146    2.2651    1.5434 F   0  0  0  0  0  0  0  0  0  0  0  0
    5.1291    0.9709    1.5736 F   0  0  0  0  0  0  0  0  0  0  0  0
    4.8629   -1.0909    0.4295 H   0  0  0  0  0  0  0  0  0  0  0  0
    3.6998   -2.6369   -1.1642 H   0  0  0  0  0  0  0  0  0  0  0  0
   -0.5564   -1.7027   -2.2971 H   0  0  0  0  0  0  0  0  0  0  0  0
   -1.5170   -2.1797   -0.9044 H   0  0  0  0  0  0  0  0  0  0  0  0
   -3.1275   -0.6620   -1.7167 H   0  0  0  0  0  0  0  0  0  0  0  0
   -2.0161   -0.1328   -2.9993 H   0  0  0  0  0  0  0  0  0  0  0  0
   -1.1576    1.6712   -1.8069 H   0  0  0  0  0  0  0  0  0  0  0  0
   -0.6031    1.2319    0.6426 H   0  0  0  0  0  0  0  0  0  0  0  0
   -2.6855   -0.9913    0.2866 H   0  0  0  0  0  0  0  0  0  0  0  0
   -2.0182   -0.2299    1.8324 H   0  0  0  0  0  0  0  0  0  0  0  0
   -4.2345    0.5795    0.6002 H   0  0  0  0  0  0  0  0  0  0  0  0
   -2.6422    2.6896   -0.3085 H   0  0  0  0  0  0  0  0  0  0  0  0
   -3.8190    1.7894   -1.2722 H   0  0  0  0  0  0  0  0  0  0  0  0
  1  2  1  0
  2  3  1  0
  3  4  2  0
  4  5  1  0
  5  6  2  0
  6  7  1  0
  7  8  2  0
  7  9  1  0
  9 10  1  0
 10 11  1  0
 11 12  1  0
 12 13  1  0
 13 14  1  0
 14 15  1  0
 15 16  1  0
  2 17  1  0
  2 18  1  0
  8  3  1  0
 13  9  1  0
 16 12  1  0
  4 19  1  0
  5 20  1  0
 10 21  1  0
 10 22  1  0
 11 23  1  0
 11 24  1  0
 12 25  1  6
 13 26  1  1
 14 27  1  0
 14 28  1  0
 15 29  1  0
 16 30  1  0
 16 31  1  0
M  END
>  <Ligand ID>  (1) 
LIG0003124

>  <Ligand>  (1) 
CHEMBL210802

>  <SMILES>  (1) 
FC(c1ccnc(n1)N1CC[C@@H]2[C@H]1CNC2)(F)F

>  <CID>  (1) 
24849050.0

>  <ChEMBL ID>  (1) 
nan

>  <InChiKey>  (1) 
LGUHTSNWHUTCTC-JGVFFNPUSA-N

>  <InChi>  (1) 
InChI=1S/C11H13F3N4/c12-11(13,14)9-1-3-16-10(17-9)18-4-2-7-5-15-6-8(7)18/h1,3,7-8,15H,2,4-6H2/t7-,8+/m0/s1

>  <IUPAC Name>  (1) 
(3aS,6aS)-1-[4-(trifluoromethyl)pyrimidin-2-yl]-3,3a,4,5,6,6a-hexahydro-2H-pyrrolo[2,3-c]pyrrole

$$$$
