
     RDKit          3D

 59 61  0  0  0  0  0  0  0  0999 V2000
   -9.4251    1.4128    0.7362 C   0  0  0  0  0  0  0  0  0  0  0  0
   -8.2961    0.4170    0.7298 C   0  0  0  0  0  0  0  0  0  0  0  0
   -7.3647    0.6702   -0.4391 C   0  0  0  0  0  0  0  0  0  0  0  0
   -6.2360   -0.3095   -0.4612 C   0  0  0  0  0  0  0  0  0  0  0  0
   -5.3006   -0.0484   -1.6435 C   0  0  0  0  0  0  0  0  0  0  0  0
   -4.1837   -1.0252   -1.6565 C   0  0  0  0  0  0  0  0  0  0  0  0
   -4.4154   -2.1414   -2.1954 O   0  0  0  0  0  0  0  0  0  0  0  0
   -2.8750   -0.7808   -1.1011 C   0  0  0  0  0  0  0  0  0  0  0  0
   -1.9352   -1.7799   -1.1854 C   0  0  0  0  0  0  0  0  0  0  0  0
   -0.6559   -1.6003   -0.6639 C   0  0  0  0  0  0  0  0  0  0  0  0
   -0.2779   -0.4203   -0.0438 C   0  0  0  0  0  0  0  0  0  0  0  0
   -1.2431    0.5646    0.0257 C   0  0  0  0  0  0  0  0  0  0  0  0
   -2.5165    0.4002   -0.4875 C   0  0  0  0  0  0  0  0  0  0  0  0
    1.0258   -0.2168    0.4977 N   0  0  0  0  0  0  0  0  0  0  0  0
    2.1217   -1.2161    0.4682 C   0  0  1  0  0  0  0  0  0  0  0  0
    2.9589   -0.8202   -0.7010 C   0  0  0  0  0  0  0  0  0  0  0  0
    4.1091   -1.6213   -1.1017 C   0  0  0  0  0  0  0  0  0  0  0  0
    5.3108   -1.8317   -0.2721 C   0  0  0  0  0  0  0  0  0  0  0  0
    6.0266   -0.6266    0.0117 C   0  0  0  0  0  0  0  0  0  0  0  0
    6.1054    0.3189    0.9606 C   0  0  0  0  0  0  0  0  0  0  0  0
    6.9761    1.3339    0.8556 C   0  0  0  0  0  0  0  0  0  0  0  0
    7.7881    1.3986   -0.2301 C   0  0  0  0  0  0  0  0  0  0  0  0
    7.3163   -0.0898   -1.2250 S   0  0  0  0  0  0  0  0  0  0  0  0
    8.8205    2.3296   -0.6597 C   0  0  0  0  0  0  0  0  0  0  0  0
    9.4268    2.1421   -1.7357 O   0  0  0  0  0  0  0  0  0  0  0  0
    9.0910    3.4012    0.1569 O   0  0  0  0  0  0  0  0  0  0  0  0
    2.6883   -0.9968    1.8321 C   0  0  0  0  0  0  0  0  0  0  0  0
    2.4445    0.4403    2.1909 C   0  0  0  0  0  0  0  0  0  0  0  0
    1.5199    0.9401    1.1424 C   0  0  0  0  0  0  0  0  0  0  0  0
    1.2008    2.1190    0.8405 O   0  0  0  0  0  0  0  0  0  0  0  0
   -9.8415    1.5098    1.7737 H   0  0  0  0  0  0  0  0  0  0  0  0
   -9.0367    2.3912    0.3629 H   0  0  0  0  0  0  0  0  0  0  0  0
  -10.2680    1.0790    0.0962 H   0  0  0  0  0  0  0  0  0  0  0  0
   -7.7341    0.5871    1.6931 H   0  0  0  0  0  0  0  0  0  0  0  0
   -8.6704   -0.6148    0.7710 H   0  0  0  0  0  0  0  0  0  0  0  0
   -7.9667    0.4959   -1.3717 H   0  0  0  0  0  0  0  0  0  0  0  0
   -7.0359    1.7084   -0.4103 H   0  0  0  0  0  0  0  0  0  0  0  0
   -6.6676   -1.3383   -0.6199 H   0  0  0  0  0  0  0  0  0  0  0  0
   -5.6593   -0.3579    0.4745 H   0  0  0  0  0  0  0  0  0  0  0  0
   -4.8641    0.9666   -1.5777 H   0  0  0  0  0  0  0  0  0  0  0  0
   -5.8820   -0.0885   -2.5944 H   0  0  0  0  0  0  0  0  0  0  0  0
   -2.1739   -2.7380   -1.6647 H   0  0  0  0  0  0  0  0  0  0  0  0
    0.0218   -2.4163   -0.7654 H   0  0  0  0  0  0  0  0  0  0  0  0
   -1.0278    1.5172    0.4949 H   0  0  0  0  0  0  0  0  0  0  0  0
   -3.2252    1.2027   -0.4029 H   0  0  0  0  0  0  0  0  0  0  0  0
    1.6873   -2.2356    0.3470 H   0  0  0  0  0  0  0  0  0  0  0  0
    3.2952    0.2599   -0.6068 H   0  0  0  0  0  0  0  0  0  0  0  0
    2.2738   -0.7452   -1.6167 H   0  0  0  0  0  0  0  0  0  0  0  0
    3.7625   -2.6172   -1.5568 H   0  0  0  0  0  0  0  0  0  0  0  0
    4.5046   -1.1178   -2.0673 H   0  0  0  0  0  0  0  0  0  0  0  0
    5.1703   -2.4359    0.6533 H   0  0  0  0  0  0  0  0  0  0  0  0
    5.9845   -2.5272   -0.8934 H   0  0  0  0  0  0  0  0  0  0  0  0
    5.4386    0.2450    1.8672 H   0  0  0  0  0  0  0  0  0  0  0  0
    7.0513    2.1299    1.6402 H   0  0  0  0  0  0  0  0  0  0  0  0
    9.7711    4.1317   -0.0978 H   0  0  0  0  0  0  0  0  0  0  0  0
    1.9989   -1.6242    2.5144 H   0  0  0  0  0  0  0  0  0  0  0  0
    3.7216   -1.3154    1.9908 H   0  0  0  0  0  0  0  0  0  0  0  0
    3.3315    1.0672    2.3016 H   0  0  0  0  0  0  0  0  0  0  0  0
    1.8347    0.5170    3.1501 H   0  0  0  0  0  0  0  0  0  0  0  0
  1  2  1  0
  2  3  1  0
  3  4  1  0
  4  5  1  0
  5  6  1  0
  6  7  2  0
  6  8  1  0
  8  9  2  0
  9 10  1  0
 10 11  2  0
 11 12  1  0
 12 13  2  0
 11 14  1  0
 14 15  1  0
 15 16  1  0
 16 17  1  0
 17 18  1  0
 18 19  1  0
 19 20  2  0
 20 21  1  0
 21 22  2  0
 22 23  1  0
 22 24  1  0
 24 25  2  0
 24 26  1  0
 15 27  1  0
 27 28  1  0
 28 29  1  0
 29 30  2  0
 13  8  1  0
 29 14  1  0
 23 19  1  0
  1 31  1  0
  1 32  1  0
  1 33  1  0
  2 34  1  0
  2 35  1  0
  3 36  1  0
  3 37  1  0
  4 38  1  0
  4 39  1  0
  5 40  1  0
  5 41  1  0
  9 42  1  0
 10 43  1  0
 12 44  1  0
 13 45  1  0
 15 46  1  6
 16 47  1  0
 16 48  1  0
 17 49  1  0
 17 50  1  0
 18 51  1  0
 18 52  1  0
 20 53  1  0
 21 54  1  0
 26 55  1  0
 27 56  1  0
 27 57  1  0
 28 58  1  0
 28 59  1  0
M  END
>  <Ligand ID>  (1) 
LIG0001869

>  <Ligand>  (1) 
SCHEMBL1310512

>  <SMILES>  (1) 
CCCCCC(=O)c1ccc(cc1)N1[C@@H](CCCc2ccc(s2)C(=O)O)CCC1=O

>  <CID>  (1) 
11855870.0

>  <ChEMBL ID>  (1) 
nan

>  <InChiKey>  (1) 
IIIMTHLYWCQJTA-SFHVURJKSA-N

>  <InChi>  (1) 
InChI=1S/C24H29NO4S/c1-2-3-4-8-21(26)17-9-11-19(12-10-17)25-18(13-16-23(25)27)6-5-7-20-14-15-22(30-20)24(28)29/h9-12,14-15,18H,2-8,13,16H2,1H3,(H,28,29)/t18-/m0/s1

>  <IUPAC Name>  (1) 
5-[3-[(2S)-1-(4-hexanoylphenyl)-5-oxopyrrolidin-2-yl]propyl]thiophene-2-carboxylic acid

$$$$
