
     RDKit          3D

 77 79  0  0  0  0  0  0  0  0999 V2000
   -9.9664    1.2680    1.8018 O   0  0  0  0  0  0  0  0  0  0  0  0
   -9.3032    2.1965    0.9761 C   0  0  0  0  0  0  0  0  0  0  0  0
   -7.8878    1.7746    0.8619 C   0  0  0  0  0  0  0  0  0  0  0  0
   -7.4049    1.1596   -0.2854 C   0  0  0  0  0  0  0  0  0  0  0  0
   -6.0722    0.7990   -0.3049 C   0  0  0  0  0  0  0  0  0  0  0  0
   -5.2144    1.0226    0.7557 C   0  0  0  0  0  0  0  0  0  0  0  0
   -5.6955    1.6337    1.8947 C   0  0  0  0  0  0  0  0  0  0  0  0
   -7.0388    2.0045    1.9318 C   0  0  0  0  0  0  0  0  0  0  0  0
   -7.5052    2.6232    3.0977 O   0  0  0  0  0  0  0  0  0  0  0  0
   -5.4542    0.1283   -1.5037 C   0  0  2  0  0  0  0  0  0  0  0  0
   -5.4389   -1.3750   -1.3162 C   0  0  0  0  0  0  0  0  0  0  0  0
   -4.9956   -2.1336   -2.3705 N   0  0  0  0  0  0  0  0  0  0  0  0
   -3.7165   -2.3066   -2.8483 C   0  0  0  0  0  0  0  0  0  0  0  0
   -2.7385   -3.1352   -2.1006 C   0  0  0  0  0  0  0  0  0  0  0  0
   -2.3155   -2.7691   -0.7426 C   0  0  0  0  0  0  0  0  0  0  0  0
   -1.5969   -1.4546   -0.5919 C   0  0  0  0  0  0  0  0  0  0  0  0
   -1.2018   -1.1671    0.8529 C   0  0  0  0  0  0  0  0  0  0  0  0
   -0.5040    0.1653    0.8487 C   0  0  0  0  0  0  0  0  0  0  0  0
    0.5961    0.1298    0.0276 O   0  0  0  0  0  0  0  0  0  0  0  0
    1.5590   -0.7783    0.4091 C   0  0  0  0  0  0  0  0  0  0  0  0
    2.7241   -0.6932   -0.5704 C   0  0  0  0  0  0  0  0  0  0  0  0
    3.8381   -1.6258   -0.2433 C   0  0  0  0  0  0  0  0  0  0  0  0
    4.4980   -1.3822    1.0922 C   0  0  0  0  0  0  0  0  0  0  0  0
    5.1138   -0.0358    1.1704 C   0  0  0  0  0  0  0  0  0  0  0  0
    4.4812    1.0856    1.6444 C   0  0  0  0  0  0  0  0  0  0  0  0
    5.1853    2.2864    1.6480 C   0  0  0  0  0  0  0  0  0  0  0  0
    6.4929    2.3668    1.1887 C   0  0  0  0  0  0  0  0  0  0  0  0
    7.1318    1.2362    0.7104 C   0  0  0  0  0  0  0  0  0  0  0  0
    6.4313    0.0621    0.7113 C   0  0  0  0  0  0  0  0  0  0  0  0
    8.4723    1.2747    0.2271 N   0  0  0  0  0  0  0  0  0  0  0  0
    9.4914    1.8047    0.9275 C   0  0  0  0  0  0  0  0  0  0  0  0
   10.7494    1.7914    0.3667 C   0  0  0  0  0  0  0  0  0  0  0  0
   10.9440    1.2423   -0.8877 C   0  0  0  0  0  0  0  0  0  0  0  0
   12.0788    1.2070   -1.4434 O   0  0  0  0  0  0  0  0  0  0  0  0
    9.8986    0.7206   -1.5588 N   0  0  0  0  0  0  0  0  0  0  0  0
    8.6707    0.7337   -1.0114 C   0  0  0  0  0  0  0  0  0  0  0  0
    7.7050    0.2410   -1.6541 O   0  0  0  0  0  0  0  0  0  0  0  0
   -4.2373    0.6886   -1.7916 O   0  0  0  0  0  0  0  0  0  0  0  0
  -10.2651    0.5296    1.2195 H   0  0  0  0  0  0  0  0  0  0  0  0
   -9.7309    2.1758   -0.0490 H   0  0  0  0  0  0  0  0  0  0  0  0
   -9.3624    3.2169    1.4002 H   0  0  0  0  0  0  0  0  0  0  0  0
   -8.0445    0.9681   -1.1333 H   0  0  0  0  0  0  0  0  0  0  0  0
   -4.1808    0.7315    0.7140 H   0  0  0  0  0  0  0  0  0  0  0  0
   -5.0542    1.8251    2.7439 H   0  0  0  0  0  0  0  0  0  0  0  0
   -8.5272    2.7367    3.1980 H   0  0  0  0  0  0  0  0  0  0  0  0
   -6.1011    0.3025   -2.4119 H   0  0  0  0  0  0  0  0  0  0  0  0
   -6.5429   -1.6279   -1.1414 H   0  0  0  0  0  0  0  0  0  0  0  0
   -4.9694   -1.5643   -0.3203 H   0  0  0  0  0  0  0  0  0  0  0  0
   -5.6946   -2.7645   -2.7780 H   0  0  0  0  0  0  0  0  0  0  0  0
   -3.8011   -2.8118   -3.8759 H   0  0  0  0  0  0  0  0  0  0  0  0
   -3.2722   -1.3064   -3.1445 H   0  0  0  0  0  0  0  0  0  0  0  0
   -1.7940   -3.2768   -2.7285 H   0  0  0  0  0  0  0  0  0  0  0  0
   -3.1947   -4.1713   -2.0327 H   0  0  0  0  0  0  0  0  0  0  0  0
   -3.0942   -2.9081    0.0465 H   0  0  0  0  0  0  0  0  0  0  0  0
   -1.5313   -3.5432   -0.4217 H   0  0  0  0  0  0  0  0  0  0  0  0
   -0.6565   -1.5656   -1.2175 H   0  0  0  0  0  0  0  0  0  0  0  0
   -2.1191   -0.5822   -0.9467 H   0  0  0  0  0  0  0  0  0  0  0  0
   -2.1320   -1.1304    1.4947 H   0  0  0  0  0  0  0  0  0  0  0  0
   -0.5228   -1.9450    1.2167 H   0  0  0  0  0  0  0  0  0  0  0  0
   -0.2437    0.4942    1.8861 H   0  0  0  0  0  0  0  0  0  0  0  0
   -1.2445    0.8929    0.4018 H   0  0  0  0  0  0  0  0  0  0  0  0
    1.1833   -1.8388    0.2832 H   0  0  0  0  0  0  0  0  0  0  0  0
    1.8416   -0.5816    1.4531 H   0  0  0  0  0  0  0  0  0  0  0  0
    3.1169    0.3307   -0.6718 H   0  0  0  0  0  0  0  0  0  0  0  0
    2.2973   -0.9799   -1.5539 H   0  0  0  0  0  0  0  0  0  0  0  0
    4.5574   -1.6311   -1.0756 H   0  0  0  0  0  0  0  0  0  0  0  0
    3.3910   -2.6582   -0.2277 H   0  0  0  0  0  0  0  0  0  0  0  0
    5.2857   -2.1498    1.2363 H   0  0  0  0  0  0  0  0  0  0  0  0
    3.8125   -1.4785    1.9347 H   0  0  0  0  0  0  0  0  0  0  0  0
    3.4672    1.0320    2.0052 H   0  0  0  0  0  0  0  0  0  0  0  0
    4.7241    3.2158    2.0178 H   0  0  0  0  0  0  0  0  0  0  0  0
    7.0024    3.3243    1.2105 H   0  0  0  0  0  0  0  0  0  0  0  0
    6.9478   -0.8215    0.3313 H   0  0  0  0  0  0  0  0  0  0  0  0
    9.2825    2.2259    1.9149 H   0  0  0  0  0  0  0  0  0  0  0  0
   11.5653    2.2109    0.9168 H   0  0  0  0  0  0  0  0  0  0  0  0
   10.0064    0.2919   -2.5198 H   0  0  0  0  0  0  0  0  0  0  0  0
   -4.1760    1.5647   -1.2948 H   0  0  0  0  0  0  0  0  0  0  0  0
  1  2  1  0
  2  3  1  0
  3  4  2  0
  4  5  1  0
  5  6  2  0
  6  7  1  0
  7  8  2  0
  8  9  1  0
  5 10  1  0
 10 11  1  0
 11 12  1  0
 12 13  1  0
 13 14  1  0
 14 15  1  0
 15 16  1  0
 16 17  1  0
 17 18  1  0
 18 19  1  0
 19 20  1  0
 20 21  1  0
 21 22  1  0
 22 23  1  0
 23 24  1  0
 24 25  2  0
 25 26  1  0
 26 27  2  0
 27 28  1  0
 28 29  2  0
 28 30  1  0
 30 31  1  0
 31 32  2  0
 32 33  1  0
 33 34  2  0
 33 35  1  0
 35 36  1  0
 36 37  2  0
 10 38  1  0
  8  3  1  0
 29 24  1  0
 36 30  1  0
  1 39  1  0
  2 40  1  0
  2 41  1  0
  4 42  1  0
  6 43  1  0
  7 44  1  0
  9 45  1  0
 10 46  1  6
 11 47  1  0
 11 48  1  0
 12 49  1  0
 13 50  1  0
 13 51  1  0
 14 52  1  0
 14 53  1  0
 15 54  1  0
 15 55  1  0
 16 56  1  0
 16 57  1  0
 17 58  1  0
 17 59  1  0
 18 60  1  0
 18 61  1  0
 20 62  1  0
 20 63  1  0
 21 64  1  0
 21 65  1  0
 22 66  1  0
 22 67  1  0
 23 68  1  0
 23 69  1  0
 25 70  1  0
 26 71  1  0
 27 72  1  0
 29 73  1  0
 31 74  1  0
 32 75  1  0
 35 76  1  0
 38 77  1  0
M  END
>  <Ligand ID>  (1) 
LIG0002514

>  <Ligand>  (1) 
CHEMBL1814267

>  <SMILES>  (1) 
OCc1cc(ccc1O)[C@H](CNCCCCCCOCCCCc1cccc(c1)n1ccc(=O)[nH]c1=O)O

>  <CID>  (1) 
9893058.0

>  <ChEMBL ID>  (1) 
nan

>  <InChiKey>  (1) 
DWUKMTAUBDSZSA-MHZLTWQESA-N

>  <InChi>  (1) 
InChI=1S/C29H39N3O6/c33-21-24-19-23(11-12-26(24)34)27(35)20-30-14-4-1-2-5-16-38-17-6-3-8-22-9-7-10-25(18-22)32-15-13-28(36)31-29(32)37/h7,9-13,15,18-19,27,30,33-35H,1-6,8,14,16-17,20-21H2,(H,31,36,37)/t27-/m0/s1

>  <IUPAC Name>  (1) 
1-[3-[4-[6-[[(2R)-2-hydroxy-2-[4-hydroxy-3-(hydroxymethyl)phenyl]ethyl]amino]hexoxy]butyl]phenyl]pyrimidine-2,4-dione

$$$$
