
     RDKit          3D

 28 27  0  0  0  0  0  0  0  0999 V2000
    3.7819    0.5024   -0.1915 C   0  0  0  0  0  0  0  0  0  0  0  0
    2.2695    0.6450   -0.2166 C   0  0  0  0  0  0  0  0  0  0  0  0
    1.7465    0.2082    1.1111 C   0  0  0  0  0  0  0  0  0  0  0  0
    0.2361    0.3069    1.2088 C   0  0  0  0  0  0  0  0  0  0  0  0
   -0.4586   -0.5378    0.1916 C   0  0  0  0  0  0  0  0  0  0  0  0
   -1.9443   -0.5082    0.2179 C   0  0  0  0  0  0  0  0  0  0  0  0
   -2.5726    0.8426   -0.0048 C   0  0  0  0  0  0  0  0  0  0  0  0
   -2.2388    1.8048    0.9105 O   0  0  0  0  0  0  0  0  0  0  0  0
   -2.5007   -1.4060   -0.8952 C   0  0  0  0  0  0  0  0  0  0  0  0
    0.0572   -2.2792    0.3720 S   0  0  0  0  0  0  0  0  0  0  0  0
    4.1154   -0.1726   -1.0294 H   0  0  0  0  0  0  0  0  0  0  0  0
    4.1417    0.1286    0.7861 H   0  0  0  0  0  0  0  0  0  0  0  0
    4.2988    1.4740   -0.3374 H   0  0  0  0  0  0  0  0  0  0  0  0
    1.8753    0.0623   -1.0710 H   0  0  0  0  0  0  0  0  0  0  0  0
    2.0603    1.7265   -0.3774 H   0  0  0  0  0  0  0  0  0  0  0  0
    2.1787    0.8829    1.8787 H   0  0  0  0  0  0  0  0  0  0  0  0
    2.1171   -0.8013    1.3316 H   0  0  0  0  0  0  0  0  0  0  0  0
   -0.0781    0.0631    2.2436 H   0  0  0  0  0  0  0  0  0  0  0  0
    0.0175    1.3906    1.0602 H   0  0  0  0  0  0  0  0  0  0  0  0
   -0.1337   -0.1536   -0.8156 H   0  0  0  0  0  0  0  0  0  0  0  0
   -2.3584   -0.8856    1.1978 H   0  0  0  0  0  0  0  0  0  0  0  0
   -3.6854    0.6649    0.0664 H   0  0  0  0  0  0  0  0  0  0  0  0
   -2.4171    1.1648   -1.0607 H   0  0  0  0  0  0  0  0  0  0  0  0
   -2.9545    2.4764    1.0013 H   0  0  0  0  0  0  0  0  0  0  0  0
   -1.8308   -2.2766   -1.0539 H   0  0  0  0  0  0  0  0  0  0  0  0
   -3.5311   -1.7329   -0.6381 H   0  0  0  0  0  0  0  0  0  0  0  0
   -2.5787   -0.7759   -1.8038 H   0  0  0  0  0  0  0  0  0  0  0  0
    0.3869   -2.8143   -0.8803 H   0  0  0  0  0  0  0  0  0  0  0  0
  1  2  1  0
  2  3  1  0
  3  4  1  0
  4  5  1  0
  5  6  1  0
  6  7  1  0
  7  8  1  0
  6  9  1  0
  5 10  1  0
  1 11  1  0
  1 12  1  0
  1 13  1  0
  2 14  1  0
  2 15  1  0
  3 16  1  0
  3 17  1  0
  4 18  1  0
  4 19  1  0
  5 20  1  0
  6 21  1  0
  7 22  1  0
  7 23  1  0
  8 24  1  0
  9 25  1  0
  9 26  1  0
  9 27  1  0
 10 28  1  0
M  END
>  <Ligand ID>  (1) 
LIG0000059

>  <Ligand>  (1) 
2-methyl-3-sulfanylheptan-1-ol

>  <SMILES>  (1) 
CCCCC(C(CO)C)S

>  <CID>  (1) 
21997288.0

>  <ChEMBL ID>  (1) 
nan

>  <InChiKey>  (1) 
OCZSUTGSYBERRF-UHFFFAOYSA-N

>  <InChi>  (1) 
InChI=1S/C8H18OS/c1-3-4-5-8(10)7(2)6-9/h7-10H,3-6H2,1-2H3

>  <IUPAC Name>  (1) 
2-methyl-3-sulfanylheptan-1-ol

$$$$
