
     RDKit          3D

 64 65  0  0  0  0  0  0  0  0999 V2000
    8.8300    1.7086   -2.6962 C   0  0  0  0  0  0  0  0  0  0  0  0
    7.5440    1.6666   -2.1122 O   0  0  0  0  0  0  0  0  0  0  0  0
    7.1923    0.6595   -1.2240 C   0  0  0  0  0  0  0  0  0  0  0  0
    8.1179   -0.3096   -0.9133 C   0  0  0  0  0  0  0  0  0  0  0  0
    7.7813   -1.3143   -0.0333 C   0  0  0  0  0  0  0  0  0  0  0  0
    6.5344   -1.3529    0.5320 C   0  0  0  0  0  0  0  0  0  0  0  0
    5.6310   -0.3670    0.1998 C   0  0  0  0  0  0  0  0  0  0  0  0
    5.9026    0.6630   -0.6713 C   0  0  0  0  0  0  0  0  0  0  0  0
    5.0720    1.6563   -1.0431 O   0  0  0  0  0  0  0  0  0  0  0  0
    3.7715    1.9681   -0.7367 C   0  0  0  0  0  0  0  0  0  0  0  0
    2.7768    0.9431   -1.1492 C   0  0  0  0  0  0  0  0  0  0  0  0
    1.3526    1.3226   -0.7888 C   0  0  0  0  0  0  0  0  0  0  0  0
    1.1489    1.5135    0.6667 C   0  0  0  0  0  0  0  0  0  0  0  0
   -0.1521    1.8584    0.9703 O   0  0  0  0  0  0  0  0  0  0  0  0
   -1.3491    1.2441    0.8386 C   0  0  0  0  0  0  0  0  0  0  0  0
   -1.6054   -0.0047    0.3395 C   0  0  0  0  0  0  0  0  0  0  0  0
   -2.8950   -0.5366    0.2546 C   0  0  0  0  0  0  0  0  0  0  0  0
   -3.9805    0.1943    0.6812 C   0  0  0  0  0  0  0  0  0  0  0  0
   -3.7451    1.4525    1.1873 C   0  0  0  0  0  0  0  0  0  0  0  0
   -2.4760    1.9658    1.2662 C   0  0  0  0  0  0  0  0  0  0  0  0
   -2.3046    3.3490    1.8316 C   0  0  0  0  0  0  0  0  0  0  0  0
   -4.8224    2.2033    1.6217 O   0  0  0  0  0  0  0  0  0  0  0  0
   -5.3406   -0.3188    0.6122 C   0  0  0  0  0  0  0  0  0  0  0  0
   -6.2747    0.4182    1.0249 O   0  0  0  0  0  0  0  0  0  0  0  0
   -5.5766   -1.6851    0.0608 C   0  0  0  0  0  0  0  0  0  0  0  0
   -7.0556   -2.0017    0.0896 C   0  0  0  0  0  0  0  0  0  0  0  0
   -7.7651   -0.9774   -0.7501 C   0  0  0  0  0  0  0  0  0  0  0  0
   -7.2514   -3.3669   -0.5343 C   0  0  0  0  0  0  0  0  0  0  0  0
   -7.5061   -2.0367    1.5191 C   0  0  0  0  0  0  0  0  0  0  0  0
    6.1513   -2.4149    1.4738 C   0  0  0  0  0  0  0  0  0  0  0  0
    4.9992   -2.4385    1.9874 O   0  0  0  0  0  0  0  0  0  0  0  0
    7.0880   -3.3918    1.7847 O   0  0  0  0  0  0  0  0  0  0  0  0
    8.7551    2.3733   -3.5938 H   0  0  0  0  0  0  0  0  0  0  0  0
    9.1630    0.7194   -3.0632 H   0  0  0  0  0  0  0  0  0  0  0  0
    9.5991    2.1349   -1.9971 H   0  0  0  0  0  0  0  0  0  0  0  0
    9.1169   -0.3389   -1.3220 H   0  0  0  0  0  0  0  0  0  0  0  0
    8.4983   -2.0760    0.2148 H   0  0  0  0  0  0  0  0  0  0  0  0
    4.6641   -0.4221    0.6717 H   0  0  0  0  0  0  0  0  0  0  0  0
    3.6959    2.0416    0.3929 H   0  0  0  0  0  0  0  0  0  0  0  0
    3.4741    3.0069   -1.0550 H   0  0  0  0  0  0  0  0  0  0  0  0
    2.9731   -0.0898   -0.8856 H   0  0  0  0  0  0  0  0  0  0  0  0
    2.7770    0.9545   -2.2846 H   0  0  0  0  0  0  0  0  0  0  0  0
    0.7160    0.5399   -1.1959 H   0  0  0  0  0  0  0  0  0  0  0  0
    1.0805    2.2640   -1.3233 H   0  0  0  0  0  0  0  0  0  0  0  0
    1.4077    0.5982    1.2669 H   0  0  0  0  0  0  0  0  0  0  0  0
    1.8065    2.3019    1.1067 H   0  0  0  0  0  0  0  0  0  0  0  0
   -0.8202   -0.6361    0.0047 H   0  0  0  0  0  0  0  0  0  0  0  0
   -3.0696   -1.5333   -0.1476 H   0  0  0  0  0  0  0  0  0  0  0  0
   -1.2327    3.5354    2.0684 H   0  0  0  0  0  0  0  0  0  0  0  0
   -2.9140    3.4464    2.7431 H   0  0  0  0  0  0  0  0  0  0  0  0
   -2.5764    4.1096    1.0775 H   0  0  0  0  0  0  0  0  0  0  0  0
   -4.7940    2.6951    2.4897 H   0  0  0  0  0  0  0  0  0  0  0  0
   -5.2169   -1.8018   -0.9697 H   0  0  0  0  0  0  0  0  0  0  0  0
   -5.0652   -2.4467    0.6858 H   0  0  0  0  0  0  0  0  0  0  0  0
   -8.3871   -0.3560   -0.0463 H   0  0  0  0  0  0  0  0  0  0  0  0
   -8.4154   -1.4346   -1.5243 H   0  0  0  0  0  0  0  0  0  0  0  0
   -7.0688   -0.2942   -1.2393 H   0  0  0  0  0  0  0  0  0  0  0  0
   -6.3319   -3.9671   -0.4442 H   0  0  0  0  0  0  0  0  0  0  0  0
   -8.1092   -3.9045   -0.1088 H   0  0  0  0  0  0  0  0  0  0  0  0
   -7.4662   -3.2350   -1.6250 H   0  0  0  0  0  0  0  0  0  0  0  0
   -7.5753   -3.1097    1.8528 H   0  0  0  0  0  0  0  0  0  0  0  0
   -8.5427   -1.6190    1.6260 H   0  0  0  0  0  0  0  0  0  0  0  0
   -6.7960   -1.5278    2.2071 H   0  0  0  0  0  0  0  0  0  0  0  0
    6.8609   -4.1981    2.3564 H   0  0  0  0  0  0  0  0  0  0  0  0
  1  2  1  0
  2  3  1  0
  3  4  2  0
  4  5  1  0
  5  6  2  0
  6  7  1  0
  7  8  2  0
  8  9  1  0
  9 10  1  0
 10 11  1  0
 11 12  1  0
 12 13  1  0
 13 14  1  0
 14 15  1  0
 15 16  2  0
 16 17  1  0
 17 18  2  0
 18 19  1  0
 19 20  2  0
 20 21  1  0
 19 22  1  0
 18 23  1  0
 23 24  2  0
 23 25  1  0
 25 26  1  0
 26 27  1  0
 26 28  1  0
 26 29  1  0
  6 30  1  0
 30 31  2  0
 30 32  1  0
  8  3  1  0
 20 15  1  0
  1 33  1  0
  1 34  1  0
  1 35  1  0
  4 36  1  0
  5 37  1  0
  7 38  1  0
 10 39  1  0
 10 40  1  0
 11 41  1  0
 11 42  1  0
 12 43  1  0
 12 44  1  0
 13 45  1  0
 13 46  1  0
 16 47  1  0
 17 48  1  0
 21 49  1  0
 21 50  1  0
 21 51  1  0
 22 52  1  0
 25 53  1  0
 25 54  1  0
 27 55  1  0
 27 56  1  0
 27 57  1  0
 28 58  1  0
 28 59  1  0
 28 60  1  0
 29 61  1  0
 29 62  1  0
 29 63  1  0
 32 64  1  0
M  END
>  <Ligand ID>  (1) 
LIG0003637

>  <Ligand>  (1) 
CHEMBL3287723

>  <SMILES>  (1) 
COc1ccc(cc1OCCCCOc1ccc(c(c1C)O)C(=O)CC(C)(C)C)C(=O)O

>  <CID>  (1) 
90643887.0

>  <ChEMBL ID>  (1) 
nan

>  <InChiKey>  (1) 
AOYJKNKRKBOUAP-UHFFFAOYSA-N

>  <InChi>  (1) 
InChI=1S/C25H32O7/c1-16-20(11-9-18(23(16)27)19(26)15-25(2,3)4)31-12-6-7-13-32-22-14-17(24(28)29)8-10-21(22)30-5/h8-11,14,27H,6-7,12-13,15H2,1-5H3,(H,28,29)

>  <IUPAC Name>  (1) 
3-[4-[4-(3,3-dimethylbutanoyl)-3-hydroxy-2-methylphenoxy]butoxy]-4-methoxybenzoic acid

$$$$
