
     RDKit          3D

 36 35  0  0  0  0  0  0  0  0999 V2000
   -4.8553   -0.5882    0.8532 C   0  0  0  0  0  0  0  0  0  0  0  0
   -4.6351    0.9087    0.7806 C   0  0  0  0  0  0  0  0  0  0  0  0
   -3.1300    1.1049    0.5278 C   0  0  0  0  0  0  0  0  0  0  0  0
   -2.7391    0.4399   -0.7615 C   0  0  0  0  0  0  0  0  0  0  0  0
   -1.2712    0.6255   -1.0419 C   0  0  0  0  0  0  0  0  0  0  0  0
   -0.4453    0.0302    0.0497 C   0  0  0  0  0  0  0  0  0  0  0  0
    1.0578    0.2058   -0.2345 C   0  0  0  0  0  0  0  0  0  0  0  0
    1.8363   -0.4112    0.8955 C   0  0  0  0  0  0  0  0  0  0  0  0
    3.3213   -0.3038    0.7581 C   0  0  0  0  0  0  0  0  0  0  0  0
    3.7598   -1.0052   -0.5029 C   0  0  0  0  0  0  0  0  0  0  0  0
    5.2699   -0.9185   -0.6513 C   0  0  0  0  0  0  0  0  0  0  0  0
    5.6858    0.4033   -0.7180 O   0  0  0  0  0  0  0  0  0  0  0  0
   -3.9518   -1.0411    1.3092 H   0  0  0  0  0  0  0  0  0  0  0  0
   -5.1329   -1.0289   -0.1263 H   0  0  0  0  0  0  0  0  0  0  0  0
   -5.6937   -0.7182    1.5985 H   0  0  0  0  0  0  0  0  0  0  0  0
   -4.8915    1.4153    1.7141 H   0  0  0  0  0  0  0  0  0  0  0  0
   -5.1674    1.3713   -0.0894 H   0  0  0  0  0  0  0  0  0  0  0  0
   -2.8761    2.1579    0.5800 H   0  0  0  0  0  0  0  0  0  0  0  0
   -2.6037    0.5728    1.3705 H   0  0  0  0  0  0  0  0  0  0  0  0
   -2.9053   -0.6688   -0.7074 H   0  0  0  0  0  0  0  0  0  0  0  0
   -3.3752    0.7795   -1.6046 H   0  0  0  0  0  0  0  0  0  0  0  0
   -1.0168    0.2484   -2.0434 H   0  0  0  0  0  0  0  0  0  0  0  0
   -1.0794    1.7370   -1.0198 H   0  0  0  0  0  0  0  0  0  0  0  0
   -0.6470   -1.0518    0.1876 H   0  0  0  0  0  0  0  0  0  0  0  0
   -0.6283    0.5210    1.0317 H   0  0  0  0  0  0  0  0  0  0  0  0
    1.2913    1.2915   -0.2719 H   0  0  0  0  0  0  0  0  0  0  0  0
    1.3115   -0.2105   -1.2177 H   0  0  0  0  0  0  0  0  0  0  0  0
    1.5874   -1.5055    0.9703 H   0  0  0  0  0  0  0  0  0  0  0  0
    1.4728    0.0443    1.8617 H   0  0  0  0  0  0  0  0  0  0  0  0
    3.8289   -0.7875    1.6085 H   0  0  0  0  0  0  0  0  0  0  0  0
    3.6591    0.7624    0.6567 H   0  0  0  0  0  0  0  0  0  0  0  0
    3.2826   -0.4565   -1.3622 H   0  0  0  0  0  0  0  0  0  0  0  0
    3.4383   -2.0574   -0.4485 H   0  0  0  0  0  0  0  0  0  0  0  0
    5.5268   -1.3955   -1.6325 H   0  0  0  0  0  0  0  0  0  0  0  0
    5.7700   -1.4841    0.1337 H   0  0  0  0  0  0  0  0  0  0  0  0
    4.9456    1.0131   -0.9717 H   0  0  0  0  0  0  0  0  0  0  0  0
  1  2  1  0
  2  3  1  0
  3  4  1  0
  4  5  1  0
  5  6  1  0
  6  7  1  0
  7  8  1  0
  8  9  1  0
  9 10  1  0
 10 11  1  0
 11 12  1  0
  1 13  1  0
  1 14  1  0
  1 15  1  0
  2 16  1  0
  2 17  1  0
  3 18  1  0
  3 19  1  0
  4 20  1  0
  4 21  1  0
  5 22  1  0
  5 23  1  0
  6 24  1  0
  6 25  1  0
  7 26  1  0
  7 27  1  0
  8 28  1  0
  8 29  1  0
  9 30  1  0
  9 31  1  0
 10 32  1  0
 10 33  1  0
 11 34  1  0
 11 35  1  0
 12 36  1  0
M  END
>  <Ligand ID>  (1) 
LIG0000191

>  <Ligand>  (1) 
1-Undecanol

>  <SMILES>  (1) 
CCCCCCCCCCCO

>  <CID>  (1) 
8184.0

>  <ChEMBL ID>  (1) 
nan

>  <InChiKey>  (1) 
KJIOQYGWTQBHNH-UHFFFAOYSA-N

>  <InChi>  (1) 
InChI=1S/C11H24O/c1-2-3-4-5-6-7-8-9-10-11-12/h12H,2-11H2,1H3

>  <IUPAC Name>  (1) 
undecan-1-ol

$$$$
