
     RDKit          3D

 45 49  0  0  0  0  0  0  0  0999 V2000
   -6.8916    0.7540    0.6000 C   0  0  0  0  0  0  0  0  0  0  0  0
   -6.1805    1.8387    0.1699 C   0  0  0  0  0  0  0  0  0  0  0  0
   -4.9227    1.6365   -0.3401 C   0  0  0  0  0  0  0  0  0  0  0  0
   -4.3529    0.3665   -0.4318 C   0  0  0  0  0  0  0  0  0  0  0  0
   -5.0750   -0.7325    0.0046 C   0  0  0  0  0  0  0  0  0  0  0  0
   -6.3441   -0.5121    0.5172 C   0  0  0  0  0  0  0  0  0  0  0  0
   -3.0874    0.2936   -0.9604 O   0  0  0  0  0  0  0  0  0  0  0  0
   -2.3644   -0.9367   -1.1218 C   0  0  0  0  0  0  0  0  0  0  0  0
   -1.0297   -0.5752   -1.7310 C   0  0  0  0  0  0  0  0  0  0  0  0
   -0.1082    0.3397   -1.0211 C   0  0  2  0  0  0  0  0  0  0  0  0
    0.2313   -1.1334   -1.2143 C   0  0  1  0  0  0  0  0  0  0  0  0
    0.3562   -1.6686    0.1815 C   0  0  0  0  0  0  0  0  0  0  0  0
    0.2518   -0.5980    1.1118 N   0  0  0  0  0  0  0  0  0  0  0  0
   -0.2353    0.5751    0.4600 C   0  0  0  0  0  0  0  0  0  0  0  0
    1.3581   -0.4189    1.9789 C   0  0  0  0  0  0  0  0  0  0  0  0
    2.6506   -0.1408    1.2970 C   0  0  0  0  0  0  0  0  0  0  0  0
    3.4963   -1.1282    0.9199 N   0  0  0  0  0  0  0  0  0  0  0  0
    4.5769   -0.5986    0.3322 C   0  0  0  0  0  0  0  0  0  0  0  0
    4.4006    0.7400    0.3439 N   0  0  0  0  0  0  0  0  0  0  0  0
    3.2246    1.0453    0.9313 C   0  0  0  0  0  0  0  0  0  0  0  0
    5.3179    1.5927   -0.1788 C   0  0  0  0  0  0  0  0  0  0  0  0
    6.4526    1.0406   -0.7305 C   0  0  0  0  0  0  0  0  0  0  0  0
    6.6818   -0.3194   -0.7680 C   0  0  0  0  0  0  0  0  0  0  0  0
    5.7154   -1.1668   -0.2203 C   0  0  0  0  0  0  0  0  0  0  0  0
   -7.8874    0.8998    1.0055 H   0  0  0  0  0  0  0  0  0  0  0  0
   -6.5811    2.8496    0.2205 H   0  0  0  0  0  0  0  0  0  0  0  0
   -4.3767    2.5145   -0.6757 H   0  0  0  0  0  0  0  0  0  0  0  0
   -4.6330   -1.7150   -0.0669 H   0  0  0  0  0  0  0  0  0  0  0  0
   -6.9430   -1.3440    0.8698 H   0  0  0  0  0  0  0  0  0  0  0  0
   -2.9821   -1.5529   -1.7813 H   0  0  0  0  0  0  0  0  0  0  0  0
   -2.3103   -1.4011   -0.1393 H   0  0  0  0  0  0  0  0  0  0  0  0
   -1.0772   -0.4367   -2.8318 H   0  0  0  0  0  0  0  0  0  0  0  0
    0.5362    1.0527   -1.5698 H   0  0  0  0  0  0  0  0  0  0  0  0
    1.0650   -1.3604   -1.9123 H   0  0  0  0  0  0  0  0  0  0  0  0
    1.3345   -2.1639    0.3114 H   0  0  0  0  0  0  0  0  0  0  0  0
   -0.4242   -2.4123    0.4338 H   0  0  0  0  0  0  0  0  0  0  0  0
   -1.2837    0.7312    0.7801 H   0  0  0  0  0  0  0  0  0  0  0  0
    0.3305    1.4583    0.7768 H   0  0  0  0  0  0  0  0  0  0  0  0
    1.4244   -1.3254    2.6274 H   0  0  0  0  0  0  0  0  0  0  0  0
    1.0904    0.4051    2.6870 H   0  0  0  0  0  0  0  0  0  0  0  0
    2.7908    2.0219    1.0969 H   0  0  0  0  0  0  0  0  0  0  0  0
    5.1657    2.6714   -0.1643 H   0  0  0  0  0  0  0  0  0  0  0  0
    7.1723    1.7533   -1.1431 H   0  0  0  0  0  0  0  0  0  0  0  0
    7.5923   -0.6962   -1.2145 H   0  0  0  0  0  0  0  0  0  0  0  0
    5.8745   -2.2435   -0.2386 H   0  0  0  0  0  0  0  0  0  0  0  0
  1  2  2  0
  2  3  1  0
  3  4  2  0
  4  5  1  0
  5  6  2  0
  4  7  1  0
  7  8  1  0
  8  9  1  0
  9 10  1  0
 10 11  1  0
 11 12  1  0
 12 13  1  0
 13 14  1  0
 13 15  1  0
 15 16  1  0
 16 17  1  0
 17 18  2  0
 18 19  1  0
 19 20  1  0
 19 21  1  0
 21 22  2  0
 22 23  1  0
 23 24  2  0
  6  1  1  0
 11  9  1  0
 20 16  2  0
 14 10  1  0
 24 18  1  0
  1 25  1  0
  2 26  1  0
  3 27  1  0
  5 28  1  0
  6 29  1  0
  8 30  1  0
  8 31  1  0
  9 32  1  0
 10 33  1  6
 11 34  1  6
 12 35  1  0
 12 36  1  0
 14 37  1  0
 14 38  1  0
 15 39  1  0
 15 40  1  0
 20 41  1  0
 21 42  1  0
 22 43  1  0
 23 44  1  0
 24 45  1  0
M  END
>  <Ligand ID>  (1) 
LIG0005708

>  <Ligand>  (1) 
CHEMBL477377

>  <SMILES>  (1) 
c1ccc(cc1)OCC1[C@@H]2[C@H]1CN(C2)Cc1nc2n(c1)cccc2

>  <CID>  (1) 
44578994.0

>  <ChEMBL ID>  (1) 
nan

>  <InChiKey>  (1) 
PFIYEDTVQPPLAI-DFNIBXOVSA-N

>  <InChi>  (1) 
InChI=1S/C20H21N3O/c1-2-6-16(7-3-1)24-14-19-17-12-22(13-18(17)19)10-15-11-23-9-5-4-8-20(23)21-15/h1-9,11,17-19H,10,12-14H2/t17-,18+,19?

>  <IUPAC Name>  (1) 
2-[[(1R,5S)-6-(phenoxymethyl)-3-azabicyclo[3.1.0]hexan-3-yl]methyl]imidazo[1,2-a]pyridine

$$$$
