
     RDKit          3D

 56 59  0  0  0  0  0  0  0  0999 V2000
   -0.0016   -5.1537    3.6576 F   0  0  0  0  0  0  0  0  0  0  0  0
   -0.3842   -4.1522    2.8202 C   0  0  0  0  0  0  0  0  0  0  0  0
   -0.1628   -4.3372    1.4714 C   0  0  0  0  0  0  0  0  0  0  0  0
   -0.5505   -3.3177    0.6009 C   0  0  0  0  0  0  0  0  0  0  0  0
   -1.1342   -2.1554    1.0271 C   0  0  0  0  0  0  0  0  0  0  0  0
   -1.3367   -2.0150    2.3919 C   0  0  0  0  0  0  0  0  0  0  0  0
   -0.9721   -2.9938    3.3013 C   0  0  0  0  0  0  0  0  0  0  0  0
   -1.5459   -1.0585    0.1764 C   0  0  0  0  0  0  0  0  0  0  0  0
   -2.7719   -0.4864    0.2776 N   0  0  0  0  0  0  0  0  0  0  0  0
   -2.9138    0.4997   -0.5890 N   0  0  0  0  0  0  0  0  0  0  0  0
   -1.7579    0.5745   -1.2704 C   0  0  0  0  0  0  0  0  0  0  0  0
   -0.8741   -0.3868   -0.8188 C   0  0  0  0  0  0  0  0  0  0  0  0
    0.4906   -0.5970   -1.3143 C   0  0  0  0  0  0  0  0  0  0  0  0
    1.5020   -0.0670   -0.4192 N   0  0  0  0  0  0  0  0  0  0  0  0
    2.8154   -0.3324   -0.9798 C   0  0  0  0  0  0  0  0  0  0  0  0
    3.7967    0.1440    0.0156 C   0  0  0  0  0  0  0  0  0  0  0  0
    3.6230    1.2697    0.7981 C   0  0  0  0  0  0  0  0  0  0  0  0
    4.6969    1.4355    1.5991 N   0  0  0  0  0  0  0  0  0  0  0  0
    5.5366    0.4434    1.3378 N   0  0  0  0  0  0  0  0  0  0  0  0
    5.0245   -0.3642    0.3794 C   0  0  0  0  0  0  0  0  0  0  0  0
    5.6199   -1.5719   -0.2010 C   0  0  0  0  0  0  0  0  0  0  0  0
    6.8105    0.2961    2.0149 C   0  0  0  0  0  0  0  0  0  0  0  0
    2.9862    0.2761   -2.3349 C   0  0  0  0  0  0  0  0  0  0  0  0
   -4.0226    1.3592   -0.8242 C   0  0  0  0  0  0  0  0  0  0  0  0
   -4.9814    1.1026   -1.7848 C   0  0  0  0  0  0  0  0  0  0  0  0
   -6.0166    2.0136   -1.9251 C   0  0  0  0  0  0  0  0  0  0  0  0
   -6.0953    3.1567   -1.1252 C   0  0  0  0  0  0  0  0  0  0  0  0
   -5.1235    3.3982   -0.1655 C   0  0  0  0  0  0  0  0  0  0  0  0
   -4.0823    2.4984   -0.0118 C   0  0  0  0  0  0  0  0  0  0  0  0
   -7.2118    4.1310   -1.2843 C   0  0  0  0  0  0  0  0  0  0  0  0
    0.3003   -5.2448    1.0681 H   0  0  0  0  0  0  0  0  0  0  0  0
   -0.3750   -3.4965   -0.4359 H   0  0  0  0  0  0  0  0  0  0  0  0
   -1.7951   -1.1126    2.7721 H   0  0  0  0  0  0  0  0  0  0  0  0
   -1.1167   -2.9127    4.3626 H   0  0  0  0  0  0  0  0  0  0  0  0
   -1.5489    1.2892   -2.0630 H   0  0  0  0  0  0  0  0  0  0  0  0
    0.6688   -1.6770   -1.4430 H   0  0  0  0  0  0  0  0  0  0  0  0
    0.6205   -0.0326   -2.2647 H   0  0  0  0  0  0  0  0  0  0  0  0
    1.3511    0.9273   -0.1833 H   0  0  0  0  0  0  0  0  0  0  0  0
    2.8856   -1.4340   -1.1011 H   0  0  0  0  0  0  0  0  0  0  0  0
    2.7883    1.9662    0.8287 H   0  0  0  0  0  0  0  0  0  0  0  0
    6.5933   -1.7504    0.3104 H   0  0  0  0  0  0  0  0  0  0  0  0
    5.8924   -1.4774   -1.2719 H   0  0  0  0  0  0  0  0  0  0  0  0
    5.0395   -2.4938    0.0070 H   0  0  0  0  0  0  0  0  0  0  0  0
    6.8041    0.7735    3.0152 H   0  0  0  0  0  0  0  0  0  0  0  0
    6.9571   -0.7937    2.1887 H   0  0  0  0  0  0  0  0  0  0  0  0
    7.6458    0.6360    1.3795 H   0  0  0  0  0  0  0  0  0  0  0  0
    4.0493    0.3066   -2.6146 H   0  0  0  0  0  0  0  0  0  0  0  0
    2.4988   -0.4175   -3.0701 H   0  0  0  0  0  0  0  0  0  0  0  0
    2.4474    1.2304   -2.4757 H   0  0  0  0  0  0  0  0  0  0  0  0
   -4.8888    0.2093   -2.3845 H   0  0  0  0  0  0  0  0  0  0  0  0
   -6.7910    1.8341   -2.6799 H   0  0  0  0  0  0  0  0  0  0  0  0
   -5.1320    4.2596    0.4783 H   0  0  0  0  0  0  0  0  0  0  0  0
   -3.3212    2.6873    0.7396 H   0  0  0  0  0  0  0  0  0  0  0  0
   -8.1682    3.6428   -1.5733 H   0  0  0  0  0  0  0  0  0  0  0  0
   -7.3998    4.5534   -0.2555 H   0  0  0  0  0  0  0  0  0  0  0  0
   -6.9689    4.9179   -2.0274 H   0  0  0  0  0  0  0  0  0  0  0  0
  1  2  1  0
  2  3  2  0
  3  4  1  0
  4  5  2  0
  5  6  1  0
  6  7  2  0
  5  8  1  0
  8  9  2  0
  9 10  1  0
 10 11  1  0
 11 12  2  0
 12 13  1  0
 13 14  1  0
 14 15  1  0
 15 16  1  0
 16 17  1  0
 17 18  2  0
 18 19  1  0
 19 20  1  0
 20 21  1  0
 19 22  1  0
 15 23  1  0
 10 24  1  0
 24 25  2  0
 25 26  1  0
 26 27  2  0
 27 28  1  0
 28 29  2  0
 27 30  1  0
  7  2  1  0
 12  8  1  0
 20 16  2  0
 29 24  1  0
  3 31  1  0
  4 32  1  0
  6 33  1  0
  7 34  1  0
 11 35  1  0
 13 36  1  0
 13 37  1  0
 14 38  1  0
 15 39  1  0
 17 40  1  0
 21 41  1  0
 21 42  1  0
 21 43  1  0
 22 44  1  0
 22 45  1  0
 22 46  1  0
 23 47  1  0
 23 48  1  0
 23 49  1  0
 25 50  1  0
 26 51  1  0
 28 52  1  0
 29 53  1  0
 30 54  1  0
 30 55  1  0
 30 56  1  0
M  END
>  <Ligand ID>  (1) 
LIG0003824

>  <Ligand>  (1) 
MLS000733986

>  <SMILES>  (1) 
Fc1ccc(cc1)c1nn(cc1CNC(c1cnn(c1C)C)C)c1ccc(cc1)C

>  <CID>  (1) 
16188374.0

>  <ChEMBL ID>  (1) 
nan

>  <InChiKey>  (1) 
MBDOYHYQUXBBFT-UHFFFAOYSA-N

>  <InChi>  (1) 
InChI=1S/C24H26FN5/c1-16-5-11-22(12-6-16)30-15-20(24(28-30)19-7-9-21(25)10-8-19)13-26-17(2)23-14-27-29(4)18(23)3/h5-12,14-15,17,26H,13H2,1-4H3

>  <IUPAC Name>  (1) 
1-(1,5-dimethylpyrazol-4-yl)-N-[[3-(4-fluorophenyl)-1-(4-methylphenyl)pyrazol-4-yl]methyl]ethanamine

$$$$
