
     RDKit          3D

 33 33  0  0  0  0  0  0  0  0999 V2000
   -2.4615   -2.4127   -1.3777 C   0  0  0  0  0  0  0  0  0  0  0  0
   -2.2871   -0.6849   -1.7280 S   0  0  0  0  0  0  0  0  0  0  0  0
   -3.0227   -0.1969   -2.9418 O   0  0  0  0  0  0  0  0  0  0  0  0
   -2.3937    0.3659   -0.3345 C   0  0  0  0  0  0  0  0  0  0  0  0
   -3.6122    0.8628    0.0527 C   0  0  0  0  0  0  0  0  0  0  0  0
   -3.7795    1.7002    1.1440 C   0  0  0  0  0  0  0  0  0  0  0  0
   -2.6504    2.0406    1.8661 C   0  0  0  0  0  0  0  0  0  0  0  0
   -1.4285    1.5391    1.4734 C   0  0  0  0  0  0  0  0  0  0  0  0
   -1.2631    0.7049    0.3860 C   0  0  0  0  0  0  0  0  0  0  0  0
    0.0392    0.2102    0.0214 N   0  0  0  0  0  0  0  0  0  0  0  0
    1.1720    0.5984    0.8087 C   0  0  0  0  0  0  0  0  0  0  0  0
    2.3816   -0.0496    0.2164 C   0  0  0  0  0  0  0  0  0  0  0  0
    2.4381   -0.8195   -0.8083 N   0  0  0  0  0  0  0  0  0  0  0  0
    3.7861   -1.2308   -1.0494 C   0  0  0  0  0  0  0  0  0  0  0  0
    4.6365   -0.2415   -0.2463 C   0  0  0  0  0  0  0  0  0  0  0  0
    3.6815    0.1461    0.7825 N   0  0  0  0  0  0  0  0  0  0  0  0
    0.6850    0.0000    0.0000 Cl  0  0  0  0  0  0  0  0  0  0  0  0
   -2.9118   -2.6102   -0.3767 H   0  0  0  0  0  0  0  0  0  0  0  0
   -1.4497   -2.8851   -1.4225 H   0  0  0  0  0  0  0  0  0  0  0  0
   -3.0863   -2.8636   -2.1947 H   0  0  0  0  0  0  0  0  0  0  0  0
   -4.5001    0.5997   -0.5089 H   0  0  0  0  0  0  0  0  0  0  0  0
   -4.7572    2.0684    1.4135 H   0  0  0  0  0  0  0  0  0  0  0  0
   -2.7093    2.6914    2.7308 H   0  0  0  0  0  0  0  0  0  0  0  0
   -0.5333    1.8089    2.0458 H   0  0  0  0  0  0  0  0  0  0  0  0
    0.0941   -0.4138   -0.8080 H   0  0  0  0  0  0  0  0  0  0  0  0
    1.2560    1.7126    0.7411 H   0  0  0  0  0  0  0  0  0  0  0  0
    1.1037    0.3671    1.8823 H   0  0  0  0  0  0  0  0  0  0  0  0
    4.0770   -1.1696   -2.1173 H   0  0  0  0  0  0  0  0  0  0  0  0
    3.9054   -2.2702   -0.6562 H   0  0  0  0  0  0  0  0  0  0  0  0
    4.8266    0.6538   -0.8716 H   0  0  0  0  0  0  0  0  0  0  0  0
    5.5422   -0.7131    0.1490 H   0  0  0  0  0  0  0  0  0  0  0  0
    3.9067    0.4916    1.7281 H   0  0  0  0  0  0  0  0  0  0  0  0
   -0.6850    0.0000    0.0000 H   0  0  0  0  0  0  0  0  0  0  0  0
  1  2  1  0
  2  3  2  0
  2  4  1  0
  4  5  2  0
  5  6  1  0
  6  7  2  0
  7  8  1  0
  8  9  2  0
  9 10  1  0
 10 11  1  0
 11 12  1  0
 12 13  2  0
 13 14  1  0
 14 15  1  0
 15 16  1  0
  9  4  1  0
 16 12  1  0
  1 18  1  0
  1 19  1  0
  1 20  1  0
  5 21  1  0
  6 22  1  0
  7 23  1  0
  8 24  1  0
 10 25  1  0
 11 26  1  0
 11 27  1  0
 14 28  1  0
 14 29  1  0
 15 30  1  0
 15 31  1  0
 16 32  1  0
 17 33  1  0
M  END
>  <Ligand ID>  (1) 
LIG0001007

>  <Ligand>  (1) 
CHEMBL542402

>  <SMILES>  (1) 
CS(=O)c1ccccc1NCC1=NCCN1.Cl

>  <CID>  (1) 
45260703.0

>  <ChEMBL ID>  (1) 
nan

>  <InChiKey>  (1) 
CLJWUQUYJYUFLN-UHFFFAOYSA-N

>  <InChi>  (1) 
InChI=1S/C11H15N3OS.ClH/c1-16(15)10-5-3-2-4-9(10)14-8-11-12-6-7-13-11;/h2-5,14H,6-8H2,1H3,(H,12,13);1H

>  <IUPAC Name>  (1) 
N-(4,5-dihydro-1H-imidazol-2-ylmethyl)-2-methylsulfinylaniline;hydrochloride

$$$$
