
     RDKit          3D

 69 69  0  0  0  0  0  0  0  0999 V2000
   -0.3200    2.1784    0.0025 C   0  0  0  0  0  0  0  0  0  0  0  0
   -0.3498    0.8236    0.6400 C   0  0  0  0  0  0  0  0  0  0  0  0
   -0.1461   -0.2380   -0.3116 N   0  0  0  0  0  0  0  0  0  0  0  0
   -0.6919   -1.5022    0.2413 C   0  0  0  0  0  0  0  0  0  0  0  0
   -2.1717   -1.4842    0.3164 C   0  0  0  0  0  0  0  0  0  0  0  0
    1.2859   -0.5857   -0.3801 C   0  0  0  0  0  0  0  0  0  0  0  0
    2.1408    0.4473   -0.9769 C   0  0  0  0  0  0  0  0  0  0  0  0
   -8.7844    1.2884    0.1236 C   0  0  0  0  0  0  0  0  0  0  0  0
   -7.8376    0.4571   -0.7164 C   0  0  0  0  0  0  0  0  0  0  0  0
   -6.5633    0.4700   -0.1741 O   0  0  0  0  0  0  0  0  0  0  0  0
   -5.6734   -0.2607   -0.8880 N   0  0  0  0  0  0  0  0  0  0  0  0
   -4.3073   -0.1493   -0.5076 C   0  0  0  0  0  0  0  0  0  0  0  0
   -3.9747    0.6829    0.5489 C   0  0  0  0  0  0  0  0  0  0  0  0
   -2.6424    0.8015    0.9319 C   0  0  0  0  0  0  0  0  0  0  0  0
   -1.6552    0.1248    0.3003 N   0  0  0  0  0  0  0  0  0  0  0  0
   -2.0186   -0.6700   -0.7170 C   0  0  0  0  0  0  0  0  0  0  0  0
   -1.1077   -1.3144   -1.3237 O   0  0  0  0  0  0  0  0  0  0  0  0
   -3.3099   -0.8083   -1.1162 N   0  0  0  0  0  0  0  0  0  0  0  0
   -0.3171    0.3117    0.7659 C   0  0  2  0  0  0  0  0  0  0  0  0
    0.5404    0.3872   -0.3362 O   0  0  0  0  0  0  0  0  0  0  0  0
    1.8051    0.1607    0.2445 C   0  0  1  0  0  0  0  0  0  0  0  0
    1.5297   -1.1279    0.9912 C   0  0  2  0  0  0  0  0  0  0  0  0
    0.2052   -0.7879    1.6435 C   0  0  1  0  0  0  0  0  0  0  0  0
    0.4972   -0.2348    2.8906 O   0  0  0  0  0  0  0  0  0  0  0  0
    2.5106   -1.4163    1.9331 O   0  0  0  0  0  0  0  0  0  0  0  0
    2.8960    0.0684   -0.7612 C   0  0  0  0  0  0  0  0  0  0  0  0
    4.1204   -0.1537   -0.1558 O   0  0  0  0  0  0  0  0  0  0  0  0
    5.3932   -0.2659   -1.2486 P   0  0  0  0  0  0  0  0  0  0  0  0
    5.9251    1.0946   -1.6374 O   0  0  0  0  0  0  0  0  0  0  0  0
    6.6655   -1.1287   -0.5432 O   0  0  0  0  0  0  0  0  0  0  0  0
    7.9668   -0.1674   -0.1172 P   0  0  0  0  0  0  0  0  0  0  0  0
    9.2237   -1.0158   -0.3156 O   0  0  0  0  0  0  0  0  0  0  0  0
    7.8885    0.3678    1.4892 O   0  0  0  0  0  0  0  0  0  0  0  0
    8.0458    1.1466   -1.1785 O   0  0  0  0  0  0  0  0  0  0  0  0
    4.9131   -1.0425   -2.6847 O   0  0  0  0  0  0  0  0  0  0  0  0
   -1.1887    2.3348   -0.6861 H   0  0  0  0  0  0  0  0  0  0  0  0
   -0.3793    2.9338    0.8504 H   0  0  0  0  0  0  0  0  0  0  0  0
    0.5849    2.4168   -0.5122 H   0  0  0  0  0  0  0  0  0  0  0  0
    0.5867    0.8342    1.3037 H   0  0  0  0  0  0  0  0  0  0  0  0
   -1.1557    0.6736    1.3602 H   0  0  0  0  0  0  0  0  0  0  0  0
   -0.2196   -1.6954    1.2156 H   0  0  0  0  0  0  0  0  0  0  0  0
   -0.3678   -2.2828   -0.4605 H   0  0  0  0  0  0  0  0  0  0  0  0
   -2.6292   -0.6218    0.8349 H   0  0  0  0  0  0  0  0  0  0  0  0
   -2.5233   -2.3792    0.8684 H   0  0  0  0  0  0  0  0  0  0  0  0
   -2.6789   -1.5394   -0.6913 H   0  0  0  0  0  0  0  0  0  0  0  0
    1.3659   -1.5913   -0.8942 H   0  0  0  0  0  0  0  0  0  0  0  0
    1.5713   -0.7804    0.6884 H   0  0  0  0  0  0  0  0  0  0  0  0
    1.7183    0.9277   -1.8710 H   0  0  0  0  0  0  0  0  0  0  0  0
    2.4715    1.1981   -0.2102 H   0  0  0  0  0  0  0  0  0  0  0  0
    3.0967   -0.0681   -1.3277 H   0  0  0  0  0  0  0  0  0  0  0  0
   -9.7572    0.7774    0.1446 H   0  0  0  0  0  0  0  0  0  0  0  0
   -8.8544    2.3234   -0.2771 H   0  0  0  0  0  0  0  0  0  0  0  0
   -8.4433    1.3607    1.1746 H   0  0  0  0  0  0  0  0  0  0  0  0
   -7.8819    0.8444   -1.7519 H   0  0  0  0  0  0  0  0  0  0  0  0
   -8.1939   -0.6137   -0.6944 H   0  0  0  0  0  0  0  0  0  0  0  0
   -5.9482   -0.8829   -1.6827 H   0  0  0  0  0  0  0  0  0  0  0  0
   -4.7069    1.2538    1.1000 H   0  0  0  0  0  0  0  0  0  0  0  0
   -2.3840    1.4631    1.7706 H   0  0  0  0  0  0  0  0  0  0  0  0
   -0.2232    1.3206    1.2595 H   0  0  0  0  0  0  0  0  0  0  0  0
    1.9556    0.9451    1.0062 H   0  0  0  0  0  0  0  0  0  0  0  0
    1.3887   -1.9770    0.2720 H   0  0  0  0  0  0  0  0  0  0  0  0
   -0.4517   -1.6650    1.7066 H   0  0  0  0  0  0  0  0  0  0  0  0
    0.5432    0.7408    2.9064 H   0  0  0  0  0  0  0  0  0  0  0  0
    2.5093   -2.4149    2.0141 H   0  0  0  0  0  0  0  0  0  0  0  0
    2.8457    0.9409   -1.4170 H   0  0  0  0  0  0  0  0  0  0  0  0
    2.6954   -0.8627   -1.3671 H   0  0  0  0  0  0  0  0  0  0  0  0
    8.7456    0.7853    1.7029 H   0  0  0  0  0  0  0  0  0  0  0  0
    8.6661    0.9594   -1.9204 H   0  0  0  0  0  0  0  0  0  0  0  0
    5.5607   -0.7573   -3.3883 H   0  0  0  0  0  0  0  0  0  0  0  0
  1  2  1  0
  2  3  1  0
  3  4  1  0
  4  5  1  0
  3  6  1  0
  6  7  1  0
  8  9  1  0
  9 10  1  0
 10 11  1  0
 11 12  1  0
 12 13  1  0
 13 14  2  0
 14 15  1  0
 15 16  1  0
 16 17  2  0
 16 18  1  0
 15 19  1  0
 19 20  1  0
 20 21  1  0
 21 22  1  0
 22 23  1  0
 23 24  1  0
 22 25  1  0
 21 26  1  0
 26 27  1  0
 27 28  1  0
 28 29  2  0
 28 30  1  0
 30 31  1  0
 31 32  2  0
 31 33  1  0
 31 34  1  0
 28 35  1  0
 18 12  2  0
 23 19  1  0
  1 36  1  0
  1 37  1  0
  1 38  1  0
  2 39  1  0
  2 40  1  0
  4 41  1  0
  4 42  1  0
  5 43  1  0
  5 44  1  0
  5 45  1  0
  6 46  1  0
  6 47  1  0
  7 48  1  0
  7 49  1  0
  7 50  1  0
  8 51  1  0
  8 52  1  0
  8 53  1  0
  9 54  1  0
  9 55  1  0
 11 56  1  0
 13 57  1  0
 14 58  1  0
 19 59  1  1
 21 60  1  1
 22 61  1  6
 23 62  1  1
 24 63  1  0
 25 64  1  0
 26 65  1  0
 26 66  1  0
 33 67  1  0
 34 68  1  0
 35 69  1  0
M  END
>  <Ligand ID>  (1) 
LIG0004377

>  <Ligand>  (1) 
CHEMBL1084295

>  <SMILES>  (1) 
CCN(CC)CC.CCONc1ccn(c(=O)n1)[C@@H]1O[C@@H]([C@H]([C@H]1O)O)COP(=O)(OP(=O)(O)O)O

>  <CID>  (1) 
46831383.0

>  <ChEMBL ID>  (1) 
nan

>  <InChiKey>  (1) 
SDMBWEOBBCMGIF-RQDZQORCSA-N

>  <InChi>  (1) 
InChI=1S/C11H19N3O12P2.C6H15N/c1-2-23-13-7-3-4-14(11(17)12-7)10-9(16)8(15)6(25-10)5-24-28(21,22)26-27(18,19)20;1-4-7(5-2)6-3/h3-4,6,8-10,15-16H,2,5H2,1H3,(H,21,22)(H,12,13,17)(H2,18,19,20);4-6H2,1-3H3/t6-,8-,9-,10-;/m1./s1

>  <IUPAC Name>  (1) 
N,N-diethylethanamine;[(2R,3S,4R,5R)-5-[4-(ethoxyamino)-2-oxopyrimidin-1-yl]-3,4-dihydroxyoxolan-2-yl]methyl phosphono hydrogen phosphate

$$$$
