
     RDKit          3D

 69 70  0  0  0  0  0  0  0  0999 V2000
   -4.3859    2.0186    2.5396 C   0  0  0  0  0  0  0  0  0  0  0  0
   -4.2413    2.0588    1.0169 C   0  0  0  0  0  0  0  0  0  0  0  0
   -4.7539    0.9339    0.4207 O   0  0  0  0  0  0  0  0  0  0  0  0
   -4.0941    0.0152   -0.3083 C   0  0  0  0  0  0  0  0  0  0  0  0
   -2.7325    0.1009   -0.5551 C   0  0  0  0  0  0  0  0  0  0  0  0
   -2.0429   -0.8394   -1.3044 C   0  0  0  0  0  0  0  0  0  0  0  0
   -2.7422   -1.8970   -1.8211 C   0  0  0  0  0  0  0  0  0  0  0  0
   -4.0894   -1.9940   -1.5848 C   0  0  0  0  0  0  0  0  0  0  0  0
   -4.7997   -1.0549   -0.8317 C   0  0  0  0  0  0  0  0  0  0  0  0
   -6.2109   -1.2963   -0.6738 C   0  0  0  0  0  0  0  0  0  0  0  0
   -6.7371   -2.3308   -1.2146 O   0  0  0  0  0  0  0  0  0  0  0  0
   -7.1241   -0.4858    0.0419 N   0  0  0  0  0  0  0  0  0  0  0  0
   -8.7845   -1.0299    0.0618 S   0  0  0  0  0  0  0  0  0  0  0  0
   -9.3325   -1.1206   -1.3405 O   0  0  0  0  0  0  0  0  0  0  0  0
   -8.8655   -2.3823    0.7322 O   0  0  0  0  0  0  0  0  0  0  0  0
   -9.7062    0.1600    1.0175 C   0  0  0  0  0  0  0  0  0  0  0  0
   -0.5996   -0.7307   -1.5535 C   0  0  0  0  0  0  0  0  0  0  0  0
   -0.0434   -1.2111   -2.7171 C   0  0  0  0  0  0  0  0  0  0  0  0
    1.3171   -1.0843   -2.9029 C   0  0  0  0  0  0  0  0  0  0  0  0
    2.1459   -0.4873   -1.9544 C   0  0  0  0  0  0  0  0  0  0  0  0
    1.5577   -0.0188   -0.8046 C   0  0  0  0  0  0  0  0  0  0  0  0
    0.1903   -0.1268   -0.5781 C   0  0  0  0  0  0  0  0  0  0  0  0
    3.5980   -0.3920   -2.2402 C   0  0  0  0  0  0  0  0  0  0  0  0
    4.3637   -1.5966   -1.7538 C   0  0  0  0  0  0  0  0  0  0  0  0
    4.2828   -1.8316   -0.3490 N   0  0  0  0  0  0  0  0  0  0  0  0
    4.9470   -0.8413    0.4552 C   0  0  0  0  0  0  0  0  0  0  0  0
    6.4297   -0.9152    0.2661 C   0  0  1  0  0  0  0  0  0  0  0  0
    7.1773    0.1514    0.9342 C   0  0  0  0  0  0  0  0  0  0  0  0
    8.5516    0.0302    1.0205 C   0  0  0  0  0  0  0  0  0  0  0  0
    9.3118    1.0019    1.6377 C   0  0  0  0  0  0  0  0  0  0  0  0
    8.7490    2.1406    2.1995 C   0  0  0  0  0  0  0  0  0  0  0  0
    7.3773    2.2543    2.1093 C   0  0  0  0  0  0  0  0  0  0  0  0
    6.6151    1.2801    1.4905 C   0  0  0  0  0  0  0  0  0  0  0  0
    6.8368   -2.2033    0.6565 O   0  0  0  0  0  0  0  0  0  0  0  0
   -4.9009    3.3433    0.5333 C   0  0  0  0  0  0  0  0  0  0  0  0
    0.6857    0.0000    0.0000 Cl  0  0  0  0  0  0  0  0  0  0  0  0
   -5.3952    2.3913    2.8103 H   0  0  0  0  0  0  0  0  0  0  0  0
   -3.6307    2.6486    3.0414 H   0  0  0  0  0  0  0  0  0  0  0  0
   -4.2811    0.9846    2.9249 H   0  0  0  0  0  0  0  0  0  0  0  0
   -3.1711    2.1751    0.8159 H   0  0  0  0  0  0  0  0  0  0  0  0
   -2.1125    0.9131   -0.1769 H   0  0  0  0  0  0  0  0  0  0  0  0
   -2.2442   -2.6455   -2.4065 H   0  0  0  0  0  0  0  0  0  0  0  0
   -4.5925   -2.8526   -2.0187 H   0  0  0  0  0  0  0  0  0  0  0  0
   -6.8259    0.3684    0.5183 H   0  0  0  0  0  0  0  0  0  0  0  0
  -10.7888   -0.0166    1.0038 H   0  0  0  0  0  0  0  0  0  0  0  0
   -9.4070    1.1581    0.6341 H   0  0  0  0  0  0  0  0  0  0  0  0
   -9.2828    0.0938    2.0621 H   0  0  0  0  0  0  0  0  0  0  0  0
   -0.6486   -1.6801   -3.4776 H   0  0  0  0  0  0  0  0  0  0  0  0
    1.7409   -1.4705   -3.8305 H   0  0  0  0  0  0  0  0  0  0  0  0
    2.1585    0.4457   -0.0521 H   0  0  0  0  0  0  0  0  0  0  0  0
   -0.2530    0.2476    0.3313 H   0  0  0  0  0  0  0  0  0  0  0  0
    3.9849    0.5549   -1.8313 H   0  0  0  0  0  0  0  0  0  0  0  0
    3.7185   -0.3500   -3.3415 H   0  0  0  0  0  0  0  0  0  0  0  0
    5.3861   -1.6107   -2.1817 H   0  0  0  0  0  0  0  0  0  0  0  0
    3.8557   -2.4799   -2.2427 H   0  0  0  0  0  0  0  0  0  0  0  0
    4.6300   -2.7980   -0.1690 H   0  0  0  0  0  0  0  0  0  0  0  0
    4.5202    0.1482    0.2120 H   0  0  0  0  0  0  0  0  0  0  0  0
    4.7200   -1.0555    1.5174 H   0  0  0  0  0  0  0  0  0  0  0  0
    6.7061   -0.8577   -0.8233 H   0  0  0  0  0  0  0  0  0  0  0  0
    9.0908   -0.8256    0.6111 H   0  0  0  0  0  0  0  0  0  0  0  0
   10.4022    0.9355    1.7228 H   0  0  0  0  0  0  0  0  0  0  0  0
    9.3526    2.8969    2.6816 H   0  0  0  0  0  0  0  0  0  0  0  0
    6.9193    3.1419    2.5456 H   0  0  0  0  0  0  0  0  0  0  0  0
    5.5430    1.4076    1.4417 H   0  0  0  0  0  0  0  0  0  0  0  0
    7.7807   -2.3856    0.5015 H   0  0  0  0  0  0  0  0  0  0  0  0
   -5.9640    3.1078    0.2506 H   0  0  0  0  0  0  0  0  0  0  0  0
   -4.3424    3.6988   -0.3452 H   0  0  0  0  0  0  0  0  0  0  0  0
   -4.8337    4.0910    1.3257 H   0  0  0  0  0  0  0  0  0  0  0  0
   -0.6857    0.0000    0.0000 H   0  0  0  0  0  0  0  0  0  0  0  0
  1  2  1  0
  2  3  1  0
  3  4  1  0
  4  5  2  0
  5  6  1  0
  6  7  2  0
  7  8  1  0
  8  9  2  0
  9 10  1  0
 10 11  2  0
 10 12  1  0
 12 13  1  0
 13 14  2  0
 13 15  2  0
 13 16  1  0
  6 17  1  0
 17 18  2  0
 18 19  1  0
 19 20  2  0
 20 21  1  0
 21 22  2  0
 20 23  1  0
 23 24  1  0
 24 25  1  0
 25 26  1  0
 26 27  1  0
 27 28  1  0
 28 29  2  0
 29 30  1  0
 30 31  2  0
 31 32  1  0
 32 33  2  0
 27 34  1  0
  2 35  1  0
  9  4  1  0
 22 17  1  0
 33 28  1  0
  1 37  1  0
  1 38  1  0
  1 39  1  0
  2 40  1  0
  5 41  1  0
  7 42  1  0
  8 43  1  0
 12 44  1  0
 16 45  1  0
 16 46  1  0
 16 47  1  0
 18 48  1  0
 19 49  1  0
 21 50  1  0
 22 51  1  0
 23 52  1  0
 23 53  1  0
 24 54  1  0
 24 55  1  0
 25 56  1  0
 26 57  1  0
 26 58  1  0
 27 59  1  6
 29 60  1  0
 30 61  1  0
 31 62  1  0
 32 63  1  0
 33 64  1  0
 34 65  1  0
 35 66  1  0
 35 67  1  0
 35 68  1  0
 36 69  1  0
M  END
>  <Ligand ID>  (1) 
LIG0003499

>  <Ligand>  (1) 
CHEMBL515397

>  <SMILES>  (1) 
CC(Oc1cc(ccc1C(=O)NS(=O)(=O)C)c1ccc(cc1)CCNC[C@@H](c1ccccc1)O)C.Cl

>  <CID>  (1) 
42639132.0

>  <ChEMBL ID>  (1) 
nan

>  <InChiKey>  (1) 
HKXUTOXQIDBDAL-UQIIZPHYSA-N

>  <InChi>  (1) 
InChI=1S/C27H32N2O5S.ClH/c1-19(2)34-26-17-23(13-14-24(26)27(31)29-35(3,32)33)21-11-9-20(10-12-21)15-16-28-18-25(30)22-7-5-4-6-8-22;/h4-14,17,19,25,28,30H,15-16,18H2,1-3H3,(H,29,31);1H/t25-;/m0./s1

>  <IUPAC Name>  (1) 
4-[4-[2-[[(2R)-2-hydroxy-2-phenylethyl]amino]ethyl]phenyl]-N-methylsulfonyl-2-propan-2-yloxybenzamide;hydrochloride

$$$$
