
     RDKit          3D

 36 39  0  0  0  0  0  0  0  0999 V2000
   -2.0931   -1.2592    1.1203 O   0  0  0  0  0  0  0  0  0  0  0  0
   -2.5503   -0.2531    0.5164 C   0  0  0  0  0  0  0  0  0  0  0  0
   -3.8815   -0.3223   -0.0420 C   0  0  0  0  0  0  0  0  0  0  0  0
   -4.5803   -1.5070    0.1248 C   0  0  0  0  0  0  0  0  0  0  0  0
   -5.8616   -1.6235   -0.3926 C   0  0  0  0  0  0  0  0  0  0  0  0
   -6.4008   -0.5560   -1.0575 C   0  0  0  0  0  0  0  0  0  0  0  0
   -5.7324    0.6156   -1.2324 C   0  0  0  0  0  0  0  0  0  0  0  0
   -4.4522    0.7368   -0.7173 C   0  0  0  0  0  0  0  0  0  0  0  0
   -1.7141    0.8915    0.4264 N   0  0  0  0  0  0  0  0  0  0  0  0
   -0.4063    0.8928    1.0016 C   0  0  0  0  0  0  0  0  0  0  0  0
   -0.3211    1.3225    2.3185 C   0  0  0  0  0  0  0  0  0  0  0  0
    0.9386    1.3306    2.8930 C   0  0  0  0  0  0  0  0  0  0  0  0
    2.0471    0.9285    2.1795 C   0  0  0  0  0  0  0  0  0  0  0  0
    1.9353    0.5037    0.8650 C   0  0  0  0  0  0  0  0  0  0  0  0
    0.6937    0.4896    0.2809 C   0  0  0  0  0  0  0  0  0  0  0  0
    3.1095    0.0793    0.1138 C   0  0  0  0  0  0  0  0  0  0  0  0
    4.4104    0.0367    0.5549 C   0  0  0  0  0  0  0  0  0  0  0  0
    5.2318   -0.4239   -0.4585 N   0  0  0  0  0  0  0  0  0  0  0  0
    4.4029   -0.6372   -1.4559 C   0  0  0  0  0  0  0  0  0  0  0  0
    3.1214   -0.3469   -1.1507 N   0  0  0  0  0  0  0  0  0  0  0  0
    5.4170   -1.2469   -2.8292 S   0  0  0  0  0  0  0  0  0  0  0  0
    6.9688   -1.1310   -1.8064 C   0  0  0  0  0  0  0  0  0  0  0  0
    6.5142   -0.6638   -0.6133 C   0  0  0  0  0  0  0  0  0  0  0  0
   -4.1629   -2.3547    0.6479 H   0  0  0  0  0  0  0  0  0  0  0  0
   -6.4057   -2.5625   -0.2562 H   0  0  0  0  0  0  0  0  0  0  0  0
   -7.4128   -0.6304   -1.4732 H   0  0  0  0  0  0  0  0  0  0  0  0
   -6.1645    1.4734   -1.7660 H   0  0  0  0  0  0  0  0  0  0  0  0
   -3.9332    1.6570   -0.8573 H   0  0  0  0  0  0  0  0  0  0  0  0
   -2.0556    1.7434   -0.0649 H   0  0  0  0  0  0  0  0  0  0  0  0
   -1.2067    1.6327    2.8558 H   0  0  0  0  0  0  0  0  0  0  0  0
    1.0132    1.6648    3.9210 H   0  0  0  0  0  0  0  0  0  0  0  0
    3.0361    0.9320    2.6216 H   0  0  0  0  0  0  0  0  0  0  0  0
    0.6179    0.1589   -0.7372 H   0  0  0  0  0  0  0  0  0  0  0  0
    4.6841    0.3319    1.5537 H   0  0  0  0  0  0  0  0  0  0  0  0
    7.9190   -1.4019   -2.1985 H   0  0  0  0  0  0  0  0  0  0  0  0
    7.2742   -0.5011    0.2033 H   0  0  0  0  0  0  0  0  0  0  0  0
  1  2  2  0
  2  3  1  0
  3  4  2  0
  4  5  1  0
  5  6  2  0
  6  7  1  0
  7  8  2  0
  2  9  1  0
  9 10  1  0
 10 11  2  0
 11 12  1  0
 12 13  2  0
 13 14  1  0
 14 15  2  0
 14 16  1  0
 16 17  2  0
 17 18  1  0
 18 19  1  0
 19 20  2  0
 19 21  1  0
 21 22  1  0
 22 23  2  0
  8  3  1  0
 15 10  1  0
 20 16  1  0
 23 18  1  0
  4 24  1  0
  5 25  1  0
  6 26  1  0
  7 27  1  0
  8 28  1  0
  9 29  1  0
 11 30  1  0
 12 31  1  0
 13 32  1  0
 15 33  1  0
 17 34  1  0
 22 35  1  0
 23 36  1  0
M  END
>  <Ligand ID>  (1) 
LIG0002603

>  <Ligand>  (1) 
SMR000066747

>  <SMILES>  (1) 
O=C(c1ccccc1)Nc1cccc(c1)c1cn2c(n1)scc2

>  <CID>  (1) 
752434.0

>  <ChEMBL ID>  (1) 
nan

>  <InChiKey>  (1) 
YURSTMZQCGYFHR-UHFFFAOYSA-N

>  <InChi>  (1) 
InChI=1S/C18H13N3OS/c22-17(13-5-2-1-3-6-13)19-15-8-4-7-14(11-15)16-12-21-9-10-23-18(21)20-16/h1-12H,(H,19,22)

>  <IUPAC Name>  (1) 
N-(3-imidazo[2,1-b][1,3]thiazol-6-ylphenyl)benzamide

$$$$
