
     RDKit          3D

 86 90  0  0  0  0  0  0  0  0999 V2000
   12.4194   -1.6448   -0.5003 C   0  0  0  0  0  0  0  0  0  0  0  0
   11.1276   -1.7320    0.2375 C   0  0  0  0  0  0  0  0  0  0  0  0
    9.9087   -1.6127   -0.6939 C   0  0  0  0  0  0  0  0  0  0  0  0
   10.0018   -2.7530   -1.6922 C   0  0  0  0  0  0  0  0  0  0  0  0
    8.8735   -2.8195   -2.6568 C   0  0  0  0  0  0  0  0  0  0  0  0
    8.6374   -1.6379   -3.5253 C   0  0  0  0  0  0  0  0  0  0  0  0
    8.3722   -0.4042   -2.8333 N   0  0  0  0  0  0  0  0  0  0  0  0
    7.2966   -0.2063   -1.9191 C   0  0  0  0  0  0  0  0  0  0  0  0
    6.5276   -1.1755   -1.7051 O   0  0  0  0  0  0  0  0  0  0  0  0
    7.1200    1.0289   -1.2835 N   0  0  0  0  0  0  0  0  0  0  0  0
    6.1395    1.3863   -0.3433 C   0  0  0  0  0  0  0  0  0  0  0  0
    5.1636    0.5439    0.1735 C   0  0  0  0  0  0  0  0  0  0  0  0
    4.2482    1.0046    1.1392 C   0  0  0  0  0  0  0  0  0  0  0  0
    4.2604    2.2783    1.6165 C   0  0  0  0  0  0  0  0  0  0  0  0
    5.2564    3.1146    1.0762 C   0  0  0  0  0  0  0  0  0  0  0  0
    6.1633    2.7010    0.1372 C   0  0  0  0  0  0  0  0  0  0  0  0
    3.2801    2.9920    2.8393 S   0  0  0  0  0  0  0  0  0  0  0  0
    3.0760    1.8750    3.8942 O   0  0  0  0  0  0  0  0  0  0  0  0
    4.0339    4.0812    3.6096 O   0  0  0  0  0  0  0  0  0  0  0  0
    1.7784    3.5805    2.3269 N   0  0  0  0  0  0  0  0  0  0  0  0
    0.6519    2.9363    1.8108 C   0  0  0  0  0  0  0  0  0  0  0  0
    0.5931    1.7592    1.1209 C   0  0  0  0  0  0  0  0  0  0  0  0
   -0.6378    1.1724    0.7974 C   0  0  0  0  0  0  0  0  0  0  0  0
   -1.8367    1.7518    1.1548 C   0  0  0  0  0  0  0  0  0  0  0  0
   -1.7930    2.9338    1.8374 C   0  0  0  0  0  0  0  0  0  0  0  0
   -0.5856    3.5286    2.1690 C   0  0  0  0  0  0  0  0  0  0  0  0
   -3.1358    1.1193    0.9434 C   0  0  0  0  0  0  0  0  0  0  0  0
   -4.1666    1.4229    1.8263 C   0  0  0  0  0  0  0  0  0  0  0  0
   -5.3992    0.8245    1.7310 C   0  0  0  0  0  0  0  0  0  0  0  0
   -5.6577   -0.1007    0.7545 C   0  0  0  0  0  0  0  0  0  0  0  0
   -4.6558   -0.4183   -0.1367 C   0  0  0  0  0  0  0  0  0  0  0  0
   -3.4048    0.1955   -0.0333 C   0  0  0  0  0  0  0  0  0  0  0  0
   -6.9326   -0.6878    0.7005 O   0  0  0  0  0  0  0  0  0  0  0  0
   -7.9118   -0.2945    1.6454 C   0  0  0  0  0  0  0  0  0  0  0  0
   -9.1769   -1.0494    1.4020 C   0  0  0  0  0  0  0  0  0  0  0  0
   -9.0590   -2.4848    1.5221 N   0  0  0  0  0  0  0  0  0  0  0  0
  -10.3661   -3.0796    1.5862 C   0  0  0  0  0  0  0  0  0  0  0  0
  -11.3003   -2.6630    0.4910 C   0  0  0  0  0  0  0  0  0  0  0  0
  -10.7905   -1.5779   -0.3723 C   0  0  0  0  0  0  0  0  0  0  0  0
   -9.7308   -0.7620    0.0418 C   0  0  0  0  0  0  0  0  0  0  0  0
   -9.2497    0.2314   -0.7689 C   0  0  0  0  0  0  0  0  0  0  0  0
   -9.7698    0.4983   -2.0424 C   0  0  0  0  0  0  0  0  0  0  0  0
   -9.2551    1.5082   -2.8372 O   0  0  0  0  0  0  0  0  0  0  0  0
  -10.8287   -0.3239   -2.4460 C   0  0  0  0  0  0  0  0  0  0  0  0
  -11.3079   -1.3199   -1.6246 C   0  0  0  0  0  0  0  0  0  0  0  0
  -11.3965   -0.1198   -3.7091 O   0  0  0  0  0  0  0  0  0  0  0  0
   12.7021   -2.6425   -0.9137 H   0  0  0  0  0  0  0  0  0  0  0  0
   12.3550   -0.8411   -1.2663 H   0  0  0  0  0  0  0  0  0  0  0  0
   13.2186   -1.3611    0.2167 H   0  0  0  0  0  0  0  0  0  0  0  0
   11.0109   -2.6658    0.8205 H   0  0  0  0  0  0  0  0  0  0  0  0
   11.0360   -0.8836    0.9748 H   0  0  0  0  0  0  0  0  0  0  0  0
   10.0758   -0.6809   -1.2388 H   0  0  0  0  0  0  0  0  0  0  0  0
    9.0285   -1.6429   -0.0582 H   0  0  0  0  0  0  0  0  0  0  0  0
    9.9225   -3.6813   -1.0484 H   0  0  0  0  0  0  0  0  0  0  0  0
   10.9919   -2.7509   -2.1407 H   0  0  0  0  0  0  0  0  0  0  0  0
    9.1295   -3.6690   -3.3665 H   0  0  0  0  0  0  0  0  0  0  0  0
    7.9396   -3.1752   -2.1525 H   0  0  0  0  0  0  0  0  0  0  0  0
    7.7659   -1.8981   -4.1908 H   0  0  0  0  0  0  0  0  0  0  0  0
    9.5007   -1.5507   -4.2196 H   0  0  0  0  0  0  0  0  0  0  0  0
    9.0287    0.4179   -3.0295 H   0  0  0  0  0  0  0  0  0  0  0  0
    7.8309    1.7851   -1.5474 H   0  0  0  0  0  0  0  0  0  0  0  0
    5.0984   -0.4634   -0.1593 H   0  0  0  0  0  0  0  0  0  0  0  0
    3.5175    0.3262    1.5269 H   0  0  0  0  0  0  0  0  0  0  0  0
    5.3221    4.1594    1.4118 H   0  0  0  0  0  0  0  0  0  0  0  0
    6.9022    3.4298   -0.2050 H   0  0  0  0  0  0  0  0  0  0  0  0
    1.6658    4.6586    2.4238 H   0  0  0  0  0  0  0  0  0  0  0  0
    1.4806    1.2657    0.8162 H   0  0  0  0  0  0  0  0  0  0  0  0
   -0.6917    0.2318    0.2480 H   0  0  0  0  0  0  0  0  0  0  0  0
   -2.6744    3.4936    2.1482 H   0  0  0  0  0  0  0  0  0  0  0  0
   -0.6257    4.4607    2.7019 H   0  0  0  0  0  0  0  0  0  0  0  0
   -4.0070    2.1547    2.6353 H   0  0  0  0  0  0  0  0  0  0  0  0
   -6.1991    1.0597    2.4165 H   0  0  0  0  0  0  0  0  0  0  0  0
   -4.8076   -1.1298   -0.9186 H   0  0  0  0  0  0  0  0  0  0  0  0
   -2.6381   -0.0665   -0.7288 H   0  0  0  0  0  0  0  0  0  0  0  0
   -7.5232   -0.5363    2.6571 H   0  0  0  0  0  0  0  0  0  0  0  0
   -8.0917    0.8040    1.5136 H   0  0  0  0  0  0  0  0  0  0  0  0
   -9.9745   -0.7119    2.1363 H   0  0  0  0  0  0  0  0  0  0  0  0
   -8.4376   -2.9075    0.8042 H   0  0  0  0  0  0  0  0  0  0  0  0
  -10.2231   -4.2025    1.4375 H   0  0  0  0  0  0  0  0  0  0  0  0
  -10.8050   -2.9332    2.5751 H   0  0  0  0  0  0  0  0  0  0  0  0
  -12.2985   -2.3829    0.8773 H   0  0  0  0  0  0  0  0  0  0  0  0
  -11.4703   -3.5342   -0.2354 H   0  0  0  0  0  0  0  0  0  0  0  0
   -8.4381    0.8724   -0.4658 H   0  0  0  0  0  0  0  0  0  0  0  0
   -9.1917    1.3749   -3.8481 H   0  0  0  0  0  0  0  0  0  0  0  0
  -12.1377   -1.9681   -1.9257 H   0  0  0  0  0  0  0  0  0  0  0  0
  -11.8695   -0.9108   -4.1436 H   0  0  0  0  0  0  0  0  0  0  0  0
  1  2  1  0
  2  3  1  0
  3  4  1  0
  4  5  1  0
  5  6  1  0
  6  7  1  0
  7  8  1  0
  8  9  2  0
  8 10  1  0
 10 11  1  0
 11 12  2  0
 12 13  1  0
 13 14  2  0
 14 15  1  0
 15 16  2  0
 14 17  1  0
 17 18  2  0
 17 19  2  0
 17 20  1  0
 20 21  1  0
 21 22  2  0
 22 23  1  0
 23 24  2  0
 24 25  1  0
 25 26  2  0
 24 27  1  0
 27 28  2  0
 28 29  1  0
 29 30  2  0
 30 31  1  0
 31 32  2  0
 30 33  1  0
 33 34  1  0
 34 35  1  0
 35 36  1  0
 36 37  1  0
 37 38  1  0
 38 39  1  0
 39 40  2  0
 40 41  1  0
 41 42  2  0
 42 43  1  0
 42 44  1  0
 44 45  2  0
 44 46  1  0
 16 11  1  0
 26 21  1  0
 32 27  1  0
 40 35  1  0
 45 39  1  0
  1 47  1  0
  1 48  1  0
  1 49  1  0
  2 50  1  0
  2 51  1  0
  3 52  1  0
  3 53  1  0
  4 54  1  0
  4 55  1  0
  5 56  1  0
  5 57  1  0
  6 58  1  0
  6 59  1  0
  7 60  1  0
 10 61  1  0
 12 62  1  0
 13 63  1  0
 15 64  1  0
 16 65  1  0
 20 66  1  0
 22 67  1  0
 23 68  1  0
 25 69  1  0
 26 70  1  0
 28 71  1  0
 29 72  1  0
 31 73  1  0
 32 74  1  0
 34 75  1  0
 34 76  1  0
 35 77  1  0
 36 78  1  0
 37 79  1  0
 37 80  1  0
 38 81  1  0
 38 82  1  0
 41 83  1  0
 43 84  1  0
 45 85  1  0
 46 86  1  0
M  END
>  <Ligand ID>  (1) 
LIG0004310

>  <Ligand>  (1) 
CHEMBL312074

>  <SMILES>  (1) 
CCCCCCNC(=O)Nc1ccc(cc1)S(=O)(=O)Nc1ccc(cc1)c1ccc(cc1)OCC1NCCc2c1cc(O)c(c2)O

>  <CID>  (1) 
9832011.0

>  <ChEMBL ID>  (1) 
nan

>  <InChiKey>  (1) 
PBDUGJXIYQGSPE-UHFFFAOYSA-N

>  <InChi>  (1) 
InChI=1S/C35H40N4O6S/c1-2-3-4-5-19-37-35(42)38-27-12-16-30(17-13-27)46(43,44)39-28-10-6-24(7-11-28)25-8-14-29(15-9-25)45-23-32-31-22-34(41)33(40)21-26(31)18-20-36-32/h6-17,21-22,32,36,39-41H,2-5,18-20,23H2,1H3,(H2,37,38,42)

>  <IUPAC Name>  (1) 
1-[4-[[4-[4-[(6,7-dihydroxy-1,2,3,4-tetrahydroisoquinolin-1-yl)methoxy]phenyl]phenyl]sulfamoyl]phenyl]-3-hexylurea

$$$$
