
     RDKit          3D

 24 26  0  0  0  0  0  0  0  0999 V2000
   -3.2642    2.1544    0.1080 O   0  0  0  0  0  0  0  0  0  0  0  0
   -2.7076    1.0312    0.0316 C   0  0  0  0  0  0  0  0  0  0  0  0
   -3.4166   -0.1481   -0.0713 C   0  0  0  0  0  0  0  0  0  0  0  0
   -2.7929   -1.3747   -0.1544 C   0  0  0  0  0  0  0  0  0  0  0  0
   -1.4295   -1.4703   -0.1378 N   0  0  0  0  0  0  0  0  0  0  0  0
   -0.7106   -0.3471   -0.0391 C   0  0  0  0  0  0  0  0  0  0  0  0
   -1.3138    0.8914    0.0453 C   0  0  0  0  0  0  0  0  0  0  0  0
   -0.6065    2.0729    0.1483 C   0  0  0  0  0  0  0  0  0  0  0  0
    0.7709    2.0309    0.1693 C   0  0  0  0  0  0  0  0  0  0  0  0
    1.3733    0.7875    0.0845 C   0  0  0  0  0  0  0  0  0  0  0  0
    0.6603   -0.3888   -0.0182 C   0  0  0  0  0  0  0  0  0  0  0  0
    1.3153   -1.5582   -0.0964 N   0  0  0  0  0  0  0  0  0  0  0  0
    2.6787   -1.5893   -0.0749 C   0  0  0  0  0  0  0  0  0  0  0  0
    3.3906   -0.4145    0.0277 C   0  0  0  0  0  0  0  0  0  0  0  0
    2.7725    0.8044    0.1103 C   0  0  0  0  0  0  0  0  0  0  0  0
    3.4196    1.8819    0.2043 O   0  0  0  0  0  0  0  0  0  0  0  0
   -4.5004   -0.1389   -0.0896 H   0  0  0  0  0  0  0  0  0  0  0  0
   -3.3994   -2.2821   -0.2347 H   0  0  0  0  0  0  0  0  0  0  0  0
   -1.0490   -2.4137   -0.2035 H   0  0  0  0  0  0  0  0  0  0  0  0
   -1.0990    3.0369    0.2136 H   0  0  0  0  0  0  0  0  0  0  0  0
    1.3577    2.9512    0.2502 H   0  0  0  0  0  0  0  0  0  0  0  0
    0.8606   -2.4887   -0.1758 H   0  0  0  0  0  0  0  0  0  0  0  0
    3.2170   -2.5425   -0.1386 H   0  0  0  0  0  0  0  0  0  0  0  0
    4.4729   -0.4858    0.0412 H   0  0  0  0  0  0  0  0  0  0  0  0
  1  2  2  0
  2  3  1  0
  3  4  2  0
  4  5  1  0
  5  6  1  0
  6  7  2  0
  7  8  1  0
  8  9  2  0
  9 10  1  0
 10 11  2  0
 11 12  1  0
 12 13  1  0
 13 14  2  0
 14 15  1  0
 15 16  2  0
  7  2  1  0
 15 10  1  0
 11  6  1  0
  3 17  1  0
  4 18  1  0
  5 19  1  0
  8 20  1  0
  9 21  1  0
 12 22  1  0
 13 23  1  0
 14 24  1  0
M  END
>  <Ligand ID>  (1) 
LIG0002800

>  <Ligand>  (1) 
1,10-Phenanthroline-4,7-diol

>  <SMILES>  (1) 
O=c1cc[nH]c2c1ccc1c2[nH]ccc1=O

>  <CID>  (1) 
77524.0

>  <ChEMBL ID>  (1) 
nan

>  <InChiKey>  (1) 
SLIBCJURSADKPV-UHFFFAOYSA-N

>  <InChi>  (1) 
InChI=1S/C12H8N2O2/c15-9-3-5-13-11-7(9)1-2-8-10(16)4-6-14-12(8)11/h1-6H,(H,13,15)(H,14,16)

>  <IUPAC Name>  (1) 
1,10-dihydro-1,10-phenanthroline-4,7-dione

$$$$
