
     RDKit          3D

 32 34  0  0  0  0  0  0  0  0999 V2000
    4.0613   -0.7143   -1.2358 C   0  0  0  0  0  0  0  0  0  0  0  0
    3.3041   -1.3357   -0.0875 C   0  0  0  0  0  0  0  0  0  0  0  0
    2.1425   -0.4586    0.2875 C   0  0  0  0  0  0  0  0  0  0  0  0
    0.9008   -0.6186   -0.2987 C   0  0  0  0  0  0  0  0  0  0  0  0
   -0.1515    0.1947    0.0579 C   0  0  0  0  0  0  0  0  0  0  0  0
   -1.4360    0.0265   -0.5911 C   0  0  1  0  0  0  0  0  0  0  0  0
   -1.8974   -1.3166   -0.9761 C   0  0  0  0  0  0  0  0  0  0  0  0
   -3.3349   -1.0763   -1.2048 N   0  0  0  0  0  0  0  0  0  0  0  0
   -3.7146    0.0021   -0.2748 C   0  0  0  0  0  0  0  0  0  0  0  0
   -2.4979    0.3608    0.4779 C   0  0  2  0  0  0  0  0  0  0  0  0
   -2.2702    1.7417    0.7829 N   0  0  0  0  0  0  0  0  0  0  0  0
   -1.0206    2.0402    1.4536 C   0  0  0  0  0  0  0  0  0  0  0  0
   -0.9077    2.9391    2.3011 O   0  0  0  0  0  0  0  0  0  0  0  0
    0.1039    1.1741    1.0311 C   0  0  0  0  0  0  0  0  0  0  0  0
    1.3332    1.3313    1.6099 C   0  0  0  0  0  0  0  0  0  0  0  0
    2.3819    0.5130    1.2467 C   0  0  0  0  0  0  0  0  0  0  0  0
    1.5899    2.5773    2.8220 Cl  0  0  0  0  0  0  0  0  0  0  0  0
    3.4772    0.1669   -1.6179 H   0  0  0  0  0  0  0  0  0  0  0  0
    4.2414   -1.4342   -2.0402 H   0  0  0  0  0  0  0  0  0  0  0  0
    5.0197   -0.3118   -0.8563 H   0  0  0  0  0  0  0  0  0  0  0  0
    2.9237   -2.3228   -0.4403 H   0  0  0  0  0  0  0  0  0  0  0  0
    3.9429   -1.5250    0.7835 H   0  0  0  0  0  0  0  0  0  0  0  0
    0.7387   -1.3865   -1.0470 H   0  0  0  0  0  0  0  0  0  0  0  0
   -1.6145    0.7241   -1.4385 H   0  0  0  0  0  0  0  0  0  0  0  0
   -1.4833   -1.6965   -1.9389 H   0  0  0  0  0  0  0  0  0  0  0  0
   -1.8397   -2.0676   -0.1674 H   0  0  0  0  0  0  0  0  0  0  0  0
   -3.4546   -0.6804   -2.1591 H   0  0  0  0  0  0  0  0  0  0  0  0
   -4.2457    0.8178   -0.7553 H   0  0  0  0  0  0  0  0  0  0  0  0
   -4.4369   -0.4901    0.4227 H   0  0  0  0  0  0  0  0  0  0  0  0
   -2.3067   -0.3187    1.3442 H   0  0  0  0  0  0  0  0  0  0  0  0
   -2.9143    2.5320    0.5708 H   0  0  0  0  0  0  0  0  0  0  0  0
    3.3653    0.6119    1.6855 H   0  0  0  0  0  0  0  0  0  0  0  0
  1  2  1  0
  2  3  1  0
  3  4  2  0
  4  5  1  0
  5  6  1  0
  6  7  1  0
  7  8  1  0
  8  9  1  0
  9 10  1  0
 10 11  1  0
 11 12  1  0
 12 13  2  0
 12 14  1  0
 14 15  1  0
 15 16  2  0
 15 17  1  0
 16  3  1  0
 14  5  2  0
 10  6  1  0
  1 18  1  0
  1 19  1  0
  1 20  1  0
  2 21  1  0
  2 22  1  0
  4 23  1  0
  6 24  1  6
  7 25  1  0
  7 26  1  0
  8 27  1  0
  9 28  1  0
  9 29  1  0
 10 30  1  1
 11 31  1  0
 16 32  1  0
M  END
>  <Ligand ID>  (1) 
LIG0004108

>  <Ligand>  (1) 
CHEMBL2337497

>  <SMILES>  (1) 
CCc1cc2[C@H]3CNC[C@@H]3NC(=O)c2c(c1)Cl

>  <CID>  (1) 
11716185.0

>  <ChEMBL ID>  (1) 
nan

>  <InChiKey>  (1) 
OJWLDYFNCCLCET-KOLCDFICSA-N

>  <InChi>  (1) 
InChI=1S/C13H15ClN2O/c1-2-7-3-8-9-5-15-6-11(9)16-13(17)12(8)10(14)4-7/h3-4,9,11,15H,2,5-6H2,1H3,(H,16,17)/t9-,11+/m1/s1

>  <IUPAC Name>  (1) 
(3aR,9bS)-6-chloro-8-ethyl-1,2,3,3a,4,9b-hexahydropyrrolo[3,4-c]isoquinolin-5-one

$$$$
