
     RDKit          3D

 61 64  0  0  0  0  0  0  0  0999 V2000
    8.2993   -1.1124    0.6264 O   0  0  0  0  0  0  0  0  0  0  0  0
    6.9802   -0.6790    0.6364 C   0  0  0  0  0  0  0  0  0  0  0  0
    6.0353   -1.1228    1.5148 C   0  0  0  0  0  0  0  0  0  0  0  0
    4.7249   -0.6621    1.4898 C   0  0  0  0  0  0  0  0  0  0  0  0
    3.8085   -1.2346    2.5078 C   0  0  0  0  0  0  0  0  0  0  0  0
    4.3377    0.2750    0.5572 C   0  0  0  0  0  0  0  0  0  0  0  0
    5.2856    0.7498   -0.3577 C   0  0  0  0  0  0  0  0  0  0  0  0
    6.5965    0.2600   -0.2995 C   0  0  0  0  0  0  0  0  0  0  0  0
    4.9313    1.7589   -1.3750 C   0  0  0  0  0  0  0  0  0  0  0  0
    2.9404    0.7628    0.5410 C   0  0  0  0  0  0  0  0  0  0  0  0
    1.9492   -0.2217   -0.0345 C   0  0  1  0  0  0  0  0  0  0  0  0
    0.6269    0.4380    0.0286 C   0  0  0  0  0  0  0  0  0  0  0  0
    0.3244    0.9388    1.1723 O   0  0  0  0  0  0  0  0  0  0  0  0
   -0.2743    0.5374   -1.0625 N   0  0  0  0  0  0  0  0  0  0  0  0
   -0.0096   -0.0091   -2.3752 C   0  0  0  0  0  0  0  0  0  0  0  0
   -1.0906    0.1445   -3.3735 C   0  0  0  0  0  0  0  0  0  0  0  0
   -2.0362    1.2748   -3.2041 C   0  0  0  0  0  0  0  0  0  0  0  0
   -1.8405    2.1361   -2.0079 C   0  0  0  0  0  0  0  0  0  0  0  0
   -1.5281    1.2451   -0.8248 C   0  0  1  0  0  0  0  0  0  0  0  0
   -2.6565    0.3721   -0.5070 C   0  0  0  0  0  0  0  0  0  0  0  0
   -2.9748   -0.7503   -1.1283 N   0  0  0  0  0  0  0  0  0  0  0  0
   -4.0721   -1.2814   -0.5633 C   0  0  0  0  0  0  0  0  0  0  0  0
   -4.4561   -0.4545    0.4557 C   0  0  0  0  0  0  0  0  0  0  0  0
   -3.5816    0.5503    0.4770 N   0  0  0  0  0  0  0  0  0  0  0  0
   -5.5921   -0.6327    1.3422 C   0  0  0  0  0  0  0  0  0  0  0  0
   -5.8731    0.2749    2.3361 C   0  0  0  0  0  0  0  0  0  0  0  0
   -6.9637    0.1074    3.1889 C   0  0  0  0  0  0  0  0  0  0  0  0
   -7.7849   -1.0114    3.0228 C   0  0  0  0  0  0  0  0  0  0  0  0
   -7.5208   -1.9362    2.0302 C   0  0  0  0  0  0  0  0  0  0  0  0
   -6.4287   -1.7232    1.2131 C   0  0  0  0  0  0  0  0  0  0  0  0
    2.3015   -0.7897   -1.2824 N   0  0  0  0  0  0  0  0  0  0  0  0
    8.5110   -1.8600   -0.0317 H   0  0  0  0  0  0  0  0  0  0  0  0
    6.3475   -1.8710    2.2582 H   0  0  0  0  0  0  0  0  0  0  0  0
    4.3747   -1.5009    3.4246 H   0  0  0  0  0  0  0  0  0  0  0  0
    3.4644   -2.2266    2.1037 H   0  0  0  0  0  0  0  0  0  0  0  0
    2.9959   -0.5723    2.8061 H   0  0  0  0  0  0  0  0  0  0  0  0
    7.3303    0.6410   -1.0238 H   0  0  0  0  0  0  0  0  0  0  0  0
    4.4721    1.2674   -2.2526 H   0  0  0  0  0  0  0  0  0  0  0  0
    4.3843    2.6350   -0.9913 H   0  0  0  0  0  0  0  0  0  0  0  0
    5.8902    2.1990   -1.7806 H   0  0  0  0  0  0  0  0  0  0  0  0
    2.5789    0.9896    1.5714 H   0  0  0  0  0  0  0  0  0  0  0  0
    2.8527    1.7631    0.0231 H   0  0  0  0  0  0  0  0  0  0  0  0
    1.8925   -1.0491    0.7317 H   0  0  0  0  0  0  0  0  0  0  0  0
    0.9203    0.5137   -2.7244 H   0  0  0  0  0  0  0  0  0  0  0  0
    0.1927   -1.1219   -2.2990 H   0  0  0  0  0  0  0  0  0  0  0  0
   -0.5726    0.3164   -4.3694 H   0  0  0  0  0  0  0  0  0  0  0  0
   -1.6261   -0.8371   -3.5651 H   0  0  0  0  0  0  0  0  0  0  0  0
   -3.0850    0.8497   -3.1985 H   0  0  0  0  0  0  0  0  0  0  0  0
   -2.0656    1.9682   -4.0946 H   0  0  0  0  0  0  0  0  0  0  0  0
   -1.0425    2.8923   -2.1529 H   0  0  0  0  0  0  0  0  0  0  0  0
   -2.8245    2.6307   -1.7867 H   0  0  0  0  0  0  0  0  0  0  0  0
   -1.4059    1.9648    0.0400 H   0  0  0  0  0  0  0  0  0  0  0  0
   -4.5373   -2.2103   -0.8945 H   0  0  0  0  0  0  0  0  0  0  0  0
   -3.6231    1.3522    1.1649 H   0  0  0  0  0  0  0  0  0  0  0  0
   -5.2507    1.1568    2.4897 H   0  0  0  0  0  0  0  0  0  0  0  0
   -7.1906    0.8218    3.9766 H   0  0  0  0  0  0  0  0  0  0  0  0
   -8.6440   -1.1711    3.6720 H   0  0  0  0  0  0  0  0  0  0  0  0
   -8.1469   -2.8230    1.8763 H   0  0  0  0  0  0  0  0  0  0  0  0
   -6.1949   -2.4328    0.4233 H   0  0  0  0  0  0  0  0  0  0  0  0
    3.3465   -0.6574   -1.3979 H   0  0  0  0  0  0  0  0  0  0  0  0
    2.1976   -1.8328   -1.2310 H   0  0  0  0  0  0  0  0  0  0  0  0
  1  2  1  0
  2  3  2  0
  3  4  1  0
  4  5  1  0
  4  6  2  0
  6  7  1  0
  7  8  2  0
  7  9  1  0
  6 10  1  0
 10 11  1  0
 11 12  1  0
 12 13  2  0
 12 14  1  0
 14 15  1  0
 15 16  1  0
 16 17  1  0
 17 18  1  0
 18 19  1  0
 19 20  1  0
 20 21  2  0
 21 22  1  0
 22 23  2  0
 23 24  1  0
 23 25  1  0
 25 26  2  0
 26 27  1  0
 27 28  2  0
 28 29  1  0
 29 30  2  0
 11 31  1  0
  8  2  1  0
 19 14  1  0
 24 20  1  0
 30 25  1  0
  1 32  1  0
  3 33  1  0
  5 34  1  0
  5 35  1  0
  5 36  1  0
  8 37  1  0
  9 38  1  0
  9 39  1  0
  9 40  1  0
 10 41  1  0
 10 42  1  0
 11 43  1  1
 15 44  1  0
 15 45  1  0
 16 46  1  0
 16 47  1  0
 17 48  1  0
 17 49  1  0
 18 50  1  0
 18 51  1  0
 19 52  1  1
 22 53  1  0
 24 54  1  0
 26 55  1  0
 27 56  1  0
 28 57  1  0
 29 58  1  0
 30 59  1  0
 31 60  1  0
 31 61  1  0
M  END
>  <Ligand ID>  (1) 
LIG0003769

>  <Ligand>  (1) 
CHEMBL377069

>  <SMILES>  (1) 
Oc1cc(C)c(c(c1)C)C[C@@H](C(=O)N1CCCC[C@H]1c1ncc([nH]1)c1ccccc1)N

>  <CID>  (1) 
9909946.0

>  <ChEMBL ID>  (1) 
nan

>  <InChiKey>  (1) 
KLOMLLAPAMKOJE-GMAHTHKFSA-N

>  <InChi>  (1) 
InChI=1S/C25H30N4O2/c1-16-12-19(30)13-17(2)20(16)14-21(26)25(31)29-11-7-6-10-23(29)24-27-15-22(28-24)18-8-4-3-5-9-18/h3-5,8-9,12-13,15,21,23,30H,6-7,10-11,14,26H2,1-2H3,(H,27,28)/t21-,23-/m0/s1

>  <IUPAC Name>  (1) 
(2S)-2-amino-3-(4-hydroxy-2,6-dimethylphenyl)-1-[(2S)-2-(5-phenyl-1H-imidazol-2-yl)piperidin-1-yl]propan-1-one

$$$$
