
     RDKit          3D

 33 32  0  0  0  0  0  0  0  0999 V2000
    0.7613   -2.3356   -1.2434 O   0  0  0  0  0  0  0  0  0  0  0  0
    0.7095   -1.5878   -0.0733 C   0  0  0  0  0  0  0  0  0  0  0  0
    0.6171   -2.1773    1.0427 O   0  0  0  0  0  0  0  0  0  0  0  0
    0.7666   -0.1147   -0.2002 C   0  0  1  0  0  0  0  0  0  0  0  0
    2.0263    0.3684   -0.8596 C   0  0  0  0  0  0  0  0  0  0  0  0
    3.1299   -0.1494    0.0762 C   0  0  1  0  0  0  0  0  0  0  0  0
    4.4691    0.2356   -0.4179 C   0  0  0  0  0  0  0  0  0  0  0  0
    4.9161   -0.1531   -1.5511 O   0  0  0  0  0  0  0  0  0  0  0  0
    5.3211    1.0442    0.3230 O   0  0  0  0  0  0  0  0  0  0  0  0
    2.8094    0.3873    1.3723 N   0  0  0  0  0  0  0  0  0  0  0  0
   -0.5023    0.4407   -0.7811 C   0  0  0  0  0  0  0  0  0  0  0  0
   -1.5814    0.0071    0.2212 C   0  0  0  0  0  0  0  0  0  0  0  0
   -2.9156    0.4658   -0.1827 C   0  0  0  0  0  0  0  0  0  0  0  0
   -3.0080    1.1307   -1.2560 O   0  0  0  0  0  0  0  0  0  0  0  0
   -4.0720    0.1690    0.6135 N   0  0  0  0  0  0  0  0  0  0  0  0
   -3.9802   -0.5408    1.7609 O   0  0  0  0  0  0  0  0  0  0  0  0
   -5.3712    0.6625    0.1426 C   0  0  0  0  0  0  0  0  0  0  0  0
    0.7184   -3.3457   -1.2179 H   0  0  0  0  0  0  0  0  0  0  0  0
    0.8117    0.2968    0.8511 H   0  0  0  0  0  0  0  0  0  0  0  0
    2.1448   -0.0032   -1.8882 H   0  0  0  0  0  0  0  0  0  0  0  0
    2.0684    1.4619   -0.7676 H   0  0  0  0  0  0  0  0  0  0  0  0
    2.9845   -1.2486    0.1210 H   0  0  0  0  0  0  0  0  0  0  0  0
    5.8443    1.8046   -0.1340 H   0  0  0  0  0  0  0  0  0  0  0  0
    3.2538   -0.0760    2.1707 H   0  0  0  0  0  0  0  0  0  0  0  0
    2.6909    1.4048    1.4129 H   0  0  0  0  0  0  0  0  0  0  0  0
   -0.4441    1.5283   -0.8518 H   0  0  0  0  0  0  0  0  0  0  0  0
   -0.7300    0.0466   -1.7935 H   0  0  0  0  0  0  0  0  0  0  0  0
   -1.5701   -1.0998    0.2943 H   0  0  0  0  0  0  0  0  0  0  0  0
   -1.2502    0.4206    1.1991 H   0  0  0  0  0  0  0  0  0  0  0  0
   -3.6011   -1.4347    1.6590 H   0  0  0  0  0  0  0  0  0  0  0  0
   -5.6083    0.0429   -0.7456 H   0  0  0  0  0  0  0  0  0  0  0  0
   -6.1298    0.6366    0.9285 H   0  0  0  0  0  0  0  0  0  0  0  0
   -5.2788    1.7122   -0.2252 H   0  0  0  0  0  0  0  0  0  0  0  0
  1  2  1  0
  2  3  2  0
  2  4  1  0
  4  5  1  0
  5  6  1  0
  6  7  1  0
  7  8  2  0
  7  9  1  0
  6 10  1  0
  4 11  1  0
 11 12  1  0
 12 13  1  0
 13 14  2  0
 13 15  1  0
 15 16  1  0
 15 17  1  0
  1 18  1  0
  4 19  1  1
  5 20  1  0
  5 21  1  0
  6 22  1  1
  9 23  1  0
 10 24  1  0
 10 25  1  0
 11 26  1  0
 11 27  1  0
 12 28  1  0
 12 29  1  0
 16 30  1  0
 17 31  1  0
 17 32  1  0
 17 33  1  0
M  END
>  <Ligand ID>  (1) 
LIG0000596

>  <Ligand>  (1) 
CHEMBL2312403

>  <SMILES>  (1) 
OC(=O)[C@@H](C[C@@H](C(=O)O)N)CCC(=O)N(O)C

>  <CID>  (1) 
70789291.0

>  <ChEMBL ID>  (1) 
nan

>  <InChiKey>  (1) 
YWTXUGAXXGHUOR-RITPCOANSA-N

>  <InChi>  (1) 
InChI=1S/C9H16N2O6/c1-11(17)7(12)3-2-5(8(13)14)4-6(10)9(15)16/h5-6,17H,2-4,10H2,1H3,(H,13,14)(H,15,16)/t5-,6+/m1/s1

>  <IUPAC Name>  (1) 
(2S,4R)-2-amino-4-[3-[hydroxy(methyl)amino]-3-oxopropyl]pentanedioic acid

$$$$
