
     RDKit          3D

 63 69  0  0  0  0  0  0  0  0999 V2000
    3.4322    3.7052   -1.6812 C   0  0  0  0  0  0  0  0  0  0  0  0
    2.8953    2.4686   -2.3278 C   0  0  0  0  0  0  0  0  0  0  0  0
    1.7505    1.8942   -1.4664 C   0  0  0  0  0  0  0  0  0  0  0  0
    1.1918    0.6673   -2.0704 C   0  0  0  0  0  0  0  0  0  0  0  0
    0.1650   -0.0411   -1.5051 N   0  0  0  0  0  0  0  0  0  0  0  0
    0.1670   -0.7934   -0.3428 C   0  0  1  0  0  0  0  0  0  0  0  0
    0.4058    0.0207    0.8813 C   0  0  0  0  0  0  0  0  0  0  0  0
   -0.4880    1.2052    0.8180 C   0  0  0  0  0  0  0  0  0  0  0  0
   -1.7884    1.0639    0.3847 C   0  0  0  0  0  0  0  0  0  0  0  0
   -2.3037   -0.2619   -0.0220 C   0  0  1  0  0  0  0  0  0  0  0  0
   -1.2585   -1.3214   -0.1934 C   0  0  1  0  0  0  0  0  0  0  0  0
   -1.6388   -2.2630   -1.2961 C   0  0  0  0  0  0  0  0  0  0  0  0
   -0.5627   -3.0196   -1.9499 C   0  0  0  0  0  0  0  0  0  0  0  0
    0.7708   -2.6347   -1.6972 N   0  0  0  0  0  0  0  0  0  0  0  0
    1.0057   -2.0496   -0.3982 C   0  0  0  0  0  0  0  0  0  0  0  0
    0.7620   -3.0809    0.6245 C   0  0  0  0  0  0  0  0  0  0  0  0
   -0.4058   -2.9116    1.4934 C   0  0  0  0  0  0  0  0  0  0  0  0
   -1.3833   -2.0403    1.0944 C   0  0  0  0  0  0  0  0  0  0  0  0
   -2.5226   -1.7341    1.7585 C   0  0  0  0  0  0  0  0  0  0  0  0
   -3.2063   -0.8026    0.9762 O   0  0  0  0  0  0  0  0  0  0  0  0
   -2.7278   -2.3691    2.9726 C   0  0  0  0  0  0  0  0  0  0  0  0
   -1.7677   -3.2695    3.4332 C   0  0  0  0  0  0  0  0  0  0  0  0
   -0.6060   -3.5463    2.7018 C   0  0  0  0  0  0  0  0  0  0  0  0
   -3.8833   -2.0848    3.6861 O   0  0  0  0  0  0  0  0  0  0  0  0
    1.7053   -3.6961   -1.9994 C   0  0  0  0  0  0  0  0  0  0  0  0
   -2.4208    2.2439    0.4077 N   0  0  0  0  0  0  0  0  0  0  0  0
   -1.5551    3.1672    0.8514 C   0  0  0  0  0  0  0  0  0  0  0  0
   -0.3495    2.5455    1.1123 C   0  0  0  0  0  0  0  0  0  0  0  0
    0.7250    3.2625    1.5833 C   0  0  0  0  0  0  0  0  0  0  0  0
    0.5601    4.6173    1.7859 C   0  0  0  0  0  0  0  0  0  0  0  0
   -0.6495    5.2438    1.5249 C   0  0  0  0  0  0  0  0  0  0  0  0
   -1.7171    4.5290    1.0563 C   0  0  0  0  0  0  0  0  0  0  0  0
    4.5001    3.9017   -1.9562 H   0  0  0  0  0  0  0  0  0  0  0  0
    2.8431    4.5841   -1.9997 H   0  0  0  0  0  0  0  0  0  0  0  0
    3.4013    3.6593   -0.5737 H   0  0  0  0  0  0  0  0  0  0  0  0
    2.3556    2.7910   -3.2667 H   0  0  0  0  0  0  0  0  0  0  0  0
    3.6501    1.7171   -2.5481 H   0  0  0  0  0  0  0  0  0  0  0  0
    1.0537    2.7505   -1.3888 H   0  0  0  0  0  0  0  0  0  0  0  0
    2.2147    1.7624   -0.4729 H   0  0  0  0  0  0  0  0  0  0  0  0
    2.0997    0.0450   -2.3861 H   0  0  0  0  0  0  0  0  0  0  0  0
    0.8433    0.9870   -3.1101 H   0  0  0  0  0  0  0  0  0  0  0  0
   -0.7179    0.0289   -2.0365 H   0  0  0  0  0  0  0  0  0  0  0  0
    0.0285   -0.5144    1.8187 H   0  0  0  0  0  0  0  0  0  0  0  0
    1.4452    0.2424    1.1412 H   0  0  0  0  0  0  0  0  0  0  0  0
   -2.8903   -0.1854   -0.9423 H   0  0  0  0  0  0  0  0  0  0  0  0
   -2.2563   -1.6635   -2.0281 H   0  0  0  0  0  0  0  0  0  0  0  0
   -2.3759   -2.9899   -0.8779 H   0  0  0  0  0  0  0  0  0  0  0  0
   -0.6400   -4.1271   -1.7564 H   0  0  0  0  0  0  0  0  0  0  0  0
   -0.7158   -2.9431   -3.0670 H   0  0  0  0  0  0  0  0  0  0  0  0
    2.1056   -1.7910   -0.3949 H   0  0  0  0  0  0  0  0  0  0  0  0
    1.6533   -3.1934    1.3092 H   0  0  0  0  0  0  0  0  0  0  0  0
    0.6590   -4.1218    0.2017 H   0  0  0  0  0  0  0  0  0  0  0  0
   -1.9116   -3.7778    4.3839 H   0  0  0  0  0  0  0  0  0  0  0  0
    0.1427   -4.2363    3.0404 H   0  0  0  0  0  0  0  0  0  0  0  0
   -3.9057   -1.4265    4.4528 H   0  0  0  0  0  0  0  0  0  0  0  0
    1.2318   -4.5887   -2.4374 H   0  0  0  0  0  0  0  0  0  0  0  0
    2.2935   -4.0301   -1.1347 H   0  0  0  0  0  0  0  0  0  0  0  0
    2.4093   -3.2980   -2.7617 H   0  0  0  0  0  0  0  0  0  0  0  0
   -3.4092    2.4184    0.1309 H   0  0  0  0  0  0  0  0  0  0  0  0
    1.6439    2.7291    1.7699 H   0  0  0  0  0  0  0  0  0  0  0  0
    1.3875    5.1892    2.1511 H   0  0  0  0  0  0  0  0  0  0  0  0
   -0.7879    6.3186    1.6829 H   0  0  0  0  0  0  0  0  0  0  0  0
   -2.6528    5.0477    0.8599 H   0  0  0  0  0  0  0  0  0  0  0  0
  1  2  1  0
  2  3  1  0
  3  4  1  0
  4  5  1  0
  6  5  1  6
  6  7  1  0
  7  8  1  0
  8  9  2  0
  9 10  1  0
 10 11  1  0
 11 12  1  6
 12 13  1  0
 13 14  1  0
 14 15  1  0
 15 16  1  0
 16 17  1  0
 17 18  2  0
 18 19  1  0
 19 20  1  0
 19 21  2  0
 21 22  1  0
 22 23  2  0
 21 24  1  0
 14 25  1  0
  9 26  1  0
 26 27  1  0
 27 28  2  0
 28 29  1  0
 29 30  2  0
 30 31  1  0
 31 32  2  0
 15  6  1  0
 23 17  1  0
 32 27  1  0
 11  6  1  0
 28  8  1  0
 20 10  1  0
 18 11  1  0
  1 33  1  0
  1 34  1  0
  1 35  1  0
  2 36  1  0
  2 37  1  0
  3 38  1  0
  3 39  1  0
  4 40  1  0
  4 41  1  0
  5 42  1  0
  7 43  1  0
  7 44  1  0
 10 45  1  6
 12 46  1  0
 12 47  1  0
 13 48  1  0
 13 49  1  0
 15 50  1  0
 16 51  1  0
 16 52  1  0
 22 53  1  0
 23 54  1  0
 24 55  1  0
 25 56  1  0
 25 57  1  0
 25 58  1  0
 26 59  1  0
 29 60  1  0
 30 61  1  0
 31 62  1  0
 32 63  1  0
M  END
>  <Ligand ID>  (1) 
LIG0004327

>  <Ligand>  (1) 
CHEMBL2113377

>  <SMILES>  (1) 
CCCCN[C@]12Cc3c([C@H]4[C@]52CCN(C1Cc1c5c(O4)c(cc1)O)C)[nH]c1c3cccc1

>  <CID>  (1) 
71450932.0

>  <ChEMBL ID>  (1) 
nan

>  <InChiKey>  (1) 
ZLCHACBECUMKAL-SSNGLDLMSA-N

>  <InChi>  (1) 
InChI=1S/C27H31N3O2/c1-3-4-12-28-27-15-18-17-7-5-6-8-19(17)29-23(18)25-26(27)11-13-30(2)21(27)14-16-9-10-20(31)24(32-25)22(16)26/h5-10,21,25,28-29,31H,3-4,11-15H2,1-2H3/t21?,25-,26-,27+/m0/s1

>  <IUPAC Name>  (1) 
(1R,2S,13R)-2-(butylamino)-22-methyl-14-oxa-11,22-diazaheptacyclo[13.9.1.01,13.02,21.04,12.05,10.019,25]pentacosa-4(12),5,7,9,15,17,19(25)-heptaen-16-ol

$$$$
