
     RDKit          3D

 59 61  0  0  0  0  0  0  0  0999 V2000
   -7.4330    1.4554    0.4821 C   0  0  0  0  0  0  0  0  0  0  0  0
   -7.1859    0.9611   -0.8999 C   0  0  0  0  0  0  0  0  0  0  0  0
   -5.7859    0.8265   -1.3369 C   0  0  0  0  0  0  0  0  0  0  0  0
   -4.9333   -0.1393   -0.6286 C   0  0  0  0  0  0  0  0  0  0  0  0
   -4.7424    0.0918    0.8216 C   0  0  0  0  0  0  0  0  0  0  0  0
   -3.8055   -0.9580    1.4195 C   0  0  0  0  0  0  0  0  0  0  0  0
   -2.4618   -0.9576    0.8005 C   0  0  0  0  0  0  0  0  0  0  0  0
   -1.4232   -0.2387    1.3734 C   0  0  0  0  0  0  0  0  0  0  0  0
   -0.1522   -0.2186    0.8358 C   0  0  0  0  0  0  0  0  0  0  0  0
    0.1385   -0.9260   -0.3131 C   0  0  0  0  0  0  0  0  0  0  0  0
   -0.8874   -1.6582   -0.9107 C   0  0  0  0  0  0  0  0  0  0  0  0
   -2.1582   -1.6599   -0.3464 C   0  0  0  0  0  0  0  0  0  0  0  0
    1.4291   -0.9424   -0.9127 N   0  0  0  0  0  0  0  0  0  0  0  0
    1.9097   -0.0181   -1.9209 C   0  0  1  0  0  0  0  0  0  0  0  0
    2.9355    0.9140   -1.3009 C   0  0  0  0  0  0  0  0  0  0  0  0
    2.4443    1.6637   -0.2576 O   0  0  0  0  0  0  0  0  0  0  0  0
    3.4307    2.4740    0.2415 C   0  0  0  0  0  0  0  0  0  0  0  0
    4.6195    1.7451    0.7611 C   0  0  0  0  0  0  0  0  0  0  0  0
    4.8941    1.2615    2.0165 C   0  0  0  0  0  0  0  0  0  0  0  0
    6.0716    0.6346    2.1889 C   0  0  0  0  0  0  0  0  0  0  0  0
    6.9068    0.5123    1.1506 C   0  0  0  0  0  0  0  0  0  0  0  0
    6.0747    1.3049   -0.2304 S   0  0  0  0  0  0  0  0  0  0  0  0
    8.2209   -0.0979    1.0212 C   0  0  0  0  0  0  0  0  0  0  0  0
    8.8309   -0.0928   -0.0771 O   0  0  0  0  0  0  0  0  0  0  0  0
    8.7626   -0.6794    2.1563 O   0  0  0  0  0  0  0  0  0  0  0  0
    2.7024   -0.9710   -2.8133 C   0  0  0  0  0  0  0  0  0  0  0  0
    3.4155   -1.8670   -1.8039 C   0  0  0  0  0  0  0  0  0  0  0  0
    2.4884   -1.8602   -0.6424 C   0  0  0  0  0  0  0  0  0  0  0  0
    2.6282   -2.5540    0.3989 O   0  0  0  0  0  0  0  0  0  0  0  0
   -4.3657   -2.2103    1.3692 O   0  0  0  0  0  0  0  0  0  0  0  0
   -6.6034    1.9944    0.9399 H   0  0  0  0  0  0  0  0  0  0  0  0
   -8.2859    2.1966    0.4108 H   0  0  0  0  0  0  0  0  0  0  0  0
   -7.8502    0.6817    1.1711 H   0  0  0  0  0  0  0  0  0  0  0  0
   -7.7112    1.6630   -1.6259 H   0  0  0  0  0  0  0  0  0  0  0  0
   -7.7031   -0.0363   -0.9700 H   0  0  0  0  0  0  0  0  0  0  0  0
   -5.2939    1.8401   -1.3233 H   0  0  0  0  0  0  0  0  0  0  0  0
   -5.8343    0.5009   -2.4325 H   0  0  0  0  0  0  0  0  0  0  0  0
   -3.9102   -0.1108   -1.0966 H   0  0  0  0  0  0  0  0  0  0  0  0
   -5.2633   -1.2033   -0.7667 H   0  0  0  0  0  0  0  0  0  0  0  0
   -5.6944   -0.0783    1.4159 H   0  0  0  0  0  0  0  0  0  0  0  0
   -4.3945    1.1000    1.1117 H   0  0  0  0  0  0  0  0  0  0  0  0
   -3.7523   -0.6878    2.5058 H   0  0  0  0  0  0  0  0  0  0  0  0
   -1.6377    0.3267    2.2838 H   0  0  0  0  0  0  0  0  0  0  0  0
    0.6128    0.3541    1.3202 H   0  0  0  0  0  0  0  0  0  0  0  0
   -0.6597   -2.2162   -1.8163 H   0  0  0  0  0  0  0  0  0  0  0  0
   -2.9120   -2.2491   -0.8501 H   0  0  0  0  0  0  0  0  0  0  0  0
    1.1310    0.5157   -2.4631 H   0  0  0  0  0  0  0  0  0  0  0  0
    3.3072    1.5421   -2.1419 H   0  0  0  0  0  0  0  0  0  0  0  0
    3.8181    0.3496   -0.9391 H   0  0  0  0  0  0  0  0  0  0  0  0
    3.0998    3.1310    1.0658 H   0  0  0  0  0  0  0  0  0  0  0  0
    3.8044    3.0881   -0.6157 H   0  0  0  0  0  0  0  0  0  0  0  0
    4.1487    1.4025    2.8288 H   0  0  0  0  0  0  0  0  0  0  0  0
    6.3534    0.2166    3.1956 H   0  0  0  0  0  0  0  0  0  0  0  0
    9.6883   -1.1229    2.1515 H   0  0  0  0  0  0  0  0  0  0  0  0
    3.4892   -0.4258   -3.3424 H   0  0  0  0  0  0  0  0  0  0  0  0
    2.0566   -1.5336   -3.4905 H   0  0  0  0  0  0  0  0  0  0  0  0
    4.4091   -1.5126   -1.5290 H   0  0  0  0  0  0  0  0  0  0  0  0
    3.4489   -2.9208   -2.1784 H   0  0  0  0  0  0  0  0  0  0  0  0
   -4.4302   -2.6012    0.4674 H   0  0  0  0  0  0  0  0  0  0  0  0
  1  2  1  0
  2  3  1  0
  3  4  1  0
  4  5  1  0
  5  6  1  0
  6  7  1  0
  7  8  2  0
  8  9  1  0
  9 10  2  0
 10 11  1  0
 11 12  2  0
 10 13  1  0
 13 14  1  0
 14 15  1  0
 15 16  1  0
 16 17  1  0
 17 18  1  0
 18 19  2  0
 19 20  1  0
 20 21  2  0
 21 22  1  0
 21 23  1  0
 23 24  2  0
 23 25  1  0
 14 26  1  0
 26 27  1  0
 27 28  1  0
 28 29  2  0
  6 30  1  0
 12  7  1  0
 28 13  1  0
 22 18  1  0
  1 31  1  0
  1 32  1  0
  1 33  1  0
  2 34  1  0
  2 35  1  0
  3 36  1  0
  3 37  1  0
  4 38  1  0
  4 39  1  0
  5 40  1  0
  5 41  1  0
  6 42  1  0
  8 43  1  0
  9 44  1  0
 11 45  1  0
 12 46  1  0
 14 47  1  6
 15 48  1  0
 15 49  1  0
 17 50  1  0
 17 51  1  0
 19 52  1  0
 20 53  1  0
 25 54  1  0
 26 55  1  0
 26 56  1  0
 27 57  1  0
 27 58  1  0
 30 59  1  0
M  END
>  <Ligand ID>  (1) 
LIG0001871

>  <Ligand>  (1) 
SCHEMBL1309946

>  <SMILES>  (1) 
CCCCCC(c1ccc(cc1)N1[C@@H](COCc2ccc(s2)C(=O)O)CCC1=O)O

>  <CID>  (1) 
11502897.0

>  <ChEMBL ID>  (1) 
nan

>  <InChiKey>  (1) 
NGKFLYGSJDSBQC-QSVWIEALSA-N

>  <InChi>  (1) 
InChI=1S/C23H29NO5S/c1-2-3-4-5-20(25)16-6-8-17(9-7-16)24-18(10-13-22(24)26)14-29-15-19-11-12-21(30-19)23(27)28/h6-9,11-12,18,20,25H,2-5,10,13-15H2,1H3,(H,27,28)/t18-,20?/m1/s1

>  <IUPAC Name>  (1) 
5-[[(2R)-1-[4-(1-hydroxyhexyl)phenyl]-5-oxopyrrolidin-2-yl]methoxymethyl]thiophene-2-carboxylic acid

$$$$
