
     RDKit          3D

 53 55  0  0  0  0  0  0  0  0999 V2000
    2.4208   -4.3338    0.1608 O   0  0  0  0  0  0  0  0  0  0  0  0
    1.5394   -3.7507    0.8779 C   0  0  0  0  0  0  0  0  0  0  0  0
    0.4905   -4.4838    1.6324 C   0  0  0  0  0  0  0  0  0  0  0  0
   -0.4648   -3.4111    2.0594 C   0  0  0  0  0  0  0  0  0  0  0  0
    0.0654   -2.0946    1.6139 C   0  0  1  0  0  0  0  0  0  0  0  0
    1.3807   -2.3610    1.0960 N   0  0  0  0  0  0  0  0  0  0  0  0
    2.4302   -1.3950    0.8179 C   0  0  0  0  0  0  0  0  0  0  0  0
    2.3933   -0.8498   -0.5711 C   0  0  0  0  0  0  0  0  0  0  0  0
    3.4946    0.1300   -0.7811 C   0  0  0  0  0  0  0  0  0  0  0  0
    3.3380    1.4722   -0.5283 C   0  0  0  0  0  0  0  0  0  0  0  0
    4.3954    2.3296   -0.7423 C   0  0  0  0  0  0  0  0  0  0  0  0
    5.6086    1.8591   -1.2068 C   0  0  0  0  0  0  0  0  0  0  0  0
    5.7919    0.5109   -1.4693 C   0  0  0  0  0  0  0  0  0  0  0  0
    4.7214   -0.3299   -1.2485 C   0  0  0  0  0  0  0  0  0  0  0  0
    6.7308    2.7528   -1.4367 C   0  0  0  0  0  0  0  0  0  0  0  0
    7.8462    2.3427   -1.8601 O   0  0  0  0  0  0  0  0  0  0  0  0
    6.6264    4.1220   -1.1972 O   0  0  0  0  0  0  0  0  0  0  0  0
   -0.8052   -1.4111    0.6274 C   0  0  0  0  0  0  0  0  0  0  0  0
   -1.8658   -0.7287    1.0249 C   0  0  0  0  0  0  0  0  0  0  0  0
   -2.7552   -0.0348    0.0660 C   0  0  0  0  0  0  0  0  0  0  0  0
   -3.8090    0.6382    0.5102 C   0  0  0  0  0  0  0  0  0  0  0  0
   -4.6855    1.3227   -0.4385 C   0  0  0  0  0  0  0  0  0  0  0  0
   -4.4730    1.3018   -1.8017 C   0  0  0  0  0  0  0  0  0  0  0  0
   -5.3252    1.9658   -2.6931 C   0  0  0  0  0  0  0  0  0  0  0  0
   -6.4091    2.6647   -2.2315 C   0  0  0  0  0  0  0  0  0  0  0  0
   -6.6373    2.6985   -0.8924 C   0  0  0  0  0  0  0  0  0  0  0  0
   -5.7978    2.0444   -0.0140 C   0  0  0  0  0  0  0  0  0  0  0  0
   -4.0183    0.6399    1.9706 C   0  0  0  0  0  0  0  0  0  0  0  0
    0.9973   -4.9857    2.5078 H   0  0  0  0  0  0  0  0  0  0  0  0
    0.0040   -5.2832    1.0370 H   0  0  0  0  0  0  0  0  0  0  0  0
   -0.5204   -3.4551    3.1688 H   0  0  0  0  0  0  0  0  0  0  0  0
   -1.5063   -3.6077    1.7148 H   0  0  0  0  0  0  0  0  0  0  0  0
    0.0953   -1.4085    2.5002 H   0  0  0  0  0  0  0  0  0  0  0  0
    2.3180   -0.6091    1.5982 H   0  0  0  0  0  0  0  0  0  0  0  0
    3.4304   -1.8445    0.9794 H   0  0  0  0  0  0  0  0  0  0  0  0
    2.5758   -1.7163   -1.2617 H   0  0  0  0  0  0  0  0  0  0  0  0
    1.4694   -0.3335   -0.8480 H   0  0  0  0  0  0  0  0  0  0  0  0
    2.3904    1.8570   -0.1627 H   0  0  0  0  0  0  0  0  0  0  0  0
    4.2521    3.3780   -0.5382 H   0  0  0  0  0  0  0  0  0  0  0  0
    6.7368    0.1090   -1.8364 H   0  0  0  0  0  0  0  0  0  0  0  0
    4.8878   -1.3952   -1.4630 H   0  0  0  0  0  0  0  0  0  0  0  0
    7.2699    4.7863   -1.5957 H   0  0  0  0  0  0  0  0  0  0  0  0
   -0.6241   -1.4334   -0.4406 H   0  0  0  0  0  0  0  0  0  0  0  0
   -2.0474   -0.7050    2.0911 H   0  0  0  0  0  0  0  0  0  0  0  0
   -2.4784   -0.1251   -0.9672 H   0  0  0  0  0  0  0  0  0  0  0  0
   -3.6586    0.7855   -2.2450 H   0  0  0  0  0  0  0  0  0  0  0  0
   -5.1501    1.9432   -3.7564 H   0  0  0  0  0  0  0  0  0  0  0  0
   -7.0484    3.1669   -2.9446 H   0  0  0  0  0  0  0  0  0  0  0  0
   -7.4950    3.2526   -0.5377 H   0  0  0  0  0  0  0  0  0  0  0  0
   -6.0574    2.1269    1.0332 H   0  0  0  0  0  0  0  0  0  0  0  0
   -4.9304    1.1407    2.3115 H   0  0  0  0  0  0  0  0  0  0  0  0
   -3.1074    1.1281    2.4188 H   0  0  0  0  0  0  0  0  0  0  0  0
   -4.0305   -0.3826    2.4007 H   0  0  0  0  0  0  0  0  0  0  0  0
  1  2  2  0
  2  3  1  0
  3  4  1  0
  4  5  1  0
  5  6  1  0
  6  7  1  0
  7  8  1  0
  8  9  1  0
  9 10  2  0
 10 11  1  0
 11 12  2  0
 12 13  1  0
 13 14  2  0
 12 15  1  0
 15 16  2  0
 15 17  1  0
  5 18  1  0
 18 19  2  0
 19 20  1  0
 20 21  2  0
 21 22  1  0
 22 23  2  0
 23 24  1  0
 24 25  2  0
 25 26  1  0
 26 27  2  0
 21 28  1  0
  6  2  1  0
 14  9  1  0
 27 22  1  0
  3 29  1  0
  3 30  1  0
  4 31  1  0
  4 32  1  0
  5 33  1  1
  7 34  1  0
  7 35  1  0
  8 36  1  0
  8 37  1  0
 10 38  1  0
 11 39  1  0
 13 40  1  0
 14 41  1  0
 17 42  1  0
 18 43  1  0
 19 44  1  0
 20 45  1  0
 23 46  1  0
 24 47  1  0
 25 48  1  0
 26 49  1  0
 27 50  1  0
 28 51  1  0
 28 52  1  0
 28 53  1  0
M  END
>  <Ligand ID>  (1) 
LIG0005562

>  <Ligand>  (1) 
CHEMBL248679

>  <SMILES>  (1) 
O=C1CC[C@@H](N1CCc1ccc(cc1)C(=O)O)/C=C/C=C(/c1ccccc1)\C

>  <CID>  (1) 
10452108.0

>  <ChEMBL ID>  (1) 
nan

>  <InChiKey>  (1) 
OVWCEHQXEOKSBR-IZJUNRQYSA-N

>  <InChi>  (1) 
InChI=1S/C24H25NO3/c1-18(20-7-3-2-4-8-20)6-5-9-22-14-15-23(26)25(22)17-16-19-10-12-21(13-11-19)24(27)28/h2-13,22H,14-17H2,1H3,(H,27,28)/b9-5+,18-6+/t22-/m0/s1

>  <IUPAC Name>  (1) 
4-[2-[(5R)-2-oxo-5-[(1E,3E)-4-phenylpenta-1,3-dienyl]pyrrolidin-1-yl]ethyl]benzoic acid

$$$$
