
     RDKit          3D

 81 83  0  0  0  0  0  0  0  0999 V2000
   -9.9347    0.6349    4.2634 C   0  0  0  0  0  0  0  0  0  0  0  0
   -8.5867   -0.4471    3.7147 S   0  0  0  0  0  0  0  0  0  0  0  0
   -7.4166    0.6187    2.7953 C   0  0  0  0  0  0  0  0  0  0  0  0
   -6.2492   -0.1889    2.2914 C   0  0  0  0  0  0  0  0  0  0  0  0
   -5.3126    0.6663    1.5261 C   0  0  1  0  0  0  0  0  0  0  0  0
   -4.7104    1.7857    2.2643 C   0  0  0  0  0  0  0  0  0  0  0  0
   -3.4358    1.8823    2.2134 O   0  0  0  0  0  0  0  0  0  0  0  0
   -5.3642    2.7395    3.0006 O   0  0  0  0  0  0  0  0  0  0  0  0
   -4.3042   -0.1100    0.8137 N   0  0  0  0  0  0  0  0  0  0  0  0
   -4.2284   -0.1498   -0.6089 C   0  0  0  0  0  0  0  0  0  0  0  0
   -5.0841    0.5259   -1.2344 O   0  0  0  0  0  0  0  0  0  0  0  0
   -3.1837   -0.9553   -1.2844 C   0  0  2  0  0  0  0  0  0  0  0  0
   -3.7924   -2.0392   -2.1598 C   0  0  0  0  0  0  0  0  0  0  0  0
   -4.6618   -1.5124   -3.2242 C   0  0  0  0  0  0  0  0  0  0  0  0
   -6.0229   -1.3311   -3.1014 C   0  0  0  0  0  0  0  0  0  0  0  0
   -6.7292   -0.8219   -4.1730 C   0  0  0  0  0  0  0  0  0  0  0  0
   -6.1344   -0.4818   -5.3746 C   0  0  0  0  0  0  0  0  0  0  0  0
   -4.7596   -0.6700   -5.4854 C   0  0  0  0  0  0  0  0  0  0  0  0
   -4.0381   -1.1755   -4.4302 C   0  0  0  0  0  0  0  0  0  0  0  0
   -2.3538   -1.5780   -0.2680 N   0  0  0  0  0  0  0  0  0  0  0  0
   -0.9710   -1.2438   -0.2260 C   0  0  0  0  0  0  0  0  0  0  0  0
   -0.5656   -0.4211   -1.0867 O   0  0  0  0  0  0  0  0  0  0  0  0
   -0.0593   -1.8507    0.7982 C   0  0  0  0  0  0  0  0  0  0  0  0
    1.2546   -1.2752    0.5242 N   0  0  0  0  0  0  0  0  0  0  0  0
    1.8556   -1.4867   -0.7413 C   0  0  0  0  0  0  0  0  0  0  0  0
    1.3285   -2.1508   -1.6689 O   0  0  0  0  0  0  0  0  0  0  0  0
    3.1941   -0.8984   -1.0197 C   0  0  1  0  0  0  0  0  0  0  0  0
    3.6760   -0.1659    0.1336 N   0  0  0  0  0  0  0  0  0  0  0  0
    3.9293    1.2325    0.1154 C   0  0  0  0  0  0  0  0  0  0  0  0
    3.7346    1.9131   -0.9488 O   0  0  0  0  0  0  0  0  0  0  0  0
    4.4210    1.8494    1.3699 C   0  0  2  0  0  0  0  0  0  0  0  0
    5.6455    2.7019    1.1798 C   0  0  0  0  0  0  0  0  0  0  0  0
    6.8089    1.9928    0.6407 C   0  0  0  0  0  0  0  0  0  0  0  0
    7.1031    1.8595   -0.6971 C   0  0  0  0  0  0  0  0  0  0  0  0
    8.1939    1.1947   -1.1976 C   0  0  0  0  0  0  0  0  0  0  0  0
    9.0999    0.5932   -0.3159 C   0  0  0  0  0  0  0  0  0  0  0  0
    8.7926    0.7347    1.0244 C   0  0  0  0  0  0  0  0  0  0  0  0
    7.7066    1.3964    1.5247 C   0  0  0  0  0  0  0  0  0  0  0  0
   10.1511   -0.1484    1.8509 S   0  0  0  0  0  0  0  0  0  0  0  0
   10.9634   -0.5932    0.1632 C   0  0  0  0  0  0  0  0  0  0  0  0
   10.1856   -0.0778   -0.5648 N   0  0  0  0  0  0  0  0  0  0  0  0
   12.1572   -1.3422    0.1849 N   0  0  0  0  0  0  0  0  0  0  0  0
    4.5693    0.8909    2.4452 N   0  0  0  0  0  0  0  0  0  0  0  0
    4.1737   -1.9537   -1.4303 C   0  0  0  0  0  0  0  0  0  0  0  0
   -9.6952    1.0806    5.2698 H   0  0  0  0  0  0  0  0  0  0  0  0
  -10.0600    1.5094    3.5948 H   0  0  0  0  0  0  0  0  0  0  0  0
  -10.9049    0.0995    4.2990 H   0  0  0  0  0  0  0  0  0  0  0  0
   -7.0831    1.3856    3.5187 H   0  0  0  0  0  0  0  0  0  0  0  0
   -8.0156    1.0542    1.9704 H   0  0  0  0  0  0  0  0  0  0  0  0
   -5.7766   -0.7240    3.1433 H   0  0  0  0  0  0  0  0  0  0  0  0
   -6.6098   -0.9894    1.6105 H   0  0  0  0  0  0  0  0  0  0  0  0
   -5.9212    1.1489    0.7034 H   0  0  0  0  0  0  0  0  0  0  0  0
   -5.0370    3.6966    3.1344 H   0  0  0  0  0  0  0  0  0  0  0  0
   -3.6132   -0.6563    1.3736 H   0  0  0  0  0  0  0  0  0  0  0  0
   -2.6054   -0.2723   -1.9217 H   0  0  0  0  0  0  0  0  0  0  0  0
   -4.4691   -2.6179   -1.4643 H   0  0  0  0  0  0  0  0  0  0  0  0
   -3.0390   -2.7104   -2.5736 H   0  0  0  0  0  0  0  0  0  0  0  0
   -6.5140   -1.5950   -2.1706 H   0  0  0  0  0  0  0  0  0  0  0  0
   -7.8056   -0.6671   -4.1064 H   0  0  0  0  0  0  0  0  0  0  0  0
   -6.6568   -0.0871   -6.2163 H   0  0  0  0  0  0  0  0  0  0  0  0
   -4.2190   -0.4293   -6.3910 H   0  0  0  0  0  0  0  0  0  0  0  0
   -2.9594   -1.3138   -4.5417 H   0  0  0  0  0  0  0  0  0  0  0  0
   -2.7805   -2.2505    0.4035 H   0  0  0  0  0  0  0  0  0  0  0  0
   -0.4139   -1.5942    1.7996 H   0  0  0  0  0  0  0  0  0  0  0  0
   -0.0304   -2.9538    0.6685 H   0  0  0  0  0  0  0  0  0  0  0  0
    1.7407   -0.7132    1.2605 H   0  0  0  0  0  0  0  0  0  0  0  0
    3.0859   -0.1727   -1.8714 H   0  0  0  0  0  0  0  0  0  0  0  0
    3.8336   -0.7267    1.0050 H   0  0  0  0  0  0  0  0  0  0  0  0
    3.6184    2.5577    1.7235 H   0  0  0  0  0  0  0  0  0  0  0  0
    5.8935    3.1114    2.1851 H   0  0  0  0  0  0  0  0  0  0  0  0
    5.3621    3.5775    0.5504 H   0  0  0  0  0  0  0  0  0  0  0  0
    6.4106    2.3211   -1.4119 H   0  0  0  0  0  0  0  0  0  0  0  0
    8.3229    1.1549   -2.2701 H   0  0  0  0  0  0  0  0  0  0  0  0
    7.5815    1.4343    2.5859 H   0  0  0  0  0  0  0  0  0  0  0  0
   13.0965   -0.9411    0.3687 H   0  0  0  0  0  0  0  0  0  0  0  0
   12.0759   -2.3742    0.0012 H   0  0  0  0  0  0  0  0  0  0  0  0
    5.2504    0.1556    2.1791 H   0  0  0  0  0  0  0  0  0  0  0  0
    3.6300    0.4942    2.6642 H   0  0  0  0  0  0  0  0  0  0  0  0
    3.9028   -2.9164   -0.9639 H   0  0  0  0  0  0  0  0  0  0  0  0
    5.2086   -1.6221   -1.1852 H   0  0  0  0  0  0  0  0  0  0  0  0
    4.1502   -2.0709   -2.5215 H   0  0  0  0  0  0  0  0  0  0  0  0
  1  2  1  0
  2  3  1  0
  3  4  1  0
  4  5  1  0
  5  6  1  0
  6  7  2  0
  6  8  1  0
  5  9  1  0
  9 10  1  0
 10 11  2  0
 10 12  1  0
 12 13  1  0
 13 14  1  0
 14 15  2  0
 15 16  1  0
 16 17  2  0
 17 18  1  0
 18 19  2  0
 12 20  1  0
 20 21  1  0
 21 22  2  0
 21 23  1  0
 23 24  1  0
 24 25  1  0
 25 26  2  0
 25 27  1  0
 27 28  1  0
 28 29  1  0
 29 30  2  0
 29 31  1  0
 31 32  1  0
 32 33  1  0
 33 34  2  0
 34 35  1  0
 35 36  2  0
 36 37  1  0
 37 38  2  0
 37 39  1  0
 39 40  1  0
 40 41  2  0
 40 42  1  0
 31 43  1  0
 27 44  1  0
 19 14  1  0
 38 33  1  0
 41 36  1  0
  1 45  1  0
  1 46  1  0
  1 47  1  0
  3 48  1  0
  3 49  1  0
  4 50  1  0
  4 51  1  0
  5 52  1  6
  8 53  1  0
  9 54  1  0
 12 55  1  6
 13 56  1  0
 13 57  1  0
 15 58  1  0
 16 59  1  0
 17 60  1  0
 18 61  1  0
 19 62  1  0
 20 63  1  0
 23 64  1  0
 23 65  1  0
 24 66  1  0
 27 67  1  6
 28 68  1  0
 31 69  1  1
 32 70  1  0
 32 71  1  0
 34 72  1  0
 35 73  1  0
 38 74  1  0
 42 75  1  0
 42 76  1  0
 43 77  1  0
 43 78  1  0
 44 79  1  0
 44 80  1  0
 44 81  1  0
M  END
>  <Ligand ID>  (1) 
LIG0005168

>  <Ligand>  (1) 
H-Aba-ala-Gly-Phe-Met-OH

>  <SMILES>  (1) 
CSCC[C@@H](C(=O)O)NC(=O)[C@H](Cc1ccccc1)NC(=O)CNC(=O)[C@@H](NC(=O)[C@H](Cc1ccc2c(c1)sc(n2)N)N)C

>  <CID>  (1) 
44439910.0

>  <ChEMBL ID>  (1) 
nan

>  <InChiKey>  (1) 
NQZMBRNFTRPOCP-PWZKMPOXSA-N

>  <InChi>  (1) 
InChI=1S/C29H37N7O6S2/c1-16(33-26(39)19(30)12-18-8-9-20-23(14-18)44-29(31)36-20)25(38)32-15-24(37)34-22(13-17-6-4-3-5-7-17)27(40)35-21(28(41)42)10-11-43-2/h3-9,14,16,19,21-22H,10-13,15,30H2,1-2H3,(H2,31,36)(H,32,38)(H,33,39)(H,34,37)(H,35,40)(H,41,42)/t16-,19-,21-,22-/m0/s1

>  <IUPAC Name>  (1) 
(2S)-2-[[(2S)-2-[[2-[[(2S)-2-[[(2S)-2-amino-3-(2-amino-1,3-benzothiazol-6-yl)propanoyl]amino]propanoyl]amino]acetyl]amino]-3-phenylpropanoyl]amino]-4-methylsulfanylbutanoic acid

$$$$
