
     RDKit          3D

 68 71  0  0  0  0  0  0  0  0999 V2000
   -7.1758    0.9747    1.8084 O   0  0  0  0  0  0  0  0  0  0  0  0
   -6.1452    0.9479    2.7667 C   0  0  0  0  0  0  0  0  0  0  0  0
   -6.4541    1.2623    3.9474 O   0  0  0  0  0  0  0  0  0  0  0  0
   -4.8096    0.5664    2.3469 C   0  0  0  0  0  0  0  0  0  0  0  0
   -3.8239    0.5643    3.3239 C   0  0  0  0  0  0  0  0  0  0  0  0
   -2.5643    0.1983    2.9079 C   0  0  0  0  0  0  0  0  0  0  0  0
   -2.2445   -0.1525    1.6113 C   0  0  0  0  0  0  0  0  0  0  0  0
   -3.2165   -0.1470    0.6523 C   0  0  0  0  0  0  0  0  0  0  0  0
   -4.5188    0.2151    1.0162 C   0  0  0  0  0  0  0  0  0  0  0  0
   -5.5731    0.2588    0.1638 O   0  0  0  0  0  0  0  0  0  0  0  0
   -5.6564    0.0287   -1.2099 C   0  0  0  0  0  0  0  0  0  0  0  0
   -6.2377   -1.3298   -1.5420 C   0  0  0  0  0  0  0  0  0  0  0  0
   -7.7394   -1.3644   -1.6023 C   0  0  0  0  0  0  0  0  0  0  0  0
   -8.3189   -0.2408   -2.4299 C   0  0  0  0  0  0  0  0  0  0  0  0
   -7.8844    1.0431   -1.7534 C   0  0  0  0  0  0  0  0  0  0  0  0
   -6.3880    1.1364   -1.9321 C   0  0  0  0  0  0  0  0  0  0  0  0
   -0.8518   -0.5522    1.3849 C   0  0  0  0  0  0  0  0  0  0  0  0
   -0.5101   -1.4975    0.4068 C   0  0  0  0  0  0  0  0  0  0  0  0
    0.8099   -1.9127    0.2527 C   0  0  0  0  0  0  0  0  0  0  0  0
    1.8253   -1.4017    1.0648 C   0  0  0  0  0  0  0  0  0  0  0  0
    1.4970   -0.4635    2.0317 C   0  0  0  0  0  0  0  0  0  0  0  0
    0.1705   -0.0448    2.1883 C   0  0  0  0  0  0  0  0  0  0  0  0
    3.2091   -1.8793    0.9666 C   0  0  0  0  0  0  0  0  0  0  0  0
    4.1521   -1.1669    0.0701 C   0  0  0  0  0  0  0  0  0  0  0  0
    4.3080    0.1951    0.4883 N   0  0  0  0  0  0  0  0  0  0  0  0
    5.3880    0.8069   -0.2936 C   0  0  0  0  0  0  0  0  0  0  0  0
    6.7156    0.2347    0.1155 C   0  0  1  0  0  0  0  0  0  0  0  0
    7.8060    0.9479   -0.6334 C   0  0  0  0  0  0  0  0  0  0  0  0
    8.3453    2.1363   -0.1495 C   0  0  0  0  0  0  0  0  0  0  0  0
    9.3331    2.7368   -0.8461 N   0  0  0  0  0  0  0  0  0  0  0  0
    9.8048    2.2145   -1.9913 C   0  0  0  0  0  0  0  0  0  0  0  0
    9.3240    1.0453   -2.5335 C   0  0  0  0  0  0  0  0  0  0  0  0
    8.2996    0.4125   -1.8202 C   0  0  0  0  0  0  0  0  0  0  0  0
    7.8034   -0.7901   -2.3666 N   0  0  0  0  0  0  0  0  0  0  0  0
    6.9637    0.4599    1.4844 O   0  0  0  0  0  0  0  0  0  0  0  0
   -8.1550    0.8507    2.0611 H   0  0  0  0  0  0  0  0  0  0  0  0
   -4.0750    0.8383    4.3365 H   0  0  0  0  0  0  0  0  0  0  0  0
   -1.7983    0.1989    3.7030 H   0  0  0  0  0  0  0  0  0  0  0  0
   -2.9864   -0.4139   -0.3442 H   0  0  0  0  0  0  0  0  0  0  0  0
   -4.6241   -0.0055   -1.6160 H   0  0  0  0  0  0  0  0  0  0  0  0
   -5.9203   -2.0284   -0.7277 H   0  0  0  0  0  0  0  0  0  0  0  0
   -5.8002   -1.7181   -2.4765 H   0  0  0  0  0  0  0  0  0  0  0  0
   -8.0247   -2.3154   -2.1260 H   0  0  0  0  0  0  0  0  0  0  0  0
   -8.2565   -1.3936   -0.6461 H   0  0  0  0  0  0  0  0  0  0  0  0
   -7.9001   -0.2158   -3.4502 H   0  0  0  0  0  0  0  0  0  0  0  0
   -9.4046   -0.3647   -2.4652 H   0  0  0  0  0  0  0  0  0  0  0  0
   -8.3379    1.8673   -2.3448 H   0  0  0  0  0  0  0  0  0  0  0  0
   -8.2174    1.1170   -0.7199 H   0  0  0  0  0  0  0  0  0  0  0  0
   -5.9813    2.1026   -1.5280 H   0  0  0  0  0  0  0  0  0  0  0  0
   -6.1554    1.0925   -2.9967 H   0  0  0  0  0  0  0  0  0  0  0  0
   -1.2906   -1.8996   -0.2267 H   0  0  0  0  0  0  0  0  0  0  0  0
    1.0713   -2.6472   -0.5076 H   0  0  0  0  0  0  0  0  0  0  0  0
    2.2734   -0.0443    2.6785 H   0  0  0  0  0  0  0  0  0  0  0  0
    0.0021    0.6872    2.9599 H   0  0  0  0  0  0  0  0  0  0  0  0
    3.2571   -2.9686    0.6754 H   0  0  0  0  0  0  0  0  0  0  0  0
    3.6916   -1.8861    1.9880 H   0  0  0  0  0  0  0  0  0  0  0  0
    3.7636   -1.2264   -0.9876 H   0  0  0  0  0  0  0  0  0  0  0  0
    5.1107   -1.7356    0.1198 H   0  0  0  0  0  0  0  0  0  0  0  0
    4.6591    0.2190    1.4786 H   0  0  0  0  0  0  0  0  0  0  0  0
    5.3441    1.9123   -0.0922 H   0  0  0  0  0  0  0  0  0  0  0  0
    5.1754    0.5762   -1.3521 H   0  0  0  0  0  0  0  0  0  0  0  0
    6.7898   -0.8474   -0.0358 H   0  0  0  0  0  0  0  0  0  0  0  0
    7.9892    2.5900    0.7785 H   0  0  0  0  0  0  0  0  0  0  0  0
   10.5971    2.7321   -2.5105 H   0  0  0  0  0  0  0  0  0  0  0  0
    9.7203    0.6467   -3.4546 H   0  0  0  0  0  0  0  0  0  0  0  0
    7.4459   -1.5970   -1.8129 H   0  0  0  0  0  0  0  0  0  0  0  0
    7.7865   -0.8989   -3.4232 H   0  0  0  0  0  0  0  0  0  0  0  0
    6.6078    1.3327    1.7646 H   0  0  0  0  0  0  0  0  0  0  0  0
  1  2  1  0
  2  3  2  0
  2  4  1  0
  4  5  2  0
  5  6  1  0
  6  7  2  0
  7  8  1  0
  8  9  2  0
  9 10  1  0
 10 11  1  0
 11 12  1  0
 12 13  1  0
 13 14  1  0
 14 15  1  0
 15 16  1  0
  7 17  1  0
 17 18  2  0
 18 19  1  0
 19 20  2  0
 20 21  1  0
 21 22  2  0
 20 23  1  0
 23 24  1  0
 24 25  1  0
 25 26  1  0
 26 27  1  0
 27 28  1  0
 28 29  2  0
 29 30  1  0
 30 31  2  0
 31 32  1  0
 32 33  2  0
 33 34  1  0
 27 35  1  0
  9  4  1  0
 16 11  1  0
 22 17  1  0
 33 28  1  0
  1 36  1  0
  5 37  1  0
  6 38  1  0
  8 39  1  0
 11 40  1  0
 12 41  1  0
 12 42  1  0
 13 43  1  0
 13 44  1  0
 14 45  1  0
 14 46  1  0
 15 47  1  0
 15 48  1  0
 16 49  1  0
 16 50  1  0
 18 51  1  0
 19 52  1  0
 21 53  1  0
 22 54  1  0
 23 55  1  0
 23 56  1  0
 24 57  1  0
 24 58  1  0
 25 59  1  0
 26 60  1  0
 26 61  1  0
 27 62  1  1
 29 63  1  0
 31 64  1  0
 32 65  1  0
 34 66  1  0
 34 67  1  0
 35 68  1  0
M  END
>  <Ligand ID>  (1) 
LIG0003069

>  <Ligand>  (1) 
CHEMBL470857

>  <SMILES>  (1) 
OC(=O)c1ccc(cc1OC1CCCCC1)c1ccc(cc1)CCNC[C@@H](c1cnccc1N)O

>  <CID>  (1) 
44591508.0

>  <ChEMBL ID>  (1) 
nan

>  <InChiKey>  (1) 
BNYJUFJWBMUKOE-SANMLTNESA-N

>  <InChi>  (1) 
InChI=1S/C28H33N3O4/c29-25-13-15-30-17-24(25)26(32)18-31-14-12-19-6-8-20(9-7-19)21-10-11-23(28(33)34)27(16-21)35-22-4-2-1-3-5-22/h6-11,13,15-17,22,26,31-32H,1-5,12,14,18H2,(H2,29,30)(H,33,34)/t26-/m0/s1

>  <IUPAC Name>  (1) 
4-[4-[2-[[(2R)-2-(4-aminopyridin-3-yl)-2-hydroxyethyl]amino]ethyl]phenyl]-2-cyclohexyloxybenzoic acid

$$$$
