
     RDKit          3D

 79 83  0  0  0  0  0  0  0  0999 V2000
   -4.3529    7.0538   -1.1599 C   0  0  0  0  0  0  0  0  0  0  0  0
   -5.1807    6.0239   -0.6536 O   0  0  0  0  0  0  0  0  0  0  0  0
   -4.7899    4.6989   -0.6270 C   0  0  0  0  0  0  0  0  0  0  0  0
   -5.6664    3.7809   -0.1159 C   0  0  0  0  0  0  0  0  0  0  0  0
   -5.3395    2.4436   -0.0596 C   0  0  0  0  0  0  0  0  0  0  0  0
   -4.1098    1.9680   -0.5175 C   0  0  0  0  0  0  0  0  0  0  0  0
   -3.2529    2.8956   -1.0220 C   0  0  0  0  0  0  0  0  0  0  0  0
   -3.5725    4.2436   -1.0828 C   0  0  0  0  0  0  0  0  0  0  0  0
   -3.8889    0.5874   -0.4224 N   0  0  0  0  0  0  0  0  0  0  0  0
   -4.9299   -0.3040   -0.0098 N   0  0  0  0  0  0  0  0  0  0  0  0
   -4.7221   -1.5750    0.0191 C   0  0  0  0  0  0  0  0  0  0  0  0
   -6.0671   -2.6486    0.5516 S   0  0  0  0  0  0  0  0  0  0  0  0
   -5.5011   -4.3370    0.4536 C   0  0  0  0  0  0  0  0  0  0  0  0
   -4.8955   -4.8880    1.5616 C   0  0  0  0  0  0  0  0  0  0  0  0
   -4.4227   -6.1962    1.5787 C   0  0  0  0  0  0  0  0  0  0  0  0
   -4.5783   -6.9386    0.4410 C   0  0  0  0  0  0  0  0  0  0  0  0
   -5.1783   -6.4281   -0.6910 C   0  0  0  0  0  0  0  0  0  0  0  0
   -5.6379   -5.1146   -0.6677 C   0  0  0  0  0  0  0  0  0  0  0  0
   -4.0060   -8.6002    0.3866 Cl  0  0  0  0  0  0  0  0  0  0  0  0
   -3.4642   -2.2403   -0.3885 C   0  0  0  0  0  0  0  0  0  0  0  0
   -2.3230   -1.2634    0.1006 C   0  0  0  0  0  0  0  0  0  0  0  0
   -2.6742   -0.0839   -0.7641 C   0  0  0  0  0  0  0  0  0  0  0  0
   -2.0272    0.3444   -1.7237 O   0  0  0  0  0  0  0  0  0  0  0  0
   -1.0268   -1.8850   -0.1213 C   0  0  0  0  0  0  0  0  0  0  0  0
    0.2271   -1.2879    0.3467 C   0  0  0  0  0  0  0  0  0  0  0  0
    0.5768    0.0613   -0.0710 C   0  0  2  0  0  0  0  0  0  0  0  0
    1.9338    0.4427    0.4230 N   0  0  0  0  0  0  0  0  0  0  0  0
    2.8613    1.0868   -0.4194 C   0  0  0  0  0  0  0  0  0  0  0  0
    2.5282    1.3347   -1.5906 O   0  0  0  0  0  0  0  0  0  0  0  0
    4.2177    1.4451    0.1439 C   0  0  1  0  0  0  0  0  0  0  0  0
    4.0658    2.3587    1.2984 C   0  0  0  0  0  0  0  0  0  0  0  0
    4.3792    1.8143    2.5888 N   0  0  0  0  0  0  0  0  0  0  0  0
    5.7599    1.3149    2.4599 C   0  0  0  0  0  0  0  0  0  0  0  0
    5.6039    0.0087    1.7125 C   0  0  0  0  0  0  0  0  0  0  0  0
    4.9588    0.1899    0.3666 C   0  0  2  0  0  0  0  0  0  0  0  0
    5.9960   -0.0909   -0.6597 C   0  0  0  0  0  0  0  0  0  0  0  0
    7.0418    0.8022   -0.8584 C   0  0  0  0  0  0  0  0  0  0  0  0
    8.0311    0.5795   -1.8039 C   0  0  0  0  0  0  0  0  0  0  0  0
    8.0071   -0.5592   -2.5932 C   0  0  0  0  0  0  0  0  0  0  0  0
    6.9749   -1.4509   -2.4044 C   0  0  0  0  0  0  0  0  0  0  0  0
    5.9981   -1.2139   -1.4584 C   0  0  0  0  0  0  0  0  0  0  0  0
    8.9447   -0.8253   -3.5297 F   0  0  0  0  0  0  0  0  0  0  0  0
   -0.2908    1.0381    0.7584 C   0  0  0  0  0  0  0  0  0  0  0  0
   -3.8080    6.7016   -2.0689 H   0  0  0  0  0  0  0  0  0  0  0  0
   -4.9213    7.9531   -1.4391 H   0  0  0  0  0  0  0  0  0  0  0  0
   -3.6160    7.3202   -0.3820 H   0  0  0  0  0  0  0  0  0  0  0  0
   -6.6365    4.0828    0.2562 H   0  0  0  0  0  0  0  0  0  0  0  0
   -6.0672    1.7540    0.3539 H   0  0  0  0  0  0  0  0  0  0  0  0
   -2.3100    2.5996   -1.3926 H   0  0  0  0  0  0  0  0  0  0  0  0
   -2.8813    4.9600   -1.4847 H   0  0  0  0  0  0  0  0  0  0  0  0
   -4.7503   -4.3309    2.4930 H   0  0  0  0  0  0  0  0  0  0  0  0
   -3.9464   -6.6347    2.4442 H   0  0  0  0  0  0  0  0  0  0  0  0
   -5.2932   -7.0274   -1.5807 H   0  0  0  0  0  0  0  0  0  0  0  0
   -6.1109   -4.7015   -1.5507 H   0  0  0  0  0  0  0  0  0  0  0  0
   -3.4177   -2.2514   -1.4919 H   0  0  0  0  0  0  0  0  0  0  0  0
   -3.3280   -3.2211    0.0553 H   0  0  0  0  0  0  0  0  0  0  0  0
   -2.5977   -1.0665    1.1245 H   0  0  0  0  0  0  0  0  0  0  0  0
   -0.9385   -2.0757   -1.2650 H   0  0  0  0  0  0  0  0  0  0  0  0
   -1.1254   -2.9706    0.2400 H   0  0  0  0  0  0  0  0  0  0  0  0
    0.1430   -1.3123    1.5076 H   0  0  0  0  0  0  0  0  0  0  0  0
    1.1024   -2.0190    0.2394 H   0  0  0  0  0  0  0  0  0  0  0  0
    0.5527    0.3703   -1.0877 H   0  0  0  0  0  0  0  0  0  0  0  0
    2.0973    0.1854    1.4134 H   0  0  0  0  0  0  0  0  0  0  0  0
    4.6919    2.0181   -0.6893 H   0  0  0  0  0  0  0  0  0  0  0  0
    4.7843    3.2262    1.1760 H   0  0  0  0  0  0  0  0  0  0  0  0
    3.0717    2.8571    1.2693 H   0  0  0  0  0  0  0  0  0  0  0  0
    3.8206    0.9818    2.8723 H   0  0  0  0  0  0  0  0  0  0  0  0
    6.0654    1.0767    3.4999 H   0  0  0  0  0  0  0  0  0  0  0  0
    6.4176    2.0325    1.9728 H   0  0  0  0  0  0  0  0  0  0  0  0
    4.9993   -0.6487    2.3800 H   0  0  0  0  0  0  0  0  0  0  0  0
    6.6450   -0.3987    1.5987 H   0  0  0  0  0  0  0  0  0  0  0  0
    4.2464   -0.6914    0.2793 H   0  0  0  0  0  0  0  0  0  0  0  0
    7.1431    1.7217   -0.2872 H   0  0  0  0  0  0  0  0  0  0  0  0
    8.8529    1.2723   -1.9663 H   0  0  0  0  0  0  0  0  0  0  0  0
    6.9475   -2.3282   -3.0051 H   0  0  0  0  0  0  0  0  0  0  0  0
    5.2061   -1.9435   -1.3458 H   0  0  0  0  0  0  0  0  0  0  0  0
    0.4328    1.5821    1.4405 H   0  0  0  0  0  0  0  0  0  0  0  0
   -0.7287    1.8266    0.1501 H   0  0  0  0  0  0  0  0  0  0  0  0
   -0.9506    0.5141    1.4515 H   0  0  0  0  0  0  0  0  0  0  0  0
  1  2  1  0
  2  3  1  0
  3  4  2  0
  4  5  1  0
  5  6  2  0
  6  7  1  0
  7  8  2  0
  6  9  1  0
  9 10  1  0
 10 11  2  0
 11 12  1  0
 12 13  1  0
 13 14  2  0
 14 15  1  0
 15 16  2  0
 16 17  1  0
 17 18  2  0
 16 19  1  0
 11 20  1  0
 20 21  1  0
 21 22  1  0
 22 23  2  0
 21 24  1  0
 24 25  1  0
 25 26  1  0
 26 27  1  0
 27 28  1  0
 28 29  2  0
 28 30  1  0
 30 31  1  0
 31 32  1  0
 32 33  1  0
 33 34  1  0
 34 35  1  0
 35 36  1  0
 36 37  2  0
 37 38  1  0
 38 39  2  0
 39 40  1  0
 40 41  2  0
 39 42  1  0
 26 43  1  0
  8  3  1  0
 22  9  1  0
 35 30  1  0
 41 36  1  0
 18 13  1  0
  1 44  1  0
  1 45  1  0
  1 46  1  0
  4 47  1  0
  5 48  1  0
  7 49  1  0
  8 50  1  0
 14 51  1  0
 15 52  1  0
 17 53  1  0
 18 54  1  0
 20 55  1  0
 20 56  1  0
 21 57  1  0
 24 58  1  0
 24 59  1  0
 25 60  1  0
 25 61  1  0
 26 62  1  6
 27 63  1  0
 30 64  1  6
 31 65  1  0
 31 66  1  0
 32 67  1  0
 33 68  1  0
 33 69  1  0
 34 70  1  0
 34 71  1  0
 35 72  1  6
 37 73  1  0
 38 74  1  0
 40 75  1  0
 41 76  1  0
 43 77  1  0
 43 78  1  0
 43 79  1  0
M  END
>  <Ligand ID>  (1) 
LIG0005478

>  <Ligand>  (1) 
CHEMBL2113037

>  <SMILES>  (1) 
COc1ccc(cc1)N1N=C(Sc2ccc(cc2)Cl)CC(C1=O)CC[C@H](NC(=O)[C@H]1CNCC[C@@H]1c1ccc(cc1)F)C

>  <CID>  (1) 
15953833.0

>  <ChEMBL ID>  (1) 
nan

>  <InChiKey>  (1) 
RBKDACLJKAMLFN-SRZPCRBBSA-N

>  <InChi>  (1) 
InChI=1S/C33H36ClFN4O3S/c1-21(37-32(40)30-20-36-18-17-29(30)22-5-9-25(35)10-6-22)3-4-23-19-31(43-28-15-7-24(34)8-16-28)38-39(33(23)41)26-11-13-27(42-2)14-12-26/h5-16,21,23,29-30,36H,3-4,17-20H2,1-2H3,(H,37,40)/t21-,23?,29-,30+/m1/s1

>  <IUPAC Name>  (1) 
(3R,4S)-N-[(2R)-4-[6-(4-chlorophenyl)sulfanyl-2-(4-methoxyphenyl)-3-oxo-4,5-dihydropyridazin-4-yl]butan-2-yl]-4-(4-fluorophenyl)piperidine-3-carboxamide

$$$$
