
     RDKit          3D

 49 52  0  0  0  0  0  0  0  0999 V2000
    0.2415   -0.7464   -1.5631 O   0  0  0  0  0  0  0  0  0  0  0  0
    1.1566    0.0369   -1.1357 C   0  0  0  0  0  0  0  0  0  0  0  0
    2.4438   -0.5189   -0.8892 C   0  0  0  0  0  0  0  0  0  0  0  0
    2.9852   -1.7793   -1.0063 C   0  0  0  0  0  0  0  0  0  0  0  0
    4.2561   -1.9691   -0.6856 C   0  0  0  0  0  0  0  0  0  0  0  0
    4.9854   -0.8511   -0.2375 C   0  0  0  0  0  0  0  0  0  0  0  0
    3.8906    0.5101   -0.2561 S   0  0  0  0  0  0  0  0  0  0  0  0
    6.4141   -1.0543    0.1273 C   0  0  0  0  0  0  0  0  0  0  0  0
    6.4158   -2.1775    1.1469 C   0  0  0  0  0  0  0  0  0  0  0  0
    5.6429   -3.3847    0.6928 C   0  0  0  0  0  0  0  0  0  0  0  0
    5.0901   -3.2337   -0.7209 C   0  0  0  0  0  0  0  0  0  0  0  0
    0.9043    1.4108   -0.9131 N   0  0  0  0  0  0  0  0  0  0  0  0
   -0.3478    2.0390   -1.1313 C   0  0  0  0  0  0  0  0  0  0  0  0
   -0.7033    2.6010   -2.3468 C   0  0  0  0  0  0  0  0  0  0  0  0
   -1.9573    3.1926   -2.4381 C   0  0  0  0  0  0  0  0  0  0  0  0
   -2.8204    3.2219   -1.3610 C   0  0  0  0  0  0  0  0  0  0  0  0
   -2.4767    2.6649   -0.1453 C   0  0  0  0  0  0  0  0  0  0  0  0
   -1.2165    2.0663   -0.0414 C   0  0  0  0  0  0  0  0  0  0  0  0
   -3.4936    2.6651    1.2455 S   0  0  0  0  0  0  0  0  0  0  0  0
   -2.6037    2.6792    2.4807 O   0  0  0  0  0  0  0  0  0  0  0  0
   -4.2300    3.9877    1.2796 O   0  0  0  0  0  0  0  0  0  0  0  0
   -4.5327    1.3431    1.4045 N   0  0  0  0  0  0  0  0  0  0  0  0
   -3.7708    0.1225    1.5123 C   0  0  0  0  0  0  0  0  0  0  0  0
   -4.6536   -1.0713    1.8067 C   0  0  0  0  0  0  0  0  0  0  0  0
   -6.0052   -0.7483    1.6811 O   0  0  0  0  0  0  0  0  0  0  0  0
   -6.1787   -0.1556    0.4298 C   0  0  0  0  0  0  0  0  0  0  0  0
   -5.5301    1.2040    0.3744 C   0  0  0  0  0  0  0  0  0  0  0  0
    2.3226   -2.6011   -1.3719 H   0  0  0  0  0  0  0  0  0  0  0  0
    7.0724   -1.2594   -0.7200 H   0  0  0  0  0  0  0  0  0  0  0  0
    6.7413   -0.1266    0.6297 H   0  0  0  0  0  0  0  0  0  0  0  0
    5.8630   -1.7667    2.0391 H   0  0  0  0  0  0  0  0  0  0  0  0
    7.4309   -2.4750    1.4396 H   0  0  0  0  0  0  0  0  0  0  0  0
    4.7526   -3.6134    1.3285 H   0  0  0  0  0  0  0  0  0  0  0  0
    6.2768   -4.3001    0.7772 H   0  0  0  0  0  0  0  0  0  0  0  0
    4.4823   -4.1111   -0.9262 H   0  0  0  0  0  0  0  0  0  0  0  0
    5.9266   -3.0555   -1.4171 H   0  0  0  0  0  0  0  0  0  0  0  0
    1.6803    2.0331   -0.5610 H   0  0  0  0  0  0  0  0  0  0  0  0
   -0.0111    2.5685   -3.1835 H   0  0  0  0  0  0  0  0  0  0  0  0
   -2.2513    3.6371   -3.3795 H   0  0  0  0  0  0  0  0  0  0  0  0
   -3.8110    3.6802   -1.4092 H   0  0  0  0  0  0  0  0  0  0  0  0
   -0.9223    1.6183    0.9137 H   0  0  0  0  0  0  0  0  0  0  0  0
   -3.1405   -0.0681    0.6352 H   0  0  0  0  0  0  0  0  0  0  0  0
   -3.0730    0.2198    2.3889 H   0  0  0  0  0  0  0  0  0  0  0  0
   -4.4818   -1.5138    2.7978 H   0  0  0  0  0  0  0  0  0  0  0  0
   -4.4297   -1.8477    1.0484 H   0  0  0  0  0  0  0  0  0  0  0  0
   -5.7547   -0.7747   -0.3800 H   0  0  0  0  0  0  0  0  0  0  0  0
   -7.2579   -0.0238    0.1878 H   0  0  0  0  0  0  0  0  0  0  0  0
   -4.9933    1.2736   -0.6013 H   0  0  0  0  0  0  0  0  0  0  0  0
   -6.3284    1.9713    0.4539 H   0  0  0  0  0  0  0  0  0  0  0  0
  1  2  2  0
  2  3  1  0
  3  4  2  0
  4  5  1  0
  5  6  2  0
  6  7  1  0
  6  8  1  0
  8  9  1  0
  9 10  1  0
 10 11  1  0
  2 12  1  0
 12 13  1  0
 13 14  2  0
 14 15  1  0
 15 16  2  0
 16 17  1  0
 17 18  2  0
 17 19  1  0
 19 20  2  0
 19 21  2  0
 19 22  1  0
 22 23  1  0
 23 24  1  0
 24 25  1  0
 25 26  1  0
 26 27  1  0
  7  3  1  0
 18 13  1  0
 27 22  1  0
 11  5  1  0
  4 28  1  0
  8 29  1  0
  8 30  1  0
  9 31  1  0
  9 32  1  0
 10 33  1  0
 10 34  1  0
 11 35  1  0
 11 36  1  0
 12 37  1  0
 14 38  1  0
 15 39  1  0
 16 40  1  0
 18 41  1  0
 23 42  1  0
 23 43  1  0
 24 44  1  0
 24 45  1  0
 26 46  1  0
 26 47  1  0
 27 48  1  0
 27 49  1  0
M  END
>  <Ligand ID>  (1) 
LIG0001371

>  <Ligand>  (1) 
MLS-0435573.0001

>  <SMILES>  (1) 
O=C(c1cc2c(s1)CCCC2)Nc1cccc(c1)S(=O)(=O)N1CCOCC1

>  <CID>  (1) 
2970280.0

>  <ChEMBL ID>  (1) 
nan

>  <InChiKey>  (1) 
BAUQELIGAWYSBS-UHFFFAOYSA-N

>  <InChi>  (1) 
InChI=1S/C19H22N2O4S2/c22-19(18-12-14-4-1-2-7-17(14)26-18)20-15-5-3-6-16(13-15)27(23,24)21-8-10-25-11-9-21/h3,5-6,12-13H,1-2,4,7-11H2,(H,20,22)

>  <IUPAC Name>  (1) 
N-(3-morpholin-4-ylsulfonylphenyl)-4,5,6,7-tetrahydro-1-benzothiophene-2-carboxamide

$$$$
