
     RDKit          3D

 20 20  0  0  0  0  0  0  0  0999 V2000
    3.0671    1.3311    0.8633 O   0  0  0  0  0  0  0  0  0  0  0  0
    2.0253    0.8269    0.0857 C   0  0  0  0  0  0  0  0  0  0  0  0
    1.8351    1.3513   -1.0211 O   0  0  0  0  0  0  0  0  0  0  0  0
    1.2432   -0.2902    0.6588 C   0  0  0  0  0  0  0  0  0  0  0  0
    0.1130   -0.7537   -0.1817 C   0  0  1  0  0  0  0  0  0  0  0  0
   -0.6909   -1.9206    0.3873 C   0  0  0  0  0  0  0  0  0  0  0  0
   -1.8212   -1.2612   -0.2514 N   0  0  0  0  0  0  0  0  0  0  0  0
   -1.1896   -0.0478    0.2481 C   0  0  2  0  0  0  0  0  0  0  0  0
   -1.3957    1.1580   -0.5329 C   0  0  0  0  0  0  0  0  0  0  0  0
   -0.9485    2.3146   -0.2171 O   0  0  0  0  0  0  0  0  0  0  0  0
   -2.1253    1.0853   -1.7109 O   0  0  0  0  0  0  0  0  0  0  0  0
    3.6144    2.1354    0.5407 H   0  0  0  0  0  0  0  0  0  0  0  0
    0.8382    0.0689    1.6506 H   0  0  0  0  0  0  0  0  0  0  0  0
    1.9428   -1.1049    0.9364 H   0  0  0  0  0  0  0  0  0  0  0  0
    0.2691   -0.8061   -1.2592 H   0  0  0  0  0  0  0  0  0  0  0  0
   -0.7956   -1.7979    1.4801 H   0  0  0  0  0  0  0  0  0  0  0  0
   -0.4968   -2.9045   -0.0195 H   0  0  0  0  0  0  0  0  0  0  0  0
   -1.7038   -1.3326   -1.2999 H   0  0  0  0  0  0  0  0  0  0  0  0
   -1.2393    0.0043    1.3392 H   0  0  0  0  0  0  0  0  0  0  0  0
   -2.5414    1.9437   -2.0509 H   0  0  0  0  0  0  0  0  0  0  0  0
  1  2  1  0
  2  3  2  0
  2  4  1  0
  4  5  1  0
  5  6  1  0
  6  7  1  0
  7  8  1  0
  8  9  1  0
  9 10  2  0
  9 11  1  0
  8  5  1  0
  1 12  1  0
  4 13  1  0
  4 14  1  0
  5 15  1  6
  6 16  1  0
  6 17  1  0
  7 18  1  0
  8 19  1  1
 11 20  1  0
M  END
>  <Ligand ID>  (1) 
LIG0002345

>  <Ligand>  (1) 
(2S,3S)-3-(carboxymethyl)azetidine-2-carboxylic acid

>  <SMILES>  (1) 
OC(=O)C[C@H]1CN[C@@H]1C(=O)O

>  <CID>  (1) 
2733519.0

>  <ChEMBL ID>  (1) 
nan

>  <InChiKey>  (1) 
FQUPICCTRPWMDZ-UCORVYFPSA-N

>  <InChi>  (1) 
InChI=1S/C6H9NO4/c8-4(9)1-3-2-7-5(3)6(10)11/h3,5,7H,1-2H2,(H,8,9)(H,10,11)/t3-,5-/m0/s1

>  <IUPAC Name>  (1) 
(2S,3S)-3-(carboxymethyl)azetidine-2-carboxylic acid

$$$$
