
     RDKit          3D

 44 46  0  0  0  0  0  0  0  0999 V2000
    0.7637    0.1990   -1.0045 C   0  0  0  0  0  0  0  0  0  0  0  0
    0.5140   -0.6703    0.1898 C   0  0  2  0  0  0  0  0  0  0  0  0
    1.6611   -1.4282    0.7312 C   0  0  0  0  0  0  0  0  0  0  0  0
    2.7683   -0.5337    1.1430 C   0  0  0  0  0  0  0  0  0  0  0  0
    2.9070    0.0705    2.3820 C   0  0  0  0  0  0  0  0  0  0  0  0
    4.0098    0.8773    2.3760 N   0  0  0  0  0  0  0  0  0  0  0  0
    4.6006    0.8105    1.1500 C   0  0  0  0  0  0  0  0  0  0  0  0
    3.8386   -0.0680    0.3649 C   0  0  0  0  0  0  0  0  0  0  0  0
    4.2509   -0.3249   -0.9256 C   0  0  0  0  0  0  0  0  0  0  0  0
    5.3810    0.2415   -1.4852 C   0  0  0  0  0  0  0  0  0  0  0  0
    6.1306    1.1086   -0.7053 C   0  0  0  0  0  0  0  0  0  0  0  0
    5.7377    1.3927    0.6139 C   0  0  0  0  0  0  0  0  0  0  0  0
   -0.6419   -1.4958   -0.1491 N   0  0  0  0  0  0  0  0  0  0  0  0
   -1.8151   -0.7171    0.0602 C   0  0  0  0  0  0  0  0  0  0  0  0
   -3.0909   -1.3695   -0.4345 C   0  0  1  0  0  0  0  0  0  0  0  0
   -4.1663   -0.3698   -0.1751 C   0  0  0  0  0  0  0  0  0  0  0  0
   -5.1947   -0.6952    0.6804 C   0  0  0  0  0  0  0  0  0  0  0  0
   -6.1609    0.2594    0.9062 C   0  0  0  0  0  0  0  0  0  0  0  0
   -6.1161    1.5042    0.3071 C   0  0  0  0  0  0  0  0  0  0  0  0
   -5.0677    1.8078   -0.5527 C   0  0  0  0  0  0  0  0  0  0  0  0
   -4.0867    0.8760   -0.7989 C   0  0  0  0  0  0  0  0  0  0  0  0
   -5.0283    3.3897   -1.3087 Cl  0  0  0  0  0  0  0  0  0  0  0  0
   -2.9344   -1.5538   -1.8145 O   0  0  0  0  0  0  0  0  0  0  0  0
    1.0229    1.2433   -0.7246 H   0  0  0  0  0  0  0  0  0  0  0  0
   -0.1585    0.2938   -1.6589 H   0  0  0  0  0  0  0  0  0  0  0  0
    1.4878   -0.2902   -1.6712 H   0  0  0  0  0  0  0  0  0  0  0  0
    0.1802    0.0192    1.0398 H   0  0  0  0  0  0  0  0  0  0  0  0
    1.3880   -2.1019    1.5720 H   0  0  0  0  0  0  0  0  0  0  0  0
    2.0799   -2.0963   -0.0803 H   0  0  0  0  0  0  0  0  0  0  0  0
    2.2959   -0.0253    3.2573 H   0  0  0  0  0  0  0  0  0  0  0  0
    4.3789    1.4680    3.1482 H   0  0  0  0  0  0  0  0  0  0  0  0
    3.6925   -1.0112   -1.5542 H   0  0  0  0  0  0  0  0  0  0  0  0
    5.7074    0.0372   -2.4934 H   0  0  0  0  0  0  0  0  0  0  0  0
    7.0373    1.5917   -1.0602 H   0  0  0  0  0  0  0  0  0  0  0  0
    6.3267    2.0723    1.2252 H   0  0  0  0  0  0  0  0  0  0  0  0
   -0.6198   -2.4077    0.3291 H   0  0  0  0  0  0  0  0  0  0  0  0
   -2.0146   -0.5793    1.1684 H   0  0  0  0  0  0  0  0  0  0  0  0
   -1.7072    0.2712   -0.4049 H   0  0  0  0  0  0  0  0  0  0  0  0
   -3.2500   -2.2995    0.1091 H   0  0  0  0  0  0  0  0  0  0  0  0
   -5.2472   -1.6590    1.1528 H   0  0  0  0  0  0  0  0  0  0  0  0
   -6.9595    0.0048    1.5707 H   0  0  0  0  0  0  0  0  0  0  0  0
   -6.8895    2.2218    0.5077 H   0  0  0  0  0  0  0  0  0  0  0  0
   -3.2773    1.1354   -1.4638 H   0  0  0  0  0  0  0  0  0  0  0  0
   -3.7340   -1.1989   -2.2965 H   0  0  0  0  0  0  0  0  0  0  0  0
  1  2  1  0
  2  3  1  0
  3  4  1  0
  4  5  2  0
  5  6  1  0
  6  7  1  0
  7  8  2  0
  8  9  1  0
  9 10  2  0
 10 11  1  0
 11 12  2  0
  2 13  1  0
 13 14  1  0
 14 15  1  0
 15 16  1  0
 16 17  2  0
 17 18  1  0
 18 19  2  0
 19 20  1  0
 20 21  2  0
 20 22  1  0
 15 23  1  0
  8  4  1  0
 21 16  1  0
 12  7  1  0
  1 24  1  0
  1 25  1  0
  1 26  1  0
  2 27  1  1
  3 28  1  0
  3 29  1  0
  5 30  1  0
  6 31  1  0
  9 32  1  0
 10 33  1  0
 11 34  1  0
 12 35  1  0
 13 36  1  0
 14 37  1  0
 14 38  1  0
 15 39  1  1
 17 40  1  0
 18 41  1  0
 19 42  1  0
 21 43  1  0
 23 44  1  0
M  END
>  <Ligand ID>  (1) 
LIG0002231

>  <Ligand>  (1) 
CHEMBL26393

>  <SMILES>  (1) 
C[C@H](Cc1c[nH]c2c1cccc2)NC[C@@H](c1cccc(c1)Cl)O

>  <CID>  (1) 
9927453.0

>  <ChEMBL ID>  (1) 
nan

>  <InChiKey>  (1) 
AGWBMRMDTWHPJM-YJYMSZOUSA-N

>  <InChi>  (1) 
InChI=1S/C19H21ClN2O/c1-13(9-15-11-22-18-8-3-2-7-17(15)18)21-12-19(23)14-5-4-6-16(20)10-14/h2-8,10-11,13,19,21-23H,9,12H2,1H3/t13-,19+/m1/s1

>  <IUPAC Name>  (1) 
(1R)-1-(3-chlorophenyl)-2-[[(2R)-1-(1H-indol-3-yl)propan-2-yl]amino]ethanol

$$$$
