
     RDKit          3D

204210  0  0  0  0  0  0  0  0999 V2000
   15.0764   -3.0900    1.1019 N   0  0  0  0  0  0  0  0  0  0  0  0
   13.8341   -3.5982    0.6112 C   0  0  0  0  0  0  0  0  0  0  0  0
   13.0269   -2.3783    0.0033 C   0  0  0  0  0  0  0  0  0  0  0  0
   11.7677   -2.9396   -0.4970 C   0  0  0  0  0  0  0  0  0  0  0  0
   10.7552   -2.2244   -1.2356 C   0  0  0  0  0  0  0  0  0  0  0  0
   10.0381   -1.0196   -0.7279 C   0  0  1  0  0  0  0  0  0  0  0  0
   10.8199    0.1903   -0.5402 C   0  0  0  0  0  0  0  0  0  0  0  0
   12.0204    0.0962   -0.3832 O   0  0  0  0  0  0  0  0  0  0  0  0
   10.3049    1.5859   -0.5126 C   0  0  0  0  0  0  0  0  0  0  0  0
   11.2067    2.5908   -0.1037 N   0  0  0  0  0  0  0  0  0  0  0  0
   11.5888    2.7790    1.2135 C   0  0  2  0  0  0  0  0  0  0  0  0
   12.2414    4.1849    1.3139 C   0  0  0  0  0  0  0  0  0  0  0  0
   12.2477    4.7943    0.2393 O   0  0  0  0  0  0  0  0  0  0  0  0
   12.7474    4.6346    2.5464 N   0  0  0  0  0  0  0  0  0  0  0  0
   12.6056    1.9132    1.8861 C   0  0  0  0  0  0  0  0  0  0  0  0
   13.9255    1.9595    1.2183 C   0  0  0  0  0  0  0  0  0  0  0  0
   14.1384    2.6395    0.1982 O   0  0  0  0  0  0  0  0  0  0  0  0
   14.9541    1.2155    1.7578 O   0  0  0  0  0  0  0  0  0  0  0  0
    8.7144   -0.9374   -1.1857 N   0  0  0  0  0  0  0  0  0  0  0  0
    7.7594   -0.0004   -0.9204 C   0  0  0  0  0  0  0  0  0  0  0  0
    6.3926   -0.4342   -1.4075 C   0  0  0  0  0  0  0  0  0  0  0  0
    5.4926    0.3704   -1.1315 O   0  0  0  0  0  0  0  0  0  0  0  0
    6.0536   -1.6533   -2.1293 C   0  0  2  0  0  0  0  0  0  0  0  0
    6.3248   -1.6140   -3.5969 C   0  0  0  0  0  0  0  0  0  0  0  0
    5.1795   -2.4210   -4.1922 C   0  0  0  0  0  0  0  0  0  0  0  0
    4.2959   -2.7983   -3.0336 C   0  0  0  0  0  0  0  0  0  0  0  0
    4.6351   -1.9612   -1.9797 N   0  0  0  0  0  0  0  0  0  0  0  0
    4.2401   -2.1859   -0.6636 C   0  0  0  0  0  0  0  0  0  0  0  0
    2.7488   -2.0030   -0.3858 C   0  0  0  0  0  0  0  0  0  0  0  0
    2.0632   -1.9549   -1.3698 O   0  0  0  0  0  0  0  0  0  0  0  0
    2.4048   -1.9116    1.0176 C   0  0  2  0  0  0  0  0  0  0  0  0
    2.5538   -3.2344    1.7542 C   0  0  0  0  0  0  0  0  0  0  0  0
    1.8273   -2.9987    3.0484 C   0  0  0  0  0  0  0  0  0  0  0  0
    1.3747   -1.5687    3.0254 C   0  0  0  0  0  0  0  0  0  0  0  0
    1.2381   -1.3505    1.5245 N   0  0  0  0  0  0  0  0  0  0  0  0
    0.1120   -0.6122    1.1189 C   0  0  0  0  0  0  0  0  0  0  0  0
   -0.5719   -0.1806    2.1748 O   0  0  0  0  0  0  0  0  0  0  0  0
   -0.4597   -0.2129   -0.1336 C   0  0  0  0  0  0  0  0  0  0  0  0
   -1.6008   -1.0995   -0.6569 C   0  0  0  0  0  0  0  0  0  0  0  0
   -1.1736   -2.6396   -1.3638 S   0  0  0  0  0  0  0  0  0  0  0  0
   -0.3211   -4.0541   -0.1693 S   0  0  0  0  0  0  0  0  0  0  0  0
   -1.3945   -5.1856    0.6204 C   0  0  0  0  0  0  0  0  0  0  0  0
   -0.6524   -6.5116    0.9936 C   0  0  0  0  0  0  0  0  0  0  0  0
   -1.7795   -4.6287    2.0044 C   0  0  0  0  0  0  0  0  0  0  0  0
   -2.6090   -5.5561   -0.1419 C   0  0  0  0  0  0  0  0  0  0  0  0
   -2.4321   -6.1364   -1.4523 C   0  0  0  0  0  0  0  0  0  0  0  0
   -3.0516   -7.2077   -1.7069 O   0  0  0  0  0  0  0  0  0  0  0  0
   -1.6083   -5.6538   -2.5797 C   0  0  0  0  0  0  0  0  0  0  0  0
   -3.7937   -4.7038    0.1018 C   0  0  0  0  0  0  0  0  0  0  0  0
   -3.8134   -3.7297    0.8785 O   0  0  0  0  0  0  0  0  0  0  0  0
   -5.0700   -4.9226   -0.5601 N   0  0  0  0  0  0  0  0  0  0  0  0
   -6.2020   -4.1796   -0.0893 C   0  0  2  0  0  0  0  0  0  0  0  0
   -7.4213   -5.1060    0.0302 C   0  0  0  0  0  0  0  0  0  0  0  0
   -7.2130   -6.2287    0.9905 C   0  0  0  0  0  0  0  0  0  0  0  0
   -8.4700   -7.0637    1.0142 C   0  0  0  0  0  0  0  0  0  0  0  0
   -8.5767   -7.9882    1.8305 O   0  0  0  0  0  0  0  0  0  0  0  0
   -9.5211   -6.8162    0.1365 O   0  0  0  0  0  0  0  0  0  0  0  0
   -6.5944   -2.9726   -0.8518 C   0  0  0  0  0  0  0  0  0  0  0  0
   -6.1176   -2.5656   -1.9050 O   0  0  0  0  0  0  0  0  0  0  0  0
   -7.6528   -2.1970   -0.2869 N   0  0  0  0  0  0  0  0  0  0  0  0
   -8.1862   -0.9764   -0.8130 C   0  0  2  0  0  0  0  0  0  0  0  0
   -7.8228    0.1953    0.0294 C   0  0  0  0  0  0  0  0  0  0  0  0
   -8.2520    1.3442   -0.1226 O   0  0  0  0  0  0  0  0  0  0  0  0
   -6.8927    0.0730    1.1363 N   0  0  0  0  0  0  0  0  0  0  0  0
   -6.5493    1.2442    1.9533 C   0  0  2  0  0  0  0  0  0  0  0  0
   -5.6689    2.1359    1.1657 C   0  0  0  0  0  0  0  0  0  0  0  0
   -5.4807    1.8204   -0.0243 O   0  0  0  0  0  0  0  0  0  0  0  0
   -5.0053    3.3095    1.6079 N   0  0  0  0  0  0  0  0  0  0  0  0
   -4.2807    4.0315    0.5506 C   0  0  2  0  0  0  0  0  0  0  0  0
   -2.8126    3.8070    0.6127 C   0  0  0  0  0  0  0  0  0  0  0  0
   -2.1312    3.6766    1.6267 O   0  0  0  0  0  0  0  0  0  0  0  0
   -2.1150    3.7121   -0.6361 N   0  0  0  0  0  0  0  0  0  0  0  0
   -0.7186    3.6088   -0.8350 C   0  0  1  0  0  0  0  0  0  0  0  0
   -0.2787    2.1606   -0.6709 C   0  0  0  0  0  0  0  0  0  0  0  0
    0.8537    1.8916   -1.0360 O   0  0  0  0  0  0  0  0  0  0  0  0
   -1.0768    1.1268   -0.1288 N   0  0  0  0  0  0  0  0  0  0  0  0
   -0.2952    4.0764   -2.1877 C   0  0  0  0  0  0  0  0  0  0  0  0
   -0.6188    5.4642   -2.4710 C   0  0  0  0  0  0  0  0  0  0  0  0
    0.2704    6.5113   -2.1708 C   0  0  0  0  0  0  0  0  0  0  0  0
   -0.2773    7.6860   -2.4797 N   0  0  0  0  0  0  0  0  0  0  0  0
   -1.5215    7.4813   -2.9867 C   0  0  0  0  0  0  0  0  0  0  0  0
   -1.7244    6.1017   -2.9776 C   0  0  0  0  0  0  0  0  0  0  0  0
   -2.9116    5.6517   -3.4642 C   0  0  0  0  0  0  0  0  0  0  0  0
   -3.9225    6.4505   -3.9573 C   0  0  0  0  0  0  0  0  0  0  0  0
   -3.6976    7.8086   -3.9523 C   0  0  0  0  0  0  0  0  0  0  0  0
   -2.5171    8.3171   -3.4760 C   0  0  0  0  0  0  0  0  0  0  0  0
   -4.6030    5.5044    0.7694 C   0  0  0  0  0  0  0  0  0  0  0  0
   -6.0905    5.6823    0.6558 C   0  0  0  0  0  0  0  0  0  0  0  0
   -6.5360    7.0897    0.8733 C   0  0  0  0  0  0  0  0  0  0  0  0
   -5.9907    8.0463   -0.0348 N   0  0  0  0  0  0  0  0  0  0  0  0
   -6.0030    9.3288    0.1797 C   0  0  0  0  0  0  0  0  0  0  0  0
   -5.4172   10.1805   -0.8233 N   0  0  0  0  0  0  0  0  0  0  0  0
   -6.5670    9.9140    1.3439 N   0  0  0  0  0  0  0  0  0  0  0  0
   -6.1156    0.9284    3.3123 C   0  0  0  0  0  0  0  0  0  0  0  0
   -7.1569    0.1792    4.1051 C   0  0  0  0  0  0  0  0  0  0  0  0
   -7.1736   -1.2029    4.0961 C   0  0  0  0  0  0  0  0  0  0  0  0
   -8.1452   -1.8817    4.8315 C   0  0  0  0  0  0  0  0  0  0  0  0
   -9.0741   -1.1260    5.5552 C   0  0  0  0  0  0  0  0  0  0  0  0
   -9.0662    0.2386    5.5696 C   0  0  0  0  0  0  0  0  0  0  0  0
   -8.1047    0.9005    4.8427 C   0  0  0  0  0  0  0  0  0  0  0  0
   -9.6641   -0.9788   -1.0430 C   0  0  0  0  0  0  0  0  0  0  0  0
  -10.1060   -2.0213   -1.9942 C   0  0  0  0  0  0  0  0  0  0  0  0
  -10.5118   -3.3027   -1.7104 C   0  0  0  0  0  0  0  0  0  0  0  0
  -10.8389   -3.9204   -2.8619 N   0  0  0  0  0  0  0  0  0  0  0  0
  -10.6399   -3.0311   -3.8763 C   0  0  0  0  0  0  0  0  0  0  0  0
  -10.1934   -1.8854   -3.3150 N   0  0  0  0  0  0  0  0  0  0  0  0
   15.8076   -3.1944    0.3415 H   0  0  0  0  0  0  0  0  0  0  0  0
   15.0478   -2.0921    1.4067 H   0  0  0  0  0  0  0  0  0  0  0  0
   13.2240   -4.0315    1.4003 H   0  0  0  0  0  0  0  0  0  0  0  0
   14.0263   -4.2542   -0.2517 H   0  0  0  0  0  0  0  0  0  0  0  0
   13.7184   -1.9516   -0.7093 H   0  0  0  0  0  0  0  0  0  0  0  0
   12.8937   -1.7182    0.9070 H   0  0  0  0  0  0  0  0  0  0  0  0
   11.9914   -3.9023   -1.1103 H   0  0  0  0  0  0  0  0  0  0  0  0
   11.2117   -3.3719    0.4453 H   0  0  0  0  0  0  0  0  0  0  0  0
    9.9907   -2.9882   -1.6159 H   0  0  0  0  0  0  0  0  0  0  0  0
   11.2616   -1.9307   -2.2508 H   0  0  0  0  0  0  0  0  0  0  0  0
    9.8572   -1.3468    0.4222 H   0  0  0  0  0  0  0  0  0  0  0  0
    9.9519    1.8304   -1.5623 H   0  0  0  0  0  0  0  0  0  0  0  0
    9.4482    1.5652    0.2080 H   0  0  0  0  0  0  0  0  0  0  0  0
   11.1456    3.4509   -0.6961 H   0  0  0  0  0  0  0  0  0  0  0  0
   10.7244    2.8823    1.9247 H   0  0  0  0  0  0  0  0  0  0  0  0
   13.7471    4.4534    2.7575 H   0  0  0  0  0  0  0  0  0  0  0  0
   12.1974    5.1434    3.2790 H   0  0  0  0  0  0  0  0  0  0  0  0
   12.2093    0.9068    2.0657 H   0  0  0  0  0  0  0  0  0  0  0  0
   12.7755    2.4087    2.9032 H   0  0  0  0  0  0  0  0  0  0  0  0
   15.8226    1.0655    1.2565 H   0  0  0  0  0  0  0  0  0  0  0  0
    8.4426   -1.7498   -1.7965 H   0  0  0  0  0  0  0  0  0  0  0  0
    7.6098    0.0906    0.2000 H   0  0  0  0  0  0  0  0  0  0  0  0
    7.8941    1.0468   -1.3240 H   0  0  0  0  0  0  0  0  0  0  0  0
    6.5890   -2.5105   -1.6785 H   0  0  0  0  0  0  0  0  0  0  0  0
    6.3520   -0.5858   -4.0233 H   0  0  0  0  0  0  0  0  0  0  0  0
    7.3087   -2.0536   -3.8476 H   0  0  0  0  0  0  0  0  0  0  0  0
    4.6269   -1.8309   -4.9505 H   0  0  0  0  0  0  0  0  0  0  0  0
    5.6005   -3.3209   -4.6819 H   0  0  0  0  0  0  0  0  0  0  0  0
    4.5410   -3.8618   -2.7650 H   0  0  0  0  0  0  0  0  0  0  0  0
    3.2240   -2.8337   -3.3140 H   0  0  0  0  0  0  0  0  0  0  0  0
    4.8352   -1.5474    0.0135 H   0  0  0  0  0  0  0  0  0  0  0  0
    4.5509   -3.2366   -0.3882 H   0  0  0  0  0  0  0  0  0  0  0  0
    3.2493   -1.2788    1.5462 H   0  0  0  0  0  0  0  0  0  0  0  0
    2.2442   -4.1101    1.1919 H   0  0  0  0  0  0  0  0  0  0  0  0
    3.6627   -3.3964    1.9479 H   0  0  0  0  0  0  0  0  0  0  0  0
    0.9804   -3.6924    3.1553 H   0  0  0  0  0  0  0  0  0  0  0  0
    2.5697   -3.1504    3.8771 H   0  0  0  0  0  0  0  0  0  0  0  0
    0.4465   -1.3745    3.5404 H   0  0  0  0  0  0  0  0  0  0  0  0
    2.2104   -0.9060    3.3659 H   0  0  0  0  0  0  0  0  0  0  0  0
    0.2911   -0.1576   -0.9359 H   0  0  0  0  0  0  0  0  0  0  0  0
   -2.3948   -1.1686    0.1449 H   0  0  0  0  0  0  0  0  0  0  0  0
   -2.1576   -0.5013   -1.4551 H   0  0  0  0  0  0  0  0  0  0  0  0
   -1.4673   -7.1443    1.4025 H   0  0  0  0  0  0  0  0  0  0  0  0
    0.0749   -6.3204    1.7805 H   0  0  0  0  0  0  0  0  0  0  0  0
   -0.2877   -6.9870    0.0798 H   0  0  0  0  0  0  0  0  0  0  0  0
   -0.9880   -4.9200    2.7387 H   0  0  0  0  0  0  0  0  0  0  0  0
   -2.7412   -5.0636    2.3171 H   0  0  0  0  0  0  0  0  0  0  0  0
   -1.8062   -3.5380    1.9683 H   0  0  0  0  0  0  0  0  0  0  0  0
   -2.9779   -6.5397    0.4855 H   0  0  0  0  0  0  0  0  0  0  0  0
   -1.3602   -6.5397   -3.2653 H   0  0  0  0  0  0  0  0  0  0  0  0
   -0.6033   -5.3944   -2.1976 H   0  0  0  0  0  0  0  0  0  0  0  0
   -2.0086   -4.8337   -3.1580 H   0  0  0  0  0  0  0  0  0  0  0  0
   -5.0239   -5.5976   -1.3183 H   0  0  0  0  0  0  0  0  0  0  0  0
   -5.9885   -3.8650    0.9931 H   0  0  0  0  0  0  0  0  0  0  0  0
   -7.5728   -5.5524   -1.0022 H   0  0  0  0  0  0  0  0  0  0  0  0
   -8.3466   -4.5292    0.2161 H   0  0  0  0  0  0  0  0  0  0  0  0
   -7.0135   -5.8228    1.9949 H   0  0  0  0  0  0  0  0  0  0  0  0
   -6.3420   -6.8487    0.6903 H   0  0  0  0  0  0  0  0  0  0  0  0
  -10.0365   -7.5857   -0.2888 H   0  0  0  0  0  0  0  0  0  0  0  0
   -8.0585   -2.5693    0.5799 H   0  0  0  0  0  0  0  0  0  0  0  0
   -7.6698   -0.7832   -1.7873 H   0  0  0  0  0  0  0  0  0  0  0  0
   -6.5277   -0.8601    1.2739 H   0  0  0  0  0  0  0  0  0  0  0  0
   -7.5247    1.8218    1.9792 H   0  0  0  0  0  0  0  0  0  0  0  0
   -5.0717    3.5591    2.5725 H   0  0  0  0  0  0  0  0  0  0  0  0
   -4.6297    3.7461   -0.4562 H   0  0  0  0  0  0  0  0  0  0  0  0
   -2.7385    3.6925   -1.4503 H   0  0  0  0  0  0  0  0  0  0  0  0
   -0.1342    4.1871   -0.0455 H   0  0  0  0  0  0  0  0  0  0  0  0
   -1.9848    1.3649    0.2167 H   0  0  0  0  0  0  0  0  0  0  0  0
    0.7868    3.8350   -2.3981 H   0  0  0  0  0  0  0  0  0  0  0  0
   -0.9062    3.4598   -2.9314 H   0  0  0  0  0  0  0  0  0  0  0  0
    1.2768    6.3934   -1.7441 H   0  0  0  0  0  0  0  0  0  0  0  0
    0.0987    8.6587   -2.3864 H   0  0  0  0  0  0  0  0  0  0  0  0
   -3.0813    4.5920   -3.4907 H   0  0  0  0  0  0  0  0  0  0  0  0
   -4.8374    5.9900   -4.3188 H   0  0  0  0  0  0  0  0  0  0  0  0
   -4.5085    8.4177   -4.3456 H   0  0  0  0  0  0  0  0  0  0  0  0
   -2.3691    9.3945   -3.4859 H   0  0  0  0  0  0  0  0  0  0  0  0
   -4.3017    5.7780    1.8183 H   0  0  0  0  0  0  0  0  0  0  0  0
   -4.0960    6.1744    0.0775 H   0  0  0  0  0  0  0  0  0  0  0  0
   -6.6426    5.0514    1.3930 H   0  0  0  0  0  0  0  0  0  0  0  0
   -6.4343    5.3420   -0.3437 H   0  0  0  0  0  0  0  0  0  0  0  0
   -7.6547    7.1104    0.7410 H   0  0  0  0  0  0  0  0  0  0  0  0
   -6.3989    7.4020    1.9488 H   0  0  0  0  0  0  0  0  0  0  0  0
   -5.6865   10.1371   -1.8213 H   0  0  0  0  0  0  0  0  0  0  0  0
   -4.6876   10.8769   -0.5624 H   0  0  0  0  0  0  0  0  0  0  0  0
   -6.0097   10.5981    1.9368 H   0  0  0  0  0  0  0  0  0  0  0  0
   -7.5336    9.7182    1.6866 H   0  0  0  0  0  0  0  0  0  0  0  0
   -5.2075    0.2744    3.3349 H   0  0  0  0  0  0  0  0  0  0  0  0
   -5.9338    1.8658    3.8966 H   0  0  0  0  0  0  0  0  0  0  0  0
   -6.4403   -1.7737    3.5236 H   0  0  0  0  0  0  0  0  0  0  0  0
   -8.1665   -2.9622    4.8302 H   0  0  0  0  0  0  0  0  0  0  0  0
   -9.8041   -1.7103    6.0955 H   0  0  0  0  0  0  0  0  0  0  0  0
   -9.7949    0.8094    6.1391 H   0  0  0  0  0  0  0  0  0  0  0  0
   -8.0398    1.9887    4.8062 H   0  0  0  0  0  0  0  0  0  0  0  0
  -10.0348    0.0313   -1.3360 H   0  0  0  0  0  0  0  0  0  0  0  0
  -10.1405   -1.1871   -0.0643 H   0  0  0  0  0  0  0  0  0  0  0  0
  -10.5464   -3.7013   -0.7163 H   0  0  0  0  0  0  0  0  0  0  0  0
  -10.8179   -3.2641   -4.8990 H   0  0  0  0  0  0  0  0  0  0  0  0
   -9.9659   -1.0491   -3.8762 H   0  0  0  0  0  0  0  0  0  0  0  0
  1  2  1  0
  2  3  1  0
  3  4  1  0
  4  5  1  0
  5  6  1  0
  6  7  1  0
  7  8  2  0
  7  9  1  0
  9 10  1  0
 10 11  1  0
 11 12  1  0
 12 13  2  0
 12 14  1  0
 11 15  1  0
 15 16  1  0
 16 17  2  0
 16 18  1  0
  6 19  1  0
 19 20  1  0
 20 21  1  0
 21 22  2  0
 21 23  1  0
 23 24  1  0
 24 25  1  0
 25 26  1  0
 26 27  1  0
 27 28  1  0
 28 29  1  0
 29 30  2  0
 29 31  1  0
 31 32  1  0
 32 33  1  0
 33 34  1  0
 34 35  1  0
 35 36  1  0
 36 37  2  0
 36 38  1  0
 38 39  1  0
 39 40  1  0
 40 41  1  0
 41 42  1  0
 42 43  1  0
 42 44  1  0
 42 45  1  0
 45 46  1  0
 46 47  2  0
 46 48  1  0
 45 49  1  0
 49 50  2  0
 49 51  1  0
 51 52  1  0
 52 53  1  0
 53 54  1  0
 54 55  1  0
 55 56  2  0
 55 57  1  0
 52 58  1  0
 58 59  2  0
 58 60  1  0
 60 61  1  0
 61 62  1  0
 62 63  2  0
 62 64  1  0
 64 65  1  0
 65 66  1  0
 66 67  2  0
 66 68  1  0
 68 69  1  0
 69 70  1  0
 70 71  2  0
 70 72  1  0
 72 73  1  0
 73 74  1  0
 74 75  2  0
 74 76  1  0
 73 77  1  0
 77 78  1  0
 78 79  2  0
 79 80  1  0
 80 81  1  0
 81 82  2  0
 82 83  1  0
 83 84  2  0
 84 85  1  0
 85 86  2  0
 69 87  1  0
 87 88  1  0
 88 89  1  0
 89 90  1  0
 90 91  2  3
 91 92  1  0
 91 93  1  0
 65 94  1  0
 94 95  1  0
 95 96  2  0
 96 97  1  0
 97 98  2  0
 98 99  1  0
 99100  2  0
 61101  1  0
101102  1  0
102103  2  0
103104  1  0
104105  2  0
105106  1  0
 27 23  1  0
 35 31  1  0
 76 38  1  0
 82 78  1  0
100 95  1  0
106102  1  0
 86 81  1  0
  1107  1  0
  1108  1  0
  2109  1  0
  2110  1  0
  3111  1  0
  3112  1  0
  4113  1  0
  4114  1  0
  5115  1  0
  5116  1  0
  6117  1  1
  9118  1  0
  9119  1  0
 10120  1  0
 11121  1  1
 14122  1  0
 14123  1  0
 15124  1  0
 15125  1  0
 18126  1  0
 19127  1  0
 20128  1  0
 20129  1  0
 23130  1  1
 24131  1  0
 24132  1  0
 25133  1  0
 25134  1  0
 26135  1  0
 26136  1  0
 28137  1  0
 28138  1  0
 31139  1  1
 32140  1  0
 32141  1  0
 33142  1  0
 33143  1  0
 34144  1  0
 34145  1  0
 38146  1  0
 39147  1  0
 39148  1  0
 43149  1  0
 43150  1  0
 43151  1  0
 44152  1  0
 44153  1  0
 44154  1  0
 45155  1  0
 48156  1  0
 48157  1  0
 48158  1  0
 51159  1  0
 52160  1  1
 53161  1  0
 53162  1  0
 54163  1  0
 54164  1  0
 57165  1  0
 60166  1  0
 61167  1  6
 64168  1  0
 65169  1  1
 68170  1  0
 69171  1  6
 72172  1  0
 73173  1  1
 76174  1  0
 77175  1  0
 77176  1  0
 79177  1  0
 80178  1  0
 83179  1  0
 84180  1  0
 85181  1  0
 86182  1  0
 87183  1  0
 87184  1  0
 88185  1  0
 88186  1  0
 89187  1  0
 89188  1  0
 92189  1  0
 92190  1  0
 93191  1  0
 93192  1  0
 94193  1  0
 94194  1  0
 96195  1  0
 97196  1  0
 98197  1  0
 99198  1  0
100199  1  0
101200  1  0
101201  1  0
103202  1  0
105203  1  0
106204  1  0
M  END
>  <Ligand ID>  (1) 
LIG0003273

>  <Ligand>  (1) 
CHEMBL410949

>  <SMILES>  (1) 
NCCCC[C@@H](C(=O)CN[C@H](C(=O)N)CC(=O)O)NCC(=O)[C@@H]1CCCN1CC(=O)[C@@H]1CCCN1C(=O)C1CSSC(C)(C)C(C(=O)C)C(=O)N[C@H](CCC(=O)O)C(=O)N[C@H](C(=O)N[C@H](C(=O)N[C@H](C(=O)N[C@@H](C(=O)N1)Cc1c[nH]c2c1cccc2)CCCN=C(N)N)Cc1ccccc1)Cc1cnc[nH]1

>  <CID>  (1) 
44348200.0

>  <ChEMBL ID>  (1) 
nan

>  <InChiKey>  (1) 
RBSFGDAPDRYGNL-DSKZEDDXSA-N

>  <InChi>  (1) 
InChI=1S/C70H98N18O16S2/c1-39(89)60-67(103)82-47(22-23-58(93)94)63(99)85-51(30-42-33-75-38-80-42)66(102)83-49(28-40-14-5-4-6-15-40)64(100)81-46(19-11-25-76-69(73)74)62(98)84-50(29-41-32-77-44-17-8-7-16-43(41)44)65(101)86-52(37-105-106-70(60,2)3)68(104)88-27-13-21-54(88)57(92)36-87-26-12-20-53(87)56(91)35-78-45(18-9-10-24-71)55(90)34-79-48(61(72)97)31-59(95)96/h4-8,14-17,32-33,38,45-54,60,77-79H,9-13,18-31,34-37,71H2,1-3H3,(H2,72,97)(H,75,80)(H,81,100)(H,82,103)(H,83,102)(H,84,98)(H,85,99)(H,86,101)(H,93,94)(H,95,96)(H4,73,74,76)/t45-,46-,47+,48-,49-,50+,51-,52?,53-,54-,60?/m0/s1

>  <IUPAC Name>  (1) 
(3S)-3-[[(3S)-3-[[2-[(2S)-1-[2-[(2S)-1-[(7R,10S,13S,16S,19R)-22-acetyl-13-benzyl-19-(2-carboxyethyl)-10-[3-(diaminomethylideneamino)propyl]-16-(1H-imidazol-5-ylmethyl)-7-(1H-indol-3-ylmethyl)-23,23-dimethyl-6,9,12,15,18,21-hexaoxo-1,2-dithia-5,8,11,14,17,20-hexazacyclotricosane-4-carbonyl]pyrrolidin-2-yl]-2-oxoethyl]pyrrolidin-2-yl]-2-oxoethyl]amino]-7-amino-2-oxoheptyl]amino]-4-amino-4-oxobutanoic acid

$$$$
