
     RDKit          3D

 96 99  0  0  0  0  0  0  0  0999 V2000
    3.8985    0.0478    0.6307 O   0  0  0  0  0  0  0  0  0  0  0  0
    3.2426   -0.8366    1.2352 C   0  0  0  0  0  0  0  0  0  0  0  0
    3.7631   -1.6810    2.3173 C   0  0  0  0  0  0  0  0  0  0  0  0
    5.1301   -1.4062    2.6205 N   0  0  0  0  0  0  0  0  0  0  0  0
    5.3923   -0.3844    3.5960 C   0  0  0  0  0  0  0  0  0  0  0  0
    4.3694    0.1852    4.0926 O   0  0  0  0  0  0  0  0  0  0  0  0
    6.7635   -0.0034    4.0113 C   0  0  0  0  0  0  0  0  0  0  0  0
    6.1863   -2.1553    1.9787 C   0  0  0  0  0  0  0  0  0  0  0  0
    6.6944   -1.5978    0.7288 C   0  0  0  0  0  0  0  0  0  0  0  0
    6.1403   -1.9499   -0.5037 C   0  0  0  0  0  0  0  0  0  0  0  0
    6.6049   -1.4454   -1.6997 C   0  0  0  0  0  0  0  0  0  0  0  0
    7.6571   -0.5546   -1.7247 C   0  0  0  0  0  0  0  0  0  0  0  0
    8.2257   -0.1873   -0.5234 C   0  0  0  0  0  0  0  0  0  0  0  0
    7.7473   -0.7036    0.6713 C   0  0  0  0  0  0  0  0  0  0  0  0
    1.8809   -1.0464    0.8473 N   0  0  0  0  0  0  0  0  0  0  0  0
    1.2633   -0.2445   -0.2365 C   0  0  2  0  0  0  0  0  0  0  0  0
    0.2512    0.5926    0.4125 C   0  0  0  0  0  0  0  0  0  0  0  0
    0.2166    0.5314    1.6950 O   0  0  0  0  0  0  0  0  0  0  0  0
   -0.6749    1.4489   -0.1842 N   0  0  0  0  0  0  0  0  0  0  0  0
   -1.5763    2.2160    0.6152 C   0  0  2  0  0  0  0  0  0  0  0  0
   -2.8863    1.5213    0.8802 C   0  0  0  0  0  0  0  0  0  0  0  0
   -3.8357    2.0957    1.4712 O   0  0  0  0  0  0  0  0  0  0  0  0
   -3.0653    0.1957    0.4661 N   0  0  0  0  0  0  0  0  0  0  0  0
   -4.3150   -0.5623    0.6889 C   0  0  2  0  0  0  0  0  0  0  0  0
   -4.0933   -1.6785    1.6102 C   0  0  0  0  0  0  0  0  0  0  0  0
   -2.8870   -1.9129    1.9627 O   0  0  0  0  0  0  0  0  0  0  0  0
   -5.0903   -2.5213    2.1508 N   0  0  0  0  0  0  0  0  0  0  0  0
   -4.8020   -0.9204   -0.6657 C   0  0  0  0  0  0  0  0  0  0  0  0
   -6.0189   -1.7086   -0.7789 C   0  0  0  0  0  0  0  0  0  0  0  0
   -7.2860   -1.1713   -0.9553 C   0  0  0  0  0  0  0  0  0  0  0  0
   -8.1895   -2.1925   -0.9873 N   0  0  0  0  0  0  0  0  0  0  0  0
   -7.5687   -3.3666   -0.8413 C   0  0  0  0  0  0  0  0  0  0  0  0
   -6.2300   -3.0744   -0.7130 C   0  0  0  0  0  0  0  0  0  0  0  0
   -5.3752   -4.1495   -0.5620 C   0  0  0  0  0  0  0  0  0  0  0  0
   -5.7918   -5.4458   -0.5366 C   0  0  0  0  0  0  0  0  0  0  0  0
   -7.1363   -5.7377   -0.6647 C   0  0  0  0  0  0  0  0  0  0  0  0
   -8.0224   -4.6721   -0.8183 C   0  0  0  0  0  0  0  0  0  0  0  0
   -1.8945    3.5529    0.0543 C   0  0  0  0  0  0  0  0  0  0  0  0
   -0.6445    4.3691   -0.1048 C   0  0  0  0  0  0  0  0  0  0  0  0
    0.0726    4.5889    1.1881 C   0  0  0  0  0  0  0  0  0  0  0  0
    1.2830    5.4002    0.9935 N   0  0  0  0  0  0  0  0  0  0  0  0
    1.1694    6.6488    0.7003 C   0  0  0  0  0  0  0  0  0  0  0  0
   -0.1137    7.2881    0.5534 N   0  0  0  0  0  0  0  0  0  0  0  0
    2.3379    7.4323    0.5133 N   0  0  0  0  0  0  0  0  0  0  0  0
    0.8878   -1.2065   -1.2677 C   0  0  0  0  0  0  0  0  0  0  0  0
    0.2659   -0.7812   -2.5009 C   0  0  0  0  0  0  0  0  0  0  0  0
    1.1152   -0.3164   -3.5239 C   0  0  0  0  0  0  0  0  0  0  0  0
    0.6217    0.0848   -4.7443 C   0  0  0  0  0  0  0  0  0  0  0  0
   -0.7199    0.0517   -5.0248 C   0  0  0  0  0  0  0  0  0  0  0  0
   -1.5625   -0.4004   -4.0356 C   0  0  0  0  0  0  0  0  0  0  0  0
   -1.0688   -0.7987   -2.8221 C   0  0  0  0  0  0  0  0  0  0  0  0
    3.7109   -2.7797    2.0491 H   0  0  0  0  0  0  0  0  0  0  0  0
    3.0936   -1.5968    3.2088 H   0  0  0  0  0  0  0  0  0  0  0  0
    6.7853    0.3734    5.0611 H   0  0  0  0  0  0  0  0  0  0  0  0
    7.1915    0.8010    3.3941 H   0  0  0  0  0  0  0  0  0  0  0  0
    7.4785   -0.8530    3.9914 H   0  0  0  0  0  0  0  0  0  0  0  0
    7.0511   -2.3280    2.6531 H   0  0  0  0  0  0  0  0  0  0  0  0
    5.7407   -3.1602    1.7095 H   0  0  0  0  0  0  0  0  0  0  0  0
    5.3149   -2.6479   -0.4981 H   0  0  0  0  0  0  0  0  0  0  0  0
    6.1706   -1.7225   -2.6586 H   0  0  0  0  0  0  0  0  0  0  0  0
    8.0583   -0.1340   -2.6351 H   0  0  0  0  0  0  0  0  0  0  0  0
    9.0612    0.5167   -0.5107 H   0  0  0  0  0  0  0  0  0  0  0  0
    8.2490   -0.3678    1.5660 H   0  0  0  0  0  0  0  0  0  0  0  0
    1.2844   -1.7734    1.3219 H   0  0  0  0  0  0  0  0  0  0  0  0
    2.0876    0.4565   -0.5359 H   0  0  0  0  0  0  0  0  0  0  0  0
   -0.6917    1.5234   -1.2199 H   0  0  0  0  0  0  0  0  0  0  0  0
   -1.1853    2.3535    1.6724 H   0  0  0  0  0  0  0  0  0  0  0  0
   -2.2961   -0.2855   -0.0083 H   0  0  0  0  0  0  0  0  0  0  0  0
   -5.0151    0.1452    1.2066 H   0  0  0  0  0  0  0  0  0  0  0  0
   -4.8860   -3.5568    2.2472 H   0  0  0  0  0  0  0  0  0  0  0  0
   -5.9913   -2.0975    2.4366 H   0  0  0  0  0  0  0  0  0  0  0  0
   -3.9548   -1.4558   -1.1784 H   0  0  0  0  0  0  0  0  0  0  0  0
   -4.8860    0.0285   -1.2541 H   0  0  0  0  0  0  0  0  0  0  0  0
   -7.5650   -0.1305   -1.0547 H   0  0  0  0  0  0  0  0  0  0  0  0
   -9.2237   -2.1056   -1.1086 H   0  0  0  0  0  0  0  0  0  0  0  0
   -4.3195   -3.9064   -0.4604 H   0  0  0  0  0  0  0  0  0  0  0  0
   -5.0819   -6.2371   -0.4179 H   0  0  0  0  0  0  0  0  0  0  0  0
   -7.5110   -6.7521   -0.6491 H   0  0  0  0  0  0  0  0  0  0  0  0
   -9.0872   -4.8453   -0.9190 H   0  0  0  0  0  0  0  0  0  0  0  0
   -2.6239    4.1123    0.7000 H   0  0  0  0  0  0  0  0  0  0  0  0
   -2.4181    3.4056   -0.9292 H   0  0  0  0  0  0  0  0  0  0  0  0
    0.0613    3.8746   -0.8212 H   0  0  0  0  0  0  0  0  0  0  0  0
   -0.9456    5.3572   -0.5555 H   0  0  0  0  0  0  0  0  0  0  0  0
   -0.5504    5.1372    1.9161 H   0  0  0  0  0  0  0  0  0  0  0  0
    0.3573    3.6150    1.6459 H   0  0  0  0  0  0  0  0  0  0  0  0
   -0.3297    7.9031   -0.2665 H   0  0  0  0  0  0  0  0  0  0  0  0
   -0.8516    7.1363    1.2872 H   0  0  0  0  0  0  0  0  0  0  0  0
    2.9933    7.7034    1.2810 H   0  0  0  0  0  0  0  0  0  0  0  0
    2.5275    7.7416   -0.4690 H   0  0  0  0  0  0  0  0  0  0  0  0
    0.1767   -1.9565   -0.7923 H   0  0  0  0  0  0  0  0  0  0  0  0
    1.7858   -1.8623   -1.5028 H   0  0  0  0  0  0  0  0  0  0  0  0
    2.1770   -0.2645   -3.3732 H   0  0  0  0  0  0  0  0  0  0  0  0
    1.2827    0.4421   -5.5290 H   0  0  0  0  0  0  0  0  0  0  0  0
   -1.1621    0.3569   -5.9616 H   0  0  0  0  0  0  0  0  0  0  0  0
   -2.6367   -0.4445   -4.2247 H   0  0  0  0  0  0  0  0  0  0  0  0
   -1.7588   -1.1573   -2.0801 H   0  0  0  0  0  0  0  0  0  0  0  0
  1  2  2  0
  2  3  1  0
  3  4  1  0
  4  5  1  0
  5  6  2  0
  5  7  1  0
  4  8  1  0
  8  9  1  0
  9 10  2  0
 10 11  1  0
 11 12  2  0
 12 13  1  0
 13 14  2  0
  2 15  1  0
 15 16  1  0
 16 17  1  0
 17 18  2  0
 17 19  1  0
 19 20  1  0
 20 21  1  0
 21 22  2  0
 21 23  1  0
 23 24  1  0
 24 25  1  0
 25 26  2  0
 25 27  1  0
 24 28  1  0
 28 29  1  0
 29 30  2  0
 30 31  1  0
 31 32  1  0
 32 33  2  0
 33 34  1  0
 34 35  2  0
 35 36  1  0
 36 37  2  0
 20 38  1  0
 38 39  1  0
 39 40  1  0
 40 41  1  0
 41 42  2  3
 42 43  1  0
 42 44  1  0
 16 45  1  0
 45 46  1  0
 46 47  2  0
 47 48  1  0
 48 49  2  0
 49 50  1  0
 50 51  2  0
 14  9  1  0
 33 29  1  0
 51 46  1  0
 37 32  1  0
  3 52  1  0
  3 53  1  0
  7 54  1  0
  7 55  1  0
  7 56  1  0
  8 57  1  0
  8 58  1  0
 10 59  1  0
 11 60  1  0
 12 61  1  0
 13 62  1  0
 14 63  1  0
 15 64  1  0
 16 65  1  6
 19 66  1  0
 20 67  1  1
 23 68  1  0
 24 69  1  1
 27 70  1  0
 27 71  1  0
 28 72  1  0
 28 73  1  0
 30 74  1  0
 31 75  1  0
 34 76  1  0
 35 77  1  0
 36 78  1  0
 37 79  1  0
 38 80  1  0
 38 81  1  0
 39 82  1  0
 39 83  1  0
 40 84  1  0
 40 85  1  0
 43 86  1  0
 43 87  1  0
 44 88  1  0
 44 89  1  0
 45 90  1  0
 45 91  1  0
 47 92  1  0
 48 93  1  0
 49 94  1  0
 50 95  1  0
 51 96  1  0
M  END
>  <Ligand ID>  (1) 
LIG0003279

>  <Ligand>  (1) 
CHEMBL138771

>  <SMILES>  (1) 
O=C(CN(C(=O)C)Cc1ccccc1)N[C@H](C(=O)N[C@H](C(=O)N[C@H](C(=O)N)Cc1c[nH]c2c1cccc2)CCCN=C(N)N)Cc1ccccc1

>  <CID>  (1) 
44359291.0

>  <ChEMBL ID>  (1) 
nan

>  <InChiKey>  (1) 
CSOVRHGSAPSVOO-CPCREDONSA-N

>  <InChi>  (1) 
InChI=1S/C37H45N9O5/c1-24(47)46(22-26-13-6-3-7-14-26)23-33(48)43-32(19-25-11-4-2-5-12-25)36(51)44-30(17-10-18-41-37(39)40)35(50)45-31(34(38)49)20-27-21-42-29-16-9-8-15-28(27)29/h2-9,11-16,21,30-32,42H,10,17-20,22-23H2,1H3,(H2,38,49)(H,43,48)(H,44,51)(H,45,50)(H4,39,40,41)/t30-,31-,32-/m0/s1

>  <IUPAC Name>  (1) 
(2S)-2-[[(2S)-2-[[2-[acetyl(benzyl)amino]acetyl]amino]-3-phenylpropanoyl]amino]-N-[(2S)-1-amino-3-(1H-indol-3-yl)-1-oxopropan-2-yl]-5-(diaminomethylideneamino)pentanamide

$$$$
