
     RDKit          3D

 60 66  0  0  0  0  0  0  0  0999 V2000
   -1.4795   -5.7130    0.3357 O   0  0  0  0  0  0  0  0  0  0  0  0
   -0.8120   -4.5387    0.6063 C   0  0  0  0  0  0  0  0  0  0  0  0
    0.1594   -4.4266    1.5923 C   0  0  0  0  0  0  0  0  0  0  0  0
    0.8211   -3.2421    1.8530 C   0  0  0  0  0  0  0  0  0  0  0  0
    0.5175   -2.1194    1.1156 C   0  0  0  0  0  0  0  0  0  0  0  0
   -0.4514   -2.2002    0.1209 C   0  0  0  0  0  0  0  0  0  0  0  0
   -1.1127   -3.3966   -0.1351 C   0  0  0  0  0  0  0  0  0  0  0  0
   -0.8448   -1.0392   -0.7173 C   0  0  2  0  0  0  0  0  0  0  0  0
   -0.1914   -1.2553   -2.0928 C   0  0  0  0  0  0  0  0  0  0  0  0
    1.1160   -0.5102   -2.1738 C   0  0  0  0  0  0  0  0  0  0  0  0
    1.8630   -0.5707   -0.9258 N   0  0  0  0  0  0  0  0  0  0  0  0
    1.1676    0.0485    0.1519 C   0  0  2  0  0  0  0  0  0  0  0  0
    1.2409   -0.8387    1.4018 C   0  0  0  0  0  0  0  0  0  0  0  0
   -0.2894    0.2490   -0.2371 C   0  0  2  0  0  0  0  0  0  0  0  0
   -1.0967    0.8747    0.8779 C   0  0  0  0  0  0  0  0  0  0  0  0
   -2.4024    1.2386    0.2206 C   0  0  0  0  0  0  0  0  0  0  0  0
   -2.9647    0.2637   -0.5892 C   0  0  0  0  0  0  0  0  0  0  0  0
   -2.3495   -1.0613   -0.8138 C   0  0  0  0  0  0  0  0  0  0  0  0
   -4.1122    0.8091   -1.0657 N   0  0  0  0  0  0  0  0  0  0  0  0
   -4.2688    2.0561   -0.5864 C   0  0  0  0  0  0  0  0  0  0  0  0
   -3.2024    2.3616    0.2333 C   0  0  0  0  0  0  0  0  0  0  0  0
   -3.0572    3.5643    0.8839 C   0  0  0  0  0  0  0  0  0  0  0  0
   -4.0168    4.5421    0.7276 C   0  0  0  0  0  0  0  0  0  0  0  0
   -5.0944    4.2586   -0.0890 C   0  0  0  0  0  0  0  0  0  0  0  0
   -5.2388    3.0451   -0.7441 C   0  0  0  0  0  0  0  0  0  0  0  0
    3.1029    0.1093   -1.1873 C   0  0  0  0  0  0  0  0  0  0  0  0
    4.1841    0.0109   -0.1950 C   0  0  0  0  0  0  0  0  0  0  0  0
    5.3994    0.8177   -0.7446 C   0  0  0  0  0  0  0  0  0  0  0  0
    4.8400    1.9779    0.0784 C   0  0  0  0  0  0  0  0  0  0  0  0
    4.2790    0.8887    1.0011 C   0  0  0  0  0  0  0  0  0  0  0  0
   -2.4503   -5.6286    0.0192 H   0  0  0  0  0  0  0  0  0  0  0  0
    0.3919   -5.3231    2.1703 H   0  0  0  0  0  0  0  0  0  0  0  0
    1.5605   -3.2501    2.6376 H   0  0  0  0  0  0  0  0  0  0  0  0
   -1.8768   -3.4699   -0.9148 H   0  0  0  0  0  0  0  0  0  0  0  0
   -0.0876   -2.3104   -2.3519 H   0  0  0  0  0  0  0  0  0  0  0  0
   -0.8825   -0.7759   -2.8201 H   0  0  0  0  0  0  0  0  0  0  0  0
    1.7353   -1.0371   -2.9306 H   0  0  0  0  0  0  0  0  0  0  0  0
    0.9893    0.5232   -2.5279 H   0  0  0  0  0  0  0  0  0  0  0  0
    1.5124    1.0440    0.4525 H   0  0  0  0  0  0  0  0  0  0  0  0
    2.2762   -1.1083    1.5838 H   0  0  0  0  0  0  0  0  0  0  0  0
    0.7205   -0.3481    2.2251 H   0  0  0  0  0  0  0  0  0  0  0  0
   -0.2970    0.9830   -1.0608 H   0  0  0  0  0  0  0  0  0  0  0  0
   -1.2605    0.1817    1.7050 H   0  0  0  0  0  0  0  0  0  0  0  0
   -0.5666    1.7909    1.1938 H   0  0  0  0  0  0  0  0  0  0  0  0
   -2.6029   -1.4255   -1.8455 H   0  0  0  0  0  0  0  0  0  0  0  0
   -2.8225   -1.7431   -0.0744 H   0  0  0  0  0  0  0  0  0  0  0  0
   -4.8060    0.3628   -1.7132 H   0  0  0  0  0  0  0  0  0  0  0  0
   -2.1957    3.7262    1.5057 H   0  0  0  0  0  0  0  0  0  0  0  0
   -3.8689    5.4611    1.2487 H   0  0  0  0  0  0  0  0  0  0  0  0
   -5.8302    5.0406   -0.1941 H   0  0  0  0  0  0  0  0  0  0  0  0
   -6.1018    2.8719   -1.3730 H   0  0  0  0  0  0  0  0  0  0  0  0
    3.4684   -0.1800   -2.2106 H   0  0  0  0  0  0  0  0  0  0  0  0
    2.8418    1.2005   -1.3105 H   0  0  0  0  0  0  0  0  0  0  0  0
    4.4917   -1.0432    0.0353 H   0  0  0  0  0  0  0  0  0  0  0  0
    6.3488    0.4583   -0.3393 H   0  0  0  0  0  0  0  0  0  0  0  0
    5.3492    0.9953   -1.8286 H   0  0  0  0  0  0  0  0  0  0  0  0
    4.0226    2.5376   -0.3671 H   0  0  0  0  0  0  0  0  0  0  0  0
    5.6479    2.5689    0.5552 H   0  0  0  0  0  0  0  0  0  0  0  0
    5.1666    0.5336    1.6214 H   0  0  0  0  0  0  0  0  0  0  0  0
    3.4205    1.1595    1.5907 H   0  0  0  0  0  0  0  0  0  0  0  0
  1  2  1  0
  2  3  2  0
  3  4  1  0
  4  5  2  0
  5  6  1  0
  6  7  2  0
  6  8  1  0
  8  9  1  6
  9 10  1  0
 10 11  1  0
 11 12  1  0
 12 13  1  0
 12 14  1  0
 14 15  1  0
 15 16  1  0
 16 17  2  0
 17 18  1  0
 17 19  1  0
 19 20  1  0
 20 21  2  0
 21 22  1  0
 22 23  2  0
 23 24  1  0
 24 25  2  0
 11 26  1  0
 26 27  1  0
 27 28  1  0
 28 29  1  0
 29 30  1  0
  7  2  1  0
 18  8  1  0
 25 20  1  0
 30 27  1  0
 13  5  1  0
 21 16  1  0
 14  8  1  0
  1 31  1  0
  3 32  1  0
  4 33  1  0
  7 34  1  0
  9 35  1  0
  9 36  1  0
 10 37  1  0
 10 38  1  0
 12 39  1  1
 13 40  1  0
 13 41  1  0
 14 42  1  6
 15 43  1  0
 15 44  1  0
 18 45  1  0
 18 46  1  0
 19 47  1  0
 22 48  1  0
 23 49  1  0
 24 50  1  0
 25 51  1  0
 26 52  1  0
 26 53  1  0
 27 54  1  0
 28 55  1  0
 28 56  1  0
 29 57  1  0
 29 58  1  0
 30 59  1  0
 30 60  1  0
M  END
>  <Ligand ID>  (1) 
LIG0002930

>  <Ligand>  (1) 
CHEMBL375504

>  <SMILES>  (1) 
Oc1ccc2c(c1)[C@@]13CCN([C@H](C2)[C@@H]3Cc2c(C1)[nH]c1c2cccc1)CC1CCC1

>  <CID>  (1) 
16720646.0

>  <ChEMBL ID>  (1) 
nan

>  <InChiKey>  (1) 
OBRHLKNIVAKGEN-HUROMRQRSA-N

>  <InChi>  (1) 
InChI=1S/C27H30N2O/c30-19-9-8-18-12-26-23-14-21-20-6-1-2-7-24(20)28-25(21)15-27(23,22(18)13-19)10-11-29(26)16-17-4-3-5-17/h1-2,6-9,13,17,23,26,28,30H,3-5,10-12,14-16H2/t23-,26+,27+/m0/s1

>  <IUPAC Name>  (1) 
(1S,13R,14R)-24-(cyclobutylmethyl)-4,24-diazahexacyclo[12.7.3.01,13.03,11.05,10.016,21]tetracosa-3(11),5,7,9,16(21),17,19-heptaen-19-ol

$$$$
