
     RDKit          3D

 54 58  0  0  0  0  0  0  0  0999 V2000
    9.6389    2.7447   -0.6142 O   0  0  0  0  0  0  0  0  0  0  0  0
    8.2830    2.7132   -0.8476 C   0  0  0  0  0  0  0  0  0  0  0  0
    7.7148    3.7853   -1.1563 O   0  0  0  0  0  0  0  0  0  0  0  0
    7.5716    1.4366   -0.7253 C   0  0  0  0  0  0  0  0  0  0  0  0
    6.0679    1.5386   -1.0115 C   0  0  0  0  0  0  0  0  0  0  0  0
    6.1945    0.4293   -1.8895 N   0  0  0  0  0  0  0  0  0  0  0  0
    7.6414    0.5425   -1.9630 C   0  0  0  0  0  0  0  0  0  0  0  0
    5.7222   -0.8606   -1.4654 C   0  0  0  0  0  0  0  0  0  0  0  0
    4.2989   -0.9068   -1.1471 C   0  0  0  0  0  0  0  0  0  0  0  0
    3.7806   -0.6669    0.1110 C   0  0  0  0  0  0  0  0  0  0  0  0
    2.4210   -0.7278    0.3378 C   0  0  0  0  0  0  0  0  0  0  0  0
    1.5404   -1.0286   -0.6790 C   0  0  0  0  0  0  0  0  0  0  0  0
    2.0584   -1.2651   -1.9219 C   0  0  0  0  0  0  0  0  0  0  0  0
    3.4144   -1.2122   -2.1830 C   0  0  0  0  0  0  0  0  0  0  0  0
    1.2155   -1.5623   -2.9367 F   0  0  0  0  0  0  0  0  0  0  0  0
    0.1046   -1.1099   -0.5117 C   0  0  0  0  0  0  0  0  0  0  0  0
   -0.9169   -1.3227   -1.0821 N   0  0  0  0  0  0  0  0  0  0  0  0
   -2.1367   -1.3234   -0.6335 C   0  0  0  0  0  0  0  0  0  0  0  0
   -2.2730   -1.0336    0.7094 C   0  0  0  0  0  0  0  0  0  0  0  0
   -0.5636   -0.7774    1.2185 S   0  0  0  0  0  0  0  0  0  0  0  0
   -3.4264   -0.9824    1.3664 N   0  0  0  0  0  0  0  0  0  0  0  0
   -4.6172   -1.2231    0.7360 C   0  0  0  0  0  0  0  0  0  0  0  0
   -4.5213   -1.5160   -0.6056 C   0  0  0  0  0  0  0  0  0  0  0  0
   -3.3409   -1.5749   -1.3072 C   0  0  0  0  0  0  0  0  0  0  0  0
   -5.8880   -1.1614    1.4873 C   0  0  2  0  0  0  0  0  0  0  0  0
   -6.5317    0.1497    1.5210 C   0  0  0  0  0  0  0  0  0  0  0  0
   -7.4391    0.4714    0.5163 C   0  0  0  0  0  0  0  0  0  0  0  0
   -8.0762    1.7066    0.5067 C   0  0  0  0  0  0  0  0  0  0  0  0
   -7.8077    2.6280    1.5047 C   0  0  0  0  0  0  0  0  0  0  0  0
   -6.9034    2.3286    2.5207 C   0  0  0  0  0  0  0  0  0  0  0  0
   -6.2844    1.0942    2.5065 C   0  0  0  0  0  0  0  0  0  0  0  0
   -5.6670   -1.5975    2.9424 C   0  0  0  0  0  0  0  0  0  0  0  0
   10.1000    3.6234   -0.3771 H   0  0  0  0  0  0  0  0  0  0  0  0
    7.8011    0.8591    0.1918 H   0  0  0  0  0  0  0  0  0  0  0  0
    5.8296    2.5212   -1.4876 H   0  0  0  0  0  0  0  0  0  0  0  0
    5.5101    1.4528   -0.0845 H   0  0  0  0  0  0  0  0  0  0  0  0
    8.0189    1.1038   -2.8396 H   0  0  0  0  0  0  0  0  0  0  0  0
    8.1872   -0.4236   -1.8026 H   0  0  0  0  0  0  0  0  0  0  0  0
    6.0123   -1.5899   -2.2481 H   0  0  0  0  0  0  0  0  0  0  0  0
    6.3250   -1.1408   -0.5575 H   0  0  0  0  0  0  0  0  0  0  0  0
    4.4276   -0.4324    0.9217 H   0  0  0  0  0  0  0  0  0  0  0  0
    2.0481   -0.5357    1.3296 H   0  0  0  0  0  0  0  0  0  0  0  0
    3.7926   -1.4045   -3.1778 H   0  0  0  0  0  0  0  0  0  0  0  0
   -5.4563   -1.7101   -1.1225 H   0  0  0  0  0  0  0  0  0  0  0  0
   -3.3740   -1.8125   -2.3543 H   0  0  0  0  0  0  0  0  0  0  0  0
   -6.5778   -1.9479    1.0663 H   0  0  0  0  0  0  0  0  0  0  0  0
   -7.6889   -0.1966   -0.2823 H   0  0  0  0  0  0  0  0  0  0  0  0
   -8.7869    1.9428   -0.2911 H   0  0  0  0  0  0  0  0  0  0  0  0
   -8.3187    3.6010    1.4848 H   0  0  0  0  0  0  0  0  0  0  0  0
   -6.7306    3.0727    3.2671 H   0  0  0  0  0  0  0  0  0  0  0  0
   -5.5792    0.8625    3.3006 H   0  0  0  0  0  0  0  0  0  0  0  0
   -4.8461   -1.0384    3.4002 H   0  0  0  0  0  0  0  0  0  0  0  0
   -5.3585   -2.6751    2.8638 H   0  0  0  0  0  0  0  0  0  0  0  0
   -6.6103   -1.5659    3.4953 H   0  0  0  0  0  0  0  0  0  0  0  0
  1  2  1  0
  2  3  2  0
  2  4  1  0
  4  5  1  0
  5  6  1  0
  6  7  1  0
  6  8  1  0
  8  9  1  0
  9 10  2  0
 10 11  1  0
 11 12  2  0
 12 13  1  0
 13 14  2  0
 13 15  1  0
 12 16  1  0
 16 17  2  0
 17 18  1  0
 18 19  2  0
 19 20  1  0
 19 21  1  0
 21 22  2  0
 22 23  1  0
 23 24  2  0
 22 25  1  0
 25 26  1  0
 26 27  2  0
 27 28  1  0
 28 29  2  0
 29 30  1  0
 30 31  2  0
 25 32  1  0
  7  4  1  0
 14  9  1  0
 20 16  1  0
 31 26  1  0
 24 18  1  0
  1 33  1  0
  4 34  1  0
  5 35  1  0
  5 36  1  0
  7 37  1  0
  7 38  1  0
  8 39  1  0
  8 40  1  0
 10 41  1  0
 11 42  1  0
 14 43  1  0
 23 44  1  0
 24 45  1  0
 25 46  1  6
 27 47  1  0
 28 48  1  0
 29 49  1  0
 30 50  1  0
 31 51  1  0
 32 52  1  0
 32 53  1  0
 32 54  1  0
M  END
>  <Ligand ID>  (1) 
LIG0005197

>  <Ligand>  (1) 
CHEMBL1651858

>  <SMILES>  (1) 
OC(=O)C1CN(C1)Cc1ccc(c(c1)F)c1nc2c(s1)nc(cc2)[C@H](c1ccccc1)C

>  <CID>  (1) 
53319458.0

>  <ChEMBL ID>  (1) 
nan

>  <InChiKey>  (1) 
CXOPPLGMWBBMQK-HNNXBMFYSA-N

>  <InChi>  (1) 
InChI=1S/C25H22FN3O2S/c1-15(17-5-3-2-4-6-17)21-9-10-22-24(27-21)32-23(28-22)19-8-7-16(11-20(19)26)12-29-13-18(14-29)25(30)31/h2-11,15,18H,12-14H2,1H3,(H,30,31)/t15-/m0/s1

>  <IUPAC Name>  (1) 
1-[[3-fluoro-4-[5-[(1S)-1-phenylethyl]-[1,3]thiazolo[5,4-b]pyridin-2-yl]phenyl]methyl]azetidine-3-carboxylic acid

$$$$
