
     RDKit          3D

 16 15  0  0  0  0  0  0  0  0999 V2000
   -1.4460    0.8485   -0.4204 C   0  0  0  0  0  0  0  0  0  0  0  0
   -0.7095   -0.4492   -0.2802 C   0  0  0  0  0  0  0  0  0  0  0  0
    0.5733   -0.3462    0.4897 C   0  0  0  0  0  0  0  0  0  0  0  0
    1.1342   -1.6255    0.5335 O   0  0  0  0  0  0  0  0  0  0  0  0
    1.5325    0.6578   -0.0479 C   0  0  0  0  0  0  0  0  0  0  0  0
   -1.5304   -1.3486    0.4049 O   0  0  0  0  0  0  0  0  0  0  0  0
   -2.2372    0.6968   -1.1957 H   0  0  0  0  0  0  0  0  0  0  0  0
   -1.9876    1.1403    0.5132 H   0  0  0  0  0  0  0  0  0  0  0  0
   -0.7966    1.6768   -0.7757 H   0  0  0  0  0  0  0  0  0  0  0  0
   -0.4693   -0.8170   -1.3079 H   0  0  0  0  0  0  0  0  0  0  0  0
    0.3279   -0.0919    1.5420 H   0  0  0  0  0  0  0  0  0  0  0  0
    1.6643   -1.7784   -0.2741 H   0  0  0  0  0  0  0  0  0  0  0  0
    2.5356    0.4588    0.3501 H   0  0  0  0  0  0  0  0  0  0  0  0
    1.2592    1.6869    0.2499 H   0  0  0  0  0  0  0  0  0  0  0  0
    1.5216    0.6173   -1.1616 H   0  0  0  0  0  0  0  0  0  0  0  0
   -1.3720   -1.3264    1.3802 H   0  0  0  0  0  0  0  0  0  0  0  0
  1  2  1  0
  2  3  1  0
  3  4  1  0
  3  5  1  0
  2  6  1  0
  1  7  1  0
  1  8  1  0
  1  9  1  0
  2 10  1  0
  3 11  1  0
  4 12  1  0
  5 13  1  0
  5 14  1  0
  5 15  1  0
  6 16  1  0
M  END
>  <Ligand ID>  (1) 
LIG0000607

>  <Ligand>  (1) 
butane-2,3-diol

>  <SMILES>  (1) 
CC(C(O)C)O

>  <CID>  (1) 
262.0

>  <ChEMBL ID>  (1) 
nan

>  <InChiKey>  (1) 
OWBTYPJTUOEWEK-UHFFFAOYSA-N

>  <InChi>  (1) 
InChI=1S/C4H10O2/c1-3(5)4(2)6/h3-6H,1-2H3

>  <IUPAC Name>  (1) 
butane-2,3-diol

$$$$
