
     RDKit          3D

 50 53  0  0  0  0  0  0  0  0999 V2000
   -6.7874    1.3316    2.2309 O   0  0  0  0  0  0  0  0  0  0  0  0
   -6.1022    1.3900    1.0032 C   0  0  0  0  0  0  0  0  0  0  0  0
   -5.6342   -0.0247    0.6425 C   0  0  1  0  0  0  0  0  0  0  0  0
   -4.9578   -0.0252   -0.5503 O   0  0  0  0  0  0  0  0  0  0  0  0
   -3.7231   -0.5928   -0.3675 C   0  0  0  0  0  0  0  0  0  0  0  0
   -3.3618   -0.3426    1.0587 C   0  0  1  0  0  0  0  0  0  0  0  0
   -4.7309   -0.5485    1.7156 C   0  0  2  0  0  0  0  0  0  0  0  0
   -5.0073   -1.9033    1.8597 O   0  0  0  0  0  0  0  0  0  0  0  0
   -2.5052   -1.2914    1.5895 O   0  0  0  0  0  0  0  0  0  0  0  0
   -2.7351   -0.1464   -1.3148 N   0  0  0  0  0  0  0  0  0  0  0  0
   -2.9524    0.6557   -2.3798 C   0  0  0  0  0  0  0  0  0  0  0  0
   -1.7786    0.8361   -3.0103 N   0  0  0  0  0  0  0  0  0  0  0  0
   -0.8519    0.1518   -2.3387 C   0  0  0  0  0  0  0  0  0  0  0  0
   -1.4362   -0.4908   -1.2430 C   0  0  0  0  0  0  0  0  0  0  0  0
   -0.7247   -1.2411   -0.4094 N   0  0  0  0  0  0  0  0  0  0  0  0
    0.6090   -1.3918   -0.6229 C   0  0  0  0  0  0  0  0  0  0  0  0
    1.3061   -2.2030    0.3015 N   0  0  0  0  0  0  0  0  0  0  0  0
    2.1650   -1.7028    1.0880 N   0  0  0  0  0  0  0  0  0  0  0  0
    2.4802   -0.3070    1.0916 C   0  0  0  0  0  0  0  0  0  0  0  0
    3.9282   -0.0658    0.8703 C   0  0  0  0  0  0  0  0  0  0  0  0
    4.8024    0.0033    1.9427 C   0  0  0  0  0  0  0  0  0  0  0  0
    6.1597    0.2304    1.7203 C   0  0  0  0  0  0  0  0  0  0  0  0
    6.6714    0.3908    0.4567 C   0  0  0  0  0  0  0  0  0  0  0  0
    5.8146    0.3238   -0.6054 C   0  0  0  0  0  0  0  0  0  0  0  0
    4.4705    0.0997   -0.3980 C   0  0  0  0  0  0  0  0  0  0  0  0
    8.1310    0.6297    0.3022 C   0  0  0  0  0  0  0  0  0  0  0  0
    1.1859   -0.7798   -1.6729 N   0  0  0  0  0  0  0  0  0  0  0  0
    0.5147   -0.0095   -2.5477 C   0  0  0  0  0  0  0  0  0  0  0  0
    1.1858    0.6136   -3.6435 N   0  0  0  0  0  0  0  0  0  0  0  0
   -7.3476    2.1344    2.3531 H   0  0  0  0  0  0  0  0  0  0  0  0
   -6.8177    1.7622    0.2552 H   0  0  0  0  0  0  0  0  0  0  0  0
   -5.2490    2.0824    1.0768 H   0  0  0  0  0  0  0  0  0  0  0  0
   -6.5713   -0.6108    0.5388 H   0  0  0  0  0  0  0  0  0  0  0  0
   -3.8412   -1.6899   -0.5239 H   0  0  0  0  0  0  0  0  0  0  0  0
   -3.0635    0.6960    1.2418 H   0  0  0  0  0  0  0  0  0  0  0  0
   -4.8333   -0.0174    2.6628 H   0  0  0  0  0  0  0  0  0  0  0  0
   -5.4444   -2.2794    1.0369 H   0  0  0  0  0  0  0  0  0  0  0  0
   -2.7221   -1.4944    2.5188 H   0  0  0  0  0  0  0  0  0  0  0  0
   -3.9134    1.0590   -2.6428 H   0  0  0  0  0  0  0  0  0  0  0  0
    1.8492    0.2257    0.3797 H   0  0  0  0  0  0  0  0  0  0  0  0
    2.2586    0.1141    2.1152 H   0  0  0  0  0  0  0  0  0  0  0  0
    4.4251   -0.1199    2.9522 H   0  0  0  0  0  0  0  0  0  0  0  0
    6.7723    0.2693    2.6218 H   0  0  0  0  0  0  0  0  0  0  0  0
    6.1832    0.4458   -1.6169 H   0  0  0  0  0  0  0  0  0  0  0  0
    3.8311    0.0548   -1.2715 H   0  0  0  0  0  0  0  0  0  0  0  0
    8.4421    1.2683    1.1639 H   0  0  0  0  0  0  0  0  0  0  0  0
    8.6672   -0.3474    0.3887 H   0  0  0  0  0  0  0  0  0  0  0  0
    8.3659    1.1242   -0.6427 H   0  0  0  0  0  0  0  0  0  0  0  0
    1.2158    1.6531   -3.7124 H   0  0  0  0  0  0  0  0  0  0  0  0
    1.6572    0.0800   -4.3939 H   0  0  0  0  0  0  0  0  0  0  0  0
  1  2  1  0
  2  3  1  0
  3  4  1  0
  4  5  1  0
  5  6  1  0
  6  7  1  0
  7  8  1  0
  6  9  1  0
  5 10  1  0
 10 11  1  0
 11 12  2  0
 12 13  1  0
 13 14  2  0
 14 15  1  0
 15 16  2  0
 16 17  1  0
 17 18  2  3
 18 19  1  0
 19 20  1  0
 20 21  2  0
 21 22  1  0
 22 23  2  0
 23 24  1  0
 24 25  2  0
 23 26  1  0
 16 27  1  0
 27 28  2  0
 28 29  1  0
  7  3  1  0
 14 10  1  0
 25 20  1  0
 28 13  1  0
  1 30  1  0
  2 31  1  0
  2 32  1  0
  3 33  1  6
  5 34  1  0
  6 35  1  6
  7 36  1  1
  8 37  1  0
  9 38  1  0
 11 39  1  0
 19 40  1  0
 19 41  1  0
 21 42  1  0
 22 43  1  0
 24 44  1  0
 25 45  1  0
 26 46  1  0
 26 47  1  0
 26 48  1  0
 29 49  1  0
 29 50  1  0
M  END
>  <Ligand ID>  (1) 
LIG0003815

>  <Ligand>  (1) 
BDBM50368489

>  <SMILES>  (1) 
OC[C@H]1OC([C@@H]([C@@H]1O)O)n1cnc2c1nc(N=NCc1ccc(cc1)C)nc2N

>  <CID>  (1) 
91930310.0

>  <ChEMBL ID>  (1) 
nan

>  <InChiKey>  (1) 
JSGBJNXFPYZKPU-IKYDMHQPSA-N

>  <InChi>  (1) 
InChI=1S/C18H21N7O4/c1-9-2-4-10(5-3-9)6-21-24-18-22-15(19)12-16(23-18)25(8-20-12)17-14(28)13(27)11(7-26)29-17/h2-5,8,11,13-14,17,26-28H,6-7H2,1H3,(H2,19,22,23)/t11-,13-,14-,17?/m1/s1

>  <IUPAC Name>  (1) 
(3R,4S,5R)-2-[6-amino-2-[(4-methylphenyl)methyldiazenyl]purin-9-yl]-5-(hydroxymethyl)oxolane-3,4-diol

$$$$
