
     RDKit          3D

 95 99  0  0  0  0  0  0  0  0999 V2000
   -0.6907    5.4460   -3.7398 N   0  0  0  0  0  0  0  0  0  0  0  0
    0.2978    6.0312   -2.8695 C   0  0  0  0  0  0  0  0  0  0  0  0
    0.7478    5.2513   -1.9475 N   0  0  0  0  0  0  0  0  0  0  0  0
    1.7311    5.6217   -0.9750 C   0  0  0  0  0  0  0  0  0  0  0  0
    2.1144    4.3993   -0.1618 C   0  0  0  0  0  0  0  0  0  0  0  0
    2.6681    3.3945   -1.1295 C   0  0  0  0  0  0  0  0  0  0  0  0
    3.1007    2.1165   -0.5300 C   0  0  1  0  0  0  0  0  0  0  0  0
    4.1964    2.2659    0.4983 C   0  0  0  0  0  0  0  0  0  0  0  0
    4.2342    0.8127    1.0250 C   0  0  2  0  0  0  0  0  0  0  0  0
    2.7377    0.6552    1.3063 C   0  0  0  0  0  0  0  0  0  0  0  0
    2.1067    1.3534    0.1683 N   0  0  0  0  0  0  0  0  0  0  0  0
    0.7421    1.2672   -0.1761 C   0  0  0  0  0  0  0  0  0  0  0  0
    0.2778    1.8881   -1.2008 O   0  0  0  0  0  0  0  0  0  0  0  0
   -0.2735    0.4809    0.5705 C   0  0  2  0  0  0  0  0  0  0  0  0
   -1.5443    0.4928   -0.1910 N   0  0  0  0  0  0  0  0  0  0  0  0
   -2.2050   -0.7332   -0.3793 C   0  0  0  0  0  0  0  0  0  0  0  0
   -1.6795   -1.7852    0.1168 O   0  0  0  0  0  0  0  0  0  0  0  0
   -3.4781   -0.9042   -1.1155 C   0  0  2  0  0  0  0  0  0  0  0  0
   -4.6213   -0.1128   -0.5715 C   0  0  0  0  0  0  0  0  0  0  0  0
   -5.8189   -0.4005   -1.4251 C   0  0  0  0  0  0  0  0  0  0  0  0
   -6.6701   -1.4333   -1.1202 C   0  0  0  0  0  0  0  0  0  0  0  0
   -7.7674   -1.6659   -1.9390 C   0  0  0  0  0  0  0  0  0  0  0  0
   -8.0106   -0.8892   -3.0338 C   0  0  0  0  0  0  0  0  0  0  0  0
   -7.1699    0.1590   -3.3658 C   0  0  0  0  0  0  0  0  0  0  0  0
   -6.0906    0.3706   -2.5415 C   0  0  0  0  0  0  0  0  0  0  0  0
   -3.8116   -2.3167   -1.0222 N   0  0  0  0  0  0  0  0  0  0  0  0
   -3.9211   -3.1743   -2.1384 C   0  0  0  0  0  0  0  0  0  0  0  0
   -3.7310   -2.7508   -3.3042 O   0  0  0  0  0  0  0  0  0  0  0  0
   -4.2750   -4.6075   -1.8513 C   0  0  0  0  0  0  0  0  0  0  0  0
   -0.6421    1.1644    1.8753 C   0  0  0  0  0  0  0  0  0  0  0  0
   -1.6509    0.3974    2.6391 C   0  0  0  0  0  0  0  0  0  0  0  0
   -3.0205    0.5803    2.4835 C   0  0  0  0  0  0  0  0  0  0  0  0
   -3.9306   -0.1668    3.2292 C   0  0  0  0  0  0  0  0  0  0  0  0
   -3.4320   -1.0908    4.1239 C   0  0  0  0  0  0  0  0  0  0  0  0
   -2.0810   -1.3094    4.3145 C   0  0  0  0  0  0  0  0  0  0  0  0
   -1.2223   -0.5421    3.5499 C   0  0  0  0  0  0  0  0  0  0  0  0
    5.0152    0.6613    2.1251 O   0  0  0  0  0  0  0  0  0  0  0  0
    6.0326   -0.2492    2.0249 C   0  0  0  0  0  0  0  0  0  0  0  0
    5.6521   -1.6331    1.7403 C   0  0  0  0  0  0  0  0  0  0  0  0
    5.3164   -2.4692    2.7900 C   0  0  0  0  0  0  0  0  0  0  0  0
    4.9581   -3.8049    2.5735 C   0  0  0  0  0  0  0  0  0  0  0  0
    4.9230   -4.3448    1.3206 C   0  0  0  0  0  0  0  0  0  0  0  0
    5.2570   -3.5177    0.2631 C   0  0  0  0  0  0  0  0  0  0  0  0
    5.6139   -2.1911    0.4682 C   0  0  0  0  0  0  0  0  0  0  0  0
    5.2319   -4.0353   -1.0331 C   0  0  0  0  0  0  0  0  0  0  0  0
    4.8864   -5.3416   -1.2980 C   0  0  0  0  0  0  0  0  0  0  0  0
    4.5561   -6.1507   -0.2210 C   0  0  0  0  0  0  0  0  0  0  0  0
    4.5759   -5.6513    1.0751 C   0  0  0  0  0  0  0  0  0  0  0  0
    0.7472    7.3606   -3.0087 N   0  0  0  0  0  0  0  0  0  0  0  0
   -1.6222    5.9107   -3.8087 H   0  0  0  0  0  0  0  0  0  0  0  0
   -0.4487    4.5710   -4.2788 H   0  0  0  0  0  0  0  0  0  0  0  0
    2.6582    5.9282   -1.5217 H   0  0  0  0  0  0  0  0  0  0  0  0
    1.3361    6.3998   -0.2994 H   0  0  0  0  0  0  0  0  0  0  0  0
    1.1841    4.0108    0.3002 H   0  0  0  0  0  0  0  0  0  0  0  0
    2.7928    4.6588    0.6490 H   0  0  0  0  0  0  0  0  0  0  0  0
    1.9701    3.2128   -1.9523 H   0  0  0  0  0  0  0  0  0  0  0  0
    3.5799    3.8338   -1.6283 H   0  0  0  0  0  0  0  0  0  0  0  0
    3.5234    1.4843   -1.3329 H   0  0  0  0  0  0  0  0  0  0  0  0
    3.8787    2.8681    1.3932 H   0  0  0  0  0  0  0  0  0  0  0  0
    5.1591    2.5887    0.1065 H   0  0  0  0  0  0  0  0  0  0  0  0
    4.4855    0.1873    0.1521 H   0  0  0  0  0  0  0  0  0  0  0  0
    2.4514   -0.4049    1.2942 H   0  0  0  0  0  0  0  0  0  0  0  0
    2.5187    1.1047    2.2697 H   0  0  0  0  0  0  0  0  0  0  0  0
   -0.0044   -0.5380    0.8115 H   0  0  0  0  0  0  0  0  0  0  0  0
   -1.9485    1.3508   -0.5779 H   0  0  0  0  0  0  0  0  0  0  0  0
   -3.3456   -0.6310   -2.2032 H   0  0  0  0  0  0  0  0  0  0  0  0
   -4.4263    0.9900   -0.5767 H   0  0  0  0  0  0  0  0  0  0  0  0
   -4.8646   -0.4922    0.4447 H   0  0  0  0  0  0  0  0  0  0  0  0
   -6.4662   -2.0371   -0.2550 H   0  0  0  0  0  0  0  0  0  0  0  0
   -8.4339   -2.4813   -1.6931 H   0  0  0  0  0  0  0  0  0  0  0  0
   -8.8675   -1.0493   -3.6989 H   0  0  0  0  0  0  0  0  0  0  0  0
   -7.3870    0.7624   -4.2456 H   0  0  0  0  0  0  0  0  0  0  0  0
   -5.4153    1.1838   -2.7776 H   0  0  0  0  0  0  0  0  0  0  0  0
   -3.9745   -2.6829   -0.0428 H   0  0  0  0  0  0  0  0  0  0  0  0
   -3.9230   -5.2813   -2.6695 H   0  0  0  0  0  0  0  0  0  0  0  0
   -5.3908   -4.7060   -1.7956 H   0  0  0  0  0  0  0  0  0  0  0  0
   -3.8711   -4.9593   -0.8989 H   0  0  0  0  0  0  0  0  0  0  0  0
   -1.1625    2.1169    1.5720 H   0  0  0  0  0  0  0  0  0  0  0  0
    0.2326    1.4284    2.4576 H   0  0  0  0  0  0  0  0  0  0  0  0
   -3.3635    1.3307    1.7571 H   0  0  0  0  0  0  0  0  0  0  0  0
   -4.9883   -0.0193    3.1028 H   0  0  0  0  0  0  0  0  0  0  0  0
   -4.1017   -1.6984    4.7296 H   0  0  0  0  0  0  0  0  0  0  0  0
   -1.7399   -2.0494    5.0317 H   0  0  0  0  0  0  0  0  0  0  0  0
   -0.1531   -0.6963    3.6829 H   0  0  0  0  0  0  0  0  0  0  0  0
    6.5800   -0.2422    3.0173 H   0  0  0  0  0  0  0  0  0  0  0  0
    6.7992    0.0790    1.2586 H   0  0  0  0  0  0  0  0  0  0  0  0
    5.3277   -2.0912    3.8121 H   0  0  0  0  0  0  0  0  0  0  0  0
    4.7136   -4.3835    3.4347 H   0  0  0  0  0  0  0  0  0  0  0  0
    5.8692   -1.6140   -0.4067 H   0  0  0  0  0  0  0  0  0  0  0  0
    5.4865   -3.4215   -1.8881 H   0  0  0  0  0  0  0  0  0  0  0  0
    4.8772   -5.7163   -2.3276 H   0  0  0  0  0  0  0  0  0  0  0  0
    4.2835   -7.1813   -0.4278 H   0  0  0  0  0  0  0  0  0  0  0  0
    4.3208   -6.2784    1.9123 H   0  0  0  0  0  0  0  0  0  0  0  0
    0.4635    8.1551   -2.3890 H   0  0  0  0  0  0  0  0  0  0  0  0
    1.4240    7.6004   -3.7922 H   0  0  0  0  0  0  0  0  0  0  0  0
  1  2  1  0
  2  3  2  3
  3  4  1  0
  4  5  1  0
  5  6  1  0
  6  7  1  0
  7  8  1  0
  8  9  1  0
  9 10  1  0
 10 11  1  0
 11 12  1  0
 12 13  2  0
 12 14  1  0
 14 15  1  0
 15 16  1  0
 16 17  2  0
 16 18  1  0
 18 19  1  0
 19 20  1  0
 20 21  2  0
 21 22  1  0
 22 23  2  0
 23 24  1  0
 24 25  2  0
 18 26  1  0
 26 27  1  0
 27 28  2  0
 27 29  1  0
 14 30  1  0
 30 31  1  0
 31 32  2  0
 32 33  1  0
 33 34  2  0
 34 35  1  0
 35 36  2  0
  9 37  1  0
 37 38  1  0
 38 39  1  0
 39 40  2  0
 40 41  1  0
 41 42  2  0
 42 43  1  0
 43 44  2  0
 43 45  1  0
 45 46  2  0
 46 47  1  0
 47 48  2  0
  2 49  1  0
 11  7  1  0
 25 20  1  0
 36 31  1  0
 44 39  1  0
 48 42  1  0
  1 50  1  0
  1 51  1  0
  4 52  1  0
  4 53  1  0
  5 54  1  0
  5 55  1  0
  6 56  1  0
  6 57  1  0
  7 58  1  6
  8 59  1  0
  8 60  1  0
  9 61  1  6
 10 62  1  0
 10 63  1  0
 14 64  1  1
 15 65  1  0
 18 66  1  6
 19 67  1  0
 19 68  1  0
 21 69  1  0
 22 70  1  0
 23 71  1  0
 24 72  1  0
 25 73  1  0
 26 74  1  0
 29 75  1  0
 29 76  1  0
 29 77  1  0
 30 78  1  0
 30 79  1  0
 32 80  1  0
 33 81  1  0
 34 82  1  0
 35 83  1  0
 36 84  1  0
 38 85  1  0
 38 86  1  0
 40 87  1  0
 41 88  1  0
 44 89  1  0
 45 90  1  0
 46 91  1  0
 47 92  1  0
 48 93  1  0
 49 94  1  0
 49 95  1  0
M  END
>  <Ligand ID>  (1) 
LIG0003290

>  <Ligand>  (1) 
CHEMBL378446

>  <SMILES>  (1) 
NC(=NCCC[C@H]1C[C@H](CN1C(=O)[C@H](NC(=O)[C@H](Cc1ccccc1)NC(=O)C)Cc1ccccc1)OCc1ccc2c(c1)cccc2)N

>  <CID>  (1) 
44413938.0

>  <ChEMBL ID>  (1) 
nan

>  <InChiKey>  (1) 
JMAZWXVWUNQOOV-IHUVGRGJSA-N

>  <InChi>  (1) 
InChI=1S/C39H46N6O4/c1-27(46)43-35(22-28-11-4-2-5-12-28)37(47)44-36(23-29-13-6-3-7-14-29)38(48)45-25-34(24-33(45)17-10-20-42-39(40)41)49-26-30-18-19-31-15-8-9-16-32(31)21-30/h2-9,11-16,18-19,21,33-36H,10,17,20,22-26H2,1H3,(H,43,46)(H,44,47)(H4,40,41,42)/t33-,34+,35-,36+/m0/s1

>  <IUPAC Name>  (1) 
(2S)-2-acetamido-N-[(2R)-1-[(2S,4R)-2-[3-(diaminomethylideneamino)propyl]-4-(naphthalen-2-ylmethoxy)pyrrolidin-1-yl]-1-oxo-3-phenylpropan-2-yl]-3-phenylpropanamide

$$$$
