
     RDKit          3D

 68 70  0  0  0  0  0  0  0  0999 V2000
   -6.0293   -3.3628   -1.5230 C   0  0  0  0  0  0  0  0  0  0  0  0
   -5.3340   -2.6556   -0.3650 C   0  0  0  0  0  0  0  0  0  0  0  0
   -5.3592   -1.2828   -0.4864 O   0  0  0  0  0  0  0  0  0  0  0  0
   -4.3167   -0.4009   -0.5470 C   0  0  0  0  0  0  0  0  0  0  0  0
   -3.0144   -0.8607   -0.4836 C   0  0  0  0  0  0  0  0  0  0  0  0
   -1.9199    0.0093   -0.5426 C   0  0  0  0  0  0  0  0  0  0  0  0
   -2.1904    1.3312   -0.6653 C   0  0  0  0  0  0  0  0  0  0  0  0
   -3.4799    1.7846   -0.7279 C   0  0  0  0  0  0  0  0  0  0  0  0
   -4.5890    0.9353   -0.6709 C   0  0  0  0  0  0  0  0  0  0  0  0
   -5.8848    1.5566   -0.7462 C   0  0  0  0  0  0  0  0  0  0  0  0
   -5.9669    2.8298   -0.8636 O   0  0  0  0  0  0  0  0  0  0  0  0
   -7.1344    0.8917   -0.7037 N   0  0  0  0  0  0  0  0  0  0  0  0
   -8.6470    1.7469   -0.8043 S   0  0  0  0  0  0  0  0  0  0  0  0
   -9.3222    1.2420   -2.0465 O   0  0  0  0  0  0  0  0  0  0  0  0
   -9.5290    1.4175    0.3654 O   0  0  0  0  0  0  0  0  0  0  0  0
   -8.4020    3.4819   -0.9690 C   0  0  0  0  0  0  0  0  0  0  0  0
   -0.5497   -0.4622   -0.4759 C   0  0  0  0  0  0  0  0  0  0  0  0
   -0.2561   -1.5827    0.2660 C   0  0  0  0  0  0  0  0  0  0  0  0
    1.0528   -2.0160    0.3181 C   0  0  0  0  0  0  0  0  0  0  0  0
    2.0822   -1.3605   -0.3517 C   0  0  0  0  0  0  0  0  0  0  0  0
    1.7852   -0.2390   -1.0939 C   0  0  0  0  0  0  0  0  0  0  0  0
    0.4779    0.1723   -1.1306 C   0  0  0  0  0  0  0  0  0  0  0  0
    3.4355   -1.9317   -0.2093 C   0  0  0  0  0  0  0  0  0  0  0  0
    4.2003   -1.3582    0.9775 C   0  0  0  0  0  0  0  0  0  0  0  0
    4.3894    0.0460    0.8867 N   0  0  0  0  0  0  0  0  0  0  0  0
    5.2673    0.4936   -0.1368 C   0  0  0  0  0  0  0  0  0  0  0  0
    6.7194    0.1476    0.0478 C   0  0  1  0  0  0  0  0  0  0  0  0
    7.3223    0.8377    1.2154 C   0  0  0  0  0  0  0  0  0  0  0  0
    7.3346    0.3071    2.4880 C   0  0  0  0  0  0  0  0  0  0  0  0
    7.8993    0.9766    3.5275 N   0  0  0  0  0  0  0  0  0  0  0  0
    8.4757    2.1893    3.3740 C   0  0  0  0  0  0  0  0  0  0  0  0
    8.4829    2.7524    2.1161 C   0  0  0  0  0  0  0  0  0  0  0  0
    7.9088    2.0813    1.0377 C   0  0  0  0  0  0  0  0  0  0  0  0
    7.9173    2.6596   -0.2496 N   0  0  0  0  0  0  0  0  0  0  0  0
    7.0063   -1.1865    0.1232 O   0  0  0  0  0  0  0  0  0  0  0  0
   -6.1330   -3.0523    0.8742 C   0  0  0  0  0  0  0  0  0  0  0  0
   -5.3618   -3.4893   -2.4009 H   0  0  0  0  0  0  0  0  0  0  0  0
   -6.2897   -4.3723   -1.1469 H   0  0  0  0  0  0  0  0  0  0  0  0
   -6.9804   -2.8537   -1.7666 H   0  0  0  0  0  0  0  0  0  0  0  0
   -4.3301   -3.0871   -0.3099 H   0  0  0  0  0  0  0  0  0  0  0  0
   -2.7483   -1.9042   -0.3857 H   0  0  0  0  0  0  0  0  0  0  0  0
   -1.3689    2.0290   -0.7135 H   0  0  0  0  0  0  0  0  0  0  0  0
   -3.6045    2.8669   -0.8266 H   0  0  0  0  0  0  0  0  0  0  0  0
   -7.1957   -0.1313   -0.6107 H   0  0  0  0  0  0  0  0  0  0  0  0
   -7.8811    3.9492   -0.1298 H   0  0  0  0  0  0  0  0  0  0  0  0
   -7.8835    3.6571   -1.9531 H   0  0  0  0  0  0  0  0  0  0  0  0
   -9.3958    3.9527   -1.0729 H   0  0  0  0  0  0  0  0  0  0  0  0
   -1.0719   -2.0746    0.7772 H   0  0  0  0  0  0  0  0  0  0  0  0
    1.2472   -2.9024    0.9124 H   0  0  0  0  0  0  0  0  0  0  0  0
    2.5745    0.2765   -1.6176 H   0  0  0  0  0  0  0  0  0  0  0  0
    0.2611    1.0591   -1.7208 H   0  0  0  0  0  0  0  0  0  0  0  0
    4.0402   -1.6856   -1.1311 H   0  0  0  0  0  0  0  0  0  0  0  0
    3.4414   -3.0395   -0.1755 H   0  0  0  0  0  0  0  0  0  0  0  0
    5.0786   -1.9718    1.1788 H   0  0  0  0  0  0  0  0  0  0  0  0
    3.5211   -1.5246    1.8656 H   0  0  0  0  0  0  0  0  0  0  0  0
    4.4289    0.5522    1.7831 H   0  0  0  0  0  0  0  0  0  0  0  0
    5.2191    1.6136   -0.1335 H   0  0  0  0  0  0  0  0  0  0  0  0
    4.9072    0.1769   -1.1220 H   0  0  0  0  0  0  0  0  0  0  0  0
    7.2381    0.5362   -0.8757 H   0  0  0  0  0  0  0  0  0  0  0  0
    6.8780   -0.6769    2.6636 H   0  0  0  0  0  0  0  0  0  0  0  0
    8.9295    2.7350    4.1913 H   0  0  0  0  0  0  0  0  0  0  0  0
    8.9470    3.7378    1.9723 H   0  0  0  0  0  0  0  0  0  0  0  0
    7.1027    2.9423   -0.8002 H   0  0  0  0  0  0  0  0  0  0  0  0
    8.8679    2.8149   -0.6868 H   0  0  0  0  0  0  0  0  0  0  0  0
    6.7470   -1.7477   -0.6230 H   0  0  0  0  0  0  0  0  0  0  0  0
   -6.9639   -2.3731    1.0722 H   0  0  0  0  0  0  0  0  0  0  0  0
   -6.5826   -4.0719    0.7317 H   0  0  0  0  0  0  0  0  0  0  0  0
   -5.4703   -3.1319    1.7576 H   0  0  0  0  0  0  0  0  0  0  0  0
  1  2  1  0
  2  3  1  0
  3  4  1  0
  4  5  2  0
  5  6  1  0
  6  7  2  0
  7  8  1  0
  8  9  2  0
  9 10  1  0
 10 11  2  0
 10 12  1  0
 12 13  1  0
 13 14  2  0
 13 15  2  0
 13 16  1  0
  6 17  1  0
 17 18  2  0
 18 19  1  0
 19 20  2  0
 20 21  1  0
 21 22  2  0
 20 23  1  0
 23 24  1  0
 24 25  1  0
 25 26  1  0
 26 27  1  0
 27 28  1  0
 28 29  2  0
 29 30  1  0
 30 31  2  0
 31 32  1  0
 32 33  2  0
 33 34  1  0
 27 35  1  0
  2 36  1  0
  9  4  1  0
 22 17  1  0
 33 28  1  0
  1 37  1  0
  1 38  1  0
  1 39  1  0
  2 40  1  0
  5 41  1  0
  7 42  1  0
  8 43  1  0
 12 44  1  0
 16 45  1  0
 16 46  1  0
 16 47  1  0
 18 48  1  0
 19 49  1  0
 21 50  1  0
 22 51  1  0
 23 52  1  0
 23 53  1  0
 24 54  1  0
 24 55  1  0
 25 56  1  0
 26 57  1  0
 26 58  1  0
 27 59  1  6
 29 60  1  0
 31 61  1  0
 32 62  1  0
 34 63  1  0
 34 64  1  0
 35 65  1  0
 36 66  1  0
 36 67  1  0
 36 68  1  0
M  END
>  <Ligand ID>  (1) 
LIG0003494

>  <Ligand>  (1) 
CHEMBL491726

>  <SMILES>  (1) 
CC(Oc1cc(ccc1C(=O)NS(=O)(=O)C)c1ccc(cc1)CCNC[C@@H](c1cnccc1N)O)C

>  <CID>  (1) 
44565908.0

>  <ChEMBL ID>  (1) 
nan

>  <InChiKey>  (1) 
ZOEWKLNYTOCOCA-DEOSSOPVSA-N

>  <InChi>  (1) 
InChI=1S/C26H32N4O5S/c1-17(2)35-25-14-20(8-9-21(25)26(32)30-36(3,33)34)19-6-4-18(5-7-19)10-12-29-16-24(31)22-15-28-13-11-23(22)27/h4-9,11,13-15,17,24,29,31H,10,12,16H2,1-3H3,(H2,27,28)(H,30,32)/t24-/m0/s1

>  <IUPAC Name>  (1) 
4-[4-[2-[[(2R)-2-(4-aminopyridin-3-yl)-2-hydroxyethyl]amino]ethyl]phenyl]-N-methylsulfonyl-2-propan-2-yloxybenzamide

$$$$
