
     RDKit          3D

 60 61  0  0  0  0  0  0  0  0999 V2000
    7.6257   -1.5269    1.6292 C   0  0  0  0  0  0  0  0  0  0  0  0
    7.4128   -0.1019    1.1874 C   0  0  0  0  0  0  0  0  0  0  0  0
    6.2790   -0.0759    0.1508 C   0  0  0  0  0  0  0  0  0  0  0  0
    5.0378   -0.6075    0.7471 C   0  0  0  0  0  0  0  0  0  0  0  0
    5.0382   -0.9683    1.9585 O   0  0  0  0  0  0  0  0  0  0  0  0
    3.8292   -0.7165   -0.0444 C   0  0  0  0  0  0  0  0  0  0  0  0
    2.6695   -1.2390    0.5377 C   0  0  0  0  0  0  0  0  0  0  0  0
    1.5095   -1.3620   -0.1999 C   0  0  0  0  0  0  0  0  0  0  0  0
    1.4714   -0.9727   -1.5205 C   0  0  0  0  0  0  0  0  0  0  0  0
    2.6455   -0.4473   -2.0961 C   0  0  0  0  0  0  0  0  0  0  0  0
    3.8090   -0.3214   -1.3662 C   0  0  0  0  0  0  0  0  0  0  0  0
    4.9217    0.2026   -1.9995 O   0  0  0  0  0  0  0  0  0  0  0  0
    2.6503   -0.0116   -3.5152 C   0  0  0  0  0  0  0  0  0  0  0  0
    0.3923   -1.0516   -2.3264 O   0  0  0  0  0  0  0  0  0  0  0  0
   -0.8950   -1.4676   -2.2147 C   0  0  0  0  0  0  0  0  0  0  0  0
   -1.7984   -0.8017   -1.2336 C   0  0  0  0  0  0  0  0  0  0  0  0
   -3.1635   -1.4944   -1.3648 C   0  0  0  0  0  0  0  0  0  0  0  0
   -4.1203   -0.8957   -0.4016 C   0  0  0  0  0  0  0  0  0  0  0  0
   -4.3607    0.4707   -0.5533 O   0  0  0  0  0  0  0  0  0  0  0  0
   -5.2778    1.0416    0.3446 C   0  0  0  0  0  0  0  0  0  0  0  0
   -5.9047    0.2615    1.3233 C   0  0  0  0  0  0  0  0  0  0  0  0
   -6.8085    0.7847    2.2187 C   0  0  0  0  0  0  0  0  0  0  0  0
   -7.0978    2.1231    2.1375 C   0  0  0  0  0  0  0  0  0  0  0  0
   -6.5113    2.9610    1.1879 C   0  0  0  0  0  0  0  0  0  0  0  0
   -5.6048    2.3764    0.3088 C   0  0  0  0  0  0  0  0  0  0  0  0
   -4.9496    3.2326   -0.7247 C   0  0  0  0  0  0  0  0  0  0  0  0
   -7.4185   -0.0896    3.2130 C   0  0  0  0  0  0  0  0  0  0  0  0
   -7.0978   -1.3137    3.2230 O   0  0  0  0  0  0  0  0  0  0  0  0
   -8.3342    0.3623    4.1476 O   0  0  0  0  0  0  0  0  0  0  0  0
    7.1770    0.8277    2.3288 C   0  0  0  0  0  0  0  0  0  0  0  0
    8.6021   -1.9414    1.3093 H   0  0  0  0  0  0  0  0  0  0  0  0
    6.8541   -2.2163    1.2086 H   0  0  0  0  0  0  0  0  0  0  0  0
    7.5629   -1.5922    2.7490 H   0  0  0  0  0  0  0  0  0  0  0  0
    8.3407    0.2386    0.6524 H   0  0  0  0  0  0  0  0  0  0  0  0
    6.6150   -0.7586   -0.6548 H   0  0  0  0  0  0  0  0  0  0  0  0
    6.1254    0.9719   -0.1785 H   0  0  0  0  0  0  0  0  0  0  0  0
    2.7427   -1.5331    1.5856 H   0  0  0  0  0  0  0  0  0  0  0  0
    0.6518   -1.7683    0.2815 H   0  0  0  0  0  0  0  0  0  0  0  0
    4.9135    1.0567   -2.5389 H   0  0  0  0  0  0  0  0  0  0  0  0
    3.6975   -0.0059   -3.8957 H   0  0  0  0  0  0  0  0  0  0  0  0
    2.2925    1.0454   -3.6246 H   0  0  0  0  0  0  0  0  0  0  0  0
    2.0978   -0.7322   -4.1060 H   0  0  0  0  0  0  0  0  0  0  0  0
   -0.8596   -2.5578   -1.8830 H   0  0  0  0  0  0  0  0  0  0  0  0
   -1.4544   -1.5261   -3.1780 H   0  0  0  0  0  0  0  0  0  0  0  0
   -1.5008   -0.9715   -0.1914 H   0  0  0  0  0  0  0  0  0  0  0  0
   -1.9566    0.2618   -1.4888 H   0  0  0  0  0  0  0  0  0  0  0  0
   -3.0043   -2.5693   -1.2496 H   0  0  0  0  0  0  0  0  0  0  0  0
   -3.5595   -1.3090   -2.3974 H   0  0  0  0  0  0  0  0  0  0  0  0
   -5.0940   -1.4200   -0.5452 H   0  0  0  0  0  0  0  0  0  0  0  0
   -3.7864   -1.1507    0.6428 H   0  0  0  0  0  0  0  0  0  0  0  0
   -5.6609   -0.7946    1.3670 H   0  0  0  0  0  0  0  0  0  0  0  0
   -7.8143    2.5864    2.8264 H   0  0  0  0  0  0  0  0  0  0  0  0
   -6.7540    4.0173    1.1396 H   0  0  0  0  0  0  0  0  0  0  0  0
   -4.9503    4.2597   -0.3543 H   0  0  0  0  0  0  0  0  0  0  0  0
   -3.9133    2.8656   -0.8782 H   0  0  0  0  0  0  0  0  0  0  0  0
   -5.5802    3.1683   -1.6252 H   0  0  0  0  0  0  0  0  0  0  0  0
   -9.1786   -0.2028    4.3221 H   0  0  0  0  0  0  0  0  0  0  0  0
    7.4934    0.4101    3.3156 H   0  0  0  0  0  0  0  0  0  0  0  0
    6.1341    1.2391    2.3786 H   0  0  0  0  0  0  0  0  0  0  0  0
    7.8177    1.7499    2.2170 H   0  0  0  0  0  0  0  0  0  0  0  0
  1  2  1  0
  2  3  1  0
  3  4  1  0
  4  5  2  0
  4  6  1  0
  6  7  2  0
  7  8  1  0
  8  9  2  0
  9 10  1  0
 10 11  2  0
 11 12  1  0
 10 13  1  0
  9 14  1  0
 14 15  1  0
 15 16  1  0
 16 17  1  0
 17 18  1  0
 18 19  1  0
 19 20  1  0
 20 21  2  0
 21 22  1  0
 22 23  2  0
 23 24  1  0
 24 25  2  0
 25 26  1  0
 22 27  1  0
 27 28  2  0
 27 29  1  0
  2 30  1  0
 11  6  1  0
 25 20  1  0
  1 31  1  0
  1 32  1  0
  1 33  1  0
  2 34  1  0
  3 35  1  0
  3 36  1  0
  7 37  1  0
  8 38  1  0
 12 39  1  0
 13 40  1  0
 13 41  1  0
 13 42  1  0
 15 43  1  0
 15 44  1  0
 16 45  1  0
 16 46  1  0
 17 47  1  0
 17 48  1  0
 18 49  1  0
 18 50  1  0
 21 51  1  0
 23 52  1  0
 24 53  1  0
 26 54  1  0
 26 55  1  0
 26 56  1  0
 29 57  1  0
 30 58  1  0
 30 59  1  0
 30 60  1  0
M  END
>  <Ligand ID>  (1) 
LIG0003610

>  <Ligand>  (1) 
CHEMBL3287689

>  <SMILES>  (1) 
CC(CC(=O)c1ccc(c(c1O)C)OCCCCOc1cc(ccc1C)C(=O)O)C

>  <CID>  (1) 
90643867.0

>  <ChEMBL ID>  (1) 
nan

>  <InChiKey>  (1) 
IXQOSACEYQVKSU-UHFFFAOYSA-N

>  <InChi>  (1) 
InChI=1S/C24H30O6/c1-15(2)13-20(25)19-9-10-21(17(4)23(19)26)29-11-5-6-12-30-22-14-18(24(27)28)8-7-16(22)3/h7-10,14-15,26H,5-6,11-13H2,1-4H3,(H,27,28)

>  <IUPAC Name>  (1) 
3-[4-[3-hydroxy-2-methyl-4-(3-methylbutanoyl)phenoxy]butoxy]-4-methylbenzoic acid

$$$$
