
     RDKit          3D

 79 79  0  0  0  0  0  0  0  0999 V2000
   -0.9741   -0.1182   -0.0579 C   0  0  0  0  0  0  0  0  0  0  0  0
    0.4135    0.3783    0.0933 C   0  0  0  0  0  0  0  0  0  0  0  0
    0.7072    1.5819    0.1091 O   0  0  0  0  0  0  0  0  0  0  0  0
    1.4309   -0.5558    0.2232 O   0  0  0  0  0  0  0  0  0  0  0  0
   -7.7050    3.5499    2.0670 O   0  0  0  0  0  0  0  0  0  0  0  0
   -7.0355    2.3831    2.4681 C   0  0  0  0  0  0  0  0  0  0  0  0
   -7.1804    1.3138    1.4436 C   0  0  0  0  0  0  0  0  0  0  0  0
   -6.1219    0.9939    0.5874 C   0  0  0  0  0  0  0  0  0  0  0  0
   -6.2416    0.0228   -0.3534 C   0  0  0  0  0  0  0  0  0  0  0  0
   -7.4789   -0.6370   -0.4172 C   0  0  0  0  0  0  0  0  0  0  0  0
   -8.5202   -0.3226    0.4249 C   0  0  0  0  0  0  0  0  0  0  0  0
   -8.3940    0.6681    1.3827 C   0  0  0  0  0  0  0  0  0  0  0  0
   -9.4355    0.9920    2.2350 O   0  0  0  0  0  0  0  0  0  0  0  0
   -5.2228   -0.4235   -1.3123 C   0  0  2  0  0  0  0  0  0  0  0  0
   -4.1291    0.6452   -1.4513 C   0  0  0  0  0  0  0  0  0  0  0  0
   -3.1677    0.2914   -2.4139 N   0  0  0  0  0  0  0  0  0  0  0  0
   -2.2999   -0.7698   -2.2928 C   0  0  0  0  0  0  0  0  0  0  0  0
   -1.1871   -0.6814   -1.3261 C   0  0  0  0  0  0  0  0  0  0  0  0
   -1.4721   -0.5061    0.1159 C   0  0  0  0  0  0  0  0  0  0  0  0
   -0.1784   -0.4848    0.9123 C   0  0  0  0  0  0  0  0  0  0  0  0
    0.5967   -1.7553    0.7853 C   0  0  0  0  0  0  0  0  0  0  0  0
    1.8302   -1.5755    1.6949 C   0  0  0  0  0  0  0  0  0  0  0  0
    2.6365   -2.6111    1.7207 O   0  0  0  0  0  0  0  0  0  0  0  0
    3.2987   -3.2490    0.7982 C   0  0  0  0  0  0  0  0  0  0  0  0
    4.4094   -2.7465   -0.0314 C   0  0  0  0  0  0  0  0  0  0  0  0
    4.3703   -1.7331   -0.8601 O   0  0  0  0  0  0  0  0  0  0  0  0
    4.2198   -0.4395   -0.6212 C   0  0  0  0  0  0  0  0  0  0  0  0
    5.2750    0.1706    0.2435 C   0  0  0  0  0  0  0  0  0  0  0  0
    5.2038    0.2226    1.6111 C   0  0  0  0  0  0  0  0  0  0  0  0
    6.2170    0.8052    2.3356 C   0  0  0  0  0  0  0  0  0  0  0  0
    7.3182    1.3463    1.7152 C   0  0  0  0  0  0  0  0  0  0  0  0
    7.4265    1.3127    0.3352 C   0  0  0  0  0  0  0  0  0  0  0  0
    6.4057    0.7284   -0.3550 C   0  0  0  0  0  0  0  0  0  0  0  0
    8.5864    1.8894   -0.2267 N   0  0  0  0  0  0  0  0  0  0  0  0
    8.9101    1.9395   -1.5981 C   0  0  0  0  0  0  0  0  0  0  0  0
    8.1923    1.4666   -2.5051 O   0  0  0  0  0  0  0  0  0  0  0  0
   10.1359    2.5645   -2.0394 N   0  0  0  0  0  0  0  0  0  0  0  0
   -5.7889   -0.5188   -2.6119 O   0  0  0  0  0  0  0  0  0  0  0  0
   -1.2071   -0.6824    0.8932 H   0  0  0  0  0  0  0  0  0  0  0  0
   -1.0305   -0.8809   -0.8779 H   0  0  0  0  0  0  0  0  0  0  0  0
   -1.7040    0.6730   -0.2482 H   0  0  0  0  0  0  0  0  0  0  0  0
    2.3641   -0.3959   -0.1347 H   0  0  0  0  0  0  0  0  0  0  0  0
   -8.3951    3.2750    1.4269 H   0  0  0  0  0  0  0  0  0  0  0  0
   -5.9550    2.6984    2.5621 H   0  0  0  0  0  0  0  0  0  0  0  0
   -7.3139    2.0457    3.4790 H   0  0  0  0  0  0  0  0  0  0  0  0
   -5.2281    1.5609    0.7261 H   0  0  0  0  0  0  0  0  0  0  0  0
   -7.6404   -1.4344   -1.1581 H   0  0  0  0  0  0  0  0  0  0  0  0
   -9.4789   -0.8580    0.3517 H   0  0  0  0  0  0  0  0  0  0  0  0
  -10.4033    1.0134    1.8788 H   0  0  0  0  0  0  0  0  0  0  0  0
   -4.8091   -1.3951   -0.9775 H   0  0  0  0  0  0  0  0  0  0  0  0
   -4.7251    1.5190   -1.9261 H   0  0  0  0  0  0  0  0  0  0  0  0
   -3.8213    1.0590   -0.5052 H   0  0  0  0  0  0  0  0  0  0  0  0
   -3.4021    0.6142   -3.3817 H   0  0  0  0  0  0  0  0  0  0  0  0
   -2.8294   -1.7649   -2.0812 H   0  0  0  0  0  0  0  0  0  0  0  0
   -1.7962   -0.9949   -3.3002 H   0  0  0  0  0  0  0  0  0  0  0  0
   -0.4763    0.1524   -1.6437 H   0  0  0  0  0  0  0  0  0  0  0  0
   -0.5294   -1.6141   -1.3964 H   0  0  0  0  0  0  0  0  0  0  0  0
   -2.0688   -1.3481    0.5418 H   0  0  0  0  0  0  0  0  0  0  0  0
   -1.9555    0.4589    0.3986 H   0  0  0  0  0  0  0  0  0  0  0  0
   -0.4781   -0.3427    1.9900 H   0  0  0  0  0  0  0  0  0  0  0  0
    0.4288    0.4125    0.6749 H   0  0  0  0  0  0  0  0  0  0  0  0
    0.0017   -2.6232    1.0616 H   0  0  0  0  0  0  0  0  0  0  0  0
    0.9810   -1.8329   -0.2701 H   0  0  0  0  0  0  0  0  0  0  0  0
    1.3114   -1.5472    2.7398 H   0  0  0  0  0  0  0  0  0  0  0  0
    2.1586   -0.5535    1.5832 H   0  0  0  0  0  0  0  0  0  0  0  0
    2.5712   -3.8608    0.1001 H   0  0  0  0  0  0  0  0  0  0  0  0
    3.7663   -4.1828    1.3299 H   0  0  0  0  0  0  0  0  0  0  0  0
    4.7104   -3.6727   -0.6737 H   0  0  0  0  0  0  0  0  0  0  0  0
    5.3828   -2.7165    0.6237 H   0  0  0  0  0  0  0  0  0  0  0  0
    4.3272    0.0762   -1.6651 H   0  0  0  0  0  0  0  0  0  0  0  0
    3.1986   -0.1513   -0.3572 H   0  0  0  0  0  0  0  0  0  0  0  0
    4.3765   -0.1836    2.1630 H   0  0  0  0  0  0  0  0  0  0  0  0
    6.1632    0.8470    3.4064 H   0  0  0  0  0  0  0  0  0  0  0  0
    8.0838    1.7917    2.3374 H   0  0  0  0  0  0  0  0  0  0  0  0
    6.4326    0.6735   -1.4260 H   0  0  0  0  0  0  0  0  0  0  0  0
    9.3049    2.3392    0.4204 H   0  0  0  0  0  0  0  0  0  0  0  0
   10.9961    1.9836   -2.2372 H   0  0  0  0  0  0  0  0  0  0  0  0
   10.2093    3.5966   -2.1749 H   0  0  0  0  0  0  0  0  0  0  0  0
   -6.5716    0.1077   -2.5948 H   0  0  0  0  0  0  0  0  0  0  0  0
  1  2  1  0
  2  3  2  0
  2  4  1  0
  5  6  1  0
  6  7  1  0
  7  8  2  0
  8  9  1  0
  9 10  2  0
 10 11  1  0
 11 12  2  0
 12 13  1  0
  9 14  1  0
 14 15  1  0
 15 16  1  0
 16 17  1  0
 17 18  1  0
 18 19  1  0
 19 20  1  0
 20 21  1  0
 21 22  1  0
 22 23  1  0
 23 24  1  0
 24 25  1  0
 25 26  1  0
 26 27  1  0
 27 28  1  0
 28 29  2  0
 29 30  1  0
 30 31  2  0
 31 32  1  0
 32 33  2  0
 32 34  1  0
 34 35  1  0
 35 36  2  0
 35 37  1  0
 14 38  1  0
 12  7  1  0
 33 28  1  0
  1 39  1  0
  1 40  1  0
  1 41  1  0
  4 42  1  0
  5 43  1  0
  6 44  1  0
  6 45  1  0
  8 46  1  0
 10 47  1  0
 11 48  1  0
 13 49  1  0
 14 50  1  1
 15 51  1  0
 15 52  1  0
 16 53  1  0
 17 54  1  0
 17 55  1  0
 18 56  1  0
 18 57  1  0
 19 58  1  0
 19 59  1  0
 20 60  1  0
 20 61  1  0
 21 62  1  0
 21 63  1  0
 22 64  1  0
 22 65  1  0
 24 66  1  0
 24 67  1  0
 25 68  1  0
 25 69  1  0
 27 70  1  0
 27 71  1  0
 29 72  1  0
 30 73  1  0
 31 74  1  0
 33 75  1  0
 34 76  1  0
 37 77  1  0
 37 78  1  0
 38 79  1  0
M  END
>  <Ligand ID>  (1) 
LIG0003339

>  <Ligand>  (1) 
CHEMBL1085638

>  <SMILES>  (1) 
CC(=O)O.OCc1cc(ccc1O)[C@H](CNCCCCCCOCCOCc1cccc(c1)NC(=O)N)O

>  <CID>  (1) 
46832506.0

>  <ChEMBL ID>  (1) 
nan

>  <InChiKey>  (1) 
QVUFRLYDTHLHTI-JIDHJSLPSA-N

>  <InChi>  (1) 
InChI=1S/C25H37N3O6.C2H4O2/c26-25(32)28-22-7-5-6-19(14-22)18-34-13-12-33-11-4-2-1-3-10-27-16-24(31)20-8-9-23(30)21(15-20)17-29;1-2(3)4/h5-9,14-15,24,27,29-31H,1-4,10-13,16-18H2,(H3,26,28,32);1H3,(H,3,4)/t24-;/m0./s1

>  <IUPAC Name>  (1) 
acetic acid;[3-[2-[6-[[(2R)-2-hydroxy-2-[4-hydroxy-3-(hydroxymethyl)phenyl]ethyl]amino]hexoxy]ethoxymethyl]phenyl]urea

$$$$
