
     RDKit          3D

 54 56  0  0  0  0  0  0  0  0999 V2000
    3.8811   -1.2602   -0.0264 O   0  0  0  0  0  0  0  0  0  0  0  0
    3.0294   -0.2077   -0.3242 C   0  0  0  0  0  0  0  0  0  0  0  0
    2.3734    0.2668    0.9435 C   0  0  0  0  0  0  0  0  0  0  0  0
    3.4868    0.7055    1.8498 C   0  0  0  0  0  0  0  0  0  0  0  0
    3.9231    2.0118    1.8113 C   0  0  0  0  0  0  0  0  0  0  0  0
    4.9486    2.4834    2.6227 C   0  0  0  0  0  0  0  0  0  0  0  0
    5.5557    1.5921    3.5093 C   0  0  0  0  0  0  0  0  0  0  0  0
    5.1176    0.2883    3.5453 C   0  0  0  0  0  0  0  0  0  0  0  0
    4.0927   -0.1784    2.7327 C   0  0  0  0  0  0  0  0  0  0  0  0
    6.5634    2.0015    4.3254 F   0  0  0  0  0  0  0  0  0  0  0  0
    2.0929   -0.5217   -1.4055 C   0  0  0  0  0  0  0  0  0  0  0  0
    1.0030   -1.2622   -1.1377 C   0  0  0  0  0  0  0  0  0  0  0  0
    0.0956   -1.5486   -2.2584 C   0  0  1  0  0  0  0  0  0  0  0  0
   -0.2225   -3.0487   -2.3216 C   0  0  0  0  0  0  0  0  0  0  0  0
   -1.3126   -3.0569   -3.3713 C   0  0  0  0  0  0  0  0  0  0  0  0
   -2.1590   -1.8952   -2.9099 C   0  0  0  0  0  0  0  0  0  0  0  0
   -3.3172   -1.7866   -3.2515 O   0  0  0  0  0  0  0  0  0  0  0  0
   -1.3202   -1.0158   -2.0330 C   0  0  2  0  0  0  0  0  0  0  0  0
   -1.4168    0.4158   -2.4651 C   0  0  0  0  0  0  0  0  0  0  0  0
   -2.7620    1.0285   -2.2715 C   0  0  0  0  0  0  0  0  0  0  0  0
   -3.2060    1.0389   -0.8641 C   0  0  0  0  0  0  0  0  0  0  0  0
   -3.9284    0.0307   -0.2670 C   0  0  0  0  0  0  0  0  0  0  0  0
   -4.3338    0.0563    1.0478 C   0  0  0  0  0  0  0  0  0  0  0  0
   -4.0019    1.1406    1.8019 C   0  0  0  0  0  0  0  0  0  0  0  0
   -3.2800    2.1886    1.2726 C   0  0  0  0  0  0  0  0  0  0  0  0
   -2.8843    2.1329   -0.0615 C   0  0  0  0  0  0  0  0  0  0  0  0
   -4.4269    1.1759    3.1943 C   0  0  0  0  0  0  0  0  0  0  0  0
   -5.0913    0.1877    3.6423 O   0  0  0  0  0  0  0  0  0  0  0  0
   -4.1461    2.2263    4.0531 O   0  0  0  0  0  0  0  0  0  0  0  0
    4.3008   -1.5956   -0.8711 H   0  0  0  0  0  0  0  0  0  0  0  0
    3.6777    0.6476   -0.6635 H   0  0  0  0  0  0  0  0  0  0  0  0
    1.7616    1.1718    0.7502 H   0  0  0  0  0  0  0  0  0  0  0  0
    1.8365   -0.5232    1.5003 H   0  0  0  0  0  0  0  0  0  0  0  0
    3.4874    2.7451    1.1425 H   0  0  0  0  0  0  0  0  0  0  0  0
    5.2644    3.5157    2.5647 H   0  0  0  0  0  0  0  0  0  0  0  0
    5.5743   -0.4074    4.2210 H   0  0  0  0  0  0  0  0  0  0  0  0
    3.7510   -1.2060    2.7645 H   0  0  0  0  0  0  0  0  0  0  0  0
    2.2642   -0.1637   -2.4305 H   0  0  0  0  0  0  0  0  0  0  0  0
    0.7751   -1.6428   -0.1631 H   0  0  0  0  0  0  0  0  0  0  0  0
    0.4421   -1.1958   -3.2285 H   0  0  0  0  0  0  0  0  0  0  0  0
   -0.6576   -3.3719   -1.3598 H   0  0  0  0  0  0  0  0  0  0  0  0
    0.6629   -3.6324   -2.6352 H   0  0  0  0  0  0  0  0  0  0  0  0
   -1.8971   -3.9977   -3.3586 H   0  0  0  0  0  0  0  0  0  0  0  0
   -0.8640   -2.8543   -4.3665 H   0  0  0  0  0  0  0  0  0  0  0  0
   -1.5917   -1.0992   -0.9632 H   0  0  0  0  0  0  0  0  0  0  0  0
   -1.2273    0.4337   -3.5793 H   0  0  0  0  0  0  0  0  0  0  0  0
   -0.5896    1.0312   -2.0521 H   0  0  0  0  0  0  0  0  0  0  0  0
   -3.4977    0.4931   -2.8941 H   0  0  0  0  0  0  0  0  0  0  0  0
   -2.7117    2.0788   -2.6569 H   0  0  0  0  0  0  0  0  0  0  0  0
   -4.2043   -0.8392   -0.8443 H   0  0  0  0  0  0  0  0  0  0  0  0
   -4.9001   -0.7687    1.4583 H   0  0  0  0  0  0  0  0  0  0  0  0
   -3.0157    3.0600    1.8863 H   0  0  0  0  0  0  0  0  0  0  0  0
   -2.3116    2.9471   -0.5102 H   0  0  0  0  0  0  0  0  0  0  0  0
   -4.6840    2.3827    4.9055 H   0  0  0  0  0  0  0  0  0  0  0  0
  1  2  1  0
  2  3  1  0
  3  4  1  0
  4  5  2  0
  5  6  1  0
  6  7  2  0
  7  8  1  0
  8  9  2  0
  7 10  1  0
  2 11  1  0
 11 12  2  0
 12 13  1  0
 13 14  1  0
 14 15  1  0
 15 16  1  0
 16 17  2  0
 16 18  1  0
 18 19  1  0
 19 20  1  0
 20 21  1  0
 21 22  2  0
 22 23  1  0
 23 24  2  0
 24 25  1  0
 25 26  2  0
 24 27  1  0
 27 28  2  0
 27 29  1  0
  9  4  1  0
 18 13  1  0
 26 21  1  0
  1 30  1  0
  2 31  1  0
  3 32  1  0
  3 33  1  0
  5 34  1  0
  6 35  1  0
  8 36  1  0
  9 37  1  0
 11 38  1  0
 12 39  1  0
 13 40  1  6
 14 41  1  0
 14 42  1  0
 15 43  1  0
 15 44  1  0
 18 45  1  1
 19 46  1  0
 19 47  1  0
 20 48  1  0
 20 49  1  0
 22 50  1  0
 23 51  1  0
 25 52  1  0
 26 53  1  0
 29 54  1  0
M  END
>  <Ligand ID>  (1) 
LIG0001317

>  <Ligand>  (1) 
CHEMBL3892492

>  <SMILES>  (1) 
OC(Cc1ccc(cc1)F)/C=C/[C@H]1CCC(=O)[C@@H]1CCc1ccc(cc1)C(=O)O

>  <CID>  (1) 
118517485.0

>  <ChEMBL ID>  (1) 
nan

>  <InChiKey>  (1) 
TZVFTSQQDVXJEF-HPILLFOASA-N

>  <InChi>  (1) 
InChI=1S/C24H25FO4/c25-20-10-3-17(4-11-20)15-21(26)12-8-18-9-14-23(27)22(18)13-5-16-1-6-19(7-2-16)24(28)29/h1-4,6-8,10-12,18,21-22,26H,5,9,13-15H2,(H,28,29)/b12-8+/t18-,21?,22+/m0/s1

>  <IUPAC Name>  (1) 
4-[2-[(1R,2R)-2-[(E)-4-(4-fluorophenyl)-3-hydroxybut-1-enyl]-5-oxocyclopentyl]ethyl]benzoic acid

$$$$
