
     RDKit          3D

 32 32  0  0  0  0  0  0  0  0999 V2000
    5.2917   -1.0687    2.7631 Cl  0  0  0  0  0  0  0  0  0  0  0  0
    4.1711   -0.5352    1.5225 C   0  0  0  0  0  0  0  0  0  0  0  0
    3.9844   -1.3559    0.4253 C   0  0  0  0  0  0  0  0  0  0  0  0
    3.1066   -0.9263   -0.5368 C   0  0  0  0  0  0  0  0  0  0  0  0
    2.4215    0.2842   -0.4312 C   0  0  0  0  0  0  0  0  0  0  0  0
    2.6368    1.0718    0.6788 C   0  0  0  0  0  0  0  0  0  0  0  0
    3.5122    0.6347    1.6298 N   0  0  0  0  0  0  0  0  0  0  0  0
    1.4942    0.6580   -1.5314 C   0  0  0  0  0  0  0  0  0  0  0  0
    0.1503    0.1487   -1.2823 N   0  0  0  0  0  0  0  0  0  0  0  0
   -0.4037    0.6722   -0.0615 C   0  0  0  0  0  0  0  0  0  0  0  0
   -1.7899    0.1671    0.2050 C   0  0  0  0  0  0  0  0  0  0  0  0
   -2.0379   -0.8159    1.1538 C   0  0  0  0  0  0  0  0  0  0  0  0
   -3.3417   -1.2329    1.3455 C   0  0  0  0  0  0  0  0  0  0  0  0
   -3.6829   -2.4718    2.5353 Cl  0  0  0  0  0  0  0  0  0  0  0  0
   -4.3937   -0.6843    0.6067 C   0  0  0  0  0  0  0  0  0  0  0  0
   -4.1487    0.2967   -0.3405 C   0  0  0  0  0  0  0  0  0  0  0  0
   -2.8339    0.7248   -0.5415 C   0  0  0  0  0  0  0  0  0  0  0  0
   -2.5858    1.7078   -1.4902 O   0  0  0  0  0  0  0  0  0  0  0  0
    0.6874    0.0000    0.0000 Cl  0  0  0  0  0  0  0  0  0  0  0  0
    4.5268   -2.2912    0.3644 H   0  0  0  0  0  0  0  0  0  0  0  0
    2.9553   -1.5624   -1.3987 H   0  0  0  0  0  0  0  0  0  0  0  0
    2.1133    2.0130    0.7751 H   0  0  0  0  0  0  0  0  0  0  0  0
    1.8935    0.2658   -2.4888 H   0  0  0  0  0  0  0  0  0  0  0  0
    1.4630    1.7633   -1.6506 H   0  0  0  0  0  0  0  0  0  0  0  0
    0.2543   -0.8799   -1.1858 H   0  0  0  0  0  0  0  0  0  0  0  0
    0.2497    0.5024    0.8314 H   0  0  0  0  0  0  0  0  0  0  0  0
   -0.4409    1.7905   -0.1803 H   0  0  0  0  0  0  0  0  0  0  0  0
   -1.2015   -1.2161    1.7054 H   0  0  0  0  0  0  0  0  0  0  0  0
   -5.4191   -1.0318    0.7772 H   0  0  0  0  0  0  0  0  0  0  0  0
   -4.9678    0.7305   -0.9223 H   0  0  0  0  0  0  0  0  0  0  0  0
   -2.9774    2.6410   -1.4192 H   0  0  0  0  0  0  0  0  0  0  0  0
   -0.6874    0.0000    0.0000 H   0  0  0  0  0  0  0  0  0  0  0  0
  1  2  1  0
  2  3  2  0
  3  4  1  0
  4  5  2  0
  5  6  1  0
  6  7  2  0
  5  8  1  0
  8  9  1  0
  9 10  1  0
 10 11  1  0
 11 12  2  0
 12 13  1  0
 13 14  1  0
 13 15  2  0
 15 16  1  0
 16 17  2  0
 17 18  1  0
  7  2  1  0
 17 11  1  0
  3 20  1  0
  4 21  1  0
  6 22  1  0
  8 23  1  0
  8 24  1  0
  9 25  1  0
 10 26  1  0
 10 27  1  0
 12 28  1  0
 15 29  1  0
 16 30  1  0
 18 31  1  0
 19 32  1  0
M  END
>  <Ligand ID>  (1) 
LIG0005791

>  <Ligand>  (1) 
MLS002207456

>  <SMILES>  (1) 
Clc1ccc(cn1)CNCc1cc(Cl)ccc1O.Cl

>  <CID>  (1) 
56603520.0

>  <ChEMBL ID>  (1) 
nan

>  <InChiKey>  (1) 
QLXNEBSAIZDLKR-UHFFFAOYSA-N

>  <InChi>  (1) 
InChI=1S/C13H12Cl2N2O.ClH/c14-11-2-3-12(18)10(5-11)8-16-6-9-1-4-13(15)17-7-9;/h1-5,7,16,18H,6,8H2;1H

>  <IUPAC Name>  (1) 
4-chloro-2-[[(6-chloropyridin-3-yl)methylamino]methyl]phenol;hydrochloride

$$$$
