
     RDKit          3D

 46 48  0  0  0  0  0  0  0  0999 V2000
    1.9457   -4.1799    0.3608 C   0  0  0  0  0  0  0  0  0  0  0  0
    2.0045   -2.7590    0.5118 O   0  0  0  0  0  0  0  0  0  0  0  0
    0.9032   -2.0018    0.1517 C   0  0  0  0  0  0  0  0  0  0  0  0
   -0.2594   -2.5571   -0.3507 C   0  0  0  0  0  0  0  0  0  0  0  0
   -1.3391   -1.7529   -0.6982 C   0  0  0  0  0  0  0  0  0  0  0  0
   -1.2944   -0.3695   -0.5561 C   0  0  0  0  0  0  0  0  0  0  0  0
   -0.1261    0.1607   -0.0538 C   0  0  0  0  0  0  0  0  0  0  0  0
    0.9576   -0.6522    0.2944 C   0  0  0  0  0  0  0  0  0  0  0  0
    2.1059    0.0500    0.8043 N   0  0  0  0  0  0  0  0  0  0  0  0
    3.1205    0.5015   -0.0829 C   0  0  0  0  0  0  0  0  0  0  0  0
    2.9743    0.2669   -1.2969 O   0  0  0  0  0  0  0  0  0  0  0  0
    4.3070    1.2154    0.3515 C   0  0  0  0  0  0  0  0  0  0  0  0
    5.2129    1.5951   -0.6155 C   0  0  0  0  0  0  0  0  0  0  0  0
    6.3739    2.2832   -0.2734 C   0  0  0  0  0  0  0  0  0  0  0  0
    6.6346    2.5973    1.0561 C   0  0  0  0  0  0  0  0  0  0  0  0
    5.7206    2.2117    2.0122 C   0  0  0  0  0  0  0  0  0  0  0  0
    4.5740    1.5309    1.6645 C   0  0  0  0  0  0  0  0  0  0  0  0
    8.0961    3.4662    1.5096 Cl  0  0  0  0  0  0  0  0  0  0  0  0
   -2.6509    0.6463   -0.9923 S   0  0  0  0  0  0  0  0  0  0  0  0
   -2.0416    1.9880   -1.3776 O   0  0  0  0  0  0  0  0  0  0  0  0
   -3.3344    0.0586   -2.1944 O   0  0  0  0  0  0  0  0  0  0  0  0
   -3.6881    0.8548    0.3508 N   0  0  0  0  0  0  0  0  0  0  0  0
   -4.2282   -0.4010    0.7889 C   0  0  0  0  0  0  0  0  0  0  0  0
   -5.4357   -0.8552    0.0304 C   0  0  0  0  0  0  0  0  0  0  0  0
   -5.7219   -0.1337   -1.1036 O   0  0  0  0  0  0  0  0  0  0  0  0
   -5.7596    1.2306   -0.9472 C   0  0  0  0  0  0  0  0  0  0  0  0
   -4.7815    1.7567    0.0782 C   0  0  0  0  0  0  0  0  0  0  0  0
    1.5487   -4.3814   -0.6520 H   0  0  0  0  0  0  0  0  0  0  0  0
    1.2832   -4.6011    1.1166 H   0  0  0  0  0  0  0  0  0  0  0  0
    2.9400   -4.6401    0.4716 H   0  0  0  0  0  0  0  0  0  0  0  0
   -0.3382   -3.6282   -0.4778 H   0  0  0  0  0  0  0  0  0  0  0  0
   -2.2305   -2.1916   -1.0844 H   0  0  0  0  0  0  0  0  0  0  0  0
   -0.0683    1.2429    0.0662 H   0  0  0  0  0  0  0  0  0  0  0  0
    2.1975    0.2302    1.8282 H   0  0  0  0  0  0  0  0  0  0  0  0
    5.0717    1.3818   -1.6750 H   0  0  0  0  0  0  0  0  0  0  0  0
    7.0999    2.5912   -1.0201 H   0  0  0  0  0  0  0  0  0  0  0  0
    5.9190    2.4531    3.0424 H   0  0  0  0  0  0  0  0  0  0  0  0
    3.8669    1.2361    2.4318 H   0  0  0  0  0  0  0  0  0  0  0  0
   -4.5426   -0.3269    1.8635 H   0  0  0  0  0  0  0  0  0  0  0  0
   -3.3845   -1.1341    0.7930 H   0  0  0  0  0  0  0  0  0  0  0  0
   -6.3429   -0.9877    0.6776 H   0  0  0  0  0  0  0  0  0  0  0  0
   -5.2016   -1.9009   -0.3273 H   0  0  0  0  0  0  0  0  0  0  0  0
   -6.8051    1.5948   -0.7275 H   0  0  0  0  0  0  0  0  0  0  0  0
   -5.4877    1.7013   -1.9275 H   0  0  0  0  0  0  0  0  0  0  0  0
   -4.4359    2.7739   -0.1955 H   0  0  0  0  0  0  0  0  0  0  0  0
   -5.3591    1.8354    1.0417 H   0  0  0  0  0  0  0  0  0  0  0  0
  1  2  1  0
  2  3  1  0
  3  4  2  0
  4  5  1  0
  5  6  2  0
  6  7  1  0
  7  8  2  0
  8  9  1  0
  9 10  1  0
 10 11  2  0
 10 12  1  0
 12 13  2  0
 13 14  1  0
 14 15  2  0
 15 16  1  0
 16 17  2  0
 15 18  1  0
  6 19  1  0
 19 20  2  0
 19 21  2  0
 19 22  1  0
 22 23  1  0
 23 24  1  0
 24 25  1  0
 25 26  1  0
 26 27  1  0
  8  3  1  0
 17 12  1  0
 27 22  1  0
  1 28  1  0
  1 29  1  0
  1 30  1  0
  4 31  1  0
  5 32  1  0
  7 33  1  0
  9 34  1  0
 13 35  1  0
 14 36  1  0
 16 37  1  0
 17 38  1  0
 23 39  1  0
 23 40  1  0
 24 41  1  0
 24 42  1  0
 26 43  1  0
 26 44  1  0
 27 45  1  0
 27 46  1  0
M  END
>  <Ligand ID>  (1) 
LIG0001996

>  <Ligand>  (1) 
MLS-0397235.0001

>  <SMILES>  (1) 
COc1ccc(cc1NC(=O)c1ccc(cc1)Cl)S(=O)(=O)N1CCOCC1

>  <CID>  (1) 
6484583.0

>  <ChEMBL ID>  (1) 
nan

>  <InChiKey>  (1) 
GEOWISNUVFADMB-UHFFFAOYSA-N

>  <InChi>  (1) 
InChI=1S/C18H19ClN2O5S/c1-25-17-7-6-15(27(23,24)21-8-10-26-11-9-21)12-16(17)20-18(22)13-2-4-14(19)5-3-13/h2-7,12H,8-11H2,1H3,(H,20,22)

>  <IUPAC Name>  (1) 
4-chloro-N-(2-methoxy-5-morpholin-4-ylsulfonylphenyl)benzamide

$$$$
