
     RDKit          3D

 81 85  0  0  0  0  0  0  0  0999 V2000
   -3.6689   -1.6300    4.0686 C   0  0  0  0  0  0  0  0  0  0  0  0
   -3.1049   -2.7232    3.3694 O   0  0  0  0  0  0  0  0  0  0  0  0
   -2.2163   -2.5510    2.3194 C   0  0  0  0  0  0  0  0  0  0  0  0
   -1.8340   -1.3189    1.8978 C   0  0  0  0  0  0  0  0  0  0  0  0
   -0.9322   -1.1049    0.8335 C   0  0  0  0  0  0  0  0  0  0  0  0
   -0.4579   -2.2451    0.2419 C   0  0  0  0  0  0  0  0  0  0  0  0
   -0.8504   -3.5116    0.6738 C   0  0  0  0  0  0  0  0  0  0  0  0
   -1.7275   -3.6873    1.7096 C   0  0  0  0  0  0  0  0  0  0  0  0
   -2.1376   -4.9324    2.1634 O   0  0  0  0  0  0  0  0  0  0  0  0
   -1.6446   -6.0937    1.5422 C   0  0  0  0  0  0  0  0  0  0  0  0
   -0.5717    0.2859    0.4425 C   0  0  0  0  0  0  0  0  0  0  0  0
    0.7927    0.5305    0.1220 N   0  0  0  0  0  0  0  0  0  0  0  0
    1.4438    0.1769   -1.0932 C   0  0  0  0  0  0  0  0  0  0  0  0
    0.8451   -0.2688   -2.1098 O   0  0  0  0  0  0  0  0  0  0  0  0
    2.9298    0.3170   -1.2425 C   0  0  0  0  0  0  0  0  0  0  0  0
    3.4183   -0.0977   -2.5579 C   0  0  0  0  0  0  0  0  0  0  0  0
    3.8335    0.6493   -3.6476 C   0  0  0  0  0  0  0  0  0  0  0  0
    4.2076   -0.1757   -4.6561 N   0  0  0  0  0  0  0  0  0  0  0  0
    4.0506   -1.4619   -4.2613 C   0  0  0  0  0  0  0  0  0  0  0  0
    3.5639   -1.4156   -2.9693 C   0  0  0  0  0  0  0  0  0  0  0  0
    3.3075   -2.6057   -2.3086 C   0  0  0  0  0  0  0  0  0  0  0  0
    3.5283   -3.8448   -2.9142 C   0  0  0  0  0  0  0  0  0  0  0  0
    4.0159   -3.8802   -4.2080 C   0  0  0  0  0  0  0  0  0  0  0  0
    4.2663   -2.6865   -4.8526 C   0  0  0  0  0  0  0  0  0  0  0  0
    1.6644    1.1582    1.1052 C   0  0  0  0  0  0  0  0  0  0  0  0
    2.3499    0.4496    2.0351 C   0  0  0  0  0  0  0  0  0  0  0  0
    3.1723    1.0658    2.9504 C   0  0  0  0  0  0  0  0  0  0  0  0
    3.3348    2.4481    2.9592 C   0  0  0  0  0  0  0  0  0  0  0  0
    2.6306    3.1425    2.0087 C   0  0  0  0  0  0  0  0  0  0  0  0
    1.7976    2.5276    1.0805 C   0  0  0  0  0  0  0  0  0  0  0  0
    4.1921    3.0065    3.9221 N   0  0  0  0  0  0  0  0  0  0  0  0
    4.4923    4.3646    4.0976 C   0  0  0  0  0  0  0  0  0  0  0  0
    4.0091    5.2677    3.3860 O   0  0  0  0  0  0  0  0  0  0  0  0
    5.4382    4.8113    5.1837 C   0  0  0  0  0  0  0  0  0  0  0  0
   -1.5298    0.9233   -0.4773 C   0  0  0  0  0  0  0  0  0  0  0  0
   -1.1116    1.6236   -1.4408 O   0  0  0  0  0  0  0  0  0  0  0  0
   -2.9361    0.7851   -0.3294 N   0  0  0  0  0  0  0  0  0  0  0  0
   -3.8225    1.4287   -1.2552 C   0  0  0  0  0  0  0  0  0  0  0  0
   -4.7862    2.3865   -0.6275 C   0  0  0  0  0  0  0  0  0  0  0  0
   -5.5612    3.0451   -1.7633 C   0  0  0  0  0  0  0  0  0  0  0  0
   -6.1621    2.0629   -2.7094 C   0  0  0  0  0  0  0  0  0  0  0  0
   -5.2356    0.9694   -3.1666 C   0  0  0  0  0  0  0  0  0  0  0  0
   -4.6407    0.3429   -1.9208 C   0  0  0  0  0  0  0  0  0  0  0  0
   -4.4148   -1.0888    3.4781 H   0  0  0  0  0  0  0  0  0  0  0  0
   -2.8368   -0.9367    4.3197 H   0  0  0  0  0  0  0  0  0  0  0  0
   -4.1791   -1.9707    4.9972 H   0  0  0  0  0  0  0  0  0  0  0  0
   -2.2583   -0.4579    2.4294 H   0  0  0  0  0  0  0  0  0  0  0  0
    0.2279   -2.2182   -0.5578 H   0  0  0  0  0  0  0  0  0  0  0  0
   -0.4549   -4.3911    0.1827 H   0  0  0  0  0  0  0  0  0  0  0  0
   -0.5528   -6.0448    1.3645 H   0  0  0  0  0  0  0  0  0  0  0  0
   -1.7876   -6.9498    2.2422 H   0  0  0  0  0  0  0  0  0  0  0  0
   -2.1267   -6.2839    0.5638 H   0  0  0  0  0  0  0  0  0  0  0  0
   -0.7112    0.8282    1.4546 H   0  0  0  0  0  0  0  0  0  0  0  0
    3.3777   -0.3270   -0.4284 H   0  0  0  0  0  0  0  0  0  0  0  0
    3.2358    1.3433   -1.0372 H   0  0  0  0  0  0  0  0  0  0  0  0
    3.8549    1.7258   -3.6806 H   0  0  0  0  0  0  0  0  0  0  0  0
    4.5661    0.0573   -5.6037 H   0  0  0  0  0  0  0  0  0  0  0  0
    2.9227   -2.5928   -1.2891 H   0  0  0  0  0  0  0  0  0  0  0  0
    3.3055   -4.7297   -2.3367 H   0  0  0  0  0  0  0  0  0  0  0  0
    4.1831   -4.8462   -4.6620 H   0  0  0  0  0  0  0  0  0  0  0  0
    4.6517   -2.6857   -5.8728 H   0  0  0  0  0  0  0  0  0  0  0  0
    2.2592   -0.6235    2.0709 H   0  0  0  0  0  0  0  0  0  0  0  0
    3.6899    0.4391    3.6660 H   0  0  0  0  0  0  0  0  0  0  0  0
    2.6974    4.2035    1.9463 H   0  0  0  0  0  0  0  0  0  0  0  0
    1.2499    3.0755    0.3399 H   0  0  0  0  0  0  0  0  0  0  0  0
    4.6754    2.3406    4.6010 H   0  0  0  0  0  0  0  0  0  0  0  0
    5.7844    5.8452    5.0206 H   0  0  0  0  0  0  0  0  0  0  0  0
    4.9875    4.6524    6.1702 H   0  0  0  0  0  0  0  0  0  0  0  0
    6.3561    4.1600    5.1392 H   0  0  0  0  0  0  0  0  0  0  0  0
   -3.3626    0.2221    0.4386 H   0  0  0  0  0  0  0  0  0  0  0  0
   -3.2492    1.9586   -2.0160 H   0  0  0  0  0  0  0  0  0  0  0  0
   -5.4931    1.8379    0.0343 H   0  0  0  0  0  0  0  0  0  0  0  0
   -4.2769    3.2337   -0.1191 H   0  0  0  0  0  0  0  0  0  0  0  0
   -6.3853    3.6246   -1.3136 H   0  0  0  0  0  0  0  0  0  0  0  0
   -4.8942    3.7398   -2.2709 H   0  0  0  0  0  0  0  0  0  0  0  0
   -7.0983    1.6048   -2.3651 H   0  0  0  0  0  0  0  0  0  0  0  0
   -6.4221    2.6419   -3.6426 H   0  0  0  0  0  0  0  0  0  0  0  0
   -4.4142    1.3244   -3.8080 H   0  0  0  0  0  0  0  0  0  0  0  0
   -5.8704    0.2064   -3.6829 H   0  0  0  0  0  0  0  0  0  0  0  0
   -4.0658   -0.5709   -2.1209 H   0  0  0  0  0  0  0  0  0  0  0  0
   -5.5235    0.1187   -1.2530 H   0  0  0  0  0  0  0  0  0  0  0  0
  1  2  1  0
  2  3  1  0
  3  4  2  0
  4  5  1  0
  5  6  2  0
  6  7  1  0
  7  8  2  0
  8  9  1  0
  9 10  1  0
  5 11  1  0
 11 12  1  0
 12 13  1  0
 13 14  2  0
 13 15  1  0
 15 16  1  0
 16 17  2  0
 17 18  1  0
 18 19  1  0
 19 20  2  0
 20 21  1  0
 21 22  2  0
 22 23  1  0
 23 24  2  0
 12 25  1  0
 25 26  2  0
 26 27  1  0
 27 28  2  0
 28 29  1  0
 29 30  2  0
 28 31  1  0
 31 32  1  0
 32 33  2  0
 32 34  1  0
 11 35  1  0
 35 36  2  0
 35 37  1  0
 37 38  1  0
 38 39  1  0
 39 40  1  0
 40 41  1  0
 41 42  1  0
 42 43  1  0
  8  3  1  0
 20 16  1  0
 30 25  1  0
 43 38  1  0
 24 19  1  0
  1 44  1  0
  1 45  1  0
  1 46  1  0
  4 47  1  0
  6 48  1  0
  7 49  1  0
 10 50  1  0
 10 51  1  0
 10 52  1  0
 11 53  1  0
 15 54  1  0
 15 55  1  0
 17 56  1  0
 18 57  1  0
 21 58  1  0
 22 59  1  0
 23 60  1  0
 24 61  1  0
 26 62  1  0
 27 63  1  0
 29 64  1  0
 30 65  1  0
 31 66  1  0
 34 67  1  0
 34 68  1  0
 34 69  1  0
 37 70  1  0
 38 71  1  0
 39 72  1  0
 39 73  1  0
 40 74  1  0
 40 75  1  0
 41 76  1  0
 41 77  1  0
 42 78  1  0
 42 79  1  0
 43 80  1  0
 43 81  1  0
M  END
>  <Ligand ID>  (1) 
LIG0003327

>  <Ligand>  (1) 
MLS000552833

>  <SMILES>  (1) 
COc1cc(ccc1OC)C(N(C(=O)Cc1c[nH]c2c1cccc2)c1ccc(cc1)NC(=O)C)C(=O)NC1CCCCC1

>  <CID>  (1) 
3190761.0

>  <ChEMBL ID>  (1) 
nan

>  <InChiKey>  (1) 
CLVMGLHYNADTTO-UHFFFAOYSA-N

>  <InChi>  (1) 
InChI=1S/C34H38N4O5/c1-22(39)36-26-14-16-27(17-15-26)38(32(40)20-24-21-35-29-12-8-7-11-28(24)29)33(34(41)37-25-9-5-4-6-10-25)23-13-18-30(42-2)31(19-23)43-3/h7-8,11-19,21,25,33,35H,4-6,9-10,20H2,1-3H3,(H,36,39)(H,37,41)

>  <IUPAC Name>  (1) 
2-(4-acetamido-N-[2-(1H-indol-3-yl)acetyl]anilino)-N-cyclohexyl-2-(3,4-dimethoxyphenyl)acetamide

$$$$
