
     RDKit          3D

 61 64  0  0  0  0  0  0  0  0999 V2000
   -8.3676    3.6206    0.2556 C   0  0  0  0  0  0  0  0  0  0  0  0
   -8.4222    2.2864    0.7156 O   0  0  0  0  0  0  0  0  0  0  0  0
   -7.4666    1.3528    0.3694 C   0  0  0  0  0  0  0  0  0  0  0  0
   -6.4100    1.6895   -0.4475 C   0  0  0  0  0  0  0  0  0  0  0  0
   -5.4299    0.7890   -0.8206 C   0  0  0  0  0  0  0  0  0  0  0  0
   -5.5504   -0.4960   -0.3322 C   0  0  0  0  0  0  0  0  0  0  0  0
   -6.6015   -0.8628    0.4906 C   0  0  0  0  0  0  0  0  0  0  0  0
   -7.5760    0.0668    0.8507 C   0  0  0  0  0  0  0  0  0  0  0  0
   -4.3843   -1.7429   -0.7207 S   0  0  0  0  0  0  0  0  0  0  0  0
   -5.0402   -3.0767   -0.7157 O   0  0  0  0  0  0  0  0  0  0  0  0
   -3.9156   -1.4652   -2.1142 O   0  0  0  0  0  0  0  0  0  0  0  0
   -3.1575   -1.7298    0.4406 N   0  0  0  0  0  0  0  0  0  0  0  0
   -2.3957   -0.5151    0.5340 C   0  0  0  0  0  0  0  0  0  0  0  0
   -1.4190   -0.3554   -0.6095 C   0  0  0  0  0  0  0  0  0  0  0  0
   -0.6165   -1.6056   -0.7606 C   0  0  0  0  0  0  0  0  0  0  0  0
   -0.8760   -2.5861    0.3883 C   0  0  0  0  0  0  0  0  0  0  0  0
   -2.3534   -2.9243    0.4837 C   0  0  0  0  0  0  0  0  0  0  0  0
    0.7886   -1.3990   -0.8907 N   0  0  0  0  0  0  0  0  0  0  0  0
    1.4388   -0.7465    0.1973 C   0  0  0  0  0  0  0  0  0  0  0  0
    2.9223   -0.6204   -0.1238 C   0  0  1  0  0  0  0  0  0  0  0  0
    3.5908   -0.0250    1.0810 C   0  0  0  0  0  0  0  0  0  0  0  0
    4.9481    0.1065    0.9096 O   0  0  0  0  0  0  0  0  0  0  0  0
    5.6921    0.8359    0.0462 C   0  0  0  0  0  0  0  0  0  0  0  0
    5.2619    1.6936   -0.9227 C   0  0  0  0  0  0  0  0  0  0  0  0
    6.1323    2.3991   -1.7601 C   0  0  0  0  0  0  0  0  0  0  0  0
    7.4781    2.2256   -1.6047 C   0  0  0  0  0  0  0  0  0  0  0  0
    7.9609    1.3720   -0.6412 C   0  0  0  0  0  0  0  0  0  0  0  0
    7.0906    0.7010    0.1562 C   0  0  0  0  0  0  0  0  0  0  0  0
    7.8625   -0.0472    0.9894 N   0  0  0  0  0  0  0  0  0  0  0  0
    9.1593    0.1613    0.7088 C   0  0  0  0  0  0  0  0  0  0  0  0
   10.1698   -0.3463    1.2585 O   0  0  0  0  0  0  0  0  0  0  0  0
    9.2332    1.0470   -0.3094 N   0  0  0  0  0  0  0  0  0  0  0  0
    3.4959   -1.8803   -0.3139 O   0  0  0  0  0  0  0  0  0  0  0  0
   -9.1880    4.1665    0.7378 H   0  0  0  0  0  0  0  0  0  0  0  0
   -7.3618    4.0496    0.4588 H   0  0  0  0  0  0  0  0  0  0  0  0
   -8.5807    3.6052   -0.8384 H   0  0  0  0  0  0  0  0  0  0  0  0
   -6.2959    2.6979   -0.8439 H   0  0  0  0  0  0  0  0  0  0  0  0
   -4.6027    1.0505   -1.4594 H   0  0  0  0  0  0  0  0  0  0  0  0
   -6.6924   -1.8862    0.8763 H   0  0  0  0  0  0  0  0  0  0  0  0
   -8.4115   -0.2059    1.4988 H   0  0  0  0  0  0  0  0  0  0  0  0
   -1.7944   -0.5702    1.4680 H   0  0  0  0  0  0  0  0  0  0  0  0
   -3.0934    0.3170    0.6443 H   0  0  0  0  0  0  0  0  0  0  0  0
   -0.8277    0.5602   -0.4154 H   0  0  0  0  0  0  0  0  0  0  0  0
   -2.0328   -0.1194   -1.5077 H   0  0  0  0  0  0  0  0  0  0  0  0
   -0.9226   -2.1840   -1.6736 H   0  0  0  0  0  0  0  0  0  0  0  0
   -0.4892   -2.2001    1.3563 H   0  0  0  0  0  0  0  0  0  0  0  0
   -0.3473   -3.5264    0.0958 H   0  0  0  0  0  0  0  0  0  0  0  0
   -2.5023   -3.3698    1.4938 H   0  0  0  0  0  0  0  0  0  0  0  0
   -2.6595   -3.6900   -0.2295 H   0  0  0  0  0  0  0  0  0  0  0  0
    1.2323   -2.2712   -1.2066 H   0  0  0  0  0  0  0  0  0  0  0  0
    1.0707    0.2978    0.2646 H   0  0  0  0  0  0  0  0  0  0  0  0
    1.2746   -1.1909    1.1914 H   0  0  0  0  0  0  0  0  0  0  0  0
    3.0433   -0.0818   -1.0618 H   0  0  0  0  0  0  0  0  0  0  0  0
    3.1121    0.9717    1.3461 H   0  0  0  0  0  0  0  0  0  0  0  0
    3.3662   -0.6377    2.0073 H   0  0  0  0  0  0  0  0  0  0  0  0
    4.2239    1.8766   -1.0752 H   0  0  0  0  0  0  0  0  0  0  0  0
    5.7565    3.0677   -2.5149 H   0  0  0  0  0  0  0  0  0  0  0  0
    8.1875    2.7477   -2.2266 H   0  0  0  0  0  0  0  0  0  0  0  0
    7.5406   -0.6860    1.7323 H   0  0  0  0  0  0  0  0  0  0  0  0
   10.1312    1.3919   -0.7336 H   0  0  0  0  0  0  0  0  0  0  0  0
    3.6203   -2.1030   -1.2585 H   0  0  0  0  0  0  0  0  0  0  0  0
  1  2  1  0
  2  3  1  0
  3  4  2  0
  4  5  1  0
  5  6  2  0
  6  7  1  0
  7  8  2  0
  6  9  1  0
  9 10  2  0
  9 11  2  0
  9 12  1  0
 12 13  1  0
 13 14  1  0
 14 15  1  0
 15 16  1  0
 16 17  1  0
 15 18  1  0
 18 19  1  0
 19 20  1  0
 20 21  1  0
 21 22  1  0
 22 23  1  0
 23 24  2  0
 24 25  1  0
 25 26  2  0
 26 27  1  0
 27 28  2  0
 28 29  1  0
 29 30  1  0
 30 31  2  0
 30 32  1  0
 20 33  1  0
  8  3  1  0
 17 12  1  0
 28 23  1  0
 32 27  1  0
  1 34  1  0
  1 35  1  0
  1 36  1  0
  4 37  1  0
  5 38  1  0
  7 39  1  0
  8 40  1  0
 13 41  1  0
 13 42  1  0
 14 43  1  0
 14 44  1  0
 15 45  1  0
 16 46  1  0
 16 47  1  0
 17 48  1  0
 17 49  1  0
 18 50  1  0
 19 51  1  0
 19 52  1  0
 20 53  1  6
 21 54  1  0
 21 55  1  0
 24 56  1  0
 25 57  1  0
 26 58  1  0
 29 59  1  0
 32 60  1  0
 33 61  1  0
M  END
>  <Ligand ID>  (1) 
LIG0004828

>  <Ligand>  (1) 
CHEMBL68685

>  <SMILES>  (1) 
COc1ccc(cc1)S(=O)(=O)N1CCC(CC1)NC[C@@H](COc1cccc2c1[nH]c(=O)[nH]2)O

>  <CID>  (1) 
10140428.0

>  <ChEMBL ID>  (1) 
nan

>  <InChiKey>  (1) 
SCWJRUNVWHPJGD-INIZCTEOSA-N

>  <InChi>  (1) 
InChI=1S/C22H28N4O6S/c1-31-17-5-7-18(8-6-17)33(29,30)26-11-9-15(10-12-26)23-13-16(27)14-32-20-4-2-3-19-21(20)25-22(28)24-19/h2-8,15-16,23,27H,9-14H2,1H3,(H2,24,25,28)/t16-/m0/s1

>  <IUPAC Name>  (1) 
4-[(2S)-2-hydroxy-3-[[1-(4-methoxyphenyl)sulfonylpiperidin-4-yl]amino]propoxy]-1,3-dihydrobenzimidazol-2-one

$$$$
