
     RDKit          3D

 24 25  0  0  0  0  0  0  0  0999 V2000
    2.7968    0.6084   -1.6064 O   0  0  0  0  0  0  0  0  0  0  0  0
    1.9430   -0.3527   -1.0804 C   0  0  0  0  0  0  0  0  0  0  0  0
    1.5922   -1.2761   -1.8731 O   0  0  0  0  0  0  0  0  0  0  0  0
    1.5234   -0.2326    0.3087 C   0  0  2  0  0  0  0  0  0  0  0  0
    0.5848   -1.2840    0.8327 C   0  0  1  0  0  0  0  0  0  0  0  0
    0.2339   -0.1926    1.8603 C   0  0  0  0  0  0  0  0  0  0  0  0
    0.3807    0.7077    0.6239 C   0  0  2  0  0  0  0  0  0  0  0  0
   -0.7019    0.2658   -0.2845 C   0  0  2  0  0  0  0  0  0  0  0  0
   -0.6521   -1.2327   -0.0283 C   0  0  0  0  0  0  0  0  0  0  0  0
   -0.4188    0.4643   -1.7036 N   0  0  0  0  0  0  0  0  0  0  0  0
   -2.0150    0.8680    0.0481 C   0  0  0  0  0  0  0  0  0  0  0  0
   -2.7163    1.4510   -0.8463 O   0  0  0  0  0  0  0  0  0  0  0  0
   -2.5691    0.8466    1.3187 O   0  0  0  0  0  0  0  0  0  0  0  0
    2.8124    0.8990   -2.5775 H   0  0  0  0  0  0  0  0  0  0  0  0
    2.3244   -0.0488    1.0560 H   0  0  0  0  0  0  0  0  0  0  0  0
    0.9627   -2.2031    1.2037 H   0  0  0  0  0  0  0  0  0  0  0  0
    1.0644   -0.1048    2.5793 H   0  0  0  0  0  0  0  0  0  0  0  0
   -0.7718   -0.3118    2.2472 H   0  0  0  0  0  0  0  0  0  0  0  0
    0.5926    1.7386    0.7886 H   0  0  0  0  0  0  0  0  0  0  0  0
   -0.5971   -1.8380   -0.9328 H   0  0  0  0  0  0  0  0  0  0  0  0
   -1.5219   -1.5442    0.6200 H   0  0  0  0  0  0  0  0  0  0  0  0
   -0.9401   -0.2625   -2.2787 H   0  0  0  0  0  0  0  0  0  0  0  0
   -0.8650    1.3669   -1.9902 H   0  0  0  0  0  0  0  0  0  0  0  0
   -3.0420    1.6678    1.7147 H   0  0  0  0  0  0  0  0  0  0  0  0
  1  2  1  0
  2  3  2  0
  2  4  1  0
  4  5  1  0
  5  6  1  0
  6  7  1  0
  7  8  1  0
  8  9  1  0
  8 10  1  6
  8 11  1  0
 11 12  2  0
 11 13  1  0
  7  4  1  0
  9  5  1  0
  1 14  1  0
  4 15  1  1
  5 16  1  1
  6 17  1  0
  6 18  1  0
  7 19  1  1
  9 20  1  0
  9 21  1  0
 10 22  1  0
 10 23  1  0
 13 24  1  0
M  END
>  <Ligand ID>  (1) 
LIG0000820

>  <Ligand>  (1) 
CHEMBL42148

>  <SMILES>  (1) 
OC(=O)[C@@H]1[C@H]2C[C@@H]1[C@](C2)(N)C(=O)O

>  <CID>  (1) 
10560963.0

>  <ChEMBL ID>  (1) 
nan

>  <InChiKey>  (1) 
JCGJEPFYMOHIDP-UOPPWDSKSA-N

>  <InChi>  (1) 
InChI=1S/C8H11NO4/c9-8(7(12)13)2-3-1-4(8)5(3)6(10)11/h3-5H,1-2,9H2,(H,10,11)(H,12,13)/t3-,4-,5+,8-/m0/s1

>  <IUPAC Name>  (1) 
(1S,2S,4S,5R)-2-aminobicyclo[2.1.1]hexane-2,5-dicarboxylic acid

$$$$
