
     RDKit          3D

 14 14  0  0  0  0  0  0  0  0999 V2000
    2.3408    0.5613    0.3025 C   0  0  0  0  0  0  0  0  0  0  0  0
    1.3311   -0.3587   -0.3050 C   0  0  0  0  0  0  0  0  0  0  0  0
    1.6883   -1.3191   -0.9993 O   0  0  0  0  0  0  0  0  0  0  0  0
   -0.0915   -0.1264   -0.0802 C   0  0  0  0  0  0  0  0  0  0  0  0
   -1.0737   -0.9594   -0.6273 C   0  0  0  0  0  0  0  0  0  0  0  0
   -2.2959   -0.4333   -0.2033 C   0  0  0  0  0  0  0  0  0  0  0  0
   -1.9881    0.6704    0.5639 C   0  0  0  0  0  0  0  0  0  0  0  0
   -0.6725    0.8265    0.6183 O   0  0  0  0  0  0  0  0  0  0  0  0
    2.9395    0.9211   -0.5634 H   0  0  0  0  0  0  0  0  0  0  0  0
    2.9406    0.0744    1.0920 H   0  0  0  0  0  0  0  0  0  0  0  0
    1.8237    1.4203    0.7934 H   0  0  0  0  0  0  0  0  0  0  0  0
   -0.9672   -1.8203   -1.2406 H   0  0  0  0  0  0  0  0  0  0  0  0
   -3.2962   -0.8090   -0.4264 H   0  0  0  0  0  0  0  0  0  0  0  0
   -2.6789    1.3521    1.0753 H   0  0  0  0  0  0  0  0  0  0  0  0
  1  2  1  0
  2  3  2  0
  2  4  1  0
  4  5  2  0
  5  6  1  0
  6  7  2  0
  7  8  1  0
  8  4  1  0
  1  9  1  0
  1 10  1  0
  1 11  1  0
  5 12  1  0
  6 13  1  0
  7 14  1  0
M  END
>  <Ligand ID>  (1) 
LIG0000277

>  <Ligand>  (1) 
2-Acetylfuran

>  <SMILES>  (1) 
CC(=O)c1ccco1

>  <CID>  (1) 
14505.0

>  <ChEMBL ID>  (1) 
nan

>  <InChiKey>  (1) 
IEMMBWWQXVXBEU-UHFFFAOYSA-N

>  <InChi>  (1) 
InChI=1S/C6H6O2/c1-5(7)6-3-2-4-8-6/h2-4H,1H3

>  <IUPAC Name>  (1) 
1-(furan-2-yl)ethanone

$$$$
