
     RDKit          3D

 84 88  0  0  0  0  0  0  0  0999 V2000
   -2.4912   -1.1610    4.8956 C   0  0  0  0  0  0  0  0  0  0  0  0
   -1.2333   -0.4163    5.1061 C   0  0  0  0  0  0  0  0  0  0  0  0
   -0.8703    0.7263    4.2899 C   0  0  0  0  0  0  0  0  0  0  0  0
   -0.5524    0.9194    2.9292 C   0  0  2  0  0  0  0  0  0  0  0  0
   -1.2844    0.6767    1.7379 N   0  0  0  0  0  0  0  0  0  0  0  0
   -1.1773    1.7821    0.7225 C   0  0  0  0  0  0  0  0  0  0  0  0
    0.2288    2.3962    0.8489 C   0  0  0  0  0  0  0  0  0  0  0  0
    1.1855    1.3887    1.2435 N   0  0  0  0  0  0  0  0  0  0  0  0
    0.8907    0.7207    2.5038 C   0  0  0  0  0  0  0  0  0  0  0  0
    1.7200    0.0761    3.1357 O   0  0  0  0  0  0  0  0  0  0  0  0
    2.3392    0.9907    0.4469 C   0  0  2  0  0  0  0  0  0  0  0  0
    3.3182    2.0924    0.4614 C   0  0  0  0  0  0  0  0  0  0  0  0
    4.3830    2.0883   -0.2494 O   0  0  0  0  0  0  0  0  0  0  0  0
    3.1822    3.2698    1.2701 N   0  0  0  0  0  0  0  0  0  0  0  0
    4.2089    4.2947    1.2002 C   0  0  0  0  0  0  0  0  0  0  0  0
    1.9680    0.5954   -0.9259 C   0  0  0  0  0  0  0  0  0  0  0  0
    3.1342    0.1967   -1.7232 C   0  0  0  0  0  0  0  0  0  0  0  0
    3.8047    1.0073   -2.6122 C   0  0  0  0  0  0  0  0  0  0  0  0
    4.9044    0.5977   -3.3327 C   0  0  0  0  0  0  0  0  0  0  0  0
    5.3955   -0.6825   -3.1890 C   0  0  0  0  0  0  0  0  0  0  0  0
    4.7368   -1.5131   -2.3017 C   0  0  0  0  0  0  0  0  0  0  0  0
    3.6270   -1.0966   -1.5761 C   0  0  0  0  0  0  0  0  0  0  0  0
    5.2457   -2.7932   -2.1731 C   0  0  0  0  0  0  0  0  0  0  0  0
    6.3458   -3.2146   -2.8898 C   0  0  0  0  0  0  0  0  0  0  0  0
    6.9817   -2.3433   -3.7759 C   0  0  0  0  0  0  0  0  0  0  0  0
    6.4948   -1.0717   -3.9186 C   0  0  0  0  0  0  0  0  0  0  0  0
   -1.9574   -0.4593    1.3011 C   0  0  0  0  0  0  0  0  0  0  0  0
   -1.7730   -1.5218    2.0256 O   0  0  0  0  0  0  0  0  0  0  0  0
   -2.8446   -0.6720    0.1621 C   0  0  2  0  0  0  0  0  0  0  0  0
   -3.2200    0.4806   -0.6264 N   0  0  0  0  0  0  0  0  0  0  0  0
   -3.0992    0.4604   -2.0710 C   0  0  0  0  0  0  0  0  0  0  0  0
   -2.6627   -0.5670   -2.6647 O   0  0  0  0  0  0  0  0  0  0  0  0
   -3.4763    1.6185   -2.8767 C   0  0  0  0  0  0  0  0  0  0  0  0
   -3.2926    1.5095   -4.2448 C   0  0  0  0  0  0  0  0  0  0  0  0
   -3.6159    2.5464   -5.1089 C   0  0  0  0  0  0  0  0  0  0  0  0
   -4.1274    3.6894   -4.5488 C   0  0  0  0  0  0  0  0  0  0  0  0
   -4.2947    3.7721   -3.2388 N   0  0  0  0  0  0  0  0  0  0  0  0
   -3.9857    2.7700   -2.3708 C   0  0  0  0  0  0  0  0  0  0  0  0
   -4.0931   -1.5018    0.4676 C   0  0  0  0  0  0  0  0  0  0  0  0
   -3.8450   -2.8531    0.9486 C   0  0  0  0  0  0  0  0  0  0  0  0
   -3.8517   -3.2760    2.2548 C   0  0  0  0  0  0  0  0  0  0  0  0
   -3.5840   -4.5722    2.6439 C   0  0  0  0  0  0  0  0  0  0  0  0
   -3.2923   -5.4979    1.6573 C   0  0  0  0  0  0  0  0  0  0  0  0
   -3.2720   -5.1311    0.3381 C   0  0  0  0  0  0  0  0  0  0  0  0
   -3.5437   -3.8328   -0.0051 C   0  0  0  0  0  0  0  0  0  0  0  0
   -3.0340   -6.7667    2.0869 F   0  0  0  0  0  0  0  0  0  0  0  0
   -3.0742   -1.2012    5.8394 H   0  0  0  0  0  0  0  0  0  0  0  0
   -2.3594   -2.2232    4.6070 H   0  0  0  0  0  0  0  0  0  0  0  0
   -3.1298   -0.5758    4.2027 H   0  0  0  0  0  0  0  0  0  0  0  0
   -1.3121   -0.0048    6.1760 H   0  0  0  0  0  0  0  0  0  0  0  0
   -0.3557   -1.1353    5.2869 H   0  0  0  0  0  0  0  0  0  0  0  0
   -1.7064    1.5128    4.5600 H   0  0  0  0  0  0  0  0  0  0  0  0
   -0.0286    1.2498    4.9253 H   0  0  0  0  0  0  0  0  0  0  0  0
   -0.5329    2.1289    2.8922 H   0  0  0  0  0  0  0  0  0  0  0  0
   -1.8797    2.5738    0.9508 H   0  0  0  0  0  0  0  0  0  0  0  0
   -1.2163    1.4088   -0.2842 H   0  0  0  0  0  0  0  0  0  0  0  0
    0.1793    3.2573    1.5227 H   0  0  0  0  0  0  0  0  0  0  0  0
    0.5037    2.7596   -0.1857 H   0  0  0  0  0  0  0  0  0  0  0  0
    2.7708    0.1169    1.0281 H   0  0  0  0  0  0  0  0  0  0  0  0
    2.4006    3.4269    1.9122 H   0  0  0  0  0  0  0  0  0  0  0  0
    3.7796    5.2684    1.4588 H   0  0  0  0  0  0  0  0  0  0  0  0
    4.6961    4.3701    0.2214 H   0  0  0  0  0  0  0  0  0  0  0  0
    5.0084    4.0509    1.9326 H   0  0  0  0  0  0  0  0  0  0  0  0
    1.5027    1.5102   -1.4130 H   0  0  0  0  0  0  0  0  0  0  0  0
    1.2300   -0.2449   -0.9409 H   0  0  0  0  0  0  0  0  0  0  0  0
    3.4587    2.0181   -2.7757 H   0  0  0  0  0  0  0  0  0  0  0  0
    5.4108    1.2595   -4.0227 H   0  0  0  0  0  0  0  0  0  0  0  0
    3.1511   -1.7792   -0.8988 H   0  0  0  0  0  0  0  0  0  0  0  0
    4.7753   -3.4710   -1.5019 H   0  0  0  0  0  0  0  0  0  0  0  0
    6.7672   -4.2087   -2.8086 H   0  0  0  0  0  0  0  0  0  0  0  0
    7.8450   -2.6344   -4.3561 H   0  0  0  0  0  0  0  0  0  0  0  0
    6.9587   -0.3668   -4.5922 H   0  0  0  0  0  0  0  0  0  0  0  0
   -2.3279   -1.3446   -0.6252 H   0  0  0  0  0  0  0  0  0  0  0  0
   -3.5875    1.3229   -0.1350 H   0  0  0  0  0  0  0  0  0  0  0  0
   -2.8915    0.6196   -4.7153 H   0  0  0  0  0  0  0  0  0  0  0  0
   -3.4640    2.4450   -6.1764 H   0  0  0  0  0  0  0  0  0  0  0  0
   -4.3801    4.4995   -5.2228 H   0  0  0  0  0  0  0  0  0  0  0  0
   -4.1348    2.8758   -1.3249 H   0  0  0  0  0  0  0  0  0  0  0  0
   -4.5837   -0.9439    1.3209 H   0  0  0  0  0  0  0  0  0  0  0  0
   -4.8264   -1.4323   -0.3501 H   0  0  0  0  0  0  0  0  0  0  0  0
   -4.0970   -2.5488    3.0055 H   0  0  0  0  0  0  0  0  0  0  0  0
   -3.6110   -4.8251    3.7003 H   0  0  0  0  0  0  0  0  0  0  0  0
   -3.0395   -5.8857   -0.4057 H   0  0  0  0  0  0  0  0  0  0  0  0
   -3.5207   -3.5711   -1.0615 H   0  0  0  0  0  0  0  0  0  0  0  0
  1  2  1  0
  2  3  1  0
  3  4  1  0
  4  5  1  0
  5  6  1  0
  6  7  1  0
  7  8  1  0
  8  9  1  0
  9 10  2  0
  8 11  1  0
 11 12  1  0
 12 13  2  0
 12 14  1  0
 14 15  1  0
 11 16  1  0
 16 17  1  0
 17 18  2  0
 18 19  1  0
 19 20  2  0
 20 21  1  0
 21 22  2  0
 21 23  1  0
 23 24  2  0
 24 25  1  0
 25 26  2  0
  5 27  1  0
 27 28  2  0
 27 29  1  0
 29 30  1  0
 30 31  1  0
 31 32  2  0
 31 33  1  0
 33 34  2  0
 34 35  1  0
 35 36  2  0
 36 37  1  0
 37 38  2  0
 29 39  1  0
 39 40  1  0
 40 41  2  0
 41 42  1  0
 42 43  2  0
 43 44  1  0
 44 45  2  0
 43 46  1  0
  9  4  1  0
 22 17  1  0
 38 33  1  0
 45 40  1  0
 26 20  1  0
  1 47  1  0
  1 48  1  0
  1 49  1  0
  2 50  1  0
  2 51  1  0
  3 52  1  0
  3 53  1  0
  4 54  1  1
  6 55  1  0
  6 56  1  0
  7 57  1  0
  7 58  1  0
 11 59  1  1
 14 60  1  0
 15 61  1  0
 15 62  1  0
 15 63  1  0
 16 64  1  0
 16 65  1  0
 18 66  1  0
 19 67  1  0
 22 68  1  0
 23 69  1  0
 24 70  1  0
 25 71  1  0
 26 72  1  0
 29 73  1  6
 30 74  1  0
 34 75  1  0
 35 76  1  0
 36 77  1  0
 38 78  1  0
 39 79  1  0
 39 80  1  0
 41 81  1  0
 42 82  1  0
 44 83  1  0
 45 84  1  0
M  END
>  <Ligand ID>  (1) 
LIG0004081

>  <Ligand>  (1) 
CHEMBL463047

>  <SMILES>  (1) 
CCC[C@@H]1N(CCN(C1=O)[C@H](C(=O)NC)Cc1ccc2c(c1)cccc2)C(=O)[C@H](NC(=O)c1cccnc1)Cc1ccc(cc1)F

>  <CID>  (1) 
25129105.0

>  <ChEMBL ID>  (1) 
nan

>  <InChiKey>  (1) 
NVXVBSBXBTZZNU-RTOKGZNSSA-N

>  <InChi>  (1) 
InChI=1S/C36H38FN5O4/c1-3-7-31-36(46)42(32(34(44)38-2)22-25-11-14-26-8-4-5-9-27(26)20-25)19-18-41(31)35(45)30(21-24-12-15-29(37)16-13-24)40-33(43)28-10-6-17-39-23-28/h4-6,8-17,20,23,30-32H,3,7,18-19,21-22H2,1-2H3,(H,38,44)(H,40,43)/t30-,31+,32+/m1/s1

>  <IUPAC Name>  (1) 
N-[(2R)-3-(4-fluorophenyl)-1-[(2S)-4-[(2S)-1-(methylamino)-3-naphthalen-2-yl-1-oxopropan-2-yl]-3-oxo-2-propylpiperazin-1-yl]-1-oxopropan-2-yl]pyridine-3-carboxamide

$$$$
