
     RDKit          3D

 27 28  0  0  0  0  0  0  0  0999 V2000
    3.9548    1.4146   -2.0476 Cl  0  0  0  0  0  0  0  0  0  0  0  0
    3.2587    0.4440   -0.7539 C   0  0  0  0  0  0  0  0  0  0  0  0
    3.8998   -0.6800   -0.3062 C   0  0  0  0  0  0  0  0  0  0  0  0
    3.3002   -1.4054    0.7183 C   0  0  0  0  0  0  0  0  0  0  0  0
    2.1089   -1.0105    1.2624 C   0  0  0  0  0  0  0  0  0  0  0  0
    1.4944    0.1254    0.7858 C   0  0  0  0  0  0  0  0  0  0  0  0
    2.0484    0.8891   -0.2368 C   0  0  0  0  0  0  0  0  0  0  0  0
   -0.0469    0.6505    1.4782 S   0  0  0  0  0  0  0  0  0  0  0  0
   -0.0927    0.1552    2.8719 O   0  0  0  0  0  0  0  0  0  0  0  0
   -0.1079    2.1419    1.4572 O   0  0  0  0  0  0  0  0  0  0  0  0
   -1.2611   -0.1076    0.5572 N   0  0  0  0  0  0  0  0  0  0  0  0
   -1.2350    0.2798   -0.8415 C   0  0  0  0  0  0  0  0  0  0  0  0
   -2.5116   -0.4272   -1.3155 C   0  0  0  0  0  0  0  0  0  0  0  0
   -3.4836    0.0456   -0.2500 C   0  0  0  0  0  0  0  0  0  0  0  0
   -2.6093    0.1552    0.9940 C   0  0  0  0  0  0  0  0  0  0  0  0
    4.8490   -1.0159   -0.7226 H   0  0  0  0  0  0  0  0  0  0  0  0
    3.7599   -2.3095    1.1190 H   0  0  0  0  0  0  0  0  0  0  0  0
    1.6647   -1.6045    2.0674 H   0  0  0  0  0  0  0  0  0  0  0  0
    1.5645    1.7840   -0.6124 H   0  0  0  0  0  0  0  0  0  0  0  0
   -1.3707    1.3760   -0.9577 H   0  0  0  0  0  0  0  0  0  0  0  0
   -0.3276   -0.1154   -1.2940 H   0  0  0  0  0  0  0  0  0  0  0  0
   -2.2760   -1.5157   -1.1796 H   0  0  0  0  0  0  0  0  0  0  0  0
   -2.7987   -0.1540   -2.3322 H   0  0  0  0  0  0  0  0  0  0  0  0
   -3.7910    1.0701   -0.5115 H   0  0  0  0  0  0  0  0  0  0  0  0
   -4.3269   -0.6558   -0.0992 H   0  0  0  0  0  0  0  0  0  0  0  0
   -2.7360    1.1332    1.4842 H   0  0  0  0  0  0  0  0  0  0  0  0
   -2.9281   -0.6633    1.6765 H   0  0  0  0  0  0  0  0  0  0  0  0
  1  2  1  0
  2  3  2  0
  3  4  1  0
  4  5  2  0
  5  6  1  0
  6  7  2  0
  6  8  1  0
  8  9  2  0
  8 10  2  0
  8 11  1  0
 11 12  1  0
 12 13  1  0
 13 14  1  0
 14 15  1  0
  7  2  1  0
 15 11  1  0
  3 16  1  0
  4 17  1  0
  5 18  1  0
  7 19  1  0
 12 20  1  0
 12 21  1  0
 13 22  1  0
 13 23  1  0
 14 24  1  0
 14 25  1  0
 15 26  1  0
 15 27  1  0
M  END
>  <Ligand ID>  (1) 
LIG0003091

>  <Ligand>  (1) 
SMR000072725

>  <SMILES>  (1) 
Clc1cccc(c1)S(=O)(=O)N1CCCC1

>  <CID>  (1) 
890981.0

>  <ChEMBL ID>  (1) 
nan

>  <InChiKey>  (1) 
ZNZXPUJFWPBWFF-UHFFFAOYSA-N

>  <InChi>  (1) 
InChI=1S/C10H12ClNO2S/c11-9-4-3-5-10(8-9)15(13,14)12-6-1-2-7-12/h3-5,8H,1-2,6-7H2

>  <IUPAC Name>  (1) 
1-(3-chlorophenyl)sulfonylpyrrolidine

$$$$
