
     RDKit          3D

 23 23  0  0  0  0  0  0  0  0999 V2000
   -2.2568    1.7612    1.5302 C   0  0  0  0  0  0  0  0  0  0  0  0
   -1.1426    1.2289    0.8732 O   0  0  0  0  0  0  0  0  0  0  0  0
   -1.0776    0.0860    0.1297 C   0  0  0  0  0  0  0  0  0  0  0  0
   -2.1820   -0.6620   -0.0282 N   0  0  0  0  0  0  0  0  0  0  0  0
   -2.1549   -1.7977   -0.7563 C   0  0  0  0  0  0  0  0  0  0  0  0
   -0.9750   -2.2216   -1.3632 C   0  0  0  0  0  0  0  0  0  0  0  0
    0.1298   -1.4680   -1.2019 N   0  0  0  0  0  0  0  0  0  0  0  0
    0.1032   -0.3294   -0.4722 C   0  0  0  0  0  0  0  0  0  0  0  0
    1.3489    0.4588   -0.3293 C   0  0  0  0  0  0  0  0  0  0  0  0
    2.1036   -0.0192    0.8899 C   0  0  0  0  0  0  0  0  0  0  0  0
    2.2595    0.3755   -1.5050 C   0  0  0  0  0  0  0  0  0  0  0  0
   -3.1529    1.2711    1.0857 H   0  0  0  0  0  0  0  0  0  0  0  0
   -2.2585    1.6972    2.6175 H   0  0  0  0  0  0  0  0  0  0  0  0
   -2.3469    2.8418    1.2383 H   0  0  0  0  0  0  0  0  0  0  0  0
   -3.0644   -2.3896   -0.8710 H   0  0  0  0  0  0  0  0  0  0  0  0
   -0.9304   -3.1356   -1.9557 H   0  0  0  0  0  0  0  0  0  0  0  0
    1.0346    1.5177   -0.2321 H   0  0  0  0  0  0  0  0  0  0  0  0
    2.6093    0.8761    1.3102 H   0  0  0  0  0  0  0  0  0  0  0  0
    1.4250   -0.4978    1.6224 H   0  0  0  0  0  0  0  0  0  0  0  0
    2.9078   -0.7062    0.5603 H   0  0  0  0  0  0  0  0  0  0  0  0
    2.1204    1.1864   -2.2508 H   0  0  0  0  0  0  0  0  0  0  0  0
    3.3042    0.4911   -1.1483 H   0  0  0  0  0  0  0  0  0  0  0  0
    2.1959   -0.5647   -2.0785 H   0  0  0  0  0  0  0  0  0  0  0  0
  1  2  1  0
  2  3  1  0
  3  4  2  0
  4  5  1  0
  5  6  2  0
  6  7  1  0
  7  8  2  0
  8  9  1  0
  9 10  1  0
  9 11  1  0
  8  3  1  0
  1 12  1  0
  1 13  1  0
  1 14  1  0
  5 15  1  0
  6 16  1  0
  9 17  1  0
 10 18  1  0
 10 19  1  0
 10 20  1  0
 11 21  1  0
 11 22  1  0
 11 23  1  0
M  END
>  <Ligand ID>  (1) 
LIG0000147

>  <Ligand>  (1) 
2-Isopropyl-3-methoxypyrazine

>  <SMILES>  (1) 
COc1nccnc1C(C)C

>  <CID>  (1) 
33166.0

>  <ChEMBL ID>  (1) 
nan

>  <InChiKey>  (1) 
NTOPKICPEQUPPH-UHFFFAOYSA-N

>  <InChi>  (1) 
InChI=1S/C8H12N2O/c1-6(2)7-8(11-3)10-5-4-9-7/h4-6H,1-3H3

>  <IUPAC Name>  (1) 
2-methoxy-3-propan-2-ylpyrazine

$$$$
