
     RDKit          3D

 27 28  0  0  0  0  0  0  0  0999 V2000
    3.4039    3.1458   -0.0068 Cl  0  0  0  0  0  0  0  0  0  0  0  0
    2.4407    1.6725    0.0686 C   0  0  0  0  0  0  0  0  0  0  0  0
    3.0610    0.4924    0.3578 C   0  0  0  0  0  0  0  0  0  0  0  0
    2.3219   -0.6724    0.4211 C   0  0  0  0  0  0  0  0  0  0  0  0
    0.9543   -0.6100    0.1864 C   0  0  0  0  0  0  0  0  0  0  0  0
    0.2924    0.5526   -0.1068 C   0  0  0  0  0  0  0  0  0  0  0  0
    1.0699    1.7144   -0.1633 C   0  0  0  0  0  0  0  0  0  0  0  0
   -1.0984    0.8792   -0.3872 C   0  0  2  0  0  0  0  0  0  0  0  0
   -1.7812    1.6734    0.7227 C   0  0  0  0  0  0  0  0  0  0  0  0
   -1.9931   -0.2265   -0.7752 C   0  0  0  0  0  0  0  0  0  0  0  0
   -1.9040   -1.4438   -0.0507 N   0  0  0  0  0  0  0  0  0  0  0  0
   -0.8028   -2.1903   -0.5934 C   0  0  0  0  0  0  0  0  0  0  0  0
    0.3817   -1.9541    0.3055 C   0  0  0  0  0  0  0  0  0  0  0  0
    4.1399    0.4057    0.5488 H   0  0  0  0  0  0  0  0  0  0  0  0
    2.7970   -1.6262    0.6504 H   0  0  0  0  0  0  0  0  0  0  0  0
    0.5782    2.6611   -0.3943 H   0  0  0  0  0  0  0  0  0  0  0  0
   -1.0776    1.5892   -1.2688 H   0  0  0  0  0  0  0  0  0  0  0  0
   -2.3977    2.5108    0.3098 H   0  0  0  0  0  0  0  0  0  0  0  0
   -0.9909    2.1374    1.3479 H   0  0  0  0  0  0  0  0  0  0  0  0
   -2.4003    1.0173    1.3727 H   0  0  0  0  0  0  0  0  0  0  0  0
   -1.8218   -0.4768   -1.8623 H   0  0  0  0  0  0  0  0  0  0  0  0
   -3.0360    0.1501   -0.7498 H   0  0  0  0  0  0  0  0  0  0  0  0
   -1.9332   -1.3873    0.9646 H   0  0  0  0  0  0  0  0  0  0  0  0
   -0.5089   -1.8213   -1.5977 H   0  0  0  0  0  0  0  0  0  0  0  0
   -0.9995   -3.2707   -0.6281 H   0  0  0  0  0  0  0  0  0  0  0  0
    0.1446   -2.2294    1.3541 H   0  0  0  0  0  0  0  0  0  0  0  0
    1.1597   -2.6930   -0.0262 H   0  0  0  0  0  0  0  0  0  0  0  0
  1  2  1  0
  2  3  2  0
  3  4  1  0
  4  5  2  0
  5  6  1  0
  6  7  2  0
  6  8  1  0
  8  9  1  0
  8 10  1  0
 10 11  1  0
 11 12  1  0
 12 13  1  0
  7  2  1  0
 13  5  1  0
  3 14  1  0
  4 15  1  0
  7 16  1  0
  8 17  1  6
  9 18  1  0
  9 19  1  0
  9 20  1  0
 10 21  1  0
 10 22  1  0
 11 23  1  0
 12 24  1  0
 12 25  1  0
 13 26  1  0
 13 27  1  0
M  END
>  <Ligand ID>  (1) 
LIG0002182

>  <Ligand>  (1) 
CHEMBL178365

>  <SMILES>  (1) 
Clc1ccc2c(c1)[C@H](C)CNCC2

>  <CID>  (1) 
23652278.0

>  <ChEMBL ID>  (1) 
nan

>  <InChiKey>  (1) 
XTTZERNUQAFMOF-MRVPVSSYSA-N

>  <InChi>  (1) 
InChI=1S/C11H14ClN/c1-8-7-13-5-4-9-2-3-10(12)6-11(8)9/h2-3,6,8,13H,4-5,7H2,1H3/t8-/m1/s1

>  <IUPAC Name>  (1) 
(5S)-7-chloro-5-methyl-2,3,4,5-tetrahydro-1H-3-benzazepine

$$$$
