
     RDKit          3D

 36 38  0  0  0  0  0  0  0  0999 V2000
   -3.3197    2.2889    1.6906 C   0  0  0  0  0  0  0  0  0  0  0  0
   -3.6991    2.2136    0.3812 C   0  0  0  0  0  0  0  0  0  0  0  0
   -3.2052    1.2211   -0.4079 C   0  0  0  0  0  0  0  0  0  0  0  0
   -2.3102    0.2534    0.0617 C   0  0  0  0  0  0  0  0  0  0  0  0
   -1.9552    0.3674    1.3881 C   0  0  0  0  0  0  0  0  0  0  0  0
   -2.4373    1.3630    2.2187 C   0  0  0  0  0  0  0  0  0  0  0  0
   -1.8240   -0.7949   -0.8200 C   0  0  0  0  0  0  0  0  0  0  0  0
   -2.8056   -1.5161   -1.5090 C   0  0  0  0  0  0  0  0  0  0  0  0
   -2.4846   -2.5515   -2.3616 C   0  0  0  0  0  0  0  0  0  0  0  0
   -1.1569   -2.8627   -2.5205 C   0  0  0  0  0  0  0  0  0  0  0  0
   -0.1936   -2.1448   -1.8362 C   0  0  0  0  0  0  0  0  0  0  0  0
   -0.4917   -1.1069   -0.9803 C   0  0  0  0  0  0  0  0  0  0  0  0
    0.5048   -0.3844   -0.3170 N   0  0  0  0  0  0  0  0  0  0  0  0
    1.8895   -0.7697   -0.5263 C   0  0  0  0  0  0  0  0  0  0  0  0
    2.8252    0.0745    0.2314 C   0  0  0  0  0  0  0  0  0  0  0  0
    2.4967    1.0547    1.0047 N   0  0  0  0  0  0  0  0  0  0  0  0
    3.6638    1.6743    1.5971 C   0  0  0  0  0  0  0  0  0  0  0  0
    4.8425    0.8136    1.1971 C   0  0  0  0  0  0  0  0  0  0  0  0
    4.2380   -0.0755    0.2158 N   0  0  0  0  0  0  0  0  0  0  0  0
   -3.7307    3.0916    2.2936 H   0  0  0  0  0  0  0  0  0  0  0  0
   -4.3965    2.9225   -0.0880 H   0  0  0  0  0  0  0  0  0  0  0  0
   -3.4944    1.1506   -1.4357 H   0  0  0  0  0  0  0  0  0  0  0  0
   -1.2764   -0.3409    1.8406 H   0  0  0  0  0  0  0  0  0  0  0  0
   -2.1273    1.4104    3.2564 H   0  0  0  0  0  0  0  0  0  0  0  0
   -3.8473   -1.2851   -1.3955 H   0  0  0  0  0  0  0  0  0  0  0  0
   -3.2159   -3.1282   -2.9084 H   0  0  0  0  0  0  0  0  0  0  0  0
   -0.8446   -3.6642   -3.1750 H   0  0  0  0  0  0  0  0  0  0  0  0
    0.8533   -2.4131   -1.9809 H   0  0  0  0  0  0  0  0  0  0  0  0
    0.3447    0.4230    0.3198 H   0  0  0  0  0  0  0  0  0  0  0  0
    2.1749   -0.6722   -1.6062 H   0  0  0  0  0  0  0  0  0  0  0  0
    2.0002   -1.8607   -0.2873 H   0  0  0  0  0  0  0  0  0  0  0  0
    3.5024    1.6090    2.7084 H   0  0  0  0  0  0  0  0  0  0  0  0
    3.8002    2.7207    1.2921 H   0  0  0  0  0  0  0  0  0  0  0  0
    5.6748    1.4152    0.7832 H   0  0  0  0  0  0  0  0  0  0  0  0
    5.1965    0.2263    2.0738 H   0  0  0  0  0  0  0  0  0  0  0  0
    4.8089   -0.7230   -0.3988 H   0  0  0  0  0  0  0  0  0  0  0  0
  1  2  2  0
  2  3  1  0
  3  4  2  0
  4  5  1  0
  5  6  2  0
  4  7  1  0
  7  8  2  0
  8  9  1  0
  9 10  2  0
 10 11  1  0
 11 12  2  0
 12 13  1  0
 13 14  1  0
 14 15  1  0
 15 16  2  0
 16 17  1  0
 17 18  1  0
 18 19  1  0
  6  1  1  0
 12  7  1  0
 19 15  1  0
  1 20  1  0
  2 21  1  0
  3 22  1  0
  5 23  1  0
  6 24  1  0
  8 25  1  0
  9 26  1  0
 10 27  1  0
 11 28  1  0
 13 29  1  0
 14 30  1  0
 14 31  1  0
 17 32  1  0
 17 33  1  0
 18 34  1  0
 18 35  1  0
 19 36  1  0
M  END
>  <Ligand ID>  (1) 
LIG0000680

>  <Ligand>  (1) 
CHEMBL337862

>  <SMILES>  (1) 
c1ccc(cc1)c1ccccc1NCC1=NCCN1

>  <CID>  (1) 
44352155.0

>  <ChEMBL ID>  (1) 
nan

>  <InChiKey>  (1) 
RJDGUOVDCSODNG-UHFFFAOYSA-N

>  <InChi>  (1) 
InChI=1S/C16H17N3/c1-2-6-13(7-3-1)14-8-4-5-9-15(14)19-12-16-17-10-11-18-16/h1-9,19H,10-12H2,(H,17,18)

>  <IUPAC Name>  (1) 
N-(4,5-dihydro-1H-imidazol-2-ylmethyl)-2-phenylaniline

$$$$
