
     RDKit          3D

 44 45  0  0  0  0  0  0  0  0999 V2000
   -1.2287   -0.0355    3.0465 O   0  0  0  0  0  0  0  0  0  0  0  0
   -1.7381   -0.1118    1.7648 C   0  0  2  0  0  0  0  0  0  0  0  0
   -0.6961    0.2090    0.7003 C   0  0  1  0  0  0  0  0  0  0  0  0
    0.3497   -0.8507    0.5873 C   0  0  0  0  0  0  0  0  0  0  0  0
    1.1519   -0.5896   -0.4951 O   0  0  0  0  0  0  0  0  0  0  0  0
    2.3788   -1.7150   -0.7374 P   0  0  0  0  0  0  0  0  0  0  0  0
    1.8103   -3.1038   -0.6231 O   0  0  0  0  0  0  0  0  0  0  0  0
    3.0551   -1.4216   -2.2444 O   0  0  0  0  0  0  0  0  0  0  0  0
    4.4486   -0.5110   -2.1891 P   0  0  0  0  0  0  0  0  0  0  0  0
    4.5458    0.2667   -3.5018 O   0  0  0  0  0  0  0  0  0  0  0  0
    4.4304    0.6415   -0.9543 O   0  0  0  0  0  0  0  0  0  0  0  0
    5.9914    1.1812   -0.5972 P   0  0  0  0  0  0  0  0  0  0  0  0
    6.0482    2.6982   -0.7529 O   0  0  0  0  0  0  0  0  0  0  0  0
    6.3890    0.8557    1.0089 O   0  0  0  0  0  0  0  0  0  0  0  0
    7.1544    0.5123   -1.5978 O   0  0  0  0  0  0  0  0  0  0  0  0
    5.8218   -1.4635   -2.0017 O   0  0  0  0  0  0  0  0  0  0  0  0
    3.6150   -1.5551    0.4096 O   0  0  0  0  0  0  0  0  0  0  0  0
   -1.5160    0.2859   -0.4243 O   0  0  0  0  0  0  0  0  0  0  0  0
   -2.6149    1.0268   -0.0647 C   0  0  2  0  0  0  0  0  0  0  0  0
   -2.6902    1.0255    1.4515 C   0  0  2  0  0  0  0  0  0  0  0  0
   -2.1190    2.1882    1.9061 O   0  0  0  0  0  0  0  0  0  0  0  0
   -3.8639    0.5158   -0.5645 N   0  0  0  0  0  0  0  0  0  0  0  0
   -4.9897    1.1390   -0.2043 C   0  0  0  0  0  0  0  0  0  0  0  0
   -6.2418    0.7587   -0.6066 C   0  0  0  0  0  0  0  0  0  0  0  0
   -7.8037    1.6883   -0.0582 Br  0  0  0  0  0  0  0  0  0  0  0  0
   -6.3347   -0.3403   -1.4375 C   0  0  0  0  0  0  0  0  0  0  0  0
   -7.4649   -0.7177   -1.8262 O   0  0  0  0  0  0  0  0  0  0  0  0
   -5.1901   -0.9696   -1.8006 N   0  0  0  0  0  0  0  0  0  0  0  0
   -3.9755   -0.5520   -1.3739 C   0  0  0  0  0  0  0  0  0  0  0  0
   -2.9207   -1.1584   -1.7283 O   0  0  0  0  0  0  0  0  0  0  0  0
   -0.2401   -0.1809    3.0343 H   0  0  0  0  0  0  0  0  0  0  0  0
   -2.1947   -1.0921    1.5805 H   0  0  0  0  0  0  0  0  0  0  0  0
   -0.2812    1.2048    0.8765 H   0  0  0  0  0  0  0  0  0  0  0  0
   -0.1873   -1.8174    0.3583 H   0  0  0  0  0  0  0  0  0  0  0  0
    0.9036   -1.0250    1.5105 H   0  0  0  0  0  0  0  0  0  0  0  0
    7.1013    1.4832    1.2798 H   0  0  0  0  0  0  0  0  0  0  0  0
    7.8596    0.0059   -1.1120 H   0  0  0  0  0  0  0  0  0  0  0  0
    5.6816   -2.0651   -1.2315 H   0  0  0  0  0  0  0  0  0  0  0  0
    4.0404   -2.4387    0.4793 H   0  0  0  0  0  0  0  0  0  0  0  0
   -2.4342    2.0621   -0.4383 H   0  0  0  0  0  0  0  0  0  0  0  0
   -3.7089    0.8393    1.8275 H   0  0  0  0  0  0  0  0  0  0  0  0
   -2.1257    2.9084    1.2382 H   0  0  0  0  0  0  0  0  0  0  0  0
   -4.9366    2.0129    0.4545 H   0  0  0  0  0  0  0  0  0  0  0  0
   -5.2802   -1.7945   -2.4262 H   0  0  0  0  0  0  0  0  0  0  0  0
  1  2  1  0
  2  3  1  0
  3  4  1  0
  4  5  1  0
  5  6  1  0
  6  7  2  0
  6  8  1  0
  8  9  1  0
  9 10  2  0
  9 11  1  0
 11 12  1  0
 12 13  2  0
 12 14  1  0
 12 15  1  0
  9 16  1  0
  6 17  1  0
  3 18  1  0
 18 19  1  0
 19 20  1  0
 20 21  1  0
 19 22  1  0
 22 23  1  0
 23 24  2  0
 24 25  1  0
 24 26  1  0
 26 27  2  0
 26 28  1  0
 28 29  1  0
 29 30  2  0
 20  2  1  0
 29 22  1  0
  1 31  1  0
  2 32  1  6
  3 33  1  1
  4 34  1  0
  4 35  1  0
 14 36  1  0
 15 37  1  0
 16 38  1  0
 17 39  1  0
 19 40  1  6
 20 41  1  6
 21 42  1  0
 23 43  1  0
 28 44  1  0
M  END
>  <Ligand ID>  (1) 
LIG0002451

>  <Ligand>  (1) 
5BrUTP

>  <SMILES>  (1) 
O[C@@H]1[C@@H](COP(=O)(OP(=O)(OP(=O)(O)O)O)O)O[C@H]([C@@H]1O)n1cc(Br)c(=O)[nH]c1=O

>  <CID>  (1) 
9872620.0

>  <ChEMBL ID>  (1) 
nan

>  <InChiKey>  (1) 
IWFHOSULCAJGRM-UAKXSSHOSA-N

>  <InChi>  (1) 
InChI=1S/C9H14BrN2O15P3/c10-3-1-12(9(16)11-7(3)15)8-6(14)5(13)4(25-8)2-24-29(20,21)27-30(22,23)26-28(17,18)19/h1,4-6,8,13-14H,2H2,(H,20,21)(H,22,23)(H,11,15,16)(H2,17,18,19)/t4-,5-,6-,8-/m1/s1

>  <IUPAC Name>  (1) 
[[(2R,3S,4R,5R)-5-(5-bromo-2,4-dioxopyrimidin-1-yl)-3,4-dihydroxyoxolan-2-yl]methoxy-hydroxyphosphoryl] phosphono hydrogen phosphate

$$$$
