
     RDKit          3D

 43 43  0  0  0  0  0  0  0  0999 V2000
    5.7124   -2.0609   -0.8128 O   0  0  0  0  0  0  0  0  0  0  0  0
    5.7930   -1.0108    0.0676 C   0  0  0  0  0  0  0  0  0  0  0  0
    6.3780   -1.2381    1.1719 O   0  0  0  0  0  0  0  0  0  0  0  0
    5.2713    0.3414   -0.1462 C   0  0  1  0  0  0  0  0  0  0  0  0
    3.7628    0.3724   -0.2198 C   0  0  0  0  0  0  0  0  0  0  0  0
    3.2184   -0.4635   -1.3416 C   0  0  0  0  0  0  0  0  0  0  0  0
    1.3840   -0.3733   -1.3855 P   0  0  0  0  0  0  0  0  0  0  0  0
    0.8471   -1.7299   -1.7801 O   0  0  0  0  0  0  0  0  0  0  0  0
    0.8253    0.1336    0.2385 C   0  0  0  0  0  0  0  0  0  0  0  0
   -0.6472    0.3118    0.3315 C   0  0  0  0  0  0  0  0  0  0  0  0
   -1.1216    0.9449    1.4692 C   0  0  0  0  0  0  0  0  0  0  0  0
   -2.4687    1.1454    1.6247 C   0  0  0  0  0  0  0  0  0  0  0  0
   -3.4008    0.7292    0.6643 C   0  0  0  0  0  0  0  0  0  0  0  0
   -2.8836    0.1099   -0.4408 C   0  0  0  0  0  0  0  0  0  0  0  0
   -1.5297   -0.1121   -0.6361 C   0  0  0  0  0  0  0  0  0  0  0  0
   -4.7123    0.9844    0.9271 O   0  0  0  0  0  0  0  0  0  0  0  0
   -5.7303    0.5940    0.0485 C   0  0  0  0  0  0  0  0  0  0  0  0
   -5.7369   -1.2106   -0.0769 P   0  0  0  0  0  0  0  0  0  0  0  0
   -4.5788   -1.7924    0.7091 O   0  0  0  0  0  0  0  0  0  0  0  0
   -7.1916   -1.7313    0.6767 O   0  0  0  0  0  0  0  0  0  0  0  0
   -5.7178   -1.7692   -1.6514 O   0  0  0  0  0  0  0  0  0  0  0  0
    1.3780    1.3608    0.6065 O   0  0  0  0  0  0  0  0  0  0  0  0
    0.9374    0.7687   -2.5480 O   0  0  0  0  0  0  0  0  0  0  0  0
    5.6224    1.2192    0.9742 N   0  0  0  0  0  0  0  0  0  0  0  0
    5.7176   -3.0141   -0.4309 H   0  0  0  0  0  0  0  0  0  0  0  0
    5.6503    0.8247   -1.0617 H   0  0  0  0  0  0  0  0  0  0  0  0
    3.4990    1.4464   -0.3478 H   0  0  0  0  0  0  0  0  0  0  0  0
    3.2991    0.0505    0.7424 H   0  0  0  0  0  0  0  0  0  0  0  0
    3.5278   -1.5164   -1.2353 H   0  0  0  0  0  0  0  0  0  0  0  0
    3.5931   -0.0966   -2.3151 H   0  0  0  0  0  0  0  0  0  0  0  0
    1.0856   -0.6654    0.9715 H   0  0  0  0  0  0  0  0  0  0  0  0
   -0.4385    1.2822    2.2351 H   0  0  0  0  0  0  0  0  0  0  0  0
   -2.8051    1.6446    2.5281 H   0  0  0  0  0  0  0  0  0  0  0  0
   -3.5373   -0.2240   -1.2282 H   0  0  0  0  0  0  0  0  0  0  0  0
   -1.1680   -0.6014   -1.5178 H   0  0  0  0  0  0  0  0  0  0  0  0
   -5.4914    1.0272   -0.9546 H   0  0  0  0  0  0  0  0  0  0  0  0
   -6.7111    0.9867    0.4119 H   0  0  0  0  0  0  0  0  0  0  0  0
   -7.8726   -1.0374    0.5500 H   0  0  0  0  0  0  0  0  0  0  0  0
   -6.5765   -2.1951   -1.9076 H   0  0  0  0  0  0  0  0  0  0  0  0
    0.9108    2.0565    0.0901 H   0  0  0  0  0  0  0  0  0  0  0  0
    1.5734    1.5370   -2.5453 H   0  0  0  0  0  0  0  0  0  0  0  0
    5.2114    2.1606    0.7741 H   0  0  0  0  0  0  0  0  0  0  0  0
    5.1215    0.8105    1.8113 H   0  0  0  0  0  0  0  0  0  0  0  0
  1  2  1  0
  2  3  2  0
  2  4  1  0
  4  5  1  0
  5  6  1  0
  6  7  1  0
  7  8  2  0
  7  9  1  0
  9 10  1  0
 10 11  2  0
 11 12  1  0
 12 13  2  0
 13 14  1  0
 14 15  2  0
 13 16  1  0
 16 17  1  0
 17 18  1  0
 18 19  2  0
 18 20  1  0
 18 21  1  0
  9 22  1  0
  7 23  1  0
  4 24  1  0
 15 10  1  0
  1 25  1  0
  4 26  1  6
  5 27  1  0
  5 28  1  0
  6 29  1  0
  6 30  1  0
  9 31  1  0
 11 32  1  0
 12 33  1  0
 14 34  1  0
 15 35  1  0
 17 36  1  0
 17 37  1  0
 20 38  1  0
 21 39  1  0
 22 40  1  0
 23 41  1  0
 24 42  1  0
 24 43  1  0
M  END
>  <Ligand ID>  (1) 
LIG0002539

>  <Ligand>  (1) 
US9212196, Derivative 14

>  <SMILES>  (1) 
OC(=O)[C@@H](CCP(=O)(C(c1ccc(cc1)OCP(=O)(O)O)O)O)N

>  <CID>  (1) 
122197946.0

>  <ChEMBL ID>  (1) 
nan

>  <InChiKey>  (1) 
NOROSKGWRWLDSW-RWANSRKNSA-N

>  <InChi>  (1) 
InChI=1S/C12H19NO9P2/c13-10(11(14)15)5-6-23(17,18)12(16)8-1-3-9(4-2-8)22-7-24(19,20)21/h1-4,10,12,16H,5-7,13H2,(H,14,15)(H,17,18)(H2,19,20,21)/t10-,12?/m1/s1

>  <IUPAC Name>  (1) 
(2R)-2-amino-4-[hydroxy-[hydroxy-[4-(phosphonomethoxy)phenyl]methyl]phosphoryl]butanoic acid

$$$$
