
     RDKit          3D

 54 56  0  0  0  0  0  0  0  0999 V2000
    2.3625    2.4970   -0.7151 O   0  0  0  0  0  0  0  0  0  0  0  0
    2.3456    1.3018   -0.0006 C   0  0  0  0  0  0  0  0  0  0  0  0
    3.4034    0.4020   -0.5397 C   0  0  0  0  0  0  0  0  0  0  0  0
    4.6406    1.0748   -0.3739 O   0  0  0  0  0  0  0  0  0  0  0  0
    5.8688    0.5987   -0.7318 C   0  0  0  0  0  0  0  0  0  0  0  0
    6.9712    1.4120   -0.4872 C   0  0  0  0  0  0  0  0  0  0  0  0
    8.2584    0.9825   -0.8301 C   0  0  0  0  0  0  0  0  0  0  0  0
    8.3995   -0.2762   -1.4196 C   0  0  0  0  0  0  0  0  0  0  0  0
    7.2928   -1.0646   -1.6523 C   0  0  0  0  0  0  0  0  0  0  0  0
    6.0040   -0.6522   -1.3172 C   0  0  0  0  0  0  0  0  0  0  0  0
    0.9424    0.7475   -0.0733 C   0  0  0  0  0  0  0  0  0  0  0  0
    0.7856   -0.4897    0.6138 N   0  0  0  0  0  0  0  0  0  0  0  0
   -0.5851   -0.9385    0.4977 C   0  0  0  0  0  0  0  0  0  0  0  0
   -1.5708   -0.0906    1.2563 C   0  0  0  0  0  0  0  0  0  0  0  0
   -2.9508   -0.6670    1.0556 C   0  0  0  0  0  0  0  0  0  0  0  0
   -3.9965    0.1104    1.7858 C   0  0  0  0  0  0  0  0  0  0  0  0
   -3.9938    1.5106    1.7862 C   0  0  0  0  0  0  0  0  0  0  0  0
   -4.9751    2.2231    2.4776 C   0  0  0  0  0  0  0  0  0  0  0  0
   -5.9595    1.5078    3.1688 C   0  0  0  0  0  0  0  0  0  0  0  0
   -5.9684    0.1180    3.1728 C   0  0  0  0  0  0  0  0  0  0  0  0
   -4.9894   -0.5865    2.4831 C   0  0  0  0  0  0  0  0  0  0  0  0
   -3.3069   -0.8234   -0.3711 C   0  0  0  0  0  0  0  0  0  0  0  0
   -2.9167    0.1846   -1.2484 C   0  0  0  0  0  0  0  0  0  0  0  0
   -3.2069    0.1286   -2.5926 C   0  0  0  0  0  0  0  0  0  0  0  0
   -3.8978   -0.9379   -3.1073 C   0  0  0  0  0  0  0  0  0  0  0  0
   -4.2839   -1.9378   -2.2324 C   0  0  0  0  0  0  0  0  0  0  0  0
   -4.0018   -1.8996   -0.8786 C   0  0  0  0  0  0  0  0  0  0  0  0
    2.6400    2.2745   -1.6393 H   0  0  0  0  0  0  0  0  0  0  0  0
    2.5935    1.5168    1.0600 H   0  0  0  0  0  0  0  0  0  0  0  0
    3.4302   -0.5726    0.0069 H   0  0  0  0  0  0  0  0  0  0  0  0
    3.2460    0.2194   -1.6410 H   0  0  0  0  0  0  0  0  0  0  0  0
    6.8183    2.3812   -0.0282 H   0  0  0  0  0  0  0  0  0  0  0  0
    9.0987    1.6267   -0.6328 H   0  0  0  0  0  0  0  0  0  0  0  0
    9.4062   -0.5763   -1.6712 H   0  0  0  0  0  0  0  0  0  0  0  0
    7.3886   -2.0298   -2.1033 H   0  0  0  0  0  0  0  0  0  0  0  0
    5.1333   -1.2575   -1.4933 H   0  0  0  0  0  0  0  0  0  0  0  0
    0.5826    0.6370   -1.0967 H   0  0  0  0  0  0  0  0  0  0  0  0
    0.2992    1.5197    0.4206 H   0  0  0  0  0  0  0  0  0  0  0  0
    1.1432   -0.5413    1.5715 H   0  0  0  0  0  0  0  0  0  0  0  0
   -0.8192   -0.9131   -0.6039 H   0  0  0  0  0  0  0  0  0  0  0  0
   -0.6910   -2.0148    0.7636 H   0  0  0  0  0  0  0  0  0  0  0  0
   -1.3256   -0.1904    2.3383 H   0  0  0  0  0  0  0  0  0  0  0  0
   -1.5434    0.9633    0.9821 H   0  0  0  0  0  0  0  0  0  0  0  0
   -2.9264   -1.6968    1.4888 H   0  0  0  0  0  0  0  0  0  0  0  0
   -3.2212    2.0705    1.2412 H   0  0  0  0  0  0  0  0  0  0  0  0
   -4.9731    3.3196    2.4769 H   0  0  0  0  0  0  0  0  0  0  0  0
   -6.7271    2.0422    3.7098 H   0  0  0  0  0  0  0  0  0  0  0  0
   -6.7211   -0.4581    3.7014 H   0  0  0  0  0  0  0  0  0  0  0  0
   -5.0078   -1.6821    2.4943 H   0  0  0  0  0  0  0  0  0  0  0  0
   -2.3788    1.0220   -0.8718 H   0  0  0  0  0  0  0  0  0  0  0  0
   -2.8756    0.9423   -3.2137 H   0  0  0  0  0  0  0  0  0  0  0  0
   -4.1074   -0.9495   -4.1599 H   0  0  0  0  0  0  0  0  0  0  0  0
   -4.8355   -2.7919   -2.6316 H   0  0  0  0  0  0  0  0  0  0  0  0
   -4.2980   -2.6723   -0.1951 H   0  0  0  0  0  0  0  0  0  0  0  0
  1  2  1  0
  2  3  1  0
  3  4  1  0
  4  5  1  0
  5  6  2  0
  6  7  1  0
  7  8  2  0
  8  9  1  0
  9 10  2  0
  2 11  1  0
 11 12  1  0
 12 13  1  0
 13 14  1  0
 14 15  1  0
 15 16  1  0
 16 17  2  0
 17 18  1  0
 18 19  2  0
 19 20  1  0
 20 21  2  0
 15 22  1  0
 22 23  2  0
 23 24  1  0
 24 25  2  0
 25 26  1  0
 26 27  2  0
 10  5  1  0
 21 16  1  0
 27 22  1  0
  1 28  1  0
  2 29  1  0
  3 30  1  0
  3 31  1  0
  6 32  1  0
  7 33  1  0
  8 34  1  0
  9 35  1  0
 10 36  1  0
 11 37  1  0
 11 38  1  0
 12 39  1  0
 13 40  1  0
 13 41  1  0
 14 42  1  0
 14 43  1  0
 15 44  1  0
 17 45  1  0
 18 46  1  0
 19 47  1  0
 20 48  1  0
 21 49  1  0
 23 50  1  0
 24 51  1  0
 25 52  1  0
 26 53  1  0
 27 54  1  0
M  END
>  <Ligand ID>  (1) 
LIG0002611

>  <Ligand>  (1) 
MLS001003223

>  <SMILES>  (1) 
OC(COc1ccccc1)CNCCC(c1ccccc1)c1ccccc1

>  <CID>  (1) 
3593394.0

>  <ChEMBL ID>  (1) 
nan

>  <InChiKey>  (1) 
MCNLXNKNZVFOEA-UHFFFAOYSA-N

>  <InChi>  (1) 
InChI=1S/C24H27NO2/c26-22(19-27-23-14-8-3-9-15-23)18-25-17-16-24(20-10-4-1-5-11-20)21-12-6-2-7-13-21/h1-15,22,24-26H,16-19H2

>  <IUPAC Name>  (1) 
1-(3,3-diphenylpropylamino)-3-phenoxypropan-2-ol

$$$$
