
     RDKit          3D

 48 51  0  0  0  0  0  0  0  0999 V2000
    1.1321   -1.8793    1.5994 C   0  0  0  0  0  0  0  0  0  0  0  0
    0.2722   -0.7829    1.0608 C   0  0  1  0  0  0  0  0  0  0  0  0
    1.1229    0.2077    0.3082 C   0  0  0  0  0  0  0  0  0  0  0  0
    0.3879    1.2567   -0.4363 C   0  0  0  0  0  0  0  0  0  0  0  0
   -1.0561    1.0833   -0.2908 C   0  0  0  0  0  0  0  0  0  0  0  0
   -1.6974   -0.1105   -0.0391 C   0  0  0  0  0  0  0  0  0  0  0  0
   -0.7986   -1.3131    0.0952 C   0  0  2  0  0  0  0  0  0  0  0  0
   -1.4821   -2.4485    0.7901 C   0  0  0  0  0  0  0  0  0  0  0  0
   -0.2068   -1.6903   -1.2147 C   0  0  0  0  0  0  0  0  0  0  0  0
    1.2460   -1.5015   -1.4020 C   0  0  0  0  0  0  0  0  0  0  0  0
    1.9198   -0.5612   -0.6059 N   0  0  0  0  0  0  0  0  0  0  0  0
    2.9046    0.2005   -1.3355 C   0  0  0  0  0  0  0  0  0  0  0  0
    3.6272    1.1988   -0.5149 C   0  0  0  0  0  0  0  0  0  0  0  0
    4.4408    0.7332    0.6882 C   0  0  0  0  0  0  0  0  0  0  0  0
    5.1351    1.1636   -0.6048 C   0  0  0  0  0  0  0  0  0  0  0  0
   -3.0687   -0.2222    0.0878 C   0  0  0  0  0  0  0  0  0  0  0  0
   -3.8630    0.8974   -0.0382 C   0  0  0  0  0  0  0  0  0  0  0  0
   -3.2568    2.1112   -0.2905 C   0  0  0  0  0  0  0  0  0  0  0  0
   -1.8867    2.2006   -0.4136 C   0  0  0  0  0  0  0  0  0  0  0  0
   -5.3078    0.7769    0.0959 C   0  0  0  0  0  0  0  0  0  0  0  0
   -5.7862   -0.3671    0.3264 O   0  0  0  0  0  0  0  0  0  0  0  0
   -6.1181    1.9413   -0.0365 N   0  0  0  0  0  0  0  0  0  0  0  0
    2.1670   -1.4900    1.7877 H   0  0  0  0  0  0  0  0  0  0  0  0
    1.2464   -2.7620    0.9795 H   0  0  0  0  0  0  0  0  0  0  0  0
    0.7293   -2.1768    2.6060 H   0  0  0  0  0  0  0  0  0  0  0  0
   -0.2424   -0.2551    1.8723 H   0  0  0  0  0  0  0  0  0  0  0  0
    1.8119    0.6440    1.0904 H   0  0  0  0  0  0  0  0  0  0  0  0
    0.6209    1.2151   -1.5399 H   0  0  0  0  0  0  0  0  0  0  0  0
    0.6479    2.2939   -0.1504 H   0  0  0  0  0  0  0  0  0  0  0  0
   -1.7208   -2.1681    1.8367 H   0  0  0  0  0  0  0  0  0  0  0  0
   -0.7290   -3.2606    0.8761 H   0  0  0  0  0  0  0  0  0  0  0  0
   -2.3317   -2.8792    0.2563 H   0  0  0  0  0  0  0  0  0  0  0  0
   -0.4172   -2.7932   -1.3552 H   0  0  0  0  0  0  0  0  0  0  0  0
   -0.8020   -1.2366   -2.0616 H   0  0  0  0  0  0  0  0  0  0  0  0
    1.4130   -1.2039   -2.4803 H   0  0  0  0  0  0  0  0  0  0  0  0
    1.8149   -2.4761   -1.3423 H   0  0  0  0  0  0  0  0  0  0  0  0
    3.6257   -0.5395   -1.7367 H   0  0  0  0  0  0  0  0  0  0  0  0
    2.4752    0.7135   -2.2241 H   0  0  0  0  0  0  0  0  0  0  0  0
    3.2417    2.2289   -0.3801 H   0  0  0  0  0  0  0  0  0  0  0  0
    4.6237    1.4056    1.5255 H   0  0  0  0  0  0  0  0  0  0  0  0
    4.5133   -0.3605    0.8709 H   0  0  0  0  0  0  0  0  0  0  0  0
    5.7152    2.1025   -0.6176 H   0  0  0  0  0  0  0  0  0  0  0  0
    5.6125    0.3749   -1.2376 H   0  0  0  0  0  0  0  0  0  0  0  0
   -3.5266   -1.1839    0.2859 H   0  0  0  0  0  0  0  0  0  0  0  0
   -3.8485    3.0014   -0.3938 H   0  0  0  0  0  0  0  0  0  0  0  0
   -1.4427    3.1776   -0.6132 H   0  0  0  0  0  0  0  0  0  0  0  0
   -6.9603    1.8871   -0.6471 H   0  0  0  0  0  0  0  0  0  0  0  0
   -5.8977    2.8462    0.4565 H   0  0  0  0  0  0  0  0  0  0  0  0
  1  2  1  0
  2  3  1  0
  3  4  1  0
  4  5  1  0
  5  6  2  0
  6  7  1  0
  7  8  1  1
  7  9  1  0
  9 10  1  0
 10 11  1  0
 11 12  1  0
 12 13  1  0
 13 14  1  0
 14 15  1  0
  6 16  1  0
 16 17  2  0
 17 18  1  0
 18 19  2  0
 17 20  1  0
 20 21  2  0
 20 22  1  0
  7  2  1  0
 15 13  1  0
 11  3  1  0
 19  5  1  0
  1 23  1  0
  1 24  1  0
  1 25  1  0
  2 26  1  1
  3 27  1  0
  4 28  1  0
  4 29  1  0
  8 30  1  0
  8 31  1  0
  8 32  1  0
  9 33  1  0
  9 34  1  0
 10 35  1  0
 10 36  1  0
 12 37  1  0
 12 38  1  0
 13 39  1  0
 14 40  1  0
 14 41  1  0
 15 42  1  0
 15 43  1  0
 16 44  1  0
 18 45  1  0
 19 46  1  0
 22 47  1  0
 22 48  1  0
M  END
>  <Ligand ID>  (1) 
LIG0005521

>  <Ligand>  (1) 
8-carboxamidocyclazocine

>  <SMILES>  (1) 
C[C@H]1C2Cc3c([C@@]1(C)CCN2CC1CC1)cc(cc3)C(=O)N

>  <CID>  (1) 
10086063.0

>  <ChEMBL ID>  (1) 
nan

>  <InChiKey>  (1) 
FAVQVALXVLMHLE-BKBNBNODSA-N

>  <InChi>  (1) 
InChI=1S/C19H26N2O/c1-12-17-10-14-5-6-15(18(20)22)9-16(14)19(12,2)7-8-21(17)11-13-3-4-13/h5-6,9,12-13,17H,3-4,7-8,10-11H2,1-2H3,(H2,20,22)/t12-,17?,19-/m0/s1

>  <IUPAC Name>  (1) 
(1S,13R)-10-(cyclopropylmethyl)-1,13-dimethyl-10-azatricyclo[7.3.1.02,7]trideca-2(7),3,5-triene-4-carboxamide

$$$$
