
     RDKit          3D

139141  0  0  0  0  0  0  0  0999 V2000
  -10.0127   -0.9449    1.6653 C   0  0  0  0  0  0  0  0  0  0  0  0
   -9.1583   -1.3458    0.5039 C   0  0  0  0  0  0  0  0  0  0  0  0
   -7.9303   -2.1122    0.8651 C   0  0  1  0  0  0  0  0  0  0  0  0
   -6.9782   -1.3671    1.7792 C   0  0  2  0  0  0  0  0  0  0  0  0
   -6.5188   -0.1335    1.1569 N   0  0  0  0  0  0  0  0  0  0  0  0
   -6.8478    1.1635    1.7262 C   0  0  0  0  0  0  0  0  0  0  0  0
   -7.6111    1.0792    2.7063 O   0  0  0  0  0  0  0  0  0  0  0  0
   -6.3284    2.4339    1.1806 C   0  0  1  0  0  0  0  0  0  0  0  0
   -5.2821    2.2758    0.1870 N   0  0  0  0  0  0  0  0  0  0  0  0
   -4.1629    3.1511    0.2290 C   0  0  0  0  0  0  0  0  0  0  0  0
   -4.1917    4.0449    1.0854 O   0  0  0  0  0  0  0  0  0  0  0  0
   -2.9765    3.0877   -0.6641 C   0  0  0  0  0  0  0  0  0  0  0  0
   -2.1628    4.3516   -0.3972 C   0  0  0  0  0  0  0  0  0  0  0  0
   -0.6476    4.3616   -1.3287 S   0  0  0  0  0  0  0  0  0  0  0  0
    0.7918    2.9776   -0.6733 S   0  0  0  0  0  0  0  0  0  0  0  0
    0.6499    1.4007   -1.5392 C   0  0  0  0  0  0  0  0  0  0  0  0
    1.7760    0.4482   -0.9565 C   0  0  2  0  0  0  0  0  0  0  0  0
    1.4404    0.3273    0.4625 N   0  0  0  0  0  0  0  0  0  0  0  0
    0.6128   -0.7859    0.7981 C   0  0  0  0  0  0  0  0  0  0  0  0
    0.3082   -1.5382   -0.1294 O   0  0  0  0  0  0  0  0  0  0  0  0
    0.1032   -1.0866    2.1577 C   0  0  1  0  0  0  0  0  0  0  0  0
   -0.8554   -2.2244    2.0643 N   0  0  0  0  0  0  0  0  0  0  0  0
   -2.2004   -1.9362    1.7785 C   0  0  0  0  0  0  0  0  0  0  0  0
   -2.4433   -0.6872    1.6670 O   0  0  0  0  0  0  0  0  0  0  0  0
   -3.3460   -2.8297    1.5934 C   0  0  1  0  0  0  0  0  0  0  0  0
   -4.5723   -1.9812    1.4461 N   0  0  0  0  0  0  0  0  0  0  0  0
   -5.8269   -2.3115    1.9756 C   0  0  0  0  0  0  0  0  0  0  0  0
   -5.9104   -3.3878    2.5817 O   0  0  0  0  0  0  0  0  0  0  0  0
   -3.2825   -3.5423    0.2768 C   0  0  0  0  0  0  0  0  0  0  0  0
   -2.0649   -4.3878    0.1337 C   0  0  0  0  0  0  0  0  0  0  0  0
   -2.0121   -5.4284    1.1799 C   0  0  0  0  0  0  0  0  0  0  0  0
   -2.9276   -5.7239    1.9698 O   0  0  0  0  0  0  0  0  0  0  0  0
   -0.7928   -6.1690    1.2984 N   0  0  0  0  0  0  0  0  0  0  0  0
    1.1640   -1.5230    3.1165 C   0  0  0  0  0  0  0  0  0  0  0  0
    1.8102   -2.7479    2.5966 C   0  0  0  0  0  0  0  0  0  0  0  0
    1.5722   -3.2846    1.4940 O   0  0  0  0  0  0  0  0  0  0  0  0
    2.7865   -3.3680    3.4253 N   0  0  0  0  0  0  0  0  0  0  0  0
    2.9903    1.1641   -1.2725 C   0  0  0  0  0  0  0  0  0  0  0  0
    3.5262    1.9095   -0.3948 O   0  0  0  0  0  0  0  0  0  0  0  0
    3.6530    1.1038   -2.5285 N   0  0  0  0  0  0  0  0  0  0  0  0
    3.2650    0.1464   -3.5715 C   0  0  0  0  0  0  0  0  0  0  0  0
    4.0782   -1.0669   -3.5920 C   0  0  0  0  0  0  0  0  0  0  0  0
    5.2286   -1.0449   -4.3939 C   0  0  0  0  0  0  0  0  0  0  0  0
    6.0610   -2.1169   -4.4977 C   0  0  0  0  0  0  0  0  0  0  0  0
    5.8007   -3.2832   -3.8073 C   0  0  0  0  0  0  0  0  0  0  0  0
    4.6754   -3.3160   -3.0186 C   0  0  0  0  0  0  0  0  0  0  0  0
    3.8112   -2.2285   -2.8998 C   0  0  0  0  0  0  0  0  0  0  0  0
    6.6535   -4.3388   -3.9351 F   0  0  0  0  0  0  0  0  0  0  0  0
    4.6891    2.0297   -2.9305 C   0  0  0  0  0  0  0  0  0  0  0  0
    6.0463    1.6513   -2.4978 C   0  0  0  0  0  0  0  0  0  0  0  0
    6.9689    2.4029   -2.9598 O   0  0  0  0  0  0  0  0  0  0  0  0
    6.3513    0.5885   -1.6604 N   0  0  0  0  0  0  0  0  0  0  0  0
    7.6480    0.1323   -1.2024 C   0  0  2  0  0  0  0  0  0  0  0  0
    7.6809   -0.4189    0.1375 C   0  0  0  0  0  0  0  0  0  0  0  0
    8.6202   -1.0248    0.6936 O   0  0  0  0  0  0  0  0  0  0  0  0
    6.5053   -0.2668    0.9731 N   0  0  0  0  0  0  0  0  0  0  0  0
    6.6554   -0.8502    2.3071 C   0  0  0  0  0  0  0  0  0  0  0  0
    5.3967   -0.6022    3.0460 C   0  0  0  0  0  0  0  0  0  0  0  0
    4.4792    0.0159    2.4559 O   0  0  0  0  0  0  0  0  0  0  0  0
    5.3146   -1.0830    4.3774 N   0  0  0  0  0  0  0  0  0  0  0  0
    8.6704    1.2761   -1.3198 C   0  0  0  0  0  0  0  0  0  0  0  0
   10.0180    0.8290   -0.7958 C   0  0  0  0  0  0  0  0  0  0  0  0
   10.6055   -0.3424   -1.5109 C   0  0  0  0  0  0  0  0  0  0  0  0
   11.0067    2.0109   -1.0238 C   0  0  0  0  0  0  0  0  0  0  0  0
   -7.4802    3.1127    0.4226 C   0  0  0  0  0  0  0  0  0  0  0  0
   -7.0203    4.4005   -0.1564 C   0  0  0  0  0  0  0  0  0  0  0  0
   -6.4909    4.5068   -1.4243 C   0  0  0  0  0  0  0  0  0  0  0  0
   -6.0780    5.7363   -1.8887 C   0  0  0  0  0  0  0  0  0  0  0  0
   -6.1705    6.8953   -1.1271 C   0  0  0  0  0  0  0  0  0  0  0  0
   -6.6909    6.7886    0.1179 C   0  0  0  0  0  0  0  0  0  0  0  0
   -7.1083    5.5515    0.5888 C   0  0  0  0  0  0  0  0  0  0  0  0
   -5.7429    8.1346   -1.6214 O   0  0  0  0  0  0  0  0  0  0  0  0
   -8.2821   -3.4155    1.4960 C   0  0  0  0  0  0  0  0  0  0  0  0
  -10.1136    0.1775    1.6356 H   0  0  0  0  0  0  0  0  0  0  0  0
   -9.6317   -1.2674    2.6560 H   0  0  0  0  0  0  0  0  0  0  0  0
  -11.0461   -1.3307    1.5749 H   0  0  0  0  0  0  0  0  0  0  0  0
   -8.9657   -0.4833   -0.1889 H   0  0  0  0  0  0  0  0  0  0  0  0
   -9.7747   -2.0399   -0.1263 H   0  0  0  0  0  0  0  0  0  0  0  0
   -7.3549   -2.2417   -0.0948 H   0  0  0  0  0  0  0  0  0  0  0  0
   -7.4308   -1.1622    2.7520 H   0  0  0  0  0  0  0  0  0  0  0  0
   -5.9706   -0.0704    0.3027 H   0  0  0  0  0  0  0  0  0  0  0  0
   -5.9408    3.1342    1.9570 H   0  0  0  0  0  0  0  0  0  0  0  0
   -5.2618    1.5867   -0.5657 H   0  0  0  0  0  0  0  0  0  0  0  0
   -3.2220    3.0178   -1.7219 H   0  0  0  0  0  0  0  0  0  0  0  0
   -2.3167    2.2317   -0.4133 H   0  0  0  0  0  0  0  0  0  0  0  0
   -2.7614    5.2567   -0.7150 H   0  0  0  0  0  0  0  0  0  0  0  0
   -2.0174    4.4876    0.6978 H   0  0  0  0  0  0  0  0  0  0  0  0
    0.8471    1.5484   -2.5946 H   0  0  0  0  0  0  0  0  0  0  0  0
   -0.3346    0.9443   -1.3792 H   0  0  0  0  0  0  0  0  0  0  0  0
    1.6296   -0.4522   -1.5359 H   0  0  0  0  0  0  0  0  0  0  0  0
    1.7246    0.9275    1.2126 H   0  0  0  0  0  0  0  0  0  0  0  0
   -0.4591   -0.1697    2.4504 H   0  0  0  0  0  0  0  0  0  0  0  0
   -0.5945   -3.1841    2.2240 H   0  0  0  0  0  0  0  0  0  0  0  0
   -3.4833   -3.5582    2.3757 H   0  0  0  0  0  0  0  0  0  0  0  0
   -4.4571   -1.1262    0.9348 H   0  0  0  0  0  0  0  0  0  0  0  0
   -4.2242   -4.1729    0.2334 H   0  0  0  0  0  0  0  0  0  0  0  0
   -3.3299   -2.7860   -0.5501 H   0  0  0  0  0  0  0  0  0  0  0  0
   -1.1164   -3.8384    0.1149 H   0  0  0  0  0  0  0  0  0  0  0  0
   -2.1336   -4.9544   -0.8714 H   0  0  0  0  0  0  0  0  0  0  0  0
   -0.2640   -6.2380    2.2117 H   0  0  0  0  0  0  0  0  0  0  0  0
   -0.4526   -6.6391    0.4361 H   0  0  0  0  0  0  0  0  0  0  0  0
    1.9671   -0.7369    3.1782 H   0  0  0  0  0  0  0  0  0  0  0  0
    0.7530   -1.6701    4.1385 H   0  0  0  0  0  0  0  0  0  0  0  0
    2.8053   -3.1969    4.4578 H   0  0  0  0  0  0  0  0  0  0  0  0
    3.5262   -4.0197    3.0640 H   0  0  0  0  0  0  0  0  0  0  0  0
    3.3092    0.6693   -4.5542 H   0  0  0  0  0  0  0  0  0  0  0  0
    2.2237   -0.1388   -3.3930 H   0  0  0  0  0  0  0  0  0  0  0  0
    5.4581   -0.1528   -4.9484 H   0  0  0  0  0  0  0  0  0  0  0  0
    6.9479   -2.0764   -5.1254 H   0  0  0  0  0  0  0  0  0  0  0  0
    4.4898   -4.2455   -2.4860 H   0  0  0  0  0  0  0  0  0  0  0  0
    2.9353   -2.2765   -2.2758 H   0  0  0  0  0  0  0  0  0  0  0  0
    4.4648    3.0589   -2.5084 H   0  0  0  0  0  0  0  0  0  0  0  0
    4.6451    2.1651   -4.0232 H   0  0  0  0  0  0  0  0  0  0  0  0
    5.5277    0.0118   -1.3012 H   0  0  0  0  0  0  0  0  0  0  0  0
    8.0346   -0.5756   -1.9790 H   0  0  0  0  0  0  0  0  0  0  0  0
    5.6485    0.2005    0.6755 H   0  0  0  0  0  0  0  0  0  0  0  0
    6.9087   -1.9116    2.1930 H   0  0  0  0  0  0  0  0  0  0  0  0
    7.5412   -0.3545    2.7879 H   0  0  0  0  0  0  0  0  0  0  0  0
    4.7929   -1.9075    4.6893 H   0  0  0  0  0  0  0  0  0  0  0  0
    5.8359   -0.5555    5.1415 H   0  0  0  0  0  0  0  0  0  0  0  0
    8.3669    2.1755   -0.8051 H   0  0  0  0  0  0  0  0  0  0  0  0
    8.8220    1.4839   -2.4145 H   0  0  0  0  0  0  0  0  0  0  0  0
    9.9748    0.7316    0.2874 H   0  0  0  0  0  0  0  0  0  0  0  0
   10.8731   -1.1579   -0.7779 H   0  0  0  0  0  0  0  0  0  0  0  0
   11.5685   -0.0605   -2.0451 H   0  0  0  0  0  0  0  0  0  0  0  0
    9.9665   -0.7248   -2.3270 H   0  0  0  0  0  0  0  0  0  0  0  0
   11.0604    2.2069   -2.1297 H   0  0  0  0  0  0  0  0  0  0  0  0
   10.6556    2.8858   -0.4599 H   0  0  0  0  0  0  0  0  0  0  0  0
   11.9781    1.6585   -0.6921 H   0  0  0  0  0  0  0  0  0  0  0  0
   -8.2847    3.3115    1.1294 H   0  0  0  0  0  0  0  0  0  0  0  0
   -7.7280    2.4418   -0.4179 H   0  0  0  0  0  0  0  0  0  0  0  0
   -6.4003    3.6327   -2.0498 H   0  0  0  0  0  0  0  0  0  0  0  0
   -5.6466    5.8792   -2.8896 H   0  0  0  0  0  0  0  0  0  0  0  0
   -6.8103    7.6225    0.7953 H   0  0  0  0  0  0  0  0  0  0  0  0
   -7.5261    5.4710    1.5877 H   0  0  0  0  0  0  0  0  0  0  0  0
   -6.3091    8.5462   -2.3755 H   0  0  0  0  0  0  0  0  0  0  0  0
   -9.2819   -3.7210    1.0932 H   0  0  0  0  0  0  0  0  0  0  0  0
   -8.3527   -3.2899    2.5861 H   0  0  0  0  0  0  0  0  0  0  0  0
   -7.5918   -4.2216    1.1639 H   0  0  0  0  0  0  0  0  0  0  0  0
  1  2  1  0
  2  3  1  0
  3  4  1  0
  4  5  1  0
  5  6  1  0
  6  7  2  0
  6  8  1  0
  8  9  1  0
  9 10  1  0
 10 11  2  0
 10 12  1  0
 12 13  1  0
 13 14  1  0
 14 15  1  0
 15 16  1  0
 16 17  1  0
 17 18  1  0
 18 19  1  0
 19 20  2  0
 19 21  1  0
 21 22  1  0
 22 23  1  0
 23 24  2  0
 23 25  1  0
 25 26  1  0
 26 27  1  0
 27 28  2  0
 25 29  1  0
 29 30  1  0
 30 31  1  0
 31 32  2  0
 31 33  1  0
 21 34  1  0
 34 35  1  0
 35 36  2  0
 35 37  1  0
 17 38  1  0
 38 39  2  0
 38 40  1  0
 40 41  1  0
 41 42  1  0
 42 43  2  0
 43 44  1  0
 44 45  2  0
 45 46  1  0
 46 47  2  0
 45 48  1  0
 40 49  1  0
 49 50  1  0
 50 51  2  0
 50 52  1  0
 52 53  1  0
 53 54  1  0
 54 55  2  0
 54 56  1  0
 56 57  1  0
 57 58  1  0
 58 59  2  0
 58 60  1  0
 53 61  1  0
 61 62  1  0
 62 63  1  0
 62 64  1  0
  8 65  1  0
 65 66  1  0
 66 67  2  0
 67 68  1  0
 68 69  2  0
 69 70  1  0
 70 71  2  0
 69 72  1  0
  3 73  1  0
 27  4  1  0
 47 42  1  0
 71 66  1  0
  1 74  1  0
  1 75  1  0
  1 76  1  0
  2 77  1  0
  2 78  1  0
  3 79  1  6
  4 80  1  1
  5 81  1  0
  8 82  1  1
  9 83  1  0
 12 84  1  0
 12 85  1  0
 13 86  1  0
 13 87  1  0
 16 88  1  0
 16 89  1  0
 17 90  1  6
 18 91  1  0
 21 92  1  1
 22 93  1  0
 25 94  1  1
 26 95  1  0
 29 96  1  0
 29 97  1  0
 30 98  1  0
 30 99  1  0
 33100  1  0
 33101  1  0
 34102  1  0
 34103  1  0
 37104  1  0
 37105  1  0
 41106  1  0
 41107  1  0
 43108  1  0
 44109  1  0
 46110  1  0
 47111  1  0
 49112  1  0
 49113  1  0
 52114  1  0
 53115  1  6
 56116  1  0
 57117  1  0
 57118  1  0
 60119  1  0
 60120  1  0
 61121  1  0
 61122  1  0
 62123  1  0
 63124  1  0
 63125  1  0
 63126  1  0
 64127  1  0
 64128  1  0
 64129  1  0
 65130  1  0
 65131  1  0
 67132  1  0
 68133  1  0
 70134  1  0
 71135  1  0
 72136  1  0
 73137  1  0
 73138  1  0
 73139  1  0
M  END
>  <Ligand ID>  (1) 
LIG0001632

>  <Ligand>  (1) 
CHEMBL3353948

>  <SMILES>  (1) 
CC[C@@H]([C@@H]1NC(=O)[C@@H](NC(=O)CCSSC[C@H](NC(=O)[C@@H](NC(=O)[C@@H](NC1=O)CCC(=O)N)CC(=O)N)C(=O)N(Cc1ccc(cc1)F)CC(=O)N[C@H](C(=O)NCC(=O)N)CC(C)C)Cc1ccc(cc1)O)C

>  <CID>  (1) 
118719837.0

>  <ChEMBL ID>  (1) 
nan

>  <InChiKey>  (1) 
OBPIZQPOWAKUBG-STSAMRHRSA-N

>  <InChi>  (1) 
InChI=1S/C47H66FN11O12S2/c1-5-26(4)41-46(70)55-31(14-15-36(49)61)43(67)56-34(20-37(50)62)44(68)57-35(24-73-72-17-16-39(64)53-33(45(69)58-41)19-27-8-12-30(60)13-9-27)47(71)59(22-28-6-10-29(48)11-7-28)23-40(65)54-32(18-25(2)3)42(66)52-21-38(51)63/h6-13,25-26,31-35,41,60H,5,14-24H2,1-4H3,(H2,49,61)(H2,50,62)(H2,51,63)(H,52,66)(H,53,64)(H,54,65)(H,55,70)(H,56,67)(H,57,68)(H,58,69)/t26-,31-,32-,33-,34-,35-,41-/m0/s1

>  <IUPAC Name>  (1) 
(4R,7S,10S,13S,16S)-7-(2-amino-2-oxoethyl)-N-[2-[[(2S)-1-[(2-amino-2-oxoethyl)amino]-4-methyl-1-oxopentan-2-yl]amino]-2-oxoethyl]-10-(3-amino-3-oxopropyl)-13-[(2S)-butan-2-yl]-N-[(4-fluorophenyl)methyl]-16-[(4-hydroxyphenyl)methyl]-6,9,12,15,18-pentaoxo-1,2-dithia-5,8,11,14,17-pentazacycloicosane-4-carboxamide

$$$$
