
     RDKit          3D

 33 34  0  0  0  0  0  0  0  0999 V2000
   -4.2894    2.5387    1.1368 Cl  0  0  0  0  0  0  0  0  0  0  0  0
   -2.8030    2.2552    0.2673 C   0  0  0  0  0  0  0  0  0  0  0  0
   -2.2347    3.2984   -0.4005 C   0  0  0  0  0  0  0  0  0  0  0  0
   -1.0615    3.0612   -1.0832 C   0  0  0  0  0  0  0  0  0  0  0  0
   -0.4886    1.8154   -1.0877 C   0  0  0  0  0  0  0  0  0  0  0  0
   -1.0431    0.7225   -0.4134 C   0  0  0  0  0  0  0  0  0  0  0  0
   -2.2157    0.9842    0.2615 C   0  0  0  0  0  0  0  0  0  0  0  0
   -0.4207   -0.5527   -0.4042 N   0  0  0  0  0  0  0  0  0  0  0  0
   -1.0456   -1.7347    0.2105 C   0  0  0  0  0  0  0  0  0  0  0  0
   -1.1297   -2.8610   -0.8040 C   0  0  0  0  0  0  0  0  0  0  0  0
   -0.2680   -2.1904    1.4018 C   0  0  0  0  0  0  0  0  0  0  0  0
    0.9108   -0.7906   -0.9504 C   0  0  0  0  0  0  0  0  0  0  0  0
    2.0053   -0.2195   -0.1423 C   0  0  0  0  0  0  0  0  0  0  0  0
    2.5549   -0.8978    0.9016 N   0  0  0  0  0  0  0  0  0  0  0  0
    3.5341   -0.2055    1.4780 C   0  0  0  0  0  0  0  0  0  0  0  0
    3.6238    0.9774    0.7746 C   0  0  0  0  0  0  0  0  0  0  0  0
    2.6785    0.9241   -0.1974 N   0  0  0  0  0  0  0  0  0  0  0  0
   -2.6385    4.2934   -0.4313 H   0  0  0  0  0  0  0  0  0  0  0  0
   -0.5947    3.8759   -1.6194 H   0  0  0  0  0  0  0  0  0  0  0  0
    0.4123    1.6861   -1.6506 H   0  0  0  0  0  0  0  0  0  0  0  0
   -2.7503    0.2389    0.8255 H   0  0  0  0  0  0  0  0  0  0  0  0
   -2.0781   -1.5554    0.5492 H   0  0  0  0  0  0  0  0  0  0  0  0
   -1.4041   -2.4774   -1.7957 H   0  0  0  0  0  0  0  0  0  0  0  0
   -1.9225   -3.5407   -0.4743 H   0  0  0  0  0  0  0  0  0  0  0  0
   -0.1668   -3.4185   -0.8143 H   0  0  0  0  0  0  0  0  0  0  0  0
    0.5584   -2.8361    1.0478 H   0  0  0  0  0  0  0  0  0  0  0  0
    0.0619   -1.3713    2.0511 H   0  0  0  0  0  0  0  0  0  0  0  0
   -0.9279   -2.8776    1.9974 H   0  0  0  0  0  0  0  0  0  0  0  0
    1.1128   -1.8601   -1.0842 H   0  0  0  0  0  0  0  0  0  0  0  0
    1.0036   -0.3121   -1.9617 H   0  0  0  0  0  0  0  0  0  0  0  0
    4.1495   -0.4762    2.3171 H   0  0  0  0  0  0  0  0  0  0  0  0
    4.3164    1.7965    0.9600 H   0  0  0  0  0  0  0  0  0  0  0  0
    2.5603    1.7097   -0.8657 H   0  0  0  0  0  0  0  0  0  0  0  0
  1  2  1  0
  2  3  2  0
  3  4  1  0
  4  5  2  0
  5  6  1  0
  6  7  2  0
  6  8  1  0
  8  9  1  0
  9 10  1  0
  9 11  1  0
  8 12  1  0
 12 13  1  0
 13 14  2  0
 14 15  1  0
 15 16  2  0
 16 17  1  0
  7  2  1  0
 17 13  1  0
  3 18  1  0
  4 19  1  0
  5 20  1  0
  7 21  1  0
  9 22  1  0
 10 23  1  0
 10 24  1  0
 10 25  1  0
 11 26  1  0
 11 27  1  0
 11 28  1  0
 12 29  1  0
 12 30  1  0
 15 31  1  0
 16 32  1  0
 17 33  1  0
M  END
>  <Ligand ID>  (1) 
LIG0003478

>  <Ligand>  (1) 
CHEMBL2206371

>  <SMILES>  (1) 
Clc1cccc(c1)N(C(C)C)Cc1ncc[nH]1

>  <CID>  (1) 
24894367.0

>  <ChEMBL ID>  (1) 
nan

>  <InChiKey>  (1) 
QGZAJIFGXCMZIC-UHFFFAOYSA-N

>  <InChi>  (1) 
InChI=1S/C13H16ClN3/c1-10(2)17(9-13-15-6-7-16-13)12-5-3-4-11(14)8-12/h3-8,10H,9H2,1-2H3,(H,15,16)

>  <IUPAC Name>  (1) 
3-chloro-N-(1H-imidazol-2-ylmethyl)-N-propan-2-ylaniline

$$$$
