
     RDKit          3D

 45 46  0  0  0  0  0  0  0  0999 V2000
    6.8445    2.4430    1.5564 C   0  0  0  0  0  0  0  0  0  0  0  0
    7.2287    1.3547    1.1849 C   0  0  0  0  0  0  0  0  0  0  0  0
    7.6827    0.0468    0.7172 C   0  0  0  0  0  0  0  0  0  0  0  0
    6.6294   -0.5280   -0.1919 C   0  0  0  0  0  0  0  0  0  0  0  0
    5.3995   -0.6899    0.4532 O   0  0  0  0  0  0  0  0  0  0  0  0
    4.3286   -1.3441   -0.7037 P   0  0  0  0  0  0  0  0  0  0  0  0
    3.8900   -0.2362   -1.6247 O   0  0  0  0  0  0  0  0  0  0  0  0
    2.9636   -1.9763    0.1072 O   0  0  0  0  0  0  0  0  0  0  0  0
    2.4784   -0.8161    1.2407 P   0  0  0  0  0  0  0  0  0  0  0  0
    3.1818   -1.0843    2.5487 O   0  0  0  0  0  0  0  0  0  0  0  0
    0.7917   -0.9397    1.4100 O   0  0  0  0  0  0  0  0  0  0  0  0
    0.1407   -0.0887    0.5041 C   0  0  0  0  0  0  0  0  0  0  0  0
   -1.3421   -0.2471    0.7068 C   0  0  1  0  0  0  0  0  0  0  0  0
   -2.0938    0.5707   -0.1596 O   0  0  0  0  0  0  0  0  0  0  0  0
   -3.3741    0.1846    0.2887 C   0  0  2  0  0  0  0  0  0  0  0  0
   -3.3331   -1.3007    0.0716 C   0  0  1  0  0  0  0  0  0  0  0  0
   -1.8505   -1.5990    0.3321 C   0  0  2  0  0  0  0  0  0  0  0  0
   -1.7000   -2.4324    1.4431 O   0  0  0  0  0  0  0  0  0  0  0  0
   -4.1112   -1.8629    1.1074 O   0  0  0  0  0  0  0  0  0  0  0  0
   -4.4255    0.8862   -0.3415 N   0  0  0  0  0  0  0  0  0  0  0  0
   -4.6839    0.6771   -1.6381 C   0  0  0  0  0  0  0  0  0  0  0  0
   -5.7119    1.3592   -2.2657 C   0  0  0  0  0  0  0  0  0  0  0  0
   -6.4838    2.2689   -1.5479 C   0  0  0  0  0  0  0  0  0  0  0  0
   -7.4328    2.9067   -2.1031 O   0  0  0  0  0  0  0  0  0  0  0  0
   -6.1731    2.4315   -0.2547 N   0  0  0  0  0  0  0  0  0  0  0  0
   -5.1745    1.7695    0.3568 C   0  0  0  0  0  0  0  0  0  0  0  0
   -4.8819    2.0500    1.9553 S   0  0  0  0  0  0  0  0  0  0  0  0
    2.8368    0.7498    0.6772 O   0  0  0  0  0  0  0  0  0  0  0  0
    5.1088   -2.6013   -1.5145 O   0  0  0  0  0  0  0  0  0  0  0  0
    6.4959    3.3775    1.8820 H   0  0  0  0  0  0  0  0  0  0  0  0
    8.6189    0.0980    0.1340 H   0  0  0  0  0  0  0  0  0  0  0  0
    7.8203   -0.6123    1.6122 H   0  0  0  0  0  0  0  0  0  0  0  0
    6.9367   -1.4609   -0.6795 H   0  0  0  0  0  0  0  0  0  0  0  0
    6.4362    0.2133   -1.0070 H   0  0  0  0  0  0  0  0  0  0  0  0
    0.4572   -0.4242   -0.4939 H   0  0  0  0  0  0  0  0  0  0  0  0
    0.4855    0.9394    0.6476 H   0  0  0  0  0  0  0  0  0  0  0  0
   -1.6642    0.0002    1.7290 H   0  0  0  0  0  0  0  0  0  0  0  0
   -3.3455    0.3665    1.3826 H   0  0  0  0  0  0  0  0  0  0  0  0
   -3.6440   -1.6464   -0.9108 H   0  0  0  0  0  0  0  0  0  0  0  0
   -1.3800   -2.0230   -0.5688 H   0  0  0  0  0  0  0  0  0  0  0  0
   -2.1456   -3.3030    1.3403 H   0  0  0  0  0  0  0  0  0  0  0  0
   -5.0520   -1.7395    0.7876 H   0  0  0  0  0  0  0  0  0  0  0  0
   -4.0981   -0.0237   -2.2142 H   0  0  0  0  0  0  0  0  0  0  0  0
   -5.9032    1.1730   -3.3195 H   0  0  0  0  0  0  0  0  0  0  0  0
   -6.7511    3.1131    0.2842 H   0  0  0  0  0  0  0  0  0  0  0  0
  1  2  3  0
  2  3  1  0
  3  4  1  0
  4  5  1  0
  5  6  1  0
  6  7  2  0
  6  8  1  0
  8  9  1  0
  9 10  2  0
  9 11  1  0
 11 12  1  0
 12 13  1  0
 13 14  1  0
 14 15  1  0
 15 16  1  0
 16 17  1  0
 17 18  1  0
 16 19  1  0
 15 20  1  0
 20 21  1  0
 21 22  2  0
 22 23  1  0
 23 24  2  0
 23 25  1  0
 25 26  1  0
 26 27  2  0
  9 28  1  0
  6 29  1  0
 17 13  1  0
 26 20  1  0
  1 30  1  0
  3 31  1  0
  3 32  1  0
  4 33  1  0
  4 34  1  0
 12 35  1  0
 12 36  1  0
 13 37  1  1
 15 38  1  1
 16 39  1  6
 17 40  1  6
 18 41  1  0
 19 42  1  0
 21 43  1  0
 22 44  1  0
 25 45  1  0
M  CHG  2  28  -1  29  -1
M  END
>  <Ligand ID>  (1) 
LIG0005601

>  <Ligand>  (1) 
BDBM50303333

>  <SMILES>  (1) 
C#CCCOP(=O)(OP(=O)(OC[C@H]1O[C@H]([C@@H]([C@@H]1O)O)n1ccc(=O)[nH]c1=S)[O-])[O-]

>  <CID>  (1) 
91933947.0

>  <ChEMBL ID>  (1) 
nan

>  <InChiKey>  (1) 
OXAAFKZQDBSFCY-HJQYOEGKSA-L

>  <InChi>  (1) 
InChI=1S/C13H18N2O11P2S/c1-2-3-6-23-27(19,20)26-28(21,22)24-7-8-10(17)11(18)12(25-8)15-5-4-9(16)14-13(15)29/h1,4-5,8,10-12,17-18H,3,6-7H2,(H,19,20)(H,21,22)(H,14,16,29)/p-2/t8-,10-,11-,12-/m1/s1

>  <IUPAC Name>  (1) 
[but-3-ynoxy(oxido)phosphoryl] [(2R,3S,4R,5R)-3,4-dihydroxy-5-(4-oxo-2-sulfanylidenepyrimidin-1-yl)oxolan-2-yl]methyl phosphate

$$$$
