
     RDKit          3D

 63 64  0  0  0  0  0  0  0  0999 V2000
   -1.2254    0.0057    3.2286 C   0  0  0  0  0  0  0  0  0  0  0  0
   -1.8217   -0.1845    1.8765 C   0  0  0  0  0  0  0  0  0  0  0  0
   -1.0179   -0.5569    0.8313 C   0  0  0  0  0  0  0  0  0  0  0  0
    0.3282   -0.7429    1.0769 O   0  0  0  0  0  0  0  0  0  0  0  0
    1.2748   -1.1201    0.1261 C   0  0  0  0  0  0  0  0  0  0  0  0
    2.6127   -1.1981    0.8576 C   0  0  0  0  0  0  0  0  0  0  0  0
    2.8615    0.2153    1.4166 C   0  0  0  0  0  0  0  0  0  0  0  0
    4.1667    0.1974    2.1476 C   0  0  0  0  0  0  0  0  0  0  0  0
    5.2112   -0.1459    1.3477 O   0  0  0  0  0  0  0  0  0  0  0  0
    5.7492    0.4651    0.2834 C   0  0  0  0  0  0  0  0  0  0  0  0
    5.3987    1.6572   -0.2949 C   0  0  0  0  0  0  0  0  0  0  0  0
    6.0467    2.1858   -1.4062 C   0  0  0  0  0  0  0  0  0  0  0  0
    7.0820    1.5078   -1.9652 C   0  0  0  0  0  0  0  0  0  0  0  0
    7.4764    0.3065   -1.4246 C   0  0  0  0  0  0  0  0  0  0  0  0
    6.8335   -0.1962   -0.3400 C   0  0  0  0  0  0  0  0  0  0  0  0
    7.3144   -1.5104    0.1989 C   0  0  0  0  0  0  0  0  0  0  0  0
    8.5942   -0.3865   -2.0584 C   0  0  0  0  0  0  0  0  0  0  0  0
    9.0384   -1.4953   -1.6446 O   0  0  0  0  0  0  0  0  0  0  0  0
    9.2445    0.1444   -3.1733 O   0  0  0  0  0  0  0  0  0  0  0  0
   -1.6050   -0.7235   -0.4060 C   0  0  0  0  0  0  0  0  0  0  0  0
   -2.9794   -0.5141   -0.5677 C   0  0  0  0  0  0  0  0  0  0  0  0
   -3.7548   -0.1397    0.5095 C   0  0  0  0  0  0  0  0  0  0  0  0
   -3.1820    0.0319    1.7575 C   0  0  0  0  0  0  0  0  0  0  0  0
   -3.9297    0.4067    2.8593 O   0  0  0  0  0  0  0  0  0  0  0  0
   -5.1902    0.0928    0.4032 C   0  0  0  0  0  0  0  0  0  0  0  0
   -5.8261    0.4281    1.4158 O   0  0  0  0  0  0  0  0  0  0  0  0
   -5.8176   -0.0879   -0.9312 C   0  0  0  0  0  0  0  0  0  0  0  0
   -7.3055    0.1896   -0.8734 C   0  0  0  0  0  0  0  0  0  0  0  0
   -8.0124   -0.7311    0.0846 C   0  0  0  0  0  0  0  0  0  0  0  0
   -7.9150   -0.0026   -2.2400 C   0  0  0  0  0  0  0  0  0  0  0  0
   -7.4766    1.6223   -0.4421 C   0  0  0  0  0  0  0  0  0  0  0  0
   -0.6931   -0.8778    3.6022 H   0  0  0  0  0  0  0  0  0  0  0  0
   -0.4439    0.8028    3.0746 H   0  0  0  0  0  0  0  0  0  0  0  0
   -1.9394    0.3707    3.9604 H   0  0  0  0  0  0  0  0  0  0  0  0
    1.0531   -2.0559   -0.4171 H   0  0  0  0  0  0  0  0  0  0  0  0
    1.3485   -0.3273   -0.6422 H   0  0  0  0  0  0  0  0  0  0  0  0
    3.3703   -1.4704    0.1254 H   0  0  0  0  0  0  0  0  0  0  0  0
    2.5534   -1.9027    1.7091 H   0  0  0  0  0  0  0  0  0  0  0  0
    2.0505    0.4793    2.1339 H   0  0  0  0  0  0  0  0  0  0  0  0
    2.8590    0.9591    0.6237 H   0  0  0  0  0  0  0  0  0  0  0  0
    4.3095    1.2070    2.6554 H   0  0  0  0  0  0  0  0  0  0  0  0
    4.0201   -0.4874    3.0277 H   0  0  0  0  0  0  0  0  0  0  0  0
    4.6050    2.2587    0.1055 H   0  0  0  0  0  0  0  0  0  0  0  0
    5.7559    3.1270   -1.8492 H   0  0  0  0  0  0  0  0  0  0  0  0
    7.5855    1.9092   -2.8213 H   0  0  0  0  0  0  0  0  0  0  0  0
    8.3628   -1.4031    0.5853 H   0  0  0  0  0  0  0  0  0  0  0  0
    7.1824   -2.3358   -0.5109 H   0  0  0  0  0  0  0  0  0  0  0  0
    6.6915   -1.7589    1.0829 H   0  0  0  0  0  0  0  0  0  0  0  0
   10.2149   -0.1051   -3.3163 H   0  0  0  0  0  0  0  0  0  0  0  0
   -1.0008   -1.0132   -1.2361 H   0  0  0  0  0  0  0  0  0  0  0  0
   -3.4310   -0.6481   -1.5462 H   0  0  0  0  0  0  0  0  0  0  0  0
   -4.2164    1.3344    3.0875 H   0  0  0  0  0  0  0  0  0  0  0  0
   -5.3192    0.4611   -1.7335 H   0  0  0  0  0  0  0  0  0  0  0  0
   -5.6861   -1.1795   -1.1855 H   0  0  0  0  0  0  0  0  0  0  0  0
   -8.0353   -0.3379    1.1178 H   0  0  0  0  0  0  0  0  0  0  0  0
   -9.0517   -0.8668   -0.2837 H   0  0  0  0  0  0  0  0  0  0  0  0
   -7.5061   -1.7283    0.0522 H   0  0  0  0  0  0  0  0  0  0  0  0
   -8.8533    0.5916   -2.2754 H   0  0  0  0  0  0  0  0  0  0  0  0
   -8.1322   -1.0828   -2.4495 H   0  0  0  0  0  0  0  0  0  0  0  0
   -7.2012    0.3791   -3.0004 H   0  0  0  0  0  0  0  0  0  0  0  0
   -7.9194    2.2226   -1.2622 H   0  0  0  0  0  0  0  0  0  0  0  0
   -8.1798    1.6631    0.3944 H   0  0  0  0  0  0  0  0  0  0  0  0
   -6.5275    2.0943   -0.1604 H   0  0  0  0  0  0  0  0  0  0  0  0
  1  2  1  0
  2  3  2  0
  3  4  1  0
  4  5  1  0
  5  6  1  0
  6  7  1  0
  7  8  1  0
  8  9  1  0
  9 10  1  0
 10 11  2  0
 11 12  1  0
 12 13  2  0
 13 14  1  0
 14 15  2  0
 15 16  1  0
 14 17  1  0
 17 18  2  0
 17 19  1  0
  3 20  1  0
 20 21  2  0
 21 22  1  0
 22 23  2  0
 23 24  1  0
 22 25  1  0
 25 26  2  0
 25 27  1  0
 27 28  1  0
 28 29  1  0
 28 30  1  0
 28 31  1  0
 23  2  1  0
 15 10  1  0
  1 32  1  0
  1 33  1  0
  1 34  1  0
  5 35  1  0
  5 36  1  0
  6 37  1  0
  6 38  1  0
  7 39  1  0
  7 40  1  0
  8 41  1  0
  8 42  1  0
 11 43  1  0
 12 44  1  0
 13 45  1  0
 16 46  1  0
 16 47  1  0
 16 48  1  0
 19 49  1  0
 20 50  1  0
 21 51  1  0
 24 52  1  0
 27 53  1  0
 27 54  1  0
 29 55  1  0
 29 56  1  0
 29 57  1  0
 30 58  1  0
 30 59  1  0
 30 60  1  0
 31 61  1  0
 31 62  1  0
 31 63  1  0
M  END
>  <Ligand ID>  (1) 
LIG0003660

>  <Ligand>  (1) 
CHEMBL3287725

>  <SMILES>  (1) 
Cc1c(OCCCCOc2cccc(c2C)C(=O)O)ccc(c1O)C(=O)CC(C)(C)C

>  <CID>  (1) 
86765132.0

>  <ChEMBL ID>  (1) 
nan

>  <InChiKey>  (1) 
AXCUOQYTJKESER-UHFFFAOYSA-N

>  <InChi>  (1) 
InChI=1S/C25H32O6/c1-16-18(24(28)29)9-8-10-21(16)30-13-6-7-14-31-22-12-11-19(23(27)17(22)2)20(26)15-25(3,4)5/h8-12,27H,6-7,13-15H2,1-5H3,(H,28,29)

>  <IUPAC Name>  (1) 
3-[4-[4-(3,3-dimethylbutanoyl)-3-hydroxy-2-methylphenoxy]butoxy]-2-methylbenzoic acid

$$$$
