
     RDKit          3D

 30 32  0  0  0  0  0  0  0  0999 V2000
   -4.6722   -0.3753    0.4315 C   0  0  0  0  0  0  0  0  0  0  0  0
   -3.3779   -0.8330    0.1183 O   0  0  0  0  0  0  0  0  0  0  0  0
   -2.2915    0.0186   -0.0065 C   0  0  0  0  0  0  0  0  0  0  0  0
   -2.3714    1.3856    0.1625 C   0  0  0  0  0  0  0  0  0  0  0  0
   -1.2352    2.1746    0.0206 C   0  0  0  0  0  0  0  0  0  0  0  0
   -0.0154    1.5987   -0.2907 C   0  0  0  0  0  0  0  0  0  0  0  0
    0.0668    0.2448   -0.4587 C   0  0  0  0  0  0  0  0  0  0  0  0
   -1.0723   -0.5470   -0.3166 C   0  0  0  0  0  0  0  0  0  0  0  0
   -0.6769   -1.9759   -0.5564 C   0  0  0  0  0  0  0  0  0  0  0  0
    0.8179   -1.9372   -0.2272 C   0  0  0  0  0  0  0  0  0  0  0  0
    1.2314   -0.6031   -0.7893 C   0  0  0  0  0  0  0  0  0  0  0  0
    2.5154   -0.1055   -0.2832 C   0  0  0  0  0  0  0  0  0  0  0  0
    3.0918   -0.3733    0.9000 N   0  0  0  0  0  0  0  0  0  0  0  0
    4.2636    0.2816    0.9713 C   0  0  0  0  0  0  0  0  0  0  0  0
    4.4000    0.9638   -0.1998 C   0  0  0  0  0  0  0  0  0  0  0  0
    3.3300    0.7191   -0.9523 N   0  0  0  0  0  0  0  0  0  0  0  0
   -4.8302    0.5749   -0.1337 H   0  0  0  0  0  0  0  0  0  0  0  0
   -5.4371   -1.1207    0.1241 H   0  0  0  0  0  0  0  0  0  0  0  0
   -4.7063   -0.1138    1.5057 H   0  0  0  0  0  0  0  0  0  0  0  0
   -3.3227    1.8387    0.4058 H   0  0  0  0  0  0  0  0  0  0  0  0
   -1.3074    3.2607    0.1567 H   0  0  0  0  0  0  0  0  0  0  0  0
    0.8412    2.2495   -0.3914 H   0  0  0  0  0  0  0  0  0  0  0  0
   -1.1942   -2.6003    0.1836 H   0  0  0  0  0  0  0  0  0  0  0  0
   -0.8326   -2.2922   -1.5943 H   0  0  0  0  0  0  0  0  0  0  0  0
    1.3519   -2.7871   -0.6542 H   0  0  0  0  0  0  0  0  0  0  0  0
    0.9280   -1.8781    0.8861 H   0  0  0  0  0  0  0  0  0  0  0  0
    1.2267   -0.6809   -1.9130 H   0  0  0  0  0  0  0  0  0  0  0  0
    4.9089    0.2188    1.8346 H   0  0  0  0  0  0  0  0  0  0  0  0
    5.2285    1.5920   -0.4709 H   0  0  0  0  0  0  0  0  0  0  0  0
    3.1415    1.1017   -1.9135 H   0  0  0  0  0  0  0  0  0  0  0  0
  1  2  1  0
  2  3  1  0
  3  4  2  0
  4  5  1  0
  5  6  2  0
  6  7  1  0
  7  8  2  0
  8  9  1  0
  9 10  1  0
 10 11  1  0
 11 12  1  0
 12 13  2  0
 13 14  1  0
 14 15  2  0
 15 16  1  0
  8  3  1  0
 16 12  1  0
 11  7  1  0
  1 17  1  0
  1 18  1  0
  1 19  1  0
  4 20  1  0
  5 21  1  0
  6 22  1  0
  9 23  1  0
  9 24  1  0
 10 25  1  0
 10 26  1  0
 11 27  1  0
 14 28  1  0
 15 29  1  0
 16 30  1  0
M  END
>  <Ligand ID>  (1) 
LIG0002015

>  <Ligand>  (1) 
CHEMBL402388

>  <SMILES>  (1) 
COc1cccc2c1CCC2c1ncc[nH]1

>  <CID>  (1) 
44449277.0

>  <ChEMBL ID>  (1) 
nan

>  <InChiKey>  (1) 
IEVQENKCCRQYBX-UHFFFAOYSA-N

>  <InChi>  (1) 
InChI=1S/C13H14N2O/c1-16-12-4-2-3-9-10(12)5-6-11(9)13-14-7-8-15-13/h2-4,7-8,11H,5-6H2,1H3,(H,14,15)

>  <IUPAC Name>  (1) 
2-(4-methoxy-2,3-dihydro-1H-inden-1-yl)-1H-imidazole

$$$$
