
     RDKit          3D

117122  0  0  0  0  0  0  0  0999 V2000
   -4.8213   -0.7333    3.0869 O   0  0  0  0  0  0  0  0  0  0  0  0
   -5.1851   -0.9205    1.7513 C   0  0  2  0  0  0  0  0  0  0  0  0
   -5.2020    0.3921    1.0315 C   0  0  1  0  0  0  0  0  0  0  0  0
   -4.3791    0.2098   -0.2358 C   0  0  0  0  0  0  0  0  0  0  0  0
   -3.0680   -0.1216    0.1340 O   0  0  0  0  0  0  0  0  0  0  0  0
   -2.1217   -0.4517   -1.1966 P   0  0  0  0  0  0  0  0  0  0  0  0
   -2.7843   -1.5781   -1.9721 O   0  0  0  0  0  0  0  0  0  0  0  0
   -0.5738   -0.9756   -0.7770 O   0  0  0  0  0  0  0  0  0  0  0  0
    0.0272   -0.2026    0.5849 P   0  0  0  0  0  0  0  0  0  0  0  0
    0.3395   -1.2736    1.6347 O   0  0  0  0  0  0  0  0  0  0  0  0
    1.4504    0.6187    0.3020 O   0  0  0  0  0  0  0  0  0  0  0  0
    1.9039    0.6320   -1.3189 P   0  0  0  0  0  0  0  0  0  0  0  0
    1.6134    2.0536   -1.8153 O   0  0  0  0  0  0  0  0  0  0  0  0
    3.5404    0.3820   -1.5344 O   0  0  0  0  0  0  0  0  0  0  0  0
    3.8049   -1.1902   -2.0582 P   0  0  0  0  0  0  0  0  0  0  0  0
    4.3993   -1.0960   -3.4582 O   0  0  0  0  0  0  0  0  0  0  0  0
    4.9098   -1.9678   -1.0515 O   0  0  0  0  0  0  0  0  0  0  0  0
    4.6668   -3.3233   -0.9477 C   0  0  0  0  0  0  0  0  0  0  0  0
    5.7069   -4.0049   -0.0613 C   0  0  1  0  0  0  0  0  0  0  0  0
    6.9221   -3.7921   -0.6508 O   0  0  0  0  0  0  0  0  0  0  0  0
    7.8342   -3.3531    0.2784 C   0  0  2  0  0  0  0  0  0  0  0  0
    7.0031   -2.6061    1.2724 C   0  0  1  0  0  0  0  0  0  0  0  0
    5.7438   -3.4465    1.3236 C   0  0  2  0  0  0  0  0  0  0  0  0
    5.9712   -4.4834    2.2469 O   0  0  0  0  0  0  0  0  0  0  0  0
    7.6177   -2.5155    2.5218 O   0  0  0  0  0  0  0  0  0  0  0  0
    8.8454   -2.5234   -0.3465 N   0  0  0  0  0  0  0  0  0  0  0  0
    8.4966   -1.9199   -1.4968 C   0  0  0  0  0  0  0  0  0  0  0  0
    9.4090   -1.1282   -2.1265 C   0  0  0  0  0  0  0  0  0  0  0  0
   10.6938   -0.9294   -1.6071 C   0  0  0  0  0  0  0  0  0  0  0  0
   10.9835   -1.5562   -0.4587 N   0  0  0  0  0  0  0  0  0  0  0  0
   10.0780   -2.3415    0.1656 C   0  0  0  0  0  0  0  0  0  0  0  0
   10.3856   -2.9220    1.2552 O   0  0  0  0  0  0  0  0  0  0  0  0
   11.5881   -0.0954   -2.3156 N   0  0  0  0  0  0  0  0  0  0  0  0
   12.8499    0.1838   -1.9525 O   0  0  0  0  0  0  0  0  0  0  0  0
   12.8885    0.7339   -0.6890 C   0  0  0  0  0  0  0  0  0  0  0  0
   14.2654    1.3781   -0.5561 C   0  0  0  0  0  0  0  0  0  0  0  0
   14.4805    2.0332    0.7751 C   0  0  0  0  0  0  0  0  0  0  0  0
   15.8547    2.6265    0.7519 C   0  0  0  0  0  0  0  0  0  0  0  0
   16.9739    1.9634    1.1593 C   0  0  0  0  0  0  0  0  0  0  0  0
   18.1861    2.6300    1.0782 C   0  0  0  0  0  0  0  0  0  0  0  0
   18.3014    3.9242    0.6072 C   0  0  0  0  0  0  0  0  0  0  0  0
   17.1443    4.5961    0.1909 C   0  0  0  0  0  0  0  0  0  0  0  0
   15.9539    3.9159    0.2800 C   0  0  0  0  0  0  0  0  0  0  0  0
    2.3925   -2.1156   -2.1070 O   0  0  0  0  0  0  0  0  0  0  0  0
    1.0397   -0.4294   -2.2688 O   0  0  0  0  0  0  0  0  0  0  0  0
   -1.1557    0.7887    1.2839 O   0  0  0  0  0  0  0  0  0  0  0  0
   -1.9297    0.8484   -2.2487 O   0  0  0  0  0  0  0  0  0  0  0  0
   -6.5111    0.7275    0.7130 O   0  0  0  0  0  0  0  0  0  0  0  0
   -7.3092   -0.0325    1.5644 C   0  0  2  0  0  0  0  0  0  0  0  0
   -6.6208   -1.3825    1.6380 C   0  0  2  0  0  0  0  0  0  0  0  0
   -7.0467   -2.1381    2.7061 O   0  0  0  0  0  0  0  0  0  0  0  0
   -8.6783   -0.1303    1.2222 N   0  0  0  0  0  0  0  0  0  0  0  0
   -9.2889   -1.1729    0.6481 C   0  0  0  0  0  0  0  0  0  0  0  0
  -10.6260   -1.2271    0.3461 C   0  0  0  0  0  0  0  0  0  0  0  0
  -11.4098   -0.1074    0.6612 C   0  0  0  0  0  0  0  0  0  0  0  0
  -10.7927    0.9458    1.2404 N   0  0  0  0  0  0  0  0  0  0  0  0
   -9.4789    0.9379    1.5119 C   0  0  0  0  0  0  0  0  0  0  0  0
   -9.0058    1.9796    2.0574 O   0  0  0  0  0  0  0  0  0  0  0  0
  -12.8152   -0.0905    0.3800 N   0  0  0  0  0  0  0  0  0  0  0  0
  -13.5000    1.0354    0.7013 O   0  0  0  0  0  0  0  0  0  0  0  0
  -13.7486    1.7136   -0.4951 C   0  0  0  0  0  0  0  0  0  0  0  0
  -14.4260    3.0418   -0.2804 C   0  0  0  0  0  0  0  0  0  0  0  0
  -15.7561    2.9019    0.4048 C   0  0  0  0  0  0  0  0  0  0  0  0
  -16.7379    2.0861   -0.3281 C   0  0  0  0  0  0  0  0  0  0  0  0
  -16.8628    0.7070   -0.1540 C   0  0  0  0  0  0  0  0  0  0  0  0
  -17.7982   -0.0119   -0.8701 C   0  0  0  0  0  0  0  0  0  0  0  0
  -18.6539    0.5776   -1.7875 C   0  0  0  0  0  0  0  0  0  0  0  0
  -18.5310    1.9421   -1.9599 C   0  0  0  0  0  0  0  0  0  0  0  0
  -17.5991    2.6511   -1.2449 C   0  0  0  0  0  0  0  0  0  0  0  0
   -4.8342    0.2494    3.3018 H   0  0  0  0  0  0  0  0  0  0  0  0
   -4.5489   -1.6819    1.2556 H   0  0  0  0  0  0  0  0  0  0  0  0
   -4.7343    1.2158    1.6457 H   0  0  0  0  0  0  0  0  0  0  0  0
   -4.8544   -0.6014   -0.8123 H   0  0  0  0  0  0  0  0  0  0  0  0
   -4.3168    1.1655   -0.8057 H   0  0  0  0  0  0  0  0  0  0  0  0
    4.8184   -3.7743   -1.9721 H   0  0  0  0  0  0  0  0  0  0  0  0
    3.6502   -3.5590   -0.6373 H   0  0  0  0  0  0  0  0  0  0  0  0
    5.5251   -5.1095   -0.0371 H   0  0  0  0  0  0  0  0  0  0  0  0
    8.2911   -4.2042    0.8241 H   0  0  0  0  0  0  0  0  0  0  0  0
    6.6838   -1.5977    0.8812 H   0  0  0  0  0  0  0  0  0  0  0  0
    4.8472   -2.8445    1.5780 H   0  0  0  0  0  0  0  0  0  0  0  0
    5.3052   -4.4055    2.9857 H   0  0  0  0  0  0  0  0  0  0  0  0
    6.9867   -2.1424    3.1842 H   0  0  0  0  0  0  0  0  0  0  0  0
    7.5149   -2.0564   -1.9179 H   0  0  0  0  0  0  0  0  0  0  0  0
    9.1495   -0.6297   -3.0592 H   0  0  0  0  0  0  0  0  0  0  0  0
   11.2644    0.3667   -3.2176 H   0  0  0  0  0  0  0  0  0  0  0  0
   12.0809    1.4500   -0.4620 H   0  0  0  0  0  0  0  0  0  0  0  0
   12.8542   -0.0818    0.0823 H   0  0  0  0  0  0  0  0  0  0  0  0
   15.0484    0.6051   -0.6848 H   0  0  0  0  0  0  0  0  0  0  0  0
   14.4207    2.1405   -1.3514 H   0  0  0  0  0  0  0  0  0  0  0  0
   13.7815    2.8295    1.0343 H   0  0  0  0  0  0  0  0  0  0  0  0
   14.4292    1.2523    1.5640 H   0  0  0  0  0  0  0  0  0  0  0  0
   16.9003    0.9560    1.5295 H   0  0  0  0  0  0  0  0  0  0  0  0
   19.1247    2.1527    1.3903 H   0  0  0  0  0  0  0  0  0  0  0  0
   19.2804    4.4042    0.5637 H   0  0  0  0  0  0  0  0  0  0  0  0
   17.1969    5.6112   -0.1834 H   0  0  0  0  0  0  0  0  0  0  0  0
   15.0689    4.4579   -0.0502 H   0  0  0  0  0  0  0  0  0  0  0  0
    2.1707   -2.3166   -3.0542 H   0  0  0  0  0  0  0  0  0  0  0  0
    0.7910    0.0102   -3.1183 H   0  0  0  0  0  0  0  0  0  0  0  0
   -1.5394    0.4180    2.1099 H   0  0  0  0  0  0  0  0  0  0  0  0
   -1.3632    1.5577   -1.8483 H   0  0  0  0  0  0  0  0  0  0  0  0
   -7.1796    0.4275    2.5853 H   0  0  0  0  0  0  0  0  0  0  0  0
   -6.6949   -1.8883    0.6492 H   0  0  0  0  0  0  0  0  0  0  0  0
   -6.4105   -1.9261    3.4599 H   0  0  0  0  0  0  0  0  0  0  0  0
   -8.6950   -2.0399    0.4005 H   0  0  0  0  0  0  0  0  0  0  0  0
  -11.1258   -2.0624   -0.1160 H   0  0  0  0  0  0  0  0  0  0  0  0
  -13.2506   -0.9308   -0.0539 H   0  0  0  0  0  0  0  0  0  0  0  0
  -12.8533    1.8015   -1.1406 H   0  0  0  0  0  0  0  0  0  0  0  0
  -14.4588    1.0659   -1.0904 H   0  0  0  0  0  0  0  0  0  0  0  0
  -13.7778    3.6279    0.4277 H   0  0  0  0  0  0  0  0  0  0  0  0
  -14.4434    3.6083   -1.2117 H   0  0  0  0  0  0  0  0  0  0  0  0
  -15.5790    2.3907    1.3774 H   0  0  0  0  0  0  0  0  0  0  0  0
  -16.1857    3.8933    0.6198 H   0  0  0  0  0  0  0  0  0  0  0  0
  -16.1945    0.2158    0.5707 H   0  0  0  0  0  0  0  0  0  0  0  0
  -17.8911   -1.0810   -0.7332 H   0  0  0  0  0  0  0  0  0  0  0  0
  -19.3877    0.0293   -2.3552 H   0  0  0  0  0  0  0  0  0  0  0  0
  -19.1908    2.4512   -2.6787 H   0  0  0  0  0  0  0  0  0  0  0  0
  -17.5223    3.7120   -1.3969 H   0  0  0  0  0  0  0  0  0  0  0  0
  1  2  1  0
  2  3  1  0
  3  4  1  0
  4  5  1  0
  5  6  1  0
  6  7  2  0
  6  8  1  0
  8  9  1  0
  9 10  2  0
  9 11  1  0
 11 12  1  0
 12 13  2  0
 12 14  1  0
 14 15  1  0
 15 16  2  0
 15 17  1  0
 17 18  1  0
 18 19  1  0
 19 20  1  0
 20 21  1  0
 21 22  1  0
 22 23  1  0
 23 24  1  0
 22 25  1  0
 21 26  1  0
 26 27  1  0
 27 28  2  0
 28 29  1  0
 29 30  2  0
 30 31  1  0
 31 32  2  0
 29 33  1  0
 33 34  1  0
 34 35  1  0
 35 36  1  0
 36 37  1  0
 37 38  1  0
 38 39  2  0
 39 40  1  0
 40 41  2  0
 41 42  1  0
 42 43  2  0
 15 44  1  0
 12 45  1  0
  9 46  1  0
  6 47  1  0
  3 48  1  0
 48 49  1  0
 49 50  1  0
 50 51  1  0
 49 52  1  0
 52 53  1  0
 53 54  2  0
 54 55  1  0
 55 56  2  0
 56 57  1  0
 57 58  2  0
 55 59  1  0
 59 60  1  0
 60 61  1  0
 61 62  1  0
 62 63  1  0
 63 64  1  0
 64 65  2  0
 65 66  1  0
 66 67  2  0
 67 68  1  0
 68 69  2  0
 50  2  1  0
 57 52  1  0
 69 64  1  0
 23 19  1  0
 31 26  1  0
 43 38  1  0
  1 70  1  0
  2 71  1  6
  3 72  1  1
  4 73  1  0
  4 74  1  0
 18 75  1  0
 18 76  1  0
 19 77  1  1
 21 78  1  1
 22 79  1  6
 23 80  1  1
 24 81  1  0
 25 82  1  0
 27 83  1  0
 28 84  1  0
 33 85  1  0
 35 86  1  0
 35 87  1  0
 36 88  1  0
 36 89  1  0
 37 90  1  0
 37 91  1  0
 39 92  1  0
 40 93  1  0
 41 94  1  0
 42 95  1  0
 43 96  1  0
 44 97  1  0
 45 98  1  0
 46 99  1  0
 47100  1  0
 49101  1  1
 50102  1  6
 51103  1  0
 53104  1  0
 54105  1  0
 59106  1  0
 61107  1  0
 61108  1  0
 62109  1  0
 62110  1  0
 63111  1  0
 63112  1  0
 65113  1  0
 66114  1  0
 67115  1  0
 68116  1  0
 69117  1  0
M  END
>  <Ligand ID>  (1) 
LIG0002679

>  <Ligand>  (1) 
CHEMBL3261380

>  <SMILES>  (1) 
O[C@@H]1[C@@H](COP(=O)(OP(=O)(OP(=O)(OP(=O)(OC[C@H]2O[C@H]([C@@H]([C@@H]2O)O)n2ccc(nc2=O)NOCCCc2ccccc2)O)O)O)O)O[C@H]([C@@H]1O)n1ccc(nc1=O)NOCCCc1ccccc1

>  <CID>  (1) 
90656232.0

>  <ChEMBL ID>  (1) 
nan

>  <InChiKey>  (1) 
QMCHGCVSODSXDQ-ZHELWVPESA-N

>  <InChi>  (1) 
InChI=1S/C36H48N6O23P4/c43-29-25(61-33(31(29)45)41-17-15-27(37-35(41)47)39-57-19-7-13-23-9-3-1-4-10-23)21-59-66(49,50)63-68(53,54)65-69(55,56)64-67(51,52)60-22-26-30(44)32(46)34(62-26)42-18-16-28(38-36(42)48)40-58-20-8-14-24-11-5-2-6-12-24/h1-6,9-12,15-18,25-26,29-34,43-46H,7-8,13-14,19-22H2,(H,49,50)(H,51,52)(H,53,54)(H,55,56)(H,37,39,47)(H,38,40,48)/t25-,26-,29-,30-,31-,32-,33-,34-/m1/s1

>  <IUPAC Name>  (1) 
[[(2R,3S,4R,5R)-3,4-dihydroxy-5-[2-oxo-4-(3-phenylpropoxyamino)pyrimidin-1-yl]oxolan-2-yl]methoxy-hydroxyphosphoryl] [[[(2R,3S,4R,5R)-3,4-dihydroxy-5-[2-oxo-4-(3-phenylpropoxyamino)pyrimidin-1-yl]oxolan-2-yl]methoxy-hydroxyphosphoryl]oxy-hydroxyphosphoryl] hydrogen phosphate

$$$$
