
     RDKit          3D

 61 63  0  0  0  0  0  0  0  0999 V2000
   -1.6244   -1.4870    1.6006 O   0  0  0  0  0  0  0  0  0  0  0  0
   -1.1396   -0.5904    0.6557 C   0  0  0  0  0  0  0  0  0  0  0  0
   -1.2112    0.8258    1.1762 C   0  0  2  0  0  0  0  0  0  0  0  0
   -0.3737    0.9222    2.4334 C   0  0  0  0  0  0  0  0  0  0  0  0
    1.0511    0.5897    2.2236 C   0  0  0  0  0  0  0  0  0  0  0  0
    1.9083    1.6210    1.8823 C   0  0  0  0  0  0  0  0  0  0  0  0
    3.2507    1.3645    1.6751 C   0  0  0  0  0  0  0  0  0  0  0  0
    3.7567    0.0791    1.8048 C   0  0  0  0  0  0  0  0  0  0  0  0
    2.9131   -0.9520    2.1435 C   0  0  0  0  0  0  0  0  0  0  0  0
    1.5712   -0.6814    2.3482 C   0  0  0  0  0  0  0  0  0  0  0  0
    5.1476   -0.0797    1.5713 N   0  0  0  0  0  0  0  0  0  0  0  0
    5.7021   -0.3678    0.2974 C   0  0  0  0  0  0  0  0  0  0  0  0
    5.0028   -0.5089   -0.7462 O   0  0  0  0  0  0  0  0  0  0  0  0
    7.1199   -0.4994    0.2182 N   0  0  0  0  0  0  0  0  0  0  0  0
    7.8175   -0.7837   -0.9745 C   0  0  0  0  0  0  0  0  0  0  0  0
    8.1180   -2.0344   -1.4339 C   0  0  0  0  0  0  0  0  0  0  0  0
    8.7992   -2.1656   -2.6057 C   0  0  0  0  0  0  0  0  0  0  0  0
    9.2159   -1.0813   -3.3786 C   0  0  0  0  0  0  0  0  0  0  0  0
    8.9079    0.1976   -2.9075 C   0  0  0  0  0  0  0  0  0  0  0  0
    8.2259    0.3148   -1.7337 C   0  0  0  0  0  0  0  0  0  0  0  0
   -2.5368    1.2498    1.5019 N   0  0  0  0  0  0  0  0  0  0  0  0
   -3.4487    1.2187    0.3885 C   0  0  0  0  0  0  0  0  0  0  0  0
   -4.7924    1.7038    0.9477 C   0  0  1  0  0  0  0  0  0  0  0  0
   -5.8886    1.6129   -0.1163 C   0  0  0  0  0  0  0  0  0  0  0  0
   -5.9404    0.2643   -0.5015 O   0  0  0  0  0  0  0  0  0  0  0  0
   -6.8111   -0.2393   -1.4541 C   0  0  0  0  0  0  0  0  0  0  0  0
   -7.7235    0.5652   -2.1204 C   0  0  0  0  0  0  0  0  0  0  0  0
   -8.5581   -0.0092   -3.0564 C   0  0  0  0  0  0  0  0  0  0  0  0
   -8.4937   -1.3721   -3.3348 C   0  0  0  0  0  0  0  0  0  0  0  0
   -7.5880   -2.1831   -2.6765 C   0  0  0  0  0  0  0  0  0  0  0  0
   -6.7442   -1.5943   -1.7282 C   0  0  0  0  0  0  0  0  0  0  0  0
   -5.2171    0.8510    1.9767 O   0  0  0  0  0  0  0  0  0  0  0  0
   -2.3102   -1.1027    2.1923 H   0  0  0  0  0  0  0  0  0  0  0  0
   -1.6091   -0.7074   -0.3303 H   0  0  0  0  0  0  0  0  0  0  0  0
   -0.0624   -0.8238    0.5072 H   0  0  0  0  0  0  0  0  0  0  0  0
   -0.7455    1.5145    0.4400 H   0  0  0  0  0  0  0  0  0  0  0  0
   -0.5151    1.9337    2.8626 H   0  0  0  0  0  0  0  0  0  0  0  0
   -0.8460    0.2227    3.1732 H   0  0  0  0  0  0  0  0  0  0  0  0
    1.5425    2.6306    1.7745 H   0  0  0  0  0  0  0  0  0  0  0  0
    3.8835    2.1981    1.4105 H   0  0  0  0  0  0  0  0  0  0  0  0
    3.3312   -1.9498    2.2395 H   0  0  0  0  0  0  0  0  0  0  0  0
    0.9321   -1.4884    2.6095 H   0  0  0  0  0  0  0  0  0  0  0  0
    5.7683    0.0310    2.4211 H   0  0  0  0  0  0  0  0  0  0  0  0
    7.7087   -0.3811    1.0942 H   0  0  0  0  0  0  0  0  0  0  0  0
    7.7986   -2.8955   -0.8401 H   0  0  0  0  0  0  0  0  0  0  0  0
    9.0593   -3.1465   -3.0082 H   0  0  0  0  0  0  0  0  0  0  0  0
    9.7537   -1.1971   -4.3030 H   0  0  0  0  0  0  0  0  0  0  0  0
    9.2048    1.0831   -3.4635 H   0  0  0  0  0  0  0  0  0  0  0  0
    7.9981    1.3352   -1.3889 H   0  0  0  0  0  0  0  0  0  0  0  0
   -2.4703    2.2498    1.7949 H   0  0  0  0  0  0  0  0  0  0  0  0
   -3.6567    0.1731    0.0326 H   0  0  0  0  0  0  0  0  0  0  0  0
   -3.1768    1.9136   -0.4153 H   0  0  0  0  0  0  0  0  0  0  0  0
   -4.7328    2.7244    1.3424 H   0  0  0  0  0  0  0  0  0  0  0  0
   -5.6687    2.2982   -0.9585 H   0  0  0  0  0  0  0  0  0  0  0  0
   -6.8269    1.8563    0.4232 H   0  0  0  0  0  0  0  0  0  0  0  0
   -7.7638    1.6237   -1.8949 H   0  0  0  0  0  0  0  0  0  0  0  0
   -9.2870    0.5700   -3.6045 H   0  0  0  0  0  0  0  0  0  0  0  0
   -9.1428   -1.8402   -4.0681 H   0  0  0  0  0  0  0  0  0  0  0  0
   -7.5487   -3.2294   -2.8999 H   0  0  0  0  0  0  0  0  0  0  0  0
   -6.0507   -2.2635   -1.2362 H   0  0  0  0  0  0  0  0  0  0  0  0
   -4.9839   -0.0833    1.7111 H   0  0  0  0  0  0  0  0  0  0  0  0
  1  2  1  0
  2  3  1  0
  3  4  1  0
  4  5  1  0
  5  6  2  0
  6  7  1  0
  7  8  2  0
  8  9  1  0
  9 10  2  0
  8 11  1  0
 11 12  1  0
 12 13  2  0
 12 14  1  0
 14 15  1  0
 15 16  2  0
 16 17  1  0
 17 18  2  0
 18 19  1  0
 19 20  2  0
  3 21  1  0
 21 22  1  0
 22 23  1  0
 23 24  1  0
 24 25  1  0
 25 26  1  0
 26 27  2  0
 27 28  1  0
 28 29  2  0
 29 30  1  0
 30 31  2  0
 23 32  1  0
 10  5  1  0
 20 15  1  0
 31 26  1  0
  1 33  1  0
  2 34  1  0
  2 35  1  0
  3 36  1  6
  4 37  1  0
  4 38  1  0
  6 39  1  0
  7 40  1  0
  9 41  1  0
 10 42  1  0
 11 43  1  0
 14 44  1  0
 16 45  1  0
 17 46  1  0
 18 47  1  0
 19 48  1  0
 20 49  1  0
 21 50  1  0
 22 51  1  0
 22 52  1  0
 23 53  1  1
 24 54  1  0
 24 55  1  0
 27 56  1  0
 28 57  1  0
 29 58  1  0
 30 59  1  0
 31 60  1  0
 32 61  1  0
M  END
>  <Ligand ID>  (1) 
LIG0002718

>  <Ligand>  (1) 
CHEMBL183129

>  <SMILES>  (1) 
OC[C@H](Cc1ccc(cc1)NC(=O)Nc1ccccc1)NC[C@@H](COc1ccccc1)O

>  <CID>  (1) 
10113837.0

>  <ChEMBL ID>  (1) 
nan

>  <InChiKey>  (1) 
QCYILHRUVJCYSE-GOTSBHOMSA-N

>  <InChi>  (1) 
InChI=1S/C25H29N3O4/c29-17-22(26-16-23(30)18-32-24-9-5-2-6-10-24)15-19-11-13-21(14-12-19)28-25(31)27-20-7-3-1-4-8-20/h1-14,22-23,26,29-30H,15-18H2,(H2,27,28,31)/t22-,23-/m0/s1

>  <IUPAC Name>  (1) 
1-[4-[(2S)-3-hydroxy-2-[[(2S)-2-hydroxy-3-phenoxypropyl]amino]propyl]phenyl]-3-phenylurea

$$$$
