
     RDKit          3D

 40 42  0  0  0  0  0  0  0  0999 V2000
    3.1713   -2.6818    1.7589 S   0  0  0  0  0  0  0  0  0  0  0  0
    2.9654   -1.6149    0.4940 C   0  0  0  0  0  0  0  0  0  0  0  0
    1.7627   -0.8761    0.5167 N   0  0  0  0  0  0  0  0  0  0  0  0
    1.3674    0.0940   -0.4825 C   0  0  0  0  0  0  0  0  0  0  0  0
   -0.1300    0.3091   -0.5538 C   0  0  0  0  0  0  0  0  0  0  0  0
   -0.8970   -0.7736   -0.0895 N   0  0  0  0  0  0  0  0  0  0  0  0
   -0.5818   -1.2329    1.2287 C   0  0  0  0  0  0  0  0  0  0  0  0
    0.8375   -1.0736    1.6202 C   0  0  0  0  0  0  0  0  0  0  0  0
   -2.4871   -0.9227   -0.6025 S   0  0  0  0  0  0  0  0  0  0  0  0
   -3.1483   -2.2008   -0.1341 O   0  0  0  0  0  0  0  0  0  0  0  0
   -2.4890   -0.9884   -2.1248 O   0  0  0  0  0  0  0  0  0  0  0  0
   -3.5392    0.3778   -0.1627 C   0  0  0  0  0  0  0  0  0  0  0  0
   -4.2524    0.3269    1.0378 C   0  0  0  0  0  0  0  0  0  0  0  0
   -4.1409   -1.0374    2.1286 Cl  0  0  0  0  0  0  0  0  0  0  0  0
   -5.1005    1.3579    1.4201 C   0  0  0  0  0  0  0  0  0  0  0  0
   -5.2807    2.4759    0.6398 C   0  0  0  0  0  0  0  0  0  0  0  0
   -4.5837    2.5365   -0.5454 C   0  0  0  0  0  0  0  0  0  0  0  0
   -3.7419    1.5110   -0.9229 C   0  0  0  0  0  0  0  0  0  0  0  0
   -2.9167    1.6825   -2.4564 Cl  0  0  0  0  0  0  0  0  0  0  0  0
   -6.4589    3.8508    1.2281 Br  0  0  0  0  0  0  0  0  0  0  0  0
    3.9971   -1.5648   -0.4476 N   0  0  0  0  0  0  0  0  0  0  0  0
    4.1376   -0.7629   -1.6107 C   0  0  0  0  0  0  0  0  0  0  0  0
    4.3648    0.6795   -1.6568 C   0  0  0  0  0  0  0  0  0  0  0  0
    5.5083   -0.2107   -1.9159 C   0  0  0  0  0  0  0  0  0  0  0  0
    1.9000    1.0438   -0.2948 H   0  0  0  0  0  0  0  0  0  0  0  0
    1.7385   -0.3129   -1.4462 H   0  0  0  0  0  0  0  0  0  0  0  0
   -0.3863    1.2306   -0.0050 H   0  0  0  0  0  0  0  0  0  0  0  0
   -0.3502    0.4780   -1.6310 H   0  0  0  0  0  0  0  0  0  0  0  0
   -0.9238   -2.2679    1.3420 H   0  0  0  0  0  0  0  0  0  0  0  0
   -1.2170   -0.6097    1.9293 H   0  0  0  0  0  0  0  0  0  0  0  0
    0.9628   -0.1756    2.2967 H   0  0  0  0  0  0  0  0  0  0  0  0
    1.1868   -1.9181    2.2479 H   0  0  0  0  0  0  0  0  0  0  0  0
   -5.6404    1.3049    2.3421 H   0  0  0  0  0  0  0  0  0  0  0  0
   -4.7123    3.4025   -1.1680 H   0  0  0  0  0  0  0  0  0  0  0  0
    4.8237   -2.2384   -0.2727 H   0  0  0  0  0  0  0  0  0  0  0  0
    3.6713   -1.2298   -2.5297 H   0  0  0  0  0  0  0  0  0  0  0  0
    3.9604    1.2586   -2.5184 H   0  0  0  0  0  0  0  0  0  0  0  0
    4.4007    1.3071   -0.7356 H   0  0  0  0  0  0  0  0  0  0  0  0
    6.2929   -0.2934   -1.1190 H   0  0  0  0  0  0  0  0  0  0  0  0
    5.9290   -0.2408   -2.9264 H   0  0  0  0  0  0  0  0  0  0  0  0
  1  2  2  0
  2  3  1  0
  3  4  1  0
  4  5  1  0
  5  6  1  0
  6  7  1  0
  7  8  1  0
  6  9  1  0
  9 10  2  0
  9 11  2  0
  9 12  1  0
 12 13  2  0
 13 14  1  0
 13 15  1  0
 15 16  2  0
 16 17  1  0
 17 18  2  0
 18 19  1  0
 16 20  1  0
  2 21  1  0
 21 22  1  0
 22 23  1  0
 23 24  1  0
  8  3  1  0
 18 12  1  0
 24 22  1  0
  4 25  1  0
  4 26  1  0
  5 27  1  0
  5 28  1  0
  7 29  1  0
  7 30  1  0
  8 31  1  0
  8 32  1  0
 15 33  1  0
 17 34  1  0
 21 35  1  0
 22 36  1  0
 23 37  1  0
 23 38  1  0
 24 39  1  0
 24 40  1  0
M  END
>  <Ligand ID>  (1) 
LIG0002974

>  <Ligand>  (1) 
MLS002252403

>  <SMILES>  (1) 
S=C(N1CCN(CC1)S(=O)(=O)c1c(Cl)cc(cc1Cl)Br)NC1CC1

>  <CID>  (1) 
2447421.0

>  <ChEMBL ID>  (1) 
nan

>  <InChiKey>  (1) 
NKPNMXNPHFKGOT-UHFFFAOYSA-N

>  <InChi>  (1) 
InChI=1S/C14H16BrCl2N3O2S2/c15-9-7-11(16)13(12(17)8-9)24(21,22)20-5-3-19(4-6-20)14(23)18-10-1-2-10/h7-8,10H,1-6H2,(H,18,23)

>  <IUPAC Name>  (1) 
4-(4-bromo-2,6-dichlorophenyl)sulfonyl-N-cyclopropylpiperazine-1-carbothioamide

$$$$
