
     RDKit          3D

 93 97  0  0  0  0  0  0  0  0999 V2000
    2.2168    8.4630    2.7354 N   0  0  0  0  0  0  0  0  0  0  0  0
    2.5155    7.3457    1.8866 C   0  0  0  0  0  0  0  0  0  0  0  0
    2.0360    6.2175    2.2324 N   0  0  0  0  0  0  0  0  0  0  0  0
    2.2080    4.9628    1.5309 C   0  0  0  0  0  0  0  0  0  0  0  0
    1.6094    5.0501    0.1398 C   0  0  0  0  0  0  0  0  0  0  0  0
    1.7369    3.8317   -0.6142 N   0  0  0  0  0  0  0  0  0  0  0  0
    1.1206    2.5909   -0.1792 C   0  0  0  0  0  0  0  0  0  0  0  0
    0.4787    2.6560    0.8722 O   0  0  0  0  0  0  0  0  0  0  0  0
    1.3432    1.4309   -1.0470 C   0  0  1  0  0  0  0  0  0  0  0  0
    2.7547    0.9244   -0.6564 C   0  0  0  0  0  0  0  0  0  0  0  0
    2.7994   -0.4119   -1.2949 C   0  0  2  0  0  0  0  0  0  0  0  0
    1.3905   -0.8394   -1.4201 C   0  0  0  0  0  0  0  0  0  0  0  0
    0.5354    0.2842   -0.8973 N   0  0  0  0  0  0  0  0  0  0  0  0
   -0.7477   -0.0686   -0.4517 C   0  0  0  0  0  0  0  0  0  0  0  0
   -0.9795   -1.3520   -0.5243 O   0  0  0  0  0  0  0  0  0  0  0  0
   -1.8600    0.7152    0.0673 C   0  0  2  0  0  0  0  0  0  0  0  0
   -3.0069   -0.1829    0.3623 N   0  0  0  0  0  0  0  0  0  0  0  0
   -3.5838   -0.9660   -0.7003 C   0  0  0  0  0  0  0  0  0  0  0  0
   -3.1344   -0.8948   -1.8871 O   0  0  0  0  0  0  0  0  0  0  0  0
   -4.7059   -1.8778   -0.4663 C   0  0  2  0  0  0  0  0  0  0  0  0
   -4.4260   -2.8805    0.6372 C   0  0  0  0  0  0  0  0  0  0  0  0
   -5.6348   -3.7358    0.7691 C   0  0  0  0  0  0  0  0  0  0  0  0
   -5.8092   -4.8854    0.0645 N   0  0  0  0  0  0  0  0  0  0  0  0
   -7.0135   -5.4079    0.4309 C   0  0  0  0  0  0  0  0  0  0  0  0
   -7.5875   -4.6140    1.3414 N   0  0  0  0  0  0  0  0  0  0  0  0
   -6.7469   -3.5702    1.5649 C   0  0  0  0  0  0  0  0  0  0  0  0
   -5.0694   -2.5430   -1.6826 N   0  0  0  0  0  0  0  0  0  0  0  0
   -6.3646   -2.5313   -2.2623 C   0  0  0  0  0  0  0  0  0  0  0  0
   -7.3271   -1.9293   -1.7556 O   0  0  0  0  0  0  0  0  0  0  0  0
   -6.5820   -3.2761   -3.5400 C   0  0  0  0  0  0  0  0  0  0  0  0
   -2.3162    1.8678   -0.7573 C   0  0  0  0  0  0  0  0  0  0  0  0
   -3.4526    2.6313   -0.1807 C   0  0  0  0  0  0  0  0  0  0  0  0
   -3.1556    3.6810    0.6620 C   0  0  0  0  0  0  0  0  0  0  0  0
   -4.1158    4.4678    1.2625 C   0  0  0  0  0  0  0  0  0  0  0  0
   -5.4383    4.1471    0.9723 C   0  0  0  0  0  0  0  0  0  0  0  0
   -5.7443    3.0989    0.1315 C   0  0  0  0  0  0  0  0  0  0  0  0
   -4.7710    2.3171   -0.4646 C   0  0  0  0  0  0  0  0  0  0  0  0
    3.5769   -1.3334   -0.5834 O   0  0  0  0  0  0  0  0  0  0  0  0
    4.6591   -1.7633   -1.3381 C   0  0  0  0  0  0  0  0  0  0  0  0
    5.4737   -2.7688   -0.5902 C   0  0  0  0  0  0  0  0  0  0  0  0
    5.1282   -4.1057   -0.7534 C   0  0  0  0  0  0  0  0  0  0  0  0
    5.8042   -5.1128   -0.1079 C   0  0  0  0  0  0  0  0  0  0  0  0
    6.8517   -4.7943    0.7240 C   0  0  0  0  0  0  0  0  0  0  0  0
    7.1960   -3.4653    0.8870 C   0  0  0  0  0  0  0  0  0  0  0  0
    6.5144   -2.4388    0.2348 C   0  0  0  0  0  0  0  0  0  0  0  0
    8.2550   -3.1958    1.7354 C   0  0  0  0  0  0  0  0  0  0  0  0
    8.9040   -4.2378    2.3645 C   0  0  0  0  0  0  0  0  0  0  0  0
    8.5618   -5.5550    2.2022 C   0  0  0  0  0  0  0  0  0  0  0  0
    7.4990   -5.8312    1.3521 C   0  0  0  0  0  0  0  0  0  0  0  0
    3.3149    7.5775    0.7380 N   0  0  0  0  0  0  0  0  0  0  0  0
    1.7678    8.3431    3.6791 H   0  0  0  0  0  0  0  0  0  0  0  0
    2.4275    9.4478    2.4655 H   0  0  0  0  0  0  0  0  0  0  0  0
    3.2956    4.7326    1.3783 H   0  0  0  0  0  0  0  0  0  0  0  0
    1.7664    4.1172    2.0916 H   0  0  0  0  0  0  0  0  0  0  0  0
    2.1347    5.8614   -0.4030 H   0  0  0  0  0  0  0  0  0  0  0  0
    0.5513    5.3935    0.2135 H   0  0  0  0  0  0  0  0  0  0  0  0
    2.2966    3.8345   -1.5178 H   0  0  0  0  0  0  0  0  0  0  0  0
    1.3861    1.7165   -2.1289 H   0  0  0  0  0  0  0  0  0  0  0  0
    3.4893    1.6516   -1.0703 H   0  0  0  0  0  0  0  0  0  0  0  0
    2.7752    0.8602    0.4385 H   0  0  0  0  0  0  0  0  0  0  0  0
    3.3143   -0.3005   -2.2971 H   0  0  0  0  0  0  0  0  0  0  0  0
    1.1825   -1.7728   -0.8918 H   0  0  0  0  0  0  0  0  0  0  0  0
    1.1349   -0.8983   -2.5080 H   0  0  0  0  0  0  0  0  0  0  0  0
   -1.5879    1.0879    1.0732 H   0  0  0  0  0  0  0  0  0  0  0  0
   -3.4101   -0.2640    1.3182 H   0  0  0  0  0  0  0  0  0  0  0  0
   -5.5828   -1.2993   -0.1179 H   0  0  0  0  0  0  0  0  0  0  0  0
   -3.5676   -3.5325    0.4363 H   0  0  0  0  0  0  0  0  0  0  0  0
   -4.3199   -2.3236    1.5870 H   0  0  0  0  0  0  0  0  0  0  0  0
   -5.1233   -5.2796   -0.6292 H   0  0  0  0  0  0  0  0  0  0  0  0
   -7.3646   -6.3348   -0.0101 H   0  0  0  0  0  0  0  0  0  0  0  0
   -6.9006   -2.7443    2.2420 H   0  0  0  0  0  0  0  0  0  0  0  0
   -4.3003   -3.0778   -2.1762 H   0  0  0  0  0  0  0  0  0  0  0  0
   -7.3554   -4.0253   -3.3377 H   0  0  0  0  0  0  0  0  0  0  0  0
   -7.0262   -2.5236   -4.2381 H   0  0  0  0  0  0  0  0  0  0  0  0
   -5.6515   -3.7100   -3.9305 H   0  0  0  0  0  0  0  0  0  0  0  0
   -1.5618    2.6150   -1.0282 H   0  0  0  0  0  0  0  0  0  0  0  0
   -2.6321    1.4271   -1.7516 H   0  0  0  0  0  0  0  0  0  0  0  0
   -2.1235    3.9229    0.8809 H   0  0  0  0  0  0  0  0  0  0  0  0
   -3.8895    5.2907    1.9243 H   0  0  0  0  0  0  0  0  0  0  0  0
   -6.1859    4.7703    1.4473 H   0  0  0  0  0  0  0  0  0  0  0  0
   -6.8045    2.9159   -0.0392 H   0  0  0  0  0  0  0  0  0  0  0  0
   -5.0234    1.5027   -1.1186 H   0  0  0  0  0  0  0  0  0  0  0  0
    5.3170   -0.8806   -1.5381 H   0  0  0  0  0  0  0  0  0  0  0  0
    4.3805   -2.2325   -2.3024 H   0  0  0  0  0  0  0  0  0  0  0  0
    4.2982   -4.3950   -1.4090 H   0  0  0  0  0  0  0  0  0  0  0  0
    5.5203   -6.1293   -0.2504 H   0  0  0  0  0  0  0  0  0  0  0  0
    6.7918   -1.4062    0.3701 H   0  0  0  0  0  0  0  0  0  0  0  0
    8.5427   -2.1795    1.8806 H   0  0  0  0  0  0  0  0  0  0  0  0
    9.7404   -4.0245    3.0363 H   0  0  0  0  0  0  0  0  0  0  0  0
    9.0486   -6.3863    2.6782 H   0  0  0  0  0  0  0  0  0  0  0  0
    7.1984   -6.8425    1.1965 H   0  0  0  0  0  0  0  0  0  0  0  0
    4.2425    7.1618    0.6010 H   0  0  0  0  0  0  0  0  0  0  0  0
    2.8972    8.2184    0.0093 H   0  0  0  0  0  0  0  0  0  0  0  0
  1  2  1  0
  2  3  2  3
  3  4  1  0
  4  5  1  0
  5  6  1  0
  6  7  1  0
  7  8  2  0
  7  9  1  0
  9 10  1  0
 10 11  1  0
 11 12  1  0
 12 13  1  0
 13 14  1  0
 14 15  2  0
 14 16  1  0
 16 17  1  0
 17 18  1  0
 18 19  2  0
 18 20  1  0
 20 21  1  0
 21 22  1  0
 22 23  1  0
 23 24  1  0
 24 25  2  0
 25 26  1  0
 20 27  1  0
 27 28  1  0
 28 29  2  0
 28 30  1  0
 16 31  1  0
 31 32  1  0
 32 33  2  0
 33 34  1  0
 34 35  2  0
 35 36  1  0
 36 37  2  0
 11 38  1  0
 38 39  1  0
 39 40  1  0
 40 41  2  0
 41 42  1  0
 42 43  2  0
 43 44  1  0
 44 45  2  0
 44 46  1  0
 46 47  2  0
 47 48  1  0
 48 49  2  0
  2 50  1  0
 13  9  1  0
 26 22  2  0
 37 32  1  0
 45 40  1  0
 49 43  1  0
  1 51  1  0
  1 52  1  0
  4 53  1  0
  4 54  1  0
  5 55  1  0
  5 56  1  0
  6 57  1  0
  9 58  1  6
 10 59  1  0
 10 60  1  0
 11 61  1  6
 12 62  1  0
 12 63  1  0
 16 64  1  1
 17 65  1  0
 20 66  1  1
 21 67  1  0
 21 68  1  0
 23 69  1  0
 24 70  1  0
 26 71  1  0
 27 72  1  0
 30 73  1  0
 30 74  1  0
 30 75  1  0
 31 76  1  0
 31 77  1  0
 33 78  1  0
 34 79  1  0
 35 80  1  0
 36 81  1  0
 37 82  1  0
 39 83  1  0
 39 84  1  0
 41 85  1  0
 42 86  1  0
 45 87  1  0
 46 88  1  0
 47 89  1  0
 48 90  1  0
 49 91  1  0
 50 92  1  0
 50 93  1  0
M  END
>  <Ligand ID>  (1) 
LIG0003305

>  <Ligand>  (1) 
CHEMBL378293

>  <SMILES>  (1) 
NC(=NCCNC(=O)[C@H]1C[C@H](CN1C(=O)[C@H](NC(=O)[C@H](Cc1[nH]cnc1)NC(=O)C)Cc1ccccc1)OCc1ccc2c(c1)cccc2)N

>  <CID>  (1) 
44413879.0

>  <ChEMBL ID>  (1) 
nan

>  <InChiKey>  (1) 
FRLGHEFWPNKBDQ-VWPRMMSESA-N

>  <InChi>  (1) 
InChI=1S/C36H43N9O5/c1-23(46)43-30(17-28-19-39-22-42-28)33(47)44-31(16-24-7-3-2-4-8-24)35(49)45-20-29(18-32(45)34(48)40-13-14-41-36(37)38)50-21-25-11-12-26-9-5-6-10-27(26)15-25/h2-12,15,19,22,29-32H,13-14,16-18,20-21H2,1H3,(H,39,42)(H,40,48)(H,43,46)(H,44,47)(H4,37,38,41)/t29-,30+,31-,32-/m1/s1

>  <IUPAC Name>  (1) 
(2R,4R)-1-[(2R)-2-[[(2S)-2-acetamido-3-(1H-imidazol-5-yl)propanoyl]amino]-3-phenylpropanoyl]-N-[2-(diaminomethylideneamino)ethyl]-4-(naphthalen-2-ylmethoxy)pyrrolidine-2-carboxamide

$$$$
