
     RDKit          3D

 47 50  0  0  0  0  0  0  0  0999 V2000
    4.4361   -2.0853   -2.4058 N   0  0  0  0  0  0  0  0  0  0  0  0
    4.0639   -1.3974   -1.5800 C   0  0  0  0  0  0  0  0  0  0  0  0
    3.5727   -0.5382   -0.5497 C   0  0  0  0  0  0  0  0  0  0  0  0
    2.1772   -0.4294   -0.4725 C   0  0  0  0  0  0  0  0  0  0  0  0
    1.5675    0.3640    0.4727 C   0  0  0  0  0  0  0  0  0  0  0  0
    2.3879    1.0463    1.3390 C   0  0  0  0  0  0  0  0  0  0  0  0
    3.7457    0.9374    1.2601 C   0  0  0  0  0  0  0  0  0  0  0  0
    4.4083    0.1368    0.3083 C   0  0  0  0  0  0  0  0  0  0  0  0
    5.7342    0.1370    0.3614 O   0  0  0  0  0  0  0  0  0  0  0  0
    6.7531   -0.4355   -0.2975 C   0  0  0  0  0  0  0  0  0  0  0  0
    7.5143   -1.3371    0.6928 C   0  0  0  0  0  0  0  0  0  0  0  0
    7.7576    0.5800   -0.8739 C   0  0  0  0  0  0  0  0  0  0  0  0
    0.1228    0.5096    0.5930 C   0  0  0  0  0  0  0  0  0  0  0  0
   -0.5783    1.2271    1.4417 O   0  0  0  0  0  0  0  0  0  0  0  0
   -1.8497    1.0945    1.2291 N   0  0  0  0  0  0  0  0  0  0  0  0
   -2.0359    0.2539    0.1946 C   0  0  0  0  0  0  0  0  0  0  0  0
   -0.7925   -0.1024   -0.1913 N   0  0  0  0  0  0  0  0  0  0  0  0
   -3.2868   -0.2003   -0.4102 C   0  0  0  0  0  0  0  0  0  0  0  0
   -3.2419   -1.0856   -1.4901 C   0  0  0  0  0  0  0  0  0  0  0  0
   -4.3980   -1.5459   -2.0987 C   0  0  0  0  0  0  0  0  0  0  0  0
   -5.6098   -1.1061   -1.6096 C   0  0  0  0  0  0  0  0  0  0  0  0
   -5.6379   -0.2296   -0.5397 C   0  0  0  0  0  0  0  0  0  0  0  0
   -4.4866    0.2348    0.0736 C   0  0  0  0  0  0  0  0  0  0  0  0
   -4.8627    1.1459    1.1718 C   0  0  0  0  0  0  0  0  0  0  0  0
   -6.2562    1.5843    0.7708 C   0  0  0  0  0  0  0  0  0  0  0  0
   -6.8418    0.3536    0.1248 C   0  0  2  0  0  0  0  0  0  0  0  0
   -7.2530   -0.5671    1.1632 N   0  0  0  0  0  0  0  0  0  0  0  0
    1.5212   -0.9612   -1.1483 H   0  0  0  0  0  0  0  0  0  0  0  0
    1.9211    1.6784    2.0928 H   0  0  0  0  0  0  0  0  0  0  0  0
    4.3236    1.5163    1.9904 H   0  0  0  0  0  0  0  0  0  0  0  0
    6.4476   -1.0965   -1.1168 H   0  0  0  0  0  0  0  0  0  0  0  0
    8.1046   -0.6796    1.3546 H   0  0  0  0  0  0  0  0  0  0  0  0
    8.0892   -2.0552    0.1017 H   0  0  0  0  0  0  0  0  0  0  0  0
    6.7326   -1.8414    1.2963 H   0  0  0  0  0  0  0  0  0  0  0  0
    7.2448    1.4145   -1.3524 H   0  0  0  0  0  0  0  0  0  0  0  0
    8.3310    0.0304   -1.6429 H   0  0  0  0  0  0  0  0  0  0  0  0
    8.4733    0.9244   -0.1046 H   0  0  0  0  0  0  0  0  0  0  0  0
   -2.2619   -1.3947   -1.8288 H   0  0  0  0  0  0  0  0  0  0  0  0
   -4.3173   -2.2385   -2.9417 H   0  0  0  0  0  0  0  0  0  0  0  0
   -6.5272   -1.4604   -2.0791 H   0  0  0  0  0  0  0  0  0  0  0  0
   -4.9604    0.6113    2.1460 H   0  0  0  0  0  0  0  0  0  0  0  0
   -4.1837    1.9983    1.2873 H   0  0  0  0  0  0  0  0  0  0  0  0
   -6.1603    2.3677   -0.0318 H   0  0  0  0  0  0  0  0  0  0  0  0
   -6.8530    1.9397    1.6286 H   0  0  0  0  0  0  0  0  0  0  0  0
   -7.6523    0.5854   -0.5874 H   0  0  0  0  0  0  0  0  0  0  0  0
   -8.2541   -0.4467    1.4176 H   0  0  0  0  0  0  0  0  0  0  0  0
   -7.1290   -1.5609    0.8407 H   0  0  0  0  0  0  0  0  0  0  0  0
  1  2  3  0
  2  3  1  0
  3  4  2  0
  4  5  1  0
  5  6  2  0
  6  7  1  0
  7  8  2  0
  8  9  1  0
  9 10  1  0
 10 11  1  0
 10 12  1  0
  5 13  1  0
 13 14  1  0
 14 15  1  0
 15 16  2  0
 16 17  1  0
 16 18  1  0
 18 19  2  0
 19 20  1  0
 20 21  2  0
 21 22  1  0
 22 23  2  0
 23 24  1  0
 24 25  1  0
 25 26  1  0
 26 27  1  0
  8  3  1  0
 17 13  2  0
 23 18  1  0
 26 22  1  0
  4 28  1  0
  6 29  1  0
  7 30  1  0
 10 31  1  0
 11 32  1  0
 11 33  1  0
 11 34  1  0
 12 35  1  0
 12 36  1  0
 12 37  1  0
 19 38  1  0
 20 39  1  0
 21 40  1  0
 24 41  1  0
 24 42  1  0
 25 43  1  0
 25 44  1  0
 26 45  1  6
 27 46  1  0
 27 47  1  0
M  END
>  <Ligand ID>  (1) 
LIG0001524

>  <Ligand>  (1) 
RP-101075

>  <SMILES>  (1) 
N#Cc1cc(ccc1OC(C)C)c1onc(n1)c1cccc2c1CC[C@@H]2N

>  <CID>  (1) 
52938426.0

>  <ChEMBL ID>  (1) 
nan

>  <InChiKey>  (1) 
WGUXQKIWMYYPQI-SFHVURJKSA-N

>  <InChi>  (1) 
InChI=1S/C21H20N4O2/c1-12(2)26-19-9-6-13(10-14(19)11-22)21-24-20(25-27-21)17-5-3-4-16-15(17)7-8-18(16)23/h3-6,9-10,12,18H,7-8,23H2,1-2H3/t18-/m0/s1

>  <IUPAC Name>  (1) 
5-[3-[(1S)-1-amino-2,3-dihydro-1H-inden-4-yl]-1,2,4-oxadiazol-5-yl]-2-propan-2-yloxybenzonitrile

$$$$
