
     RDKit          3D

 40 42  0  0  0  0  0  0  0  0999 V2000
    5.0376    2.5471    1.0519 C   0  0  0  0  0  0  0  0  0  0  0  0
    4.0028    1.5351    0.8514 N   0  0  0  0  0  0  0  0  0  0  0  0
    4.1206    0.5389   -0.1570 C   0  0  0  0  0  0  0  0  0  0  0  0
    5.1761    0.5771   -0.8750 O   0  0  0  0  0  0  0  0  0  0  0  0
    3.0998   -0.4905   -0.3837 C   0  0  1  0  0  0  0  0  0  0  0  0
    2.0363   -0.3566    0.4996 O   0  0  0  0  0  0  0  0  0  0  0  0
    1.0020   -1.1260   -0.0793 C   0  0  2  0  0  0  0  0  0  0  0  0
    0.9767   -0.6159   -1.4997 C   0  0  1  0  0  0  0  0  0  0  0  0
    2.4658   -0.3759   -1.7488 C   0  0  2  0  0  0  0  0  0  0  0  0
    2.9906   -1.4205   -2.5220 O   0  0  0  0  0  0  0  0  0  0  0  0
    0.5565   -1.6005   -2.3815 O   0  0  0  0  0  0  0  0  0  0  0  0
   -0.2004   -0.8342    0.6530 N   0  0  0  0  0  0  0  0  0  0  0  0
   -0.2736   -0.8190    2.0025 C   0  0  0  0  0  0  0  0  0  0  0  0
   -1.5623   -0.5054    2.3262 N   0  0  0  0  0  0  0  0  0  0  0  0
   -2.2382   -0.3384    1.1978 C   0  0  0  0  0  0  0  0  0  0  0  0
   -1.4010   -0.5405    0.1161 C   0  0  0  0  0  0  0  0  0  0  0  0
   -1.8431   -0.4303   -1.1330 N   0  0  0  0  0  0  0  0  0  0  0  0
   -3.1459   -0.1123   -1.3370 C   0  0  0  0  0  0  0  0  0  0  0  0
   -3.6830    0.0213   -2.6600 N   0  0  0  0  0  0  0  0  0  0  0  0
   -3.9959    0.0930   -0.2961 N   0  0  0  0  0  0  0  0  0  0  0  0
   -3.5606   -0.0156    0.9723 C   0  0  0  0  0  0  0  0  0  0  0  0
   -4.4879    0.2084    2.0477 N   0  0  0  0  0  0  0  0  0  0  0  0
   -5.8799    0.5482    1.8038 C   0  0  0  0  0  0  0  0  0  0  0  0
    4.7719    3.5236    0.6081 H   0  0  0  0  0  0  0  0  0  0  0  0
    5.9967    2.2459    0.6119 H   0  0  0  0  0  0  0  0  0  0  0  0
    5.1312    2.7062    2.1553 H   0  0  0  0  0  0  0  0  0  0  0  0
    3.1569    1.5628    1.4809 H   0  0  0  0  0  0  0  0  0  0  0  0
    3.4977   -1.5257   -0.2115 H   0  0  0  0  0  0  0  0  0  0  0  0
    1.2620   -2.2166   -0.0930 H   0  0  0  0  0  0  0  0  0  0  0  0
    0.4438    0.3279   -1.6116 H   0  0  0  0  0  0  0  0  0  0  0  0
    2.6517    0.5685   -2.2636 H   0  0  0  0  0  0  0  0  0  0  0  0
    3.1869   -2.2201   -1.9375 H   0  0  0  0  0  0  0  0  0  0  0  0
    0.7812   -2.5023   -1.9933 H   0  0  0  0  0  0  0  0  0  0  0  0
    0.4893   -1.0064    2.7405 H   0  0  0  0  0  0  0  0  0  0  0  0
   -4.2802   -0.7305   -3.0808 H   0  0  0  0  0  0  0  0  0  0  0  0
   -3.4991    0.8676   -3.2476 H   0  0  0  0  0  0  0  0  0  0  0  0
   -4.1117    0.1147    3.0373 H   0  0  0  0  0  0  0  0  0  0  0  0
   -6.2441    1.0606    2.7158 H   0  0  0  0  0  0  0  0  0  0  0  0
   -6.4325   -0.4228    1.7523 H   0  0  0  0  0  0  0  0  0  0  0  0
   -5.9950    1.1591    0.8874 H   0  0  0  0  0  0  0  0  0  0  0  0
  1  2  1  0
  2  3  1  0
  3  4  2  0
  3  5  1  0
  5  6  1  0
  6  7  1  0
  7  8  1  0
  8  9  1  0
  9 10  1  0
  8 11  1  0
  7 12  1  0
 12 13  1  0
 13 14  2  0
 14 15  1  0
 15 16  2  0
 16 17  1  0
 17 18  2  0
 18 19  1  0
 18 20  1  0
 20 21  2  0
 21 22  1  0
 22 23  1  0
  9  5  1  0
 16 12  1  0
 21 15  1  0
  1 24  1  0
  1 25  1  0
  1 26  1  0
  2 27  1  0
  5 28  1  6
  7 29  1  6
  8 30  1  1
  9 31  1  6
 10 32  1  0
 11 33  1  0
 13 34  1  0
 19 35  1  0
 19 36  1  0
 22 37  1  0
 23 38  1  0
 23 39  1  0
 23 40  1  0
M  END
>  <Ligand ID>  (1) 
LIG0001987

>  <Ligand>  (1) 
CHEMBL3133153

>  <SMILES>  (1) 
CNC(=O)[C@H]1O[C@H]([C@@H]([C@@H]1O)O)n1cnc2c1nc(N)nc2NC

>  <CID>  (1) 
76332919.0

>  <ChEMBL ID>  (1) 
nan

>  <InChiKey>  (1) 
IGILDMOZLJCRKA-QMWPFBOUSA-N

>  <InChi>  (1) 
InChI=1S/C12H17N7O4/c1-14-8-4-9(18-12(13)17-8)19(3-16-4)11-6(21)5(20)7(23-11)10(22)15-2/h3,5-7,11,20-21H,1-2H3,(H,15,22)(H3,13,14,17,18)/t5-,6+,7-,11+/m0/s1

>  <IUPAC Name>  (1) 
(2S,3S,4R,5R)-5-[2-amino-6-(methylamino)purin-9-yl]-3,4-dihydroxy-N-methyloxolane-2-carboxamide

$$$$
