
     RDKit          3D

 48 50  0  0  0  0  0  0  0  0999 V2000
    5.2130    0.0789    2.8197 O   0  0  0  0  0  0  0  0  0  0  0  0
    4.9005   -0.0684    1.6180 C   0  0  0  0  0  0  0  0  0  0  0  0
    5.4191   -1.1443    0.7015 C   0  0  0  0  0  0  0  0  0  0  0  0
    4.2311   -1.3425   -0.2082 C   0  0  0  0  0  0  0  0  0  0  0  0
    3.6751    0.0465   -0.4000 C   0  0  2  0  0  0  0  0  0  0  0  0
    4.0097    0.7048    0.8227 N   0  0  0  0  0  0  0  0  0  0  0  0
    2.2065   -0.0757   -0.6106 C   0  0  0  0  0  0  0  0  0  0  0  0
    1.8420   -0.6470   -1.6703 O   0  0  0  0  0  0  0  0  0  0  0  0
    1.3038    0.4405    0.3611 N   0  0  0  0  0  0  0  0  0  0  0  0
   -0.1478    0.3569    0.2192 C   0  0  2  0  0  0  0  0  0  0  0  0
   -0.6086   -1.0070    0.0728 C   0  0  0  0  0  0  0  0  0  0  0  0
    0.2805   -1.9288   -0.0120 O   0  0  0  0  0  0  0  0  0  0  0  0
   -1.9541   -1.4874    0.0091 N   0  0  0  0  0  0  0  0  0  0  0  0
   -2.1468   -2.9535   -0.1711 C   0  0  0  0  0  0  0  0  0  0  0  0
   -3.4809   -3.1684    0.4952 C   0  0  0  0  0  0  0  0  0  0  0  0
   -4.2377   -1.9433    0.0199 C   0  0  0  0  0  0  0  0  0  0  0  0
   -3.2022   -0.8114    0.1009 C   0  0  1  0  0  0  0  0  0  0  0  0
   -3.4574   -0.1792    1.4159 C   0  0  0  0  0  0  0  0  0  0  0  0
   -2.7349   -0.2393    2.4088 O   0  0  0  0  0  0  0  0  0  0  0  0
   -4.6758    0.5780    1.5291 N   0  0  0  0  0  0  0  0  0  0  0  0
   -0.4812    1.1846   -0.9942 C   0  0  0  0  0  0  0  0  0  0  0  0
   -0.1001    2.5942   -0.8640 C   0  0  0  0  0  0  0  0  0  0  0  0
   -0.2980    3.4956   -1.8646 N   0  0  0  0  0  0  0  0  0  0  0  0
    0.1267    4.6982   -1.4609 C   0  0  0  0  0  0  0  0  0  0  0  0
    0.6049    4.6168   -0.2081 N   0  0  0  0  0  0  0  0  0  0  0  0
    0.4613    3.3219    0.1500 C   0  0  0  0  0  0  0  0  0  0  0  0
    5.6037   -2.0883    1.2489 H   0  0  0  0  0  0  0  0  0  0  0  0
    6.2763   -0.7791    0.1304 H   0  0  0  0  0  0  0  0  0  0  0  0
    3.4379   -1.9474    0.3059 H   0  0  0  0  0  0  0  0  0  0  0  0
    4.5025   -1.7992   -1.1792 H   0  0  0  0  0  0  0  0  0  0  0  0
    4.2023    0.5223   -1.2384 H   0  0  0  0  0  0  0  0  0  0  0  0
    3.6571    1.6349    1.1158 H   0  0  0  0  0  0  0  0  0  0  0  0
    1.7630    0.8804    1.2057 H   0  0  0  0  0  0  0  0  0  0  0  0
   -0.5567    0.7674    1.1469 H   0  0  0  0  0  0  0  0  0  0  0  0
   -1.3769   -3.5334    0.3347 H   0  0  0  0  0  0  0  0  0  0  0  0
   -2.2198   -3.1555   -1.2756 H   0  0  0  0  0  0  0  0  0  0  0  0
   -3.9829   -4.0910    0.1442 H   0  0  0  0  0  0  0  0  0  0  0  0
   -3.3250   -3.1500    1.5835 H   0  0  0  0  0  0  0  0  0  0  0  0
   -5.0664   -1.7687    0.7293 H   0  0  0  0  0  0  0  0  0  0  0  0
   -4.6269   -2.0560   -0.9953 H   0  0  0  0  0  0  0  0  0  0  0  0
   -3.4225   -0.1082   -0.7125 H   0  0  0  0  0  0  0  0  0  0  0  0
   -5.1487    0.6801    2.4659 H   0  0  0  0  0  0  0  0  0  0  0  0
   -5.1137    1.0405    0.6837 H   0  0  0  0  0  0  0  0  0  0  0  0
    0.0566    0.7764   -1.8790 H   0  0  0  0  0  0  0  0  0  0  0  0
   -1.5595    1.1344   -1.2732 H   0  0  0  0  0  0  0  0  0  0  0  0
   -0.7084    3.3348   -2.8112 H   0  0  0  0  0  0  0  0  0  0  0  0
    0.1036    5.6219   -2.0330 H   0  0  0  0  0  0  0  0  0  0  0  0
    0.7559    2.9634    1.1157 H   0  0  0  0  0  0  0  0  0  0  0  0
  1  2  2  0
  2  3  1  0
  3  4  1  0
  4  5  1  0
  5  6  1  0
  5  7  1  0
  7  8  2  0
  7  9  1  0
  9 10  1  0
 10 11  1  0
 11 12  2  0
 11 13  1  0
 13 14  1  0
 14 15  1  0
 15 16  1  0
 16 17  1  0
 17 18  1  0
 18 19  2  0
 18 20  1  0
 10 21  1  0
 21 22  1  0
 22 23  1  0
 23 24  1  0
 24 25  2  0
 25 26  1  0
  6  2  1  0
 17 13  1  0
 26 22  2  0
  3 27  1  0
  3 28  1  0
  4 29  1  0
  4 30  1  0
  5 31  1  6
  6 32  1  0
  9 33  1  0
 10 34  1  1
 14 35  1  0
 14 36  1  0
 15 37  1  0
 15 38  1  0
 16 39  1  0
 16 40  1  0
 17 41  1  6
 20 42  1  0
 20 43  1  0
 21 44  1  0
 21 45  1  0
 23 46  1  0
 24 47  1  0
 26 48  1  0
M  END
>  <Ligand ID>  (1) 
LIG0002900

>  <Ligand>  (1) 
protirelin

>  <SMILES>  (1) 
O=C1CC[C@H](N1)C(=O)N[C@H](C(=O)N1CCC[C@H]1C(=O)N)Cc1[nH]cnc1

>  <CID>  (1) 
638678.0

>  <ChEMBL ID>  (1) 
nan

>  <InChiKey>  (1) 
XNSAINXGIQZQOO-SRVKXCTJSA-N

>  <InChi>  (1) 
InChI=1S/C16H22N6O4/c17-14(24)12-2-1-5-22(12)16(26)11(6-9-7-18-8-19-9)21-15(25)10-3-4-13(23)20-10/h7-8,10-12H,1-6H2,(H2,17,24)(H,18,19)(H,20,23)(H,21,25)/t10-,11-,12-/m0/s1

>  <IUPAC Name>  (1) 
(2S)-N-[(2S)-1-[(2S)-2-carbamoylpyrrolidin-1-yl]-3-(1H-imidazol-5-yl)-1-oxopropan-2-yl]-5-oxopyrrolidine-2-carboxamide

$$$$
