
     RDKit          3D

 67 69  0  0  0  0  0  0  0  0999 V2000
    9.1500   -3.1002    1.8420 C   0  0  0  0  0  0  0  0  0  0  0  0
    8.5443   -1.9876    1.0384 C   0  0  0  0  0  0  0  0  0  0  0  0
    8.1837   -2.2572   -0.2767 C   0  0  0  0  0  0  0  0  0  0  0  0
    7.6257   -1.2360   -1.0205 C   0  0  0  0  0  0  0  0  0  0  0  0
    7.4146    0.0327   -0.5103 C   0  0  0  0  0  0  0  0  0  0  0  0
    7.7828    0.2668    0.7956 C   0  0  0  0  0  0  0  0  0  0  0  0
    8.3503   -0.7231    1.5959 C   0  0  0  0  0  0  0  0  0  0  0  0
    6.7029    1.2464   -1.5373 S   0  0  0  0  0  0  0  0  0  0  0  0
    7.0722    0.9543   -2.9555 O   0  0  0  0  0  0  0  0  0  0  0  0
    7.2440    2.6073   -1.1999 O   0  0  0  0  0  0  0  0  0  0  0  0
    4.9865    1.1628   -1.3473 N   0  0  0  0  0  0  0  0  0  0  0  0
    4.5835    1.4381    0.0055 C   0  0  0  0  0  0  0  0  0  0  0  0
    3.1100    1.3456    0.0782 C   0  0  0  0  0  0  0  0  0  0  0  0
    2.4333    0.1740    0.3678 C   0  0  0  0  0  0  0  0  0  0  0  0
    1.0404    0.1905    0.4136 C   0  0  0  0  0  0  0  0  0  0  0  0
    0.3062    1.3342    0.1804 C   0  0  0  0  0  0  0  0  0  0  0  0
    0.9976    2.4915   -0.1066 C   0  0  0  0  0  0  0  0  0  0  0  0
    2.3750    2.4880   -0.1548 C   0  0  0  0  0  0  0  0  0  0  0  0
   -1.1529    1.2689    0.2470 C   0  0  0  0  0  0  0  0  0  0  0  0
   -1.6340    0.1246    0.5239 O   0  0  0  0  0  0  0  0  0  0  0  0
   -2.0047    2.3591    0.0299 N   0  0  0  0  0  0  0  0  0  0  0  0
   -3.4741    2.2690    0.1024 C   0  0  0  0  0  0  0  0  0  0  0  0
   -4.0197    1.3034   -0.8819 C   0  0  0  0  0  0  0  0  0  0  0  0
   -5.4581    1.2490   -0.8071 N   0  0  0  0  0  0  0  0  0  0  0  0
   -5.9707    0.4685   -1.9141 C   0  0  0  0  0  0  0  0  0  0  0  0
   -7.4479    0.5210   -2.0630 C   0  0  0  0  0  0  0  0  0  0  0  0
   -5.4187   -0.9320   -1.9992 C   0  0  0  0  0  0  0  0  0  0  0  0
   -6.0223    0.9437    0.4479 C   0  0  0  0  0  0  0  0  0  0  0  0
   -5.8115   -0.3736    1.0337 C   0  0  0  0  0  0  0  0  0  0  0  0
   -6.7828   -1.3701    0.8315 C   0  0  0  0  0  0  0  0  0  0  0  0
   -6.6420   -2.6364    1.3548 C   0  0  0  0  0  0  0  0  0  0  0  0
   -5.5614   -2.9918    2.0928 C   0  0  0  0  0  0  0  0  0  0  0  0
   -4.5855   -2.0393    2.3136 C   0  0  0  0  0  0  0  0  0  0  0  0
   -4.7281   -0.7642    1.7860 C   0  0  0  0  0  0  0  0  0  0  0  0
    9.1104   -2.8388    2.9296 H   0  0  0  0  0  0  0  0  0  0  0  0
    8.5514   -4.0141    1.6536 H   0  0  0  0  0  0  0  0  0  0  0  0
   10.2241   -3.2073    1.5783 H   0  0  0  0  0  0  0  0  0  0  0  0
    8.3272   -3.2211   -0.7157 H   0  0  0  0  0  0  0  0  0  0  0  0
    7.3532   -1.4626   -2.0348 H   0  0  0  0  0  0  0  0  0  0  0  0
    7.6204    1.2539    1.1985 H   0  0  0  0  0  0  0  0  0  0  0  0
    8.6419   -0.5460    2.6231 H   0  0  0  0  0  0  0  0  0  0  0  0
    4.5842    1.8724   -1.9825 H   0  0  0  0  0  0  0  0  0  0  0  0
    5.0752    0.7643    0.7351 H   0  0  0  0  0  0  0  0  0  0  0  0
    4.8936    2.4762    0.2678 H   0  0  0  0  0  0  0  0  0  0  0  0
    3.0093   -0.7211    0.5504 H   0  0  0  0  0  0  0  0  0  0  0  0
    0.5726   -0.7724    0.6485 H   0  0  0  0  0  0  0  0  0  0  0  0
    0.4761    3.4135   -0.2970 H   0  0  0  0  0  0  0  0  0  0  0  0
    2.8758    3.4345   -0.3871 H   0  0  0  0  0  0  0  0  0  0  0  0
   -1.5404    3.2884   -0.1975 H   0  0  0  0  0  0  0  0  0  0  0  0
   -3.7860    2.0698    1.1369 H   0  0  0  0  0  0  0  0  0  0  0  0
   -3.8671    3.2912   -0.1270 H   0  0  0  0  0  0  0  0  0  0  0  0
   -3.5097    0.3436   -0.8313 H   0  0  0  0  0  0  0  0  0  0  0  0
   -3.7950    1.7263   -1.9030 H   0  0  0  0  0  0  0  0  0  0  0  0
   -5.5549    1.0146   -2.8216 H   0  0  0  0  0  0  0  0  0  0  0  0
   -7.8921    1.3063   -1.4618 H   0  0  0  0  0  0  0  0  0  0  0  0
   -7.9217   -0.4910   -1.9635 H   0  0  0  0  0  0  0  0  0  0  0  0
   -7.7342    0.7989   -3.1325 H   0  0  0  0  0  0  0  0  0  0  0  0
   -4.8317   -1.0733   -2.9546 H   0  0  0  0  0  0  0  0  0  0  0  0
   -6.2823   -1.6375   -2.0647 H   0  0  0  0  0  0  0  0  0  0  0  0
   -4.7578   -1.1463   -1.1676 H   0  0  0  0  0  0  0  0  0  0  0  0
   -5.6935    1.7092    1.1977 H   0  0  0  0  0  0  0  0  0  0  0  0
   -7.1357    1.1837    0.3609 H   0  0  0  0  0  0  0  0  0  0  0  0
   -7.6819   -1.1826    0.2654 H   0  0  0  0  0  0  0  0  0  0  0  0
   -7.4168   -3.3980    1.1809 H   0  0  0  0  0  0  0  0  0  0  0  0
   -5.4435   -3.9798    2.5058 H   0  0  0  0  0  0  0  0  0  0  0  0
   -3.7294   -2.3286    2.9007 H   0  0  0  0  0  0  0  0  0  0  0  0
   -3.9304   -0.0760    2.0019 H   0  0  0  0  0  0  0  0  0  0  0  0
  1  2  1  0
  2  3  2  0
  3  4  1  0
  4  5  2  0
  5  6  1  0
  6  7  2  0
  5  8  1  0
  8  9  2  0
  8 10  2  0
  8 11  1  0
 11 12  1  0
 12 13  1  0
 13 14  2  0
 14 15  1  0
 15 16  2  0
 16 17  1  0
 17 18  2  0
 16 19  1  0
 19 20  2  0
 19 21  1  0
 21 22  1  0
 22 23  1  0
 23 24  1  0
 24 25  1  0
 25 26  1  0
 25 27  1  0
 24 28  1  0
 28 29  1  0
 29 30  2  0
 30 31  1  0
 31 32  2  0
 32 33  1  0
 33 34  2  0
  7  2  1  0
 18 13  1  0
 34 29  1  0
  1 35  1  0
  1 36  1  0
  1 37  1  0
  3 38  1  0
  4 39  1  0
  6 40  1  0
  7 41  1  0
 11 42  1  0
 12 43  1  0
 12 44  1  0
 14 45  1  0
 15 46  1  0
 17 47  1  0
 18 48  1  0
 21 49  1  0
 22 50  1  0
 22 51  1  0
 23 52  1  0
 23 53  1  0
 25 54  1  0
 26 55  1  0
 26 56  1  0
 26 57  1  0
 27 58  1  0
 27 59  1  0
 27 60  1  0
 28 61  1  0
 28 62  1  0
 30 63  1  0
 31 64  1  0
 32 65  1  0
 33 66  1  0
 34 67  1  0
M  END
>  <Ligand ID>  (1) 
LIG0003838

>  <Ligand>  (1) 
MLS000682490

>  <SMILES>  (1) 
Cc1ccc(cc1)S(=O)(=O)NCc1ccc(cc1)C(=O)NCCN(C(C)C)Cc1ccccc1

>  <CID>  (1) 
3342390.0

>  <ChEMBL ID>  (1) 
nan

>  <InChiKey>  (1) 
JEJWQCTZDAJWOX-UHFFFAOYSA-N

>  <InChi>  (1) 
InChI=1S/C27H33N3O3S/c1-21(2)30(20-24-7-5-4-6-8-24)18-17-28-27(31)25-13-11-23(12-14-25)19-29-34(32,33)26-15-9-22(3)10-16-26/h4-16,21,29H,17-20H2,1-3H3,(H,28,31)

>  <IUPAC Name>  (1) 
N-[2-[benzyl(propan-2-yl)amino]ethyl]-4-[[(4-methylphenyl)sulfonylamino]methyl]benzamide

$$$$
