
     RDKit          3D

 57 59  0  0  0  0  0  0  0  0999 V2000
   -6.1615   -0.4241    3.2365 C   0  0  0  0  0  0  0  0  0  0  0  0
   -6.5769    0.1084    1.8835 C   0  0  0  0  0  0  0  0  0  0  0  0
   -6.5800   -1.0022    0.8373 C   0  0  0  0  0  0  0  0  0  0  0  0
   -6.9875   -0.4886   -0.4990 C   0  0  0  0  0  0  0  0  0  0  0  0
   -6.1402    0.4961   -0.9549 O   0  0  0  0  0  0  0  0  0  0  0  0
   -4.8296    0.4470   -1.2784 C   0  0  0  0  0  0  0  0  0  0  0  0
   -4.2390    1.6571   -1.6896 C   0  0  0  0  0  0  0  0  0  0  0  0
   -2.9158    1.7382   -2.0470 C   0  0  0  0  0  0  0  0  0  0  0  0
   -2.1025    0.6350   -2.0196 C   0  0  0  0  0  0  0  0  0  0  0  0
   -2.6428   -0.5553   -1.6261 C   0  0  0  0  0  0  0  0  0  0  0  0
   -3.9923   -0.6359   -1.2624 C   0  0  0  0  0  0  0  0  0  0  0  0
   -0.4270    0.8258   -2.4915 S   0  0  0  0  0  0  0  0  0  0  0  0
   -0.3764    1.9133   -3.5264 O   0  0  0  0  0  0  0  0  0  0  0  0
    0.0948   -0.4199   -3.1538 O   0  0  0  0  0  0  0  0  0  0  0  0
    0.4823    1.2352   -1.0919 N   0  0  0  0  0  0  0  0  0  0  0  0
    0.4493    0.2177   -0.0623 C   0  0  0  0  0  0  0  0  0  0  0  0
    1.6238   -0.4341   -0.6976 C   0  0  0  0  0  0  0  0  0  0  0  0
    1.8838    0.9265   -1.2952 C   0  0  0  0  0  0  0  0  0  0  0  0
    2.7111   -0.8033    0.1923 N   0  0  0  0  0  0  0  0  0  0  0  0
    3.7086   -1.4053   -0.6641 C   0  0  0  0  0  0  0  0  0  0  0  0
    4.9276   -1.8790    0.0612 C   0  0  1  0  0  0  0  0  0  0  0  0
    5.6609   -0.6924    0.5730 C   0  0  0  0  0  0  0  0  0  0  0  0
    5.3177   -0.1201    1.7962 C   0  0  0  0  0  0  0  0  0  0  0  0
    6.0011    0.9923    2.2756 C   0  0  0  0  0  0  0  0  0  0  0  0
    7.0441    1.5700    1.5577 C   0  0  0  0  0  0  0  0  0  0  0  0
    7.3866    0.9991    0.3374 C   0  0  0  0  0  0  0  0  0  0  0  0
    6.7068   -0.1078   -0.1401 C   0  0  0  0  0  0  0  0  0  0  0  0
    7.7006    2.6763    2.0672 O   0  0  0  0  0  0  0  0  0  0  0  0
    4.6809   -2.8296    1.0160 O   0  0  0  0  0  0  0  0  0  0  0  0
   -5.0718   -0.3454    3.4229 H   0  0  0  0  0  0  0  0  0  0  0  0
   -6.6825    0.0947    4.0604 H   0  0  0  0  0  0  0  0  0  0  0  0
   -6.4139   -1.5018    3.2970 H   0  0  0  0  0  0  0  0  0  0  0  0
   -5.8489    0.8841    1.6065 H   0  0  0  0  0  0  0  0  0  0  0  0
   -7.5827    0.5302    1.9350 H   0  0  0  0  0  0  0  0  0  0  0  0
   -7.3313   -1.7695    1.1385 H   0  0  0  0  0  0  0  0  0  0  0  0
   -5.6163   -1.4717    0.8625 H   0  0  0  0  0  0  0  0  0  0  0  0
   -8.0435   -0.1205   -0.5130 H   0  0  0  0  0  0  0  0  0  0  0  0
   -7.0123   -1.3578   -1.2344 H   0  0  0  0  0  0  0  0  0  0  0  0
   -4.8406    2.5747   -1.7317 H   0  0  0  0  0  0  0  0  0  0  0  0
   -2.5022    2.7031   -2.3601 H   0  0  0  0  0  0  0  0  0  0  0  0
   -2.0193   -1.4441   -1.5966 H   0  0  0  0  0  0  0  0  0  0  0  0
   -4.3335   -1.6112   -0.9871 H   0  0  0  0  0  0  0  0  0  0  0  0
   -0.4309   -0.4690   -0.0900 H   0  0  0  0  0  0  0  0  0  0  0  0
    0.6543    0.6274    0.9474 H   0  0  0  0  0  0  0  0  0  0  0  0
    1.4108   -1.2473   -1.4136 H   0  0  0  0  0  0  0  0  0  0  0  0
    2.5951    1.5496   -0.7191 H   0  0  0  0  0  0  0  0  0  0  0  0
    2.1527    0.8359   -2.3808 H   0  0  0  0  0  0  0  0  0  0  0  0
    3.1214    0.0976    0.5841 H   0  0  0  0  0  0  0  0  0  0  0  0
    3.2343   -2.2832   -1.1687 H   0  0  0  0  0  0  0  0  0  0  0  0
    3.9380   -0.6862   -1.4653 H   0  0  0  0  0  0  0  0  0  0  0  0
    5.6372   -2.3587   -0.6772 H   0  0  0  0  0  0  0  0  0  0  0  0
    4.5281   -0.5044    2.4139 H   0  0  0  0  0  0  0  0  0  0  0  0
    5.7224    1.4242    3.2262 H   0  0  0  0  0  0  0  0  0  0  0  0
    8.2057    1.4440   -0.2376 H   0  0  0  0  0  0  0  0  0  0  0  0
    6.9760   -0.5585   -1.1021 H   0  0  0  0  0  0  0  0  0  0  0  0
    7.5836    3.5740    1.5941 H   0  0  0  0  0  0  0  0  0  0  0  0
    5.5613   -3.2509    1.2548 H   0  0  0  0  0  0  0  0  0  0  0  0
  1  2  1  0
  2  3  1  0
  3  4  1  0
  4  5  1  0
  5  6  1  0
  6  7  2  0
  7  8  1  0
  8  9  2  0
  9 10  1  0
 10 11  2  0
  9 12  1  0
 12 13  2  0
 12 14  2  0
 12 15  1  0
 15 16  1  0
 16 17  1  0
 17 18  1  0
 17 19  1  0
 19 20  1  0
 20 21  1  0
 21 22  1  0
 22 23  2  0
 23 24  1  0
 24 25  2  0
 25 26  1  0
 26 27  2  0
 25 28  1  0
 21 29  1  0
 11  6  1  0
 18 15  1  0
 27 22  1  0
  1 30  1  0
  1 31  1  0
  1 32  1  0
  2 33  1  0
  2 34  1  0
  3 35  1  0
  3 36  1  0
  4 37  1  0
  4 38  1  0
  7 39  1  0
  8 40  1  0
 10 41  1  0
 11 42  1  0
 16 43  1  0
 16 44  1  0
 17 45  1  0
 18 46  1  0
 18 47  1  0
 19 48  1  0
 20 49  1  0
 20 50  1  0
 21 51  1  6
 23 52  1  0
 24 53  1  0
 26 54  1  0
 27 55  1  0
 28 56  1  0
 29 57  1  0
M  END
>  <Ligand ID>  (1) 
LIG0004332

>  <Ligand>  (1) 
CHEMBL302803

>  <SMILES>  (1) 
CCCCOc1ccc(cc1)S(=O)(=O)N1CC(C1)NC[C@@H](c1ccc(cc1)O)O

>  <CID>  (1) 
44309523.0

>  <ChEMBL ID>  (1) 
nan

>  <InChiKey>  (1) 
RTZATHWISXFFBI-NRFANRHFSA-N

>  <InChi>  (1) 
InChI=1S/C21H28N2O5S/c1-2-3-12-28-19-8-10-20(11-9-19)29(26,27)23-14-17(15-23)22-13-21(25)16-4-6-18(24)7-5-16/h4-11,17,21-22,24-25H,2-3,12-15H2,1H3/t21-/m0/s1

>  <IUPAC Name>  (1) 
4-[(1R)-2-[[1-(4-butoxyphenyl)sulfonylazetidin-3-yl]amino]-1-hydroxyethyl]phenol

$$$$
