
     RDKit          3D

 42 43  0  0  0  0  0  0  0  0999 V2000
   -4.4614   -0.8382    1.7003 C   0  0  0  0  0  0  0  0  0  0  0  0
   -3.9064   -0.4463    0.3670 C   0  0  0  0  0  0  0  0  0  0  0  0
   -2.7334    0.3684    0.4010 N   0  0  0  0  0  0  0  0  0  0  0  0
   -1.3797    0.0323    0.4019 C   0  0  0  0  0  0  0  0  0  0  0  0
   -0.5747    1.0481    0.4216 O   0  0  0  0  0  0  0  0  0  0  0  0
   -0.7245   -1.2516    0.3802 C   0  0  0  0  0  0  0  0  0  0  0  0
   -1.3402   -2.4307    0.7458 C   0  0  0  0  0  0  0  0  0  0  0  0
   -0.6850   -3.6639    0.8000 C   0  0  0  0  0  0  0  0  0  0  0  0
    0.6374   -3.7476    0.4817 C   0  0  0  0  0  0  0  0  0  0  0  0
    1.2792   -2.5993    0.1147 C   0  0  0  0  0  0  0  0  0  0  0  0
    0.6327   -1.3529    0.0545 C   0  0  0  0  0  0  0  0  0  0  0  0
    1.4307   -0.2831   -0.3991 N   0  0  0  0  0  0  0  0  0  0  0  0
    2.8581   -0.5027   -0.6976 C   0  0  0  0  0  0  0  0  0  0  0  0
    3.5418    0.7089   -1.1498 C   0  0  0  0  0  0  0  0  0  0  0  0
    3.0317    1.8828   -1.3003 N   0  0  0  0  0  0  0  0  0  0  0  0
    3.9989    2.8419   -1.7627 C   0  0  0  0  0  0  0  0  0  0  0  0
    5.3299    2.1547   -1.4593 C   0  0  0  0  0  0  0  0  0  0  0  0
    4.9181    0.7652   -1.5004 N   0  0  0  0  0  0  0  0  0  0  0  0
   -3.0197    1.8364    0.4533 C   0  0  0  0  0  0  0  0  0  0  0  0
   -3.1452    2.3017    1.8843 C   0  0  0  0  0  0  0  0  0  0  0  0
   -5.1396   -0.0184    2.0621 H   0  0  0  0  0  0  0  0  0  0  0  0
   -3.7006   -1.0951    2.4645 H   0  0  0  0  0  0  0  0  0  0  0  0
   -5.1112   -1.7273    1.5665 H   0  0  0  0  0  0  0  0  0  0  0  0
   -3.7599   -1.3238   -0.2784 H   0  0  0  0  0  0  0  0  0  0  0  0
   -4.7596    0.1031   -0.1511 H   0  0  0  0  0  0  0  0  0  0  0  0
   -2.3675   -2.4798    1.0316 H   0  0  0  0  0  0  0  0  0  0  0  0
   -1.1945   -4.5734    1.0902 H   0  0  0  0  0  0  0  0  0  0  0  0
    1.1359   -4.7016    0.5267 H   0  0  0  0  0  0  0  0  0  0  0  0
    2.3366   -2.6967   -0.1337 H   0  0  0  0  0  0  0  0  0  0  0  0
    1.1328    0.6905   -0.5792 H   0  0  0  0  0  0  0  0  0  0  0  0
    2.9946   -1.3029   -1.4645 H   0  0  0  0  0  0  0  0  0  0  0  0
    3.3059   -0.8496    0.2560 H   0  0  0  0  0  0  0  0  0  0  0  0
    3.9826    3.7883   -1.1562 H   0  0  0  0  0  0  0  0  0  0  0  0
    3.9826    3.0276   -2.8429 H   0  0  0  0  0  0  0  0  0  0  0  0
    6.1111    2.3973   -2.1805 H   0  0  0  0  0  0  0  0  0  0  0  0
    5.6760    2.3659   -0.4328 H   0  0  0  0  0  0  0  0  0  0  0  0
    5.5000   -0.0882   -1.7420 H   0  0  0  0  0  0  0  0  0  0  0  0
   -2.2060    2.3849   -0.0796 H   0  0  0  0  0  0  0  0  0  0  0  0
   -3.9914    1.9842   -0.0381 H   0  0  0  0  0  0  0  0  0  0  0  0
   -4.2023    2.6142    2.1266 H   0  0  0  0  0  0  0  0  0  0  0  0
   -2.9080    1.4990    2.6063 H   0  0  0  0  0  0  0  0  0  0  0  0
   -2.5058    3.1778    2.0990 H   0  0  0  0  0  0  0  0  0  0  0  0
  1  2  1  0
  2  3  1  0
  3  4  1  0
  4  5  2  0
  4  6  1  0
  6  7  2  0
  7  8  1  0
  8  9  2  0
  9 10  1  0
 10 11  2  0
 11 12  1  0
 12 13  1  0
 13 14  1  0
 14 15  2  0
 15 16  1  0
 16 17  1  0
 17 18  1  0
  3 19  1  0
 19 20  1  0
 11  6  1  0
 18 14  1  0
  1 21  1  0
  1 22  1  0
  1 23  1  0
  2 24  1  0
  2 25  1  0
  7 26  1  0
  8 27  1  0
  9 28  1  0
 10 29  1  0
 12 30  1  0
 13 31  1  0
 13 32  1  0
 16 33  1  0
 16 34  1  0
 17 35  1  0
 17 36  1  0
 18 37  1  0
 19 38  1  0
 19 39  1  0
 20 40  1  0
 20 41  1  0
 20 42  1  0
M  END
>  <Ligand ID>  (1) 
LIG0004368

>  <Ligand>  (1) 
CHEMBL421011

>  <SMILES>  (1) 
CCN(C(=O)c1ccccc1NCC1=NCCN1)CC

>  <CID>  (1) 
9816986.0

>  <ChEMBL ID>  (1) 
nan

>  <InChiKey>  (1) 
JQBLEBHNQPKFKG-UHFFFAOYSA-N

>  <InChi>  (1) 
InChI=1S/C15H22N4O/c1-3-19(4-2)15(20)12-7-5-6-8-13(12)18-11-14-16-9-10-17-14/h5-8,18H,3-4,9-11H2,1-2H3,(H,16,17)

>  <IUPAC Name>  (1) 
2-(4,5-dihydro-1H-imidazol-2-ylmethylamino)-N,N-diethylbenzamide

$$$$
