
     RDKit          3D

 72 76  0  0  0  0  0  0  0  0999 V2000
   -5.2589   -1.3630   -0.8553 O   0  0  0  0  0  0  0  0  0  0  0  0
   -5.8011   -2.5884   -0.4977 C   0  0  0  0  0  0  0  0  0  0  0  0
   -4.9399   -3.2703    0.5598 C   0  0  0  0  0  0  0  0  0  0  0  0
   -4.8366   -2.4347    1.7927 C   0  0  0  0  0  0  0  0  0  0  0  0
   -4.2622   -1.1631    1.5634 O   0  0  0  0  0  0  0  0  0  0  0  0
   -2.9835   -1.0148    1.0625 C   0  0  0  0  0  0  0  0  0  0  0  0
   -2.5064    0.2216    0.8711 N   0  0  0  0  0  0  0  0  0  0  0  0
   -1.2796    0.4990    0.3898 C   0  0  0  0  0  0  0  0  0  0  0  0
   -0.9037    1.8573    0.2385 N   0  0  0  0  0  0  0  0  0  0  0  0
   -1.8499    2.9194    0.6048 C   0  0  0  0  0  0  0  0  0  0  0  0
   -1.3150    4.2660    0.3935 C   0  0  0  0  0  0  0  0  0  0  0  0
   -0.6316    4.8557    1.4608 C   0  0  0  0  0  0  0  0  0  0  0  0
   -0.1017    6.1166    1.3403 C   0  0  0  0  0  0  0  0  0  0  0  0
   -0.2194    6.8438    0.1786 C   0  0  0  0  0  0  0  0  0  0  0  0
   -0.8975    6.2551   -0.8763 C   0  0  0  0  0  0  0  0  0  0  0  0
   -1.4372    4.9896   -0.7756 C   0  0  0  0  0  0  0  0  0  0  0  0
   -1.0077    7.0686   -2.1221 C   0  0  0  0  0  0  0  0  0  0  0  0
    0.1173    7.8751   -2.2672 F   0  0  0  0  0  0  0  0  0  0  0  0
   -2.1368    7.8441   -2.0430 F   0  0  0  0  0  0  0  0  0  0  0  0
   -1.0531    6.2380   -3.2204 F   0  0  0  0  0  0  0  0  0  0  0  0
   -0.4714   -0.5600    0.0774 C   0  0  0  0  0  0  0  0  0  0  0  0
   -0.9298   -1.8455    0.2617 C   0  0  0  0  0  0  0  0  0  0  0  0
   -2.1711   -2.0383    0.7484 N   0  0  0  0  0  0  0  0  0  0  0  0
   -0.1071   -2.9024   -0.0575 C   0  0  0  0  0  0  0  0  0  0  0  0
    1.1538   -2.6739   -0.5531 C   0  0  0  0  0  0  0  0  0  0  0  0
    1.6567   -1.3823   -0.7543 C   0  0  0  0  0  0  0  0  0  0  0  0
    0.7797   -0.3595   -0.4139 C   0  0  0  0  0  0  0  0  0  0  0  0
    3.0198   -1.1386   -1.2753 C   0  0  0  0  0  0  0  0  0  0  0  0
    3.7228    0.0090   -0.6878 C   0  0  0  0  0  0  0  0  0  0  0  0
    4.6058   -0.0130    0.3507 C   0  0  0  0  0  0  0  0  0  0  0  0
    5.2214    1.1471    0.8325 C   0  0  0  0  0  0  0  0  0  0  0  0
    4.9600    2.3785    0.2722 C   0  0  0  0  0  0  0  0  0  0  0  0
    4.0709    2.4120   -0.7766 C   0  0  0  0  0  0  0  0  0  0  0  0
    3.4645    1.2674   -1.2507 C   0  0  0  0  0  0  0  0  0  0  0  0
    5.6981    3.8554    0.8331 Cl  0  0  0  0  0  0  0  0  0  0  0  0
    3.7914   -2.3849   -1.0530 C   0  0  0  0  0  0  0  0  0  0  0  0
    3.8885   -3.0348    0.1513 C   0  0  0  0  0  0  0  0  0  0  0  0
    4.6272   -4.1860    0.3465 C   0  0  0  0  0  0  0  0  0  0  0  0
    5.3183   -4.7393   -0.7119 C   0  0  0  0  0  0  0  0  0  0  0  0
    5.2458   -4.1157   -1.9411 C   0  0  0  0  0  0  0  0  0  0  0  0
    4.4923   -2.9503   -2.1176 C   0  0  0  0  0  0  0  0  0  0  0  0
    6.2488   -6.1999   -0.4410 Cl  0  0  0  0  0  0  0  0  0  0  0  0
   -5.5063   -4.6091    0.9420 C   0  0  0  0  0  0  0  0  0  0  0  0
   -4.7096   -5.2367    1.9184 O   0  0  0  0  0  0  0  0  0  0  0  0
   -5.5938   -1.1014   -1.7624 H   0  0  0  0  0  0  0  0  0  0  0  0
   -5.8776   -3.2176   -1.4071 H   0  0  0  0  0  0  0  0  0  0  0  0
   -6.7857   -2.4027   -0.0135 H   0  0  0  0  0  0  0  0  0  0  0  0
   -3.9501   -3.4632    0.1090 H   0  0  0  0  0  0  0  0  0  0  0  0
   -5.7888   -2.3668    2.3505 H   0  0  0  0  0  0  0  0  0  0  0  0
   -4.1485   -2.9854    2.5017 H   0  0  0  0  0  0  0  0  0  0  0  0
    0.0110    2.1929   -0.1200 H   0  0  0  0  0  0  0  0  0  0  0  0
   -2.7345    2.7595   -0.0654 H   0  0  0  0  0  0  0  0  0  0  0  0
   -2.1576    2.7524    1.6668 H   0  0  0  0  0  0  0  0  0  0  0  0
   -0.5181    4.3105    2.3968 H   0  0  0  0  0  0  0  0  0  0  0  0
    0.4211    6.5135    2.2214 H   0  0  0  0  0  0  0  0  0  0  0  0
    0.2114    7.8322    0.1248 H   0  0  0  0  0  0  0  0  0  0  0  0
   -1.9629    4.5444   -1.6067 H   0  0  0  0  0  0  0  0  0  0  0  0
   -0.4663   -3.9303    0.0864 H   0  0  0  0  0  0  0  0  0  0  0  0
    1.7422   -3.5538   -0.7905 H   0  0  0  0  0  0  0  0  0  0  0  0
    1.1399    0.6361   -0.5562 H   0  0  0  0  0  0  0  0  0  0  0  0
    2.9328   -0.9386   -2.3783 H   0  0  0  0  0  0  0  0  0  0  0  0
    4.8781   -0.9191    0.8450 H   0  0  0  0  0  0  0  0  0  0  0  0
    5.9151    1.0979    1.6554 H   0  0  0  0  0  0  0  0  0  0  0  0
    3.8578    3.3904   -1.2283 H   0  0  0  0  0  0  0  0  0  0  0  0
    2.7857    1.3949   -2.0817 H   0  0  0  0  0  0  0  0  0  0  0  0
    3.3565   -2.6616    1.0209 H   0  0  0  0  0  0  0  0  0  0  0  0
    4.6600   -4.6520    1.3385 H   0  0  0  0  0  0  0  0  0  0  0  0
    5.7977   -4.5719   -2.7528 H   0  0  0  0  0  0  0  0  0  0  0  0
    4.4767   -2.5077   -3.1139 H   0  0  0  0  0  0  0  0  0  0  0  0
   -6.5304   -4.5578    1.3554 H   0  0  0  0  0  0  0  0  0  0  0  0
   -5.4624   -5.2997    0.0653 H   0  0  0  0  0  0  0  0  0  0  0  0
   -4.9755   -5.0099    2.8329 H   0  0  0  0  0  0  0  0  0  0  0  0
  1  2  1  0
  2  3  1  0
  3  4  1  0
  4  5  1  0
  5  6  1  0
  6  7  2  0
  7  8  1  0
  8  9  1  0
  9 10  1  0
 10 11  1  0
 11 12  2  0
 12 13  1  0
 13 14  2  0
 14 15  1  0
 15 16  2  0
 15 17  1  0
 17 18  1  0
 17 19  1  0
 17 20  1  0
  8 21  2  0
 21 22  1  0
 22 23  2  0
 22 24  1  0
 24 25  2  0
 25 26  1  0
 26 27  2  0
 26 28  1  0
 28 29  1  0
 29 30  2  0
 30 31  1  0
 31 32  2  0
 32 33  1  0
 33 34  2  0
 32 35  1  0
 28 36  1  0
 36 37  2  0
 37 38  1  0
 38 39  2  0
 39 40  1  0
 40 41  2  0
 39 42  1  0
  3 43  1  0
 43 44  1  0
 23  6  1  0
 34 29  1  0
 41 36  1  0
 16 11  1  0
 27 21  1  0
  1 45  1  0
  2 46  1  0
  2 47  1  0
  3 48  1  0
  4 49  1  0
  4 50  1  0
  9 51  1  0
 10 52  1  0
 10 53  1  0
 12 54  1  0
 13 55  1  0
 14 56  1  0
 16 57  1  0
 24 58  1  0
 25 59  1  0
 27 60  1  0
 28 61  1  0
 30 62  1  0
 31 63  1  0
 33 64  1  0
 34 65  1  0
 37 66  1  0
 38 67  1  0
 40 68  1  0
 41 69  1  0
 43 70  1  0
 43 71  1  0
 44 72  1  0
M  END
>  <Ligand ID>  (1) 
LIG0005807

>  <Ligand>  (1) 
SCHEMBL17557707

>  <SMILES>  (1) 
OCC(COc1nc(NCc2cccc(c2)C(F)(F)F)c2c(n1)ccc(c2)C(c1ccc(cc1)Cl)c1ccc(cc1)Cl)CO

>  <CID>  (1) 
118916185.0

>  <ChEMBL ID>  (1) 
nan

>  <InChiKey>  (1) 
IMCFTIXFHOBIDA-UHFFFAOYSA-N

>  <InChi>  (1) 
InChI=1S/C33H28Cl2F3N3O3/c34-26-9-4-22(5-10-26)30(23-6-11-27(35)12-7-23)24-8-13-29-28(15-24)31(41-32(40-29)44-19-21(17-42)18-43)39-16-20-2-1-3-25(14-20)33(36,37)38/h1-15,21,30,42-43H,16-19H2,(H,39,40,41)

>  <IUPAC Name>  (1) 
2-[[6-[bis(4-chlorophenyl)methyl]-4-[[3-(trifluoromethyl)phenyl]methylamino]quinazolin-2-yl]oxymethyl]propane-1,3-diol

$$$$
