
     RDKit          3D

150154  0  0  0  0  0  0  0  0999 V2000
    4.0905   -3.3315    3.0367 C   0  0  0  0  0  0  0  0  0  0  0  0
    3.1812   -3.5958    1.4900 S   0  0  0  0  0  0  0  0  0  0  0  0
    1.4452   -3.0841    1.6277 C   0  0  0  0  0  0  0  0  0  0  0  0
    1.3688   -1.5850    1.8007 C   0  0  0  0  0  0  0  0  0  0  0  0
    2.0124   -0.8642    0.6294 C   0  0  1  0  0  0  0  0  0  0  0  0
    1.3825   -1.1737   -0.6715 C   0  0  0  0  0  0  0  0  0  0  0  0
    1.6342   -2.3676   -1.1010 O   0  0  0  0  0  0  0  0  0  0  0  0
    0.5746   -0.3286   -1.4363 N   0  0  0  0  0  0  0  0  0  0  0  0
   -0.0273   -0.5965   -2.7042 C   0  0  2  0  0  0  0  0  0  0  0  0
   -1.4628   -0.8527   -2.6324 C   0  0  0  0  0  0  0  0  0  0  0  0
   -2.0493   -1.2269   -3.6944 O   0  0  0  0  0  0  0  0  0  0  0  0
   -2.2211   -0.7112   -1.4345 N   0  0  0  0  0  0  0  0  0  0  0  0
   -3.6177   -1.0618   -1.4939 C   0  0  2  0  0  0  0  0  0  0  0  0
   -4.5677    0.0748   -1.4351 C   0  0  0  0  0  0  0  0  0  0  0  0
   -4.0974    1.2633   -1.4262 O   0  0  0  0  0  0  0  0  0  0  0  0
   -5.9293   -0.2206   -1.3966 N   0  0  0  0  0  0  0  0  0  0  0  0
   -7.0199    0.7707   -1.3661 C   0  0  2  0  0  0  0  0  0  0  0  0
   -7.6964    0.8082   -0.0750 C   0  0  0  0  0  0  0  0  0  0  0  0
   -8.6148    1.6343    0.1277 O   0  0  0  0  0  0  0  0  0  0  0  0
   -7.3363   -0.0456    0.9176 O   0  0  0  0  0  0  0  0  0  0  0  0
   -7.8308   -0.1799    2.2057 C   0  0  0  0  0  0  0  0  0  0  0  0
   -9.2655   -0.5192    2.3049 C   0  0  0  0  0  0  0  0  0  0  0  0
  -10.2521    0.4458    2.4117 C   0  0  0  0  0  0  0  0  0  0  0  0
  -11.5404    0.0267    2.5014 C   0  0  0  0  0  0  0  0  0  0  0  0
  -11.9304   -1.2973    2.4948 C   0  0  0  0  0  0  0  0  0  0  0  0
  -10.9408   -2.2831    2.3879 C   0  0  0  0  0  0  0  0  0  0  0  0
   -9.6231   -1.8376    2.2951 C   0  0  0  0  0  0  0  0  0  0  0  0
  -11.2868   -3.7203    2.3842 C   0  0  0  0  0  0  0  0  0  0  0  0
  -12.2043   -4.0542    3.3764 F   0  0  0  0  0  0  0  0  0  0  0  0
  -11.8816   -4.0664    1.1898 F   0  0  0  0  0  0  0  0  0  0  0  0
  -10.1642   -4.5029    2.5378 F   0  0  0  0  0  0  0  0  0  0  0  0
  -12.6394    1.0489    2.6112 C   0  0  0  0  0  0  0  0  0  0  0  0
  -13.8759    0.4461    2.6766 F   0  0  0  0  0  0  0  0  0  0  0  0
  -12.5125    1.9460    1.5828 F   0  0  0  0  0  0  0  0  0  0  0  0
  -12.3784    1.7630    3.7851 F   0  0  0  0  0  0  0  0  0  0  0  0
   -7.8491    0.4222   -2.5654 C   0  0  0  0  0  0  0  0  0  0  0  0
   -9.0535    1.1865   -2.8312 C   0  0  0  0  0  0  0  0  0  0  0  0
   -9.1178    2.2778   -3.7033 C   0  0  0  0  0  0  0  0  0  0  0  0
  -10.3667    2.7616   -3.7040 N   0  0  0  0  0  0  0  0  0  0  0  0
  -11.1591    2.0528   -2.8756 C   0  0  0  0  0  0  0  0  0  0  0  0
  -10.3423    1.0634   -2.3249 C   0  0  0  0  0  0  0  0  0  0  0  0
  -10.9322    0.1873   -1.4451 C   0  0  0  0  0  0  0  0  0  0  0  0
  -12.2586    0.2313   -1.0842 C   0  0  0  0  0  0  0  0  0  0  0  0
  -13.0642    1.2260   -1.6418 C   0  0  0  0  0  0  0  0  0  0  0  0
  -12.5089    2.1398   -2.5416 C   0  0  0  0  0  0  0  0  0  0  0  0
   -3.9120   -1.9867   -0.3250 C   0  0  0  0  0  0  0  0  0  0  0  0
   -3.0556   -3.2348   -0.4138 C   0  0  0  0  0  0  0  0  0  0  0  0
   -3.3849   -4.1225    0.7636 C   0  0  0  0  0  0  0  0  0  0  0  0
   -3.3126   -3.9959   -1.6838 C   0  0  0  0  0  0  0  0  0  0  0  0
    0.5489   -1.9160   -3.3054 C   0  0  0  0  0  0  0  0  0  0  0  0
    1.9680    0.5783    0.8355 N   0  0  0  0  0  0  0  0  0  0  0  0
    3.2192    1.2073    1.0376 C   0  0  0  0  0  0  0  0  0  0  0  0
    4.2312    0.4101    1.0216 O   0  0  0  0  0  0  0  0  0  0  0  0
    3.5099    2.6026    1.2522 C   0  0  2  0  0  0  0  0  0  0  0  0
    3.1332    3.4934    0.0795 C   0  0  0  0  0  0  0  0  0  0  0  0
    3.8486    3.1170   -1.1588 C   0  0  0  0  0  0  0  0  0  0  0  0
    3.3256    2.2460   -2.1034 C   0  0  0  0  0  0  0  0  0  0  0  0
    3.9815    1.8771   -3.2489 C   0  0  0  0  0  0  0  0  0  0  0  0
    5.2396    2.3667   -3.5355 C   0  0  0  0  0  0  0  0  0  0  0  0
    5.7873    3.2373   -2.6118 C   0  0  0  0  0  0  0  0  0  0  0  0
    5.1294    3.6042   -1.4665 C   0  0  0  0  0  0  0  0  0  0  0  0
    4.9622    2.6960    1.4641 N   0  0  0  0  0  0  0  0  0  0  0  0
    5.5943    3.6726    2.2292 C   0  0  0  0  0  0  0  0  0  0  0  0
    4.8510    4.5551    2.7800 O   0  0  0  0  0  0  0  0  0  0  0  0
    7.0555    3.6876    2.3834 C   0  0  0  0  0  0  0  0  0  0  0  0
    7.7261    2.5361    1.7817 N   0  0  0  0  0  0  0  0  0  0  0  0
    7.4433    1.2753    2.3999 C   0  0  0  0  0  0  0  0  0  0  0  0
    6.6522    1.2971    3.4080 O   0  0  0  0  0  0  0  0  0  0  0  0
    7.9830   -0.0129    1.9745 C   0  0  2  0  0  0  0  0  0  0  0  0
    8.6038    0.1122    0.6854 N   0  0  0  0  0  0  0  0  0  0  0  0
    9.9551   -0.1586    0.3880 C   0  0  0  0  0  0  0  0  0  0  0  0
   10.6907   -0.5433    1.3486 O   0  0  0  0  0  0  0  0  0  0  0  0
   10.4879   -0.0004   -0.9838 C   0  0  2  0  0  0  0  0  0  0  0  0
   11.6030    1.0397   -1.0736 C   0  0  0  0  0  0  0  0  0  0  0  0
   12.7358    0.6685   -0.2034 C   0  0  0  0  0  0  0  0  0  0  0  0
   13.7478   -0.1680   -0.6346 C   0  0  0  0  0  0  0  0  0  0  0  0
   14.8163   -0.5155    0.1898 C   0  0  0  0  0  0  0  0  0  0  0  0
   14.8303    0.0062    1.4608 C   0  0  0  0  0  0  0  0  0  0  0  0
   13.8451    0.8512    1.9511 C   0  0  0  0  0  0  0  0  0  0  0  0
   12.7937    1.1716    1.0865 C   0  0  0  0  0  0  0  0  0  0  0  0
   15.8695   -0.2984    2.3483 O   0  0  0  0  0  0  0  0  0  0  0  0
    9.3900    0.4261   -1.8508 N   0  0  0  0  0  0  0  0  0  0  0  0
    6.8856   -1.0478    1.9672 C   0  0  0  0  0  0  0  0  0  0  0  0
    3.8154   -2.3212    3.4448 H   0  0  0  0  0  0  0  0  0  0  0  0
    5.1872   -3.2993    2.8705 H   0  0  0  0  0  0  0  0  0  0  0  0
    3.9161   -4.1095    3.7964 H   0  0  0  0  0  0  0  0  0  0  0  0
    1.0253   -3.5992    2.5545 H   0  0  0  0  0  0  0  0  0  0  0  0
    0.8702   -3.4499    0.7746 H   0  0  0  0  0  0  0  0  0  0  0  0
    1.9782   -1.2887    2.6907 H   0  0  0  0  0  0  0  0  0  0  0  0
    0.3451   -1.2871    2.0059 H   0  0  0  0  0  0  0  0  0  0  0  0
    3.0375   -1.2772    0.5855 H   0  0  0  0  0  0  0  0  0  0  0  0
    0.3801    0.6365   -1.0234 H   0  0  0  0  0  0  0  0  0  0  0  0
    0.1902    0.1943   -3.4654 H   0  0  0  0  0  0  0  0  0  0  0  0
   -1.7713   -0.3658   -0.5592 H   0  0  0  0  0  0  0  0  0  0  0  0
   -3.8237   -1.6726   -2.4265 H   0  0  0  0  0  0  0  0  0  0  0  0
   -6.2916   -1.2222   -1.3947 H   0  0  0  0  0  0  0  0  0  0  0  0
   -6.5201    1.7563   -1.5777 H   0  0  0  0  0  0  0  0  0  0  0  0
   -7.5996    0.7231    2.8472 H   0  0  0  0  0  0  0  0  0  0  0  0
   -7.2565   -1.0013    2.7052 H   0  0  0  0  0  0  0  0  0  0  0  0
  -10.0380    1.4839    2.4316 H   0  0  0  0  0  0  0  0  0  0  0  0
  -12.9835   -1.5905    2.5685 H   0  0  0  0  0  0  0  0  0  0  0  0
   -8.8797   -2.6483    2.2165 H   0  0  0  0  0  0  0  0  0  0  0  0
   -8.0717   -0.6952   -2.4765 H   0  0  0  0  0  0  0  0  0  0  0  0
   -7.1328    0.4517   -3.4455 H   0  0  0  0  0  0  0  0  0  0  0  0
   -8.2939    2.6675   -4.2756 H   0  0  0  0  0  0  0  0  0  0  0  0
  -10.7682    3.5854   -4.2462 H   0  0  0  0  0  0  0  0  0  0  0  0
  -10.2829   -0.5909   -1.0155 H   0  0  0  0  0  0  0  0  0  0  0  0
  -12.7302   -0.4545   -0.3986 H   0  0  0  0  0  0  0  0  0  0  0  0
  -14.1242    1.3062   -1.3861 H   0  0  0  0  0  0  0  0  0  0  0  0
  -13.1101    2.9134   -2.9823 H   0  0  0  0  0  0  0  0  0  0  0  0
   -4.9576   -2.3387   -0.4216 H   0  0  0  0  0  0  0  0  0  0  0  0
   -3.7411   -1.4985    0.6534 H   0  0  0  0  0  0  0  0  0  0  0  0
   -1.9872   -2.9617   -0.3784 H   0  0  0  0  0  0  0  0  0  0  0  0
   -3.0084   -3.5991    1.6736 H   0  0  0  0  0  0  0  0  0  0  0  0
   -4.4759   -4.2599    0.8909 H   0  0  0  0  0  0  0  0  0  0  0  0
   -2.9113   -5.1278    0.6579 H   0  0  0  0  0  0  0  0  0  0  0  0
   -2.7491   -3.5987   -2.5562 H   0  0  0  0  0  0  0  0  0  0  0  0
   -2.9200   -5.0182   -1.5292 H   0  0  0  0  0  0  0  0  0  0  0  0
   -4.4032   -4.1034   -1.8690 H   0  0  0  0  0  0  0  0  0  0  0  0
    0.2496   -1.9216   -4.3796 H   0  0  0  0  0  0  0  0  0  0  0  0
    0.1035   -2.7354   -2.7343 H   0  0  0  0  0  0  0  0  0  0  0  0
    1.6239   -1.9485   -3.2868 H   0  0  0  0  0  0  0  0  0  0  0  0
    1.1134    1.1503    0.8477 H   0  0  0  0  0  0  0  0  0  0  0  0
    3.0149    3.0287    2.1177 H   0  0  0  0  0  0  0  0  0  0  0  0
    3.4607    4.5149    0.3476 H   0  0  0  0  0  0  0  0  0  0  0  0
    2.0494    3.4986   -0.0135 H   0  0  0  0  0  0  0  0  0  0  0  0
    2.3297    1.8409   -1.9031 H   0  0  0  0  0  0  0  0  0  0  0  0
    3.4802    1.1959   -3.9134 H   0  0  0  0  0  0  0  0  0  0  0  0
    5.7840    2.1005   -4.4194 H   0  0  0  0  0  0  0  0  0  0  0  0
    6.7835    3.6315   -2.8252 H   0  0  0  0  0  0  0  0  0  0  0  0
    5.5309    4.2824   -0.7175 H   0  0  0  0  0  0  0  0  0  0  0  0
    5.5718    1.9663    0.9926 H   0  0  0  0  0  0  0  0  0  0  0  0
    7.2683    3.7338    3.4743 H   0  0  0  0  0  0  0  0  0  0  0  0
    7.5291    4.5863    1.9377 H   0  0  0  0  0  0  0  0  0  0  0  0
    8.3621    2.5931    0.9694 H   0  0  0  0  0  0  0  0  0  0  0  0
    8.7601   -0.2887    2.7556 H   0  0  0  0  0  0  0  0  0  0  0  0
    7.9999    0.4290   -0.1171 H   0  0  0  0  0  0  0  0  0  0  0  0
   10.8787   -0.9735   -1.3550 H   0  0  0  0  0  0  0  0  0  0  0  0
   11.2054    2.0314   -0.7695 H   0  0  0  0  0  0  0  0  0  0  0  0
   11.9689    1.0668   -2.1299 H   0  0  0  0  0  0  0  0  0  0  0  0
   13.6950   -0.5550   -1.6412 H   0  0  0  0  0  0  0  0  0  0  0  0
   15.6093   -1.1510   -0.1035 H   0  0  0  0  0  0  0  0  0  0  0  0
   13.8681    1.2551    2.9611 H   0  0  0  0  0  0  0  0  0  0  0  0
   12.0480    1.8283    1.4938 H   0  0  0  0  0  0  0  0  0  0  0  0
   16.2595   -1.2369    2.3798 H   0  0  0  0  0  0  0  0  0  0  0  0
    9.2381   -0.2344   -2.6290 H   0  0  0  0  0  0  0  0  0  0  0  0
    9.5206    1.4048   -2.1802 H   0  0  0  0  0  0  0  0  0  0  0  0
    6.4917   -1.1365    0.9382 H   0  0  0  0  0  0  0  0  0  0  0  0
    7.3570   -2.0091    2.2696 H   0  0  0  0  0  0  0  0  0  0  0  0
    6.0811   -0.7383    2.6646 H   0  0  0  0  0  0  0  0  0  0  0  0
  1  2  1  0
  2  3  1  0
  3  4  1  0
  4  5  1  0
  5  6  1  0
  6  7  2  0
  6  8  1  0
  8  9  1  0
  9 10  1  0
 10 11  2  0
 10 12  1  0
 12 13  1  0
 13 14  1  0
 14 15  2  0
 14 16  1  0
 16 17  1  0
 17 18  1  0
 18 19  2  0
 18 20  1  0
 20 21  1  0
 21 22  1  0
 22 23  2  0
 23 24  1  0
 24 25  2  0
 25 26  1  0
 26 27  2  0
 26 28  1  0
 28 29  1  0
 28 30  1  0
 28 31  1  0
 24 32  1  0
 32 33  1  0
 32 34  1  0
 32 35  1  0
 17 36  1  0
 36 37  1  0
 37 38  2  0
 38 39  1  0
 39 40  1  0
 40 41  2  0
 41 42  1  0
 42 43  2  0
 43 44  1  0
 44 45  2  0
 13 46  1  0
 46 47  1  0
 47 48  1  0
 47 49  1  0
  9 50  1  0
  5 51  1  0
 51 52  1  0
 52 53  2  0
 52 54  1  0
 54 55  1  0
 55 56  1  0
 56 57  2  0
 57 58  1  0
 58 59  2  0
 59 60  1  0
 60 61  2  0
 54 62  1  0
 62 63  1  0
 63 64  2  0
 63 65  1  0
 65 66  1  0
 66 67  1  0
 67 68  2  0
 67 69  1  0
 69 70  1  0
 70 71  1  0
 71 72  2  0
 71 73  1  0
 73 74  1  0
 74 75  1  0
 75 76  2  0
 76 77  1  0
 77 78  2  0
 78 79  1  0
 79 80  2  0
 78 81  1  0
 73 82  1  0
 69 83  1  0
 27 22  1  0
 41 37  1  0
 61 56  1  0
 80 75  1  0
 45 40  1  0
  1 84  1  0
  1 85  1  0
  1 86  1  0
  3 87  1  0
  3 88  1  0
  4 89  1  0
  4 90  1  0
  5 91  1  6
  8 92  1  0
  9 93  1  6
 12 94  1  0
 13 95  1  6
 16 96  1  0
 17 97  1  6
 21 98  1  0
 21 99  1  0
 23100  1  0
 25101  1  0
 27102  1  0
 36103  1  0
 36104  1  0
 38105  1  0
 39106  1  0
 42107  1  0
 43108  1  0
 44109  1  0
 45110  1  0
 46111  1  0
 46112  1  0
 47113  1  0
 48114  1  0
 48115  1  0
 48116  1  0
 49117  1  0
 49118  1  0
 49119  1  0
 50120  1  0
 50121  1  0
 50122  1  0
 51123  1  0
 54124  1  1
 55125  1  0
 55126  1  0
 57127  1  0
 58128  1  0
 59129  1  0
 60130  1  0
 61131  1  0
 62132  1  0
 65133  1  0
 65134  1  0
 66135  1  0
 69136  1  1
 70137  1  0
 73138  1  6
 74139  1  0
 74140  1  0
 76141  1  0
 77142  1  0
 79143  1  0
 80144  1  0
 81145  1  0
 82146  1  0
 82147  1  0
 83148  1  0
 83149  1  0
 83150  1  0
M  END
>  <Ligand ID>  (1) 
LIG0005159

>  <Ligand>  (1) 
CHEMBL2419537

>  <SMILES>  (1) 
CSCC[C@@H](C(=O)N[C@H](C(=O)N[C@H](C(=O)N[C@H](C(=O)OCc1cc(cc(c1)C(F)(F)F)C(F)(F)F)Cc1c[nH]c2c1cccc2)CC(C)C)C)NC(=O)[C@H](Cc1ccccc1)NC(=O)CNC(=O)[C@H](NC(=O)[C@H](Cc1ccc(cc1)O)N)C

>  <CID>  (1) 
44177567.0

>  <ChEMBL ID>  (1) 
nan

>  <InChiKey>  (1) 
VYUZFKRVLLXBRD-JZIKEGBGSA-N

>  <InChi>  (1) 
InChI=1S/C57H67F6N9O10S/c1-31(2)21-45(53(79)72-47(26-37-28-65-43-14-10-9-13-41(37)43)55(81)82-30-36-22-38(56(58,59)60)27-39(23-36)57(61,62)63)71-50(76)33(4)68-52(78)44(19-20-83-5)70-54(80)46(25-34-11-7-6-8-12-34)69-48(74)29-66-49(75)32(3)67-51(77)42(64)24-35-15-17-40(73)18-16-35/h6-18,22-23,27-28,31-33,42,44-47,65,73H,19-21,24-26,29-30,64H2,1-5H3,(H,66,75)(H,67,77)(H,68,78)(H,69,74)(H,70,80)(H,71,76)(H,72,79)/t32-,33+,42+,44+,45+,46+,47+/m1/s1

>  <IUPAC Name>  (1) 
[3,5-bis(trifluoromethyl)phenyl]methyl (2S)-2-[[(2S)-2-[[(2S)-2-[[(2S)-2-[[(2S)-2-[[2-[[(2R)-2-[[(2S)-2-amino-3-(4-hydroxyphenyl)propanoyl]amino]propanoyl]amino]acetyl]amino]-3-phenylpropanoyl]amino]-4-methylsulfanylbutanoyl]amino]propanoyl]amino]-4-methylpentanoyl]amino]-3-(1H-indol-3-yl)propanoate

$$$$
