
     RDKit          3D

 68 70  0  0  0  0  0  0  0  0999 V2000
    0.2956    0.8560   -0.5297 O   0  0  0  0  0  0  0  0  0  0  0  0
    1.1826    0.1092    0.2411 C   0  0  2  0  0  0  0  0  0  0  0  0
    2.3646   -0.3581   -0.5472 C   0  0  2  0  0  0  0  0  0  0  0  0
    3.1096    0.8227   -1.1018 C   0  0  0  0  0  0  0  0  0  0  0  0
    3.6075    1.7257   -0.0071 C   0  0  0  0  0  0  0  0  0  0  0  0
    4.3785    2.9104   -0.5502 C   0  0  0  0  0  0  0  0  0  0  0  0
    5.6072    2.5352   -1.3207 C   0  0  0  0  0  0  0  0  0  0  0  0
    6.6136    1.7912   -0.5309 C   0  0  0  0  0  0  0  0  0  0  0  0
    7.5816    2.5277    0.1578 C   0  0  0  0  0  0  0  0  0  0  0  0
    8.5591    1.8879    0.9179 C   0  0  0  0  0  0  0  0  0  0  0  0
    8.6040    0.5024    1.0163 C   0  0  0  0  0  0  0  0  0  0  0  0
    7.6479   -0.2226    0.3359 C   0  0  0  0  0  0  0  0  0  0  0  0
    6.6723    0.4259   -0.4233 C   0  0  0  0  0  0  0  0  0  0  0  0
    1.9727   -1.3224   -1.6509 C   0  0  0  0  0  0  0  0  0  0  0  0
    0.4022   -1.0735    0.7825 C   0  0  0  0  0  0  0  0  0  0  0  0
   -0.8434   -1.3183    0.3716 C   0  0  0  0  0  0  0  0  0  0  0  0
   -1.5392   -2.4756    0.9339 C   0  0  1  0  0  0  0  0  0  0  0  0
   -2.1024   -2.1181    2.3029 C   0  0  0  0  0  0  0  0  0  0  0  0
   -3.0763   -3.2734    2.5556 C   0  0  0  0  0  0  0  0  0  0  0  0
   -3.4382   -3.7272    1.1645 C   0  0  0  0  0  0  0  0  0  0  0  0
   -4.2030   -4.6905    0.9009 O   0  0  0  0  0  0  0  0  0  0  0  0
   -2.7505   -2.8588    0.2376 N   0  0  0  0  0  0  0  0  0  0  0  0
   -3.2432   -2.5179   -1.0621 C   0  0  0  0  0  0  0  0  0  0  0  0
   -4.1199   -1.2869   -1.0965 C   0  0  0  0  0  0  0  0  0  0  0  0
   -5.3399   -1.4670   -0.2214 C   0  0  0  0  0  0  0  0  0  0  0  0
   -6.1863   -0.2630   -0.2635 C   0  0  0  0  0  0  0  0  0  0  0  0
   -7.3683   -0.0149    0.3773 C   0  0  0  0  0  0  0  0  0  0  0  0
   -7.9652    1.1599    0.1880 C   0  0  0  0  0  0  0  0  0  0  0  0
   -7.3354    2.0663   -0.6610 C   0  0  0  0  0  0  0  0  0  0  0  0
   -5.8164    1.1668   -1.2008 S   0  0  0  0  0  0  0  0  0  0  0  0
   -7.6869    3.4001   -1.0864 C   0  0  0  0  0  0  0  0  0  0  0  0
   -6.9185    4.0025   -1.8760 O   0  0  0  0  0  0  0  0  0  0  0  0
   -8.8584    3.9443   -0.5973 O   0  0  0  0  0  0  0  0  0  0  0  0
   -2.3672   -4.2840    3.1289 F   0  0  0  0  0  0  0  0  0  0  0  0
   -4.1837   -2.8697    3.2546 F   0  0  0  0  0  0  0  0  0  0  0  0
   -0.1443    1.5596    0.0103 H   0  0  0  0  0  0  0  0  0  0  0  0
    1.5004    0.6842    1.1080 H   0  0  0  0  0  0  0  0  0  0  0  0
    3.0979   -0.9191    0.0805 H   0  0  0  0  0  0  0  0  0  0  0  0
    2.3735    1.4472   -1.6992 H   0  0  0  0  0  0  0  0  0  0  0  0
    3.8868    0.5330   -1.8165 H   0  0  0  0  0  0  0  0  0  0  0  0
    4.2578    1.1916    0.7100 H   0  0  0  0  0  0  0  0  0  0  0  0
    2.7542    2.1423    0.5838 H   0  0  0  0  0  0  0  0  0  0  0  0
    3.6944    3.4333   -1.2445 H   0  0  0  0  0  0  0  0  0  0  0  0
    4.6548    3.5392    0.3248 H   0  0  0  0  0  0  0  0  0  0  0  0
    5.2783    1.9512   -2.2272 H   0  0  0  0  0  0  0  0  0  0  0  0
    6.0902    3.4726   -1.6816 H   0  0  0  0  0  0  0  0  0  0  0  0
    7.5925    3.6157    0.1151 H   0  0  0  0  0  0  0  0  0  0  0  0
    9.3208    2.4333    1.4614 H   0  0  0  0  0  0  0  0  0  0  0  0
    9.3484   -0.0058    1.5961 H   0  0  0  0  0  0  0  0  0  0  0  0
    7.6676   -1.3085    0.4014 H   0  0  0  0  0  0  0  0  0  0  0  0
    5.9576   -0.1900   -0.9304 H   0  0  0  0  0  0  0  0  0  0  0  0
    1.4051   -2.1606   -1.2463 H   0  0  0  0  0  0  0  0  0  0  0  0
    1.4709   -0.7557   -2.4662 H   0  0  0  0  0  0  0  0  0  0  0  0
    2.9175   -1.7442   -2.0794 H   0  0  0  0  0  0  0  0  0  0  0  0
    0.9125   -1.6964    1.5118 H   0  0  0  0  0  0  0  0  0  0  0  0
   -1.2429   -0.6249   -0.3599 H   0  0  0  0  0  0  0  0  0  0  0  0
   -0.8683   -3.3546    1.1008 H   0  0  0  0  0  0  0  0  0  0  0  0
   -1.3330   -2.0528    3.0856 H   0  0  0  0  0  0  0  0  0  0  0  0
   -2.7411   -1.2052    2.2500 H   0  0  0  0  0  0  0  0  0  0  0  0
   -3.9026   -3.3553   -1.4113 H   0  0  0  0  0  0  0  0  0  0  0  0
   -2.4438   -2.4649   -1.8321 H   0  0  0  0  0  0  0  0  0  0  0  0
   -3.5899   -0.3830   -0.7473 H   0  0  0  0  0  0  0  0  0  0  0  0
   -4.4489   -1.1516   -2.1347 H   0  0  0  0  0  0  0  0  0  0  0  0
   -5.9622   -2.3172   -0.5699 H   0  0  0  0  0  0  0  0  0  0  0  0
   -4.9794   -1.5657    0.8230 H   0  0  0  0  0  0  0  0  0  0  0  0
   -7.8000   -0.8043    1.0415 H   0  0  0  0  0  0  0  0  0  0  0  0
   -8.9200    1.4545    0.6596 H   0  0  0  0  0  0  0  0  0  0  0  0
   -9.0616    4.9099   -0.8449 H   0  0  0  0  0  0  0  0  0  0  0  0
  1  2  1  0
  2  3  1  0
  3  4  1  0
  4  5  1  0
  5  6  1  0
  6  7  1  0
  7  8  1  0
  8  9  2  0
  9 10  1  0
 10 11  2  0
 11 12  1  0
 12 13  2  0
  3 14  1  0
  2 15  1  0
 15 16  2  0
 16 17  1  0
 17 18  1  0
 18 19  1  0
 19 20  1  0
 20 21  2  0
 20 22  1  0
 22 23  1  0
 23 24  1  0
 24 25  1  0
 25 26  1  0
 26 27  2  0
 27 28  1  0
 28 29  2  0
 29 30  1  0
 29 31  1  0
 31 32  2  0
 31 33  1  0
 19 34  1  0
 19 35  1  0
 13  8  1  0
 22 17  1  0
 30 26  1  0
  1 36  1  0
  2 37  1  1
  3 38  1  1
  4 39  1  0
  4 40  1  0
  5 41  1  0
  5 42  1  0
  6 43  1  0
  6 44  1  0
  7 45  1  0
  7 46  1  0
  9 47  1  0
 10 48  1  0
 11 49  1  0
 12 50  1  0
 13 51  1  0
 14 52  1  0
 14 53  1  0
 14 54  1  0
 15 55  1  0
 16 56  1  0
 17 57  1  1
 18 58  1  0
 18 59  1  0
 23 60  1  0
 23 61  1  0
 24 62  1  0
 24 63  1  0
 25 64  1  0
 25 65  1  0
 27 66  1  0
 28 67  1  0
 33 68  1  0
M  END
>  <Ligand ID>  (1) 
LIG0005224

>  <Ligand>  (1) 
CHEMBL3977939

>  <SMILES>  (1) 
O[C@H]([C@H](CCCCc1ccccc1)C)/C=C/[C@H]1CC(C(=O)N1CCCc1ccc(s1)C(=O)O)(F)F

>  <CID>  (1) 
90054429.0

>  <ChEMBL ID>  (1) 
nan

>  <InChiKey>  (1) 
WQNDXGHRPMQDFT-BQMVMUGMSA-N

>  <InChi>  (1) 
InChI=1S/C27H33F2NO4S/c1-19(8-5-6-11-20-9-3-2-4-10-20)23(31)15-13-21-18-27(28,29)26(34)30(21)17-7-12-22-14-16-24(35-22)25(32)33/h2-4,9-10,13-16,19,21,23,31H,5-8,11-12,17-18H2,1H3,(H,32,33)/b15-13+/t19-,21-,23-/m0/s1

>  <IUPAC Name>  (1) 
5-[3-[(5R)-3,3-difluoro-5-[(E,3R,4S)-3-hydroxy-4-methyl-8-phenyloct-1-enyl]-2-oxopyrrolidin-1-yl]propyl]thiophene-2-carboxylic acid

$$$$
