
     RDKit          3D

 29 31  0  0  0  0  0  0  0  0999 V2000
   -0.1920    0.6790   -1.9795 Cl  0  0  0  0  0  0  0  0  0  0  0  0
   -1.5638    0.4664   -0.9240 C   0  0  0  0  0  0  0  0  0  0  0  0
   -2.8382    0.6532   -1.4627 C   0  0  0  0  0  0  0  0  0  0  0  0
   -3.9655    0.4947   -0.6843 C   0  0  0  0  0  0  0  0  0  0  0  0
   -3.8070    0.1490    0.6328 C   0  0  0  0  0  0  0  0  0  0  0  0
   -2.5593   -0.0297    1.1446 C   0  0  0  0  0  0  0  0  0  0  0  0
   -1.3920    0.1191    0.3986 C   0  0  0  0  0  0  0  0  0  0  0  0
   -0.0410   -0.0836    1.0124 C   0  0  0  0  0  0  0  0  0  0  0  0
    0.3351   -1.4811    0.7259 C   0  0  0  0  0  0  0  0  0  0  0  0
    1.8022   -1.7553    0.6324 C   0  0  0  0  0  0  0  0  0  0  0  0
    2.5456   -0.7291   -0.1239 C   0  0  0  0  0  0  0  0  0  0  0  0
    2.0946    0.5698   -0.0841 C   0  0  0  0  0  0  0  0  0  0  0  0
    0.8974    1.0026    0.6807 C   0  0  0  0  0  0  0  0  0  0  0  0
    2.9552    1.2670   -0.8526 N   0  0  0  0  0  0  0  0  0  0  0  0
    3.8895    0.4419   -1.3420 C   0  0  0  0  0  0  0  0  0  0  0  0
    3.6391   -0.8002   -0.8918 N   0  0  0  0  0  0  0  0  0  0  0  0
   -2.9867    0.9271   -2.5034 H   0  0  0  0  0  0  0  0  0  0  0  0
   -4.9554    0.6386   -1.0982 H   0  0  0  0  0  0  0  0  0  0  0  0
   -4.6503    0.0084    1.3006 H   0  0  0  0  0  0  0  0  0  0  0  0
   -2.4009   -0.3045    2.1871 H   0  0  0  0  0  0  0  0  0  0  0  0
   -0.2132   -0.0203    2.1339 H   0  0  0  0  0  0  0  0  0  0  0  0
   -0.0688   -2.1467    1.5153 H   0  0  0  0  0  0  0  0  0  0  0  0
   -0.1751   -1.8627   -0.2091 H   0  0  0  0  0  0  0  0  0  0  0  0
    2.2950   -1.8443    1.6147 H   0  0  0  0  0  0  0  0  0  0  0  0
    1.9335   -2.7234    0.1053 H   0  0  0  0  0  0  0  0  0  0  0  0
    1.3270    1.4866    1.6125 H   0  0  0  0  0  0  0  0  0  0  0  0
    0.4632    1.8820    0.1490 H   0  0  0  0  0  0  0  0  0  0  0  0
    2.9108    2.3008   -1.0463 H   0  0  0  0  0  0  0  0  0  0  0  0
    4.7210    0.6948   -1.9928 H   0  0  0  0  0  0  0  0  0  0  0  0
  1  2  1  0
  2  3  2  0
  3  4  1  0
  4  5  2  0
  5  6  1  0
  6  7  2  0
  7  8  1  0
  8  9  1  0
  9 10  1  0
 10 11  1  0
 11 12  2  0
 12 13  1  0
 12 14  1  0
 14 15  1  0
 15 16  2  0
  7  2  1  0
 13  8  1  0
 16 11  1  0
  3 17  1  0
  4 18  1  0
  5 19  1  0
  6 20  1  0
  8 21  1  0
  9 22  1  0
  9 23  1  0
 10 24  1  0
 10 25  1  0
 13 26  1  0
 13 27  1  0
 14 28  1  0
 15 29  1  0
M  END
>  <Ligand ID>  (1) 
LIG0003010

>  <Ligand>  (1) 
CHEMBL465599

>  <SMILES>  (1) 
Clc1ccccc1C1CCc2c(C1)[nH]cn2

>  <CID>  (1) 
44574874.0

>  <ChEMBL ID>  (1) 
nan

>  <InChiKey>  (1) 
QJISVABLQCOWQF-UHFFFAOYSA-N

>  <InChi>  (1) 
InChI=1S/C13H13ClN2/c14-11-4-2-1-3-10(11)9-5-6-12-13(7-9)16-8-15-12/h1-4,8-9H,5-7H2,(H,15,16)

>  <IUPAC Name>  (1) 
6-(2-chlorophenyl)-4,5,6,7-tetrahydro-1H-benzimidazole

$$$$
