
     RDKit          3D

 58 62  0  0  0  0  0  0  0  0999 V2000
   -0.1769   -3.5875   -2.5098 C   0  0  0  0  0  0  0  0  0  0  0  0
   -1.5756   -3.3976   -2.5616 O   0  0  0  0  0  0  0  0  0  0  0  0
   -2.1226   -2.3022   -1.9089 C   0  0  0  0  0  0  0  0  0  0  0  0
   -1.3201   -1.4206   -1.2268 C   0  0  0  0  0  0  0  0  0  0  0  0
   -1.8449   -0.3459   -0.5853 C   0  0  0  0  0  0  0  0  0  0  0  0
   -3.2220   -0.1621   -0.6375 C   0  0  0  0  0  0  0  0  0  0  0  0
   -4.0611   -1.0216   -1.3095 C   0  0  0  0  0  0  0  0  0  0  0  0
   -3.4980   -2.1010   -1.9498 C   0  0  0  0  0  0  0  0  0  0  0  0
   -4.2544   -3.0158   -2.6482 O   0  0  0  0  0  0  0  0  0  0  0  0
   -5.6393   -2.9762   -2.7973 C   0  0  0  0  0  0  0  0  0  0  0  0
   -3.7091    0.9104    0.0149 N   0  0  0  0  0  0  0  0  0  0  0  0
   -2.9168    1.7704    0.6878 C   0  0  0  0  0  0  0  0  0  0  0  0
   -1.5873    1.5659    0.7197 N   0  0  0  0  0  0  0  0  0  0  0  0
   -1.0189    0.5047    0.0848 C   0  0  0  0  0  0  0  0  0  0  0  0
    0.3866    0.4021    0.1680 N   0  0  0  0  0  0  0  0  0  0  0  0
    1.3010    0.5700   -0.9256 C   0  0  0  0  0  0  0  0  0  0  0  0
    2.4793   -0.3942   -0.8121 C   0  0  0  0  0  0  0  0  0  0  0  0
    3.1843   -0.1739    0.4337 N   0  0  0  0  0  0  0  0  0  0  0  0
    2.4282    0.3014    1.5613 C   0  0  0  0  0  0  0  0  0  0  0  0
    0.9533    0.0991    1.4717 C   0  0  0  0  0  0  0  0  0  0  0  0
    4.5772   -0.4130    0.5657 C   0  0  0  0  0  0  0  0  0  0  0  0
    5.3433   -0.9054   -0.4676 C   0  0  0  0  0  0  0  0  0  0  0  0
    6.6846   -1.1225   -0.3072 C   0  0  0  0  0  0  0  0  0  0  0  0
    7.3547   -0.8714    0.8712 C   0  0  0  0  0  0  0  0  0  0  0  0
    6.5905   -0.3726    1.9257 C   0  0  0  0  0  0  0  0  0  0  0  0
    5.2185   -0.1519    1.7567 C   0  0  0  0  0  0  0  0  0  0  0  0
   -3.4434    2.9526    1.4085 C   0  0  0  0  0  0  0  0  0  0  0  0
   -2.9362    3.1854    2.7931 C   0  0  0  0  0  0  0  0  0  0  0  0
   -2.9286    4.6799    2.4676 C   0  0  0  0  0  0  0  0  0  0  0  0
   -2.7661    4.2653    1.0036 C   0  0  0  0  0  0  0  0  0  0  0  0
    0.3149   -2.7051   -2.9695 H   0  0  0  0  0  0  0  0  0  0  0  0
    0.1225   -4.5537   -2.9653 H   0  0  0  0  0  0  0  0  0  0  0  0
    0.1597   -3.5945   -1.4354 H   0  0  0  0  0  0  0  0  0  0  0  0
   -0.2637   -1.6116   -1.2107 H   0  0  0  0  0  0  0  0  0  0  0  0
   -5.1128   -0.8440   -1.3248 H   0  0  0  0  0  0  0  0  0  0  0  0
   -6.0425   -4.0236   -2.9113 H   0  0  0  0  0  0  0  0  0  0  0  0
   -6.1910   -2.4272   -2.0285 H   0  0  0  0  0  0  0  0  0  0  0  0
   -5.8701   -2.4832   -3.7740 H   0  0  0  0  0  0  0  0  0  0  0  0
    0.8096    0.3697   -1.8857 H   0  0  0  0  0  0  0  0  0  0  0  0
    1.7065    1.6304   -0.9562 H   0  0  0  0  0  0  0  0  0  0  0  0
    3.0963   -0.2692   -1.7037 H   0  0  0  0  0  0  0  0  0  0  0  0
    2.0797   -1.4229   -0.8200 H   0  0  0  0  0  0  0  0  0  0  0  0
    2.7108    1.3330    1.8567 H   0  0  0  0  0  0  0  0  0  0  0  0
    2.7730   -0.3324    2.4313 H   0  0  0  0  0  0  0  0  0  0  0  0
    0.4702    0.7993    2.1970 H   0  0  0  0  0  0  0  0  0  0  0  0
    0.6238   -0.9248    1.7400 H   0  0  0  0  0  0  0  0  0  0  0  0
    4.9108   -1.1341   -1.4294 H   0  0  0  0  0  0  0  0  0  0  0  0
    7.2917   -1.5134   -1.1282 H   0  0  0  0  0  0  0  0  0  0  0  0
    8.4154   -1.0460    0.9900 H   0  0  0  0  0  0  0  0  0  0  0  0
    7.0698   -0.1524    2.8922 H   0  0  0  0  0  0  0  0  0  0  0  0
    4.7146    0.2363    2.6324 H   0  0  0  0  0  0  0  0  0  0  0  0
   -4.5392    3.0869    1.3577 H   0  0  0  0  0  0  0  0  0  0  0  0
   -3.7037    2.9188    3.5695 H   0  0  0  0  0  0  0  0  0  0  0  0
   -1.9270    2.8182    3.0207 H   0  0  0  0  0  0  0  0  0  0  0  0
   -3.9264    5.1452    2.6158 H   0  0  0  0  0  0  0  0  0  0  0  0
   -2.0949    5.2367    2.9017 H   0  0  0  0  0  0  0  0  0  0  0  0
   -3.3789    4.8376    0.2877 H   0  0  0  0  0  0  0  0  0  0  0  0
   -1.6991    4.1541    0.7633 H   0  0  0  0  0  0  0  0  0  0  0  0
  1  2  1  0
  2  3  1  0
  3  4  2  0
  4  5  1  0
  5  6  2  0
  6  7  1  0
  7  8  2  0
  8  9  1  0
  9 10  1  0
  6 11  1  0
 11 12  2  0
 12 13  1  0
 13 14  2  0
 14 15  1  0
 15 16  1  0
 16 17  1  0
 17 18  1  0
 18 19  1  0
 19 20  1  0
 18 21  1  0
 21 22  2  0
 22 23  1  0
 23 24  2  0
 24 25  1  0
 25 26  2  0
 12 27  1  0
 27 28  1  0
 28 29  1  0
 29 30  1  0
  8  3  1  0
 20 15  1  0
 26 21  1  0
 30 27  1  0
 14  5  1  0
  1 31  1  0
  1 32  1  0
  1 33  1  0
  4 34  1  0
  7 35  1  0
 10 36  1  0
 10 37  1  0
 10 38  1  0
 16 39  1  0
 16 40  1  0
 17 41  1  0
 17 42  1  0
 19 43  1  0
 19 44  1  0
 20 45  1  0
 20 46  1  0
 22 47  1  0
 23 48  1  0
 24 49  1  0
 25 50  1  0
 26 51  1  0
 27 52  1  0
 28 53  1  0
 28 54  1  0
 29 55  1  0
 29 56  1  0
 30 57  1  0
 30 58  1  0
M  END
>  <Ligand ID>  (1) 
LIG0004752

>  <Ligand>  (1) 
CHEMBL2431231

>  <SMILES>  (1) 
COc1cc2c(cc1OC)nc(nc2N1CCN(CC1)c1ccccc1)C1CCC1

>  <CID>  (1) 
51035368.0

>  <ChEMBL ID>  (1) 
nan

>  <InChiKey>  (1) 
RABPYCTZPIOHBV-UHFFFAOYSA-N

>  <InChi>  (1) 
InChI=1S/C24H28N4O2/c1-29-21-15-19-20(16-22(21)30-2)25-23(17-7-6-8-17)26-24(19)28-13-11-27(12-14-28)18-9-4-3-5-10-18/h3-5,9-10,15-17H,6-8,11-14H2,1-2H3

>  <IUPAC Name>  (1) 
2-cyclobutyl-6,7-dimethoxy-4-(4-phenylpiperazin-1-yl)quinazoline

$$$$
