
     RDKit          3D

 58 61  0  0  0  0  0  0  0  0999 V2000
    2.9774   -2.7015    0.9124 O   0  0  0  0  0  0  0  0  0  0  0  0
    2.3056   -1.6663    0.6160 C   0  0  0  0  0  0  0  0  0  0  0  0
    0.8206   -1.6780    0.5217 C   0  0  0  0  0  0  0  0  0  0  0  0
    0.2866   -0.7040    1.5138 C   0  0  0  0  0  0  0  0  0  0  0  0
   -1.0126   -0.0648    1.1864 C   0  0  0  0  0  0  0  0  0  0  0  0
   -1.1146    0.3113   -0.2590 C   0  0  0  0  0  0  0  0  0  0  0  0
   -0.9911   -0.9769   -1.0614 C   0  0  0  0  0  0  0  0  0  0  0  0
    0.4688   -1.3842   -0.9055 C   0  0  0  0  0  0  0  0  0  0  0  0
   -2.3800    1.0504   -0.5674 C   0  0  0  0  0  0  0  0  0  0  0  0
   -3.5712    0.2728   -0.2634 N   0  0  0  0  0  0  0  0  0  0  0  0
   -4.8435    0.8591   -0.5101 C   0  0  0  0  0  0  0  0  0  0  0  0
   -4.9192    2.1212   -1.0197 N   0  0  0  0  0  0  0  0  0  0  0  0
   -6.0822    2.7199   -1.2705 C   0  0  0  0  0  0  0  0  0  0  0  0
   -6.1085    4.2409   -1.8842 S   0  0  0  0  0  0  0  0  0  0  0  0
   -7.2521    2.1134   -1.0353 N   0  0  0  0  0  0  0  0  0  0  0  0
   -7.2549    0.8664   -0.5325 C   0  0  0  0  0  0  0  0  0  0  0  0
   -6.0382    0.2364   -0.2686 C   0  0  0  0  0  0  0  0  0  0  0  0
   -6.0526   -1.0403    0.2462 C   0  0  0  0  0  0  0  0  0  0  0  0
   -7.2525   -1.6739    0.4921 C   0  0  0  0  0  0  0  0  0  0  0  0
   -8.4494   -1.0144    0.2165 C   0  0  0  0  0  0  0  0  0  0  0  0
   -8.4621    0.2564   -0.2962 C   0  0  0  0  0  0  0  0  0  0  0  0
    3.0523   -0.4840    0.3768 N   0  0  0  0  0  0  0  0  0  0  0  0
    4.5036   -0.5663    0.4918 C   0  0  0  0  0  0  0  0  0  0  0  0
    5.1128    0.8084    0.1967 C   0  0  0  0  0  0  0  0  0  0  0  0
    6.5852    0.6525    0.3311 C   0  0  0  0  0  0  0  0  0  0  0  0
    7.2416    0.8489    1.5205 C   0  0  0  0  0  0  0  0  0  0  0  0
    8.6193    0.6841    1.5656 C   0  0  0  0  0  0  0  0  0  0  0  0
    9.3135    0.3272    0.4251 C   0  0  0  0  0  0  0  0  0  0  0  0
    8.6718    0.1240   -0.7849 C   0  0  0  0  0  0  0  0  0  0  0  0
    7.3030    0.2942   -0.8025 C   0  0  0  0  0  0  0  0  0  0  0  0
   11.0527    0.1129    0.4558 Cl  0  0  0  0  0  0  0  0  0  0  0  0
    0.4988   -2.7254    0.7250 H   0  0  0  0  0  0  0  0  0  0  0  0
    1.0357    0.0849    1.7902 H   0  0  0  0  0  0  0  0  0  0  0  0
    0.1511   -1.2743    2.4743 H   0  0  0  0  0  0  0  0  0  0  0  0
   -1.8643   -0.6845    1.4999 H   0  0  0  0  0  0  0  0  0  0  0  0
   -1.0894    0.8731    1.8115 H   0  0  0  0  0  0  0  0  0  0  0  0
   -0.2677    0.9338   -0.5597 H   0  0  0  0  0  0  0  0  0  0  0  0
   -1.6891   -1.7084   -0.6196 H   0  0  0  0  0  0  0  0  0  0  0  0
   -1.1413   -0.8201   -2.1449 H   0  0  0  0  0  0  0  0  0  0  0  0
    1.0555   -0.4885   -1.2359 H   0  0  0  0  0  0  0  0  0  0  0  0
    0.6515   -2.2787   -1.5187 H   0  0  0  0  0  0  0  0  0  0  0  0
   -2.3819    1.2670   -1.6560 H   0  0  0  0  0  0  0  0  0  0  0  0
   -2.3394    2.0147   -0.0399 H   0  0  0  0  0  0  0  0  0  0  0  0
   -3.4170   -0.6709    0.1184 H   0  0  0  0  0  0  0  0  0  0  0  0
   -8.1346    2.6213   -1.2473 H   0  0  0  0  0  0  0  0  0  0  0  0
   -5.1592   -1.5662    0.4655 H   0  0  0  0  0  0  0  0  0  0  0  0
   -7.3098   -2.6800    0.8974 H   0  0  0  0  0  0  0  0  0  0  0  0
   -9.3918   -1.5197    0.4126 H   0  0  0  0  0  0  0  0  0  0  0  0
   -9.3978    0.7881   -0.5181 H   0  0  0  0  0  0  0  0  0  0  0  0
    2.6010    0.4101    0.1293 H   0  0  0  0  0  0  0  0  0  0  0  0
    4.8942   -1.3317   -0.2103 H   0  0  0  0  0  0  0  0  0  0  0  0
    4.7512   -0.7791    1.5405 H   0  0  0  0  0  0  0  0  0  0  0  0
    4.8585    1.1710   -0.8080 H   0  0  0  0  0  0  0  0  0  0  0  0
    4.6996    1.4782    0.9818 H   0  0  0  0  0  0  0  0  0  0  0  0
    6.6798    1.1276    2.4002 H   0  0  0  0  0  0  0  0  0  0  0  0
    9.1680    0.8333    2.4959 H   0  0  0  0  0  0  0  0  0  0  0  0
    9.2036   -0.1565   -1.6886 H   0  0  0  0  0  0  0  0  0  0  0  0
    6.8047    0.1348   -1.7490 H   0  0  0  0  0  0  0  0  0  0  0  0
  1  2  2  0
  2  3  1  0
  3  4  1  0
  4  5  1  0
  5  6  1  0
  6  7  1  0
  7  8  1  0
  6  9  1  0
  9 10  1  0
 10 11  1  0
 11 12  2  0
 12 13  1  0
 13 14  2  0
 13 15  1  0
 15 16  1  0
 16 17  2  0
 17 18  1  0
 18 19  2  0
 19 20  1  0
 20 21  2  0
  2 22  1  0
 22 23  1  0
 23 24  1  0
 24 25  1  0
 25 26  2  0
 26 27  1  0
 27 28  2  0
 28 29  1  0
 29 30  2  0
 28 31  1  0
  8  3  1  0
 17 11  1  0
 30 25  1  0
 21 16  1  0
  3 32  1  0
  4 33  1  0
  4 34  1  0
  5 35  1  0
  5 36  1  0
  6 37  1  0
  7 38  1  0
  7 39  1  0
  8 40  1  0
  8 41  1  0
  9 42  1  0
  9 43  1  0
 10 44  1  0
 15 45  1  0
 18 46  1  0
 19 47  1  0
 20 48  1  0
 21 49  1  0
 22 50  1  0
 23 51  1  0
 23 52  1  0
 24 53  1  0
 24 54  1  0
 26 55  1  0
 27 56  1  0
 29 57  1  0
 30 58  1  0
M  END
>  <Ligand ID>  (1) 
LIG0002939

>  <Ligand>  (1) 
CHEMBL1165197

>  <SMILES>  (1) 
O=C(C1CCC(CC1)CNc1nc(=S)[nH]c2c1cccc2)NCCc1ccc(cc1)Cl

>  <CID>  (1) 
4112670.0

>  <ChEMBL ID>  (1) 
nan

>  <InChiKey>  (1) 
NFBVEMGVKJRFLK-UHFFFAOYSA-N

>  <InChi>  (1) 
InChI=1S/C24H27ClN4OS/c25-19-11-7-16(8-12-19)13-14-26-23(30)18-9-5-17(6-10-18)15-27-22-20-3-1-2-4-21(20)28-24(31)29-22/h1-4,7-8,11-12,17-18H,5-6,9-10,13-15H2,(H,26,30)(H2,27,28,29,31)

>  <IUPAC Name>  (1) 
N-[2-(4-chlorophenyl)ethyl]-4-[[(2-sulfanylidene-1H-quinazolin-4-yl)amino]methyl]cyclohexane-1-carboxamide

$$$$
