
     RDKit          3D

 47 48  0  0  0  0  0  0  0  0999 V2000
   -8.8825   -0.1589    2.6124 Br  0  0  0  0  0  0  0  0  0  0  0  0
   -7.2808   -0.4860    1.6358 C   0  0  0  0  0  0  0  0  0  0  0  0
   -6.3966   -1.4930    1.9619 C   0  0  0  0  0  0  0  0  0  0  0  0
   -5.2285   -1.7249    1.2420 C   0  0  0  0  0  0  0  0  0  0  0  0
   -4.9096   -0.9351    0.1516 C   0  0  0  0  0  0  0  0  0  0  0  0
   -5.7988    0.0652   -0.1634 C   0  0  0  0  0  0  0  0  0  0  0  0
   -6.9632    0.2983    0.5524 C   0  0  0  0  0  0  0  0  0  0  0  0
   -3.6905   -1.2149   -0.5762 C   0  0  0  0  0  0  0  0  0  0  0  0
   -3.0000   -2.1986   -0.1681 O   0  0  0  0  0  0  0  0  0  0  0  0
   -3.1993   -0.4530   -1.7402 C   0  0  0  0  0  0  0  0  0  0  0  0
   -2.2187    0.5328   -1.2185 N   0  0  0  0  0  0  0  0  0  0  0  0
   -2.6782    1.7513   -0.8360 C   0  0  0  0  0  0  0  0  0  0  0  0
   -1.2611    2.6627   -0.2726 S   0  0  0  0  0  0  0  0  0  0  0  0
   -0.1232    1.2744   -0.6122 C   0  0  0  0  0  0  0  0  0  0  0  0
   -0.9399    0.3060   -1.1020 C   0  0  0  0  0  0  0  0  0  0  0  0
   -0.3235   -1.0365   -1.5080 C   0  0  0  0  0  0  0  0  0  0  0  0
    1.3145    1.2858   -0.3831 C   0  0  0  0  0  0  0  0  0  0  0  0
    1.7753    0.5220    0.8281 C   0  0  0  0  0  0  0  0  0  0  0  0
    3.1794    0.5740    0.9942 O   0  0  0  0  0  0  0  0  0  0  0  0
    4.0611    0.0955    0.0360 C   0  0  0  0  0  0  0  0  0  0  0  0
    3.6984   -0.4205   -1.0520 O   0  0  0  0  0  0  0  0  0  0  0  0
    5.4998    0.1910    0.2963 C   0  0  0  0  0  0  0  0  0  0  0  0
    6.3837   -0.2903   -0.6673 C   0  0  0  0  0  0  0  0  0  0  0  0
    7.7637   -0.2299   -0.4773 C   0  0  0  0  0  0  0  0  0  0  0  0
    8.2334    0.3274    0.7074 C   0  0  0  0  0  0  0  0  0  0  0  0
    7.3755    0.8126    1.6801 C   0  0  0  0  0  0  0  0  0  0  0  0
    5.9992    0.7381    1.4610 C   0  0  0  0  0  0  0  0  0  0  0  0
    0.0000    0.0000    0.0000 Br  0  0  0  0  0  0  0  0  0  0  0  0
   -6.6710   -2.1037    2.8264 H   0  0  0  0  0  0  0  0  0  0  0  0
   -4.6092   -2.5405    1.5859 H   0  0  0  0  0  0  0  0  0  0  0  0
   -5.6108    0.7101   -1.0013 H   0  0  0  0  0  0  0  0  0  0  0  0
   -7.6304    1.1020    0.2608 H   0  0  0  0  0  0  0  0  0  0  0  0
   -4.0756    0.0967   -2.1810 H   0  0  0  0  0  0  0  0  0  0  0  0
   -2.7859   -1.0688   -2.5333 H   0  0  0  0  0  0  0  0  0  0  0  0
   -3.7121    2.1250   -0.8613 H   0  0  0  0  0  0  0  0  0  0  0  0
   -0.8382   -1.3909   -2.4021 H   0  0  0  0  0  0  0  0  0  0  0  0
    0.7337   -0.8965   -1.7906 H   0  0  0  0  0  0  0  0  0  0  0  0
   -0.3608   -1.7654   -0.7076 H   0  0  0  0  0  0  0  0  0  0  0  0
    1.6381    2.3395   -0.2530 H   0  0  0  0  0  0  0  0  0  0  0  0
    1.8052    0.9221   -1.3080 H   0  0  0  0  0  0  0  0  0  0  0  0
    1.5684   -0.5634    0.5930 H   0  0  0  0  0  0  0  0  0  0  0  0
    1.3077    0.8411    1.7560 H   0  0  0  0  0  0  0  0  0  0  0  0
    6.0433   -0.7298   -1.6012 H   0  0  0  0  0  0  0  0  0  0  0  0
    8.4536   -0.6123   -1.2425 H   0  0  0  0  0  0  0  0  0  0  0  0
    9.3003    0.3837    0.8745 H   0  0  0  0  0  0  0  0  0  0  0  0
    7.7597    1.2483    2.6091 H   0  0  0  0  0  0  0  0  0  0  0  0
    5.2942    1.1075    2.1985 H   0  0  0  0  0  0  0  0  0  0  0  0
  1  2  1  0
  2  3  2  0
  3  4  1  0
  4  5  2  0
  5  6  1  0
  6  7  2  0
  5  8  1  0
  8  9  2  0
  8 10  1  0
 10 11  1  0
 11 12  2  0
 12 13  1  0
 13 14  1  0
 14 15  2  0
 15 16  1  0
 14 17  1  0
 17 18  1  0
 18 19  1  0
 19 20  1  0
 20 21  2  0
 20 22  1  0
 22 23  2  0
 23 24  1  0
 24 25  2  0
 25 26  1  0
 26 27  2  0
  7  2  1  0
 15 11  1  0
 27 22  1  0
  3 29  1  0
  4 30  1  0
  6 31  1  0
  7 32  1  0
 10 33  1  0
 10 34  1  0
 12 35  1  0
 16 36  1  0
 16 37  1  0
 16 38  1  0
 17 39  1  0
 17 40  1  0
 18 41  1  0
 18 42  1  0
 23 43  1  0
 24 44  1  0
 25 45  1  0
 26 46  1  0
 27 47  1  0
M  CHG  2  11   1  28  -1
M  END
>  <Ligand ID>  (1) 
LIG0003683

>  <Ligand>  (1) 
MLS001217375

>  <SMILES>  (1) 
Brc1ccc(cc1)C(=O)C[n+]1csc(c1C)CCOC(=O)c1ccccc1.[Br-]

>  <CID>  (1) 
2884069.0

>  <ChEMBL ID>  (1) 
nan

>  <InChiKey>  (1) 
YAYRZJUVSTWFGJ-UHFFFAOYSA-M

>  <InChi>  (1) 
InChI=1S/C21H19BrNO3S.BrH/c1-15-20(11-12-26-21(25)17-5-3-2-4-6-17)27-14-23(15)13-19(24)16-7-9-18(22)10-8-16;/h2-10,14H,11-13H2,1H3;1H/q+1;/p-1

>  <IUPAC Name>  (1) 
2-[3-[2-(4-bromophenyl)-2-oxoethyl]-4-methyl-1,3-thiazol-3-ium-5-yl]ethyl benzoate;bromide

$$$$
