
     RDKit          3D

 33 35  0  0  0  0  0  0  0  0999 V2000
   -4.9403   -2.4011   -0.3307 O   0  0  0  0  0  0  0  0  0  0  0  0
   -4.4486   -1.2401   -0.2513 C   0  0  0  0  0  0  0  0  0  0  0  0
   -5.3000   -0.0274   -0.2701 C   0  0  0  0  0  0  0  0  0  0  0  0
   -4.5412    1.1514   -0.8534 C   0  0  0  0  0  0  0  0  0  0  0  0
   -3.3054    1.3019   -0.1451 O   0  0  0  0  0  0  0  0  0  0  0  0
   -2.4837    0.1689   -0.0896 C   0  0  0  0  0  0  0  0  0  0  0  0
   -2.9927   -1.1057   -0.1380 C   0  0  0  0  0  0  0  0  0  0  0  0
   -2.1834   -2.2151   -0.0833 C   0  0  0  0  0  0  0  0  0  0  0  0
   -0.8072   -2.0766    0.0239 C   0  0  0  0  0  0  0  0  0  0  0  0
   -0.2881   -0.7971    0.0731 C   0  0  0  0  0  0  0  0  0  0  0  0
   -1.1147    0.3276    0.0172 C   0  0  0  0  0  0  0  0  0  0  0  0
    1.0917   -0.6855    0.1804 O   0  0  0  0  0  0  0  0  0  0  0  0
    1.6492    0.5988    0.2325 C   0  0  0  0  0  0  0  0  0  0  0  0
    3.1370    0.5976    0.3474 C   0  0  0  0  0  0  0  0  0  0  0  0
    3.7646    0.5886    1.5758 C   0  0  0  0  0  0  0  0  0  0  0  0
    5.1548    0.5882    1.5795 C   0  0  0  0  0  0  0  0  0  0  0  0
    5.8637    0.5965    0.3962 C   0  0  0  0  0  0  0  0  0  0  0  0
    5.2502    0.6054   -0.8371 C   0  0  0  0  0  0  0  0  0  0  0  0
    3.8513    0.6059   -0.8513 C   0  0  0  0  0  0  0  0  0  0  0  0
   -6.1711   -0.2505   -0.9193 H   0  0  0  0  0  0  0  0  0  0  0  0
   -5.6540    0.3004    0.7113 H   0  0  0  0  0  0  0  0  0  0  0  0
   -5.1606    2.0559   -0.7778 H   0  0  0  0  0  0  0  0  0  0  0  0
   -4.3510    0.8840   -1.9106 H   0  0  0  0  0  0  0  0  0  0  0  0
   -2.5926   -3.2252   -0.1221 H   0  0  0  0  0  0  0  0  0  0  0  0
   -0.2095   -2.9716    0.0637 H   0  0  0  0  0  0  0  0  0  0  0  0
   -0.6907    1.3047    0.0569 H   0  0  0  0  0  0  0  0  0  0  0  0
    1.3409    1.2693   -0.5851 H   0  0  0  0  0  0  0  0  0  0  0  0
    1.2113    1.0662    1.1617 H   0  0  0  0  0  0  0  0  0  0  0  0
    3.1972    0.5823    2.4897 H   0  0  0  0  0  0  0  0  0  0  0  0
    5.6245    0.5812    2.5588 H   0  0  0  0  0  0  0  0  0  0  0  0
    6.9628    0.5960    0.4243 H   0  0  0  0  0  0  0  0  0  0  0  0
    5.7695    0.6120   -1.7779 H   0  0  0  0  0  0  0  0  0  0  0  0
    3.3662    0.6129   -1.8156 H   0  0  0  0  0  0  0  0  0  0  0  0
  1  2  2  0
  2  3  1  0
  3  4  1  0
  4  5  1  0
  5  6  1  0
  6  7  2  0
  7  8  1  0
  8  9  2  0
  9 10  1  0
 10 11  2  0
 10 12  1  0
 12 13  1  0
 13 14  1  0
 14 15  2  0
 15 16  1  0
 16 17  2  0
 17 18  1  0
 18 19  2  0
  7  2  1  0
 19 14  1  0
 11  6  1  0
  3 20  1  0
  3 21  1  0
  4 22  1  0
  4 23  1  0
  8 24  1  0
  9 25  1  0
 11 26  1  0
 13 27  1  0
 13 28  1  0
 15 29  1  0
 16 30  1  0
 17 31  1  0
 18 32  1  0
 19 33  1  0
M  END
>  <Ligand ID>  (1) 
LIG0000508

>  <Ligand>  (1) 
7-(benzyloxy)-2,3-dihydro-4H-chromen-4-one

>  <SMILES>  (1) 
O=C1CCOc2c1ccc(c2)OCc1ccccc1

>  <CID>  (1) 
4521898.0

>  <ChEMBL ID>  (1) 
nan

>  <InChiKey>  (1) 
MLQFOEOUNIRULR-UHFFFAOYSA-N

>  <InChi>  (1) 
InChI=1S/C16H14O3/c17-15-8-9-18-16-10-13(6-7-14(15)16)19-11-12-4-2-1-3-5-12/h1-7,10H,8-9,11H2

>  <IUPAC Name>  (1) 
7-phenylmethoxy-2,3-dihydrochromen-4-one

$$$$
