
     RDKit          3D

 41 43  0  0  0  0  0  0  0  0999 V2000
   -4.5089   -2.5808   -2.6216 Cl  0  0  0  0  0  0  0  0  0  0  0  0
   -5.1382   -1.6359   -1.2848 C   0  0  0  0  0  0  0  0  0  0  0  0
   -6.4989   -1.4093   -1.1061 C   0  0  0  0  0  0  0  0  0  0  0  0
   -6.9439   -0.6473   -0.0232 C   0  0  0  0  0  0  0  0  0  0  0  0
   -5.9876   -0.1345    0.8531 C   0  0  0  0  0  0  0  0  0  0  0  0
   -4.6344   -0.3571    0.6802 C   0  0  0  0  0  0  0  0  0  0  0  0
   -4.1879   -1.1170   -0.4014 C   0  0  0  0  0  0  0  0  0  0  0  0
   -3.7193    0.1758    1.6238 N   0  0  0  0  0  0  0  0  0  0  0  0
   -2.3257    0.2125    1.3706 C   0  0  0  0  0  0  0  0  0  0  0  0
   -1.4896   -0.8196    1.4870 N   0  0  0  0  0  0  0  0  0  0  0  0
   -0.1581   -0.6593    1.2293 C   0  0  0  0  0  0  0  0  0  0  0  0
    0.3441    0.5550    0.8481 C   0  0  0  0  0  0  0  0  0  0  0  0
   -0.5316    1.6405    0.7245 C   0  0  0  0  0  0  0  0  0  0  0  0
   -1.8183    1.4061    0.9935 N   0  0  0  0  0  0  0  0  0  0  0  0
   -0.0628    2.9719    0.3198 C   0  0  0  0  0  0  0  0  0  0  0  0
    0.8806    3.4152    1.2327 F   0  0  0  0  0  0  0  0  0  0  0  0
    0.3250    3.0696   -0.9796 F   0  0  0  0  0  0  0  0  0  0  0  0
   -1.1448    3.8561    0.4796 F   0  0  0  0  0  0  0  0  0  0  0  0
    1.7401    0.8397    0.5586 C   0  0  0  0  0  0  0  0  0  0  0  0
    2.4030    1.3354    1.5428 O   0  0  0  0  0  0  0  0  0  0  0  0
    2.3680    0.6168   -0.6802 N   0  0  0  0  0  0  0  0  0  0  0  0
    3.7271    0.8971   -1.0115 C   0  0  0  0  0  0  0  0  0  0  0  0
    4.6760   -0.0895   -0.4713 C   0  0  0  0  0  0  0  0  0  0  0  0
    5.3023    0.0412    0.7625 C   0  0  0  0  0  0  0  0  0  0  0  0
    6.1786   -0.9061    1.1936 C   0  0  0  0  0  0  0  0  0  0  0  0
    6.4942   -2.0103    0.4720 N   0  0  0  0  0  0  0  0  0  0  0  0
    5.8943   -2.1674   -0.7468 C   0  0  0  0  0  0  0  0  0  0  0  0
    5.0070   -1.2200   -1.1962 C   0  0  0  0  0  0  0  0  0  0  0  0
   -7.1944   -1.8323   -1.8218 H   0  0  0  0  0  0  0  0  0  0  0  0
   -8.0193   -0.4551    0.1335 H   0  0  0  0  0  0  0  0  0  0  0  0
   -6.3912    0.4498    1.6788 H   0  0  0  0  0  0  0  0  0  0  0  0
   -3.1255   -1.3047   -0.5523 H   0  0  0  0  0  0  0  0  0  0  0  0
   -4.0479    0.5562    2.5278 H   0  0  0  0  0  0  0  0  0  0  0  0
    0.5416   -1.4836    1.3193 H   0  0  0  0  0  0  0  0  0  0  0  0
    1.7633    0.1972   -1.4378 H   0  0  0  0  0  0  0  0  0  0  0  0
    3.9826    1.9279   -0.6347 H   0  0  0  0  0  0  0  0  0  0  0  0
    3.8346    1.0070   -2.1278 H   0  0  0  0  0  0  0  0  0  0  0  0
    5.0904    0.9080    1.3775 H   0  0  0  0  0  0  0  0  0  0  0  0
    6.6967   -0.8337    2.1636 H   0  0  0  0  0  0  0  0  0  0  0  0
    6.1229   -3.0469   -1.3595 H   0  0  0  0  0  0  0  0  0  0  0  0
    4.5559   -1.3687   -2.1561 H   0  0  0  0  0  0  0  0  0  0  0  0
  1  2  1  0
  2  3  2  0
  3  4  1  0
  4  5  2  0
  5  6  1  0
  6  7  2  0
  6  8  1  0
  8  9  1  0
  9 10  2  0
 10 11  1  0
 11 12  2  0
 12 13  1  0
 13 14  2  0
 13 15  1  0
 15 16  1  0
 15 17  1  0
 15 18  1  0
 12 19  1  0
 19 20  2  0
 19 21  1  0
 21 22  1  0
 22 23  1  0
 23 24  2  0
 24 25  1  0
 25 26  2  0
 26 27  1  0
 27 28  2  0
  7  2  1  0
 14  9  1  0
 28 23  1  0
  3 29  1  0
  4 30  1  0
  5 31  1  0
  7 32  1  0
  8 33  1  0
 11 34  1  0
 21 35  1  0
 22 36  1  0
 22 37  1  0
 24 38  1  0
 25 39  1  0
 27 40  1  0
 28 41  1  0
M  END
>  <Ligand ID>  (1) 
LIG0005848

>  <Ligand>  (1) 
UNII-TV127I2X7M

>  <SMILES>  (1) 
Clc1cccc(c1)Nc1ncc(c(n1)C(F)(F)F)C(=O)NCc1ccncc1

>  <CID>  (1) 
10454092.0

>  <ChEMBL ID>  (1) 
nan

>  <InChiKey>  (1) 
HLCPJLIYGNWTAI-UHFFFAOYSA-N

>  <InChi>  (1) 
InChI=1S/C18H13ClF3N5O/c19-12-2-1-3-13(8-12)26-17-25-10-14(15(27-17)18(20,21)22)16(28)24-9-11-4-6-23-7-5-11/h1-8,10H,9H2,(H,24,28)(H,25,26,27)

>  <IUPAC Name>  (1) 
2-(3-chloroanilino)-N-(pyridin-4-ylmethyl)-4-(trifluoromethyl)pyrimidine-5-carboxamide

$$$$
