
     RDKit          3D

 43 45  0  0  0  0  0  0  0  0999 V2000
   -1.9159   -3.5706   -1.0909 N   0  0  0  0  0  0  0  0  0  0  0  0
   -2.7880   -2.5951   -0.4577 C   0  0  0  0  0  0  0  0  0  0  0  0
   -2.1055   -1.2714   -0.5363 C   0  0  2  0  0  0  0  0  0  0  0  0
   -0.8662   -1.2776    0.1181 O   0  0  0  0  0  0  0  0  0  0  0  0
   -0.1816   -0.1709   -0.3984 C   0  0  0  0  0  0  0  0  0  0  0  0
    1.2709   -0.3947   -0.2011 C   0  0  0  0  0  0  0  0  0  0  0  0
    2.1676    0.7086   -0.7036 C   0  0  0  0  0  0  0  0  0  0  0  0
    3.5696    0.2539   -0.3922 C   0  0  0  0  0  0  0  0  0  0  0  0
    4.3088   -0.4893   -1.2813 C   0  0  0  0  0  0  0  0  0  0  0  0
    5.5885   -0.8499   -0.8831 C   0  0  0  0  0  0  0  0  0  0  0  0
    6.1041   -0.4825    0.3501 C   0  0  0  0  0  0  0  0  0  0  0  0
    5.3340    0.2717    1.2345 C   0  0  0  0  0  0  0  0  0  0  0  0
    4.0767    0.6205    0.8317 C   0  0  0  0  0  0  0  0  0  0  0  0
   -0.7032    1.1177    0.1529 C   0  0  0  0  0  0  0  0  0  0  0  0
   -2.1648    0.9830    0.4031 C   0  0  0  0  0  0  0  0  0  0  0  0
   -2.8728   -0.1649    0.0790 C   0  0  0  0  0  0  0  0  0  0  0  0
   -4.2189   -0.2156    0.3396 C   0  0  0  0  0  0  0  0  0  0  0  0
   -4.8380    0.8815    0.9202 C   0  0  0  0  0  0  0  0  0  0  0  0
   -4.1498    2.0342    1.2503 C   0  0  0  0  0  0  0  0  0  0  0  0
   -2.7922    2.0778    0.9844 C   0  0  0  0  0  0  0  0  0  0  0  0
   -2.1024    3.2382    1.3173 O   0  0  0  0  0  0  0  0  0  0  0  0
   -4.7612    3.1394    1.8326 O   0  0  0  0  0  0  0  0  0  0  0  0
   -2.2269   -3.7458   -2.0735 H   0  0  0  0  0  0  0  0  0  0  0  0
   -0.9381   -3.2008   -1.1873 H   0  0  0  0  0  0  0  0  0  0  0  0
   -3.7160   -2.5618   -1.0278 H   0  0  0  0  0  0  0  0  0  0  0  0
   -2.9390   -2.9359    0.5869 H   0  0  0  0  0  0  0  0  0  0  0  0
   -1.8871   -1.0537   -1.6059 H   0  0  0  0  0  0  0  0  0  0  0  0
   -0.4021   -0.1639   -1.4990 H   0  0  0  0  0  0  0  0  0  0  0  0
    1.5357   -1.3046   -0.8123 H   0  0  0  0  0  0  0  0  0  0  0  0
    1.4945   -0.6784    0.8435 H   0  0  0  0  0  0  0  0  0  0  0  0
    2.0078    1.6804   -0.2410 H   0  0  0  0  0  0  0  0  0  0  0  0
    2.1405    0.7914   -1.8052 H   0  0  0  0  0  0  0  0  0  0  0  0
    3.8897   -0.7665   -2.2388 H   0  0  0  0  0  0  0  0  0  0  0  0
    6.2148   -1.4389   -1.5513 H   0  0  0  0  0  0  0  0  0  0  0  0
    7.1017   -0.7566    0.6752 H   0  0  0  0  0  0  0  0  0  0  0  0
    5.7111    0.5737    2.2061 H   0  0  0  0  0  0  0  0  0  0  0  0
    3.4750    1.2161    1.5359 H   0  0  0  0  0  0  0  0  0  0  0  0
   -0.1466    1.4779    1.0362 H   0  0  0  0  0  0  0  0  0  0  0  0
   -0.5866    1.9065   -0.6247 H   0  0  0  0  0  0  0  0  0  0  0  0
   -4.7691   -1.0934    0.0937 H   0  0  0  0  0  0  0  0  0  0  0  0
   -5.9084    0.8912    1.1479 H   0  0  0  0  0  0  0  0  0  0  0  0
   -1.1017    3.2995    1.2999 H   0  0  0  0  0  0  0  0  0  0  0  0
   -4.9091    4.0199    1.3726 H   0  0  0  0  0  0  0  0  0  0  0  0
  1  2  1  0
  2  3  1  0
  3  4  1  0
  4  5  1  0
  5  6  1  0
  6  7  1  0
  7  8  1  0
  8  9  2  0
  9 10  1  0
 10 11  2  0
 11 12  1  0
 12 13  2  0
  5 14  1  0
 14 15  1  0
 15 16  2  0
 16 17  1  0
 17 18  2  0
 18 19  1  0
 19 20  2  0
 20 21  1  0
 19 22  1  0
 16  3  1  0
 13  8  1  0
 20 15  1  0
  1 23  1  0
  1 24  1  0
  2 25  1  0
  2 26  1  0
  3 27  1  6
  5 28  1  0
  6 29  1  0
  6 30  1  0
  7 31  1  0
  7 32  1  0
  9 33  1  0
 10 34  1  0
 11 35  1  0
 12 36  1  0
 13 37  1  0
 14 38  1  0
 14 39  1  0
 17 40  1  0
 18 41  1  0
 21 42  1  0
 22 43  1  0
M  END
>  <Ligand ID>  (1) 
LIG0002877

>  <Ligand>  (1) 
CHEMBL84983

>  <SMILES>  (1) 
NC[C@@H]1OC(CCc2ccccc2)Cc2c1ccc(c2O)O

>  <CID>  (1) 
44320001.0

>  <ChEMBL ID>  (1) 
nan

>  <InChiKey>  (1) 
KIARRRIAGXQGBT-RUINGEJQSA-N

>  <InChi>  (1) 
InChI=1S/C18H21NO3/c19-11-17-14-8-9-16(20)18(21)15(14)10-13(22-17)7-6-12-4-2-1-3-5-12/h1-5,8-9,13,17,20-21H,6-7,10-11,19H2/t13?,17-/m0/s1

>  <IUPAC Name>  (1) 
(1R)-1-(aminomethyl)-3-(2-phenylethyl)-3,4-dihydro-1H-isochromene-5,6-diol

$$$$
