
     RDKit          3D

 24 25  0  0  0  0  0  0  0  0999 V2000
   -1.6814   -0.0260    0.9429 N   0  0  0  0  0  0  0  0  0  0  0  0
   -1.8745   -1.1618    0.0607 C   0  0  0  0  0  0  0  0  0  0  0  0
   -0.5675   -1.6837   -0.4822 C   0  0  0  0  0  0  0  0  0  0  0  0
    0.5333   -0.7092   -0.2525 C   0  0  0  0  0  0  0  0  0  0  0  0
    0.4577    0.6627   -0.2934 C   0  0  0  0  0  0  0  0  0  0  0  0
   -0.7056    1.5387   -0.5693 C   0  0  0  0  0  0  0  0  0  0  0  0
   -1.8921    1.2261    0.2827 C   0  0  0  0  0  0  0  0  0  0  0  0
    1.6235    1.3671   -0.0444 C   0  0  0  0  0  0  0  0  0  0  0  0
    2.8266    0.7495    0.2359 C   0  0  0  0  0  0  0  0  0  0  0  0
    2.8929   -0.6283    0.2747 C   0  0  0  0  0  0  0  0  0  0  0  0
    1.7403   -1.3608    0.0292 C   0  0  0  0  0  0  0  0  0  0  0  0
   -2.2124   -0.1129    1.8319 H   0  0  0  0  0  0  0  0  0  0  0  0
   -2.5592   -0.9133   -0.7769 H   0  0  0  0  0  0  0  0  0  0  0  0
   -2.3361   -1.9755    0.6563 H   0  0  0  0  0  0  0  0  0  0  0  0
   -0.2697   -2.6211    0.0283 H   0  0  0  0  0  0  0  0  0  0  0  0
   -0.6494   -1.9151   -1.5623 H   0  0  0  0  0  0  0  0  0  0  0  0
   -1.0240    1.4536   -1.6487 H   0  0  0  0  0  0  0  0  0  0  0  0
   -0.3881    2.6084   -0.4518 H   0  0  0  0  0  0  0  0  0  0  0  0
   -2.8611    1.2857   -0.2568 H   0  0  0  0  0  0  0  0  0  0  0  0
   -1.9389    2.0037    1.0978 H   0  0  0  0  0  0  0  0  0  0  0  0
    1.5654    2.4662   -0.0765 H   0  0  0  0  0  0  0  0  0  0  0  0
    3.7073    1.3497    0.4228 H   0  0  0  0  0  0  0  0  0  0  0  0
    3.8249   -1.1503    0.4926 H   0  0  0  0  0  0  0  0  0  0  0  0
    1.7880   -2.4534    0.0589 H   0  0  0  0  0  0  0  0  0  0  0  0
  1  2  1  0
  2  3  1  0
  3  4  1  0
  4  5  2  0
  5  6  1  0
  6  7  1  0
  5  8  1  0
  8  9  2  0
  9 10  1  0
 10 11  2  0
  7  1  1  0
 11  4  1  0
  1 12  1  0
  2 13  1  0
  2 14  1  0
  3 15  1  0
  3 16  1  0
  6 17  1  0
  6 18  1  0
  7 19  1  0
  7 20  1  0
  8 21  1  0
  9 22  1  0
 10 23  1  0
 11 24  1  0
M  END
>  <Ligand ID>  (1) 
LIG0003237

>  <Ligand>  (1) 
2,3,4,5-Tetrahydro-1H-benzo[d]azepine

>  <SMILES>  (1) 
N1CCc2c(CC1)cccc2

>  <CID>  (1) 
1400243.0

>  <ChEMBL ID>  (1) 
nan

>  <InChiKey>  (1) 
MWVMYAWMFTVYED-UHFFFAOYSA-N

>  <InChi>  (1) 
InChI=1S/C10H13N/c1-2-4-10-6-8-11-7-5-9(10)3-1/h1-4,11H,5-8H2

>  <IUPAC Name>  (1) 
2,3,4,5-tetrahydro-1H-3-benzazepine

$$$$
