
     RDKit          3D

 57 58  0  0  0  0  0  0  0  0999 V2000
    5.8020   -1.4882   -0.8291 O   0  0  0  0  0  0  0  0  0  0  0  0
    5.7754   -0.4419   -0.1189 C   0  0  0  0  0  0  0  0  0  0  0  0
    6.9778    0.1560    0.3335 N   0  0  0  0  0  0  0  0  0  0  0  0
    7.1898    1.3354    1.1432 C   0  0  0  0  0  0  0  0  0  0  0  0
    8.3993    2.0150    0.5859 C   0  0  0  0  0  0  0  0  0  0  0  0
    9.1598    0.9152   -0.0838 C   0  0  0  0  0  0  0  0  0  0  0  0
    8.3255   -0.3447    0.0449 C   0  0  0  0  0  0  0  0  0  0  0  0
    4.4787    0.2098    0.2743 C   0  0  0  0  0  0  0  0  0  0  0  0
    3.3545   -0.6247   -0.3362 C   0  0  0  0  0  0  0  0  0  0  0  0
    1.9882   -0.0737   -0.0137 C   0  0  0  0  0  0  0  0  0  0  0  0
    0.9814   -0.9832   -0.6707 C   0  0  0  0  0  0  0  0  0  0  0  0
   -0.4426   -0.5356   -0.4206 C   0  0  0  0  0  0  0  0  0  0  0  0
   -1.3352   -1.5136   -1.1198 C   0  0  0  0  0  0  0  0  0  0  0  0
   -2.8114   -1.2116   -0.9707 C   0  0  0  0  0  0  0  0  0  0  0  0
   -3.1930    0.1183   -1.5123 C   0  0  0  0  0  0  0  0  0  0  0  0
   -4.6591    0.3509   -1.3344 C   0  0  0  0  0  0  0  0  0  0  0  0
   -5.1396    0.3495    0.0482 C   0  0  0  0  0  0  0  0  0  0  0  0
   -4.4428    0.2330    1.0735 O   0  0  0  0  0  0  0  0  0  0  0  0
   -6.5559    0.4976    0.2537 N   0  0  0  0  0  0  0  0  0  0  0  0
   -7.5916    0.6513   -0.7658 C   0  0  0  0  0  0  0  0  0  0  0  0
   -8.6880   -0.2298   -0.2207 C   0  0  0  0  0  0  0  0  0  0  0  0
   -8.3733   -0.4951    1.2275 C   0  0  0  0  0  0  0  0  0  0  0  0
   -7.2790    0.5283    1.5149 C   0  0  0  0  0  0  0  0  0  0  0  0
    6.2836    1.9754    1.0216 H   0  0  0  0  0  0  0  0  0  0  0  0
    7.2968    1.0922    2.2203 H   0  0  0  0  0  0  0  0  0  0  0  0
    8.1325    2.8160   -0.1210 H   0  0  0  0  0  0  0  0  0  0  0  0
    9.0126    2.4328    1.4143 H   0  0  0  0  0  0  0  0  0  0  0  0
    9.3584    1.1534   -1.1523 H   0  0  0  0  0  0  0  0  0  0  0  0
   10.1554    0.7826    0.3876 H   0  0  0  0  0  0  0  0  0  0  0  0
    8.3764   -0.9170   -0.8810 H   0  0  0  0  0  0  0  0  0  0  0  0
    8.6449   -0.9019    0.9430 H   0  0  0  0  0  0  0  0  0  0  0  0
    4.3339    0.1981    1.3694 H   0  0  0  0  0  0  0  0  0  0  0  0
    4.4896    1.2118   -0.1820 H   0  0  0  0  0  0  0  0  0  0  0  0
    3.4246   -1.6804   -0.0235 H   0  0  0  0  0  0  0  0  0  0  0  0
    3.4364   -0.6228   -1.4519 H   0  0  0  0  0  0  0  0  0  0  0  0
    1.7856   -0.1268    1.0870 H   0  0  0  0  0  0  0  0  0  0  0  0
    1.8545    0.9422   -0.3769 H   0  0  0  0  0  0  0  0  0  0  0  0
    1.0754   -1.9665   -0.1262 H   0  0  0  0  0  0  0  0  0  0  0  0
    1.1942   -1.1936   -1.7307 H   0  0  0  0  0  0  0  0  0  0  0  0
   -0.6177    0.5042   -0.7629 H   0  0  0  0  0  0  0  0  0  0  0  0
   -0.6109   -0.6034    0.6755 H   0  0  0  0  0  0  0  0  0  0  0  0
   -1.1817   -2.4993   -0.5975 H   0  0  0  0  0  0  0  0  0  0  0  0
   -1.0819   -1.6672   -2.1711 H   0  0  0  0  0  0  0  0  0  0  0  0
   -3.3322   -1.9831   -1.5943 H   0  0  0  0  0  0  0  0  0  0  0  0
   -3.1262   -1.3584    0.0565 H   0  0  0  0  0  0  0  0  0  0  0  0
   -3.0171    0.0792   -2.6230 H   0  0  0  0  0  0  0  0  0  0  0  0
   -2.6292    0.9607   -1.0538 H   0  0  0  0  0  0  0  0  0  0  0  0
   -5.2372   -0.3931   -1.9353 H   0  0  0  0  0  0  0  0  0  0  0  0
   -4.8628    1.3840   -1.7432 H   0  0  0  0  0  0  0  0  0  0  0  0
   -7.8624    1.7297   -0.7490 H   0  0  0  0  0  0  0  0  0  0  0  0
   -7.2490    0.3225   -1.7542 H   0  0  0  0  0  0  0  0  0  0  0  0
   -9.6826    0.2646   -0.2542 H   0  0  0  0  0  0  0  0  0  0  0  0
   -8.7040   -1.1793   -0.8143 H   0  0  0  0  0  0  0  0  0  0  0  0
   -9.2467   -0.3824    1.9007 H   0  0  0  0  0  0  0  0  0  0  0  0
   -7.9133   -1.5160    1.3090 H   0  0  0  0  0  0  0  0  0  0  0  0
   -6.6501    0.2199    2.3706 H   0  0  0  0  0  0  0  0  0  0  0  0
   -7.7708    1.5037    1.6559 H   0  0  0  0  0  0  0  0  0  0  0  0
  1  2  2  0
  2  3  1  0
  3  4  1  0
  4  5  1  0
  5  6  1  0
  6  7  1  0
  2  8  1  0
  8  9  1  0
  9 10  1  0
 10 11  1  0
 11 12  1  0
 12 13  1  0
 13 14  1  0
 14 15  1  0
 15 16  1  0
 16 17  1  0
 17 18  2  0
 17 19  1  0
 19 20  1  0
 20 21  1  0
 21 22  1  0
 22 23  1  0
  7  3  1  0
 23 19  1  0
  4 24  1  0
  4 25  1  0
  5 26  1  0
  5 27  1  0
  6 28  1  0
  6 29  1  0
  7 30  1  0
  7 31  1  0
  8 32  1  0
  8 33  1  0
  9 34  1  0
  9 35  1  0
 10 36  1  0
 10 37  1  0
 11 38  1  0
 11 39  1  0
 12 40  1  0
 12 41  1  0
 13 42  1  0
 13 43  1  0
 14 44  1  0
 14 45  1  0
 15 46  1  0
 15 47  1  0
 16 48  1  0
 16 49  1  0
 20 50  1  0
 20 51  1  0
 21 52  1  0
 21 53  1  0
 22 54  1  0
 22 55  1  0
 23 56  1  0
 23 57  1  0
M  END
>  <Ligand ID>  (1) 
LIG0000352

>  <Ligand>  (1) 
1,11-dipyrrolidin-1-ylundecane-1,11-dione

>  <SMILES>  (1) 
O=C(N1CCCC1)CCCCCCCCCC(=O)N1CCCC1

>  <CID>  (1) 
91705253.0

>  <ChEMBL ID>  (1) 
nan

>  <InChiKey>  (1) 
OKSQMACTYXNPKY-UHFFFAOYSA-N

>  <InChi>  (1) 
InChI=1S/C19H34N2O2/c22-18(20-14-8-9-15-20)12-6-4-2-1-3-5-7-13-19(23)21-16-10-11-17-21/h1-17H2

>  <IUPAC Name>  (1) 
1,11-dipyrrolidin-1-ylundecane-1,11-dione

$$$$
