
     RDKit          3D

161166  0  0  0  0  0  0  0  0999 V2000
   10.5299   -3.1694    2.7483 C   0  0  0  0  0  0  0  0  0  0  0  0
    9.3724   -2.3517    2.1379 C   0  0  0  0  0  0  0  0  0  0  0  0
    9.3375   -2.7455    0.6726 C   0  0  0  0  0  0  0  0  0  0  0  0
    8.2478   -2.0806   -0.1177 C   0  0  0  0  0  0  0  0  0  0  0  0
    8.4349   -0.5789   -0.1028 C   0  0  2  0  0  0  0  0  0  0  0  0
    7.3403    0.1201   -0.8263 C   0  0  0  0  0  0  0  0  0  0  0  0
    7.6202    0.9681   -1.7443 O   0  0  0  0  0  0  0  0  0  0  0  0
    5.9813   -0.1210   -0.5319 N   0  0  0  0  0  0  0  0  0  0  0  0
    4.8767    0.5604   -1.2292 C   0  0  1  0  0  0  0  0  0  0  0  0
    4.2129   -0.4080   -2.1674 C   0  0  0  0  0  0  0  0  0  0  0  0
    3.7879   -1.6646   -1.4736 C   0  0  0  0  0  0  0  0  0  0  0  0
    3.6435   -1.7837   -0.2549 O   0  0  0  0  0  0  0  0  0  0  0  0
    3.5207   -2.8720   -2.2241 N   0  0  0  0  0  0  0  0  0  0  0  0
    3.1264   -4.1179   -1.6369 C   0  0  0  0  0  0  0  0  0  0  0  0
    1.8003   -4.0508   -0.9235 C   0  0  0  0  0  0  0  0  0  0  0  0
    1.5449   -5.4141   -0.3092 C   0  0  0  0  0  0  0  0  0  0  0  0
    0.2180   -5.5533    0.3574 C   0  0  0  0  0  0  0  0  0  0  0  0
   -0.9386   -5.4503   -0.5954 C   0  0  1  0  0  0  0  0  0  0  0  0
   -0.9616   -6.5562   -1.5534 C   0  0  0  0  0  0  0  0  0  0  0  0
   -0.0063   -6.9203   -2.2801 O   0  0  0  0  0  0  0  0  0  0  0  0
   -2.1760   -7.2946   -1.6833 N   0  0  0  0  0  0  0  0  0  0  0  0
   -2.1541   -5.2503    0.1687 N   0  0  0  0  0  0  0  0  0  0  0  0
   -2.7276   -6.1822    1.0749 C   0  0  0  0  0  0  0  0  0  0  0  0
   -2.8690   -3.9986    0.0609 C   0  0  0  0  0  0  0  0  0  0  0  0
   -2.2815   -3.2146   -0.6836 O   0  0  0  0  0  0  0  0  0  0  0  0
   -4.1053   -3.6252    0.7081 C   0  0  1  0  0  0  0  0  0  0  0  0
   -4.2104   -2.1479    0.4005 N   0  0  0  0  0  0  0  0  0  0  0  0
   -4.2611   -1.2268    1.4152 C   0  0  0  0  0  0  0  0  0  0  0  0
   -4.3896   -1.8389    2.5560 O   0  0  0  0  0  0  0  0  0  0  0  0
   -4.2193    0.2452    1.5679 C   0  0  1  0  0  0  0  0  0  0  0  0
   -3.7014    1.0205    0.4765 N   0  0  0  0  0  0  0  0  0  0  0  0
   -2.3223    1.5258    0.5165 C   0  0  0  0  0  0  0  0  0  0  0  0
   -1.7394    1.1526    1.5211 O   0  0  0  0  0  0  0  0  0  0  0  0
   -1.6808    2.3511   -0.4830 C   0  0  2  0  0  0  0  0  0  0  0  0
   -0.2304    2.2320   -0.5306 N   0  0  0  0  0  0  0  0  0  0  0  0
    0.6497    2.5065    0.5369 C   0  0  0  0  0  0  0  0  0  0  0  0
    0.0098    2.8741    1.5547 O   0  0  0  0  0  0  0  0  0  0  0  0
    2.0837    2.4396    0.6556 C   0  0  1  0  0  0  0  0  0  0  0  0
    2.8966    2.0192   -0.4539 N   0  0  0  0  0  0  0  0  0  0  0  0
    3.9681    1.0598   -0.2187 C   0  0  0  0  0  0  0  0  0  0  0  0
    4.0632    0.6859    0.9557 O   0  0  0  0  0  0  0  0  0  0  0  0
    2.7028    3.7252    1.2501 C   0  0  0  0  0  0  0  0  0  0  0  0
    2.1939    4.0244    2.6017 C   0  0  0  0  0  0  0  0  0  0  0  0
    1.1657    4.7788    3.0099 N   0  0  0  0  0  0  0  0  0  0  0  0
    1.0607    4.7417    4.3642 C   0  0  0  0  0  0  0  0  0  0  0  0
    2.0564    3.9399    4.8004 N   0  0  0  0  0  0  0  0  0  0  0  0
    2.7466    3.5010    3.7515 C   0  0  0  0  0  0  0  0  0  0  0  0
    0.3552    1.7712   -1.7470 C   0  0  0  0  0  0  0  0  0  0  0  0
   -1.9962    3.7895   -0.2158 C   0  0  0  0  0  0  0  0  0  0  0  0
   -1.3946    4.7701   -1.1670 C   0  0  0  0  0  0  0  0  0  0  0  0
   -2.0299    5.0957   -2.3573 C   0  0  0  0  0  0  0  0  0  0  0  0
   -1.5198    6.0363   -3.2426 C   0  0  0  0  0  0  0  0  0  0  0  0
   -0.3313    6.6858   -2.9449 C   0  0  0  0  0  0  0  0  0  0  0  0
    0.3203    6.3779   -1.7649 C   0  0  0  0  0  0  0  0  0  0  0  0
   -0.2097    5.4329   -0.8932 C   0  0  0  0  0  0  0  0  0  0  0  0
    1.5044    7.0209   -1.4592 C   0  0  0  0  0  0  0  0  0  0  0  0
    2.0808    7.9699   -2.2809 C   0  0  0  0  0  0  0  0  0  0  0  0
    1.4175    8.2646   -3.4532 C   0  0  0  0  0  0  0  0  0  0  0  0
    0.2187    7.6399   -3.8043 C   0  0  0  0  0  0  0  0  0  0  0  0
   -4.3758    1.3873   -0.7235 C   0  0  0  0  0  0  0  0  0  0  0  0
   -5.3997    0.7380    2.3238 C   0  0  0  0  0  0  0  0  0  0  0  0
   -5.6176    2.1295    2.6839 C   0  0  0  0  0  0  0  0  0  0  0  0
   -5.7642    3.2054    1.6847 C   0  0  0  0  0  0  0  0  0  0  0  0
   -6.8401    2.9706    0.7780 N   0  0  0  0  0  0  0  0  0  0  0  0
   -7.1271    3.5720   -0.2984 C   0  0  0  0  0  0  0  0  0  0  0  0
   -6.3471    4.6605   -0.7938 N   0  0  0  0  0  0  0  0  0  0  0  0
   -8.2905    3.0965   -1.0134 N   0  0  0  0  0  0  0  0  0  0  0  0
   -4.2325   -1.8325   -0.9692 C   0  0  0  0  0  0  0  0  0  0  0  0
   -5.3436   -4.3762    0.3759 C   0  0  0  0  0  0  0  0  0  0  0  0
   -6.4721   -3.8635    1.1792 C   0  0  0  0  0  0  0  0  0  0  0  0
   -6.7162   -4.3324    2.4728 C   0  0  0  0  0  0  0  0  0  0  0  0
   -7.7259   -3.6423    3.0282 N   0  0  0  0  0  0  0  0  0  0  0  0
   -8.1556   -2.7424    2.1513 C   0  0  0  0  0  0  0  0  0  0  0  0
   -7.3870   -2.8676    0.9938 C   0  0  0  0  0  0  0  0  0  0  0  0
   -7.6493   -2.0563   -0.0739 C   0  0  0  0  0  0  0  0  0  0  0  0
   -8.6505   -1.1117   -0.0364 C   0  0  0  0  0  0  0  0  0  0  0  0
   -9.4052   -0.9936    1.1206 C   0  0  0  0  0  0  0  0  0  0  0  0
   -9.1794   -1.7952    2.2263 C   0  0  0  0  0  0  0  0  0  0  0  0
    9.6531   -0.1483   -0.7585 N   0  0  0  0  0  0  0  0  0  0  0  0
   10.4005   -0.8487   -1.7143 C   0  0  0  0  0  0  0  0  0  0  0  0
   10.1570   -1.9718   -2.1944 O   0  0  0  0  0  0  0  0  0  0  0  0
   11.6454   -0.1824   -2.2313 C   0  0  0  0  0  0  0  0  0  0  0  0
   10.7487   -2.8418    3.7849 H   0  0  0  0  0  0  0  0  0  0  0  0
   11.4078   -2.9984    2.0719 H   0  0  0  0  0  0  0  0  0  0  0  0
   10.2226   -4.2288    2.6594 H   0  0  0  0  0  0  0  0  0  0  0  0
    8.4365   -2.5289    2.6633 H   0  0  0  0  0  0  0  0  0  0  0  0
    9.6632   -1.2852    2.2208 H   0  0  0  0  0  0  0  0  0  0  0  0
    9.1877   -3.8530    0.5842 H   0  0  0  0  0  0  0  0  0  0  0  0
   10.3592   -2.5459    0.3044 H   0  0  0  0  0  0  0  0  0  0  0  0
    8.1638   -2.4465   -1.1397 H   0  0  0  0  0  0  0  0  0  0  0  0
    7.2553   -2.2446    0.4114 H   0  0  0  0  0  0  0  0  0  0  0  0
    8.5350   -0.3288    0.9696 H   0  0  0  0  0  0  0  0  0  0  0  0
    5.7068   -0.8170    0.2209 H   0  0  0  0  0  0  0  0  0  0  0  0
    5.2670    1.3780   -1.8635 H   0  0  0  0  0  0  0  0  0  0  0  0
    3.3072    0.0217   -2.6329 H   0  0  0  0  0  0  0  0  0  0  0  0
    4.8701   -0.7270   -3.0091 H   0  0  0  0  0  0  0  0  0  0  0  0
    3.6378   -2.7522   -3.2375 H   0  0  0  0  0  0  0  0  0  0  0  0
    2.9541   -4.8457   -2.4898 H   0  0  0  0  0  0  0  0  0  0  0  0
    3.9159   -4.5422   -0.9697 H   0  0  0  0  0  0  0  0  0  0  0  0
    1.0384   -3.6999   -1.6120 H   0  0  0  0  0  0  0  0  0  0  0  0
    1.9169   -3.3197   -0.0761 H   0  0  0  0  0  0  0  0  0  0  0  0
    1.8091   -6.1800   -1.0375 H   0  0  0  0  0  0  0  0  0  0  0  0
    2.3152   -5.5039    0.5060 H   0  0  0  0  0  0  0  0  0  0  0  0
    0.1478   -4.7806    1.1466 H   0  0  0  0  0  0  0  0  0  0  0  0
    0.2114   -6.5264    0.8792 H   0  0  0  0  0  0  0  0  0  0  0  0
   -0.7095   -4.5384   -1.2153 H   0  0  0  0  0  0  0  0  0  0  0  0
   -3.0511   -6.7429   -1.7362 H   0  0  0  0  0  0  0  0  0  0  0  0
   -2.1128   -8.3200   -1.7156 H   0  0  0  0  0  0  0  0  0  0  0  0
   -3.3531   -6.9442    0.6249 H   0  0  0  0  0  0  0  0  0  0  0  0
   -1.9082   -6.7384    1.6347 H   0  0  0  0  0  0  0  0  0  0  0  0
   -3.2252   -5.6266    1.9316 H   0  0  0  0  0  0  0  0  0  0  0  0
   -4.0102   -3.7572    1.8227 H   0  0  0  0  0  0  0  0  0  0  0  0
   -3.3610    0.2884    2.3690 H   0  0  0  0  0  0  0  0  0  0  0  0
   -2.1298    2.0862   -1.4757 H   0  0  0  0  0  0  0  0  0  0  0  0
    2.2674    1.7179    1.5414 H   0  0  0  0  0  0  0  0  0  0  0  0
    2.8538    2.3207   -1.4209 H   0  0  0  0  0  0  0  0  0  0  0  0
    3.8111    3.5859    1.3131 H   0  0  0  0  0  0  0  0  0  0  0  0
    2.5440    4.5896    0.6188 H   0  0  0  0  0  0  0  0  0  0  0  0
    0.5148    5.3419    2.4374 H   0  0  0  0  0  0  0  0  0  0  0  0
    0.3617    5.2202    5.0113 H   0  0  0  0  0  0  0  0  0  0  0  0
    3.5978    2.8403    3.8346 H   0  0  0  0  0  0  0  0  0  0  0  0
   -0.4787    1.3354   -2.4006 H   0  0  0  0  0  0  0  0  0  0  0  0
    0.7661    2.5728   -2.3727 H   0  0  0  0  0  0  0  0  0  0  0  0
    1.0558    0.9174   -1.6636 H   0  0  0  0  0  0  0  0  0  0  0  0
   -1.6807    4.1323    0.8167 H   0  0  0  0  0  0  0  0  0  0  0  0
   -3.0810    4.0437   -0.2302 H   0  0  0  0  0  0  0  0  0  0  0  0
   -2.9720    4.5622   -2.5717 H   0  0  0  0  0  0  0  0  0  0  0  0
   -2.0302    6.2754   -4.1578 H   0  0  0  0  0  0  0  0  0  0  0  0
    0.3475    5.2562    0.0102 H   0  0  0  0  0  0  0  0  0  0  0  0
    2.0008    6.7560   -0.5171 H   0  0  0  0  0  0  0  0  0  0  0  0
    3.0100    8.4757   -2.0432 H   0  0  0  0  0  0  0  0  0  0  0  0
    1.8731    9.0214   -4.1084 H   0  0  0  0  0  0  0  0  0  0  0  0
   -0.2840    7.8922   -4.7379 H   0  0  0  0  0  0  0  0  0  0  0  0
   -3.9338    0.9391   -1.6541 H   0  0  0  0  0  0  0  0  0  0  0  0
   -4.5478    2.4499   -0.9162 H   0  0  0  0  0  0  0  0  0  0  0  0
   -5.4317    1.0026   -0.5530 H   0  0  0  0  0  0  0  0  0  0  0  0
   -6.3707    0.3177    1.8523 H   0  0  0  0  0  0  0  0  0  0  0  0
   -5.4699    0.1667    3.3343 H   0  0  0  0  0  0  0  0  0  0  0  0
   -4.8354    2.5005    3.4174 H   0  0  0  0  0  0  0  0  0  0  0  0
   -6.5582    2.2006    3.3409 H   0  0  0  0  0  0  0  0  0  0  0  0
   -5.9921    4.1705    2.2675 H   0  0  0  0  0  0  0  0  0  0  0  0
   -4.8405    3.4260    1.1488 H   0  0  0  0  0  0  0  0  0  0  0  0
   -6.0793    4.6696   -1.7834 H   0  0  0  0  0  0  0  0  0  0  0  0
   -6.0501    5.4479   -0.1422 H   0  0  0  0  0  0  0  0  0  0  0  0
   -8.3063    3.1825   -2.0658 H   0  0  0  0  0  0  0  0  0  0  0  0
   -9.1026    2.6740   -0.5056 H   0  0  0  0  0  0  0  0  0  0  0  0
   -4.2968   -2.7652   -1.6076 H   0  0  0  0  0  0  0  0  0  0  0  0
   -5.0935   -1.1818   -1.2005 H   0  0  0  0  0  0  0  0  0  0  0  0
   -3.3320   -1.2882   -1.3245 H   0  0  0  0  0  0  0  0  0  0  0  0
   -5.5791   -4.3976   -0.7135 H   0  0  0  0  0  0  0  0  0  0  0  0
   -5.1922   -5.4321    0.6466 H   0  0  0  0  0  0  0  0  0  0  0  0
   -6.2072   -5.1251    3.0020 H   0  0  0  0  0  0  0  0  0  0  0  0
   -8.1311   -3.7622    3.9867 H   0  0  0  0  0  0  0  0  0  0  0  0
   -7.0727   -2.1924   -0.9620 H   0  0  0  0  0  0  0  0  0  0  0  0
   -8.8263   -0.4857   -0.8969 H   0  0  0  0  0  0  0  0  0  0  0  0
  -10.1856   -0.2541    1.1476 H   0  0  0  0  0  0  0  0  0  0  0  0
   -9.7538   -1.7211    3.1399 H   0  0  0  0  0  0  0  0  0  0  0  0
    9.9926    0.8185   -0.4634 H   0  0  0  0  0  0  0  0  0  0  0  0
   12.4095   -0.9432   -2.4396 H   0  0  0  0  0  0  0  0  0  0  0  0
   11.3277    0.3031   -3.1849 H   0  0  0  0  0  0  0  0  0  0  0  0
   11.9544    0.6078   -1.5457 H   0  0  0  0  0  0  0  0  0  0  0  0
  1  2  1  0
  2  3  1  0
  3  4  1  0
  4  5  1  0
  5  6  1  0
  6  7  2  0
  6  8  1  0
  8  9  1  0
  9 10  1  0
 10 11  1  0
 11 12  2  0
 11 13  1  0
 13 14  1  0
 14 15  1  0
 15 16  1  0
 16 17  1  0
 17 18  1  0
 18 19  1  0
 19 20  2  0
 19 21  1  0
 18 22  1  0
 22 23  1  0
 22 24  1  0
 24 25  2  0
 24 26  1  0
 26 27  1  0
 27 28  1  0
 28 29  2  0
 28 30  1  0
 30 31  1  0
 31 32  1  0
 32 33  2  0
 32 34  1  0
 34 35  1  0
 35 36  1  0
 36 37  2  0
 36 38  1  0
 38 39  1  0
 39 40  1  0
 40 41  2  0
 38 42  1  0
 42 43  1  0
 43 44  1  0
 44 45  1  0
 45 46  2  0
 46 47  1  0
 35 48  1  0
 34 49  1  0
 49 50  1  0
 50 51  2  0
 51 52  1  0
 52 53  2  0
 53 54  1  0
 54 55  2  0
 54 56  1  0
 56 57  2  0
 57 58  1  0
 58 59  2  0
 31 60  1  0
 30 61  1  0
 61 62  1  0
 62 63  1  0
 63 64  1  0
 64 65  2  3
 65 66  1  0
 65 67  1  0
 27 68  1  0
 26 69  1  0
 69 70  1  0
 70 71  2  0
 71 72  1  0
 72 73  1  0
 73 74  2  0
 74 75  1  0
 75 76  2  0
 76 77  1  0
 77 78  2  0
  5 79  1  0
 79 80  1  0
 80 81  2  0
 80 82  1  0
 40  9  1  0
 47 43  2  0
 55 50  1  0
 74 70  1  0
 59 53  1  0
 78 73  1  0
  1 83  1  0
  1 84  1  0
  1 85  1  0
  2 86  1  0
  2 87  1  0
  3 88  1  0
  3 89  1  0
  4 90  1  0
  4 91  1  0
  5 92  1  1
  8 93  1  0
  9 94  1  6
 10 95  1  0
 10 96  1  0
 13 97  1  0
 14 98  1  0
 14 99  1  0
 15100  1  0
 15101  1  0
 16102  1  0
 16103  1  0
 17104  1  0
 17105  1  0
 18106  1  6
 21107  1  0
 21108  1  0
 23109  1  0
 23110  1  0
 23111  1  0
 26112  1  1
 30113  1  1
 34114  1  6
 38115  1  1
 39116  1  0
 42117  1  0
 42118  1  0
 44119  1  0
 45120  1  0
 47121  1  0
 48122  1  0
 48123  1  0
 48124  1  0
 49125  1  0
 49126  1  0
 51127  1  0
 52128  1  0
 55129  1  0
 56130  1  0
 57131  1  0
 58132  1  0
 59133  1  0
 60134  1  0
 60135  1  0
 60136  1  0
 61137  1  0
 61138  1  0
 62139  1  0
 62140  1  0
 63141  1  0
 63142  1  0
 66143  1  0
 66144  1  0
 67145  1  0
 67146  1  0
 68147  1  0
 68148  1  0
 68149  1  0
 69150  1  0
 69151  1  0
 71152  1  0
 72153  1  0
 75154  1  0
 76155  1  0
 77156  1  0
 78157  1  0
 79158  1  0
 82159  1  0
 82160  1  0
 82161  1  0
M  END
>  <Ligand ID>  (1) 
LIG0001801

>  <Ligand>  (1) 
CHEMBL3601427

>  <SMILES>  (1) 
CCCC[C@H](C(=O)N[C@H]1CC(=O)NCCCC[C@@H](C(=O)N)N(C)C(=O)[C@@H](N(C(=O)[C@@H](N(C(=O)[C@H](N(C(=O)[C@@H](NC1=O)Cc1[nH]cnc1)C)Cc1ccc2c(c1)cccc2)C)CCCN=C(N)N)C)Cc1c[nH]c2c1cccc2)NC(=O)C

>  <CID>  (1) 
122184909.0

>  <ChEMBL ID>  (1) 
nan

>  <InChiKey>  (1) 
UGCVFPDHWYSLQL-UKBISLOHSA-N

>  <InChi>  (1) 
InChI=1S/C58H79N15O9/c1-7-8-19-43(67-35(2)74)52(77)68-44-31-50(75)63-25-14-13-21-46(51(59)76)70(3)57(82)49(29-39-32-65-42-20-12-11-18-41(39)42)73(6)55(80)47(22-15-26-64-58(60)61)71(4)56(81)48(28-36-23-24-37-16-9-10-17-38(37)27-36)72(5)54(79)45(69-53(44)78)30-40-33-62-34-66-40/h9-12,16-18,20,23-24,27,32-34,43-49,65H,7-8,13-15,19,21-22,25-26,28-31H2,1-6H3,(H2,59,76)(H,62,66)(H,63,75)(H,67,74)(H,68,77)(H,69,78)(H4,60,61,64)/t43-,44+,45+,46+,47+,48-,49+/m1/s1

>  <IUPAC Name>  (1) 
(3S,6S,9R,12S,15S,23S)-15-[[(2R)-2-acetamidohexanoyl]amino]-6-[3-(diaminomethylideneamino)propyl]-12-(1H-imidazol-5-ylmethyl)-3-(1H-indol-3-ylmethyl)-1,4,7,10-tetramethyl-9-(naphthalen-2-ylmethyl)-2,5,8,11,14,17-hexaoxo-1,4,7,10,13,18-hexazacyclotricosane-23-carboxamide

$$$$
