
     RDKit          3D

 60 62  0  0  0  0  0  0  0  0999 V2000
    0.3123   -4.5792    1.4882 C   0  0  0  0  0  0  0  0  0  0  0  0
    0.2412   -3.1708    1.5109 O   0  0  0  0  0  0  0  0  0  0  0  0
    1.2658   -2.4574    0.9095 C   0  0  0  0  0  0  0  0  0  0  0  0
    2.1759   -3.1966    0.3930 O   0  0  0  0  0  0  0  0  0  0  0  0
    1.3242   -1.0041    0.8501 C   0  0  0  0  0  0  0  0  0  0  0  0
    2.3381   -0.3821    0.2066 C   0  0  0  0  0  0  0  0  0  0  0  0
    3.4197   -1.1874   -0.4304 C   0  0  0  0  0  0  0  0  0  0  0  0
    2.3173    1.0044   -0.0654 N   0  0  0  0  0  0  0  0  0  0  0  0
    3.3881    1.7389   -0.7273 C   0  0  0  0  0  0  0  0  0  0  0  0
    3.2519    1.7918   -2.2158 C   0  0  0  0  0  0  0  0  0  0  0  0
    4.3409    2.5812   -2.8466 C   0  0  0  0  0  0  0  0  0  0  0  0
    5.7082    2.1051   -2.6336 C   0  0  0  0  0  0  0  0  0  0  0  0
    6.6420    2.8063   -3.1685 O   0  0  0  0  0  0  0  0  0  0  0  0
    6.1086    1.0051   -1.9349 O   0  0  0  0  0  0  0  0  0  0  0  0
    1.1881    1.8276    0.3184 C   0  0  0  0  0  0  0  0  0  0  0  0
    1.1675    3.0656    0.0827 O   0  0  0  0  0  0  0  0  0  0  0  0
    0.1133    1.1436    0.9735 N   0  0  0  0  0  0  0  0  0  0  0  0
    0.4055   -0.1040    1.5781 C   0  0  0  0  0  0  0  0  0  0  0  0
   -0.5966   -0.7197    2.4420 C   0  0  0  0  0  0  0  0  0  0  0  0
   -0.1809   -1.5313    3.5098 C   0  0  0  0  0  0  0  0  0  0  0  0
   -1.0670   -2.0830    4.4056 C   0  0  0  0  0  0  0  0  0  0  0  0
   -2.4189   -1.8706    4.3080 C   0  0  0  0  0  0  0  0  0  0  0  0
   -2.8557   -1.0766    3.2688 C   0  0  0  0  0  0  0  0  0  0  0  0
   -1.9590   -0.5194    2.3627 C   0  0  0  0  0  0  0  0  0  0  0  0
   -2.5190    0.2581    1.3601 O   0  0  0  0  0  0  0  0  0  0  0  0
   -2.9498   -0.5289   -0.0631 S   0  0  0  0  0  0  0  0  0  0  0  0
   -3.9850   -1.6094    0.2272 O   0  0  0  0  0  0  0  0  0  0  0  0
   -1.7272   -1.1496   -0.6707 O   0  0  0  0  0  0  0  0  0  0  0  0
   -3.6911    0.5117   -1.2532 C   0  0  0  0  0  0  0  0  0  0  0  0
   -3.0862    0.7014   -2.4853 C   0  0  0  0  0  0  0  0  0  0  0  0
   -3.5790    1.4930   -3.4742 C   0  0  0  0  0  0  0  0  0  0  0  0
   -4.7590    2.1640   -3.2631 C   0  0  0  0  0  0  0  0  0  0  0  0
   -5.3874    1.9990   -2.0510 C   0  0  0  0  0  0  0  0  0  0  0  0
   -4.8743    1.1841   -1.0412 C   0  0  0  0  0  0  0  0  0  0  0  0
   -5.5824    1.0632    0.1649 N   0  0  0  0  0  0  0  0  0  0  0  0
   -6.8377    1.2277    0.1097 O   0  0  0  0  0  0  0  0  0  0  0  0
   -5.0649    0.7872    1.3839 O   0  0  0  0  0  0  0  0  0  0  0  0
   -0.4105   -4.9862    2.2255 H   0  0  0  0  0  0  0  0  0  0  0  0
    0.0356   -5.0004    0.4831 H   0  0  0  0  0  0  0  0  0  0  0  0
    1.3126   -4.9659    1.7458 H   0  0  0  0  0  0  0  0  0  0  0  0
    4.1359   -0.5434   -0.9373 H   0  0  0  0  0  0  0  0  0  0  0  0
    3.9428   -1.7702    0.3797 H   0  0  0  0  0  0  0  0  0  0  0  0
    3.0382   -1.8830   -1.2144 H   0  0  0  0  0  0  0  0  0  0  0  0
    4.3554    1.3305   -0.4541 H   0  0  0  0  0  0  0  0  0  0  0  0
    3.3891    2.8129   -0.3495 H   0  0  0  0  0  0  0  0  0  0  0  0
    3.2216    0.7852   -2.6868 H   0  0  0  0  0  0  0  0  0  0  0  0
    2.2860    2.2729   -2.5204 H   0  0  0  0  0  0  0  0  0  0  0  0
    4.1073    2.7141   -3.9478 H   0  0  0  0  0  0  0  0  0  0  0  0
    4.2943    3.6111   -2.3790 H   0  0  0  0  0  0  0  0  0  0  0  0
    6.9611    0.9438   -1.3936 H   0  0  0  0  0  0  0  0  0  0  0  0
   -0.8037    1.6396    0.9488 H   0  0  0  0  0  0  0  0  0  0  0  0
    1.1984    0.2828    2.4231 H   0  0  0  0  0  0  0  0  0  0  0  0
    0.8711   -1.7478    3.6827 H   0  0  0  0  0  0  0  0  0  0  0  0
   -0.7138   -2.7136    5.2297 H   0  0  0  0  0  0  0  0  0  0  0  0
   -3.1006   -2.3030    5.0087 H   0  0  0  0  0  0  0  0  0  0  0  0
   -3.9230   -0.9173    3.2038 H   0  0  0  0  0  0  0  0  0  0  0  0
   -2.1485    0.1813   -2.6801 H   0  0  0  0  0  0  0  0  0  0  0  0
   -3.0899    1.6309   -4.4378 H   0  0  0  0  0  0  0  0  0  0  0  0
   -5.2243    2.8127   -3.9888 H   0  0  0  0  0  0  0  0  0  0  0  0
   -6.3225    2.5239   -1.8707 H   0  0  0  0  0  0  0  0  0  0  0  0
  1  2  1  0
  2  3  1  0
  3  4  2  0
  3  5  1  0
  5  6  2  0
  6  7  1  0
  6  8  1  0
  8  9  1  0
  9 10  1  0
 10 11  1  0
 11 12  1  0
 12 13  2  0
 12 14  1  0
  8 15  1  0
 15 16  2  0
 15 17  1  0
 17 18  1  0
 18 19  1  0
 19 20  2  0
 20 21  1  0
 21 22  2  0
 22 23  1  0
 23 24  2  0
 24 25  1  0
 25 26  1  0
 26 27  2  0
 26 28  2  0
 26 29  1  0
 29 30  2  0
 30 31  1  0
 31 32  2  0
 32 33  1  0
 33 34  2  0
 34 35  1  0
 35 36  2  0
 35 37  1  0
 18  5  1  0
 24 19  1  0
 34 29  1  0
  1 38  1  0
  1 39  1  0
  1 40  1  0
  7 41  1  0
  7 42  1  0
  7 43  1  0
  9 44  1  0
  9 45  1  0
 10 46  1  0
 10 47  1  0
 11 48  1  0
 11 49  1  0
 14 50  1  0
 17 51  1  0
 18 52  1  0
 20 53  1  0
 21 54  1  0
 22 55  1  0
 23 56  1  0
 30 57  1  0
 31 58  1  0
 32 59  1  0
 33 60  1  0
M  CHG  2  35   1  37  -1
M  END
>  <Ligand ID>  (1) 
LIG0003605

>  <Ligand>  (1) 
MLS000562971

>  <SMILES>  (1) 
COC(=O)C1=C(C)N(CCCC(=O)O)C(=O)NC1c1ccccc1OS(=O)(=O)c1ccccc1[N+](=O)[O-]

>  <CID>  (1) 
5461577.0

>  <ChEMBL ID>  (1) 
nan

>  <InChiKey>  (1) 
RLEBFVHVTLQPHV-UHFFFAOYSA-N

>  <InChi>  (1) 
InChI=1S/C23H23N3O10S/c1-14-20(22(29)35-2)21(24-23(30)25(14)13-7-12-19(27)28)15-8-3-5-10-17(15)36-37(33,34)18-11-6-4-9-16(18)26(31)32/h3-6,8-11,21H,7,12-13H2,1-2H3,(H,24,30)(H,27,28)

>  <IUPAC Name>  (1) 
4-[5-methoxycarbonyl-4-methyl-6-[2-(2-nitrophenyl)sulfonyloxyphenyl]-2-oxo-1,6-dihydropyrimidin-3-yl]butanoic acid

$$$$
