
     RDKit          3D

 48 49  0  0  0  0  0  0  0  0999 V2000
   -5.2266    2.3520    1.1853 C   0  0  0  0  0  0  0  0  0  0  0  0
   -5.6488    2.1315   -0.2402 C   0  0  0  0  0  0  0  0  0  0  0  0
   -4.4202    2.1679   -1.1355 C   0  0  0  0  0  0  0  0  0  0  0  0
   -3.4698    1.1056   -0.7351 C   0  0  0  0  0  0  0  0  0  0  0  0
   -3.5082   -0.1573   -1.2677 C   0  0  0  0  0  0  0  0  0  0  0  0
   -2.5882   -1.1286   -0.8575 C   0  0  0  0  0  0  0  0  0  0  0  0
   -2.7045   -2.2490   -1.4011 O   0  0  0  0  0  0  0  0  0  0  0  0
   -1.6428   -0.8606    0.0646 N   0  0  0  0  0  0  0  0  0  0  0  0
   -1.6282    0.3938    0.5734 C   0  0  0  0  0  0  0  0  0  0  0  0
   -0.7391    0.6592    1.4459 O   0  0  0  0  0  0  0  0  0  0  0  0
   -2.5058    1.3421    0.1908 N   0  0  0  0  0  0  0  0  0  0  0  0
   -0.7113   -1.8622    0.4728 C   0  0  2  0  0  0  0  0  0  0  0  0
    0.1290   -1.3643    1.4634 O   0  0  0  0  0  0  0  0  0  0  0  0
    1.3888   -1.8760    1.2818 C   0  0  1  0  0  0  0  0  0  0  0  0
    1.2649   -2.9936    0.2672 C   0  0  2  0  0  0  0  0  0  0  0  0
    0.1890   -2.3746   -0.6295 C   0  0  1  0  0  0  0  0  0  0  0  0
   -0.3365   -3.4042   -1.3669 O   0  0  0  0  0  0  0  0  0  0  0  0
    0.7266   -4.0937    0.9134 O   0  0  0  0  0  0  0  0  0  0  0  0
    2.3824   -0.8650    0.7258 C   0  0  0  0  0  0  0  0  0  0  0  0
    3.6432   -1.4345    0.5606 O   0  0  0  0  0  0  0  0  0  0  0  0
    4.7594   -0.3341   -0.0541 P   0  0  0  0  0  0  0  0  0  0  0  0
    5.2730   -0.9404   -1.3609 O   0  0  0  0  0  0  0  0  0  0  0  0
    4.1150    1.1981   -0.3071 O   0  0  0  0  0  0  0  0  0  0  0  0
    5.2999    2.3959   -0.2744 P   0  0  0  0  0  0  0  0  0  0  0  0
    5.3196    3.0396   -1.6405 O   0  0  0  0  0  0  0  0  0  0  0  0
    6.8380    1.7447   -0.0094 O   0  0  0  0  0  0  0  0  0  0  0  0
    5.0061    3.5688    0.9038 O   0  0  0  0  0  0  0  0  0  0  0  0
    6.0523   -0.2544    1.0333 O   0  0  0  0  0  0  0  0  0  0  0  0
   -4.5300    1.5656    1.5175 H   0  0  0  0  0  0  0  0  0  0  0  0
   -6.1265    2.2849    1.8434 H   0  0  0  0  0  0  0  0  0  0  0  0
   -4.7812    3.3517    1.3180 H   0  0  0  0  0  0  0  0  0  0  0  0
   -6.3928    2.8695   -0.5535 H   0  0  0  0  0  0  0  0  0  0  0  0
   -6.0789    1.1149   -0.3468 H   0  0  0  0  0  0  0  0  0  0  0  0
   -4.7035    2.1159   -2.2053 H   0  0  0  0  0  0  0  0  0  0  0  0
   -3.9371    3.1626   -1.0049 H   0  0  0  0  0  0  0  0  0  0  0  0
   -4.2519   -0.3809   -1.9983 H   0  0  0  0  0  0  0  0  0  0  0  0
   -2.4029    2.2820    0.6513 H   0  0  0  0  0  0  0  0  0  0  0  0
   -1.2143   -2.7463    0.9150 H   0  0  0  0  0  0  0  0  0  0  0  0
    1.8005   -2.2413    2.2475 H   0  0  0  0  0  0  0  0  0  0  0  0
    2.1834   -3.2008   -0.2778 H   0  0  0  0  0  0  0  0  0  0  0  0
    0.6089   -1.5554   -1.2165 H   0  0  0  0  0  0  0  0  0  0  0  0
    0.2873   -4.1500   -1.5026 H   0  0  0  0  0  0  0  0  0  0  0  0
    0.5176   -3.9043    1.8725 H   0  0  0  0  0  0  0  0  0  0  0  0
    2.0536   -0.4786   -0.2602 H   0  0  0  0  0  0  0  0  0  0  0  0
    2.5289   -0.0026    1.4001 H   0  0  0  0  0  0  0  0  0  0  0  0
    7.1923    1.3631   -0.8735 H   0  0  0  0  0  0  0  0  0  0  0  0
    4.1411    3.3525    1.3454 H   0  0  0  0  0  0  0  0  0  0  0  0
    5.8483   -0.7095    1.8874 H   0  0  0  0  0  0  0  0  0  0  0  0
  1  2  1  0
  2  3  1  0
  3  4  1  0
  4  5  2  0
  5  6  1  0
  6  7  2  0
  6  8  1  0
  8  9  1  0
  9 10  2  0
  9 11  1  0
  8 12  1  0
 12 13  1  0
 13 14  1  0
 14 15  1  0
 15 16  1  0
 16 17  1  0
 15 18  1  0
 14 19  1  0
 19 20  1  0
 20 21  1  0
 21 22  2  0
 21 23  1  0
 23 24  1  0
 24 25  2  0
 24 26  1  0
 24 27  1  0
 21 28  1  0
 11  4  1  0
 16 12  1  0
  1 29  1  0
  1 30  1  0
  1 31  1  0
  2 32  1  0
  2 33  1  0
  3 34  1  0
  3 35  1  0
  5 36  1  0
 11 37  1  0
 12 38  1  1
 14 39  1  1
 15 40  1  6
 16 41  1  6
 17 42  1  0
 18 43  1  0
 19 44  1  0
 19 45  1  0
 26 46  1  0
 27 47  1  0
 28 48  1  0
M  END
>  <Ligand ID>  (1) 
LIG0004179

>  <Ligand>  (1) 
CHEMBL385506

>  <SMILES>  (1) 
CCCc1cc(=O)n(c(=O)[nH]1)[C@@H]1O[C@@H]([C@H]([C@H]1O)O)COP(=O)(OP(=O)(O)O)O

>  <CID>  (1) 
11994013.0

>  <ChEMBL ID>  (1) 
nan

>  <InChiKey>  (1) 
LNRVNOYVTJQVGH-QCNRFFRDSA-N

>  <InChi>  (1) 
InChI=1S/C12H20N2O12P2/c1-2-3-6-4-8(15)14(12(18)13-6)11-10(17)9(16)7(25-11)5-24-28(22,23)26-27(19,20)21/h4,7,9-11,16-17H,2-3,5H2,1H3,(H,13,18)(H,22,23)(H2,19,20,21)/t7-,9-,10-,11-/m1/s1

>  <IUPAC Name>  (1) 
[(2R,3S,4R,5R)-5-(2,4-dioxo-6-propyl-1H-pyrimidin-3-yl)-3,4-dihydroxyoxolan-2-yl]methyl phosphono hydrogen phosphate

$$$$
