
     RDKit          3D

 73 77  0  0  0  0  0  0  0  0999 V2000
   -8.1055    2.0997    0.6667 C   0  0  0  0  0  0  0  0  0  0  0  0
   -6.9637    1.2771    0.7898 O   0  0  0  0  0  0  0  0  0  0  0  0
   -5.6897    1.7883    0.9694 C   0  0  0  0  0  0  0  0  0  0  0  0
   -5.5546    3.1593    1.0289 C   0  0  0  0  0  0  0  0  0  0  0  0
   -4.2929    3.6826    1.2094 C   0  0  0  0  0  0  0  0  0  0  0  0
   -3.2267    2.8294    1.3224 C   0  0  0  0  0  0  0  0  0  0  0  0
   -3.3588    1.4648    1.2628 C   0  0  0  0  0  0  0  0  0  0  0  0
   -4.6169    0.9348    1.0826 C   0  0  0  0  0  0  0  0  0  0  0  0
   -4.5343   -0.4027    1.0664 N   0  0  0  0  0  0  0  0  0  0  0  0
   -5.5376   -1.4169    0.8908 C   0  0  0  0  0  0  0  0  0  0  0  0
   -5.7246   -1.8556   -0.5057 C   0  0  0  0  0  0  0  0  0  0  0  0
   -6.6849   -1.3887   -1.3636 C   0  0  0  0  0  0  0  0  0  0  0  0
   -6.8010   -1.8421   -2.6761 C   0  0  0  0  0  0  0  0  0  0  0  0
   -5.9246   -2.7950   -3.1407 C   0  0  0  0  0  0  0  0  0  0  0  0
   -4.9449   -3.2862   -2.2999 C   0  0  0  0  0  0  0  0  0  0  0  0
   -4.8547   -2.8172   -1.0042 C   0  0  0  0  0  0  0  0  0  0  0  0
   -3.2172   -0.7221    1.2382 C   0  0  0  0  0  0  0  0  0  0  0  0
   -2.4638    0.4271    1.3621 C   0  0  0  0  0  0  0  0  0  0  0  0
   -0.9916    0.4327    1.5286 C   0  0  0  0  0  0  0  0  0  0  0  0
   -0.2143    0.6234    0.2823 C   0  0  2  0  0  0  0  0  0  0  0  0
    1.2113    0.6152    0.5950 N   0  0  0  0  0  0  0  0  0  0  0  0
    1.6835   -0.6084    1.1625 C   0  0  0  0  0  0  0  0  0  0  0  0
    3.1916   -0.4366    1.3853 C   0  0  1  0  0  0  0  0  0  0  0  0
    3.9162   -0.1427    0.1299 C   0  0  0  0  0  0  0  0  0  0  0  0
    3.8686    1.0593   -0.5300 C   0  0  0  0  0  0  0  0  0  0  0  0
    4.5642    1.2917   -1.7000 C   0  0  0  0  0  0  0  0  0  0  0  0
    5.3428    0.2917   -2.2438 C   0  0  0  0  0  0  0  0  0  0  0  0
    5.4163   -0.9293   -1.6105 C   0  0  0  0  0  0  0  0  0  0  0  0
    4.7049   -1.1371   -0.4324 C   0  0  0  0  0  0  0  0  0  0  0  0
    6.2310   -1.9700   -2.1806 N   0  0  0  0  0  0  0  0  0  0  0  0
    7.8004   -1.6067   -2.7413 S   0  0  0  0  0  0  0  0  0  0  0  0
    7.7455   -0.6444   -3.8893 O   0  0  0  0  0  0  0  0  0  0  0  0
    8.4103   -2.8832   -3.3041 O   0  0  0  0  0  0  0  0  0  0  0  0
    8.8106   -1.0364   -1.4960 C   0  0  0  0  0  0  0  0  0  0  0  0
    8.5590   -0.8402   -0.1815 C   0  0  0  0  0  0  0  0  0  0  0  0
    9.5054   -0.3777    0.6407 C   0  0  0  0  0  0  0  0  0  0  0  0
   10.7576   -0.1161    0.0457 C   0  0  0  0  0  0  0  0  0  0  0  0
   10.5147   -0.5610   -1.7313 S   0  0  0  0  0  0  0  0  0  0  0  0
    3.3539    0.6433    2.2478 O   0  0  0  0  0  0  0  0  0  0  0  0
   -0.4966    1.9491   -0.3761 C   0  0  0  0  0  0  0  0  0  0  0  0
   -8.9826    1.4538    0.5397 H   0  0  0  0  0  0  0  0  0  0  0  0
   -7.9587    2.6701   -0.2917 H   0  0  0  0  0  0  0  0  0  0  0  0
   -8.1997    2.8097    1.5276 H   0  0  0  0  0  0  0  0  0  0  0  0
   -6.3678    3.8420    0.9440 H   0  0  0  0  0  0  0  0  0  0  0  0
   -4.1135    4.7578    1.2656 H   0  0  0  0  0  0  0  0  0  0  0  0
   -2.2600    3.2441    1.4714 H   0  0  0  0  0  0  0  0  0  0  0  0
   -6.5394   -1.1075    1.2578 H   0  0  0  0  0  0  0  0  0  0  0  0
   -5.2683   -2.3177    1.4761 H   0  0  0  0  0  0  0  0  0  0  0  0
   -7.3943   -0.6481   -1.0438 H   0  0  0  0  0  0  0  0  0  0  0  0
   -7.5599   -1.4691   -3.3477 H   0  0  0  0  0  0  0  0  0  0  0  0
   -5.9597   -3.1893   -4.1462 H   0  0  0  0  0  0  0  0  0  0  0  0
   -4.2355   -4.0349   -2.6226 H   0  0  0  0  0  0  0  0  0  0  0  0
   -4.0880   -3.2092   -0.3658 H   0  0  0  0  0  0  0  0  0  0  0  0
   -2.8037   -1.7350    1.2745 H   0  0  0  0  0  0  0  0  0  0  0  0
   -0.7079   -0.5266    2.0513 H   0  0  0  0  0  0  0  0  0  0  0  0
   -0.6723    1.2324    2.2554 H   0  0  0  0  0  0  0  0  0  0  0  0
   -0.4329   -0.1560   -0.4882 H   0  0  0  0  0  0  0  0  0  0  0  0
    1.4301    1.3872    1.2882 H   0  0  0  0  0  0  0  0  0  0  0  0
    1.5515   -1.4348    0.4106 H   0  0  0  0  0  0  0  0  0  0  0  0
    1.2450   -0.8855    2.1198 H   0  0  0  0  0  0  0  0  0  0  0  0
    3.5668   -1.3825    1.8366 H   0  0  0  0  0  0  0  0  0  0  0  0
    3.2808    1.8577   -0.1431 H   0  0  0  0  0  0  0  0  0  0  0  0
    4.4948    2.2578   -2.1853 H   0  0  0  0  0  0  0  0  0  0  0  0
    5.8633    0.5312   -3.1599 H   0  0  0  0  0  0  0  0  0  0  0  0
    4.8045   -2.1201    0.0170 H   0  0  0  0  0  0  0  0  0  0  0  0
    5.7992   -2.9372   -2.2224 H   0  0  0  0  0  0  0  0  0  0  0  0
    7.5289   -1.0741    0.2162 H   0  0  0  0  0  0  0  0  0  0  0  0
    9.4000   -0.1876    1.7143 H   0  0  0  0  0  0  0  0  0  0  0  0
   11.7061    0.2624    0.4617 H   0  0  0  0  0  0  0  0  0  0  0  0
    3.0403    0.4174    3.1551 H   0  0  0  0  0  0  0  0  0  0  0  0
   -1.5058    2.0283   -0.8203 H   0  0  0  0  0  0  0  0  0  0  0  0
   -0.2538    2.8021    0.3008 H   0  0  0  0  0  0  0  0  0  0  0  0
    0.2036    2.1083   -1.2572 H   0  0  0  0  0  0  0  0  0  0  0  0
  1  2  1  0
  2  3  1  0
  3  4  2  0
  4  5  1  0
  5  6  2  0
  6  7  1  0
  7  8  2  0
  8  9  1  0
  9 10  1  0
 10 11  1  0
 11 12  2  0
 12 13  1  0
 13 14  2  0
 14 15  1  0
 15 16  2  0
  9 17  1  0
 17 18  2  0
 18 19  1  0
 19 20  1  0
 20 21  1  0
 21 22  1  0
 22 23  1  0
 23 24  1  0
 24 25  2  0
 25 26  1  0
 26 27  2  0
 27 28  1  0
 28 29  2  0
 28 30  1  0
 30 31  1  0
 31 32  2  0
 31 33  2  0
 31 34  1  0
 34 35  2  0
 35 36  1  0
 36 37  2  0
 37 38  1  0
 23 39  1  0
 20 40  1  0
  8  3  1  0
 16 11  1  0
 29 24  1  0
 38 34  1  0
 18  7  1  0
  1 41  1  0
  1 42  1  0
  1 43  1  0
  4 44  1  0
  5 45  1  0
  6 46  1  0
 10 47  1  0
 10 48  1  0
 12 49  1  0
 13 50  1  0
 14 51  1  0
 15 52  1  0
 16 53  1  0
 17 54  1  0
 19 55  1  0
 19 56  1  0
 20 57  1  6
 21 58  1  0
 22 59  1  0
 22 60  1  0
 23 61  1  1
 25 62  1  0
 26 63  1  0
 27 64  1  0
 29 65  1  0
 30 66  1  0
 35 67  1  0
 36 68  1  0
 37 69  1  0
 39 70  1  0
 40 71  1  0
 40 72  1  0
 40 73  1  0
M  END
>  <Ligand ID>  (1) 
LIG0002208

>  <Ligand>  (1) 
CHEMBL2260988

>  <SMILES>  (1) 
COc1cccc2c1n(Cc1ccccc1)cc2C[C@H](NC[C@@H](c1cccc(c1)NS(=O)(=O)c1cccs1)O)C

>  <CID>  (1) 
76315640.0

>  <ChEMBL ID>  (1) 
nan

>  <InChiKey>  (1) 
WDBAGEJAANHUNF-DFHRPNOPSA-N

>  <InChi>  (1) 
InChI=1S/C31H33N3O4S2/c1-22(32-19-28(35)24-11-6-12-26(18-24)33-40(36,37)30-15-8-16-39-30)17-25-21-34(20-23-9-4-3-5-10-23)31-27(25)13-7-14-29(31)38-2/h3-16,18,21-22,28,32-33,35H,17,19-20H2,1-2H3/t22-,28+/m1/s1

>  <IUPAC Name>  (1) 
N-[3-[(1R)-2-[[(2R)-1-(1-benzyl-7-methoxyindol-3-yl)propan-2-yl]amino]-1-hydroxyethyl]phenyl]thiophene-2-sulfonamide

$$$$
