
     RDKit          3D

 56 55  0  0  0  0  0  0  0  0999 V2000
    7.8711    0.4041   -1.1662 C   0  0  0  0  0  0  0  0  0  0  0  0
    7.8070   -0.7072   -0.1667 C   0  0  0  0  0  0  0  0  0  0  0  0
    6.7291   -0.5388    0.8179 C   0  0  0  0  0  0  0  0  0  0  0  0
    5.3050   -0.5566    0.4043 C   0  0  0  0  0  0  0  0  0  0  0  0
    4.8128    0.4371   -0.5455 C   0  0  0  0  0  0  0  0  0  0  0  0
    3.4136    0.3701   -0.9827 C   0  0  0  0  0  0  0  0  0  0  0  0
    2.2583    0.4431   -0.0799 C   0  0  0  0  0  0  0  0  0  0  0  0
    1.9832   -0.6184    0.9036 C   0  0  0  0  0  0  0  0  0  0  0  0
    0.7566   -0.2633    1.7229 C   0  0  0  0  0  0  0  0  0  0  0  0
   -0.4420   -0.1485    0.8302 C   0  0  0  0  0  0  0  0  0  0  0  0
   -1.6914    0.1588    1.6347 C   0  0  0  0  0  0  0  0  0  0  0  0
   -2.8624    0.3231    0.6864 C   0  0  0  0  0  0  0  0  0  0  0  0
   -3.1258   -0.9014   -0.1045 C   0  0  0  0  0  0  0  0  0  0  0  0
   -4.2452   -0.9000   -1.0733 C   0  0  0  0  0  0  0  0  0  0  0  0
   -5.6385   -0.7481   -0.6750 C   0  0  0  0  0  0  0  0  0  0  0  0
   -6.1381    0.4468    0.0335 C   0  0  0  0  0  0  0  0  0  0  0  0
   -7.6750    0.2202    0.1934 C   0  0  0  0  0  0  0  0  0  0  0  0
   -8.3268    0.1042   -1.1168 C   0  0  0  0  0  0  0  0  0  0  0  0
   -8.1521    1.0605   -1.9594 O   0  0  0  0  0  0  0  0  0  0  0  0
   -9.1155   -1.0108   -1.4446 O   0  0  0  0  0  0  0  0  0  0  0  0
    7.3534    1.2963   -0.8036 H   0  0  0  0  0  0  0  0  0  0  0  0
    8.9594    0.7294   -1.2210 H   0  0  0  0  0  0  0  0  0  0  0  0
    7.5673    0.1103   -2.2031 H   0  0  0  0  0  0  0  0  0  0  0  0
    8.7884   -0.7425    0.4136 H   0  0  0  0  0  0  0  0  0  0  0  0
    7.7711   -1.7145   -0.6643 H   0  0  0  0  0  0  0  0  0  0  0  0
    6.8116   -1.3342    1.6347 H   0  0  0  0  0  0  0  0  0  0  0  0
    6.8722    0.4103    1.4255 H   0  0  0  0  0  0  0  0  0  0  0  0
    4.7708   -0.3233    1.4067 H   0  0  0  0  0  0  0  0  0  0  0  0
    5.0357   -1.5765    0.0859 H   0  0  0  0  0  0  0  0  0  0  0  0
    5.4025    0.3396   -1.5353 H   0  0  0  0  0  0  0  0  0  0  0  0
    5.0478    1.4978   -0.2206 H   0  0  0  0  0  0  0  0  0  0  0  0
    3.2828    1.2698   -1.6968 H   0  0  0  0  0  0  0  0  0  0  0  0
    3.2896   -0.4837   -1.7342 H   0  0  0  0  0  0  0  0  0  0  0  0
    2.2460    1.4229    0.5105 H   0  0  0  0  0  0  0  0  0  0  0  0
    1.2987    0.5518   -0.7030 H   0  0  0  0  0  0  0  0  0  0  0  0
    2.7858   -0.9929    1.5317 H   0  0  0  0  0  0  0  0  0  0  0  0
    1.6425   -1.5921    0.3607 H   0  0  0  0  0  0  0  0  0  0  0  0
    0.6015   -0.9457    2.5670 H   0  0  0  0  0  0  0  0  0  0  0  0
    0.9674    0.7718    2.1347 H   0  0  0  0  0  0  0  0  0  0  0  0
   -0.5997   -1.1554    0.3536 H   0  0  0  0  0  0  0  0  0  0  0  0
   -0.3937    0.6367    0.0574 H   0  0  0  0  0  0  0  0  0  0  0  0
   -1.5481    1.0337    2.2766 H   0  0  0  0  0  0  0  0  0  0  0  0
   -1.9012   -0.7560    2.2413 H   0  0  0  0  0  0  0  0  0  0  0  0
   -2.5607    1.1953    0.0270 H   0  0  0  0  0  0  0  0  0  0  0  0
   -3.6898    0.6879    1.3261 H   0  0  0  0  0  0  0  0  0  0  0  0
   -3.1781   -1.8231    0.5384 H   0  0  0  0  0  0  0  0  0  0  0  0
   -2.1622   -1.0911   -0.6957 H   0  0  0  0  0  0  0  0  0  0  0  0
   -4.1805   -1.9273   -1.5958 H   0  0  0  0  0  0  0  0  0  0  0  0
   -4.0063   -0.1988   -1.9487 H   0  0  0  0  0  0  0  0  0  0  0  0
   -6.2528   -0.8035   -1.6447 H   0  0  0  0  0  0  0  0  0  0  0  0
   -5.9534   -1.6347   -0.0440 H   0  0  0  0  0  0  0  0  0  0  0  0
   -5.8339    0.5201    1.1109 H   0  0  0  0  0  0  0  0  0  0  0  0
   -6.0511    1.3866   -0.5178 H   0  0  0  0  0  0  0  0  0  0  0  0
   -7.8502   -0.6566    0.8300 H   0  0  0  0  0  0  0  0  0  0  0  0
   -8.0346    1.1600    0.6782 H   0  0  0  0  0  0  0  0  0  0  0  0
   -9.8220   -0.9428   -2.1939 H   0  0  0  0  0  0  0  0  0  0  0  0
  1  2  1  0
  2  3  1  0
  3  4  1  0
  4  5  1  0
  5  6  1  0
  6  7  1  0
  7  8  1  0
  8  9  1  0
  9 10  1  0
 10 11  1  0
 11 12  1  0
 12 13  1  0
 13 14  1  0
 14 15  1  0
 15 16  1  0
 16 17  1  0
 17 18  1  0
 18 19  2  0
 18 20  1  0
  1 21  1  0
  1 22  1  0
  1 23  1  0
  2 24  1  0
  2 25  1  0
  3 26  1  0
  3 27  1  0
  4 28  1  0
  4 29  1  0
  5 30  1  0
  5 31  1  0
  6 32  1  0
  6 33  1  0
  7 34  1  0
  7 35  1  0
  8 36  1  0
  8 37  1  0
  9 38  1  0
  9 39  1  0
 10 40  1  0
 10 41  1  0
 11 42  1  0
 11 43  1  0
 12 44  1  0
 12 45  1  0
 13 46  1  0
 13 47  1  0
 14 48  1  0
 14 49  1  0
 15 50  1  0
 15 51  1  0
 16 52  1  0
 16 53  1  0
 17 54  1  0
 17 55  1  0
 20 56  1  0
M  END
>  <Ligand ID>  (1) 
LIG0000626

>  <Ligand>  (1) 
Stearic Acid

>  <SMILES>  (1) 
CCCCCCCCCCCCCCCCCC(=O)O

>  <CID>  (1) 
5281.0

>  <ChEMBL ID>  (1) 
nan

>  <InChiKey>  (1) 
QIQXTHQIDYTFRH-UHFFFAOYSA-N

>  <InChi>  (1) 
InChI=1S/C18H36O2/c1-2-3-4-5-6-7-8-9-10-11-12-13-14-15-16-17-18(19)20/h2-17H2,1H3,(H,19,20)

>  <IUPAC Name>  (1) 
octadecanoic acid

$$$$
