
     RDKit          3D

140142  0  0  0  0  0  0  0  0999 V2000
   11.7408   -0.1461    0.1057 N   0  0  0  0  0  0  0  0  0  0  0  0
   10.8430   -1.2527   -0.0331 C   0  0  0  0  0  0  0  0  0  0  0  0
   10.0577   -1.4153    1.2405 C   0  0  0  0  0  0  0  0  0  0  0  0
    9.2047   -0.2798    1.6383 C   0  0  0  0  0  0  0  0  0  0  0  0
    8.1003    0.1305    0.7391 C   0  0  1  0  0  0  0  0  0  0  0  0
    8.4436    0.5752   -0.6102 C   0  0  0  0  0  0  0  0  0  0  0  0
    7.8566   -0.0094   -1.5898 O   0  0  0  0  0  0  0  0  0  0  0  0
    9.3630    1.5965   -0.9432 N   0  0  0  0  0  0  0  0  0  0  0  0
    9.5716    1.9026   -2.3318 C   0  0  0  0  0  0  0  0  0  0  0  0
   10.5804    3.0091   -2.4090 C   0  0  0  0  0  0  0  0  0  0  0  0
   11.0599    3.4691   -1.3168 O   0  0  0  0  0  0  0  0  0  0  0  0
   10.9991    3.5408   -3.6582 N   0  0  0  0  0  0  0  0  0  0  0  0
    7.0562   -0.9222    0.6875 N   0  0  0  0  0  0  0  0  0  0  0  0
    5.7577   -0.6660    1.1590 C   0  0  0  0  0  0  0  0  0  0  0  0
    5.4807    0.4984    1.6319 O   0  0  0  0  0  0  0  0  0  0  0  0
    4.6401   -1.6292    1.1684 C   0  0  2  0  0  0  0  0  0  0  0  0
    5.1505   -3.0124    0.8945 C   0  0  0  0  0  0  0  0  0  0  0  0
    5.0447   -3.1575   -0.5872 C   0  0  0  0  0  0  0  0  0  0  0  0
    4.2473   -1.9962   -1.1239 C   0  0  0  0  0  0  0  0  0  0  0  0
    3.7066   -1.3852    0.0910 N   0  0  0  0  0  0  0  0  0  0  0  0
    2.4855   -0.6568    0.0717 C   0  0  0  0  0  0  0  0  0  0  0  0
    1.9269   -0.5545   -1.0684 O   0  0  0  0  0  0  0  0  0  0  0  0
    1.8954   -0.0416    1.3023 C   0  0  2  0  0  0  0  0  0  0  0  0
    0.9373   -0.9217    2.0376 C   0  0  0  0  0  0  0  0  0  0  0  0
    1.4039   -2.5988    2.4083 S   0  0  0  0  0  0  0  0  0  0  0  0
    1.7463   -3.6657    0.5615 S   0  0  0  0  0  0  0  0  0  0  0  0
    0.2046   -4.2368   -0.1123 C   0  0  0  0  0  0  0  0  0  0  0  0
   -0.4796   -5.2173    0.8275 C   0  0  2  0  0  0  0  0  0  0  0  0
    0.2749   -6.4247    0.9759 N   0  0  0  0  0  0  0  0  0  0  0  0
   -1.8674   -5.4447    0.2725 C   0  0  0  0  0  0  0  0  0  0  0  0
   -2.2713   -6.4971   -0.1944 O   0  0  0  0  0  0  0  0  0  0  0  0
   -2.8240   -4.3470    0.2838 N   0  0  0  0  0  0  0  0  0  0  0  0
   -4.0717   -4.5869   -0.3826 C   0  0  1  0  0  0  0  0  0  0  0  0
   -5.0621   -5.2321    0.6103 C   0  0  0  0  0  0  0  0  0  0  0  0
   -6.3525   -5.4955   -0.0613 C   0  0  0  0  0  0  0  0  0  0  0  0
   -6.4618   -6.6860   -0.7641 C   0  0  0  0  0  0  0  0  0  0  0  0
   -7.6203   -7.0304   -1.4194 C   0  0  0  0  0  0  0  0  0  0  0  0
   -8.7029   -6.1663   -1.3750 C   0  0  0  0  0  0  0  0  0  0  0  0
   -8.6274   -4.9617   -0.6770 C   0  0  0  0  0  0  0  0  0  0  0  0
   -7.4358   -4.6434   -0.0226 C   0  0  0  0  0  0  0  0  0  0  0  0
   -4.6435   -3.3644   -0.9179 C   0  0  0  0  0  0  0  0  0  0  0  0
   -5.5621   -3.4644   -1.7624 O   0  0  0  0  0  0  0  0  0  0  0  0
   -4.2882   -2.0039   -0.5908 N   0  0  0  0  0  0  0  0  0  0  0  0
   -5.0073   -0.9734   -1.3032 C   0  0  2  0  0  0  0  0  0  0  0  0
   -4.5173    0.3787   -1.3416 C   0  0  0  0  0  0  0  0  0  0  0  0
   -5.0852    1.1354   -2.2256 O   0  0  0  0  0  0  0  0  0  0  0  0
   -3.5297    1.0800   -0.6055 N   0  0  0  0  0  0  0  0  0  0  0  0
   -3.4125    2.5259   -0.9315 C   0  0  2  0  0  0  0  0  0  0  0  0
   -2.0923    3.1120   -0.7693 C   0  0  0  0  0  0  0  0  0  0  0  0
   -1.7860    4.0915   -1.4946 O   0  0  0  0  0  0  0  0  0  0  0  0
   -1.0596    2.7345    0.1373 N   0  0  0  0  0  0  0  0  0  0  0  0
    0.2458    3.3472    0.1852 C   0  0  2  0  0  0  0  0  0  0  0  0
    1.2392    2.3292    0.6170 C   0  0  0  0  0  0  0  0  0  0  0  0
    2.3940    2.6712    0.8907 O   0  0  0  0  0  0  0  0  0  0  0  0
    0.9256    0.9699    0.7232 N   0  0  0  0  0  0  0  0  0  0  0  0
    0.3696    4.4491    1.2238 C   0  0  0  0  0  0  0  0  0  0  0  0
   -0.5643    5.5413    0.9714 C   0  0  0  0  0  0  0  0  0  0  0  0
   -0.3601    6.3120   -0.0021 O   0  0  0  0  0  0  0  0  0  0  0  0
   -1.7043    5.7597    1.8040 N   0  0  0  0  0  0  0  0  0  0  0  0
   -4.3896    3.2230    0.0276 C   0  0  0  0  0  0  0  0  0  0  0  0
   -4.5285    4.6515   -0.0909 C   0  0  0  0  0  0  0  0  0  0  0  0
   -3.9852    5.4047   -0.9427 O   0  0  0  0  0  0  0  0  0  0  0  0
   -5.3802    5.3075    0.8567 N   0  0  0  0  0  0  0  0  0  0  0  0
   -5.6648    6.6967    0.8864 C   0  0  0  0  0  0  0  0  0  0  0  0
   -4.4913    7.6027    1.0397 C   0  0  0  0  0  0  0  0  0  0  0  0
   -5.0607    9.0321    1.0534 C   0  0  0  0  0  0  0  0  0  0  0  0
   -5.9110    9.0559    2.1672 O   0  0  0  0  0  0  0  0  0  0  0  0
   -6.4673   -0.9628   -0.7352 C   0  0  2  0  0  0  0  0  0  0  0  0
   -7.3345    0.0715   -1.3864 C   0  0  0  0  0  0  0  0  0  0  0  0
   -7.5060   -0.0545   -2.8602 C   0  0  0  0  0  0  0  0  0  0  0  0
   -6.4121   -0.6222    0.7478 C   0  0  0  0  0  0  0  0  0  0  0  0
   12.6942   -0.3759   -0.2776 H   0  0  0  0  0  0  0  0  0  0  0  0
   11.7818    0.1268    1.1131 H   0  0  0  0  0  0  0  0  0  0  0  0
   10.2054   -1.1923   -0.9264 H   0  0  0  0  0  0  0  0  0  0  0  0
   11.4864   -2.1687   -0.1940 H   0  0  0  0  0  0  0  0  0  0  0  0
   10.8327   -1.5347    2.0490 H   0  0  0  0  0  0  0  0  0  0  0  0
    9.5336   -2.4029    1.2576 H   0  0  0  0  0  0  0  0  0  0  0  0
    9.8887    0.5737    1.9058 H   0  0  0  0  0  0  0  0  0  0  0  0
    8.7260   -0.5492    2.6251 H   0  0  0  0  0  0  0  0  0  0  0  0
    7.5955    0.9977    1.2363 H   0  0  0  0  0  0  0  0  0  0  0  0
    9.8468    2.0807   -0.1438 H   0  0  0  0  0  0  0  0  0  0  0  0
    8.6367    2.2738   -2.8247 H   0  0  0  0  0  0  0  0  0  0  0  0
   10.0165    1.0289   -2.8286 H   0  0  0  0  0  0  0  0  0  0  0  0
   11.5567    2.9281   -4.3124 H   0  0  0  0  0  0  0  0  0  0  0  0
   10.7695    4.5217   -3.9408 H   0  0  0  0  0  0  0  0  0  0  0  0
    7.3643   -1.8262    0.2795 H   0  0  0  0  0  0  0  0  0  0  0  0
    4.1229   -1.6181    2.1664 H   0  0  0  0  0  0  0  0  0  0  0  0
    6.2328   -3.1434    1.1750 H   0  0  0  0  0  0  0  0  0  0  0  0
    4.5611   -3.7898    1.4446 H   0  0  0  0  0  0  0  0  0  0  0  0
    6.0217   -3.2199   -1.1227 H   0  0  0  0  0  0  0  0  0  0  0  0
    4.5287   -4.1179   -0.8405 H   0  0  0  0  0  0  0  0  0  0  0  0
    4.9621   -1.2363   -1.5431 H   0  0  0  0  0  0  0  0  0  0  0  0
    3.4627   -2.2652   -1.8325 H   0  0  0  0  0  0  0  0  0  0  0  0
    2.6781    0.4134    1.8588 H   0  0  0  0  0  0  0  0  0  0  0  0
    0.6808   -0.4395    3.0403 H   0  0  0  0  0  0  0  0  0  0  0  0
   -0.0547   -0.9195    1.4863 H   0  0  0  0  0  0  0  0  0  0  0  0
    0.4258   -4.7627   -1.0738 H   0  0  0  0  0  0  0  0  0  0  0  0
   -0.4920   -3.3929   -0.3435 H   0  0  0  0  0  0  0  0  0  0  0  0
   -0.6274   -4.7495    1.8119 H   0  0  0  0  0  0  0  0  0  0  0  0
   -0.3172   -7.2513    1.1324 H   0  0  0  0  0  0  0  0  0  0  0  0
    0.9515   -6.3431    1.7547 H   0  0  0  0  0  0  0  0  0  0  0  0
   -2.5068   -3.5199    0.7655 H   0  0  0  0  0  0  0  0  0  0  0  0
   -3.8946   -5.3858   -1.1563 H   0  0  0  0  0  0  0  0  0  0  0  0
   -5.2334   -4.5204    1.4545 H   0  0  0  0  0  0  0  0  0  0  0  0
   -4.6658   -6.1437    1.0669 H   0  0  0  0  0  0  0  0  0  0  0  0
   -5.6435   -7.3914   -0.8326 H   0  0  0  0  0  0  0  0  0  0  0  0
   -7.7515   -7.9469   -1.9788 H   0  0  0  0  0  0  0  0  0  0  0  0
   -9.6092   -6.4379   -1.8883 H   0  0  0  0  0  0  0  0  0  0  0  0
   -9.4469   -4.2652   -0.6171 H   0  0  0  0  0  0  0  0  0  0  0  0
   -7.3220   -3.7413    0.5384 H   0  0  0  0  0  0  0  0  0  0  0  0
   -3.5682   -1.9103    0.1063 H   0  0  0  0  0  0  0  0  0  0  0  0
   -5.2100   -1.4039   -2.3356 H   0  0  0  0  0  0  0  0  0  0  0  0
   -2.9878    0.5783    0.0637 H   0  0  0  0  0  0  0  0  0  0  0  0
   -3.7753    2.6541   -1.9521 H   0  0  0  0  0  0  0  0  0  0  0  0
   -1.3285    1.9890    0.7892 H   0  0  0  0  0  0  0  0  0  0  0  0
    0.5157    3.8509   -0.7684 H   0  0  0  0  0  0  0  0  0  0  0  0
    0.0188    0.6660    0.3808 H   0  0  0  0  0  0  0  0  0  0  0  0
    0.3932    4.0645    2.2639 H   0  0  0  0  0  0  0  0  0  0  0  0
    1.4091    4.8668    1.0470 H   0  0  0  0  0  0  0  0  0  0  0  0
   -2.4704    5.0627    1.9322 H   0  0  0  0  0  0  0  0  0  0  0  0
   -1.7073    6.7071    2.2902 H   0  0  0  0  0  0  0  0  0  0  0  0
   -5.3826    2.7403   -0.0866 H   0  0  0  0  0  0  0  0  0  0  0  0
   -4.0174    2.9727    1.0524 H   0  0  0  0  0  0  0  0  0  0  0  0
   -5.8184    4.6952    1.5902 H   0  0  0  0  0  0  0  0  0  0  0  0
   -6.3129    6.9849    0.0127 H   0  0  0  0  0  0  0  0  0  0  0  0
   -6.3355    6.9114    1.7783 H   0  0  0  0  0  0  0  0  0  0  0  0
   -3.7878    7.4567    0.2047 H   0  0  0  0  0  0  0  0  0  0  0  0
   -3.9361    7.4302    1.9847 H   0  0  0  0  0  0  0  0  0  0  0  0
   -5.7244    9.1026    0.1402 H   0  0  0  0  0  0  0  0  0  0  0  0
   -4.2575    9.7602    1.0713 H   0  0  0  0  0  0  0  0  0  0  0  0
   -5.5569    9.6988    2.8149 H   0  0  0  0  0  0  0  0  0  0  0  0
   -6.9512   -1.9292   -0.8882 H   0  0  0  0  0  0  0  0  0  0  0  0
   -6.9803    1.0869   -1.1310 H   0  0  0  0  0  0  0  0  0  0  0  0
   -8.3488    0.0013   -0.8612 H   0  0  0  0  0  0  0  0  0  0  0  0
   -6.7583   -0.6559   -3.3697 H   0  0  0  0  0  0  0  0  0  0  0  0
   -7.5519    0.9621   -3.3531 H   0  0  0  0  0  0  0  0  0  0  0  0
   -8.5535   -0.4507   -3.0472 H   0  0  0  0  0  0  0  0  0  0  0  0
   -5.5497   -1.0264    1.2703 H   0  0  0  0  0  0  0  0  0  0  0  0
   -7.3085   -1.1082    1.2371 H   0  0  0  0  0  0  0  0  0  0  0  0
   -6.5893    0.4699    0.8805 H   0  0  0  0  0  0  0  0  0  0  0  0
  1  2  1  0
  2  3  1  0
  3  4  1  0
  4  5  1  0
  5  6  1  0
  6  7  2  0
  6  8  1  0
  8  9  1  0
  9 10  1  0
 10 11  2  0
 10 12  1  0
  5 13  1  0
 13 14  1  0
 14 15  2  0
 14 16  1  0
 16 17  1  0
 17 18  1  0
 18 19  1  0
 19 20  1  0
 20 21  1  0
 21 22  2  0
 21 23  1  0
 23 24  1  0
 24 25  1  0
 25 26  1  0
 26 27  1  0
 27 28  1  0
 28 29  1  0
 28 30  1  0
 30 31  2  0
 30 32  1  0
 32 33  1  0
 33 34  1  0
 34 35  1  0
 35 36  2  0
 36 37  1  0
 37 38  2  0
 38 39  1  0
 39 40  2  0
 33 41  1  0
 41 42  2  0
 41 43  1  0
 43 44  1  0
 44 45  1  0
 45 46  2  0
 45 47  1  0
 47 48  1  0
 48 49  1  0
 49 50  2  0
 49 51  1  0
 51 52  1  0
 52 53  1  0
 53 54  2  0
 53 55  1  0
 52 56  1  0
 56 57  1  0
 57 58  2  0
 57 59  1  0
 48 60  1  0
 60 61  1  0
 61 62  2  0
 61 63  1  0
 63 64  1  0
 64 65  1  0
 65 66  1  0
 66 67  1  0
 44 68  1  0
 68 69  1  0
 69 70  1  0
 68 71  1  0
 20 16  1  0
 55 23  1  0
 40 35  1  0
  1 72  1  0
  1 73  1  0
  2 74  1  0
  2 75  1  0
  3 76  1  0
  3 77  1  0
  4 78  1  0
  4 79  1  0
  5 80  1  1
  8 81  1  0
  9 82  1  0
  9 83  1  0
 12 84  1  0
 12 85  1  0
 13 86  1  0
 16 87  1  1
 17 88  1  0
 17 89  1  0
 18 90  1  0
 18 91  1  0
 19 92  1  0
 19 93  1  0
 23 94  1  1
 24 95  1  0
 24 96  1  0
 27 97  1  0
 27 98  1  0
 28 99  1  1
 29100  1  0
 29101  1  0
 32102  1  0
 33103  1  6
 34104  1  0
 34105  1  0
 36106  1  0
 37107  1  0
 38108  1  0
 39109  1  0
 40110  1  0
 43111  1  0
 44112  1  6
 47113  1  0
 48114  1  6
 51115  1  0
 52116  1  6
 55117  1  0
 56118  1  0
 56119  1  0
 59120  1  0
 59121  1  0
 60122  1  0
 60123  1  0
 63124  1  0
 64125  1  0
 64126  1  0
 65127  1  0
 65128  1  0
 66129  1  0
 66130  1  0
 67131  1  0
 68132  1  1
 69133  1  0
 69134  1  0
 70135  1  0
 70136  1  0
 70137  1  0
 71138  1  0
 71139  1  0
 71140  1  0
M  END
>  <Ligand ID>  (1) 
LIG0000918

>  <Ligand>  (1) 
CHEMBL1817698

>  <SMILES>  (1) 
NCCC[C@@H](C(=O)NCC(=O)N)NC(=O)[C@@H]1CCCN1C(=O)[C@@H]1CSSC[C@H](N)C(=O)N[C@@H](Cc2ccccc2)C(=O)N[C@H](C(=O)N[C@H](C(=O)N[C@H](C(=O)N1)CC(=O)N)CC(=O)NCCCO)[C@H](CC)C

>  <CID>  (1) 
53362311.0

>  <ChEMBL ID>  (1) 
nan

>  <InChiKey>  (1) 
BYKYVVSYLHQIBL-PFCVTPPASA-N

>  <InChi>  (1) 
InChI=1S/C44H69N13O12S2/c1-3-24(2)36-43(68)54-30(20-35(61)49-15-9-17-58)40(65)53-29(19-33(47)59)39(64)55-31(23-71-70-22-26(46)37(62)52-28(41(66)56-36)18-25-10-5-4-6-11-25)44(69)57-16-8-13-32(57)42(67)51-27(12-7-14-45)38(63)50-21-34(48)60/h4-6,10-11,24,26-32,36,58H,3,7-9,12-23,45-46H2,1-2H3,(H2,47,59)(H2,48,60)(H,49,61)(H,50,63)(H,51,67)(H,52,62)(H,53,65)(H,54,68)(H,55,64)(H,56,66)/t24-,26-,27-,28-,29-,30-,31-,32-,36-/m0/s1

>  <IUPAC Name>  (1) 
(2S)-N-[(2S)-5-amino-1-[(2-amino-2-oxoethyl)amino]-1-oxopentan-2-yl]-1-[(4R,7S,10S,13S,16S,19R)-19-amino-7-(2-amino-2-oxoethyl)-16-benzyl-13-[(2S)-butan-2-yl]-10-[2-(3-hydroxypropylamino)-2-oxoethyl]-6,9,12,15,18-pentaoxo-1,2-dithia-5,8,11,14,17-pentazacycloicosane-4-carbonyl]pyrrolidine-2-carboxamide

$$$$
