
     RDKit          3D

 21 20  0  0  0  0  0  0  0  0999 V2000
   -2.4002    0.9885    0.5179 C   0  0  0  0  0  0  0  0  0  0  0  0
   -2.6927    0.0774   -0.6428 C   0  0  0  0  0  0  0  0  0  0  0  0
   -1.6743   -1.0612   -0.7124 C   0  0  0  0  0  0  0  0  0  0  0  0
   -0.3470   -0.4095   -0.8795 C   0  0  0  0  0  0  0  0  0  0  0  0
    0.6157   -0.5852    0.0107 C   0  0  0  0  0  0  0  0  0  0  0  0
    1.9136    0.0318   -0.1209 C   0  0  0  0  0  0  0  0  0  0  0  0
    2.8376   -0.1808    0.8021 C   0  0  0  0  0  0  0  0  0  0  0  0
    4.1711    0.4075    0.7379 C   0  0  0  0  0  0  0  0  0  0  0  0
    5.0480    0.1888    1.6403 O   0  0  0  0  0  0  0  0  0  0  0  0
   -1.3784    0.7719    0.8794 H   0  0  0  0  0  0  0  0  0  0  0  0
   -3.1310    0.8442    1.3386 H   0  0  0  0  0  0  0  0  0  0  0  0
   -2.3964    2.0417    0.2068 H   0  0  0  0  0  0  0  0  0  0  0  0
   -3.7196   -0.3507   -0.5416 H   0  0  0  0  0  0  0  0  0  0  0  0
   -2.6933    0.6758   -1.5673 H   0  0  0  0  0  0  0  0  0  0  0  0
   -1.7471   -1.6592    0.1935 H   0  0  0  0  0  0  0  0  0  0  0  0
   -1.8617   -1.6743   -1.6008 H   0  0  0  0  0  0  0  0  0  0  0  0
   -0.1690    0.2084   -1.7294 H   0  0  0  0  0  0  0  0  0  0  0  0
    0.3801   -1.2213    0.8523 H   0  0  0  0  0  0  0  0  0  0  0  0
    2.1339    0.6659   -0.9691 H   0  0  0  0  0  0  0  0  0  0  0  0
    2.6140   -0.8139    1.6466 H   0  0  0  0  0  0  0  0  0  0  0  0
    4.4970    1.0543   -0.0624 H   0  0  0  0  0  0  0  0  0  0  0  0
  1  2  1  0
  2  3  1  0
  3  4  1  0
  4  5  2  0
  5  6  1  0
  6  7  2  0
  7  8  1  0
  8  9  2  0
  1 10  1  0
  1 11  1  0
  1 12  1  0
  2 13  1  0
  2 14  1  0
  3 15  1  0
  3 16  1  0
  4 17  1  0
  5 18  1  0
  6 19  1  0
  7 20  1  0
  8 21  1  0
M  END
>  <Ligand ID>  (1) 
LIG0000269

>  <Ligand>  (1) 
2,4-Octadienal, (2E,4E)-

>  <SMILES>  (1) 
CCC/C=C/C=C/C=O

>  <CID>  (1) 
5283329.0

>  <ChEMBL ID>  (1) 
nan

>  <InChiKey>  (1) 
DVVATNQISMINCX-YTXTXJHMSA-N

>  <InChi>  (1) 
InChI=1S/C8H12O/c1-2-3-4-5-6-7-8-9/h4-8H,2-3H2,1H3/b5-4+,7-6+

>  <IUPAC Name>  (1) 
(2E,4E)-octa-2,4-dienal

$$$$
