
     RDKit          3D

 59 63  0  0  0  0  0  0  0  0999 V2000
   -8.7346   -3.3779   -0.6703 Br  0  0  0  0  0  0  0  0  0  0  0  0
   -7.2889   -2.1741   -0.3068 C   0  0  0  0  0  0  0  0  0  0  0  0
   -5.9807   -2.5372   -0.5801 C   0  0  0  0  0  0  0  0  0  0  0  0
   -4.9765   -1.6458   -0.3047 C   0  0  0  0  0  0  0  0  0  0  0  0
   -5.2093   -0.3864    0.2395 C   0  0  0  0  0  0  0  0  0  0  0  0
   -6.5242   -0.0582    0.4990 C   0  0  0  0  0  0  0  0  0  0  0  0
   -7.5514   -0.9338    0.2323 C   0  0  0  0  0  0  0  0  0  0  0  0
   -6.5404    1.1750    1.0120 N   0  0  0  0  0  0  0  0  0  0  0  0
   -5.2542    1.6011    1.0679 C   0  0  0  0  0  0  0  0  0  0  0  0
   -4.8359    2.7156    1.4909 O   0  0  0  0  0  0  0  0  0  0  0  0
   -4.4306    0.6518    0.5969 N   0  0  0  0  0  0  0  0  0  0  0  0
   -2.9977    0.6465    0.4603 C   0  0  0  0  0  0  0  0  0  0  0  0
   -2.6428    0.5807   -1.0020 C   0  0  0  0  0  0  0  0  0  0  0  0
   -1.5332    1.5498   -1.2861 C   0  0  0  0  0  0  0  0  0  0  0  0
   -0.5150    1.4480   -0.3118 N   0  0  0  0  0  0  0  0  0  0  0  0
   -0.8348    1.6048    1.0391 C   0  0  0  0  0  0  0  0  0  0  0  0
   -2.3469    1.8138    1.1543 C   0  0  0  0  0  0  0  0  0  0  0  0
    0.7891    1.1275   -0.7157 C   0  0  0  0  0  0  0  0  0  0  0  0
    1.6843    1.0810    0.5138 C   0  0  0  0  0  0  0  0  0  0  0  0
    3.1050    0.7192    0.1427 C   0  0  0  0  0  0  0  0  0  0  0  0
    3.1815   -0.5339   -0.5649 N   0  0  0  0  0  0  0  0  0  0  0  0
    1.8898   -1.1250   -0.7998 C   0  0  0  0  0  0  0  0  0  0  0  0
    0.9777   -0.1152   -1.5089 C   0  0  0  0  0  0  0  0  0  0  0  0
    4.1948   -1.6961    0.1691 S   0  0  0  0  0  0  0  0  0  0  0  0
    4.0701   -2.9680   -0.6208 O   0  0  0  0  0  0  0  0  0  0  0  0
    3.6742   -2.0081    1.5601 O   0  0  0  0  0  0  0  0  0  0  0  0
    5.8615   -1.1421    0.2643 C   0  0  0  0  0  0  0  0  0  0  0  0
    6.6872   -1.4409   -0.8041 C   0  0  0  0  0  0  0  0  0  0  0  0
    8.0084   -1.0418   -0.8065 C   0  0  0  0  0  0  0  0  0  0  0  0
    8.4935   -0.3332    0.2864 C   0  0  0  0  0  0  0  0  0  0  0  0
    7.6671   -0.0254    1.3726 C   0  0  0  0  0  0  0  0  0  0  0  0
    6.3444   -0.4387    1.3483 C   0  0  0  0  0  0  0  0  0  0  0  0
   -5.7859   -3.5203   -1.0062 H   0  0  0  0  0  0  0  0  0  0  0  0
   -3.9689   -1.9502   -0.5256 H   0  0  0  0  0  0  0  0  0  0  0  0
   -8.5812   -0.6945    0.4282 H   0  0  0  0  0  0  0  0  0  0  0  0
   -7.3781    1.7427    1.3261 H   0  0  0  0  0  0  0  0  0  0  0  0
   -2.5854   -0.2670    0.9419 H   0  0  0  0  0  0  0  0  0  0  0  0
   -2.2757   -0.4372   -1.3034 H   0  0  0  0  0  0  0  0  0  0  0  0
   -3.5201    0.8748   -1.6438 H   0  0  0  0  0  0  0  0  0  0  0  0
   -1.0743    1.3819   -2.2829 H   0  0  0  0  0  0  0  0  0  0  0  0
   -1.8962    2.6113   -1.3257 H   0  0  0  0  0  0  0  0  0  0  0  0
   -0.6220    0.7497    1.7045 H   0  0  0  0  0  0  0  0  0  0  0  0
   -0.3755    2.5390    1.4421 H   0  0  0  0  0  0  0  0  0  0  0  0
   -2.6303    2.7918    0.7163 H   0  0  0  0  0  0  0  0  0  0  0  0
   -2.6154    1.7616    2.2259 H   0  0  0  0  0  0  0  0  0  0  0  0
    1.1743    2.0139   -1.3022 H   0  0  0  0  0  0  0  0  0  0  0  0
    1.3436    0.3978    1.2902 H   0  0  0  0  0  0  0  0  0  0  0  0
    1.7275    2.1018    0.9480 H   0  0  0  0  0  0  0  0  0  0  0  0
    3.5909    1.4994   -0.4777 H   0  0  0  0  0  0  0  0  0  0  0  0
    3.6784    0.6710    1.0894 H   0  0  0  0  0  0  0  0  0  0  0  0
    1.4251   -1.5133    0.1224 H   0  0  0  0  0  0  0  0  0  0  0  0
    2.0262   -1.9701   -1.5024 H   0  0  0  0  0  0  0  0  0  0  0  0
    1.5223    0.1072   -2.4512 H   0  0  0  0  0  0  0  0  0  0  0  0
    0.0570   -0.6297   -1.8316 H   0  0  0  0  0  0  0  0  0  0  0  0
    6.3325   -1.9976   -1.6782 H   0  0  0  0  0  0  0  0  0  0  0  0
    8.6560   -1.2824   -1.6565 H   0  0  0  0  0  0  0  0  0  0  0  0
    9.5338   -0.0265    0.2697 H   0  0  0  0  0  0  0  0  0  0  0  0
    8.1075    0.5240    2.1820 H   0  0  0  0  0  0  0  0  0  0  0  0
    5.7024   -0.2122    2.1677 H   0  0  0  0  0  0  0  0  0  0  0  0
  1  2  1  0
  2  3  2  0
  3  4  1  0
  4  5  2  0
  5  6  1  0
  6  7  2  0
  6  8  1  0
  8  9  1  0
  9 10  2  0
  9 11  1  0
 11 12  1  0
 12 13  1  0
 13 14  1  0
 14 15  1  0
 15 16  1  0
 16 17  1  0
 15 18  1  0
 18 19  1  0
 19 20  1  0
 20 21  1  0
 21 22  1  0
 22 23  1  0
 21 24  1  0
 24 25  2  0
 24 26  2  0
 24 27  1  0
 27 28  2  0
 28 29  1  0
 29 30  2  0
 30 31  1  0
 31 32  2  0
  7  2  1  0
 17 12  1  0
 23 18  1  0
 32 27  1  0
 11  5  1  0
  3 33  1  0
  4 34  1  0
  7 35  1  0
  8 36  1  0
 12 37  1  0
 13 38  1  0
 13 39  1  0
 14 40  1  0
 14 41  1  0
 16 42  1  0
 16 43  1  0
 17 44  1  0
 17 45  1  0
 18 46  1  0
 19 47  1  0
 19 48  1  0
 20 49  1  0
 20 50  1  0
 22 51  1  0
 22 52  1  0
 23 53  1  0
 23 54  1  0
 28 55  1  0
 29 56  1  0
 30 57  1  0
 31 58  1  0
 32 59  1  0
M  END
>  <Ligand ID>  (1) 
LIG0000855

>  <Ligand>  (1) 
CHEMBL487984

>  <SMILES>  (1) 
Brc1ccc2c(c1)[nH]c(=O)n2C1CCN(CC1)C1CCN(CC1)S(=O)(=O)c1ccccc1

>  <CID>  (1) 
44589643.0

>  <ChEMBL ID>  (1) 
nan

>  <InChiKey>  (1) 
ZYKHMDFAAIQNQH-UHFFFAOYSA-N

>  <InChi>  (1) 
InChI=1S/C23H27BrN4O3S/c24-17-6-7-22-21(16-17)25-23(29)28(22)19-8-12-26(13-9-19)18-10-14-27(15-11-18)32(30,31)20-4-2-1-3-5-20/h1-7,16,18-19H,8-15H2,(H,25,29)

>  <IUPAC Name>  (1) 
3-[1-[1-(benzenesulfonyl)piperidin-4-yl]piperidin-4-yl]-6-bromo-1H-benzimidazol-2-one

$$$$
