
     RDKit          3D

 79 86  0  0  0  0  0  0  0  0999 V2000
    1.3535    4.3428   -0.8050 C   0  0  0  0  0  0  0  0  0  0  0  0
    1.6464    3.0154   -0.7422 O   0  0  0  0  0  0  0  0  0  0  0  0
    0.6490    2.1499   -0.3969 C   0  0  2  0  0  0  0  0  0  0  0  0
    0.1102    2.4828    0.9676 C   0  0  0  0  0  0  0  0  0  0  0  0
   -0.7599    1.3790    1.5455 C   0  0  0  0  0  0  0  0  0  0  0  0
   -0.9822    0.3864    0.4460 C   0  0  2  0  0  0  0  0  0  0  0  0
    0.3630   -0.2809    0.2386 C   0  0  0  0  0  0  0  0  0  0  0  0
    1.1855    0.7411   -0.5336 C   0  0  2  0  0  0  0  0  0  0  0  0
    2.6571    0.5557   -0.4698 C   0  0  1  0  0  0  0  0  0  0  0  0
    2.9625   -0.8906   -0.6272 C   0  0  0  0  0  0  0  0  0  0  0  0
    4.3580   -1.3618   -0.6139 C   0  0  0  0  0  0  0  0  0  0  0  0
    4.2721   -2.8937   -0.8471 C   0  0  0  0  0  0  0  0  0  0  0  0
    5.2518   -3.5350    0.0681 C   0  0  0  0  0  0  0  0  0  0  0  0
    6.1755   -2.4081    0.4572 C   0  0  0  0  0  0  0  0  0  0  0  0
    5.1215   -1.2854    0.6616 C   0  0  0  0  0  0  0  0  0  0  0  0
    3.1687    1.1749   -1.6566 O   0  0  0  0  0  0  0  0  0  0  0  0
    3.3902    1.1699    0.6500 C   0  0  0  0  0  0  0  0  0  0  0  0
   -1.4850    1.1003   -0.7659 C   0  0  2  0  0  0  0  0  0  0  0  0
   -0.5458    2.1718   -1.3216 C   0  0  1  0  0  0  0  0  0  0  0  0
   -1.2957    3.3221   -1.4387 O   0  0  0  0  0  0  0  0  0  0  0  0
   -2.4418    3.2556   -0.6766 C   0  0  0  0  0  0  0  0  0  0  0  0
   -2.5593    1.9890   -0.2294 C   0  0  0  0  0  0  0  0  0  0  0  0
   -3.5182    1.4543    0.5680 C   0  0  0  0  0  0  0  0  0  0  0  0
   -3.4005    0.0498    1.0028 C   0  0  0  0  0  0  0  0  0  0  0  0
   -2.0791   -0.6063    0.8078 C   0  0  1  0  0  0  0  0  0  0  0  0
   -2.1061   -1.5348   -0.3180 N   0  0  0  0  0  0  0  0  0  0  0  0
   -2.7110   -0.9784   -1.4676 C   0  0  0  0  0  0  0  0  0  0  0  0
   -2.0145    0.2839   -1.8747 C   0  0  0  0  0  0  0  0  0  0  0  0
   -2.2889   -2.8893   -0.0130 C   0  0  0  0  0  0  0  0  0  0  0  0
   -3.6216   -3.3008    0.5345 C   0  0  0  0  0  0  0  0  0  0  0  0
   -3.6785   -4.8136    0.8170 C   0  0  0  0  0  0  0  0  0  0  0  0
   -4.5594   -4.1781   -0.2023 C   0  0  0  0  0  0  0  0  0  0  0  0
   -4.5231    2.3218    0.9773 C   0  0  0  0  0  0  0  0  0  0  0  0
   -4.4764    3.6547    0.5513 C   0  0  0  0  0  0  0  0  0  0  0  0
   -3.4526    4.1355   -0.2680 C   0  0  0  0  0  0  0  0  0  0  0  0
   -3.3936    5.4483   -0.6949 O   0  0  0  0  0  0  0  0  0  0  0  0
    0.5808    4.6536   -1.5235 H   0  0  0  0  0  0  0  0  0  0  0  0
    1.1981    4.8157    0.2016 H   0  0  0  0  0  0  0  0  0  0  0  0
    2.2926    4.8539   -1.1720 H   0  0  0  0  0  0  0  0  0  0  0  0
    0.8246    2.8597    1.6960 H   0  0  0  0  0  0  0  0  0  0  0  0
   -0.6010    3.3549    0.8178 H   0  0  0  0  0  0  0  0  0  0  0  0
   -0.1211    0.8635    2.3226 H   0  0  0  0  0  0  0  0  0  0  0  0
   -1.6332    1.7314    2.0774 H   0  0  0  0  0  0  0  0  0  0  0  0
    0.1797   -1.2078   -0.3043 H   0  0  0  0  0  0  0  0  0  0  0  0
    0.8086   -0.4427    1.2499 H   0  0  0  0  0  0  0  0  0  0  0  0
    0.9486    0.4499   -1.6221 H   0  0  0  0  0  0  0  0  0  0  0  0
    2.3457   -1.4909    0.1087 H   0  0  0  0  0  0  0  0  0  0  0  0
    2.5255   -1.2364   -1.6221 H   0  0  0  0  0  0  0  0  0  0  0  0
    4.9381   -0.9291   -1.4442 H   0  0  0  0  0  0  0  0  0  0  0  0
    3.2652   -3.2672   -0.5829 H   0  0  0  0  0  0  0  0  0  0  0  0
    4.4344   -3.1007   -1.9225 H   0  0  0  0  0  0  0  0  0  0  0  0
    5.8059   -4.3456   -0.4605 H   0  0  0  0  0  0  0  0  0  0  0  0
    4.7557   -3.9227    1.0019 H   0  0  0  0  0  0  0  0  0  0  0  0
    6.6788   -2.6656    1.3888 H   0  0  0  0  0  0  0  0  0  0  0  0
    6.8423   -2.1384   -0.3780 H   0  0  0  0  0  0  0  0  0  0  0  0
    4.5203   -1.6841    1.5262 H   0  0  0  0  0  0  0  0  0  0  0  0
    5.6516   -0.3569    0.8734 H   0  0  0  0  0  0  0  0  0  0  0  0
    4.0639    1.5179   -1.5019 H   0  0  0  0  0  0  0  0  0  0  0  0
    3.5144    0.4421    1.4650 H   0  0  0  0  0  0  0  0  0  0  0  0
    2.8550    2.0286    1.1286 H   0  0  0  0  0  0  0  0  0  0  0  0
    4.4318    1.5099    0.3627 H   0  0  0  0  0  0  0  0  0  0  0  0
   -0.1548    1.7957   -2.3104 H   0  0  0  0  0  0  0  0  0  0  0  0
   -3.6320   -0.0315    2.1148 H   0  0  0  0  0  0  0  0  0  0  0  0
   -4.2486   -0.5219    0.5396 H   0  0  0  0  0  0  0  0  0  0  0  0
   -1.7709   -1.1551    1.6884 H   0  0  0  0  0  0  0  0  0  0  0  0
   -2.5809   -1.7250   -2.2980 H   0  0  0  0  0  0  0  0  0  0  0  0
   -3.8157   -0.8467   -1.3885 H   0  0  0  0  0  0  0  0  0  0  0  0
   -2.7045    0.9378   -2.4734 H   0  0  0  0  0  0  0  0  0  0  0  0
   -1.2309   -0.0128   -2.6198 H   0  0  0  0  0  0  0  0  0  0  0  0
   -2.1496   -3.4989   -0.9564 H   0  0  0  0  0  0  0  0  0  0  0  0
   -1.4949   -3.2111    0.7053 H   0  0  0  0  0  0  0  0  0  0  0  0
   -4.0541   -2.7252    1.3898 H   0  0  0  0  0  0  0  0  0  0  0  0
   -2.8892   -5.4654    0.4307 H   0  0  0  0  0  0  0  0  0  0  0  0
   -4.0933   -5.1613    1.7752 H   0  0  0  0  0  0  0  0  0  0  0  0
   -4.3369   -4.3963   -1.2826 H   0  0  0  0  0  0  0  0  0  0  0  0
   -5.6431   -4.0883    0.0090 H   0  0  0  0  0  0  0  0  0  0  0  0
   -5.3040    1.9411    1.6079 H   0  0  0  0  0  0  0  0  0  0  0  0
   -5.2701    4.3433    0.8716 H   0  0  0  0  0  0  0  0  0  0  0  0
   -2.5045    5.9003   -0.8750 H   0  0  0  0  0  0  0  0  0  0  0  0
  1  2  1  0
  3  2  1  6
  3  4  1  0
  4  5  1  0
  6  5  1  1
  6  7  1  0
  7  8  1  0
  8  9  1  0
  9 10  1  0
 10 11  1  0
 11 12  1  0
 12 13  1  0
 13 14  1  0
 14 15  1  0
  9 16  1  6
  9 17  1  0
  6 18  1  0
 18 19  1  0
 19 20  1  0
 20 21  1  0
 21 22  2  0
 22 23  1  0
 23 24  1  0
 24 25  1  0
 25 26  1  0
 26 27  1  0
 27 28  1  0
 26 29  1  0
 29 30  1  0
 30 31  1  0
 31 32  1  0
 23 33  2  0
 33 34  1  0
 34 35  2  0
 35 36  1  0
  8  3  1  0
 15 11  1  0
 18 28  1  6
 32 30  1  0
 19  3  1  0
 35 21  1  0
 25  6  1  0
 22 18  1  0
  1 37  1  0
  1 38  1  0
  1 39  1  0
  4 40  1  0
  4 41  1  0
  5 42  1  0
  5 43  1  0
  7 44  1  0
  7 45  1  0
  8 46  1  6
 10 47  1  0
 10 48  1  0
 11 49  1  0
 12 50  1  0
 12 51  1  0
 13 52  1  0
 13 53  1  0
 14 54  1  0
 14 55  1  0
 15 56  1  0
 15 57  1  0
 16 58  1  0
 17 59  1  0
 17 60  1  0
 17 61  1  0
 19 62  1  6
 24 63  1  0
 24 64  1  0
 25 65  1  1
 27 66  1  0
 27 67  1  0
 28 68  1  0
 28 69  1  0
 29 70  1  0
 29 71  1  0
 30 72  1  0
 31 73  1  0
 31 74  1  0
 32 75  1  0
 32 76  1  0
 33 77  1  0
 34 78  1  0
 36 79  1  0
M  END
>  <Ligand ID>  (1) 
LIG0005127

>  <Ligand>  (1) 
CHEMBL2338747

>  <SMILES>  (1) 
CO[C@]12CC[C@]3(C[C@@H]1[C@@](CC1CCCC1)(O)C)[C@@]14[C@H]2Oc2c4c(C[C@H]3N(CC1)CC1CC1)ccc2O

>  <CID>  (1) 
71624552.0

>  <ChEMBL ID>  (1) 
nan

>  <InChiKey>  (1) 
JJRPHYKGPHREMD-JTTXIWGLSA-N

>  <InChi>  (1) 
InChI=1S/C31H43NO4/c1-28(34,16-19-5-3-4-6-19)23-17-29-11-12-31(23,35-2)27-30(29)13-14-32(18-20-7-8-20)24(29)15-21-9-10-22(33)26(36-27)25(21)30/h9-10,19-20,23-24,27,33-34H,3-8,11-18H2,1-2H3/t23-,24-,27-,28-,29-,30+,31-/m1/s1

>  <IUPAC Name>  (1) 
(1S,2S,6R,14R,15R,16R)-16-[(2R)-1-cyclopentyl-2-hydroxypropan-2-yl]-5-(cyclopropylmethyl)-15-methoxy-13-oxa-5-azahexacyclo[13.2.2.12,8.01,6.02,14.012,20]icosa-8(20),9,11-trien-11-ol

$$$$
