
     RDKit          3D

 31 30  0  0  0  0  0  0  0  0999 V2000
   -3.9085   -0.5207   -0.9961 O   0  0  0  0  0  0  0  0  0  0  0  0
   -3.8831    0.3273    0.0978 C   0  0  0  0  0  0  0  0  0  0  0  0
   -2.4566    0.7311    0.4830 C   0  0  0  0  0  0  0  0  0  0  0  0
   -1.6251   -0.4637    0.8347 C   0  0  0  0  0  0  0  0  0  0  0  0
   -0.2141   -0.1248    1.2210 C   0  0  0  0  0  0  0  0  0  0  0  0
    0.5558    0.5755    0.1444 C   0  0  0  0  0  0  0  0  0  0  0  0
    1.9268    0.8489    0.6595 C   0  0  0  0  0  0  0  0  0  0  0  0
    3.0294    0.3810    0.0997 C   0  0  0  0  0  0  0  0  0  0  0  0
    4.3841    0.6862    0.6583 C   0  0  0  0  0  0  0  0  0  0  0  0
    2.9099   -0.4745   -1.1231 C   0  0  0  0  0  0  0  0  0  0  0  0
   -1.6016   -1.5278   -0.2463 C   0  0  0  0  0  0  0  0  0  0  0  0
   -4.6096   -0.2608   -1.6305 H   0  0  0  0  0  0  0  0  0  0  0  0
   -4.3250   -0.1998    0.9676 H   0  0  0  0  0  0  0  0  0  0  0  0
   -4.4627    1.2608   -0.0600 H   0  0  0  0  0  0  0  0  0  0  0  0
   -1.9867    1.3122   -0.3131 H   0  0  0  0  0  0  0  0  0  0  0  0
   -2.6008    1.3040    1.4290 H   0  0  0  0  0  0  0  0  0  0  0  0
   -2.1034   -0.9259    1.7258 H   0  0  0  0  0  0  0  0  0  0  0  0
    0.3025   -1.0873    1.4204 H   0  0  0  0  0  0  0  0  0  0  0  0
   -0.2077    0.4846    2.1252 H   0  0  0  0  0  0  0  0  0  0  0  0
    0.6588   -0.0274   -0.7811 H   0  0  0  0  0  0  0  0  0  0  0  0
    0.1293    1.5295   -0.1727 H   0  0  0  0  0  0  0  0  0  0  0  0
    1.9983    1.4717    1.5481 H   0  0  0  0  0  0  0  0  0  0  0  0
    5.0383    1.1229   -0.1271 H   0  0  0  0  0  0  0  0  0  0  0  0
    4.8055   -0.2824    1.0441 H   0  0  0  0  0  0  0  0  0  0  0  0
    4.2768    1.4235    1.4660 H   0  0  0  0  0  0  0  0  0  0  0  0
    2.4302   -1.4199   -0.8119 H   0  0  0  0  0  0  0  0  0  0  0  0
    3.9026   -0.7291   -1.5314 H   0  0  0  0  0  0  0  0  0  0  0  0
    2.3571    0.0871   -1.9055 H   0  0  0  0  0  0  0  0  0  0  0  0
   -0.7259   -2.1805   -0.0254 H   0  0  0  0  0  0  0  0  0  0  0  0
   -2.4950   -2.2005   -0.1737 H   0  0  0  0  0  0  0  0  0  0  0  0
   -1.4994   -1.1213   -1.2574 H   0  0  0  0  0  0  0  0  0  0  0  0
  1  2  1  0
  2  3  1  0
  3  4  1  0
  4  5  1  0
  5  6  1  0
  6  7  1  0
  7  8  2  3
  8  9  1  0
  8 10  1  0
  4 11  1  0
  1 12  1  0
  2 13  1  0
  2 14  1  0
  3 15  1  0
  3 16  1  0
  4 17  1  0
  5 18  1  0
  5 19  1  0
  6 20  1  0
  6 21  1  0
  7 22  1  0
  9 23  1  0
  9 24  1  0
  9 25  1  0
 10 26  1  0
 10 27  1  0
 10 28  1  0
 11 29  1  0
 11 30  1  0
 11 31  1  0
M  END
>  <Ligand ID>  (1) 
LIG0000289

>  <Ligand>  (1) 
beta-CITRONELLOL, (+/-)-

>  <SMILES>  (1) 
OCCC(CCC=C(C)C)C

>  <CID>  (1) 
8842.0

>  <ChEMBL ID>  (1) 
nan

>  <InChiKey>  (1) 
QMVPMAAFGQKVCJ-UHFFFAOYSA-N

>  <InChi>  (1) 
InChI=1S/C10H20O/c1-9(2)5-4-6-10(3)7-8-11/h5,10-11H,4,6-8H2,1-3H3

>  <IUPAC Name>  (1) 
3,7-dimethyloct-6-en-1-ol

$$$$
