
     RDKit          3D

 23 21  0  0  0  0  0  0  0  0999 V2000
    2.6505    0.8457    1.0550 N   0  0  0  0  0  0  0  0  0  0  0  0
    3.1048    0.1539   -0.0945 C   0  0  0  0  0  0  0  0  0  0  0  0
    4.2159    0.5474   -0.6198 N   0  0  0  0  0  0  0  0  0  0  0  0
    2.2582   -1.2011   -0.8511 S   0  0  0  0  0  0  0  0  0  0  0  0
    0.7191   -1.6177    0.0196 C   0  0  0  0  0  0  0  0  0  0  0  0
   -0.2237   -0.4492   -0.1501 C   0  0  0  0  0  0  0  0  0  0  0  0
   -1.4893   -0.6749    0.5067 N   0  0  0  0  0  0  0  0  0  0  0  0
   -2.5085    0.0422    0.1737 C   0  0  0  0  0  0  0  0  0  0  0  0
   -2.4499    1.0596   -0.8221 N   0  0  0  0  0  0  0  0  0  0  0  0
   -3.7400   -0.2383    0.8698 N   0  0  0  0  0  0  0  0  0  0  0  0
    0.7650    0.0000    0.0000 Br  0  0  0  0  0  0  0  0  0  0  0  0
    2.4701    0.3315    1.9570 H   0  0  0  0  0  0  0  0  0  0  0  0
    2.4730    1.8834    1.0712 H   0  0  0  0  0  0  0  0  0  0  0  0
    4.7859    1.3231   -0.2599 H   0  0  0  0  0  0  0  0  0  0  0  0
    0.2379   -2.4828   -0.4806 H   0  0  0  0  0  0  0  0  0  0  0  0
    0.8800   -1.8635    1.0852 H   0  0  0  0  0  0  0  0  0  0  0  0
   -0.3674   -0.2822   -1.2416 H   0  0  0  0  0  0  0  0  0  0  0  0
    0.2261    0.4399    0.3434 H   0  0  0  0  0  0  0  0  0  0  0  0
   -2.6387    0.8542   -1.8491 H   0  0  0  0  0  0  0  0  0  0  0  0
   -2.2139    2.0504   -0.5505 H   0  0  0  0  0  0  0  0  0  0  0  0
   -4.1088    0.3906    1.6178 H   0  0  0  0  0  0  0  0  0  0  0  0
   -4.2810   -1.1123    0.6073 H   0  0  0  0  0  0  0  0  0  0  0  0
   -0.7650    0.0000    0.0000 H   0  0  0  0  0  0  0  0  0  0  0  0
  1  2  1  0
  2  3  2  3
  2  4  1  0
  4  5  1  0
  5  6  1  0
  6  7  1  0
  7  8  2  3
  8  9  1  0
  8 10  1  0
  1 12  1  0
  1 13  1  0
  3 14  1  0
  5 15  1  0
  5 16  1  0
  6 17  1  0
  6 18  1  0
  9 19  1  0
  9 20  1  0
 10 21  1  0
 10 22  1  0
 11 23  1  0
M  END
>  <Ligand ID>  (1) 
LIG0005084

>  <Ligand>  (1) 
CHEMBL557151

>  <SMILES>  (1) 
NC(=N)SCCN=C(N)N.Br

>  <CID>  (1) 
45263439.0

>  <ChEMBL ID>  (1) 
nan

>  <InChiKey>  (1) 
IWTDNEMUIUNTEA-UHFFFAOYSA-N

>  <InChi>  (1) 
InChI=1S/C4H11N5S.BrH/c5-3(6)9-1-2-10-4(7)8;/h1-2H2,(H3,7,8)(H4,5,6,9);1H

>  <IUPAC Name>  (1) 
2-(diaminomethylideneamino)ethyl carbamimidothioate;hydrobromide

$$$$
