
     RDKit          3D

 27 27  0  0  0  0  0  0  0  0999 V2000
   -2.5528    2.3966   -0.3720 C   0  0  0  0  0  0  0  0  0  0  0  0
   -1.4408    1.5883   -0.0640 O   0  0  0  0  0  0  0  0  0  0  0  0
   -1.5257    0.2024   -0.0356 C   0  0  0  0  0  0  0  0  0  0  0  0
   -2.6999   -0.4752   -0.3010 C   0  0  0  0  0  0  0  0  0  0  0  0
   -2.7227   -1.8617   -0.2567 C   0  0  0  0  0  0  0  0  0  0  0  0
   -1.5400   -2.5243    0.0600 C   0  0  0  0  0  0  0  0  0  0  0  0
   -0.4086   -1.8359    0.3151 N   0  0  0  0  0  0  0  0  0  0  0  0
   -0.3454   -0.4952    0.2826 C   0  0  0  0  0  0  0  0  0  0  0  0
    0.8371    0.3177    0.5725 C   0  0  0  0  0  0  0  0  0  0  0  0
    2.1641   -0.3436    0.4777 C   0  0  0  0  0  0  0  0  0  0  0  0
    3.1861    0.7587    0.8508 C   0  0  0  0  0  0  0  0  0  0  0  0
    2.5287   -0.7987   -0.9297 C   0  0  0  0  0  0  0  0  0  0  0  0
   -2.1868    3.4196   -0.6026 H   0  0  0  0  0  0  0  0  0  0  0  0
   -3.1036    1.9592   -1.2281 H   0  0  0  0  0  0  0  0  0  0  0  0
   -3.2721    2.4310    0.5003 H   0  0  0  0  0  0  0  0  0  0  0  0
   -3.5938    0.1086   -0.5483 H   0  0  0  0  0  0  0  0  0  0  0  0
   -3.6413   -2.3718   -0.4726 H   0  0  0  0  0  0  0  0  0  0  0  0
   -1.5906   -3.6107    0.0887 H   0  0  0  0  0  0  0  0  0  0  0  0
    0.7327    0.6936    1.6151 H   0  0  0  0  0  0  0  0  0  0  0  0
    0.8540    1.1841   -0.1203 H   0  0  0  0  0  0  0  0  0  0  0  0
    2.2700   -1.2159    1.1423 H   0  0  0  0  0  0  0  0  0  0  0  0
    2.7658    1.7632    0.5618 H   0  0  0  0  0  0  0  0  0  0  0  0
    3.2351    0.7484    1.9332 H   0  0  0  0  0  0  0  0  0  0  0  0
    4.1135    0.6211    0.3018 H   0  0  0  0  0  0  0  0  0  0  0  0
    3.4570   -1.4083   -0.8275 H   0  0  0  0  0  0  0  0  0  0  0  0
    2.7951    0.0798   -1.5829 H   0  0  0  0  0  0  0  0  0  0  0  0
    1.6847   -1.3310   -1.3607 H   0  0  0  0  0  0  0  0  0  0  0  0
  1  2  1  0
  2  3  1  0
  3  4  2  0
  4  5  1  0
  5  6  2  0
  6  7  1  0
  7  8  2  0
  8  9  1  0
  9 10  1  0
 10 11  1  0
 10 12  1  0
  8  3  1  0
  1 13  1  0
  1 14  1  0
  1 15  1  0
  4 16  1  0
  5 17  1  0
  6 18  1  0
  9 19  1  0
  9 20  1  0
 10 21  1  0
 11 22  1  0
 11 23  1  0
 11 24  1  0
 12 25  1  0
 12 26  1  0
 12 27  1  0
M  END
>  <Ligand ID>  (1) 
LIG0005042

>  <Ligand>  (1) 
2-Isobutyl-3-methoxypyridine

>  <SMILES>  (1) 
COc1cccnc1CC(C)C

>  <CID>  (1) 
58531255.0

>  <ChEMBL ID>  (1) 
nan

>  <InChiKey>  (1) 
ZBYPSGBBPAPHDG-UHFFFAOYSA-N

>  <InChi>  (1) 
InChI=1S/C10H15NO/c1-8(2)7-9-10(12-3)5-4-6-11-9/h4-6,8H,7H2,1-3H3

>  <IUPAC Name>  (1) 
3-methoxy-2-(2-methylpropyl)pyridine

$$$$
