
     RDKit          3D

 17 17  0  0  0  0  0  0  0  0999 V2000
   -1.8591    2.4085   -0.5828 O   0  0  0  0  0  0  0  0  0  0  0  0
   -1.2092    1.2048   -0.3379 C   0  0  0  0  0  0  0  0  0  0  0  0
   -1.9165    0.0507    0.0157 C   0  0  0  0  0  0  0  0  0  0  0  0
   -1.2128   -1.1138    0.2460 C   0  0  0  0  0  0  0  0  0  0  0  0
   -1.8692   -2.2865    0.5997 O   0  0  0  0  0  0  0  0  0  0  0  0
    0.1671   -1.1076    0.1213 C   0  0  0  0  0  0  0  0  0  0  0  0
    0.8740    0.0237   -0.2265 C   0  0  0  0  0  0  0  0  0  0  0  0
    0.1728    1.1885   -0.4570 C   0  0  0  0  0  0  0  0  0  0  0  0
    2.3251    0.0239   -0.3560 C   0  0  0  0  0  0  0  0  0  0  0  0
    2.9953    1.0404   -0.6716 O   0  0  0  0  0  0  0  0  0  0  0  0
    3.0441   -1.1481   -0.1252 O   0  0  0  0  0  0  0  0  0  0  0  0
   -1.9213    3.1414    0.1381 H   0  0  0  0  0  0  0  0  0  0  0  0
   -2.9922    0.0724    0.1062 H   0  0  0  0  0  0  0  0  0  0  0  0
   -2.0215   -2.4535    1.5845 H   0  0  0  0  0  0  0  0  0  0  0  0
    0.7463   -2.0056    0.2956 H   0  0  0  0  0  0  0  0  0  0  0  0
    0.7357    2.0903   -0.7342 H   0  0  0  0  0  0  0  0  0  0  0  0
    3.9414   -1.1293    0.3840 H   0  0  0  0  0  0  0  0  0  0  0  0
  1  2  1  0
  2  3  2  0
  3  4  1  0
  4  5  1  0
  4  6  2  0
  6  7  1  0
  7  8  2  0
  7  9  1  0
  9 10  2  0
  9 11  1  0
  8  2  1  0
  1 12  1  0
  3 13  1  0
  5 14  1  0
  6 15  1  0
  8 16  1  0
 11 17  1  0
M  END
>  <Ligand ID>  (1) 
LIG0002455

>  <Ligand>  (1) 
3,5-dihydroxybenzoic acid

>  <SMILES>  (1) 
Oc1cc(O)cc(c1)C(=O)O

>  <CID>  (1) 
7424.0

>  <ChEMBL ID>  (1) 
nan

>  <InChiKey>  (1) 
UYEMGAFJOZZIFP-UHFFFAOYSA-N

>  <InChi>  (1) 
InChI=1S/C7H6O4/c8-5-1-4(7(10)11)2-6(9)3-5/h1-3,8-9H,(H,10,11)

>  <IUPAC Name>  (1) 
3,5-dihydroxybenzoic acid

$$$$
