
     RDKit          3D

203211  0  0  0  0  0  0  0  0999 V2000
  -11.8630    6.8958   -1.5132 O   0  0  0  0  0  0  0  0  0  0  0  0
  -10.5862    6.4961   -1.1151 C   0  0  0  0  0  0  0  0  0  0  0  0
  -10.0692    7.0306    0.0734 C   0  0  0  0  0  0  0  0  0  0  0  0
   -8.8200    6.6672    0.5073 C   0  0  0  0  0  0  0  0  0  0  0  0
   -8.0666    5.7690   -0.2329 C   0  0  0  0  0  0  0  0  0  0  0  0
   -8.5622    5.2359   -1.4019 C   0  0  0  0  0  0  0  0  0  0  0  0
   -9.8385    5.5941   -1.8641 C   0  0  0  0  0  0  0  0  0  0  0  0
   -6.7238    5.4399    0.3088 C   0  0  0  0  0  0  0  0  0  0  0  0
   -6.7834    4.2493    1.2718 C   0  0  1  0  0  0  0  0  0  0  0  0
   -5.4236    4.0178    1.7506 C   0  0  0  0  0  0  0  0  0  0  0  0
   -5.1918    4.1602    2.9963 O   0  0  0  0  0  0  0  0  0  0  0  0
   -4.3238    3.6419    0.9360 N   0  0  0  0  0  0  0  0  0  0  0  0
   -3.0014    3.4086    1.4013 C   0  0  1  0  0  0  0  0  0  0  0  0
   -2.4074    2.0717    1.2072 C   0  0  0  0  0  0  0  0  0  0  0  0
   -3.4688    0.7932    1.9654 S   0  0  0  0  0  0  0  0  0  0  0  0
   -5.2094    0.4599    0.7664 S   0  0  0  0  0  0  0  0  0  0  0  0
   -4.8477   -0.9102   -0.4219 C   0  0  0  0  0  0  0  0  0  0  0  0
   -4.7336   -2.2201    0.3793 C   0  0  2  0  0  0  0  0  0  0  0  0
   -4.2900   -3.2497   -0.5368 N   0  0  0  0  0  0  0  0  0  0  0  0
   -3.0565   -3.8639   -0.2728 C   0  0  0  0  0  0  0  0  0  0  0  0
   -2.4765   -3.4794    0.8295 O   0  0  0  0  0  0  0  0  0  0  0  0
   -2.2949   -4.8610   -1.0129 C   0  0  2  0  0  0  0  0  0  0  0  0
   -3.0082   -6.1313   -1.2543 C   0  0  0  0  0  0  0  0  0  0  0  0
   -3.4587   -6.9257   -0.1152 C   0  0  0  0  0  0  0  0  0  0  0  0
   -2.5757   -7.7874    0.5064 C   0  0  0  0  0  0  0  0  0  0  0  0
   -2.9713   -8.6123    1.5651 C   0  0  0  0  0  0  0  0  0  0  0  0
   -4.2688   -8.5426    1.9727 C   0  0  0  0  0  0  0  0  0  0  0  0
   -5.2002   -7.7002    1.3897 C   0  0  0  0  0  0  0  0  0  0  0  0
   -4.7712   -6.9134    0.3622 C   0  0  0  0  0  0  0  0  0  0  0  0
   -1.0571   -5.1665   -0.2361 N   0  0  0  0  0  0  0  0  0  0  0  0
    0.2006   -5.2040   -0.8303 C   0  0  0  0  0  0  0  0  0  0  0  0
    0.3243   -5.1020   -2.0779 O   0  0  0  0  0  0  0  0  0  0  0  0
    1.3935   -5.3619    0.0122 C   0  0  2  0  0  0  0  0  0  0  0  0
    1.4624   -4.0890    0.9438 C   0  0  0  0  0  0  0  0  0  0  0  0
    2.6457   -5.3989   -0.7080 N   0  0  0  0  0  0  0  0  0  0  0  0
    3.9148   -5.4895   -0.1269 C   0  0  0  0  0  0  0  0  0  0  0  0
    4.0150   -5.5015    1.1213 O   0  0  0  0  0  0  0  0  0  0  0  0
    5.1446   -5.5494   -1.0245 C   0  0  2  0  0  0  0  0  0  0  0  0
    5.7429   -6.9018   -0.9028 C   0  0  0  0  0  0  0  0  0  0  0  0
    4.8402   -7.9830   -1.2844 C   0  0  0  0  0  0  0  0  0  0  0  0
    5.3038   -9.1748   -1.1840 O   0  0  0  0  0  0  0  0  0  0  0  0
    3.5172   -7.8607   -1.7493 N   0  0  0  0  0  0  0  0  0  0  0  0
    6.0934   -4.5390   -0.3974 N   0  0  0  0  0  0  0  0  0  0  0  0
    5.8981   -3.2488   -0.8657 C   0  0  0  0  0  0  0  0  0  0  0  0
    4.9537   -3.1017   -1.7475 O   0  0  0  0  0  0  0  0  0  0  0  0
    6.5663   -1.9768   -0.5397 C   0  0  1  0  0  0  0  0  0  0  0  0
    5.4888   -0.9077   -0.5751 N   0  0  0  0  0  0  0  0  0  0  0  0
    4.6452   -0.8960    0.5189 C   0  0  0  0  0  0  0  0  0  0  0  0
    5.0450   -1.9098    1.2683 O   0  0  0  0  0  0  0  0  0  0  0  0
    3.5273   -0.2297    1.1378 C   0  0  0  0  0  0  0  0  0  0  0  0
    3.7199    1.0690    2.2809 S   0  0  0  0  0  0  0  0  0  0  0  0
    4.3782    2.6538    1.8701 C   0  0  0  0  0  0  0  0  0  0  0  0
    3.6504    3.2264    0.7416 C   0  0  1  0  0  0  0  0  0  0  0  0
    3.4615    4.6437    0.6082 N   0  0  0  0  0  0  0  0  0  0  0  0
    2.2889    5.0619   -0.1073 C   0  0  0  0  0  0  0  0  0  0  0  0
    1.5621    4.1638   -0.6257 O   0  0  0  0  0  0  0  0  0  0  0  0
    1.8656    6.4533   -0.2900 C   0  0  1  0  0  0  0  0  0  0  0  0
    0.5235    6.6450    0.3050 N   0  0  0  0  0  0  0  0  0  0  0  0
   -0.5820    6.6154   -0.5625 C   0  0  0  0  0  0  0  0  0  0  0  0
   -0.2563    6.3959   -1.8193 O   0  0  0  0  0  0  0  0  0  0  0  0
   -2.0045    6.7871   -0.3434 C   0  0  1  0  0  0  0  0  0  0  0  0
   -2.6250    5.6860    0.3269 N   0  0  0  0  0  0  0  0  0  0  0  0
   -2.1257    4.4998    0.8416 C   0  0  0  0  0  0  0  0  0  0  0  0
   -0.9075    4.2892    0.8701 O   0  0  0  0  0  0  0  0  0  0  0  0
   -2.3847    8.0072    0.4548 C   0  0  0  0  0  0  0  0  0  0  0  0
   -1.9227    9.2620   -0.1716 C   0  0  0  0  0  0  0  0  0  0  0  0
   -0.7050    9.9157    0.0627 C   0  0  0  0  0  0  0  0  0  0  0  0
   -0.6483   11.0392   -0.6782 N   0  0  0  0  0  0  0  0  0  0  0  0
   -1.7942   11.1059   -1.3672 C   0  0  0  0  0  0  0  0  0  0  0  0
   -2.5460   10.0456   -1.0612 N   0  0  0  0  0  0  0  0  0  0  0  0
    0.7961    6.8450    1.7141 C   0  0  0  0  0  0  0  0  0  0  0  0
    2.1920    7.3449    1.8611 C   0  0  0  0  0  0  0  0  0  0  0  0
    2.7179    7.4015    0.4568 C   0  0  0  0  0  0  0  0  0  0  0  0
    4.4792    2.8237   -0.5068 C   0  0  0  0  0  0  0  0  0  0  0  0
    4.3156    3.4425   -1.5774 O   0  0  0  0  0  0  0  0  0  0  0  0
    5.4191    1.7886   -0.4430 N   0  0  0  0  0  0  0  0  0  0  0  0
    6.1108    1.2192   -1.6158 C   0  0  1  0  0  0  0  0  0  0  0  0
    7.5416    1.3109   -1.7343 C   0  0  0  0  0  0  0  0  0  0  0  0
    8.1871    2.6352   -1.8065 C   0  0  0  0  0  0  0  0  0  0  0  0
    8.0281    3.5591   -0.6417 C   0  0  0  0  0  0  0  0  0  0  0  0
    8.7347    4.8330   -0.8881 N   0  0  0  0  0  0  0  0  0  0  0  0
    9.9989    4.9476   -0.6873 C   0  0  0  0  0  0  0  0  0  0  0  0
   10.7250    3.8105   -0.2161 N   0  0  0  0  0  0  0  0  0  0  0  0
   10.6149    6.2021   -0.9378 N   0  0  0  0  0  0  0  0  0  0  0  0
    5.4830   -0.1668   -1.7931 C   0  0  0  0  0  0  0  0  0  0  0  0
    7.5587   -1.9431    0.4884 C   0  0  0  0  0  0  0  0  0  0  0  0
    8.7241   -2.7981    0.0494 C   0  0  0  0  0  0  0  0  0  0  0  0
    8.8737   -3.5268   -1.0999 C   0  0  0  0  0  0  0  0  0  0  0  0
   10.0875   -4.1042   -1.0825 N   0  0  0  0  0  0  0  0  0  0  0  0
   10.7123   -3.7534    0.0613 C   0  0  0  0  0  0  0  0  0  0  0  0
    9.8768   -2.9246    0.8053 C   0  0  0  0  0  0  0  0  0  0  0  0
   10.3252   -2.4310    2.0186 C   0  0  0  0  0  0  0  0  0  0  0  0
   11.5850   -2.7373    2.5217 C   0  0  0  0  0  0  0  0  0  0  0  0
   12.3601   -3.5567    1.7428 C   0  0  0  0  0  0  0  0  0  0  0  0
   11.9601   -4.0702    0.5313 C   0  0  0  0  0  0  0  0  0  0  0  0
   -6.0919   -2.4183    0.9321 C   0  0  0  0  0  0  0  0  0  0  0  0
   -6.5086   -1.5267    1.7294 O   0  0  0  0  0  0  0  0  0  0  0  0
   -6.9524   -3.4913    0.6594 N   0  0  0  0  0  0  0  0  0  0  0  0
   -8.2518   -3.5847    1.2632 C   0  0  2  0  0  0  0  0  0  0  0  0
   -8.3036   -4.6567    2.3171 C   0  0  0  0  0  0  0  0  0  0  0  0
   -7.2575   -5.3268    2.5361 O   0  0  0  0  0  0  0  0  0  0  0  0
   -9.4514   -4.9394    3.0580 N   0  0  0  0  0  0  0  0  0  0  0  0
   -9.4018   -3.7295    0.3664 C   0  0  0  0  0  0  0  0  0  0  0  0
   -9.3804   -4.9268   -0.5109 C   0  0  0  0  0  0  0  0  0  0  0  0
   -8.8055   -4.8488   -1.7759 C   0  0  0  0  0  0  0  0  0  0  0  0
   -8.7497   -5.9118   -2.6441 C   0  0  0  0  0  0  0  0  0  0  0  0
   -9.2879   -7.1206   -2.2480 C   0  0  0  0  0  0  0  0  0  0  0  0
   -9.8774   -7.2541   -0.9828 C   0  0  0  0  0  0  0  0  0  0  0  0
   -9.9032   -6.1485   -0.1560 C   0  0  0  0  0  0  0  0  0  0  0  0
   -9.2852   -8.2564   -3.0497 O   0  0  0  0  0  0  0  0  0  0  0  0
   -7.5893    4.5894    2.4278 N   0  0  0  0  0  0  0  0  0  0  0  0
  -12.5622    6.8830   -0.7471 H   0  0  0  0  0  0  0  0  0  0  0  0
  -10.6862    7.7175    0.6234 H   0  0  0  0  0  0  0  0  0  0  0  0
   -8.4564    7.1094    1.4304 H   0  0  0  0  0  0  0  0  0  0  0  0
   -7.9649    4.5236   -1.9870 H   0  0  0  0  0  0  0  0  0  0  0  0
  -10.2466    5.1999   -2.7824 H   0  0  0  0  0  0  0  0  0  0  0  0
   -6.0620    5.2162   -0.5461 H   0  0  0  0  0  0  0  0  0  0  0  0
   -6.3044    6.3425    0.7896 H   0  0  0  0  0  0  0  0  0  0  0  0
   -7.1509    3.3689    0.7349 H   0  0  0  0  0  0  0  0  0  0  0  0
   -4.5522    3.5342   -0.0987 H   0  0  0  0  0  0  0  0  0  0  0  0
   -3.0081    3.6068    2.5129 H   0  0  0  0  0  0  0  0  0  0  0  0
   -1.4237    2.0583    1.7263 H   0  0  0  0  0  0  0  0  0  0  0  0
   -2.3032    1.7771    0.1338 H   0  0  0  0  0  0  0  0  0  0  0  0
   -3.9455   -0.6674   -0.9722 H   0  0  0  0  0  0  0  0  0  0  0  0
   -5.7090   -0.9247   -1.1026 H   0  0  0  0  0  0  0  0  0  0  0  0
   -3.9981   -2.0060    1.1869 H   0  0  0  0  0  0  0  0  0  0  0  0
   -4.9048   -3.4861   -1.3500 H   0  0  0  0  0  0  0  0  0  0  0  0
   -1.9605   -4.4755   -2.0268 H   0  0  0  0  0  0  0  0  0  0  0  0
   -3.9069   -5.9525   -1.9361 H   0  0  0  0  0  0  0  0  0  0  0  0
   -2.3526   -6.7653   -1.9394 H   0  0  0  0  0  0  0  0  0  0  0  0
   -1.5562   -7.8411    0.1787 H   0  0  0  0  0  0  0  0  0  0  0  0
   -2.2843   -9.2863    2.0560 H   0  0  0  0  0  0  0  0  0  0  0  0
   -4.5749   -9.1809    2.7891 H   0  0  0  0  0  0  0  0  0  0  0  0
   -6.1992   -7.7371    1.7917 H   0  0  0  0  0  0  0  0  0  0  0  0
   -5.4750   -6.2572   -0.1076 H   0  0  0  0  0  0  0  0  0  0  0  0
   -1.2620   -5.3371    0.7882 H   0  0  0  0  0  0  0  0  0  0  0  0
    1.3270   -6.1604    0.7300 H   0  0  0  0  0  0  0  0  0  0  0  0
    1.8041   -3.2689    0.3068 H   0  0  0  0  0  0  0  0  0  0  0  0
    0.4104   -3.9127    1.2473 H   0  0  0  0  0  0  0  0  0  0  0  0
    2.0619   -4.3585    1.7987 H   0  0  0  0  0  0  0  0  0  0  0  0
    2.5464   -5.3317   -1.7748 H   0  0  0  0  0  0  0  0  0  0  0  0
    4.8461   -5.2479   -2.0191 H   0  0  0  0  0  0  0  0  0  0  0  0
    6.7096   -6.9422   -1.4951 H   0  0  0  0  0  0  0  0  0  0  0  0
    6.1152   -7.0798    0.1522 H   0  0  0  0  0  0  0  0  0  0  0  0
    2.7373   -8.2393   -1.1834 H   0  0  0  0  0  0  0  0  0  0  0  0
    3.3551   -7.3825   -2.6755 H   0  0  0  0  0  0  0  0  0  0  0  0
    6.7799   -4.8732    0.3048 H   0  0  0  0  0  0  0  0  0  0  0  0
    7.1754   -1.8044   -1.5234 H   0  0  0  0  0  0  0  0  0  0  0  0
    2.9119   -1.0311    1.7549 H   0  0  0  0  0  0  0  0  0  0  0  0
    2.6547    0.0636    0.4516 H   0  0  0  0  0  0  0  0  0  0  0  0
    5.4764    2.6310    1.8221 H   0  0  0  0  0  0  0  0  0  0  0  0
    4.1767    3.3252    2.7715 H   0  0  0  0  0  0  0  0  0  0  0  0
    2.6871    2.6757    0.5087 H   0  0  0  0  0  0  0  0  0  0  0  0
    4.1545    5.2776    1.0134 H   0  0  0  0  0  0  0  0  0  0  0  0
    1.8140    6.7156   -1.3893 H   0  0  0  0  0  0  0  0  0  0  0  0
   -2.5122    6.8954   -1.3705 H   0  0  0  0  0  0  0  0  0  0  0  0
   -3.7055    5.8062    0.4415 H   0  0  0  0  0  0  0  0  0  0  0  0
   -3.5164    8.0814    0.4282 H   0  0  0  0  0  0  0  0  0  0  0  0
   -2.1525    7.9094    1.5205 H   0  0  0  0  0  0  0  0  0  0  0  0
    0.1014    9.6143    0.7259 H   0  0  0  0  0  0  0  0  0  0  0  0
   -2.0455   11.9058   -2.0598 H   0  0  0  0  0  0  0  0  0  0  0  0
   -3.5117    9.8077   -1.4369 H   0  0  0  0  0  0  0  0  0  0  0  0
    0.7038    5.9104    2.3200 H   0  0  0  0  0  0  0  0  0  0  0  0
    0.1402    7.6525    2.1539 H   0  0  0  0  0  0  0  0  0  0  0  0
    2.8132    6.6086    2.4243 H   0  0  0  0  0  0  0  0  0  0  0  0
    2.2533    8.3533    2.3514 H   0  0  0  0  0  0  0  0  0  0  0  0
    2.5339    8.4338    0.0186 H   0  0  0  0  0  0  0  0  0  0  0  0
    3.7989    7.1575    0.3802 H   0  0  0  0  0  0  0  0  0  0  0  0
    5.7240    1.3307    0.4486 H   0  0  0  0  0  0  0  0  0  0  0  0
    5.6324    1.7919   -2.4282 H   0  0  0  0  0  0  0  0  0  0  0  0
    7.8540    0.7742   -2.7051 H   0  0  0  0  0  0  0  0  0  0  0  0
    8.1349    0.7151   -0.9870 H   0  0  0  0  0  0  0  0  0  0  0  0
    9.3118    2.4532   -1.8724 H   0  0  0  0  0  0  0  0  0  0  0  0
    7.9916    3.1683   -2.7807 H   0  0  0  0  0  0  0  0  0  0  0  0
    8.4932    3.1768    0.2875 H   0  0  0  0  0  0  0  0  0  0  0  0
    6.9863    3.8726   -0.4861 H   0  0  0  0  0  0  0  0  0  0  0  0
   10.5637    3.4455    0.7235 H   0  0  0  0  0  0  0  0  0  0  0  0
   11.4320    3.3307   -0.8225 H   0  0  0  0  0  0  0  0  0  0  0  0
   11.6291    6.2332   -1.1501 H   0  0  0  0  0  0  0  0  0  0  0  0
   10.0025    7.0783   -0.8961 H   0  0  0  0  0  0  0  0  0  0  0  0
    6.1746   -0.6407   -2.5616 H   0  0  0  0  0  0  0  0  0  0  0  0
    4.5636   -0.0685   -2.3583 H   0  0  0  0  0  0  0  0  0  0  0  0
    7.1922   -2.3770    1.4637 H   0  0  0  0  0  0  0  0  0  0  0  0
    8.0025   -0.9449    0.6524 H   0  0  0  0  0  0  0  0  0  0  0  0
    8.1849   -3.6479   -1.9144 H   0  0  0  0  0  0  0  0  0  0  0  0
   10.5042   -4.7328   -1.8259 H   0  0  0  0  0  0  0  0  0  0  0  0
    9.6529   -1.7931    2.5657 H   0  0  0  0  0  0  0  0  0  0  0  0
   11.9103   -2.3412    3.4769 H   0  0  0  0  0  0  0  0  0  0  0  0
   13.3607   -3.8319    2.0920 H   0  0  0  0  0  0  0  0  0  0  0  0
   12.6491   -4.7098   -0.0194 H   0  0  0  0  0  0  0  0  0  0  0  0
   -6.6224   -4.2231    0.0008 H   0  0  0  0  0  0  0  0  0  0  0  0
   -8.4021   -2.6370    1.8631 H   0  0  0  0  0  0  0  0  0  0  0  0
   -9.5451   -5.8571    3.5484 H   0  0  0  0  0  0  0  0  0  0  0  0
  -10.2751   -4.2965    3.1823 H   0  0  0  0  0  0  0  0  0  0  0  0
   -9.6654   -2.8050   -0.2064 H   0  0  0  0  0  0  0  0  0  0  0  0
  -10.3052   -3.8953    1.0234 H   0  0  0  0  0  0  0  0  0  0  0  0
   -8.3714   -3.9177   -2.1250 H   0  0  0  0  0  0  0  0  0  0  0  0
   -8.2879   -5.8242   -3.6230 H   0  0  0  0  0  0  0  0  0  0  0  0
  -10.2936   -8.2158   -0.6742 H   0  0  0  0  0  0  0  0  0  0  0  0
  -10.3582   -6.2738    0.8069 H   0  0  0  0  0  0  0  0  0  0  0  0
  -10.1795   -8.6039   -3.3833 H   0  0  0  0  0  0  0  0  0  0  0  0
   -8.5864    4.5525    2.1336 H   0  0  0  0  0  0  0  0  0  0  0  0
   -7.4838    3.7935    3.1194 H   0  0  0  0  0  0  0  0  0  0  0  0
  1  2  1  0
  2  3  2  0
  3  4  1  0
  4  5  2  0
  5  6  1  0
  6  7  2  0
  5  8  1  0
  8  9  1  0
  9 10  1  0
 10 11  2  0
 10 12  1  0
 12 13  1  0
 13 14  1  0
 14 15  1  0
 15 16  1  0
 16 17  1  0
 17 18  1  0
 18 19  1  0
 19 20  1  0
 20 21  2  0
 20 22  1  0
 22 23  1  0
 23 24  1  0
 24 25  2  0
 25 26  1  0
 26 27  2  0
 27 28  1  0
 28 29  2  0
 22 30  1  0
 30 31  1  0
 31 32  2  0
 31 33  1  0
 33 34  1  0
 33 35  1  0
 35 36  1  0
 36 37  2  0
 36 38  1  0
 38 39  1  0
 39 40  1  0
 40 41  2  0
 40 42  1  0
 38 43  1  0
 43 44  1  0
 44 45  2  0
 44 46  1  0
 46 47  1  0
 47 48  1  0
 48 49  2  0
 48 50  1  0
 50 51  1  0
 51 52  1  0
 52 53  1  0
 53 54  1  0
 54 55  1  0
 55 56  2  0
 55 57  1  0
 57 58  1  0
 58 59  1  0
 59 60  2  0
 59 61  1  0
 61 62  1  0
 62 63  1  0
 63 64  2  0
 61 65  1  0
 65 66  1  0
 66 67  2  0
 67 68  1  0
 68 69  2  0
 69 70  1  0
 58 71  1  0
 71 72  1  0
 72 73  1  0
 53 74  1  0
 74 75  2  0
 74 76  1  0
 76 77  1  0
 77 78  1  0
 78 79  1  0
 79 80  1  0
 80 81  1  0
 81 82  2  3
 82 83  1  0
 82 84  1  0
 77 85  1  0
 46 86  1  0
 86 87  1  0
 87 88  2  0
 88 89  1  0
 89 90  1  0
 90 91  2  0
 91 92  1  0
 92 93  2  0
 93 94  1  0
 94 95  2  0
 18 96  1  0
 96 97  2  0
 96 98  1  0
 98 99  1  0
 99100  1  0
100101  2  0
100102  1  0
 99103  1  0
103104  1  0
104105  2  0
105106  1  0
106107  2  0
107108  1  0
108109  2  0
107110  1  0
  9111  1  0
  7  2  1  0
 63 13  1  0
 70 66  1  0
 91 87  1  0
109104  1  0
 29 24  1  0
 85 47  1  0
 95 90  1  0
 73 57  1  0
  1112  1  0
  3113  1  0
  4114  1  0
  6115  1  0
  7116  1  0
  8117  1  0
  8118  1  0
  9119  1  6
 12120  1  0
 13121  1  1
 14122  1  0
 14123  1  0
 17124  1  0
 17125  1  0
 18126  1  1
 19127  1  0
 22128  1  6
 23129  1  0
 23130  1  0
 25131  1  0
 26132  1  0
 27133  1  0
 28134  1  0
 29135  1  0
 30136  1  0
 33137  1  1
 34138  1  0
 34139  1  0
 34140  1  0
 35141  1  0
 38142  1  6
 39143  1  0
 39144  1  0
 42145  1  0
 42146  1  0
 43147  1  0
 46148  1  6
 50149  1  0
 50150  1  0
 52151  1  0
 52152  1  0
 53153  1  6
 54154  1  0
 57155  1  6
 61156  1  6
 62157  1  0
 65158  1  0
 65159  1  0
 67160  1  0
 69161  1  0
 70162  1  0
 71163  1  0
 71164  1  0
 72165  1  0
 72166  1  0
 73167  1  0
 73168  1  0
 76169  1  0
 77170  1  6
 78171  1  0
 78172  1  0
 79173  1  0
 79174  1  0
 80175  1  0
 80176  1  0
 83177  1  0
 83178  1  0
 84179  1  0
 84180  1  0
 85181  1  0
 85182  1  0
 86183  1  0
 86184  1  0
 88185  1  0
 89186  1  0
 92187  1  0
 93188  1  0
 94189  1  0
 95190  1  0
 98191  1  0
 99192  1  1
102193  1  0
102194  1  0
103195  1  0
103196  1  0
105197  1  0
106198  1  0
108199  1  0
109200  1  0
110201  1  0
111202  1  0
111203  1  0
M  END
>  <Ligand ID>  (1) 
LIG0001151

>  <Ligand>  (1) 
BDBM50427690

>  <SMILES>  (1) 
Oc1ccc(cc1)C[C@@H](C(=O)N[C@H]1CSSC[C@H](NC(=O)[C@H](Cc2ccccc2)NC(=O)[C@H](C)NC(=O)[C@H](CC(=O)N)NC(=O)[C@@H](N2C(=O)CSC[C@@H](NC(=O)[C@H]3N(C(=O)[C@@H](NC1=O)Cc1cnc[nH]1)CCC3)C(=O)N[C@@H](CCCN=C(N)N)C2)Cc1c[nH]c2c1cccc2)C(=O)N[C@H](C(=O)N)Cc1ccc(cc1)O)N

>  <CID>  (1) 
91899987.0

>  <ChEMBL ID>  (1) 
nan

>  <InChiKey>  (1) 
VEILVGZVAAYSGV-LPUQDNEISA-N

>  <InChi>  (1) 
InChI=1S/C73H92N20O15S3/c1-39-63(99)86-52(27-40-9-3-2-4-10-40)66(102)90-57(68(104)85-51(62(76)98)26-42-17-21-47(95)22-18-42)36-111-110-35-56(89-64(100)49(74)25-41-15-19-46(94)20-16-41)69(105)88-54(29-45-32-79-38-82-45)72(108)92-24-8-14-58(92)70(106)91-55-34-109-37-61(97)93(33-44(84-67(55)103)11-7-23-80-73(77)78)59(28-43-31-81-50-13-6-5-12-48(43)50)71(107)87-53(30-60(75)96)65(101)83-39/h2-6,9-10,12-13,15-22,31-32,38-39,44,49,51-59,81,94-95H,7-8,11,14,23-30,33-37,74H2,1H3,(H2,75,96)(H2,76,98)(H,79,82)(H,83,101)(H,84,103)(H,85,104)(H,86,99)(H,87,107)(H,88,105)(H,89,100)(H,90,102)(H,91,106)(H4,77,78,80)/t39-,44-,49-,51-,52-,53-,54-,55+,56-,57-,58-,59-/m0/s1

>  <IUPAC Name>  (1) 
(1S,4S,10S,13R,18R,21S,24S,27S,30S,38S)-N-[(2S)-1-amino-3-(4-hydroxyphenyl)-1-oxopropan-2-yl]-13-[[(2S)-2-amino-3-(4-hydroxyphenyl)propanoyl]amino]-27-(2-amino-2-oxoethyl)-21-benzyl-38-[3-(diaminomethylideneamino)propyl]-10-(1H-imidazol-5-ylmethyl)-30-(1H-indol-3-ylmethyl)-24-methyl-3,9,12,20,23,26,29,32,36-nonaoxo-15,16,34-trithia-2,8,11,19,22,25,28,31,37-nonazatricyclo[29.4.4.04,8]nonatriacontane-18-carboxamide

$$$$
