
     RDKit          3D

 46 47  0  0  0  0  0  0  0  0999 V2000
    7.4819   -0.5605   -0.5279 C   0  0  0  0  0  0  0  0  0  0  0  0
    6.5014   -0.8851   -1.5040 O   0  0  0  0  0  0  0  0  0  0  0  0
    5.1748   -0.8940   -1.0895 C   0  0  0  0  0  0  0  0  0  0  0  0
    4.8602   -0.5960    0.2195 C   0  0  0  0  0  0  0  0  0  0  0  0
    3.5495   -0.5993    0.6510 C   0  0  0  0  0  0  0  0  0  0  0  0
    2.4982   -0.9038   -0.2200 C   0  0  0  0  0  0  0  0  0  0  0  0
    2.8360   -1.2025   -1.5393 C   0  0  0  0  0  0  0  0  0  0  0  0
    4.1523   -1.1993   -1.9737 C   0  0  0  0  0  0  0  0  0  0  0  0
    1.1188   -0.8966    0.2774 C   0  0  0  0  0  0  0  0  0  0  0  0
    0.4399    0.4308    0.1536 C   0  0  1  0  0  0  0  0  0  0  0  0
   -0.9042    0.4225    0.6425 N   0  0  0  0  0  0  0  0  0  0  0  0
   -1.6033    1.6650    0.5496 C   0  0  0  0  0  0  0  0  0  0  0  0
   -3.0085    1.6051    1.0747 C   0  0  1  0  0  0  0  0  0  0  0  0
   -3.8905    0.7467    0.2526 C   0  0  0  0  0  0  0  0  0  0  0  0
   -3.5242    0.2305   -0.9758 C   0  0  0  0  0  0  0  0  0  0  0  0
   -4.4582   -0.5617   -1.6363 C   0  0  0  0  0  0  0  0  0  0  0  0
   -4.1390   -1.1085   -2.8813 O   0  0  0  0  0  0  0  0  0  0  0  0
   -5.7058   -0.8304   -1.0986 C   0  0  0  0  0  0  0  0  0  0  0  0
   -6.0572   -0.3168    0.1128 C   0  0  0  0  0  0  0  0  0  0  0  0
   -5.1498    0.4682    0.7821 C   0  0  0  0  0  0  0  0  0  0  0  0
   -7.3032   -0.5483    0.7162 O   0  0  0  0  0  0  0  0  0  0  0  0
   -2.9974    1.2422    2.4119 O   0  0  0  0  0  0  0  0  0  0  0  0
    1.2843    1.5164    0.8011 C   0  0  0  0  0  0  0  0  0  0  0  0
    7.4373   -1.3347    0.2801 H   0  0  0  0  0  0  0  0  0  0  0  0
    7.3106    0.4433   -0.1111 H   0  0  0  0  0  0  0  0  0  0  0  0
    8.4957   -0.5623   -0.9799 H   0  0  0  0  0  0  0  0  0  0  0  0
    5.6243   -0.3477    0.9611 H   0  0  0  0  0  0  0  0  0  0  0  0
    3.3296   -0.3576    1.7008 H   0  0  0  0  0  0  0  0  0  0  0  0
    2.0473   -1.4420   -2.2378 H   0  0  0  0  0  0  0  0  0  0  0  0
    4.3860   -1.4384   -3.0173 H   0  0  0  0  0  0  0  0  0  0  0  0
    0.5316   -1.6181   -0.3427 H   0  0  0  0  0  0  0  0  0  0  0  0
    1.0401   -1.2655    1.3275 H   0  0  0  0  0  0  0  0  0  0  0  0
    0.4161    0.6839   -0.9332 H   0  0  0  0  0  0  0  0  0  0  0  0
   -0.9438   -0.0206    1.5777 H   0  0  0  0  0  0  0  0  0  0  0  0
   -1.5490    2.0465   -0.4696 H   0  0  0  0  0  0  0  0  0  0  0  0
   -1.0695    2.4201    1.1978 H   0  0  0  0  0  0  0  0  0  0  0  0
   -3.4217    2.6475    1.0226 H   0  0  0  0  0  0  0  0  0  0  0  0
   -2.5553    0.4495   -1.3748 H   0  0  0  0  0  0  0  0  0  0  0  0
   -4.6467   -1.9250   -3.2100 H   0  0  0  0  0  0  0  0  0  0  0  0
   -6.4342   -1.4517   -1.6201 H   0  0  0  0  0  0  0  0  0  0  0  0
   -5.4409    0.8800    1.7612 H   0  0  0  0  0  0  0  0  0  0  0  0
   -7.3138   -0.6742    1.7227 H   0  0  0  0  0  0  0  0  0  0  0  0
   -2.9704    0.2699    2.4604 H   0  0  0  0  0  0  0  0  0  0  0  0
    2.2941    1.4999    0.3459 H   0  0  0  0  0  0  0  0  0  0  0  0
    0.8689    2.5208    0.5705 H   0  0  0  0  0  0  0  0  0  0  0  0
    1.4080    1.3522    1.8816 H   0  0  0  0  0  0  0  0  0  0  0  0
  1  2  1  0
  2  3  1  0
  3  4  2  0
  4  5  1  0
  5  6  2  0
  6  7  1  0
  7  8  2  0
  6  9  1  0
  9 10  1  0
 10 11  1  0
 11 12  1  0
 12 13  1  0
 13 14  1  0
 14 15  2  0
 15 16  1  0
 16 17  1  0
 16 18  2  0
 18 19  1  0
 19 20  2  0
 19 21  1  0
 13 22  1  0
 10 23  1  0
  8  3  1  0
 20 14  1  0
  1 24  1  0
  1 25  1  0
  1 26  1  0
  4 27  1  0
  5 28  1  0
  7 29  1  0
  8 30  1  0
  9 31  1  0
  9 32  1  0
 10 33  1  6
 11 34  1  0
 12 35  1  0
 12 36  1  0
 13 37  1  1
 15 38  1  0
 17 39  1  0
 18 40  1  0
 20 41  1  0
 21 42  1  0
 22 43  1  0
 23 44  1  0
 23 45  1  0
 23 46  1  0
M  END
>  <Ligand ID>  (1) 
LIG0005208

>  <Ligand>  (1) 
CHEMBL228996

>  <SMILES>  (1) 
COc1ccc(cc1)C[C@@H](NC[C@@H](c1cc(O)cc(c1)O)O)C

>  <CID>  (1) 
16736091.0

>  <ChEMBL ID>  (1) 
nan

>  <InChiKey>  (1) 
WHAUNCTVVNUUIP-SGTLLEGYSA-N

>  <InChi>  (1) 
InChI=1S/C18H23NO4/c1-12(7-13-3-5-17(23-2)6-4-13)19-11-18(22)14-8-15(20)10-16(21)9-14/h3-6,8-10,12,18-22H,7,11H2,1-2H3/t12-,18-/m0/s1

>  <IUPAC Name>  (1) 
5-[(1R)-1-hydroxy-2-[[(2S)-1-(4-methoxyphenyl)propan-2-yl]amino]ethyl]benzene-1,3-diol

$$$$
