
     RDKit          3D

 73 77  0  0  0  0  0  0  0  0999 V2000
    5.8556    1.1717   -2.3182 C   0  0  0  0  0  0  0  0  0  0  0  0
    4.9269    1.4274   -1.2381 N   0  0  0  0  0  0  0  0  0  0  0  0
    4.7928    2.8411   -0.9525 C   0  0  0  0  0  0  0  0  0  0  0  0
    3.7983    2.9843    0.1811 C   0  0  0  0  0  0  0  0  0  0  0  0
    3.4776    1.6257    0.8156 C   0  0  0  0  0  0  0  0  0  0  0  0
    2.8329    0.7445   -0.2395 C   0  0  1  0  0  0  0  0  0  0  0  0
    3.6160    0.9013   -1.5484 C   0  0  0  0  0  0  0  0  0  0  0  0
    2.9706   -0.6869    0.1721 C   0  0  0  0  0  0  0  0  0  0  0  0
    4.1698   -1.2634    0.3488 N   0  0  0  0  0  0  0  0  0  0  0  0
    3.9814   -2.5424    0.7136 C   0  0  0  0  0  0  0  0  0  0  0  0
    2.6206   -2.7240    0.7525 C   0  0  0  0  0  0  0  0  0  0  0  0
    1.9754   -1.5801    0.4185 N   0  0  0  0  0  0  0  0  0  0  0  0
    0.5813   -1.3188    0.3309 C   0  0  0  0  0  0  0  0  0  0  0  0
   -0.0384   -1.5443   -1.0315 C   0  0  0  0  0  0  0  0  0  0  0  0
   -1.5348   -1.2715   -0.8382 C   0  0  0  0  0  0  0  0  0  0  0  0
   -1.7602   -0.4517    0.3002 N   0  0  0  0  0  0  0  0  0  0  0  0
   -1.5047   -1.0567    1.5729 C   0  0  0  0  0  0  0  0  0  0  0  0
   -0.3052   -1.9932    1.3225 C   0  0  0  0  0  0  0  0  0  0  0  0
   -2.9289    0.3954    0.2563 C   0  0  0  0  0  0  0  0  0  0  0  0
   -2.8844    1.1265    1.5960 C   0  0  0  0  0  0  0  0  0  0  0  0
   -2.8023    1.2975   -0.9232 C   0  0  0  0  0  0  0  0  0  0  0  0
   -3.4797    2.6220   -0.8258 C   0  0  0  0  0  0  0  0  0  0  0  0
   -4.8829    2.6059   -1.4238 C   0  0  0  0  0  0  0  0  0  0  0  0
   -5.9489    2.2400   -0.4493 C   0  0  0  0  0  0  0  0  0  0  0  0
   -6.2068    0.7428   -0.4006 C   0  0  0  0  0  0  0  0  0  0  0  0
   -5.4017    0.0450    0.6541 C   0  0  0  0  0  0  0  0  0  0  0  0
   -4.1195   -0.5305    0.1627 C   0  0  0  0  0  0  0  0  0  0  0  0
    2.1667   -3.9782    1.1073 C   0  0  0  0  0  0  0  0  0  0  0  0
    3.0397   -4.9847    1.4041 C   0  0  0  0  0  0  0  0  0  0  0  0
    4.4269   -4.8018    1.3651 C   0  0  0  0  0  0  0  0  0  0  0  0
    4.8854   -3.5461    1.0098 C   0  0  0  0  0  0  0  0  0  0  0  0
    6.7140    1.8585   -2.1920 H   0  0  0  0  0  0  0  0  0  0  0  0
    6.2390    0.1437   -2.1770 H   0  0  0  0  0  0  0  0  0  0  0  0
    5.4067    1.3270   -3.3268 H   0  0  0  0  0  0  0  0  0  0  0  0
    4.3261    3.2877   -1.8560 H   0  0  0  0  0  0  0  0  0  0  0  0
    5.7766    3.3008   -0.7165 H   0  0  0  0  0  0  0  0  0  0  0  0
    2.8379    3.4419   -0.1628 H   0  0  0  0  0  0  0  0  0  0  0  0
    4.2817    3.6075    0.9602 H   0  0  0  0  0  0  0  0  0  0  0  0
    4.4284    1.2317    1.1739 H   0  0  0  0  0  0  0  0  0  0  0  0
    2.7178    1.8004    1.5853 H   0  0  0  0  0  0  0  0  0  0  0  0
    1.7999    1.0797   -0.3448 H   0  0  0  0  0  0  0  0  0  0  0  0
    3.7676   -0.0860   -2.0345 H   0  0  0  0  0  0  0  0  0  0  0  0
    3.0142    1.5638   -2.2081 H   0  0  0  0  0  0  0  0  0  0  0  0
    0.4519   -0.2035    0.4880 H   0  0  0  0  0  0  0  0  0  0  0  0
    0.2938   -0.8380   -1.7897 H   0  0  0  0  0  0  0  0  0  0  0  0
    0.1524   -2.5615   -1.4245 H   0  0  0  0  0  0  0  0  0  0  0  0
   -1.9980   -2.2974   -0.7483 H   0  0  0  0  0  0  0  0  0  0  0  0
   -1.9861   -0.8319   -1.7289 H   0  0  0  0  0  0  0  0  0  0  0  0
   -2.3632   -1.6509    1.9537 H   0  0  0  0  0  0  0  0  0  0  0  0
   -1.1278   -0.3232    2.3142 H   0  0  0  0  0  0  0  0  0  0  0  0
    0.1682   -2.2783    2.2719 H   0  0  0  0  0  0  0  0  0  0  0  0
   -0.8331   -2.8631    0.8253 H   0  0  0  0  0  0  0  0  0  0  0  0
   -1.8595    1.5591    1.6753 H   0  0  0  0  0  0  0  0  0  0  0  0
   -3.6613    1.8680    1.7351 H   0  0  0  0  0  0  0  0  0  0  0  0
   -3.0576    0.3388    2.3668 H   0  0  0  0  0  0  0  0  0  0  0  0
   -3.2949    0.7695   -1.7920 H   0  0  0  0  0  0  0  0  0  0  0  0
   -1.7334    1.4344   -1.1664 H   0  0  0  0  0  0  0  0  0  0  0  0
   -2.9177    3.3205   -1.5165 H   0  0  0  0  0  0  0  0  0  0  0  0
   -3.4246    3.1261    0.1470 H   0  0  0  0  0  0  0  0  0  0  0  0
   -5.1270    3.6257   -1.8437 H   0  0  0  0  0  0  0  0  0  0  0  0
   -4.8122    1.9468   -2.3069 H   0  0  0  0  0  0  0  0  0  0  0  0
   -5.6491    2.5485    0.5687 H   0  0  0  0  0  0  0  0  0  0  0  0
   -6.8897    2.8195   -0.6526 H   0  0  0  0  0  0  0  0  0  0  0  0
   -7.2862    0.6374   -0.1453 H   0  0  0  0  0  0  0  0  0  0  0  0
   -6.0765    0.3103   -1.4090 H   0  0  0  0  0  0  0  0  0  0  0  0
   -5.3154    0.6896    1.5435 H   0  0  0  0  0  0  0  0  0  0  0  0
   -6.0232   -0.8285    1.0116 H   0  0  0  0  0  0  0  0  0  0  0  0
   -3.9093   -1.5148    0.6301 H   0  0  0  0  0  0  0  0  0  0  0  0
   -4.2624   -0.7687   -0.9220 H   0  0  0  0  0  0  0  0  0  0  0  0
    1.1223   -4.1734    1.1529 H   0  0  0  0  0  0  0  0  0  0  0  0
    2.7108   -5.9944    1.6900 H   0  0  0  0  0  0  0  0  0  0  0  0
    5.1176   -5.6006    1.6005 H   0  0  0  0  0  0  0  0  0  0  0  0
    5.9615   -3.3198    0.9553 H   0  0  0  0  0  0  0  0  0  0  0  0
  1  2  1  0
  2  3  1  0
  3  4  1  0
  4  5  1  0
  5  6  1  0
  6  7  1  0
  6  8  1  0
  8  9  2  0
  9 10  1  0
 10 11  2  0
 11 12  1  0
 12 13  1  0
 13 14  1  0
 14 15  1  0
 15 16  1  0
 16 17  1  0
 17 18  1  0
 16 19  1  0
 19 20  1  0
 19 21  1  0
 21 22  1  0
 22 23  1  0
 23 24  1  0
 24 25  1  0
 25 26  1  0
 26 27  1  0
 11 28  1  0
 28 29  2  0
 29 30  1  0
 30 31  2  0
  7  2  1  0
 12  8  1  0
 18 13  1  0
 27 19  1  0
 31 10  1  0
  1 32  1  0
  1 33  1  0
  1 34  1  0
  3 35  1  0
  3 36  1  0
  4 37  1  0
  4 38  1  0
  5 39  1  0
  5 40  1  0
  6 41  1  6
  7 42  1  0
  7 43  1  0
 13 44  1  0
 14 45  1  0
 14 46  1  0
 15 47  1  0
 15 48  1  0
 17 49  1  0
 17 50  1  0
 18 51  1  0
 18 52  1  0
 20 53  1  0
 20 54  1  0
 20 55  1  0
 21 56  1  0
 21 57  1  0
 22 58  1  0
 22 59  1  0
 23 60  1  0
 23 61  1  0
 24 62  1  0
 24 63  1  0
 25 64  1  0
 25 65  1  0
 26 66  1  0
 26 67  1  0
 27 68  1  0
 27 69  1  0
 28 70  1  0
 29 71  1  0
 30 72  1  0
 31 73  1  0
M  END
>  <Ligand ID>  (1) 
LIG0001664

>  <Ligand>  (1) 
CHEMBL501331

>  <SMILES>  (1) 
CN1CCC[C@@H](C1)c1nc2c(n1C1CCN(CC1)C1(C)CCCCCCC1)cccc2

>  <CID>  (1) 
25208099.0

>  <ChEMBL ID>  (1) 
nan

>  <InChiKey>  (1) 
POYRSGAKCBVQQE-QFIPXVFZSA-N

>  <InChi>  (1) 
InChI=1S/C27H42N4/c1-27(16-8-4-3-5-9-17-27)30-19-14-23(15-20-30)31-25-13-7-6-12-24(25)28-26(31)22-11-10-18-29(2)21-22/h6-7,12-13,22-23H,3-5,8-11,14-21H2,1-2H3/t22-/m0/s1

>  <IUPAC Name>  (1) 
1-[1-(1-methylcyclooctyl)piperidin-4-yl]-2-[(3S)-1-methylpiperidin-3-yl]benzimidazole

$$$$
