
     RDKit          3D

 32 33  0  0  0  0  0  0  0  0999 V2000
   -5.3343   -1.6149   -1.7897 Cl  0  0  0  0  0  0  0  0  0  0  0  0
   -3.6786   -1.1820   -1.3434 C   0  0  0  0  0  0  0  0  0  0  0  0
   -2.6085   -1.6917   -2.0518 C   0  0  0  0  0  0  0  0  0  0  0  0
   -1.3268   -1.3281   -1.6705 C   0  0  0  0  0  0  0  0  0  0  0  0
   -1.1326   -0.4664   -0.5943 C   0  0  0  0  0  0  0  0  0  0  0  0
   -2.2114    0.0428    0.1140 C   0  0  0  0  0  0  0  0  0  0  0  0
   -3.4828   -0.3262   -0.2749 C   0  0  0  0  0  0  0  0  0  0  0  0
   -1.9004    1.1201    1.4552 S   0  0  0  0  0  0  0  0  0  0  0  0
   -1.1905    2.3487    0.9599 O   0  0  0  0  0  0  0  0  0  0  0  0
   -1.0765    0.4790    2.5186 O   0  0  0  0  0  0  0  0  0  0  0  0
   -3.4601    1.5901    2.1431 C   0  0  0  0  0  0  0  0  0  0  0  0
    0.2031   -0.1255   -0.2449 N   0  0  0  0  0  0  0  0  0  0  0  0
    1.3616   -0.6342   -0.9573 C   0  0  0  0  0  0  0  0  0  0  0  0
    2.6300   -0.1059   -0.3673 C   0  0  0  0  0  0  0  0  0  0  0  0
    2.7282    0.7083    0.6547 N   0  0  0  0  0  0  0  0  0  0  0  0
    4.1110    1.0019    0.9416 C   0  0  0  0  0  0  0  0  0  0  0  0
    4.8247   -0.1758    0.2837 C   0  0  0  0  0  0  0  0  0  0  0  0
    3.9324   -0.4236   -0.8474 N   0  0  0  0  0  0  0  0  0  0  0  0
   -2.7816   -2.3677   -2.8948 H   0  0  0  0  0  0  0  0  0  0  0  0
   -0.4879   -1.7270   -2.2249 H   0  0  0  0  0  0  0  0  0  0  0  0
   -4.3280    0.0506    0.2521 H   0  0  0  0  0  0  0  0  0  0  0  0
   -4.1283    1.8140    1.2674 H   0  0  0  0  0  0  0  0  0  0  0  0
   -3.3674    2.5507    2.7054 H   0  0  0  0  0  0  0  0  0  0  0  0
   -3.9047    0.8377    2.7928 H   0  0  0  0  0  0  0  0  0  0  0  0
    0.3547    0.5248    0.5670 H   0  0  0  0  0  0  0  0  0  0  0  0
    1.3356   -1.7327   -0.9609 H   0  0  0  0  0  0  0  0  0  0  0  0
    1.2695   -0.2430   -1.9937 H   0  0  0  0  0  0  0  0  0  0  0  0
    4.3349    0.9701    2.0312 H   0  0  0  0  0  0  0  0  0  0  0  0
    4.4817    1.9162    0.4353 H   0  0  0  0  0  0  0  0  0  0  0  0
    4.7846   -1.0957    0.9188 H   0  0  0  0  0  0  0  0  0  0  0  0
    5.8574    0.0501   -0.0108 H   0  0  0  0  0  0  0  0  0  0  0  0
    4.1909   -0.7645   -1.8143 H   0  0  0  0  0  0  0  0  0  0  0  0
  1  2  1  0
  2  3  2  0
  3  4  1  0
  4  5  2  0
  5  6  1  0
  6  7  2  0
  6  8  1  0
  8  9  2  0
  8 10  2  0
  8 11  1  0
  5 12  1  0
 12 13  1  0
 13 14  1  0
 14 15  2  0
 15 16  1  0
 16 17  1  0
 17 18  1  0
  7  2  1  0
 18 14  1  0
  3 19  1  0
  4 20  1  0
  7 21  1  0
 11 22  1  0
 11 23  1  0
 11 24  1  0
 12 25  1  0
 13 26  1  0
 13 27  1  0
 16 28  1  0
 16 29  1  0
 17 30  1  0
 17 31  1  0
 18 32  1  0
M  END
>  <Ligand ID>  (1) 
LIG0001001

>  <Ligand>  (1) 
CHEMBL70563

>  <SMILES>  (1) 
Clc1ccc(c(c1)S(=O)(=O)C)NCC1=NCCN1

>  <CID>  (1) 
10916464.0

>  <ChEMBL ID>  (1) 
nan

>  <InChiKey>  (1) 
RNPCNKHTEISXAL-UHFFFAOYSA-N

>  <InChi>  (1) 
InChI=1S/C11H14ClN3O2S/c1-18(16,17)10-6-8(12)2-3-9(10)15-7-11-13-4-5-14-11/h2-3,6,15H,4-5,7H2,1H3,(H,13,14)

>  <IUPAC Name>  (1) 
4-chloro-N-(4,5-dihydro-1H-imidazol-2-ylmethyl)-2-methylsulfonylaniline

$$$$
