
     RDKit          3D

 76 77  0  0  0  0  0  0  0  0999 V2000
   -4.2323    0.6683    0.8627 O   0  0  0  0  0  0  0  0  0  0  0  0
   -4.1172   -0.4591    0.2837 C   0  0  0  0  0  0  0  0  0  0  0  0
   -4.9586   -1.5390    0.6715 N   0  0  0  0  0  0  0  0  0  0  0  0
   -5.9461   -1.4152    1.7001 C   0  0  0  0  0  0  0  0  0  0  0  0
   -6.0354   -0.2584    2.2658 N   0  0  0  0  0  0  0  0  0  0  0  0
   -6.9759    0.0581    3.3274 C   0  0  0  0  0  0  0  0  0  0  0  0
   -7.5559    1.4143    3.0122 C   0  0  0  0  0  0  0  0  0  0  0  0
   -8.2779    1.5241    1.7280 C   0  0  0  0  0  0  0  0  0  0  0  0
   -9.4844    0.7184    1.5538 C   0  0  0  0  0  0  0  0  0  0  0  0
  -10.1893    0.7382    0.3747 N   0  0  0  0  0  0  0  0  0  0  0  0
  -11.2533   -0.0660    0.5032 C   0  0  0  0  0  0  0  0  0  0  0  0
  -11.2806   -0.6190    1.7249 N   0  0  0  0  0  0  0  0  0  0  0  0
  -10.1843   -0.1239    2.3569 C   0  0  0  0  0  0  0  0  0  0  0  0
   -6.7650   -2.5120    2.0582 N   0  0  0  0  0  0  0  0  0  0  0  0
   -3.1115   -0.6746   -0.8009 C   0  0  0  0  0  0  0  0  0  0  0  0
   -2.3739    0.6236   -0.9944 C   0  0  0  0  0  0  0  0  0  0  0  0
   -1.3445    0.4780   -2.0856 C   0  0  0  0  0  0  0  0  0  0  0  0
   -0.3125   -0.5677   -1.8043 C   0  0  0  0  0  0  0  0  0  0  0  0
    0.7253   -0.6996   -2.9170 C   0  0  0  0  0  0  0  0  0  0  0  0
    1.4696    0.5964   -3.1259 C   0  0  0  0  0  0  0  0  0  0  0  0
    2.5054    0.4767   -4.2247 C   0  0  0  0  0  0  0  0  0  0  0  0
    3.5438   -0.5668   -3.9428 C   0  0  0  0  0  0  0  0  0  0  0  0
    4.3094   -0.3140   -2.7104 C   0  0  0  0  0  0  0  0  0  0  0  0
    4.1331    0.6717   -1.9497 O   0  0  0  0  0  0  0  0  0  0  0  0
    5.3207   -1.2550   -2.3580 N   0  0  0  0  0  0  0  0  0  0  0  0
    6.1239   -1.1157   -1.1911 C   0  0  0  0  0  0  0  0  0  0  0  0
    5.9482   -0.0970   -0.3970 N   0  0  0  0  0  0  0  0  0  0  0  0
    6.7495    0.0840    0.8092 C   0  0  0  0  0  0  0  0  0  0  0  0
    7.1646    1.5477    0.9193 C   0  0  0  0  0  0  0  0  0  0  0  0
    8.0054    1.7263    2.1897 C   0  0  0  0  0  0  0  0  0  0  0  0
    9.2068    0.8655    2.1050 C   0  0  0  0  0  0  0  0  0  0  0  0
    9.3632   -0.4087    2.5167 N   0  0  0  0  0  0  0  0  0  0  0  0
   10.6320   -0.8181    2.2455 C   0  0  0  0  0  0  0  0  0  0  0  0
   11.2927    0.1880    1.6606 N   0  0  0  0  0  0  0  0  0  0  0  0
   10.4314    1.2299    1.5668 C   0  0  0  0  0  0  0  0  0  0  0  0
    7.1376   -2.0701   -0.8492 N   0  0  0  0  0  0  0  0  0  0  0  0
   -4.8913   -2.4772    0.2181 H   0  0  0  0  0  0  0  0  0  0  0  0
   -6.3267    0.1946    4.2463 H   0  0  0  0  0  0  0  0  0  0  0  0
   -7.7026   -0.7424    3.4658 H   0  0  0  0  0  0  0  0  0  0  0  0
   -6.7453    2.2017    3.0045 H   0  0  0  0  0  0  0  0  0  0  0  0
   -8.2283    1.7652    3.8482 H   0  0  0  0  0  0  0  0  0  0  0  0
   -8.6040    2.6053    1.6338 H   0  0  0  0  0  0  0  0  0  0  0  0
   -7.5767    1.4011    0.8650 H   0  0  0  0  0  0  0  0  0  0  0  0
   -9.9524    1.2836   -0.4915 H   0  0  0  0  0  0  0  0  0  0  0  0
  -11.9731   -0.2281   -0.2842 H   0  0  0  0  0  0  0  0  0  0  0  0
   -9.9585   -0.3903    3.3665 H   0  0  0  0  0  0  0  0  0  0  0  0
   -6.9944   -2.7844    3.0396 H   0  0  0  0  0  0  0  0  0  0  0  0
   -7.1716   -3.0947    1.2703 H   0  0  0  0  0  0  0  0  0  0  0  0
   -3.6644   -0.8853   -1.7432 H   0  0  0  0  0  0  0  0  0  0  0  0
   -2.4538   -1.5360   -0.5573 H   0  0  0  0  0  0  0  0  0  0  0  0
   -1.9238    0.9979   -0.0565 H   0  0  0  0  0  0  0  0  0  0  0  0
   -3.1522    1.3480   -1.3743 H   0  0  0  0  0  0  0  0  0  0  0  0
   -1.8246    0.2600   -3.0664 H   0  0  0  0  0  0  0  0  0  0  0  0
   -0.8363    1.4777   -2.2344 H   0  0  0  0  0  0  0  0  0  0  0  0
    0.1741   -0.4363   -0.8192 H   0  0  0  0  0  0  0  0  0  0  0  0
   -0.8253   -1.5613   -1.7351 H   0  0  0  0  0  0  0  0  0  0  0  0
    1.3785   -1.5411   -2.6685 H   0  0  0  0  0  0  0  0  0  0  0  0
    0.1665   -0.9260   -3.8540 H   0  0  0  0  0  0  0  0  0  0  0  0
    1.8389    1.0316   -2.1981 H   0  0  0  0  0  0  0  0  0  0  0  0
    0.7159    1.3355   -3.5292 H   0  0  0  0  0  0  0  0  0  0  0  0
    1.9839    0.2167   -5.1547 H   0  0  0  0  0  0  0  0  0  0  0  0
    2.9829    1.4663   -4.3470 H   0  0  0  0  0  0  0  0  0  0  0  0
    3.0740   -1.5724   -3.8479 H   0  0  0  0  0  0  0  0  0  0  0  0
    4.2070   -0.6251   -4.8245 H   0  0  0  0  0  0  0  0  0  0  0  0
    5.5111   -2.1012   -2.9608 H   0  0  0  0  0  0  0  0  0  0  0  0
    7.6601   -0.5293    0.6595 H   0  0  0  0  0  0  0  0  0  0  0  0
    6.2534   -0.2608    1.7217 H   0  0  0  0  0  0  0  0  0  0  0  0
    7.7598    1.8185    0.0244 H   0  0  0  0  0  0  0  0  0  0  0  0
    6.2776    2.2113    0.9426 H   0  0  0  0  0  0  0  0  0  0  0  0
    7.4032    1.4229    3.0560 H   0  0  0  0  0  0  0  0  0  0  0  0
    8.2943    2.7954    2.2540 H   0  0  0  0  0  0  0  0  0  0  0  0
    8.6171   -0.9972    2.9779 H   0  0  0  0  0  0  0  0  0  0  0  0
   11.0900   -1.7778    2.4430 H   0  0  0  0  0  0  0  0  0  0  0  0
   10.7127    2.1780    1.1288 H   0  0  0  0  0  0  0  0  0  0  0  0
    8.0698   -1.9306   -1.3290 H   0  0  0  0  0  0  0  0  0  0  0  0
    6.9702   -2.8486   -0.1748 H   0  0  0  0  0  0  0  0  0  0  0  0
  1  2  2  0
  2  3  1  0
  3  4  1  0
  4  5  2  3
  5  6  1  0
  6  7  1  0
  7  8  1  0
  8  9  1  0
  9 10  1  0
 10 11  1  0
 11 12  2  0
 12 13  1  0
  4 14  1  0
  2 15  1  0
 15 16  1  0
 16 17  1  0
 17 18  1  0
 18 19  1  0
 19 20  1  0
 20 21  1  0
 21 22  1  0
 22 23  1  0
 23 24  2  0
 23 25  1  0
 25 26  1  0
 26 27  2  3
 27 28  1  0
 28 29  1  0
 29 30  1  0
 30 31  1  0
 31 32  1  0
 32 33  1  0
 33 34  2  0
 34 35  1  0
 26 36  1  0
 13  9  2  0
 35 31  2  0
  3 37  1  0
  6 38  1  0
  6 39  1  0
  7 40  1  0
  7 41  1  0
  8 42  1  0
  8 43  1  0
 10 44  1  0
 11 45  1  0
 13 46  1  0
 14 47  1  0
 14 48  1  0
 15 49  1  0
 15 50  1  0
 16 51  1  0
 16 52  1  0
 17 53  1  0
 17 54  1  0
 18 55  1  0
 18 56  1  0
 19 57  1  0
 19 58  1  0
 20 59  1  0
 20 60  1  0
 21 61  1  0
 21 62  1  0
 22 63  1  0
 22 64  1  0
 25 65  1  0
 28 66  1  0
 28 67  1  0
 29 68  1  0
 29 69  1  0
 30 70  1  0
 30 71  1  0
 32 72  1  0
 33 73  1  0
 35 74  1  0
 36 75  1  0
 36 76  1  0
M  END
>  <Ligand ID>  (1) 
LIG0001215

>  <Ligand>  (1) 
CHEMBL2165642

>  <SMILES>  (1) 
O=C(NC(=NCCCc1[nH]cnc1)N)CCCCCCCCC(=O)NC(=NCCCc1[nH]cnc1)N

>  <CID>  (1) 
56954322.0

>  <ChEMBL ID>  (1) 
nan

>  <InChiKey>  (1) 
JQLNALKYFVFHLP-UHFFFAOYSA-N

>  <InChi>  (1) 
InChI=1S/C24H40N10O2/c25-23(29-13-7-9-19-15-27-17-31-19)33-21(35)11-5-3-1-2-4-6-12-22(36)34-24(26)30-14-8-10-20-16-28-18-32-20/h15-18H,1-14H2,(H,27,31)(H,28,32)(H3,25,29,33,35)(H3,26,30,34,36)

>  <IUPAC Name>  (1) 
N,N'-bis[N'-[3-(1H-imidazol-5-yl)propyl]carbamimidoyl]decanediamide

$$$$
