
     RDKit          3D

 35 34  0  0  0  0  0  0  0  0999 V2000
    4.9898   -0.5621   -1.1367 C   0  0  0  0  0  0  0  0  0  0  0  0
    4.3664    0.1341    0.0375 C   0  0  0  0  0  0  0  0  0  0  0  0
    2.8245    0.2210   -0.2395 C   0  0  0  0  0  0  0  0  0  0  0  0
    2.2755    0.9190    0.9614 C   0  0  0  0  0  0  0  0  0  0  0  0
    0.8434    1.2298    0.9913 C   0  0  0  0  0  0  0  0  0  0  0  0
   -0.1445    0.1543    0.9692 C   0  0  0  0  0  0  0  0  0  0  0  0
   -0.3004   -0.7765   -0.1512 C   0  0  0  0  0  0  0  0  0  0  0  0
   -1.4868   -1.7118    0.2220 C   0  0  0  0  0  0  0  0  0  0  0  0
   -2.6895   -0.9101    0.4102 C   0  0  0  0  0  0  0  0  0  0  0  0
   -3.0708   -0.5357    1.5764 O   0  0  0  0  0  0  0  0  0  0  0  0
   -3.5052   -0.4946   -0.6322 O   0  0  0  0  0  0  0  0  0  0  0  0
   -4.6468    0.2789   -0.3344 C   0  0  0  0  0  0  0  0  0  0  0  0
   -5.4149    0.6436   -1.5717 C   0  0  0  0  0  0  0  0  0  0  0  0
    5.9139   -0.0090   -1.4602 H   0  0  0  0  0  0  0  0  0  0  0  0
    4.3018   -0.5923   -2.0165 H   0  0  0  0  0  0  0  0  0  0  0  0
    5.2887   -1.5841   -0.8370 H   0  0  0  0  0  0  0  0  0  0  0  0
    4.6894    1.1683    0.1852 H   0  0  0  0  0  0  0  0  0  0  0  0
    4.5160   -0.4462    0.9442 H   0  0  0  0  0  0  0  0  0  0  0  0
    2.6500    0.8084   -1.1600 H   0  0  0  0  0  0  0  0  0  0  0  0
    2.4904   -0.8217   -0.3432 H   0  0  0  0  0  0  0  0  0  0  0  0
    2.5086    0.2536    1.8739 H   0  0  0  0  0  0  0  0  0  0  0  0
    2.9022    1.8396    1.2039 H   0  0  0  0  0  0  0  0  0  0  0  0
    0.6049    2.0388    0.2155 H   0  0  0  0  0  0  0  0  0  0  0  0
    0.6890    1.8470    1.9554 H   0  0  0  0  0  0  0  0  0  0  0  0
   -1.1868    0.6409    1.1037 H   0  0  0  0  0  0  0  0  0  0  0  0
   -0.0923   -0.4743    1.9216 H   0  0  0  0  0  0  0  0  0  0  0  0
    0.4983   -1.4886   -0.3745 H   0  0  0  0  0  0  0  0  0  0  0  0
   -0.5792   -0.2928   -1.1173 H   0  0  0  0  0  0  0  0  0  0  0  0
   -1.2302   -2.2241    1.1841 H   0  0  0  0  0  0  0  0  0  0  0  0
   -1.6008   -2.4878   -0.5477 H   0  0  0  0  0  0  0  0  0  0  0  0
   -5.2266   -0.2764    0.4158 H   0  0  0  0  0  0  0  0  0  0  0  0
   -4.3501    1.2458    0.1420 H   0  0  0  0  0  0  0  0  0  0  0  0
   -5.2730   -0.0896   -2.4026 H   0  0  0  0  0  0  0  0  0  0  0  0
   -5.0517    1.6231   -1.9828 H   0  0  0  0  0  0  0  0  0  0  0  0
   -6.5031    0.7315   -1.3582 H   0  0  0  0  0  0  0  0  0  0  0  0
  1  2  1  0
  2  3  1  0
  3  4  1  0
  4  5  1  0
  5  6  1  0
  6  7  1  0
  7  8  1  0
  8  9  1  0
  9 10  2  0
  9 11  1  0
 11 12  1  0
 12 13  1  0
  1 14  1  0
  1 15  1  0
  1 16  1  0
  2 17  1  0
  2 18  1  0
  3 19  1  0
  3 20  1  0
  4 21  1  0
  4 22  1  0
  5 23  1  0
  5 24  1  0
  6 25  1  0
  6 26  1  0
  7 27  1  0
  7 28  1  0
  8 29  1  0
  8 30  1  0
 12 31  1  0
 12 32  1  0
 13 33  1  0
 13 34  1  0
 13 35  1  0
M  END
>  <Ligand ID>  (1) 
LIG0002077

>  <Ligand>  (1) 
ethyl nonanoate

>  <SMILES>  (1) 
CCCCCCCCC(=O)OCC

>  <CID>  (1) 
31251.0

>  <ChEMBL ID>  (1) 
nan

>  <InChiKey>  (1) 
BYEVBITUADOIGY-UHFFFAOYSA-N

>  <InChi>  (1) 
InChI=1S/C11H22O2/c1-3-5-6-7-8-9-10-11(12)13-4-2/h3-10H2,1-2H3

>  <IUPAC Name>  (1) 
ethyl nonanoate

$$$$
