
     RDKit          3D

 91 94  0  0  0  0  0  0  0  0999 V2000
    5.3789   -4.2744    1.5183 C   0  0  0  0  0  0  0  0  0  0  0  0
    6.2158   -4.2320    0.2780 C   0  0  2  0  0  0  0  0  0  0  0  0
    7.4501   -3.5248    0.5473 N   0  0  0  0  0  0  0  0  0  0  0  0
    7.4275   -2.1741    0.0269 C   0  0  2  0  0  0  0  0  0  0  0  0
    8.4683   -1.3733    0.7786 C   0  0  0  0  0  0  0  0  0  0  0  0
    6.0864   -1.4961    0.1714 C   0  0  0  0  0  0  0  0  0  0  0  0
    5.1172   -2.2394   -0.6267 N   0  0  0  0  0  0  0  0  0  0  0  0
    5.4726   -3.6355   -0.8997 C   0  0  0  0  0  0  0  0  0  0  0  0
    3.9123   -1.6571   -1.1053 C   0  0  0  0  0  0  0  0  0  0  0  0
    3.1387   -2.3721   -1.7922 O   0  0  0  0  0  0  0  0  0  0  0  0
    3.6626   -0.3049   -0.7747 N   0  0  0  0  0  0  0  0  0  0  0  0
    2.4055    0.3674   -1.2517 C   0  0  1  0  0  0  0  0  0  0  0  0
    1.6136    0.6799   -0.0699 C   0  0  0  0  0  0  0  0  0  0  0  0
    2.2244    0.5791    1.0616 O   0  0  0  0  0  0  0  0  0  0  0  0
    0.2680    1.0721   -0.0029 N   0  0  0  0  0  0  0  0  0  0  0  0
   -0.6278    1.2172   -1.1458 C   0  0  0  0  0  0  0  0  0  0  0  0
   -1.8810    0.4322   -0.7355 C   0  0  0  0  0  0  0  0  0  0  0  0
   -2.6975    1.1068    0.3146 C   0  0  0  0  0  0  0  0  0  0  0  0
   -1.7055    2.0160    1.0964 C   0  0  0  0  0  0  0  0  0  0  0  0
   -0.3758    1.3696    1.2933 C   0  0  0  0  0  0  0  0  0  0  0  0
   -3.6601    2.0880   -0.2986 C   0  0  0  0  0  0  0  0  0  0  0  0
   -4.6002    1.5480   -1.3206 C   0  0  0  0  0  0  0  0  0  0  0  0
   -6.0644    1.7472   -0.9731 C   0  0  0  0  0  0  0  0  0  0  0  0
   -6.3756    1.5240    0.4666 C   0  0  0  0  0  0  0  0  0  0  0  0
   -5.5269    2.3778    1.3618 C   0  0  0  0  0  0  0  0  0  0  0  0
   -4.3461    2.9796    0.7077 C   0  0  0  0  0  0  0  0  0  0  0  0
   -3.2453    0.1312    1.2482 C   0  0  0  0  0  0  0  0  0  0  0  0
   -3.0224    0.2920    2.5046 O   0  0  0  0  0  0  0  0  0  0  0  0
   -4.0176   -1.0138    0.9273 N   0  0  0  0  0  0  0  0  0  0  0  0
   -4.5147   -1.9238    1.9088 C   0  0  0  0  0  0  0  0  0  0  0  0
   -5.2946   -3.0309    1.1848 C   0  0  0  0  0  0  0  0  0  0  0  0
   -5.4579   -1.3479    2.9094 C   0  0  0  0  0  0  0  0  0  0  0  0
   -3.4119   -2.6453    2.6550 C   0  0  0  0  0  0  0  0  0  0  0  0
    2.9297    1.5154   -2.0476 C   0  0  0  0  0  0  0  0  0  0  0  0
    1.9625    2.4203   -2.6662 C   0  0  0  0  0  0  0  0  0  0  0  0
    1.5971    3.5743   -1.9565 C   0  0  0  0  0  0  0  0  0  0  0  0
    0.6891    4.4074   -2.5699 C   0  0  0  0  0  0  0  0  0  0  0  0
    0.1358    4.1770   -3.8060 C   0  0  0  0  0  0  0  0  0  0  0  0
    0.5328    3.0167   -4.4679 C   0  0  0  0  0  0  0  0  0  0  0  0
    1.4359    2.1441   -3.9091 C   0  0  0  0  0  0  0  0  0  0  0  0
   -1.0176    5.2961   -4.5163 Cl  0  0  0  0  0  0  0  0  0  0  0  0
    4.9208   -5.2891    1.6741 H   0  0  0  0  0  0  0  0  0  0  0  0
    4.5838   -3.5011    1.5435 H   0  0  0  0  0  0  0  0  0  0  0  0
    6.0513   -4.1196    2.3924 H   0  0  0  0  0  0  0  0  0  0  0  0
    6.4821   -5.2707    0.0005 H   0  0  0  0  0  0  0  0  0  0  0  0
    8.2606   -4.0147    0.0726 H   0  0  0  0  0  0  0  0  0  0  0  0
    7.6854   -2.1274   -1.0669 H   0  0  0  0  0  0  0  0  0  0  0  0
    9.4439   -1.3636    0.2276 H   0  0  0  0  0  0  0  0  0  0  0  0
    8.6971   -1.7866    1.7879 H   0  0  0  0  0  0  0  0  0  0  0  0
    8.1370   -0.3151    0.9759 H   0  0  0  0  0  0  0  0  0  0  0  0
    5.7709   -1.3017    1.1944 H   0  0  0  0  0  0  0  0  0  0  0  0
    6.1965   -0.5120   -0.3445 H   0  0  0  0  0  0  0  0  0  0  0  0
    4.6034   -4.2682   -1.1020 H   0  0  0  0  0  0  0  0  0  0  0  0
    6.1614   -3.6477   -1.7533 H   0  0  0  0  0  0  0  0  0  0  0  0
    4.2941    0.2960   -0.2048 H   0  0  0  0  0  0  0  0  0  0  0  0
    1.8975   -0.4086   -1.8537 H   0  0  0  0  0  0  0  0  0  0  0  0
   -0.8851    2.2525   -1.3817 H   0  0  0  0  0  0  0  0  0  0  0  0
   -0.2510    0.7042   -2.0441 H   0  0  0  0  0  0  0  0  0  0  0  0
   -1.4999   -0.5280   -0.3124 H   0  0  0  0  0  0  0  0  0  0  0  0
   -2.4624    0.1358   -1.6316 H   0  0  0  0  0  0  0  0  0  0  0  0
   -2.1453    2.1335    2.1148 H   0  0  0  0  0  0  0  0  0  0  0  0
   -1.5660    2.9720    0.5599 H   0  0  0  0  0  0  0  0  0  0  0  0
    0.2489    2.0483    1.8688 H   0  0  0  0  0  0  0  0  0  0  0  0
   -0.5093    0.3583    1.7583 H   0  0  0  0  0  0  0  0  0  0  0  0
   -2.9702    2.8101   -0.8483 H   0  0  0  0  0  0  0  0  0  0  0  0
   -4.5025    2.1207   -2.3102 H   0  0  0  0  0  0  0  0  0  0  0  0
   -4.4622    0.5128   -1.6255 H   0  0  0  0  0  0  0  0  0  0  0  0
   -6.3929    2.7821   -1.2200 H   0  0  0  0  0  0  0  0  0  0  0  0
   -6.6549    0.9926   -1.5703 H   0  0  0  0  0  0  0  0  0  0  0  0
   -6.3845    0.4384    0.7626 H   0  0  0  0  0  0  0  0  0  0  0  0
   -7.4687    1.8035    0.5822 H   0  0  0  0  0  0  0  0  0  0  0  0
   -6.1722    3.2390    1.7072 H   0  0  0  0  0  0  0  0  0  0  0  0
   -5.2872    1.8488    2.3120 H   0  0  0  0  0  0  0  0  0  0  0  0
   -4.6764    3.8948    0.1336 H   0  0  0  0  0  0  0  0  0  0  0  0
   -3.6200    3.3172    1.4423 H   0  0  0  0  0  0  0  0  0  0  0  0
   -4.2165   -1.1875   -0.0772 H   0  0  0  0  0  0  0  0  0  0  0  0
   -4.6390   -3.8384    0.8376 H   0  0  0  0  0  0  0  0  0  0  0  0
   -5.7792   -2.5583    0.2990 H   0  0  0  0  0  0  0  0  0  0  0  0
   -6.1280   -3.4064    1.8308 H   0  0  0  0  0  0  0  0  0  0  0  0
   -6.4688   -1.2410    2.4634 H   0  0  0  0  0  0  0  0  0  0  0  0
   -5.5781   -2.0465    3.7852 H   0  0  0  0  0  0  0  0  0  0  0  0
   -5.1207   -0.3482    3.2425 H   0  0  0  0  0  0  0  0  0  0  0  0
   -2.6064   -1.9947    3.0022 H   0  0  0  0  0  0  0  0  0  0  0  0
   -3.8720   -3.2320    3.4755 H   0  0  0  0  0  0  0  0  0  0  0  0
   -2.9631   -3.4338    1.9821 H   0  0  0  0  0  0  0  0  0  0  0  0
    3.5880    1.0447   -2.8468 H   0  0  0  0  0  0  0  0  0  0  0  0
    3.6966    2.0975   -1.4462 H   0  0  0  0  0  0  0  0  0  0  0  0
    2.0249    3.7693   -0.9818 H   0  0  0  0  0  0  0  0  0  0  0  0
    0.3670    5.3259   -2.0585 H   0  0  0  0  0  0  0  0  0  0  0  0
    0.1256    2.7816   -5.4542 H   0  0  0  0  0  0  0  0  0  0  0  0
    1.7638    1.2278   -4.4084 H   0  0  0  0  0  0  0  0  0  0  0  0
  1  2  1  0
  2  3  1  0
  3  4  1  0
  4  5  1  0
  4  6  1  0
  6  7  1  0
  7  8  1  0
  7  9  1  0
  9 10  2  0
  9 11  1  0
 11 12  1  0
 12 13  1  0
 13 14  2  0
 13 15  1  0
 15 16  1  0
 16 17  1  0
 17 18  1  0
 18 19  1  0
 19 20  1  0
 18 21  1  0
 21 22  1  0
 22 23  1  0
 23 24  1  0
 24 25  1  0
 25 26  1  0
 18 27  1  0
 27 28  2  0
 27 29  1  0
 29 30  1  0
 30 31  1  0
 30 32  1  0
 30 33  1  0
 12 34  1  0
 34 35  1  0
 35 36  2  0
 36 37  1  0
 37 38  2  0
 38 39  1  0
 39 40  2  0
 38 41  1  0
  8  2  1  0
 20 15  1  0
 26 21  1  0
 40 35  1  0
  1 42  1  0
  1 43  1  0
  1 44  1  0
  2 45  1  6
  3 46  1  0
  4 47  1  6
  5 48  1  0
  5 49  1  0
  5 50  1  0
  6 51  1  0
  6 52  1  0
  8 53  1  0
  8 54  1  0
 11 55  1  0
 12 56  1  6
 16 57  1  0
 16 58  1  0
 17 59  1  0
 17 60  1  0
 19 61  1  0
 19 62  1  0
 20 63  1  0
 20 64  1  0
 21 65  1  0
 22 66  1  0
 22 67  1  0
 23 68  1  0
 23 69  1  0
 24 70  1  0
 24 71  1  0
 25 72  1  0
 25 73  1  0
 26 74  1  0
 26 75  1  0
 29 76  1  0
 31 77  1  0
 31 78  1  0
 31 79  1  0
 32 80  1  0
 32 81  1  0
 32 82  1  0
 33 83  1  0
 33 84  1  0
 33 85  1  0
 34 86  1  0
 34 87  1  0
 36 88  1  0
 37 89  1  0
 39 90  1  0
 40 91  1  0
M  END
>  <Ligand ID>  (1) 
LIG0005255

>  <Ligand>  (1) 
CHEMBL1762009

>  <SMILES>  (1) 
C[C@@H]1N[C@H](C)CN(C1)C(=O)N[C@@H](C(=O)N1CCC(CC1)(C1CCCCC1)C(=O)NC(C)(C)C)Cc1ccc(cc1)Cl

>  <CID>  (1) 
54587278.0

>  <ChEMBL ID>  (1) 
nan

>  <InChiKey>  (1) 
SZGSXARYIZZWDD-QSEAXJEQSA-N

>  <InChi>  (1) 
InChI=1S/C32H50ClN5O3/c1-22-20-38(21-23(2)34-22)30(41)35-27(19-24-11-13-26(33)14-12-24)28(39)37-17-15-32(16-18-37,25-9-7-6-8-10-25)29(40)36-31(3,4)5/h11-14,22-23,25,27,34H,6-10,15-21H2,1-5H3,(H,35,41)(H,36,40)/t22-,23+,27-/m1/s1

>  <IUPAC Name>  (1) 
(3R,5S)-N-[(2R)-1-[4-(tert-butylcarbamoyl)-4-cyclohexylpiperidin-1-yl]-3-(4-chlorophenyl)-1-oxopropan-2-yl]-3,5-dimethylpiperazine-1-carboxamide

$$$$
