
     RDKit          3D

128131  0  0  0  0  0  0  0  0999 V2000
    4.2487   -0.5873    1.9614 C   0  0  0  0  0  0  0  0  0  0  0  0
    5.6947   -0.8773    1.6098 C   0  0  0  0  0  0  0  0  0  0  0  0
    6.5479    0.1121    2.2836 C   0  0  0  0  0  0  0  0  0  0  0  0
    6.3786    1.5570    2.0545 C   0  0  0  0  0  0  0  0  0  0  0  0
    6.5693    2.1885    0.7795 C   0  0  1  0  0  0  0  0  0  0  0  0
    5.8811    1.9894   -0.4534 C   0  0  0  0  0  0  0  0  0  0  0  0
    5.1331    2.9989   -0.8372 O   0  0  0  0  0  0  0  0  0  0  0  0
    5.8560    0.9145   -1.3571 N   0  0  0  0  0  0  0  0  0  0  0  0
    5.0799    0.9985   -2.5613 C   0  0  2  0  0  0  0  0  0  0  0  0
    3.9986    0.0004   -2.7022 C   0  0  0  0  0  0  0  0  0  0  0  0
    3.3298    0.0351   -3.7848 O   0  0  0  0  0  0  0  0  0  0  0  0
    3.6355   -0.9796   -1.7640 N   0  0  0  0  0  0  0  0  0  0  0  0
    2.5741   -1.9142   -1.9834 C   0  0  2  0  0  0  0  0  0  0  0  0
    1.4270   -1.7769   -1.0513 C   0  0  0  0  0  0  0  0  0  0  0  0
    0.5214   -2.6710   -1.1619 O   0  0  0  0  0  0  0  0  0  0  0  0
    1.3293   -0.7221   -0.0907 N   0  0  0  0  0  0  0  0  0  0  0  0
    0.1183   -0.7527    0.7620 C   0  0  1  0  0  0  0  0  0  0  0  0
   -1.0965   -0.7126   -0.0220 C   0  0  0  0  0  0  0  0  0  0  0  0
   -1.0706   -0.6544   -1.3033 O   0  0  0  0  0  0  0  0  0  0  0  0
   -2.3946   -0.7346    0.5447 N   0  0  0  0  0  0  0  0  0  0  0  0
   -3.5964   -0.7049   -0.3113 C   0  0  2  0  0  0  0  0  0  0  0  0
   -4.6657    0.0693    0.2863 C   0  0  0  0  0  0  0  0  0  0  0  0
   -4.4685    0.5088    1.4759 O   0  0  0  0  0  0  0  0  0  0  0  0
   -5.9091    0.4079   -0.2788 N   0  0  0  0  0  0  0  0  0  0  0  0
   -6.8643    1.1775    0.4373 C   0  0  2  0  0  0  0  0  0  0  0  0
   -7.9437    0.2129    0.8821 C   0  0  0  0  0  0  0  0  0  0  0  0
   -7.8984   -1.0088    0.6146 O   0  0  0  0  0  0  0  0  0  0  0  0
   -9.0615    0.6689    1.6295 N   0  0  0  0  0  0  0  0  0  0  0  0
   -7.5588    2.2690   -0.2761 C   0  0  0  0  0  0  0  0  0  0  0  0
   -6.6819    3.3303   -0.8167 C   0  0  0  0  0  0  0  0  0  0  0  0
   -6.3407    3.4758   -2.1447 C   0  0  0  0  0  0  0  0  0  0  0  0
   -5.5454    4.5581   -2.1956 N   0  0  0  0  0  0  0  0  0  0  0  0
   -5.3792    5.0876   -0.9648 C   0  0  0  0  0  0  0  0  0  0  0  0
   -6.0941    4.3238   -0.0622 C   0  0  0  0  0  0  0  0  0  0  0  0
   -6.1300    4.6086    1.2948 C   0  0  0  0  0  0  0  0  0  0  0  0
   -5.4205    5.7057    1.7726 C   0  0  0  0  0  0  0  0  0  0  0  0
   -4.6941    6.4851    0.8677 C   0  0  0  0  0  0  0  0  0  0  0  0
   -4.6678    6.1899   -0.4763 C   0  0  0  0  0  0  0  0  0  0  0  0
   -3.8876   -2.1661   -0.5647 C   0  0  0  0  0  0  0  0  0  0  0  0
   -5.0600   -2.4183   -1.4202 C   0  0  0  0  0  0  0  0  0  0  0  0
   -5.1719   -3.9442   -1.6122 C   0  0  0  0  0  0  0  0  0  0  0  0
   -6.2920   -4.2752   -2.4439 N   0  0  0  0  0  0  0  0  0  0  0  0
   -7.2615   -4.9612   -1.9614 C   0  0  0  0  0  0  0  0  0  0  0  0
   -7.2370   -5.3957   -0.6143 N   0  0  0  0  0  0  0  0  0  0  0  0
   -8.3465   -5.2562   -2.8401 N   0  0  0  0  0  0  0  0  0  0  0  0
    0.3469   -1.8892    1.6879 C   0  0  0  0  0  0  0  0  0  0  0  0
   -0.6642   -2.2256    2.6682 C   0  0  0  0  0  0  0  0  0  0  0  0
   -1.6309   -3.2214    2.4590 C   0  0  0  0  0  0  0  0  0  0  0  0
   -2.5716   -3.4871    3.4447 C   0  0  0  0  0  0  0  0  0  0  0  0
   -2.5643   -2.7813    4.6271 C   0  0  0  0  0  0  0  0  0  0  0  0
   -1.6234   -1.7999    4.8508 C   0  0  0  0  0  0  0  0  0  0  0  0
   -0.6906   -1.5371    3.8722 C   0  0  0  0  0  0  0  0  0  0  0  0
    3.1078   -3.3008   -2.0751 C   0  0  0  0  0  0  0  0  0  0  0  0
    3.8226   -3.7942   -0.8938 C   0  0  0  0  0  0  0  0  0  0  0  0
    3.3310   -4.4518    0.1853 N   0  0  0  0  0  0  0  0  0  0  0  0
    4.3343   -4.7340    1.0499 C   0  0  0  0  0  0  0  0  0  0  0  0
    5.4902   -4.2567    0.5295 N   0  0  0  0  0  0  0  0  0  0  0  0
    5.1784   -3.6881   -0.6462 C   0  0  0  0  0  0  0  0  0  0  0  0
    5.9407    1.0299   -3.8022 C   0  0  0  0  0  0  0  0  0  0  0  0
    6.8853    2.1715   -3.9025 C   0  0  0  0  0  0  0  0  0  0  0  0
    7.9876    2.2649   -2.9561 C   0  0  0  0  0  0  0  0  0  0  0  0
    8.4182    1.3941   -2.1826 O   0  0  0  0  0  0  0  0  0  0  0  0
    8.6638    3.5053   -2.9015 O   0  0  0  0  0  0  0  0  0  0  0  0
    6.3808    3.6920    1.0155 N   0  0  0  0  0  0  0  0  0  0  0  0
    7.4995    4.5427    0.8719 C   0  0  0  0  0  0  0  0  0  0  0  0
    8.6383    4.1458    0.5627 O   0  0  0  0  0  0  0  0  0  0  0  0
    7.3006    6.0186    1.1059 C   0  0  0  0  0  0  0  0  0  0  0  0
    3.9990    0.4522    1.6839 H   0  0  0  0  0  0  0  0  0  0  0  0
    3.5554   -1.2916    1.4856 H   0  0  0  0  0  0  0  0  0  0  0  0
    4.1258   -0.6700    3.0805 H   0  0  0  0  0  0  0  0  0  0  0  0
    5.8845   -1.8663    2.1977 H   0  0  0  0  0  0  0  0  0  0  0  0
    5.9001   -1.1747    0.6021 H   0  0  0  0  0  0  0  0  0  0  0  0
    7.6395   -0.1116    1.9940 H   0  0  0  0  0  0  0  0  0  0  0  0
    6.5710   -0.1192    3.3948 H   0  0  0  0  0  0  0  0  0  0  0  0
    7.1807    2.0262    2.7558 H   0  0  0  0  0  0  0  0  0  0  0  0
    5.4525    1.9472    2.6185 H   0  0  0  0  0  0  0  0  0  0  0  0
    7.6885    2.1700    0.5347 H   0  0  0  0  0  0  0  0  0  0  0  0
    6.3921    0.0795   -1.1596 H   0  0  0  0  0  0  0  0  0  0  0  0
    4.5310    1.9979   -2.6104 H   0  0  0  0  0  0  0  0  0  0  0  0
    4.1532   -1.0233   -0.8780 H   0  0  0  0  0  0  0  0  0  0  0  0
    2.1582   -1.6738   -2.9955 H   0  0  0  0  0  0  0  0  0  0  0  0
    2.0570    0.0033   -0.0059 H   0  0  0  0  0  0  0  0  0  0  0  0
    0.2176    0.1852    1.3967 H   0  0  0  0  0  0  0  0  0  0  0  0
   -2.5568   -0.7532    1.5713 H   0  0  0  0  0  0  0  0  0  0  0  0
   -3.3024   -0.2907   -1.2889 H   0  0  0  0  0  0  0  0  0  0  0  0
   -6.1186    0.1012   -1.2485 H   0  0  0  0  0  0  0  0  0  0  0  0
   -6.3776    1.6005    1.3630 H   0  0  0  0  0  0  0  0  0  0  0  0
  -10.0332    0.4875    1.2549 H   0  0  0  0  0  0  0  0  0  0  0  0
   -8.9203    1.1676    2.5185 H   0  0  0  0  0  0  0  0  0  0  0  0
   -8.2995    1.9135   -1.0362 H   0  0  0  0  0  0  0  0  0  0  0  0
   -8.2195    2.8077    0.4681 H   0  0  0  0  0  0  0  0  0  0  0  0
   -6.6270    2.8772   -2.9762 H   0  0  0  0  0  0  0  0  0  0  0  0
   -5.1156    4.9337   -3.0796 H   0  0  0  0  0  0  0  0  0  0  0  0
   -6.6905    4.0036    1.9699 H   0  0  0  0  0  0  0  0  0  0  0  0
   -5.4295    5.9572    2.8367 H   0  0  0  0  0  0  0  0  0  0  0  0
   -4.1509    7.3338    1.2769 H   0  0  0  0  0  0  0  0  0  0  0  0
   -4.1068    6.7921   -1.1773 H   0  0  0  0  0  0  0  0  0  0  0  0
   -3.9026   -2.7358    0.4053 H   0  0  0  0  0  0  0  0  0  0  0  0
   -2.9677   -2.5756   -1.0777 H   0  0  0  0  0  0  0  0  0  0  0  0
   -4.9797   -1.8766   -2.3640 H   0  0  0  0  0  0  0  0  0  0  0  0
   -6.0364   -2.1627   -0.9563 H   0  0  0  0  0  0  0  0  0  0  0  0
   -4.2366   -4.2507   -2.0992 H   0  0  0  0  0  0  0  0  0  0  0  0
   -5.3233   -4.3569   -0.6099 H   0  0  0  0  0  0  0  0  0  0  0  0
   -7.3693   -4.6769    0.1297 H   0  0  0  0  0  0  0  0  0  0  0  0
   -7.0905   -6.4076   -0.4024 H   0  0  0  0  0  0  0  0  0  0  0  0
   -9.3240   -5.4281   -2.4922 H   0  0  0  0  0  0  0  0  0  0  0  0
   -8.2281   -5.3165   -3.8758 H   0  0  0  0  0  0  0  0  0  0  0  0
    0.6622   -2.8301    1.1502 H   0  0  0  0  0  0  0  0  0  0  0  0
    1.2883   -1.6222    2.2757 H   0  0  0  0  0  0  0  0  0  0  0  0
   -1.6460   -3.7874    1.5264 H   0  0  0  0  0  0  0  0  0  0  0  0
   -3.3105   -4.2556    3.2731 H   0  0  0  0  0  0  0  0  0  0  0  0
   -3.2772   -2.9484    5.4316 H   0  0  0  0  0  0  0  0  0  0  0  0
   -1.6291   -1.2469    5.7943 H   0  0  0  0  0  0  0  0  0  0  0  0
    0.0378   -0.7490    4.0936 H   0  0  0  0  0  0  0  0  0  0  0  0
    2.2666   -4.0138   -2.3017 H   0  0  0  0  0  0  0  0  0  0  0  0
    3.7628   -3.3386   -2.9890 H   0  0  0  0  0  0  0  0  0  0  0  0
    2.3189   -4.6950    0.3102 H   0  0  0  0  0  0  0  0  0  0  0  0
    4.2374   -5.2528    1.9973 H   0  0  0  0  0  0  0  0  0  0  0  0
    5.8550   -3.1928   -1.3599 H   0  0  0  0  0  0  0  0  0  0  0  0
    6.5560    0.0753   -3.8347 H   0  0  0  0  0  0  0  0  0  0  0  0
    5.2595    1.0392   -4.6889 H   0  0  0  0  0  0  0  0  0  0  0  0
    6.3050    3.1603   -3.8814 H   0  0  0  0  0  0  0  0  0  0  0  0
    7.3622    2.1112   -4.9346 H   0  0  0  0  0  0  0  0  0  0  0  0
    9.5735    3.5306   -2.4688 H   0  0  0  0  0  0  0  0  0  0  0  0
    5.4282    4.0136    1.2730 H   0  0  0  0  0  0  0  0  0  0  0  0
    7.3709    6.1374    2.2071 H   0  0  0  0  0  0  0  0  0  0  0  0
    6.2653    6.2510    0.7900 H   0  0  0  0  0  0  0  0  0  0  0  0
    8.0483    6.5811    0.5384 H   0  0  0  0  0  0  0  0  0  0  0  0
  1  2  1  0
  2  3  1  0
  3  4  1  0
  4  5  1  0
  5  6  1  0
  6  7  2  0
  6  8  1  0
  8  9  1  0
  9 10  1  0
 10 11  2  0
 10 12  1  0
 12 13  1  0
 13 14  1  0
 14 15  2  0
 14 16  1  0
 16 17  1  0
 17 18  1  0
 18 19  2  0
 18 20  1  0
 20 21  1  0
 21 22  1  0
 22 23  2  0
 22 24  1  0
 24 25  1  0
 25 26  1  0
 26 27  2  0
 26 28  1  0
 25 29  1  0
 29 30  1  0
 30 31  2  0
 31 32  1  0
 32 33  1  0
 33 34  2  0
 34 35  1  0
 35 36  2  0
 36 37  1  0
 37 38  2  0
 21 39  1  0
 39 40  1  0
 40 41  1  0
 41 42  1  0
 42 43  2  3
 43 44  1  0
 43 45  1  0
 17 46  1  0
 46 47  1  0
 47 48  2  0
 48 49  1  0
 49 50  2  0
 50 51  1  0
 51 52  2  0
 13 53  1  0
 53 54  1  0
 54 55  1  0
 55 56  1  0
 56 57  2  0
 57 58  1  0
  9 59  1  0
 59 60  1  0
 60 61  1  0
 61 62  2  0
 61 63  1  0
  5 64  1  0
 64 65  1  0
 65 66  2  0
 65 67  1  0
 34 30  1  0
 52 47  1  0
 58 54  2  0
 38 33  1  0
  1 68  1  0
  1 69  1  0
  1 70  1  0
  2 71  1  0
  2 72  1  0
  3 73  1  0
  3 74  1  0
  4 75  1  0
  4 76  1  0
  5 77  1  6
  8 78  1  0
  9 79  1  1
 12 80  1  0
 13 81  1  6
 16 82  1  0
 17 83  1  1
 20 84  1  0
 21 85  1  6
 24 86  1  0
 25 87  1  1
 28 88  1  0
 28 89  1  0
 29 90  1  0
 29 91  1  0
 31 92  1  0
 32 93  1  0
 35 94  1  0
 36 95  1  0
 37 96  1  0
 38 97  1  0
 39 98  1  0
 39 99  1  0
 40100  1  0
 40101  1  0
 41102  1  0
 41103  1  0
 44104  1  0
 44105  1  0
 45106  1  0
 45107  1  0
 46108  1  0
 46109  1  0
 48110  1  0
 49111  1  0
 50112  1  0
 51113  1  0
 52114  1  0
 53115  1  0
 53116  1  0
 55117  1  0
 56118  1  0
 58119  1  0
 59120  1  0
 59121  1  0
 60122  1  0
 60123  1  0
 63124  1  0
 64125  1  0
 67126  1  0
 67127  1  0
 67128  1  0
M  END
>  <Ligand ID>  (1) 
LIG0001763

>  <Ligand>  (1) 
CHEMBL267794

>  <SMILES>  (1) 
CCCC[C@@H](C(=O)N[C@H](C(=O)N[C@H](C(=O)N[C@@H](C(=O)N[C@H](C(=O)N[C@H](C(=O)N)Cc1c[nH]c2c1cccc2)CCCN=C(N)N)Cc1ccccc1)Cc1[nH]cnc1)CCC(=O)O)NC(=O)C

>  <CID>  (1) 
10240594.0

>  <ChEMBL ID>  (1) 
nan

>  <InChiKey>  (1) 
UXUHFYAAKVDWBE-BWBQVKFQSA-N

>  <InChi>  (1) 
InChI=1S/C45H61N13O9/c1-3-4-14-32(53-26(2)59)40(63)55-34(17-18-38(60)61)42(65)58-37(22-29-24-49-25-52-29)44(67)57-36(20-27-11-6-5-7-12-27)43(66)54-33(16-10-19-50-45(47)48)41(64)56-35(39(46)62)21-28-23-51-31-15-9-8-13-30(28)31/h5-9,11-13,15,23-25,32-37,51H,3-4,10,14,16-22H2,1-2H3,(H2,46,62)(H,49,52)(H,53,59)(H,54,66)(H,55,63)(H,56,64)(H,57,67)(H,58,65)(H,60,61)(H4,47,48,50)/t32-,33-,34-,35-,36+,37-/m0/s1

>  <IUPAC Name>  (1) 
(4S)-4-[[(2S)-2-acetamidohexanoyl]amino]-5-[[(2S)-1-[[(2R)-1-[[(2S)-1-[[(2S)-1-amino-3-(1H-indol-3-yl)-1-oxopropan-2-yl]amino]-5-(diaminomethylideneamino)-1-oxopentan-2-yl]amino]-1-oxo-3-phenylpropan-2-yl]amino]-3-(1H-imidazol-5-yl)-1-oxopropan-2-yl]amino]-5-oxopentanoic acid

$$$$
