
     RDKit          3D

 77 80  0  0  0  0  0  0  0  0999 V2000
   -0.7978    6.9274    0.5690 C   0  0  0  0  0  0  0  0  0  0  0  0
   -1.8431    6.0331    0.2416 O   0  0  0  0  0  0  0  0  0  0  0  0
   -1.6940    4.6756    0.4812 C   0  0  0  0  0  0  0  0  0  0  0  0
   -0.5747    4.1174    1.0289 C   0  0  0  0  0  0  0  0  0  0  0  0
   -0.5152    2.7654    1.2294 C   0  0  0  0  0  0  0  0  0  0  0  0
   -1.5448    1.8919    0.9042 C   0  0  0  0  0  0  0  0  0  0  0  0
   -2.6717    2.4955    0.3477 C   0  0  0  0  0  0  0  0  0  0  0  0
   -2.7443    3.8577    0.1411 C   0  0  0  0  0  0  0  0  0  0  0  0
   -3.9602    4.4163   -0.4481 C   0  0  0  0  0  0  0  0  0  0  0  0
   -4.9415    3.6885   -0.7691 O   0  0  0  0  0  0  0  0  0  0  0  0
   -4.1006    5.7769   -0.6873 O   0  0  0  0  0  0  0  0  0  0  0  0
   -1.4152    0.4506    1.1259 C   0  0  0  0  0  0  0  0  0  0  0  0
   -1.0280   -0.3345   -0.0174 N   0  0  0  0  0  0  0  0  0  0  0  0
   -2.1330   -0.7931   -0.8803 C   0  0  2  0  0  0  0  0  0  0  0  0
   -2.2783   -2.2871   -0.7155 C   0  0  0  0  0  0  0  0  0  0  0  0
   -1.3329   -3.2287   -0.6576 N   0  0  0  0  0  0  0  0  0  0  0  0
   -1.8932   -4.4392   -0.5092 C   0  0  0  0  0  0  0  0  0  0  0  0
   -3.2594   -4.2625   -0.4710 C   0  0  0  0  0  0  0  0  0  0  0  0
   -3.4544   -2.9399   -0.5992 N   0  0  0  0  0  0  0  0  0  0  0  0
   -4.3057   -5.2979   -0.3215 C   0  0  0  0  0  0  0  0  0  0  0  0
   -5.6163   -4.8602   -0.3173 C   0  0  0  0  0  0  0  0  0  0  0  0
   -6.6345   -5.8027   -0.1793 C   0  0  0  0  0  0  0  0  0  0  0  0
   -6.3082   -7.1468   -0.0501 C   0  0  0  0  0  0  0  0  0  0  0  0
   -4.9847   -7.5337   -0.0599 C   0  0  0  0  0  0  0  0  0  0  0  0
   -3.9511   -6.6064   -0.1971 C   0  0  0  0  0  0  0  0  0  0  0  0
   -2.0038   -0.3598   -2.2915 C   0  0  0  0  0  0  0  0  0  0  0  0
    0.2583   -0.7245   -0.3989 C   0  0  0  0  0  0  0  0  0  0  0  0
    0.3879   -1.4550   -1.4682 O   0  0  0  0  0  0  0  0  0  0  0  0
    1.5554   -0.4315    0.2486 C   0  0  2  0  0  0  0  0  0  0  0  0
    2.4602    0.2962   -0.7765 C   0  0  0  0  0  0  0  0  0  0  0  0
    3.7898    0.5911   -0.2655 C   0  0  0  0  0  0  0  0  0  0  0  0
    4.1170    1.6060    0.6054 C   0  0  0  0  0  0  0  0  0  0  0  0
    3.0651    2.5158    1.0584 C   0  0  0  0  0  0  0  0  0  0  0  0
    5.4033    1.8380    1.0695 C   0  0  0  0  0  0  0  0  0  0  0  0
    6.4392    1.0452    0.6702 C   0  0  0  0  0  0  0  0  0  0  0  0
    6.1548    0.0219   -0.1998 C   0  0  0  0  0  0  0  0  0  0  0  0
    4.8592   -0.2192   -0.6732 C   0  0  0  0  0  0  0  0  0  0  0  0
    4.7113   -1.3427   -1.6189 C   0  0  0  0  0  0  0  0  0  0  0  0
    7.8022    1.2375    1.1148 C   0  0  0  0  0  0  0  0  0  0  0  0
    8.7455    0.4686    0.7311 O   0  0  0  0  0  0  0  0  0  0  0  0
    8.1574    2.2973    2.0048 N   0  0  0  0  0  0  0  0  0  0  0  0
    2.2106   -1.7487    0.4026 N   0  0  0  0  0  0  0  0  0  0  0  0
   -0.3550    6.6824    1.5761 H   0  0  0  0  0  0  0  0  0  0  0  0
    0.0529    6.8862   -0.1455 H   0  0  0  0  0  0  0  0  0  0  0  0
   -1.1629    7.9932    0.5561 H   0  0  0  0  0  0  0  0  0  0  0  0
    0.2702    4.7590    1.3044 H   0  0  0  0  0  0  0  0  0  0  0  0
    0.3499    2.3026    1.6761 H   0  0  0  0  0  0  0  0  0  0  0  0
   -3.5105    1.9023    0.0699 H   0  0  0  0  0  0  0  0  0  0  0  0
   -5.0124    6.1958   -0.4839 H   0  0  0  0  0  0  0  0  0  0  0  0
   -0.7865    0.2116    2.0222 H   0  0  0  0  0  0  0  0  0  0  0  0
   -2.4333    0.0725    1.4480 H   0  0  0  0  0  0  0  0  0  0  0  0
   -3.0885   -0.3652   -0.4662 H   0  0  0  0  0  0  0  0  0  0  0  0
   -1.3743   -5.3848   -0.4329 H   0  0  0  0  0  0  0  0  0  0  0  0
   -4.3793   -2.4600   -0.6097 H   0  0  0  0  0  0  0  0  0  0  0  0
   -5.8872   -3.8058   -0.4160 H   0  0  0  0  0  0  0  0  0  0  0  0
   -7.6536   -5.4787   -0.1756 H   0  0  0  0  0  0  0  0  0  0  0  0
   -7.1295   -7.8342    0.0530 H   0  0  0  0  0  0  0  0  0  0  0  0
   -4.7358   -8.5845    0.0401 H   0  0  0  0  0  0  0  0  0  0  0  0
   -2.9106   -6.8965   -0.2051 H   0  0  0  0  0  0  0  0  0  0  0  0
   -2.9998   -0.0677   -2.6772 H   0  0  0  0  0  0  0  0  0  0  0  0
   -1.6690   -1.2358   -2.8949 H   0  0  0  0  0  0  0  0  0  0  0  0
   -1.3331    0.5079   -2.4468 H   0  0  0  0  0  0  0  0  0  0  0  0
    1.5458    0.1608    1.1373 H   0  0  0  0  0  0  0  0  0  0  0  0
    1.9069    1.1889   -1.1388 H   0  0  0  0  0  0  0  0  0  0  0  0
    2.4929   -0.3938   -1.6357 H   0  0  0  0  0  0  0  0  0  0  0  0
    2.2576    2.6678    0.3146 H   0  0  0  0  0  0  0  0  0  0  0  0
    2.7046    2.2744    2.0698 H   0  0  0  0  0  0  0  0  0  0  0  0
    3.5269    3.5434    1.1641 H   0  0  0  0  0  0  0  0  0  0  0  0
    5.6374    2.6471    1.7596 H   0  0  0  0  0  0  0  0  0  0  0  0
    6.9833   -0.6195   -0.5239 H   0  0  0  0  0  0  0  0  0  0  0  0
    5.7343   -1.5738   -2.0558 H   0  0  0  0  0  0  0  0  0  0  0  0
    4.3982   -2.2901   -1.1504 H   0  0  0  0  0  0  0  0  0  0  0  0
    4.1232   -1.0708   -2.5312 H   0  0  0  0  0  0  0  0  0  0  0  0
    9.0791    2.7770    1.8451 H   0  0  0  0  0  0  0  0  0  0  0  0
    7.5297    2.6011    2.7993 H   0  0  0  0  0  0  0  0  0  0  0  0
    1.7247   -2.2119    1.2152 H   0  0  0  0  0  0  0  0  0  0  0  0
    1.9732   -2.3008   -0.4631 H   0  0  0  0  0  0  0  0  0  0  0  0
  1  2  1  0
  2  3  1  0
  3  4  2  0
  4  5  1  0
  5  6  2  0
  6  7  1  0
  7  8  2  0
  8  9  1  0
  9 10  2  0
  9 11  1  0
  6 12  1  0
 12 13  1  0
 13 14  1  0
 14 15  1  0
 15 16  2  0
 16 17  1  0
 17 18  2  0
 18 19  1  0
 18 20  1  0
 20 21  2  0
 21 22  1  0
 22 23  2  0
 23 24  1  0
 24 25  2  0
 14 26  1  0
 13 27  1  0
 27 28  2  0
 27 29  1  0
 29 30  1  0
 30 31  1  0
 31 32  2  0
 32 33  1  0
 32 34  1  0
 34 35  2  0
 35 36  1  0
 36 37  2  0
 37 38  1  0
 35 39  1  0
 39 40  2  0
 39 41  1  0
 29 42  1  0
  8  3  1  0
 19 15  1  0
 25 20  1  0
 37 31  1  0
  1 43  1  0
  1 44  1  0
  1 45  1  0
  4 46  1  0
  5 47  1  0
  7 48  1  0
 11 49  1  0
 12 50  1  0
 12 51  1  0
 14 52  1  1
 17 53  1  0
 19 54  1  0
 21 55  1  0
 22 56  1  0
 23 57  1  0
 24 58  1  0
 25 59  1  0
 26 60  1  0
 26 61  1  0
 26 62  1  0
 29 63  1  1
 30 64  1  0
 30 65  1  0
 33 66  1  0
 33 67  1  0
 33 68  1  0
 34 69  1  0
 36 70  1  0
 38 71  1  0
 38 72  1  0
 38 73  1  0
 41 74  1  0
 41 75  1  0
 42 76  1  0
 42 77  1  0
M  END
>  <Ligand ID>  (1) 
LIG0003749

>  <Ligand>  (1) 
eluxadoline

>  <SMILES>  (1) 
COc1ccc(cc1C(=O)O)CN([C@H](c1ncc([nH]1)c1ccccc1)C)C(=O)[C@H](Cc1c(C)cc(cc1C)C(=O)N)N

>  <CID>  (1) 
11250029.0

>  <ChEMBL ID>  (1) 
nan

>  <InChiKey>  (1) 
QFNHIDANIVGXPE-FNZWTVRRSA-N

>  <InChi>  (1) 
InChI=1S/C32H35N5O5/c1-18-12-23(29(34)38)13-19(2)24(18)15-26(33)31(39)37(17-21-10-11-28(42-4)25(14-21)32(40)41)20(3)30-35-16-27(36-30)22-8-6-5-7-9-22/h5-14,16,20,26H,15,17,33H2,1-4H3,(H2,34,38)(H,35,36)(H,40,41)/t20-,26-/m0/s1

>  <IUPAC Name>  (1) 
5-[[[(2S)-2-amino-3-(4-carbamoyl-2,6-dimethylphenyl)propanoyl]-[(1S)-1-(5-phenyl-1H-imidazol-2-yl)ethyl]amino]methyl]-2-methoxybenzoic acid

$$$$
