
     RDKit          3D

 89 91  0  0  0  0  0  0  0  0999 V2000
   -7.6753    0.8682    1.6227 C   0  0  0  0  0  0  0  0  0  0  0  0
   -6.5737    0.7206    0.5891 C   0  0  0  0  0  0  0  0  0  0  0  0
   -6.8343    1.2800   -0.5030 O   0  0  0  0  0  0  0  0  0  0  0  0
   -5.4371    0.0077    0.9519 N   0  0  0  0  0  0  0  0  0  0  0  0
   -4.2625   -0.2948    0.1993 C   0  0  2  0  0  0  0  0  0  0  0  0
   -2.9998   -0.2008    0.9115 C   0  0  0  0  0  0  0  0  0  0  0  0
   -2.8855    0.1909    2.1258 O   0  0  0  0  0  0  0  0  0  0  0  0
   -1.8041   -0.5598    0.2578 N   0  0  0  0  0  0  0  0  0  0  0  0
   -0.4859   -0.4982    0.9337 C   0  0  2  0  0  0  0  0  0  0  0  0
    0.3602    0.4836    0.2230 C   0  0  0  0  0  0  0  0  0  0  0  0
   -0.1976    1.0912   -0.7373 O   0  0  0  0  0  0  0  0  0  0  0  0
    1.7046    0.8026    0.5074 N   0  0  0  0  0  0  0  0  0  0  0  0
    2.3204    1.8027   -0.3458 C   0  0  2  0  0  0  0  0  0  0  0  0
    3.2497    1.0119   -1.2457 C   0  0  0  0  0  0  0  0  0  0  0  0
    3.5220    1.6095   -2.3362 O   0  0  0  0  0  0  0  0  0  0  0  0
    3.7488   -0.2480   -0.8891 N   0  0  0  0  0  0  0  0  0  0  0  0
    4.5868   -1.1582   -1.5645 C   0  0  1  0  0  0  0  0  0  0  0  0
    5.6381   -0.5332   -2.4322 C   0  0  0  0  0  0  0  0  0  0  0  0
    6.3783   -1.4415   -3.0098 O   0  0  0  0  0  0  0  0  0  0  0  0
    5.9563    0.7682   -2.7242 N   0  0  0  0  0  0  0  0  0  0  0  0
    5.2948   -2.1339   -0.6648 C   0  0  0  0  0  0  0  0  0  0  0  0
    4.4216   -2.9957    0.1522 C   0  0  0  0  0  0  0  0  0  0  0  0
    4.0900   -2.5900    1.4542 C   0  0  0  0  0  0  0  0  0  0  0  0
    3.2656   -3.4007    2.2475 C   0  0  0  0  0  0  0  0  0  0  0  0
    2.8010   -4.5772    1.7316 C   0  0  0  0  0  0  0  0  0  0  0  0
    3.1301   -4.9510    0.4791 C   0  0  0  0  0  0  0  0  0  0  0  0
    3.9244   -4.2081   -0.3387 C   0  0  0  0  0  0  0  0  0  0  0  0
    3.0172    2.8530    0.4431 C   0  0  0  0  0  0  0  0  0  0  0  0
    3.6753    3.9351   -0.3459 C   0  0  0  0  0  0  0  0  0  0  0  0
    2.6928    4.6992   -1.2024 C   0  0  0  0  0  0  0  0  0  0  0  0
    1.6569    5.3261   -0.4067 N   0  0  0  0  0  0  0  0  0  0  0  0
    1.5088    6.6052   -0.3487 C   0  0  0  0  0  0  0  0  0  0  0  0
    2.3120    7.5162   -1.0302 N   0  0  0  0  0  0  0  0  0  0  0  0
    0.4319    7.0911    0.4930 N   0  0  0  0  0  0  0  0  0  0  0  0
    0.0919   -1.8970    0.9664 C   0  0  0  0  0  0  0  0  0  0  0  0
   -0.9100   -2.7276    1.7283 C   0  0  0  0  0  0  0  0  0  0  0  0
   -1.9491   -3.3226    1.0081 C   0  0  0  0  0  0  0  0  0  0  0  0
   -2.8663   -4.0657    1.6892 C   0  0  0  0  0  0  0  0  0  0  0  0
   -2.8062   -4.2514    3.0709 C   0  0  0  0  0  0  0  0  0  0  0  0
   -1.7621   -3.6419    3.7114 C   0  0  0  0  0  0  0  0  0  0  0  0
   -0.7998   -2.8758    3.0766 C   0  0  0  0  0  0  0  0  0  0  0  0
   -4.2582    0.2612   -1.2177 C   0  0  0  0  0  0  0  0  0  0  0  0
   -5.3394   -0.3831   -1.9818 C   0  0  0  0  0  0  0  0  0  0  0  0
   -6.2067   -1.4251   -1.6784 C   0  0  0  0  0  0  0  0  0  0  0  0
   -6.9744   -1.7143   -2.7268 N   0  0  0  0  0  0  0  0  0  0  0  0
   -6.6211   -0.8707   -3.7237 C   0  0  0  0  0  0  0  0  0  0  0  0
   -5.6400   -0.0756   -3.2690 N   0  0  0  0  0  0  0  0  0  0  0  0
   -7.6806   -0.0487    2.2269 H   0  0  0  0  0  0  0  0  0  0  0  0
   -7.3714    1.7268    2.2912 H   0  0  0  0  0  0  0  0  0  0  0  0
   -8.6495    1.0262    1.1757 H   0  0  0  0  0  0  0  0  0  0  0  0
   -5.4319   -0.3976    1.9490 H   0  0  0  0  0  0  0  0  0  0  0  0
   -4.4120   -1.4274   -0.0591 H   0  0  0  0  0  0  0  0  0  0  0  0
   -1.7447   -0.9027   -0.7338 H   0  0  0  0  0  0  0  0  0  0  0  0
   -0.6439   -0.1617    1.9649 H   0  0  0  0  0  0  0  0  0  0  0  0
    2.1639    0.3226    1.3020 H   0  0  0  0  0  0  0  0  0  0  0  0
    1.5548    2.2585   -0.9825 H   0  0  0  0  0  0  0  0  0  0  0  0
    3.4130   -0.5911    0.0888 H   0  0  0  0  0  0  0  0  0  0  0  0
    4.0135   -1.7657   -2.3516 H   0  0  0  0  0  0  0  0  0  0  0  0
    6.3677    1.5085   -2.0805 H   0  0  0  0  0  0  0  0  0  0  0  0
    5.7832    1.0998   -3.7356 H   0  0  0  0  0  0  0  0  0  0  0  0
    6.0952   -1.6499   -0.0645 H   0  0  0  0  0  0  0  0  0  0  0  0
    5.8611   -2.8090   -1.3633 H   0  0  0  0  0  0  0  0  0  0  0  0
    4.4289   -1.6881    1.9118 H   0  0  0  0  0  0  0  0  0  0  0  0
    2.9966   -3.1008    3.2570 H   0  0  0  0  0  0  0  0  0  0  0  0
    2.1524   -5.2119    2.3660 H   0  0  0  0  0  0  0  0  0  0  0  0
    2.7491   -5.8892    0.0720 H   0  0  0  0  0  0  0  0  0  0  0  0
    4.1791   -4.5299   -1.3579 H   0  0  0  0  0  0  0  0  0  0  0  0
    3.7892    2.4484    1.1305 H   0  0  0  0  0  0  0  0  0  0  0  0
    2.2142    3.3764    1.0462 H   0  0  0  0  0  0  0  0  0  0  0  0
    4.0153    4.7018    0.4194 H   0  0  0  0  0  0  0  0  0  0  0  0
    4.5986    3.6575   -0.8721 H   0  0  0  0  0  0  0  0  0  0  0  0
    3.2848    5.5186   -1.7051 H   0  0  0  0  0  0  0  0  0  0  0  0
    2.1835    4.0790   -1.9539 H   0  0  0  0  0  0  0  0  0  0  0  0
    3.1014    8.0761   -0.5871 H   0  0  0  0  0  0  0  0  0  0  0  0
    2.1398    7.6791   -2.0633 H   0  0  0  0  0  0  0  0  0  0  0  0
    0.6768    7.7528    1.2730 H   0  0  0  0  0  0  0  0  0  0  0  0
   -0.5519    6.8181    0.3591 H   0  0  0  0  0  0  0  0  0  0  0  0
    0.9789   -1.8651    1.6137 H   0  0  0  0  0  0  0  0  0  0  0  0
    0.2363   -2.3567   -0.0100 H   0  0  0  0  0  0  0  0  0  0  0  0
   -2.0356   -3.2087   -0.0593 H   0  0  0  0  0  0  0  0  0  0  0  0
   -3.7085   -4.5595    1.2048 H   0  0  0  0  0  0  0  0  0  0  0  0
   -3.5184   -4.8324    3.6270 H   0  0  0  0  0  0  0  0  0  0  0  0
   -1.7051   -3.7851    4.7947 H   0  0  0  0  0  0  0  0  0  0  0  0
   -0.0082   -2.4330    3.6734 H   0  0  0  0  0  0  0  0  0  0  0  0
   -4.3030    1.3604   -1.2122 H   0  0  0  0  0  0  0  0  0  0  0  0
   -3.2841   -0.0547   -1.6787 H   0  0  0  0  0  0  0  0  0  0  0  0
   -6.2327   -1.9126   -0.7082 H   0  0  0  0  0  0  0  0  0  0  0  0
   -7.0146   -0.7945   -4.7225 H   0  0  0  0  0  0  0  0  0  0  0  0
   -5.1720    0.6831   -3.8412 H   0  0  0  0  0  0  0  0  0  0  0  0
  1  2  1  0
  2  3  2  0
  2  4  1  0
  4  5  1  0
  5  6  1  0
  6  7  2  0
  6  8  1  0
  8  9  1  0
  9 10  1  0
 10 11  2  0
 10 12  1  0
 12 13  1  0
 13 14  1  0
 14 15  2  0
 14 16  1  0
 16 17  1  0
 17 18  1  0
 18 19  2  0
 18 20  1  0
 17 21  1  0
 21 22  1  0
 22 23  2  0
 23 24  1  0
 24 25  2  0
 25 26  1  0
 26 27  2  0
 13 28  1  0
 28 29  1  0
 29 30  1  0
 30 31  1  0
 31 32  2  3
 32 33  1  0
 32 34  1  0
  9 35  1  0
 35 36  1  0
 36 37  2  0
 37 38  1  0
 38 39  2  0
 39 40  1  0
 40 41  2  0
  5 42  1  0
 42 43  1  0
 43 44  2  0
 44 45  1  0
 45 46  2  0
 46 47  1  0
 27 22  1  0
 41 36  1  0
 47 43  1  0
  1 48  1  0
  1 49  1  0
  1 50  1  0
  4 51  1  0
  5 52  1  6
  8 53  1  0
  9 54  1  1
 12 55  1  0
 13 56  1  6
 16 57  1  0
 17 58  1  6
 20 59  1  0
 20 60  1  0
 21 61  1  0
 21 62  1  0
 23 63  1  0
 24 64  1  0
 25 65  1  0
 26 66  1  0
 27 67  1  0
 28 68  1  0
 28 69  1  0
 29 70  1  0
 29 71  1  0
 30 72  1  0
 30 73  1  0
 33 74  1  0
 33 75  1  0
 34 76  1  0
 34 77  1  0
 35 78  1  0
 35 79  1  0
 37 80  1  0
 38 81  1  0
 39 82  1  0
 40 83  1  0
 41 84  1  0
 42 85  1  0
 42 86  1  0
 44 87  1  0
 46 88  1  0
 47 89  1  0
M  END
>  <Ligand ID>  (1) 
LIG0001410

>  <Ligand>  (1) 
CHEMBL152986

>  <SMILES>  (1) 
CC(=O)N[C@H](C(=O)N[C@H](C(=O)N[C@H](C(=O)N[C@@H](C(=O)N)Cc1ccccc1)CCCN=C(N)N)Cc1ccccc1)Cc1cnc[nH]1

>  <CID>  (1) 
44369216.0

>  <ChEMBL ID>  (1) 
nan

>  <InChiKey>  (1) 
LIEAUBZBWVCSAC-XUJYPJAKSA-N

>  <InChi>  (1) 
InChI=1S/C32H42N10O5/c1-20(43)39-27(17-23-18-36-19-38-23)31(47)42-26(16-22-11-6-3-7-12-22)30(46)40-24(13-8-14-37-32(34)35)29(45)41-25(28(33)44)15-21-9-4-2-5-10-21/h2-7,9-12,18-19,24-27H,8,13-17H2,1H3,(H2,33,44)(H,36,38)(H,39,43)(H,40,46)(H,41,45)(H,42,47)(H4,34,35,37)/t24-,25+,26-,27-/m0/s1

>  <IUPAC Name>  (1) 
(2S)-2-[[(2S)-2-[[(2S)-2-acetamido-3-(1H-imidazol-5-yl)propanoyl]amino]-3-phenylpropanoyl]amino]-N-[(2R)-1-amino-1-oxo-3-phenylpropan-2-yl]-5-(diaminomethylideneamino)pentanamide

$$$$
