
     RDKit          3D

 60 64  0  0  0  0  0  0  0  0999 V2000
   -3.2652    5.7256   -1.2021 Cl  0  0  0  0  0  0  0  0  0  0  0  0
   -3.1592    4.0182   -0.8674 C   0  0  0  0  0  0  0  0  0  0  0  0
   -3.6287    3.4349    0.2883 C   0  0  0  0  0  0  0  0  0  0  0  0
   -3.5161    2.0607    0.5016 C   0  0  0  0  0  0  0  0  0  0  0  0
   -2.9340    1.2174   -0.4248 C   0  0  0  0  0  0  0  0  0  0  0  0
   -2.4669    1.8388   -1.5873 C   0  0  0  0  0  0  0  0  0  0  0  0
   -2.5754    3.1918   -1.8018 C   0  0  0  0  0  0  0  0  0  0  0  0
   -2.8177   -0.2533   -0.2196 C   0  0  0  0  0  0  0  0  0  0  0  0
   -2.0462   -0.6478    0.9601 C   0  0  0  0  0  0  0  0  0  0  0  0
   -2.5699   -1.0724    2.1579 C   0  0  0  0  0  0  0  0  0  0  0  0
   -1.7747   -1.4268    3.2461 C   0  0  0  0  0  0  0  0  0  0  0  0
   -0.4220   -1.3630    3.1574 C   0  0  0  0  0  0  0  0  0  0  0  0
    0.1403   -0.9440    1.9779 C   0  0  0  0  0  0  0  0  0  0  0  0
   -0.6447   -0.5949    0.9060 C   0  0  0  0  0  0  0  0  0  0  0  0
    1.5115   -0.8720    1.8665 C   0  0  0  0  0  0  0  0  0  0  0  0
    2.2195   -1.2307    2.9611 N   0  0  0  0  0  0  0  0  0  0  0  0
    1.6860   -1.6386    4.1103 C   0  0  0  0  0  0  0  0  0  0  0  0
    0.3470   -1.7017    4.1980 N   0  0  0  0  0  0  0  0  0  0  0  0
    2.1880   -0.4522    0.6937 N   0  0  0  0  0  0  0  0  0  0  0  0
    3.6584   -0.4188    0.7021 C   0  0  2  0  0  0  0  0  0  0  0  0
    4.2208    0.0344   -0.5744 C   0  0  0  0  0  0  0  0  0  0  0  0
    3.7726   -0.4222   -1.7999 C   0  0  0  0  0  0  0  0  0  0  0  0
    4.3559    0.0545   -2.9703 C   0  0  0  0  0  0  0  0  0  0  0  0
    5.3802    0.9799   -2.9561 C   0  0  0  0  0  0  0  0  0  0  0  0
    5.8275    1.4354   -1.7382 C   0  0  0  0  0  0  0  0  0  0  0  0
    5.2472    0.9608   -0.5797 C   0  0  0  0  0  0  0  0  0  0  0  0
    6.9290    2.4343   -1.6309 C   0  0  0  0  0  0  0  0  0  0  0  0
    6.7548    3.4881   -2.5090 F   0  0  0  0  0  0  0  0  0  0  0  0
    8.1760    1.8497   -1.7439 F   0  0  0  0  0  0  0  0  0  0  0  0
    6.9006    3.0070   -0.3601 F   0  0  0  0  0  0  0  0  0  0  0  0
    4.1935   -1.7909    1.0767 C   0  0  0  0  0  0  0  0  0  0  0  0
   -4.0661   -0.9987   -0.4689 C   0  0  0  0  0  0  0  0  0  0  0  0
   -4.1439   -1.9502   -1.4969 C   0  0  0  0  0  0  0  0  0  0  0  0
   -5.2846   -2.6581   -1.7754 C   0  0  0  0  0  0  0  0  0  0  0  0
   -6.4389   -2.4719   -1.0491 C   0  0  0  0  0  0  0  0  0  0  0  0
   -6.3961   -1.5453   -0.0335 C   0  0  0  0  0  0  0  0  0  0  0  0
   -5.2309   -0.8227    0.2502 C   0  0  0  0  0  0  0  0  0  0  0  0
   -7.9219   -3.3436   -1.3565 Cl  0  0  0  0  0  0  0  0  0  0  0  0
   -4.0956    4.0757    1.0422 H   0  0  0  0  0  0  0  0  0  0  0  0
   -3.8957    1.6966    1.4230 H   0  0  0  0  0  0  0  0  0  0  0  0
   -1.9931    1.2285   -2.3652 H   0  0  0  0  0  0  0  0  0  0  0  0
   -2.1837    3.6003   -2.7403 H   0  0  0  0  0  0  0  0  0  0  0  0
   -2.1473   -0.5700   -1.1077 H   0  0  0  0  0  0  0  0  0  0  0  0
   -3.6164   -1.1478    2.2914 H   0  0  0  0  0  0  0  0  0  0  0  0
   -2.2223   -1.7565    4.1737 H   0  0  0  0  0  0  0  0  0  0  0  0
   -0.2231   -0.2628   -0.0303 H   0  0  0  0  0  0  0  0  0  0  0  0
    2.3495   -1.9076    4.9404 H   0  0  0  0  0  0  0  0  0  0  0  0
    1.7461   -0.1596   -0.1893 H   0  0  0  0  0  0  0  0  0  0  0  0
    3.9279    0.2991    1.5053 H   0  0  0  0  0  0  0  0  0  0  0  0
    2.9650   -1.1521   -1.8206 H   0  0  0  0  0  0  0  0  0  0  0  0
    3.9723   -0.3317   -3.9104 H   0  0  0  0  0  0  0  0  0  0  0  0
    5.8358    1.3523   -3.8666 H   0  0  0  0  0  0  0  0  0  0  0  0
    5.6209    1.3390    0.3834 H   0  0  0  0  0  0  0  0  0  0  0  0
    4.5709   -1.8108    2.1162 H   0  0  0  0  0  0  0  0  0  0  0  0
    3.3790   -2.5195    0.9681 H   0  0  0  0  0  0  0  0  0  0  0  0
    5.0040   -2.0405    0.3592 H   0  0  0  0  0  0  0  0  0  0  0  0
   -3.2749   -2.1622   -2.1241 H   0  0  0  0  0  0  0  0  0  0  0  0
   -5.3218   -3.3843   -2.5701 H   0  0  0  0  0  0  0  0  0  0  0  0
   -7.3005   -1.3703    0.5681 H   0  0  0  0  0  0  0  0  0  0  0  0
   -5.3025   -0.1279    1.0453 H   0  0  0  0  0  0  0  0  0  0  0  0
  1  2  1  0
  2  3  2  0
  3  4  1  0
  4  5  2  0
  5  6  1  0
  6  7  2  0
  5  8  1  0
  8  9  1  0
  9 10  2  0
 10 11  1  0
 11 12  2  0
 12 13  1  0
 13 14  2  0
 13 15  1  0
 15 16  2  0
 16 17  1  0
 17 18  2  0
 15 19  1  0
 19 20  1  0
 20 21  1  0
 21 22  2  0
 22 23  1  0
 23 24  2  0
 24 25  1  0
 25 26  2  0
 25 27  1  0
 27 28  1  0
 27 29  1  0
 27 30  1  0
 20 31  1  0
  8 32  1  0
 32 33  2  0
 33 34  1  0
 34 35  2  0
 35 36  1  0
 36 37  2  0
 35 38  1  0
  7  2  1  0
 14  9  1  0
 26 21  1  0
 37 32  1  0
 18 12  1  0
  3 39  1  0
  4 40  1  0
  6 41  1  0
  7 42  1  0
  8 43  1  0
 10 44  1  0
 11 45  1  0
 14 46  1  0
 17 47  1  0
 19 48  1  0
 20 49  1  1
 22 50  1  0
 23 51  1  0
 24 52  1  0
 26 53  1  0
 31 54  1  0
 31 55  1  0
 31 56  1  0
 33 57  1  0
 34 58  1  0
 36 59  1  0
 37 60  1  0
M  END
>  <Ligand ID>  (1) 
LIG0005196

>  <Ligand>  (1) 
SCHEMBL17557580

>  <SMILES>  (1) 
Clc1ccc(cc1)C(c1ccc2c(c1)c(ncn2)N[C@H](c1cccc(c1)C(F)(F)F)C)c1ccc(cc1)Cl

>  <CID>  (1) 
118916066.0

>  <ChEMBL ID>  (1) 
nan

>  <InChiKey>  (1) 
NHOYNTKXPWSTFS-SFHVURJKSA-N

>  <InChi>  (1) 
InChI=1S/C30H22Cl2F3N3/c1-18(21-3-2-4-23(15-21)30(33,34)35)38-29-26-16-22(9-14-27(26)36-17-37-29)28(19-5-10-24(31)11-6-19)20-7-12-25(32)13-8-20/h2-18,28H,1H3,(H,36,37,38)/t18-/m0/s1

>  <IUPAC Name>  (1) 
6-[bis(4-chlorophenyl)methyl]-N-[(1S)-1-[3-(trifluoromethyl)phenyl]ethyl]quinazolin-4-amine

$$$$
