
     RDKit          3D

 57 62  0  0  0  0  0  0  0  0999 V2000
    2.5196    1.1569    1.8150 O   0  0  0  0  0  0  0  0  0  0  0  0
    2.5734    0.2398    0.9656 C   0  0  0  0  0  0  0  0  0  0  0  0
    1.4037   -0.3084    0.3702 N   0  0  0  0  0  0  0  0  0  0  0  0
    0.0584    0.1744    0.7206 C   0  0  2  0  0  0  0  0  0  0  0  0
   -0.6647   -0.9092    1.4573 C   0  0  0  0  0  0  0  0  0  0  0  0
   -1.7082   -1.5561    0.9496 C   0  0  0  0  0  0  0  0  0  0  0  0
   -2.2802   -1.2920   -0.3888 C   0  0  2  0  0  0  0  0  0  0  0  0
   -2.0228    0.1583   -0.6958 C   0  0  2  0  0  0  0  0  0  0  0  0
   -0.6636    0.6759   -0.4657 C   0  0  1  0  0  0  0  0  0  0  0  0
   -0.9408    2.0765   -0.2506 O   0  0  0  0  0  0  0  0  0  0  0  0
   -2.1232    2.1298    0.4605 C   0  0  0  0  0  0  0  0  0  0  0  0
   -2.8298    0.9828    0.2306 C   0  0  0  0  0  0  0  0  0  0  0  0
   -4.0368    0.6468    0.7422 C   0  0  0  0  0  0  0  0  0  0  0  0
   -4.6126   -0.6648    0.3666 C   0  0  0  0  0  0  0  0  0  0  0  0
   -3.7562   -1.5119   -0.4961 C   0  0  1  0  0  0  0  0  0  0  0  0
   -4.0896   -1.4651   -1.9045 N   0  0  0  0  0  0  0  0  0  0  0  0
   -3.1362   -0.8024   -2.7317 C   0  0  0  0  0  0  0  0  0  0  0  0
   -2.4897    0.4035   -2.1139 C   0  0  0  0  0  0  0  0  0  0  0  0
   -5.4178   -1.0266   -2.1907 C   0  0  0  0  0  0  0  0  0  0  0  0
   -4.6436    1.5455    1.5924 C   0  0  0  0  0  0  0  0  0  0  0  0
   -3.9834    2.7470    1.8785 C   0  0  0  0  0  0  0  0  0  0  0  0
   -2.7381    3.0446    1.3243 C   0  0  0  0  0  0  0  0  0  0  0  0
   -2.0872    4.2309    1.6076 O   0  0  0  0  0  0  0  0  0  0  0  0
    3.8869   -0.2882    0.5700 C   0  0  0  0  0  0  0  0  0  0  0  0
    4.9816    0.2077    1.1107 C   0  0  0  0  0  0  0  0  0  0  0  0
    6.3280   -0.2477    0.7849 C   0  0  0  0  0  0  0  0  0  0  0  0
    7.4344    0.3408    1.4119 C   0  0  0  0  0  0  0  0  0  0  0  0
    8.7139   -0.0399    1.1502 C   0  0  0  0  0  0  0  0  0  0  0  0
    8.9874   -1.0434    0.2369 C   0  0  0  0  0  0  0  0  0  0  0  0
    7.9141   -1.6339   -0.3896 C   0  0  0  0  0  0  0  0  0  0  0  0
    6.6054   -1.2375   -0.1153 C   0  0  0  0  0  0  0  0  0  0  0  0
    1.5086   -1.0753   -0.3355 H   0  0  0  0  0  0  0  0  0  0  0  0
    0.2472    0.9691    1.4743 H   0  0  0  0  0  0  0  0  0  0  0  0
   -0.3137   -1.1716    2.4503 H   0  0  0  0  0  0  0  0  0  0  0  0
   -2.1956   -2.3441    1.5449 H   0  0  0  0  0  0  0  0  0  0  0  0
   -1.7787   -1.9498   -1.1112 H   0  0  0  0  0  0  0  0  0  0  0  0
   -0.0874    0.6596   -1.4092 H   0  0  0  0  0  0  0  0  0  0  0  0
   -5.6015   -0.4606   -0.0889 H   0  0  0  0  0  0  0  0  0  0  0  0
   -4.8218   -1.1977    1.3231 H   0  0  0  0  0  0  0  0  0  0  0  0
   -3.9364   -2.5868   -0.2037 H   0  0  0  0  0  0  0  0  0  0  0  0
   -3.6888   -0.4378   -3.6412 H   0  0  0  0  0  0  0  0  0  0  0  0
   -2.3610   -1.5080   -3.1472 H   0  0  0  0  0  0  0  0  0  0  0  0
   -3.1839    1.2771   -2.1707 H   0  0  0  0  0  0  0  0  0  0  0  0
   -1.5655    0.6224   -2.7097 H   0  0  0  0  0  0  0  0  0  0  0  0
   -6.1896   -1.6234   -1.6562 H   0  0  0  0  0  0  0  0  0  0  0  0
   -5.5949   -1.2837   -3.2765 H   0  0  0  0  0  0  0  0  0  0  0  0
   -5.5593    0.0580   -2.1269 H   0  0  0  0  0  0  0  0  0  0  0  0
   -5.6016    1.2991    2.0093 H   0  0  0  0  0  0  0  0  0  0  0  0
   -4.4514    3.4622    2.5464 H   0  0  0  0  0  0  0  0  0  0  0  0
   -1.4937    4.6188    0.8852 H   0  0  0  0  0  0  0  0  0  0  0  0
    3.9623   -1.0806   -0.1610 H   0  0  0  0  0  0  0  0  0  0  0  0
    4.8570    0.9948    1.8336 H   0  0  0  0  0  0  0  0  0  0  0  0
    7.2417    1.1182    2.1206 H   0  0  0  0  0  0  0  0  0  0  0  0
    9.5398    0.4433    1.6587 H   0  0  0  0  0  0  0  0  0  0  0  0
    9.9837   -1.3784   -0.0027 H   0  0  0  0  0  0  0  0  0  0  0  0
    8.0791   -2.4269   -1.1151 H   0  0  0  0  0  0  0  0  0  0  0  0
    5.8231   -1.7326   -0.6322 H   0  0  0  0  0  0  0  0  0  0  0  0
  1  2  2  0
  2  3  1  0
  3  4  1  0
  4  5  1  0
  5  6  2  0
  6  7  1  0
  7  8  1  0
  8  9  1  0
  9 10  1  0
 10 11  1  0
 11 12  2  0
 12 13  1  0
 13 14  1  0
 14 15  1  0
 15 16  1  0
 16 17  1  0
 17 18  1  0
 16 19  1  0
 13 20  2  0
 20 21  1  0
 21 22  2  0
 22 23  1  0
  2 24  1  0
 24 25  2  0
 25 26  1  0
 26 27  2  0
 27 28  1  0
 28 29  2  0
 29 30  1  0
 30 31  2  0
  9  4  1  0
 22 11  1  0
 31 26  1  0
 15  7  1  0
  8 18  1  6
 12  8  1  0
  3 32  1  0
  4 33  1  1
  5 34  1  0
  6 35  1  0
  7 36  1  6
  9 37  1  6
 14 38  1  0
 14 39  1  0
 15 40  1  1
 17 41  1  0
 17 42  1  0
 18 43  1  0
 18 44  1  0
 19 45  1  0
 19 46  1  0
 19 47  1  0
 20 48  1  0
 21 49  1  0
 23 50  1  0
 24 51  1  0
 25 52  1  0
 27 53  1  0
 28 54  1  0
 29 55  1  0
 30 56  1  0
 31 57  1  0
M  END
>  <Ligand ID>  (1) 
LIG0004593

>  <Ligand>  (1) 
CHEMBL2437063

>  <SMILES>  (1) 
O=C(N[C@@H]1C=C[C@@H]2[C@@]34[C@H]1Oc1c4c(C[C@H]2N(CC3)C)ccc1O)/C=C/c1ccccc1

>  <CID>  (1) 
73330543.0

>  <ChEMBL ID>  (1) 
nan

>  <InChiKey>  (1) 
HBGUKHSNIWDVFP-XUZRCCIISA-N

>  <InChi>  (1) 
InChI=1S/C26H26N2O3/c1-28-14-13-26-18-9-10-19(27-22(30)12-7-16-5-3-2-4-6-16)25(26)31-24-21(29)11-8-17(23(24)26)15-20(18)28/h2-12,18-20,25,29H,13-15H2,1H3,(H,27,30)/b12-7+/t18-,19+,20+,25-,26-/m0/s1

>  <IUPAC Name>  (1) 
(E)-N-[(4R,4aR,7R,7aR,12bS)-9-hydroxy-3-methyl-2,4,4a,7,7a,13-hexahydro-1H-4,12-methanobenzofuro[3,2-e]isoquinolin-7-yl]-3-phenylprop-2-enamide

$$$$
