
     RDKit          3D

 61 61  0  0  0  0  0  0  0  0999 V2000
    0.5091    3.2906    0.2478 O   0  0  0  0  0  0  0  0  0  0  0  0
    1.1317    2.1000   -0.2169 C   0  0  0  0  0  0  0  0  0  0  0  0
    0.1215    1.0145    0.0911 C   0  0  0  0  0  0  0  0  0  0  0  0
   -1.0261    1.3642   -0.6058 O   0  0  0  0  0  0  0  0  0  0  0  0
   -2.0638    0.4228   -0.4081 C   0  0  0  0  0  0  0  0  0  0  0  0
   -2.2272   -0.1490   -1.8208 C   0  0  0  0  0  0  0  0  0  0  0  0
   -3.3575   -1.1015   -1.9597 C   0  0  0  0  0  0  0  0  0  0  0  0
   -3.0402   -2.4954   -1.4157 C   0  0  0  0  0  0  0  0  0  0  0  0
   -4.6177   -0.5463   -1.4002 C   0  0  0  0  0  0  0  0  0  0  0  0
   -4.5187    0.7959   -0.7517 C   0  0  0  0  0  0  0  0  0  0  0  0
   -3.3276    1.0450    0.1028 C   0  0  0  0  0  0  0  0  0  0  0  0
   -3.5903    0.7948    1.5672 C   0  0  0  0  0  0  0  0  0  0  0  0
   -4.8952    1.4834    1.9399 C   0  0  0  0  0  0  0  0  0  0  0  0
   -3.7784   -0.6567    1.9268 C   0  0  0  0  0  0  0  0  0  0  0  0
    2.4553    1.9159    0.4670 C   0  0  0  0  0  0  0  0  0  0  0  0
    3.0785    0.7073   -0.0194 N   0  0  0  0  0  0  0  0  0  0  0  0
    4.3818    0.5429    0.6067 C   0  0  0  0  0  0  0  0  0  0  0  0
    5.0765   -0.6458    0.0576 C   0  0  0  0  0  0  0  0  0  0  0  0
    4.3820   -1.8297   -0.0813 C   0  0  0  0  0  0  0  0  0  0  0  0
    4.9891   -2.9819   -0.5966 C   0  0  0  0  0  0  0  0  0  0  0  0
    6.3146   -2.8860   -0.9612 C   0  0  0  0  0  0  0  0  0  0  0  0
    7.0060   -1.7019   -0.8213 C   0  0  0  0  0  0  0  0  0  0  0  0
    6.4030   -0.5539   -0.3085 C   0  0  0  0  0  0  0  0  0  0  0  0
    4.2258    0.4433    2.1014 C   0  0  0  0  0  0  0  0  0  0  0  0
    0.6876    0.0000    0.0000 Cl  0  0  0  0  0  0  0  0  0  0  0  0
    0.7746    4.0580   -0.2862 H   0  0  0  0  0  0  0  0  0  0  0  0
    1.2222    2.1753   -1.3081 H   0  0  0  0  0  0  0  0  0  0  0  0
    0.5338    0.0503   -0.2820 H   0  0  0  0  0  0  0  0  0  0  0  0
    0.0093    0.9642    1.1765 H   0  0  0  0  0  0  0  0  0  0  0  0
   -1.7409   -0.3881    0.2605 H   0  0  0  0  0  0  0  0  0  0  0  0
   -1.2577   -0.5999   -2.0917 H   0  0  0  0  0  0  0  0  0  0  0  0
   -2.3788    0.6970   -2.4976 H   0  0  0  0  0  0  0  0  0  0  0  0
   -3.4411   -1.2786   -3.0743 H   0  0  0  0  0  0  0  0  0  0  0  0
   -3.2330   -2.5662   -0.3287 H   0  0  0  0  0  0  0  0  0  0  0  0
   -3.6142   -3.2750   -1.9680 H   0  0  0  0  0  0  0  0  0  0  0  0
   -1.9591   -2.6641   -1.5889 H   0  0  0  0  0  0  0  0  0  0  0  0
   -5.1105   -1.3268   -0.7618 H   0  0  0  0  0  0  0  0  0  0  0  0
   -5.3527   -0.4258   -2.2418 H   0  0  0  0  0  0  0  0  0  0  0  0
   -5.4198    0.9219   -0.1221 H   0  0  0  0  0  0  0  0  0  0  0  0
   -4.6043    1.5809   -1.5402 H   0  0  0  0  0  0  0  0  0  0  0  0
   -3.1465    2.1600    0.0673 H   0  0  0  0  0  0  0  0  0  0  0  0
   -2.7844    1.1739    2.1897 H   0  0  0  0  0  0  0  0  0  0  0  0
   -5.7480    0.7784    1.8835 H   0  0  0  0  0  0  0  0  0  0  0  0
   -5.1288    2.3471    1.3049 H   0  0  0  0  0  0  0  0  0  0  0  0
   -4.8716    1.8601    2.9828 H   0  0  0  0  0  0  0  0  0  0  0  0
   -2.8826   -1.2406    1.7150 H   0  0  0  0  0  0  0  0  0  0  0  0
   -4.7357   -1.0798    1.5924 H   0  0  0  0  0  0  0  0  0  0  0  0
   -3.8606   -0.6573    3.0547 H   0  0  0  0  0  0  0  0  0  0  0  0
    2.3730    1.9613    1.5690 H   0  0  0  0  0  0  0  0  0  0  0  0
    3.0887    2.7934    0.1768 H   0  0  0  0  0  0  0  0  0  0  0  0
    2.4819   -0.1137    0.1353 H   0  0  0  0  0  0  0  0  0  0  0  0
    4.9718    1.4455    0.3805 H   0  0  0  0  0  0  0  0  0  0  0  0
    3.3424   -1.9533    0.1917 H   0  0  0  0  0  0  0  0  0  0  0  0
    4.4481   -3.9120   -0.7071 H   0  0  0  0  0  0  0  0  0  0  0  0
    6.7860   -3.7835   -1.3619 H   0  0  0  0  0  0  0  0  0  0  0  0
    8.0485   -1.6579   -1.1171 H   0  0  0  0  0  0  0  0  0  0  0  0
    6.9750    0.3430   -0.2170 H   0  0  0  0  0  0  0  0  0  0  0  0
    4.0918    1.4546    2.5210 H   0  0  0  0  0  0  0  0  0  0  0  0
    3.3278   -0.1888    2.3430 H   0  0  0  0  0  0  0  0  0  0  0  0
    5.1632   -0.0261    2.5038 H   0  0  0  0  0  0  0  0  0  0  0  0
   -0.6876    0.0000    0.0000 H   0  0  0  0  0  0  0  0  0  0  0  0
  1  2  1  0
  2  3  1  0
  3  4  1  0
  4  5  1  0
  5  6  1  0
  6  7  1  0
  7  8  1  0
  7  9  1  0
  9 10  1  0
 10 11  1  0
 11 12  1  0
 12 13  1  0
 12 14  1  0
  2 15  1  0
 15 16  1  0
 16 17  1  0
 17 18  1  0
 18 19  2  0
 19 20  1  0
 20 21  2  0
 21 22  1  0
 22 23  2  0
 17 24  1  0
 11  5  1  0
 23 18  1  0
  1 26  1  0
  2 27  1  0
  3 28  1  0
  3 29  1  0
  5 30  1  0
  6 31  1  0
  6 32  1  0
  7 33  1  0
  8 34  1  0
  8 35  1  0
  8 36  1  0
  9 37  1  0
  9 38  1  0
 10 39  1  0
 10 40  1  0
 11 41  1  0
 12 42  1  0
 13 43  1  0
 13 44  1  0
 13 45  1  0
 14 46  1  0
 14 47  1  0
 14 48  1  0
 15 49  1  0
 15 50  1  0
 16 51  1  0
 17 52  1  0
 19 53  1  0
 20 54  1  0
 21 55  1  0
 22 56  1  0
 23 57  1  0
 24 58  1  0
 24 59  1  0
 24 60  1  0
 25 61  1  0
M  END
>  <Ligand ID>  (1) 
LIG0004002

>  <Ligand>  (1) 
MLS000516282

>  <SMILES>  (1) 
OC(COC1CC(C)CCC1C(C)C)CNC(c1ccccc1)C.Cl

>  <CID>  (1) 
16196804.0

>  <ChEMBL ID>  (1) 
nan

>  <InChiKey>  (1) 
VMYGYNWLYSFAFC-UHFFFAOYSA-N

>  <InChi>  (1) 
InChI=1S/C21H35NO2.ClH/c1-15(2)20-11-10-16(3)12-21(20)24-14-19(23)13-22-17(4)18-8-6-5-7-9-18;/h5-9,15-17,19-23H,10-14H2,1-4H3;1H

>  <IUPAC Name>  (1) 
1-(5-methyl-2-propan-2-ylcyclohexyl)oxy-3-(1-phenylethylamino)propan-2-ol;hydrochloride

$$$$
