
     RDKit          3D

 42 42  0  0  0  0  0  0  0  0999 V2000
   -4.1385    2.4272    0.2229 O   0  0  0  0  0  0  0  0  0  0  0  0
   -3.3050    1.4573    0.2019 C   0  0  0  0  0  0  0  0  0  0  0  0
   -3.8264    0.0974    0.5508 C   0  0  0  0  0  0  0  0  0  0  0  0
   -2.7576   -0.8636    0.9027 C   0  0  0  0  0  0  0  0  0  0  0  0
   -1.8204   -1.2841   -0.2036 C   0  0  0  0  0  0  0  0  0  0  0  0
   -0.7851   -2.1427    0.4306 C   0  0  0  0  0  0  0  0  0  0  0  0
    0.2225   -2.8022   -0.3959 C   0  0  0  0  0  0  0  0  0  0  0  0
    1.0551   -2.0446   -1.3380 C   0  0  0  0  0  0  0  0  0  0  0  0
    1.8269   -0.8663   -0.8007 C   0  0  0  0  0  0  0  0  0  0  0  0
    2.7827   -1.1148    0.2816 C   0  0  0  0  0  0  0  0  0  0  0  0
    3.5605    0.0975    0.6902 C   0  0  0  0  0  0  0  0  0  0  0  0
    2.7446    1.2477    1.1563 C   0  0  0  0  0  0  0  0  0  0  0  0
    1.9515    1.8991    0.0964 C   0  0  0  0  0  0  0  0  0  0  0  0
    2.4682    2.1114   -1.0229 O   0  0  0  0  0  0  0  0  0  0  0  0
    0.6252    2.2984    0.2520 O   0  0  0  0  0  0  0  0  0  0  0  0
   -0.0785    2.8888   -0.8317 C   0  0  0  0  0  0  0  0  0  0  0  0
   -1.5557    3.0376   -0.4316 C   0  0  0  0  0  0  0  0  0  0  0  0
   -2.0287    1.7227   -0.1268 O   0  0  0  0  0  0  0  0  0  0  0  0
   -4.4053   -0.3028   -0.3255 H   0  0  0  0  0  0  0  0  0  0  0  0
   -4.5554    0.2085    1.3645 H   0  0  0  0  0  0  0  0  0  0  0  0
   -2.1728   -0.3890    1.7499 H   0  0  0  0  0  0  0  0  0  0  0  0
   -3.2232   -1.7533    1.3942 H   0  0  0  0  0  0  0  0  0  0  0  0
   -2.4725   -1.8684   -0.9129 H   0  0  0  0  0  0  0  0  0  0  0  0
   -1.4275   -0.4088   -0.7217 H   0  0  0  0  0  0  0  0  0  0  0  0
   -0.3625   -1.5755    1.2937 H   0  0  0  0  0  0  0  0  0  0  0  0
   -1.3664   -2.9699    0.9507 H   0  0  0  0  0  0  0  0  0  0  0  0
    0.9390   -3.3524    0.2973 H   0  0  0  0  0  0  0  0  0  0  0  0
   -0.2703   -3.6220   -0.9860 H   0  0  0  0  0  0  0  0  0  0  0  0
    0.5270   -1.7789   -2.2918 H   0  0  0  0  0  0  0  0  0  0  0  0
    1.8541   -2.7634   -1.6996 H   0  0  0  0  0  0  0  0  0  0  0  0
    2.3985   -0.4790   -1.6943 H   0  0  0  0  0  0  0  0  0  0  0  0
    1.0273   -0.1462   -0.5153 H   0  0  0  0  0  0  0  0  0  0  0  0
    3.5416   -1.8640   -0.0579 H   0  0  0  0  0  0  0  0  0  0  0  0
    2.3070   -1.5190    1.2125 H   0  0  0  0  0  0  0  0  0  0  0  0
    4.1287    0.4366   -0.2278 H   0  0  0  0  0  0  0  0  0  0  0  0
    4.3791   -0.1584    1.4185 H   0  0  0  0  0  0  0  0  0  0  0  0
    2.0793    0.9085    1.9968 H   0  0  0  0  0  0  0  0  0  0  0  0
    3.4512    2.0087    1.5895 H   0  0  0  0  0  0  0  0  0  0  0  0
   -0.0073    2.2124   -1.6916 H   0  0  0  0  0  0  0  0  0  0  0  0
    0.3892    3.8615   -1.0378 H   0  0  0  0  0  0  0  0  0  0  0  0
   -1.5694    3.6197    0.4839 H   0  0  0  0  0  0  0  0  0  0  0  0
   -2.1307    3.5278   -1.2236 H   0  0  0  0  0  0  0  0  0  0  0  0
  1  2  2  0
  2  3  1  0
  3  4  1  0
  4  5  1  0
  5  6  1  0
  6  7  1  0
  7  8  1  0
  8  9  1  0
  9 10  1  0
 10 11  1  0
 11 12  1  0
 12 13  1  0
 13 14  2  0
 13 15  1  0
 15 16  1  0
 16 17  1  0
 17 18  1  0
 18  2  1  0
  3 19  1  0
  3 20  1  0
  4 21  1  0
  4 22  1  0
  5 23  1  0
  5 24  1  0
  6 25  1  0
  6 26  1  0
  7 27  1  0
  7 28  1  0
  8 29  1  0
  8 30  1  0
  9 31  1  0
  9 32  1  0
 10 33  1  0
 10 34  1  0
 11 35  1  0
 11 36  1  0
 12 37  1  0
 12 38  1  0
 16 39  1  0
 16 40  1  0
 17 41  1  0
 17 42  1  0
M  END
>  <Ligand ID>  (1) 
LIG0001064

>  <Ligand>  (1) 
Ethylene dodecanedioate

>  <SMILES>  (1) 
O=C1CCCCCCCCCCC(=O)OCCO1

>  <CID>  (1) 
41270.0

>  <ChEMBL ID>  (1) 
nan

>  <InChiKey>  (1) 
GJJSUPSPZIZYPM-UHFFFAOYSA-N

>  <InChi>  (1) 
InChI=1S/C14H24O4/c15-13-9-7-5-3-1-2-4-6-8-10-14(16)18-12-11-17-13/h1-12H2

>  <IUPAC Name>  (1) 
1,4-dioxacyclohexadecane-5,16-dione

$$$$
