
     RDKit          3D

 34 34  0  0  0  0  0  0  0  0999 V2000
   -3.9107    1.5812    0.4820 C   0  0  0  0  0  0  0  0  0  0  0  0
   -3.1887    0.4426   -0.1250 C   0  0  0  0  0  0  0  0  0  0  0  0
   -3.8412   -0.4337   -0.7697 O   0  0  0  0  0  0  0  0  0  0  0  0
   -1.8172    0.3445    0.0152 O   0  0  0  0  0  0  0  0  0  0  0  0
   -1.0511   -0.7109   -0.5331 C   0  0  0  0  0  0  0  0  0  0  0  0
    0.4179   -0.5647   -0.2255 C   0  0  0  0  0  0  0  0  0  0  0  0
    0.7149   -0.5542    1.2356 C   0  0  0  0  0  0  0  0  0  0  0  0
    1.8712    0.3573    1.6225 C   0  0  0  0  0  0  0  0  0  0  0  0
    2.8921    0.4420    0.5420 C   0  0  0  0  0  0  0  0  0  0  0  0
    2.4410    0.6380   -0.7147 C   0  0  0  0  0  0  0  0  0  0  0  0
    0.9404    0.7424   -0.8258 C   0  0  0  0  0  0  0  0  0  0  0  0
    4.3527    0.3220    0.7860 C   0  0  0  0  0  0  0  0  0  0  0  0
   -1.5001   -2.0792   -0.0871 C   0  0  0  0  0  0  0  0  0  0  0  0
   -1.2822   -0.6288   -2.0284 C   0  0  0  0  0  0  0  0  0  0  0  0
   -4.9331    1.2155    0.7412 H   0  0  0  0  0  0  0  0  0  0  0  0
   -3.4734    1.9645    1.4043 H   0  0  0  0  0  0  0  0  0  0  0  0
   -4.0746    2.4169   -0.2198 H   0  0  0  0  0  0  0  0  0  0  0  0
    0.9960   -1.3762   -0.7012 H   0  0  0  0  0  0  0  0  0  0  0  0
    1.0227   -1.5843    1.5708 H   0  0  0  0  0  0  0  0  0  0  0  0
   -0.1590   -0.2864    1.8791 H   0  0  0  0  0  0  0  0  0  0  0  0
    1.5056    1.4043    1.8167 H   0  0  0  0  0  0  0  0  0  0  0  0
    2.3455   -0.0267    2.5483 H   0  0  0  0  0  0  0  0  0  0  0  0
    3.0950    0.7134   -1.5637 H   0  0  0  0  0  0  0  0  0  0  0  0
    0.7152    0.8391   -1.8940 H   0  0  0  0  0  0  0  0  0  0  0  0
    0.5538    1.5755   -0.2125 H   0  0  0  0  0  0  0  0  0  0  0  0
    4.9448    0.9038    0.0466 H   0  0  0  0  0  0  0  0  0  0  0  0
    4.6089    0.7178    1.7868 H   0  0  0  0  0  0  0  0  0  0  0  0
    4.7084   -0.7395    0.6976 H   0  0  0  0  0  0  0  0  0  0  0  0
   -0.7812   -2.7875   -0.5588 H   0  0  0  0  0  0  0  0  0  0  0  0
   -1.4616   -2.2354    0.9923 H   0  0  0  0  0  0  0  0  0  0  0  0
   -2.4987   -2.3545   -0.5322 H   0  0  0  0  0  0  0  0  0  0  0  0
   -2.1991   -1.2168   -2.2372 H   0  0  0  0  0  0  0  0  0  0  0  0
   -0.4699   -1.1092   -2.6033 H   0  0  0  0  0  0  0  0  0  0  0  0
   -1.4844    0.4102   -2.3350 H   0  0  0  0  0  0  0  0  0  0  0  0
  1  2  1  0
  2  3  2  0
  2  4  1  0
  4  5  1  0
  5  6  1  0
  6  7  1  0
  7  8  1  0
  8  9  1  0
  9 10  2  0
 10 11  1  0
  9 12  1  0
  5 13  1  0
  5 14  1  0
 11  6  1  0
  1 15  1  0
  1 16  1  0
  1 17  1  0
  6 18  1  0
  7 19  1  0
  7 20  1  0
  8 21  1  0
  8 22  1  0
 10 23  1  0
 11 24  1  0
 11 25  1  0
 12 26  1  0
 12 27  1  0
 12 28  1  0
 13 29  1  0
 13 30  1  0
 13 31  1  0
 14 32  1  0
 14 33  1  0
 14 34  1  0
M  END
>  <Ligand ID>  (1) 
LIG0000112

>  <Ligand>  (1) 
alpha-Terpinyl acetate

>  <SMILES>  (1) 
CC(=O)OC(C1CCC(=CC1)C)(C)C

>  <CID>  (1) 
111037.0

>  <ChEMBL ID>  (1) 
nan

>  <InChiKey>  (1) 
IGODOXYLBBXFDW-UHFFFAOYSA-N

>  <InChi>  (1) 
InChI=1S/C12H20O2/c1-9-5-7-11(8-6-9)12(3,4)14-10(2)13/h5,11H,6-8H2,1-4H3

>  <IUPAC Name>  (1) 
2-(4-methylcyclohex-3-en-1-yl)propan-2-yl acetate

$$$$
