
     RDKit          3D

 52 55  0  0  0  0  0  0  0  0999 V2000
    6.4556   -3.4123   -1.2950 N   0  0  0  0  0  0  0  0  0  0  0  0
    6.3194   -2.3234   -1.6391 C   0  0  0  0  0  0  0  0  0  0  0  0
    6.1365   -0.9569   -2.0954 C   0  0  0  0  0  0  0  0  0  0  0  0
    6.1376   -0.7563   -3.4531 C   0  0  0  0  0  0  0  0  0  0  0  0
    5.9715    0.4914   -3.9047 N   0  0  0  0  0  0  0  0  0  0  0  0
    5.8088    1.5416   -3.1053 C   0  0  0  0  0  0  0  0  0  0  0  0
    5.8016    1.4003   -1.7016 C   0  0  0  0  0  0  0  0  0  0  0  0
    5.9743    0.1016   -1.2429 C   0  0  0  0  0  0  0  0  0  0  0  0
    6.0146   -0.1778    0.2235 C   0  0  0  0  0  0  0  0  0  0  0  0
    4.9058   -0.7776    0.6711 O   0  0  0  0  0  0  0  0  0  0  0  0
    3.6090   -0.5175    0.7467 C   0  0  0  0  0  0  0  0  0  0  0  0
    2.7833   -1.4913    1.3371 C   0  0  0  0  0  0  0  0  0  0  0  0
    1.4641   -1.2830    1.4377 N   0  0  0  0  0  0  0  0  0  0  0  0
    0.8559   -0.1747    1.0011 C   0  0  0  0  0  0  0  0  0  0  0  0
    1.6182    0.7951    0.4224 N   0  0  0  0  0  0  0  0  0  0  0  0
    2.9439    0.6128    0.3085 C   0  0  0  0  0  0  0  0  0  0  0  0
   -0.5552    0.0286    1.1230 N   0  0  0  0  0  0  0  0  0  0  0  0
   -1.2089   -0.7728    2.1651 C   0  0  0  0  0  0  0  0  0  0  0  0
   -2.3677    0.0853    2.6344 C   0  0  0  0  0  0  0  0  0  0  0  0
   -3.2787    0.0989    1.5035 N   0  0  0  0  0  0  0  0  0  0  0  0
   -2.7674    0.6650    0.2724 C   0  0  0  0  0  0  0  0  0  0  0  0
   -1.3065    0.9219    0.2898 C   0  0  1  0  0  0  0  0  0  0  0  0
   -1.0109    2.3804    0.4996 C   0  0  0  0  0  0  0  0  0  0  0  0
   -4.6064   -0.4122    1.5717 C   0  0  0  0  0  0  0  0  0  0  0  0
   -5.0314   -0.9104    2.6675 O   0  0  0  0  0  0  0  0  0  0  0  0
   -5.3890   -0.3596    0.4685 O   0  0  0  0  0  0  0  0  0  0  0  0
   -6.6741   -0.7682    0.2335 C   0  0  0  0  0  0  0  0  0  0  0  0
   -6.9907   -1.4606   -1.0582 C   0  0  0  0  0  0  0  0  0  0  0  0
   -7.0493   -0.1664   -1.6337 O   0  0  0  0  0  0  0  0  0  0  0  0
   -7.6176    0.2321   -0.3972 C   0  0  0  0  0  0  0  0  0  0  0  0
    6.2629   -1.5835   -4.1469 H   0  0  0  0  0  0  0  0  0  0  0  0
    5.6777    2.5029   -3.5733 H   0  0  0  0  0  0  0  0  0  0  0  0
    5.6707    2.2412   -1.0546 H   0  0  0  0  0  0  0  0  0  0  0  0
    6.9485   -0.7853    0.4326 H   0  0  0  0  0  0  0  0  0  0  0  0
    6.2173    0.8175    0.7484 H   0  0  0  0  0  0  0  0  0  0  0  0
    3.2616   -2.3911    1.6966 H   0  0  0  0  0  0  0  0  0  0  0  0
    3.4905    1.4201   -0.1465 H   0  0  0  0  0  0  0  0  0  0  0  0
   -1.5917   -1.7086    1.7490 H   0  0  0  0  0  0  0  0  0  0  0  0
   -0.5069   -0.9679    3.0032 H   0  0  0  0  0  0  0  0  0  0  0  0
   -1.9635    1.1167    2.8091 H   0  0  0  0  0  0  0  0  0  0  0  0
   -2.8273   -0.2675    3.5552 H   0  0  0  0  0  0  0  0  0  0  0  0
   -3.0911    0.0762   -0.6083 H   0  0  0  0  0  0  0  0  0  0  0  0
   -3.2943    1.6501    0.1665 H   0  0  0  0  0  0  0  0  0  0  0  0
   -0.9354    0.6915   -0.7578 H   0  0  0  0  0  0  0  0  0  0  0  0
   -0.4881    2.6010    1.4468 H   0  0  0  0  0  0  0  0  0  0  0  0
   -0.3623    2.8174   -0.3104 H   0  0  0  0  0  0  0  0  0  0  0  0
   -1.9560    2.9834    0.4764 H   0  0  0  0  0  0  0  0  0  0  0  0
   -7.1445   -1.2344    1.0929 H   0  0  0  0  0  0  0  0  0  0  0  0
   -8.0155   -1.8965   -1.0829 H   0  0  0  0  0  0  0  0  0  0  0  0
   -6.2103   -2.0173   -1.5635 H   0  0  0  0  0  0  0  0  0  0  0  0
   -7.4053    1.2905   -0.2613 H   0  0  0  0  0  0  0  0  0  0  0  0
   -8.6832    0.0094   -0.2736 H   0  0  0  0  0  0  0  0  0  0  0  0
  1  2  3  0
  2  3  1  0
  3  4  2  0
  4  5  1  0
  5  6  2  0
  6  7  1  0
  7  8  2  0
  8  9  1  0
  9 10  1  0
 10 11  1  0
 11 12  2  0
 12 13  1  0
 13 14  2  0
 14 15  1  0
 15 16  2  0
 14 17  1  0
 17 18  1  0
 18 19  1  0
 19 20  1  0
 20 21  1  0
 21 22  1  0
 22 23  1  0
 20 24  1  0
 24 25  2  0
 24 26  1  0
 26 27  1  0
 27 28  1  0
 28 29  1  0
 29 30  1  0
  8  3  1  0
 16 11  1  0
 22 17  1  0
 30 27  1  0
  4 31  1  0
  6 32  1  0
  7 33  1  0
  9 34  1  0
  9 35  1  0
 12 36  1  0
 16 37  1  0
 18 38  1  0
 18 39  1  0
 19 40  1  0
 19 41  1  0
 21 42  1  0
 21 43  1  0
 22 44  1  6
 23 45  1  0
 23 46  1  0
 23 47  1  0
 27 48  1  0
 28 49  1  0
 28 50  1  0
 30 51  1  0
 30 52  1  0
M  END
>  <Ligand ID>  (1) 
LIG0005300

>  <Ligand>  (1) 
CHEMBL3220244

>  <SMILES>  (1) 
N#Cc1cnccc1COc1cnc(nc1)N1CCN(C[C@H]1C)C(=O)OC1COC1

>  <CID>  (1) 
90666916.0

>  <ChEMBL ID>  (1) 
nan

>  <InChiKey>  (1) 
JMXBXZHTVIADJO-CQSZACIVSA-N

>  <InChi>  (1) 
InChI=1S/C20H22N6O4/c1-14-10-25(20(27)30-18-12-28-13-18)4-5-26(14)19-23-8-17(9-24-19)29-11-15-2-3-22-7-16(15)6-21/h2-3,7-9,14,18H,4-5,10-13H2,1H3/t14-/m1/s1

>  <IUPAC Name>  (1) 
oxetan-3-yl (3R)-4-[5-[(3-cyanopyridin-4-yl)methoxy]pyrimidin-2-yl]-3-methylpiperazine-1-carboxylate

$$$$
