
     RDKit          3D

 50 52  0  0  0  0  0  0  0  0999 V2000
   -5.8996    0.1008   -2.2794 C   0  0  0  0  0  0  0  0  0  0  0  0
   -6.5821    0.9492   -1.2064 C   0  0  0  0  0  0  0  0  0  0  0  0
   -6.4824    0.2534    0.1345 C   0  0  0  0  0  0  0  0  0  0  0  0
   -5.0520    0.0762    0.4709 C   0  0  0  0  0  0  0  0  0  0  0  0
   -4.7256   -0.5447    1.6663 C   0  0  0  0  0  0  0  0  0  0  0  0
   -3.4078   -0.7487    2.0546 C   0  0  0  0  0  0  0  0  0  0  0  0
   -2.4094   -0.3111    1.2076 C   0  0  0  0  0  0  0  0  0  0  0  0
   -2.7421    0.3131    0.0060 C   0  0  0  0  0  0  0  0  0  0  0  0
   -4.0419    0.4775   -0.3060 N   0  0  0  0  0  0  0  0  0  0  0  0
   -1.0128   -0.5016    1.5681 C   0  0  0  0  0  0  0  0  0  0  0  0
   -0.6081   -1.0777    2.6738 O   0  0  0  0  0  0  0  0  0  0  0  0
    0.6711   -1.0911    2.6944 N   0  0  0  0  0  0  0  0  0  0  0  0
    1.1368   -0.5085    1.5726 C   0  0  0  0  0  0  0  0  0  0  0  0
    0.0605   -0.1390    0.8669 N   0  0  0  0  0  0  0  0  0  0  0  0
    2.5534   -0.3450    1.2509 C   0  0  0  0  0  0  0  0  0  0  0  0
    3.4817   -0.8201    2.1554 C   0  0  0  0  0  0  0  0  0  0  0  0
    4.8432   -0.6881    1.8931 C   0  0  0  0  0  0  0  0  0  0  0  0
    5.2408   -0.0713    0.7079 C   0  0  0  0  0  0  0  0  0  0  0  0
    4.2841    0.3923   -0.1741 C   0  0  0  0  0  0  0  0  0  0  0  0
    2.9252    0.2704    0.0688 C   0  0  0  0  0  0  0  0  0  0  0  0
    1.8971    0.7634   -0.8684 C   0  0  0  0  0  0  0  0  0  0  0  0
    6.6933    0.0446    0.4751 C   0  0  0  0  0  0  0  0  0  0  0  0
    7.2950   -1.1298   -0.2572 C   0  0  0  0  0  0  0  0  0  0  0  0
    6.6759   -1.3068   -1.5957 C   0  0  0  0  0  0  0  0  0  0  0  0
    5.5357   -1.8415   -1.7459 O   0  0  0  0  0  0  0  0  0  0  0  0
    7.3160   -0.8945   -2.7552 O   0  0  0  0  0  0  0  0  0  0  0  0
   -5.8884    2.2900   -1.1184 C   0  0  0  0  0  0  0  0  0  0  0  0
   -5.4408   -0.7904   -1.7981 H   0  0  0  0  0  0  0  0  0  0  0  0
   -5.1778    0.6886   -2.8861 H   0  0  0  0  0  0  0  0  0  0  0  0
   -6.6720   -0.2876   -2.9947 H   0  0  0  0  0  0  0  0  0  0  0  0
   -7.6368    1.0920   -1.4897 H   0  0  0  0  0  0  0  0  0  0  0  0
   -6.9789    0.8487    0.9076 H   0  0  0  0  0  0  0  0  0  0  0  0
   -7.0042   -0.7288    0.0880 H   0  0  0  0  0  0  0  0  0  0  0  0
   -5.5121   -0.8871    2.3289 H   0  0  0  0  0  0  0  0  0  0  0  0
   -3.1491   -1.2378    2.9960 H   0  0  0  0  0  0  0  0  0  0  0  0
   -1.9350    0.6455   -0.6377 H   0  0  0  0  0  0  0  0  0  0  0  0
    3.1723   -1.3049    3.0867 H   0  0  0  0  0  0  0  0  0  0  0  0
    5.5896   -1.0552    2.5914 H   0  0  0  0  0  0  0  0  0  0  0  0
    4.6113    0.8714   -1.0948 H   0  0  0  0  0  0  0  0  0  0  0  0
    2.4335    1.2213   -1.7414 H   0  0  0  0  0  0  0  0  0  0  0  0
    1.2602    1.5131   -0.3578 H   0  0  0  0  0  0  0  0  0  0  0  0
    1.3310   -0.0791   -1.2937 H   0  0  0  0  0  0  0  0  0  0  0  0
    6.8742    0.9408   -0.1632 H   0  0  0  0  0  0  0  0  0  0  0  0
    7.1969    0.2386    1.4308 H   0  0  0  0  0  0  0  0  0  0  0  0
    7.2039   -2.0769    0.2902 H   0  0  0  0  0  0  0  0  0  0  0  0
    8.3612   -0.8696   -0.4214 H   0  0  0  0  0  0  0  0  0  0  0  0
    6.8277   -0.5115   -3.5529 H   0  0  0  0  0  0  0  0  0  0  0  0
   -5.0829    2.3516   -1.9008 H   0  0  0  0  0  0  0  0  0  0  0  0
   -5.3951    2.4264   -0.1321 H   0  0  0  0  0  0  0  0  0  0  0  0
   -6.6347    3.0792   -1.2287 H   0  0  0  0  0  0  0  0  0  0  0  0
  1  2  1  0
  2  3  1  0
  3  4  1  0
  4  5  2  0
  5  6  1  0
  6  7  2  0
  7  8  1  0
  8  9  2  0
  7 10  1  0
 10 11  1  0
 11 12  1  0
 12 13  2  0
 13 14  1  0
 13 15  1  0
 15 16  2  0
 16 17  1  0
 17 18  2  0
 18 19  1  0
 19 20  2  0
 20 21  1  0
 18 22  1  0
 22 23  1  0
 23 24  1  0
 24 25  2  0
 24 26  1  0
  2 27  1  0
  9  4  1  0
 14 10  2  0
 20 15  1  0
  1 28  1  0
  1 29  1  0
  1 30  1  0
  2 31  1  0
  3 32  1  0
  3 33  1  0
  5 34  1  0
  6 35  1  0
  8 36  1  0
 16 37  1  0
 17 38  1  0
 19 39  1  0
 21 40  1  0
 21 41  1  0
 21 42  1  0
 22 43  1  0
 22 44  1  0
 23 45  1  0
 23 46  1  0
 26 47  1  0
 27 48  1  0
 27 49  1  0
 27 50  1  0
M  END
>  <Ligand ID>  (1) 
LIG0001691

>  <Ligand>  (1) 
CHEMBL211255

>  <SMILES>  (1) 
CC(Cc1ccc(cn1)c1onc(n1)c1ccc(cc1C)CCC(=O)O)C

>  <CID>  (1) 
44412702.0

>  <ChEMBL ID>  (1) 
nan

>  <InChiKey>  (1) 
SWTQAFJPNKNETR-UHFFFAOYSA-N

>  <InChi>  (1) 
InChI=1S/C21H23N3O3/c1-13(2)10-17-7-6-16(12-22-17)21-23-20(24-27-21)18-8-4-15(11-14(18)3)5-9-19(25)26/h4,6-8,11-13H,5,9-10H2,1-3H3,(H,25,26)

>  <IUPAC Name>  (1) 
3-[3-methyl-4-[5-[6-(2-methylpropyl)pyridin-3-yl]-1,2,4-oxadiazol-3-yl]phenyl]propanoic acid

$$$$
