
     RDKit          3D

 95 99  0  0  0  0  0  0  0  0999 V2000
   13.7578    2.2204    2.5143 C   0  0  0  0  0  0  0  0  0  0  0  0
   13.9056    2.2496    1.1519 O   0  0  0  0  0  0  0  0  0  0  0  0
   12.8918    2.8348    0.4337 C   0  0  0  0  0  0  0  0  0  0  0  0
   11.5982    2.0934    0.6655 C   0  0  0  0  0  0  0  0  0  0  0  0
   11.8014    0.7746    0.2455 O   0  0  0  0  0  0  0  0  0  0  0  0
   10.5892    0.0214    0.4454 C   0  0  0  0  0  0  0  0  0  0  0  0
   10.8184   -1.3897   -0.0160 C   0  0  0  0  0  0  0  0  0  0  0  0
    9.8194   -2.2308    0.1039 O   0  0  0  0  0  0  0  0  0  0  0  0
    8.6466   -2.2912   -0.4429 C   0  0  0  0  0  0  0  0  0  0  0  0
    7.6052   -1.2177   -0.2436 C   0  0  0  0  0  0  0  0  0  0  0  0
    6.4909   -1.6530   -0.9669 O   0  0  0  0  0  0  0  0  0  0  0  0
    5.4104   -0.8474   -0.9209 C   0  0  0  0  0  0  0  0  0  0  0  0
    4.7821   -0.5974    0.4178 C   0  0  0  0  0  0  0  0  0  0  0  0
    4.3333   -1.7538    1.0344 O   0  0  0  0  0  0  0  0  0  0  0  0
    3.4029   -2.4513    0.3194 C   0  0  0  0  0  0  0  0  0  0  0  0
    2.1309   -1.7358    0.0024 C   0  0  0  0  0  0  0  0  0  0  0  0
    1.2379   -2.6092   -0.7735 N   0  0  0  0  0  0  0  0  0  0  0  0
   -0.0293   -2.2098   -1.2149 C   0  0  0  0  0  0  0  0  0  0  0  0
   -0.5897   -0.9752   -0.9608 C   0  0  0  0  0  0  0  0  0  0  0  0
   -1.8470   -0.6453   -1.4456 C   0  0  0  0  0  0  0  0  0  0  0  0
   -2.6125   -1.5034   -2.1986 C   0  0  0  0  0  0  0  0  0  0  0  0
   -2.0339   -2.7562   -2.4517 C   0  0  0  0  0  0  0  0  0  0  0  0
   -0.7870   -3.0895   -1.9734 C   0  0  0  0  0  0  0  0  0  0  0  0
   -3.8910   -1.2332   -2.7057 N   0  0  0  0  0  0  0  0  0  0  0  0
   -4.8416   -0.3275   -2.1932 C   0  0  0  0  0  0  0  0  0  0  0  0
   -5.8079    0.1703   -3.0847 C   0  0  0  0  0  0  0  0  0  0  0  0
   -6.7924    1.0403   -2.6648 C   0  0  0  0  0  0  0  0  0  0  0  0
   -6.8057    1.4138   -1.3356 C   0  0  0  0  0  0  0  0  0  0  0  0
   -5.8831    0.9586   -0.4120 C   0  0  0  0  0  0  0  0  0  0  0  0
   -4.9202    0.0893   -0.8877 C   0  0  0  0  0  0  0  0  0  0  0  0
   -5.8859    1.3545    1.0155 C   0  0  2  0  0  0  0  0  0  0  0  0
   -4.4870    1.6646    1.5136 C   0  0  0  0  0  0  0  0  0  0  0  0
   -6.4433    0.2051    1.8164 C   0  0  0  0  0  0  0  0  0  0  0  0
   -7.8248   -0.1014    1.3769 C   0  0  0  0  0  0  0  0  0  0  0  0
   -8.6322    0.8962    0.8392 N   0  0  0  0  0  0  0  0  0  0  0  0
   -8.1337    2.2154    0.6450 C   0  0  0  0  0  0  0  0  0  0  0  0
   -7.8383    2.3362   -0.8296 C   0  0  0  0  0  0  0  0  0  0  0  0
   -8.3983    3.1330   -1.5839 O   0  0  0  0  0  0  0  0  0  0  0  0
   -6.8251    2.5115    1.3072 C   0  0  2  0  0  0  0  0  0  0  0  0
   -6.2550    3.7710    0.6529 C   0  0  0  0  0  0  0  0  0  0  0  0
   -9.6169    0.4914   -0.1164 C   0  0  0  0  0  0  0  0  0  0  0  0
  -10.7572   -0.3134    0.3779 C   0  0  0  0  0  0  0  0  0  0  0  0
  -10.6928   -1.6179    1.0318 C   0  0  0  0  0  0  0  0  0  0  0  0
  -11.0122   -1.6125   -0.4181 C   0  0  0  0  0  0  0  0  0  0  0  0
   12.8847    1.6767    2.8918 H   0  0  0  0  0  0  0  0  0  0  0  0
   13.6698    3.2790    2.8897 H   0  0  0  0  0  0  0  0  0  0  0  0
   14.6757    1.7562    2.9497 H   0  0  0  0  0  0  0  0  0  0  0  0
   13.1424    2.7420   -0.6444 H   0  0  0  0  0  0  0  0  0  0  0  0
   12.7869    3.9255    0.6657 H   0  0  0  0  0  0  0  0  0  0  0  0
   11.3437    2.1815    1.7357 H   0  0  0  0  0  0  0  0  0  0  0  0
   10.7648    2.5485    0.0461 H   0  0  0  0  0  0  0  0  0  0  0  0
    9.8171    0.5861   -0.0834 H   0  0  0  0  0  0  0  0  0  0  0  0
   10.3994    0.0501    1.5371 H   0  0  0  0  0  0  0  0  0  0  0  0
   11.7581   -1.7764    0.5406 H   0  0  0  0  0  0  0  0  0  0  0  0
   11.2123   -1.3090   -1.1065 H   0  0  0  0  0  0  0  0  0  0  0  0
    8.1291   -3.3106   -0.3359 H   0  0  0  0  0  0  0  0  0  0  0  0
    8.8003   -2.2984   -1.5942 H   0  0  0  0  0  0  0  0  0  0  0  0
    7.9259   -0.2566   -0.7122 H   0  0  0  0  0  0  0  0  0  0  0  0
    7.4575   -1.0629    0.8124 H   0  0  0  0  0  0  0  0  0  0  0  0
    5.7376    0.1748   -1.2788 H   0  0  0  0  0  0  0  0  0  0  0  0
    4.6115   -1.1405   -1.6294 H   0  0  0  0  0  0  0  0  0  0  0  0
    3.8950    0.0461    0.2506 H   0  0  0  0  0  0  0  0  0  0  0  0
    5.4412   -0.0459    1.1180 H   0  0  0  0  0  0  0  0  0  0  0  0
    3.7711   -2.9047   -0.6129 H   0  0  0  0  0  0  0  0  0  0  0  0
    3.1278   -3.3368    0.9606 H   0  0  0  0  0  0  0  0  0  0  0  0
    1.5604   -1.4289    0.9024 H   0  0  0  0  0  0  0  0  0  0  0  0
    2.3049   -0.8584   -0.6495 H   0  0  0  0  0  0  0  0  0  0  0  0
    1.5877   -3.5784   -0.9968 H   0  0  0  0  0  0  0  0  0  0  0  0
   -0.0043   -0.2762   -0.3661 H   0  0  0  0  0  0  0  0  0  0  0  0
   -2.2055    0.3382   -1.2115 H   0  0  0  0  0  0  0  0  0  0  0  0
   -2.6203   -3.4618   -3.0503 H   0  0  0  0  0  0  0  0  0  0  0  0
   -0.4072   -4.0735   -2.2095 H   0  0  0  0  0  0  0  0  0  0  0  0
   -4.1734   -1.7765   -3.5776 H   0  0  0  0  0  0  0  0  0  0  0  0
   -5.8029   -0.1207   -4.1338 H   0  0  0  0  0  0  0  0  0  0  0  0
   -7.5551    1.4501   -3.3015 H   0  0  0  0  0  0  0  0  0  0  0  0
   -4.2063   -0.2726   -0.1648 H   0  0  0  0  0  0  0  0  0  0  0  0
   -3.8692    2.2157    0.8062 H   0  0  0  0  0  0  0  0  0  0  0  0
   -4.6476    2.2612    2.4540 H   0  0  0  0  0  0  0  0  0  0  0  0
   -3.9598    0.7546    1.8513 H   0  0  0  0  0  0  0  0  0  0  0  0
   -5.8267   -0.7140    1.7082 H   0  0  0  0  0  0  0  0  0  0  0  0
   -6.4607    0.5438    2.8749 H   0  0  0  0  0  0  0  0  0  0  0  0
   -8.3530   -0.5165    2.2916 H   0  0  0  0  0  0  0  0  0  0  0  0
   -7.8423   -0.9782    0.6514 H   0  0  0  0  0  0  0  0  0  0  0  0
   -8.9015    2.9615    0.8735 H   0  0  0  0  0  0  0  0  0  0  0  0
   -6.8959    2.6170    2.3906 H   0  0  0  0  0  0  0  0  0  0  0  0
   -5.1709    3.8409    0.7875 H   0  0  0  0  0  0  0  0  0  0  0  0
   -6.7044    4.6207    1.1959 H   0  0  0  0  0  0  0  0  0  0  0  0
   -6.5113    3.8330   -0.4041 H   0  0  0  0  0  0  0  0  0  0  0  0
   -9.0659   -0.0953   -0.8958 H   0  0  0  0  0  0  0  0  0  0  0  0
   -9.9323    1.4179   -0.6569 H   0  0  0  0  0  0  0  0  0  0  0  0
  -11.6968    0.2917    0.5508 H   0  0  0  0  0  0  0  0  0  0  0  0
   -9.7766   -2.1525    1.3298 H   0  0  0  0  0  0  0  0  0  0  0  0
  -11.5248   -1.8493    1.7694 H   0  0  0  0  0  0  0  0  0  0  0  0
  -10.2145   -1.9413   -1.1004 H   0  0  0  0  0  0  0  0  0  0  0  0
  -12.0540   -1.8595   -0.6878 H   0  0  0  0  0  0  0  0  0  0  0  0
  1  2  1  0
  2  3  1  0
  3  4  1  0
  4  5  1  0
  5  6  1  0
  6  7  1  0
  7  8  1  0
  8  9  1  0
  9 10  1  0
 10 11  1  0
 11 12  1  0
 12 13  1  0
 13 14  1  0
 14 15  1  0
 15 16  1  0
 16 17  1  0
 17 18  1  0
 18 19  2  0
 19 20  1  0
 20 21  2  0
 21 22  1  0
 22 23  2  0
 21 24  1  0
 24 25  1  0
 25 26  2  0
 26 27  1  0
 27 28  2  0
 28 29  1  0
 29 30  2  0
 29 31  1  0
 31 32  1  1
 31 33  1  0
 33 34  1  0
 34 35  1  0
 35 36  1  0
 36 37  1  0
 37 38  2  0
 36 39  1  0
 39 40  1  0
 35 41  1  0
 41 42  1  0
 42 43  1  0
 43 44  1  0
 23 18  1  0
 30 25  1  0
 39 31  1  0
 44 42  1  0
 37 28  1  0
  1 45  1  0
  1 46  1  0
  1 47  1  0
  3 48  1  0
  3 49  1  0
  4 50  1  0
  4 51  1  0
  6 52  1  0
  6 53  1  0
  7 54  1  0
  7 55  1  0
  9 56  1  0
  9 57  1  0
 10 58  1  0
 10 59  1  0
 12 60  1  0
 12 61  1  0
 13 62  1  0
 13 63  1  0
 15 64  1  0
 15 65  1  0
 16 66  1  0
 16 67  1  0
 17 68  1  0
 19 69  1  0
 20 70  1  0
 22 71  1  0
 23 72  1  0
 24 73  1  0
 26 74  1  0
 27 75  1  0
 30 76  1  0
 32 77  1  0
 32 78  1  0
 32 79  1  0
 33 80  1  0
 33 81  1  0
 34 82  1  0
 34 83  1  0
 36 84  1  0
 39 85  1  1
 40 86  1  0
 40 87  1  0
 40 88  1  0
 41 89  1  0
 41 90  1  0
 42 91  1  0
 43 92  1  0
 43 93  1  0
 44 94  1  0
 44 95  1  0
M  END
>  <Ligand ID>  (1) 
LIG0005519

>  <Ligand>  (1) 
SCHEMBL18407215

>  <SMILES>  (1) 
COCCOCCOCCOCCOCCNc1ccc(cc1)Nc1ccc2c(c1)[C@]1(C)CCN(C(C2=O)[C@@H]1C)CC1CC1

>  <CID>  (1) 
126493026.0

>  <ChEMBL ID>  (1) 
nan

>  <InChiKey>  (1) 
AZHSPISGLOGUCV-MMAROVTRSA-N

>  <InChi>  (1) 
InChI=1S/C35H51N3O6/c1-26-33-34(39)31-11-10-30(24-32(31)35(26,2)12-14-38(33)25-27-4-5-27)37-29-8-6-28(7-9-29)36-13-15-41-18-19-43-22-23-44-21-20-42-17-16-40-3/h6-11,24,26-27,33,36-37H,4-5,12-23,25H2,1-3H3/t26-,33?,35+/m0/s1

>  <IUPAC Name>  (1) 
(1R,13R)-10-(cyclopropylmethyl)-4-[4-[2-[2-[2-[2-(2-methoxyethoxy)ethoxy]ethoxy]ethoxy]ethylamino]anilino]-1,13-dimethyl-10-azatricyclo[7.3.1.02,7]trideca-2(7),3,5-trien-8-one

$$$$
