
     RDKit          3D

 61 65  0  0  0  0  0  0  0  0999 V2000
    7.6053   -0.2924    0.9454 O   0  0  0  0  0  0  0  0  0  0  0  0
    8.0265    0.9333    0.4501 C   0  0  0  0  0  0  0  0  0  0  0  0
    9.1320    1.3669    0.8728 O   0  0  0  0  0  0  0  0  0  0  0  0
    7.2552    1.7358   -0.5313 C   0  0  0  0  0  0  0  0  0  0  0  0
    6.0154    1.1744   -0.8802 O   0  0  0  0  0  0  0  0  0  0  0  0
    5.0525    0.9957    0.0949 C   0  0  0  0  0  0  0  0  0  0  0  0
    5.2072    1.3440    1.4151 C   0  0  0  0  0  0  0  0  0  0  0  0
    4.2023    1.1375    2.3338 C   0  0  0  0  0  0  0  0  0  0  0  0
    3.0078    0.5712    1.9408 C   0  0  0  0  0  0  0  0  0  0  0  0
    2.8129    0.2055    0.6118 C   0  0  0  0  0  0  0  0  0  0  0  0
    3.8606    0.4344   -0.2810 C   0  0  0  0  0  0  0  0  0  0  0  0
    3.5921    0.0132   -1.6866 C   0  0  0  0  0  0  0  0  0  0  0  0
    2.9912   -1.3877   -1.6374 C   0  0  0  0  0  0  0  0  0  0  0  0
    1.6688   -1.4256   -0.9142 C   0  0  0  0  0  0  0  0  0  0  0  0
    1.5344   -0.3935    0.1755 C   0  0  0  0  0  0  0  0  0  0  0  0
    0.5788   -1.2300   -1.9456 C   0  0  0  0  0  0  0  0  0  0  0  0
   -0.7548   -1.2445   -1.3844 N   0  0  0  0  0  0  0  0  0  0  0  0
   -1.3779   -0.1630   -0.9471 N   0  0  0  0  0  0  0  0  0  0  0  0
   -2.6166   -0.1902   -0.4284 C   0  0  0  0  0  0  0  0  0  0  0  0
   -3.2509    1.0370    0.0386 C   0  0  0  0  0  0  0  0  0  0  0  0
   -3.5710    1.1019    1.3783 C   0  0  0  0  0  0  0  0  0  0  0  0
   -4.1711    2.2420    1.8682 C   0  0  0  0  0  0  0  0  0  0  0  0
   -4.4709    3.3304    1.0833 C   0  0  0  0  0  0  0  0  0  0  0  0
   -4.1425    3.2490   -0.2614 C   0  0  0  0  0  0  0  0  0  0  0  0
   -3.5338    2.1059   -0.7849 C   0  0  0  0  0  0  0  0  0  0  0  0
   -3.2829   -1.4106   -0.3438 C   0  0  0  0  0  0  0  0  0  0  0  0
   -2.6567   -2.5552   -0.7926 C   0  0  0  0  0  0  0  0  0  0  0  0
   -1.3684   -2.4521   -1.3198 C   0  0  0  0  0  0  0  0  0  0  0  0
   -0.7707   -3.5000   -1.7409 O   0  0  0  0  0  0  0  0  0  0  0  0
   -4.6291   -1.4228    0.2211 C   0  0  0  0  0  0  0  0  0  0  0  0
   -5.5950   -0.7139   -0.4801 C   0  0  0  0  0  0  0  0  0  0  0  0
   -6.9019   -0.6454   -0.0542 C   0  0  0  0  0  0  0  0  0  0  0  0
   -7.2351   -1.3148    1.1146 C   0  0  0  0  0  0  0  0  0  0  0  0
   -6.2659   -2.0154    1.8014 C   0  0  0  0  0  0  0  0  0  0  0  0
   -4.9546   -2.0900    1.3832 C   0  0  0  0  0  0  0  0  0  0  0  0
   -6.7517   -2.8375    3.2688 Cl  0  0  0  0  0  0  0  0  0  0  0  0
    8.1786   -0.9284    1.4718 H   0  0  0  0  0  0  0  0  0  0  0  0
    7.9252    1.8156   -1.4337 H   0  0  0  0  0  0  0  0  0  0  0  0
    7.1453    2.7994   -0.1718 H   0  0  0  0  0  0  0  0  0  0  0  0
    6.1213    1.7995    1.7650 H   0  0  0  0  0  0  0  0  0  0  0  0
    4.3465    1.4195    3.3701 H   0  0  0  0  0  0  0  0  0  0  0  0
    2.2467    0.4280    2.6978 H   0  0  0  0  0  0  0  0  0  0  0  0
    4.4888   -0.0495   -2.2995 H   0  0  0  0  0  0  0  0  0  0  0  0
    2.8119    0.6886   -2.0918 H   0  0  0  0  0  0  0  0  0  0  0  0
    3.7205   -2.1137   -1.2099 H   0  0  0  0  0  0  0  0  0  0  0  0
    2.8141   -1.6934   -2.6878 H   0  0  0  0  0  0  0  0  0  0  0  0
    1.6004   -2.4266   -0.4314 H   0  0  0  0  0  0  0  0  0  0  0  0
    1.1010   -0.8866    1.0946 H   0  0  0  0  0  0  0  0  0  0  0  0
    0.8420    0.3979   -0.1911 H   0  0  0  0  0  0  0  0  0  0  0  0
    0.6393   -1.9798   -2.7478 H   0  0  0  0  0  0  0  0  0  0  0  0
    0.7365   -0.2273   -2.4066 H   0  0  0  0  0  0  0  0  0  0  0  0
   -3.3687    0.2852    2.0712 H   0  0  0  0  0  0  0  0  0  0  0  0
   -4.4239    2.2886    2.9353 H   0  0  0  0  0  0  0  0  0  0  0  0
   -4.9470    4.2136    1.5152 H   0  0  0  0  0  0  0  0  0  0  0  0
   -4.3679    4.0983   -0.9126 H   0  0  0  0  0  0  0  0  0  0  0  0
   -3.2762    2.0396   -1.8350 H   0  0  0  0  0  0  0  0  0  0  0  0
   -3.1700   -3.5045   -0.7287 H   0  0  0  0  0  0  0  0  0  0  0  0
   -5.3305   -0.1849   -1.4045 H   0  0  0  0  0  0  0  0  0  0  0  0
   -7.6228   -0.0840   -0.6275 H   0  0  0  0  0  0  0  0  0  0  0  0
   -8.2649   -1.2504    1.4345 H   0  0  0  0  0  0  0  0  0  0  0  0
   -4.1874   -2.6383    1.9178 H   0  0  0  0  0  0  0  0  0  0  0  0
  1  2  1  0
  2  3  2  0
  2  4  1  0
  4  5  1  0
  5  6  1  0
  6  7  2  0
  7  8  1  0
  8  9  2  0
  9 10  1  0
 10 11  2  0
 11 12  1  0
 12 13  1  0
 13 14  1  0
 14 15  1  0
 14 16  1  0
 16 17  1  0
 17 18  1  0
 18 19  2  0
 19 20  1  0
 20 21  2  0
 21 22  1  0
 22 23  2  0
 23 24  1  0
 24 25  2  0
 19 26  1  0
 26 27  2  0
 27 28  1  0
 28 29  2  0
 26 30  1  0
 30 31  2  0
 31 32  1  0
 32 33  2  0
 33 34  1  0
 34 35  2  0
 34 36  1  0
 11  6  1  0
 28 17  1  0
 35 30  1  0
 15 10  1  0
 25 20  1  0
  1 37  1  0
  4 38  1  0
  4 39  1  0
  7 40  1  0
  8 41  1  0
  9 42  1  0
 12 43  1  0
 12 44  1  0
 13 45  1  0
 13 46  1  0
 14 47  1  0
 15 48  1  0
 15 49  1  0
 16 50  1  0
 16 51  1  0
 21 52  1  0
 22 53  1  0
 23 54  1  0
 24 55  1  0
 25 56  1  0
 27 57  1  0
 31 58  1  0
 32 59  1  0
 33 60  1  0
 35 61  1  0
M  END
>  <Ligand ID>  (1) 
LIG0003016

>  <Ligand>  (1) 
CHEMBL3398211

>  <SMILES>  (1) 
OC(=O)COc1cccc2c1CCC(C2)Cn1nc(c2ccccc2)c(cc1=O)c1cccc(c1)Cl

>  <CID>  (1) 
118727290.0

>  <ChEMBL ID>  (1) 
nan

>  <InChiKey>  (1) 
XMPQKKXTNQGHJU-UHFFFAOYSA-N

>  <InChi>  (1) 
InChI=1S/C29H25ClN2O4/c30-23-10-4-8-22(15-23)25-16-27(33)32(31-29(25)20-6-2-1-3-7-20)17-19-12-13-24-21(14-19)9-5-11-26(24)36-18-28(34)35/h1-11,15-16,19H,12-14,17-18H2,(H,34,35)

>  <IUPAC Name>  (1) 
2-[[6-[[4-(3-chlorophenyl)-6-oxo-3-phenylpyridazin-1-yl]methyl]-5,6,7,8-tetrahydronaphthalen-1-yl]oxy]acetic acid

$$$$
