
     RDKit          3D

 18 18  0  0  0  0  0  0  0  0999 V2000
    2.3248   -0.6088   -1.4300 O   0  0  0  0  0  0  0  0  0  0  0  0
    2.5593    0.3326   -0.4514 C   0  0  0  0  0  0  0  0  0  0  0  0
    1.3969    0.7344    0.3542 C   0  0  0  0  0  0  0  0  0  0  0  0
    1.6341    1.6084    1.2568 O   0  0  0  0  0  0  0  0  0  0  0  0
    0.0391    0.2724    0.2559 C   0  0  0  0  0  0  0  0  0  0  0  0
   -0.8848    0.8219    1.1532 C   0  0  0  0  0  0  0  0  0  0  0  0
   -2.2264    0.4279    1.1256 C   0  0  0  0  0  0  0  0  0  0  0  0
   -2.7009   -0.5048    0.2305 C   0  0  0  0  0  0  0  0  0  0  0  0
   -1.7914   -1.0447   -0.6516 C   0  0  0  0  0  0  0  0  0  0  0  0
   -0.4547   -0.6504   -0.6223 C   0  0  0  0  0  0  0  0  0  0  0  0
    3.0623   -1.2271   -1.5843 H   0  0  0  0  0  0  0  0  0  0  0  0
    3.3848   -0.0825    0.1787 H   0  0  0  0  0  0  0  0  0  0  0  0
    2.9254    1.2570   -0.9917 H   0  0  0  0  0  0  0  0  0  0  0  0
   -0.6324    1.5499    1.8882 H   0  0  0  0  0  0  0  0  0  0  0  0
   -2.9530    0.8527    1.8231 H   0  0  0  0  0  0  0  0  0  0  0  0
   -3.7280   -0.8324    0.1805 H   0  0  0  0  0  0  0  0  0  0  0  0
   -2.1374   -1.7862   -1.3728 H   0  0  0  0  0  0  0  0  0  0  0  0
    0.1822   -1.1203   -1.3425 H   0  0  0  0  0  0  0  0  0  0  0  0
  1  2  1  0
  2  3  1  0
  3  4  2  0
  3  5  1  0
  5  6  2  0
  6  7  1  0
  7  8  2  0
  8  9  1  0
  9 10  2  0
 10  5  1  0
  1 11  1  0
  2 12  1  0
  2 13  1  0
  6 14  1  0
  7 15  1  0
  8 16  1  0
  9 17  1  0
 10 18  1  0
M  END
>  <Ligand ID>  (1) 
LIG0002100

>  <Ligand>  (1) 
2-hydroxy-1-phenylethanone

>  <SMILES>  (1) 
OCC(=O)c1ccccc1

>  <CID>  (1) 
68490.0

>  <ChEMBL ID>  (1) 
nan

>  <InChiKey>  (1) 
ZWVHTXAYIKBMEE-UHFFFAOYSA-N

>  <InChi>  (1) 
InChI=1S/C8H8O2/c9-6-8(10)7-4-2-1-3-5-7/h1-5,9H,6H2

>  <IUPAC Name>  (1) 
2-hydroxy-1-phenylethanone

$$$$
