
     RDKit          3D

 39 42  0  0  0  0  0  0  0  0999 V2000
   -6.0758    1.7645   -0.0996 C   0  0  0  0  0  0  0  0  0  0  0  0
   -4.7584    1.0910   -0.0947 C   0  0  0  0  0  0  0  0  0  0  0  0
   -4.5972   -0.2455   -0.3418 C   0  0  0  0  0  0  0  0  0  0  0  0
   -3.3383   -0.8548   -0.3304 C   0  0  0  0  0  0  0  0  0  0  0  0
   -2.2188   -0.0970   -0.0636 C   0  0  0  0  0  0  0  0  0  0  0  0
   -2.3802    1.2509    0.1857 C   0  0  0  0  0  0  0  0  0  0  0  0
   -3.6168    1.8365    0.1719 C   0  0  0  0  0  0  0  0  0  0  0  0
   -0.9206   -0.6778   -0.0424 N   0  0  0  0  0  0  0  0  0  0  0  0
   -0.6463   -1.9674    0.0753 N   0  0  0  0  0  0  0  0  0  0  0  0
    0.6942   -2.1747    0.0591 C   0  0  0  0  0  0  0  0  0  0  0  0
    1.2434   -0.9158   -0.0779 C   0  0  0  0  0  0  0  0  0  0  0  0
    0.2399    0.0282   -0.1424 C   0  0  0  0  0  0  0  0  0  0  0  0
    2.6130   -0.7922   -0.1281 C   0  0  0  0  0  0  0  0  0  0  0  0
    3.3792   -1.9001   -0.0426 N   0  0  0  0  0  0  0  0  0  0  0  0
    2.8274   -3.0852    0.0872 N   0  0  0  0  0  0  0  0  0  0  0  0
    1.4995   -3.2794    0.1432 C   0  0  0  0  0  0  0  0  0  0  0  0
    0.9039   -4.6317    0.2905 C   0  0  0  0  0  0  0  0  0  0  0  0
    3.3088    0.4760   -0.2714 C   0  0  0  0  0  0  0  0  0  0  0  0
    3.0085    1.6079    0.4417 C   0  0  0  0  0  0  0  0  0  0  0  0
    3.6982    2.8065    0.2733 C   0  0  0  0  0  0  0  0  0  0  0  0
    4.7362    2.8900   -0.6459 C   0  0  0  0  0  0  0  0  0  0  0  0
    5.0399    1.7663   -1.3590 C   0  0  0  0  0  0  0  0  0  0  0  0
    4.3496    0.5726   -1.1880 C   0  0  0  0  0  0  0  0  0  0  0  0
   -6.5943    1.4677    0.8433 H   0  0  0  0  0  0  0  0  0  0  0  0
   -6.6672    1.4903   -0.9832 H   0  0  0  0  0  0  0  0  0  0  0  0
   -5.9355    2.8640   -0.1465 H   0  0  0  0  0  0  0  0  0  0  0  0
   -5.4772   -0.8444   -0.5521 H   0  0  0  0  0  0  0  0  0  0  0  0
   -3.2544   -1.9298   -0.5339 H   0  0  0  0  0  0  0  0  0  0  0  0
   -1.4796    1.8282    0.3939 H   0  0  0  0  0  0  0  0  0  0  0  0
   -3.6959    2.9124    0.3761 H   0  0  0  0  0  0  0  0  0  0  0  0
    0.3572    1.0784   -0.2486 H   0  0  0  0  0  0  0  0  0  0  0  0
    1.7526   -5.3542    0.4122 H   0  0  0  0  0  0  0  0  0  0  0  0
    0.2316   -4.6997    1.1846 H   0  0  0  0  0  0  0  0  0  0  0  0
    0.3929   -4.9294   -0.6343 H   0  0  0  0  0  0  0  0  0  0  0  0
    2.2154    1.5858    1.1632 H   0  0  0  0  0  0  0  0  0  0  0  0
    3.3942    3.6586    0.8814 H   0  0  0  0  0  0  0  0  0  0  0  0
    5.2494    3.8202   -0.7565 H   0  0  0  0  0  0  0  0  0  0  0  0
    5.8515    1.8336   -2.0768 H   0  0  0  0  0  0  0  0  0  0  0  0
    4.6702   -0.2502   -1.8001 H   0  0  0  0  0  0  0  0  0  0  0  0
  1  2  1  0
  2  3  2  0
  3  4  1  0
  4  5  2  0
  5  6  1  0
  6  7  2  0
  5  8  1  0
  8  9  1  0
  9 10  2  0
 10 11  1  0
 11 12  2  0
 11 13  1  0
 13 14  2  0
 14 15  1  0
 15 16  2  0
 16 17  1  0
 13 18  1  0
 18 19  2  0
 19 20  1  0
 20 21  2  0
 21 22  1  0
 22 23  2  0
  7  2  1  0
 12  8  1  0
 23 18  1  0
 16 10  1  0
  1 24  1  0
  1 25  1  0
  1 26  1  0
  3 27  1  0
  4 28  1  0
  6 29  1  0
  7 30  1  0
 12 31  1  0
 17 32  1  0
 17 33  1  0
 17 34  1  0
 19 35  1  0
 20 36  1  0
 21 37  1  0
 22 38  1  0
 23 39  1  0
M  END
>  <Ligand ID>  (1) 
LIG0003829

>  <Ligand>  (1) 
MLS-0437169.0001

>  <SMILES>  (1) 
Cc1ccc(cc1)n1nc2c(c1)c(nnc2C)c1ccccc1

>  <CID>  (1) 
15359842.0

>  <ChEMBL ID>  (1) 
nan

>  <InChiKey>  (1) 
TVORTTWECRYBQS-UHFFFAOYSA-N

>  <InChi>  (1) 
InChI=1S/C19H16N4/c1-13-8-10-16(11-9-13)23-12-17-18(22-23)14(2)20-21-19(17)15-6-4-3-5-7-15/h3-12H,1-2H3

>  <IUPAC Name>  (1) 
7-methyl-2-(4-methylphenyl)-4-phenylpyrazolo[3,4-d]pyridazine

$$$$
