
     RDKit          3D

 40 42  0  0  0  0  0  0  0  0999 V2000
    4.0878    0.1578    1.5049 C   0  0  0  0  0  0  0  0  0  0  0  0
    4.0413    0.9518    0.3779 O   0  0  0  0  0  0  0  0  0  0  0  0
    3.3628    0.4340   -0.6962 C   0  0  0  0  0  0  0  0  0  0  0  0
    1.9567    0.0943   -0.4872 C   0  0  0  0  0  0  0  0  0  0  0  0
    1.4951   -1.0533    0.1212 C   0  0  0  0  0  0  0  0  0  0  0  0
    2.2248   -2.1154    0.6378 O   0  0  0  0  0  0  0  0  0  0  0  0
    1.3585   -3.1233    1.1133 C   0  0  0  0  0  0  0  0  0  0  0  0
   -0.0461   -2.6128    0.9843 C   0  0  0  0  0  0  0  0  0  0  0  0
    0.1395   -1.3107    0.3052 C   0  0  0  0  0  0  0  0  0  0  0  0
   -0.8084   -0.3796   -0.1391 C   0  0  0  0  0  0  0  0  0  0  0  0
   -0.3562    0.7847   -0.7570 C   0  0  0  0  0  0  0  0  0  0  0  0
    1.0068    1.0256   -0.9322 C   0  0  0  0  0  0  0  0  0  0  0  0
    1.1809    2.3466   -1.6215 C   0  0  0  0  0  0  0  0  0  0  0  0
   -0.2216    2.7486   -1.9374 C   0  0  0  0  0  0  0  0  0  0  0  0
   -1.0798    1.8445   -1.2780 O   0  0  0  0  0  0  0  0  0  0  0  0
   -2.2131   -0.6985    0.0754 C   0  0  0  0  0  0  0  0  0  0  0  0
   -3.2254    0.3174   -0.2807 C   0  0  2  0  0  0  0  0  0  0  0  0
   -3.0712    1.5654    0.4581 N   0  0  0  0  0  0  0  0  0  0  0  0
   -4.5650   -0.2350    0.2203 C   0  0  0  0  0  0  0  0  0  0  0  0
    4.5574   -0.8264    1.2996 H   0  0  0  0  0  0  0  0  0  0  0  0
    3.0968    0.0493    1.9708 H   0  0  0  0  0  0  0  0  0  0  0  0
    4.7179    0.7196    2.2705 H   0  0  0  0  0  0  0  0  0  0  0  0
    3.4802    1.1695   -1.5403 H   0  0  0  0  0  0  0  0  0  0  0  0
    3.9094   -0.5062   -1.0113 H   0  0  0  0  0  0  0  0  0  0  0  0
    1.4990   -4.0753    0.5479 H   0  0  0  0  0  0  0  0  0  0  0  0
    1.5500   -3.3293    2.2033 H   0  0  0  0  0  0  0  0  0  0  0  0
   -0.5798   -2.4857    1.9453 H   0  0  0  0  0  0  0  0  0  0  0  0
   -0.6226   -3.2884    0.2856 H   0  0  0  0  0  0  0  0  0  0  0  0
    1.8028    2.2232   -2.5511 H   0  0  0  0  0  0  0  0  0  0  0  0
    1.7173    3.0294   -0.9476 H   0  0  0  0  0  0  0  0  0  0  0  0
   -0.4388    3.7707   -1.5476 H   0  0  0  0  0  0  0  0  0  0  0  0
   -0.3739    2.6863   -3.0350 H   0  0  0  0  0  0  0  0  0  0  0  0
   -2.4727   -1.6332   -0.5013 H   0  0  0  0  0  0  0  0  0  0  0  0
   -2.4212   -1.0041    1.1404 H   0  0  0  0  0  0  0  0  0  0  0  0
   -3.3438    0.4994   -1.3669 H   0  0  0  0  0  0  0  0  0  0  0  0
   -4.0050    2.0198    0.5455 H   0  0  0  0  0  0  0  0  0  0  0  0
   -2.7672    1.3097    1.4260 H   0  0  0  0  0  0  0  0  0  0  0  0
   -4.4027   -0.4386    1.3085 H   0  0  0  0  0  0  0  0  0  0  0  0
   -4.8104   -1.1651   -0.2978 H   0  0  0  0  0  0  0  0  0  0  0  0
   -5.3603    0.5335    0.1864 H   0  0  0  0  0  0  0  0  0  0  0  0
  1  2  1  0
  2  3  1  0
  3  4  1  0
  4  5  2  0
  5  6  1  0
  6  7  1  0
  7  8  1  0
  8  9  1  0
  9 10  2  0
 10 11  1  0
 11 12  2  0
 12 13  1  0
 13 14  1  0
 14 15  1  0
 10 16  1  0
 16 17  1  0
 17 18  1  0
 17 19  1  0
 12  4  1  0
  9  5  1  0
 15 11  1  0
  1 20  1  0
  1 21  1  0
  1 22  1  0
  3 23  1  0
  3 24  1  0
  7 25  1  0
  7 26  1  0
  8 27  1  0
  8 28  1  0
 13 29  1  0
 13 30  1  0
 14 31  1  0
 14 32  1  0
 16 33  1  0
 16 34  1  0
 17 35  1  6
 18 36  1  0
 18 37  1  0
 19 38  1  0
 19 39  1  0
 19 40  1  0
M  END
>  <Ligand ID>  (1) 
LIG0005449

>  <Ligand>  (1) 
CHEMBL234464

>  <SMILES>  (1) 
COCc1c2OCCc2c(c2c1CCO2)C[C@H](N)C

>  <CID>  (1) 
16747713.0

>  <ChEMBL ID>  (1) 
nan

>  <InChiKey>  (1) 
VDHZRXVDGRXINI-SECBINFHSA-N

>  <InChi>  (1) 
InChI=1S/C15H21NO3/c1-9(16)7-12-10-3-5-19-15(10)13(8-17-2)11-4-6-18-14(11)12/h9H,3-8,16H2,1-2H3/t9-/m1/s1

>  <IUPAC Name>  (1) 
(2R)-1-[4-(methoxymethyl)-2,3,6,7-tetrahydrofuro[2,3-f][1]benzofuran-8-yl]propan-2-amine

$$$$
