
     RDKit          3D

 48 49  0  0  0  0  0  0  0  0999 V2000
   -4.0754   -1.0527    1.6748 C   0  0  0  0  0  0  0  0  0  0  0  0
   -3.5523   -0.9210    0.3661 N   0  0  0  0  0  0  0  0  0  0  0  0
   -2.2421   -0.3071    0.2886 C   0  0  0  0  0  0  0  0  0  0  0  0
   -1.7235   -0.2573   -1.1027 C   0  0  0  0  0  0  0  0  0  0  0  0
   -2.7545    0.4032   -2.0380 C   0  0  0  0  0  0  0  0  0  0  0  0
   -2.9736    1.8170   -1.6085 C   0  0  0  0  0  0  0  0  0  0  0  0
   -3.4762    1.8125   -0.1722 C   0  0  0  0  0  0  0  0  0  0  0  0
   -2.4829    1.1659    0.7338 C   0  0  0  0  0  0  0  0  0  0  0  0
   -1.3013   -0.8895    1.2683 C   0  0  0  0  0  0  0  0  0  0  0  0
    0.0467   -0.4424    1.3579 N   0  0  0  0  0  0  0  0  0  0  0  0
    1.1133   -0.5811    0.4643 C   0  0  0  0  0  0  0  0  0  0  0  0
    1.0248   -1.1955   -0.6305 O   0  0  0  0  0  0  0  0  0  0  0  0
    2.4504   -0.0105    0.7348 C   0  0  0  0  0  0  0  0  0  0  0  0
    2.7409    0.6990    1.8743 C   0  0  0  0  0  0  0  0  0  0  0  0
    4.0197    1.2195    2.0873 C   0  0  0  0  0  0  0  0  0  0  0  0
    5.0228    1.0414    1.1724 C   0  0  0  0  0  0  0  0  0  0  0  0
    4.7520    0.3400    0.0364 C   0  0  0  0  0  0  0  0  0  0  0  0
    3.4923   -0.1710   -0.1703 C   0  0  0  0  0  0  0  0  0  0  0  0
    6.0092    0.0901   -1.1595 S   0  0  0  0  0  0  0  0  0  0  0  0
    6.4924    1.4155   -1.6690 O   0  0  0  0  0  0  0  0  0  0  0  0
    5.4616   -0.7287   -2.3051 O   0  0  0  0  0  0  0  0  0  0  0  0
    7.3377   -0.7567   -0.5046 N   0  0  0  0  0  0  0  0  0  0  0  0
    6.6358    1.6851    1.4174 Cl  0  0  0  0  0  0  0  0  0  0  0  0
   -3.6504   -2.1979   -0.2995 C   0  0  0  0  0  0  0  0  0  0  0  0
   -5.1302   -1.4957    1.6150 H   0  0  0  0  0  0  0  0  0  0  0  0
   -3.5242   -1.7740    2.3354 H   0  0  0  0  0  0  0  0  0  0  0  0
   -4.2435   -0.1256    2.2512 H   0  0  0  0  0  0  0  0  0  0  0  0
   -0.8728    0.4466   -1.1392 H   0  0  0  0  0  0  0  0  0  0  0  0
   -1.4435   -1.2187   -1.4860 H   0  0  0  0  0  0  0  0  0  0  0  0
   -2.3078    0.3829   -3.0404 H   0  0  0  0  0  0  0  0  0  0  0  0
   -3.7128   -0.1076   -2.0493 H   0  0  0  0  0  0  0  0  0  0  0  0
   -2.0404    2.4172   -1.6757 H   0  0  0  0  0  0  0  0  0  0  0  0
   -3.7648    2.2571   -2.2459 H   0  0  0  0  0  0  0  0  0  0  0  0
   -4.4548    1.3373   -0.1400 H   0  0  0  0  0  0  0  0  0  0  0  0
   -3.5476    2.8741    0.1254 H   0  0  0  0  0  0  0  0  0  0  0  0
   -2.8573    1.1430    1.7543 H   0  0  0  0  0  0  0  0  0  0  0  0
   -1.5261    1.7126    0.7242 H   0  0  0  0  0  0  0  0  0  0  0  0
   -1.2284   -2.0347    1.1104 H   0  0  0  0  0  0  0  0  0  0  0  0
   -1.7504   -0.8852    2.3226 H   0  0  0  0  0  0  0  0  0  0  0  0
    0.2880    0.0947    2.2636 H   0  0  0  0  0  0  0  0  0  0  0  0
    2.0283    0.8934    2.6488 H   0  0  0  0  0  0  0  0  0  0  0  0
    4.2550    1.7787    2.9815 H   0  0  0  0  0  0  0  0  0  0  0  0
    3.3208   -0.7287   -1.0990 H   0  0  0  0  0  0  0  0  0  0  0  0
    7.1313   -1.1975    0.4189 H   0  0  0  0  0  0  0  0  0  0  0  0
    8.2378   -0.2564   -0.5645 H   0  0  0  0  0  0  0  0  0  0  0  0
   -3.1451   -2.2840   -1.2549 H   0  0  0  0  0  0  0  0  0  0  0  0
   -4.7426   -2.3678   -0.4898 H   0  0  0  0  0  0  0  0  0  0  0  0
   -3.3362   -3.0394    0.3734 H   0  0  0  0  0  0  0  0  0  0  0  0
  1  2  1  0
  2  3  1  0
  3  4  1  0
  4  5  1  0
  5  6  1  0
  6  7  1  0
  7  8  1  0
  3  9  1  0
  9 10  1  0
 10 11  1  0
 11 12  2  0
 11 13  1  0
 13 14  2  0
 14 15  1  0
 15 16  2  0
 16 17  1  0
 17 18  2  0
 17 19  1  0
 19 20  2  0
 19 21  2  0
 19 22  1  0
 16 23  1  0
  2 24  1  0
  8  3  1  0
 18 13  1  0
  1 25  1  0
  1 26  1  0
  1 27  1  0
  4 28  1  0
  4 29  1  0
  5 30  1  0
  5 31  1  0
  6 32  1  0
  6 33  1  0
  7 34  1  0
  7 35  1  0
  8 36  1  0
  8 37  1  0
  9 38  1  0
  9 39  1  0
 10 40  1  0
 14 41  1  0
 15 42  1  0
 18 43  1  0
 22 44  1  0
 22 45  1  0
 24 46  1  0
 24 47  1  0
 24 48  1  0
M  END
>  <Ligand ID>  (1) 
LIG0004533

>  <Ligand>  (1) 
MLS001171261

>  <SMILES>  (1) 
CN(C1(CCCCC1)CNC(=O)c1ccc(c(c1)S(=O)(=O)N)Cl)C

>  <CID>  (1) 
2447253.0

>  <ChEMBL ID>  (1) 
nan

>  <InChiKey>  (1) 
KPZHOYVIVXYJQK-UHFFFAOYSA-N

>  <InChi>  (1) 
InChI=1S/C16H24ClN3O3S/c1-20(2)16(8-4-3-5-9-16)11-19-15(21)12-6-7-13(17)14(10-12)24(18,22)23/h6-7,10H,3-5,8-9,11H2,1-2H3,(H,19,21)(H2,18,22,23)

>  <IUPAC Name>  (1) 
4-chloro-N-[[1-(dimethylamino)cyclohexyl]methyl]-3-sulfamoylbenzamide

$$$$
