
     RDKit          3D

 21 20  0  0  0  0  0  0  0  0999 V2000
    3.7087   -0.4596   -0.4528 C   0  0  0  0  0  0  0  0  0  0  0  0
    2.3658    0.2671   -0.3623 C   0  0  0  0  0  0  0  0  0  0  0  0
    1.4839   -0.4833    0.5909 C   0  0  0  0  0  0  0  0  0  0  0  0
    0.1477    0.1338    0.7944 C   0  0  0  0  0  0  0  0  0  0  0  0
   -0.0406    0.8568    1.8373 O   0  0  0  0  0  0  0  0  0  0  0  0
   -0.9236    0.0012   -0.0445 O   0  0  0  0  0  0  0  0  0  0  0  0
   -2.1766    0.6296    0.2271 C   0  0  0  0  0  0  0  0  0  0  0  0
   -3.1422    0.3438   -0.8488 C   0  0  0  0  0  0  0  0  0  0  0  0
   -4.3031   -0.2803   -0.6705 C   0  0  0  0  0  0  0  0  0  0  0  0
    4.1246   -0.4632    0.5889 H   0  0  0  0  0  0  0  0  0  0  0  0
    3.5712   -1.4940   -0.8319 H   0  0  0  0  0  0  0  0  0  0  0  0
    4.3526    0.0850   -1.1702 H   0  0  0  0  0  0  0  0  0  0  0  0
    1.9564    0.2304   -1.4084 H   0  0  0  0  0  0  0  0  0  0  0  0
    2.5678    1.2904   -0.0085 H   0  0  0  0  0  0  0  0  0  0  0  0
    1.4406   -1.5358    0.2617 H   0  0  0  0  0  0  0  0  0  0  0  0
    2.0182   -0.4807    1.5781 H   0  0  0  0  0  0  0  0  0  0  0  0
   -2.5926    0.0884    1.1378 H   0  0  0  0  0  0  0  0  0  0  0  0
   -2.0815    1.6912    0.5072 H   0  0  0  0  0  0  0  0  0  0  0  0
   -2.8734    0.6690   -1.8526 H   0  0  0  0  0  0  0  0  0  0  0  0
   -4.6410   -0.6383    0.2950 H   0  0  0  0  0  0  0  0  0  0  0  0
   -4.9629   -0.4513   -1.5067 H   0  0  0  0  0  0  0  0  0  0  0  0
  1  2  1  0
  2  3  1  0
  3  4  1  0
  4  5  2  0
  4  6  1  0
  6  7  1  0
  7  8  1  0
  8  9  2  0
  1 10  1  0
  1 11  1  0
  1 12  1  0
  2 13  1  0
  2 14  1  0
  3 15  1  0
  3 16  1  0
  7 17  1  0
  7 18  1  0
  8 19  1  0
  9 20  1  0
  9 21  1  0
M  END
>  <Ligand ID>  (1) 
LIG0001041

>  <Ligand>  (1) 
Allyl butyrate

>  <SMILES>  (1) 
CCCC(=O)OCC=C

>  <CID>  (1) 
16324.0

>  <ChEMBL ID>  (1) 
nan

>  <InChiKey>  (1) 
RMZIOVJHUJAAEY-UHFFFAOYSA-N

>  <InChi>  (1) 
InChI=1S/C7H12O2/c1-3-5-7(8)9-6-4-2/h4H,2-3,5-6H2,1H3

>  <IUPAC Name>  (1) 
prop-2-enyl butanoate

$$$$
