
     RDKit          3D

 74 76  0  0  0  0  0  0  0  0999 V2000
   10.4248   -0.3273   -0.6829 O   0  0  0  0  0  0  0  0  0  0  0  0
    9.1140   -0.3141   -0.2090 C   0  0  0  0  0  0  0  0  0  0  0  0
    8.5468   -1.4546    0.3186 C   0  0  0  0  0  0  0  0  0  0  0  0
    7.2476   -1.4233    0.7830 C   0  0  0  0  0  0  0  0  0  0  0  0
    6.4758   -0.2558    0.7356 C   0  0  0  0  0  0  0  0  0  0  0  0
    7.0443    0.8913    0.2060 C   0  0  0  0  0  0  0  0  0  0  0  0
    8.3610    0.8373   -0.2585 C   0  0  0  0  0  0  0  0  0  0  0  0
    6.3565    2.1821    0.0956 C   0  0  0  0  0  0  0  0  0  0  0  0
    4.5502    2.0640    0.1121 S   0  0  0  0  0  0  0  0  0  0  0  0
    4.1431    0.3227    0.1982 C   0  0  1  0  0  0  0  0  0  0  0  0
    5.0831   -0.2739    1.2459 C   0  0  0  0  0  0  0  0  0  0  0  0
    2.7483    0.0149    0.5162 C   0  0  0  0  0  0  0  0  0  0  0  0
    2.4010   -0.6595    1.5386 O   0  0  0  0  0  0  0  0  0  0  0  0
    1.7172    0.4784   -0.3398 N   0  0  0  0  0  0  0  0  0  0  0  0
    0.3120    0.2329   -0.1232 C   0  0  1  0  0  0  0  0  0  0  0  0
   -0.4247    1.4890    0.2106 C   0  0  0  0  0  0  0  0  0  0  0  0
   -0.3595    2.5418   -0.8401 C   0  0  0  0  0  0  0  0  0  0  0  0
    0.2244    2.0318    1.4923 C   0  0  0  0  0  0  0  0  0  0  0  0
   -0.3057   -0.6209   -1.1755 C   0  0  0  0  0  0  0  0  0  0  0  0
   -1.6877   -0.9072   -1.0281 N   0  0  0  0  0  0  0  0  0  0  0  0
   -2.0751   -1.7321    0.0472 C   0  0  0  0  0  0  0  0  0  0  0  0
   -3.4006   -2.3770   -0.2421 C   0  0  0  0  0  0  0  0  0  0  0  0
   -4.3722   -1.4401   -0.9388 C   0  0  1  0  0  0  0  0  0  0  0  0
   -3.8086   -0.6349   -2.0384 C   0  0  2  0  0  0  0  0  0  0  0  0
   -2.3825   -1.1169   -2.2629 C   0  0  0  0  0  0  0  0  0  0  0  0
   -3.8053    0.8429   -1.9068 C   0  0  0  0  0  0  0  0  0  0  0  0
   -5.3444   -2.4274   -1.6437 C   0  0  0  0  0  0  0  0  0  0  0  0
   -5.2213   -0.7257    0.0419 C   0  0  0  0  0  0  0  0  0  0  0  0
   -6.5292   -1.1245    0.3315 C   0  0  0  0  0  0  0  0  0  0  0  0
   -7.3247   -0.5074    1.2422 C   0  0  0  0  0  0  0  0  0  0  0  0
   -6.8668    0.5806    1.9512 C   0  0  0  0  0  0  0  0  0  0  0  0
   -5.5917    1.0099    1.7039 C   0  0  0  0  0  0  0  0  0  0  0  0
   -4.7790    0.3740    0.7689 C   0  0  0  0  0  0  0  0  0  0  0  0
   -5.1162    2.1033    2.4088 O   0  0  0  0  0  0  0  0  0  0  0  0
    0.6896    0.0000    0.0000 Cl  0  0  0  0  0  0  0  0  0  0  0  0
   11.2040   -0.5759   -0.0557 H   0  0  0  0  0  0  0  0  0  0  0  0
    9.0990   -2.3832    0.3793 H   0  0  0  0  0  0  0  0  0  0  0  0
    6.8217   -2.3439    1.1969 H   0  0  0  0  0  0  0  0  0  0  0  0
    8.8451    1.7237   -0.6846 H   0  0  0  0  0  0  0  0  0  0  0  0
    6.6204    2.5870   -0.9235 H   0  0  0  0  0  0  0  0  0  0  0  0
    6.7475    2.8600    0.8921 H   0  0  0  0  0  0  0  0  0  0  0  0
    4.3777   -0.1109   -0.8134 H   0  0  0  0  0  0  0  0  0  0  0  0
    4.9585    0.3513    2.1528 H   0  0  0  0  0  0  0  0  0  0  0  0
    4.7724   -1.3104    1.3482 H   0  0  0  0  0  0  0  0  0  0  0  0
    1.9600    1.0427   -1.2012 H   0  0  0  0  0  0  0  0  0  0  0  0
    0.2737   -0.3727    0.8268 H   0  0  0  0  0  0  0  0  0  0  0  0
   -1.4626    1.3053    0.4759 H   0  0  0  0  0  0  0  0  0  0  0  0
   -1.2646    3.1786   -0.7522 H   0  0  0  0  0  0  0  0  0  0  0  0
   -0.3882    2.1164   -1.8539 H   0  0  0  0  0  0  0  0  0  0  0  0
    0.4899    3.2345   -0.6632 H   0  0  0  0  0  0  0  0  0  0  0  0
   -0.4437    2.7771    1.9582 H   0  0  0  0  0  0  0  0  0  0  0  0
    0.3468    1.1648    2.1858 H   0  0  0  0  0  0  0  0  0  0  0  0
    1.2041    2.4272    1.1979 H   0  0  0  0  0  0  0  0  0  0  0  0
   -0.1988   -0.2080   -2.2094 H   0  0  0  0  0  0  0  0  0  0  0  0
    0.2403   -1.5832   -1.1829 H   0  0  0  0  0  0  0  0  0  0  0  0
   -1.3300   -2.5486    0.1425 H   0  0  0  0  0  0  0  0  0  0  0  0
   -2.1460   -1.2555    1.0456 H   0  0  0  0  0  0  0  0  0  0  0  0
   -3.8986   -2.6549    0.7086 H   0  0  0  0  0  0  0  0  0  0  0  0
   -3.2286   -3.3208   -0.7986 H   0  0  0  0  0  0  0  0  0  0  0  0
   -4.3261   -0.8566   -3.0230 H   0  0  0  0  0  0  0  0  0  0  0  0
   -1.9169   -0.4366   -3.0138 H   0  0  0  0  0  0  0  0  0  0  0  0
   -2.3248   -2.1272   -2.6587 H   0  0  0  0  0  0  0  0  0  0  0  0
   -2.8905    1.2764   -1.4493 H   0  0  0  0  0  0  0  0  0  0  0  0
   -4.7536    1.1971   -1.5107 H   0  0  0  0  0  0  0  0  0  0  0  0
   -3.7729    1.2712   -2.9632 H   0  0  0  0  0  0  0  0  0  0  0  0
   -5.6099   -3.2629   -1.0026 H   0  0  0  0  0  0  0  0  0  0  0  0
   -4.8211   -2.8698   -2.5318 H   0  0  0  0  0  0  0  0  0  0  0  0
   -6.1727   -1.8319   -2.0582 H   0  0  0  0  0  0  0  0  0  0  0  0
   -6.9658   -1.9879   -0.1952 H   0  0  0  0  0  0  0  0  0  0  0  0
   -8.3322   -0.8616    1.4244 H   0  0  0  0  0  0  0  0  0  0  0  0
   -7.5340    1.0341    2.6600 H   0  0  0  0  0  0  0  0  0  0  0  0
   -3.8025    0.7639    0.6435 H   0  0  0  0  0  0  0  0  0  0  0  0
   -5.7315    2.9170    2.4139 H   0  0  0  0  0  0  0  0  0  0  0  0
   -0.6896    0.0000    0.0000 H   0  0  0  0  0  0  0  0  0  0  0  0
  1  2  1  0
  2  3  2  0
  3  4  1  0
  4  5  2  0
  5  6  1  0
  6  7  2  0
  6  8  1  0
  8  9  1  0
  9 10  1  0
 10 11  1  0
 10 12  1  0
 12 13  2  0
 12 14  1  0
 14 15  1  0
 15 16  1  0
 16 17  1  0
 16 18  1  0
 15 19  1  0
 19 20  1  0
 20 21  1  0
 21 22  1  0
 22 23  1  0
 23 24  1  0
 24 25  1  0
 24 26  1  0
 23 27  1  6
 23 28  1  0
 28 29  2  0
 29 30  1  0
 30 31  2  0
 31 32  1  0
 32 33  2  0
 32 34  1  0
  7  2  1  0
 25 20  1  0
 33 28  1  0
 11  5  1  0
  1 36  1  0
  3 37  1  0
  4 38  1  0
  7 39  1  0
  8 40  1  0
  8 41  1  0
 10 42  1  6
 11 43  1  0
 11 44  1  0
 14 45  1  0
 15 46  1  1
 16 47  1  0
 17 48  1  0
 17 49  1  0
 17 50  1  0
 18 51  1  0
 18 52  1  0
 18 53  1  0
 19 54  1  0
 19 55  1  0
 21 56  1  0
 21 57  1  0
 22 58  1  0
 22 59  1  0
 24 60  1  6
 25 61  1  0
 25 62  1  0
 26 63  1  0
 26 64  1  0
 26 65  1  0
 27 66  1  0
 27 67  1  0
 27 68  1  0
 29 69  1  0
 30 70  1  0
 31 71  1  0
 33 72  1  0
 34 73  1  0
 35 74  1  0
M  END
>  <Ligand ID>  (1) 
LIG0002300

>  <Ligand>  (1) 
CHEMBL1204085

>  <SMILES>  (1) 
Oc1ccc2c(c1)CS[C@@H](C2)C(=O)N[C@@H](C(C)C)CN1CC[C@@]([C@H](C1)C)(C)c1cccc(c1)O.Cl

>  <CID>  (1) 
46867667.0

>  <ChEMBL ID>  (1) 
nan

>  <InChiKey>  (1) 
HBMBXAPDAIMMAF-IXZUKJEDSA-N

>  <InChi>  (1) 
InChI=1S/C28H38N2O3S.ClH/c1-18(2)25(29-27(33)26-13-20-8-9-24(32)12-21(20)17-34-26)16-30-11-10-28(4,19(3)15-30)22-6-5-7-23(31)14-22;/h5-9,12,14,18-19,25-26,31-32H,10-11,13,15-17H2,1-4H3,(H,29,33);1H/t19-,25+,26-,28+;/m0./s1

>  <IUPAC Name>  (1) 
(3S)-7-hydroxy-N-[(2S)-1-[(3R,4R)-4-(3-hydroxyphenyl)-3,4-dimethylpiperidin-1-yl]-3-methylbutan-2-yl]-3,4-dihydro-1H-isothiochromene-3-carboxamide;hydrochloride

$$$$
