
     RDKit          3D

 73 78  0  0  0  0  0  0  0  0999 V2000
   -5.1934    2.5303   -0.8647 C   0  0  0  0  0  0  0  0  0  0  0  0
   -4.1571    1.6426   -0.2556 C   0  0  1  0  0  0  0  0  0  0  0  0
   -4.7474    0.6473    0.6781 C   0  0  0  0  0  0  0  0  0  0  0  0
   -3.7524   -0.1447    1.4440 C   0  0  0  0  0  0  0  0  0  0  0  0
   -2.4167   -0.0260    0.8612 C   0  0  0  0  0  0  0  0  0  0  0  0
   -2.1285    0.4522   -0.3964 C   0  0  0  0  0  0  0  0  0  0  0  0
   -3.3005    0.8926   -1.2379 C   0  0  2  0  0  0  0  0  0  0  0  0
   -2.8052    1.7992   -2.3561 C   0  0  0  0  0  0  0  0  0  0  0  0
   -3.9236   -0.3300   -1.8089 C   0  0  0  0  0  0  0  0  0  0  0  0
   -5.1327   -0.8649   -1.1549 C   0  0  0  0  0  0  0  0  0  0  0  0
   -5.6858   -0.1566   -0.0627 N   0  0  0  0  0  0  0  0  0  0  0  0
   -6.5671   -0.9095    0.7704 C   0  0  0  0  0  0  0  0  0  0  0  0
   -7.8245   -1.2402    0.0241 C   0  0  0  0  0  0  0  0  0  0  0  0
   -8.8443   -2.0312    0.7876 C   0  0  0  0  0  0  0  0  0  0  0  0
   -9.0900   -0.5368    0.4736 C   0  0  0  0  0  0  0  0  0  0  0  0
   -0.8280    0.5373   -0.8895 C   0  0  0  0  0  0  0  0  0  0  0  0
    0.2365    0.1323   -0.1064 C   0  0  0  0  0  0  0  0  0  0  0  0
   -0.0397   -0.3484    1.1548 C   0  0  0  0  0  0  0  0  0  0  0  0
   -1.3378   -0.4361    1.6541 C   0  0  0  0  0  0  0  0  0  0  0  0
    1.5832    0.2364   -0.6528 C   0  0  0  0  0  0  0  0  0  0  0  0
    1.6749    0.7017   -1.8270 O   0  0  0  0  0  0  0  0  0  0  0  0
    2.7503   -0.1504    0.0580 N   0  0  0  0  0  0  0  0  0  0  0  0
    4.0926   -0.0402   -0.4970 C   0  0  0  0  0  0  0  0  0  0  0  0
    4.4640    1.3836   -0.8495 C   0  0  0  0  0  0  0  0  0  0  0  0
    5.8491    1.4486   -1.4164 C   0  0  0  0  0  0  0  0  0  0  0  0
    6.8150    0.9424   -0.4367 C   0  0  0  0  0  0  0  0  0  0  0  0
    7.4416    1.7302    0.5155 C   0  0  0  0  0  0  0  0  0  0  0  0
    8.3567    1.1940    1.4199 C   0  0  0  0  0  0  0  0  0  0  0  0
    8.6824   -0.1355    1.4137 C   0  0  0  0  0  0  0  0  0  0  0  0
    8.0585   -0.9425    0.4592 C   0  0  0  0  0  0  0  0  0  0  0  0
    7.1539   -0.4075   -0.4334 C   0  0  0  0  0  0  0  0  0  0  0  0
    8.3238   -2.3014    0.3746 C   0  0  0  0  0  0  0  0  0  0  0  0
    9.2291   -2.8946    1.2512 C   0  0  0  0  0  0  0  0  0  0  0  0
    9.8580   -2.0944    2.2095 C   0  0  0  0  0  0  0  0  0  0  0  0
    9.5691   -0.7328    2.2676 C   0  0  0  0  0  0  0  0  0  0  0  0
   -5.6414    3.1093   -0.0091 H   0  0  0  0  0  0  0  0  0  0  0  0
   -5.9881    2.0129   -1.3935 H   0  0  0  0  0  0  0  0  0  0  0  0
   -4.7313    3.2733   -1.5279 H   0  0  0  0  0  0  0  0  0  0  0  0
   -3.4771    2.2951    0.3658 H   0  0  0  0  0  0  0  0  0  0  0  0
   -5.3692    1.2145    1.4315 H   0  0  0  0  0  0  0  0  0  0  0  0
   -3.6876    0.1468    2.5217 H   0  0  0  0  0  0  0  0  0  0  0  0
   -4.0469   -1.2348    1.4884 H   0  0  0  0  0  0  0  0  0  0  0  0
   -2.3077    1.1255   -3.0986 H   0  0  0  0  0  0  0  0  0  0  0  0
   -3.7126    2.1550   -2.8932 H   0  0  0  0  0  0  0  0  0  0  0  0
   -2.1835    2.6074   -1.9764 H   0  0  0  0  0  0  0  0  0  0  0  0
   -4.2222   -0.0899   -2.8776 H   0  0  0  0  0  0  0  0  0  0  0  0
   -3.1744   -1.1633   -1.9650 H   0  0  0  0  0  0  0  0  0  0  0  0
   -4.8949   -1.9002   -0.7631 H   0  0  0  0  0  0  0  0  0  0  0  0
   -5.9699   -1.0840   -1.8844 H   0  0  0  0  0  0  0  0  0  0  0  0
   -6.8189   -0.2660    1.6403 H   0  0  0  0  0  0  0  0  0  0  0  0
   -6.0700   -1.8190    1.1643 H   0  0  0  0  0  0  0  0  0  0  0  0
   -7.7988   -1.3784   -1.0828 H   0  0  0  0  0  0  0  0  0  0  0  0
   -9.5512   -2.7147    0.2691 H   0  0  0  0  0  0  0  0  0  0  0  0
   -8.6166   -2.2674    1.8521 H   0  0  0  0  0  0  0  0  0  0  0  0
   -8.9857    0.1887    1.3024 H   0  0  0  0  0  0  0  0  0  0  0  0
   -9.8773   -0.2979   -0.2473 H   0  0  0  0  0  0  0  0  0  0  0  0
   -0.6976    0.9182   -1.8695 H   0  0  0  0  0  0  0  0  0  0  0  0
    0.7402   -0.6717    1.7949 H   0  0  0  0  0  0  0  0  0  0  0  0
   -1.4984   -0.8259    2.6629 H   0  0  0  0  0  0  0  0  0  0  0  0
    2.6061   -0.5293    1.0252 H   0  0  0  0  0  0  0  0  0  0  0  0
    4.8069   -0.3567    0.2787 H   0  0  0  0  0  0  0  0  0  0  0  0
    4.2276   -0.7000   -1.3734 H   0  0  0  0  0  0  0  0  0  0  0  0
    4.3242    2.0635    0.0131 H   0  0  0  0  0  0  0  0  0  0  0  0
    3.7461    1.7330   -1.6233 H   0  0  0  0  0  0  0  0  0  0  0  0
    5.8813    0.8145   -2.3276 H   0  0  0  0  0  0  0  0  0  0  0  0
    6.0382    2.5061   -1.7093 H   0  0  0  0  0  0  0  0  0  0  0  0
    7.2066    2.7997    0.5517 H   0  0  0  0  0  0  0  0  0  0  0  0
    8.8338    1.8440    2.1594 H   0  0  0  0  0  0  0  0  0  0  0  0
    6.6694   -1.0425   -1.1765 H   0  0  0  0  0  0  0  0  0  0  0  0
    7.8300   -2.9240   -0.3764 H   0  0  0  0  0  0  0  0  0  0  0  0
    9.4322   -3.9605    1.1787 H   0  0  0  0  0  0  0  0  0  0  0  0
   10.5652   -2.5546    2.8951 H   0  0  0  0  0  0  0  0  0  0  0  0
   10.0492   -0.0897    3.0086 H   0  0  0  0  0  0  0  0  0  0  0  0
  1  2  1  0
  2  3  1  0
  3  4  1  0
  4  5  1  0
  5  6  2  0
  6  7  1  0
  7  8  1  6
  7  9  1  0
  9 10  1  0
 10 11  1  0
 11 12  1  0
 12 13  1  0
 13 14  1  0
 14 15  1  0
  6 16  1  0
 16 17  2  0
 17 18  1  0
 18 19  2  0
 17 20  1  0
 20 21  2  0
 20 22  1  0
 22 23  1  0
 23 24  1  0
 24 25  1  0
 25 26  1  0
 26 27  2  0
 27 28  1  0
 28 29  2  0
 29 30  1  0
 30 31  2  0
 30 32  1  0
 32 33  2  0
 33 34  1  0
 34 35  2  0
  7  2  1  0
 15 13  1  0
 31 26  1  0
 11  3  1  0
 35 29  1  0
 19  5  1  0
  1 36  1  0
  1 37  1  0
  1 38  1  0
  2 39  1  1
  3 40  1  0
  4 41  1  0
  4 42  1  0
  8 43  1  0
  8 44  1  0
  8 45  1  0
  9 46  1  0
  9 47  1  0
 10 48  1  0
 10 49  1  0
 12 50  1  0
 12 51  1  0
 13 52  1  0
 14 53  1  0
 14 54  1  0
 15 55  1  0
 15 56  1  0
 16 57  1  0
 18 58  1  0
 19 59  1  0
 22 60  1  0
 23 61  1  0
 23 62  1  0
 24 63  1  0
 24 64  1  0
 25 65  1  0
 25 66  1  0
 27 67  1  0
 28 68  1  0
 31 69  1  0
 32 70  1  0
 33 71  1  0
 34 72  1  0
 35 73  1  0
M  END
>  <Ligand ID>  (1) 
LIG0005529

>  <Ligand>  (1) 
CHEMBL430397

>  <SMILES>  (1) 
C[C@H]1C2Cc3c([C@@]1(C)CCN2CC1CC1)cc(cc3)C(=O)NCCCc1ccc2c(c1)cccc2

>  <CID>  (1) 
16048940.0

>  <ChEMBL ID>  (1) 
nan

>  <InChiKey>  (1) 
LOUFHRFNYKWWBM-WTBOZYSNSA-N

>  <InChi>  (1) 
InChI=1S/C32H38N2O/c1-22-30-20-27-13-14-28(19-29(27)32(22,2)15-17-34(30)21-24-9-10-24)31(35)33-16-5-6-23-11-12-25-7-3-4-8-26(25)18-23/h3-4,7-8,11-14,18-19,22,24,30H,5-6,9-10,15-17,20-21H2,1-2H3,(H,33,35)/t22-,30?,32-/m0/s1

>  <IUPAC Name>  (1) 
(1S,13R)-10-(cyclopropylmethyl)-1,13-dimethyl-N-(3-naphthalen-2-ylpropyl)-10-azatricyclo[7.3.1.02,7]trideca-2(7),3,5-triene-4-carboxamide

$$$$
