
     RDKit          3D

 43 44  0  0  0  0  0  0  0  0999 V2000
   -2.1970   -0.6348   -2.2640 C   0  0  0  0  0  0  0  0  0  0  0  0
   -1.0613   -0.3121   -1.4493 N   0  0  0  0  0  0  0  0  0  0  0  0
   -1.3098    0.4042   -0.2510 C   0  0  0  0  0  0  0  0  0  0  0  0
   -1.8391   -0.3843    0.9025 C   0  0  0  0  0  0  0  0  0  0  0  0
   -3.2965   -0.5684    1.0399 C   0  0  0  0  0  0  0  0  0  0  0  0
   -4.1107    0.6951    1.0317 C   0  0  0  0  0  0  0  0  0  0  0  0
   -3.2386    1.8319    0.5531 C   0  0  0  0  0  0  0  0  0  0  0  0
   -2.4392    1.4278   -0.6617 C   0  0  0  0  0  0  0  0  0  0  0  0
   -0.2418    1.3336    0.2388 C   0  0  0  0  0  0  0  0  0  0  0  0
    1.0621    0.8894    0.5196 N   0  0  0  0  0  0  0  0  0  0  0  0
    2.0344    0.4009   -0.3922 C   0  0  0  0  0  0  0  0  0  0  0  0
    1.7803    0.3421   -1.6223 O   0  0  0  0  0  0  0  0  0  0  0  0
    3.3619   -0.0557    0.0193 C   0  0  0  0  0  0  0  0  0  0  0  0
    3.8029   -0.0620    1.3126 C   0  0  0  0  0  0  0  0  0  0  0  0
    5.0833   -0.5085    1.6606 C   0  0  0  0  0  0  0  0  0  0  0  0
    5.9521   -0.9602    0.7126 C   0  0  0  0  0  0  0  0  0  0  0  0
    5.5301   -0.9636   -0.5997 C   0  0  0  0  0  0  0  0  0  0  0  0
    4.2691   -0.5235   -0.9399 C   0  0  0  0  0  0  0  0  0  0  0  0
    7.7039   -1.5797    1.1199 Br  0  0  0  0  0  0  0  0  0  0  0  0
   -0.5080   -1.6668   -1.1620 C   0  0  0  0  0  0  0  0  0  0  0  0
   -1.9355   -1.5543   -2.8845 H   0  0  0  0  0  0  0  0  0  0  0  0
   -3.1301   -0.8741   -1.8035 H   0  0  0  0  0  0  0  0  0  0  0  0
   -2.3485    0.1392   -3.0493 H   0  0  0  0  0  0  0  0  0  0  0  0
   -1.5032    0.1171    1.8638 H   0  0  0  0  0  0  0  0  0  0  0  0
   -1.3744   -1.3860    0.9692 H   0  0  0  0  0  0  0  0  0  0  0  0
   -3.4383   -0.9800    2.0897 H   0  0  0  0  0  0  0  0  0  0  0  0
   -3.7471   -1.3918    0.4306 H   0  0  0  0  0  0  0  0  0  0  0  0
   -4.9837    0.6469    0.3629 H   0  0  0  0  0  0  0  0  0  0  0  0
   -4.4907    1.0051    2.0253 H   0  0  0  0  0  0  0  0  0  0  0  0
   -3.9062    2.6573    0.2047 H   0  0  0  0  0  0  0  0  0  0  0  0
   -2.5586    2.2197    1.3139 H   0  0  0  0  0  0  0  0  0  0  0  0
   -1.9684    2.3603   -1.0435 H   0  0  0  0  0  0  0  0  0  0  0  0
   -3.0392    1.0690   -1.4801 H   0  0  0  0  0  0  0  0  0  0  0  0
   -0.5951    1.8896    1.1703 H   0  0  0  0  0  0  0  0  0  0  0  0
   -0.1714    2.2481   -0.4676 H   0  0  0  0  0  0  0  0  0  0  0  0
    1.3953    0.9062    1.5392 H   0  0  0  0  0  0  0  0  0  0  0  0
    3.1937    0.2720    2.1155 H   0  0  0  0  0  0  0  0  0  0  0  0
    5.3984   -0.4999    2.6886 H   0  0  0  0  0  0  0  0  0  0  0  0
    6.1860   -1.3129   -1.3812 H   0  0  0  0  0  0  0  0  0  0  0  0
    3.9816   -0.5449   -1.9858 H   0  0  0  0  0  0  0  0  0  0  0  0
   -1.3534   -2.3555   -0.9395 H   0  0  0  0  0  0  0  0  0  0  0  0
    0.1321   -1.7012   -0.2963 H   0  0  0  0  0  0  0  0  0  0  0  0
   -0.0816   -2.0349   -2.1187 H   0  0  0  0  0  0  0  0  0  0  0  0
  1  2  1  0
  2  3  1  0
  3  4  1  0
  4  5  1  0
  5  6  1  0
  6  7  1  0
  7  8  1  0
  3  9  1  0
  9 10  1  0
 10 11  1  0
 11 12  2  0
 11 13  1  0
 13 14  2  0
 14 15  1  0
 15 16  2  0
 16 17  1  0
 17 18  2  0
 16 19  1  0
  2 20  1  0
  8  3  1  0
 18 13  1  0
  1 21  1  0
  1 22  1  0
  1 23  1  0
  4 24  1  0
  4 25  1  0
  5 26  1  0
  5 27  1  0
  6 28  1  0
  6 29  1  0
  7 30  1  0
  7 31  1  0
  8 32  1  0
  8 33  1  0
  9 34  1  0
  9 35  1  0
 10 36  1  0
 14 37  1  0
 15 38  1  0
 17 39  1  0
 18 40  1  0
 20 41  1  0
 20 42  1  0
 20 43  1  0
M  END
>  <Ligand ID>  (1) 
LIG0004535

>  <Ligand>  (1) 
MLS001200257

>  <SMILES>  (1) 
CN(C1(CCCCC1)CNC(=O)c1ccc(cc1)Br)C

>  <CID>  (1) 
7696510.0

>  <ChEMBL ID>  (1) 
nan

>  <InChiKey>  (1) 
RHNRWKLWYAKABH-UHFFFAOYSA-N

>  <InChi>  (1) 
InChI=1S/C16H23BrN2O/c1-19(2)16(10-4-3-5-11-16)12-18-15(20)13-6-8-14(17)9-7-13/h6-9H,3-5,10-12H2,1-2H3,(H,18,20)

>  <IUPAC Name>  (1) 
4-bromo-N-[[1-(dimethylamino)cyclohexyl]methyl]benzamide

$$$$
