
     RDKit          3D

 95 99  0  0  0  0  0  0  0  0999 V2000
   -7.1349    1.1343   -2.7255 C   0  0  0  0  0  0  0  0  0  0  0  0
   -7.1511    1.6195   -1.3059 C   0  0  1  0  0  0  0  0  0  0  0  0
   -8.3990    1.0636   -0.5891 C   0  0  0  0  0  0  0  0  0  0  0  0
   -8.3320    1.5608    0.7256 N   0  0  0  0  0  0  0  0  0  0  0  0
   -7.2546    1.1181    1.5218 C   0  0  0  0  0  0  0  0  0  0  0  0
   -5.9747    1.5971    0.8814 C   0  0  0  0  0  0  0  0  0  0  0  0
   -5.9397    1.1695   -0.5524 C   0  0  2  0  0  0  0  0  0  0  0  0
   -4.7391    1.8167   -1.2351 C   0  0  0  0  0  0  0  0  0  0  0  0
   -5.8377   -0.3112   -0.6031 C   0  0  0  0  0  0  0  0  0  0  0  0
   -6.9883   -1.0684   -0.6605 C   0  0  0  0  0  0  0  0  0  0  0  0
   -8.3020   -0.4200   -0.6771 C   0  0  0  0  0  0  0  0  0  0  0  0
   -9.3078   -1.1695   -0.7668 O   0  0  0  0  0  0  0  0  0  0  0  0
   -6.8310   -2.4372   -0.7077 C   0  0  0  0  0  0  0  0  0  0  0  0
   -5.5748   -2.9969   -0.6974 C   0  0  0  0  0  0  0  0  0  0  0  0
   -4.4083   -2.2502   -0.6402 C   0  0  0  0  0  0  0  0  0  0  0  0
   -4.5679   -0.8792   -0.5929 C   0  0  0  0  0  0  0  0  0  0  0  0
   -3.1452   -2.8924   -0.6592 N   0  0  0  0  0  0  0  0  0  0  0  0
   -1.9051   -2.2773   -0.3941 C   0  0  0  0  0  0  0  0  0  0  0  0
   -1.6695   -1.3221    0.5598 C   0  0  0  0  0  0  0  0  0  0  0  0
   -0.4137   -0.7365    0.7215 C   0  0  0  0  0  0  0  0  0  0  0  0
    0.6651   -1.1019   -0.0877 C   0  0  0  0  0  0  0  0  0  0  0  0
    0.4132   -2.0602   -1.0379 C   0  0  0  0  0  0  0  0  0  0  0  0
   -0.8376   -2.6501   -1.2058 C   0  0  0  0  0  0  0  0  0  0  0  0
    1.9172   -0.4622    0.0854 N   0  0  0  0  0  0  0  0  0  0  0  0
    3.1164   -0.7923   -0.6556 C   0  0  0  0  0  0  0  0  0  0  0  0
    3.7323   -2.0736   -0.1889 C   0  0  0  0  0  0  0  0  0  0  0  0
    4.8542   -2.3664   -0.9216 O   0  0  0  0  0  0  0  0  0  0  0  0
    5.8633   -1.4651   -0.9417 C   0  0  0  0  0  0  0  0  0  0  0  0
    6.4518   -1.1267    0.4108 C   0  0  0  0  0  0  0  0  0  0  0  0
    6.9731   -2.1924    1.0602 O   0  0  0  0  0  0  0  0  0  0  0  0
    7.9408   -2.9457    0.5280 C   0  0  0  0  0  0  0  0  0  0  0  0
    9.2953   -2.4219    0.2326 C   0  0  0  0  0  0  0  0  0  0  0  0
   10.0043   -1.9434    1.3047 O   0  0  0  0  0  0  0  0  0  0  0  0
    9.5868   -0.8051    1.9065 C   0  0  0  0  0  0  0  0  0  0  0  0
    9.7650    0.3843    0.9409 C   0  0  0  0  0  0  0  0  0  0  0  0
   11.1189    0.4351    0.6652 O   0  0  0  0  0  0  0  0  0  0  0  0
   11.4115    1.4336   -0.2410 C   0  0  0  0  0  0  0  0  0  0  0  0
   11.0554    2.7709    0.2788 C   0  0  0  0  0  0  0  0  0  0  0  0
   11.3408    3.7851   -0.6084 O   0  0  0  0  0  0  0  0  0  0  0  0
   12.6275    3.9497   -0.9712 C   0  0  0  0  0  0  0  0  0  0  0  0
   13.2427    2.9471   -1.6506 F   0  0  0  0  0  0  0  0  0  0  0  0
   13.3720    4.1602    0.1980 F   0  0  0  0  0  0  0  0  0  0  0  0
   12.7159    5.1051   -1.7487 F   0  0  0  0  0  0  0  0  0  0  0  0
   -9.4082    2.2372    1.3030 C   0  0  0  0  0  0  0  0  0  0  0  0
  -10.6462    1.4828    1.6253 C   0  0  0  0  0  0  0  0  0  0  0  0
  -11.4883    0.7642    0.6705 C   0  0  0  0  0  0  0  0  0  0  0  0
  -11.9404    2.1088    1.1334 C   0  0  0  0  0  0  0  0  0  0  0  0
   -6.4440    0.2935   -2.8978 H   0  0  0  0  0  0  0  0  0  0  0  0
   -8.1438    0.7823   -3.0105 H   0  0  0  0  0  0  0  0  0  0  0  0
   -6.8896    1.9576   -3.4374 H   0  0  0  0  0  0  0  0  0  0  0  0
   -7.1877    2.7258   -1.3041 H   0  0  0  0  0  0  0  0  0  0  0  0
   -9.2460    1.4974   -1.1305 H   0  0  0  0  0  0  0  0  0  0  0  0
   -7.3146    1.6566    2.5030 H   0  0  0  0  0  0  0  0  0  0  0  0
   -7.1780    0.0184    1.6561 H   0  0  0  0  0  0  0  0  0  0  0  0
   -5.0759    1.1354    1.3696 H   0  0  0  0  0  0  0  0  0  0  0  0
   -5.9014    2.7063    0.8920 H   0  0  0  0  0  0  0  0  0  0  0  0
   -5.0691    2.8232   -1.5589 H   0  0  0  0  0  0  0  0  0  0  0  0
   -4.4321    1.2407   -2.1077 H   0  0  0  0  0  0  0  0  0  0  0  0
   -3.9036    1.9701   -0.5248 H   0  0  0  0  0  0  0  0  0  0  0  0
   -7.7300   -3.0263   -0.7526 H   0  0  0  0  0  0  0  0  0  0  0  0
   -5.4932   -4.0958   -0.7366 H   0  0  0  0  0  0  0  0  0  0  0  0
   -3.7264   -0.2146   -0.5587 H   0  0  0  0  0  0  0  0  0  0  0  0
   -3.1267   -3.9139   -0.8884 H   0  0  0  0  0  0  0  0  0  0  0  0
   -2.4620   -1.0138    1.2192 H   0  0  0  0  0  0  0  0  0  0  0  0
   -0.3156    0.0135    1.5026 H   0  0  0  0  0  0  0  0  0  0  0  0
    1.1771   -2.3912   -1.7100 H   0  0  0  0  0  0  0  0  0  0  0  0
   -0.9811   -3.4097   -1.9791 H   0  0  0  0  0  0  0  0  0  0  0  0
    2.0017    0.3011    0.7906 H   0  0  0  0  0  0  0  0  0  0  0  0
    3.8285    0.0700   -0.6617 H   0  0  0  0  0  0  0  0  0  0  0  0
    2.8852   -0.9461   -1.7504 H   0  0  0  0  0  0  0  0  0  0  0  0
    3.9602   -2.0429    0.9194 H   0  0  0  0  0  0  0  0  0  0  0  0
    2.9960   -2.9011   -0.3803 H   0  0  0  0  0  0  0  0  0  0  0  0
    5.5747   -0.4968   -1.4343 H   0  0  0  0  0  0  0  0  0  0  0  0
    6.7057   -1.8550   -1.5858 H   0  0  0  0  0  0  0  0  0  0  0  0
    5.5427   -0.8070    1.0303 H   0  0  0  0  0  0  0  0  0  0  0  0
    7.0387   -0.2169    0.3332 H   0  0  0  0  0  0  0  0  0  0  0  0
    8.1155   -3.8008    1.2785 H   0  0  0  0  0  0  0  0  0  0  0  0
    7.5790   -3.5342   -0.3831 H   0  0  0  0  0  0  0  0  0  0  0  0
    9.9015   -3.3044   -0.1542 H   0  0  0  0  0  0  0  0  0  0  0  0
    9.3134   -1.7109   -0.6322 H   0  0  0  0  0  0  0  0  0  0  0  0
   10.2673   -0.6261    2.7842 H   0  0  0  0  0  0  0  0  0  0  0  0
    8.5779   -0.7728    2.3136 H   0  0  0  0  0  0  0  0  0  0  0  0
    9.2633    0.2236   -0.0158 H   0  0  0  0  0  0  0  0  0  0  0  0
    9.3431    1.2621    1.4326 H   0  0  0  0  0  0  0  0  0  0  0  0
   12.5072    1.3174   -0.4578 H   0  0  0  0  0  0  0  0  0  0  0  0
   10.8328    1.2099   -1.1822 H   0  0  0  0  0  0  0  0  0  0  0  0
   11.5376    2.9858    1.2814 H   0  0  0  0  0  0  0  0  0  0  0  0
    9.9442    2.8091    0.5011 H   0  0  0  0  0  0  0  0  0  0  0  0
   -9.0281    2.7039    2.2695 H   0  0  0  0  0  0  0  0  0  0  0  0
   -9.6762    3.0939    0.6281 H   0  0  0  0  0  0  0  0  0  0  0  0
  -10.7252    1.1891    2.7043 H   0  0  0  0  0  0  0  0  0  0  0  0
  -11.3184    0.6826   -0.3966 H   0  0  0  0  0  0  0  0  0  0  0  0
  -12.0587   -0.1314    1.0636 H   0  0  0  0  0  0  0  0  0  0  0  0
  -11.8941    2.9533    0.4290 H   0  0  0  0  0  0  0  0  0  0  0  0
  -12.8382    2.1134    1.7869 H   0  0  0  0  0  0  0  0  0  0  0  0
  1  2  1  0
  2  3  1  0
  3  4  1  0
  4  5  1  0
  5  6  1  0
  6  7  1  0
  7  8  1  6
  7  9  1  0
  9 10  2  0
 10 11  1  0
 11 12  2  0
 10 13  1  0
 13 14  2  0
 14 15  1  0
 15 16  2  0
 15 17  1  0
 17 18  1  0
 18 19  2  0
 19 20  1  0
 20 21  2  0
 21 22  1  0
 22 23  2  0
 21 24  1  0
 24 25  1  0
 25 26  1  0
 26 27  1  0
 27 28  1  0
 28 29  1  0
 29 30  1  0
 30 31  1  0
 31 32  1  0
 32 33  1  0
 33 34  1  0
 34 35  1  0
 35 36  1  0
 36 37  1  0
 37 38  1  0
 38 39  1  0
 39 40  1  0
 40 41  1  0
 40 42  1  0
 40 43  1  0
  4 44  1  0
 44 45  1  0
 45 46  1  0
 46 47  1  0
  7  2  1  0
 16  9  1  0
 23 18  1  0
 47 45  1  0
 11  3  1  0
  1 48  1  0
  1 49  1  0
  1 50  1  0
  2 51  1  6
  3 52  1  0
  5 53  1  0
  5 54  1  0
  6 55  1  0
  6 56  1  0
  8 57  1  0
  8 58  1  0
  8 59  1  0
 13 60  1  0
 14 61  1  0
 16 62  1  0
 17 63  1  0
 19 64  1  0
 20 65  1  0
 22 66  1  0
 23 67  1  0
 24 68  1  0
 25 69  1  0
 25 70  1  0
 26 71  1  0
 26 72  1  0
 28 73  1  0
 28 74  1  0
 29 75  1  0
 29 76  1  0
 31 77  1  0
 31 78  1  0
 32 79  1  0
 32 80  1  0
 34 81  1  0
 34 82  1  0
 35 83  1  0
 35 84  1  0
 37 85  1  0
 37 86  1  0
 38 87  1  0
 38 88  1  0
 44 89  1  0
 44 90  1  0
 45 91  1  0
 46 92  1  0
 46 93  1  0
 47 94  1  0
 47 95  1  0
M  END
>  <Ligand ID>  (1) 
LIG0005520

>  <Ligand>  (1) 
BDBM168148

>  <SMILES>  (1) 
C[C@H]1C2N(CC[C@@]1(C)c1c(C2=O)ccc(c1)Nc1ccc(cc1)NCCOCCOCCOCCOCCOC(F)(F)F)CC1CC1

>  <CID>  (1) 
133081432.0

>  <ChEMBL ID>  (1) 
nan

>  <InChiKey>  (1) 
VYBAULCMYLXTDS-VZVYNOGCSA-N

>  <InChi>  (1) 
InChI=1S/C35H48F3N3O6/c1-25-32-33(42)30-10-9-29(23-31(30)34(25,2)11-13-41(32)24-26-3-4-26)40-28-7-5-27(6-8-28)39-12-14-43-15-16-44-17-18-45-19-20-46-21-22-47-35(36,37)38/h5-10,23,25-26,32,39-40H,3-4,11-22,24H2,1-2H3/t25-,32?,34+/m0/s1

>  <IUPAC Name>  (1) 
(1R,13R)-10-(cyclopropylmethyl)-1,13-dimethyl-4-[4-[2-[2-[2-[2-[2-(trifluoromethoxy)ethoxy]ethoxy]ethoxy]ethoxy]ethylamino]anilino]-10-azatricyclo[7.3.1.02,7]trideca-2(7),3,5-trien-8-one

$$$$
