
     RDKit          3D

 54 57  0  0  0  0  0  0  0  0999 V2000
   -6.6513    3.2286   -3.5525 Cl  0  0  0  0  0  0  0  0  0  0  0  0
   -6.0567    2.1730   -2.2741 C   0  0  0  0  0  0  0  0  0  0  0  0
   -6.5040    0.8675   -2.3005 C   0  0  0  0  0  0  0  0  0  0  0  0
   -6.0726   -0.0075   -1.3257 C   0  0  0  0  0  0  0  0  0  0  0  0
   -5.1940    0.4565   -0.3391 C   0  0  0  0  0  0  0  0  0  0  0  0
   -4.7573    1.7649   -0.3281 C   0  0  0  0  0  0  0  0  0  0  0  0
   -5.1881    2.6460   -1.3048 C   0  0  0  0  0  0  0  0  0  0  0  0
   -4.7840   -0.5485    0.6764 C   0  0  2  0  0  0  0  0  0  0  0  0
   -3.8169   -1.5736    0.1656 C   0  0  0  0  0  0  0  0  0  0  0  0
   -2.5863   -1.0671   -0.3410 N   0  0  0  0  0  0  0  0  0  0  0  0
   -1.7005   -0.4824    0.6244 C   0  0  1  0  0  0  0  0  0  0  0  0
   -1.2971   -1.4043    1.7236 C   0  0  0  0  0  0  0  0  0  0  0  0
   -0.4564   -0.5671    2.7027 C   0  0  0  0  0  0  0  0  0  0  0  0
    0.8615   -0.4150    1.9858 C   0  0  0  0  0  0  0  0  0  0  0  0
    0.7726   -0.1605    0.6380 C   0  0  0  0  0  0  0  0  0  0  0  0
   -0.4791   -0.0151   -0.1225 C   0  0  0  0  0  0  0  0  0  0  0  0
    1.9689   -0.0288   -0.0476 C   0  0  0  0  0  0  0  0  0  0  0  0
    3.2008   -0.1444    0.5770 C   0  0  0  0  0  0  0  0  0  0  0  0
    3.2155   -0.4023    1.9451 C   0  0  0  0  0  0  0  0  0  0  0  0
    2.0457   -0.5421    2.6723 C   0  0  0  0  0  0  0  0  0  0  0  0
    4.4627   -0.0142   -0.1437 C   0  0  0  0  0  0  0  0  0  0  0  0
    5.5724   -0.7278    0.2916 C   0  0  0  0  0  0  0  0  0  0  0  0
    6.7992   -0.6419   -0.3645 C   0  0  0  0  0  0  0  0  0  0  0  0
    6.8886    0.1798   -1.4730 C   0  0  0  0  0  0  0  0  0  0  0  0
    5.8156    0.9048   -1.9393 C   0  0  0  0  0  0  0  0  0  0  0  0
    4.6183    0.7884   -1.2561 C   0  0  0  0  0  0  0  0  0  0  0  0
    8.1826    0.2506   -2.1418 C   0  0  0  0  0  0  0  0  0  0  0  0
    9.1620   -0.4112   -1.7093 O   0  0  0  0  0  0  0  0  0  0  0  0
    8.4050    1.0338   -3.2702 O   0  0  0  0  0  0  0  0  0  0  0  0
   -5.9077   -1.2619    1.1286 O   0  0  0  0  0  0  0  0  0  0  0  0
   -7.1864    0.4847   -3.0555 H   0  0  0  0  0  0  0  0  0  0  0  0
   -6.4185   -1.0341   -1.3393 H   0  0  0  0  0  0  0  0  0  0  0  0
   -4.0821    2.0980    0.4403 H   0  0  0  0  0  0  0  0  0  0  0  0
   -4.8630    3.6937   -1.3288 H   0  0  0  0  0  0  0  0  0  0  0  0
   -4.3491   -0.0396    1.5366 H   0  0  0  0  0  0  0  0  0  0  0  0
   -3.6490   -2.2866    1.0036 H   0  0  0  0  0  0  0  0  0  0  0  0
   -4.3521   -2.2081   -0.6079 H   0  0  0  0  0  0  0  0  0  0  0  0
   -2.7357   -0.3621   -1.0816 H   0  0  0  0  0  0  0  0  0  0  0  0
   -2.2354    0.3734    1.1023 H   0  0  0  0  0  0  0  0  0  0  0  0
   -2.1315   -1.8911    2.2651 H   0  0  0  0  0  0  0  0  0  0  0  0
   -0.6182   -2.1692    1.2998 H   0  0  0  0  0  0  0  0  0  0  0  0
   -0.8934    0.4372    2.7507 H   0  0  0  0  0  0  0  0  0  0  0  0
   -0.3281   -1.0745    3.6706 H   0  0  0  0  0  0  0  0  0  0  0  0
   -0.6186    1.0656   -0.4145 H   0  0  0  0  0  0  0  0  0  0  0  0
   -0.3658   -0.5918   -1.0650 H   0  0  0  0  0  0  0  0  0  0  0  0
    1.9962    0.1724   -1.1093 H   0  0  0  0  0  0  0  0  0  0  0  0
    4.1999   -0.4912    2.4305 H   0  0  0  0  0  0  0  0  0  0  0  0
    2.0593   -0.7422    3.7301 H   0  0  0  0  0  0  0  0  0  0  0  0
    5.5374   -1.3853    1.1627 H   0  0  0  0  0  0  0  0  0  0  0  0
    7.6568   -1.1916   -0.0300 H   0  0  0  0  0  0  0  0  0  0  0  0
    5.9038    1.5535   -2.8229 H   0  0  0  0  0  0  0  0  0  0  0  0
    3.7900    1.3551   -1.6253 H   0  0  0  0  0  0  0  0  0  0  0  0
    9.3389    1.2981   -3.6038 H   0  0  0  0  0  0  0  0  0  0  0  0
   -6.1748   -0.9425    2.0337 H   0  0  0  0  0  0  0  0  0  0  0  0
  1  2  1  0
  2  3  2  0
  3  4  1  0
  4  5  2  0
  5  6  1  0
  6  7  2  0
  5  8  1  0
  8  9  1  0
  9 10  1  0
 10 11  1  0
 11 12  1  0
 12 13  1  0
 13 14  1  0
 14 15  2  0
 15 16  1  0
 15 17  1  0
 17 18  2  0
 18 19  1  0
 19 20  2  0
 18 21  1  0
 21 22  2  0
 22 23  1  0
 23 24  2  0
 24 25  1  0
 25 26  2  0
 24 27  1  0
 27 28  2  0
 27 29  1  0
  8 30  1  0
  7  2  1  0
 16 11  1  0
 26 21  1  0
 20 14  1  0
  3 31  1  0
  4 32  1  0
  6 33  1  0
  7 34  1  0
  8 35  1  1
  9 36  1  0
  9 37  1  0
 10 38  1  0
 11 39  1  1
 12 40  1  0
 12 41  1  0
 13 42  1  0
 13 43  1  0
 16 44  1  0
 16 45  1  0
 17 46  1  0
 19 47  1  0
 20 48  1  0
 22 49  1  0
 23 50  1  0
 25 51  1  0
 26 52  1  0
 29 53  1  0
 30 54  1  0
M  END
>  <Ligand ID>  (1) 
LIG0001337

>  <Ligand>  (1) 
CHEMBL514102

>  <SMILES>  (1) 
Clc1ccc(cc1)[C@H](CN[C@H]1CCc2c(C1)cc(cc2)c1ccc(cc1)C(=O)O)O

>  <CID>  (1) 
24949720.0

>  <ChEMBL ID>  (1) 
nan

>  <InChiKey>  (1) 
LZIMXYHEOIMQGS-ZEQRLZLVSA-N

>  <InChi>  (1) 
InChI=1S/C25H24ClNO3/c26-22-10-7-18(8-11-22)24(28)15-27-23-12-9-17-3-6-20(13-21(17)14-23)16-1-4-19(5-2-16)25(29)30/h1-8,10-11,13,23-24,27-28H,9,12,14-15H2,(H,29,30)/t23-,24-/m0/s1

>  <IUPAC Name>  (1) 
4-[(7S)-7-[[(2R)-2-(4-chlorophenyl)-2-hydroxyethyl]amino]-5,6,7,8-tetrahydronaphthalen-2-yl]benzoic acid

$$$$
