
     RDKit          3D

 41 43  0  0  0  0  0  0  0  0999 V2000
   -1.9469   -2.0862    1.4655 O   0  0  0  0  0  0  0  0  0  0  0  0
   -1.2802   -1.1791    0.8955 C   0  0  0  0  0  0  0  0  0  0  0  0
    0.1757   -1.2461    0.9500 C   0  0  0  0  0  0  0  0  0  0  0  0
    0.8461   -2.2142    1.5698 N   0  0  0  0  0  0  0  0  0  0  0  0
    2.1053   -1.9921    1.4393 O   0  0  0  0  0  0  0  0  0  0  0  0
    2.3318   -0.8992    0.7478 C   0  0  0  0  0  0  0  0  0  0  0  0
    1.1034   -0.3989    0.4202 C   0  0  0  0  0  0  0  0  0  0  0  0
    3.6707   -0.4065    0.4463 C   0  0  0  0  0  0  0  0  0  0  0  0
    4.7531   -1.1241    0.9105 C   0  0  0  0  0  0  0  0  0  0  0  0
    6.0663   -0.7349    0.6745 C   0  0  0  0  0  0  0  0  0  0  0  0
    6.2848    0.4167   -0.0543 C   0  0  0  0  0  0  0  0  0  0  0  0
    5.1969    1.1473   -0.5269 C   0  0  0  0  0  0  0  0  0  0  0  0
    3.9041    0.7313   -0.2736 C   0  0  0  0  0  0  0  0  0  0  0  0
    7.6877    0.8236   -0.3008 C   0  0  0  0  0  0  0  0  0  0  0  0
   -1.9865   -0.1381    0.2291 N   0  0  0  0  0  0  0  0  0  0  0  0
   -3.4186   -0.1282    0.2110 C   0  0  0  0  0  0  0  0  0  0  0  0
   -4.0506    1.0534    0.8923 C   0  0  0  0  0  0  0  0  0  0  0  0
   -5.5205    0.6974    1.0661 C   0  0  0  0  0  0  0  0  0  0  0  0
   -6.1368    0.2437   -0.2264 C   0  0  0  0  0  0  0  0  0  0  0  0
   -5.2274    0.3897   -1.4159 C   0  0  0  0  0  0  0  0  0  0  0  0
   -3.9016   -0.3108   -1.2017 C   0  0  0  0  0  0  0  0  0  0  0  0
    0.9224    0.4832   -0.1410 H   0  0  0  0  0  0  0  0  0  0  0  0
    4.6408   -2.0432    1.4927 H   0  0  0  0  0  0  0  0  0  0  0  0
    6.9057   -1.3251    1.0559 H   0  0  0  0  0  0  0  0  0  0  0  0
    5.4357    2.0388   -1.0905 H   0  0  0  0  0  0  0  0  0  0  0  0
    3.0857    1.3023   -0.6427 H   0  0  0  0  0  0  0  0  0  0  0  0
    8.2355    1.0800    0.6353 H   0  0  0  0  0  0  0  0  0  0  0  0
    7.6902    1.7154   -0.9404 H   0  0  0  0  0  0  0  0  0  0  0  0
    8.2569    0.0402   -0.8591 H   0  0  0  0  0  0  0  0  0  0  0  0
   -1.4468    0.6205   -0.2477 H   0  0  0  0  0  0  0  0  0  0  0  0
   -3.7699   -1.0344    0.7831 H   0  0  0  0  0  0  0  0  0  0  0  0
   -3.9292    1.9926    0.3338 H   0  0  0  0  0  0  0  0  0  0  0  0
   -3.6261    1.0811    1.9175 H   0  0  0  0  0  0  0  0  0  0  0  0
   -5.5303   -0.1722    1.7641 H   0  0  0  0  0  0  0  0  0  0  0  0
   -6.0813    1.5083    1.5666 H   0  0  0  0  0  0  0  0  0  0  0  0
   -7.0145    0.9093   -0.4321 H   0  0  0  0  0  0  0  0  0  0  0  0
   -6.4723   -0.8132   -0.1931 H   0  0  0  0  0  0  0  0  0  0  0  0
   -5.7159   -0.1581   -2.2576 H   0  0  0  0  0  0  0  0  0  0  0  0
   -5.0513    1.4273   -1.7125 H   0  0  0  0  0  0  0  0  0  0  0  0
   -4.0119   -1.3965   -1.4323 H   0  0  0  0  0  0  0  0  0  0  0  0
   -3.1802    0.0989   -1.9303 H   0  0  0  0  0  0  0  0  0  0  0  0
  1  2  2  0
  2  3  1  0
  3  4  2  0
  4  5  1  0
  5  6  1  0
  6  7  2  0
  6  8  1  0
  8  9  2  0
  9 10  1  0
 10 11  2  0
 11 12  1  0
 12 13  2  0
 11 14  1  0
  2 15  1  0
 15 16  1  0
 16 17  1  0
 17 18  1  0
 18 19  1  0
 19 20  1  0
 20 21  1  0
  7  3  1  0
 13  8  1  0
 21 16  1  0
  7 22  1  0
  9 23  1  0
 10 24  1  0
 12 25  1  0
 13 26  1  0
 14 27  1  0
 14 28  1  0
 14 29  1  0
 15 30  1  0
 16 31  1  0
 17 32  1  0
 17 33  1  0
 18 34  1  0
 18 35  1  0
 19 36  1  0
 19 37  1  0
 20 38  1  0
 20 39  1  0
 21 40  1  0
 21 41  1  0
M  END
>  <Ligand ID>  (1) 
LIG0003805

>  <Ligand>  (1) 
BAS 09529837

>  <SMILES>  (1) 
O=C(c1noc(c1)c1ccc(cc1)C)NC1CCCCC1

>  <CID>  (1) 
1093785.0

>  <ChEMBL ID>  (1) 
nan

>  <InChiKey>  (1) 
VOJTYLRKIQUAGT-UHFFFAOYSA-N

>  <InChi>  (1) 
InChI=1S/C17H20N2O2/c1-12-7-9-13(10-8-12)16-11-15(19-21-16)17(20)18-14-5-3-2-4-6-14/h7-11,14H,2-6H2,1H3,(H,18,20)

>  <IUPAC Name>  (1) 
N-cyclohexyl-5-(4-methylphenyl)-1,2-oxazole-3-carboxamide

$$$$
