
     RDKit          3D

 37 40  0  0  0  0  0  0  0  0999 V2000
   -3.4829   -1.4109    1.0881 O   0  0  0  0  0  0  0  0  0  0  0  0
   -3.6882   -1.0109   -0.2170 C   0  0  0  0  0  0  0  0  0  0  0  0
   -2.6344   -0.0241   -0.6823 C   0  0  1  0  0  0  0  0  0  0  0  0
   -2.6189    1.2150    0.1501 C   0  0  0  0  0  0  0  0  0  0  0  0
   -1.3495    1.8160    0.3189 N   0  0  0  0  0  0  0  0  0  0  0  0
   -1.0593    2.6791   -0.7853 C   0  0  0  0  0  0  0  0  0  0  0  0
   -0.2795    0.9790    0.7454 C   0  0  1  0  0  0  0  0  0  0  0  0
   -0.3008   -0.2699   -0.0415 C   0  0  0  0  0  0  0  0  0  0  0  0
   -1.3331   -0.7451   -0.6900 C   0  0  0  0  0  0  0  0  0  0  0  0
    0.9411   -1.0411   -0.0943 C   0  0  0  0  0  0  0  0  0  0  0  0
    0.9988   -2.3621   -0.4705 C   0  0  0  0  0  0  0  0  0  0  0  0
    2.2369   -2.9964   -0.4874 C   0  0  0  0  0  0  0  0  0  0  0  0
    3.4061   -2.3284   -0.1346 C   0  0  0  0  0  0  0  0  0  0  0  0
    3.3359   -0.9963    0.2435 C   0  0  0  0  0  0  0  0  0  0  0  0
    2.1131   -0.4080    0.2489 C   0  0  0  0  0  0  0  0  0  0  0  0
    2.2140    0.8854    0.6416 C   0  0  0  0  0  0  0  0  0  0  0  0
    1.0198    1.7209    0.7264 C   0  0  0  0  0  0  0  0  0  0  0  0
    3.5514    1.1138    0.8907 C   0  0  0  0  0  0  0  0  0  0  0  0
    4.2133   -0.0575    0.6379 N   0  0  0  0  0  0  0  0  0  0  0  0
   -2.9410   -2.2518    1.0604 H   0  0  0  0  0  0  0  0  0  0  0  0
   -4.6444   -0.4493   -0.2430 H   0  0  0  0  0  0  0  0  0  0  0  0
   -3.7406   -1.8504   -0.9329 H   0  0  0  0  0  0  0  0  0  0  0  0
   -2.8674    0.2173   -1.7410 H   0  0  0  0  0  0  0  0  0  0  0  0
   -3.2938    1.9629   -0.3165 H   0  0  0  0  0  0  0  0  0  0  0  0
   -3.0924    0.9676    1.1325 H   0  0  0  0  0  0  0  0  0  0  0  0
   -2.0355    3.0103   -1.2120 H   0  0  0  0  0  0  0  0  0  0  0  0
   -0.5396    3.6224   -0.5275 H   0  0  0  0  0  0  0  0  0  0  0  0
   -0.5713    2.1413   -1.6457 H   0  0  0  0  0  0  0  0  0  0  0  0
   -0.4749    0.7051    1.8126 H   0  0  0  0  0  0  0  0  0  0  0  0
   -1.3223   -1.6722   -1.2713 H   0  0  0  0  0  0  0  0  0  0  0  0
    0.1096   -2.9040   -0.7444 H   0  0  0  0  0  0  0  0  0  0  0  0
    2.3250   -4.0272   -0.7753 H   0  0  0  0  0  0  0  0  0  0  0  0
    4.3678   -2.8238   -0.1486 H   0  0  0  0  0  0  0  0  0  0  0  0
    1.1216    2.3467    1.6415 H   0  0  0  0  0  0  0  0  0  0  0  0
    1.0711    2.4361   -0.1288 H   0  0  0  0  0  0  0  0  0  0  0  0
    4.0160    2.0305    1.2225 H   0  0  0  0  0  0  0  0  0  0  0  0
    5.2282   -0.2201    0.7286 H   0  0  0  0  0  0  0  0  0  0  0  0
  1  2  1  0
  2  3  1  0
  3  4  1  0
  4  5  1  0
  5  6  1  0
  5  7  1  0
  7  8  1  0
  8  9  2  0
  8 10  1  0
 10 11  2  0
 11 12  1  0
 12 13  2  0
 13 14  1  0
 14 15  2  0
 15 16  1  0
 16 17  1  0
 16 18  2  0
 18 19  1  0
  9  3  1  0
 15 10  1  0
 17  7  1  0
 19 14  1  0
  1 20  1  0
  2 21  1  0
  2 22  1  0
  3 23  1  6
  4 24  1  0
  4 25  1  0
  6 26  1  0
  6 27  1  0
  6 28  1  0
  7 29  1  1
  9 30  1  0
 11 31  1  0
 12 32  1  0
 13 33  1  0
 17 34  1  0
 17 35  1  0
 18 36  1  0
 19 37  1  0
M  END
>  <Ligand ID>  (1) 
LIG0004570

>  <Ligand>  (1) 
lysergol

>  <SMILES>  (1) 
OC[C@H]1CN(C)[C@H]2C(=C1)c1cccc3c1c(C2)c[nH]3

>  <CID>  (1) 
14987.0

>  <ChEMBL ID>  (1) 
nan

>  <InChiKey>  (1) 
BIXJFIJYBLJTMK-MEBBXXQBSA-N

>  <InChi>  (1) 
InChI=1S/C16H18N2O/c1-18-8-10(9-19)5-13-12-3-2-4-14-16(12)11(7-17-14)6-15(13)18/h2-5,7,10,15,17,19H,6,8-9H2,1H3/t10-,15-/m1/s1

>  <IUPAC Name>  (1) 
[(6aR,9R)-7-methyl-6,6a,8,9-tetrahydro-4H-indolo[4,3-fg]quinolin-9-yl]methanol

$$$$
