
     RDKit          3D

 57 61  0  0  0  0  0  0  0  0999 V2000
   -6.8382    2.3846    2.3603 C   0  0  0  0  0  0  0  0  0  0  0  0
   -6.4726    2.5830    0.9168 C   0  0  0  0  0  0  0  0  0  0  0  0
   -5.7046    1.4735    0.3811 N   0  0  0  0  0  0  0  0  0  0  0  0
   -4.3684    1.3893    0.4044 C   0  0  0  0  0  0  0  0  0  0  0  0
   -3.3714    2.1991    0.8734 C   0  0  0  0  0  0  0  0  0  0  0  0
   -2.0416    1.8639    0.7665 C   0  0  0  0  0  0  0  0  0  0  0  0
   -1.6362    0.6747    0.1714 C   0  0  0  0  0  0  0  0  0  0  0  0
   -2.6391   -0.1354   -0.2979 C   0  0  0  0  0  0  0  0  0  0  0  0
   -3.9928    0.2019   -0.1912 C   0  0  0  0  0  0  0  0  0  0  0  0
   -5.1536   -0.4503   -0.5868 C   0  0  0  0  0  0  0  0  0  0  0  0
   -6.2204    0.3631   -0.2193 C   0  0  0  0  0  0  0  0  0  0  0  0
   -7.5278   -0.0237   -0.4849 C   0  0  0  0  0  0  0  0  0  0  0  0
   -7.7281   -1.2337   -1.1211 C   0  0  0  0  0  0  0  0  0  0  0  0
   -6.6907   -2.0633   -1.4984 C   0  0  0  0  0  0  0  0  0  0  0  0
   -5.3869   -1.6666   -1.2279 C   0  0  0  0  0  0  0  0  0  0  0  0
   -0.2561    0.4005    0.0987 N   0  0  0  0  0  0  0  0  0  0  0  0
    0.3361   -0.7514   -0.4677 C   0  0  0  0  0  0  0  0  0  0  0  0
   -0.3158   -1.6748   -0.9781 O   0  0  0  0  0  0  0  0  0  0  0  0
    1.8252   -0.8928   -0.4663 C   0  0  0  0  0  0  0  0  0  0  0  0
    2.2532   -2.1744   -1.1076 C   0  0  0  0  0  0  0  0  0  0  0  0
    3.7423   -2.2423   -1.0683 C   0  0  0  0  0  0  0  0  0  0  0  0
    4.4818   -3.2219   -1.5378 O   0  0  0  0  0  0  0  0  0  0  0  0
    5.7427   -2.9620   -1.3403 N   0  0  0  0  0  0  0  0  0  0  0  0
    5.8648   -1.7619   -0.7137 C   0  0  0  0  0  0  0  0  0  0  0  0
    4.6057   -1.3229   -0.5497 N   0  0  0  0  0  0  0  0  0  0  0  0
    7.1300   -1.0765   -0.2960 C   0  0  0  0  0  0  0  0  0  0  0  0
    7.2159    0.2652   -0.9431 C   0  0  0  0  0  0  0  0  0  0  0  0
    7.8781    1.3102   -0.0830 C   0  0  0  0  0  0  0  0  0  0  0  0
    7.2665    1.4998    1.1379 O   0  0  0  0  0  0  0  0  0  0  0  0
    6.5335    0.3985    1.5619 C   0  0  0  0  0  0  0  0  0  0  0  0
    7.1854   -0.9011    1.2040 C   0  0  0  0  0  0  0  0  0  0  0  0
   -6.8772    1.2949    2.5311 H   0  0  0  0  0  0  0  0  0  0  0  0
   -7.8736    2.8159    2.4906 H   0  0  0  0  0  0  0  0  0  0  0  0
   -6.1818    2.9271    3.0701 H   0  0  0  0  0  0  0  0  0  0  0  0
   -5.9070    3.5371    0.7825 H   0  0  0  0  0  0  0  0  0  0  0  0
   -7.3688    2.6933    0.2594 H   0  0  0  0  0  0  0  0  0  0  0  0
   -3.6239    3.1204    1.3375 H   0  0  0  0  0  0  0  0  0  0  0  0
   -1.2986    2.5688    1.1685 H   0  0  0  0  0  0  0  0  0  0  0  0
   -2.4383   -1.0746   -0.7739 H   0  0  0  0  0  0  0  0  0  0  0  0
   -8.3573    0.6232   -0.1917 H   0  0  0  0  0  0  0  0  0  0  0  0
   -8.7407   -1.5591   -1.3401 H   0  0  0  0  0  0  0  0  0  0  0  0
   -6.8690   -3.0182   -2.0014 H   0  0  0  0  0  0  0  0  0  0  0  0
   -4.5286   -2.2505   -1.4870 H   0  0  0  0  0  0  0  0  0  0  0  0
    0.4049    1.1082    0.4979 H   0  0  0  0  0  0  0  0  0  0  0  0
    2.1828   -0.9190    0.5808 H   0  0  0  0  0  0  0  0  0  0  0  0
    2.3058   -0.0486   -0.9937 H   0  0  0  0  0  0  0  0  0  0  0  0
    1.7847   -3.0662   -0.6987 H   0  0  0  0  0  0  0  0  0  0  0  0
    1.9260   -2.1319   -2.1861 H   0  0  0  0  0  0  0  0  0  0  0  0
    7.9863   -1.6938   -0.5725 H   0  0  0  0  0  0  0  0  0  0  0  0
    7.8020    0.2162   -1.8836 H   0  0  0  0  0  0  0  0  0  0  0  0
    6.2054    0.6481   -1.2430 H   0  0  0  0  0  0  0  0  0  0  0  0
    8.9684    1.1126   -0.0064 H   0  0  0  0  0  0  0  0  0  0  0  0
    7.7820    2.2814   -0.6295 H   0  0  0  0  0  0  0  0  0  0  0  0
    6.5272    0.4433    2.6851 H   0  0  0  0  0  0  0  0  0  0  0  0
    5.4765    0.4503    1.2554 H   0  0  0  0  0  0  0  0  0  0  0  0
    6.7367   -1.7234    1.7615 H   0  0  0  0  0  0  0  0  0  0  0  0
    8.2594   -0.8079    1.4826 H   0  0  0  0  0  0  0  0  0  0  0  0
  1  2  1  0
  2  3  1  0
  3  4  1  0
  4  5  2  0
  5  6  1  0
  6  7  2  0
  7  8  1  0
  8  9  2  0
  9 10  1  0
 10 11  2  0
 11 12  1  0
 12 13  2  0
 13 14  1  0
 14 15  2  0
  7 16  1  0
 16 17  1  0
 17 18  2  0
 17 19  1  0
 19 20  1  0
 20 21  1  0
 21 22  1  0
 22 23  1  0
 23 24  2  0
 24 25  1  0
 24 26  1  0
 26 27  1  0
 27 28  1  0
 28 29  1  0
 29 30  1  0
 30 31  1  0
 11  3  1  0
 25 21  2  0
 31 26  1  0
  9  4  1  0
 15 10  1  0
  1 32  1  0
  1 33  1  0
  1 34  1  0
  2 35  1  0
  2 36  1  0
  5 37  1  0
  6 38  1  0
  8 39  1  0
 12 40  1  0
 13 41  1  0
 14 42  1  0
 15 43  1  0
 16 44  1  0
 19 45  1  0
 19 46  1  0
 20 47  1  0
 20 48  1  0
 26 49  1  0
 27 50  1  0
 27 51  1  0
 28 52  1  0
 28 53  1  0
 30 54  1  0
 30 55  1  0
 31 56  1  0
 31 57  1  0
M  END
>  <Ligand ID>  (1) 
LIG0001917

>  <Ligand>  (1) 
CHEMBL500655

>  <SMILES>  (1) 
CCn1c2ccc(cc2c2c1cccc2)NC(=O)CCc1onc(n1)C1CCOCC1

>  <CID>  (1) 
25033939.0

>  <ChEMBL ID>  (1) 
nan

>  <InChiKey>  (1) 
BIBAWIYLLKCXHN-UHFFFAOYSA-N

>  <InChi>  (1) 
InChI=1S/C24H26N4O3/c1-2-28-20-6-4-3-5-18(20)19-15-17(7-8-21(19)28)25-22(29)9-10-23-26-24(27-31-23)16-11-13-30-14-12-16/h3-8,15-16H,2,9-14H2,1H3,(H,25,29)

>  <IUPAC Name>  (1) 
N-(9-ethylcarbazol-3-yl)-3-[3-(oxan-4-yl)-1,2,4-oxadiazol-5-yl]propanamide

$$$$
