
     RDKit          3D

 33 35  0  0  0  0  0  0  0  0999 V2000
   -5.4105   -0.1564    0.4397 C   0  0  0  0  0  0  0  0  0  0  0  0
   -4.1443    0.1268   -0.2521 N   0  0  0  0  0  0  0  0  0  0  0  0
   -2.9127   -0.0700    0.4357 C   0  0  0  0  0  0  0  0  0  0  0  0
   -2.9421   -0.4834    1.6247 O   0  0  0  0  0  0  0  0  0  0  0  0
   -1.6863    0.2215   -0.2840 C   0  0  0  0  0  0  0  0  0  0  0  0
   -1.6758    1.1169   -1.3337 C   0  0  0  0  0  0  0  0  0  0  0  0
   -0.4989    1.4074   -2.0360 C   0  0  0  0  0  0  0  0  0  0  0  0
    0.6600    0.7716   -1.6495 C   0  0  0  0  0  0  0  0  0  0  0  0
    0.6442   -0.1336   -0.5862 C   0  0  0  0  0  0  0  0  0  0  0  0
   -0.5145   -0.4213    0.1067 C   0  0  0  0  0  0  0  0  0  0  0  0
   -0.2250   -1.4056    1.1705 C   0  0  0  0  0  0  0  0  0  0  0  0
    1.2619   -1.1260    1.4202 C   0  0  0  0  0  0  0  0  0  0  0  0
    1.7280   -0.9225    0.0015 C   0  0  0  0  0  0  0  0  0  0  0  0
    3.0533   -0.2872   -0.1150 C   0  0  0  0  0  0  0  0  0  0  0  0
    4.0272   -0.4749   -1.0392 N   0  0  0  0  0  0  0  0  0  0  0  0
    5.0613    0.3068   -0.7722 C   0  0  0  0  0  0  0  0  0  0  0  0
    4.7545    1.0394    0.3763 C   0  0  0  0  0  0  0  0  0  0  0  0
    3.5196    0.6413    0.7388 N   0  0  0  0  0  0  0  0  0  0  0  0
   -6.1523   -0.6366   -0.2292 H   0  0  0  0  0  0  0  0  0  0  0  0
   -5.8429    0.7441    0.9156 H   0  0  0  0  0  0  0  0  0  0  0  0
   -5.1770   -0.8628    1.2603 H   0  0  0  0  0  0  0  0  0  0  0  0
   -4.1623    0.4692   -1.2463 H   0  0  0  0  0  0  0  0  0  0  0  0
   -2.5528    1.6391   -1.6734 H   0  0  0  0  0  0  0  0  0  0  0  0
   -0.5107    2.1165   -2.8615 H   0  0  0  0  0  0  0  0  0  0  0  0
    1.6015    0.9481   -2.1458 H   0  0  0  0  0  0  0  0  0  0  0  0
   -0.3361   -2.4406    0.8374 H   0  0  0  0  0  0  0  0  0  0  0  0
   -0.7440   -1.2167    2.1219 H   0  0  0  0  0  0  0  0  0  0  0  0
    1.7558   -1.9854    1.9108 H   0  0  0  0  0  0  0  0  0  0  0  0
    1.3045   -0.1856    1.9998 H   0  0  0  0  0  0  0  0  0  0  0  0
    1.7317   -1.9095   -0.5013 H   0  0  0  0  0  0  0  0  0  0  0  0
    5.9907    0.3644   -1.3521 H   0  0  0  0  0  0  0  0  0  0  0  0
    5.3782    1.7813    0.8810 H   0  0  0  0  0  0  0  0  0  0  0  0
    3.0157    1.0236    1.5780 H   0  0  0  0  0  0  0  0  0  0  0  0
  1  2  1  0
  2  3  1  0
  3  4  2  0
  3  5  1  0
  5  6  2  0
  6  7  1  0
  7  8  2  0
  8  9  1  0
  9 10  2  0
 10 11  1  0
 11 12  1  0
 12 13  1  0
 13 14  1  0
 14 15  2  0
 15 16  1  0
 16 17  2  0
 17 18  1  0
 10  5  1  0
 18 14  1  0
 13  9  1  0
  1 19  1  0
  1 20  1  0
  1 21  1  0
  2 22  1  0
  6 23  1  0
  7 24  1  0
  8 25  1  0
 11 26  1  0
 11 27  1  0
 12 28  1  0
 12 29  1  0
 13 30  1  0
 16 31  1  0
 17 32  1  0
 18 33  1  0
M  END
>  <Ligand ID>  (1) 
LIG0001986

>  <Ligand>  (1) 
CHEMBL257976

>  <SMILES>  (1) 
CNC(=O)c1cccc2c1CCC2c1ncc[nH]1

>  <CID>  (1) 
44449276.0

>  <ChEMBL ID>  (1) 
nan

>  <InChiKey>  (1) 
SIMGMPZLDHYMNW-UHFFFAOYSA-N

>  <InChi>  (1) 
InChI=1S/C14H15N3O/c1-15-14(18)12-4-2-3-9-10(12)5-6-11(9)13-16-7-8-17-13/h2-4,7-8,11H,5-6H2,1H3,(H,15,18)(H,16,17)

>  <IUPAC Name>  (1) 
1-(1H-imidazol-2-yl)-N-methyl-2,3-dihydro-1H-indene-4-carboxamide

$$$$
