
     RDKit          3D

 20 19  0  0  0  0  0  0  0  0999 V2000
    2.9165   -0.0283    0.1392 C   0  0  0  0  0  0  0  0  0  0  0  0
    1.4932   -0.1018    0.5797 C   0  0  0  0  0  0  0  0  0  0  0  0
    1.1954   -0.3490    1.7367 O   0  0  0  0  0  0  0  0  0  0  0  0
    0.4482    0.1428   -0.4679 C   0  0  0  0  0  0  0  0  0  0  0  0
   -0.9402    0.0449    0.0824 C   0  0  0  0  0  0  0  0  0  0  0  0
   -1.1885    1.2793    1.4081 S   0  0  0  0  0  0  0  0  0  0  0  0
   -1.2790   -1.3430    0.5754 C   0  0  0  0  0  0  0  0  0  0  0  0
   -1.8608    0.4816   -1.0432 C   0  0  0  0  0  0  0  0  0  0  0  0
    3.0370   -0.3147   -0.9317 H   0  0  0  0  0  0  0  0  0  0  0  0
    3.2841    1.0244    0.2001 H   0  0  0  0  0  0  0  0  0  0  0  0
    3.5576   -0.6832    0.7673 H   0  0  0  0  0  0  0  0  0  0  0  0
    0.5842   -0.6620   -1.2116 H   0  0  0  0  0  0  0  0  0  0  0  0
    0.5540    1.1638   -0.8873 H   0  0  0  0  0  0  0  0  0  0  0  0
   -1.4194    2.5493    0.8756 H   0  0  0  0  0  0  0  0  0  0  0  0
   -0.6924   -2.1381    0.0742 H   0  0  0  0  0  0  0  0  0  0  0  0
   -2.3768   -1.5066    0.4664 H   0  0  0  0  0  0  0  0  0  0  0  0
   -1.0471   -1.4310    1.6500 H   0  0  0  0  0  0  0  0  0  0  0  0
   -1.4935    0.1038   -2.0301 H   0  0  0  0  0  0  0  0  0  0  0  0
   -2.8981    0.1700   -0.8814 H   0  0  0  0  0  0  0  0  0  0  0  0
   -1.8746    1.5978   -1.1017 H   0  0  0  0  0  0  0  0  0  0  0  0
  1  2  1  0
  2  3  2  0
  2  4  1  0
  4  5  1  0
  5  6  1  0
  5  7  1  0
  5  8  1  0
  1  9  1  0
  1 10  1  0
  1 11  1  0
  4 12  1  0
  4 13  1  0
  6 14  1  0
  7 15  1  0
  7 16  1  0
  7 17  1  0
  8 18  1  0
  8 19  1  0
  8 20  1  0
M  END
>  <Ligand ID>  (1) 
LIG0002051

>  <Ligand>  (1) 
4-Mercapto-4-methylpentan-2-one

>  <SMILES>  (1) 
CC(=O)CC(S)(C)C

>  <CID>  (1) 
88290.0

>  <ChEMBL ID>  (1) 
nan

>  <InChiKey>  (1) 
QRNZMFDCKKEPSX-UHFFFAOYSA-N

>  <InChi>  (1) 
InChI=1S/C6H12OS/c1-5(7)4-6(2,3)8/h8H,4H2,1-3H3

>  <IUPAC Name>  (1) 
4-methyl-4-sulfanylpentan-2-one

$$$$
