
     RDKit          3D

 47 48  0  0  0  0  0  0  0  0999 V2000
    8.1900   -0.7002   -1.5031 C   0  0  0  0  0  0  0  0  0  0  0  0
    6.8851   -1.4797   -1.6669 C   0  0  0  0  0  0  0  0  0  0  0  0
    6.0233   -1.0123   -0.7065 O   0  0  0  0  0  0  0  0  0  0  0  0
    4.7990   -1.6210   -0.7261 N   0  0  0  0  0  0  0  0  0  0  0  0
    3.6400   -0.9420   -0.2351 C   0  0  0  0  0  0  0  0  0  0  0  0
    2.3845   -1.5252   -0.2384 C   0  0  0  0  0  0  0  0  0  0  0  0
    1.3057   -0.8076    0.2533 C   0  0  0  0  0  0  0  0  0  0  0  0
    1.4851    0.4429    0.7274 N   0  0  0  0  0  0  0  0  0  0  0  0
    2.7201    1.0247    0.7339 C   0  0  0  0  0  0  0  0  0  0  0  0
    2.8787    2.1887    1.1767 O   0  0  0  0  0  0  0  0  0  0  0  0
    3.7694    0.3084    0.2482 N   0  0  0  0  0  0  0  0  0  0  0  0
    0.4061    1.2490    1.2550 C   0  0  2  0  0  0  0  0  0  0  0  0
   -0.6912    0.4542    1.5624 O   0  0  0  0  0  0  0  0  0  0  0  0
   -1.8138    1.2393    1.5350 C   0  0  1  0  0  0  0  0  0  0  0  0
   -1.4655    2.5733    0.9327 C   0  0  2  0  0  0  0  0  0  0  0  0
   -0.1369    2.2517    0.2735 C   0  0  1  0  0  0  0  0  0  0  0  0
    0.6068    3.4232    0.2334 O   0  0  0  0  0  0  0  0  0  0  0  0
   -1.2528    3.4662    1.9803 O   0  0  0  0  0  0  0  0  0  0  0  0
   -2.8978    0.6020    0.6921 C   0  0  0  0  0  0  0  0  0  0  0  0
   -3.2263   -0.6381    1.2347 O   0  0  0  0  0  0  0  0  0  0  0  0
   -4.4300   -1.3798    0.3254 P   0  0  0  0  0  0  0  0  0  0  0  0
   -4.7962   -2.6740    1.0312 O   0  0  0  0  0  0  0  0  0  0  0  0
   -5.7935   -0.3798    0.3311 O   0  0  0  0  0  0  0  0  0  0  0  0
   -7.0378   -0.9815   -0.6259 P   0  0  0  0  0  0  0  0  0  0  0  0
   -6.8204   -0.6308   -2.0924 O   0  0  0  0  0  0  0  0  0  0  0  0
   -7.1056   -2.6618   -0.5248 O   0  0  0  0  0  0  0  0  0  0  0  0
   -8.5192   -0.3032   -0.1558 O   0  0  0  0  0  0  0  0  0  0  0  0
   -3.8843   -1.6931   -1.2297 O   0  0  0  0  0  0  0  0  0  0  0  0
    8.3386   -0.3884   -0.4453 H   0  0  0  0  0  0  0  0  0  0  0  0
    9.0449   -1.3393   -1.7522 H   0  0  0  0  0  0  0  0  0  0  0  0
    8.1408    0.2505   -2.0943 H   0  0  0  0  0  0  0  0  0  0  0  0
    6.4752   -1.2465   -2.6496 H   0  0  0  0  0  0  0  0  0  0  0  0
    7.0838   -2.5614   -1.6271 H   0  0  0  0  0  0  0  0  0  0  0  0
    4.6842   -2.5956   -1.1004 H   0  0  0  0  0  0  0  0  0  0  0  0
    2.2640   -2.5320   -0.6245 H   0  0  0  0  0  0  0  0  0  0  0  0
    0.3014   -1.2349    0.2667 H   0  0  0  0  0  0  0  0  0  0  0  0
    0.6810    1.7852    2.1895 H   0  0  0  0  0  0  0  0  0  0  0  0
   -2.1463    1.3636    2.5910 H   0  0  0  0  0  0  0  0  0  0  0  0
   -2.2278    2.9342    0.2168 H   0  0  0  0  0  0  0  0  0  0  0  0
   -0.2682    1.8207   -0.7298 H   0  0  0  0  0  0  0  0  0  0  0  0
    0.6404    3.8146    1.1399 H   0  0  0  0  0  0  0  0  0  0  0  0
   -1.4281    3.0583    2.8656 H   0  0  0  0  0  0  0  0  0  0  0  0
   -2.4311    0.3844   -0.2980 H   0  0  0  0  0  0  0  0  0  0  0  0
   -3.7649    1.2460    0.5507 H   0  0  0  0  0  0  0  0  0  0  0  0
   -7.6161   -2.9308    0.2708 H   0  0  0  0  0  0  0  0  0  0  0  0
   -8.3391    0.4019    0.5148 H   0  0  0  0  0  0  0  0  0  0  0  0
   -4.6553   -2.0239   -1.7707 H   0  0  0  0  0  0  0  0  0  0  0  0
  1  2  1  0
  2  3  1  0
  3  4  1  0
  4  5  1  0
  5  6  1  0
  6  7  2  0
  7  8  1  0
  8  9  1  0
  9 10  2  0
  9 11  1  0
  8 12  1  0
 12 13  1  0
 13 14  1  0
 14 15  1  0
 15 16  1  0
 16 17  1  0
 15 18  1  0
 14 19  1  0
 19 20  1  0
 20 21  1  0
 21 22  2  0
 21 23  1  0
 23 24  1  0
 24 25  2  0
 24 26  1  0
 24 27  1  0
 21 28  1  0
 11  5  2  0
 16 12  1  0
  1 29  1  0
  1 30  1  0
  1 31  1  0
  2 32  1  0
  2 33  1  0
  4 34  1  0
  6 35  1  0
  7 36  1  0
 12 37  1  1
 14 38  1  1
 15 39  1  6
 16 40  1  6
 17 41  1  0
 18 42  1  0
 19 43  1  0
 19 44  1  0
 26 45  1  0
 27 46  1  0
 28 47  1  0
M  END
>  <Ligand ID>  (1) 
LIG0004495

>  <Ligand>  (1) 
CHEMBL1084295

>  <SMILES>  (1) 
CCONc1ccn(c(=O)n1)[C@@H]1O[C@@H]([C@H]([C@H]1O)O)COP(=O)(OP(=O)(O)O)O

>  <CID>  (1) 
46831384.0

>  <ChEMBL ID>  (1) 
nan

>  <InChiKey>  (1) 
GIRDCYBYUOKKAL-PEBGCTIMSA-N

>  <InChi>  (1) 
InChI=1S/C11H19N3O12P2/c1-2-23-13-7-3-4-14(11(17)12-7)10-9(16)8(15)6(25-10)5-24-28(21,22)26-27(18,19)20/h3-4,6,8-10,15-16H,2,5H2,1H3,(H,21,22)(H,12,13,17)(H2,18,19,20)/t6-,8-,9-,10-/m1/s1

>  <IUPAC Name>  (1) 
[(2R,3S,4R,5R)-5-[4-(ethoxyamino)-2-oxopyrimidin-1-yl]-3,4-dihydroxyoxolan-2-yl]methyl phosphono hydrogen phosphate

$$$$
