
     RDKit          3D

 32 31  0  0  0  0  0  0  0  0999 V2000
   -5.5466    2.0368    0.5396 O   0  0  0  0  0  0  0  0  0  0  0  0
   -4.4460    1.2927    0.1019 C   0  0  0  0  0  0  0  0  0  0  0  0
   -3.6300    1.8806   -0.6422 O   0  0  0  0  0  0  0  0  0  0  0  0
   -4.3428   -0.1079    0.5508 C   0  0  0  0  0  0  0  0  0  0  0  0
   -3.0828   -0.7264    0.0202 C   0  0  0  0  0  0  0  0  0  0  0  0
   -1.8166   -0.0616    0.4786 C   0  0  0  0  0  0  0  0  0  0  0  0
   -0.6696   -0.8117   -0.1502 C   0  0  0  0  0  0  0  0  0  0  0  0
    0.6758   -0.2113    0.2559 C   0  0  0  0  0  0  0  0  0  0  0  0
    1.7043   -1.0415   -0.4290 C   0  0  0  0  0  0  0  0  0  0  0  0
    3.1308   -0.6544   -0.1900 C   0  0  0  0  0  0  0  0  0  0  0  0
    3.5146    0.7202   -0.6043 C   0  0  0  0  0  0  0  0  0  0  0  0
    4.9710    0.8970   -0.2787 C   0  0  0  0  0  0  0  0  0  0  0  0
    5.5720    1.9891   -0.5273 O   0  0  0  0  0  0  0  0  0  0  0  0
    5.7236   -0.1139    0.3036 O   0  0  0  0  0  0  0  0  0  0  0  0
   -6.0085    2.7340   -0.0644 H   0  0  0  0  0  0  0  0  0  0  0  0
   -5.2111   -0.7109    0.2083 H   0  0  0  0  0  0  0  0  0  0  0  0
   -4.3941   -0.1601    1.6668 H   0  0  0  0  0  0  0  0  0  0  0  0
   -3.1093   -0.7145   -1.1029 H   0  0  0  0  0  0  0  0  0  0  0  0
   -3.0671   -1.7945    0.3817 H   0  0  0  0  0  0  0  0  0  0  0  0
   -1.7393   -0.3000    1.5823 H   0  0  0  0  0  0  0  0  0  0  0  0
   -1.7613    1.0123    0.3609 H   0  0  0  0  0  0  0  0  0  0  0  0
   -0.6985   -0.7842   -1.2560 H   0  0  0  0  0  0  0  0  0  0  0  0
   -0.6546   -1.8648    0.1602 H   0  0  0  0  0  0  0  0  0  0  0  0
    0.7480    0.8418   -0.0997 H   0  0  0  0  0  0  0  0  0  0  0  0
    0.7847   -0.1955    1.3523 H   0  0  0  0  0  0  0  0  0  0  0  0
    1.4575   -1.1335   -1.5015 H   0  0  0  0  0  0  0  0  0  0  0  0
    1.6019   -2.0796   -0.0046 H   0  0  0  0  0  0  0  0  0  0  0  0
    3.4364   -0.8133    0.8601 H   0  0  0  0  0  0  0  0  0  0  0  0
    3.7429   -1.3634   -0.8075 H   0  0  0  0  0  0  0  0  0  0  0  0
    3.0016    1.4854    0.0248 H   0  0  0  0  0  0  0  0  0  0  0  0
    3.3974    0.9383   -1.6659 H   0  0  0  0  0  0  0  0  0  0  0  0
    6.7158   -0.1853    0.0568 H   0  0  0  0  0  0  0  0  0  0  0  0
  1  2  1  0
  2  3  2  0
  2  4  1  0
  4  5  1  0
  5  6  1  0
  6  7  1  0
  7  8  1  0
  8  9  1  0
  9 10  1  0
 10 11  1  0
 11 12  1  0
 12 13  2  0
 12 14  1  0
  1 15  1  0
  4 16  1  0
  4 17  1  0
  5 18  1  0
  5 19  1  0
  6 20  1  0
  6 21  1  0
  7 22  1  0
  7 23  1  0
  8 24  1  0
  8 25  1  0
  9 26  1  0
  9 27  1  0
 10 28  1  0
 10 29  1  0
 11 30  1  0
 11 31  1  0
 14 32  1  0
M  END
>  <Ligand ID>  (1) 
LIG0000163

>  <Ligand>  (1) 
sebacic acid

>  <SMILES>  (1) 
OC(=O)CCCCCCCCC(=O)O

>  <CID>  (1) 
5192.0

>  <ChEMBL ID>  (1) 
nan

>  <InChiKey>  (1) 
CXMXRPHRNRROMY-UHFFFAOYSA-N

>  <InChi>  (1) 
InChI=1S/C10H18O4/c11-9(12)7-5-3-1-2-4-6-8-10(13)14/h1-8H2,(H,11,12)(H,13,14)

>  <IUPAC Name>  (1) 
decanedioic acid

$$$$
