
     RDKit          3D

 63 65  0  0  0  0  0  0  0  0999 V2000
    8.7146    1.2934    1.4157 C   0  0  0  0  0  0  0  0  0  0  0  0
    8.0825    0.0329    0.9417 C   0  0  0  0  0  0  0  0  0  0  0  0
    7.4700   -0.0955   -0.2169 C   0  0  0  0  0  0  0  0  0  0  0  0
    6.8301   -1.3370   -0.7178 C   0  0  0  0  0  0  0  0  0  0  0  0
    5.4303   -1.1814   -0.9994 N   0  0  0  0  0  0  0  0  0  0  0  0
    4.4077   -0.9371   -0.0610 C   0  0  0  0  0  0  0  0  0  0  0  0
    4.5884   -0.8535    1.2993 C   0  0  0  0  0  0  0  0  0  0  0  0
    3.5723   -0.5923    2.1948 C   0  0  0  0  0  0  0  0  0  0  0  0
    2.2850   -0.3994    1.7182 C   0  0  0  0  0  0  0  0  0  0  0  0
    2.0679   -0.4759    0.3705 C   0  0  0  0  0  0  0  0  0  0  0  0
    3.1134   -0.7422   -0.5183 C   0  0  0  0  0  0  0  0  0  0  0  0
    0.6840   -0.2574   -0.1872 C   0  0  2  0  0  0  0  0  0  0  0  0
    0.3664    1.2116   -0.2493 C   0  0  0  0  0  0  0  0  0  0  0  0
   -0.9562    1.5141   -0.7307 N   0  0  0  0  0  0  0  0  0  0  0  0
   -1.2075    1.2230   -2.0829 C   0  0  1  0  0  0  0  0  0  0  0  0
   -2.5799    1.5370   -2.6083 C   0  0  0  0  0  0  0  0  0  0  0  0
   -3.6795    0.8385   -1.9457 C   0  0  0  0  0  0  0  0  0  0  0  0
   -4.3117   -0.2800   -2.5061 C   0  0  0  0  0  0  0  0  0  0  0  0
   -5.2803   -0.7095   -1.6642 N   0  0  0  0  0  0  0  0  0  0  0  0
   -5.3071    0.0790   -0.5815 C   0  0  0  0  0  0  0  0  0  0  0  0
   -4.3240    1.0326   -0.7507 C   0  0  0  0  0  0  0  0  0  0  0  0
   -4.1357    1.9814    0.2197 C   0  0  0  0  0  0  0  0  0  0  0  0
   -4.9229    1.9807    1.3556 C   0  0  0  0  0  0  0  0  0  0  0  0
   -5.9020    1.0260    1.5182 C   0  0  0  0  0  0  0  0  0  0  0  0
   -6.1046    0.0622    0.5473 C   0  0  0  0  0  0  0  0  0  0  0  0
   -7.1029   -0.8716    0.7615 O   0  0  0  0  0  0  0  0  0  0  0  0
   -6.8240   -2.3407    1.5603 S   0  0  0  0  0  0  0  0  0  0  0  0
   -8.0319   -3.2270    1.4172 O   0  0  0  0  0  0  0  0  0  0  0  0
   -5.5894   -2.9699    1.0021 O   0  0  0  0  0  0  0  0  0  0  0  0
   -6.6308   -2.0296    3.3108 C   0  0  0  0  0  0  0  0  0  0  0  0
   -0.2202    1.7674   -3.0773 C   0  0  0  0  0  0  0  0  0  0  0  0
   -0.1820   -0.9520    0.6506 O   0  0  0  0  0  0  0  0  0  0  0  0
    8.7109    1.2961    2.5286 H   0  0  0  0  0  0  0  0  0  0  0  0
    8.0837    2.1414    1.0370 H   0  0  0  0  0  0  0  0  0  0  0  0
    9.7394    1.3196    1.0111 H   0  0  0  0  0  0  0  0  0  0  0  0
    8.1213   -0.8456    1.5803 H   0  0  0  0  0  0  0  0  0  0  0  0
    7.4236    0.7731   -0.8678 H   0  0  0  0  0  0  0  0  0  0  0  0
    7.3819   -1.7272   -1.6044 H   0  0  0  0  0  0  0  0  0  0  0  0
    7.0173   -2.1056    0.0775 H   0  0  0  0  0  0  0  0  0  0  0  0
    5.1535   -1.2600   -2.0221 H   0  0  0  0  0  0  0  0  0  0  0  0
    5.5688   -1.0040    1.7182 H   0  0  0  0  0  0  0  0  0  0  0  0
    3.7352   -0.5300    3.2615 H   0  0  0  0  0  0  0  0  0  0  0  0
    1.4944   -0.1957    2.4207 H   0  0  0  0  0  0  0  0  0  0  0  0
    2.8892   -0.7936   -1.5911 H   0  0  0  0  0  0  0  0  0  0  0  0
    0.6195   -0.7594   -1.1746 H   0  0  0  0  0  0  0  0  0  0  0  0
    1.1562    1.8053   -0.7307 H   0  0  0  0  0  0  0  0  0  0  0  0
    0.3701    1.5558    0.8145 H   0  0  0  0  0  0  0  0  0  0  0  0
   -1.1185    2.5507   -0.5092 H   0  0  0  0  0  0  0  0  0  0  0  0
   -1.1151    0.0971   -2.1859 H   0  0  0  0  0  0  0  0  0  0  0  0
   -2.5306    1.2983   -3.7120 H   0  0  0  0  0  0  0  0  0  0  0  0
   -2.8018    2.6253   -2.5876 H   0  0  0  0  0  0  0  0  0  0  0  0
   -4.0912   -0.7561   -3.4567 H   0  0  0  0  0  0  0  0  0  0  0  0
   -5.9315   -1.5179   -1.7880 H   0  0  0  0  0  0  0  0  0  0  0  0
   -3.3789    2.7383    0.1051 H   0  0  0  0  0  0  0  0  0  0  0  0
   -4.8181    2.7041    2.1507 H   0  0  0  0  0  0  0  0  0  0  0  0
   -6.5238    1.0190    2.4079 H   0  0  0  0  0  0  0  0  0  0  0  0
   -6.9556   -2.9156    3.8892 H   0  0  0  0  0  0  0  0  0  0  0  0
   -5.5777   -1.7773    3.4938 H   0  0  0  0  0  0  0  0  0  0  0  0
   -7.2367   -1.1310    3.5321 H   0  0  0  0  0  0  0  0  0  0  0  0
    0.8204    1.7900   -2.7462 H   0  0  0  0  0  0  0  0  0  0  0  0
   -0.2527    1.1881   -4.0370 H   0  0  0  0  0  0  0  0  0  0  0  0
   -0.4744    2.8039   -3.3825 H   0  0  0  0  0  0  0  0  0  0  0  0
    0.2010   -1.7935    0.9812 H   0  0  0  0  0  0  0  0  0  0  0  0
  1  2  1  0
  2  3  2  0
  3  4  1  0
  4  5  1  0
  5  6  1  0
  6  7  2  0
  7  8  1  0
  8  9  2  0
  9 10  1  0
 10 11  2  0
 10 12  1  0
 12 13  1  0
 13 14  1  0
 14 15  1  0
 15 16  1  0
 16 17  1  0
 17 18  2  0
 18 19  1  0
 19 20  1  0
 20 21  2  0
 21 22  1  0
 22 23  2  0
 23 24  1  0
 24 25  2  0
 25 26  1  0
 26 27  1  0
 27 28  2  0
 27 29  2  0
 27 30  1  0
 15 31  1  0
 12 32  1  0
 11  6  1  0
 21 17  1  0
 25 20  1  0
  1 33  1  0
  1 34  1  0
  1 35  1  0
  2 36  1  0
  3 37  1  0
  4 38  1  0
  4 39  1  0
  5 40  1  0
  7 41  1  0
  8 42  1  0
  9 43  1  0
 11 44  1  0
 12 45  1  6
 13 46  1  0
 13 47  1  0
 14 48  1  0
 15 49  1  1
 16 50  1  0
 16 51  1  0
 18 52  1  0
 19 53  1  0
 22 54  1  0
 23 55  1  0
 24 56  1  0
 30 57  1  0
 30 58  1  0
 30 59  1  0
 31 60  1  0
 31 61  1  0
 31 62  1  0
 32 63  1  0
M  END
>  <Ligand ID>  (1) 
LIG0002326

>  <Ligand>  (1) 
CHEMBL425161

>  <SMILES>  (1) 
C/C=C/CNc1cccc(c1)[C@H](CN[C@@H](Cc1c[nH]c2c1cccc2OS(=O)(=O)C)C)O

>  <CID>  (1) 
44392457.0

>  <ChEMBL ID>  (1) 
nan

>  <InChiKey>  (1) 
MAHXPPTYZZUPIK-SALYICCVSA-N

>  <InChi>  (1) 
InChI=1S/C24H31N3O4S/c1-4-5-12-25-20-9-6-8-18(14-20)22(28)16-26-17(2)13-19-15-27-24-21(19)10-7-11-23(24)31-32(3,29)30/h4-11,14-15,17,22,25-28H,12-13,16H2,1-3H3/b5-4+/t17-,22+/m1/s1

>  <IUPAC Name>  (1) 
[3-[(2R)-2-[[(2R)-2-[3-[[(E)-but-2-enyl]amino]phenyl]-2-hydroxyethyl]amino]propyl]-1H-indol-7-yl] methanesulfonate

$$$$
