
     RDKit          3D

 52 54  0  0  0  0  0  0  0  0999 V2000
    0.5025    2.4027    2.4990 C   0  0  0  0  0  0  0  0  0  0  0  0
    1.0238    1.3839    1.6766 O   0  0  0  0  0  0  0  0  0  0  0  0
    0.4452    1.0595    0.4763 C   0  0  0  0  0  0  0  0  0  0  0  0
   -0.6700    1.6629   -0.0526 C   0  0  0  0  0  0  0  0  0  0  0  0
   -1.2202    1.3046   -1.2663 C   0  0  0  0  0  0  0  0  0  0  0  0
   -0.6252    0.2791   -2.0060 C   0  0  0  0  0  0  0  0  0  0  0  0
    0.4791   -0.3137   -1.4754 C   0  0  0  0  0  0  0  0  0  0  0  0
    1.0294    0.0424   -0.2648 C   0  0  0  0  0  0  0  0  0  0  0  0
    2.1878   -0.6426    0.2001 N   0  0  0  0  0  0  0  0  0  0  0  0
    3.7932   -0.1170   -0.1660 S   0  0  0  0  0  0  0  0  0  0  0  0
    4.4502   -1.2581   -0.8995 O   0  0  0  0  0  0  0  0  0  0  0  0
    3.7285    1.0769   -1.1023 O   0  0  0  0  0  0  0  0  0  0  0  0
    4.6979    0.2945    1.2609 C   0  0  0  0  0  0  0  0  0  0  0  0
    5.4495   -0.6420    1.9247 C   0  0  0  0  0  0  0  0  0  0  0  0
    6.1646   -0.3256    3.0486 C   0  0  0  0  0  0  0  0  0  0  0  0
    6.1720    0.9526    3.5804 C   0  0  0  0  0  0  0  0  0  0  0  0
    5.4199    1.9094    2.9242 C   0  0  0  0  0  0  0  0  0  0  0  0
    4.7055    1.5824    1.7969 C   0  0  0  0  0  0  0  0  0  0  0  0
    7.0950    1.3297    5.0174 Cl  0  0  0  0  0  0  0  0  0  0  0  0
    2.0808   -1.8526    1.0282 C   0  0  0  0  0  0  0  0  0  0  0  0
   -1.2576   -0.2363   -3.5514 S   0  0  0  0  0  0  0  0  0  0  0  0
   -1.9555    0.9429   -4.1684 O   0  0  0  0  0  0  0  0  0  0  0  0
   -0.1917   -0.7046   -4.4709 O   0  0  0  0  0  0  0  0  0  0  0  0
   -2.4073   -1.4991   -3.2171 N   0  0  0  0  0  0  0  0  0  0  0  0
   -3.5626   -1.2370   -2.4311 C   0  0  0  0  0  0  0  0  0  0  0  0
   -4.3606   -0.1236   -2.6024 C   0  0  0  0  0  0  0  0  0  0  0  0
   -5.4737    0.0343   -1.7735 C   0  0  0  0  0  0  0  0  0  0  0  0
   -5.7877   -0.8949   -0.7944 C   0  0  0  0  0  0  0  0  0  0  0  0
   -4.9705   -1.9992   -0.6464 C   0  0  0  0  0  0  0  0  0  0  0  0
   -3.8628   -2.1868   -1.4480 C   0  0  0  0  0  0  0  0  0  0  0  0
   -6.9933   -0.7072    0.0901 C   0  0  0  0  0  0  0  0  0  0  0  0
   -0.6051    2.4128    2.4733 H   0  0  0  0  0  0  0  0  0  0  0  0
    0.9447    3.3637    2.1223 H   0  0  0  0  0  0  0  0  0  0  0  0
    0.8761    2.3072    3.5426 H   0  0  0  0  0  0  0  0  0  0  0  0
   -1.1385    2.4534    0.5051 H   0  0  0  0  0  0  0  0  0  0  0  0
   -2.1000    1.8028   -1.6516 H   0  0  0  0  0  0  0  0  0  0  0  0
    0.9516   -1.1037   -2.0271 H   0  0  0  0  0  0  0  0  0  0  0  0
    5.4696   -1.6604    1.5372 H   0  0  0  0  0  0  0  0  0  0  0  0
    6.7698   -1.0581    3.5919 H   0  0  0  0  0  0  0  0  0  0  0  0
    5.4347    2.9026    3.3499 H   0  0  0  0  0  0  0  0  0  0  0  0
    4.1274    2.3645    1.3118 H   0  0  0  0  0  0  0  0  0  0  0  0
    2.7849   -1.8711    1.8548 H   0  0  0  0  0  0  0  0  0  0  0  0
    2.2166   -2.6860    0.2832 H   0  0  0  0  0  0  0  0  0  0  0  0
    1.0261   -1.9655    1.3691 H   0  0  0  0  0  0  0  0  0  0  0  0
   -2.2446   -2.4461   -3.5952 H   0  0  0  0  0  0  0  0  0  0  0  0
   -4.1186    0.5985   -3.3620 H   0  0  0  0  0  0  0  0  0  0  0  0
   -6.1162    0.8779   -1.8709 H   0  0  0  0  0  0  0  0  0  0  0  0
   -5.1967   -2.7410    0.1143 H   0  0  0  0  0  0  0  0  0  0  0  0
   -3.2605   -3.0651   -1.2898 H   0  0  0  0  0  0  0  0  0  0  0  0
   -7.9366   -0.8628   -0.4812 H   0  0  0  0  0  0  0  0  0  0  0  0
   -6.9681   -1.4669    0.8730 H   0  0  0  0  0  0  0  0  0  0  0  0
   -7.0028    0.3259    0.4912 H   0  0  0  0  0  0  0  0  0  0  0  0
  1  2  1  0
  2  3  1  0
  3  4  2  0
  4  5  1  0
  5  6  2  0
  6  7  1  0
  7  8  2  0
  8  9  1  0
  9 10  1  0
 10 11  2  0
 10 12  2  0
 10 13  1  0
 13 14  2  0
 14 15  1  0
 15 16  2  0
 16 17  1  0
 17 18  2  0
 16 19  1  0
  9 20  1  0
  6 21  1  0
 21 22  2  0
 21 23  2  0
 21 24  1  0
 24 25  1  0
 25 26  2  0
 26 27  1  0
 27 28  2  0
 28 29  1  0
 29 30  2  0
 28 31  1  0
  8  3  1  0
 18 13  1  0
 30 25  1  0
  1 32  1  0
  1 33  1  0
  1 34  1  0
  4 35  1  0
  5 36  1  0
  7 37  1  0
 14 38  1  0
 15 39  1  0
 17 40  1  0
 18 41  1  0
 20 42  1  0
 20 43  1  0
 20 44  1  0
 24 45  1  0
 26 46  1  0
 27 47  1  0
 29 48  1  0
 30 49  1  0
 31 50  1  0
 31 51  1  0
 31 52  1  0
M  END
>  <Ligand ID>  (1) 
LIG0003831

>  <Ligand>  (1) 
SMR000201306

>  <SMILES>  (1) 
COc1ccc(cc1N(S(=O)(=O)c1ccc(cc1)Cl)C)S(=O)(=O)Nc1ccc(cc1)C

>  <CID>  (1) 
2975504.0

>  <ChEMBL ID>  (1) 
nan

>  <InChiKey>  (1) 
ZMVOSXWFIBSYRX-UHFFFAOYSA-N

>  <InChi>  (1) 
InChI=1S/C21H21ClN2O5S2/c1-15-4-8-17(9-5-15)23-30(25,26)19-12-13-21(29-3)20(14-19)24(2)31(27,28)18-10-6-16(22)7-11-18/h4-14,23H,1-3H3

>  <IUPAC Name>  (1) 
3-[(4-chlorophenyl)sulfonyl-methylamino]-4-methoxy-N-(4-methylphenyl)benzenesulfonamide

$$$$
