
     RDKit          3D

 46 46  0  0  0  0  0  0  0  0999 V2000
    1.5211   -3.8119    0.6335 O   0  0  0  0  0  0  0  0  0  0  0  0
    1.3825   -3.0775   -0.3978 C   0  0  0  0  0  0  0  0  0  0  0  0
    2.5448   -2.8864   -1.3507 C   0  0  0  0  0  0  0  0  0  0  0  0
    3.1339   -1.4939   -1.0661 C   0  0  0  0  0  0  0  0  0  0  0  0
    2.2074   -0.4017   -1.4822 C   0  0  0  0  0  0  0  0  0  0  0  0
    2.6932    0.9220   -0.8949 C   0  0  0  0  0  0  0  0  0  0  0  0
    1.7271    2.0292   -1.3785 C   0  0  0  0  0  0  0  0  0  0  0  0
    1.8537    3.2095   -0.4963 C   0  0  0  0  0  0  0  0  0  0  0  0
    0.7646    3.6524    0.1985 C   0  0  0  0  0  0  0  0  0  0  0  0
   -0.5107    2.9496    0.0351 C   0  0  0  0  0  0  0  0  0  0  0  0
   -0.8757    2.2122    1.3049 C   0  0  0  0  0  0  0  0  0  0  0  0
   -2.1615    1.3893    1.0180 C   0  0  0  0  0  0  0  0  0  0  0  0
   -2.1066    0.2478    1.9543 C   0  0  0  0  0  0  0  0  0  0  0  0
   -3.1048   -0.8370    1.8198 C   0  0  0  0  0  0  0  0  0  0  0  0
   -3.2154   -1.4042    0.4325 C   0  0  0  0  0  0  0  0  0  0  0  0
   -1.9770   -1.6990   -0.2868 C   0  0  0  0  0  0  0  0  0  0  0  0
   -0.9601   -2.6128    0.3097 C   0  0  0  0  0  0  0  0  0  0  0  0
    0.1679   -2.4877   -0.5791 O   0  0  0  0  0  0  0  0  0  0  0  0
    2.1117   -2.9134   -2.3616 H   0  0  0  0  0  0  0  0  0  0  0  0
    3.2792   -3.6791   -1.1886 H   0  0  0  0  0  0  0  0  0  0  0  0
    4.0714   -1.4193   -1.6540 H   0  0  0  0  0  0  0  0  0  0  0  0
    3.3194   -1.3842    0.0261 H   0  0  0  0  0  0  0  0  0  0  0  0
    2.1343   -0.2988   -2.5956 H   0  0  0  0  0  0  0  0  0  0  0  0
    1.1993   -0.5503   -1.0623 H   0  0  0  0  0  0  0  0  0  0  0  0
    2.5902    0.8712    0.2124 H   0  0  0  0  0  0  0  0  0  0  0  0
    3.7153    1.1295   -1.2354 H   0  0  0  0  0  0  0  0  0  0  0  0
    2.1347    2.3591   -2.3758 H   0  0  0  0  0  0  0  0  0  0  0  0
    0.7748    1.6012   -1.5542 H   0  0  0  0  0  0  0  0  0  0  0  0
    2.8094    3.7040   -0.4163 H   0  0  0  0  0  0  0  0  0  0  0  0
    0.8512    4.5079    0.8563 H   0  0  0  0  0  0  0  0  0  0  0  0
   -0.7125    2.4250   -0.8821 H   0  0  0  0  0  0  0  0  0  0  0  0
   -1.2817    3.8218   -0.0147 H   0  0  0  0  0  0  0  0  0  0  0  0
   -1.0726    2.9608    2.0854 H   0  0  0  0  0  0  0  0  0  0  0  0
   -0.0863    1.4794    1.5560 H   0  0  0  0  0  0  0  0  0  0  0  0
   -2.9837    2.0910    1.3042 H   0  0  0  0  0  0  0  0  0  0  0  0
   -2.2379    1.2219   -0.0386 H   0  0  0  0  0  0  0  0  0  0  0  0
   -2.2681    0.6881    2.9914 H   0  0  0  0  0  0  0  0  0  0  0  0
   -1.0680   -0.1563    2.0261 H   0  0  0  0  0  0  0  0  0  0  0  0
   -2.8923   -1.6296    2.5377 H   0  0  0  0  0  0  0  0  0  0  0  0
   -4.1146   -0.3947    2.0619 H   0  0  0  0  0  0  0  0  0  0  0  0
   -3.8636   -0.7840   -0.2153 H   0  0  0  0  0  0  0  0  0  0  0  0
   -3.7745   -2.3812    0.5610 H   0  0  0  0  0  0  0  0  0  0  0  0
   -2.3096   -2.2532   -1.2428 H   0  0  0  0  0  0  0  0  0  0  0  0
   -1.4646   -0.8011   -0.7445 H   0  0  0  0  0  0  0  0  0  0  0  0
   -0.6952   -2.4223    1.3568 H   0  0  0  0  0  0  0  0  0  0  0  0
   -1.2503   -3.6933    0.2322 H   0  0  0  0  0  0  0  0  0  0  0  0
  1  2  2  0
  2  3  1  0
  3  4  1  0
  4  5  1  0
  5  6  1  0
  6  7  1  0
  7  8  1  0
  8  9  2  0
  9 10  1  0
 10 11  1  0
 11 12  1  0
 12 13  1  0
 13 14  1  0
 14 15  1  0
 15 16  1  0
 16 17  1  0
 17 18  1  0
 18  2  1  0
  3 19  1  0
  3 20  1  0
  4 21  1  0
  4 22  1  0
  5 23  1  0
  5 24  1  0
  6 25  1  0
  6 26  1  0
  7 27  1  0
  7 28  1  0
  8 29  1  0
  9 30  1  0
 10 31  1  0
 10 32  1  0
 11 33  1  0
 11 34  1  0
 12 35  1  0
 12 36  1  0
 13 37  1  0
 13 38  1  0
 14 39  1  0
 14 40  1  0
 15 41  1  0
 15 42  1  0
 16 43  1  0
 16 44  1  0
 17 45  1  0
 17 46  1  0
M  END
>  <Ligand ID>  (1) 
LIG0000054

>  <Ligand>  (1) 
Ambrettolide

>  <SMILES>  (1) 
O=C1CCCCC/C=C\CCCCCCCCO1

>  <CID>  (1) 
5365703.0

>  <ChEMBL ID>  (1) 
nan

>  <InChiKey>  (1) 
NVIPUOMWGQAOIT-RQOWECAXSA-N

>  <InChi>  (1) 
InChI=1S/C16H28O2/c17-16-14-12-10-8-6-4-2-1-3-5-7-9-11-13-15-18-16/h2,4H,1,3,5-15H2/b4-2-

>  <IUPAC Name>  (1) 
(8Z)-1-oxacycloheptadec-8-en-2-one

$$$$
