
     RDKit          3D

 35 37  0  0  0  0  0  0  0  0999 V2000
   -4.6930    2.4990    1.8228 C   0  0  0  0  0  0  0  0  0  0  0  0
   -3.4800    1.6690    1.5216 C   0  0  0  0  0  0  0  0  0  0  0  0
   -2.4063    1.4890    2.2912 N   0  0  0  0  0  0  0  0  0  0  0  0
   -1.5619    0.6592    1.6119 C   0  0  0  0  0  0  0  0  0  0  0  0
   -2.1418    0.3408    0.4166 C   0  0  0  0  0  0  0  0  0  0  0  0
   -3.3027    0.9921    0.4394 O   0  0  0  0  0  0  0  0  0  0  0  0
   -1.7586   -0.4776   -0.7026 C   0  0  0  0  0  0  0  0  0  0  0  0
   -2.7867   -0.8856   -1.5627 C   0  0  0  0  0  0  0  0  0  0  0  0
   -2.5783   -1.6549   -2.6691 C   0  0  0  0  0  0  0  0  0  0  0  0
   -1.3109   -2.0749   -2.9966 C   0  0  0  0  0  0  0  0  0  0  0  0
   -0.2923   -1.6784   -2.1597 C   0  0  0  0  0  0  0  0  0  0  0  0
   -0.5026   -0.8915   -1.0304 C   0  0  0  0  0  0  0  0  0  0  0  0
    0.6388   -0.4777   -0.3206 N   0  0  0  0  0  0  0  0  0  0  0  0
    1.9531   -0.9943   -0.7293 C   0  0  0  0  0  0  0  0  0  0  0  0
    3.0291   -0.4681    0.1468 C   0  0  0  0  0  0  0  0  0  0  0  0
    3.8037   -1.2135    0.8483 N   0  0  0  0  0  0  0  0  0  0  0  0
    4.7282   -0.3867    1.5787 C   0  0  0  0  0  0  0  0  0  0  0  0
    4.7663    0.8726    0.7477 C   0  0  0  0  0  0  0  0  0  0  0  0
    3.3528    0.9066    0.3263 N   0  0  0  0  0  0  0  0  0  0  0  0
   -4.8144    3.2864    1.0487 H   0  0  0  0  0  0  0  0  0  0  0  0
   -5.5744    1.8534    1.9360 H   0  0  0  0  0  0  0  0  0  0  0  0
   -4.5375    3.0001    2.8110 H   0  0  0  0  0  0  0  0  0  0  0  0
   -0.6491    0.3409    2.0312 H   0  0  0  0  0  0  0  0  0  0  0  0
   -3.8306   -0.5944   -1.3716 H   0  0  0  0  0  0  0  0  0  0  0  0
   -3.3946   -1.9402   -3.2926 H   0  0  0  0  0  0  0  0  0  0  0  0
   -1.1655   -2.6844   -3.8754 H   0  0  0  0  0  0  0  0  0  0  0  0
    0.7034   -2.0219   -2.4350 H   0  0  0  0  0  0  0  0  0  0  0  0
    0.6780    0.1892    0.4629 H   0  0  0  0  0  0  0  0  0  0  0  0
    1.8749   -2.0967   -0.6810 H   0  0  0  0  0  0  0  0  0  0  0  0
    2.1369   -0.7388   -1.8024 H   0  0  0  0  0  0  0  0  0  0  0  0
    4.2413   -0.1592    2.5456 H   0  0  0  0  0  0  0  0  0  0  0  0
    5.7245   -0.8501    1.6973 H   0  0  0  0  0  0  0  0  0  0  0  0
    5.0441    1.7694    1.3135 H   0  0  0  0  0  0  0  0  0  0  0  0
    5.3631    0.6823   -0.1625 H   0  0  0  0  0  0  0  0  0  0  0  0
    2.7432    1.7388    0.1937 H   0  0  0  0  0  0  0  0  0  0  0  0
  1  2  1  0
  2  3  2  0
  3  4  1  0
  4  5  2  0
  5  6  1  0
  5  7  1  0
  7  8  2  0
  8  9  1  0
  9 10  2  0
 10 11  1  0
 11 12  2  0
 12 13  1  0
 13 14  1  0
 14 15  1  0
 15 16  2  0
 16 17  1  0
 17 18  1  0
 18 19  1  0
  6  2  1  0
 12  7  1  0
 19 15  1  0
  1 20  1  0
  1 21  1  0
  1 22  1  0
  4 23  1  0
  8 24  1  0
  9 25  1  0
 10 26  1  0
 11 27  1  0
 13 28  1  0
 14 29  1  0
 14 30  1  0
 17 31  1  0
 17 32  1  0
 18 33  1  0
 18 34  1  0
 19 35  1  0
M  END
>  <Ligand ID>  (1) 
LIG0003926

>  <Ligand>  (1) 
CHEMBL352225

>  <SMILES>  (1) 
Cc1ncc(o1)c1ccccc1NCC1=NCCN1

>  <CID>  (1) 
22493372.0

>  <ChEMBL ID>  (1) 
nan

>  <InChiKey>  (1) 
VSSYIFVXYPNECD-UHFFFAOYSA-N

>  <InChi>  (1) 
InChI=1S/C14H16N4O/c1-10-17-8-13(19-10)11-4-2-3-5-12(11)18-9-14-15-6-7-16-14/h2-5,8,18H,6-7,9H2,1H3,(H,15,16)

>  <IUPAC Name>  (1) 
N-(4,5-dihydro-1H-imidazol-2-ylmethyl)-2-(2-methyl-1,3-oxazol-5-yl)aniline

$$$$
