
     RDKit          3D

 24 25  0  0  0  0  0  0  0  0999 V2000
    3.2923    0.2670   -1.2313 O   0  0  0  0  0  0  0  0  0  0  0  0
    2.5392    0.3980   -0.0575 C   0  0  0  0  0  0  0  0  0  0  0  0
    3.1326    0.3911    1.0560 O   0  0  0  0  0  0  0  0  0  0  0  0
    1.0829    0.5380   -0.1836 C   0  0  2  0  0  0  0  0  0  0  0  0
    0.4264    0.6691    1.1975 C   0  0  2  0  0  0  0  0  0  0  0  0
    0.5775   -0.8181    1.2829 C   0  0  0  0  0  0  0  0  0  0  0  0
    0.3006   -0.7467   -0.2254 C   0  0  1  0  0  0  0  0  0  0  0  0
   -1.1310   -0.3518   -0.1676 C   0  0  2  0  0  0  0  0  0  0  0  0
   -1.0034    0.8505    0.7812 C   0  0  0  0  0  0  0  0  0  0  0  0
   -1.8733   -1.3611    0.5687 N   0  0  0  0  0  0  0  0  0  0  0  0
   -1.7694   -0.0194   -1.4343 C   0  0  0  0  0  0  0  0  0  0  0  0
   -2.8563   -0.5788   -1.8098 O   0  0  0  0  0  0  0  0  0  0  0  0
   -1.1768    0.9323   -2.2531 O   0  0  0  0  0  0  0  0  0  0  0  0
    4.3167    0.3769   -1.2309 H   0  0  0  0  0  0  0  0  0  0  0  0
    0.7250    1.2563   -0.9333 H   0  0  0  0  0  0  0  0  0  0  0  0
    0.8866    1.3204    1.9139 H   0  0  0  0  0  0  0  0  0  0  0  0
    1.5358   -1.2433    1.5492 H   0  0  0  0  0  0  0  0  0  0  0  0
   -0.2843   -1.2521    1.8189 H   0  0  0  0  0  0  0  0  0  0  0  0
    0.6537   -1.5573   -0.8359 H   0  0  0  0  0  0  0  0  0  0  0  0
   -1.1662    1.7970    0.2305 H   0  0  0  0  0  0  0  0  0  0  0  0
   -1.6245    0.7380    1.6856 H   0  0  0  0  0  0  0  0  0  0  0  0
   -2.1239   -2.1612   -0.0710 H   0  0  0  0  0  0  0  0  0  0  0  0
   -2.7401   -0.8895    0.9471 H   0  0  0  0  0  0  0  0  0  0  0  0
   -1.7202    1.4449   -2.9640 H   0  0  0  0  0  0  0  0  0  0  0  0
  1  2  1  0
  2  3  2  0
  2  4  1  0
  4  5  1  0
  5  6  1  0
  6  7  1  0
  7  8  1  0
  8  9  1  0
  8 10  1  1
  8 11  1  0
 11 12  2  0
 11 13  1  0
  7  4  1  0
  9  5  1  0
  1 14  1  0
  4 15  1  6
  5 16  1  1
  6 17  1  0
  6 18  1  0
  7 19  1  6
  9 20  1  0
  9 21  1  0
 10 22  1  0
 10 23  1  0
 13 24  1  0
M  END
>  <Ligand ID>  (1) 
LIG0000814

>  <Ligand>  (1) 
CHEMBL46527

>  <SMILES>  (1) 
OC(=O)[C@@H]1[C@@H]2C[C@H]1[C@](C2)(N)C(=O)O

>  <CID>  (1) 
10775369.0

>  <ChEMBL ID>  (1) 
nan

>  <InChiKey>  (1) 
JCGJEPFYMOHIDP-DJSMDIAISA-N

>  <InChi>  (1) 
InChI=1S/C8H11NO4/c9-8(7(12)13)2-3-1-4(8)5(3)6(10)11/h3-5H,1-2,9H2,(H,10,11)(H,12,13)/t3-,4-,5-,8+/m1/s1

>  <IUPAC Name>  (1) 
(1R,2S,4R,5R)-2-aminobicyclo[2.1.1]hexane-2,5-dicarboxylic acid

$$$$
