
     RDKit          3D

 37 39  0  0  0  0  0  0  0  0999 V2000
    3.7725   -1.6237    1.0871 C   0  0  0  0  0  0  0  0  0  0  0  0
    2.3390   -1.4463    0.5514 C   0  0  0  0  0  0  0  0  0  0  0  0
    2.3006   -0.1426   -0.1208 C   0  0  0  0  0  0  0  0  0  0  0  0
    1.0897    0.3035   -0.7194 N   0  0  0  0  0  0  0  0  0  0  0  0
    1.3871    1.6234   -1.1719 C   0  0  0  0  0  0  0  0  0  0  0  0
    0.2555    2.4477   -1.6629 C   0  0  0  0  0  0  0  0  0  0  0  0
   -0.7622    2.4512   -0.5349 C   0  0  0  0  0  0  0  0  0  0  0  0
   -1.2058    1.0257   -0.4114 C   0  0  1  0  0  0  0  0  0  0  0  0
   -0.1105    0.0649   -0.0465 C   0  0  1  0  0  0  0  0  0  0  0  0
   -0.7241   -1.2958   -0.3820 C   0  0  0  0  0  0  0  0  0  0  0  0
   -2.0480   -1.4473    0.2622 C   0  0  0  0  0  0  0  0  0  0  0  0
   -2.7733   -2.5802    0.5757 C   0  0  0  0  0  0  0  0  0  0  0  0
   -3.9188   -2.2305    1.1453 N   0  0  0  0  0  0  0  0  0  0  0  0
   -3.9579   -0.8990    1.2111 N   0  0  0  0  0  0  0  0  0  0  0  0
   -2.8268   -0.3918    0.6789 C   0  0  0  0  0  0  0  0  0  0  0  0
   -2.3790    1.0061    0.5112 C   0  0  0  0  0  0  0  0  0  0  0  0
    4.1047   -2.6607    1.0626 H   0  0  0  0  0  0  0  0  0  0  0  0
    3.8060   -1.3031    2.1486 H   0  0  0  0  0  0  0  0  0  0  0  0
    4.4977   -1.0189    0.5044 H   0  0  0  0  0  0  0  0  0  0  0  0
    1.6909   -1.5579    1.4276 H   0  0  0  0  0  0  0  0  0  0  0  0
    2.2648   -2.2828   -0.1925 H   0  0  0  0  0  0  0  0  0  0  0  0
    3.0314   -0.2262   -0.9944 H   0  0  0  0  0  0  0  0  0  0  0  0
    2.7797    0.6221    0.5231 H   0  0  0  0  0  0  0  0  0  0  0  0
    1.8406    2.2074   -0.3073 H   0  0  0  0  0  0  0  0  0  0  0  0
    2.1915    1.5932   -1.9225 H   0  0  0  0  0  0  0  0  0  0  0  0
    0.6556    3.4716   -1.8172 H   0  0  0  0  0  0  0  0  0  0  0  0
   -0.1918    2.0137   -2.5585 H   0  0  0  0  0  0  0  0  0  0  0  0
   -0.3155    2.8060    0.4103 H   0  0  0  0  0  0  0  0  0  0  0  0
   -1.6412    3.0465   -0.8422 H   0  0  0  0  0  0  0  0  0  0  0  0
   -1.5895    0.7196   -1.4235 H   0  0  0  0  0  0  0  0  0  0  0  0
    0.0086    0.0705    1.0726 H   0  0  0  0  0  0  0  0  0  0  0  0
   -0.1198   -2.1329   -0.0274 H   0  0  0  0  0  0  0  0  0  0  0  0
   -0.8338   -1.3362   -1.4748 H   0  0  0  0  0  0  0  0  0  0  0  0
   -2.4636   -3.6211    0.3888 H   0  0  0  0  0  0  0  0  0  0  0  0
   -4.7510   -0.3352    1.6136 H   0  0  0  0  0  0  0  0  0  0  0  0
   -3.2190    1.5323   -0.0233 H   0  0  0  0  0  0  0  0  0  0  0  0
   -2.1842    1.5268    1.4586 H   0  0  0  0  0  0  0  0  0  0  0  0
  1  2  1  0
  2  3  1  0
  3  4  1  0
  4  5  1  0
  5  6  1  0
  6  7  1  0
  7  8  1  0
  8  9  1  0
  9 10  1  0
 10 11  1  0
 11 12  1  0
 12 13  2  0
 13 14  1  0
 14 15  1  0
 15 16  1  0
  9  4  1  0
 15 11  2  0
 16  8  1  0
  1 17  1  0
  1 18  1  0
  1 19  1  0
  2 20  1  0
  2 21  1  0
  3 22  1  0
  3 23  1  0
  5 24  1  0
  5 25  1  0
  6 26  1  0
  6 27  1  0
  7 28  1  0
  7 29  1  0
  8 30  1  6
  9 31  1  1
 10 32  1  0
 10 33  1  0
 12 34  1  0
 14 35  1  0
 16 36  1  0
 16 37  1  0
M  END
>  <Ligand ID>  (1) 
LIG0000980

>  <Ligand>  (1) 
quinpirole

>  <SMILES>  (1) 
CCCN1CCC[C@H]2[C@H]1Cc1cn[nH]c1C2

>  <CID>  (1) 
54562.0

>  <ChEMBL ID>  (1) 
nan

>  <InChiKey>  (1) 
FTSUPYGMFAPCFZ-ZWNOBZJWSA-N

>  <InChi>  (1) 
InChI=1S/C13H21N3/c1-2-5-16-6-3-4-10-7-12-11(8-13(10)16)9-14-15-12/h9-10,13H,2-8H2,1H3,(H,14,15)/t10-,13-/m1/s1

>  <IUPAC Name>  (1) 
(4aR,8aR)-5-propyl-1,4,4a,6,7,8,8a,9-octahydropyrazolo[3,4-g]quinoline

$$$$
