
     RDKit          3D

 29 29  0  0  0  0  0  0  0  0999 V2000
    2.9232    0.1086   -1.4688 N   0  0  0  0  0  0  0  0  0  0  0  0
    2.3972    1.2803   -0.7545 C   0  0  0  0  0  0  0  0  0  0  0  0
    2.0742    0.9129    0.6759 C   0  0  1  0  0  0  0  0  0  0  0  0
    1.0245   -0.1130    0.7715 C   0  0  0  0  0  0  0  0  0  0  0  0
   -0.3035    0.2413    0.8488 C   0  0  0  0  0  0  0  0  0  0  0  0
   -1.3021   -0.7211    0.9394 C   0  0  0  0  0  0  0  0  0  0  0  0
   -0.9595   -2.0586    0.9525 C   0  0  0  0  0  0  0  0  0  0  0  0
    0.3634   -2.4462    0.8764 C   0  0  0  0  0  0  0  0  0  0  0  0
    1.3283   -1.4689    0.7876 C   0  0  0  0  0  0  0  0  0  0  0  0
    2.6246   -1.8260    0.7124 F   0  0  0  0  0  0  0  0  0  0  0  0
   -2.6430   -0.3265    1.0164 N   0  0  0  0  0  0  0  0  0  0  0  0
   -3.2747    0.8913   -0.0134 S   0  0  0  0  0  0  0  0  0  0  0  0
   -4.7642    1.0452    0.2355 O   0  0  0  0  0  0  0  0  0  0  0  0
   -2.6084    2.2166    0.1454 O   0  0  0  0  0  0  0  0  0  0  0  0
   -3.0952    0.2825   -1.6915 C   0  0  0  0  0  0  0  0  0  0  0  0
    3.2177    0.4686    1.3241 O   0  0  0  0  0  0  0  0  0  0  0  0
    2.8330    0.2377   -2.4982 H   0  0  0  0  0  0  0  0  0  0  0  0
    3.8498   -0.1531   -1.1204 H   0  0  0  0  0  0  0  0  0  0  0  0
    1.5389    1.7124   -1.2702 H   0  0  0  0  0  0  0  0  0  0  0  0
    3.2264    2.0178   -0.7340 H   0  0  0  0  0  0  0  0  0  0  0  0
    1.7707    1.8459    1.1943 H   0  0  0  0  0  0  0  0  0  0  0  0
   -0.5731    1.2730    0.8391 H   0  0  0  0  0  0  0  0  0  0  0  0
   -1.7267   -2.8122    1.0225 H   0  0  0  0  0  0  0  0  0  0  0  0
    0.5874   -3.5078    0.8899 H   0  0  0  0  0  0  0  0  0  0  0  0
   -3.2557   -0.7935    1.7201 H   0  0  0  0  0  0  0  0  0  0  0  0
   -3.8493   -0.5315   -1.8311 H   0  0  0  0  0  0  0  0  0  0  0  0
   -3.1780    1.0934   -2.4201 H   0  0  0  0  0  0  0  0  0  0  0  0
   -2.0542   -0.1207   -1.7502 H   0  0  0  0  0  0  0  0  0  0  0  0
    3.8281    1.2517    1.4321 H   0  0  0  0  0  0  0  0  0  0  0  0
  1  2  1  0
  2  3  1  0
  3  4  1  0
  4  5  2  0
  5  6  1  0
  6  7  2  0
  7  8  1  0
  8  9  2  0
  9 10  1  0
  6 11  1  0
 11 12  1  0
 12 13  2  0
 12 14  2  0
 12 15  1  0
  3 16  1  0
  9  4  1  0
  1 17  1  0
  1 18  1  0
  2 19  1  0
  2 20  1  0
  3 21  1  1
  5 22  1  0
  7 23  1  0
  8 24  1  0
 11 25  1  0
 15 26  1  0
 15 27  1  0
 15 28  1  0
 16 29  1  0
M  END
>  <Ligand ID>  (1) 
LIG0001006

>  <Ligand>  (1) 
NS-49

>  <SMILES>  (1) 
NC[C@@H](c1cc(ccc1F)NS(=O)(=O)C)O

>  <CID>  (1) 
9838763.0

>  <ChEMBL ID>  (1) 
nan

>  <InChiKey>  (1) 
XYLJNMCMDOOJRW-VIFPVBQESA-N

>  <InChi>  (1) 
InChI=1S/C9H13FN2O3S/c1-16(14,15)12-6-2-3-8(10)7(4-6)9(13)5-11/h2-4,9,12-13H,5,11H2,1H3/t9-/m0/s1

>  <IUPAC Name>  (1) 
N-[3-[(1R)-2-amino-1-hydroxyethyl]-4-fluorophenyl]methanesulfonamide

$$$$
