
     RDKit          3D

 23 22  0  0  0  0  0  0  0  0999 V2000
    3.4254    0.3620   -0.0677 C   0  0  0  0  0  0  0  0  0  0  0  0
    2.2942   -0.1513   -0.9215 C   0  0  0  0  0  0  0  0  0  0  0  0
    1.0488   -0.3584   -0.1518 C   0  0  0  0  0  0  0  0  0  0  0  0
    1.0141   -1.0614    0.8828 O   0  0  0  0  0  0  0  0  0  0  0  0
   -0.1095    0.2684   -0.6237 O   0  0  0  0  0  0  0  0  0  0  0  0
   -1.3125    0.0856    0.1052 C   0  0  0  0  0  0  0  0  0  0  0  0
   -1.6503   -1.3878    0.1108 C   0  0  0  0  0  0  0  0  0  0  0  0
   -1.1870    0.6477    1.4843 C   0  0  0  0  0  0  0  0  0  0  0  0
   -2.4723    0.8086   -0.5659 C   0  0  0  0  0  0  0  0  0  0  0  0
    3.0685    0.8911    0.8340 H   0  0  0  0  0  0  0  0  0  0  0  0
    3.9961    1.1189   -0.6774 H   0  0  0  0  0  0  0  0  0  0  0  0
    4.1487   -0.4217    0.2152 H   0  0  0  0  0  0  0  0  0  0  0  0
    2.1508    0.4219   -1.8461 H   0  0  0  0  0  0  0  0  0  0  0  0
    2.5964   -1.1824   -1.2672 H   0  0  0  0  0  0  0  0  0  0  0  0
   -2.6953   -1.5798   -0.2733 H   0  0  0  0  0  0  0  0  0  0  0  0
   -1.0099   -1.9466   -0.6262 H   0  0  0  0  0  0  0  0  0  0  0  0
   -1.5711   -1.8726    1.0904 H   0  0  0  0  0  0  0  0  0  0  0  0
   -2.2035    0.8226    1.9431 H   0  0  0  0  0  0  0  0  0  0  0  0
   -0.5656    0.0473    2.1768 H   0  0  0  0  0  0  0  0  0  0  0  0
   -0.7216    1.6516    1.4273 H   0  0  0  0  0  0  0  0  0  0  0  0
   -2.3494    1.9198   -0.5257 H   0  0  0  0  0  0  0  0  0  0  0  0
   -3.3835    0.4870    0.0176 H   0  0  0  0  0  0  0  0  0  0  0  0
   -2.5113    0.4295   -1.5964 H   0  0  0  0  0  0  0  0  0  0  0  0
  1  2  1  0
  2  3  1  0
  3  4  2  0
  3  5  1  0
  5  6  1  0
  6  7  1  0
  6  8  1  0
  6  9  1  0
  1 10  1  0
  1 11  1  0
  1 12  1  0
  2 13  1  0
  2 14  1  0
  7 15  1  0
  7 16  1  0
  7 17  1  0
  8 18  1  0
  8 19  1  0
  8 20  1  0
  9 21  1  0
  9 22  1  0
  9 23  1  0
M  END
>  <Ligand ID>  (1) 
LIG0000615

>  <Ligand>  (1) 
tert-butyl propanoate

>  <SMILES>  (1) 
CCC(=O)OC(C)(C)C

>  <CID>  (1) 
88561.0

>  <ChEMBL ID>  (1) 
nan

>  <InChiKey>  (1) 
JAELLLITIZHOGQ-UHFFFAOYSA-N

>  <InChi>  (1) 
InChI=1S/C7H14O2/c1-5-6(8)9-7(2,3)4/h5H2,1-4H3

>  <IUPAC Name>  (1) 
tert-butyl propanoate

$$$$
