
     RDKit          3D

 26 27  0  0  0  0  0  0  0  0999 V2000
   -4.3197    0.2177   -0.2361 C   0  0  0  0  0  0  0  0  0  0  0  0
   -2.9827   -0.4212   -0.1925 C   0  0  0  0  0  0  0  0  0  0  0  0
   -2.8960   -1.7867   -0.1482 C   0  0  0  0  0  0  0  0  0  0  0  0
   -1.6729   -2.4262   -0.1065 C   0  0  0  0  0  0  0  0  0  0  0  0
   -0.5271   -1.6781   -0.1096 C   0  0  0  0  0  0  0  0  0  0  0  0
   -0.6377   -0.2980   -0.1548 C   0  0  0  0  0  0  0  0  0  0  0  0
   -1.8429    0.2901   -0.1945 N   0  0  0  0  0  0  0  0  0  0  0  0
    0.6097    0.4871   -0.1572 C   0  0  0  0  0  0  0  0  0  0  0  0
    0.5895    1.8576   -0.2005 C   0  0  0  0  0  0  0  0  0  0  0  0
    1.8210    2.5210   -0.1994 C   0  0  0  0  0  0  0  0  0  0  0  0
    3.0087    1.8278   -0.1567 C   0  0  0  0  0  0  0  0  0  0  0  0
    2.9761    0.4449   -0.1140 C   0  0  0  0  0  0  0  0  0  0  0  0
    1.7685   -0.1504   -0.1168 N   0  0  0  0  0  0  0  0  0  0  0  0
    4.2044   -0.3848   -0.0663 C   0  0  0  0  0  0  0  0  0  0  0  0
   -4.2717    1.3132   -0.1478 H   0  0  0  0  0  0  0  0  0  0  0  0
   -4.9375   -0.0904   -1.1027 H   0  0  0  0  0  0  0  0  0  0  0  0
   -4.8658   -0.1856    0.6659 H   0  0  0  0  0  0  0  0  0  0  0  0
   -3.8106   -2.3616   -0.1464 H   0  0  0  0  0  0  0  0  0  0  0  0
   -1.5863   -3.5055   -0.0712 H   0  0  0  0  0  0  0  0  0  0  0  0
    0.4385   -2.1703   -0.0771 H   0  0  0  0  0  0  0  0  0  0  0  0
   -0.3463    2.4118   -0.2344 H   0  0  0  0  0  0  0  0  0  0  0  0
    1.8598    3.5966   -0.2324 H   0  0  0  0  0  0  0  0  0  0  0  0
    3.9659    2.3345   -0.1556 H   0  0  0  0  0  0  0  0  0  0  0  0
    5.1018    0.2450   -0.2345 H   0  0  0  0  0  0  0  0  0  0  0  0
    4.1104   -1.2346   -0.7732 H   0  0  0  0  0  0  0  0  0  0  0  0
    4.2431   -0.8542    0.9487 H   0  0  0  0  0  0  0  0  0  0  0  0
  1  2  1  0
  2  3  2  0
  3  4  1  0
  4  5  2  0
  5  6  1  0
  6  7  2  0
  6  8  1  0
  8  9  2  0
  9 10  1  0
 10 11  2  0
 11 12  1  0
 12 13  2  0
 12 14  1  0
  7  2  1  0
 13  8  1  0
  1 15  1  0
  1 16  1  0
  1 17  1  0
  3 18  1  0
  4 19  1  0
  5 20  1  0
  9 21  1  0
 10 22  1  0
 11 23  1  0
 14 24  1  0
 14 25  1  0
 14 26  1  0
M  END
>  <Ligand ID>  (1) 
LIG0003853

>  <Ligand>  (1) 
6,6'-Dimethyl-2,2'-bipyridine

>  <SMILES>  (1) 
Cc1cccc(n1)c1cccc(n1)C

>  <CID>  (1) 
20445.0

>  <ChEMBL ID>  (1) 
nan

>  <InChiKey>  (1) 
OHJPGUSXUGHOGE-UHFFFAOYSA-N

>  <InChi>  (1) 
InChI=1S/C12H12N2/c1-9-5-3-7-11(13-9)12-8-4-6-10(2)14-12/h3-8H,1-2H3

>  <IUPAC Name>  (1) 
2-methyl-6-(6-methylpyridin-2-yl)pyridine

$$$$
