
     RDKit          3D

 75 75  0  0  0  0  0  0  0  0999 V2000
   -9.9393    1.1848   -1.1747 C   0  0  0  0  0  0  0  0  0  0  0  0
   -8.7398    1.1011   -2.1035 C   0  0  0  0  0  0  0  0  0  0  0  0
   -8.3299   -0.3323   -2.3589 C   0  0  0  0  0  0  0  0  0  0  0  0
   -7.9470   -1.1085   -1.1727 C   0  0  0  0  0  0  0  0  0  0  0  0
   -6.8771   -0.6868   -0.2693 C   0  0  0  0  0  0  0  0  0  0  0  0
   -5.5155   -0.5542   -0.8038 C   0  0  0  0  0  0  0  0  0  0  0  0
   -5.2039    0.4516   -1.8426 C   0  0  0  0  0  0  0  0  0  0  0  0
   -3.7615    0.4022   -2.2315 C   0  0  0  0  0  0  0  0  0  0  0  0
   -2.7091    0.7250   -1.2532 C   0  0  0  0  0  0  0  0  0  0  0  0
   -2.4307    0.1458   -0.1238 O   0  0  0  0  0  0  0  0  0  0  0  0
   -2.1539   -0.4298    0.9987 C   0  0  0  0  0  0  0  0  0  0  0  0
   -2.9808   -0.4561    2.1314 C   0  0  0  0  0  0  0  0  0  0  0  0
   -2.6182   -1.0866    3.2981 C   0  0  0  0  0  0  0  0  0  0  0  0
   -1.3973   -1.7043    3.3303 C   0  0  0  0  0  0  0  0  0  0  0  0
   -0.5251   -1.7283    2.2714 C   0  0  0  0  0  0  0  0  0  0  0  0
   -0.9027   -1.0954    1.1168 C   0  0  0  0  0  0  0  0  0  0  0  0
    0.0056   -1.0939   -0.0854 C   0  0  0  0  0  0  0  0  0  0  0  0
    1.3787   -1.5198    0.4127 C   0  0  0  0  0  0  0  0  0  0  0  0
    1.8719   -0.5673    1.4316 C   0  0  0  0  0  0  0  0  0  0  0  0
    1.1623    0.4577    1.6335 O   0  0  0  0  0  0  0  0  0  0  0  0
    3.0176   -0.7063    2.1642 O   0  0  0  0  0  0  0  0  0  0  0  0
    3.4219    0.2486    3.1164 C   0  0  0  0  0  0  0  0  0  0  0  0
    3.7204    1.5703    2.4771 C   0  0  0  0  0  0  0  0  0  0  0  0
    4.8747    1.4345    1.4850 C   0  0  0  0  0  0  0  0  0  0  0  0
    6.0155    0.9751    2.1833 O   0  0  0  0  0  0  0  0  0  0  0  0
    7.3788    1.4159    1.3081 P   0  0  0  0  0  0  0  0  0  0  0  0
    7.2263    2.8583    0.8882 O   0  0  0  0  0  0  0  0  0  0  0  0
    7.5054    0.3971   -0.0442 O   0  0  0  0  0  0  0  0  0  0  0  0
    8.8521    0.3689   -0.4295 C   0  0  0  0  0  0  0  0  0  0  0  0
    9.0800   -0.3110   -1.7461 C   0  0  1  0  0  0  0  0  0  0  0  0
   10.5208   -0.2445   -2.1132 C   0  0  0  0  0  0  0  0  0  0  0  0
   11.2239   -1.2960   -2.2673 O   0  0  0  0  0  0  0  0  0  0  0  0
   11.1294    0.9870   -2.2965 O   0  0  0  0  0  0  0  0  0  0  0  0
    8.6146   -1.6669   -1.6401 N   0  0  0  0  0  0  0  0  0  0  0  0
    8.7619    1.2117    2.2857 O   0  0  0  0  0  0  0  0  0  0  0  0
   -9.9926    2.2038   -0.7552 H   0  0  0  0  0  0  0  0  0  0  0  0
  -10.8562    0.8864   -1.7390 H   0  0  0  0  0  0  0  0  0  0  0  0
   -9.8614    0.4936   -0.3275 H   0  0  0  0  0  0  0  0  0  0  0  0
   -9.0757    1.5078   -3.0819 H   0  0  0  0  0  0  0  0  0  0  0  0
   -7.9110    1.7374   -1.7639 H   0  0  0  0  0  0  0  0  0  0  0  0
   -7.7546   -0.3970   -3.2657 H   0  0  0  0  0  0  0  0  0  0  0  0
   -9.3554   -0.8033   -2.6828 H   0  0  0  0  0  0  0  0  0  0  0  0
   -8.8822   -1.2806   -0.5554 H   0  0  0  0  0  0  0  0  0  0  0  0
   -7.7456   -2.1745   -1.5594 H   0  0  0  0  0  0  0  0  0  0  0  0
   -6.7786   -1.4018    0.6281 H   0  0  0  0  0  0  0  0  0  0  0  0
   -7.1105    0.3007    0.2464 H   0  0  0  0  0  0  0  0  0  0  0  0
   -4.8635   -0.2742    0.0847 H   0  0  0  0  0  0  0  0  0  0  0  0
   -5.0619   -1.5727   -1.0763 H   0  0  0  0  0  0  0  0  0  0  0  0
   -5.8332    0.4026   -2.7294 H   0  0  0  0  0  0  0  0  0  0  0  0
   -5.3486    1.5112   -1.4320 H   0  0  0  0  0  0  0  0  0  0  0  0
   -3.6655    1.1825   -3.0656 H   0  0  0  0  0  0  0  0  0  0  0  0
   -3.5357   -0.5470   -2.8103 H   0  0  0  0  0  0  0  0  0  0  0  0
   -1.7295    0.6733   -1.9107 H   0  0  0  0  0  0  0  0  0  0  0  0
   -2.8242    1.9021   -1.1320 H   0  0  0  0  0  0  0  0  0  0  0  0
   -3.9457    0.0379    2.1444 H   0  0  0  0  0  0  0  0  0  0  0  0
   -3.2526   -1.1135    4.1809 H   0  0  0  0  0  0  0  0  0  0  0  0
   -1.1168   -2.1980    4.2465 H   0  0  0  0  0  0  0  0  0  0  0  0
    0.4067   -2.2492    2.4176 H   0  0  0  0  0  0  0  0  0  0  0  0
    0.0056   -0.0714   -0.4604 H   0  0  0  0  0  0  0  0  0  0  0  0
   -0.2929   -1.8542   -0.8196 H   0  0  0  0  0  0  0  0  0  0  0  0
    2.1201   -1.4800   -0.4440 H   0  0  0  0  0  0  0  0  0  0  0  0
    1.4048   -2.5754    0.7311 H   0  0  0  0  0  0  0  0  0  0  0  0
    2.6258    0.3446    3.8907 H   0  0  0  0  0  0  0  0  0  0  0  0
    4.3425   -0.1403    3.5961 H   0  0  0  0  0  0  0  0  0  0  0  0
    2.8823    1.9808    1.8840 H   0  0  0  0  0  0  0  0  0  0  0  0
    3.9572    2.3271    3.2470 H   0  0  0  0  0  0  0  0  0  0  0  0
    4.6633    0.6901    0.7054 H   0  0  0  0  0  0  0  0  0  0  0  0
    5.0442    2.4072    0.9932 H   0  0  0  0  0  0  0  0  0  0  0  0
    9.2274    1.3996   -0.4821 H   0  0  0  0  0  0  0  0  0  0  0  0
    9.3784   -0.1536    0.4032 H   0  0  0  0  0  0  0  0  0  0  0  0
    8.4982    0.1867   -2.5381 H   0  0  0  0  0  0  0  0  0  0  0  0
   12.1249    1.1027   -2.4678 H   0  0  0  0  0  0  0  0  0  0  0  0
    8.5177   -2.1346   -2.5769 H   0  0  0  0  0  0  0  0  0  0  0  0
    9.2188   -2.2644   -1.0447 H   0  0  0  0  0  0  0  0  0  0  0  0
    8.6457    0.3266    2.7450 H   0  0  0  0  0  0  0  0  0  0  0  0
  1  2  1  0
  2  3  1  0
  3  4  1  0
  4  5  1  0
  5  6  1  0
  6  7  1  0
  7  8  1  0
  8  9  1  0
  9 10  1  0
 10 11  1  0
 11 12  2  0
 12 13  1  0
 13 14  2  0
 14 15  1  0
 15 16  2  0
 16 17  1  0
 17 18  1  0
 18 19  1  0
 19 20  2  0
 19 21  1  0
 21 22  1  0
 22 23  1  0
 23 24  1  0
 24 25  1  0
 25 26  1  0
 26 27  2  0
 26 28  1  0
 28 29  1  0
 29 30  1  0
 30 31  1  0
 31 32  2  0
 31 33  1  0
 30 34  1  0
 26 35  1  0
 16 11  1  0
  1 36  1  0
  1 37  1  0
  1 38  1  0
  2 39  1  0
  2 40  1  0
  3 41  1  0
  3 42  1  0
  4 43  1  0
  4 44  1  0
  5 45  1  0
  5 46  1  0
  6 47  1  0
  6 48  1  0
  7 49  1  0
  7 50  1  0
  8 51  1  0
  8 52  1  0
  9 53  1  0
  9 54  1  0
 12 55  1  0
 13 56  1  0
 14 57  1  0
 15 58  1  0
 17 59  1  0
 17 60  1  0
 18 61  1  0
 18 62  1  0
 22 63  1  0
 22 64  1  0
 23 65  1  0
 23 66  1  0
 24 67  1  0
 24 68  1  0
 29 69  1  0
 29 70  1  0
 30 71  1  6
 33 72  1  0
 34 73  1  0
 34 74  1  0
 35 75  1  0
M  END
>  <Ligand ID>  (1) 
LIG0004289

>  <Ligand>  (1) 
CHEMBL3577178

>  <SMILES>  (1) 
CCCCCCCCCOc1ccccc1CCC(=O)OCCCOP(=O)(OC[C@@H](C(=O)O)N)O

>  <CID>  (1) 
122177524.0

>  <ChEMBL ID>  (1) 
nan

>  <InChiKey>  (1) 
OXBAEVIAVYNLMH-NRFANRHFSA-N

>  <InChi>  (1) 
InChI=1S/C24H40NO9P/c1-2-3-4-5-6-7-10-16-31-22-13-9-8-12-20(22)14-15-23(26)32-17-11-18-33-35(29,30)34-19-21(25)24(27)28/h8-9,12-13,21H,2-7,10-11,14-19,25H2,1H3,(H,27,28)(H,29,30)/t21-/m0/s1

>  <IUPAC Name>  (1) 
(2S)-2-amino-3-[hydroxy-[3-[3-(2-nonoxyphenyl)propanoyloxy]propoxy]phosphoryl]oxypropanoic acid

$$$$
