
     RDKit          3D

 33 32  0  0  0  0  0  0  0  0999 V2000
   -2.9571   -0.9969   -1.8938 O   0  0  0  0  0  0  0  0  0  0  0  0
   -2.7209   -0.2719   -0.7305 C   0  0  2  0  0  0  0  0  0  0  0  0
   -1.5878    0.6830   -1.0216 C   0  0  0  0  0  0  0  0  0  0  0  0
   -0.3763   -0.1824   -0.6517 C   0  0  2  0  0  0  0  0  0  0  0  0
   -0.7992   -0.7819    0.5039 O   0  0  0  0  0  0  0  0  0  0  0  0
   -2.1330   -1.1237    0.3647 C   0  0  1  0  0  0  0  0  0  0  0  0
   -2.8289   -0.7107    1.6569 C   0  0  0  0  0  0  0  0  0  0  0  0
    0.7549    0.7838   -0.4617 C   0  0  0  0  0  0  0  0  0  0  0  0
    1.9565    0.2923    0.0762 N   0  0  0  0  0  0  0  0  0  0  0  0
    2.3488    1.1733    1.1760 C   0  0  0  0  0  0  0  0  0  0  0  0
    3.0568    0.4043   -0.8853 C   0  0  0  0  0  0  0  0  0  0  0  0
    1.9616   -1.0323    0.6228 C   0  0  0  0  0  0  0  0  0  0  0  0
    0.0000    0.0000    0.0000 Cl  0  0  0  0  0  0  0  0  0  0  0  0
   -2.9768   -0.3237   -2.6351 H   0  0  0  0  0  0  0  0  0  0  0  0
   -3.6163    0.2772   -0.4191 H   0  0  0  0  0  0  0  0  0  0  0  0
   -1.6666    1.5017   -0.2906 H   0  0  0  0  0  0  0  0  0  0  0  0
   -1.5520    1.0503   -2.0547 H   0  0  0  0  0  0  0  0  0  0  0  0
   -0.1998   -0.8764   -1.4929 H   0  0  0  0  0  0  0  0  0  0  0  0
   -2.3327   -2.1840    0.1878 H   0  0  0  0  0  0  0  0  0  0  0  0
   -2.6108    0.3620    1.8123 H   0  0  0  0  0  0  0  0  0  0  0  0
   -2.4372   -1.2807    2.5231 H   0  0  0  0  0  0  0  0  0  0  0  0
   -3.9242   -0.8372    1.5485 H   0  0  0  0  0  0  0  0  0  0  0  0
    0.9545    1.2112   -1.4768 H   0  0  0  0  0  0  0  0  0  0  0  0
    0.3342    1.6471    0.1113 H   0  0  0  0  0  0  0  0  0  0  0  0
    1.5380    1.0602    1.9387 H   0  0  0  0  0  0  0  0  0  0  0  0
    3.3266    0.8560    1.5499 H   0  0  0  0  0  0  0  0  0  0  0  0
    2.3458    2.2406    0.8140 H   0  0  0  0  0  0  0  0  0  0  0  0
    3.9981    0.4262   -0.2925 H   0  0  0  0  0  0  0  0  0  0  0  0
    2.9412    1.3696   -1.4419 H   0  0  0  0  0  0  0  0  0  0  0  0
    3.1129   -0.4671   -1.5528 H   0  0  0  0  0  0  0  0  0  0  0  0
    3.0053   -1.4523    0.5196 H   0  0  0  0  0  0  0  0  0  0  0  0
    1.7866   -1.0599    1.7288 H   0  0  0  0  0  0  0  0  0  0  0  0
    1.2979   -1.7577    0.1664 H   0  0  0  0  0  0  0  0  0  0  0  0
  1  2  1  0
  2  3  1  0
  3  4  1  0
  4  5  1  0
  5  6  1  0
  6  7  1  0
  4  8  1  0
  8  9  1  0
  9 10  1  0
  9 11  1  0
  9 12  1  0
  6  2  1  0
  1 14  1  0
  2 15  1  1
  3 16  1  0
  3 17  1  0
  4 18  1  6
  6 19  1  6
  7 20  1  0
  7 21  1  0
  7 22  1  0
  8 23  1  0
  8 24  1  0
 10 25  1  0
 10 26  1  0
 10 27  1  0
 11 28  1  0
 11 29  1  0
 11 30  1  0
 12 31  1  0
 12 32  1  0
 12 33  1  0
M  CHG  2   9   1  13  -1
M  END
>  <Ligand ID>  (1) 
LIG0002266

>  <Ligand>  (1) 
(+)-Muscarine chloride

>  <SMILES>  (1) 
O[C@@H]1C[C@H](O[C@H]1C)C[N+](C)(C)C.[Cl-]

>  <CID>  (1) 
16817.0

>  <ChEMBL ID>  (1) 
nan

>  <InChiKey>  (1) 
WUFRNEJYZWHXLC-CTERPIQNSA-M

>  <InChi>  (1) 
InChI=1S/C9H20NO2.ClH/c1-7-9(11)5-8(12-7)6-10(2,3)4;/h7-9,11H,5-6H2,1-4H3;1H/q+1;/p-1/t7-,8-,9+;/m0./s1

>  <IUPAC Name>  (1) 
[(2S,4R,5S)-4-hydroxy-5-methyloxolan-2-yl]methyl-trimethylazanium;chloride

$$$$
