
     RDKit          3D

 30 31  0  0  0  0  0  0  0  0999 V2000
   -1.1068   -2.7482   -1.3530 O   0  0  0  0  0  0  0  0  0  0  0  0
   -1.6796   -2.0000   -0.3302 C   0  0  0  0  0  0  0  0  0  0  0  0
   -1.9202   -2.4808    0.8119 O   0  0  0  0  0  0  0  0  0  0  0  0
   -2.0397   -0.5635   -0.5530 C   0  0  1  0  0  0  0  0  0  0  0  0
   -1.5533    0.3271    0.5237 C   0  0  1  0  0  0  0  0  0  0  0  0
   -0.1561    0.5197    0.9303 C   0  0  2  0  0  0  0  0  0  0  0  0
   -0.8873    1.6095    0.1677 C   0  0  2  0  0  0  0  0  0  0  0  0
   -1.2032    2.8507    0.9173 C   0  0  0  0  0  0  0  0  0  0  0  0
   -1.3858    2.7688    2.1528 O   0  0  0  0  0  0  0  0  0  0  0  0
   -1.3079    4.0980    0.3275 O   0  0  0  0  0  0  0  0  0  0  0  0
    1.0297   -0.0108    0.2781 C   0  0  0  0  0  0  0  0  0  0  0  0
    1.8864   -0.8099    1.0493 C   0  0  0  0  0  0  0  0  0  0  0  0
    3.0469   -1.3456    0.5167 C   0  0  0  0  0  0  0  0  0  0  0  0
    3.4141   -1.1218   -0.7866 C   0  0  0  0  0  0  0  0  0  0  0  0
    2.5848   -0.3387   -1.5595 C   0  0  0  0  0  0  0  0  0  0  0  0
    1.4232    0.1956   -1.0201 C   0  0  0  0  0  0  0  0  0  0  0  0
   -1.7050   -0.1661   -1.8979 N   0  0  0  0  0  0  0  0  0  0  0  0
   -0.5406   -3.5359   -1.0674 H   0  0  0  0  0  0  0  0  0  0  0  0
   -3.1791   -0.5654   -0.5430 H   0  0  0  0  0  0  0  0  0  0  0  0
   -2.3049    0.4598    1.3642 H   0  0  0  0  0  0  0  0  0  0  0  0
    0.0141    0.6669    2.0452 H   0  0  0  0  0  0  0  0  0  0  0  0
   -0.7447    1.7741   -0.8981 H   0  0  0  0  0  0  0  0  0  0  0  0
   -1.4133    4.9553    0.8618 H   0  0  0  0  0  0  0  0  0  0  0  0
    1.6654   -1.0334    2.0899 H   0  0  0  0  0  0  0  0  0  0  0  0
    3.6838   -1.9618    1.1540 H   0  0  0  0  0  0  0  0  0  0  0  0
    4.3236   -1.5483   -1.1853 H   0  0  0  0  0  0  0  0  0  0  0  0
    2.8522   -0.1449   -2.5973 H   0  0  0  0  0  0  0  0  0  0  0  0
    0.8339    0.8055   -1.6819 H   0  0  0  0  0  0  0  0  0  0  0  0
   -1.1381   -0.8821   -2.4003 H   0  0  0  0  0  0  0  0  0  0  0  0
   -2.4922    0.2263   -2.4441 H   0  0  0  0  0  0  0  0  0  0  0  0
  1  2  1  0
  2  3  2  0
  2  4  1  0
  4  5  1  0
  5  6  1  0
  6  7  1  0
  7  8  1  0
  8  9  2  0
  8 10  1  0
  6 11  1  0
 11 12  2  0
 12 13  1  0
 13 14  2  0
 14 15  1  0
 15 16  2  0
  4 17  1  0
  7  5  1  0
 16 11  1  0
  1 18  1  0
  4 19  1  6
  5 20  1  1
  6 21  1  1
  7 22  1  6
 10 23  1  0
 12 24  1  0
 13 25  1  0
 14 26  1  0
 15 27  1  0
 16 28  1  0
 17 29  1  0
 17 30  1  0
M  END
>  <Ligand ID>  (1) 
LIG0002581

>  <Ligand>  (1) 
CHEMBL2115151

>  <SMILES>  (1) 
OC(=O)[C@@H]([C@H]1[C@H]([C@@H]1C(=O)O)c1ccccc1)N

>  <CID>  (1) 
10704896.0

>  <ChEMBL ID>  (1) 
nan

>  <InChiKey>  (1) 
IFLWVSHRWAIVQF-XFWSIPNHSA-N

>  <InChi>  (1) 
InChI=1S/C12H13NO4/c13-10(12(16)17)8-7(9(8)11(14)15)6-4-2-1-3-5-6/h1-5,7-10H,13H2,(H,14,15)(H,16,17)/t7-,8+,9+,10-/m1/s1

>  <IUPAC Name>  (1) 
(1S,2S,3R)-2-[(R)-amino(carboxy)methyl]-3-phenylcyclopropane-1-carboxylic acid

$$$$
