
     RDKit          3D

 26 26  0  0  0  0  0  0  0  0999 V2000
    3.7441    0.1053   -0.4935 N   0  0  0  0  0  0  0  0  0  0  0  0
    2.7878    0.9989    0.1453 C   0  0  0  0  0  0  0  0  0  0  0  0
    1.4147    0.4504   -0.1934 C   0  0  1  0  0  0  0  0  0  0  0  0
    1.2522   -0.9756    0.3337 C   0  0  0  0  0  0  0  0  0  0  0  0
    0.4134    0.1714    0.8210 C   0  0  2  0  0  0  0  0  0  0  0  0
   -1.0098    0.0708    0.4484 C   0  0  0  0  0  0  0  0  0  0  0  0
   -1.7425   -0.9485    1.0664 C   0  0  0  0  0  0  0  0  0  0  0  0
   -3.0930   -1.1376    0.7587 C   0  0  0  0  0  0  0  0  0  0  0  0
   -3.7212   -0.3196   -0.1603 C   0  0  0  0  0  0  0  0  0  0  0  0
   -3.0071    0.6873   -0.7737 C   0  0  0  0  0  0  0  0  0  0  0  0
   -1.6567    0.8683   -0.4583 C   0  0  0  0  0  0  0  0  0  0  0  0
   -0.7712    2.3070   -1.3329 Br  0  0  0  0  0  0  0  0  0  0  0  0
    0.6867    0.0000    0.0000 Cl  0  0  0  0  0  0  0  0  0  0  0  0
    4.7237    0.3033   -0.2440 H   0  0  0  0  0  0  0  0  0  0  0  0
    3.4292   -0.8710   -0.2972 H   0  0  0  0  0  0  0  0  0  0  0  0
    2.9526    2.0187   -0.2565 H   0  0  0  0  0  0  0  0  0  0  0  0
    2.9803    0.9344    1.2383 H   0  0  0  0  0  0  0  0  0  0  0  0
    1.1372    0.6373   -1.2338 H   0  0  0  0  0  0  0  0  0  0  0  0
    0.8471   -1.6828   -0.4068 H   0  0  0  0  0  0  0  0  0  0  0  0
    1.9669   -1.3980    1.0391 H   0  0  0  0  0  0  0  0  0  0  0  0
    0.5461    0.4423    1.8956 H   0  0  0  0  0  0  0  0  0  0  0  0
   -1.3004   -1.6162    1.7920 H   0  0  0  0  0  0  0  0  0  0  0  0
   -3.6327   -1.9204    1.2413 H   0  0  0  0  0  0  0  0  0  0  0  0
   -4.7614   -0.4537   -0.4078 H   0  0  0  0  0  0  0  0  0  0  0  0
   -3.4992    1.3279   -1.4934 H   0  0  0  0  0  0  0  0  0  0  0  0
   -0.6867    0.0000    0.0000 H   0  0  0  0  0  0  0  0  0  0  0  0
  1  2  1  0
  2  3  1  0
  3  4  1  0
  4  5  1  0
  5  6  1  0
  6  7  2  0
  7  8  1  0
  8  9  2  0
  9 10  1  0
 10 11  2  0
 11 12  1  0
  5  3  1  0
 11  6  1  0
  1 14  1  0
  1 15  1  0
  2 16  1  0
  2 17  1  0
  3 18  1  6
  4 19  1  0
  4 20  1  0
  5 21  1  1
  7 22  1  0
  8 23  1  0
  9 24  1  0
 10 25  1  0
 13 26  1  0
M  END
>  <Ligand ID>  (1) 
LIG0002389

>  <Ligand>  (1) 
CHEMBL467736

>  <SMILES>  (1) 
NC[C@H]1C[C@@H]1c1ccccc1Br.Cl

>  <CID>  (1) 
44572750.0

>  <ChEMBL ID>  (1) 
nan

>  <InChiKey>  (1) 
SYDKDXKLTMXNAA-JXLXBRSFSA-N

>  <InChi>  (1) 
InChI=1S/C10H12BrN.ClH/c11-10-4-2-1-3-8(10)9-5-7(9)6-12;/h1-4,7,9H,5-6,12H2;1H/t7-,9+;/m1./s1

>  <IUPAC Name>  (1) 
[(1S,2S)-2-(2-bromophenyl)cyclopropyl]methanamine;hydrochloride

$$$$
