
     RDKit          3D

 65 69  0  0  0  0  0  0  0  0999 V2000
   -6.7190    4.0363    0.1832 C   0  0  0  0  0  0  0  0  0  0  0  0
   -5.9763    3.1895    1.0398 O   0  0  0  0  0  0  0  0  0  0  0  0
   -5.0695    2.2963    0.5414 C   0  0  0  0  0  0  0  0  0  0  0  0
   -4.7811    2.1191   -0.7922 C   0  0  0  0  0  0  0  0  0  0  0  0
   -3.8550    1.2020   -1.2458 C   0  0  0  0  0  0  0  0  0  0  0  0
   -3.1619    0.4027   -0.3438 C   0  0  0  0  0  0  0  0  0  0  0  0
   -3.4498    0.5790    0.9942 C   0  0  0  0  0  0  0  0  0  0  0  0
   -4.3759    1.4971    1.4364 C   0  0  0  0  0  0  0  0  0  0  0  0
   -2.8126   -0.1628    1.9305 F   0  0  0  0  0  0  0  0  0  0  0  0
   -2.1803   -0.5666   -0.8204 C   0  0  0  0  0  0  0  0  0  0  0  0
   -1.0597   -0.1985   -1.4618 N   0  0  0  0  0  0  0  0  0  0  0  0
   -0.1312   -1.0274   -1.9163 N   0  0  0  0  0  0  0  0  0  0  0  0
    1.0621   -0.5709   -2.6026 C   0  0  0  0  0  0  0  0  0  0  0  0
    2.2190   -0.2903   -1.7101 C   0  0  0  0  0  0  0  0  0  0  0  0
    2.6992   -1.4488   -0.9088 C   0  0  0  0  0  0  0  0  0  0  0  0
    3.9406   -1.0811   -0.1410 C   0  0  0  0  0  0  0  0  0  0  0  0
    4.2410    0.3594   -0.1070 C   0  0  0  0  0  0  0  0  0  0  0  0
    3.3415    1.3564   -0.4136 C   0  0  0  0  0  0  0  0  0  0  0  0
    1.9671    0.9302   -0.8121 C   0  0  0  0  0  0  0  0  0  0  0  0
    3.6404    2.6990   -0.3748 C   0  0  0  0  0  0  0  0  0  0  0  0
    4.9191    3.0493   -0.0060 C   0  0  0  0  0  0  0  0  0  0  0  0
    5.8323    2.0637    0.3040 C   0  0  0  0  0  0  0  0  0  0  0  0
    5.5412    0.7164    0.2681 C   0  0  0  0  0  0  0  0  0  0  0  0
    6.4571   -0.2750    0.5784 O   0  0  0  0  0  0  0  0  0  0  0  0
    7.7772   -0.1063    0.9735 C   0  0  0  0  0  0  0  0  0  0  0  0
    7.8925    0.6548    2.2400 C   0  0  0  0  0  0  0  0  0  0  0  0
    9.0583    0.9004    2.6859 O   0  0  0  0  0  0  0  0  0  0  0  0
    6.8083    1.1146    2.9696 O   0  0  0  0  0  0  0  0  0  0  0  0
   -0.3381   -2.3494   -1.7129 C   0  0  0  0  0  0  0  0  0  0  0  0
    0.4871   -3.2288   -2.1072 O   0  0  0  0  0  0  0  0  0  0  0  0
   -1.4602   -2.8334   -1.0629 C   0  0  0  0  0  0  0  0  0  0  0  0
   -2.3872   -1.9148   -0.6153 C   0  0  0  0  0  0  0  0  0  0  0  0
   -3.5623   -2.4470    0.0657 C   0  0  0  0  0  0  0  0  0  0  0  0
   -3.4899   -3.2008    1.2200 C   0  0  0  0  0  0  0  0  0  0  0  0
   -4.6853   -3.6410    1.7584 C   0  0  0  0  0  0  0  0  0  0  0  0
   -5.9096   -3.3571    1.1923 C   0  0  0  0  0  0  0  0  0  0  0  0
   -5.9840   -2.5997    0.0324 C   0  0  0  0  0  0  0  0  0  0  0  0
   -4.7899   -2.1561   -0.5112 C   0  0  0  0  0  0  0  0  0  0  0  0
   -7.6174    4.3448    0.7791 H   0  0  0  0  0  0  0  0  0  0  0  0
   -6.1902    4.9563   -0.0963 H   0  0  0  0  0  0  0  0  0  0  0  0
   -7.0584    3.5106   -0.7455 H   0  0  0  0  0  0  0  0  0  0  0  0
   -5.3011    2.7213   -1.5009 H   0  0  0  0  0  0  0  0  0  0  0  0
   -3.6582    1.0951   -2.3090 H   0  0  0  0  0  0  0  0  0  0  0  0
   -4.5702    1.6029    2.4891 H   0  0  0  0  0  0  0  0  0  0  0  0
    0.8670    0.3796   -3.1750 H   0  0  0  0  0  0  0  0  0  0  0  0
    1.4063   -1.2824   -3.3817 H   0  0  0  0  0  0  0  0  0  0  0  0
    3.0618    0.0062   -2.3775 H   0  0  0  0  0  0  0  0  0  0  0  0
    1.9245   -1.8415   -0.2197 H   0  0  0  0  0  0  0  0  0  0  0  0
    3.0118   -2.2394   -1.6523 H   0  0  0  0  0  0  0  0  0  0  0  0
    3.8011   -1.3837    0.9367 H   0  0  0  0  0  0  0  0  0  0  0  0
    4.8346   -1.6824   -0.4606 H   0  0  0  0  0  0  0  0  0  0  0  0
    1.4260    1.6891   -1.3794 H   0  0  0  0  0  0  0  0  0  0  0  0
    1.4416    0.5869    0.1019 H   0  0  0  0  0  0  0  0  0  0  0  0
    2.9186    3.4737   -0.6195 H   0  0  0  0  0  0  0  0  0  0  0  0
    5.2030    4.0913    0.0397 H   0  0  0  0  0  0  0  0  0  0  0  0
    6.8231    2.4018    0.5802 H   0  0  0  0  0  0  0  0  0  0  0  0
    8.2285   -1.1154    1.0674 H   0  0  0  0  0  0  0  0  0  0  0  0
    8.3256    0.3931    0.1441 H   0  0  0  0  0  0  0  0  0  0  0  0
    6.8743    1.7689    3.7396 H   0  0  0  0  0  0  0  0  0  0  0  0
   -1.6157   -3.8907   -0.9055 H   0  0  0  0  0  0  0  0  0  0  0  0
   -2.5238   -3.4191    1.6579 H   0  0  0  0  0  0  0  0  0  0  0  0
   -4.6739   -4.2440    2.6762 H   0  0  0  0  0  0  0  0  0  0  0  0
   -6.8522   -3.6964    1.6047 H   0  0  0  0  0  0  0  0  0  0  0  0
   -6.9341   -2.3716   -0.4187 H   0  0  0  0  0  0  0  0  0  0  0  0
   -4.8577   -1.5655   -1.4168 H   0  0  0  0  0  0  0  0  0  0  0  0
  1  2  1  0
  2  3  1  0
  3  4  2  0
  4  5  1  0
  5  6  2  0
  6  7  1  0
  7  8  2  0
  7  9  1  0
  6 10  1  0
 10 11  2  0
 11 12  1  0
 12 13  1  0
 13 14  1  0
 14 15  1  0
 15 16  1  0
 16 17  1  0
 17 18  2  0
 18 19  1  0
 18 20  1  0
 20 21  2  0
 21 22  1  0
 22 23  2  0
 23 24  1  0
 24 25  1  0
 25 26  1  0
 26 27  2  0
 26 28  1  0
 12 29  1  0
 29 30  2  0
 29 31  1  0
 31 32  2  0
 32 33  1  0
 33 34  2  0
 34 35  1  0
 35 36  2  0
 36 37  1  0
 37 38  2  0
  8  3  1  0
 32 10  1  0
 38 33  1  0
 19 14  1  0
 23 17  1  0
  1 39  1  0
  1 40  1  0
  1 41  1  0
  4 42  1  0
  5 43  1  0
  8 44  1  0
 13 45  1  0
 13 46  1  0
 14 47  1  0
 15 48  1  0
 15 49  1  0
 16 50  1  0
 16 51  1  0
 19 52  1  0
 19 53  1  0
 20 54  1  0
 21 55  1  0
 22 56  1  0
 25 57  1  0
 25 58  1  0
 28 59  1  0
 31 60  1  0
 34 61  1  0
 35 62  1  0
 36 63  1  0
 37 64  1  0
 38 65  1  0
M  END
>  <Ligand ID>  (1) 
LIG0004783

>  <Ligand>  (1) 
CHEMBL3398218

>  <SMILES>  (1) 
COc1ccc(c(c1)F)c1nn(CC2CCc3c(C2)cccc3OCC(=O)O)c(=O)cc1c1ccccc1

>  <CID>  (1) 
118727297.0

>  <ChEMBL ID>  (1) 
nan

>  <InChiKey>  (1) 
SIPCNNPEUCKFSM-UHFFFAOYSA-N

>  <InChi>  (1) 
InChI=1S/C30H27FN2O5/c1-37-22-11-13-24(26(31)15-22)30-25(20-6-3-2-4-7-20)16-28(34)33(32-30)17-19-10-12-23-21(14-19)8-5-9-27(23)38-18-29(35)36/h2-9,11,13,15-16,19H,10,12,14,17-18H2,1H3,(H,35,36)

>  <IUPAC Name>  (1) 
2-[[6-[[3-(2-fluoro-4-methoxyphenyl)-6-oxo-4-phenylpyridazin-1-yl]methyl]-5,6,7,8-tetrahydronaphthalen-1-yl]oxy]acetic acid

$$$$
