
     RDKit          3D

 61 65  0  0  0  0  0  0  0  0999 V2000
  -10.1105    0.4762   -0.2495 Cl  0  0  0  0  0  0  0  0  0  0  0  0
   -8.3763    0.2728   -0.2328 C   0  0  0  0  0  0  0  0  0  0  0  0
   -7.6194    0.8103    0.7838 C   0  0  0  0  0  0  0  0  0  0  0  0
   -6.2488    0.6492    0.7969 C   0  0  0  0  0  0  0  0  0  0  0  0
   -5.6120   -0.0488   -0.2006 C   0  0  0  0  0  0  0  0  0  0  0  0
   -6.3714   -0.5797   -1.2070 C   0  0  0  0  0  0  0  0  0  0  0  0
   -7.7472   -0.4325   -1.2436 C   0  0  0  0  0  0  0  0  0  0  0  0
   -5.5295   -1.1968   -2.0333 N   0  0  0  0  0  0  0  0  0  0  0  0
   -4.2836   -1.0492   -1.5475 C   0  0  0  0  0  0  0  0  0  0  0  0
   -3.2764   -1.5315   -2.1235 O   0  0  0  0  0  0  0  0  0  0  0  0
   -4.2961   -0.3403   -0.4081 N   0  0  0  0  0  0  0  0  0  0  0  0
   -3.1773    0.0431    0.4309 C   0  0  0  0  0  0  0  0  0  0  0  0
   -2.1921   -1.0429    0.6321 C   0  0  0  0  0  0  0  0  0  0  0  0
   -0.9055   -0.4759    1.2086 C   0  0  0  0  0  0  0  0  0  0  0  0
   -0.4796    0.5040    0.3106 N   0  0  0  0  0  0  0  0  0  0  0  0
   -1.2600    1.6749    0.4167 C   0  0  0  0  0  0  0  0  0  0  0  0
   -2.6471    1.3446   -0.0760 C   0  0  0  0  0  0  0  0  0  0  0  0
    0.8405    0.5809   -0.1498 C   0  0  0  0  0  0  0  0  0  0  0  0
    1.8603    0.7755    0.9080 C   0  0  0  0  0  0  0  0  0  0  0  0
    2.8565   -0.2929    1.1255 C   0  0  0  0  0  0  0  0  0  0  0  0
    3.2377   -1.0469   -0.0430 N   0  0  0  0  0  0  0  0  0  0  0  0
    2.0265   -1.5978   -0.5881 C   0  0  0  0  0  0  0  0  0  0  0  0
    1.1194   -0.5322   -1.1181 C   0  0  0  0  0  0  0  0  0  0  0  0
    4.0039   -0.2800   -0.9817 C   0  0  0  0  0  0  0  0  0  0  0  0
    5.2622    0.2038   -0.3606 C   0  0  0  0  0  0  0  0  0  0  0  0
    5.4177    1.5238    0.0255 C   0  0  0  0  0  0  0  0  0  0  0  0
    6.5705    2.0099    0.6029 C   0  0  0  0  0  0  0  0  0  0  0  0
    7.6029    1.1410    0.7995 C   0  0  0  0  0  0  0  0  0  0  0  0
    7.4660   -0.1731    0.4222 C   0  0  0  0  0  0  0  0  0  0  0  0
    6.3022   -0.6710   -0.1624 C   0  0  0  0  0  0  0  0  0  0  0  0
    6.2929   -2.0343   -0.4968 N   0  0  0  0  0  0  0  0  0  0  0  0
    5.6901   -2.5538   -1.4421 O   0  0  0  0  0  0  0  0  0  0  0  0
    7.0317   -2.8873    0.3061 O   0  0  0  0  0  0  0  0  0  0  0  0
   -8.1438    1.3531    1.5543 H   0  0  0  0  0  0  0  0  0  0  0  0
   -5.6998    1.0913    1.6187 H   0  0  0  0  0  0  0  0  0  0  0  0
   -8.3640   -0.8475   -2.0353 H   0  0  0  0  0  0  0  0  0  0  0  0
   -5.8412   -1.6992   -2.9036 H   0  0  0  0  0  0  0  0  0  0  0  0
   -3.6142    0.2602    1.4483 H   0  0  0  0  0  0  0  0  0  0  0  0
   -1.8767   -1.6030   -0.2580 H   0  0  0  0  0  0  0  0  0  0  0  0
   -2.6367   -1.8077    1.3143 H   0  0  0  0  0  0  0  0  0  0  0  0
   -0.2095   -1.2959    1.4326 H   0  0  0  0  0  0  0  0  0  0  0  0
   -1.1941   -0.0456    2.2030 H   0  0  0  0  0  0  0  0  0  0  0  0
   -1.3959    1.9815    1.4927 H   0  0  0  0  0  0  0  0  0  0  0  0
   -0.9029    2.5477   -0.1738 H   0  0  0  0  0  0  0  0  0  0  0  0
   -2.6658    1.3407   -1.1848 H   0  0  0  0  0  0  0  0  0  0  0  0
   -3.3087    2.1697    0.2544 H   0  0  0  0  0  0  0  0  0  0  0  0
    0.8642    1.5181   -0.7809 H   0  0  0  0  0  0  0  0  0  0  0  0
    1.2889    0.8860    1.8774 H   0  0  0  0  0  0  0  0  0  0  0  0
    2.4079    1.7610    0.8427 H   0  0  0  0  0  0  0  0  0  0  0  0
    3.8241    0.1429    1.5131 H   0  0  0  0  0  0  0  0  0  0  0  0
    2.5622   -1.0345    1.9120 H   0  0  0  0  0  0  0  0  0  0  0  0
    2.2949   -2.2600   -1.4363 H   0  0  0  0  0  0  0  0  0  0  0  0
    1.5929   -2.2529    0.1818 H   0  0  0  0  0  0  0  0  0  0  0  0
    0.1614   -1.0288   -1.4250 H   0  0  0  0  0  0  0  0  0  0  0  0
    1.5665   -0.1834   -2.0764 H   0  0  0  0  0  0  0  0  0  0  0  0
    3.4282    0.6363   -1.2837 H   0  0  0  0  0  0  0  0  0  0  0  0
    4.2528   -0.8058   -1.9030 H   0  0  0  0  0  0  0  0  0  0  0  0
    4.6024    2.2431   -0.1218 H   0  0  0  0  0  0  0  0  0  0  0  0
    6.6954    3.0469    0.9075 H   0  0  0  0  0  0  0  0  0  0  0  0
    8.5453    1.4719    1.2548 H   0  0  0  0  0  0  0  0  0  0  0  0
    8.3176   -0.8293    0.5992 H   0  0  0  0  0  0  0  0  0  0  0  0
  1  2  1  0
  2  3  2  0
  3  4  1  0
  4  5  2  0
  5  6  1  0
  6  7  2  0
  6  8  1  0
  8  9  1  0
  9 10  2  0
  9 11  1  0
 11 12  1  0
 12 13  1  0
 13 14  1  0
 14 15  1  0
 15 16  1  0
 16 17  1  0
 15 18  1  0
 18 19  1  0
 19 20  1  0
 20 21  1  0
 21 22  1  0
 22 23  1  0
 21 24  1  0
 24 25  1  0
 25 26  2  0
 26 27  1  0
 27 28  2  0
 28 29  1  0
 29 30  2  0
 30 31  1  0
 31 32  2  0
 31 33  1  0
  7  2  1  0
 17 12  1  0
 23 18  1  0
 30 25  1  0
 11  5  1  0
  3 34  1  0
  4 35  1  0
  7 36  1  0
  8 37  1  0
 12 38  1  0
 13 39  1  0
 13 40  1  0
 14 41  1  0
 14 42  1  0
 16 43  1  0
 16 44  1  0
 17 45  1  0
 17 46  1  0
 18 47  1  0
 19 48  1  0
 19 49  1  0
 20 50  1  0
 20 51  1  0
 22 52  1  0
 22 53  1  0
 23 54  1  0
 23 55  1  0
 24 56  1  0
 24 57  1  0
 26 58  1  0
 27 59  1  0
 28 60  1  0
 29 61  1  0
M  CHG  2  31   1  33  -1
M  END
>  <Ligand ID>  (1) 
LIG0000865

>  <Ligand>  (1) 
CHEMBL514689

>  <SMILES>  (1) 
Clc1ccc2c(c1)[nH]c(=O)n2C1CCN(CC1)C1CCN(CC1)Cc1ccccc1[N+](=O)[O-]

>  <CID>  (1) 
44578977.0

>  <ChEMBL ID>  (1) 
nan

>  <InChiKey>  (1) 
XRBAANKNSRDGQL-UHFFFAOYSA-N

>  <InChi>  (1) 
InChI=1S/C24H28ClN5O3/c25-18-5-6-23-21(15-18)26-24(31)29(23)20-9-13-28(14-10-20)19-7-11-27(12-8-19)16-17-3-1-2-4-22(17)30(32)33/h1-6,15,19-20H,7-14,16H2,(H,26,31)

>  <IUPAC Name>  (1) 
6-chloro-3-[1-[1-[(2-nitrophenyl)methyl]piperidin-4-yl]piperidin-4-yl]-1H-benzimidazol-2-one

$$$$
