
     RDKit          3D

 32 34  0  0  0  0  0  0  0  0999 V2000
    4.5795    0.7892    0.5308 C   0  0  0  0  0  0  0  0  0  0  0  0
    3.5718    1.9088    0.6405 C   0  0  0  0  0  0  0  0  0  0  0  0
    2.3243    1.2308    0.3760 N   0  0  0  0  0  0  0  0  0  0  0  0
    2.5199    0.0931   -0.1928 C   0  0  0  0  0  0  0  0  0  0  0  0
    3.9127   -0.1247   -0.3756 N   0  0  0  0  0  0  0  0  0  0  0  0
    1.3957   -0.8089   -0.5752 C   0  0  0  0  0  0  0  0  0  0  0  0
    0.1377   -0.2831   -0.2496 O   0  0  0  0  0  0  0  0  0  0  0  0
   -1.0028   -1.0122   -0.5462 C   0  0  0  0  0  0  0  0  0  0  0  0
   -0.9060   -2.2479   -1.1580 C   0  0  0  0  0  0  0  0  0  0  0  0
   -2.0014   -3.0213   -1.4788 C   0  0  0  0  0  0  0  0  0  0  0  0
   -3.2407   -2.5053   -1.1590 C   0  0  0  0  0  0  0  0  0  0  0  0
   -3.3365   -1.2723   -0.5485 C   0  0  0  0  0  0  0  0  0  0  0  0
   -2.2395   -0.4975   -0.2271 C   0  0  0  0  0  0  0  0  0  0  0  0
   -2.4434    0.7903    0.4160 C   0  0  0  0  0  0  0  0  0  0  0  0
   -1.5312    1.7344    0.8305 C   0  0  0  0  0  0  0  0  0  0  0  0
   -2.2001    2.8220    1.4004 C   0  0  0  0  0  0  0  0  0  0  0  0
   -3.4999    2.4978    1.3110 N   0  0  0  0  0  0  0  0  0  0  0  0
   -3.6532    1.3254    0.7437 N   0  0  0  0  0  0  0  0  0  0  0  0
    4.6229    0.3237    1.5428 H   0  0  0  0  0  0  0  0  0  0  0  0
    5.5762    1.1206    0.1734 H   0  0  0  0  0  0  0  0  0  0  0  0
    3.5811    2.4151    1.6269 H   0  0  0  0  0  0  0  0  0  0  0  0
    3.7466    2.6616   -0.1620 H   0  0  0  0  0  0  0  0  0  0  0  0
    4.2948   -0.8114   -1.0377 H   0  0  0  0  0  0  0  0  0  0  0  0
    1.4046   -1.0255   -1.6774 H   0  0  0  0  0  0  0  0  0  0  0  0
    1.5902   -1.7900   -0.0988 H   0  0  0  0  0  0  0  0  0  0  0  0
    0.0613   -2.6511   -1.4079 H   0  0  0  0  0  0  0  0  0  0  0  0
   -1.9233   -3.9891   -1.9581 H   0  0  0  0  0  0  0  0  0  0  0  0
   -4.1394   -3.0652   -1.3855 H   0  0  0  0  0  0  0  0  0  0  0  0
   -4.3529   -0.9196   -0.3208 H   0  0  0  0  0  0  0  0  0  0  0  0
   -0.4765    1.6956    0.7548 H   0  0  0  0  0  0  0  0  0  0  0  0
   -1.7659    3.7174    1.8166 H   0  0  0  0  0  0  0  0  0  0  0  0
   -4.6066    0.8994    0.5858 H   0  0  0  0  0  0  0  0  0  0  0  0
  1  2  1  0
  2  3  1  0
  3  4  2  0
  4  5  1  0
  4  6  1  0
  6  7  1  0
  7  8  1  0
  8  9  2  0
  9 10  1  0
 10 11  2  0
 11 12  1  0
 12 13  2  0
 13 14  1  0
 14 15  2  0
 15 16  1  0
 16 17  2  0
 17 18  1  0
  5  1  1  0
 13  8  1  0
 18 14  1  0
  1 19  1  0
  1 20  1  0
  2 21  1  0
  2 22  1  0
  5 23  1  0
  6 24  1  0
  6 25  1  0
  9 26  1  0
 10 27  1  0
 11 28  1  0
 12 29  1  0
 15 30  1  0
 16 31  1  0
 18 32  1  0
M  END
>  <Ligand ID>  (1) 
LIG0003194

>  <Ligand>  (1) 
CHEMBL344551

>  <SMILES>  (1) 
C1CN=C(N1)COc1ccccc1c1ccn[nH]1

>  <CID>  (1) 
44362150.0

>  <ChEMBL ID>  (1) 
nan

>  <InChiKey>  (1) 
YDKBQJBGZGYDNW-UHFFFAOYSA-N

>  <InChi>  (1) 
InChI=1S/C13H14N4O/c1-2-4-12(18-9-13-14-7-8-15-13)10(3-1)11-5-6-16-17-11/h1-6H,7-9H2,(H,14,15)(H,16,17)

>  <IUPAC Name>  (1) 
5-[2-(4,5-dihydro-1H-imidazol-2-ylmethoxy)phenyl]-1H-pyrazole

$$$$
