
     RDKit          3D

 82 84  0  0  0  0  0  0  0  0999 V2000
   -5.9858    3.8034    0.3393 N   0  0  0  0  0  0  0  0  0  0  0  0
   -5.5399    2.7947   -0.0922 C   0  0  0  0  0  0  0  0  0  0  0  0
   -5.0156    1.5485   -0.6291 C   0  0  0  0  0  0  0  0  0  0  0  0
   -5.3431    1.1821   -1.8580 C   0  0  0  0  0  0  0  0  0  0  0  0
   -6.2103    1.9595   -2.7333 C   0  0  0  0  0  0  0  0  0  0  0  0
   -7.1874    1.3080   -3.4806 C   0  0  0  0  0  0  0  0  0  0  0  0
   -7.9965    2.0441   -4.3236 C   0  0  0  0  0  0  0  0  0  0  0  0
   -7.8579    3.4063   -4.4408 C   0  0  0  0  0  0  0  0  0  0  0  0
   -6.8965    4.0779   -3.7114 C   0  0  0  0  0  0  0  0  0  0  0  0
   -6.0920    3.3402   -2.8724 C   0  0  0  0  0  0  0  0  0  0  0  0
   -8.6585    4.1843   -5.2832 O   0  0  0  0  0  0  0  0  0  0  0  0
   -4.1410    0.7771    0.2391 C   0  0  0  0  0  0  0  0  0  0  0  0
   -3.8880    1.2321    1.4135 O   0  0  0  0  0  0  0  0  0  0  0  0
   -3.5340   -0.4579   -0.1132 N   0  0  0  0  0  0  0  0  0  0  0  0
   -2.6802   -1.1112    0.8461 C   0  0  2  0  0  0  0  0  0  0  0  0
   -1.2759   -1.0430    0.2980 C   0  0  0  0  0  0  0  0  0  0  0  0
   -1.0586   -0.5870   -0.8514 O   0  0  0  0  0  0  0  0  0  0  0  0
   -0.2084   -1.5079    1.1299 N   0  0  0  0  0  0  0  0  0  0  0  0
    1.1619   -1.4965    0.7442 C   0  0  1  0  0  0  0  0  0  0  0  0
    1.9434   -0.4239    1.4233 C   0  0  0  0  0  0  0  0  0  0  0  0
    1.2552    0.3456    2.1842 O   0  0  0  0  0  0  0  0  0  0  0  0
    3.3374   -0.2499    1.2556 N   0  0  0  0  0  0  0  0  0  0  0  0
    3.9527    0.8803    2.0026 C   0  0  1  0  0  0  0  0  0  0  0  0
    4.7876    0.2845    3.0603 C   0  0  0  0  0  0  0  0  0  0  0  0
    4.9013   -0.9901    3.0874 O   0  0  0  0  0  0  0  0  0  0  0  0
    5.4862    0.9828    4.0676 N   0  0  0  0  0  0  0  0  0  0  0  0
    4.7760    1.7030    1.0818 C   0  0  0  0  0  0  0  0  0  0  0  0
    5.3953    2.8823    1.7676 C   0  0  0  0  0  0  0  0  0  0  0  0
    6.2159    3.7017    0.7497 C   0  0  0  0  0  0  0  0  0  0  0  0
    6.7983    4.8305    1.4091 N   0  0  0  0  0  0  0  0  0  0  0  0
    7.8845    5.3267    0.8903 C   0  0  0  0  0  0  0  0  0  0  0  0
    8.4560    4.7579   -0.2839 N   0  0  0  0  0  0  0  0  0  0  0  0
    8.4428    6.4493    1.5639 N   0  0  0  0  0  0  0  0  0  0  0  0
    1.8081   -2.8170    1.0350 C   0  0  0  0  0  0  0  0  0  0  0  0
    1.1944   -3.9628    0.3256 C   0  0  0  0  0  0  0  0  0  0  0  0
    1.6893   -4.2851   -0.9429 C   0  0  0  0  0  0  0  0  0  0  0  0
    1.1489   -5.3633   -1.6396 C   0  0  0  0  0  0  0  0  0  0  0  0
    0.1262   -6.1229   -1.0938 C   0  0  0  0  0  0  0  0  0  0  0  0
   -0.3670   -5.7986    0.1743 C   0  0  0  0  0  0  0  0  0  0  0  0
    0.1781   -4.7268    0.8535 C   0  0  0  0  0  0  0  0  0  0  0  0
   -3.0833   -2.4587    1.2783 C   0  0  0  0  0  0  0  0  0  0  0  0
   -3.1818   -3.5155    0.2862 C   0  0  0  0  0  0  0  0  0  0  0  0
   -2.9610   -3.5714   -1.0353 N   0  0  0  0  0  0  0  0  0  0  0  0
   -3.2109   -4.8050   -1.5157 C   0  0  0  0  0  0  0  0  0  0  0  0
   -3.6003   -5.5652   -0.4876 N   0  0  0  0  0  0  0  0  0  0  0  0
   -3.5943   -4.8180    0.6159 C   0  0  0  0  0  0  0  0  0  0  0  0
   -4.9601    0.2550   -2.2652 H   0  0  0  0  0  0  0  0  0  0  0  0
   -7.3524    0.2453   -3.4373 H   0  0  0  0  0  0  0  0  0  0  0  0
   -8.7664    1.5376   -4.9138 H   0  0  0  0  0  0  0  0  0  0  0  0
   -6.7926    5.1609   -3.8128 H   0  0  0  0  0  0  0  0  0  0  0  0
   -5.3458    3.8598   -2.3181 H   0  0  0  0  0  0  0  0  0  0  0  0
   -9.6450    4.2380   -5.1069 H   0  0  0  0  0  0  0  0  0  0  0  0
   -3.7525   -0.8224   -1.0646 H   0  0  0  0  0  0  0  0  0  0  0  0
   -2.6445   -0.4668    1.7685 H   0  0  0  0  0  0  0  0  0  0  0  0
   -0.4571   -1.8732    2.0735 H   0  0  0  0  0  0  0  0  0  0  0  0
    1.3095   -1.2814   -0.3440 H   0  0  0  0  0  0  0  0  0  0  0  0
    3.9005   -0.8713    0.6473 H   0  0  0  0  0  0  0  0  0  0  0  0
    3.1484    1.4569    2.4766 H   0  0  0  0  0  0  0  0  0  0  0  0
    6.4933    0.7306    4.2602 H   0  0  0  0  0  0  0  0  0  0  0  0
    4.9930    1.7425    4.6092 H   0  0  0  0  0  0  0  0  0  0  0  0
    4.1362    2.0591    0.2246 H   0  0  0  0  0  0  0  0  0  0  0  0
    5.5615    1.0645    0.5990 H   0  0  0  0  0  0  0  0  0  0  0  0
    4.6117    3.6069    2.1112 H   0  0  0  0  0  0  0  0  0  0  0  0
    6.0055    2.6632    2.6502 H   0  0  0  0  0  0  0  0  0  0  0  0
    7.0285    3.0796    0.3249 H   0  0  0  0  0  0  0  0  0  0  0  0
    5.5157    3.9516   -0.0745 H   0  0  0  0  0  0  0  0  0  0  0  0
    7.9166    4.6419   -1.1691 H   0  0  0  0  0  0  0  0  0  0  0  0
    9.4639    4.4444   -0.2487 H   0  0  0  0  0  0  0  0  0  0  0  0
    8.7935    7.2638    0.9828 H   0  0  0  0  0  0  0  0  0  0  0  0
    8.5197    6.5020    2.6121 H   0  0  0  0  0  0  0  0  0  0  0  0
    1.7251   -3.0852    2.1323 H   0  0  0  0  0  0  0  0  0  0  0  0
    2.9200   -2.7866    0.8785 H   0  0  0  0  0  0  0  0  0  0  0  0
    2.4796   -3.6815   -1.3417 H   0  0  0  0  0  0  0  0  0  0  0  0
    1.5311   -5.6283   -2.6408 H   0  0  0  0  0  0  0  0  0  0  0  0
   -0.3201   -6.9682   -1.6019 H   0  0  0  0  0  0  0  0  0  0  0  0
   -1.1711   -6.3952    0.6101 H   0  0  0  0  0  0  0  0  0  0  0  0
   -0.1753   -4.4366    1.8467 H   0  0  0  0  0  0  0  0  0  0  0  0
   -4.0517   -2.3997    1.8190 H   0  0  0  0  0  0  0  0  0  0  0  0
   -2.3576   -2.8033    2.0614 H   0  0  0  0  0  0  0  0  0  0  0  0
   -2.6405   -2.7967   -1.6163 H   0  0  0  0  0  0  0  0  0  0  0  0
   -3.1232   -5.1592   -2.5538 H   0  0  0  0  0  0  0  0  0  0  0  0
   -3.8685   -5.1731    1.6087 H   0  0  0  0  0  0  0  0  0  0  0  0
  1  2  3  0
  2  3  1  0
  3  4  2  0
  4  5  1  0
  5  6  2  0
  6  7  1  0
  7  8  2  0
  8  9  1  0
  9 10  2  0
  8 11  1  0
  3 12  1  0
 12 13  2  0
 12 14  1  0
 14 15  1  0
 15 16  1  0
 16 17  2  0
 16 18  1  0
 18 19  1  0
 19 20  1  0
 20 21  2  0
 20 22  1  0
 22 23  1  0
 23 24  1  0
 24 25  2  0
 24 26  1  0
 23 27  1  0
 27 28  1  0
 28 29  1  0
 29 30  1  0
 30 31  2  3
 31 32  1  0
 31 33  1  0
 19 34  1  0
 34 35  1  0
 35 36  2  0
 36 37  1  0
 37 38  2  0
 38 39  1  0
 39 40  2  0
 15 41  1  0
 41 42  1  0
 42 43  1  0
 43 44  1  0
 44 45  2  0
 45 46  1  0
 10  5  1  0
 40 35  1  0
 46 42  2  0
  4 47  1  0
  6 48  1  0
  7 49  1  0
  9 50  1  0
 10 51  1  0
 11 52  1  0
 14 53  1  0
 15 54  1  1
 18 55  1  0
 19 56  1  6
 22 57  1  0
 23 58  1  1
 26 59  1  0
 26 60  1  0
 27 61  1  0
 27 62  1  0
 28 63  1  0
 28 64  1  0
 29 65  1  0
 29 66  1  0
 32 67  1  0
 32 68  1  0
 33 69  1  0
 33 70  1  0
 34 71  1  0
 34 72  1  0
 36 73  1  0
 37 74  1  0
 38 75  1  0
 39 76  1  0
 40 77  1  0
 41 78  1  0
 41 79  1  0
 43 80  1  0
 44 81  1  0
 46 82  1  0
M  END
>  <Ligand ID>  (1) 
LIG0002649

>  <Ligand>  (1) 
CHEMBL565900

>  <SMILES>  (1) 
N#C/C(=C\c1ccc(cc1)O)/C(=O)N[C@H](C(=O)N[C@@H](C(=O)N[C@@H](C(=O)N)CCCN=C(N)N)Cc1ccccc1)Cc1[nH]cnc1

>  <CID>  (1) 
45487292.0

>  <ChEMBL ID>  (1) 
nan

>  <InChiKey>  (1) 
DNRIVOCYBHKOPB-DWBRCIAUSA-N

>  <InChi>  (1) 
InChI=1S/C31H36N10O5/c32-16-21(13-20-8-10-23(42)11-9-20)28(44)40-26(15-22-17-36-18-38-22)30(46)41-25(14-19-5-2-1-3-6-19)29(45)39-24(27(33)43)7-4-12-37-31(34)35/h1-3,5-6,8-11,13,17-18,24-26,42H,4,7,12,14-15H2,(H2,33,43)(H,36,38)(H,39,45)(H,40,44)(H,41,46)(H4,34,35,37)/b21-13+/t24-,25-,26+/m1/s1

>  <IUPAC Name>  (1) 
(2R)-2-[[(2R)-2-[[(2S)-2-[[(E)-2-cyano-3-(4-hydroxyphenyl)prop-2-enoyl]amino]-3-(1H-imidazol-5-yl)propanoyl]amino]-3-phenylpropanoyl]amino]-5-(diaminomethylideneamino)pentanamide

$$$$
