
     RDKit          3D

 29 31  0  0  0  0  0  0  0  0999 V2000
    3.7819   -0.7005    0.6562 C   0  0  0  0  0  0  0  0  0  0  0  0
    3.0703   -1.2408   -0.5578 C   0  0  0  0  0  0  0  0  0  0  0  0
    1.7246   -0.7342   -0.3650 N   0  0  0  0  0  0  0  0  0  0  0  0
    1.5249   -0.4333    0.8738 C   0  0  0  0  0  0  0  0  0  0  0  0
    2.6999   -0.7087    1.6003 O   0  0  0  0  0  0  0  0  0  0  0  0
    0.3310    0.0931    1.4576 N   0  0  0  0  0  0  0  0  0  0  0  0
   -0.8666    0.3445    0.6202 C   0  0  0  0  0  0  0  0  0  0  0  0
   -1.3057   -0.9389   -0.0028 C   0  0  0  0  0  0  0  0  0  0  0  0
   -2.4397   -1.1640   -0.8788 C   0  0  0  0  0  0  0  0  0  0  0  0
   -2.5681   -1.5652    0.5685 C   0  0  0  0  0  0  0  0  0  0  0  0
   -0.5373    1.4163   -0.3869 C   0  0  0  0  0  0  0  0  0  0  0  0
   -1.5210    1.9221   -1.3481 C   0  0  0  0  0  0  0  0  0  0  0  0
   -0.9561    2.8153   -0.2601 C   0  0  0  0  0  0  0  0  0  0  0  0
    4.0539    0.3641    0.4493 H   0  0  0  0  0  0  0  0  0  0  0  0
    4.6420   -1.2929    0.9799 H   0  0  0  0  0  0  0  0  0  0  0  0
    3.0752   -2.3584   -0.5214 H   0  0  0  0  0  0  0  0  0  0  0  0
    3.5176   -0.8893   -1.5083 H   0  0  0  0  0  0  0  0  0  0  0  0
    0.3274    0.2934    2.4808 H   0  0  0  0  0  0  0  0  0  0  0  0
   -1.6437    0.7039    1.3065 H   0  0  0  0  0  0  0  0  0  0  0  0
   -0.4468   -1.6673   -0.0936 H   0  0  0  0  0  0  0  0  0  0  0  0
   -3.2170   -0.4871   -1.2052 H   0  0  0  0  0  0  0  0  0  0  0  0
   -2.3295   -2.0308   -1.6073 H   0  0  0  0  0  0  0  0  0  0  0  0
   -3.1997   -0.9596    1.2402 H   0  0  0  0  0  0  0  0  0  0  0  0
   -2.5502   -2.6459    0.8539 H   0  0  0  0  0  0  0  0  0  0  0  0
    0.5523    1.3043   -0.7262 H   0  0  0  0  0  0  0  0  0  0  0  0
   -1.2283    2.1200   -2.4017 H   0  0  0  0  0  0  0  0  0  0  0  0
   -2.5908    1.7051   -1.1953 H   0  0  0  0  0  0  0  0  0  0  0  0
   -1.5923    3.1020    0.5995 H   0  0  0  0  0  0  0  0  0  0  0  0
   -0.3083    3.6327   -0.6283 H   0  0  0  0  0  0  0  0  0  0  0  0
  1  2  1  0
  2  3  1  0
  3  4  2  0
  4  5  1  0
  4  6  1  0
  6  7  1  0
  7  8  1  0
  8  9  1  0
  9 10  1  0
  7 11  1  0
 11 12  1  0
 12 13  1  0
  5  1  1  0
 10  8  1  0
 13 11  1  0
  1 14  1  0
  1 15  1  0
  2 16  1  0
  2 17  1  0
  6 18  1  0
  7 19  1  0
  8 20  1  0
  9 21  1  0
  9 22  1  0
 10 23  1  0
 10 24  1  0
 11 25  1  0
 12 26  1  0
 12 27  1  0
 13 28  1  0
 13 29  1  0
M  END
>  <Ligand ID>  (1) 
LIG0002947

>  <Ligand>  (1) 
Rilmenidine

>  <SMILES>  (1) 
C1CN=C(O1)NC(C1CC1)C1CC1

>  <CID>  (1) 
68712.0

>  <ChEMBL ID>  (1) 
nan

>  <InChiKey>  (1) 
CQXADFVORZEARL-UHFFFAOYSA-N

>  <InChi>  (1) 
InChI=1S/C10H16N2O/c1-2-7(1)9(8-3-4-8)12-10-11-5-6-13-10/h7-9H,1-6H2,(H,11,12)

>  <IUPAC Name>  (1) 
N-(dicyclopropylmethyl)-4,5-dihydro-1,3-oxazol-2-amine

$$$$
