
     RDKit          3D

 40 43  0  0  0  0  0  0  0  0999 V2000
    4.7435    3.1060    0.8227 F   0  0  0  0  0  0  0  0  0  0  0  0
    3.9800    2.8677   -0.2908 C   0  0  0  0  0  0  0  0  0  0  0  0
    3.0705    1.7609   -0.1360 C   0  0  0  0  0  0  0  0  0  0  0  0
    1.2101    2.0828   -0.2953 S   0  0  0  0  0  0  0  0  0  0  0  0
    0.8275    0.3610   -0.0184 C   0  0  0  0  0  0  0  0  0  0  0  0
    2.0096   -0.2828    0.1591 C   0  0  0  0  0  0  0  0  0  0  0  0
    3.1519    0.4310    0.0994 C   0  0  0  0  0  0  0  0  0  0  0  0
    4.4754   -0.2327    0.3040 C   0  0  0  0  0  0  0  0  0  0  0  0
    5.3258    0.1192    1.3127 C   0  0  0  0  0  0  0  0  0  0  0  0
    6.5523   -0.5124    1.4374 C   0  0  0  0  0  0  0  0  0  0  0  0
    6.8607   -1.4830    0.5225 C   0  0  0  0  0  0  0  0  0  0  0  0
    5.9922   -1.8458   -0.5103 C   0  0  0  0  0  0  0  0  0  0  0  0
    4.7626   -1.2140   -0.6376 C   0  0  0  0  0  0  0  0  0  0  0  0
   -0.5223   -0.1595   -0.0036 C   0  0  0  0  0  0  0  0  0  0  0  0
   -0.8567   -1.4073    0.1939 O   0  0  0  0  0  0  0  0  0  0  0  0
   -2.1440   -1.5564    0.1478 N   0  0  0  0  0  0  0  0  0  0  0  0
   -2.6919   -0.3538   -0.0912 C   0  0  0  0  0  0  0  0  0  0  0  0
   -1.6572    0.5332   -0.1871 N   0  0  0  0  0  0  0  0  0  0  0  0
   -4.1141   -0.0130   -0.2297 C   0  0  0  0  0  0  0  0  0  0  0  0
   -4.4735    1.1673   -0.8510 C   0  0  0  0  0  0  0  0  0  0  0  0
   -5.8291    1.4573   -0.9644 C   0  0  0  0  0  0  0  0  0  0  0  0
   -6.7678    0.5688   -0.4592 C   0  0  0  0  0  0  0  0  0  0  0  0
   -6.4101   -0.6125    0.1628 C   0  0  0  0  0  0  0  0  0  0  0  0
   -5.0588   -0.8942    0.2719 C   0  0  0  0  0  0  0  0  0  0  0  0
   -7.4361   -1.5484    0.6962 C   0  0  0  0  0  0  0  0  0  0  0  0
   -6.9627   -2.0665    1.8875 F   0  0  0  0  0  0  0  0  0  0  0  0
   -7.6058   -2.5334   -0.2589 F   0  0  0  0  0  0  0  0  0  0  0  0
   -8.6102   -0.8368    0.8802 F   0  0  0  0  0  0  0  0  0  0  0  0
    3.3128    4.0724   -0.5424 F   0  0  0  0  0  0  0  0  0  0  0  0
    4.8237    2.7232   -1.4055 F   0  0  0  0  0  0  0  0  0  0  0  0
    2.0099   -1.3845    0.3498 H   0  0  0  0  0  0  0  0  0  0  0  0
    5.0965    0.8643    2.0531 H   0  0  0  0  0  0  0  0  0  0  0  0
    7.2579   -0.2736    2.2111 H   0  0  0  0  0  0  0  0  0  0  0  0
    7.8048   -2.0440    0.5313 H   0  0  0  0  0  0  0  0  0  0  0  0
    6.2306   -2.6075   -1.2303 H   0  0  0  0  0  0  0  0  0  0  0  0
    4.0746   -1.4789   -1.4295 H   0  0  0  0  0  0  0  0  0  0  0  0
   -3.7157    1.8472   -1.2389 H   0  0  0  0  0  0  0  0  0  0  0  0
   -6.1299    2.3880   -1.4538 H   0  0  0  0  0  0  0  0  0  0  0  0
   -7.8304    0.7982   -0.5491 H   0  0  0  0  0  0  0  0  0  0  0  0
   -4.7564   -1.8073    0.7518 H   0  0  0  0  0  0  0  0  0  0  0  0
  1  2  1  0
  2  3  1  0
  3  4  1  0
  4  5  1  0
  5  6  2  0
  6  7  1  0
  7  8  1  0
  8  9  2  0
  9 10  1  0
 10 11  2  0
 11 12  1  0
 12 13  2  0
  5 14  1  0
 14 15  1  0
 15 16  1  0
 16 17  2  0
 17 18  1  0
 17 19  1  0
 19 20  2  0
 20 21  1  0
 21 22  2  0
 22 23  1  0
 23 24  2  0
 23 25  1  0
 25 26  1  0
 25 27  1  0
 25 28  1  0
  2 29  1  0
  2 30  1  0
  7  3  2  0
 13  8  1  0
 18 14  2  0
 24 19  1  0
  6 31  1  0
  9 32  1  0
 10 33  1  0
 11 34  1  0
 12 35  1  0
 13 36  1  0
 20 37  1  0
 21 38  1  0
 22 39  1  0
 24 40  1  0
M  END
>  <Ligand ID>  (1) 
LIG0002664

>  <Ligand>  (1) 
SEW2871

>  <SMILES>  (1) 
FC(c1sc(cc1c1ccccc1)c1onc(n1)c1cccc(c1)C(F)(F)F)(F)F

>  <CID>  (1) 
4077460.0

>  <ChEMBL ID>  (1) 
nan

>  <InChiKey>  (1) 
OYMNPJXKQVTQTR-UHFFFAOYSA-N

>  <InChi>  (1) 
InChI=1S/C20H10F6N2OS/c21-19(22,23)13-8-4-7-12(9-13)17-27-18(29-28-17)15-10-14(11-5-2-1-3-6-11)16(30-15)20(24,25)26/h1-10H

>  <IUPAC Name>  (1) 
5-[4-phenyl-5-(trifluoromethyl)thiophen-2-yl]-3-[3-(trifluoromethyl)phenyl]-1,2,4-oxadiazole

$$$$
