
     RDKit          3D

 32 35  0  0  0  0  0  0  0  0999 V2000
   -1.9722    4.0178   -1.7305 F   0  0  0  0  0  0  0  0  0  0  0  0
   -1.9480    2.7764   -1.1542 C   0  0  0  0  0  0  0  0  0  0  0  0
   -3.1332    2.2376   -0.7362 C   0  0  0  0  0  0  0  0  0  0  0  0
   -3.0934    0.9868   -0.1576 C   0  0  0  0  0  0  0  0  0  0  0  0
   -1.8970    0.2771    0.0060 C   0  0  0  0  0  0  0  0  0  0  0  0
   -0.6905    0.8256   -0.4197 C   0  0  0  0  0  0  0  0  0  0  0  0
   -0.7593    2.0854   -0.9984 C   0  0  0  0  0  0  0  0  0  0  0  0
    0.5646    0.1034   -0.2635 C   0  0  0  0  0  0  0  0  0  0  0  0
    1.2267    0.3833    1.0944 C   0  0  0  0  0  0  0  0  0  0  0  0
    2.5983   -0.1904    0.8228 C   0  0  0  0  0  0  0  0  0  0  0  0
    2.8434   -0.0836   -0.5155 N   0  0  0  0  0  0  0  0  0  0  0  0
    1.6954    0.5567   -1.1705 C   0  0  0  0  0  0  0  0  0  0  0  0
    4.0553   -0.5912   -0.7986 C   0  0  0  0  0  0  0  0  0  0  0  0
    4.5762   -1.0270    0.4140 C   0  0  0  0  0  0  0  0  0  0  0  0
    3.6778   -0.7783    1.4051 N   0  0  0  0  0  0  0  0  0  0  0  0
   -1.9861   -1.0346    0.6339 C   0  0  0  0  0  0  0  0  0  0  0  0
   -1.0784   -1.9469    0.9375 N   0  0  0  0  0  0  0  0  0  0  0  0
   -1.6405   -3.0167    1.5171 C   0  0  0  0  0  0  0  0  0  0  0  0
   -2.9908   -2.7270    1.5665 C   0  0  0  0  0  0  0  0  0  0  0  0
   -3.1430   -1.5556    1.0375 O   0  0  0  0  0  0  0  0  0  0  0  0
   -4.0533    2.7807   -0.8607 H   0  0  0  0  0  0  0  0  0  0  0  0
   -4.0489    0.5858    0.1638 H   0  0  0  0  0  0  0  0  0  0  0  0
    0.1219    2.6068   -1.3659 H   0  0  0  0  0  0  0  0  0  0  0  0
    0.4970   -0.9994   -0.4080 H   0  0  0  0  0  0  0  0  0  0  0  0
    0.7224   -0.0917    1.9263 H   0  0  0  0  0  0  0  0  0  0  0  0
    1.3787    1.4508    1.2514 H   0  0  0  0  0  0  0  0  0  0  0  0
    1.7992    1.6483   -1.1197 H   0  0  0  0  0  0  0  0  0  0  0  0
    1.5041    0.1534   -2.1772 H   0  0  0  0  0  0  0  0  0  0  0  0
    4.5573   -0.6627   -1.7667 H   0  0  0  0  0  0  0  0  0  0  0  0
    5.5380   -1.4899    0.5584 H   0  0  0  0  0  0  0  0  0  0  0  0
   -1.1461   -3.9224    1.8744 H   0  0  0  0  0  0  0  0  0  0  0  0
   -3.7754   -3.3581    1.9706 H   0  0  0  0  0  0  0  0  0  0  0  0
  1  2  1  0
  2  3  2  0
  3  4  1  0
  4  5  2  0
  5  6  1  0
  6  7  2  0
  6  8  1  0
  8  9  1  0
  9 10  1  0
 10 11  1  0
 11 12  1  0
 11 13  1  0
 13 14  2  0
 14 15  1  0
  5 16  1  0
 16 17  2  0
 17 18  1  0
 18 19  2  0
 19 20  1  0
  7  2  1  0
 12  8  1  0
 20 16  1  0
 15 10  2  0
  3 21  1  0
  4 22  1  0
  7 23  1  0
  8 24  1  0
  9 25  1  0
  9 26  1  0
 12 27  1  0
 12 28  1  0
 13 29  1  0
 14 30  1  0
 18 31  1  0
 19 32  1  0
M  END
>  <Ligand ID>  (1) 
LIG0002868

>  <Ligand>  (1) 
CHEMBL466634

>  <SMILES>  (1) 
Fc1ccc(c(c1)C1Cc2n(C1)ccn2)c1ncco1

>  <CID>  (1) 
44574134.0

>  <ChEMBL ID>  (1) 
nan

>  <InChiKey>  (1) 
NOCWBSIDJYRURZ-UHFFFAOYSA-N

>  <InChi>  (1) 
InChI=1S/C15H12FN3O/c16-11-1-2-12(15-18-4-6-20-15)13(8-11)10-7-14-17-3-5-19(14)9-10/h1-6,8,10H,7,9H2

>  <IUPAC Name>  (1) 
2-[2-(6,7-dihydro-5H-pyrrolo[1,2-a]imidazol-6-yl)-4-fluorophenyl]-1,3-oxazole

$$$$
