
     RDKit          3D

 24 24  0  0  0  0  0  0  0  0999 V2000
    4.0808    0.5313    0.0427 C   0  0  0  0  0  0  0  0  0  0  0  0
    2.6982    0.2519    0.0756 O   0  0  0  0  0  0  0  0  0  0  0  0
    1.6920    1.1719    0.2240 C   0  0  0  0  0  0  0  0  0  0  0  0
    1.8810    2.4161    0.3530 O   0  0  0  0  0  0  0  0  0  0  0  0
    0.2838    0.7265    0.2397 C   0  0  0  0  0  0  0  0  0  0  0  0
   -0.6806    1.6308    0.3844 C   0  0  0  0  0  0  0  0  0  0  0  0
   -2.1223    1.2730    0.4113 C   0  0  0  0  0  0  0  0  0  0  0  0
   -2.3182   -0.2297    0.4566 C   0  0  0  0  0  0  0  0  0  0  0  0
   -1.3803   -0.8963   -0.4232 N   0  0  0  0  0  0  0  0  0  0  0  0
   -0.0385   -0.7142    0.0951 C   0  0  0  0  0  0  0  0  0  0  0  0
   -1.7008   -2.2749   -0.5935 C   0  0  0  0  0  0  0  0  0  0  0  0
    4.4725    0.3802   -0.9881 H   0  0  0  0  0  0  0  0  0  0  0  0
    4.3645    1.4838    0.5039 H   0  0  0  0  0  0  0  0  0  0  0  0
    4.6006   -0.2643    0.6493 H   0  0  0  0  0  0  0  0  0  0  0  0
   -0.4418    2.6806    0.4895 H   0  0  0  0  0  0  0  0  0  0  0  0
   -2.6628    1.6846    1.2890 H   0  0  0  0  0  0  0  0  0  0  0  0
   -2.5917    1.7000   -0.4923 H   0  0  0  0  0  0  0  0  0  0  0  0
   -2.1074   -0.5964    1.4775 H   0  0  0  0  0  0  0  0  0  0  0  0
   -3.3386   -0.4916    0.1219 H   0  0  0  0  0  0  0  0  0  0  0  0
    0.0749   -1.2728    1.0429 H   0  0  0  0  0  0  0  0  0  0  0  0
    0.6499   -1.1756   -0.6401 H   0  0  0  0  0  0  0  0  0  0  0  0
   -2.5391   -2.5544    0.0606 H   0  0  0  0  0  0  0  0  0  0  0  0
   -0.8440   -2.9328   -0.3217 H   0  0  0  0  0  0  0  0  0  0  0  0
   -2.0321   -2.5276   -1.6377 H   0  0  0  0  0  0  0  0  0  0  0  0
  1  2  1  0
  2  3  1  0
  3  4  2  0
  3  5  1  0
  5  6  2  0
  6  7  1  0
  7  8  1  0
  8  9  1  0
  9 10  1  0
  9 11  1  0
 10  5  1  0
  1 12  1  0
  1 13  1  0
  1 14  1  0
  6 15  1  0
  7 16  1  0
  7 17  1  0
  8 18  1  0
  8 19  1  0
 10 20  1  0
 10 21  1  0
 11 22  1  0
 11 23  1  0
 11 24  1  0
M  END
>  <Ligand ID>  (1) 
LIG0000517

>  <Ligand>  (1) 
arecoline

>  <SMILES>  (1) 
COC(=O)C1=CCCN(C1)C

>  <CID>  (1) 
2230.0

>  <ChEMBL ID>  (1) 
nan

>  <InChiKey>  (1) 
HJJPJSXJAXAIPN-UHFFFAOYSA-N

>  <InChi>  (1) 
InChI=1S/C8H13NO2/c1-9-5-3-4-7(6-9)8(10)11-2/h4H,3,5-6H2,1-2H3

>  <IUPAC Name>  (1) 
methyl 1-methyl-3,6-dihydro-2H-pyridine-5-carboxylate

$$$$
