
     RDKit          3D

167171  0  0  0  0  0  0  0  0999 V2000
  -14.9200    0.7705   -2.5992 C   0  0  0  0  0  0  0  0  0  0  0  0
  -14.1747    1.7046   -1.8541 N   0  0  0  0  0  0  0  0  0  0  0  0
  -12.9741    1.8693   -1.6313 C   0  0  0  0  0  0  0  0  0  0  0  0
  -11.8883    1.0940   -2.1017 N   0  0  0  0  0  0  0  0  0  0  0  0
  -12.0541   -0.3231   -2.2839 C   0  0  0  0  0  0  0  0  0  0  0  0
  -10.8050   -0.9799   -2.7181 C   0  0  0  0  0  0  0  0  0  0  0  0
   -9.6072   -1.1524   -1.9522 C   0  0  0  0  0  0  0  0  0  0  0  0
   -8.7944   -0.2165   -1.2115 C   0  0  1  0  0  0  0  0  0  0  0  0
   -9.2400    0.4277    0.0278 C   0  0  0  0  0  0  0  0  0  0  0  0
  -10.0558    1.3662    0.1561 O   0  0  0  0  0  0  0  0  0  0  0  0
   -8.6778   -0.0549    1.2457 N   0  0  0  0  0  0  0  0  0  0  0  0
   -8.8408    0.3967    2.5656 C   0  0  2  0  0  0  0  0  0  0  0  0
   -7.6803    0.0087    3.4444 C   0  0  0  0  0  0  0  0  0  0  0  0
   -7.7629    0.4043    4.6378 O   0  0  0  0  0  0  0  0  0  0  0  0
   -6.6101   -0.7385    2.9287 N   0  0  0  0  0  0  0  0  0  0  0  0
  -10.1200    0.4091    3.2821 C   0  0  0  0  0  0  0  0  0  0  0  0
  -10.9010   -0.7853    3.5198 C   0  0  0  0  0  0  0  0  0  0  0  0
  -10.7694   -1.6385    4.6292 C   0  0  0  0  0  0  0  0  0  0  0  0
  -11.6635   -2.6556    4.5119 N   0  0  0  0  0  0  0  0  0  0  0  0
  -12.3763   -2.5078    3.3712 C   0  0  0  0  0  0  0  0  0  0  0  0
  -11.9219   -1.3658    2.7480 C   0  0  0  0  0  0  0  0  0  0  0  0
  -12.5444   -0.9829    1.5612 C   0  0  0  0  0  0  0  0  0  0  0  0
  -13.5735   -1.7765    1.0959 C   0  0  0  0  0  0  0  0  0  0  0  0
  -14.0242   -2.9154    1.7208 C   0  0  0  0  0  0  0  0  0  0  0  0
  -13.4099   -3.2894    2.8871 C   0  0  0  0  0  0  0  0  0  0  0  0
   -7.3937   -0.6941   -1.0574 N   0  0  0  0  0  0  0  0  0  0  0  0
   -6.4029    0.2068   -1.4959 C   0  0  0  0  0  0  0  0  0  0  0  0
   -6.8754    1.3305   -1.9449 O   0  0  0  0  0  0  0  0  0  0  0  0
   -4.9663    0.0877   -1.5303 C   0  0  1  0  0  0  0  0  0  0  0  0
   -4.4417   -1.1005   -0.9147 N   0  0  0  0  0  0  0  0  0  0  0  0
   -3.0715   -0.9922   -0.4917 C   0  0  0  0  0  0  0  0  0  0  0  0
   -2.5081    0.1072   -0.7116 O   0  0  0  0  0  0  0  0  0  0  0  0
   -2.3136   -1.9985    0.1390 N   0  0  0  0  0  0  0  0  0  0  0  0
   -0.9756   -1.6532    0.4335 N   0  0  0  0  0  0  0  0  0  0  0  0
   -0.5310   -1.0765    1.6300 C   0  0  0  0  0  0  0  0  0  0  0  0
   -1.4242   -0.8658    2.5268 O   0  0  0  0  0  0  0  0  0  0  0  0
    0.8386   -0.6906    1.9634 C   0  0  1  0  0  0  0  0  0  0  0  0
    1.7890   -0.8362    0.8999 N   0  0  0  0  0  0  0  0  0  0  0  0
    3.1671   -0.6802    1.1496 C   0  0  0  0  0  0  0  0  0  0  0  0
    3.5144   -0.3883    2.3463 O   0  0  0  0  0  0  0  0  0  0  0  0
    4.2482   -0.8090    0.1753 C   0  0  2  0  0  0  0  0  0  0  0  0
    4.6840   -2.2900    0.0742 C   0  0  2  0  0  0  0  0  0  0  0  0
    3.5990   -3.0772   -0.2790 O   0  0  0  0  0  0  0  0  0  0  0  0
    5.2263   -2.7613    1.3959 C   0  0  0  0  0  0  0  0  0  0  0  0
    5.4139   -0.0222    0.5658 N   0  0  0  0  0  0  0  0  0  0  0  0
    6.4034    0.3642   -0.3928 C   0  0  0  0  0  0  0  0  0  0  0  0
    6.2357   -0.0485   -1.5721 O   0  0  0  0  0  0  0  0  0  0  0  0
    7.5587    1.1842   -0.0809 C   0  0  1  0  0  0  0  0  0  0  0  0
    8.6600    1.0711   -1.0589 N   0  0  0  0  0  0  0  0  0  0  0  0
    9.8832    1.6265   -0.6143 C   0  0  0  0  0  0  0  0  0  0  0  0
    9.8736    2.1767    0.5245 O   0  0  0  0  0  0  0  0  0  0  0  0
   11.1543    1.6230   -1.3403 C   0  0  2  0  0  0  0  0  0  0  0  0
   11.1139    2.8201   -2.3110 C   0  0  0  0  0  0  0  0  0  0  0  0
   10.5028    2.2231   -3.5597 C   0  0  0  0  0  0  0  0  0  0  0  0
   10.8431    0.7462   -3.5207 C   0  0  0  0  0  0  0  0  0  0  0  0
   11.3922    0.5044   -2.1981 N   0  0  0  0  0  0  0  0  0  0  0  0
   12.0793   -0.6795   -1.8386 C   0  0  0  0  0  0  0  0  0  0  0  0
   12.1721   -1.5430   -2.7919 O   0  0  0  0  0  0  0  0  0  0  0  0
   12.6829   -1.0166   -0.5606 C   0  0  1  0  0  0  0  0  0  0  0  0
   11.6809   -1.2478    0.5831 C   0  0  0  0  0  0  0  0  0  0  0  0
   12.5216   -1.5664    1.7973 C   0  0  0  0  0  0  0  0  0  0  0  0
   12.8980   -2.8235    2.1440 C   0  0  0  0  0  0  0  0  0  0  0  0
   13.6735   -2.9703    3.3047 C   0  0  0  0  0  0  0  0  0  0  0  0
   14.0320   -1.8701    4.0518 C   0  0  0  0  0  0  0  0  0  0  0  0
   13.6523   -0.5690    3.7031 C   0  0  0  0  0  0  0  0  0  0  0  0
   12.8907   -0.4827    2.5541 C   0  0  0  0  0  0  0  0  0  0  0  0
   14.8020   -2.1216    5.1943 O   0  0  0  0  0  0  0  0  0  0  0  0
   13.4322   -2.2907   -0.7072 N   0  0  0  0  0  0  0  0  0  0  0  0
   14.8104   -2.2792   -0.3467 C   0  0  0  0  0  0  0  0  0  0  0  0
   15.3900   -1.2323    0.0625 O   0  0  0  0  0  0  0  0  0  0  0  0
   15.6277   -3.5146   -0.4323 C   0  0  0  0  0  0  0  0  0  0  0  0
    7.0820    2.6912   -0.1921 C   0  0  0  0  0  0  0  0  0  0  0  0
    5.9900    2.9379    0.7688 C   0  0  0  0  0  0  0  0  0  0  0  0
    4.8082    2.6443    0.5306 O   0  0  0  0  0  0  0  0  0  0  0  0
    6.3047    3.5483    2.0423 N   0  0  0  0  0  0  0  0  0  0  0  0
    0.8433    0.8083    2.3307 C   0  0  0  0  0  0  0  0  0  0  0  0
    0.3894    1.6876    1.2577 C   0  0  0  0  0  0  0  0  0  0  0  0
   -0.9426    2.1108    1.2474 C   0  0  0  0  0  0  0  0  0  0  0  0
   -1.3954    2.9656    0.2551 C   0  0  0  0  0  0  0  0  0  0  0  0
   -0.5848    3.4357   -0.7545 C   0  0  0  0  0  0  0  0  0  0  0  0
    0.7323    3.0136   -0.7424 C   0  0  0  0  0  0  0  0  0  0  0  0
    1.1999    2.1611    0.2411 C   0  0  0  0  0  0  0  0  0  0  0  0
   -4.4442    0.1075   -2.9944 C   0  0  0  0  0  0  0  0  0  0  0  0
   -4.7606    1.3835   -3.6893 C   0  0  0  0  0  0  0  0  0  0  0  0
   -4.1298    2.5921   -2.9835 C   0  0  0  0  0  0  0  0  0  0  0  0
   -4.1256    1.3603   -5.1005 C   0  0  0  0  0  0  0  0  0  0  0  0
  -12.6109    3.0131   -0.8060 N   0  0  0  0  0  0  0  0  0  0  0  0
  -14.9446   -0.2683   -2.2397 H   0  0  0  0  0  0  0  0  0  0  0  0
  -14.6474    0.7248   -3.7013 H   0  0  0  0  0  0  0  0  0  0  0  0
  -16.0167    1.1203   -2.6684 H   0  0  0  0  0  0  0  0  0  0  0  0
  -10.9616    1.5140   -2.3416 H   0  0  0  0  0  0  0  0  0  0  0  0
  -12.5051   -0.8023   -1.3778 H   0  0  0  0  0  0  0  0  0  0  0  0
  -12.7899   -0.4440   -3.1399 H   0  0  0  0  0  0  0  0  0  0  0  0
  -11.1159   -2.0748   -3.0403 H   0  0  0  0  0  0  0  0  0  0  0  0
  -10.6049   -0.5181   -3.7660 H   0  0  0  0  0  0  0  0  0  0  0  0
   -8.8532   -1.8065   -2.5760 H   0  0  0  0  0  0  0  0  0  0  0  0
   -9.8736   -2.0151   -1.1778 H   0  0  0  0  0  0  0  0  0  0  0  0
   -8.7523    0.7224   -1.9282 H   0  0  0  0  0  0  0  0  0  0  0  0
   -8.0278   -0.9131    1.1266 H   0  0  0  0  0  0  0  0  0  0  0  0
   -8.6374    1.5633    2.4515 H   0  0  0  0  0  0  0  0  0  0  0  0
   -5.6457   -0.3186    2.9480 H   0  0  0  0  0  0  0  0  0  0  0  0
   -6.7677   -1.7017    2.5371 H   0  0  0  0  0  0  0  0  0  0  0  0
  -10.0130    0.9103    4.3108 H   0  0  0  0  0  0  0  0  0  0  0  0
  -10.7621    1.2103    2.7512 H   0  0  0  0  0  0  0  0  0  0  0  0
  -10.0740   -1.5311    5.4628 H   0  0  0  0  0  0  0  0  0  0  0  0
  -11.7470   -3.4232    5.2214 H   0  0  0  0  0  0  0  0  0  0  0  0
  -12.1950   -0.0848    1.0650 H   0  0  0  0  0  0  0  0  0  0  0  0
  -14.0781   -1.4714    0.1776 H   0  0  0  0  0  0  0  0  0  0  0  0
  -14.8465   -3.4553    1.2552 H   0  0  0  0  0  0  0  0  0  0  0  0
  -13.7717   -4.1853    3.3805 H   0  0  0  0  0  0  0  0  0  0  0  0
   -7.1420   -1.6045   -0.6647 H   0  0  0  0  0  0  0  0  0  0  0  0
   -4.4406    1.0032   -1.1223 H   0  0  0  0  0  0  0  0  0  0  0  0
   -4.9187   -1.9923   -0.7468 H   0  0  0  0  0  0  0  0  0  0  0  0
   -2.7644   -2.9045    0.3518 H   0  0  0  0  0  0  0  0  0  0  0  0
   -0.2910   -1.8635   -0.3361 H   0  0  0  0  0  0  0  0  0  0  0  0
    1.2204   -1.2288    2.9041 H   0  0  0  0  0  0  0  0  0  0  0  0
    1.5297   -1.0623   -0.1066 H   0  0  0  0  0  0  0  0  0  0  0  0
    3.9631   -0.5506   -0.8302 H   0  0  0  0  0  0  0  0  0  0  0  0
    5.4314   -2.3859   -0.7660 H   0  0  0  0  0  0  0  0  0  0  0  0
    3.6950   -3.4309   -1.2200 H   0  0  0  0  0  0  0  0  0  0  0  0
    5.8236   -1.9587    1.9004 H   0  0  0  0  0  0  0  0  0  0  0  0
    4.4491   -3.0378    2.1388 H   0  0  0  0  0  0  0  0  0  0  0  0
    5.8653   -3.6608    1.2302 H   0  0  0  0  0  0  0  0  0  0  0  0
    5.5118    0.2475    1.5749 H   0  0  0  0  0  0  0  0  0  0  0  0
    7.9468    1.1601    0.9389 H   0  0  0  0  0  0  0  0  0  0  0  0
    8.5600    0.6426   -1.9832 H   0  0  0  0  0  0  0  0  0  0  0  0
   12.0035    1.8417   -0.6460 H   0  0  0  0  0  0  0  0  0  0  0  0
   10.5143    3.6510   -1.9057 H   0  0  0  0  0  0  0  0  0  0  0  0
   12.1478    3.1677   -2.4925 H   0  0  0  0  0  0  0  0  0  0  0  0
   10.9613    2.7445   -4.4368 H   0  0  0  0  0  0  0  0  0  0  0  0
    9.4205    2.3713   -3.5172 H   0  0  0  0  0  0  0  0  0  0  0  0
   10.0004    0.1093   -3.7655 H   0  0  0  0  0  0  0  0  0  0  0  0
   11.6192    0.5861   -4.3021 H   0  0  0  0  0  0  0  0  0  0  0  0
   13.4148   -0.2764   -0.1857 H   0  0  0  0  0  0  0  0  0  0  0  0
   11.0945   -0.3623    0.7353 H   0  0  0  0  0  0  0  0  0  0  0  0
   11.0936   -2.1817    0.3811 H   0  0  0  0  0  0  0  0  0  0  0  0
   12.6051   -3.6671    1.5361 H   0  0  0  0  0  0  0  0  0  0  0  0
   13.9612   -3.9910    3.5592 H   0  0  0  0  0  0  0  0  0  0  0  0
   13.9560    0.2604    4.3062 H   0  0  0  0  0  0  0  0  0  0  0  0
   12.5994    0.5440    2.2793 H   0  0  0  0  0  0  0  0  0  0  0  0
   15.7960   -1.9934    5.1795 H   0  0  0  0  0  0  0  0  0  0  0  0
   12.9347   -3.1369   -1.0617 H   0  0  0  0  0  0  0  0  0  0  0  0
   16.1613   -3.5899   -1.3899 H   0  0  0  0  0  0  0  0  0  0  0  0
   14.9866   -4.4224   -0.3331 H   0  0  0  0  0  0  0  0  0  0  0  0
   16.3754   -3.5217    0.3850 H   0  0  0  0  0  0  0  0  0  0  0  0
    7.9229    3.3585    0.0280 H   0  0  0  0  0  0  0  0  0  0  0  0
    6.7076    2.8584   -1.2225 H   0  0  0  0  0  0  0  0  0  0  0  0
    7.1794    4.0972    2.1913 H   0  0  0  0  0  0  0  0  0  0  0  0
    5.6295    3.4428    2.8500 H   0  0  0  0  0  0  0  0  0  0  0  0
    1.8821    1.1180    2.5882 H   0  0  0  0  0  0  0  0  0  0  0  0
    0.1852    0.9570    3.2291 H   0  0  0  0  0  0  0  0  0  0  0  0
   -1.6589    1.8025    1.9925 H   0  0  0  0  0  0  0  0  0  0  0  0
   -2.4441    3.2888    0.2659 H   0  0  0  0  0  0  0  0  0  0  0  0
   -0.9800    4.1073   -1.5147 H   0  0  0  0  0  0  0  0  0  0  0  0
    1.3538    3.3964   -1.5463 H   0  0  0  0  0  0  0  0  0  0  0  0
    2.2238    1.8666    0.1930 H   0  0  0  0  0  0  0  0  0  0  0  0
   -3.3623   -0.0831   -2.9589 H   0  0  0  0  0  0  0  0  0  0  0  0
   -5.0292   -0.7157   -3.4997 H   0  0  0  0  0  0  0  0  0  0  0  0
   -5.8255    1.5970   -3.8077 H   0  0  0  0  0  0  0  0  0  0  0  0
   -3.1348    2.2810   -2.6073 H   0  0  0  0  0  0  0  0  0  0  0  0
   -4.0057    3.3789   -3.7567 H   0  0  0  0  0  0  0  0  0  0  0  0
   -4.7618    2.9532   -2.1625 H   0  0  0  0  0  0  0  0  0  0  0  0
   -3.0983    1.7877   -5.0917 H   0  0  0  0  0  0  0  0  0  0  0  0
   -4.0351    0.3039   -5.4384 H   0  0  0  0  0  0  0  0  0  0  0  0
   -4.7160    1.9750   -5.7729 H   0  0  0  0  0  0  0  0  0  0  0  0
  -12.6988    3.9277   -1.3128 H   0  0  0  0  0  0  0  0  0  0  0  0
  -12.2973    2.9059    0.1749 H   0  0  0  0  0  0  0  0  0  0  0  0
  1  2  1  0
  2  3  2  3
  3  4  1  0
  4  5  1  0
  5  6  1  0
  6  7  1  0
  7  8  1  0
  8  9  1  0
  9 10  2  0
  9 11  1  0
 11 12  1  0
 12 13  1  0
 13 14  2  0
 13 15  1  0
 12 16  1  0
 16 17  1  0
 17 18  2  0
 18 19  1  0
 19 20  1  0
 20 21  2  0
 21 22  1  0
 22 23  2  0
 23 24  1  0
 24 25  2  0
  8 26  1  0
 26 27  1  0
 27 28  2  0
 27 29  1  0
 29 30  1  0
 30 31  1  0
 31 32  2  0
 31 33  1  0
 33 34  1  0
 34 35  1  0
 35 36  2  0
 35 37  1  0
 37 38  1  0
 38 39  1  0
 39 40  2  0
 39 41  1  0
 41 42  1  0
 42 43  1  0
 42 44  1  0
 41 45  1  0
 45 46  1  0
 46 47  2  0
 46 48  1  0
 48 49  1  0
 49 50  1  0
 50 51  2  0
 50 52  1  0
 52 53  1  0
 53 54  1  0
 54 55  1  0
 55 56  1  0
 56 57  1  0
 57 58  2  0
 57 59  1  0
 59 60  1  0
 60 61  1  0
 61 62  2  0
 62 63  1  0
 63 64  2  0
 64 65  1  0
 65 66  2  0
 64 67  1  0
 59 68  1  0
 68 69  1  0
 69 70  2  0
 69 71  1  0
 48 72  1  0
 72 73  1  0
 73 74  2  0
 73 75  1  0
 37 76  1  0
 76 77  1  0
 77 78  2  0
 78 79  1  0
 79 80  2  0
 80 81  1  0
 81 82  2  0
 29 83  1  0
 83 84  1  0
 84 85  1  0
 84 86  1  0
  3 87  1  0
 21 17  1  0
 56 52  1  0
 66 61  1  0
 82 77  1  0
 25 20  1  0
  1 88  1  0
  1 89  1  0
  1 90  1  0
  4 91  1  0
  5 92  1  0
  5 93  1  0
  6 94  1  0
  6 95  1  0
  7 96  1  0
  7 97  1  0
  8 98  1  6
 11 99  1  0
 12100  1  6
 15101  1  0
 15102  1  0
 16103  1  0
 16104  1  0
 18105  1  0
 19106  1  0
 22107  1  0
 23108  1  0
 24109  1  0
 25110  1  0
 26111  1  0
 29112  1  1
 30113  1  0
 33114  1  0
 34115  1  0
 37116  1  1
 38117  1  0
 41118  1  6
 42119  1  6
 43120  1  0
 44121  1  0
 44122  1  0
 44123  1  0
 45124  1  0
 48125  1  1
 49126  1  0
 52127  1  1
 53128  1  0
 53129  1  0
 54130  1  0
 54131  1  0
 55132  1  0
 55133  1  0
 59134  1  1
 60135  1  0
 60136  1  0
 62137  1  0
 63138  1  0
 65139  1  0
 66140  1  0
 67141  1  0
 68142  1  0
 71143  1  0
 71144  1  0
 71145  1  0
 72146  1  0
 72147  1  0
 75148  1  0
 75149  1  0
 76150  1  0
 76151  1  0
 78152  1  0
 79153  1  0
 80154  1  0
 81155  1  0
 82156  1  0
 83157  1  0
 83158  1  0
 84159  1  0
 85160  1  0
 85161  1  0
 85162  1  0
 86163  1  0
 86164  1  0
 86165  1  0
 87166  1  0
 87167  1  0
M  END
>  <Ligand ID>  (1) 
LIG0005348

>  <Ligand>  (1) 
CHEMBL3911692

>  <SMILES>  (1) 
CN=C(NCCC[C@@H](C(=O)N[C@H](C(=O)N)Cc1c[nH]c2c1cccc2)NC(=O)[C@@H](NC(=O)NNC(=O)[C@@H](NC(=O)[C@H]([C@H](O)C)NC(=O)[C@@H](NC(=O)[C@@H]1CCCN1C(=O)[C@@H](Cc1ccc(cc1)O)NC(=O)C)CC(=O)N)Cc1ccccc1)CC(C)C)N

>  <CID>  (1) 
134132372.0

>  <ChEMBL ID>  (1) 
nan

>  <InChiKey>  (1) 
MZULBONMLYCUPI-NASKPVMISA-N

>  <InChi>  (1) 
InChI=1S/C58H80N16O13/c1-31(2)25-42(51(81)66-40(17-11-23-63-57(61)62-5)50(80)67-41(49(60)79)28-36-30-64-39-16-10-9-15-38(36)39)70-58(87)73-72-53(83)43(26-34-13-7-6-8-14-34)69-55(85)48(32(3)75)71-52(82)44(29-47(59)78)68-54(84)46-18-12-24-74(46)56(86)45(65-33(4)76)27-35-19-21-37(77)22-20-35/h6-10,13-16,19-22,30-32,40-46,48,64,75,77H,11-12,17-18,23-29H2,1-5H3,(H2,59,78)(H2,60,79)(H,65,76)(H,66,81)(H,67,80)(H,68,84)(H,69,85)(H,71,82)(H,72,83)(H3,61,62,63)(H2,70,73,87)/t32-,40+,41+,42+,43+,44+,45-,46+,48+/m1/s1

>  <IUPAC Name>  (1) 
(2S)-2-[[(2S)-1-[(2R)-2-acetamido-3-(4-hydroxyphenyl)propanoyl]pyrrolidine-2-carbonyl]amino]-N-[(2S,3R)-1-[[(2S)-1-[2-[[(2S)-1-[[(2S)-1-[[(2S)-1-amino-3-(1H-indol-3-yl)-1-oxopropan-2-yl]amino]-5-[(N'-methylcarbamimidoyl)amino]-1-oxopentan-2-yl]amino]-4-methyl-1-oxopentan-2-yl]carbamoyl]hydrazinyl]-1-oxo-3-phenylpropan-2-yl]amino]-3-hydroxy-1-oxobutan-2-yl]butanediamide

$$$$
