
     RDKit          3D

132136  0  0  0  0  0  0  0  0999 V2000
    0.2661    4.8254   -4.2928 C   0  0  0  0  0  0  0  0  0  0  0  0
    1.1684    4.5895   -3.0600 C   0  0  0  0  0  0  0  0  0  0  0  0
    1.9809    3.3637   -3.2850 C   0  0  0  0  0  0  0  0  0  0  0  0
    2.9279    3.0401   -2.1651 C   0  0  0  0  0  0  0  0  0  0  0  0
    2.3304    2.8224   -0.8351 C   0  0  2  0  0  0  0  0  0  0  0  0
    1.6302    3.9551   -0.2739 N   0  0  0  0  0  0  0  0  0  0  0  0
    0.5180    3.7752    0.6551 C   0  0  0  0  0  0  0  0  0  0  0  0
    0.3561    2.5981    0.9962 O   0  0  0  0  0  0  0  0  0  0  0  0
   -0.2781    4.9339    1.1030 C   0  0  0  0  0  0  0  0  0  0  0  0
   -1.0903    4.7860    2.3173 C   0  0  0  0  0  0  0  0  0  0  0  0
   -1.9494    3.6094    2.5070 C   0  0  2  0  0  0  0  0  0  0  0  0
   -2.8031    3.2203    1.4121 N   0  0  0  0  0  0  0  0  0  0  0  0
   -2.9694    1.8048    1.2181 C   0  0  0  0  0  0  0  0  0  0  0  0
   -2.4861    1.0811    2.0841 O   0  0  0  0  0  0  0  0  0  0  0  0
   -3.7112    1.2695   -0.0054 C   0  0  1  0  0  0  0  0  0  0  0  0
   -3.5230   -0.1830    0.1380 N   0  0  0  0  0  0  0  0  0  0  0  0
   -2.1982   -0.7250    0.1527 C   0  0  0  0  0  0  0  0  0  0  0  0
   -1.2881    0.1104    0.1307 O   0  0  0  0  0  0  0  0  0  0  0  0
   -1.9361   -2.2222    0.2049 C   0  0  1  0  0  0  0  0  0  0  0  0
   -0.6262   -2.4640    0.7606 N   0  0  0  0  0  0  0  0  0  0  0  0
    0.6048   -2.0414    0.2212 C   0  0  0  0  0  0  0  0  0  0  0  0
    0.5617   -1.3645   -0.8117 O   0  0  0  0  0  0  0  0  0  0  0  0
    1.9414   -2.3490    0.8264 C   0  0  2  0  0  0  0  0  0  0  0  0
    2.8930   -1.3235    0.4563 N   0  0  0  0  0  0  0  0  0  0  0  0
    3.9666   -0.8842    1.3049 C   0  0  0  0  0  0  0  0  0  0  0  0
    4.1731   -1.5453    2.3079 O   0  0  0  0  0  0  0  0  0  0  0  0
    4.7726    0.3509    0.9029 C   0  0  2  0  0  0  0  0  0  0  0  0
    4.0052    0.9932   -0.1830 N   0  0  0  0  0  0  0  0  0  0  0  0
    3.2557    2.1770    0.1441 C   0  0  0  0  0  0  0  0  0  0  0  0
    3.4347    2.6128    1.2859 O   0  0  0  0  0  0  0  0  0  0  0  0
    6.0735   -0.1135    0.3649 C   0  0  0  0  0  0  0  0  0  0  0  0
    6.8862   -0.9033    1.3706 C   0  0  0  0  0  0  0  0  0  0  0  0
    7.1934   -0.0649    2.5962 C   0  0  0  0  0  0  0  0  0  0  0  0
    7.9788   -0.8452    3.5345 N   0  0  0  0  0  0  0  0  0  0  0  0
    8.3053   -0.2840    4.6537 C   0  0  0  0  0  0  0  0  0  0  0  0
    9.0695   -1.0391    5.5687 N   0  0  0  0  0  0  0  0  0  0  0  0
    7.9266    1.0491    4.9910 N   0  0  0  0  0  0  0  0  0  0  0  0
    2.3626   -3.7066    0.2593 C   0  0  0  0  0  0  0  0  0  0  0  0
    2.4663   -3.7157   -1.2004 C   0  0  0  0  0  0  0  0  0  0  0  0
    3.6085   -3.4167   -1.9161 C   0  0  0  0  0  0  0  0  0  0  0  0
    3.6433   -3.4507   -3.2977 C   0  0  0  0  0  0  0  0  0  0  0  0
    2.5187   -3.7902   -4.0149 C   0  0  0  0  0  0  0  0  0  0  0  0
    1.3423   -4.0989   -3.3213 C   0  0  0  0  0  0  0  0  0  0  0  0
    1.3346   -4.0570   -1.9257 C   0  0  0  0  0  0  0  0  0  0  0  0
    0.2245   -4.4392   -4.0489 C   0  0  0  0  0  0  0  0  0  0  0  0
    0.1903   -4.4963   -5.4233 C   0  0  0  0  0  0  0  0  0  0  0  0
    1.3576   -4.1903   -6.0893 C   0  0  0  0  0  0  0  0  0  0  0  0
    2.4894   -3.8462   -5.3947 C   0  0  0  0  0  0  0  0  0  0  0  0
   -3.0221   -2.9623    0.8496 C   0  0  0  0  0  0  0  0  0  0  0  0
   -3.2924   -2.5679    2.2725 C   0  0  0  0  0  0  0  0  0  0  0  0
   -4.4531   -3.4307    2.7786 C   0  0  0  0  0  0  0  0  0  0  0  0
   -4.0864   -4.8281    2.7073 N   0  0  0  0  0  0  0  0  0  0  0  0
   -3.9177   -5.5527    3.7681 C   0  0  0  0  0  0  0  0  0  0  0  0
   -4.1192   -4.8798    5.0256 N   0  0  0  0  0  0  0  0  0  0  0  0
   -3.5591   -6.9226    3.6891 N   0  0  0  0  0  0  0  0  0  0  0  0
   -5.1345    1.5858    0.0373 C   0  0  0  0  0  0  0  0  0  0  0  0
   -5.9879    1.1466   -1.0632 C   0  0  0  0  0  0  0  0  0  0  0  0
   -6.8974    0.0865   -1.1360 C   0  0  0  0  0  0  0  0  0  0  0  0
   -7.4673    0.0619   -2.3514 N   0  0  0  0  0  0  0  0  0  0  0  0
   -6.9721    1.0754   -3.1089 C   0  0  0  0  0  0  0  0  0  0  0  0
   -6.0643    1.7370   -2.3126 C   0  0  0  0  0  0  0  0  0  0  0  0
   -5.3918    2.8329   -2.8183 C   0  0  0  0  0  0  0  0  0  0  0  0
   -5.6590    3.2345   -4.1328 C   0  0  0  0  0  0  0  0  0  0  0  0
   -6.5776    2.5524   -4.9165 C   0  0  0  0  0  0  0  0  0  0  0  0
   -7.2597    1.4427   -4.4062 C   0  0  0  0  0  0  0  0  0  0  0  0
   -2.8905    3.9712    3.6551 C   0  0  0  0  0  0  0  0  0  0  0  0
   -2.3134    4.3485    4.7033 O   0  0  0  0  0  0  0  0  0  0  0  0
   -4.2955    3.8762    3.5109 N   0  0  0  0  0  0  0  0  0  0  0  0
    0.8956    5.3589   -5.0247 H   0  0  0  0  0  0  0  0  0  0  0  0
   -0.5536    5.4726   -3.9635 H   0  0  0  0  0  0  0  0  0  0  0  0
   -0.0927    3.8461   -4.6740 H   0  0  0  0  0  0  0  0  0  0  0  0
    1.7226    5.5081   -2.8911 H   0  0  0  0  0  0  0  0  0  0  0  0
    0.4197    4.4323   -2.2320 H   0  0  0  0  0  0  0  0  0  0  0  0
    1.3121    2.4920   -3.4997 H   0  0  0  0  0  0  0  0  0  0  0  0
    2.6183    3.5233   -4.1962 H   0  0  0  0  0  0  0  0  0  0  0  0
    3.6850    3.8697   -2.1637 H   0  0  0  0  0  0  0  0  0  0  0  0
    3.5384    2.1264   -2.4257 H   0  0  0  0  0  0  0  0  0  0  0  0
    1.5143    2.0182   -0.9423 H   0  0  0  0  0  0  0  0  0  0  0  0
    1.8446    4.9401   -0.4497 H   0  0  0  0  0  0  0  0  0  0  0  0
   -0.8254    5.4108    0.2476 H   0  0  0  0  0  0  0  0  0  0  0  0
    0.5078    5.7236    1.3426 H   0  0  0  0  0  0  0  0  0  0  0  0
   -0.4025    4.8394    3.1976 H   0  0  0  0  0  0  0  0  0  0  0  0
   -1.7385    5.7135    2.3959 H   0  0  0  0  0  0  0  0  0  0  0  0
   -1.3423    2.7514    2.8901 H   0  0  0  0  0  0  0  0  0  0  0  0
   -3.3037    3.8091    0.7643 H   0  0  0  0  0  0  0  0  0  0  0  0
   -3.0856    1.6946   -0.8184 H   0  0  0  0  0  0  0  0  0  0  0  0
   -4.2715   -0.8605    0.2317 H   0  0  0  0  0  0  0  0  0  0  0  0
   -1.8924   -2.4696   -0.9143 H   0  0  0  0  0  0  0  0  0  0  0  0
   -0.5658   -2.9921    1.6385 H   0  0  0  0  0  0  0  0  0  0  0  0
    1.9421   -2.4958    1.9111 H   0  0  0  0  0  0  0  0  0  0  0  0
    2.8450   -0.8644   -0.4498 H   0  0  0  0  0  0  0  0  0  0  0  0
    4.8662    1.0053    1.7650 H   0  0  0  0  0  0  0  0  0  0  0  0
    3.9582    0.6829   -1.1338 H   0  0  0  0  0  0  0  0  0  0  0  0
    5.9784   -0.6743   -0.5733 H   0  0  0  0  0  0  0  0  0  0  0  0
    6.6746    0.7929    0.1160 H   0  0  0  0  0  0  0  0  0  0  0  0
    6.4257   -1.8299    1.7051 H   0  0  0  0  0  0  0  0  0  0  0  0
    7.8415   -1.1471    0.8636 H   0  0  0  0  0  0  0  0  0  0  0  0
    7.8684    0.7640    2.2404 H   0  0  0  0  0  0  0  0  0  0  0  0
    6.2987    0.3607    3.0546 H   0  0  0  0  0  0  0  0  0  0  0  0
    9.7185   -1.8049    5.2425 H   0  0  0  0  0  0  0  0  0  0  0  0
    9.0506   -0.8977    6.6051 H   0  0  0  0  0  0  0  0  0  0  0  0
    8.0915    1.8707    4.3658 H   0  0  0  0  0  0  0  0  0  0  0  0
    7.4531    1.2453    5.9112 H   0  0  0  0  0  0  0  0  0  0  0  0
    1.6295   -4.4448    0.6260 H   0  0  0  0  0  0  0  0  0  0  0  0
    3.3421   -3.9797    0.6959 H   0  0  0  0  0  0  0  0  0  0  0  0
    4.4916   -3.1487   -1.3396 H   0  0  0  0  0  0  0  0  0  0  0  0
    4.5295   -3.2191   -3.8635 H   0  0  0  0  0  0  0  0  0  0  0  0
    0.3929   -4.3033   -1.4454 H   0  0  0  0  0  0  0  0  0  0  0  0
   -0.6770   -4.6743   -3.4960 H   0  0  0  0  0  0  0  0  0  0  0  0
   -0.7126   -4.7677   -5.9171 H   0  0  0  0  0  0  0  0  0  0  0  0
    1.3507   -4.2297   -7.1739 H   0  0  0  0  0  0  0  0  0  0  0  0
    3.3715   -3.6166   -5.9568 H   0  0  0  0  0  0  0  0  0  0  0  0
   -3.9648   -2.9186    0.2639 H   0  0  0  0  0  0  0  0  0  0  0  0
   -2.7469   -4.0454    0.8569 H   0  0  0  0  0  0  0  0  0  0  0  0
   -3.5859   -1.5210    2.4181 H   0  0  0  0  0  0  0  0  0  0  0  0
   -2.4167   -2.8228    2.9399 H   0  0  0  0  0  0  0  0  0  0  0  0
   -4.6953   -3.1067    3.8056 H   0  0  0  0  0  0  0  0  0  0  0  0
   -5.3344   -3.2613    2.1505 H   0  0  0  0  0  0  0  0  0  0  0  0
   -5.0386   -5.0018    5.5041 H   0  0  0  0  0  0  0  0  0  0  0  0
   -3.3714   -4.2866    5.4494 H   0  0  0  0  0  0  0  0  0  0  0  0
   -2.8596   -7.3210    4.3686 H   0  0  0  0  0  0  0  0  0  0  0  0
   -3.9410   -7.5939    2.9931 H   0  0  0  0  0  0  0  0  0  0  0  0
   -5.2267    2.7210    0.0531 H   0  0  0  0  0  0  0  0  0  0  0  0
   -5.6263    1.3097    1.0214 H   0  0  0  0  0  0  0  0  0  0  0  0
   -7.0586   -0.5771   -0.2811 H   0  0  0  0  0  0  0  0  0  0  0  0
   -8.1951   -0.6544   -2.6537 H   0  0  0  0  0  0  0  0  0  0  0  0
   -4.6681    3.4042   -2.2639 H   0  0  0  0  0  0  0  0  0  0  0  0
   -5.1431    4.0892   -4.5461 H   0  0  0  0  0  0  0  0  0  0  0  0
   -6.7703    2.8676   -5.9162 H   0  0  0  0  0  0  0  0  0  0  0  0
   -7.9610    0.9440   -5.0429 H   0  0  0  0  0  0  0  0  0  0  0  0
   -4.7840    3.0583    3.0611 H   0  0  0  0  0  0  0  0  0  0  0  0
   -4.8658    4.6695    3.8767 H   0  0  0  0  0  0  0  0  0  0  0  0
  1  2  1  0
  2  3  1  0
  3  4  1  0
  4  5  1  0
  5  6  1  0
  6  7  1  0
  7  8  2  0
  7  9  1  0
  9 10  1  0
 10 11  1  0
 11 12  1  0
 12 13  1  0
 13 14  2  0
 13 15  1  0
 15 16  1  0
 16 17  1  0
 17 18  2  0
 17 19  1  0
 19 20  1  0
 20 21  1  0
 21 22  2  0
 21 23  1  0
 23 24  1  0
 24 25  1  0
 25 26  2  0
 25 27  1  0
 27 28  1  0
 28 29  1  0
 29 30  2  0
 27 31  1  0
 31 32  1  0
 32 33  1  0
 33 34  1  0
 34 35  2  3
 35 36  1  0
 35 37  1  0
 23 38  1  0
 38 39  1  0
 39 40  2  0
 40 41  1  0
 41 42  2  0
 42 43  1  0
 43 44  2  0
 43 45  1  0
 45 46  2  0
 46 47  1  0
 47 48  2  0
 19 49  1  0
 49 50  1  0
 50 51  1  0
 51 52  1  0
 52 53  2  3
 53 54  1  0
 53 55  1  0
 15 56  1  0
 56 57  1  0
 57 58  2  0
 58 59  1  0
 59 60  1  0
 60 61  2  0
 61 62  1  0
 62 63  2  0
 63 64  1  0
 64 65  2  0
 11 66  1  0
 66 67  2  0
 66 68  1  0
 29  5  1  0
 44 39  1  0
 61 57  1  0
 48 42  1  0
 65 60  1  0
  1 69  1  0
  1 70  1  0
  1 71  1  0
  2 72  1  0
  2 73  1  0
  3 74  1  0
  3 75  1  0
  4 76  1  0
  4 77  1  0
  5 78  1  6
  6 79  1  0
  9 80  1  0
  9 81  1  0
 10 82  1  0
 10 83  1  0
 11 84  1  1
 12 85  1  0
 15 86  1  6
 16 87  1  0
 19 88  1  6
 20 89  1  0
 23 90  1  1
 24 91  1  0
 27 92  1  1
 28 93  1  0
 31 94  1  0
 31 95  1  0
 32 96  1  0
 32 97  1  0
 33 98  1  0
 33 99  1  0
 36100  1  0
 36101  1  0
 37102  1  0
 37103  1  0
 38104  1  0
 38105  1  0
 40106  1  0
 41107  1  0
 44108  1  0
 45109  1  0
 46110  1  0
 47111  1  0
 48112  1  0
 49113  1  0
 49114  1  0
 50115  1  0
 50116  1  0
 51117  1  0
 51118  1  0
 54119  1  0
 54120  1  0
 55121  1  0
 55122  1  0
 56123  1  0
 56124  1  0
 58125  1  0
 59126  1  0
 62127  1  0
 63128  1  0
 64129  1  0
 65130  1  0
 68131  1  0
 68132  1  0
M  END
>  <Ligand ID>  (1) 
LIG0001837

>  <Ligand>  (1) 
CHEMBL204263

>  <SMILES>  (1) 
CCCC[C@@H]1NC(=O)CC[C@H](NC(=O)[C@@H](NC(=O)[C@@H](NC(=O)[C@H](NC(=O)[C@H](NC1=O)CCCN=C(N)N)Cc1ccc2c(c1)cccc2)CCCN=C(N)N)Cc1c[nH]c2c1cccc2)C(=O)N

>  <CID>  (1) 
44408515.0

>  <ChEMBL ID>  (1) 
nan

>  <InChiKey>  (1) 
UHCXNXMBPAFWDS-VRHOQGROSA-N

>  <InChi>  (1) 
InChI=1S/C47H64N14O7/c1-2-3-13-34-41(64)58-35(15-8-21-53-46(49)50)42(65)60-37(24-27-17-18-28-10-4-5-11-29(28)23-27)44(67)59-36(16-9-22-54-47(51)52)43(66)61-38(25-30-26-55-32-14-7-6-12-31(30)32)45(68)57-33(40(48)63)19-20-39(62)56-34/h4-7,10-12,14,17-18,23,26,33-38,55H,2-3,8-9,13,15-16,19-22,24-25H2,1H3,(H2,48,63)(H,56,62)(H,57,68)(H,58,64)(H,59,67)(H,60,65)(H,61,66)(H4,49,50,53)(H4,51,52,54)/t33-,34-,35+,36-,37+,38-/m0/s1

>  <IUPAC Name>  (1) 
(2S,5R,8R,11S,14S,17S)-2-butyl-5,11-bis[3-(diaminomethylideneamino)propyl]-14-(1H-indol-3-ylmethyl)-8-(naphthalen-2-ylmethyl)-3,6,9,12,15,20-hexaoxo-1,4,7,10,13,16-hexazacycloicosane-17-carboxamide

$$$$
