
     RDKit          3D

 27 31  0  0  0  0  0  0  0  0999 V2000
    3.7845   -0.1559   -1.2826 O   0  0  0  0  0  0  0  0  0  0  0  0
    2.8577   -0.6297   -0.3387 C   0  0  0  0  0  0  0  0  0  0  0  0
    2.7630   -1.8976   -0.2845 O   0  0  0  0  0  0  0  0  0  0  0  0
    2.0584    0.2524    0.5201 C   0  0  2  0  0  0  0  0  0  0  0  0
    0.6436    0.0320    0.3681 C   0  0  0  0  0  0  0  0  0  0  0  0
   -0.0747   -1.2072    0.6179 C   0  0  0  0  0  0  0  0  0  0  0  0
   -1.0826   -0.4747    1.3826 C   0  0  0  0  0  0  0  0  0  0  0  0
   -0.3648    0.7668    1.1369 C   0  0  0  0  0  0  0  0  0  0  0  0
   -1.1348    0.9903   -0.0888 C   0  0  0  0  0  0  0  0  0  0  0  0
   -0.1131    0.2569   -0.8506 C   0  0  0  0  0  0  0  0  0  0  0  0
   -0.8659   -0.9895   -0.6092 C   0  0  0  0  0  0  0  0  0  0  0  0
   -1.8536   -0.2702    0.1603 C   0  0  0  0  0  0  0  0  0  0  0  0
   -3.2621   -0.3969    0.0893 C   0  0  0  0  0  0  0  0  0  0  0  0
   -3.9588   -0.7048    1.1142 O   0  0  0  0  0  0  0  0  0  0  0  0
   -3.9527   -0.1924   -1.0975 O   0  0  0  0  0  0  0  0  0  0  0  0
    2.3391    1.6718    0.2777 N   0  0  0  0  0  0  0  0  0  0  0  0
    4.7055   -0.5700   -1.3729 H   0  0  0  0  0  0  0  0  0  0  0  0
    2.3566    0.0691    1.5730 H   0  0  0  0  0  0  0  0  0  0  0  0
    0.3625   -2.1295    0.8734 H   0  0  0  0  0  0  0  0  0  0  0  0
   -1.4820   -0.8012    2.3083 H   0  0  0  0  0  0  0  0  0  0  0  0
   -0.1258    1.5159    1.8493 H   0  0  0  0  0  0  0  0  0  0  0  0
   -1.5841    1.8882   -0.3905 H   0  0  0  0  0  0  0  0  0  0  0  0
    0.2599    0.5579   -1.7845 H   0  0  0  0  0  0  0  0  0  0  0  0
   -1.0463   -1.7101   -1.3533 H   0  0  0  0  0  0  0  0  0  0  0  0
   -4.9481    0.0110   -1.0988 H   0  0  0  0  0  0  0  0  0  0  0  0
    1.8790    1.9018   -0.6542 H   0  0  0  0  0  0  0  0  0  0  0  0
    1.8395    2.2158    1.0095 H   0  0  0  0  0  0  0  0  0  0  0  0
  1  2  1  0
  2  3  2  0
  2  4  1  0
  4  5  1  0
  5  6  1  0
  6  7  1  0
  7  8  1  0
  8  9  1  0
  9 10  1  0
 10 11  1  0
 11 12  1  0
 12 13  1  0
 13 14  2  0
 13 15  1  0
  4 16  1  0
 10  5  1  0
  8  5  1  0
 12  9  1  0
 11  6  1  0
 12  7  1  0
  1 17  1  0
  4 18  1  1
  6 19  1  0
  7 20  1  0
  8 21  1  0
  9 22  1  0
 10 23  1  0
 11 24  1  0
 15 25  1  0
 16 26  1  0
 16 27  1  0
M  END
>  <Ligand ID>  (1) 
LIG0002849

>  <Ligand>  (1) 
CHEMBL2021372

>  <SMILES>  (1) 
OC(=O)[C@H](C12C3C4C2C2C1C3C42C(=O)O)N

>  <CID>  (1) 
10198359.0

>  <ChEMBL ID>  (1) 
nan

>  <InChiKey>  (1) 
UVZLSWUNCANUPD-SBISGXONSA-N

>  <InChi>  (1) 
InChI=1S/C11H11NO4/c12-7(8(13)14)10-1-4-2(10)6-3(10)5(1)11(4,6)9(15)16/h1-7H,12H2,(H,13,14)(H,15,16)/t1?,2?,3?,4?,5?,6?,7-,10?,11?/m1/s1

>  <IUPAC Name>  (1) 
4-[(S)-amino(carboxy)methyl]cubane-1-carboxylic acid

$$$$
