
     RDKit          3D

142144  0  0  0  0  0  0  0  0999 V2000
    9.9054   -0.8897   -0.7847 C   0  0  0  0  0  0  0  0  0  0  0  0
    8.4100   -1.1343   -0.9710 C   0  0  0  0  0  0  0  0  0  0  0  0
    7.6338    0.1445   -0.8924 C   0  0  1  0  0  0  0  0  0  0  0  0
    6.1702    0.0329   -1.1217 C   0  0  2  0  0  0  0  0  0  0  0  0
    5.4349    1.2402   -1.0488 N   0  0  0  0  0  0  0  0  0  0  0  0
    4.9568    1.9340    0.0980 C   0  0  0  0  0  0  0  0  0  0  0  0
    5.2148    1.4477    1.1909 O   0  0  0  0  0  0  0  0  0  0  0  0
    4.1620    3.2150   -0.0103 C   0  0  1  0  0  0  0  0  0  0  0  0
    3.8083    3.7079    1.3021 N   0  0  0  0  0  0  0  0  0  0  0  0
    2.7259    3.0604    1.9611 C   0  0  0  0  0  0  0  0  0  0  0  0
    2.2370    2.1110    1.3405 O   0  0  0  0  0  0  0  0  0  0  0  0
    2.1477    3.3845    3.2849 C   0  0  0  0  0  0  0  0  0  0  0  0
    1.2953    2.3161    3.8393 C   0  0  0  0  0  0  0  0  0  0  0  0
   -0.3370    2.1422    3.2031 S   0  0  0  0  0  0  0  0  0  0  0  0
   -0.4403    1.9290    1.1391 S   0  0  0  0  0  0  0  0  0  0  0  0
   -0.1743    0.3224    0.5741 C   0  0  0  0  0  0  0  0  0  0  0  0
   -1.1505   -0.7674    0.8458 C   0  0  2  0  0  0  0  0  0  0  0  0
   -0.3737   -2.0056    0.5080 N   0  0  0  0  0  0  0  0  0  0  0  0
   -0.7798   -3.2008   -0.0507 C   0  0  0  0  0  0  0  0  0  0  0  0
   -1.9264   -3.3526   -0.3960 O   0  0  0  0  0  0  0  0  0  0  0  0
    0.3179   -4.2708   -0.2004 C   0  0  1  0  0  0  0  0  0  0  0  0
    1.4563   -3.6811    0.4915 N   0  0  0  0  0  0  0  0  0  0  0  0
    2.5847   -3.0811   -0.1033 C   0  0  0  0  0  0  0  0  0  0  0  0
    2.5480   -2.9966   -1.3506 O   0  0  0  0  0  0  0  0  0  0  0  0
    3.7637   -2.5361    0.5898 C   0  0  1  0  0  0  0  0  0  0  0  0
    4.3125   -1.3239    0.0346 N   0  0  0  0  0  0  0  0  0  0  0  0
    5.5962   -1.1985   -0.5909 C   0  0  0  0  0  0  0  0  0  0  0  0
    6.2056   -2.2921   -0.6467 O   0  0  0  0  0  0  0  0  0  0  0  0
    3.7431   -2.6712    2.0592 C   0  0  0  0  0  0  0  0  0  0  0  0
    3.7781   -4.1073    2.4995 C   0  0  0  0  0  0  0  0  0  0  0  0
    5.0703   -4.7950    2.1094 C   0  0  0  0  0  0  0  0  0  0  0  0
    6.0950   -4.1557    1.7712 O   0  0  0  0  0  0  0  0  0  0  0  0
    5.1259   -6.2043    2.1294 N   0  0  0  0  0  0  0  0  0  0  0  0
   -0.0508   -5.5433    0.4650 C   0  0  0  0  0  0  0  0  0  0  0  0
   -1.2862   -6.1772   -0.0756 C   0  0  0  0  0  0  0  0  0  0  0  0
   -2.4410   -5.8279    0.2525 O   0  0  0  0  0  0  0  0  0  0  0  0
   -1.2192   -7.2585   -1.0348 N   0  0  0  0  0  0  0  0  0  0  0  0
   -2.2600   -0.6794   -0.1758 C   0  0  0  0  0  0  0  0  0  0  0  0
   -1.9310   -0.1201   -1.2575 O   0  0  0  0  0  0  0  0  0  0  0  0
   -3.5672   -1.1932    0.0654 N   0  0  0  0  0  0  0  0  0  0  0  0
   -4.0713   -1.7692    1.2624 C   0  0  0  0  0  0  0  0  0  0  0  0
   -5.4213   -1.3981    1.6936 C   0  0  0  0  0  0  0  0  0  0  0  0
   -5.8033   -0.3025    2.4178 C   0  0  0  0  0  0  0  0  0  0  0  0
   -7.1437   -0.1101    2.7712 C   0  0  0  0  0  0  0  0  0  0  0  0
   -8.1310   -1.0295    2.3960 C   0  0  0  0  0  0  0  0  0  0  0  0
   -7.7574   -2.1278    1.6739 C   0  0  0  0  0  0  0  0  0  0  0  0
   -6.4444   -2.2957    1.3397 C   0  0  0  0  0  0  0  0  0  0  0  0
   -8.7309   -3.1815    1.2276 C   0  0  0  0  0  0  0  0  0  0  0  0
   -4.4787   -1.0913   -1.0737 C   0  0  0  0  0  0  0  0  0  0  0  0
   -5.1777    0.2203   -1.1000 C   0  0  0  0  0  0  0  0  0  0  0  0
   -5.0331    1.1320   -0.2673 O   0  0  0  0  0  0  0  0  0  0  0  0
   -6.0866    0.4196   -2.1860 N   0  0  0  0  0  0  0  0  0  0  0  0
   -6.8629    1.6306   -2.3496 C   0  0  2  0  0  0  0  0  0  0  0  0
   -8.3042    1.2739   -2.3801 C   0  0  0  0  0  0  0  0  0  0  0  0
   -8.5832    0.0566   -2.2390 O   0  0  0  0  0  0  0  0  0  0  0  0
   -9.3607    2.1937   -2.5550 N   0  0  0  0  0  0  0  0  0  0  0  0
  -10.7653    1.8439   -2.5801 C   0  0  0  0  0  0  0  0  0  0  0  0
  -11.1538    1.2198   -1.2990 C   0  0  0  0  0  0  0  0  0  0  0  0
  -12.3684    0.8368   -1.1616 O   0  0  0  0  0  0  0  0  0  0  0  0
  -10.2955    1.0068   -0.1966 N   0  0  0  0  0  0  0  0  0  0  0  0
   -6.4469    2.5172   -3.4597 C   0  0  0  0  0  0  0  0  0  0  0  0
   -5.0523    3.0635   -3.3904 C   0  0  0  0  0  0  0  0  0  0  0  0
   -4.0030    2.0066   -3.3835 C   0  0  0  0  0  0  0  0  0  0  0  0
   -4.8227    3.9973   -2.2430 C   0  0  0  0  0  0  0  0  0  0  0  0
    4.7343    4.1757   -0.9557 C   0  0  0  0  0  0  0  0  0  0  0  0
    6.0916    4.6630   -0.7413 C   0  0  0  0  0  0  0  0  0  0  0  0
    6.3377    5.7692    0.0879 C   0  0  0  0  0  0  0  0  0  0  0  0
    7.6206    6.2352    0.2655 C   0  0  0  0  0  0  0  0  0  0  0  0
    8.7176    5.6357   -0.3629 C   0  0  0  0  0  0  0  0  0  0  0  0
    8.4874    4.5463   -1.1797 C   0  0  0  0  0  0  0  0  0  0  0  0
    7.2155    4.0939   -1.3495 C   0  0  0  0  0  0  0  0  0  0  0  0
   10.0143    6.1053   -0.1847 O   0  0  0  0  0  0  0  0  0  0  0  0
    8.0294    0.8330    0.4056 C   0  0  0  0  0  0  0  0  0  0  0  0
   10.2803   -0.0654   -1.3805 H   0  0  0  0  0  0  0  0  0  0  0  0
   10.1898   -0.9056    0.2782 H   0  0  0  0  0  0  0  0  0  0  0  0
   10.3964   -1.8194   -1.2078 H   0  0  0  0  0  0  0  0  0  0  0  0
    8.1530   -1.7122   -0.0284 H   0  0  0  0  0  0  0  0  0  0  0  0
    8.2201   -1.7642   -1.8284 H   0  0  0  0  0  0  0  0  0  0  0  0
    8.0668    0.7992   -1.7178 H   0  0  0  0  0  0  0  0  0  0  0  0
    6.1382   -0.2036   -2.2897 H   0  0  0  0  0  0  0  0  0  0  0  0
    5.1895    1.7344   -1.9370 H   0  0  0  0  0  0  0  0  0  0  0  0
    3.1847    2.7880   -0.4636 H   0  0  0  0  0  0  0  0  0  0  0  0
    4.2491    4.4644    1.8161 H   0  0  0  0  0  0  0  0  0  0  0  0
    1.6116    4.3354    3.1923 H   0  0  0  0  0  0  0  0  0  0  0  0
    3.0230    3.6281    3.9635 H   0  0  0  0  0  0  0  0  0  0  0  0
    1.1821    2.5791    4.9561 H   0  0  0  0  0  0  0  0  0  0  0  0
    1.8412    1.3151    3.8413 H   0  0  0  0  0  0  0  0  0  0  0  0
    0.8901   -0.0760    0.8116 H   0  0  0  0  0  0  0  0  0  0  0  0
   -0.1091    0.3258   -0.6030 H   0  0  0  0  0  0  0  0  0  0  0  0
   -1.5186   -0.8635    1.8261 H   0  0  0  0  0  0  0  0  0  0  0  0
    0.6274   -1.9235    0.7580 H   0  0  0  0  0  0  0  0  0  0  0  0
    0.4904   -4.4371   -1.2727 H   0  0  0  0  0  0  0  0  0  0  0  0
    1.4004   -3.6573    1.5078 H   0  0  0  0  0  0  0  0  0  0  0  0
    4.5748   -3.3541    0.2735 H   0  0  0  0  0  0  0  0  0  0  0  0
    3.7613   -0.4641    0.0557 H   0  0  0  0  0  0  0  0  0  0  0  0
    2.7315   -2.2778    2.3985 H   0  0  0  0  0  0  0  0  0  0  0  0
    4.5133   -2.0609    2.5768 H   0  0  0  0  0  0  0  0  0  0  0  0
    3.0166   -4.7642    2.0692 H   0  0  0  0  0  0  0  0  0  0  0  0
    3.6437   -4.1951    3.6131 H   0  0  0  0  0  0  0  0  0  0  0  0
    6.0470   -6.7096    2.0772 H   0  0  0  0  0  0  0  0  0  0  0  0
    4.2155   -6.7537    2.1934 H   0  0  0  0  0  0  0  0  0  0  0  0
    0.7304   -6.3256    0.3910 H   0  0  0  0  0  0  0  0  0  0  0  0
   -0.2393   -5.4391    1.5596 H   0  0  0  0  0  0  0  0  0  0  0  0
   -0.3384   -7.8633   -1.0082 H   0  0  0  0  0  0  0  0  0  0  0  0
   -1.9925   -7.4204   -1.7145 H   0  0  0  0  0  0  0  0  0  0  0  0
   -4.0369   -2.8855    1.1605 H   0  0  0  0  0  0  0  0  0  0  0  0
   -3.3395   -1.6003    2.1309 H   0  0  0  0  0  0  0  0  0  0  0  0
   -5.0383    0.3965    2.6969 H   0  0  0  0  0  0  0  0  0  0  0  0
   -7.4413    0.7525    3.3499 H   0  0  0  0  0  0  0  0  0  0  0  0
   -9.1712   -0.8908    2.6634 H   0  0  0  0  0  0  0  0  0  0  0  0
   -6.1831   -3.1851    0.7701 H   0  0  0  0  0  0  0  0  0  0  0  0
   -9.2608   -2.7589    0.3333 H   0  0  0  0  0  0  0  0  0  0  0  0
   -9.5018   -3.4014    1.9731 H   0  0  0  0  0  0  0  0  0  0  0  0
   -8.1888   -4.0736    0.8575 H   0  0  0  0  0  0  0  0  0  0  0  0
   -3.9198   -1.3314   -1.9766 H   0  0  0  0  0  0  0  0  0  0  0  0
   -5.3022   -1.8561   -0.9787 H   0  0  0  0  0  0  0  0  0  0  0  0
   -6.2214   -0.3181   -2.9067 H   0  0  0  0  0  0  0  0  0  0  0  0
   -6.6873    2.2121   -1.3974 H   0  0  0  0  0  0  0  0  0  0  0  0
   -9.1056    3.2195   -2.6754 H   0  0  0  0  0  0  0  0  0  0  0  0
  -11.3807    2.7414   -2.7888 H   0  0  0  0  0  0  0  0  0  0  0  0
  -10.8913    1.0644   -3.3642 H   0  0  0  0  0  0  0  0  0  0  0  0
  -10.0720    0.0090    0.0577 H   0  0  0  0  0  0  0  0  0  0  0  0
   -9.8772    1.7909    0.3681 H   0  0  0  0  0  0  0  0  0  0  0  0
   -6.4350    1.8592   -4.3895 H   0  0  0  0  0  0  0  0  0  0  0  0
   -7.1988    3.3047   -3.7005 H   0  0  0  0  0  0  0  0  0  0  0  0
   -4.9253    3.6897   -4.3179 H   0  0  0  0  0  0  0  0  0  0  0  0
   -3.1878    2.2405   -4.1424 H   0  0  0  0  0  0  0  0  0  0  0  0
   -4.3418    1.0000   -3.6878 H   0  0  0  0  0  0  0  0  0  0  0  0
   -3.4468    2.0211   -2.4162 H   0  0  0  0  0  0  0  0  0  0  0  0
   -4.1769    4.8151   -2.5643 H   0  0  0  0  0  0  0  0  0  0  0  0
   -5.8053    4.4342   -1.9612 H   0  0  0  0  0  0  0  0  0  0  0  0
   -4.3238    3.5402   -1.3601 H   0  0  0  0  0  0  0  0  0  0  0  0
    4.7438    3.7207   -2.0078 H   0  0  0  0  0  0  0  0  0  0  0  0
    4.0200    5.0440   -1.1000 H   0  0  0  0  0  0  0  0  0  0  0  0
    5.5023    6.2547    0.5898 H   0  0  0  0  0  0  0  0  0  0  0  0
    7.8463    7.0985    0.9102 H   0  0  0  0  0  0  0  0  0  0  0  0
    9.3577    4.1102   -1.6503 H   0  0  0  0  0  0  0  0  0  0  0  0
    7.0896    3.2317   -2.0217 H   0  0  0  0  0  0  0  0  0  0  0  0
   10.4886    6.1238    0.6884 H   0  0  0  0  0  0  0  0  0  0  0  0
    9.1593    0.7778    0.5308 H   0  0  0  0  0  0  0  0  0  0  0  0
    7.6426    0.3503    1.3066 H   0  0  0  0  0  0  0  0  0  0  0  0
    7.7284    1.8899    0.3896 H   0  0  0  0  0  0  0  0  0  0  0  0
  1  2  1  0
  2  3  1  0
  3  4  1  0
  4  5  1  0
  5  6  1  0
  6  7  2  0
  6  8  1  0
  8  9  1  0
  9 10  1  0
 10 11  2  0
 10 12  1  0
 12 13  1  0
 13 14  1  0
 14 15  1  0
 15 16  1  0
 16 17  1  0
 17 18  1  0
 18 19  1  0
 19 20  2  0
 19 21  1  0
 21 22  1  0
 22 23  1  0
 23 24  2  0
 23 25  1  0
 25 26  1  0
 26 27  1  0
 27 28  2  0
 25 29  1  0
 29 30  1  0
 30 31  1  0
 31 32  2  0
 31 33  1  0
 21 34  1  0
 34 35  1  0
 35 36  2  0
 35 37  1  0
 17 38  1  0
 38 39  2  0
 38 40  1  0
 40 41  1  0
 41 42  1  0
 42 43  2  0
 43 44  1  0
 44 45  2  0
 45 46  1  0
 46 47  2  0
 46 48  1  0
 40 49  1  0
 49 50  1  0
 50 51  2  0
 50 52  1  0
 52 53  1  0
 53 54  1  0
 54 55  2  0
 54 56  1  0
 56 57  1  0
 57 58  1  0
 58 59  2  0
 58 60  1  0
 53 61  1  0
 61 62  1  0
 62 63  1  0
 62 64  1  0
  8 65  1  0
 65 66  1  0
 66 67  2  0
 67 68  1  0
 68 69  2  0
 69 70  1  0
 70 71  2  0
 69 72  1  0
  3 73  1  0
 27  4  1  0
 47 42  1  0
 71 66  1  0
  1 74  1  0
  1 75  1  0
  1 76  1  0
  2 77  1  0
  2 78  1  0
  3 79  1  6
  4 80  1  6
  5 81  1  0
  8 82  1  6
  9 83  1  0
 12 84  1  0
 12 85  1  0
 13 86  1  0
 13 87  1  0
 16 88  1  0
 16 89  1  0
 17 90  1  1
 18 91  1  0
 21 92  1  6
 22 93  1  0
 25 94  1  6
 26 95  1  0
 29 96  1  0
 29 97  1  0
 30 98  1  0
 30 99  1  0
 33100  1  0
 33101  1  0
 34102  1  0
 34103  1  0
 37104  1  0
 37105  1  0
 41106  1  0
 41107  1  0
 43108  1  0
 44109  1  0
 45110  1  0
 47111  1  0
 48112  1  0
 48113  1  0
 48114  1  0
 49115  1  0
 49116  1  0
 52117  1  0
 53118  1  1
 56119  1  0
 57120  1  0
 57121  1  0
 60122  1  0
 60123  1  0
 61124  1  0
 61125  1  0
 62126  1  0
 63127  1  0
 63128  1  0
 63129  1  0
 64130  1  0
 64131  1  0
 64132  1  0
 65133  1  0
 65134  1  0
 67135  1  0
 68136  1  0
 70137  1  0
 71138  1  0
 72139  1  0
 73140  1  0
 73141  1  0
 73142  1  0
M  END
>  <Ligand ID>  (1) 
LIG0001634

>  <Ligand>  (1) 
CHEMBL3353946

>  <SMILES>  (1) 
CC[C@@H]([C@@H]1NC(=O)[C@@H](NC(=O)CCSSC[C@H](NC(=O)[C@@H](NC(=O)[C@@H](NC1=O)CCC(=O)N)CC(=O)N)C(=O)N(Cc1cccc(c1)C)CC(=O)N[C@H](C(=O)NCC(=O)N)CC(C)C)Cc1ccc(cc1)O)C

>  <CID>  (1) 
118719835.0

>  <ChEMBL ID>  (1) 
nan

>  <InChiKey>  (1) 
XISUPLHQRSZXIY-OTQBRQNKSA-N

>  <InChi>  (1) 
InChI=1S/C48H69N11O12S2/c1-6-28(5)42-47(70)55-32(14-15-37(49)61)44(67)56-35(21-38(50)62)45(68)57-36(25-73-72-17-16-40(64)53-34(46(69)58-42)20-29-10-12-31(60)13-11-29)48(71)59(23-30-9-7-8-27(4)19-30)24-41(65)54-33(18-26(2)3)43(66)52-22-39(51)63/h7-13,19,26,28,32-36,42,60H,6,14-18,20-25H2,1-5H3,(H2,49,61)(H2,50,62)(H2,51,63)(H,52,66)(H,53,64)(H,54,65)(H,55,70)(H,56,67)(H,57,68)(H,58,69)/t28-,32-,33-,34-,35-,36-,42-/m0/s1

>  <IUPAC Name>  (1) 
(4R,7S,10S,13S,16S)-7-(2-amino-2-oxoethyl)-N-[2-[[(2S)-1-[(2-amino-2-oxoethyl)amino]-4-methyl-1-oxopentan-2-yl]amino]-2-oxoethyl]-10-(3-amino-3-oxopropyl)-13-[(2S)-butan-2-yl]-16-[(4-hydroxyphenyl)methyl]-N-[(3-methylphenyl)methyl]-6,9,12,15,18-pentaoxo-1,2-dithia-5,8,11,14,17-pentazacycloicosane-4-carboxamide

$$$$
