
     RDKit          3D

 58 61  0  0  0  0  0  0  0  0999 V2000
   -0.1243   -5.4603    0.3579 C   0  0  0  0  0  0  0  0  0  0  0  0
   -0.7986   -4.5808   -0.4735 O   0  0  0  0  0  0  0  0  0  0  0  0
   -0.1962   -3.3569   -0.6288 C   0  0  0  0  0  0  0  0  0  0  0  0
   -0.0224   -2.5679    0.6416 C   0  0  0  0  0  0  0  0  0  0  0  0
    0.6151   -1.2891    0.3991 N   0  0  0  0  0  0  0  0  0  0  0  0
   -0.0548   -0.0948    0.1013 C   0  0  0  0  0  0  0  0  0  0  0  0
    0.6785    0.9278   -0.1280 O   0  0  0  0  0  0  0  0  0  0  0  0
   -1.5528    0.0394    0.0390 C   0  0  0  0  0  0  0  0  0  0  0  0
   -2.1936   -0.1801    1.3562 C   0  0  0  0  0  0  0  0  0  0  0  0
   -2.9432    1.0633    1.6306 C   0  0  0  0  0  0  0  0  0  0  0  0
   -3.3869    1.5043    2.7462 O   0  0  0  0  0  0  0  0  0  0  0  0
   -3.1006    1.7262    0.3862 N   0  0  0  0  0  0  0  0  0  0  0  0
   -1.8927    1.4448   -0.3493 C   0  0  0  0  0  0  0  0  0  0  0  0
   -4.2444    2.5306   -0.0462 C   0  0  0  0  0  0  0  0  0  0  0  0
   -5.2402    1.6764   -0.7208 C   0  0  0  0  0  0  0  0  0  0  0  0
   -5.2326    1.4204   -2.0849 C   0  0  0  0  0  0  0  0  0  0  0  0
   -6.2347    0.5943   -2.5819 C   0  0  0  0  0  0  0  0  0  0  0  0
   -7.2055    0.0432   -1.7655 C   0  0  0  0  0  0  0  0  0  0  0  0
   -7.2141    0.2972   -0.4081 C   0  0  0  0  0  0  0  0  0  0  0  0
   -6.2271    1.1141    0.0974 C   0  0  0  0  0  0  0  0  0  0  0  0
    2.0681   -1.1952    0.4541 C   0  0  0  0  0  0  0  0  0  0  0  0
    3.0828   -2.6967    0.8074 S   0  0  0  0  0  0  0  0  0  0  0  0
    4.6401   -1.7354    0.7041 C   0  0  0  0  0  0  0  0  0  0  0  0
    4.1946   -0.4746    0.4301 C   0  0  0  0  0  0  0  0  0  0  0  0
    2.8905   -0.3608    0.3347 N   0  0  0  0  0  0  0  0  0  0  0  0
    5.1294    0.6620    0.2613 C   0  0  0  0  0  0  0  0  0  0  0  0
    4.6983    1.9382   -0.0134 C   0  0  0  0  0  0  0  0  0  0  0  0
    5.5852    2.9811   -0.1611 C   0  0  0  0  0  0  0  0  0  0  0  0
    6.9502    2.7855   -0.0383 C   0  0  0  0  0  0  0  0  0  0  0  0
    7.4023    1.5152    0.2366 C   0  0  0  0  0  0  0  0  0  0  0  0
    6.4925    0.4773    0.3816 C   0  0  0  0  0  0  0  0  0  0  0  0
    7.8392    3.8829   -0.1938 N   0  0  0  0  0  0  0  0  0  0  0  0
    7.4054    5.0127   -0.4451 O   0  0  0  0  0  0  0  0  0  0  0  0
    9.1967    3.6944   -0.0657 O   0  0  0  0  0  0  0  0  0  0  0  0
   -0.0513   -5.0262    1.3612 H   0  0  0  0  0  0  0  0  0  0  0  0
   -0.5762   -6.4662    0.3432 H   0  0  0  0  0  0  0  0  0  0  0  0
    0.9356   -5.4908   -0.0291 H   0  0  0  0  0  0  0  0  0  0  0  0
    0.7904   -3.5436   -1.1309 H   0  0  0  0  0  0  0  0  0  0  0  0
   -0.8257   -2.7730   -1.3616 H   0  0  0  0  0  0  0  0  0  0  0  0
   -0.9536   -2.4161    1.1628 H   0  0  0  0  0  0  0  0  0  0  0  0
    0.6646   -3.1581    1.3016 H   0  0  0  0  0  0  0  0  0  0  0  0
   -1.9344   -0.7000   -0.7232 H   0  0  0  0  0  0  0  0  0  0  0  0
   -2.8807   -1.0597    1.3656 H   0  0  0  0  0  0  0  0  0  0  0  0
   -1.4040   -0.2756    2.1307 H   0  0  0  0  0  0  0  0  0  0  0  0
   -1.0548    2.0872    0.0061 H   0  0  0  0  0  0  0  0  0  0  0  0
   -2.0480    1.5576   -1.4512 H   0  0  0  0  0  0  0  0  0  0  0  0
   -3.8927    3.3665   -0.7130 H   0  0  0  0  0  0  0  0  0  0  0  0
   -4.6754    3.0208    0.8362 H   0  0  0  0  0  0  0  0  0  0  0  0
   -4.4714    1.8579   -2.6963 H   0  0  0  0  0  0  0  0  0  0  0  0
   -6.2638    0.3715   -3.6341 H   0  0  0  0  0  0  0  0  0  0  0  0
   -7.9858   -0.5980   -2.1405 H   0  0  0  0  0  0  0  0  0  0  0  0
   -7.9453   -0.1084    0.2552 H   0  0  0  0  0  0  0  0  0  0  0  0
   -6.2401    1.3104    1.1707 H   0  0  0  0  0  0  0  0  0  0  0  0
    5.6050   -2.1635    0.8423 H   0  0  0  0  0  0  0  0  0  0  0  0
    3.6133    2.0902   -0.1112 H   0  0  0  0  0  0  0  0  0  0  0  0
    5.2216    3.9868   -0.3792 H   0  0  0  0  0  0  0  0  0  0  0  0
    8.4575    1.3051    0.3436 H   0  0  0  0  0  0  0  0  0  0  0  0
    6.9113   -0.5133    0.5992 H   0  0  0  0  0  0  0  0  0  0  0  0
  1  2  1  0
  2  3  1  0
  3  4  1  0
  4  5  1  0
  5  6  1  0
  6  7  2  0
  6  8  1  0
  8  9  1  0
  9 10  1  0
 10 11  2  0
 10 12  1  0
 12 13  1  0
 12 14  1  0
 14 15  1  0
 15 16  2  0
 16 17  1  0
 17 18  2  0
 18 19  1  0
 19 20  2  0
  5 21  1  0
 21 22  1  0
 22 23  1  0
 23 24  2  0
 24 25  1  0
 24 26  1  0
 26 27  2  0
 27 28  1  0
 28 29  2  0
 29 30  1  0
 30 31  2  0
 29 32  1  0
 32 33  2  0
 32 34  1  0
 13  8  1  0
 20 15  1  0
 25 21  2  0
 31 26  1  0
  1 35  1  0
  1 36  1  0
  1 37  1  0
  3 38  1  0
  3 39  1  0
  4 40  1  0
  4 41  1  0
  8 42  1  0
  9 43  1  0
  9 44  1  0
 13 45  1  0
 13 46  1  0
 14 47  1  0
 14 48  1  0
 16 49  1  0
 17 50  1  0
 18 51  1  0
 19 52  1  0
 20 53  1  0
 23 54  1  0
 27 55  1  0
 28 56  1  0
 30 57  1  0
 31 58  1  0
M  CHG  2  32   1  34  -1
M  END
>  <Ligand ID>  (1) 
LIG0004901

>  <Ligand>  (1) 
MLS002182047

>  <SMILES>  (1) 
COCCN(C(=O)C1CC(=O)N(C1)Cc1ccccc1)c1scc(n1)c1ccc(cc1)[N+](=O)[O-]

>  <CID>  (1) 
25163156.0

>  <ChEMBL ID>  (1) 
nan

>  <InChiKey>  (1) 
KHOYTVSHNYAHFK-UHFFFAOYSA-N

>  <InChi>  (1) 
InChI=1S/C24H24N4O5S/c1-33-12-11-27(24-25-21(16-34-24)18-7-9-20(10-8-18)28(31)32)23(30)19-13-22(29)26(15-19)14-17-5-3-2-4-6-17/h2-10,16,19H,11-15H2,1H3

>  <IUPAC Name>  (1) 
1-benzyl-N-(2-methoxyethyl)-N-[4-(4-nitrophenyl)-1,3-thiazol-2-yl]-5-oxopyrrolidine-3-carboxamide

$$$$
