
     RDKit          3D

 44 45  0  0  0  0  0  0  0  0999 V2000
    1.1851   -0.9052    1.4744 S   0  0  0  0  0  0  0  0  0  0  0  0
    1.2215   -0.0429    0.0762 C   0  0  0  0  0  0  0  0  0  0  0  0
    2.4150    0.2074   -0.6354 N   0  0  0  0  0  0  0  0  0  0  0  0
    3.6681   -0.2909   -0.1874 C   0  0  0  0  0  0  0  0  0  0  0  0
    3.8453   -1.5669    0.3232 C   0  0  0  0  0  0  0  0  0  0  0  0
    5.0591   -2.0329    0.7714 C   0  0  0  0  0  0  0  0  0  0  0  0
    6.1690   -1.2254    0.7279 C   0  0  0  0  0  0  0  0  0  0  0  0
    6.0309    0.0438    0.2293 C   0  0  0  0  0  0  0  0  0  0  0  0
    4.8152    0.5016   -0.2169 C   0  0  0  0  0  0  0  0  0  0  0  0
    7.2504    0.9282    0.1879 C   0  0  0  0  0  0  0  0  0  0  0  0
   -0.0503    0.4554   -0.3838 N   0  0  0  0  0  0  0  0  0  0  0  0
   -1.2745    0.2259    0.3448 C   0  0  0  0  0  0  0  0  0  0  0  0
   -2.5090    0.7569   -0.3500 C   0  0  0  0  0  0  0  0  0  0  0  0
   -3.6649    0.4393    0.5725 C   0  0  0  0  0  0  0  0  0  0  0  0
   -4.3902    1.4940    1.1511 C   0  0  0  0  0  0  0  0  0  0  0  0
   -5.4320    1.1862    1.9997 C   0  0  0  0  0  0  0  0  0  0  0  0
   -5.7691   -0.1417    2.2871 C   0  0  0  0  0  0  0  0  0  0  0  0
   -5.0523   -1.1298    1.7159 N   0  0  0  0  0  0  0  0  0  0  0  0
   -4.0242   -0.8496    0.8784 C   0  0  0  0  0  0  0  0  0  0  0  0
   -2.7033    0.2383   -1.6591 N   0  0  0  0  0  0  0  0  0  0  0  0
   -3.9170    0.7454   -2.2883 C   0  0  0  0  0  0  0  0  0  0  0  0
   -2.5325   -1.1589   -1.8595 C   0  0  0  0  0  0  0  0  0  0  0  0
    2.3481    0.7737   -1.5061 H   0  0  0  0  0  0  0  0  0  0  0  0
    3.0098   -2.2566    0.3815 H   0  0  0  0  0  0  0  0  0  0  0  0
    5.1598   -3.0427    1.1649 H   0  0  0  0  0  0  0  0  0  0  0  0
    7.1077   -1.6296    1.0898 H   0  0  0  0  0  0  0  0  0  0  0  0
    4.7066    1.5147   -0.6117 H   0  0  0  0  0  0  0  0  0  0  0  0
    8.1580    0.3385    0.4072 H   0  0  0  0  0  0  0  0  0  0  0  0
    7.2314    1.4243   -0.7819 H   0  0  0  0  0  0  0  0  0  0  0  0
    7.0639    1.6990    0.9839 H   0  0  0  0  0  0  0  0  0  0  0  0
   -0.0594    0.9979   -1.2852 H   0  0  0  0  0  0  0  0  0  0  0  0
   -1.1447    0.7845    1.3258 H   0  0  0  0  0  0  0  0  0  0  0  0
   -1.3340   -0.8233    0.6376 H   0  0  0  0  0  0  0  0  0  0  0  0
   -2.3952    1.8569   -0.4146 H   0  0  0  0  0  0  0  0  0  0  0  0
   -4.1248    2.5382    0.9216 H   0  0  0  0  0  0  0  0  0  0  0  0
   -5.9814    2.0141    2.4387 H   0  0  0  0  0  0  0  0  0  0  0  0
   -6.5884   -0.3845    2.9570 H   0  0  0  0  0  0  0  0  0  0  0  0
   -3.4811   -1.7099    0.4627 H   0  0  0  0  0  0  0  0  0  0  0  0
   -4.1756    0.0789   -3.1200 H   0  0  0  0  0  0  0  0  0  0  0  0
   -4.7153    0.7710   -1.5219 H   0  0  0  0  0  0  0  0  0  0  0  0
   -3.7145    1.7368   -2.6817 H   0  0  0  0  0  0  0  0  0  0  0  0
   -1.7499   -1.5448   -1.2155 H   0  0  0  0  0  0  0  0  0  0  0  0
   -3.4928   -1.7307   -1.8626 H   0  0  0  0  0  0  0  0  0  0  0  0
   -2.1682   -1.2842   -2.9287 H   0  0  0  0  0  0  0  0  0  0  0  0
  1  2  2  0
  2  3  1  0
  3  4  1  0
  4  5  2  0
  5  6  1  0
  6  7  2  0
  7  8  1  0
  8  9  2  0
  8 10  1  0
  2 11  1  0
 11 12  1  0
 12 13  1  0
 13 14  1  0
 14 15  2  0
 15 16  1  0
 16 17  2  0
 17 18  1  0
 18 19  2  0
 13 20  1  0
 20 21  1  0
 20 22  1  0
  9  4  1  0
 19 14  1  0
  3 23  1  0
  5 24  1  0
  6 25  1  0
  7 26  1  0
  9 27  1  0
 10 28  1  0
 10 29  1  0
 10 30  1  0
 11 31  1  0
 12 32  1  0
 12 33  1  0
 13 34  1  0
 15 35  1  0
 16 36  1  0
 17 37  1  0
 19 38  1  0
 21 39  1  0
 21 40  1  0
 21 41  1  0
 22 42  1  0
 22 43  1  0
 22 44  1  0
M  END
>  <Ligand ID>  (1) 
LIG0003776

>  <Ligand>  (1) 
SMR000236204

>  <SMILES>  (1) 
S=C(Nc1cccc(c1)C)NCC(c1cccnc1)N(C)C

>  <CID>  (1) 
3600177.0

>  <ChEMBL ID>  (1) 
nan

>  <InChiKey>  (1) 
FAEPGMOWWWEYCC-UHFFFAOYSA-N

>  <InChi>  (1) 
InChI=1S/C17H22N4S/c1-13-6-4-8-15(10-13)20-17(22)19-12-16(21(2)3)14-7-5-9-18-11-14/h4-11,16H,12H2,1-3H3,(H2,19,20,22)

>  <IUPAC Name>  (1) 
1-[2-(dimethylamino)-2-pyridin-3-ylethyl]-3-(3-methylphenyl)thiourea

$$$$
