
     RDKit          3D

 70 72  0  0  0  0  0  0  0  0999 V2000
   -8.7050    4.6095   -1.5905 O   0  0  0  0  0  0  0  0  0  0  0  0
   -8.3923    3.4728   -1.1510 C   0  0  0  0  0  0  0  0  0  0  0  0
   -7.4544    2.6749   -1.8102 C   0  0  0  0  0  0  0  0  0  0  0  0
   -7.1259    1.4322   -1.3119 C   0  0  0  0  0  0  0  0  0  0  0  0
   -7.7254    1.0098   -0.1845 N   0  0  0  0  0  0  0  0  0  0  0  0
   -8.6366    1.8046    0.4412 C   0  0  0  0  0  0  0  0  0  0  0  0
   -9.1842    1.4055    1.4811 O   0  0  0  0  0  0  0  0  0  0  0  0
   -8.9728    3.0183   -0.0248 N   0  0  0  0  0  0  0  0  0  0  0  0
   -7.4160   -0.2887    0.3819 C   0  0  2  0  0  0  0  0  0  0  0  0
   -6.0449   -0.4871    0.4538 O   0  0  0  0  0  0  0  0  0  0  0  0
   -5.8267   -1.8510    0.5314 C   0  0  1  0  0  0  0  0  0  0  0  0
   -7.0303   -2.5641    0.0203 C   0  0  2  0  0  0  0  0  0  0  0  0
   -7.9130   -1.4377   -0.4756 C   0  0  1  0  0  0  0  0  0  0  0  0
   -9.2283   -1.7789   -0.1559 O   0  0  0  0  0  0  0  0  0  0  0  0
   -7.6688   -3.2685    1.0400 O   0  0  0  0  0  0  0  0  0  0  0  0
   -4.6496   -2.1957   -0.3738 C   0  0  0  0  0  0  0  0  0  0  0  0
   -3.5220   -1.4903    0.0715 O   0  0  0  0  0  0  0  0  0  0  0  0
   -2.1814   -1.8435   -0.9095 P   0  0  0  0  0  0  0  0  0  0  0  0
   -1.4007   -3.0208   -0.3294 O   0  0  0  0  0  0  0  0  0  0  0  0
   -1.1516   -0.5069   -0.8578 O   0  0  0  0  0  0  0  0  0  0  0  0
   -0.9010   -0.1234    0.7899 P   0  0  0  0  0  0  0  0  0  0  0  0
   -1.1262   -1.3665    1.6054 O   0  0  0  0  0  0  0  0  0  0  0  0
    0.6898    0.4497    0.8913 O   0  0  0  0  0  0  0  0  0  0  0  0
    1.5669   -0.6597    1.8169 P   0  0  0  0  0  0  0  0  0  0  0  0
    1.4511   -0.2426    3.2731 O   0  0  0  0  0  0  0  0  0  0  0  0
    3.2118   -0.6376    1.4365 O   0  0  0  0  0  0  0  0  0  0  0  0
    3.6403    0.6158    0.4139 P   0  0  0  0  0  0  0  0  0  0  0  0
    3.5057    0.2294   -1.0514 O   0  0  0  0  0  0  0  0  0  0  0  0
    5.2732    1.0121    0.7324 O   0  0  0  0  0  0  0  0  0  0  0  0
    6.1151   -0.0277    0.3317 C   0  0  0  0  0  0  0  0  0  0  0  0
    7.5762    0.2918    0.6009 C   0  0  1  0  0  0  0  0  0  0  0  0
    8.3124   -0.7757    0.1786 O   0  0  0  0  0  0  0  0  0  0  0  0
    9.5076   -0.5030   -0.4334 C   0  0  0  0  0  0  0  0  0  0  0  0
   10.3767   -1.5710   -0.2263 O   0  0  0  0  0  0  0  0  0  0  0  0
   10.1070    0.7293    0.2338 C   0  0  2  0  0  0  0  0  0  0  0  0
    9.2997    1.8889   -0.3087 C   0  0  2  0  0  0  0  0  0  0  0  0
    7.8535    1.5995   -0.0419 C   0  0  2  0  0  0  0  0  0  0  0  0
    7.3741    2.6143    0.7881 O   0  0  0  0  0  0  0  0  0  0  0  0
    9.5426    1.9775   -1.6868 O   0  0  0  0  0  0  0  0  0  0  0  0
   11.4598    0.8751   -0.0233 O   0  0  0  0  0  0  0  0  0  0  0  0
    2.7381    2.0156    0.7254 O   0  0  0  0  0  0  0  0  0  0  0  0
    0.8849   -2.1884    1.5957 O   0  0  0  0  0  0  0  0  0  0  0  0
   -2.0126    1.0882    1.1820 O   0  0  0  0  0  0  0  0  0  0  0  0
   -2.6424   -2.2160   -2.4765 O   0  0  0  0  0  0  0  0  0  0  0  0
   -7.0001    3.0593   -2.7133 H   0  0  0  0  0  0  0  0  0  0  0  0
   -6.4036    0.7897   -1.7984 H   0  0  0  0  0  0  0  0  0  0  0  0
   -9.6896    3.6066    0.4953 H   0  0  0  0  0  0  0  0  0  0  0  0
   -7.8896   -0.3867    1.3733 H   0  0  0  0  0  0  0  0  0  0  0  0
   -5.5787   -2.0856    1.5738 H   0  0  0  0  0  0  0  0  0  0  0  0
   -6.7775   -3.2811   -0.7858 H   0  0  0  0  0  0  0  0  0  0  0  0
   -7.7493   -1.2702   -1.5466 H   0  0  0  0  0  0  0  0  0  0  0  0
   -9.4156   -2.6876   -0.5045 H   0  0  0  0  0  0  0  0  0  0  0  0
   -8.3885   -2.7759    1.4865 H   0  0  0  0  0  0  0  0  0  0  0  0
   -4.4273   -3.2749   -0.3639 H   0  0  0  0  0  0  0  0  0  0  0  0
   -4.8370   -1.8798   -1.4029 H   0  0  0  0  0  0  0  0  0  0  0  0
    5.9331   -0.2119   -0.7513 H   0  0  0  0  0  0  0  0  0  0  0  0
    5.8125   -0.9683    0.8562 H   0  0  0  0  0  0  0  0  0  0  0  0
    7.6792    0.3729    1.7036 H   0  0  0  0  0  0  0  0  0  0  0  0
    9.4091   -0.2585   -1.5127 H   0  0  0  0  0  0  0  0  0  0  0  0
   11.2618   -1.4291   -0.6456 H   0  0  0  0  0  0  0  0  0  0  0  0
    9.8836    0.6767    1.3196 H   0  0  0  0  0  0  0  0  0  0  0  0
    9.6566    2.8191    0.1507 H   0  0  0  0  0  0  0  0  0  0  0  0
    7.2973    1.6936   -0.9996 H   0  0  0  0  0  0  0  0  0  0  0  0
    7.0693    2.2476    1.6721 H   0  0  0  0  0  0  0  0  0  0  0  0
    9.1569    2.8525   -1.9895 H   0  0  0  0  0  0  0  0  0  0  0  0
   11.9731    0.5284    0.7694 H   0  0  0  0  0  0  0  0  0  0  0  0
    2.1782    2.2831   -0.0514 H   0  0  0  0  0  0  0  0  0  0  0  0
    1.3093   -2.5793    0.7874 H   0  0  0  0  0  0  0  0  0  0  0  0
   -1.9139    1.3814    2.1113 H   0  0  0  0  0  0  0  0  0  0  0  0
   -2.1239   -2.9922   -2.7987 H   0  0  0  0  0  0  0  0  0  0  0  0
  1  2  2  0
  2  3  1  0
  3  4  2  0
  4  5  1  0
  5  6  1  0
  6  7  2  0
  6  8  1  0
  5  9  1  0
  9 10  1  0
 10 11  1  0
 11 12  1  0
 12 13  1  0
 13 14  1  0
 12 15  1  0
 11 16  1  0
 16 17  1  0
 17 18  1  0
 18 19  2  0
 18 20  1  0
 20 21  1  0
 21 22  2  0
 21 23  1  0
 23 24  1  0
 24 25  2  0
 24 26  1  0
 26 27  1  0
 27 28  2  0
 27 29  1  0
 29 30  1  0
 30 31  1  0
 31 32  1  0
 32 33  1  0
 33 34  1  0
 33 35  1  0
 35 36  1  0
 36 37  1  0
 37 38  1  0
 36 39  1  0
 35 40  1  0
 27 41  1  0
 24 42  1  0
 21 43  1  0
 18 44  1  0
  8  2  1  0
 13  9  1  0
 37 31  1  0
  3 45  1  0
  4 46  1  0
  8 47  1  0
  9 48  1  1
 11 49  1  1
 12 50  1  6
 13 51  1  6
 14 52  1  0
 15 53  1  0
 16 54  1  0
 16 55  1  0
 30 56  1  0
 30 57  1  0
 31 58  1  1
 33 59  1  0
 34 60  1  0
 35 61  1  1
 36 62  1  1
 37 63  1  6
 38 64  1  0
 39 65  1  0
 40 66  1  0
 41 67  1  0
 42 68  1  0
 43 69  1  0
 44 70  1  0
M  END
>  <Ligand ID>  (1) 
LIG0002827

>  <Ligand>  (1) 
CHEMBL508122

>  <SMILES>  (1) 
O=c1ccn(c(=O)[nH]1)[C@@H]1O[C@@H]([C@H]([C@H]1O)O)COP(=O)(OP(=O)(OP(=O)(OP(=O)(OC[C@H]1OC(O)[C@H]([C@H]([C@@H]1O)O)O)O)O)O)O

>  <CID>  (1) 
44585520.0

>  <ChEMBL ID>  (1) 
nan

>  <InChiKey>  (1) 
RZHCKCCBWWACOW-BHARQNLVSA-N

>  <InChi>  (1) 
InChI=1S/C15H26N2O23P4/c18-7-1-2-17(15(25)16-7)13-11(22)9(20)5(36-13)3-34-41(26,27)38-43(30,31)40-44(32,33)39-42(28,29)35-4-6-8(19)10(21)12(23)14(24)37-6/h1-2,5-6,8-14,19-24H,3-4H2,(H,26,27)(H,28,29)(H,30,31)(H,32,33)(H,16,18,25)/t5-,6-,8-,9-,10+,11-,12+,13-,14?/m1/s1

>  <IUPAC Name>  (1) 
[[(2R,3S,4R,5R)-5-(2,4-dioxopyrimidin-1-yl)-3,4-dihydroxyoxolan-2-yl]methoxy-hydroxyphosphoryl] [hydroxy-[hydroxy-[[(2R,3S,4S,5S)-3,4,5,6-tetrahydroxyoxan-2-yl]methoxy]phosphoryl]oxyphosphoryl] hydrogen phosphate

$$$$
