
     RDKit          3D

 50 52  0  0  0  0  0  0  0  0999 V2000
    6.0727   -3.3434    1.9487 N   0  0  0  0  0  0  0  0  0  0  0  0
    5.3703   -2.5241    1.5504 C   0  0  0  0  0  0  0  0  0  0  0  0
    4.4776   -1.5043    1.0342 C   0  0  0  0  0  0  0  0  0  0  0  0
    3.1131   -1.6978    1.1485 C   0  0  0  0  0  0  0  0  0  0  0  0
    2.2238   -0.7565    0.6728 C   0  0  0  0  0  0  0  0  0  0  0  0
    2.7318    0.3818    0.0807 C   0  0  0  0  0  0  0  0  0  0  0  0
    4.1023    0.5584   -0.0249 C   0  0  0  0  0  0  0  0  0  0  0  0
    5.0092   -0.3594    0.4385 C   0  0  0  0  0  0  0  0  0  0  0  0
    6.3691   -0.2634    0.3745 O   0  0  0  0  0  0  0  0  0  0  0  0
    7.0840    0.7957   -0.1790 C   0  0  0  0  0  0  0  0  0  0  0  0
    8.0354    1.3604    0.8682 C   0  0  0  0  0  0  0  0  0  0  0  0
    8.9039    0.3817    1.2716 F   0  0  0  0  0  0  0  0  0  0  0  0
    8.7709    2.4099    0.3673 F   0  0  0  0  0  0  0  0  0  0  0  0
    7.2945    1.7804    1.9661 F   0  0  0  0  0  0  0  0  0  0  0  0
    7.9904    0.2437   -1.2903 C   0  0  0  0  0  0  0  0  0  0  0  0
    0.7920   -0.9970    0.8120 C   0  0  0  0  0  0  0  0  0  0  0  0
    0.3086   -2.0798    1.3753 O   0  0  0  0  0  0  0  0  0  0  0  0
   -0.9835   -2.0172    1.3568 N   0  0  0  0  0  0  0  0  0  0  0  0
   -1.3443   -0.8635    0.7659 C   0  0  0  0  0  0  0  0  0  0  0  0
   -0.2288   -0.2301    0.4276 N   0  0  0  0  0  0  0  0  0  0  0  0
   -2.7391   -0.4753    0.5807 C   0  0  0  0  0  0  0  0  0  0  0  0
   -3.7326   -1.3229    1.0282 C   0  0  0  0  0  0  0  0  0  0  0  0
   -5.0838   -0.9942    0.8732 C   0  0  0  0  0  0  0  0  0  0  0  0
   -5.4175    0.1983    0.2620 C   0  0  0  0  0  0  0  0  0  0  0  0
   -4.4086    1.0382   -0.1817 C   0  0  0  0  0  0  0  0  0  0  0  0
   -3.0675    0.7270   -0.0356 C   0  0  0  0  0  0  0  0  0  0  0  0
   -1.9986    1.6477   -0.5217 C   0  0  0  0  0  0  0  0  0  0  0  0
   -6.8568    0.5360    0.1033 C   0  0  0  0  0  0  0  0  0  0  0  0
   -7.3176   -0.0249   -1.2376 C   0  0  0  0  0  0  0  0  0  0  0  0
   -8.7737    0.2975   -1.4345 C   0  0  0  0  0  0  0  0  0  0  0  0
   -9.4205    0.9469   -0.5457 O   0  0  0  0  0  0  0  0  0  0  0  0
   -9.4193   -0.1036   -2.5709 O   0  0  0  0  0  0  0  0  0  0  0  0
    2.7724   -2.5964    1.6153 H   0  0  0  0  0  0  0  0  0  0  0  0
    2.0289    1.1179   -0.2912 H   0  0  0  0  0  0  0  0  0  0  0  0
    4.4352    1.4648   -0.4956 H   0  0  0  0  0  0  0  0  0  0  0  0
    6.4245    1.5741   -0.5730 H   0  0  0  0  0  0  0  0  0  0  0  0
    8.9471    0.8196   -1.3230 H   0  0  0  0  0  0  0  0  0  0  0  0
    8.2551   -0.7986   -1.0237 H   0  0  0  0  0  0  0  0  0  0  0  0
    7.4032    0.3246   -2.2202 H   0  0  0  0  0  0  0  0  0  0  0  0
   -3.5030   -2.2743    1.5162 H   0  0  0  0  0  0  0  0  0  0  0  0
   -5.8570   -1.6701    1.2299 H   0  0  0  0  0  0  0  0  0  0  0  0
   -4.7228    1.9635   -0.6554 H   0  0  0  0  0  0  0  0  0  0  0  0
   -2.4796    2.5071   -1.0110 H   0  0  0  0  0  0  0  0  0  0  0  0
   -1.4445    1.0743   -1.3040 H   0  0  0  0  0  0  0  0  0  0  0  0
   -1.2957    1.9185    0.2832 H   0  0  0  0  0  0  0  0  0  0  0  0
   -6.9545    1.6402    0.0125 H   0  0  0  0  0  0  0  0  0  0  0  0
   -7.4449    0.1573    0.9359 H   0  0  0  0  0  0  0  0  0  0  0  0
   -7.2145   -1.1091   -1.3235 H   0  0  0  0  0  0  0  0  0  0  0  0
   -6.7852    0.4629   -2.0783 H   0  0  0  0  0  0  0  0  0  0  0  0
  -10.4221   -0.3226   -2.5709 H   0  0  0  0  0  0  0  0  0  0  0  0
  1  2  3  0
  2  3  1  0
  3  4  2  0
  4  5  1  0
  5  6  2  0
  6  7  1  0
  7  8  2  0
  8  9  1  0
  9 10  1  0
 10 11  1  0
 11 12  1  0
 11 13  1  0
 11 14  1  0
 10 15  1  0
  5 16  1  0
 16 17  1  0
 17 18  1  0
 18 19  2  0
 19 20  1  0
 19 21  1  0
 21 22  2  0
 22 23  1  0
 23 24  2  0
 24 25  1  0
 25 26  2  0
 26 27  1  0
 24 28  1  0
 28 29  1  0
 29 30  1  0
 30 31  2  0
 30 32  1  0
  8  3  1  0
 20 16  2  0
 26 21  1  0
  4 33  1  0
  6 34  1  0
  7 35  1  0
 10 36  1  0
 15 37  1  0
 15 38  1  0
 15 39  1  0
 22 40  1  0
 23 41  1  0
 25 42  1  0
 27 43  1  0
 27 44  1  0
 27 45  1  0
 28 46  1  0
 28 47  1  0
 29 48  1  0
 29 49  1  0
 32 50  1  0
M  END
>  <Ligand ID>  (1) 
LIG0001678

>  <Ligand>  (1) 
CHEMBL378436

>  <SMILES>  (1) 
N#Cc1cc(ccc1OC(C(F)(F)F)C)c1onc(n1)c1ccc(cc1C)CCC(=O)O

>  <CID>  (1) 
44412971.0

>  <ChEMBL ID>  (1) 
nan

>  <InChiKey>  (1) 
OAASHPFCLSUXGB-UHFFFAOYSA-N

>  <InChi>  (1) 
InChI=1S/C22H18F3N3O4/c1-12-9-14(4-8-19(29)30)3-6-17(12)20-27-21(32-28-20)15-5-7-18(16(10-15)11-26)31-13(2)22(23,24)25/h3,5-7,9-10,13H,4,8H2,1-2H3,(H,29,30)

>  <IUPAC Name>  (1) 
3-[4-[5-[3-cyano-4-(1,1,1-trifluoropropan-2-yloxy)phenyl]-1,2,4-oxadiazol-3-yl]-3-methylphenyl]propanoic acid

$$$$
