
     RDKit          3D

 86 89  0  0  0  0  0  0  0  0999 V2000
    0.3486   -1.8434    0.8594 C   0  0  0  0  0  0  0  0  0  0  0  0
   -1.0913   -1.4182    0.8420 C   0  0  0  0  0  0  0  0  0  0  0  0
   -1.3505   -0.0164    1.2690 C   0  0  0  0  0  0  0  0  0  0  0  0
   -0.7314    1.0659    0.4700 C   0  0  2  0  0  0  0  0  0  0  0  0
   -0.9977    1.1870   -0.9234 N   0  0  0  0  0  0  0  0  0  0  0  0
    0.1897    1.7248   -1.6800 C   0  0  0  0  0  0  0  0  0  0  0  0
    1.4056    0.8838   -1.4795 C   0  0  0  0  0  0  0  0  0  0  0  0
    1.7810    0.9046   -0.0732 N   0  0  0  0  0  0  0  0  0  0  0  0
    0.7144    1.1155    0.8406 C   0  0  0  0  0  0  0  0  0  0  0  0
    1.0184    1.3614    2.0439 O   0  0  0  0  0  0  0  0  0  0  0  0
    3.1594    0.7275    0.3607 C   0  0  2  0  0  0  0  0  0  0  0  0
    3.9956    1.8786   -0.0645 C   0  0  0  0  0  0  0  0  0  0  0  0
    3.6222    2.6971   -0.9671 O   0  0  0  0  0  0  0  0  0  0  0  0
    5.2674    2.1429    0.5127 N   0  0  0  0  0  0  0  0  0  0  0  0
    6.0614    3.2718    0.0728 C   0  0  0  0  0  0  0  0  0  0  0  0
    3.7491   -0.5552   -0.0656 C   0  0  0  0  0  0  0  0  0  0  0  0
    5.1546   -0.8081    0.3170 C   0  0  0  0  0  0  0  0  0  0  0  0
    5.4722   -1.3680    1.5467 C   0  0  0  0  0  0  0  0  0  0  0  0
    6.7913   -1.6069    1.8477 C   0  0  0  0  0  0  0  0  0  0  0  0
    7.8094   -1.3102    0.9717 C   0  0  0  0  0  0  0  0  0  0  0  0
    7.4985   -0.7469   -0.2671 C   0  0  0  0  0  0  0  0  0  0  0  0
    6.1705   -0.4942   -0.5982 C   0  0  0  0  0  0  0  0  0  0  0  0
    8.4961   -0.4366   -1.1714 C   0  0  0  0  0  0  0  0  0  0  0  0
    9.8278   -0.6666   -0.8941 C   0  0  0  0  0  0  0  0  0  0  0  0
   10.1332   -1.2313    0.3490 C   0  0  0  0  0  0  0  0  0  0  0  0
    9.1401   -1.5423    1.2538 C   0  0  0  0  0  0  0  0  0  0  0  0
   -2.1120    0.9484   -1.7095 C   0  0  0  0  0  0  0  0  0  0  0  0
   -1.8757    1.1978   -3.0133 O   0  0  0  0  0  0  0  0  0  0  0  0
   -3.4760    0.5074   -1.5430 C   0  0  2  0  0  0  0  0  0  0  0  0
   -3.9977    0.0998   -0.3045 N   0  0  0  0  0  0  0  0  0  0  0  0
   -4.8552    0.9774    0.4174 C   0  0  0  0  0  0  0  0  0  0  0  0
   -5.1343    2.1107   -0.0740 O   0  0  0  0  0  0  0  0  0  0  0  0
   -5.4523    0.6432    1.7332 C   0  0  1  0  0  0  0  0  0  0  0  0
   -6.2641    1.7608    2.2201 N   0  0  0  0  0  0  0  0  0  0  0  0
   -6.8123    1.3715    3.4939 C   0  0  0  0  0  0  0  0  0  0  0  0
   -6.4336   -0.5027    1.5298 C   0  0  0  0  0  0  0  0  0  0  0  0
   -3.8679   -0.5380   -2.6065 C   0  0  0  0  0  0  0  0  0  0  0  0
   -5.2726   -0.9135   -2.3386 C   0  0  0  0  0  0  0  0  0  0  0  0
   -5.6479   -1.9719   -1.5394 C   0  0  0  0  0  0  0  0  0  0  0  0
   -6.9710   -2.3072   -1.3020 C   0  0  0  0  0  0  0  0  0  0  0  0
   -7.9740   -1.5512   -1.8894 C   0  0  0  0  0  0  0  0  0  0  0  0
   -7.6353   -0.4916   -2.6899 C   0  0  0  0  0  0  0  0  0  0  0  0
   -6.3076   -0.1793   -2.9098 C   0  0  0  0  0  0  0  0  0  0  0  0
   -9.2603   -1.8893   -1.6490 F   0  0  0  0  0  0  0  0  0  0  0  0
    0.9713   -1.3246    1.5991 H   0  0  0  0  0  0  0  0  0  0  0  0
    0.8208   -1.8110   -0.1628 H   0  0  0  0  0  0  0  0  0  0  0  0
    0.4426   -2.9402    1.1329 H   0  0  0  0  0  0  0  0  0  0  0  0
   -1.6293   -2.0875    1.5695 H   0  0  0  0  0  0  0  0  0  0  0  0
   -1.5579   -1.5459   -0.1597 H   0  0  0  0  0  0  0  0  0  0  0  0
   -2.3574    0.1815    1.6825 H   0  0  0  0  0  0  0  0  0  0  0  0
   -0.7398    0.0374    2.2834 H   0  0  0  0  0  0  0  0  0  0  0  0
   -1.1222    2.0353    0.9975 H   0  0  0  0  0  0  0  0  0  0  0  0
    0.3365    2.7370   -1.3117 H   0  0  0  0  0  0  0  0  0  0  0  0
   -0.0576    1.7145   -2.7496 H   0  0  0  0  0  0  0  0  0  0  0  0
    2.1763    1.3167   -2.1481 H   0  0  0  0  0  0  0  0  0  0  0  0
    1.2791   -0.1580   -1.8022 H   0  0  0  0  0  0  0  0  0  0  0  0
    3.1244    0.7813    1.4682 H   0  0  0  0  0  0  0  0  0  0  0  0
    5.6733    1.5567    1.2731 H   0  0  0  0  0  0  0  0  0  0  0  0
    7.1121    2.9027   -0.0067 H   0  0  0  0  0  0  0  0  0  0  0  0
    6.0200    4.1175    0.7813 H   0  0  0  0  0  0  0  0  0  0  0  0
    5.7409    3.5046   -0.9543 H   0  0  0  0  0  0  0  0  0  0  0  0
    3.1403   -1.4036    0.3725 H   0  0  0  0  0  0  0  0  0  0  0  0
    3.7024   -0.7486   -1.1574 H   0  0  0  0  0  0  0  0  0  0  0  0
    4.6511   -1.5981    2.2321 H   0  0  0  0  0  0  0  0  0  0  0  0
    7.0268   -2.0411    2.8045 H   0  0  0  0  0  0  0  0  0  0  0  0
    5.9204   -0.0605   -1.5500 H   0  0  0  0  0  0  0  0  0  0  0  0
    8.2715    0.0031   -2.1419 H   0  0  0  0  0  0  0  0  0  0  0  0
   10.6302   -0.4326   -1.5856 H   0  0  0  0  0  0  0  0  0  0  0  0
   11.1909   -1.4131    0.5666 H   0  0  0  0  0  0  0  0  0  0  0  0
    9.3963   -1.9724    2.1965 H   0  0  0  0  0  0  0  0  0  0  0  0
   -4.0913    1.4299   -1.9287 H   0  0  0  0  0  0  0  0  0  0  0  0
   -3.8175   -0.8277    0.1302 H   0  0  0  0  0  0  0  0  0  0  0  0
   -4.7189    0.2924    2.4754 H   0  0  0  0  0  0  0  0  0  0  0  0
   -7.0562    1.8350    1.5314 H   0  0  0  0  0  0  0  0  0  0  0  0
   -7.8511    0.9649    3.4301 H   0  0  0  0  0  0  0  0  0  0  0  0
   -6.8320    2.3093    4.1163 H   0  0  0  0  0  0  0  0  0  0  0  0
   -6.1629    0.6076    3.9449 H   0  0  0  0  0  0  0  0  0  0  0  0
   -7.1675   -0.2692    0.7329 H   0  0  0  0  0  0  0  0  0  0  0  0
   -7.0662   -0.6422    2.4491 H   0  0  0  0  0  0  0  0  0  0  0  0
   -5.9514   -1.4556    1.2862 H   0  0  0  0  0  0  0  0  0  0  0  0
   -3.2407   -1.4356   -2.5512 H   0  0  0  0  0  0  0  0  0  0  0  0
   -3.8435   -0.0634   -3.6222 H   0  0  0  0  0  0  0  0  0  0  0  0
   -4.9049   -2.5756   -1.0742 H   0  0  0  0  0  0  0  0  0  0  0  0
   -7.2037   -3.1647   -0.6540 H   0  0  0  0  0  0  0  0  0  0  0  0
   -8.4450    0.0872   -3.1401 H   0  0  0  0  0  0  0  0  0  0  0  0
   -6.0959    0.6719   -3.5536 H   0  0  0  0  0  0  0  0  0  0  0  0
  1  2  1  0
  2  3  1  0
  3  4  1  0
  4  5  1  0
  5  6  1  0
  6  7  1  0
  7  8  1  0
  8  9  1  0
  9 10  2  0
  8 11  1  0
 11 12  1  0
 12 13  2  0
 12 14  1  0
 14 15  1  0
 11 16  1  0
 16 17  1  0
 17 18  2  0
 18 19  1  0
 19 20  2  0
 20 21  1  0
 21 22  2  0
 21 23  1  0
 23 24  2  0
 24 25  1  0
 25 26  2  0
  5 27  1  0
 27 28  2  0
 27 29  1  0
 29 30  1  0
 30 31  1  0
 31 32  2  0
 31 33  1  0
 33 34  1  0
 34 35  1  0
 33 36  1  0
 29 37  1  0
 37 38  1  0
 38 39  2  0
 39 40  1  0
 40 41  2  0
 41 42  1  0
 42 43  2  0
 41 44  1  0
  9  4  1  0
 22 17  1  0
 43 38  1  0
 26 20  1  0
  1 45  1  0
  1 46  1  0
  1 47  1  0
  2 48  1  0
  2 49  1  0
  3 50  1  0
  3 51  1  0
  4 52  1  1
  6 53  1  0
  6 54  1  0
  7 55  1  0
  7 56  1  0
 11 57  1  1
 14 58  1  0
 15 59  1  0
 15 60  1  0
 15 61  1  0
 16 62  1  0
 16 63  1  0
 18 64  1  0
 19 65  1  0
 22 66  1  0
 23 67  1  0
 24 68  1  0
 25 69  1  0
 26 70  1  0
 29 71  1  6
 30 72  1  0
 33 73  1  1
 34 74  1  0
 35 75  1  0
 35 76  1  0
 35 77  1  0
 36 78  1  0
 36 79  1  0
 36 80  1  0
 37 81  1  0
 37 82  1  0
 39 83  1  0
 40 84  1  0
 42 85  1  0
 43 86  1  0
M  END
>  <Ligand ID>  (1) 
LIG0004071

>  <Ligand>  (1) 
CHEMBL504349

>  <SMILES>  (1) 
CCC[C@@H]1N(CCN(C1=O)[C@H](C(=O)NC)Cc1ccc2c(c1)cccc2)C(=O)[C@H](NC(=O)[C@@H](NC)C)Cc1ccc(cc1)F

>  <CID>  (1) 
25129109.0

>  <ChEMBL ID>  (1) 
nan

>  <InChiKey>  (1) 
AHYGIWNTGDKMRR-SUAIOLNFSA-N

>  <InChi>  (1) 
InChI=1S/C34H42FN5O4/c1-5-8-29-34(44)40(30(32(42)37-4)21-24-11-14-25-9-6-7-10-26(25)19-24)18-17-39(29)33(43)28(38-31(41)22(2)36-3)20-23-12-15-27(35)16-13-23/h6-7,9-16,19,22,28-30,36H,5,8,17-18,20-21H2,1-4H3,(H,37,42)(H,38,41)/t22-,28+,29-,30-/m0/s1

>  <IUPAC Name>  (1) 
(2S)-2-[(3S)-4-[(2R)-3-(4-fluorophenyl)-2-[[(2S)-2-(methylamino)propanoyl]amino]propanoyl]-2-oxo-3-propylpiperazin-1-yl]-N-methyl-3-naphthalen-2-ylpropanamide

$$$$
