
     RDKit          3D

 69 72  0  0  0  0  0  0  0  0999 V2000
    4.6170    1.3969    3.2761 C   0  0  0  0  0  0  0  0  0  0  0  0
    4.6332    0.1511    2.4039 C   0  0  0  0  0  0  0  0  0  0  0  0
    5.6241    0.3866    1.4049 O   0  0  0  0  0  0  0  0  0  0  0  0
    5.4619    1.4746    0.5580 C   0  0  0  0  0  0  0  0  0  0  0  0
    4.4579    2.2470    0.6637 O   0  0  0  0  0  0  0  0  0  0  0  0
    6.6869    1.7471   -0.6604 S   0  0  0  0  0  0  0  0  0  0  0  0
    8.0466    1.2996   -0.2052 O   0  0  0  0  0  0  0  0  0  0  0  0
    6.6898    3.2270   -0.9808 O   0  0  0  0  0  0  0  0  0  0  0  0
    6.3042    0.9376   -2.0954 O   0  0  0  0  0  0  0  0  0  0  0  0
    4.9880    0.6449   -2.4195 C   0  0  0  0  0  0  0  0  0  0  0  0
    4.2889    1.6058   -3.1550 C   0  0  0  0  0  0  0  0  0  0  0  0
    2.9747    1.3094   -3.4768 C   0  0  0  0  0  0  0  0  0  0  0  0
    2.3592    0.1346   -3.1046 C   0  0  0  0  0  0  0  0  0  0  0  0
    3.0336   -0.7978   -2.3919 C   0  0  0  0  0  0  0  0  0  0  0  0
    4.3548   -0.5246   -2.0563 C   0  0  0  0  0  0  0  0  0  0  0  0
    4.7956   -1.5898   -1.3669 N   0  0  0  0  0  0  0  0  0  0  0  0
    3.8130   -2.5006   -1.2630 C   0  0  0  0  0  0  0  0  0  0  0  0
    2.6607   -2.0203   -1.9140 C   0  0  0  0  0  0  0  0  0  0  0  0
    1.4083   -2.7915   -1.9548 C   0  0  0  0  0  0  0  0  0  0  0  0
    0.3624   -2.3805   -0.9798 C   0  0  2  0  0  0  0  0  0  0  0  0
   -0.1686   -1.0751   -1.0734 N   0  0  0  0  0  0  0  0  0  0  0  0
   -1.0981   -0.8861   -2.1688 C   0  0  0  0  0  0  0  0  0  0  0  0
   -2.3936   -1.6436   -1.9343 C   0  0  1  0  0  0  0  0  0  0  0  0
   -3.1107   -1.0929   -0.7564 C   0  0  0  0  0  0  0  0  0  0  0  0
   -3.1878   -1.8930    0.3608 C   0  0  0  0  0  0  0  0  0  0  0  0
   -3.8493   -1.3928    1.4542 C   0  0  0  0  0  0  0  0  0  0  0  0
   -4.4223   -0.1123    1.4240 C   0  0  0  0  0  0  0  0  0  0  0  0
   -4.3580    0.6892    0.3395 C   0  0  0  0  0  0  0  0  0  0  0  0
   -3.6746    0.1575   -0.7737 C   0  0  0  0  0  0  0  0  0  0  0  0
   -4.8991    1.9699    0.1488 N   0  0  0  0  0  0  0  0  0  0  0  0
   -6.3869    2.5833    0.7092 S   0  0  0  0  0  0  0  0  0  0  0  0
   -6.7275    3.8986    0.0086 O   0  0  0  0  0  0  0  0  0  0  0  0
   -7.4737    1.6234    0.1937 O   0  0  0  0  0  0  0  0  0  0  0  0
   -6.5146    2.6700    2.3723 C   0  0  0  0  0  0  0  0  0  0  0  0
   -5.6716    2.5431    3.4798 C   0  0  0  0  0  0  0  0  0  0  0  0
   -6.1341    2.7379    4.6970 C   0  0  0  0  0  0  0  0  0  0  0  0
   -7.4727    3.0735    4.8863 C   0  0  0  0  0  0  0  0  0  0  0  0
   -8.1246    3.1104    3.1314 S   0  0  0  0  0  0  0  0  0  0  0  0
   -3.1890   -1.3618   -3.0680 O   0  0  0  0  0  0  0  0  0  0  0  0
    0.8775   -2.5415    0.4618 C   0  0  0  0  0  0  0  0  0  0  0  0
    5.6309    1.8635    3.2759 H   0  0  0  0  0  0  0  0  0  0  0  0
    3.8346    2.1103    2.9399 H   0  0  0  0  0  0  0  0  0  0  0  0
    4.3597    1.1086    4.3142 H   0  0  0  0  0  0  0  0  0  0  0  0
    3.6359    0.0127    1.9167 H   0  0  0  0  0  0  0  0  0  0  0  0
    4.8788   -0.7520    2.9859 H   0  0  0  0  0  0  0  0  0  0  0  0
    4.7609    2.5350   -3.4547 H   0  0  0  0  0  0  0  0  0  0  0  0
    2.4370    2.0441   -4.0403 H   0  0  0  0  0  0  0  0  0  0  0  0
    1.3561   -0.0383   -3.3840 H   0  0  0  0  0  0  0  0  0  0  0  0
    5.7745   -1.6887   -0.9682 H   0  0  0  0  0  0  0  0  0  0  0  0
    3.9396   -3.4375   -0.7502 H   0  0  0  0  0  0  0  0  0  0  0  0
    1.0016   -2.8607   -3.0069 H   0  0  0  0  0  0  0  0  0  0  0  0
    1.6384   -3.8727   -1.7248 H   0  0  0  0  0  0  0  0  0  0  0  0
   -0.5147   -3.0925   -1.0122 H   0  0  0  0  0  0  0  0  0  0  0  0
   -0.5450   -0.7542   -0.1795 H   0  0  0  0  0  0  0  0  0  0  0  0
   -1.3542    0.1882   -2.2100 H   0  0  0  0  0  0  0  0  0  0  0  0
   -0.6587   -1.1557   -3.1497 H   0  0  0  0  0  0  0  0  0  0  0  0
   -2.2920   -2.7247   -1.9036 H   0  0  0  0  0  0  0  0  0  0  0  0
   -2.7457   -2.8790    0.3814 H   0  0  0  0  0  0  0  0  0  0  0  0
   -3.9191   -2.0032    2.3354 H   0  0  0  0  0  0  0  0  0  0  0  0
   -4.9270    0.1749    2.3170 H   0  0  0  0  0  0  0  0  0  0  0  0
   -3.5715    0.7264   -1.6897 H   0  0  0  0  0  0  0  0  0  0  0  0
   -4.2997    2.6443   -0.4142 H   0  0  0  0  0  0  0  0  0  0  0  0
   -4.6037    2.2836    3.2673 H   0  0  0  0  0  0  0  0  0  0  0  0
   -5.5041    2.6488    5.6161 H   0  0  0  0  0  0  0  0  0  0  0  0
   -8.0793    3.2771    5.7235 H   0  0  0  0  0  0  0  0  0  0  0  0
   -2.6436   -1.0785   -3.8442 H   0  0  0  0  0  0  0  0  0  0  0  0
    0.8081   -3.6017    0.7772 H   0  0  0  0  0  0  0  0  0  0  0  0
    1.8630   -2.0964    0.5990 H   0  0  0  0  0  0  0  0  0  0  0  0
    0.1577   -1.9989    1.1079 H   0  0  0  0  0  0  0  0  0  0  0  0
  1  2  1  0
  2  3  1  0
  3  4  1  0
  4  5  2  0
  4  6  1  0
  6  7  2  0
  6  8  2  0
  6  9  1  0
  9 10  1  0
 10 11  2  0
 11 12  1  0
 12 13  2  0
 13 14  1  0
 14 15  2  0
 15 16  1  0
 16 17  1  0
 17 18  2  0
 18 19  1  0
 19 20  1  0
 20 21  1  0
 21 22  1  0
 22 23  1  0
 23 24  1  0
 24 25  2  0
 25 26  1  0
 26 27  2  0
 27 28  1  0
 28 29  2  0
 28 30  1  0
 30 31  1  0
 31 32  2  0
 31 33  2  0
 31 34  1  0
 34 35  2  0
 35 36  1  0
 36 37  2  0
 37 38  1  0
 23 39  1  0
 20 40  1  0
 15 10  1  0
 29 24  1  0
 38 34  1  0
 18 14  1  0
  1 41  1  0
  1 42  1  0
  1 43  1  0
  2 44  1  0
  2 45  1  0
 11 46  1  0
 12 47  1  0
 13 48  1  0
 16 49  1  0
 17 50  1  0
 19 51  1  0
 19 52  1  0
 20 53  1  1
 21 54  1  0
 22 55  1  0
 22 56  1  0
 23 57  1  1
 25 58  1  0
 26 59  1  0
 27 60  1  0
 29 61  1  0
 30 62  1  0
 35 63  1  0
 36 64  1  0
 37 65  1  0
 39 66  1  0
 40 67  1  0
 40 68  1  0
 40 69  1  0
M  END
>  <Ligand ID>  (1) 
LIG0004462

>  <Ligand>  (1) 
CHEMBL2260984

>  <SMILES>  (1) 
CCOC(=O)S(=O)(=O)Oc1cccc2c1[nH]cc2C[C@H](NC[C@@H](c1cccc(c1)NS(=O)(=O)c1cccs1)O)C

>  <CID>  (1) 
76315637.0

>  <ChEMBL ID>  (1) 
nan

>  <InChiKey>  (1) 
CMGAUMQGUMDUGO-VGSWGCGISA-N

>  <InChi>  (1) 
InChI=1S/C26H29N3O8S3/c1-3-36-26(31)40(34,35)37-23-10-5-9-21-19(15-28-25(21)23)13-17(2)27-16-22(30)18-7-4-8-20(14-18)29-39(32,33)24-11-6-12-38-24/h4-12,14-15,17,22,27-30H,3,13,16H2,1-2H3/t17-,22+/m1/s1

>  <IUPAC Name>  (1) 
ethyl [3-[(2R)-2-[[(2R)-2-hydroxy-2-[3-(thiophen-2-ylsulfonylamino)phenyl]ethyl]amino]propyl]-1H-indol-7-yl]oxysulfonylformate

$$$$
