
     RDKit          3D

 50 50  0  0  0  0  0  0  0  0999 V2000
    7.2571   -1.7933   -0.3729 C   0  0  0  0  0  0  0  0  0  0  0  0
    7.0107   -0.7110    0.6683 C   0  0  0  0  0  0  0  0  0  0  0  0
    5.5000   -0.5506    0.7734 C   0  0  0  0  0  0  0  0  0  0  0  0
    4.9779   -0.1454   -0.5865 C   0  0  0  0  0  0  0  0  0  0  0  0
    3.5027    0.0094   -0.5248 C   0  0  0  0  0  0  0  0  0  0  0  0
    3.1003    1.0699    0.4727 C   0  0  0  0  0  0  0  0  0  0  0  0
    1.5903    1.1117    0.4053 C   0  0  0  0  0  0  0  0  0  0  0  0
    0.8292    0.3044    1.2280 C   0  0  0  0  0  0  0  0  0  0  0  0
   -0.5459    0.3423    1.1669 C   0  0  0  0  0  0  0  0  0  0  0  0
   -1.1243    1.2120    0.2581 C   0  0  0  0  0  0  0  0  0  0  0  0
   -0.3464    2.0265   -0.5718 C   0  0  0  0  0  0  0  0  0  0  0  0
    1.0313    1.9838   -0.5057 C   0  0  0  0  0  0  0  0  0  0  0  0
   -2.4968    1.3386    0.1053 O   0  0  0  0  0  0  0  0  0  0  0  0
   -3.3315    0.5222    0.9364 C   0  0  0  0  0  0  0  0  0  0  0  0
   -4.7449    0.9169    0.5056 C   0  0  1  0  0  0  0  0  0  0  0  0
   -4.8092    0.7809   -0.9802 C   0  0  0  0  0  0  0  0  0  0  0  0
   -4.5361   -0.5880   -1.5082 C   0  0  0  0  0  0  0  0  0  0  0  0
   -5.7635   -1.7301   -0.8261 P   0  0  0  0  0  0  0  0  0  0  0  0
   -5.9523   -2.8960   -1.7788 O   0  0  0  0  0  0  0  0  0  0  0  0
   -5.2316   -2.3296    0.6433 O   0  0  0  0  0  0  0  0  0  0  0  0
   -7.2508   -0.9125   -0.7049 O   0  0  0  0  0  0  0  0  0  0  0  0
   -5.7722    0.2236    1.2063 N   0  0  0  0  0  0  0  0  0  0  0  0
    6.4144   -2.5106   -0.3363 H   0  0  0  0  0  0  0  0  0  0  0  0
    7.3381   -1.3770   -1.3826 H   0  0  0  0  0  0  0  0  0  0  0  0
    8.1805   -2.3478   -0.1080 H   0  0  0  0  0  0  0  0  0  0  0  0
    7.3878   -1.0137    1.6489 H   0  0  0  0  0  0  0  0  0  0  0  0
    7.4510    0.2506    0.3541 H   0  0  0  0  0  0  0  0  0  0  0  0
    5.2831    0.2419    1.5277 H   0  0  0  0  0  0  0  0  0  0  0  0
    5.0619   -1.5155    1.0544 H   0  0  0  0  0  0  0  0  0  0  0  0
    5.4186    0.8245   -0.9216 H   0  0  0  0  0  0  0  0  0  0  0  0
    5.1984   -0.9178   -1.3564 H   0  0  0  0  0  0  0  0  0  0  0  0
    2.9927   -0.9315   -0.2289 H   0  0  0  0  0  0  0  0  0  0  0  0
    3.1118    0.3292   -1.5296 H   0  0  0  0  0  0  0  0  0  0  0  0
    3.5205    2.0572    0.2662 H   0  0  0  0  0  0  0  0  0  0  0  0
    3.3530    0.7690    1.5280 H   0  0  0  0  0  0  0  0  0  0  0  0
    1.2909   -0.3799    1.9432 H   0  0  0  0  0  0  0  0  0  0  0  0
   -1.1856   -0.2703    1.7903 H   0  0  0  0  0  0  0  0  0  0  0  0
   -0.7932    2.7097   -1.2856 H   0  0  0  0  0  0  0  0  0  0  0  0
    1.6137    2.6128   -1.1469 H   0  0  0  0  0  0  0  0  0  0  0  0
   -3.1584    0.6967    2.0071 H   0  0  0  0  0  0  0  0  0  0  0  0
   -3.1337   -0.5351    0.6607 H   0  0  0  0  0  0  0  0  0  0  0  0
   -4.7833    2.0248    0.7300 H   0  0  0  0  0  0  0  0  0  0  0  0
   -5.8227    1.1164   -1.3325 H   0  0  0  0  0  0  0  0  0  0  0  0
   -4.1038    1.4727   -1.4909 H   0  0  0  0  0  0  0  0  0  0  0  0
   -4.6695   -0.5861   -2.6148 H   0  0  0  0  0  0  0  0  0  0  0  0
   -3.5004   -0.9305   -1.3244 H   0  0  0  0  0  0  0  0  0  0  0  0
   -5.9655   -2.5808    1.2521 H   0  0  0  0  0  0  0  0  0  0  0  0
   -7.3380   -0.2455   -1.4307 H   0  0  0  0  0  0  0  0  0  0  0  0
   -6.5776    0.9067    1.3336 H   0  0  0  0  0  0  0  0  0  0  0  0
   -5.4788   -0.0556    2.1699 H   0  0  0  0  0  0  0  0  0  0  0  0
  1  2  1  0
  2  3  1  0
  3  4  1  0
  4  5  1  0
  5  6  1  0
  6  7  1  0
  7  8  2  0
  8  9  1  0
  9 10  2  0
 10 11  1  0
 11 12  2  0
 10 13  1  0
 13 14  1  0
 14 15  1  0
 15 16  1  0
 16 17  1  0
 17 18  1  0
 18 19  2  0
 18 20  1  0
 18 21  1  0
 15 22  1  0
 12  7  1  0
  1 23  1  0
  1 24  1  0
  1 25  1  0
  2 26  1  0
  2 27  1  0
  3 28  1  0
  3 29  1  0
  4 30  1  0
  4 31  1  0
  5 32  1  0
  5 33  1  0
  6 34  1  0
  6 35  1  0
  8 36  1  0
  9 37  1  0
 11 38  1  0
 12 39  1  0
 14 40  1  0
 14 41  1  0
 15 42  1  6
 16 43  1  0
 16 44  1  0
 17 45  1  0
 17 46  1  0
 20 47  1  0
 21 48  1  0
 22 49  1  0
 22 50  1  0
M  END
>  <Ligand ID>  (1) 
LIG0001877

>  <Ligand>  (1) 
CHEMBL228049

>  <SMILES>  (1) 
CCCCCCc1ccc(cc1)OC[C@@H](CCP(=O)(O)O)N

>  <CID>  (1) 
44422606.0

>  <ChEMBL ID>  (1) 
nan

>  <InChiKey>  (1) 
WHPOXXOGXRRLNK-OAHLLOKOSA-N

>  <InChi>  (1) 
InChI=1S/C16H28NO4P/c1-2-3-4-5-6-14-7-9-16(10-8-14)21-13-15(17)11-12-22(18,19)20/h7-10,15H,2-6,11-13,17H2,1H3,(H2,18,19,20)/t15-/m1/s1

>  <IUPAC Name>  (1) 
[(3R)-3-amino-4-(4-hexylphenoxy)butyl]phosphonic acid

$$$$
