
     RDKit          3D

 35 37  0  0  0  0  0  0  0  0999 V2000
   -4.4062    1.0898   -0.6918 C   0  0  0  0  0  0  0  0  0  0  0  0
   -3.0281    1.4706   -0.3874 C   0  0  0  0  0  0  0  0  0  0  0  0
   -2.6361    2.7900   -0.1531 C   0  0  0  0  0  0  0  0  0  0  0  0
   -1.2862    2.7083    0.0894 C   0  0  0  0  0  0  0  0  0  0  0  0
   -0.9159    1.4723    0.0078 O   0  0  0  0  0  0  0  0  0  0  0  0
   -1.9170    0.6723   -0.2771 C   0  0  0  0  0  0  0  0  0  0  0  0
   -1.7540   -0.7614   -0.4216 C   0  0  0  0  0  0  0  0  0  0  0  0
   -2.7455   -1.6573   -0.7148 C   0  0  0  0  0  0  0  0  0  0  0  0
   -2.5365   -3.0246   -0.8430 C   0  0  0  0  0  0  0  0  0  0  0  0
   -1.2793   -3.5511   -0.6742 C   0  0  0  0  0  0  0  0  0  0  0  0
   -0.2654   -2.6731   -0.3789 C   0  0  0  0  0  0  0  0  0  0  0  0
   -0.4750   -1.3143   -0.2519 C   0  0  0  0  0  0  0  0  0  0  0  0
    0.5967   -0.4860    0.0480 O   0  0  0  0  0  0  0  0  0  0  0  0
    1.8625   -1.0419    0.2149 C   0  0  0  0  0  0  0  0  0  0  0  0
    2.9039   -0.0207    0.5327 C   0  0  0  0  0  0  0  0  0  0  0  0
    2.6872    1.2358    0.6459 N   0  0  0  0  0  0  0  0  0  0  0  0
    3.8654    1.9868    0.9562 C   0  0  0  0  0  0  0  0  0  0  0  0
    4.9956    0.9881    0.8251 C   0  0  0  0  0  0  0  0  0  0  0  0
    4.2873   -0.2712    0.7588 N   0  0  0  0  0  0  0  0  0  0  0  0
   -5.0483    2.0112   -0.7130 H   0  0  0  0  0  0  0  0  0  0  0  0
   -4.8807    0.4457    0.0755 H   0  0  0  0  0  0  0  0  0  0  0  0
   -4.5059    0.6776   -1.6998 H   0  0  0  0  0  0  0  0  0  0  0  0
   -3.2221    3.6808   -0.1539 H   0  0  0  0  0  0  0  0  0  0  0  0
   -0.5823    3.5216    0.3203 H   0  0  0  0  0  0  0  0  0  0  0  0
   -3.7563   -1.3309   -0.8622 H   0  0  0  0  0  0  0  0  0  0  0  0
   -3.3430   -3.6855   -1.0733 H   0  0  0  0  0  0  0  0  0  0  0  0
   -1.0372   -4.5998   -0.7573 H   0  0  0  0  0  0  0  0  0  0  0  0
    0.7367   -3.0384   -0.2377 H   0  0  0  0  0  0  0  0  0  0  0  0
    2.1154   -1.5931   -0.7110 H   0  0  0  0  0  0  0  0  0  0  0  0
    1.8028   -1.7742    1.0566 H   0  0  0  0  0  0  0  0  0  0  0  0
    3.8150    2.2794    2.0256 H   0  0  0  0  0  0  0  0  0  0  0  0
    3.9928    2.8583    0.2864 H   0  0  0  0  0  0  0  0  0  0  0  0
    5.5624    1.1215   -0.1081 H   0  0  0  0  0  0  0  0  0  0  0  0
    5.6545    1.0072    1.7275 H   0  0  0  0  0  0  0  0  0  0  0  0
    4.7430   -1.1938    0.8631 H   0  0  0  0  0  0  0  0  0  0  0  0
  1  2  1  0
  2  3  1  0
  3  4  2  0
  4  5  1  0
  5  6  1  0
  6  7  1  0
  7  8  2  0
  8  9  1  0
  9 10  2  0
 10 11  1  0
 11 12  2  0
 12 13  1  0
 13 14  1  0
 14 15  1  0
 15 16  2  0
 16 17  1  0
 17 18  1  0
 18 19  1  0
  6  2  2  0
 12  7  1  0
 19 15  1  0
  1 20  1  0
  1 21  1  0
  1 22  1  0
  3 23  1  0
  4 24  1  0
  8 25  1  0
  9 26  1  0
 10 27  1  0
 11 28  1  0
 14 29  1  0
 14 30  1  0
 17 31  1  0
 17 32  1  0
 18 33  1  0
 18 34  1  0
 19 35  1  0
M  END
>  <Ligand ID>  (1) 
LIG0003678

>  <Ligand>  (1) 
CHEMBL143562

>  <SMILES>  (1) 
Cc1ccoc1c1ccccc1OCC1=NCCN1

>  <CID>  (1) 
10060965.0

>  <ChEMBL ID>  (1) 
nan

>  <InChiKey>  (1) 
RKVMBHNDKVMNKU-UHFFFAOYSA-N

>  <InChi>  (1) 
InChI=1S/C15H16N2O2/c1-11-6-9-18-15(11)12-4-2-3-5-13(12)19-10-14-16-7-8-17-14/h2-6,9H,7-8,10H2,1H3,(H,16,17)

>  <IUPAC Name>  (1) 
2-[[2-(3-methylfuran-2-yl)phenoxy]methyl]-4,5-dihydro-1H-imidazole

$$$$
