
     RDKit          3D

 47 47  0  0  0  0  0  0  0  0999 V2000
    4.1807    0.2057   -0.0358 C   0  0  0  0  0  0  0  0  0  0  0  0
    2.9546   -0.3363   -0.7993 C   0  0  0  0  0  0  0  0  0  0  0  0
    2.0438    0.7995   -1.1414 C   0  0  0  0  0  0  0  0  0  0  0  0
    1.3626    1.4618    0.0100 C   0  0  0  0  0  0  0  0  0  0  0  0
    0.5545    2.5900   -0.5725 C   0  0  0  0  0  0  0  0  0  0  0  0
   -0.4134    3.2327    0.3506 C   0  0  0  0  0  0  0  0  0  0  0  0
   -1.5217    2.2657    0.7843 C   0  0  0  0  0  0  0  0  0  0  0  0
   -2.2114    1.8226   -0.4556 C   0  0  0  0  0  0  0  0  0  0  0  0
   -3.3735    0.9211   -0.3456 C   0  0  0  0  0  0  0  0  0  0  0  0
   -3.1044   -0.3790    0.3144 C   0  0  0  0  0  0  0  0  0  0  0  0
   -1.9344   -1.1509   -0.3461 C   0  0  0  0  0  0  0  0  0  0  0  0
   -1.9078   -2.4709    0.3242 C   0  0  0  0  0  0  0  0  0  0  0  0
   -0.8644   -3.4615   -0.0546 C   0  0  0  0  0  0  0  0  0  0  0  0
    0.5328   -3.0675    0.2681 C   0  0  0  0  0  0  0  0  0  0  0  0
    1.1609   -1.9906   -0.5388 C   0  0  0  0  0  0  0  0  0  0  0  0
    0.7271   -1.5963   -1.6068 O   0  0  0  0  0  0  0  0  0  0  0  0
    2.3953   -1.4001    0.0580 C   0  0  0  0  0  0  0  0  0  0  0  0
    4.9839   -0.5617   -0.0353 H   0  0  0  0  0  0  0  0  0  0  0  0
    4.5598    1.0651   -0.6270 H   0  0  0  0  0  0  0  0  0  0  0  0
    3.9171    0.4532    1.0053 H   0  0  0  0  0  0  0  0  0  0  0  0
    3.3468   -0.7677   -1.7350 H   0  0  0  0  0  0  0  0  0  0  0  0
    2.7341    1.5883   -1.5886 H   0  0  0  0  0  0  0  0  0  0  0  0
    1.3376    0.5811   -1.9669 H   0  0  0  0  0  0  0  0  0  0  0  0
    0.6943    0.8325    0.6124 H   0  0  0  0  0  0  0  0  0  0  0  0
    2.1559    1.8401    0.7092 H   0  0  0  0  0  0  0  0  0  0  0  0
    1.3299    3.3947   -0.7984 H   0  0  0  0  0  0  0  0  0  0  0  0
    0.1618    2.3101   -1.5427 H   0  0  0  0  0  0  0  0  0  0  0  0
    0.0930    3.7045    1.1996 H   0  0  0  0  0  0  0  0  0  0  0  0
   -0.9219    4.0342   -0.2220 H   0  0  0  0  0  0  0  0  0  0  0  0
   -1.1066    1.4859    1.4198 H   0  0  0  0  0  0  0  0  0  0  0  0
   -2.2505    2.8937    1.3526 H   0  0  0  0  0  0  0  0  0  0  0  0
   -2.5733    2.7693   -0.9614 H   0  0  0  0  0  0  0  0  0  0  0  0
   -1.5157    1.3552   -1.1981 H   0  0  0  0  0  0  0  0  0  0  0  0
   -4.2963    1.4176    0.0448 H   0  0  0  0  0  0  0  0  0  0  0  0
   -3.6658    0.6577   -1.4129 H   0  0  0  0  0  0  0  0  0  0  0  0
   -4.0017   -1.0088    0.3488 H   0  0  0  0  0  0  0  0  0  0  0  0
   -2.7657   -0.2593    1.3836 H   0  0  0  0  0  0  0  0  0  0  0  0
   -2.0791   -1.1901   -1.4304 H   0  0  0  0  0  0  0  0  0  0  0  0
   -1.0345   -0.5818   -0.0235 H   0  0  0  0  0  0  0  0  0  0  0  0
   -1.8895   -2.3563    1.4598 H   0  0  0  0  0  0  0  0  0  0  0  0
   -2.9313   -2.9443    0.1717 H   0  0  0  0  0  0  0  0  0  0  0  0
   -1.0665   -4.4464    0.4805 H   0  0  0  0  0  0  0  0  0  0  0  0
   -0.9534   -3.7638   -1.1383 H   0  0  0  0  0  0  0  0  0  0  0  0
    1.2170   -3.9539    0.3434 H   0  0  0  0  0  0  0  0  0  0  0  0
    0.5428   -2.6581    1.3308 H   0  0  0  0  0  0  0  0  0  0  0  0
    3.1536   -2.2272    0.0956 H   0  0  0  0  0  0  0  0  0  0  0  0
    2.2424   -1.1101    1.1170 H   0  0  0  0  0  0  0  0  0  0  0  0
  1  2  1  0
  2  3  1  0
  3  4  1  0
  4  5  1  0
  5  6  1  0
  6  7  1  0
  7  8  1  0
  8  9  1  0
  9 10  1  0
 10 11  1  0
 11 12  1  0
 12 13  1  0
 13 14  1  0
 14 15  1  0
 15 16  2  0
 15 17  1  0
 17  2  1  0
  1 18  1  0
  1 19  1  0
  1 20  1  0
  2 21  1  0
  3 22  1  0
  3 23  1  0
  4 24  1  0
  4 25  1  0
  5 26  1  0
  5 27  1  0
  6 28  1  0
  6 29  1  0
  7 30  1  0
  7 31  1  0
  8 32  1  0
  8 33  1  0
  9 34  1  0
  9 35  1  0
 10 36  1  0
 10 37  1  0
 11 38  1  0
 11 39  1  0
 12 40  1  0
 12 41  1  0
 13 42  1  0
 13 43  1  0
 14 44  1  0
 14 45  1  0
 17 46  1  0
 17 47  1  0
M  END
>  <Ligand ID>  (1) 
LIG0000221

>  <Ligand>  (1) 
Muskone

>  <SMILES>  (1) 
CC1CCCCCCCCCCCCC(=O)C1

>  <CID>  (1) 
10947.0

>  <ChEMBL ID>  (1) 
nan

>  <InChiKey>  (1) 
ALHUZKCOMYUFRB-UHFFFAOYSA-N

>  <InChi>  (1) 
InChI=1S/C16H30O/c1-15-12-10-8-6-4-2-3-5-7-9-11-13-16(17)14-15/h15H,2-14H2,1H3

>  <IUPAC Name>  (1) 
3-methylcyclopentadecan-1-one

$$$$
