
     RDKit          3D

 45 45  0  0  0  0  0  0  0  0999 V2000
    3.7874   -2.6998    1.0373 C   0  0  0  0  0  0  0  0  0  0  0  0
    3.9338   -1.2972    0.8500 O   0  0  0  0  0  0  0  0  0  0  0  0
    2.8722   -0.6079    0.2723 C   0  0  0  0  0  0  0  0  0  0  0  0
    1.7043   -1.2425   -0.1149 C   0  0  0  0  0  0  0  0  0  0  0  0
    0.6896   -0.4989   -0.6823 C   0  0  0  0  0  0  0  0  0  0  0  0
    0.8237    0.8637   -0.8677 C   0  0  0  0  0  0  0  0  0  0  0  0
    1.9920    1.5014   -0.4808 C   0  0  0  0  0  0  0  0  0  0  0  0
    3.0284    0.7677    0.0940 C   0  0  0  0  0  0  0  0  0  0  0  0
    4.2111    1.3817    0.4913 O   0  0  0  0  0  0  0  0  0  0  0  0
    5.2972    1.5021   -0.4099 C   0  0  0  0  0  0  0  0  0  0  0  0
    6.4346    2.1852    0.2365 C   0  0  0  0  0  0  0  0  0  0  0  0
    6.3805    2.5843    1.4380 O   0  0  0  0  0  0  0  0  0  0  0  0
    7.5881    2.3851   -0.5149 O   0  0  0  0  0  0  0  0  0  0  0  0
    2.1737    2.8405   -0.6416 F   0  0  0  0  0  0  0  0  0  0  0  0
   -0.6015   -1.1090   -1.1267 C   0  0  0  0  0  0  0  0  0  0  0  0
   -1.9579   -0.6401    0.0015 P   0  0  0  0  0  0  0  0  0  0  0  0
   -1.4675    0.4366    0.9207 O   0  0  0  0  0  0  0  0  0  0  0  0
   -3.4071   -0.1049   -0.9445 C   0  0  0  0  0  0  0  0  0  0  0  0
   -4.6910   -0.5613   -0.3278 C   0  0  0  0  0  0  0  0  0  0  0  0
   -4.8646   -0.0068    1.0596 C   0  0  1  0  0  0  0  0  0  0  0  0
   -4.8987    1.4513    1.1395 C   0  0  0  0  0  0  0  0  0  0  0  0
   -5.9264    1.9926    1.6480 O   0  0  0  0  0  0  0  0  0  0  0  0
   -3.9038    2.3103    0.7075 O   0  0  0  0  0  0  0  0  0  0  0  0
   -6.1203   -0.5281    1.6070 N   0  0  0  0  0  0  0  0  0  0  0  0
   -2.4177   -1.9721    0.9491 O   0  0  0  0  0  0  0  0  0  0  0  0
   -0.9290   -0.6058   -2.3846 O   0  0  0  0  0  0  0  0  0  0  0  0
    3.0114   -2.8976    1.8252 H   0  0  0  0  0  0  0  0  0  0  0  0
    3.4121   -3.2137    0.1297 H   0  0  0  0  0  0  0  0  0  0  0  0
    4.7528   -3.1699    1.3217 H   0  0  0  0  0  0  0  0  0  0  0  0
    1.5847   -2.3085    0.0238 H   0  0  0  0  0  0  0  0  0  0  0  0
    0.0541    1.4856   -1.3083 H   0  0  0  0  0  0  0  0  0  0  0  0
    5.0268    2.0800   -1.3171 H   0  0  0  0  0  0  0  0  0  0  0  0
    5.5975    0.4797   -0.7405 H   0  0  0  0  0  0  0  0  0  0  0  0
    8.4560    2.7076   -0.0654 H   0  0  0  0  0  0  0  0  0  0  0  0
   -0.5260   -2.2120   -1.2200 H   0  0  0  0  0  0  0  0  0  0  0  0
   -3.4328    0.9665   -1.1443 H   0  0  0  0  0  0  0  0  0  0  0  0
   -3.3670   -0.5922   -1.9633 H   0  0  0  0  0  0  0  0  0  0  0  0
   -5.5531   -0.2625   -0.9498 H   0  0  0  0  0  0  0  0  0  0  0  0
   -4.7563   -1.6698   -0.2506 H   0  0  0  0  0  0  0  0  0  0  0  0
   -4.0176   -0.4295    1.6591 H   0  0  0  0  0  0  0  0  0  0  0  0
   -3.7190    3.1756    1.2202 H   0  0  0  0  0  0  0  0  0  0  0  0
   -6.0202   -1.5745    1.5936 H   0  0  0  0  0  0  0  0  0  0  0  0
   -6.8444   -0.3377    0.8517 H   0  0  0  0  0  0  0  0  0  0  0  0
   -1.9868   -2.8070    0.6318 H   0  0  0  0  0  0  0  0  0  0  0  0
   -1.4030    0.2520   -2.2367 H   0  0  0  0  0  0  0  0  0  0  0  0
  1  2  1  0
  2  3  1  0
  3  4  2  0
  4  5  1  0
  5  6  2  0
  6  7  1  0
  7  8  2  0
  8  9  1  0
  9 10  1  0
 10 11  1  0
 11 12  2  0
 11 13  1  0
  7 14  1  0
  5 15  1  0
 15 16  1  0
 16 17  2  0
 16 18  1  0
 18 19  1  0
 19 20  1  0
 20 21  1  0
 21 22  2  0
 21 23  1  0
 20 24  1  0
 16 25  1  0
 15 26  1  0
  8  3  1  0
  1 27  1  0
  1 28  1  0
  1 29  1  0
  4 30  1  0
  6 31  1  0
 10 32  1  0
 10 33  1  0
 13 34  1  0
 15 35  1  0
 18 36  1  0
 18 37  1  0
 19 38  1  0
 19 39  1  0
 20 40  1  1
 23 41  1  0
 24 42  1  0
 24 43  1  0
 25 44  1  0
 26 45  1  0
M  END
>  <Ligand ID>  (1) 
LIG0004722

>  <Ligand>  (1) 
CHEMBL3898023

>  <SMILES>  (1) 
COc1cc(cc(c1OCC(=O)O)F)C(P(=O)(CC[C@@H](C(=O)O)N)O)O

>  <CID>  (1) 
71041984.0

>  <ChEMBL ID>  (1) 
nan

>  <InChiKey>  (1) 
CBQXGRKXMPLXLY-CUVJYRNJSA-N

>  <InChi>  (1) 
InChI=1S/C14H19FNO9P/c1-24-10-5-7(4-8(15)12(10)25-6-11(17)18)14(21)26(22,23)3-2-9(16)13(19)20/h4-5,9,14,21H,2-3,6,16H2,1H3,(H,17,18)(H,19,20)(H,22,23)/t9-,14?/m0/s1

>  <IUPAC Name>  (1) 
(2S)-2-amino-4-[[[4-(carboxymethoxy)-3-fluoro-5-methoxyphenyl]-hydroxymethyl]-hydroxyphosphoryl]butanoic acid

$$$$
