
     RDKit          3D

 55 57  0  0  0  0  0  0  0  0999 V2000
   -1.0278   -0.0664    1.4025 C   0  0  0  0  0  0  0  0  0  0  0  0
   -1.7368   -0.5851    0.1936 C   0  0  2  0  0  0  0  0  0  0  0  0
   -0.9302   -1.6106   -0.5879 C   0  0  0  0  0  0  0  0  0  0  0  0
    0.3339   -1.1367   -1.0578 N   0  0  0  0  0  0  0  0  0  0  0  0
    1.5563   -1.2219   -0.3118 C   0  0  0  0  0  0  0  0  0  0  0  0
    1.6317   -1.8629    0.9121 C   0  0  0  0  0  0  0  0  0  0  0  0
    2.7902   -1.9425    1.6587 C   0  0  0  0  0  0  0  0  0  0  0  0
    3.9346   -1.3538    1.1601 C   0  0  0  0  0  0  0  0  0  0  0  0
    3.8640   -0.7090   -0.0697 C   0  0  0  0  0  0  0  0  0  0  0  0
    2.7035   -0.6355   -0.8056 C   0  0  0  0  0  0  0  0  0  0  0  0
    5.0652   -0.0654   -0.6060 C   0  0  0  0  0  0  0  0  0  0  0  0
    5.3243    0.0341   -1.9570 C   0  0  0  0  0  0  0  0  0  0  0  0
    6.4882    0.6740   -2.3200 C   0  0  0  0  0  0  0  0  0  0  0  0
    7.3623    1.1965   -1.3736 C   0  0  0  0  0  0  0  0  0  0  0  0
    7.1050    1.0984   -0.0259 C   0  0  0  0  0  0  0  0  0  0  0  0
    5.9402    0.4583    0.3497 C   0  0  0  0  0  0  0  0  0  0  0  0
    7.9834    1.6247    1.0085 C   0  0  0  0  0  0  0  0  0  0  0  0
    7.6969    1.5038    2.2448 O   0  0  0  0  0  0  0  0  0  0  0  0
    9.1640    2.2786    0.7197 O   0  0  0  0  0  0  0  0  0  0  0  0
   -2.1613    0.4471   -0.7025 N   0  0  0  0  0  0  0  0  0  0  0  0
   -3.5693    0.4545   -0.9059 C   0  0  0  0  0  0  0  0  0  0  0  0
   -4.4327    0.9038    0.2185 C   0  0  1  0  0  0  0  0  0  0  0  0
   -5.8753    0.7244   -0.2145 C   0  0  0  0  0  0  0  0  0  0  0  0
   -6.6528    1.7536   -0.6381 C   0  0  0  0  0  0  0  0  0  0  0  0
   -7.9523    1.4780   -1.0136 C   0  0  0  0  0  0  0  0  0  0  0  0
   -8.4183    0.1781   -0.9482 C   0  0  0  0  0  0  0  0  0  0  0  0
   -7.6269   -0.8603   -0.5189 C   0  0  0  0  0  0  0  0  0  0  0  0
   -6.3309   -0.5858   -0.1445 C   0  0  0  0  0  0  0  0  0  0  0  0
   -8.1931   -2.5131   -0.4246 Cl  0  0  0  0  0  0  0  0  0  0  0  0
   -4.2898    0.1439    1.3692 O   0  0  0  0  0  0  0  0  0  0  0  0
   -1.6733    0.6966    1.9304 H   0  0  0  0  0  0  0  0  0  0  0  0
   -0.0703    0.4286    1.0812 H   0  0  0  0  0  0  0  0  0  0  0  0
   -0.7908   -0.8074    2.1578 H   0  0  0  0  0  0  0  0  0  0  0  0
   -2.6235   -1.1712    0.5681 H   0  0  0  0  0  0  0  0  0  0  0  0
   -1.5624   -1.9127   -1.4474 H   0  0  0  0  0  0  0  0  0  0  0  0
   -0.8271   -2.5259    0.0374 H   0  0  0  0  0  0  0  0  0  0  0  0
    0.3700   -0.6983   -2.0081 H   0  0  0  0  0  0  0  0  0  0  0  0
    0.7625   -2.3514    1.3372 H   0  0  0  0  0  0  0  0  0  0  0  0
    2.7829   -2.4662    2.6241 H   0  0  0  0  0  0  0  0  0  0  0  0
    4.8323   -1.4219    1.7440 H   0  0  0  0  0  0  0  0  0  0  0  0
    2.6854   -0.1141   -1.7706 H   0  0  0  0  0  0  0  0  0  0  0  0
    4.6262   -0.3816   -2.6509 H   0  0  0  0  0  0  0  0  0  0  0  0
    6.6864    0.7471   -3.3781 H   0  0  0  0  0  0  0  0  0  0  0  0
    8.2830    1.7041   -1.6671 H   0  0  0  0  0  0  0  0  0  0  0  0
    5.7269    0.3810    1.4221 H   0  0  0  0  0  0  0  0  0  0  0  0
    9.9192    2.4037    1.3924 H   0  0  0  0  0  0  0  0  0  0  0  0
   -1.8109    1.3690   -0.4101 H   0  0  0  0  0  0  0  0  0  0  0  0
   -3.8708   -0.5948   -1.1484 H   0  0  0  0  0  0  0  0  0  0  0  0
   -3.8667    1.0562   -1.8066 H   0  0  0  0  0  0  0  0  0  0  0  0
   -4.2767    1.9983    0.3832 H   0  0  0  0  0  0  0  0  0  0  0  0
   -6.2669    2.7599   -0.6813 H   0  0  0  0  0  0  0  0  0  0  0  0
   -8.6313    2.2535   -1.3614 H   0  0  0  0  0  0  0  0  0  0  0  0
   -9.4470   -0.0878   -1.2343 H   0  0  0  0  0  0  0  0  0  0  0  0
   -5.6871   -1.4031    0.1995 H   0  0  0  0  0  0  0  0  0  0  0  0
   -5.0164    0.3353    2.0316 H   0  0  0  0  0  0  0  0  0  0  0  0
  1  2  1  0
  2  3  1  0
  3  4  1  0
  4  5  1  0
  5  6  2  0
  6  7  1  0
  7  8  2  0
  8  9  1  0
  9 10  2  0
  9 11  1  0
 11 12  2  0
 12 13  1  0
 13 14  2  0
 14 15  1  0
 15 16  2  0
 15 17  1  0
 17 18  2  0
 17 19  1  0
  2 20  1  0
 20 21  1  0
 21 22  1  0
 22 23  1  0
 23 24  2  0
 24 25  1  0
 25 26  2  0
 26 27  1  0
 27 28  2  0
 27 29  1  0
 22 30  1  0
 10  5  1  0
 16 11  1  0
 28 23  1  0
  1 31  1  0
  1 32  1  0
  1 33  1  0
  2 34  1  1
  3 35  1  0
  3 36  1  0
  4 37  1  0
  6 38  1  0
  7 39  1  0
  8 40  1  0
 10 41  1  0
 12 42  1  0
 13 43  1  0
 14 44  1  0
 16 45  1  0
 19 46  1  0
 20 47  1  0
 21 48  1  0
 21 49  1  0
 22 50  1  1
 24 51  1  0
 25 52  1  0
 26 53  1  0
 28 54  1  0
 30 55  1  0
M  END
>  <Ligand ID>  (1) 
LIG0002255

>  <Ligand>  (1) 
CHEMBL205224

>  <SMILES>  (1) 
C[C@H](CNc1cccc(c1)c1cccc(c1)C(=O)O)NC[C@@H](c1cccc(c1)Cl)O

>  <CID>  (1) 
9845282.0

>  <ChEMBL ID>  (1) 
nan

>  <InChiKey>  (1) 
QNFXKEPASZCPGA-MWTRTKDXSA-N

>  <InChi>  (1) 
InChI=1S/C24H25ClN2O3/c1-16(26-15-23(28)19-7-3-9-21(25)12-19)14-27-22-10-4-6-18(13-22)17-5-2-8-20(11-17)24(29)30/h2-13,16,23,26-28H,14-15H2,1H3,(H,29,30)/t16-,23+/m1/s1

>  <IUPAC Name>  (1) 
3-[3-[[(2R)-2-[[(2R)-2-(3-chlorophenyl)-2-hydroxyethyl]amino]propyl]amino]phenyl]benzoic acid

$$$$
