
     RDKit          3D

196204  0  0  0  0  0  0  0  0999 V2000
  -10.7323   -3.9956    0.6673 O   0  0  0  0  0  0  0  0  0  0  0  0
   -9.6163   -3.2141    1.0479 C   0  0  0  0  0  0  0  0  0  0  0  0
   -9.8327   -2.1758    1.7589 N   0  0  0  0  0  0  0  0  0  0  0  0
   -8.3119   -3.6944    0.5739 C   0  0  0  0  0  0  0  0  0  0  0  0
   -7.1515   -2.7585    0.9499 C   0  0  2  0  0  0  0  0  0  0  0  0
   -7.3036   -1.4460    0.4140 N   0  0  0  0  0  0  0  0  0  0  0  0
   -6.6740   -0.4015    0.7859 C   0  0  0  0  0  0  0  0  0  0  0  0
   -5.7388   -0.6363    1.8364 O   0  0  0  0  0  0  0  0  0  0  0  0
   -6.7668    0.9601    0.3200 C   0  0  2  0  0  0  0  0  0  0  0  0
   -7.6931    1.3409   -0.7209 C   0  0  0  0  0  0  0  0  0  0  0  0
   -9.1203    1.0761   -0.4603 C   0  0  0  0  0  0  0  0  0  0  0  0
   -9.8831    1.9217    0.3547 C   0  0  0  0  0  0  0  0  0  0  0  0
  -11.1246    1.3621    0.4640 N   0  0  0  0  0  0  0  0  0  0  0  0
  -11.1471    0.2281   -0.2421 C   0  0  0  0  0  0  0  0  0  0  0  0
   -9.9363    0.0253   -0.8193 C   0  0  0  0  0  0  0  0  0  0  0  0
   -9.7234   -1.0659   -1.6355 C   0  0  0  0  0  0  0  0  0  0  0  0
  -10.7179   -1.9791   -1.8891 C   0  0  0  0  0  0  0  0  0  0  0  0
  -11.9540   -1.7495   -1.2813 C   0  0  0  0  0  0  0  0  0  0  0  0
  -12.1669   -0.6651   -0.4694 C   0  0  0  0  0  0  0  0  0  0  0  0
   -5.3447    1.4877    0.0704 N   0  0  0  0  0  0  0  0  0  0  0  0
   -4.9661    2.5027    0.9643 C   0  0  0  0  0  0  0  0  0  0  0  0
   -5.1783    3.9097    0.5287 C   0  0  2  0  0  0  0  0  0  0  0  0
   -6.5814    4.4278    0.5355 C   0  0  0  0  0  0  0  0  0  0  0  0
   -4.6223    4.0977   -0.8494 N   0  0  0  0  0  0  0  0  0  0  0  0
   -3.4228    4.1233   -1.1554 C   0  0  0  0  0  0  0  0  0  0  0  0
   -3.1185    4.3153   -2.5305 O   0  0  0  0  0  0  0  0  0  0  0  0
   -2.2240    3.9733   -0.2716 C   0  0  1  0  0  0  0  0  0  0  0  0
   -1.4741    2.7126   -0.7502 C   0  0  0  0  0  0  0  0  0  0  0  0
   -2.3112    1.9741   -2.1454 S   0  0  0  0  0  0  0  0  0  0  0  0
   -3.5119    0.7669   -1.7582 C   0  0  0  0  0  0  0  0  0  0  0  0
   -4.6716    0.8462   -0.9515 C   0  0  0  0  0  0  0  0  0  0  0  0
   -5.5253   -0.1378   -1.2911 O   0  0  0  0  0  0  0  0  0  0  0  0
   -1.2671    5.0505   -0.5890 N   0  0  0  0  0  0  0  0  0  0  0  0
   -0.2363    5.1936    0.1395 C   0  0  0  0  0  0  0  0  0  0  0  0
    0.0500    4.3838    1.2450 O   0  0  0  0  0  0  0  0  0  0  0  0
    0.7289    6.2649   -0.1741 C   0  0  1  0  0  0  0  0  0  0  0  0
    0.6333    7.3149    0.9438 C   0  0  0  0  0  0  0  0  0  0  0  0
   -0.7391    7.8840    0.9506 C   0  0  0  0  0  0  0  0  0  0  0  0
   -1.7710    7.3441    1.6551 C   0  0  0  0  0  0  0  0  0  0  0  0
   -3.0287    7.9667    1.5812 C   0  0  0  0  0  0  0  0  0  0  0  0
   -3.1891    9.1005    0.7988 C   0  0  0  0  0  0  0  0  0  0  0  0
   -2.1348    9.6514    0.0746 C   0  0  0  0  0  0  0  0  0  0  0  0
   -0.9347    9.0232    0.1731 C   0  0  0  0  0  0  0  0  0  0  0  0
    2.0741    5.9158   -0.3211 N   0  0  0  0  0  0  0  0  0  0  0  0
    2.7388    5.1628   -1.0499 C   0  0  0  0  0  0  0  0  0  0  0  0
    2.1815    4.3470   -2.0683 O   0  0  0  0  0  0  0  0  0  0  0  0
    4.2333    5.1186   -0.8432 C   0  0  2  0  0  0  0  0  0  0  0  0
    4.7667    5.9401   -2.0382 C   0  0  0  0  0  0  0  0  0  0  0  0
    4.1662    7.2994   -1.9009 C   0  0  0  0  0  0  0  0  0  0  0  0
    4.7813    8.2859   -1.2108 N   0  0  0  0  0  0  0  0  0  0  0  0
    3.9458    9.3638   -1.2680 C   0  0  0  0  0  0  0  0  0  0  0  0
    2.8610    9.0483   -1.9677 N   0  0  0  0  0  0  0  0  0  0  0  0
    2.9597    7.7706   -2.3790 C   0  0  0  0  0  0  0  0  0  0  0  0
    4.7450    3.7744   -0.9600 N   0  0  0  0  0  0  0  0  0  0  0  0
    4.7335    2.9920    0.0410 C   0  0  0  0  0  0  0  0  0  0  0  0
    5.3053    1.5968   -0.2385 C   0  0  2  0  0  0  0  0  0  0  0  0
    4.0895    0.8634   -0.7523 C   0  0  0  0  0  0  0  0  0  0  0  0
    4.3731   -0.8350   -1.1376 S   0  0  0  0  0  0  0  0  0  0  0  0
    4.7739   -2.0451    0.5755 S   0  0  0  0  0  0  0  0  0  0  0  0
    3.2059   -2.6251    1.2863 C   0  0  0  0  0  0  0  0  0  0  0  0
    2.4165   -3.4880    0.3056 C   0  0  2  0  0  0  0  0  0  0  0  0
    1.1764   -3.7775    0.9067 N   0  0  0  0  0  0  0  0  0  0  0  0
    0.2635   -4.6044    0.7606 C   0  0  0  0  0  0  0  0  0  0  0  0
   -1.0023   -4.6711    1.5913 C   0  0  1  0  0  0  0  0  0  0  0  0
   -2.1168   -4.7111    0.6477 N   0  0  0  0  0  0  0  0  0  0  0  0
   -2.7628   -3.6233    0.3120 C   0  0  0  0  0  0  0  0  0  0  0  0
   -3.8775   -3.6580   -0.6452 C   0  0  1  0  0  0  0  0  0  0  0  0
   -5.0921   -3.0305   -0.2491 N   0  0  0  0  0  0  0  0  0  0  0  0
   -5.9194   -3.4665    0.6002 C   0  0  0  0  0  0  0  0  0  0  0  0
   -5.6567   -4.6729    1.2392 O   0  0  0  0  0  0  0  0  0  0  0  0
   -3.3251   -3.0637   -1.9475 C   0  0  0  0  0  0  0  0  0  0  0  0
   -2.3465   -2.4414    0.9023 O   0  0  0  0  0  0  0  0  0  0  0  0
   -0.9397   -5.7793    2.5539 C   0  0  0  0  0  0  0  0  0  0  0  0
   -0.7759   -7.1180    1.9278 C   0  0  0  0  0  0  0  0  0  0  0  0
   -1.8723   -7.8686    1.6286 C   0  0  0  0  0  0  0  0  0  0  0  0
   -1.6654   -9.0961    1.0225 C   0  0  0  0  0  0  0  0  0  0  0  0
   -0.4044   -9.5503    0.7268 C   0  0  0  0  0  0  0  0  0  0  0  0
    0.6544   -8.7530    1.0501 C   0  0  0  0  0  0  0  0  0  0  0  0
    0.5444   -7.5160    1.6576 C   0  0  0  0  0  0  0  0  0  0  0  0
    0.3085   -5.6080   -0.2324 O   0  0  0  0  0  0  0  0  0  0  0  0
    3.1629   -4.6692   -0.1261 C   0  0  0  0  0  0  0  0  0  0  0  0
    3.6607   -5.5853    0.6050 N   0  0  0  0  0  0  0  0  0  0  0  0
    4.3812   -6.7145    0.1638 C   0  0  2  0  0  0  0  0  0  0  0  0
    4.6644   -7.6387    1.3328 C   0  0  0  0  0  0  0  0  0  0  0  0
    4.4049   -8.8032    1.2034 N   0  0  0  0  0  0  0  0  0  0  0  0
    5.2142   -7.1315    2.5185 O   0  0  0  0  0  0  0  0  0  0  0  0
    5.6599   -6.3614   -0.5403 C   0  0  0  0  0  0  0  0  0  0  0  0
    6.3849   -7.6016   -0.9773 C   0  0  0  0  0  0  0  0  0  0  0  0
    6.1360   -8.2215   -2.1989 C   0  0  0  0  0  0  0  0  0  0  0  0
    6.8176   -9.3607   -2.5942 C   0  0  0  0  0  0  0  0  0  0  0  0
    7.7703   -9.8902   -1.7414 C   0  0  0  0  0  0  0  0  0  0  0  0
    8.0106   -9.2677   -0.5246 C   0  0  0  0  0  0  0  0  0  0  0  0
    7.3379   -8.1319   -0.1219 C   0  0  0  0  0  0  0  0  0  0  0  0
    8.4515  -11.0219   -2.1327 O   0  0  0  0  0  0  0  0  0  0  0  0
    3.3630   -4.8311   -1.5215 O   0  0  0  0  0  0  0  0  0  0  0  0
    5.8214    1.0382    0.9780 N   0  0  0  0  0  0  0  0  0  0  0  0
    6.8589    1.5591    1.5304 C   0  0  0  0  0  0  0  0  0  0  0  0
    7.6051    2.7247    1.0122 C   0  0  2  0  0  0  0  0  0  0  0  0
    9.0509    2.3210    0.8103 C   0  0  0  0  0  0  0  0  0  0  0  0
    9.8809    3.4363    0.2845 C   0  0  0  0  0  0  0  0  0  0  0  0
    9.9645    3.5556   -1.0938 C   0  0  0  0  0  0  0  0  0  0  0  0
   10.7117    4.5792   -1.6329 C   0  0  0  0  0  0  0  0  0  0  0  0
   11.3737    5.4806   -0.8046 C   0  0  0  0  0  0  0  0  0  0  0  0
   11.2902    5.3582    0.5657 C   0  0  0  0  0  0  0  0  0  0  0  0
   10.5422    4.3336    1.0934 C   0  0  0  0  0  0  0  0  0  0  0  0
   12.1109    6.4896   -1.4065 O   0  0  0  0  0  0  0  0  0  0  0  0
    7.4792    3.8472    1.9336 N   0  0  0  0  0  0  0  0  0  0  0  0
    7.2973    0.9510    2.7192 O   0  0  0  0  0  0  0  0  0  0  0  0
    4.2606    3.3066    1.3049 O   0  0  0  0  0  0  0  0  0  0  0  0
  -11.6019   -3.8858    1.1570 H   0  0  0  0  0  0  0  0  0  0  0  0
   -8.9984   -1.5990    2.0427 H   0  0  0  0  0  0  0  0  0  0  0  0
   -8.0957   -4.7304    0.9471 H   0  0  0  0  0  0  0  0  0  0  0  0
   -8.2984   -3.7686   -0.5271 H   0  0  0  0  0  0  0  0  0  0  0  0
   -7.2155   -2.6465    2.0739 H   0  0  0  0  0  0  0  0  0  0  0  0
   -5.5448   -1.5475    2.1866 H   0  0  0  0  0  0  0  0  0  0  0  0
   -7.1559    1.5268    1.2451 H   0  0  0  0  0  0  0  0  0  0  0  0
   -7.5394    2.3418   -1.1788 H   0  0  0  0  0  0  0  0  0  0  0  0
   -7.4947    0.6887   -1.6420 H   0  0  0  0  0  0  0  0  0  0  0  0
   -9.5597    2.8473    0.8137 H   0  0  0  0  0  0  0  0  0  0  0  0
  -11.9376    1.7320    1.0003 H   0  0  0  0  0  0  0  0  0  0  0  0
   -8.7322   -1.1569   -2.0595 H   0  0  0  0  0  0  0  0  0  0  0  0
  -10.5192   -2.8165   -2.5274 H   0  0  0  0  0  0  0  0  0  0  0  0
  -12.7398   -2.4673   -1.4882 H   0  0  0  0  0  0  0  0  0  0  0  0
  -13.1354   -0.5027    0.0028 H   0  0  0  0  0  0  0  0  0  0  0  0
   -5.6568    2.4572    1.9141 H   0  0  0  0  0  0  0  0  0  0  0  0
   -3.9888    2.3921    1.4621 H   0  0  0  0  0  0  0  0  0  0  0  0
   -4.5411    4.5136    1.1485 H   0  0  0  0  0  0  0  0  0  0  0  0
   -7.0034    4.6359   -0.4825 H   0  0  0  0  0  0  0  0  0  0  0  0
   -7.3353    3.7938    1.0266 H   0  0  0  0  0  0  0  0  0  0  0  0
   -6.6068    5.3808    1.1592 H   0  0  0  0  0  0  0  0  0  0  0  0
   -3.7044    3.9176   -3.2554 H   0  0  0  0  0  0  0  0  0  0  0  0
   -2.4852    3.9613    0.7454 H   0  0  0  0  0  0  0  0  0  0  0  0
   -1.5145    2.0454    0.1616 H   0  0  0  0  0  0  0  0  0  0  0  0
   -0.4145    2.9430   -0.8931 H   0  0  0  0  0  0  0  0  0  0  0  0
   -2.8994   -0.1952   -1.5132 H   0  0  0  0  0  0  0  0  0  0  0  0
   -3.9042    0.4158   -2.8180 H   0  0  0  0  0  0  0  0  0  0  0  0
   -0.7332    3.9571    1.7297 H   0  0  0  0  0  0  0  0  0  0  0  0
    0.4141    6.8046   -1.1199 H   0  0  0  0  0  0  0  0  0  0  0  0
    1.4233    8.0647    0.8517 H   0  0  0  0  0  0  0  0  0  0  0  0
    0.8090    6.7345    1.8754 H   0  0  0  0  0  0  0  0  0  0  0  0
   -1.6186    6.4487    2.2611 H   0  0  0  0  0  0  0  0  0  0  0  0
   -3.8803    7.5874    2.1131 H   0  0  0  0  0  0  0  0  0  0  0  0
   -4.1457    9.6014    0.7256 H   0  0  0  0  0  0  0  0  0  0  0  0
   -2.2693   10.5247   -0.5304 H   0  0  0  0  0  0  0  0  0  0  0  0
   -0.1038    9.4585   -0.3966 H   0  0  0  0  0  0  0  0  0  0  0  0
    1.2683    4.5531   -2.4109 H   0  0  0  0  0  0  0  0  0  0  0  0
    4.4936    5.6368    0.0724 H   0  0  0  0  0  0  0  0  0  0  0  0
    4.4924    5.4454   -2.9734 H   0  0  0  0  0  0  0  0  0  0  0  0
    5.8749    5.9996   -2.0137 H   0  0  0  0  0  0  0  0  0  0  0  0
    5.7073    8.1918   -0.7410 H   0  0  0  0  0  0  0  0  0  0  0  0
    4.2396   10.2880   -0.7638 H   0  0  0  0  0  0  0  0  0  0  0  0
    2.2500    7.1865   -2.9877 H   0  0  0  0  0  0  0  0  0  0  0  0
    6.0459    1.6617   -1.0489 H   0  0  0  0  0  0  0  0  0  0  0  0
    3.6923    1.3706   -1.6747 H   0  0  0  0  0  0  0  0  0  0  0  0
    3.2556    0.9205    0.0011 H   0  0  0  0  0  0  0  0  0  0  0  0
    3.4350   -3.2025    2.1971 H   0  0  0  0  0  0  0  0  0  0  0  0
    2.5804   -1.7525    1.5258 H   0  0  0  0  0  0  0  0  0  0  0  0
    2.1742   -2.8187   -0.5888 H   0  0  0  0  0  0  0  0  0  0  0  0
   -1.0806   -3.7147    2.1345 H   0  0  0  0  0  0  0  0  0  0  0  0
   -4.1346   -4.7458   -0.8210 H   0  0  0  0  0  0  0  0  0  0  0  0
   -5.0923   -5.4016    0.8325 H   0  0  0  0  0  0  0  0  0  0  0  0
   -2.3758   -2.5135   -1.7522 H   0  0  0  0  0  0  0  0  0  0  0  0
   -3.0403   -3.9235   -2.5955 H   0  0  0  0  0  0  0  0  0  0  0  0
   -4.0290   -2.3786   -2.4263 H   0  0  0  0  0  0  0  0  0  0  0  0
   -1.3972   -2.1438    0.9527 H   0  0  0  0  0  0  0  0  0  0  0  0
   -1.8679   -5.8373    3.1727 H   0  0  0  0  0  0  0  0  0  0  0  0
   -0.1233   -5.6507    3.3200 H   0  0  0  0  0  0  0  0  0  0  0  0
   -2.8893   -7.5775    1.8390 H   0  0  0  0  0  0  0  0  0  0  0  0
   -2.5363   -9.6891    0.7909 H   0  0  0  0  0  0  0  0  0  0  0  0
   -0.2209  -10.5068    0.2499 H   0  0  0  0  0  0  0  0  0  0  0  0
    1.6488   -9.0918    0.8184 H   0  0  0  0  0  0  0  0  0  0  0  0
    1.3870   -6.8937    1.9114 H   0  0  0  0  0  0  0  0  0  0  0  0
    1.1344   -5.9444   -0.6590 H   0  0  0  0  0  0  0  0  0  0  0  0
    3.7223   -7.2953   -0.5708 H   0  0  0  0  0  0  0  0  0  0  0  0
    4.4133   -9.6907    1.6400 H   0  0  0  0  0  0  0  0  0  0  0  0
    4.8381   -7.4648    3.4248 H   0  0  0  0  0  0  0  0  0  0  0  0
    5.4584   -5.6963   -1.3850 H   0  0  0  0  0  0  0  0  0  0  0  0
    6.3033   -5.7812    0.1796 H   0  0  0  0  0  0  0  0  0  0  0  0
    5.4024   -7.8376   -2.8957 H   0  0  0  0  0  0  0  0  0  0  0  0
    6.6343   -9.8525   -3.5440 H   0  0  0  0  0  0  0  0  0  0  0  0
    8.7433   -9.6627    0.1393 H   0  0  0  0  0  0  0  0  0  0  0  0
    7.5243   -7.6401    0.8199 H   0  0  0  0  0  0  0  0  0  0  0  0
    8.9684  -11.0738   -2.9975 H   0  0  0  0  0  0  0  0  0  0  0  0
    3.1925   -5.7498   -1.9733 H   0  0  0  0  0  0  0  0  0  0  0  0
    7.1921    3.0221    0.0167 H   0  0  0  0  0  0  0  0  0  0  0  0
    9.4510    2.0532    1.8274 H   0  0  0  0  0  0  0  0  0  0  0  0
    9.0595    1.4902    0.1069 H   0  0  0  0  0  0  0  0  0  0  0  0
    9.4705    2.8597   -1.7675 H   0  0  0  0  0  0  0  0  0  0  0  0
   10.7782    4.6832   -2.7106 H   0  0  0  0  0  0  0  0  0  0  0  0
   11.8233    6.0799    1.1822 H   0  0  0  0  0  0  0  0  0  0  0  0
   10.4987    4.2577    2.1711 H   0  0  0  0  0  0  0  0  0  0  0  0
   11.8326    6.8877   -2.3136 H   0  0  0  0  0  0  0  0  0  0  0  0
    8.1692    3.8612    2.6875 H   0  0  0  0  0  0  0  0  0  0  0  0
    7.3017    4.7388    1.4468 H   0  0  0  0  0  0  0  0  0  0  0  0
    6.6932    0.2773    3.1736 H   0  0  0  0  0  0  0  0  0  0  0  0
    3.5912    4.0710    1.4198 H   0  0  0  0  0  0  0  0  0  0  0  0
  1  2  1  0
  2  3  2  3
  2  4  1  0
  4  5  1  0
  5  6  1  0
  6  7  2  3
  7  8  1  0
  7  9  1  0
  9 10  1  0
 10 11  1  0
 11 12  2  0
 12 13  1  0
 13 14  1  0
 14 15  2  0
 15 16  1  0
 16 17  2  0
 17 18  1  0
 18 19  2  0
  9 20  1  0
 20 21  1  0
 21 22  1  0
 22 23  1  0
 22 24  1  0
 24 25  2  3
 25 26  1  0
 25 27  1  0
 27 28  1  0
 28 29  1  0
 29 30  1  0
 30 31  1  0
 31 32  2  0
 27 33  1  0
 33 34  2  3
 34 35  1  0
 34 36  1  0
 36 37  1  0
 37 38  1  0
 38 39  2  0
 39 40  1  0
 40 41  2  0
 41 42  1  0
 42 43  2  0
 36 44  1  0
 44 45  2  3
 45 46  1  0
 45 47  1  0
 47 48  1  0
 48 49  1  0
 49 50  1  0
 50 51  1  0
 51 52  2  0
 52 53  1  0
 47 54  1  0
 54 55  2  3
 55 56  1  0
 56 57  1  0
 57 58  1  0
 58 59  1  0
 59 60  1  0
 60 61  1  0
 61 62  1  0
 62 63  2  3
 63 64  1  0
 64 65  1  0
 65 66  2  3
 66 67  1  0
 67 68  1  0
 68 69  2  3
 69 70  1  0
 67 71  1  0
 66 72  1  0
 64 73  1  0
 73 74  1  0
 74 75  2  0
 75 76  1  0
 76 77  2  0
 77 78  1  0
 78 79  2  0
 63 80  1  0
 61 81  1  0
 81 82  2  3
 82 83  1  0
 83 84  1  0
 84 85  2  3
 84 86  1  0
 83 87  1  0
 87 88  1  0
 88 89  2  0
 89 90  1  0
 90 91  2  0
 91 92  1  0
 92 93  2  0
 91 94  1  0
 81 95  1  0
 56 96  1  0
 96 97  2  3
 97 98  1  0
 98 99  1  0
 99100  1  0
100101  2  0
101102  1  0
102103  2  0
103104  1  0
104105  2  0
103106  1  0
 98107  1  0
 97108  1  0
 55109  1  0
 69  5  1  0
 79 74  1  0
 93 88  1  0
105100  1  0
 15 11  1  0
 31 20  1  0
 43 38  1  0
 53 49  2  0
 19 14  1  0
  1110  1  0
  3111  1  0
  4112  1  0
  4113  1  0
  5114  1  1
  8115  1  0
  9116  1  1
 10117  1  0
 10118  1  0
 12119  1  0
 13120  1  0
 16121  1  0
 17122  1  0
 18123  1  0
 19124  1  0
 21125  1  0
 21126  1  0
 22127  1  1
 23128  1  0
 23129  1  0
 23130  1  0
 26131  1  0
 27132  1  1
 28133  1  0
 28134  1  0
 30135  1  0
 30136  1  0
 35137  1  0
 36138  1  6
 37139  1  0
 37140  1  0
 39141  1  0
 40142  1  0
 41143  1  0
 42144  1  0
 43145  1  0
 46146  1  0
 47147  1  1
 48148  1  0
 48149  1  0
 50150  1  0
 51151  1  0
 53152  1  0
 56153  1  6
 57154  1  0
 57155  1  0
 60156  1  0
 60157  1  0
 61158  1  6
 64159  1  1
 67160  1  6
 70161  1  0
 71162  1  0
 71163  1  0
 71164  1  0
 72165  1  0
 73166  1  0
 73167  1  0
 75168  1  0
 76169  1  0
 77170  1  0
 78171  1  0
 79172  1  0
 80173  1  0
 83174  1  6
 85175  1  0
 86176  1  0
 87177  1  0
 87178  1  0
 89179  1  0
 90180  1  0
 92181  1  0
 93182  1  0
 94183  1  0
 95184  1  0
 98185  1  6
 99186  1  0
 99187  1  0
101188  1  0
102189  1  0
104190  1  0
105191  1  0
106192  1  0
107193  1  0
107194  1  0
108195  1  0
109196  1  0
M  END
>  <Ligand ID>  (1) 
LIG0001172

>  <Ligand>  (1) 
CID 102096783

>  <SMILES>  (1) 
OC(=N)C[C@@H]1N=C(O)[C@H](Cc2c[nH]c3c2cccc3)N2C[C@H](C)N=C(O)[C@@H](CSCC2=O)N=C(O)[C@@H](Cc2ccccc2)N=C(O)[C@H](Cc2[nH]cnc2)N=C([C@H](CSSC[C@H](N=C([C@@H](N=C([C@@H](N=C1O)C)O)Cc1ccccc1)O)C(=N[C@H](C(=N)O)Cc1ccc(cc1)O)O)N=C([C@H](Cc1ccc(cc1)O)N)O)O

>  <CID>  (1) 
102096783.0

>  <ChEMBL ID>  (1) 
nan

>  <InChiKey>  (1) 
WZWRPPXTHKSPII-YVFDGVDHSA-N

>  <InChi>  (1) 
InChI=1S/C74H87N17O15S3/c1-40-34-91-61(29-46-32-79-52-16-10-9-15-50(46)52)74(106)87-57(31-62(76)94)67(99)82-41(2)65(97)84-54(27-42-11-5-3-6-12-42)68(100)90-60(72(104)83-53(64(77)96)26-45-19-23-49(93)24-20-45)37-109-108-36-59(88-66(98)51(75)25-44-17-21-48(92)22-18-44)73(105)86-56(30-47-33-78-39-80-47)70(102)85-55(28-43-13-7-4-8-14-43)69(101)89-58(71(103)81-40)35-107-38-63(91)95/h3-24,32-33,39-41,51,53-61,79,92-93H,25-31,34-38,75H2,1-2H3,(H2,76,94)(H2,77,96)(H,78,80)(H,81,103)(H,82,99)(H,83,104)(H,84,97)(H,85,102)(H,86,105)(H,87,106)(H,88,98)(H,89,101)(H,90,100)/t40-,41-,51-,53-,54-,55+,56-,57-,58+,59-,60-,61-/m0/s1

>  <IUPAC Name>  (1) 
(2S,5S,8S,11S,14R,19R,22S,25R,28S,34S)-19-[[(2S)-2-amino-1-hydroxy-3-(4-hydroxyphenyl)propylidene]amino]-11,25-dibenzyl-3,6,9,12,20,23,26,36-octahydroxy-N-[(2S)-1-hydroxy-3-(4-hydroxyphenyl)-1-iminopropan-2-yl]-5-(2-hydroxy-2-iminoethyl)-22-(1H-imidazol-5-ylmethyl)-2-(1H-indol-3-ylmethyl)-8,34-dimethyl-32-oxo-16,17,30-trithia-1,4,7,10,13,21,24,27,35-nonazabicyclo[26.4.4]hexatriaconta-3,6,9,12,20,23,26,35-octaene-14-carboximidic acid

$$$$
