
     RDKit          3D

 60 60  0  0  0  0  0  0  0  0999 V2000
    6.7286    1.8200    0.2264 C   0  0  0  0  0  0  0  0  0  0  0  0
    6.2715    2.0060   -1.1820 C   0  0  0  0  0  0  0  0  0  0  0  0
    6.4100    0.7764   -2.0490 C   0  0  0  0  0  0  0  0  0  0  0  0
    5.6092   -0.3942   -1.5174 C   0  0  0  0  0  0  0  0  0  0  0  0
    4.1679   -0.0032   -1.4741 C   0  0  0  0  0  0  0  0  0  0  0  0
    3.2892   -1.1006   -0.9630 C   0  0  0  0  0  0  0  0  0  0  0  0
    3.6307   -1.5390    0.4355 C   0  0  0  0  0  0  0  0  0  0  0  0
    2.6876   -2.6465    0.8637 C   0  0  0  0  0  0  0  0  0  0  0  0
    1.2739   -2.1917    0.8448 C   0  0  0  0  0  0  0  0  0  0  0  0
    0.7934   -1.6287    2.0235 C   0  0  0  0  0  0  0  0  0  0  0  0
   -0.5160   -1.1909    2.0565 C   0  0  0  0  0  0  0  0  0  0  0  0
   -1.3131   -1.3179    0.9361 C   0  0  0  0  0  0  0  0  0  0  0  0
   -0.8692   -1.8709   -0.2481 C   0  0  0  0  0  0  0  0  0  0  0  0
    0.4556   -2.3066   -0.2606 C   0  0  0  0  0  0  0  0  0  0  0  0
   -2.7390   -0.8082    1.0677 C   0  0  0  0  0  0  0  0  0  0  0  0
   -2.7818    0.6222    0.6725 C   0  0  0  0  0  0  0  0  0  0  0  0
   -4.1296    1.2425    0.7334 C   0  0  0  0  0  0  0  0  0  0  0  0
   -5.1490    0.5819   -0.1390 C   0  0  0  0  0  0  0  0  0  0  0  0
   -6.3483    1.2482   -0.1953 O   0  0  0  0  0  0  0  0  0  0  0  0
   -7.4923    0.5005   -1.1783 P   0  0  0  0  0  0  0  0  0  0  0  0
   -8.8509    0.6750   -0.5580 O   0  0  0  0  0  0  0  0  0  0  0  0
   -7.1216   -1.1307   -1.4371 O   0  0  0  0  0  0  0  0  0  0  0  0
   -7.5036    1.2670   -2.6849 O   0  0  0  0  0  0  0  0  0  0  0  0
   -4.5960    1.4573    2.1350 C   0  0  0  0  0  0  0  0  0  0  0  0
   -4.8267    0.2591    2.7747 O   0  0  0  0  0  0  0  0  0  0  0  0
   -3.9410    2.5946    0.1158 N   0  0  0  0  0  0  0  0  0  0  0  0
    5.9367    1.5266    0.9345 H   0  0  0  0  0  0  0  0  0  0  0  0
    7.6305    1.1466    0.2703 H   0  0  0  0  0  0  0  0  0  0  0  0
    7.1004    2.8081    0.6024 H   0  0  0  0  0  0  0  0  0  0  0  0
    5.2763    2.4436   -1.2242 H   0  0  0  0  0  0  0  0  0  0  0  0
    6.9551    2.7693   -1.6469 H   0  0  0  0  0  0  0  0  0  0  0  0
    5.9783    1.0381   -3.0371 H   0  0  0  0  0  0  0  0  0  0  0  0
    7.4542    0.4815   -2.1943 H   0  0  0  0  0  0  0  0  0  0  0  0
    5.6957   -1.1888   -2.3143 H   0  0  0  0  0  0  0  0  0  0  0  0
    6.0266   -0.8194   -0.6078 H   0  0  0  0  0  0  0  0  0  0  0  0
    3.9746    0.8994   -0.8602 H   0  0  0  0  0  0  0  0  0  0  0  0
    3.8625    0.1780   -2.5367 H   0  0  0  0  0  0  0  0  0  0  0  0
    2.2233   -0.7877   -1.0572 H   0  0  0  0  0  0  0  0  0  0  0  0
    3.4248   -1.9868   -1.6473 H   0  0  0  0  0  0  0  0  0  0  0  0
    4.6772   -1.9037    0.4361 H   0  0  0  0  0  0  0  0  0  0  0  0
    3.6102   -0.6853    1.1314 H   0  0  0  0  0  0  0  0  0  0  0  0
    2.8707   -3.5216    0.2018 H   0  0  0  0  0  0  0  0  0  0  0  0
    3.0042   -2.9793    1.8733 H   0  0  0  0  0  0  0  0  0  0  0  0
    1.4325   -1.5375    2.8909 H   0  0  0  0  0  0  0  0  0  0  0  0
   -0.8561   -0.7604    2.9835 H   0  0  0  0  0  0  0  0  0  0  0  0
   -1.5181   -1.9545   -1.1031 H   0  0  0  0  0  0  0  0  0  0  0  0
    0.8511   -2.7514   -1.1759 H   0  0  0  0  0  0  0  0  0  0  0  0
   -3.0749   -0.9456    2.0954 H   0  0  0  0  0  0  0  0  0  0  0  0
   -3.4104   -1.3995    0.4175 H   0  0  0  0  0  0  0  0  0  0  0  0
   -2.3989    0.7410   -0.3711 H   0  0  0  0  0  0  0  0  0  0  0  0
   -2.1332    1.2277    1.3789 H   0  0  0  0  0  0  0  0  0  0  0  0
   -5.2813   -0.5015    0.1233 H   0  0  0  0  0  0  0  0  0  0  0  0
   -4.7448    0.5589   -1.1792 H   0  0  0  0  0  0  0  0  0  0  0  0
   -7.7043   -1.7148   -0.8882 H   0  0  0  0  0  0  0  0  0  0  0  0
   -8.2074    1.9474   -2.7003 H   0  0  0  0  0  0  0  0  0  0  0  0
   -3.8683    2.0506    2.7424 H   0  0  0  0  0  0  0  0  0  0  0  0
   -5.5399    2.0582    2.1839 H   0  0  0  0  0  0  0  0  0  0  0  0
   -5.6934    0.2517    3.2422 H   0  0  0  0  0  0  0  0  0  0  0  0
   -3.3951    2.4060   -0.7678 H   0  0  0  0  0  0  0  0  0  0  0  0
   -3.2981    3.0742    0.8050 H   0  0  0  0  0  0  0  0  0  0  0  0
  1  2  1  0
  2  3  1  0
  3  4  1  0
  4  5  1  0
  5  6  1  0
  6  7  1  0
  7  8  1  0
  8  9  1  0
  9 10  2  0
 10 11  1  0
 11 12  2  0
 12 13  1  0
 13 14  2  0
 12 15  1  0
 15 16  1  0
 16 17  1  0
 17 18  1  0
 18 19  1  0
 19 20  1  0
 20 21  2  0
 20 22  1  0
 20 23  1  0
 17 24  1  0
 24 25  1  0
 17 26  1  0
 14  9  1  0
  1 27  1  0
  1 28  1  0
  1 29  1  0
  2 30  1  0
  2 31  1  0
  3 32  1  0
  3 33  1  0
  4 34  1  0
  4 35  1  0
  5 36  1  0
  5 37  1  0
  6 38  1  0
  6 39  1  0
  7 40  1  0
  7 41  1  0
  8 42  1  0
  8 43  1  0
 10 44  1  0
 11 45  1  0
 13 46  1  0
 14 47  1  0
 15 48  1  0
 15 49  1  0
 16 50  1  0
 16 51  1  0
 18 52  1  0
 18 53  1  0
 22 54  1  0
 23 55  1  0
 24 56  1  0
 24 57  1  0
 25 58  1  0
 26 59  1  0
 26 60  1  0
M  END
>  <Ligand ID>  (1) 
LIG0000978

>  <Ligand>  (1) 
fingolimod-phosphate

>  <SMILES>  (1) 
CCCCCCCCc1ccc(cc1)CCC(COP(=O)(O)O)(CO)N

>  <CID>  (1) 
9908268.0

>  <ChEMBL ID>  (1) 
nan

>  <InChiKey>  (1) 
LRFKWQGGENFBFO-UHFFFAOYSA-N

>  <InChi>  (1) 
InChI=1S/C19H34NO5P/c1-2-3-4-5-6-7-8-17-9-11-18(12-10-17)13-14-19(20,15-21)16-25-26(22,23)24/h9-12,21H,2-8,13-16,20H2,1H3,(H2,22,23,24)

>  <IUPAC Name>  (1) 
[2-amino-2-(hydroxymethyl)-4-(4-octylphenyl)butyl] dihydrogen phosphate

$$$$
