
     RDKit          3D

 59 61  0  0  0  0  0  0  0  0999 V2000
   -6.7057   -1.7513    1.3427 C   0  0  0  0  0  0  0  0  0  0  0  0
   -5.8722   -0.6107    0.7900 C   0  0  1  0  0  0  0  0  0  0  0  0
   -4.4472   -0.7572    1.1638 C   0  0  0  0  0  0  0  0  0  0  0  0
   -3.9345   -1.7621    1.8968 N   0  0  0  0  0  0  0  0  0  0  0  0
   -2.6160   -1.5306    2.0119 C   0  0  0  0  0  0  0  0  0  0  0  0
   -2.3544   -0.3610    1.3285 C   0  0  0  0  0  0  0  0  0  0  0  0
   -3.4966    0.1149    0.8036 N   0  0  0  0  0  0  0  0  0  0  0  0
   -1.0423    0.2596    1.1979 C   0  0  0  0  0  0  0  0  0  0  0  0
   -0.8801    1.4318    0.4934 C   0  0  0  0  0  0  0  0  0  0  0  0
    0.3559    2.0202    0.3674 C   0  0  0  0  0  0  0  0  0  0  0  0
    1.5105    1.4621    0.9458 C   0  0  0  0  0  0  0  0  0  0  0  0
    1.3180    0.2984    1.6401 C   0  0  0  0  0  0  0  0  0  0  0  0
    0.0697   -0.3107    1.7761 C   0  0  0  0  0  0  0  0  0  0  0  0
    2.6679    2.1365    0.7534 O   0  0  0  0  0  0  0  0  0  0  0  0
    3.9343    1.8339    1.1625 C   0  0  0  0  0  0  0  0  0  0  0  0
    4.4346    0.5689    0.5301 C   0  0  0  0  0  0  0  0  0  0  0  0
    4.4435    0.7385   -0.9909 C   0  0  0  0  0  0  0  0  0  0  0  0
    4.9449   -0.5506   -1.5837 C   0  0  0  0  0  0  0  0  0  0  0  0
    6.3138   -0.8393   -1.0943 C   0  0  0  0  0  0  0  0  0  0  0  0
    6.5821   -1.5781    0.0381 C   0  0  0  0  0  0  0  0  0  0  0  0
    7.8931   -1.7948    0.4160 C   0  0  0  0  0  0  0  0  0  0  0  0
    8.9432   -1.2697   -0.3428 C   0  0  0  0  0  0  0  0  0  0  0  0
    8.6857   -0.5250   -1.4838 C   0  0  0  0  0  0  0  0  0  0  0  0
    7.3662   -0.3259   -1.8354 C   0  0  0  0  0  0  0  0  0  0  0  0
   -6.0300   -0.5337   -0.7298 C   0  0  0  0  0  0  0  0  0  0  0  0
   -7.3263   -0.3401   -1.1083 O   0  0  0  0  0  0  0  0  0  0  0  0
   -7.6065   -0.2420   -2.7463 P   0  0  0  0  0  0  0  0  0  0  0  0
   -7.9338   -1.6356   -3.2472 O   0  0  0  0  0  0  0  0  0  0  0  0
   -8.9750    0.7194   -3.0987 O   0  0  0  0  0  0  0  0  0  0  0  0
   -6.3069    0.3239   -3.6509 O   0  0  0  0  0  0  0  0  0  0  0  0
   -6.3458    0.6478    1.3352 N   0  0  0  0  0  0  0  0  0  0  0  0
   -6.0499   -2.3251    2.0571 H   0  0  0  0  0  0  0  0  0  0  0  0
   -7.5496   -1.3801    1.9522 H   0  0  0  0  0  0  0  0  0  0  0  0
   -7.0056   -2.4774    0.5564 H   0  0  0  0  0  0  0  0  0  0  0  0
   -1.8994   -2.1492    2.5423 H   0  0  0  0  0  0  0  0  0  0  0  0
   -3.6379    0.9783    0.2330 H   0  0  0  0  0  0  0  0  0  0  0  0
   -1.7324    1.9006    0.0306 H   0  0  0  0  0  0  0  0  0  0  0  0
    0.4189    2.9467   -0.2024 H   0  0  0  0  0  0  0  0  0  0  0  0
    2.1283   -0.1987    2.1368 H   0  0  0  0  0  0  0  0  0  0  0  0
   -0.0355   -1.2343    2.3358 H   0  0  0  0  0  0  0  0  0  0  0  0
    4.6400    2.6733    0.8671 H   0  0  0  0  0  0  0  0  0  0  0  0
    4.0522    1.8041    2.2839 H   0  0  0  0  0  0  0  0  0  0  0  0
    3.9015   -0.3457    0.7415 H   0  0  0  0  0  0  0  0  0  0  0  0
    5.4773    0.4286    0.9042 H   0  0  0  0  0  0  0  0  0  0  0  0
    3.4286    0.9273   -1.3554 H   0  0  0  0  0  0  0  0  0  0  0  0
    5.0703    1.6144   -1.2785 H   0  0  0  0  0  0  0  0  0  0  0  0
    4.2365   -1.3424   -1.2627 H   0  0  0  0  0  0  0  0  0  0  0  0
    4.9061   -0.4621   -2.6907 H   0  0  0  0  0  0  0  0  0  0  0  0
    5.7481   -1.9784    0.6154 H   0  0  0  0  0  0  0  0  0  0  0  0
    8.0634   -2.3767    1.3064 H   0  0  0  0  0  0  0  0  0  0  0  0
    9.9661   -1.4603   -0.0153 H   0  0  0  0  0  0  0  0  0  0  0  0
    9.5133   -0.1271   -2.0578 H   0  0  0  0  0  0  0  0  0  0  0  0
    7.1780    0.2623   -2.7360 H   0  0  0  0  0  0  0  0  0  0  0  0
   -5.2848    0.1488   -1.1462 H   0  0  0  0  0  0  0  0  0  0  0  0
   -5.7352   -1.5662   -1.0777 H   0  0  0  0  0  0  0  0  0  0  0  0
   -9.3081    1.0758   -2.2210 H   0  0  0  0  0  0  0  0  0  0  0  0
   -6.0031    1.2239   -3.3900 H   0  0  0  0  0  0  0  0  0  0  0  0
   -6.2579    1.3952    0.6129 H   0  0  0  0  0  0  0  0  0  0  0  0
   -5.8197    0.9467    2.1769 H   0  0  0  0  0  0  0  0  0  0  0  0
  1  2  1  0
  2  3  1  0
  3  4  2  0
  4  5  1  0
  5  6  2  0
  6  7  1  0
  6  8  1  0
  8  9  2  0
  9 10  1  0
 10 11  2  0
 11 12  1  0
 12 13  2  0
 11 14  1  0
 14 15  1  0
 15 16  1  0
 16 17  1  0
 17 18  1  0
 18 19  1  0
 19 20  2  0
 20 21  1  0
 21 22  2  0
 22 23  1  0
 23 24  2  0
  2 25  1  0
 25 26  1  0
 26 27  1  0
 27 28  2  0
 27 29  1  0
 27 30  1  0
  2 31  1  1
  7  3  1  0
 13  8  1  0
 24 19  1  0
  1 32  1  0
  1 33  1  0
  1 34  1  0
  5 35  1  0
  7 36  1  0
  9 37  1  0
 10 38  1  0
 12 39  1  0
 13 40  1  0
 15 41  1  0
 15 42  1  0
 16 43  1  0
 16 44  1  0
 17 45  1  0
 17 46  1  0
 18 47  1  0
 18 48  1  0
 20 49  1  0
 21 50  1  0
 22 51  1  0
 23 52  1  0
 24 53  1  0
 25 54  1  0
 25 55  1  0
 29 56  1  0
 30 57  1  0
 31 58  1  0
 31 59  1  0
M  END
>  <Ligand ID>  (1) 
LIG0005105

>  <Ligand>  (1) 
CHEMBL515917

>  <SMILES>  (1) 
C[C@@](c1ncc([nH]1)c1ccc(cc1)OCCCCc1ccccc1)(COP(=O)(O)O)N

>  <CID>  (1) 
44565738.0

>  <ChEMBL ID>  (1) 
nan

>  <InChiKey>  (1) 
GTROXDSLWCVOIS-QFIPXVFZSA-N

>  <InChi>  (1) 
InChI=1S/C22H28N3O5P/c1-22(23,16-30-31(26,27)28)21-24-15-20(25-21)18-10-12-19(13-11-18)29-14-6-5-9-17-7-3-2-4-8-17/h2-4,7-8,10-13,15H,5-6,9,14,16,23H2,1H3,(H,24,25)(H2,26,27,28)/t22-/m0/s1

>  <IUPAC Name>  (1) 
[(2R)-2-amino-2-[5-[4-(4-phenylbutoxy)phenyl]-1H-imidazol-2-yl]propyl] dihydrogen phosphate

$$$$
