
     RDKit          3D

 49 52  0  0  0  0  0  0  0  0999 V2000
    1.2018   -0.6881   -1.9762 F   0  0  0  0  0  0  0  0  0  0  0  0
    0.2022   -0.7708   -1.0696 C   0  0  1  0  0  0  0  0  0  0  0  0
   -0.3908   -2.1593   -0.9536 C   0  0  0  0  0  0  0  0  0  0  0  0
   -1.3852   -1.9103    0.1949 C   0  0  1  0  0  0  0  0  0  0  0  0
   -0.5845   -1.0819    1.1257 C   0  0  1  0  0  0  0  0  0  0  0  0
    0.5105   -0.4047    0.3288 C   0  0  1  0  0  0  0  0  0  0  0  0
    1.8559   -0.8673    0.8543 C   0  0  0  0  0  0  0  0  0  0  0  0
    2.9656   -0.4819    0.3044 O   0  0  0  0  0  0  0  0  0  0  0  0
    4.0662   -0.0998   -0.2412 C   0  0  0  0  0  0  0  0  0  0  0  0
    4.4236   -0.3867   -1.5633 C   0  0  0  0  0  0  0  0  0  0  0  0
    5.6178    0.0475   -2.1074 C   0  0  0  0  0  0  0  0  0  0  0  0
    6.4626    0.7802   -1.3102 C   0  0  0  0  0  0  0  0  0  0  0  0
    6.1727    1.0971   -0.0031 C   0  0  0  0  0  0  0  0  0  0  0  0
    4.9924    0.6594    0.5124 C   0  0  0  0  0  0  0  0  0  0  0  0
    7.0925    1.8959    0.8619 C   0  0  0  0  0  0  0  0  0  0  0  0
    7.9669    1.3324   -1.9813 Cl  0  0  0  0  0  0  0  0  0  0  0  0
   -1.3069   -0.0649    1.9231 C   0  0  0  0  0  0  0  0  0  0  0  0
   -2.8113   -0.3289    1.7650 C   0  0  0  0  0  0  0  0  0  0  0  0
   -3.0106   -0.2550    0.2586 C   0  0  1  0  0  0  0  0  0  0  0  0
   -2.5000   -1.3774   -0.3409 O   0  0  0  0  0  0  0  0  0  0  0  0
   -4.4284   -0.0556   -0.0155 C   0  0  0  0  0  0  0  0  0  0  0  0
   -5.7139   -1.3521    0.0704 S   0  0  0  0  0  0  0  0  0  0  0  0
   -7.0644   -0.2362   -0.4115 C   0  0  0  0  0  0  0  0  0  0  0  0
   -6.3735    0.9993   -0.5817 C   0  0  0  0  0  0  0  0  0  0  0  0
   -5.1168    0.9809   -0.3688 N   0  0  0  0  0  0  0  0  0  0  0  0
   -7.1403    2.2045   -0.9894 C   0  0  0  0  0  0  0  0  0  0  0  0
   -6.5603    3.3194   -1.1503 O   0  0  0  0  0  0  0  0  0  0  0  0
   -8.5002    2.1614   -1.2075 O   0  0  0  0  0  0  0  0  0  0  0  0
   -0.6303   -0.1183   -1.4239 H   0  0  0  0  0  0  0  0  0  0  0  0
   -0.9014   -2.4036   -1.8846 H   0  0  0  0  0  0  0  0  0  0  0  0
    0.3402   -2.9304   -0.7120 H   0  0  0  0  0  0  0  0  0  0  0  0
   -1.6080   -2.9118    0.6057 H   0  0  0  0  0  0  0  0  0  0  0  0
   -0.1104   -1.7851    1.8713 H   0  0  0  0  0  0  0  0  0  0  0  0
    0.4738    0.7130    0.5044 H   0  0  0  0  0  0  0  0  0  0  0  0
    1.8412   -1.9944    0.9847 H   0  0  0  0  0  0  0  0  0  0  0  0
    1.8218   -0.5339    1.9554 H   0  0  0  0  0  0  0  0  0  0  0  0
    3.7935   -0.9666   -2.2217 H   0  0  0  0  0  0  0  0  0  0  0  0
    5.8980   -0.1779   -3.1436 H   0  0  0  0  0  0  0  0  0  0  0  0
    4.7394    0.8954    1.5438 H   0  0  0  0  0  0  0  0  0  0  0  0
    6.4965    2.5799    1.5094 H   0  0  0  0  0  0  0  0  0  0  0  0
    7.7738    2.4388    0.1867 H   0  0  0  0  0  0  0  0  0  0  0  0
    7.6506    1.1502    1.4652 H   0  0  0  0  0  0  0  0  0  0  0  0
   -1.1603    0.9531    1.4750 H   0  0  0  0  0  0  0  0  0  0  0  0
   -1.0380   -0.0417    2.9852 H   0  0  0  0  0  0  0  0  0  0  0  0
   -2.9756   -1.3879    2.0683 H   0  0  0  0  0  0  0  0  0  0  0  0
   -3.4200    0.3958    2.3225 H   0  0  0  0  0  0  0  0  0  0  0  0
   -2.4795    0.6342   -0.1384 H   0  0  0  0  0  0  0  0  0  0  0  0
   -8.0615   -0.4686   -0.5232 H   0  0  0  0  0  0  0  0  0  0  0  0
   -9.0873    3.0028   -1.1332 H   0  0  0  0  0  0  0  0  0  0  0  0
  1  2  1  0
  2  3  1  0
  3  4  1  0
  4  5  1  0
  5  6  1  0
  6  7  1  0
  7  8  1  0
  8  9  1  0
  9 10  2  0
 10 11  1  0
 11 12  2  0
 12 13  1  0
 13 14  2  0
 13 15  1  0
 12 16  1  0
  5 17  1  0
 17 18  1  0
 18 19  1  0
 19 20  1  0
 19 21  1  0
 21 22  1  0
 22 23  1  0
 23 24  2  0
 24 25  1  0
 24 26  1  0
 26 27  2  0
 26 28  1  0
  6  2  1  0
 14  9  1  0
 25 21  2  0
 20  4  1  0
  2 29  1  6
  3 30  1  0
  3 31  1  0
  4 32  1  1
  5 33  1  1
  6 34  1  6
  7 35  1  0
  7 36  1  0
 10 37  1  0
 11 38  1  0
 14 39  1  0
 15 40  1  0
 15 41  1  0
 15 42  1  0
 17 43  1  0
 17 44  1  0
 18 45  1  0
 18 46  1  0
 19 47  1  6
 23 48  1  0
 28 49  1  0
M  END
>  <Ligand ID>  (1) 
LIG0000935

>  <Ligand>  (1) 
CHEMBL3793167

>  <SMILES>  (1) 
F[C@H]1C[C@H]2[C@@H]([C@H]1COc1ccc(c(c1)C)Cl)CC[C@@H](O2)c1scc(n1)C(=O)O

>  <CID>  (1) 
126495507.0

>  <ChEMBL ID>  (1) 
nan

>  <InChiKey>  (1) 
VXRQUUAMYQLEKO-OGSMBTDCSA-N

>  <InChi>  (1) 
InChI=1S/C20H21ClFNO4S/c1-10-6-11(2-4-14(10)21)26-8-13-12-3-5-17(27-18(12)7-15(13)22)19-23-16(9-28-19)20(24)25/h2,4,6,9,12-13,15,17-18H,3,5,7-8H2,1H3,(H,24,25)/t12-,13-,15+,17-,18+/m1/s1

>  <IUPAC Name>  (1) 
2-[(2R,4aR,5S,6S,7aS)-5-[(4-chloro-3-methylphenoxy)methyl]-6-fluoro-2,3,4,4a,5,6,7,7a-octahydrocyclopenta[b]pyran-2-yl]-1,3-thiazole-4-carboxylic acid

$$$$
