
     RDKit          3D

 60 63  0  0  0  0  0  0  0  0999 V2000
   -4.9194    2.2827   -2.2076 C   0  0  0  0  0  0  0  0  0  0  0  0
   -5.3408    0.9775   -1.5658 C   0  0  0  0  0  0  0  0  0  0  0  0
   -4.6509    0.9148   -0.2252 C   0  0  0  0  0  0  0  0  0  0  0  0
   -3.1716    0.9540   -0.3639 C   0  0  0  0  0  0  0  0  0  0  0  0
   -2.5911    1.9215   -0.9588 O   0  0  0  0  0  0  0  0  0  0  0  0
   -2.5805   -0.1913    0.2397 N   0  0  0  0  0  0  0  0  0  0  0  0
   -3.6643   -0.9712    0.7677 C   0  0  0  0  0  0  0  0  0  0  0  0
   -4.8666   -0.3430    0.5057 C   0  0  0  0  0  0  0  0  0  0  0  0
   -6.0518   -0.9185    0.9257 C   0  0  0  0  0  0  0  0  0  0  0  0
   -6.0192   -2.1160    1.6028 C   0  0  0  0  0  0  0  0  0  0  0  0
   -4.8460   -2.7736    1.8838 C   0  0  0  0  0  0  0  0  0  0  0  0
   -3.6615   -2.1819    1.4547 C   0  0  0  0  0  0  0  0  0  0  0  0
   -1.1689   -0.4490    0.2749 C   0  0  0  0  0  0  0  0  0  0  0  0
   -0.6507   -0.7149   -1.1190 C   0  0  0  0  0  0  0  0  0  0  0  0
    0.8411   -0.8392   -1.1599 C   0  0  0  0  0  0  0  0  0  0  0  0
    1.4486    0.2913   -0.5975 N   0  0  0  0  0  0  0  0  0  0  0  0
    0.6575    1.1856    0.1569 C   0  0  0  0  0  0  0  0  0  0  0  0
   -0.3846    0.5598    1.0426 C   0  0  0  0  0  0  0  0  0  0  0  0
    2.8290    0.1970   -0.2076 C   0  0  0  0  0  0  0  0  0  0  0  0
    3.6007   -0.1378   -1.4590 C   0  0  0  0  0  0  0  0  0  0  0  0
    5.0360   -0.4742   -1.2208 C   0  0  0  0  0  0  0  0  0  0  0  0
    5.7823    0.6890   -0.5886 C   0  0  0  0  0  0  0  0  0  0  0  0
    6.0622    0.2765    0.8463 C   0  0  0  0  0  0  0  0  0  0  0  0
    4.9585    0.8672    1.7003 C   0  0  0  0  0  0  0  0  0  0  0  0
    3.8957   -0.1115    2.0586 C   0  0  0  0  0  0  0  0  0  0  0  0
    3.1177   -0.6957    0.9394 C   0  0  0  0  0  0  0  0  0  0  0  0
   -5.7571    2.7392   -2.7788 H   0  0  0  0  0  0  0  0  0  0  0  0
   -4.0152    2.1366   -2.8464 H   0  0  0  0  0  0  0  0  0  0  0  0
   -4.5976    3.0386   -1.4359 H   0  0  0  0  0  0  0  0  0  0  0  0
   -4.9539    0.1732   -2.2098 H   0  0  0  0  0  0  0  0  0  0  0  0
   -6.4184    0.8892   -1.4383 H   0  0  0  0  0  0  0  0  0  0  0  0
   -4.9510    1.7584    0.4245 H   0  0  0  0  0  0  0  0  0  0  0  0
   -7.0261   -0.4579    0.7409 H   0  0  0  0  0  0  0  0  0  0  0  0
   -6.9664   -2.5637    1.9315 H   0  0  0  0  0  0  0  0  0  0  0  0
   -4.8660   -3.7154    2.4199 H   0  0  0  0  0  0  0  0  0  0  0  0
   -2.7418   -2.6917    1.6717 H   0  0  0  0  0  0  0  0  0  0  0  0
   -1.0464   -1.4301    0.8222 H   0  0  0  0  0  0  0  0  0  0  0  0
   -1.0403    0.0070   -1.8680 H   0  0  0  0  0  0  0  0  0  0  0  0
   -1.0536   -1.7217   -1.4349 H   0  0  0  0  0  0  0  0  0  0  0  0
    1.1300   -1.8235   -0.7685 H   0  0  0  0  0  0  0  0  0  0  0  0
    1.1103   -0.8674   -2.2573 H   0  0  0  0  0  0  0  0  0  0  0  0
    1.3354    1.8662    0.7219 H   0  0  0  0  0  0  0  0  0  0  0  0
    0.1284    1.8539   -0.5568 H   0  0  0  0  0  0  0  0  0  0  0  0
    0.1294    0.1389    1.9354 H   0  0  0  0  0  0  0  0  0  0  0  0
   -1.0040    1.3871    1.4493 H   0  0  0  0  0  0  0  0  0  0  0  0
    3.0765    1.2421    0.1171 H   0  0  0  0  0  0  0  0  0  0  0  0
    3.1324   -0.9769   -2.0135 H   0  0  0  0  0  0  0  0  0  0  0  0
    3.5560    0.7521   -2.1204 H   0  0  0  0  0  0  0  0  0  0  0  0
    5.4924   -0.6210   -2.2231 H   0  0  0  0  0  0  0  0  0  0  0  0
    5.2103   -1.4002   -0.6774 H   0  0  0  0  0  0  0  0  0  0  0  0
    6.7150    0.9339   -1.1342 H   0  0  0  0  0  0  0  0  0  0  0  0
    5.1267    1.5610   -0.6119 H   0  0  0  0  0  0  0  0  0  0  0  0
    7.0451    0.7469    1.0916 H   0  0  0  0  0  0  0  0  0  0  0  0
    6.0878   -0.8189    0.9650 H   0  0  0  0  0  0  0  0  0  0  0  0
    5.4709    1.1249    2.6641 H   0  0  0  0  0  0  0  0  0  0  0  0
    4.6410    1.8252    1.2927 H   0  0  0  0  0  0  0  0  0  0  0  0
    4.4094   -0.9471    2.5948 H   0  0  0  0  0  0  0  0  0  0  0  0
    3.2614    0.3668    2.8354 H   0  0  0  0  0  0  0  0  0  0  0  0
    2.1409   -1.0346    1.3548 H   0  0  0  0  0  0  0  0  0  0  0  0
    3.5770   -1.6701    0.5952 H   0  0  0  0  0  0  0  0  0  0  0  0
  1  2  1  0
  2  3  1  0
  3  4  1  0
  4  5  2  0
  4  6  1  0
  6  7  1  0
  7  8  2  0
  8  9  1  0
  9 10  2  0
 10 11  1  0
 11 12  2  0
  6 13  1  0
 13 14  1  0
 14 15  1  0
 15 16  1  0
 16 17  1  0
 17 18  1  0
 16 19  1  0
 19 20  1  0
 20 21  1  0
 21 22  1  0
 22 23  1  0
 23 24  1  0
 24 25  1  0
 25 26  1  0
  8  3  1  0
 18 13  1  0
 26 19  1  0
 12  7  1  0
  1 27  1  0
  1 28  1  0
  1 29  1  0
  2 30  1  0
  2 31  1  0
  3 32  1  0
  9 33  1  0
 10 34  1  0
 11 35  1  0
 12 36  1  0
 13 37  1  0
 14 38  1  0
 14 39  1  0
 15 40  1  0
 15 41  1  0
 17 42  1  0
 17 43  1  0
 18 44  1  0
 18 45  1  0
 19 46  1  0
 20 47  1  0
 20 48  1  0
 21 49  1  0
 21 50  1  0
 22 51  1  0
 22 52  1  0
 23 53  1  0
 23 54  1  0
 24 55  1  0
 24 56  1  0
 25 57  1  0
 25 58  1  0
 26 59  1  0
 26 60  1  0
M  END
>  <Ligand ID>  (1) 
LIG0004129

>  <Ligand>  (1) 
CHEMBL2387197

>  <SMILES>  (1) 
CCC1C(=O)N(c2c1cccc2)C1CCN(CC1)C1CCCCCCC1

>  <CID>  (1) 
71624388.0

>  <ChEMBL ID>  (1) 
nan

>  <InChiKey>  (1) 
KGUVKPUXAPIJSW-UHFFFAOYSA-N

>  <InChi>  (1) 
InChI=1S/C23H34N2O/c1-2-20-21-12-8-9-13-22(21)25(23(20)26)19-14-16-24(17-15-19)18-10-6-4-3-5-7-11-18/h8-9,12-13,18-20H,2-7,10-11,14-17H2,1H3

>  <IUPAC Name>  (1) 
1-(1-cyclooctylpiperidin-4-yl)-3-ethyl-3H-indol-2-one

$$$$
