
     RDKit          3D

 40 39  0  0  0  0  0  0  0  0999 V2000
    0.1341    2.5065    1.9670 O   0  0  0  0  0  0  0  0  0  0  0  0
   -1.1904    2.2208    1.6626 C   0  0  0  0  0  0  0  0  0  0  0  0
   -2.0805    3.0063    2.1316 O   0  0  0  0  0  0  0  0  0  0  0  0
   -1.6104    1.0673    0.8337 C   0  0  1  0  0  0  0  0  0  0  0  0
   -2.3614    1.5049   -0.4070 C   0  0  0  0  0  0  0  0  0  0  0  0
   -2.1629    0.3060   -1.3114 C   0  0  2  0  0  0  0  0  0  0  0  0
   -0.8643   -0.3455   -0.8851 C   0  0  0  0  0  0  0  0  0  0  0  0
   -0.5876    0.2556    0.3595 N   0  0  0  0  0  0  0  0  0  0  0  0
    0.2793   -0.3862    1.2497 C   0  0  0  0  0  0  0  0  0  0  0  0
    1.6581   -0.6385    0.7968 C   0  0  0  0  0  0  0  0  0  0  0  0
    1.9323   -1.8436    0.1440 C   0  0  0  0  0  0  0  0  0  0  0  0
    3.1998   -2.1493   -0.3081 C   0  0  0  0  0  0  0  0  0  0  0  0
    4.2087   -1.2566   -0.1144 C   0  0  0  0  0  0  0  0  0  0  0  0
    3.9388   -0.0763    0.5253 C   0  0  0  0  0  0  0  0  0  0  0  0
    2.6869    0.2625    0.9897 C   0  0  0  0  0  0  0  0  0  0  0  0
    5.5078   -1.5006   -0.5440 O   0  0  0  0  0  0  0  0  0  0  0  0
   -2.1410    0.6900   -2.7077 N   0  0  0  0  0  0  0  0  0  0  0  0
   -3.2799   -0.6322   -1.0238 C   0  0  0  0  0  0  0  0  0  0  0  0
   -3.5075   -1.1089    0.1178 O   0  0  0  0  0  0  0  0  0  0  0  0
   -4.1416   -1.0283   -2.0452 O   0  0  0  0  0  0  0  0  0  0  0  0
    0.6910    0.0000    0.0000 Cl  0  0  0  0  0  0  0  0  0  0  0  0
    0.6838    0.0000    0.0000 Cl  0  0  0  0  0  0  0  0  0  0  0  0
    0.4107    2.9566    2.8450 H   0  0  0  0  0  0  0  0  0  0  0  0
   -2.3368    0.4373    1.4211 H   0  0  0  0  0  0  0  0  0  0  0  0
   -1.9249    2.4348   -0.8466 H   0  0  0  0  0  0  0  0  0  0  0  0
   -3.4483    1.6679   -0.1853 H   0  0  0  0  0  0  0  0  0  0  0  0
   -0.0955   -0.3128   -1.6547 H   0  0  0  0  0  0  0  0  0  0  0  0
   -1.0355   -1.4468   -0.6973 H   0  0  0  0  0  0  0  0  0  0  0  0
    0.2952    0.1870    2.2008 H   0  0  0  0  0  0  0  0  0  0  0  0
   -0.1603   -1.3720    1.5225 H   0  0  0  0  0  0  0  0  0  0  0  0
    1.1483   -2.5682   -0.0216 H   0  0  0  0  0  0  0  0  0  0  0  0
    3.3957   -3.0978   -0.8172 H   0  0  0  0  0  0  0  0  0  0  0  0
    4.7317    0.6660    0.6973 H   0  0  0  0  0  0  0  0  0  0  0  0
    2.5071    1.2021    1.4906 H   0  0  0  0  0  0  0  0  0  0  0  0
    6.3118   -1.0321   -0.1280 H   0  0  0  0  0  0  0  0  0  0  0  0
   -1.2950    0.3617   -3.2214 H   0  0  0  0  0  0  0  0  0  0  0  0
   -3.0066    0.3594   -3.1611 H   0  0  0  0  0  0  0  0  0  0  0  0
   -5.1157   -1.2969   -1.8433 H   0  0  0  0  0  0  0  0  0  0  0  0
   -0.6910    0.0000    0.0000 H   0  0  0  0  0  0  0  0  0  0  0  0
   -0.6838    0.0000    0.0000 H   0  0  0  0  0  0  0  0  0  0  0  0
  1  2  1  0
  2  3  2  0
  2  4  1  0
  4  5  1  0
  5  6  1  0
  6  7  1  0
  7  8  1  0
  8  9  1  0
  9 10  1  0
 10 11  2  0
 11 12  1  0
 12 13  2  0
 13 14  1  0
 14 15  2  0
 13 16  1  0
  6 17  1  6
  6 18  1  0
 18 19  2  0
 18 20  1  0
  8  4  1  0
 15 10  1  0
  1 23  1  0
  4 24  1  1
  5 25  1  0
  5 26  1  0
  7 27  1  0
  7 28  1  0
  9 29  1  0
  9 30  1  0
 11 31  1  0
 12 32  1  0
 14 33  1  0
 15 34  1  0
 16 35  1  0
 17 36  1  0
 17 37  1  0
 20 38  1  0
 21 39  1  0
 22 40  1  0
M  END
>  <Ligand ID>  (1) 
LIG0002408

>  <Ligand>  (1) 
CHEMBL543568

>  <SMILES>  (1) 
OC(=O)[C@H]1C[C@](CN1Cc1ccc(cc1)O)(N)C(=O)O.Cl.Cl

>  <CID>  (1) 
45260391.0

>  <ChEMBL ID>  (1) 
nan

>  <InChiKey>  (1) 
UIFOPYAHOAZBTB-OWVUFADGSA-N

>  <InChi>  (1) 
InChI=1S/C13H16N2O5.2ClH/c14-13(12(19)20)5-10(11(17)18)15(7-13)6-8-1-3-9(16)4-2-8;;/h1-4,10,16H,5-7,14H2,(H,17,18)(H,19,20);2*1H/t10-,13-;;/m1../s1

>  <IUPAC Name>  (1) 
(2R,4R)-4-amino-1-[(4-hydroxyphenyl)methyl]pyrrolidine-2,4-dicarboxylic acid;dihydrochloride

$$$$
