
     RDKit          3D

 54 56  0  0  0  0  0  0  0  0999 V2000
    6.1648    1.3905   -1.1506 O   0  0  0  0  0  0  0  0  0  0  0  0
    5.5334    0.5528   -0.2469 C   0  0  0  0  0  0  0  0  0  0  0  0
    5.9839   -0.5921    0.0027 O   0  0  0  0  0  0  0  0  0  0  0  0
    4.2998    1.0822    0.4071 C   0  0  0  0  0  0  0  0  0  0  0  0
    3.6786    0.1213    1.3663 C   0  0  0  0  0  0  0  0  0  0  0  0
    2.4196    0.6739    2.0173 C   0  0  0  0  0  0  0  0  0  0  0  0
    1.7965   -0.2554    2.9687 C   0  0  0  0  0  0  0  0  0  0  0  0
    1.2893   -1.5776    2.5415 C   0  0  0  0  0  0  0  0  0  0  0  0
    0.1729   -1.7133    1.6161 C   0  0  0  0  0  0  0  0  0  0  0  0
    0.1951   -1.2305    0.2147 C   0  0  1  0  0  0  0  0  0  0  0  0
    1.2534   -1.8496   -0.6326 C   0  0  2  0  0  0  0  0  0  0  0  0
    2.0457   -0.6610   -1.7004 Cl  0  0  0  0  0  0  0  0  0  0  0  0
    0.5115   -2.7899   -1.5930 C   0  0  0  0  0  0  0  0  0  0  0  0
   -0.8105   -2.0578   -1.7936 C   0  0  2  0  0  0  0  0  0  0  0  0
   -1.1089   -1.6370   -0.4060 C   0  0  2  0  0  0  0  0  0  0  0  0
   -2.1400   -0.5758   -0.3180 C   0  0  0  0  0  0  0  0  0  0  0  0
   -3.3000   -0.8610    0.3743 C   0  0  0  0  0  0  0  0  0  0  0  0
   -4.2432    0.1454    0.4404 C   0  0  0  0  0  0  0  0  0  0  0  0
   -4.0334    1.3711   -0.1560 C   0  0  0  0  0  0  0  0  0  0  0  0
   -2.8509    1.6410   -0.8534 C   0  0  0  0  0  0  0  0  0  0  0  0
   -1.9206    0.6272   -0.9101 C   0  0  0  0  0  0  0  0  0  0  0  0
   -2.8884    3.0232   -1.3894 C   0  0  0  0  0  0  0  0  0  0  0  0
   -4.0266    3.7001   -0.6733 C   0  0  0  0  0  0  0  0  0  0  0  0
   -4.9162    2.5682   -0.1965 C   0  0  0  0  0  0  0  0  0  0  0  0
   -1.8088   -2.9480   -2.1922 O   0  0  0  0  0  0  0  0  0  0  0  0
    7.0813    1.1701   -1.5364 H   0  0  0  0  0  0  0  0  0  0  0  0
    4.6477    1.9783    0.9881 H   0  0  0  0  0  0  0  0  0  0  0  0
    3.6433    1.4668   -0.3777 H   0  0  0  0  0  0  0  0  0  0  0  0
    3.4927   -0.8391    0.8748 H   0  0  0  0  0  0  0  0  0  0  0  0
    4.4297   -0.1029    2.1678 H   0  0  0  0  0  0  0  0  0  0  0  0
    2.7683    1.6011    2.6063 H   0  0  0  0  0  0  0  0  0  0  0  0
    1.7574    1.0776    1.2573 H   0  0  0  0  0  0  0  0  0  0  0  0
    0.9347    0.2697    3.4806 H   0  0  0  0  0  0  0  0  0  0  0  0
    2.5313   -0.3730    3.8461 H   0  0  0  0  0  0  0  0  0  0  0  0
    0.9361   -2.0755    3.5197 H   0  0  0  0  0  0  0  0  0  0  0  0
    2.1576   -2.2738    2.2859 H   0  0  0  0  0  0  0  0  0  0  0  0
   -0.2578   -2.7616    1.6006 H   0  0  0  0  0  0  0  0  0  0  0  0
   -0.7052   -1.1402    2.0934 H   0  0  0  0  0  0  0  0  0  0  0  0
    0.2208   -0.1088    0.1369 H   0  0  0  0  0  0  0  0  0  0  0  0
    1.9504   -2.4159   -0.0053 H   0  0  0  0  0  0  0  0  0  0  0  0
    1.0115   -2.8322   -2.5763 H   0  0  0  0  0  0  0  0  0  0  0  0
    0.3739   -3.7928   -1.2007 H   0  0  0  0  0  0  0  0  0  0  0  0
   -0.6964   -1.2219   -2.5072 H   0  0  0  0  0  0  0  0  0  0  0  0
   -1.4657   -2.5603    0.1429 H   0  0  0  0  0  0  0  0  0  0  0  0
   -3.4478   -1.8276    0.8359 H   0  0  0  0  0  0  0  0  0  0  0  0
   -5.1523   -0.0907    0.9881 H   0  0  0  0  0  0  0  0  0  0  0  0
   -1.0072    0.8217   -1.4432 H   0  0  0  0  0  0  0  0  0  0  0  0
   -1.9633    3.6009   -1.1873 H   0  0  0  0  0  0  0  0  0  0  0  0
   -3.0383    3.0310   -2.4886 H   0  0  0  0  0  0  0  0  0  0  0  0
   -4.5953    4.3624   -1.3525 H   0  0  0  0  0  0  0  0  0  0  0  0
   -3.6618    4.3001    0.1861 H   0  0  0  0  0  0  0  0  0  0  0  0
   -5.2842    2.8614    0.8221 H   0  0  0  0  0  0  0  0  0  0  0  0
   -5.8148    2.4341   -0.8042 H   0  0  0  0  0  0  0  0  0  0  0  0
   -2.1436   -2.7069   -3.1013 H   0  0  0  0  0  0  0  0  0  0  0  0
  1  2  1  0
  2  3  2  0
  2  4  1  0
  4  5  1  0
  5  6  1  0
  6  7  1  0
  7  8  1  0
  8  9  1  0
  9 10  1  0
 10 11  1  0
 11 12  1  0
 11 13  1  0
 13 14  1  0
 14 15  1  0
 15 16  1  0
 16 17  2  0
 17 18  1  0
 18 19  2  0
 19 20  1  0
 20 21  2  0
 20 22  1  0
 22 23  1  0
 23 24  1  0
 14 25  1  0
 15 10  1  0
 21 16  1  0
 24 19  1  0
  1 26  1  0
  4 27  1  0
  4 28  1  0
  5 29  1  0
  5 30  1  0
  6 31  1  0
  6 32  1  0
  7 33  1  0
  7 34  1  0
  8 35  1  0
  8 36  1  0
  9 37  1  0
  9 38  1  0
 10 39  1  1
 11 40  1  1
 13 41  1  0
 13 42  1  0
 14 43  1  6
 15 44  1  1
 17 45  1  0
 18 46  1  0
 21 47  1  0
 22 48  1  0
 22 49  1  0
 23 50  1  0
 23 51  1  0
 24 52  1  0
 24 53  1  0
 25 54  1  0
M  END
>  <Ligand ID>  (1) 
LIG0003003

>  <Ligand>  (1) 
SCHEMBL5208850

>  <SMILES>  (1) 
OC(=O)CCCCCC[C@H]1[C@H](Cl)C[C@H]([C@@H]1c1ccc2c(c1)CCC2)O

>  <CID>  (1) 
11955358.0

>  <ChEMBL ID>  (1) 
nan

>  <InChiKey>  (1) 
AMMUDLZBSSMGFI-QEUVDIPISA-N

>  <InChi>  (1) 
InChI=1S/C21H29ClO3/c22-18-13-19(23)21(16-11-10-14-6-5-7-15(14)12-16)17(18)8-3-1-2-4-9-20(24)25/h10-12,17-19,21,23H,1-9,13H2,(H,24,25)/t17-,18+,19+,21+/m0/s1

>  <IUPAC Name>  (1) 
7-[(1R,2S,3R,5R)-5-chloro-2-(2,3-dihydro-1H-inden-5-yl)-3-hydroxycyclopentyl]heptanoic acid

$$$$
