
     RDKit          3D

 51 53  0  0  0  0  0  0  0  0999 V2000
   -0.7516    2.0661    0.9626 C   0  0  0  0  0  0  0  0  0  0  0  0
   -0.9961    0.5428    1.0022 C   0  0  2  0  0  0  0  0  0  0  0  0
   -0.7538    0.0555   -0.3880 C   0  0  0  0  0  0  0  0  0  0  0  0
    0.5563    0.2877   -0.9085 N   0  0  0  0  0  0  0  0  0  0  0  0
    1.7491   -0.3214   -0.4705 C   0  0  0  0  0  0  0  0  0  0  0  0
    1.8233   -1.2805    0.5153 C   0  0  0  0  0  0  0  0  0  0  0  0
    3.0229   -1.8473    0.9272 C   0  0  0  0  0  0  0  0  0  0  0  0
    4.2173   -1.4660    0.3539 C   0  0  0  0  0  0  0  0  0  0  0  0
    4.1674   -0.5073   -0.6357 C   0  0  0  0  0  0  0  0  0  0  0  0
    2.9742    0.0498   -1.0382 C   0  0  0  0  0  0  0  0  0  0  0  0
    5.3938   -0.0497   -1.2934 C   0  0  0  0  0  0  0  0  0  0  0  0
    5.5116    0.8595   -2.2544 O   0  0  0  0  0  0  0  0  0  0  0  0
    6.7957    0.9781   -2.5690 C   0  0  0  0  0  0  0  0  0  0  0  0
    7.5379    0.1178   -1.7869 C   0  0  0  0  0  0  0  0  0  0  0  0
    6.6427   -0.5098   -1.0023 N   0  0  0  0  0  0  0  0  0  0  0  0
    8.9827   -0.0846   -1.7925 C   0  0  0  0  0  0  0  0  0  0  0  0
    9.7100    0.5711   -2.5812 O   0  0  0  0  0  0  0  0  0  0  0  0
    9.5442   -1.0056   -0.9207 O   0  0  0  0  0  0  0  0  0  0  0  0
   -2.4256    0.4234    1.2823 N   0  0  0  0  0  0  0  0  0  0  0  0
   -2.8906   -0.9209    1.3836 C   0  0  0  0  0  0  0  0  0  0  0  0
   -4.3403   -0.9547    1.7024 C   0  0  1  0  0  0  0  0  0  0  0  0
   -5.2252   -0.2014    0.8122 C   0  0  0  0  0  0  0  0  0  0  0  0
   -4.8583    0.5628   -0.2540 C   0  0  0  0  0  0  0  0  0  0  0  0
   -5.7823    1.2500   -1.0368 C   0  0  0  0  0  0  0  0  0  0  0  0
   -7.1274    1.1791   -0.7545 C   0  0  0  0  0  0  0  0  0  0  0  0
   -7.5085    0.4121    0.3169 C   0  0  0  0  0  0  0  0  0  0  0  0
   -6.5950   -0.2655    1.0887 C   0  0  0  0  0  0  0  0  0  0  0  0
   -9.2050    0.3081    0.6922 Cl  0  0  0  0  0  0  0  0  0  0  0  0
   -4.8193   -2.2848    1.8360 O   0  0  0  0  0  0  0  0  0  0  0  0
    0.0288    2.3098    0.2387 H   0  0  0  0  0  0  0  0  0  0  0  0
   -1.6701    2.6025    0.6299 H   0  0  0  0  0  0  0  0  0  0  0  0
   -0.5120    2.4538    1.9606 H   0  0  0  0  0  0  0  0  0  0  0  0
   -0.4062    0.0958    1.7963 H   0  0  0  0  0  0  0  0  0  0  0  0
   -1.0045   -1.0493   -0.4543 H   0  0  0  0  0  0  0  0  0  0  0  0
   -1.5011    0.5364   -1.0384 H   0  0  0  0  0  0  0  0  0  0  0  0
    0.6456    0.9812   -1.6961 H   0  0  0  0  0  0  0  0  0  0  0  0
    0.9402   -1.6344    0.9997 H   0  0  0  0  0  0  0  0  0  0  0  0
    3.0414   -2.5986    1.7057 H   0  0  0  0  0  0  0  0  0  0  0  0
    5.1496   -1.9047    0.6723 H   0  0  0  0  0  0  0  0  0  0  0  0
    2.9871    0.8066   -1.8272 H   0  0  0  0  0  0  0  0  0  0  0  0
    7.2076    1.6474   -3.3249 H   0  0  0  0  0  0  0  0  0  0  0  0
   10.4819   -1.4038   -1.0856 H   0  0  0  0  0  0  0  0  0  0  0  0
   -2.7316    0.9585    2.1114 H   0  0  0  0  0  0  0  0  0  0  0  0
   -2.7490   -1.5089    0.4487 H   0  0  0  0  0  0  0  0  0  0  0  0
   -2.3659   -1.4793    2.2124 H   0  0  0  0  0  0  0  0  0  0  0  0
   -4.4971   -0.5274    2.7357 H   0  0  0  0  0  0  0  0  0  0  0  0
   -3.8362    0.6582   -0.5339 H   0  0  0  0  0  0  0  0  0  0  0  0
   -5.4545    1.8477   -1.8762 H   0  0  0  0  0  0  0  0  0  0  0  0
   -7.8794    1.6997   -1.3404 H   0  0  0  0  0  0  0  0  0  0  0  0
   -6.9681   -0.8442    1.9092 H   0  0  0  0  0  0  0  0  0  0  0  0
   -4.2569   -2.6664    2.5677 H   0  0  0  0  0  0  0  0  0  0  0  0
  1  2  1  0
  2  3  1  0
  3  4  1  0
  4  5  1  0
  5  6  2  0
  6  7  1  0
  7  8  2  0
  8  9  1  0
  9 10  2  0
  9 11  1  0
 11 12  1  0
 12 13  1  0
 13 14  2  0
 14 15  1  0
 14 16  1  0
 16 17  2  0
 16 18  1  0
  2 19  1  0
 19 20  1  0
 20 21  1  0
 21 22  1  0
 22 23  2  0
 23 24  1  0
 24 25  2  0
 25 26  1  0
 26 27  2  0
 26 28  1  0
 21 29  1  0
 10  5  1  0
 15 11  2  0
 27 22  1  0
  1 30  1  0
  1 31  1  0
  1 32  1  0
  2 33  1  1
  3 34  1  0
  3 35  1  0
  4 36  1  0
  6 37  1  0
  7 38  1  0
  8 39  1  0
 10 40  1  0
 13 41  1  0
 18 42  1  0
 19 43  1  0
 20 44  1  0
 20 45  1  0
 21 46  1  1
 23 47  1  0
 24 48  1  0
 25 49  1  0
 27 50  1  0
 29 51  1  0
M  END
>  <Ligand ID>  (1) 
LIG0002259

>  <Ligand>  (1) 
CHEMBL393469

>  <SMILES>  (1) 
C[C@H](CNc1cccc(c1)c1occ(n1)C(=O)O)NC[C@@H](c1cccc(c1)Cl)O

>  <CID>  (1) 
44441227.0

>  <ChEMBL ID>  (1) 
nan

>  <InChiKey>  (1) 
RCWIRHZWEKBMHH-YJYMSZOUSA-N

>  <InChi>  (1) 
InChI=1S/C21H22ClN3O4/c1-13(23-11-19(26)14-4-2-6-16(22)8-14)10-24-17-7-3-5-15(9-17)20-25-18(12-29-20)21(27)28/h2-9,12-13,19,23-24,26H,10-11H2,1H3,(H,27,28)/t13-,19+/m1/s1

>  <IUPAC Name>  (1) 
2-[3-[[(2R)-2-[[(2R)-2-(3-chlorophenyl)-2-hydroxyethyl]amino]propyl]amino]phenyl]-1,3-oxazole-4-carboxylic acid

$$$$
