
     RDKit          3D

 59 63  0  0  0  0  0  0  0  0999 V2000
   -7.9016   -1.8000    1.2608 O   0  0  0  0  0  0  0  0  0  0  0  0
   -6.6494   -1.5428    0.7721 C   0  0  0  0  0  0  0  0  0  0  0  0
   -6.2986   -1.9791   -0.4970 C   0  0  0  0  0  0  0  0  0  0  0  0
   -5.0399   -1.7187   -0.9837 C   0  0  0  0  0  0  0  0  0  0  0  0
   -4.1538   -1.0279   -0.1959 C   0  0  0  0  0  0  0  0  0  0  0  0
   -4.4967   -0.5926    1.0647 C   0  0  0  0  0  0  0  0  0  0  0  0
   -5.7600   -0.8562    1.5479 C   0  0  0  0  0  0  0  0  0  0  0  0
   -2.8036   -0.7402   -0.7012 C   0  0  0  0  0  0  0  0  0  0  0  0
   -2.7344    0.5986   -1.4518 C   0  0  1  0  0  0  0  0  0  0  0  0
   -1.3429    0.7556   -1.8922 C   0  0  0  0  0  0  0  0  0  0  0  0
   -1.0933    0.5888   -3.1154 O   0  0  0  0  0  0  0  0  0  0  0  0
   -0.2651    1.0858   -1.0106 N   0  0  0  0  0  0  0  0  0  0  0  0
   -0.5155    1.3015    0.4079 C   0  0  0  0  0  0  0  0  0  0  0  0
    0.2160    2.5421    0.7950 C   0  0  0  0  0  0  0  0  0  0  0  0
   -0.2185    3.2321    1.9253 C   0  0  0  0  0  0  0  0  0  0  0  0
    0.3765    4.3804    2.3721 C   0  0  0  0  0  0  0  0  0  0  0  0
    1.4611    4.8834    1.6714 C   0  0  0  0  0  0  0  0  0  0  0  0
    1.9042    4.2125    0.5499 C   0  0  0  0  0  0  0  0  0  0  0  0
    1.2789    3.0524    0.1247 C   0  0  0  0  0  0  0  0  0  0  0  0
    1.8294    2.4056   -1.0913 C   0  0  0  0  0  0  0  0  0  0  0  0
    1.0911    1.2014   -1.5293 C   0  0  1  0  0  0  0  0  0  0  0  0
    1.8591   -0.0505   -1.3035 C   0  0  0  0  0  0  0  0  0  0  0  0
    1.3113   -1.2718   -1.5647 N   0  0  0  0  0  0  0  0  0  0  0  0
    2.2045   -2.2307   -1.2793 C   0  0  0  0  0  0  0  0  0  0  0  0
    3.3299   -1.5665   -0.8306 C   0  0  0  0  0  0  0  0  0  0  0  0
    3.1045   -0.2391   -0.8509 N   0  0  0  0  0  0  0  0  0  0  0  0
    4.5841   -2.2008   -0.3964 C   0  0  0  0  0  0  0  0  0  0  0  0
    5.6323   -1.4380    0.0292 C   0  0  0  0  0  0  0  0  0  0  0  0
    6.8035   -2.0545    0.4323 C   0  0  0  0  0  0  0  0  0  0  0  0
    6.9006   -3.4349    0.4002 C   0  0  0  0  0  0  0  0  0  0  0  0
    5.8438   -4.1885   -0.0281 C   0  0  0  0  0  0  0  0  0  0  0  0
    4.6925   -3.5791   -0.4242 C   0  0  0  0  0  0  0  0  0  0  0  0
   -3.5839    0.3910   -2.6407 N   0  0  0  0  0  0  0  0  0  0  0  0
   -8.4322   -2.5782    0.8932 H   0  0  0  0  0  0  0  0  0  0  0  0
   -6.9990   -2.5191   -1.1066 H   0  0  0  0  0  0  0  0  0  0  0  0
   -4.7748   -2.0691   -1.9892 H   0  0  0  0  0  0  0  0  0  0  0  0
   -3.7593   -0.0520    1.6447 H   0  0  0  0  0  0  0  0  0  0  0  0
   -6.0330   -0.5176    2.5336 H   0  0  0  0  0  0  0  0  0  0  0  0
   -2.0056   -0.7402    0.0385 H   0  0  0  0  0  0  0  0  0  0  0  0
   -2.5269   -1.5377   -1.4510 H   0  0  0  0  0  0  0  0  0  0  0  0
   -3.1447    1.4281   -0.8771 H   0  0  0  0  0  0  0  0  0  0  0  0
   -1.5810    1.5294    0.6076 H   0  0  0  0  0  0  0  0  0  0  0  0
   -0.2147    0.4755    1.0489 H   0  0  0  0  0  0  0  0  0  0  0  0
   -1.0560    2.8422    2.4647 H   0  0  0  0  0  0  0  0  0  0  0  0
   -0.0202    4.8588    3.2596 H   0  0  0  0  0  0  0  0  0  0  0  0
    1.9239    5.7976    2.0389 H   0  0  0  0  0  0  0  0  0  0  0  0
    2.7587    4.6104   -0.0006 H   0  0  0  0  0  0  0  0  0  0  0  0
    2.9091    2.2934   -0.9131 H   0  0  0  0  0  0  0  0  0  0  0  0
    1.7677    3.2137   -1.8809 H   0  0  0  0  0  0  0  0  0  0  0  0
    0.9926    1.2709   -2.6555 H   0  0  0  0  0  0  0  0  0  0  0  0
    2.1162   -3.3065   -1.3633 H   0  0  0  0  0  0  0  0  0  0  0  0
    3.7750    0.5012   -0.5667 H   0  0  0  0  0  0  0  0  0  0  0  0
    5.5784   -0.3577    0.0623 H   0  0  0  0  0  0  0  0  0  0  0  0
    7.6255   -1.4365    0.7671 H   0  0  0  0  0  0  0  0  0  0  0  0
    7.8240   -3.8881    0.7197 H   0  0  0  0  0  0  0  0  0  0  0  0
    5.9570   -5.2640   -0.0397 H   0  0  0  0  0  0  0  0  0  0  0  0
    3.8541   -4.1939   -0.7648 H   0  0  0  0  0  0  0  0  0  0  0  0
   -3.5195    1.2186   -3.2775 H   0  0  0  0  0  0  0  0  0  0  0  0
   -4.5815    0.3019   -2.3637 H   0  0  0  0  0  0  0  0  0  0  0  0
  1  2  1  0
  2  3  2  0
  3  4  1  0
  4  5  2  0
  5  6  1  0
  6  7  2  0
  5  8  1  0
  8  9  1  0
  9 10  1  0
 10 11  2  0
 10 12  1  0
 12 13  1  0
 13 14  1  0
 14 15  2  0
 15 16  1  0
 16 17  2  0
 17 18  1  0
 18 19  2  0
 19 20  1  0
 20 21  1  0
 21 22  1  0
 22 23  2  0
 23 24  1  0
 24 25  2  0
 25 26  1  0
 25 27  1  0
 27 28  2  0
 28 29  1  0
 29 30  2  0
 30 31  1  0
 31 32  2  0
  9 33  1  0
  7  2  1  0
 21 12  1  0
 26 22  1  0
 32 27  1  0
 19 14  1  0
  1 34  1  0
  3 35  1  0
  4 36  1  0
  6 37  1  0
  7 38  1  0
  8 39  1  0
  8 40  1  0
  9 41  1  1
 13 42  1  0
 13 43  1  0
 15 44  1  0
 16 45  1  0
 17 46  1  0
 18 47  1  0
 20 48  1  0
 20 49  1  0
 21 50  1  6
 24 51  1  0
 26 52  1  0
 28 53  1  0
 29 54  1  0
 30 55  1  0
 31 56  1  0
 32 57  1  0
 33 58  1  0
 33 59  1  0
M  END
>  <Ligand ID>  (1) 
LIG0001202

>  <Ligand>  (1) 
CHEMBL361274

>  <SMILES>  (1) 
Oc1ccc(cc1)C[C@@H](C(=O)N1Cc2ccccc2C[C@H]1c1ncc([nH]1)c1ccccc1)N

>  <CID>  (1) 
9932852.0

>  <ChEMBL ID>  (1) 
nan

>  <InChiKey>  (1) 
SWZLGDBFWBZXTL-ZCYQVOJMSA-N

>  <InChi>  (1) 
InChI=1S/C27H26N4O2/c28-23(14-18-10-12-22(32)13-11-18)27(33)31-17-21-9-5-4-8-20(21)15-25(31)26-29-16-24(30-26)19-6-2-1-3-7-19/h1-13,16,23,25,32H,14-15,17,28H2,(H,29,30)/t23-,25-/m0/s1

>  <IUPAC Name>  (1) 
(2S)-2-amino-3-(4-hydroxyphenyl)-1-[(3S)-3-(5-phenyl-1H-imidazol-2-yl)-3,4-dihydro-1H-isoquinolin-2-yl]propan-1-one

$$$$
