
     RDKit          3D

 32 32  0  0  0  0  0  0  0  0999 V2000
    4.0332    2.1623    0.3892 C   0  0  0  0  0  0  0  0  0  0  0  0
    2.7697    1.4692    0.7970 C   0  0  0  0  0  0  0  0  0  0  0  0
    2.4045    1.6136    1.9786 O   0  0  0  0  0  0  0  0  0  0  0  0
    2.0765    0.7116   -0.1434 O   0  0  0  0  0  0  0  0  0  0  0  0
    0.8950    0.0419    0.1716 C   0  0  0  0  0  0  0  0  0  0  0  0
   -0.3233    0.5285   -0.5506 C   0  0  0  0  0  0  0  0  0  0  0  0
   -1.4807   -0.2658    0.0525 C   0  0  0  0  0  0  0  0  0  0  0  0
   -1.4098   -1.6120   -0.6408 C   0  0  0  0  0  0  0  0  0  0  0  0
   -0.0678   -2.1958   -0.2945 C   0  0  0  0  0  0  0  0  0  0  0  0
    0.9599   -1.4212    0.0708 C   0  0  0  0  0  0  0  0  0  0  0  0
    2.2358   -2.1674    0.3843 C   0  0  0  0  0  0  0  0  0  0  0  0
   -2.7700    0.4130   -0.0549 C   0  0  0  0  0  0  0  0  0  0  0  0
   -3.4784    0.7253    1.0506 C   0  0  0  0  0  0  0  0  0  0  0  0
   -3.3641    0.7912   -1.3592 C   0  0  0  0  0  0  0  0  0  0  0  0
    4.8704    1.9334    1.0730 H   0  0  0  0  0  0  0  0  0  0  0  0
    3.8143    3.2556    0.5348 H   0  0  0  0  0  0  0  0  0  0  0  0
    4.2291    2.0145   -0.6715 H   0  0  0  0  0  0  0  0  0  0  0  0
    0.7077    0.2704    1.2538 H   0  0  0  0  0  0  0  0  0  0  0  0
   -0.2402    0.2626   -1.6282 H   0  0  0  0  0  0  0  0  0  0  0  0
   -0.4966    1.6192   -0.4535 H   0  0  0  0  0  0  0  0  0  0  0  0
   -1.2639   -0.4881    1.1277 H   0  0  0  0  0  0  0  0  0  0  0  0
   -1.4855   -1.4429   -1.7319 H   0  0  0  0  0  0  0  0  0  0  0  0
   -2.2325   -2.2268   -0.2782 H   0  0  0  0  0  0  0  0  0  0  0  0
    0.0323   -3.2880   -0.3546 H   0  0  0  0  0  0  0  0  0  0  0  0
    2.1380   -2.7190    1.3479 H   0  0  0  0  0  0  0  0  0  0  0  0
    3.0325   -1.4334    0.4783 H   0  0  0  0  0  0  0  0  0  0  0  0
    2.4086   -2.9166   -0.4333 H   0  0  0  0  0  0  0  0  0  0  0  0
   -2.9913    0.4219    1.9911 H   0  0  0  0  0  0  0  0  0  0  0  0
   -4.4221    1.2193    1.0274 H   0  0  0  0  0  0  0  0  0  0  0  0
   -3.9773   -0.0434   -1.7829 H   0  0  0  0  0  0  0  0  0  0  0  0
   -2.5451    1.0924   -2.0711 H   0  0  0  0  0  0  0  0  0  0  0  0
   -4.0589    1.6745   -1.2800 H   0  0  0  0  0  0  0  0  0  0  0  0
  1  2  1  0
  2  3  2  0
  2  4  1  0
  4  5  1  0
  5  6  1  0
  6  7  1  0
  7  8  1  0
  8  9  1  0
  9 10  2  0
 10 11  1  0
  7 12  1  0
 12 13  2  0
 12 14  1  0
 10  5  1  0
  1 15  1  0
  1 16  1  0
  1 17  1  0
  5 18  1  0
  6 19  1  0
  6 20  1  0
  7 21  1  0
  8 22  1  0
  8 23  1  0
  9 24  1  0
 11 25  1  0
 11 26  1  0
 11 27  1  0
 13 28  1  0
 13 29  1  0
 14 30  1  0
 14 31  1  0
 14 32  1  0
M  END
>  <Ligand ID>  (1) 
LIG0002053

>  <Ligand>  (1) 
Carvyl acetate

>  <SMILES>  (1) 
CC(=O)OC1CC(CC=C1C)C(=C)C

>  <CID>  (1) 
7335.0

>  <ChEMBL ID>  (1) 
nan

>  <InChiKey>  (1) 
YTHRBOFHFYZBRJ-UHFFFAOYSA-N

>  <InChi>  (1) 
InChI=1S/C12H18O2/c1-8(2)11-6-5-9(3)12(7-11)14-10(4)13/h5,11-12H,1,6-7H2,2-4H3

>  <IUPAC Name>  (1) 
(2-methyl-5-prop-1-en-2-ylcyclohex-2-en-1-yl) acetate

$$$$
