
     RDKit          3D

 25 24  0  0  0  0  0  0  0  0999 V2000
    3.6112    0.6651    0.1343 C   0  0  0  0  0  0  0  0  0  0  0  0
    2.5557    0.1531    1.1087 C   0  0  0  0  0  0  0  0  0  0  0  0
    1.7285   -0.8139    0.3403 C   0  0  0  0  0  0  0  0  0  0  0  0
    1.9637   -2.0106    0.2903 O   0  0  0  0  0  0  0  0  0  0  0  0
    0.5504   -0.2322   -0.3983 C   0  0  0  0  0  0  0  0  0  0  0  0
   -0.6878   -0.7016    0.3195 C   0  0  0  0  0  0  0  0  0  0  0  0
   -1.9502   -0.1768   -0.3265 C   0  0  0  0  0  0  0  0  0  0  0  0
   -2.0553    1.3127   -0.3666 C   0  0  0  0  0  0  0  0  0  0  0  0
   -3.1472   -0.7589    0.3779 C   0  0  0  0  0  0  0  0  0  0  0  0
    3.9287   -0.1905   -0.4648 H   0  0  0  0  0  0  0  0  0  0  0  0
    4.4795    1.0531    0.7000 H   0  0  0  0  0  0  0  0  0  0  0  0
    3.1770    1.4867   -0.4799 H   0  0  0  0  0  0  0  0  0  0  0  0
    1.9118    0.9702    1.4791 H   0  0  0  0  0  0  0  0  0  0  0  0
    3.0038   -0.3844    1.9605 H   0  0  0  0  0  0  0  0  0  0  0  0
    0.6428    0.8650   -0.4871 H   0  0  0  0  0  0  0  0  0  0  0  0
    0.4975   -0.6748   -1.4320 H   0  0  0  0  0  0  0  0  0  0  0  0
   -0.7202   -1.8148    0.1748 H   0  0  0  0  0  0  0  0  0  0  0  0
   -0.6292   -0.5189    1.4037 H   0  0  0  0  0  0  0  0  0  0  0  0
   -1.9322   -0.6148   -1.3700 H   0  0  0  0  0  0  0  0  0  0  0  0
   -1.1165    1.8594   -0.4934 H   0  0  0  0  0  0  0  0  0  0  0  0
   -2.5938    1.6048    0.5744 H   0  0  0  0  0  0  0  0  0  0  0  0
   -2.7495    1.5836   -1.1995 H   0  0  0  0  0  0  0  0  0  0  0  0
   -3.7000    0.0271    0.9698 H   0  0  0  0  0  0  0  0  0  0  0  0
   -2.8803   -1.5511    1.0965 H   0  0  0  0  0  0  0  0  0  0  0  0
   -3.8886   -1.1376   -0.3815 H   0  0  0  0  0  0  0  0  0  0  0  0
  1  2  1  0
  2  3  1  0
  3  4  2  0
  3  5  1  0
  5  6  1  0
  6  7  1  0
  7  8  1  0
  7  9  1  0
  1 10  1  0
  1 11  1  0
  1 12  1  0
  2 13  1  0
  2 14  1  0
  5 15  1  0
  5 16  1  0
  6 17  1  0
  6 18  1  0
  7 19  1  0
  8 20  1  0
  8 21  1  0
  8 22  1  0
  9 23  1  0
  9 24  1  0
  9 25  1  0
M  END
>  <Ligand ID>  (1) 
LIG0005009

>  <Ligand>  (1) 
Ethyl iso-amyl ketone

>  <SMILES>  (1) 
CCC(=O)CCC(C)C

>  <CID>  (1) 
12210.0

>  <ChEMBL ID>  (1) 
nan

>  <InChiKey>  (1) 
CCCIYAQYQZQDIZ-UHFFFAOYSA-N

>  <InChi>  (1) 
InChI=1S/C8H16O/c1-4-8(9)6-5-7(2)3/h7H,4-6H2,1-3H3

>  <IUPAC Name>  (1) 
6-methylheptan-3-one

$$$$
