
     RDKit          3D

 53 55  0  0  0  0  0  0  0  0999 V2000
   -3.7384   -0.8021    1.9693 C   0  0  0  0  0  0  0  0  0  0  0  0
   -4.5182   -0.4819    0.8409 O   0  0  0  0  0  0  0  0  0  0  0  0
   -3.9836   -0.0164   -0.3478 C   0  0  0  0  0  0  0  0  0  0  0  0
   -2.6150    0.1344   -0.4094 C   0  0  0  0  0  0  0  0  0  0  0  0
   -2.0352    0.5952   -1.5733 C   0  0  0  0  0  0  0  0  0  0  0  0
   -2.8510    0.8916   -2.6441 C   0  0  0  0  0  0  0  0  0  0  0  0
   -4.2172    0.7332   -2.5601 C   0  0  0  0  0  0  0  0  0  0  0  0
   -4.8347    0.2666   -1.3895 C   0  0  0  0  0  0  0  0  0  0  0  0
   -6.1787    0.1441   -1.4027 O   0  0  0  0  0  0  0  0  0  0  0  0
   -7.0876   -0.2687   -0.4506 C   0  0  0  0  0  0  0  0  0  0  0  0
   -6.9676   -1.6878    0.0120 C   0  0  0  0  0  0  0  0  0  0  0  0
   -7.0950    0.7392    0.6968 C   0  0  0  0  0  0  0  0  0  0  0  0
   -0.5922    0.7682   -1.6791 C   0  0  0  0  0  0  0  0  0  0  0  0
    0.0853    1.2021   -2.7379 O   0  0  0  0  0  0  0  0  0  0  0  0
    1.3437    1.2362   -2.4962 N   0  0  0  0  0  0  0  0  0  0  0  0
    1.5049    0.8059   -1.2215 C   0  0  0  0  0  0  0  0  0  0  0  0
    0.2953    0.5162   -0.7186 N   0  0  0  0  0  0  0  0  0  0  0  0
    2.7660    0.6718   -0.4982 C   0  0  0  0  0  0  0  0  0  0  0  0
    2.7808    0.2110    0.8228 C   0  0  0  0  0  0  0  0  0  0  0  0
    3.9707    0.0865    1.4978 C   0  0  0  0  0  0  0  0  0  0  0  0
    5.2003    0.4063    0.9134 C   0  0  0  0  0  0  0  0  0  0  0  0
    5.1497    0.8557   -0.3825 C   0  0  0  0  0  0  0  0  0  0  0  0
    3.9648    0.9931   -1.0939 C   0  0  0  0  0  0  0  0  0  0  0  0
    3.9605    1.4867   -2.5056 C   0  0  0  0  0  0  0  0  0  0  0  0
    6.4071    0.2581    1.7275 C   0  0  0  0  0  0  0  0  0  0  0  0
    6.9951   -1.1108    1.7706 C   0  0  0  0  0  0  0  0  0  0  0  0
    7.4271   -1.6833    0.5048 C   0  0  0  0  0  0  0  0  0  0  0  0
    7.3759   -1.1588   -0.6244 O   0  0  0  0  0  0  0  0  0  0  0  0
    7.9690   -2.9824    0.5433 O   0  0  0  0  0  0  0  0  0  0  0  0
   -2.8601   -1.4110    1.6589 H   0  0  0  0  0  0  0  0  0  0  0  0
   -3.4413    0.1647    2.4526 H   0  0  0  0  0  0  0  0  0  0  0  0
   -4.3655   -1.3598    2.6998 H   0  0  0  0  0  0  0  0  0  0  0  0
   -1.9445   -0.0869    0.4068 H   0  0  0  0  0  0  0  0  0  0  0  0
   -2.3677    1.2487   -3.5370 H   0  0  0  0  0  0  0  0  0  0  0  0
   -4.8216    0.9766   -3.4215 H   0  0  0  0  0  0  0  0  0  0  0  0
   -8.1236   -0.1728   -0.9117 H   0  0  0  0  0  0  0  0  0  0  0  0
   -7.8887   -2.2910   -0.2469 H   0  0  0  0  0  0  0  0  0  0  0  0
   -6.9545   -1.6969    1.1214 H   0  0  0  0  0  0  0  0  0  0  0  0
   -6.1416   -2.2615   -0.4565 H   0  0  0  0  0  0  0  0  0  0  0  0
   -7.0051    0.2739    1.6868 H   0  0  0  0  0  0  0  0  0  0  0  0
   -8.0632    1.3229    0.7273 H   0  0  0  0  0  0  0  0  0  0  0  0
   -6.3277    1.5444    0.5428 H   0  0  0  0  0  0  0  0  0  0  0  0
    1.8518   -0.0473    1.3120 H   0  0  0  0  0  0  0  0  0  0  0  0
    3.9209   -0.2806    2.5335 H   0  0  0  0  0  0  0  0  0  0  0  0
    6.0470    1.1372   -0.9016 H   0  0  0  0  0  0  0  0  0  0  0  0
    5.0103    1.7433   -2.7691 H   0  0  0  0  0  0  0  0  0  0  0  0
    3.3968    2.4378   -2.5865 H   0  0  0  0  0  0  0  0  0  0  0  0
    3.5594    0.6970   -3.2003 H   0  0  0  0  0  0  0  0  0  0  0  0
    6.1931    0.5592    2.7880 H   0  0  0  0  0  0  0  0  0  0  0  0
    7.2227    0.9466    1.4018 H   0  0  0  0  0  0  0  0  0  0  0  0
    6.2305   -1.8089    2.2358 H   0  0  0  0  0  0  0  0  0  0  0  0
    7.8807   -1.0966    2.4651 H   0  0  0  0  0  0  0  0  0  0  0  0
    8.5102   -3.3486   -0.2141 H   0  0  0  0  0  0  0  0  0  0  0  0
  1  2  1  0
  2  3  1  0
  3  4  2  0
  4  5  1  0
  5  6  2  0
  6  7  1  0
  7  8  2  0
  8  9  1  0
  9 10  1  0
 10 11  1  0
 10 12  1  0
  5 13  1  0
 13 14  1  0
 14 15  1  0
 15 16  2  0
 16 17  1  0
 16 18  1  0
 18 19  2  0
 19 20  1  0
 20 21  2  0
 21 22  1  0
 22 23  2  0
 23 24  1  0
 21 25  1  0
 25 26  1  0
 26 27  1  0
 27 28  2  0
 27 29  1  0
  8  3  1  0
 17 13  2  0
 23 18  1  0
  1 30  1  0
  1 31  1  0
  1 32  1  0
  4 33  1  0
  6 34  1  0
  7 35  1  0
 10 36  1  0
 11 37  1  0
 11 38  1  0
 11 39  1  0
 12 40  1  0
 12 41  1  0
 12 42  1  0
 19 43  1  0
 20 44  1  0
 22 45  1  0
 24 46  1  0
 24 47  1  0
 24 48  1  0
 25 49  1  0
 25 50  1  0
 26 51  1  0
 26 52  1  0
 29 53  1  0
M  END
>  <Ligand ID>  (1) 
LIG0001685

>  <Ligand>  (1) 
CHEMBL212580

>  <SMILES>  (1) 
COc1cc(ccc1OC(C)C)c1onc(n1)c1ccc(cc1C)CCC(=O)O

>  <CID>  (1) 
11682696.0

>  <ChEMBL ID>  (1) 
nan

>  <InChiKey>  (1) 
PBSBPEBXURPARK-UHFFFAOYSA-N

>  <InChi>  (1) 
InChI=1S/C22H24N2O5/c1-13(2)28-18-9-7-16(12-19(18)27-4)22-23-21(24-29-22)17-8-5-15(11-14(17)3)6-10-20(25)26/h5,7-9,11-13H,6,10H2,1-4H3,(H,25,26)

>  <IUPAC Name>  (1) 
3-[4-[5-(3-methoxy-4-propan-2-yloxyphenyl)-1,2,4-oxadiazol-3-yl]-3-methylphenyl]propanoic acid

$$$$
