
     RDKit          3D

 62 65  0  0  0  0  0  0  0  0999 V2000
    0.0102    4.4994    0.3815 C   0  0  0  0  0  0  0  0  0  0  0  0
    0.2160    3.3567   -0.6346 C   0  0  0  0  0  0  0  0  0  0  0  0
   -1.0285    3.0384   -1.1116 O   0  0  0  0  0  0  0  0  0  0  0  0
   -1.7306    1.8896   -1.2321 C   0  0  0  0  0  0  0  0  0  0  0  0
   -3.0296    1.9891   -1.7566 C   0  0  0  0  0  0  0  0  0  0  0  0
   -3.8341    0.8846   -1.9216 C   0  0  0  0  0  0  0  0  0  0  0  0
   -3.4124   -0.3837   -1.5820 C   0  0  0  0  0  0  0  0  0  0  0  0
   -2.1366   -0.4935   -1.0658 C   0  0  0  0  0  0  0  0  0  0  0  0
   -1.3215    0.6225   -0.8987 C   0  0  0  0  0  0  0  0  0  0  0  0
   -0.0262    0.3625   -0.3657 N   0  0  0  0  0  0  0  0  0  0  0  0
    0.9796    0.0140   -1.3414 C   0  0  0  0  0  0  0  0  0  0  0  0
    0.7253   -0.0536   -2.5686 O   0  0  0  0  0  0  0  0  0  0  0  0
    2.3041   -0.2576   -0.8511 C   0  0  0  0  0  0  0  0  0  0  0  0
    2.8510   -0.2598    0.3923 C   0  0  0  0  0  0  0  0  0  0  0  0
    4.1389   -0.5559    0.5640 C   0  0  0  0  0  0  0  0  0  0  0  0
    4.8838   -0.8582   -0.5762 C   0  0  0  0  0  0  0  0  0  0  0  0
    3.6385   -0.7005   -1.9626 S   0  0  0  0  0  0  0  0  0  0  0  0
    6.2786   -1.2238   -0.8435 C   0  0  0  0  0  0  0  0  0  0  0  0
    7.2188   -0.5115    0.1040 C   0  0  0  0  0  0  0  0  0  0  0  0
    7.2021   -1.0264    1.4998 C   0  0  0  0  0  0  0  0  0  0  0  0
    5.8885   -1.5800    1.9549 C   0  0  0  0  0  0  0  0  0  0  0  0
    4.7905   -0.5690    1.9338 C   0  0  0  0  0  0  0  0  0  0  0  0
   -4.4580   -1.7345   -1.8077 S   0  0  0  0  0  0  0  0  0  0  0  0
   -3.6505   -2.9594   -2.1843 O   0  0  0  0  0  0  0  0  0  0  0  0
   -5.3001   -1.4481   -3.0432 O   0  0  0  0  0  0  0  0  0  0  0  0
   -5.4714   -2.1573   -0.5474 N   0  0  0  0  0  0  0  0  0  0  0  0
   -6.4419   -1.2359   -0.0961 C   0  0  0  0  0  0  0  0  0  0  0  0
   -6.3568   -0.8159    1.3339 C   0  0  0  0  0  0  0  0  0  0  0  0
   -5.8945   -1.7615    2.2119 O   0  0  0  0  0  0  0  0  0  0  0  0
   -5.8101   -3.0339    1.6921 C   0  0  0  0  0  0  0  0  0  0  0  0
   -4.8911   -2.9472    0.4897 C   0  0  0  0  0  0  0  0  0  0  0  0
    1.0012    4.0336   -1.7745 C   0  0  0  0  0  0  0  0  0  0  0  0
   -0.2914    5.3763   -0.2311 H   0  0  0  0  0  0  0  0  0  0  0  0
   -0.8613    4.2385    1.0194 H   0  0  0  0  0  0  0  0  0  0  0  0
    0.9029    4.6893    0.9818 H   0  0  0  0  0  0  0  0  0  0  0  0
    0.8128    2.5751   -0.1697 H   0  0  0  0  0  0  0  0  0  0  0  0
   -3.4205    2.9473   -2.0415 H   0  0  0  0  0  0  0  0  0  0  0  0
   -4.8494    0.9910   -2.3356 H   0  0  0  0  0  0  0  0  0  0  0  0
   -1.8034   -1.4894   -0.7983 H   0  0  0  0  0  0  0  0  0  0  0  0
    0.1962    0.4151    0.6572 H   0  0  0  0  0  0  0  0  0  0  0  0
    2.1901   -0.0060    1.2687 H   0  0  0  0  0  0  0  0  0  0  0  0
    6.5892   -0.9794   -1.8840 H   0  0  0  0  0  0  0  0  0  0  0  0
    6.3460   -2.3163   -0.7668 H   0  0  0  0  0  0  0  0  0  0  0  0
    8.2522   -0.5977   -0.3244 H   0  0  0  0  0  0  0  0  0  0  0  0
    6.9064    0.5442    0.1075 H   0  0  0  0  0  0  0  0  0  0  0  0
    7.9830   -1.8060    1.6152 H   0  0  0  0  0  0  0  0  0  0  0  0
    7.4982   -0.2021    2.1956 H   0  0  0  0  0  0  0  0  0  0  0  0
    5.9967   -1.9732    2.9742 H   0  0  0  0  0  0  0  0  0  0  0  0
    5.5993   -2.4468    1.3224 H   0  0  0  0  0  0  0  0  0  0  0  0
    5.1548    0.4301    2.2042 H   0  0  0  0  0  0  0  0  0  0  0  0
    4.0216   -0.8893    2.6651 H   0  0  0  0  0  0  0  0  0  0  0  0
   -7.4466   -1.7336   -0.2401 H   0  0  0  0  0  0  0  0  0  0  0  0
   -6.4917   -0.3182   -0.7113 H   0  0  0  0  0  0  0  0  0  0  0  0
   -5.7988    0.1465    1.3930 H   0  0  0  0  0  0  0  0  0  0  0  0
   -7.3980   -0.5508    1.6772 H   0  0  0  0  0  0  0  0  0  0  0  0
   -6.7928   -3.4032    1.2920 H   0  0  0  0  0  0  0  0  0  0  0  0
   -5.3804   -3.7073    2.4398 H   0  0  0  0  0  0  0  0  0  0  0  0
   -3.8642   -2.6451    0.7677 H   0  0  0  0  0  0  0  0  0  0  0  0
   -4.8124   -3.9988    0.0998 H   0  0  0  0  0  0  0  0  0  0  0  0
    2.0808    3.9311   -1.6627 H   0  0  0  0  0  0  0  0  0  0  0  0
    0.6979    5.0964   -1.8651 H   0  0  0  0  0  0  0  0  0  0  0  0
    0.6495    3.5589   -2.7295 H   0  0  0  0  0  0  0  0  0  0  0  0
  1  2  1  0
  2  3  1  0
  3  4  1  0
  4  5  2  0
  5  6  1  0
  6  7  2  0
  7  8  1  0
  8  9  2  0
  9 10  1  0
 10 11  1  0
 11 12  2  0
 11 13  1  0
 13 14  2  0
 14 15  1  0
 15 16  2  0
 16 17  1  0
 16 18  1  0
 18 19  1  0
 19 20  1  0
 20 21  1  0
 21 22  1  0
  7 23  1  0
 23 24  2  0
 23 25  2  0
 23 26  1  0
 26 27  1  0
 27 28  1  0
 28 29  1  0
 29 30  1  0
 30 31  1  0
  2 32  1  0
  9  4  1  0
 17 13  1  0
 31 26  1  0
 22 15  1  0
  1 33  1  0
  1 34  1  0
  1 35  1  0
  2 36  1  0
  5 37  1  0
  6 38  1  0
  8 39  1  0
 10 40  1  0
 14 41  1  0
 18 42  1  0
 18 43  1  0
 19 44  1  0
 19 45  1  0
 20 46  1  0
 20 47  1  0
 21 48  1  0
 21 49  1  0
 22 50  1  0
 22 51  1  0
 27 52  1  0
 27 53  1  0
 28 54  1  0
 28 55  1  0
 30 56  1  0
 30 57  1  0
 31 58  1  0
 31 59  1  0
 32 60  1  0
 32 61  1  0
 32 62  1  0
M  END
>  <Ligand ID>  (1) 
LIG0001537

>  <Ligand>  (1) 
MLS-0435529.0001

>  <SMILES>  (1) 
CC(Oc1ccc(cc1NC(=O)c1cc2c(s1)CCCCC2)S(=O)(=O)N1CCOCC1)C

>  <CID>  (1) 
4789512.0

>  <ChEMBL ID>  (1) 
nan

>  <InChiKey>  (1) 
OHLQUDPQBDLIOC-UHFFFAOYSA-N

>  <InChi>  (1) 
InChI=1S/C23H30N2O5S2/c1-16(2)30-20-9-8-18(32(27,28)25-10-12-29-13-11-25)15-19(20)24-23(26)22-14-17-6-4-3-5-7-21(17)31-22/h8-9,14-16H,3-7,10-13H2,1-2H3,(H,24,26)

>  <IUPAC Name>  (1) 
N-(5-morpholin-4-ylsulfonyl-2-propan-2-yloxyphenyl)-5,6,7,8-tetrahydro-4H-cyclohepta[b]thiophene-2-carboxamide

$$$$
