
     RDKit          3D

 26 27  0  0  0  0  0  0  0  0999 V2000
   -2.1584    2.4572   -0.5187 O   0  0  0  0  0  0  0  0  0  0  0  0
   -2.3972    1.5380    0.2647 C   0  0  0  0  0  0  0  0  0  0  0  0
   -2.3724    0.1225   -0.1810 C   0  0  0  0  0  0  0  0  0  0  0  0
   -1.3789   -0.7210    0.5389 C   0  0  0  0  0  0  0  0  0  0  0  0
    0.0200   -0.3176    0.4350 C   0  0  0  0  0  0  0  0  0  0  0  0
    0.6058    0.5561    1.3356 C   0  0  0  0  0  0  0  0  0  0  0  0
    1.9176    0.9267    1.2279 C   0  0  0  0  0  0  0  0  0  0  0  0
    2.7130    0.4421    0.2126 C   0  0  0  0  0  0  0  0  0  0  0  0
    2.1254   -0.4331   -0.6892 C   0  0  0  0  0  0  0  0  0  0  0  0
    0.8022   -0.8178   -0.5953 C   0  0  0  0  0  0  0  0  0  0  0  0
    3.1316   -0.7749   -1.6104 O   0  0  0  0  0  0  0  0  0  0  0  0
    4.3925   -0.4133   -1.0502 C   0  0  0  0  0  0  0  0  0  0  0  0
    4.0601    0.6399   -0.1429 O   0  0  0  0  0  0  0  0  0  0  0  0
   -3.7497   -0.4385    0.1846 C   0  0  0  0  0  0  0  0  0  0  0  0
   -2.6333    1.7353    1.3061 H   0  0  0  0  0  0  0  0  0  0  0  0
   -2.2834    0.0546   -1.2778 H   0  0  0  0  0  0  0  0  0  0  0  0
   -1.5305   -1.7642    0.1378 H   0  0  0  0  0  0  0  0  0  0  0  0
   -1.7272   -0.8128    1.6041 H   0  0  0  0  0  0  0  0  0  0  0  0
    0.0051    0.9409    2.1277 H   0  0  0  0  0  0  0  0  0  0  0  0
    2.3204    1.6128    1.9614 H   0  0  0  0  0  0  0  0  0  0  0  0
    0.4145   -1.5092   -1.3427 H   0  0  0  0  0  0  0  0  0  0  0  0
    4.7873   -1.2355   -0.4335 H   0  0  0  0  0  0  0  0  0  0  0  0
    5.1348   -0.1148   -1.7988 H   0  0  0  0  0  0  0  0  0  0  0  0
   -4.5080    0.3887    0.1054 H   0  0  0  0  0  0  0  0  0  0  0  0
   -3.9980   -1.2978   -0.4547 H   0  0  0  0  0  0  0  0  0  0  0  0
   -3.6934   -0.7644    1.2444 H   0  0  0  0  0  0  0  0  0  0  0  0
  1  2  2  0
  2  3  1  0
  3  4  1  0
  4  5  1  0
  5  6  2  0
  6  7  1  0
  7  8  2  0
  8  9  1  0
  9 10  2  0
  9 11  1  0
 11 12  1  0
 12 13  1  0
  3 14  1  0
 10  5  1  0
 13  8  1  0
  2 15  1  0
  3 16  1  0
  4 17  1  0
  4 18  1  0
  6 19  1  0
  7 20  1  0
 10 21  1  0
 12 22  1  0
 12 23  1  0
 14 24  1  0
 14 25  1  0
 14 26  1  0
M  END
>  <Ligand ID>  (1) 
LIG0000119

>  <Ligand>  (1) 
3-(3,4-Methylenedioxyphenyl)-2-methylpropanal

>  <SMILES>  (1) 
O=CC(Cc1ccc2c(c1)OCO2)C

>  <CID>  (1) 
64805.0

>  <ChEMBL ID>  (1) 
nan

>  <InChiKey>  (1) 
BOPPSUHPZARXTH-UHFFFAOYSA-N

>  <InChi>  (1) 
InChI=1S/C11H12O3/c1-8(6-12)4-9-2-3-10-11(5-9)14-7-13-10/h2-3,5-6,8H,4,7H2,1H3

>  <IUPAC Name>  (1) 
3-(1,3-benzodioxol-5-yl)-2-methylpropanal

$$$$
