
     RDKit          3D

 21 20  0  0  0  0  0  0  0  0999 V2000
    1.0694   -2.1550    0.5886 O   0  0  0  0  0  0  0  0  0  0  0  0
    0.7978   -1.4588   -0.5798 C   0  0  0  0  0  0  0  0  0  0  0  0
    1.3329   -1.8133   -1.6609 O   0  0  0  0  0  0  0  0  0  0  0  0
   -0.1439   -0.2842   -0.5084 C   0  0  0  0  0  0  0  0  0  0  0  0
    0.5493    0.7058    0.4124 C   0  0  0  0  0  0  0  0  0  0  0  0
    1.8838    1.1017   -0.1592 C   0  0  0  0  0  0  0  0  0  0  0  0
    2.2956    0.6383   -1.2447 O   0  0  0  0  0  0  0  0  0  0  0  0
    2.6298    2.0060    0.5815 O   0  0  0  0  0  0  0  0  0  0  0  0
   -1.4002   -0.7554    0.1437 C   0  0  0  0  0  0  0  0  0  0  0  0
   -2.4489    0.2558    0.3044 C   0  0  0  0  0  0  0  0  0  0  0  0
   -3.5353   -0.1243    0.8610 O   0  0  0  0  0  0  0  0  0  0  0  0
   -2.3578    1.5655   -0.0915 O   0  0  0  0  0  0  0  0  0  0  0  0
   -0.3039    0.2918   -1.7474 O   0  0  0  0  0  0  0  0  0  0  0  0
    1.3005   -3.1584    0.5399 H   0  0  0  0  0  0  0  0  0  0  0  0
   -0.0966    1.5844    0.5637 H   0  0  0  0  0  0  0  0  0  0  0  0
    0.7492    0.1423    1.3572 H   0  0  0  0  0  0  0  0  0  0  0  0
    3.5853    2.2427    0.3300 H   0  0  0  0  0  0  0  0  0  0  0  0
   -1.0921   -1.1168    1.1650 H   0  0  0  0  0  0  0  0  0  0  0  0
   -1.7829   -1.6373   -0.4118 H   0  0  0  0  0  0  0  0  0  0  0  0
   -3.1924    2.1427   -0.0629 H   0  0  0  0  0  0  0  0  0  0  0  0
    0.1604   -0.1733   -2.4856 H   0  0  0  0  0  0  0  0  0  0  0  0
  1  2  1  0
  2  3  2  0
  2  4  1  0
  4  5  1  0
  5  6  1  0
  6  7  2  0
  6  8  1  0
  4  9  1  0
  9 10  1  0
 10 11  2  0
 10 12  1  0
  4 13  1  0
  1 14  1  0
  5 15  1  0
  5 16  1  0
  8 17  1  0
  9 18  1  0
  9 19  1  0
 12 20  1  0
 13 21  1  0
M  END
>  <Ligand ID>  (1) 
LIG0000775

>  <Ligand>  (1) 
Citric Acid

>  <SMILES>  (1) 
OC(=O)C(CC(=O)O)(CC(=O)O)O

>  <CID>  (1) 
311.0

>  <ChEMBL ID>  (1) 
nan

>  <InChiKey>  (1) 
KRKNYBCHXYNGOX-UHFFFAOYSA-N

>  <InChi>  (1) 
InChI=1S/C6H8O7/c7-3(8)1-6(13,5(11)12)2-4(9)10/h13H,1-2H2,(H,7,8)(H,9,10)(H,11,12)

>  <IUPAC Name>  (1) 
2-hydroxypropane-1,2,3-tricarboxylic acid

$$$$
