
     RDKit          3D

 29 29  0  0  0  0  0  0  0  0999 V2000
    3.7557   -0.5709    0.1844 C   0  0  0  0  0  0  0  0  0  0  0  0
    2.3101   -0.4142   -0.1274 C   0  0  0  0  0  0  0  0  0  0  0  0
    1.4760   -1.3740    0.1770 C   0  0  0  0  0  0  0  0  0  0  0  0
    0.0104   -1.3449   -0.0793 C   0  0  0  0  0  0  0  0  0  0  0  0
   -0.5012   -0.0222   -0.5279 C   0  0  2  0  0  0  0  0  0  0  0  0
    0.4503    1.0885   -0.1227 C   0  0  0  0  0  0  0  0  0  0  0  0
    1.7716    0.8254   -0.7882 C   0  0  0  0  0  0  0  0  0  0  0  0
   -1.8298    0.3233    0.1559 C   0  0  0  0  0  0  0  0  0  0  0  0
   -1.6152    0.3581    1.5293 O   0  0  0  0  0  0  0  0  0  0  0  0
   -2.2863    1.6833   -0.2818 C   0  0  0  0  0  0  0  0  0  0  0  0
   -2.8784   -0.7228   -0.1702 C   0  0  0  0  0  0  0  0  0  0  0  0
    4.2495    0.4118    0.1709 H   0  0  0  0  0  0  0  0  0  0  0  0
    4.2466   -1.2357   -0.5636 H   0  0  0  0  0  0  0  0  0  0  0  0
    3.8858   -1.0583    1.1734 H   0  0  0  0  0  0  0  0  0  0  0  0
    1.8664   -2.2662    0.6530 H   0  0  0  0  0  0  0  0  0  0  0  0
   -0.1923   -2.0972   -0.8809 H   0  0  0  0  0  0  0  0  0  0  0  0
   -0.4806   -1.7513    0.8372 H   0  0  0  0  0  0  0  0  0  0  0  0
   -0.6409   -0.0086   -1.6122 H   0  0  0  0  0  0  0  0  0  0  0  0
    0.5554    0.9919    0.9897 H   0  0  0  0  0  0  0  0  0  0  0  0
    0.0486    2.0663   -0.3861 H   0  0  0  0  0  0  0  0  0  0  0  0
    2.4177    1.6924   -0.6247 H   0  0  0  0  0  0  0  0  0  0  0  0
    1.6116    0.6173   -1.8535 H   0  0  0  0  0  0  0  0  0  0  0  0
   -1.6322   -0.5082    1.9753 H   0  0  0  0  0  0  0  0  0  0  0  0
   -2.0774    2.4953    0.4580 H   0  0  0  0  0  0  0  0  0  0  0  0
   -3.4045    1.6911   -0.4210 H   0  0  0  0  0  0  0  0  0  0  0  0
   -1.8021    1.9911   -1.2408 H   0  0  0  0  0  0  0  0  0  0  0  0
   -3.6443   -0.7414    0.6138 H   0  0  0  0  0  0  0  0  0  0  0  0
   -2.3647   -1.6780   -0.2840 H   0  0  0  0  0  0  0  0  0  0  0  0
   -3.3056   -0.4420   -1.1540 H   0  0  0  0  0  0  0  0  0  0  0  0
  1  2  1  0
  2  3  2  0
  3  4  1  0
  4  5  1  0
  5  6  1  0
  6  7  1  0
  5  8  1  0
  8  9  1  0
  8 10  1  0
  8 11  1  0
  7  2  1  0
  1 12  1  0
  1 13  1  0
  1 14  1  0
  3 15  1  0
  4 16  1  0
  4 17  1  0
  5 18  1  6
  6 19  1  0
  6 20  1  0
  7 21  1  0
  7 22  1  0
  9 23  1  0
 10 24  1  0
 10 25  1  0
 10 26  1  0
 11 27  1  0
 11 28  1  0
 11 29  1  0
M  END
>  <Ligand ID>  (1) 
LIG0000735

>  <Ligand>  (1) 
(L)-alpha-terpineol

>  <SMILES>  (1) 
CC1=CC[C@H](CC1)C(O)(C)C

>  <CID>  (1) 
443162.0

>  <ChEMBL ID>  (1) 
nan

>  <InChiKey>  (1) 
WUOACPNHFRMFPN-SECBINFHSA-N

>  <InChi>  (1) 
InChI=1S/C10H18O/c1-8-4-6-9(7-5-8)10(2,3)11/h4,9,11H,5-7H2,1-3H3/t9-/m1/s1

>  <IUPAC Name>  (1) 
2-[(1S)-4-methylcyclohex-3-en-1-yl]propan-2-ol

$$$$
