
     RDKit          3D

 76 83  0  0  0  0  0  0  0  0999 V2000
   -3.3014    2.4084    0.4686 C   0  0  0  0  0  0  0  0  0  0  0  0
   -2.5330    2.0527   -0.5633 O   0  0  0  0  0  0  0  0  0  0  0  0
   -1.3988    1.3333   -0.4461 C   0  0  2  0  0  0  0  0  0  0  0  0
   -0.8031    1.3960   -1.8641 C   0  0  0  0  0  0  0  0  0  0  0  0
    0.4043    0.5802   -2.0816 C   0  0  0  0  0  0  0  0  0  0  0  0
    0.9242    0.1984   -0.7101 C   0  0  2  0  0  0  0  0  0  0  0  0
   -0.0611   -0.7224   -0.1112 C   0  0  0  0  0  0  0  0  0  0  0  0
   -1.4600   -0.0837    0.0204 C   0  0  2  0  0  0  0  0  0  0  0  0
   -2.4944   -1.0242   -0.4309 C   0  0  1  0  0  0  0  0  0  0  0  0
   -3.9280   -0.8870   -0.1813 C   0  0  0  0  0  0  0  0  0  0  0  0
   -4.6860   -2.0371   -0.8853 C   0  0  0  0  0  0  0  0  0  0  0  0
   -5.6150   -2.6642    0.0799 C   0  0  0  0  0  0  0  0  0  0  0  0
   -5.8198   -1.5692    1.0930 C   0  0  0  0  0  0  0  0  0  0  0  0
   -4.3440   -1.1605    1.2540 C   0  0  0  0  0  0  0  0  0  0  0  0
   -2.3449   -1.0399   -1.8510 O   0  0  0  0  0  0  0  0  0  0  0  0
   -2.1105   -2.4517   -0.0377 C   0  0  0  0  0  0  0  0  0  0  0  0
    1.0028    1.4101    0.1928 C   0  0  2  0  0  0  0  0  0  0  0  0
   -0.3948    2.0068    0.4445 C   0  0  1  0  0  0  0  0  0  0  0  0
   -0.1403    3.3727    0.2091 O   0  0  0  0  0  0  0  0  0  0  0  0
    0.9861    3.5810   -0.5750 C   0  0  0  0  0  0  0  0  0  0  0  0
    1.6569    2.4164   -0.6376 C   0  0  0  0  0  0  0  0  0  0  0  0
    2.8026    2.1197   -1.2954 C   0  0  0  0  0  0  0  0  0  0  0  0
    3.2967    0.7335   -1.2889 C   0  0  0  0  0  0  0  0  0  0  0  0
    2.3183   -0.3176   -0.8463 C   0  0  1  0  0  0  0  0  0  0  0  0
    2.7471   -0.8821    0.4421 N   0  0  0  0  0  0  0  0  0  0  0  0
    2.8952    0.2533    1.3132 C   0  0  0  0  0  0  0  0  0  0  0  0
    1.6990    1.1111    1.4471 C   0  0  0  0  0  0  0  0  0  0  0  0
    3.9212   -1.6401    0.2712 C   0  0  0  0  0  0  0  0  0  0  0  0
    4.4319   -2.2914    1.5570 C   0  0  0  0  0  0  0  0  0  0  0  0
    5.7042   -3.0972    1.2974 C   0  0  0  0  0  0  0  0  0  0  0  0
    4.4132   -3.7549    1.6912 C   0  0  0  0  0  0  0  0  0  0  0  0
    3.3788    3.1701   -2.0049 C   0  0  0  0  0  0  0  0  0  0  0  0
    2.7504    4.4266   -1.9928 C   0  0  0  0  0  0  0  0  0  0  0  0
    1.5578    4.6404   -1.2837 C   0  0  0  0  0  0  0  0  0  0  0  0
    0.9249    5.8681   -1.2612 O   0  0  0  0  0  0  0  0  0  0  0  0
   -3.7498    1.6644    1.1155 H   0  0  0  0  0  0  0  0  0  0  0  0
   -2.8524    3.2663    1.0756 H   0  0  0  0  0  0  0  0  0  0  0  0
   -4.2018    2.9458    0.0170 H   0  0  0  0  0  0  0  0  0  0  0  0
   -0.5730    2.4583   -2.0500 H   0  0  0  0  0  0  0  0  0  0  0  0
   -1.5566    1.1294   -2.6259 H   0  0  0  0  0  0  0  0  0  0  0  0
    0.1427   -0.3710   -2.5995 H   0  0  0  0  0  0  0  0  0  0  0  0
    1.1724    1.0618   -2.7286 H   0  0  0  0  0  0  0  0  0  0  0  0
   -0.1744   -1.5809   -0.8250 H   0  0  0  0  0  0  0  0  0  0  0  0
    0.2756   -1.1759    0.8492 H   0  0  0  0  0  0  0  0  0  0  0  0
   -1.5880   -0.0051    1.1250 H   0  0  0  0  0  0  0  0  0  0  0  0
   -4.4577    0.0016   -0.4961 H   0  0  0  0  0  0  0  0  0  0  0  0
   -5.2036   -1.6338   -1.7958 H   0  0  0  0  0  0  0  0  0  0  0  0
   -4.0127   -2.8114   -1.2841 H   0  0  0  0  0  0  0  0  0  0  0  0
   -5.2396   -3.5815    0.5766 H   0  0  0  0  0  0  0  0  0  0  0  0
   -6.5665   -2.9633   -0.4127 H   0  0  0  0  0  0  0  0  0  0  0  0
   -6.2319   -1.9302    2.0399 H   0  0  0  0  0  0  0  0  0  0  0  0
   -6.4111   -0.7705    0.6051 H   0  0  0  0  0  0  0  0  0  0  0  0
   -3.8716   -2.0225    1.7219 H   0  0  0  0  0  0  0  0  0  0  0  0
   -4.3588   -0.3399    1.9386 H   0  0  0  0  0  0  0  0  0  0  0  0
   -2.4240   -1.9571   -2.1964 H   0  0  0  0  0  0  0  0  0  0  0  0
   -1.2484   -2.4409    0.6737 H   0  0  0  0  0  0  0  0  0  0  0  0
   -1.7148   -2.9507   -0.9379 H   0  0  0  0  0  0  0  0  0  0  0  0
   -2.9364   -3.0608    0.3156 H   0  0  0  0  0  0  0  0  0  0  0  0
   -0.5919    1.8035    1.5265 H   0  0  0  0  0  0  0  0  0  0  0  0
    4.2627    0.7352   -0.7868 H   0  0  0  0  0  0  0  0  0  0  0  0
    3.5589    0.5148   -2.3840 H   0  0  0  0  0  0  0  0  0  0  0  0
    2.3241   -1.1384   -1.5869 H   0  0  0  0  0  0  0  0  0  0  0  0
    3.8378    0.8172    1.1332 H   0  0  0  0  0  0  0  0  0  0  0  0
    3.0905   -0.2072    2.3440 H   0  0  0  0  0  0  0  0  0  0  0  0
    1.0141    0.5904    2.1856 H   0  0  0  0  0  0  0  0  0  0  0  0
    2.0343    2.0515    1.9676 H   0  0  0  0  0  0  0  0  0  0  0  0
    3.7123   -2.4987   -0.4350 H   0  0  0  0  0  0  0  0  0  0  0  0
    4.7751   -1.0393   -0.0914 H   0  0  0  0  0  0  0  0  0  0  0  0
    4.5375   -1.6216    2.4299 H   0  0  0  0  0  0  0  0  0  0  0  0
    6.5302   -3.0543    2.0417 H   0  0  0  0  0  0  0  0  0  0  0  0
    6.0312   -3.3058    0.2776 H   0  0  0  0  0  0  0  0  0  0  0  0
    3.8732   -4.3736    0.9590 H   0  0  0  0  0  0  0  0  0  0  0  0
    4.4079   -4.1726    2.7187 H   0  0  0  0  0  0  0  0  0  0  0  0
    4.2866    2.9836   -2.5388 H   0  0  0  0  0  0  0  0  0  0  0  0
    3.2018    5.2421   -2.5448 H   0  0  0  0  0  0  0  0  0  0  0  0
    0.5158    6.2856   -0.4139 H   0  0  0  0  0  0  0  0  0  0  0  0
  1  2  1  0
  3  2  1  6
  3  4  1  0
  4  5  1  0
  6  5  1  6
  6  7  1  0
  7  8  1  0
  8  9  1  0
  9 10  1  0
 10 11  1  0
 11 12  1  0
 12 13  1  0
 13 14  1  0
  9 15  1  6
  9 16  1  0
  6 17  1  0
 17 18  1  0
 18 19  1  0
 19 20  1  0
 20 21  2  0
 21 22  1  0
 22 23  1  0
 23 24  1  0
 24 25  1  0
 25 26  1  0
 26 27  1  0
 25 28  1  0
 28 29  1  0
 29 30  1  0
 30 31  1  0
 22 32  2  0
 32 33  1  0
 33 34  2  0
 34 35  1  0
  8  3  1  0
 14 10  1  0
 17 27  1  1
 31 29  1  0
 18  3  1  0
 34 20  1  0
 24  6  1  0
 21 17  1  0
  1 36  1  0
  1 37  1  0
  1 38  1  0
  4 39  1  0
  4 40  1  0
  5 41  1  0
  5 42  1  0
  7 43  1  0
  7 44  1  0
  8 45  1  1
 10 46  1  0
 11 47  1  0
 11 48  1  0
 12 49  1  0
 12 50  1  0
 13 51  1  0
 13 52  1  0
 14 53  1  0
 14 54  1  0
 15 55  1  0
 16 56  1  0
 16 57  1  0
 16 58  1  0
 18 59  1  1
 23 60  1  0
 23 61  1  0
 24 62  1  6
 26 63  1  0
 26 64  1  0
 27 65  1  0
 27 66  1  0
 28 67  1  0
 28 68  1  0
 29 69  1  0
 30 70  1  0
 30 71  1  0
 31 72  1  0
 31 73  1  0
 32 74  1  0
 33 75  1  0
 35 76  1  0
M  END
>  <Ligand ID>  (1) 
LIG0005085

>  <Ligand>  (1) 
CHEMBL2338746

>  <SMILES>  (1) 
CO[C@]12CC[C@]3(C[C@@H]1[C@@](C1CCCC1)(O)C)[C@@]14[C@H]2Oc2c4c(C[C@H]3N(CC1)CC1CC1)ccc2O

>  <CID>  (1) 
71624661.0

>  <ChEMBL ID>  (1) 
nan

>  <InChiKey>  (1) 
IPFGLNZEKYZGIT-XELDOGJXSA-N

>  <InChi>  (1) 
InChI=1S/C30H41NO4/c1-27(33,20-5-3-4-6-20)22-16-28-11-12-30(22,34-2)26-29(28)13-14-31(17-18-7-8-18)23(28)15-19-9-10-21(32)25(35-26)24(19)29/h9-10,18,20,22-23,26,32-33H,3-8,11-17H2,1-2H3/t22-,23-,26-,27-,28-,29+,30-/m1/s1

>  <IUPAC Name>  (1) 
(1S,2S,6R,14R,15R,16R)-16-[(1R)-1-cyclopentyl-1-hydroxyethyl]-5-(cyclopropylmethyl)-15-methoxy-13-oxa-5-azahexacyclo[13.2.2.12,8.01,6.02,14.012,20]icosa-8(20),9,11-trien-11-ol

$$$$
