
     RDKit          3D

 30 30  0  0  0  0  0  0  0  0999 V2000
    6.2552   -0.0691    2.2427 C   0  0  0  0  0  0  0  0  0  0  0  0
    4.8668   -0.1219    1.7304 C   0  0  0  0  0  0  0  0  0  0  0  0
    4.5230    0.2276    0.4984 C   0  0  0  0  0  0  0  0  0  0  0  0
    3.1350    0.1152    0.1635 C   0  0  0  0  0  0  0  0  0  0  0  0
    1.9668    0.0415   -0.1136 C   0  0  0  0  0  0  0  0  0  0  0  0
    0.5765   -0.0381   -0.4668 C   0  0  0  0  0  0  0  0  0  0  0  0
   -0.3255   -0.7117    0.3796 C   0  0  0  0  0  0  0  0  0  0  0  0
   -1.6691   -0.7796   -0.0164 C   0  0  0  0  0  0  0  0  0  0  0  0
   -2.1312   -0.2251   -1.1765 C   0  0  0  0  0  0  0  0  0  0  0  0
   -1.2200    0.4267   -1.9803 C   0  0  0  0  0  0  0  0  0  0  0  0
    0.0924    0.5141   -1.6295 C   0  0  0  0  0  0  0  0  0  0  0  0
   -1.5973    0.9967   -3.1511 F   0  0  0  0  0  0  0  0  0  0  0  0
   -3.5614   -0.3450   -1.5342 C   0  0  0  0  0  0  0  0  0  0  0  0
   -4.2935    0.9315   -1.2405 C   0  0  0  0  0  0  0  0  0  0  0  0
   -4.2054    1.2672    0.2266 C   0  0  0  0  0  0  0  0  0  0  0  0
   -3.4594    2.1680    0.6768 O   0  0  0  0  0  0  0  0  0  0  0  0
   -5.0304    0.4822    1.0572 O   0  0  0  0  0  0  0  0  0  0  0  0
    6.3465    0.7478    3.0220 H   0  0  0  0  0  0  0  0  0  0  0  0
    6.3928   -1.0060    2.8472 H   0  0  0  0  0  0  0  0  0  0  0  0
    7.0244    0.0736    1.4694 H   0  0  0  0  0  0  0  0  0  0  0  0
    4.1083   -0.4694    2.4448 H   0  0  0  0  0  0  0  0  0  0  0  0
    5.2831    0.5779   -0.1992 H   0  0  0  0  0  0  0  0  0  0  0  0
    0.0144   -1.1525    1.2875 H   0  0  0  0  0  0  0  0  0  0  0  0
   -2.3044   -1.3146    0.6974 H   0  0  0  0  0  0  0  0  0  0  0  0
    0.7998    1.0362   -2.2496 H   0  0  0  0  0  0  0  0  0  0  0  0
   -3.7094   -0.5568   -2.6125 H   0  0  0  0  0  0  0  0  0  0  0  0
   -4.0448   -1.1948   -1.0004 H   0  0  0  0  0  0  0  0  0  0  0  0
   -3.8427    1.7699   -1.7994 H   0  0  0  0  0  0  0  0  0  0  0  0
   -5.3584    0.8520   -1.5699 H   0  0  0  0  0  0  0  0  0  0  0  0
   -4.6320    0.3049    1.9963 H   0  0  0  0  0  0  0  0  0  0  0  0
  1  2  1  0
  2  3  2  0
  3  4  1  0
  4  5  3  0
  5  6  1  0
  6  7  2  0
  7  8  1  0
  8  9  2  0
  9 10  1  0
 10 11  2  0
 10 12  1  0
  9 13  1  0
 13 14  1  0
 14 15  1  0
 15 16  2  0
 15 17  1  0
 11  6  1  0
  1 18  1  0
  1 19  1  0
  1 20  1  0
  2 21  1  0
  3 22  1  0
  7 23  1  0
  8 24  1  0
 11 25  1  0
 13 26  1  0
 13 27  1  0
 14 28  1  0
 14 29  1  0
 17 30  1  0
M  END
>  <Ligand ID>  (1) 
LIG0005585

>  <Ligand>  (1) 
CHEMBL3786526

>  <SMILES>  (1) 
C/C=C/C#Cc1ccc(c(c1)F)CCC(=O)O

>  <CID>  (1) 
127031002.0

>  <ChEMBL ID>  (1) 
nan

>  <InChiKey>  (1) 
PGTJSAIUYORJJG-NSCUHMNNSA-N

>  <InChi>  (1) 
InChI=1S/C14H13FO2/c1-2-3-4-5-11-6-7-12(13(15)10-11)8-9-14(16)17/h2-3,6-7,10H,8-9H2,1H3,(H,16,17)/b3-2+

>  <IUPAC Name>  (1) 
3-[2-fluoro-4-[(E)-pent-3-en-1-ynyl]phenyl]propanoic acid

$$$$
