
     RDKit          3D

 47 49  0  0  0  0  0  0  0  0999 V2000
   -4.8550   -2.2231   -3.1760 N   0  0  0  0  0  0  0  0  0  0  0  0
   -4.6161   -1.4597   -2.3551 C   0  0  0  0  0  0  0  0  0  0  0  0
   -4.3325   -0.5021   -1.3147 C   0  0  0  0  0  0  0  0  0  0  0  0
   -3.0226   -0.2865   -1.0022 C   0  0  0  0  0  0  0  0  0  0  0  0
   -2.6733    0.6076   -0.0253 C   0  0  0  0  0  0  0  0  0  0  0  0
   -3.6653    1.2880    0.6383 C   0  0  0  0  0  0  0  0  0  0  0  0
   -4.9904    1.0570    0.3078 C   0  0  0  0  0  0  0  0  0  0  0  0
   -5.3938    0.1725   -0.6609 C   0  0  0  0  0  0  0  0  0  0  0  0
   -6.6213   -0.1324   -1.0678 O   0  0  0  0  0  0  0  0  0  0  0  0
   -7.8875    0.2270   -0.7348 C   0  0  0  0  0  0  0  0  0  0  0  0
   -8.4054   -0.1189    0.6329 C   0  0  0  0  0  0  0  0  0  0  0  0
   -8.3720   -1.5007    0.8092 F   0  0  0  0  0  0  0  0  0  0  0  0
   -9.7525    0.3074    0.6275 F   0  0  0  0  0  0  0  0  0  0  0  0
   -7.7901    0.4680    1.6825 F   0  0  0  0  0  0  0  0  0  0  0  0
   -1.2811    0.8517    0.3236 C   0  0  0  0  0  0  0  0  0  0  0  0
   -0.8015    1.6734    1.2263 O   0  0  0  0  0  0  0  0  0  0  0  0
    0.4911    1.6320    1.2662 N   0  0  0  0  0  0  0  0  0  0  0  0
    0.9191    0.7449    0.3528 C   0  0  0  0  0  0  0  0  0  0  0  0
   -0.1973    0.2673   -0.2261 N   0  0  0  0  0  0  0  0  0  0  0  0
    2.2893    0.3465    0.0186 C   0  0  0  0  0  0  0  0  0  0  0  0
    2.5132   -0.5974   -0.9605 C   0  0  0  0  0  0  0  0  0  0  0  0
    3.8106   -0.9567   -1.2566 C   0  0  0  0  0  0  0  0  0  0  0  0
    4.9077   -0.3975   -0.5987 C   0  0  0  0  0  0  0  0  0  0  0  0
    4.6442    0.5349    0.3643 C   0  0  0  0  0  0  0  0  0  0  0  0
    3.3539    0.9160    0.6843 C   0  0  0  0  0  0  0  0  0  0  0  0
    3.1180    1.9402    1.7465 C   0  0  0  0  0  0  0  0  0  0  0  0
    6.2388   -0.8432   -1.0360 C   0  0  0  0  0  0  0  0  0  0  0  0
    6.6008   -2.1491   -0.4463 C   0  0  0  0  0  0  0  0  0  0  0  0
    6.6595   -2.1555    1.0164 C   0  0  0  0  0  0  0  0  0  0  0  0
    6.4699   -1.1961    1.7876 O   0  0  0  0  0  0  0  0  0  0  0  0
    6.9641   -3.3804    1.6307 O   0  0  0  0  0  0  0  0  0  0  0  0
   -2.2340   -0.8133   -1.5153 H   0  0  0  0  0  0  0  0  0  0  0  0
   -3.3986    2.0063    1.4222 H   0  0  0  0  0  0  0  0  0  0  0  0
   -5.7134    1.6392    0.8500 H   0  0  0  0  0  0  0  0  0  0  0  0
   -7.9764    1.3575   -0.8973 H   0  0  0  0  0  0  0  0  0  0  0  0
   -8.6526   -0.2321   -1.4501 H   0  0  0  0  0  0  0  0  0  0  0  0
    1.6836   -1.0646   -1.5048 H   0  0  0  0  0  0  0  0  0  0  0  0
    3.9453   -1.7089   -2.0395 H   0  0  0  0  0  0  0  0  0  0  0  0
    5.4335    1.0340    0.9036 H   0  0  0  0  0  0  0  0  0  0  0  0
    4.0988    2.2603    2.1636 H   0  0  0  0  0  0  0  0  0  0  0  0
    2.5782    2.7748    1.2628 H   0  0  0  0  0  0  0  0  0  0  0  0
    2.4976    1.4689    2.5329 H   0  0  0  0  0  0  0  0  0  0  0  0
    6.2382   -0.9069   -2.1559 H   0  0  0  0  0  0  0  0  0  0  0  0
    7.0056   -0.0659   -0.8137 H   0  0  0  0  0  0  0  0  0  0  0  0
    7.5840   -2.4972   -0.8640 H   0  0  0  0  0  0  0  0  0  0  0  0
    5.8676   -2.9646   -0.7465 H   0  0  0  0  0  0  0  0  0  0  0  0
    6.7202   -3.5036    2.5976 H   0  0  0  0  0  0  0  0  0  0  0  0
  1  2  3  0
  2  3  1  0
  3  4  2  0
  4  5  1  0
  5  6  2  0
  6  7  1  0
  7  8  2  0
  8  9  1  0
  9 10  1  0
 10 11  1  0
 11 12  1  0
 11 13  1  0
 11 14  1  0
  5 15  1  0
 15 16  1  0
 16 17  1  0
 17 18  2  0
 18 19  1  0
 18 20  1  0
 20 21  2  0
 21 22  1  0
 22 23  2  0
 23 24  1  0
 24 25  2  0
 25 26  1  0
 23 27  1  0
 27 28  1  0
 28 29  1  0
 29 30  2  0
 29 31  1  0
  8  3  1  0
 19 15  2  0
 25 20  1  0
  4 32  1  0
  6 33  1  0
  7 34  1  0
 10 35  1  0
 10 36  1  0
 21 37  1  0
 22 38  1  0
 24 39  1  0
 26 40  1  0
 26 41  1  0
 26 42  1  0
 27 43  1  0
 27 44  1  0
 28 45  1  0
 28 46  1  0
 31 47  1  0
M  END
>  <Ligand ID>  (1) 
LIG0001687

>  <Ligand>  (1) 
CHEMBL379380

>  <SMILES>  (1) 
N#Cc1cc(ccc1OCC(F)(F)F)c1onc(n1)c1ccc(cc1C)CCC(=O)O

>  <CID>  (1) 
16038017.0

>  <ChEMBL ID>  (1) 
nan

>  <InChiKey>  (1) 
OSCNJELCHLTPPM-UHFFFAOYSA-N

>  <InChi>  (1) 
InChI=1S/C21H16F3N3O4/c1-12-8-13(3-7-18(28)29)2-5-16(12)19-26-20(31-27-19)14-4-6-17(15(9-14)10-25)30-11-21(22,23)24/h2,4-6,8-9H,3,7,11H2,1H3,(H,28,29)

>  <IUPAC Name>  (1) 
3-[4-[5-[3-cyano-4-(2,2,2-trifluoroethoxy)phenyl]-1,2,4-oxadiazol-3-yl]-3-methylphenyl]propanoic acid

$$$$
