
     RDKit          3D

 27 29  0  0  0  0  0  0  0  0999 V2000
    3.9587    2.8678    0.4906 N   0  0  0  0  0  0  0  0  0  0  0  0
    3.4333    1.8441    0.3002 C   0  0  0  0  0  0  0  0  0  0  0  0
    2.7824    0.5837    0.0538 C   0  0  0  0  0  0  0  0  0  0  0  0
    3.5440   -0.5653   -0.0272 C   0  0  0  0  0  0  0  0  0  0  0  0
    2.8938   -1.7595   -0.2643 C   0  0  0  0  0  0  0  0  0  0  0  0
    1.5228   -1.8458   -0.4217 C   0  0  0  0  0  0  0  0  0  0  0  0
    0.7765   -0.6949   -0.3388 C   0  0  0  0  0  0  0  0  0  0  0  0
    1.4095    0.5117   -0.1019 C   0  0  0  0  0  0  0  0  0  0  0  0
    0.4195    1.5864   -0.0555 C   0  0  0  0  0  0  0  0  0  0  0  0
    0.6475    2.8244    0.1429 O   0  0  0  0  0  0  0  0  0  0  0  0
   -0.8264    0.9771   -0.2734 N   0  0  0  0  0  0  0  0  0  0  0  0
   -0.6628   -0.4730   -0.4601 C   0  0  0  0  0  0  0  0  0  0  0  0
   -1.5157   -1.0897    0.5915 C   0  0  0  0  0  0  0  0  0  0  0  0
   -2.8879   -0.8336    0.2919 N   0  0  0  0  0  0  0  0  0  0  0  0
   -3.2193    0.4271   -0.2468 C   0  0  0  0  0  0  0  0  0  0  0  0
   -2.1818    1.4735   -0.3472 C   0  0  0  0  0  0  0  0  0  0  0  0
    4.6052   -0.4970    0.0949 H   0  0  0  0  0  0  0  0  0  0  0  0
    3.5058   -2.6697   -0.3275 H   0  0  0  0  0  0  0  0  0  0  0  0
    1.0402   -2.8091   -0.6085 H   0  0  0  0  0  0  0  0  0  0  0  0
   -1.0633   -0.6477   -1.4813 H   0  0  0  0  0  0  0  0  0  0  0  0
   -1.1837   -0.7398    1.5888 H   0  0  0  0  0  0  0  0  0  0  0  0
   -1.3725   -2.1982    0.5547 H   0  0  0  0  0  0  0  0  0  0  0  0
   -3.3591   -1.6370   -0.1904 H   0  0  0  0  0  0  0  0  0  0  0  0
   -4.0704    0.8333    0.3468 H   0  0  0  0  0  0  0  0  0  0  0  0
   -3.6547    0.2476   -1.2752 H   0  0  0  0  0  0  0  0  0  0  0  0
   -2.2601    2.0536   -1.2907 H   0  0  0  0  0  0  0  0  0  0  0  0
   -2.2815    2.2301    0.4803 H   0  0  0  0  0  0  0  0  0  0  0  0
  1  2  3  0
  2  3  1  0
  3  4  2  0
  4  5  1  0
  5  6  2  0
  6  7  1  0
  7  8  2  0
  8  9  1  0
  9 10  2  0
  9 11  1  0
 11 12  1  0
 12 13  1  0
 13 14  1  0
 14 15  1  0
 15 16  1  0
  8  3  1  0
 16 11  1  0
 12  7  1  0
  4 17  1  0
  5 18  1  0
  6 19  1  0
 12 20  1  0
 13 21  1  0
 13 22  1  0
 14 23  1  0
 15 24  1  0
 15 25  1  0
 16 26  1  0
 16 27  1  0
M  END
>  <Ligand ID>  (1) 
LIG0003226

>  <Ligand>  (1) 
CHEMBL223090

>  <SMILES>  (1) 
N#Cc1cccc2c1C(=O)N1C2CNCC1

>  <CID>  (1) 
11288140.0

>  <ChEMBL ID>  (1) 
nan

>  <InChiKey>  (1) 
HFARURMVYRLLSP-UHFFFAOYSA-N

>  <InChi>  (1) 
InChI=1S/C12H11N3O/c13-6-8-2-1-3-9-10-7-14-4-5-15(10)12(16)11(8)9/h1-3,10,14H,4-5,7H2

>  <IUPAC Name>  (1) 
6-oxo-2,3,4,10b-tetrahydro-1H-pyrazino[2,1-a]isoindole-7-carbonitrile

$$$$
