
     RDKit          3D

 24 25  0  0  0  0  0  0  0  0999 V2000
    4.0308    0.0751   -0.4292 C   0  0  0  0  0  0  0  0  0  0  0  0
    2.7245   -0.3037   -0.0306 O   0  0  0  0  0  0  0  0  0  0  0  0
    1.6374    0.5028   -0.3366 C   0  0  0  0  0  0  0  0  0  0  0  0
    1.5699    1.6653   -0.9880 N   0  0  0  0  0  0  0  0  0  0  0  0
    0.3209    2.0615   -1.0380 O   0  0  0  0  0  0  0  0  0  0  0  0
   -0.4664    1.2178   -0.4480 C   0  0  0  0  0  0  0  0  0  0  0  0
    0.3446    0.1887    0.0232 C   0  0  0  0  0  0  0  0  0  0  0  0
   -0.0925   -1.0017    0.7613 C   0  0  0  0  0  0  0  0  0  0  0  0
   -0.9643   -1.8257   -0.0388 N   0  0  0  0  0  0  0  0  0  0  0  0
   -2.1398   -1.1490   -0.4946 C   0  0  0  0  0  0  0  0  0  0  0  0
   -2.5313    0.0783    0.2497 C   0  0  0  0  0  0  0  0  0  0  0  0
   -1.9520    1.3577   -0.3191 C   0  0  0  0  0  0  0  0  0  0  0  0
    4.3169    1.0481    0.0122 H   0  0  0  0  0  0  0  0  0  0  0  0
    4.0483    0.0535   -1.5320 H   0  0  0  0  0  0  0  0  0  0  0  0
    4.7563   -0.6801   -0.0584 H   0  0  0  0  0  0  0  0  0  0  0  0
    0.8181   -1.6338    0.9697 H   0  0  0  0  0  0  0  0  0  0  0  0
   -0.5046   -0.7344    1.7425 H   0  0  0  0  0  0  0  0  0  0  0  0
   -0.3786   -2.1572   -0.8568 H   0  0  0  0  0  0  0  0  0  0  0  0
   -2.9911   -1.8881   -0.4625 H   0  0  0  0  0  0  0  0  0  0  0  0
   -2.0041   -0.8990   -1.5548 H   0  0  0  0  0  0  0  0  0  0  0  0
   -3.6466    0.1847    0.1371 H   0  0  0  0  0  0  0  0  0  0  0  0
   -2.3687    0.0275    1.3408 H   0  0  0  0  0  0  0  0  0  0  0  0
   -2.1118    2.1501    0.4543 H   0  0  0  0  0  0  0  0  0  0  0  0
   -2.4161    1.6616   -1.2611 H   0  0  0  0  0  0  0  0  0  0  0  0
  1  2  1  0
  2  3  1  0
  3  4  2  0
  4  5  1  0
  5  6  1  0
  6  7  2  0
  7  8  1  0
  8  9  1  0
  9 10  1  0
 10 11  1  0
 11 12  1  0
  7  3  1  0
 12  6  1  0
  1 13  1  0
  1 14  1  0
  1 15  1  0
  8 16  1  0
  8 17  1  0
  9 18  1  0
 10 19  1  0
 10 20  1  0
 11 21  1  0
 11 22  1  0
 12 23  1  0
 12 24  1  0
M  END
>  <Ligand ID>  (1) 
LIG0000996

>  <Ligand>  (1) 
CHEMBL304142

>  <SMILES>  (1) 
COc1noc2c1CNCCC2

>  <CID>  (1) 
10442081.0

>  <ChEMBL ID>  (1) 
nan

>  <InChiKey>  (1) 
MMAAVQKZYQKTJY-UHFFFAOYSA-N

>  <InChi>  (1) 
InChI=1S/C8H12N2O2/c1-11-8-6-5-9-4-2-3-7(6)12-10-8/h9H,2-5H2,1H3

>  <IUPAC Name>  (1) 
3-methoxy-5,6,7,8-tetrahydro-4H-[1,2]oxazolo[4,5-c]azepine

$$$$
