
     RDKit          3D

 93 96  0  0  0  0  0  0  0  0999 V2000
   -0.3484    6.7735    3.0382 N   0  0  0  0  0  0  0  0  0  0  0  0
   -1.4463    5.8972    2.7627 C   0  0  0  0  0  0  0  0  0  0  0  0
   -1.2628    4.6174    2.6862 N   0  0  0  0  0  0  0  0  0  0  0  0
   -2.4030    3.7397    2.4025 C   0  0  0  0  0  0  0  0  0  0  0  0
   -2.7254    3.8495    0.9275 C   0  0  0  0  0  0  0  0  0  0  0  0
   -1.6230    3.4194    0.0267 C   0  0  0  0  0  0  0  0  0  0  0  0
   -1.1961    1.9840    0.1671 C   0  0  1  0  0  0  0  0  0  0  0  0
   -2.2980    1.0297   -0.1180 C   0  0  0  0  0  0  0  0  0  0  0  0
   -2.1748    0.3649   -1.2013 O   0  0  0  0  0  0  0  0  0  0  0  0
   -3.4250    0.7889    0.6658 N   0  0  0  0  0  0  0  0  0  0  0  0
   -4.3779   -0.2200    0.1631 C   0  0  2  0  0  0  0  0  0  0  0  0
   -5.7816    0.2252    0.3100 C   0  0  0  0  0  0  0  0  0  0  0  0
   -6.1140    1.3413    0.8092 O   0  0  0  0  0  0  0  0  0  0  0  0
   -6.8272   -0.6240   -0.1226 N   0  0  0  0  0  0  0  0  0  0  0  0
   -4.1977   -1.3835    1.1654 C   0  0  0  0  0  0  0  0  0  0  0  0
   -5.0719   -2.5286    0.8111 C   0  0  0  0  0  0  0  0  0  0  0  0
   -6.2568   -2.9556    1.3660 C   0  0  0  0  0  0  0  0  0  0  0  0
   -6.6512   -4.0509    0.6744 N   0  0  0  0  0  0  0  0  0  0  0  0
   -5.7532   -4.3304   -0.3005 C   0  0  0  0  0  0  0  0  0  0  0  0
   -4.7639   -3.3902   -0.2279 C   0  0  0  0  0  0  0  0  0  0  0  0
   -3.6844   -3.4247   -1.1188 C   0  0  0  0  0  0  0  0  0  0  0  0
   -3.6039   -4.3952   -2.0702 C   0  0  0  0  0  0  0  0  0  0  0  0
   -4.5842   -5.3573   -2.1694 C   0  0  0  0  0  0  0  0  0  0  0  0
   -5.6385   -5.2983   -1.2770 C   0  0  0  0  0  0  0  0  0  0  0  0
   -0.1018    1.7085   -0.8027 N   0  0  0  0  0  0  0  0  0  0  0  0
    1.0855    1.0909   -0.3247 C   0  0  0  0  0  0  0  0  0  0  0  0
    1.1802    0.8027    0.9026 O   0  0  0  0  0  0  0  0  0  0  0  0
    2.2153    0.7804   -1.2841 C   0  0  2  0  0  0  0  0  0  0  0  0
    3.2806    0.0512   -0.6696 N   0  0  0  0  0  0  0  0  0  0  0  0
    3.2953   -1.3541   -0.7292 C   0  0  0  0  0  0  0  0  0  0  0  0
    2.3124   -1.9056   -1.3363 O   0  0  0  0  0  0  0  0  0  0  0  0
    4.3032   -2.2724   -0.1812 C   0  0  2  0  0  0  0  0  0  0  0  0
    3.7059   -3.3328    0.7168 C   0  0  0  0  0  0  0  0  0  0  0  0
    3.0204   -2.8397    1.9028 C   0  0  0  0  0  0  0  0  0  0  0  0
    2.3981   -3.6679    2.7974 N   0  0  0  0  0  0  0  0  0  0  0  0
    1.8744   -2.9379    3.7898 C   0  0  0  0  0  0  0  0  0  0  0  0
    2.1386   -1.6201    3.5720 N   0  0  0  0  0  0  0  0  0  0  0  0
    2.8358   -1.5783    2.4224 C   0  0  0  0  0  0  0  0  0  0  0  0
    5.4476   -1.6377    0.4163 N   0  0  0  0  0  0  0  0  0  0  0  0
    6.7678   -1.9276   -0.0958 C   0  0  0  0  0  0  0  0  0  0  0  0
    6.8854   -2.7445   -1.0717 O   0  0  0  0  0  0  0  0  0  0  0  0
    7.9887   -1.3138    0.4662 C   0  0  0  0  0  0  0  0  0  0  0  0
    2.6001    1.9834   -2.0466 C   0  0  0  0  0  0  0  0  0  0  0  0
    3.7016    1.6583   -2.9736 C   0  0  0  0  0  0  0  0  0  0  0  0
    5.0017    1.8267   -2.4754 C   0  0  0  0  0  0  0  0  0  0  0  0
    6.0683    1.5266   -3.3258 C   0  0  0  0  0  0  0  0  0  0  0  0
    5.8367    1.0742   -4.6299 C   0  0  0  0  0  0  0  0  0  0  0  0
    4.5586    0.9117   -5.1106 C   0  0  0  0  0  0  0  0  0  0  0  0
    3.5043    1.2081   -4.2697 C   0  0  0  0  0  0  0  0  0  0  0  0
    4.3069    0.3440   -6.7471 Cl  0  0  0  0  0  0  0  0  0  0  0  0
   -2.7442    6.4899    2.5793 N   0  0  0  0  0  0  0  0  0  0  0  0
    0.5835    6.4985    2.7187 H   0  0  0  0  0  0  0  0  0  0  0  0
   -0.5609    7.6687    3.5643 H   0  0  0  0  0  0  0  0  0  0  0  0
   -2.0488    2.7309    2.6956 H   0  0  0  0  0  0  0  0  0  0  0  0
   -3.2382    4.0989    3.0287 H   0  0  0  0  0  0  0  0  0  0  0  0
   -2.8531    4.9656    0.7360 H   0  0  0  0  0  0  0  0  0  0  0  0
   -3.7116    3.4340    0.6549 H   0  0  0  0  0  0  0  0  0  0  0  0
   -0.7626    4.1194    0.1916 H   0  0  0  0  0  0  0  0  0  0  0  0
   -1.9793    3.6364   -1.0255 H   0  0  0  0  0  0  0  0  0  0  0  0
   -0.7562    1.8330    1.1604 H   0  0  0  0  0  0  0  0  0  0  0  0
   -3.5735    1.2861    1.5597 H   0  0  0  0  0  0  0  0  0  0  0  0
   -4.1120   -0.5423   -0.8421 H   0  0  0  0  0  0  0  0  0  0  0  0
   -7.7510   -0.6442    0.4004 H   0  0  0  0  0  0  0  0  0  0  0  0
   -6.6792   -1.2369   -0.9712 H   0  0  0  0  0  0  0  0  0  0  0  0
   -4.5225   -0.9781    2.1417 H   0  0  0  0  0  0  0  0  0  0  0  0
   -3.1157   -1.6384    1.1770 H   0  0  0  0  0  0  0  0  0  0  0  0
   -6.7432   -2.4618    2.2091 H   0  0  0  0  0  0  0  0  0  0  0  0
   -7.5127   -4.5729    0.8824 H   0  0  0  0  0  0  0  0  0  0  0  0
   -2.8877   -2.6658   -1.0611 H   0  0  0  0  0  0  0  0  0  0  0  0
   -2.7874   -4.4675   -2.7843 H   0  0  0  0  0  0  0  0  0  0  0  0
   -4.5626   -6.1544   -2.9142 H   0  0  0  0  0  0  0  0  0  0  0  0
   -6.4146   -6.0471   -1.3431 H   0  0  0  0  0  0  0  0  0  0  0  0
   -0.2633    1.9791   -1.7951 H   0  0  0  0  0  0  0  0  0  0  0  0
    1.7124    0.0749   -1.9959 H   0  0  0  0  0  0  0  0  0  0  0  0
    4.0920    0.5044   -0.1526 H   0  0  0  0  0  0  0  0  0  0  0  0
    4.6914   -2.8613   -1.0714 H   0  0  0  0  0  0  0  0  0  0  0  0
    3.0653   -3.9568    0.0545 H   0  0  0  0  0  0  0  0  0  0  0  0
    4.5615   -3.9953    1.0303 H   0  0  0  0  0  0  0  0  0  0  0  0
    2.3213   -4.7033    2.7508 H   0  0  0  0  0  0  0  0  0  0  0  0
    1.3273   -3.3298    4.6303 H   0  0  0  0  0  0  0  0  0  0  0  0
    3.1995   -0.6649    1.9865 H   0  0  0  0  0  0  0  0  0  0  0  0
    5.4287   -0.9621    1.2079 H   0  0  0  0  0  0  0  0  0  0  0  0
    8.4602   -0.5624   -0.2159 H   0  0  0  0  0  0  0  0  0  0  0  0
    7.8797   -0.9053    1.4731 H   0  0  0  0  0  0  0  0  0  0  0  0
    8.7177   -2.1733    0.5804 H   0  0  0  0  0  0  0  0  0  0  0  0
    1.7357    2.2586   -2.7096 H   0  0  0  0  0  0  0  0  0  0  0  0
    2.7787    2.8911   -1.4428 H   0  0  0  0  0  0  0  0  0  0  0  0
    5.1798    2.1768   -1.4692 H   0  0  0  0  0  0  0  0  0  0  0  0
    7.0767    1.6546   -2.9416 H   0  0  0  0  0  0  0  0  0  0  0  0
    6.7303    0.8714   -5.2047 H   0  0  0  0  0  0  0  0  0  0  0  0
    2.4773    1.1014   -4.5889 H   0  0  0  0  0  0  0  0  0  0  0  0
   -2.9458    7.1999    1.8554 H   0  0  0  0  0  0  0  0  0  0  0  0
   -3.4952    6.1441    3.2474 H   0  0  0  0  0  0  0  0  0  0  0  0
  1  2  1  0
  2  3  2  3
  3  4  1  0
  4  5  1  0
  5  6  1  0
  6  7  1  0
  7  8  1  0
  8  9  2  0
  8 10  1  0
 10 11  1  0
 11 12  1  0
 12 13  2  0
 12 14  1  0
 11 15  1  0
 15 16  1  0
 16 17  2  0
 17 18  1  0
 18 19  1  0
 19 20  2  0
 20 21  1  0
 21 22  2  0
 22 23  1  0
 23 24  2  0
  7 25  1  0
 25 26  1  0
 26 27  2  0
 26 28  1  0
 28 29  1  0
 29 30  1  0
 30 31  2  0
 30 32  1  0
 32 33  1  0
 33 34  1  0
 34 35  1  0
 35 36  1  0
 36 37  2  0
 37 38  1  0
 32 39  1  0
 39 40  1  0
 40 41  2  0
 40 42  1  0
 28 43  1  0
 43 44  1  0
 44 45  2  0
 45 46  1  0
 46 47  2  0
 47 48  1  0
 48 49  2  0
 48 50  1  0
  2 51  1  0
 20 16  1  0
 38 34  2  0
 49 44  1  0
 24 19  1  0
  1 52  1  0
  1 53  1  0
  4 54  1  0
  4 55  1  0
  5 56  1  0
  5 57  1  0
  6 58  1  0
  6 59  1  0
  7 60  1  1
 10 61  1  0
 11 62  1  6
 14 63  1  0
 14 64  1  0
 15 65  1  0
 15 66  1  0
 17 67  1  0
 18 68  1  0
 21 69  1  0
 22 70  1  0
 23 71  1  0
 24 72  1  0
 25 73  1  0
 28 74  1  6
 29 75  1  0
 32 76  1  6
 33 77  1  0
 33 78  1  0
 35 79  1  0
 36 80  1  0
 38 81  1  0
 39 82  1  0
 42 83  1  0
 42 84  1  0
 42 85  1  0
 43 86  1  0
 43 87  1  0
 45 88  1  0
 46 89  1  0
 47 90  1  0
 49 91  1  0
 51 92  1  0
 51 93  1  0
M  END
>  <Ligand ID>  (1) 
LIG0001426

>  <Ligand>  (1) 
CHEMBL510687

>  <SMILES>  (1) 
NC(=NCCC[C@@H](C(=O)N[C@H](C(=O)N)Cc1c[nH]c2c1cccc2)NC(=O)[C@H](NC(=O)[C@H](Cc1[nH]cnc1)NC(=O)C)Cc1cccc(c1)Cl)N

>  <CID>  (1) 
25108285.0

>  <ChEMBL ID>  (1) 
nan

>  <InChiKey>  (1) 
UKEQUTYGNFBBKH-FKWFRFQNSA-N

>  <InChi>  (1) 
InChI=1S/C34H42ClN11O5/c1-19(47)43-29(15-23-17-39-18-42-23)33(51)46-28(13-20-6-4-7-22(35)12-20)32(50)44-26(10-5-11-40-34(37)38)31(49)45-27(30(36)48)14-21-16-41-25-9-3-2-8-24(21)25/h2-4,6-9,12,16-18,26-29,41H,5,10-11,13-15H2,1H3,(H2,36,48)(H,39,42)(H,43,47)(H,44,50)(H,45,49)(H,46,51)(H4,37,38,40)/t26-,27-,28+,29-/m0/s1

>  <IUPAC Name>  (1) 
(2S)-2-[[(2R)-2-[[(2S)-2-acetamido-3-(1H-imidazol-5-yl)propanoyl]amino]-3-(3-chlorophenyl)propanoyl]amino]-N-[(2S)-1-amino-3-(1H-indol-3-yl)-1-oxopropan-2-yl]-5-(diaminomethylideneamino)pentanamide

$$$$
