
     RDKit          3D

167171  0  0  0  0  0  0  0  0999 V2000
  -13.1713   -4.1531    1.1674 C   0  0  0  0  0  0  0  0  0  0  0  0
  -11.7897   -3.7684    1.0455 N   0  0  0  0  0  0  0  0  0  0  0  0
  -11.4868   -2.5090    1.2556 C   0  0  0  0  0  0  0  0  0  0  0  0
  -10.0949   -2.1855    1.1203 N   0  0  0  0  0  0  0  0  0  0  0  0
   -9.1597   -3.1876    1.5112 C   0  0  0  0  0  0  0  0  0  0  0  0
   -7.7608   -2.8905    1.2137 C   0  0  0  0  0  0  0  0  0  0  0  0
   -7.2149   -2.8027   -0.1261 C   0  0  0  0  0  0  0  0  0  0  0  0
   -7.6170   -1.8700   -1.1863 C   0  0  1  0  0  0  0  0  0  0  0  0
   -8.9562   -1.8850   -1.7154 C   0  0  0  0  0  0  0  0  0  0  0  0
   -9.6069   -2.9740   -1.8265 O   0  0  0  0  0  0  0  0  0  0  0  0
   -9.6280   -0.7173   -2.1515 N   0  0  0  0  0  0  0  0  0  0  0  0
  -10.9688   -0.6946   -2.7043 C   0  0  2  0  0  0  0  0  0  0  0  0
  -10.8084   -1.2406   -4.1354 C   0  0  0  0  0  0  0  0  0  0  0  0
   -9.6815   -1.5688   -4.5589 O   0  0  0  0  0  0  0  0  0  0  0  0
  -12.0098   -1.3258   -4.8804 N   0  0  0  0  0  0  0  0  0  0  0  0
  -11.5758    0.6558   -2.7724 C   0  0  0  0  0  0  0  0  0  0  0  0
  -11.7405    1.3142   -1.4717 C   0  0  0  0  0  0  0  0  0  0  0  0
  -10.8680    2.2248   -0.8985 C   0  0  0  0  0  0  0  0  0  0  0  0
  -11.3114    2.6183    0.3036 N   0  0  0  0  0  0  0  0  0  0  0  0
  -12.4605    2.0016    0.5619 C   0  0  0  0  0  0  0  0  0  0  0  0
  -12.7595    1.1806   -0.5237 C   0  0  0  0  0  0  0  0  0  0  0  0
  -13.9273    0.4208   -0.5338 C   0  0  0  0  0  0  0  0  0  0  0  0
  -14.7715    0.5157    0.5708 C   0  0  0  0  0  0  0  0  0  0  0  0
  -14.4689    1.3269    1.6375 C   0  0  0  0  0  0  0  0  0  0  0  0
  -13.3221    2.0782    1.6585 C   0  0  0  0  0  0  0  0  0  0  0  0
   -7.0468   -0.5497   -0.8968 N   0  0  0  0  0  0  0  0  0  0  0  0
   -5.7692   -0.1949   -1.3543 C   0  0  0  0  0  0  0  0  0  0  0  0
   -5.1277   -1.0780   -2.0464 O   0  0  0  0  0  0  0  0  0  0  0  0
   -5.0428    1.0643   -1.1383 C   0  0  1  0  0  0  0  0  0  0  0  0
   -3.6325    0.8624   -1.6144 N   0  0  0  0  0  0  0  0  0  0  0  0
   -2.6339    0.4883   -0.6497 C   0  0  0  0  0  0  0  0  0  0  0  0
   -3.0212    0.3666    0.5195 O   0  0  0  0  0  0  0  0  0  0  0  0
   -1.3123    0.2844   -1.1106 N   0  0  0  0  0  0  0  0  0  0  0  0
   -0.2343   -0.1183   -0.3564 N   0  0  0  0  0  0  0  0  0  0  0  0
    0.7336    0.6985    0.2939 C   0  0  0  0  0  0  0  0  0  0  0  0
    0.6779    1.9538    0.2361 O   0  0  0  0  0  0  0  0  0  0  0  0
    1.7943   -0.0365    1.0211 C   0  0  1  0  0  0  0  0  0  0  0  0
    2.8769    0.7511    1.5292 N   0  0  0  0  0  0  0  0  0  0  0  0
    4.1619    0.5476    1.0557 C   0  0  0  0  0  0  0  0  0  0  0  0
    4.3103   -0.3433    0.1344 O   0  0  0  0  0  0  0  0  0  0  0  0
    5.4223    1.2092    1.4663 C   0  0  2  0  0  0  0  0  0  0  0  0
    5.4735    2.6669    1.2846 C   0  0  2  0  0  0  0  0  0  0  0  0
    6.7254    3.1790    1.6927 O   0  0  0  0  0  0  0  0  0  0  0  0
    4.4282    3.4363    2.0613 C   0  0  0  0  0  0  0  0  0  0  0  0
    6.5213    0.6349    0.6655 N   0  0  0  0  0  0  0  0  0  0  0  0
    6.8507   -0.7253    0.8394 C   0  0  0  0  0  0  0  0  0  0  0  0
    6.2034   -1.4377    1.6566 O   0  0  0  0  0  0  0  0  0  0  0  0
    7.9491   -1.4071    0.0914 C   0  0  1  0  0  0  0  0  0  0  0  0
    8.8329   -0.4055   -0.4371 N   0  0  0  0  0  0  0  0  0  0  0  0
    8.7449    0.2825   -1.6420 C   0  0  0  0  0  0  0  0  0  0  0  0
    7.8321    0.1248   -2.4911 O   0  0  0  0  0  0  0  0  0  0  0  0
    9.8008    1.2856   -1.9694 C   0  0  1  0  0  0  0  0  0  0  0  0
    9.3011    2.6818   -1.9471 C   0  0  0  0  0  0  0  0  0  0  0  0
   10.1163    3.3930   -0.9056 C   0  0  0  0  0  0  0  0  0  0  0  0
   10.6865    2.3235   -0.0056 C   0  0  0  0  0  0  0  0  0  0  0  0
   10.8810    1.2503   -1.0162 N   0  0  0  0  0  0  0  0  0  0  0  0
   12.0024    0.3936   -0.9032 C   0  0  0  0  0  0  0  0  0  0  0  0
   12.7437    0.6144    0.1299 O   0  0  0  0  0  0  0  0  0  0  0  0
   12.4359   -0.6889   -1.7812 C   0  0  1  0  0  0  0  0  0  0  0  0
   12.5092   -2.0350   -1.0765 C   0  0  0  0  0  0  0  0  0  0  0  0
   13.4455   -2.0585    0.0546 C   0  0  0  0  0  0  0  0  0  0  0  0
   14.7575   -2.3630   -0.1886 C   0  0  0  0  0  0  0  0  0  0  0  0
   15.7095   -2.4325    0.8183 C   0  0  0  0  0  0  0  0  0  0  0  0
   15.2948   -2.1804    2.1148 C   0  0  0  0  0  0  0  0  0  0  0  0
   13.9901   -1.8724    2.3978 C   0  0  0  0  0  0  0  0  0  0  0  0
   13.0778   -1.8140    1.3698 C   0  0  0  0  0  0  0  0  0  0  0  0
   16.2321   -2.2429    3.1523 O   0  0  0  0  0  0  0  0  0  0  0  0
   11.6739   -0.8296   -3.0085 N   0  0  0  0  0  0  0  0  0  0  0  0
   12.3142   -0.4581   -4.2421 C   0  0  0  0  0  0  0  0  0  0  0  0
   13.5105   -0.0226   -4.2565 O   0  0  0  0  0  0  0  0  0  0  0  0
   11.5814   -0.5753   -5.5400 C   0  0  0  0  0  0  0  0  0  0  0  0
    8.6371   -2.4886    0.8141 C   0  0  0  0  0  0  0  0  0  0  0  0
    9.2892   -2.0938    2.0617 C   0  0  0  0  0  0  0  0  0  0  0  0
    9.2487   -0.9080    2.5401 O   0  0  0  0  0  0  0  0  0  0  0  0
   10.0341   -3.0640    2.8329 N   0  0  0  0  0  0  0  0  0  0  0  0
    1.2582   -0.8219    2.2077 C   0  0  0  0  0  0  0  0  0  0  0  0
    0.6282   -0.0046    3.2488 C   0  0  0  0  0  0  0  0  0  0  0  0
   -0.7012    0.3209    3.3283 C   0  0  0  0  0  0  0  0  0  0  0  0
   -1.2584    1.0913    4.3197 C   0  0  0  0  0  0  0  0  0  0  0  0
   -0.4518    1.5899    5.3234 C   0  0  0  0  0  0  0  0  0  0  0  0
    0.8960    1.2868    5.2842 C   0  0  0  0  0  0  0  0  0  0  0  0
    1.4414    0.5064    4.2745 C   0  0  0  0  0  0  0  0  0  0  0  0
   -5.5877    2.2924   -1.7568 C   0  0  0  0  0  0  0  0  0  0  0  0
   -6.9584    2.7115   -1.3725 C   0  0  0  0  0  0  0  0  0  0  0  0
   -7.2439    4.0129   -2.1474 C   0  0  0  0  0  0  0  0  0  0  0  0
   -7.1776    2.9903    0.0764 C   0  0  0  0  0  0  0  0  0  0  0  0
  -12.4799   -1.5542    1.5883 N   0  0  0  0  0  0  0  0  0  0  0  0
  -13.5285   -3.9574    2.1961 H   0  0  0  0  0  0  0  0  0  0  0  0
  -13.3032   -5.2272    0.9102 H   0  0  0  0  0  0  0  0  0  0  0  0
  -13.7419   -3.5342    0.4389 H   0  0  0  0  0  0  0  0  0  0  0  0
   -9.8904   -1.2315    0.7705 H   0  0  0  0  0  0  0  0  0  0  0  0
   -9.4192   -4.1925    1.0689 H   0  0  0  0  0  0  0  0  0  0  0  0
   -9.2859   -3.3199    2.6414 H   0  0  0  0  0  0  0  0  0  0  0  0
   -7.4758   -1.9350    1.7909 H   0  0  0  0  0  0  0  0  0  0  0  0
   -7.1482   -3.6540    1.8280 H   0  0  0  0  0  0  0  0  0  0  0  0
   -7.2130   -3.8782   -0.5629 H   0  0  0  0  0  0  0  0  0  0  0  0
   -6.0662   -2.6488   -0.0306 H   0  0  0  0  0  0  0  0  0  0  0  0
   -6.9626   -2.2250   -2.0955 H   0  0  0  0  0  0  0  0  0  0  0  0
   -9.1365    0.1772   -2.0789 H   0  0  0  0  0  0  0  0  0  0  0  0
  -11.5627   -1.4674   -2.2162 H   0  0  0  0  0  0  0  0  0  0  0  0
  -12.6377   -2.1487   -4.6374 H   0  0  0  0  0  0  0  0  0  0  0  0
  -12.3221   -0.6785   -5.6115 H   0  0  0  0  0  0  0  0  0  0  0  0
  -10.9884    1.3351   -3.4532 H   0  0  0  0  0  0  0  0  0  0  0  0
  -12.5837    0.5849   -3.2619 H   0  0  0  0  0  0  0  0  0  0  0  0
   -9.9634    2.5562   -1.3790 H   0  0  0  0  0  0  0  0  0  0  0  0
  -10.8021    3.3049    0.9113 H   0  0  0  0  0  0  0  0  0  0  0  0
  -14.1320   -0.2015   -1.3832 H   0  0  0  0  0  0  0  0  0  0  0  0
  -15.6857   -0.0874    0.5402 H   0  0  0  0  0  0  0  0  0  0  0  0
  -15.1507    1.3701    2.4756 H   0  0  0  0  0  0  0  0  0  0  0  0
  -13.0434    2.7311    2.4789 H   0  0  0  0  0  0  0  0  0  0  0  0
   -7.5791    0.1386   -0.3428 H   0  0  0  0  0  0  0  0  0  0  0  0
   -4.9489    1.1963   -0.0426 H   0  0  0  0  0  0  0  0  0  0  0  0
   -3.4107    0.9950   -2.6253 H   0  0  0  0  0  0  0  0  0  0  0  0
   -1.1304    0.4586   -2.1398 H   0  0  0  0  0  0  0  0  0  0  0  0
   -0.1239   -1.1811   -0.2522 H   0  0  0  0  0  0  0  0  0  0  0  0
    2.1838   -0.7779    0.2978 H   0  0  0  0  0  0  0  0  0  0  0  0
    2.7007    1.4694    2.2548 H   0  0  0  0  0  0  0  0  0  0  0  0
    5.6806    0.9122    2.5090 H   0  0  0  0  0  0  0  0  0  0  0  0
    5.3031    2.9482    0.2024 H   0  0  0  0  0  0  0  0  0  0  0  0
    6.8219    4.0938    1.3111 H   0  0  0  0  0  0  0  0  0  0  0  0
    4.2252    3.0473    3.0647 H   0  0  0  0  0  0  0  0  0  0  0  0
    3.4736    3.5563    1.5167 H   0  0  0  0  0  0  0  0  0  0  0  0
    4.8058    4.5147    2.1570 H   0  0  0  0  0  0  0  0  0  0  0  0
    7.0580    1.2030   -0.0205 H   0  0  0  0  0  0  0  0  0  0  0  0
    7.3850   -1.8192   -0.8175 H   0  0  0  0  0  0  0  0  0  0  0  0
    9.6700   -0.1801    0.1910 H   0  0  0  0  0  0  0  0  0  0  0  0
   10.2260    1.0754   -2.9745 H   0  0  0  0  0  0  0  0  0  0  0  0
    8.2432    2.7315   -1.5879 H   0  0  0  0  0  0  0  0  0  0  0  0
    9.4249    3.2472   -2.8989 H   0  0  0  0  0  0  0  0  0  0  0  0
   10.9384    4.0122   -1.3650 H   0  0  0  0  0  0  0  0  0  0  0  0
    9.5278    4.0712   -0.2455 H   0  0  0  0  0  0  0  0  0  0  0  0
   11.6754    2.6513    0.3805 H   0  0  0  0  0  0  0  0  0  0  0  0
   10.0467    2.0339    0.8171 H   0  0  0  0  0  0  0  0  0  0  0  0
   13.5026   -0.4515   -2.1074 H   0  0  0  0  0  0  0  0  0  0  0  0
   12.7572   -2.7749   -1.8720 H   0  0  0  0  0  0  0  0  0  0  0  0
   11.4728   -2.2210   -0.6710 H   0  0  0  0  0  0  0  0  0  0  0  0
   15.0811   -2.5568   -1.1905 H   0  0  0  0  0  0  0  0  0  0  0  0
   16.7579   -2.6811    0.5930 H   0  0  0  0  0  0  0  0  0  0  0  0
   13.7397   -1.6873    3.4322 H   0  0  0  0  0  0  0  0  0  0  0  0
   12.0620   -1.5719    1.5954 H   0  0  0  0  0  0  0  0  0  0  0  0
   17.1703   -2.6295    2.9655 H   0  0  0  0  0  0  0  0  0  0  0  0
   10.7054   -1.1973   -3.0611 H   0  0  0  0  0  0  0  0  0  0  0  0
   10.6016   -0.0355   -5.4593 H   0  0  0  0  0  0  0  0  0  0  0  0
   11.3212   -1.6442   -5.7286 H   0  0  0  0  0  0  0  0  0  0  0  0
   12.1888   -0.1376   -6.3334 H   0  0  0  0  0  0  0  0  0  0  0  0
    9.3710   -2.9851    0.1222 H   0  0  0  0  0  0  0  0  0  0  0  0
    7.8765   -3.3141    0.9828 H   0  0  0  0  0  0  0  0  0  0  0  0
    9.7681   -4.0912    2.7643 H   0  0  0  0  0  0  0  0  0  0  0  0
   10.8202   -2.7468    3.4463 H   0  0  0  0  0  0  0  0  0  0  0  0
    0.5331   -1.6160    1.8608 H   0  0  0  0  0  0  0  0  0  0  0  0
    2.0866   -1.3827    2.6867 H   0  0  0  0  0  0  0  0  0  0  0  0
   -1.3469   -0.0609    2.5594 H   0  0  0  0  0  0  0  0  0  0  0  0
   -2.3283    1.3358    4.3605 H   0  0  0  0  0  0  0  0  0  0  0  0
   -0.8117    2.2032    6.1375 H   0  0  0  0  0  0  0  0  0  0  0  0
    1.5347    1.6751    6.0728 H   0  0  0  0  0  0  0  0  0  0  0  0
    2.5141    0.2943    4.3011 H   0  0  0  0  0  0  0  0  0  0  0  0
   -4.9087    3.1874   -1.5820 H   0  0  0  0  0  0  0  0  0  0  0  0
   -5.5858    2.2159   -2.8838 H   0  0  0  0  0  0  0  0  0  0  0  0
   -7.6966    1.9815   -1.7893 H   0  0  0  0  0  0  0  0  0  0  0  0
   -7.5800    3.7924   -3.1797 H   0  0  0  0  0  0  0  0  0  0  0  0
   -6.3924    4.7056   -2.1096 H   0  0  0  0  0  0  0  0  0  0  0  0
   -8.0923    4.5411   -1.6512 H   0  0  0  0  0  0  0  0  0  0  0  0
   -8.0090    2.3519    0.4973 H   0  0  0  0  0  0  0  0  0  0  0  0
   -7.5093    4.0271    0.2932 H   0  0  0  0  0  0  0  0  0  0  0  0
   -6.2775    2.7995    0.7088 H   0  0  0  0  0  0  0  0  0  0  0  0
  -12.2035   -0.5864    1.8621 H   0  0  0  0  0  0  0  0  0  0  0  0
  -13.4725   -1.8632    1.5438 H   0  0  0  0  0  0  0  0  0  0  0  0
  1  2  1  0
  2  3  2  3
  3  4  1  0
  4  5  1  0
  5  6  1  0
  6  7  1  0
  7  8  1  0
  8  9  1  0
  9 10  2  0
  9 11  1  0
 11 12  1  0
 12 13  1  0
 13 14  2  0
 13 15  1  0
 12 16  1  0
 16 17  1  0
 17 18  2  0
 18 19  1  0
 19 20  1  0
 20 21  2  0
 21 22  1  0
 22 23  2  0
 23 24  1  0
 24 25  2  0
  8 26  1  0
 26 27  1  0
 27 28  2  0
 27 29  1  0
 29 30  1  0
 30 31  1  0
 31 32  2  0
 31 33  1  0
 33 34  1  0
 34 35  1  0
 35 36  2  0
 35 37  1  0
 37 38  1  0
 38 39  1  0
 39 40  2  0
 39 41  1  0
 41 42  1  0
 42 43  1  0
 42 44  1  0
 41 45  1  0
 45 46  1  0
 46 47  2  0
 46 48  1  0
 48 49  1  0
 49 50  1  0
 50 51  2  0
 50 52  1  0
 52 53  1  0
 53 54  1  0
 54 55  1  0
 55 56  1  0
 56 57  1  0
 57 58  2  0
 57 59  1  0
 59 60  1  0
 60 61  1  0
 61 62  2  0
 62 63  1  0
 63 64  2  0
 64 65  1  0
 65 66  2  0
 64 67  1  0
 59 68  1  0
 68 69  1  0
 69 70  2  0
 69 71  1  0
 48 72  1  0
 72 73  1  0
 73 74  2  0
 73 75  1  0
 37 76  1  0
 76 77  1  0
 77 78  2  0
 78 79  1  0
 79 80  2  0
 80 81  1  0
 81 82  2  0
 29 83  1  0
 83 84  1  0
 84 85  1  0
 84 86  1  0
  3 87  1  0
 21 17  1  0
 56 52  1  0
 66 61  1  0
 82 77  1  0
 25 20  1  0
  1 88  1  0
  1 89  1  0
  1 90  1  0
  4 91  1  0
  5 92  1  0
  5 93  1  0
  6 94  1  0
  6 95  1  0
  7 96  1  0
  7 97  1  0
  8 98  1  6
 11 99  1  0
 12100  1  1
 15101  1  0
 15102  1  0
 16103  1  0
 16104  1  0
 18105  1  0
 19106  1  0
 22107  1  0
 23108  1  0
 24109  1  0
 25110  1  0
 26111  1  0
 29112  1  1
 30113  1  0
 33114  1  0
 34115  1  0
 37116  1  6
 38117  1  0
 41118  1  1
 42119  1  6
 43120  1  0
 44121  1  0
 44122  1  0
 44123  1  0
 45124  1  0
 48125  1  6
 49126  1  0
 52127  1  6
 53128  1  0
 53129  1  0
 54130  1  0
 54131  1  0
 55132  1  0
 55133  1  0
 59134  1  6
 60135  1  0
 60136  1  0
 62137  1  0
 63138  1  0
 65139  1  0
 66140  1  0
 67141  1  0
 68142  1  0
 71143  1  0
 71144  1  0
 71145  1  0
 72146  1  0
 72147  1  0
 75148  1  0
 75149  1  0
 76150  1  0
 76151  1  0
 78152  1  0
 79153  1  0
 80154  1  0
 81155  1  0
 82156  1  0
 83157  1  0
 83158  1  0
 84159  1  0
 85160  1  0
 85161  1  0
 85162  1  0
 86163  1  0
 86164  1  0
 86165  1  0
 87166  1  0
 87167  1  0
M  END
>  <Ligand ID>  (1) 
LIG0005351

>  <Ligand>  (1) 
CHEMBL3966187

>  <SMILES>  (1) 
CN=C(NCCC[C@@H](C(=O)N[C@H](C(=O)N)Cc1c[nH]c2c1cccc2)NC(=O)[C@@H](NC(=O)NNC(=O)[C@@H](NC(=O)[C@H]([C@H](O)C)NC(=O)[C@@H](NC(=O)[C@H]1CCCN1C(=O)[C@@H](Cc1ccc(cc1)O)NC(=O)C)CC(=O)N)Cc1ccccc1)CC(C)C)N

>  <CID>  (1) 
134150893.0

>  <ChEMBL ID>  (1) 
nan

>  <InChiKey>  (1) 
MZULBONMLYCUPI-XIPNFFPASA-N

>  <InChi>  (1) 
InChI=1S/C58H80N16O13/c1-31(2)25-42(51(81)66-40(17-11-23-63-57(61)62-5)50(80)67-41(49(60)79)28-36-30-64-39-16-10-9-15-38(36)39)70-58(87)73-72-53(83)43(26-34-13-7-6-8-14-34)69-55(85)48(32(3)75)71-52(82)44(29-47(59)78)68-54(84)46-18-12-24-74(46)56(86)45(65-33(4)76)27-35-19-21-37(77)22-20-35/h6-10,13-16,19-22,30-32,40-46,48,64,75,77H,11-12,17-18,23-29H2,1-5H3,(H2,59,78)(H2,60,79)(H,65,76)(H,66,81)(H,67,80)(H,68,84)(H,69,85)(H,71,82)(H,72,83)(H3,61,62,63)(H2,70,73,87)/t32-,40+,41+,42+,43+,44+,45-,46-,48+/m1/s1

>  <IUPAC Name>  (1) 
(2S)-2-[[(2R)-1-[(2R)-2-acetamido-3-(4-hydroxyphenyl)propanoyl]pyrrolidine-2-carbonyl]amino]-N-[(2S,3R)-1-[[(2S)-1-[2-[[(2S)-1-[[(2S)-1-[[(2S)-1-amino-3-(1H-indol-3-yl)-1-oxopropan-2-yl]amino]-5-[(N'-methylcarbamimidoyl)amino]-1-oxopentan-2-yl]amino]-4-methyl-1-oxopentan-2-yl]carbamoyl]hydrazinyl]-1-oxo-3-phenylpropan-2-yl]amino]-3-hydroxy-1-oxobutan-2-yl]butanediamide

$$$$
