
     RDKit          3D

 59 61  0  0  0  0  0  0  0  0999 V2000
    6.2454    3.0434   -0.5369 O   0  0  0  0  0  0  0  0  0  0  0  0
    5.2907    2.2197   -0.2986 C   0  0  0  0  0  0  0  0  0  0  0  0
    3.9410    2.7370   -0.5906 C   0  0  0  0  0  0  0  0  0  0  0  0
    2.8492    1.8648   -0.3297 N   0  0  0  0  0  0  0  0  0  0  0  0
    2.2914    0.9481   -1.2973 C   0  0  0  0  0  0  0  0  0  0  0  0
    2.7773    0.8573   -2.4317 O   0  0  0  0  0  0  0  0  0  0  0  0
    1.1428    0.1752   -0.8282 C   0  0  0  0  0  0  0  0  0  0  0  0
    1.2086   -0.8395    0.0886 C   0  0  0  0  0  0  0  0  0  0  0  0
    0.0234   -1.4638    0.4893 C   0  0  0  0  0  0  0  0  0  0  0  0
   -1.2084   -1.0833   -0.0158 C   0  0  0  0  0  0  0  0  0  0  0  0
   -1.2492   -0.0577   -0.9427 C   0  0  0  0  0  0  0  0  0  0  0  0
   -0.0917    0.5687   -1.3485 C   0  0  0  0  0  0  0  0  0  0  0  0
   -2.4947   -1.6664    0.4010 C   0  0  0  0  0  0  0  0  0  0  0  0
   -2.8696   -2.8156   -0.3614 N   0  0  0  0  0  0  0  0  0  0  0  0
   -4.4149   -3.4196    0.2087 S   0  0  0  0  0  0  0  0  0  0  0  0
   -4.7351   -4.6324   -0.5845 O   0  0  0  0  0  0  0  0  0  0  0  0
   -4.2292   -3.6754    1.6730 O   0  0  0  0  0  0  0  0  0  0  0  0
   -5.5530   -2.1147   -0.0709 C   0  0  0  0  0  0  0  0  0  0  0  0
   -5.6708   -1.1340    0.9019 C   0  0  0  0  0  0  0  0  0  0  0  0
   -6.5262   -0.0736    0.7308 C   0  0  0  0  0  0  0  0  0  0  0  0
   -7.2870    0.0369   -0.4129 C   0  0  0  0  0  0  0  0  0  0  0  0
   -7.1733   -0.9352   -1.3786 C   0  0  0  0  0  0  0  0  0  0  0  0
   -6.3076   -2.0081   -1.2062 C   0  0  0  0  0  0  0  0  0  0  0  0
   -8.1674    1.1744   -0.5979 C   0  0  0  0  0  0  0  0  0  0  0  0
   -8.8761    1.2245   -1.6556 O   0  0  0  0  0  0  0  0  0  0  0  0
   -8.2648    2.2708    0.3941 C   0  0  0  0  0  0  0  0  0  0  0  0
    2.2753    1.9246    1.0268 C   0  0  0  0  0  0  0  0  0  0  0  0
    5.6153    0.9513    0.2000 N   0  0  0  0  0  0  0  0  0  0  0  0
    6.8803    0.4392    0.4942 C   0  0  0  0  0  0  0  0  0  0  0  0
    8.0701    1.1198    0.4110 C   0  0  0  0  0  0  0  0  0  0  0  0
    9.3016    0.5341    0.7249 C   0  0  0  0  0  0  0  0  0  0  0  0
    9.3742   -0.7759    1.1387 C   0  0  0  0  0  0  0  0  0  0  0  0
    8.1912   -1.4725    1.2276 C   0  0  0  0  0  0  0  0  0  0  0  0
    6.9897   -0.8931    0.9190 C   0  0  0  0  0  0  0  0  0  0  0  0
    8.2796   -2.7659    1.6374 F   0  0  0  0  0  0  0  0  0  0  0  0
    3.9164    3.0780   -1.6729 H   0  0  0  0  0  0  0  0  0  0  0  0
    3.7633    3.7167   -0.0402 H   0  0  0  0  0  0  0  0  0  0  0  0
    2.1733   -1.1225    0.4685 H   0  0  0  0  0  0  0  0  0  0  0  0
    0.0625   -2.2569    1.2050 H   0  0  0  0  0  0  0  0  0  0  0  0
   -2.1970    0.2726   -1.3629 H   0  0  0  0  0  0  0  0  0  0  0  0
   -0.1737    1.3729   -2.0812 H   0  0  0  0  0  0  0  0  0  0  0  0
   -3.2618   -0.8581    0.3467 H   0  0  0  0  0  0  0  0  0  0  0  0
   -2.4593   -1.9454    1.4776 H   0  0  0  0  0  0  0  0  0  0  0  0
   -2.9513   -2.6170   -1.3847 H   0  0  0  0  0  0  0  0  0  0  0  0
   -5.0971   -1.1701    1.8301 H   0  0  0  0  0  0  0  0  0  0  0  0
   -6.5905    0.6812    1.5254 H   0  0  0  0  0  0  0  0  0  0  0  0
   -7.7572   -0.8956   -2.3025 H   0  0  0  0  0  0  0  0  0  0  0  0
   -6.2409   -2.7456   -1.9686 H   0  0  0  0  0  0  0  0  0  0  0  0
   -8.2745    1.8366    1.4001 H   0  0  0  0  0  0  0  0  0  0  0  0
   -9.1843    2.8613    0.2249 H   0  0  0  0  0  0  0  0  0  0  0  0
   -7.3793    2.9396    0.2748 H   0  0  0  0  0  0  0  0  0  0  0  0
    1.2625    1.4985    0.9461 H   0  0  0  0  0  0  0  0  0  0  0  0
    2.3234    2.9577    1.3925 H   0  0  0  0  0  0  0  0  0  0  0  0
    2.8630    1.2599    1.6760 H   0  0  0  0  0  0  0  0  0  0  0  0
    4.7816    0.3059    0.3769 H   0  0  0  0  0  0  0  0  0  0  0  0
    8.1212    2.1418    0.1011 H   0  0  0  0  0  0  0  0  0  0  0  0
   10.2203    1.1179    0.6439 H   0  0  0  0  0  0  0  0  0  0  0  0
   10.3429   -1.1669    1.3652 H   0  0  0  0  0  0  0  0  0  0  0  0
    6.1083   -1.5258    1.0162 H   0  0  0  0  0  0  0  0  0  0  0  0
  1  2  2  0
  2  3  1  0
  3  4  1  0
  4  5  1  0
  5  6  2  0
  5  7  1  0
  7  8  2  0
  8  9  1  0
  9 10  2  0
 10 11  1  0
 11 12  2  0
 10 13  1  0
 13 14  1  0
 14 15  1  0
 15 16  2  0
 15 17  2  0
 15 18  1  0
 18 19  2  0
 19 20  1  0
 20 21  2  0
 21 22  1  0
 22 23  2  0
 21 24  1  0
 24 25  2  0
 24 26  1  0
  4 27  1  0
  2 28  1  0
 28 29  1  0
 29 30  2  0
 30 31  1  0
 31 32  2  0
 32 33  1  0
 33 34  2  0
 33 35  1  0
 12  7  1  0
 23 18  1  0
 34 29  1  0
  3 36  1  0
  3 37  1  0
  8 38  1  0
  9 39  1  0
 11 40  1  0
 12 41  1  0
 13 42  1  0
 13 43  1  0
 14 44  1  0
 19 45  1  0
 20 46  1  0
 22 47  1  0
 23 48  1  0
 26 49  1  0
 26 50  1  0
 26 51  1  0
 27 52  1  0
 27 53  1  0
 27 54  1  0
 28 55  1  0
 30 56  1  0
 31 57  1  0
 32 58  1  0
 34 59  1  0
M  END
>  <Ligand ID>  (1) 
LIG0003271

>  <Ligand>  (1) 
MLS-0332830.0001

>  <SMILES>  (1) 
O=C(CN(C(=O)c1ccc(cc1)CNS(=O)(=O)c1ccc(cc1)C(=O)C)C)Nc1cccc(c1)F

>  <CID>  (1) 
16295215.0

>  <ChEMBL ID>  (1) 
nan

>  <InChiKey>  (1) 
FNOAKXRMWVJFTB-UHFFFAOYSA-N

>  <InChi>  (1) 
InChI=1S/C25H24FN3O5S/c1-17(30)19-10-12-23(13-11-19)35(33,34)27-15-18-6-8-20(9-7-18)25(32)29(2)16-24(31)28-22-5-3-4-21(26)14-22/h3-14,27H,15-16H2,1-2H3,(H,28,31)

>  <IUPAC Name>  (1) 
4-[[(4-acetylphenyl)sulfonylamino]methyl]-N-[2-(3-fluoroanilino)-2-oxoethyl]-N-methylbenzamide

$$$$
