
     RDKit          3D

 58 61  0  0  0  0  0  0  0  0999 V2000
   -3.2774   -0.4898   -2.9859 C   0  0  0  0  0  0  0  0  0  0  0  0
   -4.0640   -0.2793   -1.7138 C   0  0  2  0  0  0  0  0  0  0  0  0
   -5.3764    0.4269   -1.9809 C   0  0  0  0  0  0  0  0  0  0  0  0
   -6.0718    0.4841   -0.7099 N   0  0  0  0  0  0  0  0  0  0  0  0
   -5.4438    1.1772    0.3980 C   0  0  0  0  0  0  0  0  0  0  0  0
   -3.9922    1.4436    0.1671 C   0  0  0  0  0  0  0  0  0  0  0  0
   -3.3491    0.5006   -0.7221 N   0  0  0  0  0  0  0  0  0  0  0  0
   -1.9274    0.3556   -0.5868 C   0  0  0  0  0  0  0  0  0  0  0  0
   -1.2971    1.0991    0.3486 N   0  0  0  0  0  0  0  0  0  0  0  0
    0.0545    0.9929    0.5115 C   0  0  0  0  0  0  0  0  0  0  0  0
    0.7971    0.1316   -0.2692 C   0  0  0  0  0  0  0  0  0  0  0  0
    0.1333   -0.6183   -1.2184 C   0  0  0  0  0  0  0  0  0  0  0  0
   -1.2143   -0.4889   -1.3553 N   0  0  0  0  0  0  0  0  0  0  0  0
    2.1833    0.0434   -0.0797 O   0  0  0  0  0  0  0  0  0  0  0  0
    2.7092    0.8806    0.9358 C   0  0  0  0  0  0  0  0  0  0  0  0
    4.1752    0.6571    0.9952 C   0  0  0  0  0  0  0  0  0  0  0  0
    4.6763   -0.3251    1.8348 C   0  0  0  0  0  0  0  0  0  0  0  0
    6.0449   -0.5759    1.9285 C   0  0  0  0  0  0  0  0  0  0  0  0
    6.9212    0.1667    1.1714 C   0  0  0  0  0  0  0  0  0  0  0  0
    6.4434    1.1585    0.3207 C   0  0  0  0  0  0  0  0  0  0  0  0
    5.0741    1.3886    0.2459 C   0  0  0  0  0  0  0  0  0  0  0  0
    8.3698   -0.0763    1.2502 C   0  0  0  0  0  0  0  0  0  0  0  0
    8.9177   -1.2950    0.0629 S   0  0  0  0  0  0  0  0  0  0  0  0
    8.1974   -2.5710    0.3170 O   0  0  0  0  0  0  0  0  0  0  0  0
    8.6444   -0.7908   -1.3256 O   0  0  0  0  0  0  0  0  0  0  0  0
   10.6872   -1.4750    0.2854 C   0  0  0  0  0  0  0  0  0  0  0  0
   -7.3455   -0.1240   -0.5409 C   0  0  0  0  0  0  0  0  0  0  0  0
   -8.0506   -0.7972   -1.4671 N   0  0  0  0  0  0  0  0  0  0  0  0
   -9.1951   -1.2153   -0.9263 N   0  0  0  0  0  0  0  0  0  0  0  0
   -9.1902   -0.7922    0.3476 C   0  0  0  0  0  0  0  0  0  0  0  0
   -8.0545   -0.1297    0.5613 O   0  0  0  0  0  0  0  0  0  0  0  0
  -10.2089   -0.9708    1.4151 C   0  0  0  0  0  0  0  0  0  0  0  0
   -9.7753   -1.9018    2.3625 F   0  0  0  0  0  0  0  0  0  0  0  0
  -11.3990   -1.4023    0.9097 F   0  0  0  0  0  0  0  0  0  0  0  0
  -10.3134    0.2283    2.0911 F   0  0  0  0  0  0  0  0  0  0  0  0
   -3.9738   -0.4911   -3.8569 H   0  0  0  0  0  0  0  0  0  0  0  0
   -2.7366   -1.4395   -2.9185 H   0  0  0  0  0  0  0  0  0  0  0  0
   -2.5367    0.3170   -3.1629 H   0  0  0  0  0  0  0  0  0  0  0  0
   -4.3230   -1.2580   -1.2210 H   0  0  0  0  0  0  0  0  0  0  0  0
   -5.9457   -0.1241   -2.7446 H   0  0  0  0  0  0  0  0  0  0  0  0
   -5.1079    1.4564   -2.3045 H   0  0  0  0  0  0  0  0  0  0  0  0
   -5.5477    0.4818    1.2802 H   0  0  0  0  0  0  0  0  0  0  0  0
   -5.9362    2.1406    0.6276 H   0  0  0  0  0  0  0  0  0  0  0  0
   -3.4758    1.3633    1.1660 H   0  0  0  0  0  0  0  0  0  0  0  0
   -3.8257    2.4967   -0.1446 H   0  0  0  0  0  0  0  0  0  0  0  0
    0.4947    1.6181    1.2796 H   0  0  0  0  0  0  0  0  0  0  0  0
    0.6772   -1.3043   -1.8499 H   0  0  0  0  0  0  0  0  0  0  0  0
    2.5677    1.9567    0.6778 H   0  0  0  0  0  0  0  0  0  0  0  0
    2.2147    0.7150    1.9134 H   0  0  0  0  0  0  0  0  0  0  0  0
    3.9749   -0.9091    2.4314 H   0  0  0  0  0  0  0  0  0  0  0  0
    6.4284   -1.3587    2.5991 H   0  0  0  0  0  0  0  0  0  0  0  0
    7.1484    1.7311   -0.2658 H   0  0  0  0  0  0  0  0  0  0  0  0
    4.6972    2.1654   -0.4200 H   0  0  0  0  0  0  0  0  0  0  0  0
    8.5894   -0.4585    2.2745 H   0  0  0  0  0  0  0  0  0  0  0  0
    8.9117    0.8807    1.0637 H   0  0  0  0  0  0  0  0  0  0  0  0
   10.9833   -1.2850    1.3478 H   0  0  0  0  0  0  0  0  0  0  0  0
   11.0379   -2.4929    0.0166 H   0  0  0  0  0  0  0  0  0  0  0  0
   11.2003   -0.7492   -0.3677 H   0  0  0  0  0  0  0  0  0  0  0  0
  1  2  1  0
  2  3  1  0
  3  4  1  0
  4  5  1  0
  5  6  1  0
  6  7  1  0
  7  8  1  0
  8  9  2  0
  9 10  1  0
 10 11  2  0
 11 12  1  0
 12 13  2  0
 11 14  1  0
 14 15  1  0
 15 16  1  0
 16 17  2  0
 17 18  1  0
 18 19  2  0
 19 20  1  0
 20 21  2  0
 19 22  1  0
 22 23  1  0
 23 24  2  0
 23 25  2  0
 23 26  1  0
  4 27  1  0
 27 28  2  0
 28 29  1  0
 29 30  2  0
 30 31  1  0
 30 32  1  0
 32 33  1  0
 32 34  1  0
 32 35  1  0
  7  2  1  0
 13  8  1  0
 21 16  1  0
 31 27  1  0
  1 36  1  0
  1 37  1  0
  1 38  1  0
  2 39  1  1
  3 40  1  0
  3 41  1  0
  5 42  1  0
  5 43  1  0
  6 44  1  0
  6 45  1  0
 10 46  1  0
 12 47  1  0
 15 48  1  0
 15 49  1  0
 17 50  1  0
 18 51  1  0
 20 52  1  0
 21 53  1  0
 22 54  1  0
 22 55  1  0
 26 56  1  0
 26 57  1  0
 26 58  1  0
M  END
>  <Ligand ID>  (1) 
LIG0005320

>  <Ligand>  (1) 
CHEMBL3357998

>  <SMILES>  (1) 
C[C@@H]1CN(CCN1c1ncc(cn1)OCc1ccc(cc1)CS(=O)(=O)C)c1nnc(o1)C(F)(F)F

>  <CID>  (1) 
118722574.0

>  <ChEMBL ID>  (1) 
nan

>  <InChiKey>  (1) 
IDFYVOMBWZBNGK-CQSZACIVSA-N

>  <InChi>  (1) 
InChI=1S/C21H23F3N6O4S/c1-14-11-29(20-28-27-18(34-20)21(22,23)24)7-8-30(14)19-25-9-17(10-26-19)33-12-15-3-5-16(6-4-15)13-35(2,31)32/h3-6,9-10,14H,7-8,11-13H2,1-2H3/t14-/m1/s1

>  <IUPAC Name>  (1) 
2-[(3R)-3-methyl-4-[5-[[4-(methylsulfonylmethyl)phenyl]methoxy]pyrimidin-2-yl]piperazin-1-yl]-5-(trifluoromethyl)-1,3,4-oxadiazole

$$$$
