
     RDKit          3D

 44 46  0  0  0  0  0  0  0  0999 V2000
    5.7099   -1.0980   -3.1788 C   0  0  0  0  0  0  0  0  0  0  0  0
    4.8038   -0.4068   -2.2090 C   0  0  0  0  0  0  0  0  0  0  0  0
    3.8921   -1.2697   -1.5603 O   0  0  0  0  0  0  0  0  0  0  0  0
    2.9778   -0.7714   -0.6231 C   0  0  0  0  0  0  0  0  0  0  0  0
    2.0855   -1.5810    0.0194 C   0  0  0  0  0  0  0  0  0  0  0  0
    1.2055   -1.0496    0.9324 C   0  0  0  0  0  0  0  0  0  0  0  0
    1.1838    0.3160    1.2391 C   0  0  0  0  0  0  0  0  0  0  0  0
    2.0893    1.1290    0.5853 C   0  0  0  0  0  0  0  0  0  0  0  0
    2.9728    0.5907   -0.3324 C   0  0  0  0  0  0  0  0  0  0  0  0
    2.1321    2.5090    0.8363 O   0  0  0  0  0  0  0  0  0  0  0  0
    0.2401    0.8571    2.2121 C   0  0  0  0  0  0  0  0  0  0  0  0
    0.4734    1.4675    3.3864 N   0  0  0  0  0  0  0  0  0  0  0  0
   -0.6808    1.8119    3.9728 N   0  0  0  0  0  0  0  0  0  0  0  0
   -1.6525    1.4171    3.1644 C   0  0  0  0  0  0  0  0  0  0  0  0
   -1.1301    0.8098    2.0410 C   0  0  0  0  0  0  0  0  0  0  0  0
   -1.8563    0.2379    0.9111 C   0  0  0  0  0  0  0  0  0  0  0  0
   -2.7461   -0.8091    1.0384 C   0  0  0  0  0  0  0  0  0  0  0  0
   -3.3688   -1.2582   -0.1084 C   0  0  0  0  0  0  0  0  0  0  0  0
   -3.1258   -0.6946   -1.3526 C   0  0  0  0  0  0  0  0  0  0  0  0
   -2.2328    0.3514   -1.4599 C   0  0  0  0  0  0  0  0  0  0  0  0
   -1.6039    0.8126   -0.3357 C   0  0  0  0  0  0  0  0  0  0  0  0
   -3.7448   -1.1363   -2.5128 O   0  0  0  0  0  0  0  0  0  0  0  0
   -4.6778   -2.1976   -2.5381 C   0  0  0  0  0  0  0  0  0  0  0  0
   -3.1160    1.5926    3.4114 C   0  0  0  0  0  0  0  0  0  0  0  0
    6.7738   -0.9040   -2.9031 H   0  0  0  0  0  0  0  0  0  0  0  0
    5.6068   -2.2121   -3.1486 H   0  0  0  0  0  0  0  0  0  0  0  0
    5.5334   -0.7112   -4.2192 H   0  0  0  0  0  0  0  0  0  0  0  0
    5.3643    0.1416   -1.4155 H   0  0  0  0  0  0  0  0  0  0  0  0
    4.2061    0.3553   -2.7432 H   0  0  0  0  0  0  0  0  0  0  0  0
    2.0608   -2.6621   -0.1851 H   0  0  0  0  0  0  0  0  0  0  0  0
    0.4979   -1.7221    1.4354 H   0  0  0  0  0  0  0  0  0  0  0  0
    3.7000    1.2184   -0.8625 H   0  0  0  0  0  0  0  0  0  0  0  0
    2.3287    3.1494    0.0756 H   0  0  0  0  0  0  0  0  0  0  0  0
   -0.7862    2.3010    4.8965 H   0  0  0  0  0  0  0  0  0  0  0  0
   -2.9158   -1.2280    2.0189 H   0  0  0  0  0  0  0  0  0  0  0  0
   -4.0751   -2.0823   -0.0373 H   0  0  0  0  0  0  0  0  0  0  0  0
   -2.0279    0.8060   -2.4187 H   0  0  0  0  0  0  0  0  0  0  0  0
   -0.9108    1.6324   -0.4529 H   0  0  0  0  0  0  0  0  0  0  0  0
   -4.2341   -3.1596   -2.2129 H   0  0  0  0  0  0  0  0  0  0  0  0
   -5.5976   -1.9613   -1.9651 H   0  0  0  0  0  0  0  0  0  0  0  0
   -4.9639   -2.3353   -3.6149 H   0  0  0  0  0  0  0  0  0  0  0  0
   -3.5286    1.9823    2.4392 H   0  0  0  0  0  0  0  0  0  0  0  0
   -3.5370    0.5623    3.5097 H   0  0  0  0  0  0  0  0  0  0  0  0
   -3.3249    2.2344    4.2648 H   0  0  0  0  0  0  0  0  0  0  0  0
  1  2  1  0
  2  3  1  0
  3  4  1  0
  4  5  2  0
  5  6  1  0
  6  7  2  0
  7  8  1  0
  8  9  2  0
  8 10  1  0
  7 11  1  0
 11 12  2  0
 12 13  1  0
 13 14  1  0
 14 15  2  0
 15 16  1  0
 16 17  2  0
 17 18  1  0
 18 19  2  0
 19 20  1  0
 20 21  2  0
 19 22  1  0
 22 23  1  0
 14 24  1  0
  9  4  1  0
 15 11  1  0
 21 16  1  0
  1 25  1  0
  1 26  1  0
  1 27  1  0
  2 28  1  0
  2 29  1  0
  5 30  1  0
  6 31  1  0
  9 32  1  0
 10 33  1  0
 13 34  1  0
 17 35  1  0
 18 36  1  0
 20 37  1  0
 21 38  1  0
 23 39  1  0
 23 40  1  0
 23 41  1  0
 24 42  1  0
 24 43  1  0
 24 44  1  0
M  END
>  <Ligand ID>  (1) 
LIG0004475

>  <Ligand>  (1) 
MLS-0437221.0001

>  <SMILES>  (1) 
CCOc1ccc(c(c1)O)c1n[nH]c(c1c1ccc(cc1)OC)C

>  <CID>  (1) 
944642.0

>  <ChEMBL ID>  (1) 
nan

>  <InChiKey>  (1) 
UIXKXYGHZOJILO-UHFFFAOYSA-N

>  <InChi>  (1) 
InChI=1S/C19H20N2O3/c1-4-24-15-9-10-16(17(22)11-15)19-18(12(2)20-21-19)13-5-7-14(23-3)8-6-13/h5-11,22H,4H2,1-3H3,(H,20,21)

>  <IUPAC Name>  (1) 
5-ethoxy-2-[4-(4-methoxyphenyl)-5-methyl-1H-pyrazol-3-yl]phenol

$$$$
