
     RDKit          3D

133135  0  0  0  0  0  0  0  0999 V2000
   10.3567   -3.6233    2.2704 C   0  0  0  0  0  0  0  0  0  0  0  0
   10.1720   -4.2976    0.6583 S   0  0  0  0  0  0  0  0  0  0  0  0
   10.4777   -3.2390   -0.7469 C   0  0  0  0  0  0  0  0  0  0  0  0
    9.4904   -2.1452   -0.9241 C   0  0  0  0  0  0  0  0  0  0  0  0
    9.4819   -1.1381    0.2010 C   0  0  1  0  0  0  0  0  0  0  0  0
   10.8039   -0.4875    0.2709 C   0  0  0  0  0  0  0  0  0  0  0  0
   11.8938   -1.0250    0.5112 O   0  0  0  0  0  0  0  0  0  0  0  0
   10.8730    0.9465    0.0366 N   0  0  0  0  0  0  0  0  0  0  0  0
    8.4724   -0.1068   -0.0492 N   0  0  0  0  0  0  0  0  0  0  0  0
    7.2184   -0.2352    0.6042 C   0  0  0  0  0  0  0  0  0  0  0  0
    7.1102   -1.2808    1.3525 O   0  0  0  0  0  0  0  0  0  0  0  0
    6.0507    0.6194    0.5432 C   0  0  1  0  0  0  0  0  0  0  0  0
    4.8492   -0.2568    0.8992 N   0  0  0  0  0  0  0  0  0  0  0  0
    3.8174   -0.4353   -0.0432 C   0  0  0  0  0  0  0  0  0  0  0  0
    3.8920    0.1331   -1.1884 O   0  0  0  0  0  0  0  0  0  0  0  0
    2.6355   -1.2623    0.2297 C   0  0  0  0  0  0  0  0  0  0  0  0
    1.7038   -1.2542   -0.9736 N   0  0  0  0  0  0  0  0  0  0  0  0
    2.0594   -2.2400   -1.9085 C   0  0  0  0  0  0  0  0  0  0  0  0
    1.4575   -3.5979   -1.7361 C   0  0  0  0  0  0  0  0  0  0  0  0
    0.0572   -3.7336   -1.5380 N   0  0  0  0  0  0  0  0  0  0  0  0
   -0.7311   -3.3753   -0.4170 C   0  0  0  0  0  0  0  0  0  0  0  0
   -0.1460   -2.8733    0.5405 O   0  0  0  0  0  0  0  0  0  0  0  0
   -2.1859   -3.5870   -0.3623 C   0  0  0  0  0  0  0  0  0  0  0  0
   -2.7037   -3.4082    1.0797 C   0  0  0  0  0  0  0  0  0  0  0  0
   -4.1151   -3.7774    1.0159 C   0  0  0  0  0  0  0  0  0  0  0  0
   -4.6358   -3.9758   -0.1145 O   0  0  0  0  0  0  0  0  0  0  0  0
   -5.0645   -3.9788    2.0920 N   0  0  0  0  0  0  0  0  0  0  0  0
   -6.3932   -4.4020    1.5563 C   0  0  0  0  0  0  0  0  0  0  0  0
   -6.8918   -3.2074    0.7727 C   0  0  0  0  0  0  0  0  0  0  0  0
   -7.7979   -3.3264   -0.0223 O   0  0  0  0  0  0  0  0  0  0  0  0
   -6.3457   -1.9228    0.9673 N   0  0  0  0  0  0  0  0  0  0  0  0
   -6.4665   -0.6997    0.3115 C   0  0  2  0  0  0  0  0  0  0  0  0
   -5.1628    0.0389    0.5615 C   0  0  0  0  0  0  0  0  0  0  0  0
   -4.4137   -0.4466    1.3994 O   0  0  0  0  0  0  0  0  0  0  0  0
   -4.8011    1.2063   -0.1067 N   0  0  0  0  0  0  0  0  0  0  0  0
   -3.4956    1.7986    0.2416 C   0  0  1  0  0  0  0  0  0  0  0  0
   -2.5720    1.0316   -0.6466 C   0  0  0  0  0  0  0  0  0  0  0  0
   -3.1000    0.1526   -1.3525 O   0  0  0  0  0  0  0  0  0  0  0  0
   -1.1851    1.2090   -0.7626 N   0  0  0  0  0  0  0  0  0  0  0  0
   -0.4524    0.2317   -1.6242 C   0  0  2  0  0  0  0  0  0  0  0  0
    0.6951   -0.2933   -0.9289 C   0  0  0  0  0  0  0  0  0  0  0  0
    0.9021    0.3633    0.1941 O   0  0  0  0  0  0  0  0  0  0  0  0
   -0.1472    0.9976   -2.8643 C   0  0  0  0  0  0  0  0  0  0  0  0
    0.6660    2.2224   -2.6537 C   0  0  0  0  0  0  0  0  0  0  0  0
    2.0199    2.1914   -2.8210 C   0  0  0  0  0  0  0  0  0  0  0  0
    2.7918    3.3478   -2.6482 C   0  0  0  0  0  0  0  0  0  0  0  0
    2.1102    4.4884   -2.3089 C   0  0  0  0  0  0  0  0  0  0  0  0
    0.7595    4.5874   -2.1295 C   0  0  0  0  0  0  0  0  0  0  0  0
    0.0284    3.4137   -2.3088 C   0  0  0  0  0  0  0  0  0  0  0  0
   -3.4435    3.2640    0.1615 C   0  0  0  0  0  0  0  0  0  0  0  0
   -4.4752    3.7804    1.1465 C   0  0  0  0  0  0  0  0  0  0  0  0
   -4.0571    4.0679    2.4143 C   0  0  0  0  0  0  0  0  0  0  0  0
   -4.9458    4.5255    3.3630 C   0  0  0  0  0  0  0  0  0  0  0  0
   -6.2972    4.6991    3.0241 C   0  0  0  0  0  0  0  0  0  0  0  0
   -6.6856    4.3995    1.7358 C   0  0  0  0  0  0  0  0  0  0  0  0
   -5.7891    3.9449    0.7992 C   0  0  0  0  0  0  0  0  0  0  0  0
   -7.5611    0.2108    0.6317 C   0  0  0  0  0  0  0  0  0  0  0  0
   -8.9604    0.0289    0.3680 C   0  0  0  0  0  0  0  0  0  0  0  0
   -9.9427   -0.9784    0.7583 C   0  0  0  0  0  0  0  0  0  0  0  0
  -11.2660   -0.4753    0.2176 N   0  0  0  0  0  0  0  0  0  0  0  0
  -11.8648   -1.1805   -0.6670 C   0  0  0  0  0  0  0  0  0  0  0  0
  -11.2542   -2.4054   -1.0951 N   0  0  0  0  0  0  0  0  0  0  0  0
  -13.1186   -0.7656   -1.2515 N   0  0  0  0  0  0  0  0  0  0  0  0
    5.9225    1.8355    1.3491 C   0  0  0  0  0  0  0  0  0  0  0  0
    6.9105    2.9089    1.1487 C   0  0  0  0  0  0  0  0  0  0  0  0
    8.3349    2.6429    1.4356 C   0  0  0  0  0  0  0  0  0  0  0  0
    6.5262    4.1760    1.9501 C   0  0  0  0  0  0  0  0  0  0  0  0
   10.8234   -4.3812    2.9762 H   0  0  0  0  0  0  0  0  0  0  0  0
    9.3476   -3.3542    2.7084 H   0  0  0  0  0  0  0  0  0  0  0  0
   10.9632   -2.7134    2.3582 H   0  0  0  0  0  0  0  0  0  0  0  0
   11.5236   -2.8791   -0.7113 H   0  0  0  0  0  0  0  0  0  0  0  0
   10.4000   -3.9075   -1.6942 H   0  0  0  0  0  0  0  0  0  0  0  0
    8.4656   -2.6214   -0.9046 H   0  0  0  0  0  0  0  0  0  0  0  0
    9.6108   -1.6593   -1.9172 H   0  0  0  0  0  0  0  0  0  0  0  0
    9.2040   -1.7055    1.1148 H   0  0  0  0  0  0  0  0  0  0  0  0
   10.8176    1.3439   -0.9306 H   0  0  0  0  0  0  0  0  0  0  0  0
   10.9779    1.6235    0.8153 H   0  0  0  0  0  0  0  0  0  0  0  0
    8.6129    0.7032   -0.6786 H   0  0  0  0  0  0  0  0  0  0  0  0
    5.8457    0.8753   -0.5110 H   0  0  0  0  0  0  0  0  0  0  0  0
    4.8333   -0.6918    1.8412 H   0  0  0  0  0  0  0  0  0  0  0  0
    2.9848   -2.3275    0.2888 H   0  0  0  0  0  0  0  0  0  0  0  0
    2.0971   -1.0714    1.1476 H   0  0  0  0  0  0  0  0  0  0  0  0
    3.2041   -2.4742   -1.7942 H   0  0  0  0  0  0  0  0  0  0  0  0
    1.9791   -1.9305   -2.9972 H   0  0  0  0  0  0  0  0  0  0  0  0
    2.0275   -4.1138   -0.8790 H   0  0  0  0  0  0  0  0  0  0  0  0
    1.8134   -4.2017   -2.6146 H   0  0  0  0  0  0  0  0  0  0  0  0
   -0.5028   -4.1461   -2.3233 H   0  0  0  0  0  0  0  0  0  0  0  0
   -2.6946   -2.8023   -0.9901 H   0  0  0  0  0  0  0  0  0  0  0  0
   -2.5063   -4.5616   -0.7587 H   0  0  0  0  0  0  0  0  0  0  0  0
   -2.5681   -2.3571    1.3807 H   0  0  0  0  0  0  0  0  0  0  0  0
   -2.1362   -4.0631    1.7901 H   0  0  0  0  0  0  0  0  0  0  0  0
   -4.7639   -3.8309    3.0066 H   0  0  0  0  0  0  0  0  0  0  0  0
   -6.2752   -5.2382    0.8811 H   0  0  0  0  0  0  0  0  0  0  0  0
   -7.1208   -4.5269    2.3846 H   0  0  0  0  0  0  0  0  0  0  0  0
   -5.6995   -1.9231    1.8437 H   0  0  0  0  0  0  0  0  0  0  0  0
   -6.5350   -0.9149   -0.8507 H   0  0  0  0  0  0  0  0  0  0  0  0
   -5.4451    1.5817   -0.7988 H   0  0  0  0  0  0  0  0  0  0  0  0
   -3.2076    1.4719    1.2810 H   0  0  0  0  0  0  0  0  0  0  0  0
   -0.7513    1.9788   -0.2819 H   0  0  0  0  0  0  0  0  0  0  0  0
   -1.2004   -0.5492   -1.9263 H   0  0  0  0  0  0  0  0  0  0  0  0
    0.4612    0.3038   -3.5168 H   0  0  0  0  0  0  0  0  0  0  0  0
   -1.0873    1.3029   -3.3968 H   0  0  0  0  0  0  0  0  0  0  0  0
    2.4587    1.2544   -3.1012 H   0  0  0  0  0  0  0  0  0  0  0  0
    3.8707    3.2946   -2.7896 H   0  0  0  0  0  0  0  0  0  0  0  0
    2.6872    5.4243   -2.1652 H   0  0  0  0  0  0  0  0  0  0  0  0
    0.2495    5.4930   -1.8661 H   0  0  0  0  0  0  0  0  0  0  0  0
   -1.0247    3.4832   -2.1781 H   0  0  0  0  0  0  0  0  0  0  0  0
   -2.4282    3.5809    0.5418 H   0  0  0  0  0  0  0  0  0  0  0  0
   -3.5805    3.7301   -0.8157 H   0  0  0  0  0  0  0  0  0  0  0  0
   -3.0127    3.9546    2.7522 H   0  0  0  0  0  0  0  0  0  0  0  0
   -4.6009    4.7509    4.3672 H   0  0  0  0  0  0  0  0  0  0  0  0
   -7.0341    5.0548    3.7098 H   0  0  0  0  0  0  0  0  0  0  0  0
   -7.7172    4.4985    1.3865 H   0  0  0  0  0  0  0  0  0  0  0  0
   -6.1239    3.7421   -0.2051 H   0  0  0  0  0  0  0  0  0  0  0  0
   -7.2312    1.2897    0.2935 H   0  0  0  0  0  0  0  0  0  0  0  0
   -7.4841    0.3577    1.8047 H   0  0  0  0  0  0  0  0  0  0  0  0
   -9.1263    0.1157   -0.8161 H   0  0  0  0  0  0  0  0  0  0  0  0
   -9.4577    1.0717    0.6810 H   0  0  0  0  0  0  0  0  0  0  0  0
   -9.8727   -1.9579    0.2551 H   0  0  0  0  0  0  0  0  0  0  0  0
  -10.1587   -1.1360    1.8216 H   0  0  0  0  0  0  0  0  0  0  0  0
  -10.5610   -2.4449   -1.8832 H   0  0  0  0  0  0  0  0  0  0  0  0
  -11.5582   -3.2550   -0.5598 H   0  0  0  0  0  0  0  0  0  0  0  0
  -13.8667   -0.2896   -0.6997 H   0  0  0  0  0  0  0  0  0  0  0  0
  -13.2139   -0.9747   -2.2729 H   0  0  0  0  0  0  0  0  0  0  0  0
    5.8510    1.6146    2.4641 H   0  0  0  0  0  0  0  0  0  0  0  0
    4.9150    2.3019    1.0556 H   0  0  0  0  0  0  0  0  0  0  0  0
    6.8562    3.3235    0.0751 H   0  0  0  0  0  0  0  0  0  0  0  0
    8.7667    3.5008    2.0711 H   0  0  0  0  0  0  0  0  0  0  0  0
    8.8808    2.6966    0.4729 H   0  0  0  0  0  0  0  0  0  0  0  0
    8.5814    1.7011    1.9267 H   0  0  0  0  0  0  0  0  0  0  0  0
    7.0717    5.0500    1.4975 H   0  0  0  0  0  0  0  0  0  0  0  0
    5.4456    4.3905    1.8930 H   0  0  0  0  0  0  0  0  0  0  0  0
    6.8472    4.1179    2.9911 H   0  0  0  0  0  0  0  0  0  0  0  0
  1  2  1  0
  2  3  1  0
  3  4  1  0
  4  5  1  0
  5  6  1  0
  6  7  2  0
  6  8  1  0
  5  9  1  0
  9 10  1  0
 10 11  2  0
 10 12  1  0
 12 13  1  0
 13 14  1  0
 14 15  2  0
 14 16  1  0
 16 17  1  0
 17 18  1  0
 18 19  1  0
 19 20  1  0
 20 21  1  0
 21 22  2  0
 21 23  1  0
 23 24  1  0
 24 25  1  0
 25 26  2  0
 25 27  1  0
 27 28  1  0
 28 29  1  0
 29 30  2  0
 29 31  1  0
 31 32  1  0
 32 33  1  0
 33 34  2  0
 33 35  1  0
 35 36  1  0
 36 37  1  0
 37 38  2  0
 37 39  1  0
 39 40  1  0
 40 41  1  0
 41 42  2  0
 40 43  1  0
 43 44  1  0
 44 45  2  0
 45 46  1  0
 46 47  2  0
 47 48  1  0
 48 49  2  0
 36 50  1  0
 50 51  1  0
 51 52  2  0
 52 53  1  0
 53 54  2  0
 54 55  1  0
 55 56  2  0
 32 57  1  0
 57 58  1  0
 58 59  1  0
 59 60  1  0
 60 61  2  3
 61 62  1  0
 61 63  1  0
 12 64  1  0
 64 65  1  0
 65 66  1  0
 65 67  1  0
 41 17  1  0
 49 44  1  0
 56 51  1  0
  1 68  1  0
  1 69  1  0
  1 70  1  0
  3 71  1  0
  3 72  1  0
  4 73  1  0
  4 74  1  0
  5 75  1  1
  8 76  1  0
  8 77  1  0
  9 78  1  0
 12 79  1  6
 13 80  1  0
 16 81  1  0
 16 82  1  0
 18 83  1  0
 18 84  1  0
 19 85  1  0
 19 86  1  0
 20 87  1  0
 23 88  1  0
 23 89  1  0
 24 90  1  0
 24 91  1  0
 27 92  1  0
 28 93  1  0
 28 94  1  0
 31 95  1  0
 32 96  1  6
 35 97  1  0
 36 98  1  1
 39 99  1  0
 40100  1  6
 43101  1  0
 43102  1  0
 45103  1  0
 46104  1  0
 47105  1  0
 48106  1  0
 49107  1  0
 50108  1  0
 50109  1  0
 52110  1  0
 53111  1  0
 54112  1  0
 55113  1  0
 56114  1  0
 57115  1  0
 57116  1  0
 58117  1  0
 58118  1  0
 59119  1  0
 59120  1  0
 62121  1  0
 62122  1  0
 63123  1  0
 63124  1  0
 64125  1  0
 64126  1  0
 65127  1  0
 66128  1  0
 66129  1  0
 66130  1  0
 67131  1  0
 67132  1  0
 67133  1  0
M  END
>  <Ligand ID>  (1) 
LIG0003442

>  <Ligand>  (1) 
CHEMBL319473

>  <SMILES>  (1) 
CSCC[C@@H](C(=O)N)NC(=O)[C@@H](NC(=O)CN1CCNC(=O)CCC(=O)NCC(=O)N[C@H](C(=O)N[C@@H](C(=O)N[C@H](C1=O)Cc1ccccc1)Cc1ccccc1)CCCN=C(N)N)CC(C)C

>  <CID>  (1) 
44337529.0

>  <ChEMBL ID>  (1) 
nan

>  <InChiKey>  (1) 
WGEKOVQGZROQRH-ISWDJSIVSA-N

>  <InChi>  (1) 
InChI=1S/C45H66N12O9S/c1-28(2)23-33(42(64)54-31(40(46)62)18-22-67-3)53-39(61)27-57-21-20-49-36(58)16-17-37(59)51-26-38(60)52-32(15-10-19-50-45(47)48)41(63)55-34(24-29-11-6-4-7-12-29)43(65)56-35(44(57)66)25-30-13-8-5-9-14-30/h4-9,11-14,28,31-35H,10,15-27H2,1-3H3,(H2,46,62)(H,49,58)(H,51,59)(H,52,60)(H,53,61)(H,54,64)(H,55,63)(H,56,65)(H4,47,48,50)/t31-,32-,33-,34+,35-/m0/s1

>  <IUPAC Name>  (1) 
(2S)-N-[(2S)-1-amino-4-methylsulfanyl-1-oxobutan-2-yl]-2-[[2-[(6S,9R,12S)-6,9-dibenzyl-12-[3-(diaminomethylideneamino)propyl]-5,8,11,14,17,20-hexaoxo-1,4,7,10,13,16-hexazacycloicos-4-yl]acetyl]amino]-4-methylpentanamide

$$$$
