
     RDKit          3D

 50 49  0  0  0  0  0  0  0  0999 V2000
   -4.8364   -1.5996   -0.2253 C   0  0  0  0  0  0  0  0  0  0  0  0
   -5.9833   -0.7514    0.1267 C   0  0  0  0  0  0  0  0  0  0  0  0
   -5.8761    0.7115    0.1697 C   0  0  0  0  0  0  0  0  0  0  0  0
   -4.9506    1.3807    1.0987 C   0  0  0  0  0  0  0  0  0  0  0  0
   -3.5080    1.0790    0.8070 C   0  0  0  0  0  0  0  0  0  0  0  0
   -3.0979    1.5419   -0.5677 C   0  0  0  0  0  0  0  0  0  0  0  0
   -1.6357    1.2524   -0.8025 C   0  0  0  0  0  0  0  0  0  0  0  0
   -1.3373   -0.1955   -0.7223 C   0  0  0  0  0  0  0  0  0  0  0  0
    0.1245   -0.4511   -0.9909 C   0  0  0  0  0  0  0  0  0  0  0  0
    0.9581    0.2555    0.0226 C   0  0  0  0  0  0  0  0  0  0  0  0
    2.4324   -0.0866   -0.3217 C   0  0  0  0  0  0  0  0  0  0  0  0
    3.2530    0.6340    0.7121 C   0  0  0  0  0  0  0  0  0  0  0  0
    4.7102    0.4132    0.4943 C   0  0  0  0  0  0  0  0  0  0  0  0
    5.0372   -1.0444    0.5881 C   0  0  0  0  0  0  0  0  0  0  0  0
    6.5152   -1.3327    0.3971 C   0  0  0  0  0  0  0  0  0  0  0  0
    7.0032   -0.9142   -0.9309 C   0  0  0  0  0  0  0  0  0  0  0  0
    6.3226   -0.4141   -1.8371 O   0  0  0  0  0  0  0  0  0  0  0  0
    8.3630   -1.1017   -1.1864 O   0  0  0  0  0  0  0  0  0  0  0  0
   -4.1697   -1.1814   -0.9837 H   0  0  0  0  0  0  0  0  0  0  0  0
   -5.2724   -2.5199   -0.7623 H   0  0  0  0  0  0  0  0  0  0  0  0
   -4.3170   -2.0905    0.6381 H   0  0  0  0  0  0  0  0  0  0  0  0
   -6.8030   -0.9753   -0.6418 H   0  0  0  0  0  0  0  0  0  0  0  0
   -6.4547   -1.1180    1.0839 H   0  0  0  0  0  0  0  0  0  0  0  0
   -5.7391    1.0959   -0.8901 H   0  0  0  0  0  0  0  0  0  0  0  0
   -6.9170    1.1100    0.4156 H   0  0  0  0  0  0  0  0  0  0  0  0
   -5.1098    1.0623    2.1769 H   0  0  0  0  0  0  0  0  0  0  0  0
   -5.0537    2.5044    1.0553 H   0  0  0  0  0  0  0  0  0  0  0  0
   -2.8405    1.6292    1.5334 H   0  0  0  0  0  0  0  0  0  0  0  0
   -3.3746   -0.0054    0.9062 H   0  0  0  0  0  0  0  0  0  0  0  0
   -3.2580    2.6549   -0.6728 H   0  0  0  0  0  0  0  0  0  0  0  0
   -3.6528    1.0641   -1.3951 H   0  0  0  0  0  0  0  0  0  0  0  0
   -1.0634    1.8522   -0.0444 H   0  0  0  0  0  0  0  0  0  0  0  0
   -1.3005    1.6935   -1.7819 H   0  0  0  0  0  0  0  0  0  0  0  0
   -1.6147   -0.6213    0.2779 H   0  0  0  0  0  0  0  0  0  0  0  0
   -1.8853   -0.8080   -1.4697 H   0  0  0  0  0  0  0  0  0  0  0  0
    0.3052   -0.0771   -2.0315 H   0  0  0  0  0  0  0  0  0  0  0  0
    0.3510   -1.5489   -1.0268 H   0  0  0  0  0  0  0  0  0  0  0  0
    0.8383    1.3589   -0.0802 H   0  0  0  0  0  0  0  0  0  0  0  0
    0.7775   -0.0927    1.0511 H   0  0  0  0  0  0  0  0  0  0  0  0
    2.5189   -1.1979   -0.2681 H   0  0  0  0  0  0  0  0  0  0  0  0
    2.6652    0.2069   -1.3595 H   0  0  0  0  0  0  0  0  0  0  0  0
    2.9622    1.7076    0.6679 H   0  0  0  0  0  0  0  0  0  0  0  0
    2.9820    0.1804    1.6911 H   0  0  0  0  0  0  0  0  0  0  0  0
    4.9889    0.8554   -0.4902 H   0  0  0  0  0  0  0  0  0  0  0  0
    5.2396    0.9854    1.3137 H   0  0  0  0  0  0  0  0  0  0  0  0
    4.7281   -1.4968    1.5449 H   0  0  0  0  0  0  0  0  0  0  0  0
    4.4464   -1.5949   -0.2038 H   0  0  0  0  0  0  0  0  0  0  0  0
    7.1206   -0.8813    1.2056 H   0  0  0  0  0  0  0  0  0  0  0  0
    6.6428   -2.4433    0.5154 H   0  0  0  0  0  0  0  0  0  0  0  0
    8.7656   -0.6853   -2.0071 H   0  0  0  0  0  0  0  0  0  0  0  0
  1  2  1  0
  2  3  1  0
  3  4  1  0
  4  5  1  0
  5  6  1  0
  6  7  1  0
  7  8  1  0
  8  9  1  0
  9 10  1  0
 10 11  1  0
 11 12  1  0
 12 13  1  0
 13 14  1  0
 14 15  1  0
 15 16  1  0
 16 17  2  0
 16 18  1  0
  1 19  1  0
  1 20  1  0
  1 21  1  0
  2 22  1  0
  2 23  1  0
  3 24  1  0
  3 25  1  0
  4 26  1  0
  4 27  1  0
  5 28  1  0
  5 29  1  0
  6 30  1  0
  6 31  1  0
  7 32  1  0
  7 33  1  0
  8 34  1  0
  8 35  1  0
  9 36  1  0
  9 37  1  0
 10 38  1  0
 10 39  1  0
 11 40  1  0
 11 41  1  0
 12 42  1  0
 12 43  1  0
 13 44  1  0
 13 45  1  0
 14 46  1  0
 14 47  1  0
 15 48  1  0
 15 49  1  0
 18 50  1  0
M  END
>  <Ligand ID>  (1) 
LIG0000469

>  <Ligand>  (1) 
palmitic acid

>  <SMILES>  (1) 
CCCCCCCCCCCCCCCC(=O)O

>  <CID>  (1) 
985.0

>  <ChEMBL ID>  (1) 
nan

>  <InChiKey>  (1) 
IPCSVZSSVZVIGE-UHFFFAOYSA-N

>  <InChi>  (1) 
InChI=1S/C16H32O2/c1-2-3-4-5-6-7-8-9-10-11-12-13-14-15-16(17)18/h2-15H2,1H3,(H,17,18)

>  <IUPAC Name>  (1) 
hexadecanoic acid

$$$$
