
     RDKit          3D

 84 86  0  0  0  0  0  0  0  0999 V2000
    2.7136    3.9429    1.7328 O   0  0  0  0  0  0  0  0  0  0  0  0
    2.9854    2.8362    1.1786 C   0  0  0  0  0  0  0  0  0  0  0  0
    2.4341    2.6018   -0.1051 N   0  0  0  0  0  0  0  0  0  0  0  0
    1.6119    3.5870   -0.7252 C   0  0  2  0  0  0  0  0  0  0  0  0
    0.2029    3.0388   -0.8719 C   0  0  0  0  0  0  0  0  0  0  0  0
   -0.5914    3.8353   -1.3986 O   0  0  0  0  0  0  0  0  0  0  0  0
   -0.1290    1.7604   -0.4445 N   0  0  0  0  0  0  0  0  0  0  0  0
   -1.2993    0.9798   -0.4532 C   0  0  1  0  0  0  0  0  0  0  0  0
   -1.4246    0.2024    0.8000 C   0  0  0  0  0  0  0  0  0  0  0  0
   -0.4624    0.2149    1.6396 O   0  0  0  0  0  0  0  0  0  0  0  0
   -2.5513   -0.5850    1.1838 N   0  0  0  0  0  0  0  0  0  0  0  0
   -2.4504   -1.2464    2.4431 C   0  0  1  0  0  0  0  0  0  0  0  0
   -2.6636   -0.1967    3.5548 C   0  0  0  0  0  0  0  0  0  0  0  0
   -2.8463    1.0081    3.2312 O   0  0  0  0  0  0  0  0  0  0  0  0
   -2.6437   -0.6477    4.9022 N   0  0  0  0  0  0  0  0  0  0  0  0
   -3.3405   -2.3874    2.6730 C   0  0  0  0  0  0  0  0  0  0  0  0
   -4.8066   -2.2004    2.7145 C   0  0  0  0  0  0  0  0  0  0  0  0
   -5.4368   -1.6990    1.4822 C   0  0  0  0  0  0  0  0  0  0  0  0
   -5.2100   -2.6041    0.3621 N   0  0  0  0  0  0  0  0  0  0  0  0
   -5.7798   -2.2771   -0.7728 C   0  0  0  0  0  0  0  0  0  0  0  0
   -6.5588   -1.0966   -0.8341 N   0  0  0  0  0  0  0  0  0  0  0  0
   -5.6558   -3.0610   -1.9459 N   0  0  0  0  0  0  0  0  0  0  0  0
   -2.5735    1.3987   -1.0723 C   0  0  0  0  0  0  0  0  0  0  0  0
   -2.6242    1.6140   -2.5244 C   0  0  0  0  0  0  0  0  0  0  0  0
   -2.7364    2.7720   -3.2253 C   0  0  0  0  0  0  0  0  0  0  0  0
   -2.7304    2.8672   -4.6026 C   0  0  0  0  0  0  0  0  0  0  0  0
   -2.6046    1.7117   -5.3413 C   0  0  0  0  0  0  0  0  0  0  0  0
   -2.4887    0.5042   -4.6851 C   0  0  0  0  0  0  0  0  0  0  0  0
   -2.4961    0.4405   -3.3038 C   0  0  0  0  0  0  0  0  0  0  0  0
    2.1335    3.8753   -2.1092 C   0  0  0  0  0  0  0  0  0  0  0  0
    2.1662    2.6832   -2.9625 C   0  0  0  0  0  0  0  0  0  0  0  0
    3.2666    1.8740   -3.0419 N   0  0  0  0  0  0  0  0  0  0  0  0
    3.0219    0.8567   -3.8861 C   0  0  0  0  0  0  0  0  0  0  0  0
    1.7522    1.0026   -4.3609 N   0  0  0  0  0  0  0  0  0  0  0  0
    1.2417    2.1098   -3.7981 C   0  0  0  0  0  0  0  0  0  0  0  0
    3.8293    1.8486    1.8369 C   0  0  0  0  0  0  0  0  0  0  0  0
    4.1530    0.6820    1.3085 C   0  0  0  0  0  0  0  0  0  0  0  0
    5.0008   -0.2390    2.0470 C   0  0  0  0  0  0  0  0  0  0  0  0
    5.3298   -1.4199    1.5064 C   0  0  0  0  0  0  0  0  0  0  0  0
    6.1663   -2.3976    2.1654 C   0  0  0  0  0  0  0  0  0  0  0  0
    6.7122   -2.2379    3.4127 C   0  0  0  0  0  0  0  0  0  0  0  0
    7.5106   -3.2115    4.0061 C   0  0  0  0  0  0  0  0  0  0  0  0
    7.7598   -4.3932    3.2968 C   0  0  0  0  0  0  0  0  0  0  0  0
    7.2213   -4.5594    2.0539 C   0  0  0  0  0  0  0  0  0  0  0  0
    6.4364   -3.5742    1.4995 C   0  0  0  0  0  0  0  0  0  0  0  0
    2.6065    1.7120   -0.6426 H   0  0  0  0  0  0  0  0  0  0  0  0
    1.5465    4.5316   -0.1397 H   0  0  0  0  0  0  0  0  0  0  0  0
    0.7262    1.2278    0.0093 H   0  0  0  0  0  0  0  0  0  0  0  0
   -0.9880    0.1312   -1.2503 H   0  0  0  0  0  0  0  0  0  0  0  0
   -3.3225   -0.6211    0.5051 H   0  0  0  0  0  0  0  0  0  0  0  0
   -1.3742   -1.5290    2.6096 H   0  0  0  0  0  0  0  0  0  0  0  0
   -2.1732   -1.5513    5.1357 H   0  0  0  0  0  0  0  0  0  0  0  0
   -3.1015   -0.0701    5.6433 H   0  0  0  0  0  0  0  0  0  0  0  0
   -3.0659   -2.9335    3.6450 H   0  0  0  0  0  0  0  0  0  0  0  0
   -3.0803   -3.2198    1.9161 H   0  0  0  0  0  0  0  0  0  0  0  0
   -5.3146   -3.2061    2.9376 H   0  0  0  0  0  0  0  0  0  0  0  0
   -5.1176   -1.5971    3.6234 H   0  0  0  0  0  0  0  0  0  0  0  0
   -5.3749   -0.6357    1.2590 H   0  0  0  0  0  0  0  0  0  0  0  0
   -6.5918   -1.8196    1.6456 H   0  0  0  0  0  0  0  0  0  0  0  0
   -6.0858   -0.1742   -0.6445 H   0  0  0  0  0  0  0  0  0  0  0  0
   -7.5876   -1.0819   -1.0615 H   0  0  0  0  0  0  0  0  0  0  0  0
   -6.5398   -3.3008   -2.4665 H   0  0  0  0  0  0  0  0  0  0  0  0
   -4.7649   -3.4228   -2.3368 H   0  0  0  0  0  0  0  0  0  0  0  0
   -3.4686    0.8526   -0.6952 H   0  0  0  0  0  0  0  0  0  0  0  0
   -2.7686    2.4490   -0.6359 H   0  0  0  0  0  0  0  0  0  0  0  0
   -2.8679    3.6928   -2.6741 H   0  0  0  0  0  0  0  0  0  0  0  0
   -2.8241    3.8422   -5.0892 H   0  0  0  0  0  0  0  0  0  0  0  0
   -2.5958    1.7337   -6.4335 H   0  0  0  0  0  0  0  0  0  0  0  0
   -2.3947   -0.3781   -5.3065 H   0  0  0  0  0  0  0  0  0  0  0  0
   -2.4042   -0.5265   -2.8337 H   0  0  0  0  0  0  0  0  0  0  0  0
    3.1334    4.3496   -1.9980 H   0  0  0  0  0  0  0  0  0  0  0  0
    1.5065    4.6656   -2.6168 H   0  0  0  0  0  0  0  0  0  0  0  0
    4.1769    2.0193   -2.5145 H   0  0  0  0  0  0  0  0  0  0  0  0
    3.7206    0.0485   -4.1536 H   0  0  0  0  0  0  0  0  0  0  0  0
    0.2347    2.5163   -3.9615 H   0  0  0  0  0  0  0  0  0  0  0  0
    4.2207    2.0748    2.8189 H   0  0  0  0  0  0  0  0  0  0  0  0
    3.7935    0.4152    0.3345 H   0  0  0  0  0  0  0  0  0  0  0  0
    5.3626    0.0087    3.0095 H   0  0  0  0  0  0  0  0  0  0  0  0
    4.9170   -1.6057    0.5236 H   0  0  0  0  0  0  0  0  0  0  0  0
    6.5349   -1.3295    3.9776 H   0  0  0  0  0  0  0  0  0  0  0  0
    7.9390   -3.0762    4.9966 H   0  0  0  0  0  0  0  0  0  0  0  0
    8.3837   -5.1682    3.7451 H   0  0  0  0  0  0  0  0  0  0  0  0
    7.4171   -5.4676    1.5098 H   0  0  0  0  0  0  0  0  0  0  0  0
    6.0416   -3.7699    0.5073 H   0  0  0  0  0  0  0  0  0  0  0  0
  1  2  2  0
  2  3  1  0
  3  4  1  0
  4  5  1  0
  5  6  2  0
  5  7  1  0
  7  8  1  0
  8  9  1  0
  9 10  2  0
  9 11  1  0
 11 12  1  0
 12 13  1  0
 13 14  2  0
 13 15  1  0
 12 16  1  0
 16 17  1  0
 17 18  1  0
 18 19  1  0
 19 20  2  3
 20 21  1  0
 20 22  1  0
  8 23  1  0
 23 24  1  0
 24 25  2  0
 25 26  1  0
 26 27  2  0
 27 28  1  0
 28 29  2  0
  4 30  1  0
 30 31  1  0
 31 32  1  0
 32 33  1  0
 33 34  2  0
 34 35  1  0
  2 36  1  0
 36 37  2  0
 37 38  1  0
 38 39  2  0
 39 40  1  0
 40 41  2  0
 41 42  1  0
 42 43  2  0
 43 44  1  0
 44 45  2  0
 29 24  1  0
 35 31  2  0
 45 40  1  0
  3 46  1  0
  4 47  1  1
  7 48  1  0
  8 49  1  6
 11 50  1  0
 12 51  1  1
 15 52  1  0
 15 53  1  0
 16 54  1  0
 16 55  1  0
 17 56  1  0
 17 57  1  0
 18 58  1  0
 18 59  1  0
 21 60  1  0
 21 61  1  0
 22 62  1  0
 22 63  1  0
 23 64  1  0
 23 65  1  0
 25 66  1  0
 26 67  1  0
 27 68  1  0
 28 69  1  0
 29 70  1  0
 30 71  1  0
 30 72  1  0
 32 73  1  0
 33 74  1  0
 35 75  1  0
 36 76  1  0
 37 77  1  0
 38 78  1  0
 39 79  1  0
 41 80  1  0
 42 81  1  0
 43 82  1  0
 44 83  1  0
 45 84  1  0
M  END
>  <Ligand ID>  (1) 
LIG0001250

>  <Ligand>  (1) 
CHEMBL567634

>  <SMILES>  (1) 
O=C(N[C@H](C(=O)N[C@@H](C(=O)N[C@@H](C(=O)N)CCCN=C(N)N)Cc1ccccc1)Cc1[nH]cnc1)/C=C/C=C/c1ccccc1

>  <CID>  (1) 
45487297.0

>  <ChEMBL ID>  (1) 
nan

>  <InChiKey>  (1) 
RHOWSTRIYYLBAZ-UWMJZSKHSA-N

>  <InChi>  (1) 
InChI=1S/C32H39N9O4/c33-29(43)25(15-9-17-37-32(34)35)40-30(44)26(18-23-13-5-2-6-14-23)41-31(45)27(19-24-20-36-21-38-24)39-28(42)16-8-7-12-22-10-3-1-4-11-22/h1-8,10-14,16,20-21,25-27H,9,15,17-19H2,(H2,33,43)(H,36,38)(H,39,42)(H,40,44)(H,41,45)(H4,34,35,37)/b12-7+,16-8+/t25-,26-,27+/m1/s1

>  <IUPAC Name>  (1) 
(2R)-5-(diaminomethylideneamino)-2-[[(2R)-2-[[(2S)-3-(1H-imidazol-5-yl)-2-[[(2E,4E)-5-phenylpenta-2,4-dienoyl]amino]propanoyl]amino]-3-phenylpropanoyl]amino]pentanamide

$$$$
