
     RDKit          3D

 25 26  0  0  0  0  0  0  0  0999 V2000
    3.9039    0.0873    0.2764 O   0  0  0  0  0  0  0  0  0  0  0  0
    3.2525   -0.3916   -0.8728 C   0  0  0  0  0  0  0  0  0  0  0  0
    3.9225   -0.5907   -1.9189 O   0  0  0  0  0  0  0  0  0  0  0  0
    1.8160   -0.6560   -0.8569 C   0  0  0  0  0  0  0  0  0  0  0  0
    1.0916   -1.0941   -1.8304 N   0  0  0  0  0  0  0  0  0  0  0  0
   -0.2308   -1.2136   -1.4166 O   0  0  0  0  0  0  0  0  0  0  0  0
   -0.1556   -1.4813   -0.0257 C   0  0  1  0  0  0  0  0  0  0  0  0
    0.9264   -0.4565    0.3227 C   0  0  2  0  0  0  0  0  0  0  0  0
    0.1442    0.8282    0.2144 C   0  0  0  0  0  0  0  0  0  0  0  0
   -1.2700    0.4767    0.6582 C   0  0  1  0  0  0  0  0  0  0  0  0
   -1.3445   -1.0201    0.7375 C   0  0  0  0  0  0  0  0  0  0  0  0
   -1.4752    1.0742    1.9839 N   0  0  0  0  0  0  0  0  0  0  0  0
   -2.3012    1.0059   -0.2590 C   0  0  0  0  0  0  0  0  0  0  0  0
   -3.1831    1.8322    0.1017 O   0  0  0  0  0  0  0  0  0  0  0  0
   -2.3341    0.6003   -1.5826 O   0  0  0  0  0  0  0  0  0  0  0  0
    4.8963   -0.1334    0.4394 H   0  0  0  0  0  0  0  0  0  0  0  0
    0.1764   -2.5112    0.2079 H   0  0  0  0  0  0  0  0  0  0  0  0
    1.3975   -0.6181    1.2847 H   0  0  0  0  0  0  0  0  0  0  0  0
    0.5812    1.6665    0.7604 H   0  0  0  0  0  0  0  0  0  0  0  0
    0.1117    1.0993   -0.8800 H   0  0  0  0  0  0  0  0  0  0  0  0
   -2.3065   -1.4244    0.3513 H   0  0  0  0  0  0  0  0  0  0  0  0
   -1.1736   -1.2993    1.7961 H   0  0  0  0  0  0  0  0  0  0  0  0
   -2.4784    1.2284    2.1523 H   0  0  0  0  0  0  0  0  0  0  0  0
   -0.9663    1.9724    1.9693 H   0  0  0  0  0  0  0  0  0  0  0  0
   -3.0010    1.0187   -2.2414 H   0  0  0  0  0  0  0  0  0  0  0  0
  1  2  1  0
  2  3  2  0
  2  4  1  0
  4  5  2  0
  5  6  1  0
  6  7  1  0
  7  8  1  0
  8  9  1  0
  9 10  1  0
 10 11  1  0
 10 12  1  1
 10 13  1  0
 13 14  2  0
 13 15  1  0
  8  4  1  0
 11  7  1  0
  1 16  1  0
  7 17  1  6
  8 18  1  1
  9 19  1  0
  9 20  1  0
 11 21  1  0
 11 22  1  0
 12 23  1  0
 12 24  1  0
 15 25  1  0
M  END
>  <Ligand ID>  (1) 
LIG0001206

>  <Ligand>  (1) 
CHEMBL415461

>  <SMILES>  (1) 
OC(=O)C1=NO[C@H]2[C@@H]1C[C@@](C2)(N)C(=O)O

>  <CID>  (1) 
12991436.0

>  <ChEMBL ID>  (1) 
nan

>  <InChiKey>  (1) 
NTVFQKSMRLANLZ-FXLGRURVSA-N

>  <InChi>  (1) 
InChI=1S/C8H10N2O5/c9-8(7(13)14)1-3-4(2-8)15-10-5(3)6(11)12/h3-4H,1-2,9H2,(H,11,12)(H,13,14)/t3-,4+,8-/m0/s1

>  <IUPAC Name>  (1) 
(3aR,5S,6aR)-5-amino-3a,4,6,6a-tetrahydrocyclopenta[d][1,2]oxazole-3,5-dicarboxylic acid

$$$$
