
     RDKit          3D

136138  0  0  0  0  0  0  0  0999 V2000
   12.9365    0.5177    1.6021 N   0  0  0  0  0  0  0  0  0  0  0  0
   11.5749    0.0286    1.7177 C   0  0  0  0  0  0  0  0  0  0  0  0
   11.3004   -1.0742    0.7125 C   0  0  0  0  0  0  0  0  0  0  0  0
   11.4812   -0.6051   -0.6849 C   0  0  0  0  0  0  0  0  0  0  0  0
   10.6602    0.5095   -1.1587 C   0  0  0  0  0  0  0  0  0  0  0  0
    9.1982    0.4068   -1.2601 C   0  0  1  0  0  0  0  0  0  0  0  0
    8.4387    0.1480   -0.0645 C   0  0  0  0  0  0  0  0  0  0  0  0
    8.2822    1.1102    0.7710 O   0  0  0  0  0  0  0  0  0  0  0  0
    7.7968   -1.0827    0.3269 N   0  0  0  0  0  0  0  0  0  0  0  0
    7.0599   -1.0431    1.5553 C   0  0  2  0  0  0  0  0  0  0  0  0
    6.0569    0.0706    1.6144 C   0  0  0  0  0  0  0  0  0  0  0  0
    5.5196    0.3915    2.7275 O   0  0  0  0  0  0  0  0  0  0  0  0
    5.6564    0.8136    0.4690 N   0  0  0  0  0  0  0  0  0  0  0  0
    4.7233    1.9102    0.5069 C   0  0  2  0  0  0  0  0  0  0  0  0
    3.4613    1.7333   -0.1809 C   0  0  0  0  0  0  0  0  0  0  0  0
    2.7336    2.7961   -0.3208 O   0  0  0  0  0  0  0  0  0  0  0  0
    2.8903    0.5617   -0.7287 N   0  0  0  0  0  0  0  0  0  0  0  0
    1.6068    0.7132   -1.3813 C   0  0  2  0  0  0  0  0  0  0  0  0
    0.5293    0.8842   -0.3257 C   0  0  0  0  0  0  0  0  0  0  0  0
    0.8691    0.7042    0.8797 O   0  0  0  0  0  0  0  0  0  0  0  0
   -0.7983    1.2440   -0.6925 N   0  0  0  0  0  0  0  0  0  0  0  0
   -1.7470    1.4253    0.3837 C   0  0  2  0  0  0  0  0  0  0  0  0
   -3.0815    0.9090    0.1995 C   0  0  0  0  0  0  0  0  0  0  0  0
   -3.9278    1.2007    1.1323 O   0  0  0  0  0  0  0  0  0  0  0  0
   -3.6168    0.1326   -0.8529 N   0  0  0  0  0  0  0  0  0  0  0  0
   -2.8810   -0.4632   -1.9757 C   0  0  0  0  0  0  0  0  0  0  0  0
   -3.6933   -1.6789   -2.3945 C   0  0  0  0  0  0  0  0  0  0  0  0
   -5.0605   -1.5058   -1.8237 C   0  0  0  0  0  0  0  0  0  0  0  0
   -4.9973   -0.1938   -1.1176 C   0  0  0  0  0  0  0  0  0  0  0  0
   -5.7919   -0.4305    0.1015 C   0  0  0  0  0  0  0  0  0  0  0  0
   -6.2648    0.3948    0.9463 O   0  0  0  0  0  0  0  0  0  0  0  0
   -6.0208   -1.8429    0.2833 N   0  0  0  0  0  0  0  0  0  0  0  0
   -5.3412   -2.5477   -0.7745 C   0  0  0  0  0  0  0  0  0  0  0  0
   -6.8256   -2.4217    1.4010 C   0  0  2  0  0  0  0  0  0  0  0  0
   -8.2096   -2.0146    1.2295 C   0  0  0  0  0  0  0  0  0  0  0  0
   -9.1583   -2.3028    2.0377 O   0  0  0  0  0  0  0  0  0  0  0  0
   -8.6098   -1.2373    0.1122 N   0  0  0  0  0  0  0  0  0  0  0  0
  -10.0204   -0.7882   -0.0629 C   0  0  2  0  0  0  0  0  0  0  0  0
  -10.5692   -1.4280   -1.2781 C   0  0  0  0  0  0  0  0  0  0  0  0
   -9.8073   -2.1730   -1.9739 O   0  0  0  0  0  0  0  0  0  0  0  0
  -11.8923   -1.2867   -1.7500 N   0  0  0  0  0  0  0  0  0  0  0  0
  -10.0232    0.7184   -0.1017 C   0  0  0  0  0  0  0  0  0  0  0  0
  -11.4146    1.2532   -0.2569 C   0  0  0  0  0  0  0  0  0  0  0  0
  -11.3326    3.0895   -0.2593 S   0  0  0  0  0  0  0  0  0  0  0  0
  -10.7577    3.6782    1.3488 C   0  0  0  0  0  0  0  0  0  0  0  0
   -6.0977   -2.1501    2.6403 C   0  0  0  0  0  0  0  0  0  0  0  0
   -6.5398   -2.5658    3.9757 C   0  0  0  0  0  0  0  0  0  0  0  0
   -7.8243   -2.0477    4.5192 C   0  0  0  0  0  0  0  0  0  0  0  0
   -6.4145   -4.0779    4.1959 C   0  0  0  0  0  0  0  0  0  0  0  0
   -1.7619    2.9360    0.6792 C   0  0  0  0  0  0  0  0  0  0  0  0
   -2.6888    3.2567    1.7919 C   0  0  0  0  0  0  0  0  0  0  0  0
   -2.0394    3.7135   -0.5862 C   0  0  0  0  0  0  0  0  0  0  0  0
    1.2708   -0.3756   -2.3434 C   0  0  0  0  0  0  0  0  0  0  0  0
    2.3014   -0.4252   -3.4231 C   0  0  0  0  0  0  0  0  0  0  0  0
    2.1583    0.3603   -4.5815 C   0  0  0  0  0  0  0  0  0  0  0  0
    3.1302    0.3102   -5.5861 C   0  0  0  0  0  0  0  0  0  0  0  0
    4.2472   -0.5057   -5.4686 C   0  0  0  0  0  0  0  0  0  0  0  0
    4.3682   -1.2556   -4.3445 C   0  0  0  0  0  0  0  0  0  0  0  0
    3.4252   -1.2168   -3.3531 C   0  0  0  0  0  0  0  0  0  0  0  0
    5.4125    3.2189    0.1465 C   0  0  0  0  0  0  0  0  0  0  0  0
    4.5212    4.2904    0.1886 O   0  0  0  0  0  0  0  0  0  0  0  0
    7.8702   -1.1373    2.8124 C   0  0  0  0  0  0  0  0  0  0  0  0
    8.5993   -2.4083    2.8785 C   0  0  0  0  0  0  0  0  0  0  0  0
    8.4741   -3.3010    1.9696 O   0  0  0  0  0  0  0  0  0  0  0  0
    9.4753   -2.7590    3.9088 O   0  0  0  0  0  0  0  0  0  0  0  0
    8.7302    1.7416   -1.8081 N   0  0  0  0  0  0  0  0  0  0  0  0
   13.0103    1.5550    1.5560 H   0  0  0  0  0  0  0  0  0  0  0  0
   13.4862   -0.0043    0.9148 H   0  0  0  0  0  0  0  0  0  0  0  0
   10.8581    0.8470    1.6034 H   0  0  0  0  0  0  0  0  0  0  0  0
   11.4206   -0.4083    2.7310 H   0  0  0  0  0  0  0  0  0  0  0  0
   10.3569   -1.5385    0.9042 H   0  0  0  0  0  0  0  0  0  0  0  0
   12.0764   -1.8893    0.8798 H   0  0  0  0  0  0  0  0  0  0  0  0
   12.5705   -0.3953   -0.8922 H   0  0  0  0  0  0  0  0  0  0  0  0
   11.2647   -1.5038   -1.3533 H   0  0  0  0  0  0  0  0  0  0  0  0
   11.0299    0.8107   -2.2066 H   0  0  0  0  0  0  0  0  0  0  0  0
   10.9415    1.4221   -0.5140 H   0  0  0  0  0  0  0  0  0  0  0  0
    8.8677   -0.2972   -2.0581 H   0  0  0  0  0  0  0  0  0  0  0  0
    7.9182   -1.8870   -0.3044 H   0  0  0  0  0  0  0  0  0  0  0  0
    6.4151   -1.9925    1.5468 H   0  0  0  0  0  0  0  0  0  0  0  0
    6.0256    0.5703   -0.5022 H   0  0  0  0  0  0  0  0  0  0  0  0
    4.4545    1.9877    1.6254 H   0  0  0  0  0  0  0  0  0  0  0  0
    3.4226   -0.3200   -0.6316 H   0  0  0  0  0  0  0  0  0  0  0  0
    1.6296    1.7201   -1.8690 H   0  0  0  0  0  0  0  0  0  0  0  0
   -1.0024    1.3659   -1.6980 H   0  0  0  0  0  0  0  0  0  0  0  0
   -1.2821    0.9845    1.3053 H   0  0  0  0  0  0  0  0  0  0  0  0
   -1.8560   -0.7931   -1.6514 H   0  0  0  0  0  0  0  0  0  0  0  0
   -2.8430    0.2678   -2.7795 H   0  0  0  0  0  0  0  0  0  0  0  0
   -3.7510   -1.7212   -3.5024 H   0  0  0  0  0  0  0  0  0  0  0  0
   -3.1820   -2.5647   -2.0191 H   0  0  0  0  0  0  0  0  0  0  0  0
   -5.8166   -1.5198   -2.6432 H   0  0  0  0  0  0  0  0  0  0  0  0
   -5.4745    0.6087   -1.7541 H   0  0  0  0  0  0  0  0  0  0  0  0
   -4.3878   -2.9752   -0.3779 H   0  0  0  0  0  0  0  0  0  0  0  0
   -5.9826   -3.3541   -1.2364 H   0  0  0  0  0  0  0  0  0  0  0  0
   -6.7882   -3.5280    1.2133 H   0  0  0  0  0  0  0  0  0  0  0  0
   -7.9880   -0.9354   -0.6637 H   0  0  0  0  0  0  0  0  0  0  0  0
  -10.5596   -1.1660    0.8216 H   0  0  0  0  0  0  0  0  0  0  0  0
  -12.0397   -1.1693   -2.7782 H   0  0  0  0  0  0  0  0  0  0  0  0
  -12.6918   -1.3044   -1.0549 H   0  0  0  0  0  0  0  0  0  0  0  0
   -9.6096    1.1114    0.8480 H   0  0  0  0  0  0  0  0  0  0  0  0
   -9.4236    1.0723   -0.9824 H   0  0  0  0  0  0  0  0  0  0  0  0
  -11.8705    0.9439   -1.2297 H   0  0  0  0  0  0  0  0  0  0  0  0
  -12.0846    0.9254    0.5636 H   0  0  0  0  0  0  0  0  0  0  0  0
  -10.0296    4.5132    1.2682 H   0  0  0  0  0  0  0  0  0  0  0  0
  -11.6299    4.0319    1.9393 H   0  0  0  0  0  0  0  0  0  0  0  0
  -10.2861    2.8266    1.8831 H   0  0  0  0  0  0  0  0  0  0  0  0
   -5.8230   -1.0385    2.7411 H   0  0  0  0  0  0  0  0  0  0  0  0
   -5.0468   -2.5907    2.5149 H   0  0  0  0  0  0  0  0  0  0  0  0
   -5.7249   -2.1653    4.6767 H   0  0  0  0  0  0  0  0  0  0  0  0
   -7.6372   -1.8643    5.6418 H   0  0  0  0  0  0  0  0  0  0  0  0
   -8.6654   -2.7692    4.5601 H   0  0  0  0  0  0  0  0  0  0  0  0
   -8.0394   -1.0627    4.1108 H   0  0  0  0  0  0  0  0  0  0  0  0
   -5.7084   -4.5387    3.4607 H   0  0  0  0  0  0  0  0  0  0  0  0
   -5.9999   -4.3297    5.1926 H   0  0  0  0  0  0  0  0  0  0  0  0
   -7.4363   -4.5010    4.1599 H   0  0  0  0  0  0  0  0  0  0  0  0
   -0.7318    3.1673    0.9987 H   0  0  0  0  0  0  0  0  0  0  0  0
   -3.7454    3.4285    1.5010 H   0  0  0  0  0  0  0  0  0  0  0  0
   -2.6744    2.4506    2.5447 H   0  0  0  0  0  0  0  0  0  0  0  0
   -2.3455    4.2067    2.3053 H   0  0  0  0  0  0  0  0  0  0  0  0
   -1.2613    4.4724   -0.8184 H   0  0  0  0  0  0  0  0  0  0  0  0
   -2.9938    4.2965   -0.4367 H   0  0  0  0  0  0  0  0  0  0  0  0
   -2.0915    3.0662   -1.4811 H   0  0  0  0  0  0  0  0  0  0  0  0
    1.2948   -1.3864   -1.8765 H   0  0  0  0  0  0  0  0  0  0  0  0
    0.2498   -0.2642   -2.7761 H   0  0  0  0  0  0  0  0  0  0  0  0
    1.2858    0.9907   -4.6650 H   0  0  0  0  0  0  0  0  0  0  0  0
    3.0384    0.9103   -6.4848 H   0  0  0  0  0  0  0  0  0  0  0  0
    5.0119   -0.5459   -6.2478 H   0  0  0  0  0  0  0  0  0  0  0  0
    5.2531   -1.8939   -4.2661 H   0  0  0  0  0  0  0  0  0  0  0  0
    3.5452   -1.8448   -2.4544 H   0  0  0  0  0  0  0  0  0  0  0  0
    5.8182    3.1484   -0.8724 H   0  0  0  0  0  0  0  0  0  0  0  0
    6.2470    3.3526    0.8533 H   0  0  0  0  0  0  0  0  0  0  0  0
    4.9431    4.9877    0.7571 H   0  0  0  0  0  0  0  0  0  0  0  0
    8.5781   -0.2827    2.9222 H   0  0  0  0  0  0  0  0  0  0  0  0
    7.1201   -1.1231    3.6612 H   0  0  0  0  0  0  0  0  0  0  0  0
    9.6214   -3.7517    4.1239 H   0  0  0  0  0  0  0  0  0  0  0  0
    7.8028    1.9116   -1.3691 H   0  0  0  0  0  0  0  0  0  0  0  0
    9.3956    2.4400   -1.4409 H   0  0  0  0  0  0  0  0  0  0  0  0
  1  2  1  0
  2  3  1  0
  3  4  1  0
  4  5  1  0
  5  6  1  0
  6  7  1  0
  7  8  2  0
  7  9  1  0
  9 10  1  0
 10 11  1  0
 11 12  2  0
 11 13  1  0
 13 14  1  0
 14 15  1  0
 15 16  2  0
 15 17  1  0
 17 18  1  0
 18 19  1  0
 19 20  2  0
 19 21  1  0
 21 22  1  0
 22 23  1  0
 23 24  2  0
 23 25  1  0
 25 26  1  0
 26 27  1  0
 27 28  1  0
 28 29  1  0
 29 30  1  0
 30 31  2  0
 30 32  1  0
 32 33  1  0
 32 34  1  0
 34 35  1  0
 35 36  2  0
 35 37  1  0
 37 38  1  0
 38 39  1  0
 39 40  2  0
 39 41  1  0
 38 42  1  0
 42 43  1  0
 43 44  1  0
 44 45  1  0
 34 46  1  0
 46 47  1  0
 47 48  1  0
 47 49  1  0
 22 50  1  0
 50 51  1  0
 50 52  1  0
 18 53  1  0
 53 54  1  0
 54 55  2  0
 55 56  1  0
 56 57  2  0
 57 58  1  0
 58 59  2  0
 14 60  1  0
 60 61  1  0
 10 62  1  0
 62 63  1  0
 63 64  2  0
 63 65  1  0
  6 66  1  0
 29 25  1  0
 59 54  1  0
 33 28  1  0
  1 67  1  0
  1 68  1  0
  2 69  1  0
  2 70  1  0
  3 71  1  0
  3 72  1  0
  4 73  1  0
  4 74  1  0
  5 75  1  0
  5 76  1  0
  6 77  1  6
  9 78  1  0
 10 79  1  6
 13 80  1  0
 14 81  1  1
 17 82  1  0
 18 83  1  6
 21 84  1  0
 22 85  1  1
 26 86  1  0
 26 87  1  0
 27 88  1  0
 27 89  1  0
 28 90  1  0
 29 91  1  0
 33 92  1  0
 33 93  1  0
 34 94  1  6
 37 95  1  0
 38 96  1  1
 41 97  1  0
 41 98  1  0
 42 99  1  0
 42100  1  0
 43101  1  0
 43102  1  0
 45103  1  0
 45104  1  0
 45105  1  0
 46106  1  0
 46107  1  0
 47108  1  0
 48109  1  0
 48110  1  0
 48111  1  0
 49112  1  0
 49113  1  0
 49114  1  0
 50115  1  0
 51116  1  0
 51117  1  0
 51118  1  0
 52119  1  0
 52120  1  0
 52121  1  0
 53122  1  0
 53123  1  0
 55124  1  0
 56125  1  0
 57126  1  0
 58127  1  0
 59128  1  0
 60129  1  0
 60130  1  0
 61131  1  0
 62132  1  0
 62133  1  0
 65134  1  0
 66135  1  0
 66136  1  0
M  END
>  <Ligand ID>  (1) 
LIG0003424

>  <Ligand>  (1) 
CHEMBL131923

>  <SMILES>  (1) 
NCCCC[C@@H](C(=O)N[C@H](C(=O)N[C@H](C(=O)N[C@H](C(=O)N[C@H](C(=O)N1CCC2C1C(=O)N(C2)[C@H](C(=O)N[C@H](C(=O)N)CCSC)CC(C)C)C(C)C)Cc1ccccc1)CO)CC(=O)O)N

>  <CID>  (1) 
44355117.0

>  <ChEMBL ID>  (1) 
nan

>  <InChiKey>  (1) 
VBHQHDIZNTVKGN-IVBZIRHGSA-N

>  <InChi>  (1) 
InChI=1S/C44H70N10O11S/c1-24(2)19-33(42(63)48-29(37(47)58)15-18-66-5)54-22-27-14-17-53(36(27)44(54)65)43(64)35(25(3)4)52-40(61)30(20-26-11-7-6-8-12-26)50-41(62)32(23-55)51-39(60)31(21-34(56)57)49-38(59)28(46)13-9-10-16-45/h6-8,11-12,24-25,27-33,35-36,55H,9-10,13-23,45-46H2,1-5H3,(H2,47,58)(H,48,63)(H,49,59)(H,50,62)(H,51,60)(H,52,61)(H,56,57)/t27?,28-,29-,30-,31-,32-,33-,35-,36?/m0/s1

>  <IUPAC Name>  (1) 
(3S)-4-[[(2S)-1-[[(2S)-1-[[(2S)-1-[5-[(2S)-1-[[(2S)-1-amino-4-methylsulfanyl-1-oxobutan-2-yl]amino]-4-methyl-1-oxopentan-2-yl]-6-oxo-3,3a,4,6a-tetrahydro-2H-pyrrolo[2,3-c]pyrrol-1-yl]-3-methyl-1-oxobutan-2-yl]amino]-1-oxo-3-phenylpropan-2-yl]amino]-3-hydroxy-1-oxopropan-2-yl]amino]-3-[[(2S)-2,6-diaminohexanoyl]amino]-4-oxobutanoic acid

$$$$
