
     RDKit          3D

 23 23  0  0  0  0  0  0  0  0999 V2000
   -2.2297    1.7013    0.4749 C   0  0  0  0  0  0  0  0  0  0  0  0
   -1.4125    0.7204    1.0149 O   0  0  0  0  0  0  0  0  0  0  0  0
   -0.8947   -0.1260    0.0071 C   0  0  0  0  0  0  0  0  0  0  0  0
    0.5711    0.0075    0.0487 C   0  0  0  0  0  0  0  0  0  0  0  0
    1.1705   -0.0226    1.3065 C   0  0  0  0  0  0  0  0  0  0  0  0
    2.5440    0.0976    1.4165 C   0  0  0  0  0  0  0  0  0  0  0  0
    3.3137    0.2465    0.2841 C   0  0  0  0  0  0  0  0  0  0  0  0
    2.7443    0.2805   -0.9888 C   0  0  0  0  0  0  0  0  0  0  0  0
    1.3653    0.1578   -1.0698 C   0  0  0  0  0  0  0  0  0  0  0  0
   -1.3303   -1.4001    0.3588 O   0  0  0  0  0  0  0  0  0  0  0  0
   -2.1465   -1.9786   -0.5864 C   0  0  0  0  0  0  0  0  0  0  0  0
   -2.6557    2.3849    1.2276 H   0  0  0  0  0  0  0  0  0  0  0  0
   -1.6397    2.2442   -0.2915 H   0  0  0  0  0  0  0  0  0  0  0  0
   -3.1164    1.2051   -0.0035 H   0  0  0  0  0  0  0  0  0  0  0  0
   -1.2711    0.2062   -0.9599 H   0  0  0  0  0  0  0  0  0  0  0  0
    0.5682   -0.1394    2.1975 H   0  0  0  0  0  0  0  0  0  0  0  0
    2.9829    0.0702    2.4150 H   0  0  0  0  0  0  0  0  0  0  0  0
    4.3878    0.3405    0.3703 H   0  0  0  0  0  0  0  0  0  0  0  0
    3.3653    0.3993   -1.8833 H   0  0  0  0  0  0  0  0  0  0  0  0
    0.8839    0.1790   -2.0361 H   0  0  0  0  0  0  0  0  0  0  0  0
   -1.6908   -2.1080   -1.5671 H   0  0  0  0  0  0  0  0  0  0  0  0
   -3.1230   -1.4672   -0.6472 H   0  0  0  0  0  0  0  0  0  0  0  0
   -2.3864   -2.9989   -0.1931 H   0  0  0  0  0  0  0  0  0  0  0  0
  1  2  1  0
  2  3  1  0
  3  4  1  0
  4  5  2  0
  5  6  1  0
  6  7  2  0
  7  8  1  0
  8  9  2  0
  3 10  1  0
 10 11  1  0
  9  4  1  0
  1 12  1  0
  1 13  1  0
  1 14  1  0
  3 15  1  0
  5 16  1  0
  6 17  1  0
  7 18  1  0
  8 19  1  0
  9 20  1  0
 11 21  1  0
 11 22  1  0
 11 23  1  0
M  END
>  <Ligand ID>  (1) 
LIG0000193

>  <Ligand>  (1) 
Benzaldehyde dimethyl acetal

>  <SMILES>  (1) 
COC(c1ccccc1)OC

>  <CID>  (1) 
62375.0

>  <ChEMBL ID>  (1) 
nan

>  <InChiKey>  (1) 
HEVMDQBCAHEHDY-UHFFFAOYSA-N

>  <InChi>  (1) 
InChI=1S/C9H12O2/c1-10-9(11-2)8-6-4-3-5-7-8/h3-7,9H,1-2H3

>  <IUPAC Name>  (1) 
dimethoxymethylbenzene

$$$$
