
     RDKit          3D

 56 56  0  0  0  0  0  0  0  0999 V2000
    1.6670   -0.0883    0.8134 O   0  0  0  0  0  0  0  0  0  0  0  0
    0.7032    0.1420   -0.1450 C   0  0  0  0  0  0  0  0  0  0  0  0
    1.0596    0.4248   -1.3384 O   0  0  0  0  0  0  0  0  0  0  0  0
   -0.7054    0.0691    0.1769 C   0  0  0  0  0  0  0  0  0  0  0  0
   -1.0567   -0.2142    1.3723 O   0  0  0  0  0  0  0  0  0  0  0  0
   -1.6708    0.3024   -0.7939 O   0  0  0  0  0  0  0  0  0  0  0  0
    2.4145   -0.8582   -1.1482 O   0  0  0  0  0  0  0  0  0  0  0  0
    2.0575   -0.1500   -0.1527 C   0  0  0  0  0  0  0  0  0  0  0  0
    2.9963    0.3078    0.8115 N   0  0  0  0  0  0  0  0  0  0  0  0
    4.3864    0.0309    0.7270 C   0  0  0  0  0  0  0  0  0  0  0  0
    4.9606   -1.1420    1.2020 C   0  0  0  0  0  0  0  0  0  0  0  0
    6.3229   -1.3753    1.1100 C   0  0  0  0  0  0  0  0  0  0  0  0
    6.9618   -2.8802    1.7287 Cl  0  0  0  0  0  0  0  0  0  0  0  0
    7.1710   -0.4539    0.5416 C   0  0  0  0  0  0  0  0  0  0  0  0
    6.6161    0.7090    0.0693 C   0  0  0  0  0  0  0  0  0  0  0  0
    5.2639    0.9510    0.1565 C   0  0  0  0  0  0  0  0  0  0  0  0
    4.7447    2.2506   -0.3687 C   0  0  0  0  0  0  0  0  0  0  0  0
    0.6272    0.2324    0.0360 C   0  0  0  0  0  0  0  0  0  0  0  0
   -0.2208   -0.3067   -0.9901 N   0  0  0  0  0  0  0  0  0  0  0  0
   -1.5571    0.1597   -0.9595 C   0  0  0  0  0  0  0  0  0  0  0  0
   -2.4345   -0.2472    0.1655 C   0  0  0  0  0  0  0  0  0  0  0  0
   -3.7640    0.4597   -0.1130 C   0  0  0  0  0  0  0  0  0  0  0  0
   -4.6520   -0.0658   -1.0197 C   0  0  0  0  0  0  0  0  0  0  0  0
   -5.8241    0.6590   -1.2148 C   0  0  0  0  0  0  0  0  0  0  0  0
   -6.0847    1.8332   -0.5428 C   0  0  0  0  0  0  0  0  0  0  0  0
   -5.1902    2.3582    0.3689 C   0  0  0  0  0  0  0  0  0  0  0  0
   -4.0220    1.6491    0.5736 C   0  0  0  0  0  0  0  0  0  0  0  0
   -2.7862   -1.6025    0.2983 N   0  0  0  0  0  0  0  0  0  0  0  0
   -3.6695   -1.9064    1.3607 C   0  0  0  0  0  0  0  0  0  0  0  0
   -1.9617   -2.6090   -0.2161 C   0  0  0  0  0  0  0  0  0  0  0  0
    2.5777   -0.4945    0.5452 H   0  0  0  0  0  0  0  0  0  0  0  0
   -2.5746   -0.1412   -0.6305 H   0  0  0  0  0  0  0  0  0  0  0  0
    2.6911    0.8789    1.6386 H   0  0  0  0  0  0  0  0  0  0  0  0
    4.2911   -1.8646    1.6463 H   0  0  0  0  0  0  0  0  0  0  0  0
    8.2475   -0.6445    0.4805 H   0  0  0  0  0  0  0  0  0  0  0  0
    7.2650    1.4372   -0.3769 H   0  0  0  0  0  0  0  0  0  0  0  0
    5.6002    2.8980   -0.6451 H   0  0  0  0  0  0  0  0  0  0  0  0
    4.0820    2.0444   -1.2078 H   0  0  0  0  0  0  0  0  0  0  0  0
    4.1754    2.7151    0.4838 H   0  0  0  0  0  0  0  0  0  0  0  0
    0.3206   -0.2353    1.0114 H   0  0  0  0  0  0  0  0  0  0  0  0
    0.5543    1.3314    0.1349 H   0  0  0  0  0  0  0  0  0  0  0  0
    0.1814   -0.1128   -1.9368 H   0  0  0  0  0  0  0  0  0  0  0  0
   -2.0929   -0.1310   -1.9024 H   0  0  0  0  0  0  0  0  0  0  0  0
   -1.5320    1.2719   -0.9746 H   0  0  0  0  0  0  0  0  0  0  0  0
   -2.0127    0.1873    1.0890 H   0  0  0  0  0  0  0  0  0  0  0  0
   -4.4445   -0.9890   -1.5503 H   0  0  0  0  0  0  0  0  0  0  0  0
   -6.5816    0.3189   -1.9167 H   0  0  0  0  0  0  0  0  0  0  0  0
   -7.0095    2.3672   -0.7271 H   0  0  0  0  0  0  0  0  0  0  0  0
   -5.3577    3.2725    0.9139 H   0  0  0  0  0  0  0  0  0  0  0  0
   -3.2951    2.0349    1.2859 H   0  0  0  0  0  0  0  0  0  0  0  0
   -3.6564   -1.1733    2.2060 H   0  0  0  0  0  0  0  0  0  0  0  0
   -3.6459   -2.9688    1.7106 H   0  0  0  0  0  0  0  0  0  0  0  0
   -4.7209   -1.7776    0.9421 H   0  0  0  0  0  0  0  0  0  0  0  0
   -1.7321   -2.3994   -1.2628 H   0  0  0  0  0  0  0  0  0  0  0  0
   -1.0879   -2.9170    0.3810 H   0  0  0  0  0  0  0  0  0  0  0  0
   -2.5955   -3.5481   -0.2663 H   0  0  0  0  0  0  0  0  0  0  0  0
  1  2  1  0
  2  3  2  0
  2  4  1  0
  4  5  2  0
  4  6  1  0
  7  8  2  0
  8  9  1  0
  9 10  1  0
 10 11  2  0
 11 12  1  0
 12 13  1  0
 12 14  2  0
 14 15  1  0
 15 16  2  0
 16 17  1  0
  8 18  1  0
 18 19  1  0
 19 20  1  0
 20 21  1  0
 21 22  1  0
 22 23  2  0
 23 24  1  0
 24 25  2  0
 25 26  1  0
 26 27  2  0
 21 28  1  0
 28 29  1  0
 28 30  1  0
 16 10  1  0
 27 22  1  0
  1 31  1  0
  6 32  1  0
  9 33  1  0
 11 34  1  0
 14 35  1  0
 15 36  1  0
 17 37  1  0
 17 38  1  0
 17 39  1  0
 18 40  1  0
 18 41  1  0
 19 42  1  0
 20 43  1  0
 20 44  1  0
 21 45  1  0
 23 46  1  0
 24 47  1  0
 25 48  1  0
 26 49  1  0
 27 50  1  0
 29 51  1  0
 29 52  1  0
 29 53  1  0
 30 54  1  0
 30 55  1  0
 30 56  1  0
M  END
>  <Ligand ID>  (1) 
LIG0003613

>  <Ligand>  (1) 
MLS001171190

>  <SMILES>  (1) 
OC(=O)C(=O)O.O=C(Nc1cc(Cl)ccc1C)CNCC(c1ccccc1)N(C)C

>  <CID>  (1) 
16246083.0

>  <ChEMBL ID>  (1) 
nan

>  <InChiKey>  (1) 
GDDNKVVFIUMABY-UHFFFAOYSA-N

>  <InChi>  (1) 
InChI=1S/C19H24ClN3O.C2H2O4/c1-14-9-10-16(20)11-17(14)22-19(24)13-21-12-18(23(2)3)15-7-5-4-6-8-15;3-1(4)2(5)6/h4-11,18,21H,12-13H2,1-3H3,(H,22,24);(H,3,4)(H,5,6)

>  <IUPAC Name>  (1) 
N-(5-chloro-2-methylphenyl)-2-[[2-(dimethylamino)-2-phenylethyl]amino]acetamide;oxalic acid

$$$$
