
     RDKit          3D

137139  0  0  0  0  0  0  0  0999 V2000
    8.3717    1.8833   -6.2379 N   0  0  0  0  0  0  0  0  0  0  0  0
    8.0988    2.1266   -4.8343 C   0  0  0  0  0  0  0  0  0  0  0  0
    7.8974    0.8065   -4.0877 C   0  0  0  0  0  0  0  0  0  0  0  0
    7.6252    1.0495   -2.6315 C   0  0  0  0  0  0  0  0  0  0  0  0
    7.3861   -0.2400   -1.9063 C   0  0  1  0  0  0  0  0  0  0  0  0
    8.5598   -1.1354   -1.9962 C   0  0  0  0  0  0  0  0  0  0  0  0
    9.0532   -1.5875   -3.0458 O   0  0  0  0  0  0  0  0  0  0  0  0
    9.1960   -1.5257   -0.7736 N   0  0  0  0  0  0  0  0  0  0  0  0
   10.3462   -2.4012   -0.8925 C   0  0  0  0  0  0  0  0  0  0  0  0
   10.9004   -2.7216    0.4496 C   0  0  0  0  0  0  0  0  0  0  0  0
   10.3859   -2.2569    1.5236 O   0  0  0  0  0  0  0  0  0  0  0  0
   12.0367   -3.5737    0.5252 N   0  0  0  0  0  0  0  0  0  0  0  0
    7.0937    0.0279   -0.4871 N   0  0  0  0  0  0  0  0  0  0  0  0
    5.8196   -0.3024    0.0872 C   0  0  0  0  0  0  0  0  0  0  0  0
    4.9267   -0.8221   -0.6110 O   0  0  0  0  0  0  0  0  0  0  0  0
    5.6858    0.0262    1.5337 C   0  0  2  0  0  0  0  0  0  0  0  0
    6.5204   -0.9486    2.3556 C   0  0  0  0  0  0  0  0  0  0  0  0
    5.5148   -1.6940    3.2552 C   0  0  0  0  0  0  0  0  0  0  0  0
    4.4802   -0.6013    3.4364 C   0  0  0  0  0  0  0  0  0  0  0  0
    4.3670   -0.0704    2.0714 N   0  0  0  0  0  0  0  0  0  0  0  0
    3.1239    0.2770    1.4572 C   0  0  0  0  0  0  0  0  0  0  0  0
    3.1842    0.8249    0.2982 O   0  0  0  0  0  0  0  0  0  0  0  0
    1.8026    0.0776    2.0196 C   0  0  2  0  0  0  0  0  0  0  0  0
    1.1852   -1.2842    1.7840 C   0  0  0  0  0  0  0  0  0  0  0  0
    1.8088   -2.6500    2.7109 S   0  0  0  0  0  0  0  0  0  0  0  0
    0.7407   -4.4157    2.1554 S   0  0  0  0  0  0  0  0  0  0  0  0
   -0.7761   -4.6250    3.1472 C   0  0  0  0  0  0  0  0  0  0  0  0
   -1.7583   -3.4856    2.7679 C   0  0  2  0  0  0  0  0  0  0  0  0
   -3.0012   -3.7279    3.4533 N   0  0  0  0  0  0  0  0  0  0  0  0
   -1.8749   -3.5372    1.3033 C   0  0  0  0  0  0  0  0  0  0  0  0
   -0.8428   -3.6097    0.6257 O   0  0  0  0  0  0  0  0  0  0  0  0
   -3.0976   -3.5065    0.5590 N   0  0  0  0  0  0  0  0  0  0  0  0
   -3.1067   -3.6759   -0.8205 C   0  0  1  0  0  0  0  0  0  0  0  0
   -3.7982   -4.9351   -1.3184 C   0  0  0  0  0  0  0  0  0  0  0  0
   -5.2249   -5.0122   -0.9258 C   0  0  0  0  0  0  0  0  0  0  0  0
   -6.2635   -4.5412   -1.6991 C   0  0  0  0  0  0  0  0  0  0  0  0
   -7.5455   -4.6696   -1.2079 C   0  0  0  0  0  0  0  0  0  0  0  0
   -7.7850   -5.2571    0.0314 C   0  0  0  0  0  0  0  0  0  0  0  0
   -6.7606   -5.7325    0.8170 C   0  0  0  0  0  0  0  0  0  0  0  0
   -5.4814   -5.6005    0.3189 C   0  0  0  0  0  0  0  0  0  0  0  0
   -3.6604   -2.5746   -1.5992 C   0  0  0  0  0  0  0  0  0  0  0  0
   -3.7057   -2.7246   -2.8437 O   0  0  0  0  0  0  0  0  0  0  0  0
   -4.1644   -1.3298   -1.1320 N   0  0  0  0  0  0  0  0  0  0  0  0
   -4.7103   -0.4155   -2.1433 C   0  0  2  0  0  0  0  0  0  0  0  0
   -4.2038    0.9319   -1.9119 C   0  0  0  0  0  0  0  0  0  0  0  0
   -4.3680    1.7801   -2.8258 O   0  0  0  0  0  0  0  0  0  0  0  0
   -3.5362    1.4381   -0.7638 N   0  0  0  0  0  0  0  0  0  0  0  0
   -3.1527    2.8477   -0.8146 C   0  0  2  0  0  0  0  0  0  0  0  0
   -2.1190    3.2624    0.1164 C   0  0  0  0  0  0  0  0  0  0  0  0
   -1.6257    4.4052    0.0309 O   0  0  0  0  0  0  0  0  0  0  0  0
   -1.5682    2.4760    1.1801 N   0  0  0  0  0  0  0  0  0  0  0  0
   -0.6169    3.0745    2.1355 C   0  0  2  0  0  0  0  0  0  0  0  0
    0.4748    2.1334    2.3208 C   0  0  0  0  0  0  0  0  0  0  0  0
    1.2760    2.3037    3.2619 O   0  0  0  0  0  0  0  0  0  0  0  0
    0.7616    0.9900    1.5116 N   0  0  0  0  0  0  0  0  0  0  0  0
   -1.3404    3.3325    3.4490 C   0  0  0  0  0  0  0  0  0  0  0  0
   -0.4311    3.9527    4.4271 C   0  0  0  0  0  0  0  0  0  0  0  0
    0.2148    3.3422    5.3111 O   0  0  0  0  0  0  0  0  0  0  0  0
   -0.2694    5.3696    4.3668 N   0  0  0  0  0  0  0  0  0  0  0  0
   -4.4899    3.5620   -0.4037 C   0  0  0  0  0  0  0  0  0  0  0  0
   -4.3716    5.0352   -0.3702 C   0  0  0  0  0  0  0  0  0  0  0  0
   -5.7137    5.5947    0.0278 C   0  0  0  0  0  0  0  0  0  0  0  0
   -6.7121    4.8615    0.2245 O   0  0  0  0  0  0  0  0  0  0  0  0
   -5.7569    7.0178    0.1629 N   0  0  0  0  0  0  0  0  0  0  0  0
   -6.8751    7.6810    0.5135 O   0  0  0  0  0  0  0  0  0  0  0  0
   -6.6701    9.0476    0.5978 C   0  0  0  0  0  0  0  0  0  0  0  0
   -6.2410   -0.4409   -2.0239 C   0  0  2  0  0  0  0  0  0  0  0  0
   -6.8374    0.4686   -3.0314 C   0  0  0  0  0  0  0  0  0  0  0  0
   -6.5318    0.1595   -4.4600 C   0  0  0  0  0  0  0  0  0  0  0  0
   -6.6685   -0.0002   -0.6434 C   0  0  0  0  0  0  0  0  0  0  0  0
    9.3555    2.1480   -6.5123 H   0  0  0  0  0  0  0  0  0  0  0  0
    8.2961    0.8483   -6.4310 H   0  0  0  0  0  0  0  0  0  0  0  0
    8.9152    2.7232   -4.4243 H   0  0  0  0  0  0  0  0  0  0  0  0
    7.1516    2.7359   -4.8160 H   0  0  0  0  0  0  0  0  0  0  0  0
    7.1042    0.2573   -4.6059 H   0  0  0  0  0  0  0  0  0  0  0  0
    8.8531    0.2349   -4.2569 H   0  0  0  0  0  0  0  0  0  0  0  0
    6.7394    1.7313   -2.4929 H   0  0  0  0  0  0  0  0  0  0  0  0
    8.5211    1.5361   -2.1324 H   0  0  0  0  0  0  0  0  0  0  0  0
    6.5071   -0.7232   -2.3855 H   0  0  0  0  0  0  0  0  0  0  0  0
    8.8948   -1.2341    0.1654 H   0  0  0  0  0  0  0  0  0  0  0  0
   11.1392   -1.9223   -1.4880 H   0  0  0  0  0  0  0  0  0  0  0  0
   10.0535   -3.3661   -1.3642 H   0  0  0  0  0  0  0  0  0  0  0  0
   12.7420   -3.4093    1.2905 H   0  0  0  0  0  0  0  0  0  0  0  0
   12.2315   -4.3561   -0.1171 H   0  0  0  0  0  0  0  0  0  0  0  0
    7.8548    0.4770    0.0821 H   0  0  0  0  0  0  0  0  0  0  0  0
    6.0584    1.0516    1.7462 H   0  0  0  0  0  0  0  0  0  0  0  0
    7.0429   -1.6981    1.7575 H   0  0  0  0  0  0  0  0  0  0  0  0
    7.2519   -0.4136    3.0019 H   0  0  0  0  0  0  0  0  0  0  0  0
    5.9556   -1.9457    4.2283 H   0  0  0  0  0  0  0  0  0  0  0  0
    5.1272   -2.5916    2.7796 H   0  0  0  0  0  0  0  0  0  0  0  0
    3.5810   -0.8440    3.9383 H   0  0  0  0  0  0  0  0  0  0  0  0
    4.9930    0.1873    4.0823 H   0  0  0  0  0  0  0  0  0  0  0  0
    1.9099    0.2115    3.1233 H   0  0  0  0  0  0  0  0  0  0  0  0
    1.3055   -1.5503    0.6676 H   0  0  0  0  0  0  0  0  0  0  0  0
    0.0590   -1.2074    1.8910 H   0  0  0  0  0  0  0  0  0  0  0  0
   -1.2013   -5.6096    2.8925 H   0  0  0  0  0  0  0  0  0  0  0  0
   -0.6006   -4.5590    4.2252 H   0  0  0  0  0  0  0  0  0  0  0  0
   -1.2939   -2.5310    3.1174 H   0  0  0  0  0  0  0  0  0  0  0  0
   -3.3587   -4.6614    3.0983 H   0  0  0  0  0  0  0  0  0  0  0  0
   -3.7198   -3.0224    3.1259 H   0  0  0  0  0  0  0  0  0  0  0  0
   -3.9306   -3.3492    1.1337 H   0  0  0  0  0  0  0  0  0  0  0  0
   -2.0232   -3.8311   -1.1515 H   0  0  0  0  0  0  0  0  0  0  0  0
   -3.7931   -4.8187   -2.4346 H   0  0  0  0  0  0  0  0  0  0  0  0
   -3.2550   -5.8615   -1.1199 H   0  0  0  0  0  0  0  0  0  0  0  0
   -6.0640   -4.0900   -2.6560 H   0  0  0  0  0  0  0  0  0  0  0  0
   -8.3720   -4.2986   -1.8151 H   0  0  0  0  0  0  0  0  0  0  0  0
   -8.8216   -5.3131    0.3281 H   0  0  0  0  0  0  0  0  0  0  0  0
   -6.9960   -6.1772    1.7673 H   0  0  0  0  0  0  0  0  0  0  0  0
   -4.6693   -5.9683    0.9292 H   0  0  0  0  0  0  0  0  0  0  0  0
   -4.1103   -1.1588   -0.1430 H   0  0  0  0  0  0  0  0  0  0  0  0
   -4.5389   -0.7854   -3.1818 H   0  0  0  0  0  0  0  0  0  0  0  0
   -3.3776    0.7936   -0.0066 H   0  0  0  0  0  0  0  0  0  0  0  0
   -2.9403    3.1925   -1.8392 H   0  0  0  0  0  0  0  0  0  0  0  0
   -1.8795    1.5108    1.2053 H   0  0  0  0  0  0  0  0  0  0  0  0
   -0.2624    4.0457    1.7131 H   0  0  0  0  0  0  0  0  0  0  0  0
    0.2422    0.8912    0.6609 H   0  0  0  0  0  0  0  0  0  0  0  0
   -1.6181    2.3322    3.9003 H   0  0  0  0  0  0  0  0  0  0  0  0
   -2.3022    3.8480    3.3167 H   0  0  0  0  0  0  0  0  0  0  0  0
    0.2726    5.8601    3.6267 H   0  0  0  0  0  0  0  0  0  0  0  0
   -0.7103    5.9918    5.0963 H   0  0  0  0  0  0  0  0  0  0  0  0
   -5.2132    3.2089   -1.1655 H   0  0  0  0  0  0  0  0  0  0  0  0
   -4.7398    3.0930    0.5688 H   0  0  0  0  0  0  0  0  0  0  0  0
   -4.1861    5.4054   -1.4001 H   0  0  0  0  0  0  0  0  0  0  0  0
   -3.5788    5.4614    0.2527 H   0  0  0  0  0  0  0  0  0  0  0  0
   -4.9003    7.5944   -0.0085 H   0  0  0  0  0  0  0  0  0  0  0  0
   -5.6999    9.2732    1.1227 H   0  0  0  0  0  0  0  0  0  0  0  0
   -7.4770    9.4686    1.2368 H   0  0  0  0  0  0  0  0  0  0  0  0
   -6.7198    9.5519   -0.4014 H   0  0  0  0  0  0  0  0  0  0  0  0
   -6.5518   -1.4743   -2.2709 H   0  0  0  0  0  0  0  0  0  0  0  0
   -7.9744    0.4657   -2.9302 H   0  0  0  0  0  0  0  0  0  0  0  0
   -6.6059    1.5601   -2.8580 H   0  0  0  0  0  0  0  0  0  0  0  0
   -5.9333    0.9665   -4.9769 H   0  0  0  0  0  0  0  0  0  0  0  0
   -7.4573    0.0899   -5.0678 H   0  0  0  0  0  0  0  0  0  0  0  0
   -6.0147   -0.8279   -4.6135 H   0  0  0  0  0  0  0  0  0  0  0  0
   -7.5865   -0.5532   -0.3624 H   0  0  0  0  0  0  0  0  0  0  0  0
   -5.9109   -0.2167    0.1329 H   0  0  0  0  0  0  0  0  0  0  0  0
   -6.9514    1.0872   -0.6573 H   0  0  0  0  0  0  0  0  0  0  0  0
  1  2  1  0
  2  3  1  0
  3  4  1  0
  4  5  1  0
  5  6  1  0
  6  7  2  0
  6  8  1  0
  8  9  1  0
  9 10  1  0
 10 11  2  0
 10 12  1  0
  5 13  1  0
 13 14  1  0
 14 15  2  0
 14 16  1  0
 16 17  1  0
 17 18  1  0
 18 19  1  0
 19 20  1  0
 20 21  1  0
 21 22  2  0
 21 23  1  0
 23 24  1  0
 24 25  1  0
 25 26  1  0
 26 27  1  0
 27 28  1  0
 28 29  1  0
 28 30  1  0
 30 31  2  0
 30 32  1  0
 32 33  1  0
 33 34  1  0
 34 35  1  0
 35 36  2  0
 36 37  1  0
 37 38  2  0
 38 39  1  0
 39 40  2  0
 33 41  1  0
 41 42  2  0
 41 43  1  0
 43 44  1  0
 44 45  1  0
 45 46  2  0
 45 47  1  0
 47 48  1  0
 48 49  1  0
 49 50  2  0
 49 51  1  0
 51 52  1  0
 52 53  1  0
 53 54  2  0
 53 55  1  0
 52 56  1  0
 56 57  1  0
 57 58  2  0
 57 59  1  0
 48 60  1  0
 60 61  1  0
 61 62  1  0
 62 63  2  0
 62 64  1  0
 64 65  1  0
 65 66  1  0
 44 67  1  0
 67 68  1  0
 68 69  1  0
 67 70  1  0
 20 16  1  0
 55 23  1  0
 40 35  1  0
  1 71  1  0
  1 72  1  0
  2 73  1  0
  2 74  1  0
  3 75  1  0
  3 76  1  0
  4 77  1  0
  4 78  1  0
  5 79  1  6
  8 80  1  0
  9 81  1  0
  9 82  1  0
 12 83  1  0
 12 84  1  0
 13 85  1  0
 16 86  1  6
 17 87  1  0
 17 88  1  0
 18 89  1  0
 18 90  1  0
 19 91  1  0
 19 92  1  0
 23 93  1  1
 24 94  1  0
 24 95  1  0
 27 96  1  0
 27 97  1  0
 28 98  1  6
 29 99  1  0
 29100  1  0
 32101  1  0
 33102  1  6
 34103  1  0
 34104  1  0
 36105  1  0
 37106  1  0
 38107  1  0
 39108  1  0
 40109  1  0
 43110  1  0
 44111  1  6
 47112  1  0
 48113  1  6
 51114  1  0
 52115  1  6
 55116  1  0
 56117  1  0
 56118  1  0
 59119  1  0
 59120  1  0
 60121  1  0
 60122  1  0
 61123  1  0
 61124  1  0
 64125  1  0
 66126  1  0
 66127  1  0
 66128  1  0
 67129  1  6
 68130  1  0
 68131  1  0
 69132  1  0
 69133  1  0
 69134  1  0
 70135  1  0
 70136  1  0
 70137  1  0
M  END
>  <Ligand ID>  (1) 
LIG0001598

>  <Ligand>  (1) 
CHEMBL1819560

>  <SMILES>  (1) 
NCCC[C@@H](C(=O)NCC(=O)N)NC(=O)[C@@H]1CCCN1C(=O)[C@@H]1CSSC[C@H](N)C(=O)N[C@@H](Cc2ccccc2)C(=O)N[C@H](C(=O)N[C@H](C(=O)N[C@H](C(=O)N1)CC(=O)N)CCC(=O)NOC)[C@H](CC)C

>  <CID>  (1) 
53362155.0

>  <ChEMBL ID>  (1) 
nan

>  <InChiKey>  (1) 
FSSHPKLZBINARL-GHDRINTISA-N

>  <InChi>  (1) 
InChI=1S/C43H67N13O12S2/c1-4-23(2)35-42(66)50-27(14-15-34(59)55-68-3)38(62)52-29(19-32(46)57)39(63)53-30(22-70-69-21-25(45)36(60)51-28(40(64)54-35)18-24-10-6-5-7-11-24)43(67)56-17-9-13-31(56)41(65)49-26(12-8-16-44)37(61)48-20-33(47)58/h5-7,10-11,23,25-31,35H,4,8-9,12-22,44-45H2,1-3H3,(H2,46,57)(H2,47,58)(H,48,61)(H,49,65)(H,50,66)(H,51,60)(H,52,62)(H,53,63)(H,54,64)(H,55,59)/t23-,25-,26-,27-,28-,29-,30-,31-,35-/m0/s1

>  <IUPAC Name>  (1) 
(2S)-N-[(2S)-5-amino-1-[(2-amino-2-oxoethyl)amino]-1-oxopentan-2-yl]-1-[(4R,7S,10S,13S,16S,19R)-19-amino-7-(2-amino-2-oxoethyl)-16-benzyl-13-[(2S)-butan-2-yl]-10-[3-(methoxyamino)-3-oxopropyl]-6,9,12,15,18-pentaoxo-1,2-dithia-5,8,11,14,17-pentazacycloicosane-4-carbonyl]pyrrolidine-2-carboxamide

$$$$
