
     RDKit          3D

145148  0  0  0  0  0  0  0  0999 V2000
    4.3654    5.4425   -1.4432 C   0  0  0  0  0  0  0  0  0  0  0  0
    4.0605    3.9852   -1.0947 C   0  0  0  0  0  0  0  0  0  0  0  0
    4.4947    3.7876    0.3195 C   0  0  0  0  0  0  0  0  0  0  0  0
    4.2308    2.3297    0.8018 C   0  0  1  0  0  0  0  0  0  0  0  0
    2.8073    2.1183    0.6602 C   0  0  0  0  0  0  0  0  0  0  0  0
    2.0426    2.9880    1.2297 O   0  0  0  0  0  0  0  0  0  0  0  0
    2.1524    1.0749   -0.0346 N   0  0  0  0  0  0  0  0  0  0  0  0
    0.6797    1.1166   -0.0710 C   0  0  2  0  0  0  0  0  0  0  0  0
    0.1619   -0.1345    0.5118 C   0  0  0  0  0  0  0  0  0  0  0  0
    0.8808   -1.1732    0.6866 O   0  0  0  0  0  0  0  0  0  0  0  0
   -1.2347   -0.1388    0.8975 N   0  0  0  0  0  0  0  0  0  0  0  0
   -1.7566   -1.3347    1.4594 C   0  0  2  0  0  0  0  0  0  0  0  0
   -3.1963   -1.4006    1.6042 C   0  0  0  0  0  0  0  0  0  0  0  0
   -3.6696   -2.5953    1.7844 O   0  0  0  0  0  0  0  0  0  0  0  0
   -4.1746   -0.3827    1.5902 N   0  0  0  0  0  0  0  0  0  0  0  0
   -4.0662    1.0564    1.4651 C   0  0  0  0  0  0  0  0  0  0  0  0
   -5.3526    1.6753    1.9895 C   0  0  0  0  0  0  0  0  0  0  0  0
   -6.0060    0.4824    2.6665 C   0  0  0  0  0  0  0  0  0  0  0  0
   -5.6018   -0.6378    1.7249 C   0  0  1  0  0  0  0  0  0  0  0  0
   -6.3256   -0.4118    0.4118 C   0  0  0  0  0  0  0  0  0  0  0  0
   -5.5680   -0.2356   -0.5603 O   0  0  0  0  0  0  0  0  0  0  0  0
   -7.7114   -0.4225    0.4481 N   0  0  0  0  0  0  0  0  0  0  0  0
   -8.7014   -0.2223   -0.5326 C   0  0  2  0  0  0  0  0  0  0  0  0
   -9.7594   -1.2551   -0.5551 C   0  0  0  0  0  0  0  0  0  0  0  0
  -10.7127   -1.1834   -1.3648 O   0  0  0  0  0  0  0  0  0  0  0  0
   -9.6682   -2.3501    0.3781 N   0  0  0  0  0  0  0  0  0  0  0  0
  -10.7252   -3.3348    0.3237 C   0  0  2  0  0  0  0  0  0  0  0  0
  -11.4534   -3.3185    1.6210 C   0  0  0  0  0  0  0  0  0  0  0  0
  -12.4190   -4.0985    1.7984 O   0  0  0  0  0  0  0  0  0  0  0  0
  -11.0836   -2.4337    2.6837 N   0  0  0  0  0  0  0  0  0  0  0  0
  -10.2408   -4.7275    0.0112 C   0  0  0  0  0  0  0  0  0  0  0  0
   -9.3049   -5.1704    1.0397 C   0  0  0  0  0  0  0  0  0  0  0  0
   -8.9616   -4.5288    2.0617 O   0  0  0  0  0  0  0  0  0  0  0  0
   -8.6944   -6.4679    0.8957 N   0  0  0  0  0  0  0  0  0  0  0  0
   -8.3601    0.1274   -1.9250 C   0  0  0  0  0  0  0  0  0  0  0  0
   -7.6884    1.4166   -2.1443 C   0  0  0  0  0  0  0  0  0  0  0  0
   -8.5912    2.5805   -1.7103 C   0  0  0  0  0  0  0  0  0  0  0  0
   -9.8321    2.6194   -2.4150 N   0  0  0  0  0  0  0  0  0  0  0  0
  -10.8335    3.2893   -1.9452 C   0  0  0  0  0  0  0  0  0  0  0  0
  -10.7353    4.0033   -0.7219 N   0  0  0  0  0  0  0  0  0  0  0  0
  -12.0376    3.2995   -2.6844 N   0  0  0  0  0  0  0  0  0  0  0  0
   -1.1266   -1.4479    2.9148 C   0  0  0  0  0  0  0  0  0  0  0  0
    0.3408    1.2594   -1.5521 C   0  0  0  0  0  0  0  0  0  0  0  0
   -1.0573    1.3166   -1.8808 C   0  0  0  0  0  0  0  0  0  0  0  0
   -1.7336    0.1417   -2.1752 C   0  0  0  0  0  0  0  0  0  0  0  0
   -3.0650    0.2127   -2.5274 C   0  0  0  0  0  0  0  0  0  0  0  0
   -3.6707    1.4499   -2.5726 C   0  0  0  0  0  0  0  0  0  0  0  0
   -3.0253    2.6306   -2.2838 C   0  0  0  0  0  0  0  0  0  0  0  0
   -1.7037    2.5549   -1.9343 C   0  0  0  0  0  0  0  0  0  0  0  0
    5.1178    1.4329    0.1198 N   0  0  0  0  0  0  0  0  0  0  0  0
    6.4160    1.2773    0.6098 C   0  0  0  0  0  0  0  0  0  0  0  0
    6.7447    1.9310    1.6399 O   0  0  0  0  0  0  0  0  0  0  0  0
    7.4651    0.3873   -0.0095 C   0  0  1  0  0  0  0  0  0  0  0  0
    8.7115    0.6373    0.6512 N   0  0  0  0  0  0  0  0  0  0  0  0
    9.1962    0.0618    1.8340 C   0  0  0  0  0  0  0  0  0  0  0  0
    8.4936   -0.8072    2.4558 O   0  0  0  0  0  0  0  0  0  0  0  0
   10.4865    0.4005    2.4237 C   0  0  2  0  0  0  0  0  0  0  0  0
   11.5973    0.6329    1.4701 C   0  0  0  0  0  0  0  0  0  0  0  0
   11.9695   -0.4819    0.5910 C   0  0  0  0  0  0  0  0  0  0  0  0
   11.4964   -0.6870   -0.6832 C   0  0  0  0  0  0  0  0  0  0  0  0
   11.8856   -1.7407   -1.4813 C   0  0  0  0  0  0  0  0  0  0  0  0
   12.7998   -2.6701   -1.0206 C   0  0  0  0  0  0  0  0  0  0  0  0
   13.2905   -2.4943    0.2462 C   0  0  0  0  0  0  0  0  0  0  0  0
   12.8978   -1.4380    1.0407 C   0  0  0  0  0  0  0  0  0  0  0  0
   13.1525   -3.7019   -1.8639 O   0  0  0  0  0  0  0  0  0  0  0  0
   10.8998   -0.5266    3.4663 N   0  0  0  0  0  0  0  0  0  0  0  0
    6.9615   -1.0137   -0.0102 C   0  0  0  0  0  0  0  0  0  0  0  0
    7.7939   -2.0401   -0.6231 C   0  0  0  0  0  0  0  0  0  0  0  0
    8.6542   -2.9068   -0.0061 C   0  0  0  0  0  0  0  0  0  0  0  0
    9.4035   -3.8447   -0.7328 C   0  0  0  0  0  0  0  0  0  0  0  0
    9.3111   -3.9417   -2.1023 C   0  0  0  0  0  0  0  0  0  0  0  0
    8.4433   -3.0688   -2.7298 C   0  0  0  0  0  0  0  0  0  0  0  0
    7.7124   -2.1522   -2.0150 C   0  0  0  0  0  0  0  0  0  0  0  0
    4.7252    3.1182   -2.1064 C   0  0  0  0  0  0  0  0  0  0  0  0
    4.0678    5.7094   -2.4574 H   0  0  0  0  0  0  0  0  0  0  0  0
    3.9204    6.1245   -0.6657 H   0  0  0  0  0  0  0  0  0  0  0  0
    5.4607    5.5674   -1.3568 H   0  0  0  0  0  0  0  0  0  0  0  0
    2.9455    3.8958   -1.2014 H   0  0  0  0  0  0  0  0  0  0  0  0
    5.5410    4.0603    0.4490 H   0  0  0  0  0  0  0  0  0  0  0  0
    3.8720    4.4127    0.9757 H   0  0  0  0  0  0  0  0  0  0  0  0
    4.5323    2.3934    1.8667 H   0  0  0  0  0  0  0  0  0  0  0  0
    2.7137    0.3400   -0.4836 H   0  0  0  0  0  0  0  0  0  0  0  0
    0.3166    2.0149    0.4171 H   0  0  0  0  0  0  0  0  0  0  0  0
   -1.7261    0.7453    0.7162 H   0  0  0  0  0  0  0  0  0  0  0  0
   -1.3544   -2.2731    0.9944 H   0  0  0  0  0  0  0  0  0  0  0  0
   -3.9663    1.3132    0.4117 H   0  0  0  0  0  0  0  0  0  0  0  0
   -3.2738    1.4932    2.1342 H   0  0  0  0  0  0  0  0  0  0  0  0
   -5.9807    2.0049    1.1381 H   0  0  0  0  0  0  0  0  0  0  0  0
   -5.1745    2.5158    2.6813 H   0  0  0  0  0  0  0  0  0  0  0  0
   -5.6539    0.3646    3.6909 H   0  0  0  0  0  0  0  0  0  0  0  0
   -7.1027    0.6863    2.6388 H   0  0  0  0  0  0  0  0  0  0  0  0
   -5.7662   -1.6350    2.0764 H   0  0  0  0  0  0  0  0  0  0  0  0
   -8.1308   -0.6208    1.4437 H   0  0  0  0  0  0  0  0  0  0  0  0
   -9.1908    0.7831   -0.1794 H   0  0  0  0  0  0  0  0  0  0  0  0
   -8.8911   -2.4445    1.0591 H   0  0  0  0  0  0  0  0  0  0  0  0
  -11.4927   -3.0480   -0.4617 H   0  0  0  0  0  0  0  0  0  0  0  0
  -11.7530   -2.2606    3.4590 H   0  0  0  0  0  0  0  0  0  0  0  0
  -10.1324   -2.0048    2.6134 H   0  0  0  0  0  0  0  0  0  0  0  0
  -11.1522   -5.3865    0.0562 H   0  0  0  0  0  0  0  0  0  0  0  0
   -9.8580   -4.8220   -1.0203 H   0  0  0  0  0  0  0  0  0  0  0  0
   -7.7351   -6.5846    0.4891 H   0  0  0  0  0  0  0  0  0  0  0  0
   -9.1812   -7.3458    1.1885 H   0  0  0  0  0  0  0  0  0  0  0  0
   -7.8904   -0.7222   -2.4946 H   0  0  0  0  0  0  0  0  0  0  0  0
   -9.3643    0.2063   -2.4621 H   0  0  0  0  0  0  0  0  0  0  0  0
   -7.5313    1.5843   -3.2688 H   0  0  0  0  0  0  0  0  0  0  0  0
   -6.7443    1.6299   -1.6582 H   0  0  0  0  0  0  0  0  0  0  0  0
   -8.7685    2.6041   -0.6312 H   0  0  0  0  0  0  0  0  0  0  0  0
   -8.0614    3.5470   -1.9614 H   0  0  0  0  0  0  0  0  0  0  0  0
  -10.3741    3.5894    0.1536 H   0  0  0  0  0  0  0  0  0  0  0  0
  -11.0389    5.0074   -0.6965 H   0  0  0  0  0  0  0  0  0  0  0  0
  -12.0083    3.1559   -3.7034 H   0  0  0  0  0  0  0  0  0  0  0  0
  -12.9690    3.4500   -2.2202 H   0  0  0  0  0  0  0  0  0  0  0  0
   -0.0846   -1.6924    2.7298 H   0  0  0  0  0  0  0  0  0  0  0  0
   -1.3410   -0.5075    3.4283 H   0  0  0  0  0  0  0  0  0  0  0  0
   -1.6950   -2.2628    3.3690 H   0  0  0  0  0  0  0  0  0  0  0  0
    0.9248    0.5029   -2.1402 H   0  0  0  0  0  0  0  0  0  0  0  0
    0.8156    2.2393   -1.8549 H   0  0  0  0  0  0  0  0  0  0  0  0
   -1.2806   -0.8340   -2.1459 H   0  0  0  0  0  0  0  0  0  0  0  0
   -3.6401   -0.6687   -2.7666 H   0  0  0  0  0  0  0  0  0  0  0  0
   -4.7019    1.5084   -2.8500 H   0  0  0  0  0  0  0  0  0  0  0  0
   -3.5598    3.5762   -2.3390 H   0  0  0  0  0  0  0  0  0  0  0  0
   -1.1473    3.4385   -1.6999 H   0  0  0  0  0  0  0  0  0  0  0  0
    4.8529    0.8700   -0.7351 H   0  0  0  0  0  0  0  0  0  0  0  0
    7.5467    0.6920   -1.0841 H   0  0  0  0  0  0  0  0  0  0  0  0
    9.3522    1.3594    0.1920 H   0  0  0  0  0  0  0  0  0  0  0  0
   10.2956    1.3766    2.9988 H   0  0  0  0  0  0  0  0  0  0  0  0
   12.5353    0.8698    2.0635 H   0  0  0  0  0  0  0  0  0  0  0  0
   11.4183    1.5768    0.8834 H   0  0  0  0  0  0  0  0  0  0  0  0
   10.7800   -0.0010   -1.1098 H   0  0  0  0  0  0  0  0  0  0  0  0
   11.4814   -1.8421   -2.4642 H   0  0  0  0  0  0  0  0  0  0  0  0
   14.0076   -3.2331    0.5942 H   0  0  0  0  0  0  0  0  0  0  0  0
   13.3115   -1.3407    2.0265 H   0  0  0  0  0  0  0  0  0  0  0  0
   13.5806   -4.5181   -1.4405 H   0  0  0  0  0  0  0  0  0  0  0  0
   10.1487   -0.7224    4.1456 H   0  0  0  0  0  0  0  0  0  0  0  0
   11.7015   -0.0338    3.9575 H   0  0  0  0  0  0  0  0  0  0  0  0
    6.7128   -1.3826    1.0177 H   0  0  0  0  0  0  0  0  0  0  0  0
    5.9684   -0.9901   -0.5520 H   0  0  0  0  0  0  0  0  0  0  0  0
    8.7905   -2.9342    1.0426 H   0  0  0  0  0  0  0  0  0  0  0  0
   10.0858   -4.5251   -0.2221 H   0  0  0  0  0  0  0  0  0  0  0  0
    9.9082   -4.6761   -2.6123 H   0  0  0  0  0  0  0  0  0  0  0  0
    8.3856   -3.1639   -3.8162 H   0  0  0  0  0  0  0  0  0  0  0  0
    7.0565   -1.5061   -2.5926 H   0  0  0  0  0  0  0  0  0  0  0  0
    4.0699    2.2983   -2.4759 H   0  0  0  0  0  0  0  0  0  0  0  0
    4.9079    3.7390   -3.0351 H   0  0  0  0  0  0  0  0  0  0  0  0
    5.7146    2.8207   -1.7667 H   0  0  0  0  0  0  0  0  0  0  0  0
  1  2  1  0
  2  3  1  0
  3  4  1  0
  4  5  1  0
  5  6  2  0
  5  7  1  0
  7  8  1  0
  8  9  1  0
  9 10  2  0
  9 11  1  0
 11 12  1  0
 12 13  1  0
 13 14  2  0
 13 15  1  0
 15 16  1  0
 16 17  1  0
 17 18  1  0
 18 19  1  0
 19 20  1  0
 20 21  2  0
 20 22  1  0
 22 23  1  0
 23 24  1  0
 24 25  2  0
 24 26  1  0
 26 27  1  0
 27 28  1  0
 28 29  2  0
 28 30  1  0
 27 31  1  0
 31 32  1  0
 32 33  2  0
 32 34  1  0
 23 35  1  0
 35 36  1  0
 36 37  1  0
 37 38  1  0
 38 39  2  3
 39 40  1  0
 39 41  1  0
 12 42  1  0
  8 43  1  0
 43 44  1  0
 44 45  2  0
 45 46  1  0
 46 47  2  0
 47 48  1  0
 48 49  2  0
  4 50  1  0
 50 51  1  0
 51 52  2  0
 51 53  1  0
 53 54  1  0
 54 55  1  0
 55 56  2  0
 55 57  1  0
 57 58  1  0
 58 59  1  0
 59 60  2  0
 60 61  1  0
 61 62  2  0
 62 63  1  0
 63 64  2  0
 62 65  1  0
 57 66  1  0
 53 67  1  0
 67 68  1  0
 68 69  2  0
 69 70  1  0
 70 71  2  0
 71 72  1  0
 72 73  2  0
  2 74  1  0
 19 15  1  0
 49 44  1  0
 64 59  1  0
 73 68  1  0
  1 75  1  0
  1 76  1  0
  1 77  1  0
  2 78  1  0
  3 79  1  0
  3 80  1  0
  4 81  1  1
  7 82  1  0
  8 83  1  1
 11 84  1  0
 12 85  1  6
 16 86  1  0
 16 87  1  0
 17 88  1  0
 17 89  1  0
 18 90  1  0
 18 91  1  0
 19 92  1  1
 22 93  1  0
 23 94  1  1
 26 95  1  0
 27 96  1  6
 30 97  1  0
 30 98  1  0
 31 99  1  0
 31100  1  0
 34101  1  0
 34102  1  0
 35103  1  0
 35104  1  0
 36105  1  0
 36106  1  0
 37107  1  0
 37108  1  0
 40109  1  0
 40110  1  0
 41111  1  0
 41112  1  0
 42113  1  0
 42114  1  0
 42115  1  0
 43116  1  0
 43117  1  0
 45118  1  0
 46119  1  0
 47120  1  0
 48121  1  0
 49122  1  0
 50123  1  0
 53124  1  6
 54125  1  0
 57126  1  1
 58127  1  0
 58128  1  0
 60129  1  0
 61130  1  0
 63131  1  0
 64132  1  0
 65133  1  0
 66134  1  0
 66135  1  0
 67136  1  0
 67137  1  0
 69138  1  0
 70139  1  0
 71140  1  0
 72141  1  0
 73142  1  0
 74143  1  0
 74144  1  0
 74145  1  0
M  END
>  <Ligand ID>  (1) 
LIG0005164

>  <Ligand>  (1) 
CHEMBL3356082

>  <SMILES>  (1) 
CC(C[C@@H](C(=O)N[C@H](C(=O)N[C@H](C(=O)N1CCC[C@H]1C(=O)N[C@H](C(=O)N[C@H](C(=O)N)CC(=O)N)CCCN=C(N)N)C)Cc1ccccc1)NC(=O)[C@@H](NC(=O)[C@H](Cc1ccc(cc1)O)N)Cc1ccccc1)C

>  <CID>  (1) 
118721282.0

>  <ChEMBL ID>  (1) 
nan

>  <InChiKey>  (1) 
ODHCNHMXLLLMPG-OLDVANGTSA-N

>  <InChi>  (1) 
InChI=1S/C51H71N13O10/c1-29(2)24-38(62-48(72)40(27-32-14-8-5-9-15-32)61-44(68)35(52)25-33-18-20-34(65)21-19-33)47(71)63-39(26-31-12-6-4-7-13-31)46(70)58-30(3)50(74)64-23-11-17-41(64)49(73)59-36(16-10-22-57-51(55)56)45(69)60-37(43(54)67)28-42(53)66/h4-9,12-15,18-21,29-30,35-41,65H,10-11,16-17,22-28,52H2,1-3H3,(H2,53,66)(H2,54,67)(H,58,70)(H,59,73)(H,60,69)(H,61,68)(H,62,72)(H,63,71)(H4,55,56,57)/t30-,35-,36-,37-,38-,39-,40-,41-/m0/s1

>  <IUPAC Name>  (1) 
(2S)-2-[[(2S)-2-[[(2S)-1-[(2S)-2-[[(2S)-2-[[(2S)-2-[[(2S)-2-[[(2S)-2-amino-3-(4-hydroxyphenyl)propanoyl]amino]-3-phenylpropanoyl]amino]-4-methylpentanoyl]amino]-3-phenylpropanoyl]amino]propanoyl]pyrrolidine-2-carbonyl]amino]-5-(diaminomethylideneamino)pentanoyl]amino]butanediamide

$$$$
