
     RDKit          3D

155160  0  0  0  0  0  0  0  0999 V2000
    9.1826   -0.5673   -0.9033 C   0  0  0  0  0  0  0  0  0  0  0  0
    8.8862   -2.0006   -0.6136 C   0  0  0  0  0  0  0  0  0  0  0  0
    7.8212   -2.2481    0.3805 C   0  0  0  0  0  0  0  0  0  0  0  0
    6.4155   -1.8961    0.1635 C   0  0  0  0  0  0  0  0  0  0  0  0
    5.9115   -0.5359   -0.0684 C   0  0  2  0  0  0  0  0  0  0  0  0
    4.3542   -0.6214   -0.1841 C   0  0  0  0  0  0  0  0  0  0  0  0
    3.8506   -0.2546   -1.2660 O   0  0  0  0  0  0  0  0  0  0  0  0
    3.6429   -1.1069    0.9356 N   0  0  0  0  0  0  0  0  0  0  0  0
    2.2335   -1.2908    1.0517 C   0  0  1  0  0  0  0  0  0  0  0  0
    1.9012   -2.7622    1.1821 C   0  0  0  0  0  0  0  0  0  0  0  0
    2.3298   -3.5497    0.0071 C   0  0  0  0  0  0  0  0  0  0  0  0
    3.1429   -3.1681   -0.8577 O   0  0  0  0  0  0  0  0  0  0  0  0
    1.8281   -4.8834   -0.2710 N   0  0  0  0  0  0  0  0  0  0  0  0
    2.2926   -5.6047   -1.4572 C   0  0  0  0  0  0  0  0  0  0  0  0
    1.6188   -6.9382   -1.5927 C   0  0  0  0  0  0  0  0  0  0  0  0
    0.1041   -6.7384   -1.7161 C   0  0  0  0  0  0  0  0  0  0  0  0
   -0.2099   -5.9782   -2.9638 C   0  0  0  0  0  0  0  0  0  0  0  0
   -1.6998   -5.6664   -3.1182 C   0  0  2  0  0  0  0  0  0  0  0  0
   -2.1048   -4.8025   -2.0329 N   0  0  0  0  0  0  0  0  0  0  0  0
   -2.8776   -3.6193   -2.1654 C   0  0  0  0  0  0  0  0  0  0  0  0
   -3.2834   -3.3422   -3.2884 O   0  0  0  0  0  0  0  0  0  0  0  0
   -3.1290   -2.8094   -0.9222 C   0  0  1  0  0  0  0  0  0  0  0  0
   -3.8325   -1.5792   -1.1775 N   0  0  0  0  0  0  0  0  0  0  0  0
   -3.1852   -0.3292   -0.9714 C   0  0  0  0  0  0  0  0  0  0  0  0
   -1.9839   -0.4580   -0.7019 O   0  0  0  0  0  0  0  0  0  0  0  0
   -3.7539    1.0190   -1.0436 C   0  0  1  0  0  0  0  0  0  0  0  0
   -2.6927    2.0122   -0.7261 N   0  0  0  0  0  0  0  0  0  0  0  0
   -2.0419    1.9608    0.5289 C   0  0  0  0  0  0  0  0  0  0  0  0
   -2.3809    1.0682    1.3024 O   0  0  0  0  0  0  0  0  0  0  0  0
   -0.9390    2.9757    0.9079 C   0  0  2  0  0  0  0  0  0  0  0  0
   -0.1361    2.3063    1.8605 N   0  0  0  0  0  0  0  0  0  0  0  0
    0.1255    2.3455    3.2146 C   0  0  0  0  0  0  0  0  0  0  0  0
   -0.4127    3.1614    3.9241 O   0  0  0  0  0  0  0  0  0  0  0  0
    1.1033    1.3161    3.7597 C   0  0  1  0  0  0  0  0  0  0  0  0
    1.8409    0.7155    2.6668 N   0  0  0  0  0  0  0  0  0  0  0  0
    1.5126   -0.5373    2.0768 C   0  0  0  0  0  0  0  0  0  0  0  0
    0.4494   -0.9950    2.5237 O   0  0  0  0  0  0  0  0  0  0  0  0
    2.9082    1.4277    2.0848 C   0  0  0  0  0  0  0  0  0  0  0  0
    1.7929    1.6777    4.9830 C   0  0  0  0  0  0  0  0  0  0  0  0
    2.6497    2.8527    5.0404 C   0  0  0  0  0  0  0  0  0  0  0  0
    3.9860    2.9519    4.8010 N   0  0  0  0  0  0  0  0  0  0  0  0
    4.4129    4.2033    4.9518 C   0  0  0  0  0  0  0  0  0  0  0  0
    3.3383    4.9528    5.2992 N   0  0  0  0  0  0  0  0  0  0  0  0
    2.2555    4.1597    5.3611 C   0  0  0  0  0  0  0  0  0  0  0  0
   -1.6424    4.2162    1.2326 C   0  0  0  0  0  0  0  0  0  0  0  0
   -0.9724    5.4463    1.5653 C   0  0  0  0  0  0  0  0  0  0  0  0
   -0.7692    6.0509    2.7707 C   0  0  0  0  0  0  0  0  0  0  0  0
   -0.0931    7.2483    2.9428 C   0  0  0  0  0  0  0  0  0  0  0  0
    0.4259    7.9109    1.8545 C   0  0  0  0  0  0  0  0  0  0  0  0
    0.2428    7.3355    0.6213 C   0  0  0  0  0  0  0  0  0  0  0  0
   -0.4223    6.1586    0.4620 C   0  0  0  0  0  0  0  0  0  0  0  0
    0.7549    7.9952   -0.4978 C   0  0  0  0  0  0  0  0  0  0  0  0
    1.4297    9.1860   -0.4156 C   0  0  0  0  0  0  0  0  0  0  0  0
    1.6082    9.7532    0.8256 C   0  0  0  0  0  0  0  0  0  0  0  0
    1.1049    9.1073    1.9333 C   0  0  0  0  0  0  0  0  0  0  0  0
   -4.5706    1.4349   -2.1735 C   0  0  0  0  0  0  0  0  0  0  0  0
   -3.9020    1.3792   -3.5226 C   0  0  0  0  0  0  0  0  0  0  0  0
   -4.8367    1.8366   -4.6356 C   0  0  0  0  0  0  0  0  0  0  0  0
   -6.0248    1.0108   -4.7264 N   0  0  0  0  0  0  0  0  0  0  0  0
   -7.1851    1.4644   -5.0591 C   0  0  0  0  0  0  0  0  0  0  0  0
   -7.4316    2.8290   -5.3753 N   0  0  0  0  0  0  0  0  0  0  0  0
   -8.2625    0.5495   -5.1120 N   0  0  0  0  0  0  0  0  0  0  0  0
   -5.1584   -1.5167   -1.6881 C   0  0  0  0  0  0  0  0  0  0  0  0
   -3.6904   -3.6718    0.1815 C   0  0  0  0  0  0  0  0  0  0  0  0
   -3.9543   -3.0108    1.4510 C   0  0  0  0  0  0  0  0  0  0  0  0
   -2.9518   -2.9179    2.4492 C   0  0  0  0  0  0  0  0  0  0  0  0
   -3.4316   -2.2115    3.4816 N   0  0  0  0  0  0  0  0  0  0  0  0
   -4.6902   -1.8252    3.2427 C   0  0  0  0  0  0  0  0  0  0  0  0
   -5.0026   -2.3236    1.9905 C   0  0  0  0  0  0  0  0  0  0  0  0
   -6.2559   -2.0849    1.5108 C   0  0  0  0  0  0  0  0  0  0  0  0
   -7.1804   -1.3725    2.2359 C   0  0  0  0  0  0  0  0  0  0  0  0
   -6.8832   -0.8617    3.4936 C   0  0  0  0  0  0  0  0  0  0  0  0
   -5.6038   -1.1075    3.9860 C   0  0  0  0  0  0  0  0  0  0  0  0
   -2.3860   -6.9805   -2.8481 C   0  0  0  0  0  0  0  0  0  0  0  0
   -3.1278   -7.0677   -1.8223 O   0  0  0  0  0  0  0  0  0  0  0  0
   -2.1759   -8.0536   -3.7427 N   0  0  0  0  0  0  0  0  0  0  0  0
    6.3413   -0.0249   -1.3660 N   0  0  0  0  0  0  0  0  0  0  0  0
    6.6084    1.3830   -1.5200 C   0  0  0  0  0  0  0  0  0  0  0  0
    6.4823    2.1881   -0.5646 O   0  0  0  0  0  0  0  0  0  0  0  0
    7.0412    1.8279   -2.8687 C   0  0  0  0  0  0  0  0  0  0  0  0
    8.9656   -0.2398   -1.9416 H   0  0  0  0  0  0  0  0  0  0  0  0
   10.2964   -0.4065   -0.7802 H   0  0  0  0  0  0  0  0  0  0  0  0
    8.7529    0.0757   -0.1097 H   0  0  0  0  0  0  0  0  0  0  0  0
    8.6818   -2.5647   -1.5800 H   0  0  0  0  0  0  0  0  0  0  0  0
    9.8608   -2.4776   -0.2485 H   0  0  0  0  0  0  0  0  0  0  0  0
    8.1488   -1.7707    1.3751 H   0  0  0  0  0  0  0  0  0  0  0  0
    7.8780   -3.3641    0.6620 H   0  0  0  0  0  0  0  0  0  0  0  0
    5.8138   -2.3825    1.0284 H   0  0  0  0  0  0  0  0  0  0  0  0
    6.0915   -2.5468   -0.7507 H   0  0  0  0  0  0  0  0  0  0  0  0
    6.0772    0.1690    0.7395 H   0  0  0  0  0  0  0  0  0  0  0  0
    4.2267   -1.3631    1.7891 H   0  0  0  0  0  0  0  0  0  0  0  0
    1.7731   -1.0091    0.0128 H   0  0  0  0  0  0  0  0  0  0  0  0
    0.7855   -2.9127    1.2729 H   0  0  0  0  0  0  0  0  0  0  0  0
    2.2946   -3.1861    2.1372 H   0  0  0  0  0  0  0  0  0  0  0  0
    1.1624   -5.2256    0.4118 H   0  0  0  0  0  0  0  0  0  0  0  0
    2.1856   -4.9340   -2.3144 H   0  0  0  0  0  0  0  0  0  0  0  0
    3.3879   -5.8117   -1.3740 H   0  0  0  0  0  0  0  0  0  0  0  0
    2.0232   -7.4040   -2.5209 H   0  0  0  0  0  0  0  0  0  0  0  0
    1.8713   -7.5635   -0.7191 H   0  0  0  0  0  0  0  0  0  0  0  0
   -0.2442   -6.1889   -0.8265 H   0  0  0  0  0  0  0  0  0  0  0  0
   -0.3343   -7.7590   -1.7093 H   0  0  0  0  0  0  0  0  0  0  0  0
    0.2865   -4.9669   -2.8838 H   0  0  0  0  0  0  0  0  0  0  0  0
    0.1520   -6.5015   -3.8698 H   0  0  0  0  0  0  0  0  0  0  0  0
   -1.9732   -5.3399   -4.1122 H   0  0  0  0  0  0  0  0  0  0  0  0
   -1.8195   -5.0519   -1.0888 H   0  0  0  0  0  0  0  0  0  0  0  0
   -2.0705   -2.5812   -0.5585 H   0  0  0  0  0  0  0  0  0  0  0  0
   -4.3654    1.0896   -0.0902 H   0  0  0  0  0  0  0  0  0  0  0  0
   -2.3972    2.7443   -1.3619 H   0  0  0  0  0  0  0  0  0  0  0  0
   -0.3257    3.1910   -0.0029 H   0  0  0  0  0  0  0  0  0  0  0  0
    0.4663    1.5189    1.3699 H   0  0  0  0  0  0  0  0  0  0  0  0
    0.3208    0.5168    4.0640 H   0  0  0  0  0  0  0  0  0  0  0  0
    3.8725    1.0039    2.3900 H   0  0  0  0  0  0  0  0  0  0  0  0
    2.8969    1.4502    0.9684 H   0  0  0  0  0  0  0  0  0  0  0  0
    2.8826    2.5085    2.3500 H   0  0  0  0  0  0  0  0  0  0  0  0
    1.0068    1.8210    5.7826 H   0  0  0  0  0  0  0  0  0  0  0  0
    2.3302    0.7476    5.3644 H   0  0  0  0  0  0  0  0  0  0  0  0
    4.5949    2.1430    4.5330 H   0  0  0  0  0  0  0  0  0  0  0  0
    5.4119    4.6063    4.8351 H   0  0  0  0  0  0  0  0  0  0  0  0
    1.2685    4.5151    5.6194 H   0  0  0  0  0  0  0  0  0  0  0  0
   -2.3089    3.9764    2.1380 H   0  0  0  0  0  0  0  0  0  0  0  0
   -2.4140    4.4670    0.4558 H   0  0  0  0  0  0  0  0  0  0  0  0
   -1.1735    5.6029    3.6582 H   0  0  0  0  0  0  0  0  0  0  0  0
    0.0323    7.6671    3.9253 H   0  0  0  0  0  0  0  0  0  0  0  0
   -0.5268    5.7692   -0.5420 H   0  0  0  0  0  0  0  0  0  0  0  0
    0.6104    7.5376   -1.4827 H   0  0  0  0  0  0  0  0  0  0  0  0
    1.7990    9.6433   -1.3369 H   0  0  0  0  0  0  0  0  0  0  0  0
    2.1418   10.7062    0.9246 H   0  0  0  0  0  0  0  0  0  0  0  0
    1.2264    9.5263    2.9339 H   0  0  0  0  0  0  0  0  0  0  0  0
   -4.7489    2.5607   -2.0223 H   0  0  0  0  0  0  0  0  0  0  0  0
   -5.6005    1.0519   -2.2144 H   0  0  0  0  0  0  0  0  0  0  0  0
   -2.9700    1.9374   -3.5815 H   0  0  0  0  0  0  0  0  0  0  0  0
   -3.6649    0.3150   -3.7362 H   0  0  0  0  0  0  0  0  0  0  0  0
   -5.2312    2.8699   -4.4051 H   0  0  0  0  0  0  0  0  0  0  0  0
   -4.3296    1.8212   -5.5993 H   0  0  0  0  0  0  0  0  0  0  0  0
   -8.0630    3.3745   -4.7326 H   0  0  0  0  0  0  0  0  0  0  0  0
   -7.0388    3.3283   -6.1882 H   0  0  0  0  0  0  0  0  0  0  0  0
   -8.1250   -0.4935   -5.2304 H   0  0  0  0  0  0  0  0  0  0  0  0
   -9.2643    0.8887   -5.0330 H   0  0  0  0  0  0  0  0  0  0  0  0
   -5.6264   -2.5453   -1.6641 H   0  0  0  0  0  0  0  0  0  0  0  0
   -5.2051   -1.2360   -2.7645 H   0  0  0  0  0  0  0  0  0  0  0  0
   -5.8480   -0.9161   -1.0584 H   0  0  0  0  0  0  0  0  0  0  0  0
   -3.1008   -4.5930    0.3355 H   0  0  0  0  0  0  0  0  0  0  0  0
   -4.6969   -4.0680   -0.1781 H   0  0  0  0  0  0  0  0  0  0  0  0
   -1.9580   -3.3386    2.4083 H   0  0  0  0  0  0  0  0  0  0  0  0
   -2.9225   -1.9717    4.3735 H   0  0  0  0  0  0  0  0  0  0  0  0
   -6.5308   -2.4752    0.5666 H   0  0  0  0  0  0  0  0  0  0  0  0
   -8.1919   -1.1691    1.8696 H   0  0  0  0  0  0  0  0  0  0  0  0
   -7.5915   -0.2979    4.0807 H   0  0  0  0  0  0  0  0  0  0  0  0
   -5.3831   -0.7073    4.9641 H   0  0  0  0  0  0  0  0  0  0  0  0
   -2.6524   -8.0718   -4.6689 H   0  0  0  0  0  0  0  0  0  0  0  0
   -1.5470   -8.8609   -3.5219 H   0  0  0  0  0  0  0  0  0  0  0  0
    6.4520   -0.6844   -2.1745 H   0  0  0  0  0  0  0  0  0  0  0  0
    6.1906    2.1601   -3.4711 H   0  0  0  0  0  0  0  0  0  0  0  0
    7.8353    2.5832   -2.7317 H   0  0  0  0  0  0  0  0  0  0  0  0
    7.5274    0.9879   -3.4178 H   0  0  0  0  0  0  0  0  0  0  0  0
  1  2  1  0
  2  3  1  0
  3  4  1  0
  4  5  1  0
  5  6  1  0
  6  7  2  0
  6  8  1  0
  8  9  1  0
  9 10  1  0
 10 11  1  0
 11 12  2  0
 11 13  1  0
 13 14  1  0
 14 15  1  0
 15 16  1  0
 16 17  1  0
 17 18  1  0
 18 19  1  0
 19 20  1  0
 20 21  2  0
 20 22  1  0
 22 23  1  0
 23 24  1  0
 24 25  2  0
 24 26  1  0
 26 27  1  0
 27 28  1  0
 28 29  2  0
 28 30  1  0
 30 31  1  0
 31 32  1  0
 32 33  2  0
 32 34  1  0
 34 35  1  0
 35 36  1  0
 36 37  2  0
 35 38  1  0
 34 39  1  0
 39 40  1  0
 40 41  1  0
 41 42  1  0
 42 43  2  0
 43 44  1  0
 30 45  1  0
 45 46  1  0
 46 47  2  0
 47 48  1  0
 48 49  2  0
 49 50  1  0
 50 51  2  0
 50 52  1  0
 52 53  2  0
 53 54  1  0
 54 55  2  0
 26 56  1  0
 56 57  1  0
 57 58  1  0
 58 59  1  0
 59 60  2  3
 60 61  1  0
 60 62  1  0
 23 63  1  0
 22 64  1  0
 64 65  1  0
 65 66  2  0
 66 67  1  0
 67 68  1  0
 68 69  2  0
 69 70  1  0
 70 71  2  0
 71 72  1  0
 72 73  2  0
 18 74  1  0
 74 75  2  0
 74 76  1  0
  5 77  1  0
 77 78  1  0
 78 79  2  0
 78 80  1  0
 36  9  1  0
 44 40  2  0
 51 46  1  0
 69 65  1  0
 55 49  1  0
 73 68  1  0
  1 81  1  0
  1 82  1  0
  1 83  1  0
  2 84  1  0
  2 85  1  0
  3 86  1  0
  3 87  1  0
  4 88  1  0
  4 89  1  0
  5 90  1  1
  8 91  1  0
  9 92  1  6
 10 93  1  0
 10 94  1  0
 13 95  1  0
 14 96  1  0
 14 97  1  0
 15 98  1  0
 15 99  1  0
 16100  1  0
 16101  1  0
 17102  1  0
 17103  1  0
 18104  1  6
 19105  1  0
 22106  1  1
 26107  1  1
 27108  1  0
 30109  1  6
 31110  1  0
 34111  1  1
 38112  1  0
 38113  1  0
 38114  1  0
 39115  1  0
 39116  1  0
 41117  1  0
 42118  1  0
 44119  1  0
 45120  1  0
 45121  1  0
 47122  1  0
 48123  1  0
 51124  1  0
 52125  1  0
 53126  1  0
 54127  1  0
 55128  1  0
 56129  1  0
 56130  1  0
 57131  1  0
 57132  1  0
 58133  1  0
 58134  1  0
 61135  1  0
 61136  1  0
 62137  1  0
 62138  1  0
 63139  1  0
 63140  1  0
 63141  1  0
 64142  1  0
 64143  1  0
 66144  1  0
 67145  1  0
 70146  1  0
 71147  1  0
 72148  1  0
 73149  1  0
 76150  1  0
 76151  1  0
 77152  1  0
 80153  1  0
 80154  1  0
 80155  1  0
M  END
>  <Ligand ID>  (1) 
LIG0001822

>  <Ligand>  (1) 
CHEMBL3600842

>  <SMILES>  (1) 
CCCC[C@H](C(=O)N[C@H]1CC(=O)NCCCC[C@H](NC(=O)[C@@H](N(C(=O)[C@@H](NC(=O)[C@H](NC(=O)[C@@H](N(C1=O)C)Cc1[nH]cnc1)Cc1ccc2c(c1)cccc2)CCCN=C(N)N)C)Cc1c[nH]c2c1cccc2)C(=O)N)NC(=O)C

>  <CID>  (1) 
122184581.0

>  <ChEMBL ID>  (1) 
nan

>  <InChiKey>  (1) 
BLUHVPTUPSCCBC-PGMQRQGHSA-N

>  <InChi>  (1) 
InChI=1S/C56H75N15O9/c1-5-6-17-42(65-33(2)72)50(75)69-45-29-48(73)61-23-12-11-19-41(49(57)74)66-52(77)46(27-37-30-63-40-18-10-9-16-39(37)40)70(3)54(79)43(20-13-24-62-56(58)59)67-51(76)44(26-34-21-22-35-14-7-8-15-36(35)25-34)68-53(78)47(71(4)55(45)80)28-38-31-60-32-64-38/h7-10,14-16,18,21-22,25,30-32,41-47,63H,5-6,11-13,17,19-20,23-24,26-29H2,1-4H3,(H2,57,74)(H,60,64)(H,61,73)(H,65,72)(H,66,77)(H,67,76)(H,68,78)(H,69,75)(H4,58,59,62)/t41-,42+,43-,44+,45-,46-,47-/m0/s1

>  <IUPAC Name>  (1) 
(3S,6S,9R,12S,15S,23S)-15-[[(2R)-2-acetamidohexanoyl]amino]-6-[3-(diaminomethylideneamino)propyl]-12-(1H-imidazol-5-ylmethyl)-3-(1H-indol-3-ylmethyl)-4,13-dimethyl-9-(naphthalen-2-ylmethyl)-2,5,8,11,14,17-hexaoxo-1,4,7,10,13,18-hexazacyclotricosane-23-carboxamide

$$$$
