
     RDKit          3D

 54 54  0  0  0  0  0  0  0  0999 V2000
   -7.0748   -2.0351    0.7258 C   0  0  0  0  0  0  0  0  0  0  0  0
   -7.8112   -0.9136    0.0655 C   0  0  0  0  0  0  0  0  0  0  0  0
   -7.1022    0.3734    0.1430 C   0  0  0  0  0  0  0  0  0  0  0  0
   -5.7789    0.5284   -0.5093 C   0  0  0  0  0  0  0  0  0  0  0  0
   -4.6705   -0.3424   -0.0876 C   0  0  0  0  0  0  0  0  0  0  0  0
   -3.4040   -0.0096   -0.8733 C   0  0  0  0  0  0  0  0  0  0  0  0
   -3.0118    1.4037   -0.6051 C   0  0  0  0  0  0  0  0  0  0  0  0
   -1.8214    1.7637   -1.2501 O   0  0  0  0  0  0  0  0  0  0  0  0
   -0.6125    1.2187   -0.9588 C   0  0  0  0  0  0  0  0  0  0  0  0
    0.4745    1.6635   -1.7301 C   0  0  0  0  0  0  0  0  0  0  0  0
    1.7510    1.1952   -1.5361 C   0  0  0  0  0  0  0  0  0  0  0  0
    2.0263    0.2634   -0.5718 C   0  0  0  0  0  0  0  0  0  0  0  0
    0.9836   -0.1937    0.2028 C   0  0  0  0  0  0  0  0  0  0  0  0
   -0.3179    0.2887    0.0003 C   0  0  0  0  0  0  0  0  0  0  0  0
    3.4140   -0.2708   -0.3337 C   0  0  0  0  0  0  0  0  0  0  0  0
    4.1172    0.5861    0.6786 C   0  0  0  0  0  0  0  0  0  0  0  0
    5.4904    0.0539    0.9201 C   0  0  1  0  0  0  0  0  0  0  0  0
    6.2885    0.0551   -0.3542 C   0  0  0  0  0  0  0  0  0  0  0  0
    7.6679   -0.4852   -0.0675 C   0  0  0  0  0  0  0  0  0  0  0  0
    8.0092   -0.8542    1.0824 O   0  0  0  0  0  0  0  0  0  0  0  0
    8.5330   -0.5485   -1.1517 O   0  0  0  0  0  0  0  0  0  0  0  0
    6.1215    0.8916    1.9135 N   0  0  0  0  0  0  0  0  0  0  0  0
    5.3655   -1.3785    1.4100 C   0  0  0  0  0  0  0  0  0  0  0  0
   -7.7919   -2.6453    1.3779 H   0  0  0  0  0  0  0  0  0  0  0  0
   -6.7224   -2.7598   -0.0250 H   0  0  0  0  0  0  0  0  0  0  0  0
   -6.2915   -1.7078    1.4384 H   0  0  0  0  0  0  0  0  0  0  0  0
   -8.1594   -1.1804   -0.9612 H   0  0  0  0  0  0  0  0  0  0  0  0
   -8.7815   -0.7886    0.6403 H   0  0  0  0  0  0  0  0  0  0  0  0
   -6.9965    0.7060    1.2068 H   0  0  0  0  0  0  0  0  0  0  0  0
   -7.7599    1.1812   -0.3041 H   0  0  0  0  0  0  0  0  0  0  0  0
   -5.8568    0.4660   -1.6356 H   0  0  0  0  0  0  0  0  0  0  0  0
   -5.5161    1.6243   -0.3500 H   0  0  0  0  0  0  0  0  0  0  0  0
   -4.8462   -1.4300   -0.3606 H   0  0  0  0  0  0  0  0  0  0  0  0
   -4.3774   -0.2498    0.9730 H   0  0  0  0  0  0  0  0  0  0  0  0
   -3.7724   -0.0852   -1.9659 H   0  0  0  0  0  0  0  0  0  0  0  0
   -2.6526   -0.7789   -0.7507 H   0  0  0  0  0  0  0  0  0  0  0  0
   -2.8683    1.5317    0.5002 H   0  0  0  0  0  0  0  0  0  0  0  0
   -3.7810    2.1415   -0.9237 H   0  0  0  0  0  0  0  0  0  0  0  0
    0.3251    2.4076   -2.5182 H   0  0  0  0  0  0  0  0  0  0  0  0
    2.5697    1.5572   -2.1470 H   0  0  0  0  0  0  0  0  0  0  0  0
    1.1692   -0.9361    0.9798 H   0  0  0  0  0  0  0  0  0  0  0  0
   -1.0562   -0.0947    0.6541 H   0  0  0  0  0  0  0  0  0  0  0  0
    3.4073   -1.3098    0.0008 H   0  0  0  0  0  0  0  0  0  0  0  0
    3.9358   -0.1346   -1.3273 H   0  0  0  0  0  0  0  0  0  0  0  0
    3.5388    0.6110    1.6247 H   0  0  0  0  0  0  0  0  0  0  0  0
    4.2123    1.6348    0.3218 H   0  0  0  0  0  0  0  0  0  0  0  0
    6.3692    1.0478   -0.8108 H   0  0  0  0  0  0  0  0  0  0  0  0
    5.8554   -0.7092   -1.0581 H   0  0  0  0  0  0  0  0  0  0  0  0
    9.5121   -0.6931   -1.0225 H   0  0  0  0  0  0  0  0  0  0  0  0
    5.6793    1.8389    1.9072 H   0  0  0  0  0  0  0  0  0  0  0  0
    6.0564    0.4594    2.8537 H   0  0  0  0  0  0  0  0  0  0  0  0
    5.5311   -2.0645    0.5554 H   0  0  0  0  0  0  0  0  0  0  0  0
    4.3360   -1.5622    1.8096 H   0  0  0  0  0  0  0  0  0  0  0  0
    6.0951   -1.5912    2.2041 H   0  0  0  0  0  0  0  0  0  0  0  0
  1  2  1  0
  2  3  1  0
  3  4  1  0
  4  5  1  0
  5  6  1  0
  6  7  1  0
  7  8  1  0
  8  9  1  0
  9 10  2  0
 10 11  1  0
 11 12  2  0
 12 13  1  0
 13 14  2  0
 12 15  1  0
 15 16  1  0
 16 17  1  0
 17 18  1  0
 18 19  1  0
 19 20  2  0
 19 21  1  0
 17 22  1  1
 17 23  1  0
 14  9  1  0
  1 24  1  0
  1 25  1  0
  1 26  1  0
  2 27  1  0
  2 28  1  0
  3 29  1  0
  3 30  1  0
  4 31  1  0
  4 32  1  0
  5 33  1  0
  5 34  1  0
  6 35  1  0
  6 36  1  0
  7 37  1  0
  7 38  1  0
 10 39  1  0
 11 40  1  0
 13 41  1  0
 14 42  1  0
 15 43  1  0
 15 44  1  0
 16 45  1  0
 16 46  1  0
 18 47  1  0
 18 48  1  0
 21 49  1  0
 22 50  1  0
 22 51  1  0
 23 52  1  0
 23 53  1  0
 23 54  1  0
M  END
>  <Ligand ID>  (1) 
LIG0004297

>  <Ligand>  (1) 
CHEMBL1086172

>  <SMILES>  (1) 
CCCCCCCOc1ccc(cc1)CC[C@@](CC(=O)O)(N)C

>  <CID>  (1) 
46866185.0

>  <ChEMBL ID>  (1) 
nan

>  <InChiKey>  (1) 
VBYQVUKISPYLQE-IBGZPJMESA-N

>  <InChi>  (1) 
InChI=1S/C19H31NO3/c1-3-4-5-6-7-14-23-17-10-8-16(9-11-17)12-13-19(2,20)15-18(21)22/h8-11H,3-7,12-15,20H2,1-2H3,(H,21,22)/t19-/m0/s1

>  <IUPAC Name>  (1) 
(3S)-3-amino-5-(4-heptoxyphenyl)-3-methylpentanoic acid

$$$$
