
     RDKit          3D

 33 33  0  0  0  0  0  0  0  0999 V2000
   -3.1080   -2.7110   -0.6981 C   0  0  0  0  0  0  0  0  0  0  0  0
   -3.0788   -1.2248   -0.4152 C   0  0  0  0  0  0  0  0  0  0  0  0
   -1.7429   -0.8602   -0.1404 O   0  0  0  0  0  0  0  0  0  0  0  0
   -1.3830    0.4585    0.1622 C   0  0  0  0  0  0  0  0  0  0  0  0
   -2.3822    1.4319    0.1900 C   0  0  0  0  0  0  0  0  0  0  0  0
   -2.0412    2.7489    0.4894 C   0  0  0  0  0  0  0  0  0  0  0  0
   -0.7363    3.0913    0.7553 C   0  0  0  0  0  0  0  0  0  0  0  0
    0.2284    2.1028    0.7193 C   0  0  0  0  0  0  0  0  0  0  0  0
   -0.0586    0.8015    0.4312 C   0  0  0  0  0  0  0  0  0  0  0  0
    0.9490   -0.2905    0.3825 C   0  0  1  0  0  0  0  0  0  0  0  0
    1.5804   -0.4888   -1.0068 C   0  0  0  0  0  0  0  0  0  0  0  0
    2.3773    0.0157    0.1620 C   0  0  2  0  0  0  0  0  0  0  0  0
    3.4449   -0.9125    0.6370 C   0  0  0  0  0  0  0  0  0  0  0  0
    4.7530   -0.3835    0.2976 N   0  0  0  0  0  0  0  0  0  0  0  0
    0.6848    0.0000    0.0000 Cl  0  0  0  0  0  0  0  0  0  0  0  0
   -2.4556   -2.9451   -1.5604 H   0  0  0  0  0  0  0  0  0  0  0  0
   -2.7699   -3.2230    0.2231 H   0  0  0  0  0  0  0  0  0  0  0  0
   -4.1252   -3.0590   -0.9624 H   0  0  0  0  0  0  0  0  0  0  0  0
   -3.4792   -0.7082   -1.3019 H   0  0  0  0  0  0  0  0  0  0  0  0
   -3.7199   -1.0216    0.4443 H   0  0  0  0  0  0  0  0  0  0  0  0
   -3.4109    1.1905   -0.0143 H   0  0  0  0  0  0  0  0  0  0  0  0
   -2.8014    3.5353    0.5191 H   0  0  0  0  0  0  0  0  0  0  0  0
   -0.4826    4.1253    0.9881 H   0  0  0  0  0  0  0  0  0  0  0  0
    1.2501    2.3833    0.9299 H   0  0  0  0  0  0  0  0  0  0  0  0
    0.7360   -1.1997    0.9638 H   0  0  0  0  0  0  0  0  0  0  0  0
    1.7439   -1.5031   -1.3784 H   0  0  0  0  0  0  0  0  0  0  0  0
    1.3847    0.2924   -1.7775 H   0  0  0  0  0  0  0  0  0  0  0  0
    2.6535    1.0919    0.2060 H   0  0  0  0  0  0  0  0  0  0  0  0
    3.4064   -1.1211    1.7176 H   0  0  0  0  0  0  0  0  0  0  0  0
    3.4026   -1.9119    0.1131 H   0  0  0  0  0  0  0  0  0  0  0  0
    5.2383   -0.0988    1.1578 H   0  0  0  0  0  0  0  0  0  0  0  0
    4.6273    0.3934   -0.3880 H   0  0  0  0  0  0  0  0  0  0  0  0
   -0.6848    0.0000    0.0000 H   0  0  0  0  0  0  0  0  0  0  0  0
  1  2  1  0
  2  3  1  0
  3  4  1  0
  4  5  2  0
  5  6  1  0
  6  7  2  0
  7  8  1  0
  8  9  2  0
  9 10  1  0
 10 11  1  0
 11 12  1  0
 12 13  1  0
 13 14  1  0
  9  4  1  0
 12 10  1  0
  1 16  1  0
  1 17  1  0
  1 18  1  0
  2 19  1  0
  2 20  1  0
  5 21  1  0
  6 22  1  0
  7 23  1  0
  8 24  1  0
 10 25  1  1
 11 26  1  0
 11 27  1  0
 12 28  1  6
 13 29  1  0
 13 30  1  0
 14 31  1  0
 14 32  1  0
 15 33  1  0
M  END
>  <Ligand ID>  (1) 
LIG0004489

>  <Ligand>  (1) 
CHEMBL2022185

>  <SMILES>  (1) 
CCOc1ccccc1[C@H]1C[C@@H]1CN.Cl

>  <CID>  (1) 
70683432.0

>  <ChEMBL ID>  (1) 
nan

>  <InChiKey>  (1) 
BCUFFHJIZAJDLQ-XQKZEKTMSA-N

>  <InChi>  (1) 
InChI=1S/C12H17NO.ClH/c1-2-14-12-6-4-3-5-10(12)11-7-9(11)8-13;/h3-6,9,11H,2,7-8,13H2,1H3;1H/t9-,11+;/m1./s1

>  <IUPAC Name>  (1) 
[(1S,2S)-2-(2-ethoxyphenyl)cyclopropyl]methanamine;hydrochloride

$$$$
