
     RDKit          3D

 44 48  0  0  0  0  0  0  0  0999 V2000
   -2.9115    2.1411    0.6165 O   0  0  0  0  0  0  0  0  0  0  0  0
   -3.2433    1.1914   -0.1401 C   0  0  0  0  0  0  0  0  0  0  0  0
   -4.6754    0.9088   -0.4814 C   0  0  0  0  0  0  0  0  0  0  0  0
   -5.3849    0.6093    0.8104 C   0  0  2  0  0  0  0  0  0  0  0  0
   -4.4007   -0.1000    1.6718 C   0  0  0  0  0  0  0  0  0  0  0  0
   -4.1262   -1.2369    0.9942 C   0  0  0  0  0  0  0  0  0  0  0  0
   -5.0421   -1.3775   -0.1492 C   0  0  2  0  0  0  0  0  0  0  0  0
   -4.6287   -0.4179   -1.2257 C   0  0  0  0  0  0  0  0  0  0  0  0
   -3.2219   -0.6344   -1.5688 C   0  0  0  0  0  0  0  0  0  0  0  0
   -2.8220   -1.4717   -2.4212 O   0  0  0  0  0  0  0  0  0  0  0  0
   -2.4025    0.2369   -0.7982 N   0  0  0  0  0  0  0  0  0  0  0  0
   -0.9864    0.2202   -0.6598 C   0  0  0  0  0  0  0  0  0  0  0  0
   -0.3293   -0.4876    0.3054 C   0  0  0  0  0  0  0  0  0  0  0  0
    1.0642   -0.4420    0.3617 C   0  0  0  0  0  0  0  0  0  0  0  0
    1.8241    0.2875   -0.5146 C   0  0  0  0  0  0  0  0  0  0  0  0
    1.1355    0.9972   -1.4849 C   0  0  0  0  0  0  0  0  0  0  0  0
   -0.2414    0.9547   -1.5438 C   0  0  0  0  0  0  0  0  0  0  0  0
   -1.0421    1.8753   -2.7949 Cl  0  0  0  0  0  0  0  0  0  0  0  0
    3.2301    0.3730   -0.5086 N   0  0  0  0  0  0  0  0  0  0  0  0
    4.1047   -0.2671    0.3873 C   0  0  0  0  0  0  0  0  0  0  0  0
    3.7276   -1.0018    1.3019 O   0  0  0  0  0  0  0  0  0  0  0  0
    5.5657   -0.0679    0.2516 C   0  0  0  0  0  0  0  0  0  0  0  0
    6.4643   -0.6715    1.1026 C   0  0  0  0  0  0  0  0  0  0  0  0
    7.8240   -0.4719    0.9579 C   0  0  0  0  0  0  0  0  0  0  0  0
    8.2641    0.3482   -0.0613 C   0  0  0  0  0  0  0  0  0  0  0  0
    7.3706    0.9571   -0.9188 C   0  0  0  0  0  0  0  0  0  0  0  0
    6.0599    0.7194   -0.7211 N   0  0  0  0  0  0  0  0  0  0  0  0
   -6.2398   -0.5870    0.4058 C   0  0  0  0  0  0  0  0  0  0  0  0
   -5.1008    1.7296   -1.0673 H   0  0  0  0  0  0  0  0  0  0  0  0
   -5.9312    1.4098    1.2610 H   0  0  0  0  0  0  0  0  0  0  0  0
   -3.9940    0.2161    2.6228 H   0  0  0  0  0  0  0  0  0  0  0  0
   -3.3357   -1.9628    1.2481 H   0  0  0  0  0  0  0  0  0  0  0  0
   -5.2740   -2.3822   -0.4531 H   0  0  0  0  0  0  0  0  0  0  0  0
   -5.3154   -0.4231   -2.0934 H   0  0  0  0  0  0  0  0  0  0  0  0
   -0.9032   -1.0753    1.0146 H   0  0  0  0  0  0  0  0  0  0  0  0
    1.5130   -1.0219    1.1452 H   0  0  0  0  0  0  0  0  0  0  0  0
    1.6715    1.6094   -2.2287 H   0  0  0  0  0  0  0  0  0  0  0  0
    3.6974    0.9787   -1.2498 H   0  0  0  0  0  0  0  0  0  0  0  0
    6.1014   -1.3205    1.9080 H   0  0  0  0  0  0  0  0  0  0  0  0
    8.5102   -0.9683    1.6534 H   0  0  0  0  0  0  0  0  0  0  0  0
    9.3336    0.4846   -0.1487 H   0  0  0  0  0  0  0  0  0  0  0  0
    7.7174    1.6050   -1.7241 H   0  0  0  0  0  0  0  0  0  0  0  0
   -6.9260   -0.3666   -0.4291 H   0  0  0  0  0  0  0  0  0  0  0  0
   -6.7004   -1.0970    1.2699 H   0  0  0  0  0  0  0  0  0  0  0  0
  1  2  2  0
  2  3  1  0
  3  4  1  0
  4  5  1  0
  5  6  2  0
  6  7  1  0
  7  8  1  0
  8  9  1  0
  9 10  2  0
  9 11  1  0
 11 12  1  0
 12 13  2  0
 13 14  1  0
 14 15  2  0
 15 16  1  0
 16 17  2  0
 17 18  1  0
 15 19  1  0
 19 20  1  0
 20 21  2  0
 20 22  1  0
 22 23  2  0
 23 24  1  0
 24 25  2  0
 25 26  1  0
 26 27  2  0
  7 28  1  0
 11  2  1  0
 17 12  1  0
 27 22  1  0
  8  3  1  0
 28  4  1  0
  3 29  1  0
  4 30  1  1
  5 31  1  0
  6 32  1  0
  7 33  1  6
  8 34  1  0
 13 35  1  0
 14 36  1  0
 16 37  1  0
 19 38  1  0
 23 39  1  0
 24 40  1  0
 25 41  1  0
 26 42  1  0
 28 43  1  0
 28 44  1  0
M  END
>  <Ligand ID>  (1) 
LIG0005712

>  <Ligand>  (1) 
CHEMBL3609730

>  <SMILES>  (1) 
O=C1C2[C@@H]3C=C[C@H](C2C(=O)N1c1ccc(cc1Cl)NC(=O)c1ccccn1)C3

>  <CID>  (1) 
122187789.0

>  <ChEMBL ID>  (1) 
nan

>  <InChiKey>  (1) 
LJUABYFUJVRUSJ-CCHVVGMOSA-N

>  <InChi>  (1) 
InChI=1S/C21H16ClN3O3/c22-14-10-13(24-19(26)15-3-1-2-8-23-15)6-7-16(14)25-20(27)17-11-4-5-12(9-11)18(17)21(25)28/h1-8,10-12,17-18H,9H2,(H,24,26)/t11-,12+,17?,18?

>  <IUPAC Name>  (1) 
N-[3-chloro-4-[(1R,7S)-3,5-dioxo-4-azatricyclo[5.2.1.02,6]dec-8-en-4-yl]phenyl]pyridine-2-carboxamide

$$$$
