
     RDKit          3D

102105  0  0  0  0  0  0  0  0999 V2000
   -5.0240   -4.8400   -2.7851 C   0  0  0  0  0  0  0  0  0  0  0  0
   -4.0865   -4.1756   -1.9539 O   0  0  0  0  0  0  0  0  0  0  0  0
   -4.3805   -2.5332   -2.2087 P   0  0  0  0  0  0  0  0  0  0  0  0
   -3.9828   -2.2917   -3.9174 S   0  0  0  0  0  0  0  0  0  0  0  0
   -3.4510   -1.4451   -1.3246 N   0  0  0  0  0  0  0  0  0  0  0  0
   -3.9914   -0.4097   -0.5510 C   0  0  2  0  0  0  0  0  0  0  0  0
   -2.8816    0.5768   -0.1329 C   0  0  0  0  0  0  0  0  0  0  0  0
   -3.2675    1.6843    0.3012 O   0  0  0  0  0  0  0  0  0  0  0  0
   -1.5243    0.1886   -0.2551 N   0  0  0  0  0  0  0  0  0  0  0  0
   -0.4182    1.0567    0.0979 C   0  0  2  0  0  0  0  0  0  0  0  0
    0.6741    1.0426   -0.8870 C   0  0  0  0  0  0  0  0  0  0  0  0
    0.5279    0.3187   -1.9292 O   0  0  0  0  0  0  0  0  0  0  0  0
    1.8198    1.8105   -0.6536 N   0  0  0  0  0  0  0  0  0  0  0  0
    2.9873    1.9536   -1.4583 C   0  0  2  0  0  0  0  0  0  0  0  0
    4.2121    1.4203   -0.8371 C   0  0  0  0  0  0  0  0  0  0  0  0
    5.3574    1.8538   -1.2047 O   0  0  0  0  0  0  0  0  0  0  0  0
    4.2005    0.4230    0.1712 N   0  0  0  0  0  0  0  0  0  0  0  0
    5.4233   -0.0749    0.8055 C   0  0  2  0  0  0  0  0  0  0  0  0
    6.2610   -0.7875   -0.2256 C   0  0  0  0  0  0  0  0  0  0  0  0
    5.8256   -1.0546   -1.3743 O   0  0  0  0  0  0  0  0  0  0  0  0
    7.6039   -1.1429    0.1808 N   0  0  0  0  0  0  0  0  0  0  0  0
    5.1494   -0.9569    1.9530 C   0  0  0  0  0  0  0  0  0  0  0  0
    4.3871   -2.1870    1.7098 C   0  0  0  0  0  0  0  0  0  0  0  0
    3.0010   -2.2351    1.8012 C   0  0  0  0  0  0  0  0  0  0  0  0
    2.5630   -3.4848    1.4606 N   0  0  0  0  0  0  0  0  0  0  0  0
    3.6578   -4.2493    1.1490 C   0  0  0  0  0  0  0  0  0  0  0  0
    4.7516   -3.4497    1.3072 C   0  0  0  0  0  0  0  0  0  0  0  0
    6.0046   -3.9933    1.0767 C   0  0  0  0  0  0  0  0  0  0  0  0
    6.0742   -5.3196    0.6947 C   0  0  0  0  0  0  0  0  0  0  0  0
    4.9820   -6.1327    0.5296 C   0  0  0  0  0  0  0  0  0  0  0  0
    3.7425   -5.5785    0.7643 C   0  0  0  0  0  0  0  0  0  0  0  0
    3.1866    3.3904   -1.8207 C   0  0  0  0  0  0  0  0  0  0  0  0
    3.3548    4.2959   -0.6284 C   0  0  0  0  0  0  0  0  0  0  0  0
    3.5442    5.7410   -1.1020 C   0  0  0  0  0  0  0  0  0  0  0  0
    2.3648    6.1367   -1.8747 N   0  0  0  0  0  0  0  0  0  0  0  0
    1.9985    7.3513   -1.8292 C   0  0  0  0  0  0  0  0  0  0  0  0
    2.7143    8.2969   -1.0487 N   0  0  0  0  0  0  0  0  0  0  0  0
    0.8527    7.7362   -2.5844 N   0  0  0  0  0  0  0  0  0  0  0  0
    0.0305    0.9368    1.5256 C   0  0  0  0  0  0  0  0  0  0  0  0
   -1.0809    1.2949    2.4428 C   0  0  0  0  0  0  0  0  0  0  0  0
   -1.9257    0.3784    3.0246 C   0  0  0  0  0  0  0  0  0  0  0  0
   -2.9080    0.8547    3.8626 C   0  0  0  0  0  0  0  0  0  0  0  0
   -3.0956    2.1813    4.1507 C   0  0  0  0  0  0  0  0  0  0  0  0
   -2.2485    3.1137    3.5676 C   0  0  0  0  0  0  0  0  0  0  0  0
   -1.2627    2.6309    2.7268 C   0  0  0  0  0  0  0  0  0  0  0  0
   -4.5617   -0.8177    0.7827 C   0  0  0  0  0  0  0  0  0  0  0  0
   -5.6657   -1.7669    0.7978 C   0  0  0  0  0  0  0  0  0  0  0  0
   -5.3201   -3.1300    0.8837 C   0  0  0  0  0  0  0  0  0  0  0  0
   -6.3218   -4.0917    0.9469 C   0  0  0  0  0  0  0  0  0  0  0  0
   -7.6562   -3.7382    0.9265 C   0  0  0  0  0  0  0  0  0  0  0  0
   -7.9724   -2.3962    0.8413 C   0  0  0  0  0  0  0  0  0  0  0  0
   -7.0185   -1.4064    0.7773 C   0  0  0  0  0  0  0  0  0  0  0  0
   -8.8605   -4.9902    1.0135 Cl  0  0  0  0  0  0  0  0  0  0  0  0
   -6.0262   -2.1721   -2.1166 O   0  0  0  0  0  0  0  0  0  0  0  0
   -6.3325   -1.1716   -3.0276 C   0  0  0  0  0  0  0  0  0  0  0  0
   -4.9857   -5.9269   -2.6906 H   0  0  0  0  0  0  0  0  0  0  0  0
   -6.0692   -4.4953   -2.5710 H   0  0  0  0  0  0  0  0  0  0  0  0
   -4.8622   -4.5064   -3.8549 H   0  0  0  0  0  0  0  0  0  0  0  0
   -2.6493   -1.0317   -1.8952 H   0  0  0  0  0  0  0  0  0  0  0  0
   -4.7044    0.1863   -1.0995 H   0  0  0  0  0  0  0  0  0  0  0  0
   -1.2181   -0.7757   -0.6073 H   0  0  0  0  0  0  0  0  0  0  0  0
   -0.8867    2.0968    0.0591 H   0  0  0  0  0  0  0  0  0  0  0  0
    1.8260    2.3830    0.2535 H   0  0  0  0  0  0  0  0  0  0  0  0
    2.8904    1.4020   -2.4363 H   0  0  0  0  0  0  0  0  0  0  0  0
    3.2546    0.0556    0.4409 H   0  0  0  0  0  0  0  0  0  0  0  0
    6.0554    0.7918    1.0755 H   0  0  0  0  0  0  0  0  0  0  0  0
    8.1349   -1.9055   -0.3243 H   0  0  0  0  0  0  0  0  0  0  0  0
    8.0570   -0.6417    0.9886 H   0  0  0  0  0  0  0  0  0  0  0  0
    4.6529   -0.3665    2.7855 H   0  0  0  0  0  0  0  0  0  0  0  0
    6.1215   -1.2841    2.4241 H   0  0  0  0  0  0  0  0  0  0  0  0
    2.3297   -1.4278    2.0998 H   0  0  0  0  0  0  0  0  0  0  0  0
    1.5834   -3.8098    1.4367 H   0  0  0  0  0  0  0  0  0  0  0  0
    6.8798   -3.4245    1.2102 H   0  0  0  0  0  0  0  0  0  0  0  0
    7.0825   -5.7312    0.5153 H   0  0  0  0  0  0  0  0  0  0  0  0
    5.0692   -7.1805    0.2258 H   0  0  0  0  0  0  0  0  0  0  0  0
    2.8395   -6.2015    0.6378 H   0  0  0  0  0  0  0  0  0  0  0  0
    4.0676    3.4359   -2.5001 H   0  0  0  0  0  0  0  0  0  0  0  0
    2.2622    3.7444   -2.3366 H   0  0  0  0  0  0  0  0  0  0  0  0
    2.4743    4.2576    0.0223 H   0  0  0  0  0  0  0  0  0  0  0  0
    4.2458    4.0323   -0.0285 H   0  0  0  0  0  0  0  0  0  0  0  0
    4.4429    5.8589   -1.7118 H   0  0  0  0  0  0  0  0  0  0  0  0
    3.6019    6.4019   -0.2283 H   0  0  0  0  0  0  0  0  0  0  0  0
    2.6504    8.2443   -0.0259 H   0  0  0  0  0  0  0  0  0  0  0  0
    3.3101    9.0556   -1.4553 H   0  0  0  0  0  0  0  0  0  0  0  0
    0.1205    8.3943   -2.2265 H   0  0  0  0  0  0  0  0  0  0  0  0
    0.6952    7.3682   -3.5479 H   0  0  0  0  0  0  0  0  0  0  0  0
    0.4417   -0.0697    1.7546 H   0  0  0  0  0  0  0  0  0  0  0  0
    0.8410    1.6516    1.7153 H   0  0  0  0  0  0  0  0  0  0  0  0
   -1.7858   -0.6723    2.8016 H   0  0  0  0  0  0  0  0  0  0  0  0
   -3.5624    0.1018    4.3178 H   0  0  0  0  0  0  0  0  0  0  0  0
   -3.8879    2.4985    4.8238 H   0  0  0  0  0  0  0  0  0  0  0  0
   -2.3556    4.1959    3.7568 H   0  0  0  0  0  0  0  0  0  0  0  0
   -0.6163    3.3978    2.2872 H   0  0  0  0  0  0  0  0  0  0  0  0
   -3.7074   -1.1897    1.4566 H   0  0  0  0  0  0  0  0  0  0  0  0
   -4.8898    0.1126    1.3114 H   0  0  0  0  0  0  0  0  0  0  0  0
   -4.2646   -3.4303    0.9031 H   0  0  0  0  0  0  0  0  0  0  0  0
   -5.9712   -5.1169    1.0160 H   0  0  0  0  0  0  0  0  0  0  0  0
   -9.0386   -2.1486    0.8281 H   0  0  0  0  0  0  0  0  0  0  0  0
   -7.2649   -0.3502    0.7065 H   0  0  0  0  0  0  0  0  0  0  0  0
   -6.6926   -1.5746   -4.0128 H   0  0  0  0  0  0  0  0  0  0  0  0
   -7.0922   -0.4616   -2.6231 H   0  0  0  0  0  0  0  0  0  0  0  0
   -5.4129   -0.5890   -3.2630 H   0  0  0  0  0  0  0  0  0  0  0  0
  1  2  1  0
  2  3  1  0
  3  4  2  0
  3  5  1  0
  5  6  1  0
  6  7  1  0
  7  8  2  0
  7  9  1  0
  9 10  1  0
 10 11  1  0
 11 12  2  0
 11 13  1  0
 13 14  1  0
 14 15  1  0
 15 16  2  0
 15 17  1  0
 17 18  1  0
 18 19  1  0
 19 20  2  0
 19 21  1  0
 18 22  1  0
 22 23  1  0
 23 24  2  0
 24 25  1  0
 25 26  1  0
 26 27  2  0
 27 28  1  0
 28 29  2  0
 29 30  1  0
 30 31  2  0
 14 32  1  0
 32 33  1  0
 33 34  1  0
 34 35  1  0
 35 36  2  3
 36 37  1  0
 36 38  1  0
 10 39  1  0
 39 40  1  0
 40 41  2  0
 41 42  1  0
 42 43  2  0
 43 44  1  0
 44 45  2  0
  6 46  1  0
 46 47  1  0
 47 48  2  0
 48 49  1  0
 49 50  2  0
 50 51  1  0
 51 52  2  0
 50 53  1  0
  3 54  1  0
 54 55  1  0
 27 23  1  0
 45 40  1  0
 52 47  1  0
 31 26  1  0
  1 56  1  0
  1 57  1  0
  1 58  1  0
  5 59  1  0
  6 60  1  6
  9 61  1  0
 10 62  1  1
 13 63  1  0
 14 64  1  6
 17 65  1  0
 18 66  1  1
 21 67  1  0
 21 68  1  0
 22 69  1  0
 22 70  1  0
 24 71  1  0
 25 72  1  0
 28 73  1  0
 29 74  1  0
 30 75  1  0
 31 76  1  0
 32 77  1  0
 32 78  1  0
 33 79  1  0
 33 80  1  0
 34 81  1  0
 34 82  1  0
 37 83  1  0
 37 84  1  0
 38 85  1  0
 38 86  1  0
 39 87  1  0
 39 88  1  0
 41 89  1  0
 42 90  1  0
 43 91  1  0
 44 92  1  0
 45 93  1  0
 46 94  1  0
 46 95  1  0
 48 96  1  0
 49 97  1  0
 51 98  1  0
 52 99  1  0
 55100  1  0
 55101  1  0
 55102  1  0
M  END
>  <Ligand ID>  (1) 
LIG0004912

>  <Ligand>  (1) 
CHEMBL184326

>  <SMILES>  (1) 
COP(=S)(N[C@H](C(=O)N[C@H](C(=O)N[C@H](C(=O)N[C@H](C(=O)N)Cc1c[nH]c2c1cccc2)CCCN=C(N)N)Cc1ccccc1)Cc1ccc(cc1)Cl)OC

>  <CID>  (1) 
44394750.0

>  <ChEMBL ID>  (1) 
nan

>  <InChiKey>  (1) 
UMFZZXJGUKSSJC-YDPTYEFTSA-N

>  <InChi>  (1) 
InChI=1S/C37H47ClN9O6PS/c1-52-54(55,53-2)47-32(20-24-14-16-26(38)17-15-24)36(51)46-31(19-23-9-4-3-5-10-23)35(50)44-29(13-8-18-42-37(40)41)34(49)45-30(33(39)48)21-25-22-43-28-12-7-6-11-27(25)28/h3-7,9-12,14-17,22,29-32,43H,8,13,18-21H2,1-2H3,(H2,39,48)(H,44,50)(H,45,49)(H,46,51)(H,47,55)(H4,40,41,42)/t29-,30-,31-,32-/m0/s1

>  <IUPAC Name>  (1) 
(2S)-N-[(2S)-1-amino-3-(1H-indol-3-yl)-1-oxopropan-2-yl]-2-[[(2S)-2-[[(2S)-3-(4-chlorophenyl)-2-(dimethoxyphosphinothioylamino)propanoyl]amino]-3-phenylpropanoyl]amino]-5-(diaminomethylideneamino)pentanamide

$$$$
