
     RDKit          3D

 16 15  0  0  0  0  0  0  0  0999 V2000
    1.1488    1.6745    0.5337 O   0  0  0  0  0  0  0  0  0  0  0  0
    1.7609    0.6640    0.2200 C   0  0  0  0  0  0  0  0  0  0  0  0
    1.0935   -0.6048   -0.1813 C   0  0  0  0  0  0  0  0  0  0  0  0
   -0.3912   -0.5280   -0.1652 C   0  0  0  0  0  0  0  0  0  0  0  0
   -0.9001   -0.1955    1.2081 C   0  0  0  0  0  0  0  0  0  0  0  0
   -0.9667    0.4268   -1.1724 C   0  0  0  0  0  0  0  0  0  0  0  0
    2.8478    0.6557    0.2231 H   0  0  0  0  0  0  0  0  0  0  0  0
    1.3808   -1.3970    0.5576 H   0  0  0  0  0  0  0  0  0  0  0  0
    1.4776   -0.9068   -1.1714 H   0  0  0  0  0  0  0  0  0  0  0  0
   -0.7648   -1.5290   -0.4775 H   0  0  0  0  0  0  0  0  0  0  0  0
   -1.4025    0.7893    1.1851 H   0  0  0  0  0  0  0  0  0  0  0  0
   -0.0923   -0.1585    1.9708 H   0  0  0  0  0  0  0  0  0  0  0  0
   -1.6929   -0.9375    1.4937 H   0  0  0  0  0  0  0  0  0  0  0  0
   -0.5588    1.4427   -1.1453 H   0  0  0  0  0  0  0  0  0  0  0  0
   -0.8945    0.0539   -2.2113 H   0  0  0  0  0  0  0  0  0  0  0  0
   -2.0456    0.5501   -0.8678 H   0  0  0  0  0  0  0  0  0  0  0  0
  1  2  2  0
  2  3  1  0
  3  4  1  0
  4  5  1  0
  4  6  1  0
  2  7  1  0
  3  8  1  0
  3  9  1  0
  4 10  1  0
  5 11  1  0
  5 12  1  0
  5 13  1  0
  6 14  1  0
  6 15  1  0
  6 16  1  0
M  END
>  <Ligand ID>  (1) 
LIG0000567

>  <Ligand>  (1) 
Isovaleraldehyde

>  <SMILES>  (1) 
O=CCC(C)C

>  <CID>  (1) 
11552.0

>  <ChEMBL ID>  (1) 
nan

>  <InChiKey>  (1) 
YGHRJJRRZDOVPD-UHFFFAOYSA-N

>  <InChi>  (1) 
InChI=1S/C5H10O/c1-5(2)3-4-6/h4-5H,3H2,1-2H3

>  <IUPAC Name>  (1) 
3-methylbutanal

$$$$
