
     RDKit          3D

 32 34  0  0  0  0  0  0  0  0999 V2000
   -3.8478   -1.0723   -0.4594 C   0  0  0  0  0  0  0  0  0  0  0  0
   -2.5803   -0.4758   -0.8327 N   0  0  0  0  0  0  0  0  0  0  0  0
   -2.7278    0.9303   -1.1453 C   0  0  0  0  0  0  0  0  0  0  0  0
   -1.4138    1.5601   -1.5494 C   0  0  0  0  0  0  0  0  0  0  0  0
   -0.2980    0.9814   -0.8007 N   0  0  0  0  0  0  0  0  0  0  0  0
   -0.6246    0.3302    0.4495 C   0  0  1  0  0  0  0  0  0  0  0  0
   -1.6121   -0.7597    0.1773 C   0  0  0  0  0  0  0  0  0  0  0  0
    0.6795   -0.1205    0.9226 C   0  0  0  0  0  0  0  0  0  0  0  0
    0.9942   -0.8190    2.0940 C   0  0  0  0  0  0  0  0  0  0  0  0
    2.3181   -1.1584    2.3618 C   0  0  0  0  0  0  0  0  0  0  0  0
    3.3047   -0.7935    1.4536 C   0  0  0  0  0  0  0  0  0  0  0  0
    3.0252   -0.1059    0.2927 C   0  0  0  0  0  0  0  0  0  0  0  0
    1.7029    0.2138    0.0597 C   0  0  0  0  0  0  0  0  0  0  0  0
    1.0976    0.9266   -1.0621 C   0  0  0  0  0  0  0  0  0  0  0  0
    1.6489    1.4179   -2.0847 O   0  0  0  0  0  0  0  0  0  0  0  0
    4.0998    0.2653   -0.6496 C   0  0  0  0  0  0  0  0  0  0  0  0
    5.3068   -0.1755   -0.1699 F   0  0  0  0  0  0  0  0  0  0  0  0
    3.9019   -0.1758   -1.9281 F   0  0  0  0  0  0  0  0  0  0  0  0
    4.1559    1.6652   -0.6173 F   0  0  0  0  0  0  0  0  0  0  0  0
   -4.6837   -0.7172   -1.1029 H   0  0  0  0  0  0  0  0  0  0  0  0
   -3.7743   -2.1776   -0.5329 H   0  0  0  0  0  0  0  0  0  0  0  0
   -4.1559   -0.8199    0.5849 H   0  0  0  0  0  0  0  0  0  0  0  0
   -3.1381    1.5265   -0.3127 H   0  0  0  0  0  0  0  0  0  0  0  0
   -3.4075    1.0001   -2.0194 H   0  0  0  0  0  0  0  0  0  0  0  0
   -1.4211    2.6552   -1.3894 H   0  0  0  0  0  0  0  0  0  0  0  0
   -1.2725    1.3772   -2.6316 H   0  0  0  0  0  0  0  0  0  0  0  0
   -1.1200    1.0554    1.1254 H   0  0  0  0  0  0  0  0  0  0  0  0
   -1.1272   -1.7270   -0.0674 H   0  0  0  0  0  0  0  0  0  0  0  0
   -2.1512   -0.9483    1.1297 H   0  0  0  0  0  0  0  0  0  0  0  0
    0.2062   -1.1007    2.8020 H   0  0  0  0  0  0  0  0  0  0  0  0
    2.5615   -1.7069    3.2826 H   0  0  0  0  0  0  0  0  0  0  0  0
    4.3527   -1.0513    1.6461 H   0  0  0  0  0  0  0  0  0  0  0  0
  1  2  1  0
  2  3  1  0
  3  4  1  0
  4  5  1  0
  5  6  1  0
  6  7  1  0
  6  8  1  0
  8  9  2  0
  9 10  1  0
 10 11  2  0
 11 12  1  0
 12 13  2  0
 13 14  1  0
 14 15  2  0
 12 16  1  0
 16 17  1  0
 16 18  1  0
 16 19  1  0
  7  2  1  0
 13  8  1  0
 14  5  1  0
  1 20  1  0
  1 21  1  0
  1 22  1  0
  3 23  1  0
  3 24  1  0
  4 25  1  0
  4 26  1  0
  6 27  1  1
  7 28  1  0
  7 29  1  0
  9 30  1  0
 10 31  1  0
 11 32  1  0
M  END
>  <Ligand ID>  (1) 
LIG0004639

>  <Ligand>  (1) 
CHEMBL375642

>  <SMILES>  (1) 
CN1CCN2[C@@H](C1)c1cccc(c1C2=O)C(F)(F)F

>  <CID>  (1) 
44420682.0

>  <ChEMBL ID>  (1) 
nan

>  <InChiKey>  (1) 
QSBTVNVZICWCIZ-JTQLQIEISA-N

>  <InChi>  (1) 
InChI=1S/C13H13F3N2O/c1-17-5-6-18-10(7-17)8-3-2-4-9(13(14,15)16)11(8)12(18)19/h2-4,10H,5-7H2,1H3/t10-/m0/s1

>  <IUPAC Name>  (1) 
(10bR)-2-methyl-7-(trifluoromethyl)-1,3,4,10b-tetrahydropyrazino[1,2-b]isoindol-6-one

$$$$
