
     RDKit          3D

 17 16  0  0  0  0  0  0  0  0999 V2000
    2.5107    1.2149    0.3813 C   0  0  0  0  0  0  0  0  0  0  0  0
    1.5464    0.3384    0.0376 C   0  0  0  0  0  0  0  0  0  0  0  0
    1.3728   -0.9262    0.7662 C   0  0  0  0  0  0  0  0  0  0  0  0
   -0.2146   -1.1079    1.5387 S   0  0  0  0  0  0  0  0  0  0  0  0
   -1.6371   -1.2460    0.5061 C   0  0  0  0  0  0  0  0  0  0  0  0
   -2.1497   -0.0556   -0.1629 C   0  0  0  0  0  0  0  0  0  0  0  0
   -1.7367    1.1868   -0.0670 C   0  0  0  0  0  0  0  0  0  0  0  0
    3.1492    0.9186    1.2335 H   0  0  0  0  0  0  0  0  0  0  0  0
    2.6641    2.1523   -0.1328 H   0  0  0  0  0  0  0  0  0  0  0  0
    0.9398    0.6393   -0.8065 H   0  0  0  0  0  0  0  0  0  0  0  0
    1.6284   -1.8086    0.1086 H   0  0  0  0  0  0  0  0  0  0  0  0
    2.1450   -0.9284    1.6001 H   0  0  0  0  0  0  0  0  0  0  0  0
   -2.4947   -1.6263    1.1578 H   0  0  0  0  0  0  0  0  0  0  0  0
   -1.5611   -2.0623   -0.2639 H   0  0  0  0  0  0  0  0  0  0  0  0
   -3.0090   -0.2202   -0.8507 H   0  0  0  0  0  0  0  0  0  0  0  0
   -0.9201    1.5408    0.5478 H   0  0  0  0  0  0  0  0  0  0  0  0
   -2.2333    1.9904   -0.6474 H   0  0  0  0  0  0  0  0  0  0  0  0
  1  2  2  0
  2  3  1  0
  3  4  1  0
  4  5  1  0
  5  6  1  0
  6  7  2  0
  1  8  1  0
  1  9  1  0
  2 10  1  0
  3 11  1  0
  3 12  1  0
  5 13  1  0
  5 14  1  0
  6 15  1  0
  7 16  1  0
  7 17  1  0
M  END
>  <Ligand ID>  (1) 
LIG0000036

>  <Ligand>  (1) 
diallyl sulfide

>  <SMILES>  (1) 
C=CCSCC=C

>  <CID>  (1) 
11617.0

>  <ChEMBL ID>  (1) 
nan

>  <InChiKey>  (1) 
UBJVUCKUDDKUJF-UHFFFAOYSA-N

>  <InChi>  (1) 
InChI=1S/C6H10S/c1-3-5-7-6-4-2/h3-4H,1-2,5-6H2

>  <IUPAC Name>  (1) 
3-prop-2-enylsulfanylprop-1-ene

$$$$
