
     RDKit          3D

 20 19  0  0  0  0  0  0  0  0999 V2000
   -2.2013    2.0657    0.4450 Br  0  0  0  0  0  0  0  0  0  0  0  0
   -2.8188    0.2708    0.3557 C   0  0  0  0  0  0  0  0  0  0  0  0
   -2.0412   -0.6200   -0.5266 C   0  0  0  0  0  0  0  0  0  0  0  0
   -0.6231   -0.8756   -0.2218 C   0  0  0  0  0  0  0  0  0  0  0  0
    0.3123    0.3010   -0.1937 C   0  0  0  0  0  0  0  0  0  0  0  0
    1.6967   -0.3314    0.1117 C   0  0  0  0  0  0  0  0  0  0  0  0
    2.7130    0.7394    0.1653 C   0  0  0  0  0  0  0  0  0  0  0  0
    2.4140    1.9438   -0.0194 O   0  0  0  0  0  0  0  0  0  0  0  0
    4.0209    0.3735    0.4282 O   0  0  0  0  0  0  0  0  0  0  0  0
   -3.8672    0.3054   -0.0731 H   0  0  0  0  0  0  0  0  0  0  0  0
   -2.9650   -0.1981    1.3561 H   0  0  0  0  0  0  0  0  0  0  0  0
   -2.5302   -1.6363   -0.6370 H   0  0  0  0  0  0  0  0  0  0  0  0
   -2.0672   -0.2351   -1.5962 H   0  0  0  0  0  0  0  0  0  0  0  0
   -0.4684   -1.4808    0.7164 H   0  0  0  0  0  0  0  0  0  0  0  0
   -0.2385   -1.5549   -1.0485 H   0  0  0  0  0  0  0  0  0  0  0  0
    0.3905    0.8310   -1.1549 H   0  0  0  0  0  0  0  0  0  0  0  0
    0.0849    1.0258    0.6303 H   0  0  0  0  0  0  0  0  0  0  0  0
    1.8770   -1.0791   -0.6835 H   0  0  0  0  0  0  0  0  0  0  0  0
    1.6389   -0.8844    1.0724 H   0  0  0  0  0  0  0  0  0  0  0  0
    4.6723    1.0392    0.8735 H   0  0  0  0  0  0  0  0  0  0  0  0
  1  2  1  0
  2  3  1  0
  3  4  1  0
  4  5  1  0
  5  6  1  0
  6  7  1  0
  7  8  2  0
  7  9  1  0
  2 10  1  0
  2 11  1  0
  3 12  1  0
  3 13  1  0
  4 14  1  0
  4 15  1  0
  5 16  1  0
  5 17  1  0
  6 18  1  0
  6 19  1  0
  9 20  1  0
M  END
>  <Ligand ID>  (1) 
LIG0000165

>  <Ligand>  (1) 
6-Bromohexanoic acid

>  <SMILES>  (1) 
BrCCCCCC(=O)O

>  <CID>  (1) 
20210.0

>  <ChEMBL ID>  (1) 
nan

>  <InChiKey>  (1) 
NVRVNSHHLPQGCU-UHFFFAOYSA-N

>  <InChi>  (1) 
InChI=1S/C6H11BrO2/c7-5-3-1-2-4-6(8)9/h1-5H2,(H,8,9)

>  <IUPAC Name>  (1) 
6-bromohexanoic acid

$$$$
