
     RDKit          3D

 66 68  0  0  0  0  0  0  0  0999 V2000
    1.9607    1.0096    1.2182 C   0  0  0  0  0  0  0  0  0  0  0  0
    1.8438    0.6050   -0.2183 C   0  0  2  0  0  0  0  0  0  0  0  0
    3.1286    0.7502   -1.0049 C   0  0  0  0  0  0  0  0  0  0  0  0
    4.2425   -0.0518   -0.4749 C   0  0  0  0  0  0  0  0  0  0  0  0
    4.6097   -1.3084   -0.9724 C   0  0  0  0  0  0  0  0  0  0  0  0
    5.6458   -1.7874   -0.2545 N   0  0  0  0  0  0  0  0  0  0  0  0
    5.9798   -0.8989    0.6974 C   0  0  0  0  0  0  0  0  0  0  0  0
    5.1169    0.1702    0.5628 C   0  0  0  0  0  0  0  0  0  0  0  0
    5.2742    1.2179    1.4298 C   0  0  0  0  0  0  0  0  0  0  0  0
    6.2568    1.1871    2.3897 C   0  0  0  0  0  0  0  0  0  0  0  0
    7.1315    0.1342    2.5490 C   0  0  0  0  0  0  0  0  0  0  0  0
    6.9734   -0.9308    1.6683 C   0  0  0  0  0  0  0  0  0  0  0  0
    7.8127   -2.0315    1.7593 O   0  0  0  0  0  0  0  0  0  0  0  0
    9.2561   -1.9640    0.8225 S   0  0  0  0  0  0  0  0  0  0  0  0
    9.8205   -3.3331    0.6067 O   0  0  0  0  0  0  0  0  0  0  0  0
   10.2078   -1.0707    1.5523 O   0  0  0  0  0  0  0  0  0  0  0  0
    8.8051   -1.1881   -0.7242 C   0  0  0  0  0  0  0  0  0  0  0  0
    0.7601    1.3041   -0.8435 N   0  0  0  0  0  0  0  0  0  0  0  0
   -0.5461    1.0353   -0.3093 C   0  0  0  0  0  0  0  0  0  0  0  0
   -1.5321    1.8459   -1.1381 C   0  0  1  0  0  0  0  0  0  0  0  0
   -2.9433    1.5446   -0.7882 C   0  0  0  0  0  0  0  0  0  0  0  0
   -3.5092    2.1203    0.3259 C   0  0  0  0  0  0  0  0  0  0  0  0
   -4.8179    1.8366    0.6423 C   0  0  0  0  0  0  0  0  0  0  0  0
   -5.5320    0.9787   -0.1688 C   0  0  0  0  0  0  0  0  0  0  0  0
   -5.0154    0.3776   -1.2913 C   0  0  0  0  0  0  0  0  0  0  0  0
   -3.6836    0.6944   -1.5742 C   0  0  0  0  0  0  0  0  0  0  0  0
   -5.6944   -0.5020   -2.1422 N   0  0  0  0  0  0  0  0  0  0  0  0
   -7.0332   -0.9920   -2.0504 C   0  0  0  0  0  0  0  0  0  0  0  0
   -7.1934   -1.8086   -0.8304 C   0  0  0  0  0  0  0  0  0  0  0  0
   -8.0660   -1.6180    0.1370 C   0  0  0  0  0  0  0  0  0  0  0  0
   -8.0725   -2.5713    1.3189 C   0  0  0  0  0  0  0  0  0  0  0  0
   -9.0874   -0.5515    0.1803 C   0  0  0  0  0  0  0  0  0  0  0  0
   -1.2479    3.2037   -1.0483 O   0  0  0  0  0  0  0  0  0  0  0  0
    2.2292    2.0600    1.3887 H   0  0  0  0  0  0  0  0  0  0  0  0
    2.5983    0.2849    1.7809 H   0  0  0  0  0  0  0  0  0  0  0  0
    0.9472    0.8723    1.6943 H   0  0  0  0  0  0  0  0  0  0  0  0
    1.5857   -0.4902   -0.2033 H   0  0  0  0  0  0  0  0  0  0  0  0
    3.4831    1.8125   -0.9960 H   0  0  0  0  0  0  0  0  0  0  0  0
    2.9594    0.4716   -2.0735 H   0  0  0  0  0  0  0  0  0  0  0  0
    4.1558   -1.8466   -1.8042 H   0  0  0  0  0  0  0  0  0  0  0  0
    6.1252   -2.7177   -0.4119 H   0  0  0  0  0  0  0  0  0  0  0  0
    4.6207    2.0620    1.3396 H   0  0  0  0  0  0  0  0  0  0  0  0
    6.3538    2.0440    3.0676 H   0  0  0  0  0  0  0  0  0  0  0  0
    7.9077    0.1016    3.3022 H   0  0  0  0  0  0  0  0  0  0  0  0
    9.7445   -0.9537   -1.2724 H   0  0  0  0  0  0  0  0  0  0  0  0
    8.1680   -0.3226   -0.5273 H   0  0  0  0  0  0  0  0  0  0  0  0
    8.2519   -1.8966   -1.3753 H   0  0  0  0  0  0  0  0  0  0  0  0
    0.9904    2.3198   -0.8634 H   0  0  0  0  0  0  0  0  0  0  0  0
   -0.6969    1.4175    0.7391 H   0  0  0  0  0  0  0  0  0  0  0  0
   -0.8430   -0.0245   -0.4070 H   0  0  0  0  0  0  0  0  0  0  0  0
   -1.3244    1.5672   -2.2109 H   0  0  0  0  0  0  0  0  0  0  0  0
   -2.9621    2.7899    0.9645 H   0  0  0  0  0  0  0  0  0  0  0  0
   -5.2736    2.2829    1.5155 H   0  0  0  0  0  0  0  0  0  0  0  0
   -6.5492    0.7873    0.1095 H   0  0  0  0  0  0  0  0  0  0  0  0
   -3.1737    0.2749   -2.4392 H   0  0  0  0  0  0  0  0  0  0  0  0
   -5.1358   -0.8634   -2.9849 H   0  0  0  0  0  0  0  0  0  0  0  0
   -7.7912   -0.1755   -2.0105 H   0  0  0  0  0  0  0  0  0  0  0  0
   -7.3203   -1.5670   -2.9731 H   0  0  0  0  0  0  0  0  0  0  0  0
   -6.4978   -2.6653   -0.7388 H   0  0  0  0  0  0  0  0  0  0  0  0
   -9.1407   -2.7727    1.5571 H   0  0  0  0  0  0  0  0  0  0  0  0
   -7.5426   -2.0417    2.1286 H   0  0  0  0  0  0  0  0  0  0  0  0
   -7.5173   -3.4772    1.0244 H   0  0  0  0  0  0  0  0  0  0  0  0
  -10.0949   -0.9164   -0.1170 H   0  0  0  0  0  0  0  0  0  0  0  0
   -8.8225    0.3637   -0.3747 H   0  0  0  0  0  0  0  0  0  0  0  0
   -9.2245   -0.2183    1.2514 H   0  0  0  0  0  0  0  0  0  0  0  0
   -1.0618    3.4835   -0.1066 H   0  0  0  0  0  0  0  0  0  0  0  0
  1  2  1  0
  2  3  1  0
  3  4  1  0
  4  5  2  0
  5  6  1  0
  6  7  1  0
  7  8  2  0
  8  9  1  0
  9 10  2  0
 10 11  1  0
 11 12  2  0
 12 13  1  0
 13 14  1  0
 14 15  2  0
 14 16  2  0
 14 17  1  0
  2 18  1  0
 18 19  1  0
 19 20  1  0
 20 21  1  0
 21 22  2  0
 22 23  1  0
 23 24  2  0
 24 25  1  0
 25 26  2  0
 25 27  1  0
 27 28  1  0
 28 29  1  0
 29 30  2  3
 30 31  1  0
 30 32  1  0
 20 33  1  0
  8  4  1  0
 26 21  1  0
 12  7  1  0
  1 34  1  0
  1 35  1  0
  1 36  1  0
  2 37  1  1
  3 38  1  0
  3 39  1  0
  5 40  1  0
  6 41  1  0
  9 42  1  0
 10 43  1  0
 11 44  1  0
 17 45  1  0
 17 46  1  0
 17 47  1  0
 18 48  1  0
 19 49  1  0
 19 50  1  0
 20 51  1  6
 22 52  1  0
 23 53  1  0
 24 54  1  0
 26 55  1  0
 27 56  1  0
 28 57  1  0
 28 58  1  0
 29 59  1  0
 31 60  1  0
 31 61  1  0
 31 62  1  0
 32 63  1  0
 32 64  1  0
 32 65  1  0
 33 66  1  0
M  END
>  <Ligand ID>  (1) 
LIG0002219

>  <Ligand>  (1) 
CHEMBL182770

>  <SMILES>  (1) 
C[C@H](Cc1c[nH]c2c1cccc2OS(=O)(=O)C)NC[C@@H](c1cccc(c1)NCC=C(C)C)O

>  <CID>  (1) 
44392558.0

>  <ChEMBL ID>  (1) 
nan

>  <InChiKey>  (1) 
TZVFBJSCZAMNOI-JPYJTQIMSA-N

>  <InChi>  (1) 
InChI=1S/C25H33N3O4S/c1-17(2)11-12-26-21-8-5-7-19(14-21)23(29)16-27-18(3)13-20-15-28-25-22(20)9-6-10-24(25)32-33(4,30)31/h5-11,14-15,18,23,26-29H,12-13,16H2,1-4H3/t18-,23+/m1/s1

>  <IUPAC Name>  (1) 
[3-[(2R)-2-[[(2R)-2-hydroxy-2-[3-(3-methylbut-2-enylamino)phenyl]ethyl]amino]propyl]-1H-indol-7-yl] methanesulfonate

$$$$
