
     RDKit          3D

 88 91  0  0  0  0  0  0  0  0999 V2000
    4.9190    4.7645    2.2890 C   0  0  0  0  0  0  0  0  0  0  0  0
    3.9241    3.6231    2.3289 C   0  0  1  0  0  0  0  0  0  0  0  0
    3.3422    3.4168    0.9660 C   0  0  0  0  0  0  0  0  0  0  0  0
    3.1367    2.0102    0.7245 N   0  0  0  0  0  0  0  0  0  0  0  0
    4.4077    1.3318    0.7276 C   0  0  1  0  0  0  0  0  0  0  0  0
    5.1617    1.5835    1.9853 C   0  0  0  0  0  0  0  0  0  0  0  0
    4.4596    2.4174    2.9193 N   0  0  0  0  0  0  0  0  0  0  0  0
    4.1810   -0.1300    0.4506 C   0  0  0  0  0  0  0  0  0  0  0  0
    5.1422   -0.9215    0.5524 O   0  0  0  0  0  0  0  0  0  0  0  0
    2.8509   -0.5853    0.0698 N   0  0  0  0  0  0  0  0  0  0  0  0
    2.7216   -1.9884   -0.1658 C   0  0  1  0  0  0  0  0  0  0  0  0
    1.3673   -2.4714   -0.1878 C   0  0  0  0  0  0  0  0  0  0  0  0
    1.2052   -3.6806    0.2795 O   0  0  0  0  0  0  0  0  0  0  0  0
    0.1803   -1.8704   -0.6311 N   0  0  0  0  0  0  0  0  0  0  0  0
    0.0488   -0.6022   -1.3168 C   0  0  0  0  0  0  0  0  0  0  0  0
   -0.7079    0.3557   -0.4180 C   0  0  0  0  0  0  0  0  0  0  0  0
   -2.1067   -0.1701   -0.1861 C   0  0  0  0  0  0  0  0  0  0  0  0
   -2.2842   -1.6224   -0.4366 C   0  0  0  0  0  0  0  0  0  0  0  0
   -1.1197   -2.5251   -0.3761 C   0  0  0  0  0  0  0  0  0  0  0  0
   -2.5384    0.1964    1.1918 C   0  0  0  0  0  0  0  0  0  0  0  0
   -2.5525    1.6940    1.4207 C   0  0  0  0  0  0  0  0  0  0  0  0
   -3.3282    2.0003    2.6555 C   0  0  0  0  0  0  0  0  0  0  0  0
   -2.9219    1.2109    3.8567 C   0  0  0  0  0  0  0  0  0  0  0  0
   -2.6243   -0.2360    3.5605 C   0  0  0  0  0  0  0  0  0  0  0  0
   -1.7491   -0.3964    2.3082 C   0  0  0  0  0  0  0  0  0  0  0  0
   -3.0148    0.6253   -1.1142 C   0  0  0  0  0  0  0  0  0  0  0  0
   -2.4154    1.5130   -1.7797 O   0  0  0  0  0  0  0  0  0  0  0  0
   -4.3990    0.3669   -1.2009 N   0  0  0  0  0  0  0  0  0  0  0  0
   -5.1842    1.1775   -2.1187 C   0  0  0  0  0  0  0  0  0  0  0  0
   -5.0541    2.6202   -1.6672 C   0  0  0  0  0  0  0  0  0  0  0  0
   -6.6202    0.7685   -2.0652 C   0  0  0  0  0  0  0  0  0  0  0  0
   -4.6388    1.1038   -3.5291 C   0  0  0  0  0  0  0  0  0  0  0  0
    3.3862   -2.2200   -1.5642 C   0  0  0  0  0  0  0  0  0  0  0  0
    3.3182   -3.6345   -1.9610 C   0  0  0  0  0  0  0  0  0  0  0  0
    2.1959   -4.0003   -2.7302 C   0  0  0  0  0  0  0  0  0  0  0  0
    2.0006   -5.2799   -3.1715 C   0  0  0  0  0  0  0  0  0  0  0  0
    2.9465   -6.2328   -2.8420 C   0  0  0  0  0  0  0  0  0  0  0  0
    4.0501   -5.9091   -2.0943 C   0  0  0  0  0  0  0  0  0  0  0  0
    4.2443   -4.5952   -1.6451 C   0  0  0  0  0  0  0  0  0  0  0  0
    2.6997   -7.4917   -3.3083 F   0  0  0  0  0  0  0  0  0  0  0  0
    5.0763    5.0659    1.2239 H   0  0  0  0  0  0  0  0  0  0  0  0
    4.4818    5.6607    2.7738 H   0  0  0  0  0  0  0  0  0  0  0  0
    5.8887    4.5114    2.7649 H   0  0  0  0  0  0  0  0  0  0  0  0
    3.0844    3.9446    3.0097 H   0  0  0  0  0  0  0  0  0  0  0  0
    2.3758    3.9538    0.8256 H   0  0  0  0  0  0  0  0  0  0  0  0
    4.0836    3.7843    0.2020 H   0  0  0  0  0  0  0  0  0  0  0  0
    2.5370    1.5772    1.4581 H   0  0  0  0  0  0  0  0  0  0  0  0
    4.9790    1.7025   -0.1752 H   0  0  0  0  0  0  0  0  0  0  0  0
    5.3922    0.6099    2.4910 H   0  0  0  0  0  0  0  0  0  0  0  0
    6.1671    2.0096    1.7338 H   0  0  0  0  0  0  0  0  0  0  0  0
    5.1255    2.6847    3.6733 H   0  0  0  0  0  0  0  0  0  0  0  0
    2.1451    0.1554    0.0379 H   0  0  0  0  0  0  0  0  0  0  0  0
    3.3636   -2.5487    0.5511 H   0  0  0  0  0  0  0  0  0  0  0  0
   -0.6647   -0.7358   -2.2080 H   0  0  0  0  0  0  0  0  0  0  0  0
    0.9181   -0.1444   -1.7228 H   0  0  0  0  0  0  0  0  0  0  0  0
   -0.2186    0.4529    0.5698 H   0  0  0  0  0  0  0  0  0  0  0  0
   -0.7438    1.3416   -0.8705 H   0  0  0  0  0  0  0  0  0  0  0  0
   -3.0643   -2.0536    0.2558 H   0  0  0  0  0  0  0  0  0  0  0  0
   -2.7780   -1.7621   -1.4530 H   0  0  0  0  0  0  0  0  0  0  0  0
   -1.1820   -3.2807   -1.2165 H   0  0  0  0  0  0  0  0  0  0  0  0
   -1.0559   -3.1084    0.5576 H   0  0  0  0  0  0  0  0  0  0  0  0
   -3.6044   -0.1499    1.3132 H   0  0  0  0  0  0  0  0  0  0  0  0
   -1.5066    2.1001    1.4919 H   0  0  0  0  0  0  0  0  0  0  0  0
   -3.0053    2.2007    0.5709 H   0  0  0  0  0  0  0  0  0  0  0  0
   -3.1238    3.0786    2.9139 H   0  0  0  0  0  0  0  0  0  0  0  0
   -4.4127    1.9497    2.4363 H   0  0  0  0  0  0  0  0  0  0  0  0
   -2.1168    1.7106    4.4265 H   0  0  0  0  0  0  0  0  0  0  0  0
   -3.8218    1.1942    4.5385 H   0  0  0  0  0  0  0  0  0  0  0  0
   -3.5814   -0.7456    3.3278 H   0  0  0  0  0  0  0  0  0  0  0  0
   -2.1716   -0.6942    4.4479 H   0  0  0  0  0  0  0  0  0  0  0  0
   -1.5042   -1.4548    2.2159 H   0  0  0  0  0  0  0  0  0  0  0  0
   -0.8570    0.2375    2.4932 H   0  0  0  0  0  0  0  0  0  0  0  0
   -4.8046   -0.3911   -0.6082 H   0  0  0  0  0  0  0  0  0  0  0  0
   -5.9259    3.2291   -1.9983 H   0  0  0  0  0  0  0  0  0  0  0  0
   -5.0749    2.6018   -0.5470 H   0  0  0  0  0  0  0  0  0  0  0  0
   -4.0989    3.0833   -1.9804 H   0  0  0  0  0  0  0  0  0  0  0  0
   -7.2416    1.4177   -1.4080 H   0  0  0  0  0  0  0  0  0  0  0  0
   -6.7044   -0.2691   -1.6588 H   0  0  0  0  0  0  0  0  0  0  0  0
   -7.0637    0.7485   -3.0850 H   0  0  0  0  0  0  0  0  0  0  0  0
   -4.2233    0.1066   -3.7689 H   0  0  0  0  0  0  0  0  0  0  0  0
   -5.4935    1.2746   -4.2162 H   0  0  0  0  0  0  0  0  0  0  0  0
   -3.9271    1.9225   -3.7448 H   0  0  0  0  0  0  0  0  0  0  0  0
    4.4245   -1.8710   -1.4572 H   0  0  0  0  0  0  0  0  0  0  0  0
    2.8707   -1.5487   -2.2783 H   0  0  0  0  0  0  0  0  0  0  0  0
    1.4433   -3.2635   -3.0023 H   0  0  0  0  0  0  0  0  0  0  0  0
    1.1185   -5.5249   -3.7681 H   0  0  0  0  0  0  0  0  0  0  0  0
    4.7635   -6.6680   -1.8559 H   0  0  0  0  0  0  0  0  0  0  0  0
    5.1015   -4.3118   -1.0573 H   0  0  0  0  0  0  0  0  0  0  0  0
  1  2  1  0
  2  3  1  0
  3  4  1  0
  4  5  1  0
  5  6  1  0
  6  7  1  0
  5  8  1  0
  8  9  2  0
  8 10  1  0
 10 11  1  0
 11 12  1  0
 12 13  2  0
 12 14  1  0
 14 15  1  0
 15 16  1  0
 16 17  1  0
 17 18  1  0
 18 19  1  0
 17 20  1  0
 20 21  1  0
 21 22  1  0
 22 23  1  0
 23 24  1  0
 24 25  1  0
 17 26  1  0
 26 27  2  0
 26 28  1  0
 28 29  1  0
 29 30  1  0
 29 31  1  0
 29 32  1  0
 11 33  1  0
 33 34  1  0
 34 35  2  0
 35 36  1  0
 36 37  2  0
 37 38  1  0
 38 39  2  0
 37 40  1  0
  7  2  1  0
 19 14  1  0
 25 20  1  0
 39 34  1  0
  1 41  1  0
  1 42  1  0
  1 43  1  0
  2 44  1  1
  3 45  1  0
  3 46  1  0
  4 47  1  0
  5 48  1  6
  6 49  1  0
  6 50  1  0
  7 51  1  0
 10 52  1  0
 11 53  1  1
 15 54  1  0
 15 55  1  0
 16 56  1  0
 16 57  1  0
 18 58  1  0
 18 59  1  0
 19 60  1  0
 19 61  1  0
 20 62  1  0
 21 63  1  0
 21 64  1  0
 22 65  1  0
 22 66  1  0
 23 67  1  0
 23 68  1  0
 24 69  1  0
 24 70  1  0
 25 71  1  0
 25 72  1  0
 28 73  1  0
 30 74  1  0
 30 75  1  0
 30 76  1  0
 31 77  1  0
 31 78  1  0
 31 79  1  0
 32 80  1  0
 32 81  1  0
 32 82  1  0
 33 83  1  0
 33 84  1  0
 35 85  1  0
 36 86  1  0
 38 87  1  0
 39 88  1  0
M  END
>  <Ligand ID>  (1) 
LIG0005544

>  <Ligand>  (1) 
CHEMBL534930

>  <SMILES>  (1) 
C[C@H]1CN[C@@H](CN1)C(=O)N[C@@H](C(=O)N1CCC(CC1)(C1CCCCC1)C(=O)NC(C)(C)C)Cc1ccc(cc1)F

>  <CID>  (1) 
44401310.0

>  <ChEMBL ID>  (1) 
nan

>  <InChiKey>  (1) 
OFJSZIYSMHBNBU-BYXVTNLJSA-N

>  <InChi>  (1) 
InChI=1S/C31H48FN5O3/c1-21-19-34-26(20-33-21)27(38)35-25(18-22-10-12-24(32)13-11-22)28(39)37-16-14-31(15-17-37,23-8-6-5-7-9-23)29(40)36-30(2,3)4/h10-13,21,23,25-26,33-34H,5-9,14-20H2,1-4H3,(H,35,38)(H,36,40)/t21-,25+,26-/m0/s1

>  <IUPAC Name>  (1) 
(2S,5S)-N-[(2R)-1-[4-(tert-butylcarbamoyl)-4-cyclohexylpiperidin-1-yl]-3-(4-fluorophenyl)-1-oxopropan-2-yl]-5-methylpiperazine-2-carboxamide

$$$$
