
     RDKit          3D

 43 45  0  0  0  0  0  0  0  0999 V2000
   -0.5051    0.4815   -0.9253 O   0  0  0  0  0  0  0  0  0  0  0  0
   -1.0044    0.1042    0.2001 C   0  0  0  0  0  0  0  0  0  0  0  0
   -0.3569   -1.0376    0.8039 C   0  0  0  0  0  0  0  0  0  0  0  0
   -1.0003   -1.8804    1.6986 C   0  0  0  0  0  0  0  0  0  0  0  0
   -0.4152   -3.0337    2.2141 C   0  0  0  0  0  0  0  0  0  0  0  0
    0.8517   -3.3929    1.8484 C   0  0  0  0  0  0  0  0  0  0  0  0
    1.5108   -2.5822    0.9679 C   0  0  0  0  0  0  0  0  0  0  0  0
    0.9338   -1.4148    0.4408 C   0  0  0  0  0  0  0  0  0  0  0  0
    1.7771   -0.6629   -0.4152 N   0  0  0  0  0  0  0  0  0  0  0  0
    3.1192   -1.1497   -0.7539 C   0  0  0  0  0  0  0  0  0  0  0  0
    3.8233   -0.2244   -1.6499 C   0  0  0  0  0  0  0  0  0  0  0  0
    4.2464   -0.5354   -2.8219 N   0  0  0  0  0  0  0  0  0  0  0  0
    4.8972    0.5949   -3.4476 C   0  0  0  0  0  0  0  0  0  0  0  0
    4.2553    1.7502   -2.7105 C   0  0  0  0  0  0  0  0  0  0  0  0
    4.1438    1.1331   -1.3781 N   0  0  0  0  0  0  0  0  0  0  0  0
   -2.0856    0.8586    0.6559 N   0  0  0  0  0  0  0  0  0  0  0  0
   -2.8471    0.7580    1.8654 C   0  0  0  0  0  0  0  0  0  0  0  0
   -4.1887    0.1620    1.5017 C   0  0  0  0  0  0  0  0  0  0  0  0
   -4.8167    1.0107    0.4275 C   0  0  0  0  0  0  0  0  0  0  0  0
   -4.0117    2.2054    0.0596 C   0  0  0  0  0  0  0  0  0  0  0  0
   -2.5602    1.9356   -0.2538 C   0  0  0  0  0  0  0  0  0  0  0  0
   -2.0131   -1.7196    2.0412 H   0  0  0  0  0  0  0  0  0  0  0  0
   -0.9413   -3.6787    2.9160 H   0  0  0  0  0  0  0  0  0  0  0  0
    1.2895   -4.2876    2.2551 H   0  0  0  0  0  0  0  0  0  0  0  0
    2.5190   -2.8877    0.6899 H   0  0  0  0  0  0  0  0  0  0  0  0
    1.5480    0.2563   -0.8441 H   0  0  0  0  0  0  0  0  0  0  0  0
    3.6841   -1.2761    0.2049 H   0  0  0  0  0  0  0  0  0  0  0  0
    2.9551   -2.1478   -1.2053 H   0  0  0  0  0  0  0  0  0  0  0  0
    4.5967    0.5809   -4.5176 H   0  0  0  0  0  0  0  0  0  0  0  0
    6.0002    0.5915   -3.3286 H   0  0  0  0  0  0  0  0  0  0  0  0
    3.2918    2.0429   -3.1189 H   0  0  0  0  0  0  0  0  0  0  0  0
    5.0133    2.5650   -2.7166 H   0  0  0  0  0  0  0  0  0  0  0  0
    4.2711    1.5883   -0.4466 H   0  0  0  0  0  0  0  0  0  0  0  0
   -3.0846    1.8476    2.1914 H   0  0  0  0  0  0  0  0  0  0  0  0
   -2.3386    0.3193    2.7125 H   0  0  0  0  0  0  0  0  0  0  0  0
   -3.9922   -0.8755    1.1249 H   0  0  0  0  0  0  0  0  0  0  0  0
   -4.8510    0.1122    2.3987 H   0  0  0  0  0  0  0  0  0  0  0  0
   -5.0144    0.3548   -0.4602 H   0  0  0  0  0  0  0  0  0  0  0  0
   -5.7939    1.3935    0.8438 H   0  0  0  0  0  0  0  0  0  0  0  0
   -4.4588    2.6728   -0.8683 H   0  0  0  0  0  0  0  0  0  0  0  0
   -4.0465    2.9932    0.8453 H   0  0  0  0  0  0  0  0  0  0  0  0
   -2.4288    1.6348   -1.2941 H   0  0  0  0  0  0  0  0  0  0  0  0
   -1.9722    2.8396   -0.0210 H   0  0  0  0  0  0  0  0  0  0  0  0
  1  2  2  0
  2  3  1  0
  3  4  2  0
  4  5  1  0
  5  6  2  0
  6  7  1  0
  7  8  2  0
  8  9  1  0
  9 10  1  0
 10 11  1  0
 11 12  2  0
 12 13  1  0
 13 14  1  0
 14 15  1  0
  2 16  1  0
 16 17  1  0
 17 18  1  0
 18 19  1  0
 19 20  1  0
 20 21  1  0
  8  3  1  0
 15 11  1  0
 21 16  1  0
  4 22  1  0
  5 23  1  0
  6 24  1  0
  7 25  1  0
  9 26  1  0
 10 27  1  0
 10 28  1  0
 13 29  1  0
 13 30  1  0
 14 31  1  0
 14 32  1  0
 15 33  1  0
 17 34  1  0
 17 35  1  0
 18 36  1  0
 18 37  1  0
 19 38  1  0
 19 39  1  0
 20 40  1  0
 20 41  1  0
 21 42  1  0
 21 43  1  0
M  END
>  <Ligand ID>  (1) 
LIG0003094

>  <Ligand>  (1) 
CHEMBL95333

>  <SMILES>  (1) 
O=C(c1ccccc1NCC1=NCCN1)N1CCCCC1

>  <CID>  (1) 
22493231.0

>  <ChEMBL ID>  (1) 
nan

>  <InChiKey>  (1) 
CNOGTSVNRSSSOR-UHFFFAOYSA-N

>  <InChi>  (1) 
InChI=1S/C16H22N4O/c21-16(20-10-4-1-5-11-20)13-6-2-3-7-14(13)19-12-15-17-8-9-18-15/h2-3,6-7,19H,1,4-5,8-12H2,(H,17,18)

>  <IUPAC Name>  (1) 
[2-(4,5-dihydro-1H-imidazol-2-ylmethylamino)phenyl]-piperidin-1-ylmethanone

$$$$
