
     RDKit          3D

 56 59  0  0  0  0  0  0  0  0999 V2000
   -2.1222   -3.2250    0.2337 C   0  0  0  0  0  0  0  0  0  0  0  0
   -2.5199   -1.7844    0.3530 C   0  0  0  0  0  0  0  0  0  0  0  0
   -1.8668   -0.8064    1.1014 C   0  0  0  0  0  0  0  0  0  0  0  0
   -0.6589   -1.0915    1.8926 C   0  0  0  0  0  0  0  0  0  0  0  0
    0.4904   -1.2028    0.9858 N   0  0  0  0  0  0  0  0  0  0  0  0
    1.6427   -1.5032    1.7936 C   0  0  0  0  0  0  0  0  0  0  0  0
    2.6036   -0.3541    1.9562 C   0  0  0  0  0  0  0  0  0  0  0  0
    3.0070    0.0705    0.6307 N   0  0  0  0  0  0  0  0  0  0  0  0
    1.9465    0.2652   -0.3417 C   0  0  0  0  0  0  0  0  0  0  0  0
    0.5931    0.0604    0.2956 C   0  0  0  0  0  0  0  0  0  0  0  0
    4.3438    0.3004    0.2456 C   0  0  0  0  0  0  0  0  0  0  0  0
    5.4314    0.1472    1.0770 C   0  0  0  0  0  0  0  0  0  0  0  0
    6.7344    0.3811    0.6703 C   0  0  0  0  0  0  0  0  0  0  0  0
    6.9842    0.7909   -0.6350 C   0  0  0  0  0  0  0  0  0  0  0  0
    5.9003    0.9534   -1.4968 C   0  0  0  0  0  0  0  0  0  0  0  0
    4.6235    0.7111   -1.0538 C   0  0  0  0  0  0  0  0  0  0  0  0
    6.1957    1.3936   -2.8848 C   0  0  0  0  0  0  0  0  0  0  0  0
    5.1234    1.2197   -3.7228 F   0  0  0  0  0  0  0  0  0  0  0  0
    6.5534    2.7455   -2.7966 F   0  0  0  0  0  0  0  0  0  0  0  0
    7.3430    0.7488   -3.3484 F   0  0  0  0  0  0  0  0  0  0  0  0
   -2.5820    0.3461    0.9106 C   0  0  0  0  0  0  0  0  0  0  0  0
   -2.3026    1.4542    1.4262 O   0  0  0  0  0  0  0  0  0  0  0  0
   -3.6025    0.0338    0.0846 N   0  0  0  0  0  0  0  0  0  0  0  0
   -3.5707   -1.2354   -0.2513 N   0  0  0  0  0  0  0  0  0  0  0  0
   -4.4895   -1.9437   -1.1163 C   0  0  0  0  0  0  0  0  0  0  0  0
   -4.6026    0.9330   -0.3850 C   0  0  0  0  0  0  0  0  0  0  0  0
   -4.3050    1.5981   -1.5739 C   0  0  0  0  0  0  0  0  0  0  0  0
   -5.2280    2.4960   -2.1041 C   0  0  0  0  0  0  0  0  0  0  0  0
   -6.4080    2.6888   -1.4208 C   0  0  0  0  0  0  0  0  0  0  0  0
   -6.7186    2.0396   -0.2434 C   0  0  0  0  0  0  0  0  0  0  0  0
   -5.7869    1.1553    0.2600 C   0  0  0  0  0  0  0  0  0  0  0  0
   -3.0162   -3.8496    0.0518 H   0  0  0  0  0  0  0  0  0  0  0  0
   -1.5526   -3.5506    1.1444 H   0  0  0  0  0  0  0  0  0  0  0  0
   -1.4462   -3.3221   -0.6389 H   0  0  0  0  0  0  0  0  0  0  0  0
   -0.7979   -2.0504    2.4537 H   0  0  0  0  0  0  0  0  0  0  0  0
   -0.5269   -0.3016    2.6448 H   0  0  0  0  0  0  0  0  0  0  0  0
    2.2040   -2.3312    1.2729 H   0  0  0  0  0  0  0  0  0  0  0  0
    1.3308   -1.9459    2.7676 H   0  0  0  0  0  0  0  0  0  0  0  0
    3.4142   -0.6936    2.5979 H   0  0  0  0  0  0  0  0  0  0  0  0
    2.0625    0.5357    2.3924 H   0  0  0  0  0  0  0  0  0  0  0  0
    1.9987    1.3270   -0.6638 H   0  0  0  0  0  0  0  0  0  0  0  0
    2.0772   -0.3538   -1.2489 H   0  0  0  0  0  0  0  0  0  0  0  0
   -0.1607    0.0606   -0.5173 H   0  0  0  0  0  0  0  0  0  0  0  0
    0.3432    0.8991    0.9711 H   0  0  0  0  0  0  0  0  0  0  0  0
    5.2957   -0.1663    2.0925 H   0  0  0  0  0  0  0  0  0  0  0  0
    7.5528    0.2379    1.3900 H   0  0  0  0  0  0  0  0  0  0  0  0
    8.0034    0.9743   -0.9536 H   0  0  0  0  0  0  0  0  0  0  0  0
    3.8245    0.8572   -1.7778 H   0  0  0  0  0  0  0  0  0  0  0  0
   -3.9060   -2.5141   -1.8687 H   0  0  0  0  0  0  0  0  0  0  0  0
   -5.1656   -1.2678   -1.6590 H   0  0  0  0  0  0  0  0  0  0  0  0
   -5.1349   -2.6407   -0.5380 H   0  0  0  0  0  0  0  0  0  0  0  0
   -3.3600    1.4285   -2.0997 H   0  0  0  0  0  0  0  0  0  0  0  0
   -5.0184    3.0324   -3.0385 H   0  0  0  0  0  0  0  0  0  0  0  0
   -7.1059    3.4045   -1.8744 H   0  0  0  0  0  0  0  0  0  0  0  0
   -7.6665    2.2145    0.2784 H   0  0  0  0  0  0  0  0  0  0  0  0
   -6.0018    0.6297    1.1828 H   0  0  0  0  0  0  0  0  0  0  0  0
  1  2  1  0
  2  3  2  0
  3  4  1  0
  4  5  1  0
  5  6  1  0
  6  7  1  0
  7  8  1  0
  8  9  1  0
  9 10  1  0
  8 11  1  0
 11 12  2  0
 12 13  1  0
 13 14  2  0
 14 15  1  0
 15 16  2  0
 15 17  1  0
 17 18  1  0
 17 19  1  0
 17 20  1  0
  3 21  1  0
 21 22  2  0
 21 23  1  0
 23 24  1  0
 24 25  1  0
 23 26  1  0
 26 27  2  0
 27 28  1  0
 28 29  2  0
 29 30  1  0
 30 31  2  0
 24  2  1  0
 31 26  1  0
 10  5  1  0
 16 11  1  0
  1 32  1  0
  1 33  1  0
  1 34  1  0
  4 35  1  0
  4 36  1  0
  6 37  1  0
  6 38  1  0
  7 39  1  0
  7 40  1  0
  9 41  1  0
  9 42  1  0
 10 43  1  0
 10 44  1  0
 12 45  1  0
 13 46  1  0
 14 47  1  0
 16 48  1  0
 25 49  1  0
 25 50  1  0
 25 51  1  0
 27 52  1  0
 28 53  1  0
 29 54  1  0
 30 55  1  0
 31 56  1  0
M  END
>  <Ligand ID>  (1) 
LIG0003601

>  <Ligand>  (1) 
MLS000057668

>  <SMILES>  (1) 
Cc1c(CN2CCN(CC2)c2cccc(c2)C(F)(F)F)c(=O)n(n1C)c1ccccc1

>  <CID>  (1) 
2523521.0

>  <ChEMBL ID>  (1) 
nan

>  <InChiKey>  (1) 
TWCSZWPHPHTDJV-UHFFFAOYSA-N

>  <InChi>  (1) 
InChI=1S/C23H25F3N4O/c1-17-21(22(31)30(27(17)2)19-8-4-3-5-9-19)16-28-11-13-29(14-12-28)20-10-6-7-18(15-20)23(24,25)26/h3-10,15H,11-14,16H2,1-2H3

>  <IUPAC Name>  (1) 
1,5-dimethyl-2-phenyl-4-[[4-[3-(trifluoromethyl)phenyl]piperazin-1-yl]methyl]pyrazol-3-one

$$$$
