
     RDKit          3D

138140  0  0  0  0  0  0  0  0999 V2000
   -6.3796   -3.8379   -1.4727 C   0  0  0  0  0  0  0  0  0  0  0  0
   -5.1624   -3.1624   -2.0443 C   0  0  0  0  0  0  0  0  0  0  0  0
   -5.1538   -1.6951   -1.7973 C   0  0  1  0  0  0  0  0  0  0  0  0
   -5.1996   -1.2563   -0.3985 C   0  0  2  0  0  0  0  0  0  0  0  0
   -5.1746    0.2451   -0.3946 N   0  0  0  0  0  0  0  0  0  0  0  0
   -5.9494    1.0318    0.4838 C   0  0  0  0  0  0  0  0  0  0  0  0
   -6.6423    0.4226    1.3031 O   0  0  0  0  0  0  0  0  0  0  0  0
   -5.9056    2.5523    0.4068 C   0  0  1  0  0  0  0  0  0  0  0  0
   -5.2373    3.0053   -0.7831 N   0  0  0  0  0  0  0  0  0  0  0  0
   -3.8645    3.4021   -0.8599 C   0  0  0  0  0  0  0  0  0  0  0  0
   -3.2373    3.2639    0.2004 O   0  0  0  0  0  0  0  0  0  0  0  0
   -3.3185    3.9134   -2.1341 C   0  0  0  0  0  0  0  0  0  0  0  0
   -1.8434    3.7884   -2.3100 C   0  0  0  0  0  0  0  0  0  0  0  0
   -1.3264    2.0463   -2.4148 S   0  0  0  0  0  0  0  0  0  0  0  0
   -1.6479    1.1309   -0.5620 S   0  0  0  0  0  0  0  0  0  0  0  0
   -0.1877    1.1803    0.5420 C   0  0  0  0  0  0  0  0  0  0  0  0
    0.8712    0.2584    0.0459 C   0  0  2  0  0  0  0  0  0  0  0  0
    0.2911   -1.1036   -0.0503 N   0  0  0  0  0  0  0  0  0  0  0  0
    0.6792   -2.0824   -0.9924 C   0  0  0  0  0  0  0  0  0  0  0  0
    1.6029   -1.7815   -1.7455 O   0  0  0  0  0  0  0  0  0  0  0  0
   -0.0361   -3.4258   -1.0219 C   0  0  1  0  0  0  0  0  0  0  0  0
   -1.2314   -3.2550   -0.2309 N   0  0  0  0  0  0  0  0  0  0  0  0
   -1.3685   -3.5273    1.1556 C   0  0  0  0  0  0  0  0  0  0  0  0
   -0.3794   -3.9679    1.7330 O   0  0  0  0  0  0  0  0  0  0  0  0
   -2.6996   -3.2552    1.8319 C   0  0  1  0  0  0  0  0  0  0  0  0
   -3.7487   -2.9885    0.8917 N   0  0  0  0  0  0  0  0  0  0  0  0
   -4.1760   -1.6603    0.5520 C   0  0  0  0  0  0  0  0  0  0  0  0
   -3.5593   -0.7725    1.1813 O   0  0  0  0  0  0  0  0  0  0  0  0
   -2.9363   -4.0976    2.9881 C   0  0  0  0  0  0  0  0  0  0  0  0
   -2.9592   -5.5680    2.8382 C   0  0  0  0  0  0  0  0  0  0  0  0
   -4.0589   -6.1065    2.0494 C   0  0  0  0  0  0  0  0  0  0  0  0
   -5.1586   -5.5930    1.7838 O   0  0  0  0  0  0  0  0  0  0  0  0
   -3.8519   -7.4392    1.4945 N   0  0  0  0  0  0  0  0  0  0  0  0
   -0.2439   -3.9558   -2.3887 C   0  0  0  0  0  0  0  0  0  0  0  0
    1.0286   -4.1679   -3.1162 C   0  0  0  0  0  0  0  0  0  0  0  0
    1.5749   -3.3108   -3.8549 O   0  0  0  0  0  0  0  0  0  0  0  0
    1.6623   -5.4477   -2.9505 N   0  0  0  0  0  0  0  0  0  0  0  0
    2.0723    0.2118    0.8795 C   0  0  0  0  0  0  0  0  0  0  0  0
    2.3768   -1.0244    1.2246 O   0  0  0  0  0  0  0  0  0  0  0  0
    2.9351    1.1786    1.3559 N   0  0  0  0  0  0  0  0  0  0  0  0
    2.8774    2.6080    1.3443 C   0  0  0  0  0  0  0  0  0  0  0  0
    2.5191    3.2364    2.6346 C   0  0  0  0  0  0  0  0  0  0  0  0
    3.5456    3.6751    3.4933 C   0  0  0  0  0  0  0  0  0  0  0  0
    3.2757    4.2540    4.7113 C   0  0  0  0  0  0  0  0  0  0  0  0
    2.0209    4.4331    5.1499 N   0  0  0  0  0  0  0  0  0  0  0  0
    1.0106    4.0251    4.3507 C   0  0  0  0  0  0  0  0  0  0  0  0
    1.2499    3.4337    3.1090 C   0  0  0  0  0  0  0  0  0  0  0  0
    4.2332    0.6572    1.9287 C   0  0  0  0  0  0  0  0  0  0  0  0
    5.1759    0.6366    0.7449 C   0  0  0  0  0  0  0  0  0  0  0  0
    4.6305    1.0416   -0.3375 O   0  0  0  0  0  0  0  0  0  0  0  0
    6.5154    0.2158    0.8308 N   0  0  0  0  0  0  0  0  0  0  0  0
    7.2742    0.2734   -0.4449 C   0  0  2  0  0  0  0  0  0  0  0  0
    7.7206   -1.0573   -0.8359 C   0  0  0  0  0  0  0  0  0  0  0  0
    8.3513   -1.3490   -1.8844 O   0  0  0  0  0  0  0  0  0  0  0  0
    7.4325   -2.1806    0.0265 N   0  0  0  0  0  0  0  0  0  0  0  0
    7.8316   -3.5289   -0.2983 C   0  0  0  0  0  0  0  0  0  0  0  0
    9.2930   -3.6599   -0.4355 C   0  0  0  0  0  0  0  0  0  0  0  0
    9.7413   -4.8187   -0.7308 O   0  0  0  0  0  0  0  0  0  0  0  0
   10.2403   -2.6396   -0.2718 N   0  0  0  0  0  0  0  0  0  0  0  0
    8.2484    1.3656   -0.3200 C   0  0  0  0  0  0  0  0  0  0  0  0
    9.1487    1.6879   -1.4532 C   0  0  0  0  0  0  0  0  0  0  0  0
    8.4635    2.0595   -2.7320 C   0  0  0  0  0  0  0  0  0  0  0  0
   10.3319    0.7791   -1.6454 C   0  0  0  0  0  0  0  0  0  0  0  0
   -7.2821    3.1385    0.5486 C   0  0  0  0  0  0  0  0  0  0  0  0
   -7.2389    4.6332    0.4694 C   0  0  0  0  0  0  0  0  0  0  0  0
   -7.0778    5.4207    1.6083 C   0  0  0  0  0  0  0  0  0  0  0  0
   -7.0387    6.7954    1.5153 C   0  0  0  0  0  0  0  0  0  0  0  0
   -7.1595    7.4273    0.2799 C   0  0  0  0  0  0  0  0  0  0  0  0
   -7.3179    6.6325   -0.8337 C   0  0  0  0  0  0  0  0  0  0  0  0
   -7.3570    5.2529   -0.7415 C   0  0  0  0  0  0  0  0  0  0  0  0
   -7.1236    8.8153    0.1550 O   0  0  0  0  0  0  0  0  0  0  0  0
   -4.0308   -1.0301   -2.5911 C   0  0  0  0  0  0  0  0  0  0  0  0
   -6.1067   -4.7080   -0.8171 H   0  0  0  0  0  0  0  0  0  0  0  0
   -6.9485   -3.1519   -0.8085 H   0  0  0  0  0  0  0  0  0  0  0  0
   -7.0807   -4.2446   -2.2144 H   0  0  0  0  0  0  0  0  0  0  0  0
   -4.2580   -3.7196   -1.7691 H   0  0  0  0  0  0  0  0  0  0  0  0
   -5.2835   -3.3358   -3.1842 H   0  0  0  0  0  0  0  0  0  0  0  0
   -6.0925   -1.3056   -2.3230 H   0  0  0  0  0  0  0  0  0  0  0  0
   -6.2194   -1.4571    0.0514 H   0  0  0  0  0  0  0  0  0  0  0  0
   -4.5770    0.7537   -1.0480 H   0  0  0  0  0  0  0  0  0  0  0  0
   -5.2940    2.9091    1.2805 H   0  0  0  0  0  0  0  0  0  0  0  0
   -5.7560    3.0504   -1.6577 H   0  0  0  0  0  0  0  0  0  0  0  0
   -3.5926    4.9954   -2.1941 H   0  0  0  0  0  0  0  0  0  0  0  0
   -3.8099    3.4291   -3.0096 H   0  0  0  0  0  0  0  0  0  0  0  0
   -1.4770    4.3663   -3.1738 H   0  0  0  0  0  0  0  0  0  0  0  0
   -1.3415    4.2250   -1.4265 H   0  0  0  0  0  0  0  0  0  0  0  0
    0.1825    2.2129    0.4803 H   0  0  0  0  0  0  0  0  0  0  0  0
   -0.5419    0.8776    1.5275 H   0  0  0  0  0  0  0  0  0  0  0  0
    1.1554    0.5653   -1.0071 H   0  0  0  0  0  0  0  0  0  0  0  0
   -0.4372   -1.3545    0.6099 H   0  0  0  0  0  0  0  0  0  0  0  0
    0.7076   -4.0741   -0.4504 H   0  0  0  0  0  0  0  0  0  0  0  0
   -2.0720   -2.9065   -0.6990 H   0  0  0  0  0  0  0  0  0  0  0  0
   -2.4078   -2.1968    2.2967 H   0  0  0  0  0  0  0  0  0  0  0  0
   -4.2353   -3.7238    0.4181 H   0  0  0  0  0  0  0  0  0  0  0  0
   -3.9562   -3.8114    3.4268 H   0  0  0  0  0  0  0  0  0  0  0  0
   -2.2184   -3.7820    3.8124 H   0  0  0  0  0  0  0  0  0  0  0  0
   -1.9830   -5.9701    2.4343 H   0  0  0  0  0  0  0  0  0  0  0  0
   -3.0166   -5.9769    3.9111 H   0  0  0  0  0  0  0  0  0  0  0  0
   -4.6485   -8.0145    1.1520 H   0  0  0  0  0  0  0  0  0  0  0  0
   -2.8980   -7.8557    1.4280 H   0  0  0  0  0  0  0  0  0  0  0  0
   -0.7871   -4.9293   -2.3288 H   0  0  0  0  0  0  0  0  0  0  0  0
   -0.8742   -3.2864   -3.0291 H   0  0  0  0  0  0  0  0  0  0  0  0
    2.6796   -5.5209   -2.6724 H   0  0  0  0  0  0  0  0  0  0  0  0
    1.0911   -6.2845   -3.1102 H   0  0  0  0  0  0  0  0  0  0  0  0
    3.9218    3.0117    1.1126 H   0  0  0  0  0  0  0  0  0  0  0  0
    2.2774    3.0569    0.5405 H   0  0  0  0  0  0  0  0  0  0  0  0
    4.5888    3.5848    3.2281 H   0  0  0  0  0  0  0  0  0  0  0  0
    4.0729    4.5965    5.3841 H   0  0  0  0  0  0  0  0  0  0  0  0
   -0.0173    4.1669    4.7013 H   0  0  0  0  0  0  0  0  0  0  0  0
    0.3758    3.1498    2.5600 H   0  0  0  0  0  0  0  0  0  0  0  0
    4.5984    1.3086    2.6999 H   0  0  0  0  0  0  0  0  0  0  0  0
    4.0197   -0.3607    2.2632 H   0  0  0  0  0  0  0  0  0  0  0  0
    6.9384   -0.1074    1.7138 H   0  0  0  0  0  0  0  0  0  0  0  0
    6.5352    0.5904   -1.2510 H   0  0  0  0  0  0  0  0  0  0  0  0
    6.9180   -2.0322    0.9225 H   0  0  0  0  0  0  0  0  0  0  0  0
    7.5106   -4.2555    0.4778 H   0  0  0  0  0  0  0  0  0  0  0  0
    7.3863   -3.8588   -1.2834 H   0  0  0  0  0  0  0  0  0  0  0  0
   10.1694   -1.9787    0.5470 H   0  0  0  0  0  0  0  0  0  0  0  0
   11.0154   -2.5560   -0.9836 H   0  0  0  0  0  0  0  0  0  0  0  0
    8.9230    1.1268    0.5637 H   0  0  0  0  0  0  0  0  0  0  0  0
    7.6957    2.2884    0.0025 H   0  0  0  0  0  0  0  0  0  0  0  0
    9.6443    2.6849   -1.1216 H   0  0  0  0  0  0  0  0  0  0  0  0
    8.7140    1.2811   -3.5087 H   0  0  0  0  0  0  0  0  0  0  0  0
    8.9053    3.0008   -3.1709 H   0  0  0  0  0  0  0  0  0  0  0  0
    7.3856    2.2368   -2.6613 H   0  0  0  0  0  0  0  0  0  0  0  0
   10.3341    0.2889   -2.6627 H   0  0  0  0  0  0  0  0  0  0  0  0
   11.3173    1.3474   -1.6663 H   0  0  0  0  0  0  0  0  0  0  0  0
   10.4498    0.0443   -0.8490 H   0  0  0  0  0  0  0  0  0  0  0  0
   -7.7399    2.8982    1.5179 H   0  0  0  0  0  0  0  0  0  0  0  0
   -7.9689    2.7238   -0.2346 H   0  0  0  0  0  0  0  0  0  0  0  0
   -6.9799    4.9703    2.5858 H   0  0  0  0  0  0  0  0  0  0  0  0
   -6.9133    7.4345    2.3981 H   0  0  0  0  0  0  0  0  0  0  0  0
   -7.4159    7.0842   -1.8297 H   0  0  0  0  0  0  0  0  0  0  0  0
   -7.4848    4.6923   -1.6550 H   0  0  0  0  0  0  0  0  0  0  0  0
   -7.7298    9.1928   -0.5802 H   0  0  0  0  0  0  0  0  0  0  0  0
   -4.3462   -0.0423   -2.9211 H   0  0  0  0  0  0  0  0  0  0  0  0
   -3.0601   -1.0859   -2.0713 H   0  0  0  0  0  0  0  0  0  0  0  0
   -3.9054   -1.6402   -3.5221 H   0  0  0  0  0  0  0  0  0  0  0  0
  1  2  1  0
  2  3  1  0
  3  4  1  0
  4  5  1  0
  5  6  1  0
  6  7  2  0
  6  8  1  0
  8  9  1  0
  9 10  1  0
 10 11  2  0
 10 12  1  0
 12 13  1  0
 13 14  1  0
 14 15  1  0
 15 16  1  0
 16 17  1  0
 17 18  1  0
 18 19  1  0
 19 20  2  0
 19 21  1  0
 21 22  1  0
 22 23  1  0
 23 24  2  0
 23 25  1  0
 25 26  1  0
 26 27  1  0
 27 28  2  0
 25 29  1  0
 29 30  1  0
 30 31  1  0
 31 32  2  0
 31 33  1  0
 21 34  1  0
 34 35  1  0
 35 36  2  0
 35 37  1  0
 17 38  1  0
 38 39  2  0
 38 40  1  0
 40 41  1  0
 41 42  1  0
 42 43  2  0
 43 44  1  0
 44 45  2  0
 45 46  1  0
 46 47  2  0
 40 48  1  0
 48 49  1  0
 49 50  2  0
 49 51  1  0
 51 52  1  0
 52 53  1  0
 53 54  2  0
 53 55  1  0
 55 56  1  0
 56 57  1  0
 57 58  2  0
 57 59  1  0
 52 60  1  0
 60 61  1  0
 61 62  1  0
 61 63  1  0
  8 64  1  0
 64 65  1  0
 65 66  2  0
 66 67  1  0
 67 68  2  0
 68 69  1  0
 69 70  2  0
 68 71  1  0
  3 72  1  0
 27  4  1  0
 47 42  1  0
 70 65  1  0
  1 73  1  0
  1 74  1  0
  1 75  1  0
  2 76  1  0
  2 77  1  0
  3 78  1  6
  4 79  1  1
  5 80  1  0
  8 81  1  1
  9 82  1  0
 12 83  1  0
 12 84  1  0
 13 85  1  0
 13 86  1  0
 16 87  1  0
 16 88  1  0
 17 89  1  6
 18 90  1  0
 21 91  1  1
 22 92  1  0
 25 93  1  1
 26 94  1  0
 29 95  1  0
 29 96  1  0
 30 97  1  0
 30 98  1  0
 33 99  1  0
 33100  1  0
 34101  1  0
 34102  1  0
 37103  1  0
 37104  1  0
 41105  1  0
 41106  1  0
 43107  1  0
 44108  1  0
 46109  1  0
 47110  1  0
 48111  1  0
 48112  1  0
 51113  1  0
 52114  1  6
 55115  1  0
 56116  1  0
 56117  1  0
 59118  1  0
 59119  1  0
 60120  1  0
 60121  1  0
 61122  1  0
 62123  1  0
 62124  1  0
 62125  1  0
 63126  1  0
 63127  1  0
 63128  1  0
 64129  1  0
 64130  1  0
 66131  1  0
 67132  1  0
 69133  1  0
 70134  1  0
 71135  1  0
 72136  1  0
 72137  1  0
 72138  1  0
M  END
>  <Ligand ID>  (1) 
LIG0001640

>  <Ligand>  (1) 
CHEMBL3353952

>  <SMILES>  (1) 
CC[C@@H]([C@@H]1NC(=O)[C@@H](NC(=O)CCSSC[C@H](NC(=O)[C@@H](NC(=O)[C@@H](NC1=O)CCC(=O)N)CC(=O)N)C(=O)N(Cc1ccncc1)CC(=O)N[C@H](C(=O)NCC(=O)N)CC(C)C)Cc1ccc(cc1)O)C

>  <CID>  (1) 
118719841.0

>  <ChEMBL ID>  (1) 
nan

>  <InChiKey>  (1) 
LXGLNKPNFPYPDN-LZNUSVCISA-N

>  <InChi>  (1) 
InChI=1S/C46H66N12O12S2/c1-5-26(4)40-45(69)54-30(10-11-35(47)60)42(66)55-33(20-36(48)61)43(67)56-34(24-72-71-17-14-38(63)52-32(44(68)57-40)19-27-6-8-29(59)9-7-27)46(70)58(22-28-12-15-50-16-13-28)23-39(64)53-31(18-25(2)3)41(65)51-21-37(49)62/h6-9,12-13,15-16,25-26,30-34,40,59H,5,10-11,14,17-24H2,1-4H3,(H2,47,60)(H2,48,61)(H2,49,62)(H,51,65)(H,52,63)(H,53,64)(H,54,69)(H,55,66)(H,56,67)(H,57,68)/t26-,30-,31-,32-,33-,34-,40-/m0/s1

>  <IUPAC Name>  (1) 
(4R,7S,10S,13S,16S)-7-(2-amino-2-oxoethyl)-N-[2-[[(2S)-1-[(2-amino-2-oxoethyl)amino]-4-methyl-1-oxopentan-2-yl]amino]-2-oxoethyl]-10-(3-amino-3-oxopropyl)-13-[(2S)-butan-2-yl]-16-[(4-hydroxyphenyl)methyl]-6,9,12,15,18-pentaoxo-N-(pyridin-4-ylmethyl)-1,2-dithia-5,8,11,14,17-pentazacycloicosane-4-carboxamide

$$$$
