
     RDKit          3D

 33 35  0  0  0  0  0  0  0  0999 V2000
    5.5805   -0.5383   -0.0846 C   0  0  0  0  0  0  0  0  0  0  0  0
    4.3357   -1.1446    0.2079 O   0  0  0  0  0  0  0  0  0  0  0  0
    3.1429   -0.4545    0.0314 C   0  0  0  0  0  0  0  0  0  0  0  0
    3.0934    0.8505   -0.4346 C   0  0  0  0  0  0  0  0  0  0  0  0
    1.8430    1.4564   -0.5774 C   0  0  0  0  0  0  0  0  0  0  0  0
    0.6726    0.8038   -0.2726 C   0  0  0  0  0  0  0  0  0  0  0  0
    0.7651   -0.4919    0.1874 C   0  0  0  0  0  0  0  0  0  0  0  0
    1.9760   -1.1424    0.3486 C   0  0  0  0  0  0  0  0  0  0  0  0
   -0.4603   -1.2464    0.5287 C   0  0  0  0  0  0  0  0  0  0  0  0
   -0.4359   -2.4188    0.9488 O   0  0  0  0  0  0  0  0  0  0  0  0
   -1.6829   -0.5439    0.3461 N   0  0  0  0  0  0  0  0  0  0  0  0
   -1.6937    0.5099   -0.6466 C   0  0  2  0  0  0  0  0  0  0  0  0
   -0.6021    1.5309   -0.4543 C   0  0  0  0  0  0  0  0  0  0  0  0
   -3.0686    1.1625   -0.5107 C   0  0  0  0  0  0  0  0  0  0  0  0
   -4.0518    0.1245   -0.7365 N   0  0  0  0  0  0  0  0  0  0  0  0
   -4.0763   -0.8905    0.2704 C   0  0  0  0  0  0  0  0  0  0  0  0
   -2.8409   -0.9039    1.1420 C   0  0  0  0  0  0  0  0  0  0  0  0
    5.7017   -0.5953   -1.1887 H   0  0  0  0  0  0  0  0  0  0  0  0
    6.4084   -1.0691    0.4239 H   0  0  0  0  0  0  0  0  0  0  0  0
    5.5862    0.5114    0.2824 H   0  0  0  0  0  0  0  0  0  0  0  0
    4.0040    1.3714   -0.6764 H   0  0  0  0  0  0  0  0  0  0  0  0
    1.8385    2.4615   -0.9383 H   0  0  0  0  0  0  0  0  0  0  0  0
    2.0003   -2.1605    0.7130 H   0  0  0  0  0  0  0  0  0  0  0  0
   -1.6216    0.0754   -1.6731 H   0  0  0  0  0  0  0  0  0  0  0  0
   -0.8512    2.1642    0.4271 H   0  0  0  0  0  0  0  0  0  0  0  0
   -0.5553    2.1523   -1.3570 H   0  0  0  0  0  0  0  0  0  0  0  0
   -3.1425    1.5066    0.5354 H   0  0  0  0  0  0  0  0  0  0  0  0
   -3.2013    1.9462   -1.2559 H   0  0  0  0  0  0  0  0  0  0  0  0
   -3.8690   -0.2801   -1.6767 H   0  0  0  0  0  0  0  0  0  0  0  0
   -4.9452   -0.7255    0.9546 H   0  0  0  0  0  0  0  0  0  0  0  0
   -4.2015   -1.9142   -0.1612 H   0  0  0  0  0  0  0  0  0  0  0  0
   -2.7024   -1.9266    1.5231 H   0  0  0  0  0  0  0  0  0  0  0  0
   -2.9460   -0.1811    1.9719 H   0  0  0  0  0  0  0  0  0  0  0  0
  1  2  1  0
  2  3  1  0
  3  4  2  0
  4  5  1  0
  5  6  2  0
  6  7  1  0
  7  8  2  0
  7  9  1  0
  9 10  2  0
  9 11  1  0
 11 12  1  0
 12 13  1  0
 12 14  1  0
 14 15  1  0
 15 16  1  0
 16 17  1  0
  8  3  1  0
 17 11  1  0
 13  6  1  0
  1 18  1  0
  1 19  1  0
  1 20  1  0
  4 21  1  0
  5 22  1  0
  8 23  1  0
 12 24  1  6
 13 25  1  0
 13 26  1  0
 14 27  1  0
 14 28  1  0
 15 29  1  0
 16 30  1  0
 16 31  1  0
 17 32  1  0
 17 33  1  0
M  END
>  <Ligand ID>  (1) 
LIG0004883

>  <Ligand>  (1) 
SCHEMBL3551473

>  <SMILES>  (1) 
COc1ccc2c(c1)C(=O)N1[C@H](C2)CNCC1

>  <CID>  (1) 
11313985.0

>  <ChEMBL ID>  (1) 
nan

>  <InChiKey>  (1) 
JXMPAYPDNCDBDU-SNVBAGLBSA-N

>  <InChi>  (1) 
InChI=1S/C13H16N2O2/c1-17-11-3-2-9-6-10-8-14-4-5-15(10)13(16)12(9)7-11/h2-3,7,10,14H,4-6,8H2,1H3/t10-/m1/s1

>  <IUPAC Name>  (1) 
(11aR)-8-methoxy-1,2,3,4,11,11a-hexahydropyrazino[1,2-b]isoquinolin-6-one

$$$$
