
     RDKit          3D

198205  0  0  0  0  0  0  0  0999 V2000
    8.2410   -5.3791    2.0233 N   0  0  0  0  0  0  0  0  0  0  0  0
    6.9907   -5.5553    1.3941 C   0  0  0  0  0  0  0  0  0  0  0  0
    6.7504   -5.2491    0.1610 N   0  0  0  0  0  0  0  0  0  0  0  0
    7.7235   -4.6949   -0.7124 C   0  0  0  0  0  0  0  0  0  0  0  0
    7.2576   -3.6869   -1.7140 C   0  0  0  0  0  0  0  0  0  0  0  0
    6.6506   -2.4555   -1.1284 C   0  0  0  0  0  0  0  0  0  0  0  0
    5.4408   -2.6267   -0.3371 C   0  0  2  0  0  0  0  0  0  0  0  0
    4.2839   -3.2035   -1.0304 N   0  0  0  0  0  0  0  0  0  0  0  0
    3.1404   -3.5302   -0.1768 C   0  0  0  0  0  0  0  0  0  0  0  0
    3.3905   -3.3771    1.0184 O   0  0  0  0  0  0  0  0  0  0  0  0
    1.8560   -3.9790   -0.7872 C   0  0  1  0  0  0  0  0  0  0  0  0
    1.8625   -5.4305   -1.0951 C   0  0  0  0  0  0  0  0  0  0  0  0
    2.9006   -5.8353   -2.0255 C   0  0  0  0  0  0  0  0  0  0  0  0
    4.1232   -6.2649   -1.5401 C   0  0  0  0  0  0  0  0  0  0  0  0
    5.1515   -6.6839   -2.3688 C   0  0  0  0  0  0  0  0  0  0  0  0
    4.9297   -6.6666   -3.7453 C   0  0  0  0  0  0  0  0  0  0  0  0
    3.7045   -6.2364   -4.2318 C   0  0  0  0  0  0  0  0  0  0  0  0
    2.6920   -5.8223   -3.3924 C   0  0  0  0  0  0  0  0  0  0  0  0
    0.6743   -3.6260   -0.0411 N   0  0  0  0  0  0  0  0  0  0  0  0
    0.4822   -3.3104    1.3027 C   0  0  0  0  0  0  0  0  0  0  0  0
    1.3886   -3.4531    2.1037 O   0  0  0  0  0  0  0  0  0  0  0  0
   -0.8258   -2.7922    1.8676 C   0  0  2  0  0  0  0  0  0  0  0  0
   -1.3740   -3.8014    2.8693 C   0  0  0  0  0  0  0  0  0  0  0  0
   -1.6459   -5.1206    2.2942 C   0  0  0  0  0  0  0  0  0  0  0  0
   -0.7264   -6.1497    2.2074 C   0  0  0  0  0  0  0  0  0  0  0  0
   -1.1012   -7.3505    1.6519 C   0  0  0  0  0  0  0  0  0  0  0  0
   -2.3827   -7.5664    1.1731 C   0  0  0  0  0  0  0  0  0  0  0  0
   -3.3062   -6.5527    1.2545 C   0  0  0  0  0  0  0  0  0  0  0  0
   -2.9246   -5.3578    1.8081 C   0  0  0  0  0  0  0  0  0  0  0  0
   -1.7120   -2.5932    0.7584 N   0  0  0  0  0  0  0  0  0  0  0  0
   -2.1451   -1.2757    0.3070 C   0  0  0  0  0  0  0  0  0  0  0  0
   -1.5990   -0.3523    0.9140 O   0  0  0  0  0  0  0  0  0  0  0  0
   -3.1388   -1.1490   -0.7774 C   0  0  1  0  0  0  0  0  0  0  0  0
   -3.6039   -2.4459   -1.1711 N   0  0  0  0  0  0  0  0  0  0  0  0
   -3.8181   -2.7081   -2.5521 C   0  0  0  0  0  0  0  0  0  0  0  0
   -3.6066   -1.7415   -3.3693 O   0  0  0  0  0  0  0  0  0  0  0  0
   -4.2554   -3.9724   -3.1319 C   0  0  2  0  0  0  0  0  0  0  0  0
   -5.7924   -4.0922   -3.2301 C   0  0  0  0  0  0  0  0  0  0  0  0
   -6.3837   -4.0109   -1.8798 C   0  0  0  0  0  0  0  0  0  0  0  0
   -6.4447   -5.1988   -1.1506 C   0  0  0  0  0  0  0  0  0  0  0  0
   -6.9693   -5.2514    0.1248 C   0  0  0  0  0  0  0  0  0  0  0  0
   -7.4558   -4.1214    0.7278 C   0  0  0  0  0  0  0  0  0  0  0  0
   -7.3989   -2.9339    0.0060 C   0  0  0  0  0  0  0  0  0  0  0  0
   -6.8693   -2.8802   -1.2842 C   0  0  0  0  0  0  0  0  0  0  0  0
   -7.9825   -4.1862    2.0096 O   0  0  0  0  0  0  0  0  0  0  0  0
   -3.8814   -5.1093   -2.2672 N   0  0  0  0  0  0  0  0  0  0  0  0
   -4.3376   -0.3190   -0.3358 C   0  0  0  0  0  0  0  0  0  0  0  0
   -4.0452    1.1291   -0.4044 C   0  0  0  0  0  0  0  0  0  0  0  0
   -3.0104    1.6614   -0.7398 O   0  0  0  0  0  0  0  0  0  0  0  0
   -5.0487    2.1380   -0.0462 N   0  0  0  0  0  0  0  0  0  0  0  0
   -6.1911    1.5663    0.5215 C   0  0  2  0  0  0  0  0  0  0  0  0
   -7.3537    1.6084   -0.3852 C   0  0  0  0  0  0  0  0  0  0  0  0
   -8.4756    1.4402    0.1502 O   0  0  0  0  0  0  0  0  0  0  0  0
   -7.3342    1.8115   -1.7823 N   0  0  0  0  0  0  0  0  0  0  0  0
   -6.5651    1.8565    1.9157 C   0  0  0  0  0  0  0  0  0  0  0  0
   -5.4946    1.4004    2.8735 C   0  0  0  0  0  0  0  0  0  0  0  0
   -4.4238    2.1954    3.2175 C   0  0  0  0  0  0  0  0  0  0  0  0
   -3.4572    1.7521    4.1223 C   0  0  0  0  0  0  0  0  0  0  0  0
   -3.5749    0.4945    4.6854 C   0  0  0  0  0  0  0  0  0  0  0  0
   -4.6285   -0.3177    4.3623 C   0  0  0  0  0  0  0  0  0  0  0  0
   -5.5748    0.1299    3.4686 C   0  0  0  0  0  0  0  0  0  0  0  0
   -2.6197    0.0150    5.6037 O   0  0  0  0  0  0  0  0  0  0  0  0
   -4.9282    3.5229   -0.3156 C   0  0  2  0  0  0  0  0  0  0  0  0
   -4.9412    3.6639   -1.8495 C   0  0  0  0  0  0  0  0  0  0  0  0
   -3.6702    4.1842    0.1101 N   0  0  0  0  0  0  0  0  0  0  0  0
   -3.6681    5.5914   -0.2306 C   0  0  0  0  0  0  0  0  0  0  0  0
   -4.7674    5.9100   -0.7940 O   0  0  0  0  0  0  0  0  0  0  0  0
   -2.7006    6.6135   -0.0435 C   0  0  1  0  0  0  0  0  0  0  0  0
   -1.3158    6.2816    0.2171 N   0  0  0  0  0  0  0  0  0  0  0  0
   -0.5776    6.8529    1.3221 C   0  0  0  0  0  0  0  0  0  0  0  0
   -1.2660    7.5701    2.0616 O   0  0  0  0  0  0  0  0  0  0  0  0
    0.8301    6.6454    1.5955 C   0  0  1  0  0  0  0  0  0  0  0  0
    1.5747    5.8803    0.6069 N   0  0  0  0  0  0  0  0  0  0  0  0
    2.2475    4.6919    0.9158 C   0  0  0  0  0  0  0  0  0  0  0  0
    2.1299    4.3675    2.1646 O   0  0  0  0  0  0  0  0  0  0  0  0
    3.0298    3.7842    0.1073 C   0  0  1  0  0  0  0  0  0  0  0  0
    3.5284    2.6563    0.8948 N   0  0  0  0  0  0  0  0  0  0  0  0
    4.6550    1.8587    0.5485 C   0  0  0  0  0  0  0  0  0  0  0  0
    5.2230    2.1401   -0.5001 O   0  0  0  0  0  0  0  0  0  0  0  0
    4.9964    0.7708    1.4959 C   0  0  1  0  0  0  0  0  0  0  0  0
    5.7524   -0.3293    0.8542 N   0  0  0  0  0  0  0  0  0  0  0  0
    4.9273   -1.2881    0.2250 C   0  0  0  0  0  0  0  0  0  0  0  0
    3.7229   -1.0032    0.1261 O   0  0  0  0  0  0  0  0  0  0  0  0
    5.7701    1.3290    2.6502 C   0  0  0  0  0  0  0  0  0  0  0  0
    7.0460    1.9750    2.2934 C   0  0  0  0  0  0  0  0  0  0  0  0
    8.2777    1.3178    2.3634 C   0  0  0  0  0  0  0  0  0  0  0  0
    9.2559    2.1402    1.9424 N   0  0  0  0  0  0  0  0  0  0  0  0
    8.7071    3.3291    1.5955 C   0  0  0  0  0  0  0  0  0  0  0  0
    7.3476    3.2191    1.8139 C   0  0  0  0  0  0  0  0  0  0  0  0
    6.5704    4.3167    1.5436 C   0  0  0  0  0  0  0  0  0  0  0  0
    7.1554    5.4776    1.0678 C   0  0  0  0  0  0  0  0  0  0  0  0
    8.5074    5.5778    0.8505 C   0  0  0  0  0  0  0  0  0  0  0  0
    9.2991    4.4812    1.1203 C   0  0  0  0  0  0  0  0  0  0  0  0
    2.3175    3.2306   -1.1274 C   0  0  0  0  0  0  0  0  0  0  0  0
    1.9632    4.3610   -1.9995 C   0  0  0  0  0  0  0  0  0  0  0  0
    0.7494    4.5409   -2.2529 O   0  0  0  0  0  0  0  0  0  0  0  0
    2.9639    5.2330   -2.5468 N   0  0  0  0  0  0  0  0  0  0  0  0
    1.5353    7.9925    1.8011 C   0  0  0  0  0  0  0  0  0  0  0  0
   -2.7095    7.6214   -1.1824 C   0  0  0  0  0  0  0  0  0  0  0  0
   -2.4153    7.1479   -2.5135 C   0  0  0  0  0  0  0  0  0  0  0  0
   -3.3068    6.7175   -3.4677 C   0  0  0  0  0  0  0  0  0  0  0  0
   -2.9092    6.2824   -4.7292 C   0  0  0  0  0  0  0  0  0  0  0  0
   -1.5813    6.2596   -5.0911 C   0  0  0  0  0  0  0  0  0  0  0  0
   -0.6764    6.6864   -4.1530 C   0  0  0  0  0  0  0  0  0  0  0  0
   -1.0658    7.1164   -2.9075 C   0  0  0  0  0  0  0  0  0  0  0  0
   -5.9809    4.3322    0.3469 C   0  0  0  0  0  0  0  0  0  0  0  0
   -5.7175    5.1429    1.3104 O   0  0  0  0  0  0  0  0  0  0  0  0
   -7.3324    4.2940   -0.0032 O   0  0  0  0  0  0  0  0  0  0  0  0
    5.9376   -6.1132    2.2079 N   0  0  0  0  0  0  0  0  0  0  0  0
    8.9273   -6.1250    2.2015 H   0  0  0  0  0  0  0  0  0  0  0  0
    8.4750   -4.3967    2.3366 H   0  0  0  0  0  0  0  0  0  0  0  0
    8.6148   -4.3221   -0.1358 H   0  0  0  0  0  0  0  0  0  0  0  0
    8.1412   -5.5739   -1.3019 H   0  0  0  0  0  0  0  0  0  0  0  0
    8.1715   -3.3651   -2.2823 H   0  0  0  0  0  0  0  0  0  0  0  0
    6.5789   -4.2015   -2.4295 H   0  0  0  0  0  0  0  0  0  0  0  0
    6.5826   -1.6279   -1.8883 H   0  0  0  0  0  0  0  0  0  0  0  0
    7.4613   -2.0479   -0.4283 H   0  0  0  0  0  0  0  0  0  0  0  0
    5.6077   -3.2530    0.5702 H   0  0  0  0  0  0  0  0  0  0  0  0
    4.1725   -3.4017   -1.9985 H   0  0  0  0  0  0  0  0  0  0  0  0
    1.7596   -3.3760   -1.7630 H   0  0  0  0  0  0  0  0  0  0  0  0
    1.9781   -5.9912   -0.1137 H   0  0  0  0  0  0  0  0  0  0  0  0
    0.8323   -5.7301   -1.4362 H   0  0  0  0  0  0  0  0  0  0  0  0
    4.2512   -6.2687   -0.4684 H   0  0  0  0  0  0  0  0  0  0  0  0
    6.1040   -7.0191   -1.9790 H   0  0  0  0  0  0  0  0  0  0  0  0
    5.6782   -6.9771   -4.4622 H   0  0  0  0  0  0  0  0  0  0  0  0
    3.4950   -6.2137   -5.2908 H   0  0  0  0  0  0  0  0  0  0  0  0
    1.7320   -5.4842   -3.7743 H   0  0  0  0  0  0  0  0  0  0  0  0
   -0.2210   -3.6040   -0.6075 H   0  0  0  0  0  0  0  0  0  0  0  0
   -0.6653   -1.8501    2.4092 H   0  0  0  0  0  0  0  0  0  0  0  0
   -2.3096   -3.3642    3.2798 H   0  0  0  0  0  0  0  0  0  0  0  0
   -0.6872   -3.8982    3.7441 H   0  0  0  0  0  0  0  0  0  0  0  0
    0.2692   -5.9801    2.5847 H   0  0  0  0  0  0  0  0  0  0  0  0
   -0.4030   -8.1963    1.5641 H   0  0  0  0  0  0  0  0  0  0  0  0
   -2.6862   -8.5209    0.7317 H   0  0  0  0  0  0  0  0  0  0  0  0
   -4.3252   -6.7154    0.8765 H   0  0  0  0  0  0  0  0  0  0  0  0
   -3.6873   -4.5816    1.8583 H   0  0  0  0  0  0  0  0  0  0  0  0
   -2.0656   -3.3672    0.2285 H   0  0  0  0  0  0  0  0  0  0  0  0
   -2.6994   -0.6700   -1.6995 H   0  0  0  0  0  0  0  0  0  0  0  0
   -3.8295   -3.2317   -0.5158 H   0  0  0  0  0  0  0  0  0  0  0  0
   -3.8676   -4.1118   -4.1394 H   0  0  0  0  0  0  0  0  0  0  0  0
   -5.9876   -5.0449   -3.7593 H   0  0  0  0  0  0  0  0  0  0  0  0
   -6.1671   -3.2786   -3.9147 H   0  0  0  0  0  0  0  0  0  0  0  0
   -6.0617   -6.1198   -1.6103 H   0  0  0  0  0  0  0  0  0  0  0  0
   -7.0008   -6.2023    0.6554 H   0  0  0  0  0  0  0  0  0  0  0  0
   -7.7915   -2.0474    0.5013 H   0  0  0  0  0  0  0  0  0  0  0  0
   -6.8323   -1.9639   -1.8549 H   0  0  0  0  0  0  0  0  0  0  0  0
   -8.4301   -5.0621    2.2814 H   0  0  0  0  0  0  0  0  0  0  0  0
   -3.9679   -5.9521   -2.8759 H   0  0  0  0  0  0  0  0  0  0  0  0
   -2.8342   -4.9668   -2.1401 H   0  0  0  0  0  0  0  0  0  0  0  0
   -5.1547   -0.5590   -1.0327 H   0  0  0  0  0  0  0  0  0  0  0  0
   -4.5120   -0.6862    0.7136 H   0  0  0  0  0  0  0  0  0  0  0  0
   -5.9770    0.4002    0.5579 H   0  0  0  0  0  0  0  0  0  0  0  0
   -7.8088    2.6288   -2.2350 H   0  0  0  0  0  0  0  0  0  0  0  0
   -6.8035    1.0828   -2.3482 H   0  0  0  0  0  0  0  0  0  0  0  0
   -7.4146    1.1569    2.1805 H   0  0  0  0  0  0  0  0  0  0  0  0
   -6.9516    2.8346    2.1780 H   0  0  0  0  0  0  0  0  0  0  0  0
   -4.3266    3.1826    2.7883 H   0  0  0  0  0  0  0  0  0  0  0  0
   -2.6046    2.3694    4.4034 H   0  0  0  0  0  0  0  0  0  0  0  0
   -4.7823   -1.3146    4.7714 H   0  0  0  0  0  0  0  0  0  0  0  0
   -6.4238   -0.5252    3.2090 H   0  0  0  0  0  0  0  0  0  0  0  0
   -2.8568   -0.0241    6.5963 H   0  0  0  0  0  0  0  0  0  0  0  0
   -4.8776    2.6537   -2.3089 H   0  0  0  0  0  0  0  0  0  0  0  0
   -4.1003    4.3018   -2.2109 H   0  0  0  0  0  0  0  0  0  0  0  0
   -5.8675    4.1218   -2.2187 H   0  0  0  0  0  0  0  0  0  0  0  0
   -2.8938    3.8069    0.5643 H   0  0  0  0  0  0  0  0  0  0  0  0
   -3.0480    7.2997    0.8480 H   0  0  0  0  0  0  0  0  0  0  0  0
   -0.7706    5.6344   -0.3448 H   0  0  0  0  0  0  0  0  0  0  0  0
    0.9082    6.1547    2.6110 H   0  0  0  0  0  0  0  0  0  0  0  0
    1.6153    6.2286   -0.3382 H   0  0  0  0  0  0  0  0  0  0  0  0
    3.9214    4.2807   -0.3280 H   0  0  0  0  0  0  0  0  0  0  0  0
    3.0350    2.4282    1.7491 H   0  0  0  0  0  0  0  0  0  0  0  0
    4.0100    0.3545    1.8392 H   0  0  0  0  0  0  0  0  0  0  0  0
    6.7408   -0.4445    0.8251 H   0  0  0  0  0  0  0  0  0  0  0  0
    5.9774    0.5042    3.3940 H   0  0  0  0  0  0  0  0  0  0  0  0
    5.1738    2.0765    3.2304 H   0  0  0  0  0  0  0  0  0  0  0  0
    8.4720    0.3058    2.6980 H   0  0  0  0  0  0  0  0  0  0  0  0
   10.2993    1.9353    1.8805 H   0  0  0  0  0  0  0  0  0  0  0  0
    5.5159    4.3005    1.7161 H   0  0  0  0  0  0  0  0  0  0  0  0
    6.5277    6.3469    0.8524 H   0  0  0  0  0  0  0  0  0  0  0  0
    8.9619    6.4850    0.4736 H   0  0  0  0  0  0  0  0  0  0  0  0
   10.3710    4.5742    0.9405 H   0  0  0  0  0  0  0  0  0  0  0  0
    1.4243    2.6525   -0.8992 H   0  0  0  0  0  0  0  0  0  0  0  0
    3.0892    2.6484   -1.6823 H   0  0  0  0  0  0  0  0  0  0  0  0
    2.6601    6.1912   -2.8567 H   0  0  0  0  0  0  0  0  0  0  0  0
    3.9590    4.9323   -2.6360 H   0  0  0  0  0  0  0  0  0  0  0  0
    2.6014    7.7892    2.0761 H   0  0  0  0  0  0  0  0  0  0  0  0
    1.0834    8.5223    2.6438 H   0  0  0  0  0  0  0  0  0  0  0  0
    1.5791    8.5686    0.8580 H   0  0  0  0  0  0  0  0  0  0  0  0
   -1.9595    8.4125   -0.9211 H   0  0  0  0  0  0  0  0  0  0  0  0
   -3.6988    8.1433   -1.1899 H   0  0  0  0  0  0  0  0  0  0  0  0
   -4.3488    6.7125   -3.2770 H   0  0  0  0  0  0  0  0  0  0  0  0
   -3.6427    5.9488   -5.4513 H   0  0  0  0  0  0  0  0  0  0  0  0
   -1.3285    5.9154   -6.0722 H   0  0  0  0  0  0  0  0  0  0  0  0
    0.3714    6.6879   -4.3857 H   0  0  0  0  0  0  0  0  0  0  0  0
   -0.3001    7.4329   -2.2174 H   0  0  0  0  0  0  0  0  0  0  0  0
   -7.8725    5.1349   -0.1492 H   0  0  0  0  0  0  0  0  0  0  0  0
    5.6723   -7.1165    2.1685 H   0  0  0  0  0  0  0  0  0  0  0  0
    5.3966   -5.5225    2.8740 H   0  0  0  0  0  0  0  0  0  0  0  0
  1  2  1  0
  2  3  2  3
  3  4  1  0
  4  5  1  0
  5  6  1  0
  6  7  1  0
  7  8  1  0
  8  9  1  0
  9 10  2  0
  9 11  1  0
 11 12  1  0
 12 13  1  0
 13 14  2  0
 14 15  1  0
 15 16  2  0
 16 17  1  0
 17 18  2  0
 11 19  1  0
 19 20  1  0
 20 21  2  0
 20 22  1  0
 22 23  1  0
 23 24  1  0
 24 25  2  0
 25 26  1  0
 26 27  2  0
 27 28  1  0
 28 29  2  0
 22 30  1  0
 30 31  1  0
 31 32  2  0
 31 33  1  0
 33 34  1  0
 34 35  1  0
 35 36  2  0
 35 37  1  0
 37 38  1  0
 38 39  1  0
 39 40  2  0
 40 41  1  0
 41 42  2  0
 42 43  1  0
 43 44  2  0
 42 45  1  0
 37 46  1  0
 33 47  1  0
 47 48  1  0
 48 49  2  0
 48 50  1  0
 50 51  1  0
 51 52  1  0
 52 53  2  0
 52 54  1  0
 51 55  1  0
 55 56  1  0
 56 57  2  0
 57 58  1  0
 58 59  2  0
 59 60  1  0
 60 61  2  0
 59 62  1  0
 50 63  1  0
 63 64  1  6
 63 65  1  0
 65 66  1  0
 66 67  2  0
 66 68  1  0
 68 69  1  0
 69 70  1  0
 70 71  2  0
 70 72  1  0
 72 73  1  0
 73 74  1  0
 74 75  2  0
 74 76  1  0
 76 77  1  0
 77 78  1  0
 78 79  2  0
 78 80  1  0
 80 81  1  0
 81 82  1  0
 82 83  2  0
 80 84  1  0
 84 85  1  0
 85 86  2  0
 86 87  1  0
 87 88  1  0
 88 89  2  0
 89 90  1  0
 90 91  2  0
 91 92  1  0
 92 93  2  0
 76 94  1  0
 94 95  1  0
 95 96  2  0
 95 97  1  0
 72 98  1  0
 68 99  1  0
 99100  1  0
100101  2  0
101102  1  0
102103  2  0
103104  1  0
104105  2  0
 63106  1  0
106107  2  0
106108  1  0
  2109  1  0
 82  7  1  0
 89 85  1  0
105100  1  0
 18 13  1  0
 29 24  1  0
 44 39  1  0
 61 56  1  0
 93 88  1  0
  1110  1  0
  1111  1  0
  4112  1  0
  4113  1  0
  5114  1  0
  5115  1  0
  6116  1  0
  6117  1  0
  7118  1  1
  8119  1  0
 11120  1  6
 12121  1  0
 12122  1  0
 14123  1  0
 15124  1  0
 16125  1  0
 17126  1  0
 18127  1  0
 19128  1  0
 22129  1  1
 23130  1  0
 23131  1  0
 25132  1  0
 26133  1  0
 27134  1  0
 28135  1  0
 29136  1  0
 30137  1  0
 33138  1  6
 34139  1  0
 37140  1  6
 38141  1  0
 38142  1  0
 40143  1  0
 41144  1  0
 43145  1  0
 44146  1  0
 45147  1  0
 46148  1  0
 46149  1  0
 47150  1  0
 47151  1  0
 51152  1  1
 54153  1  0
 54154  1  0
 55155  1  0
 55156  1  0
 57157  1  0
 58158  1  0
 60159  1  0
 61160  1  0
 62161  1  0
 64162  1  0
 64163  1  0
 64164  1  0
 65165  1  0
 68166  1  1
 69167  1  0
 72168  1  1
 73169  1  0
 76170  1  6
 77171  1  0
 80172  1  1
 81173  1  0
 84174  1  0
 84175  1  0
 86176  1  0
 87177  1  0
 90178  1  0
 91179  1  0
 92180  1  0
 93181  1  0
 94182  1  0
 94183  1  0
 97184  1  0
 97185  1  0
 98186  1  0
 98187  1  0
 98188  1  0
 99189  1  0
 99190  1  0
101191  1  0
102192  1  0
103193  1  0
104194  1  0
105195  1  0
108196  1  0
109197  1  0
109198  1  0
M  END
>  <Ligand ID>  (1) 
LIG0002280

>  <Ligand>  (1) 
CHEMBL2369960

>  <SMILES>  (1) 
NC(=NCCC[C@@H]1NC(=O)[C@@H](Cc2ccccc2)NC(=O)[C@H](Cc2ccccc2)NC(=O)[C@@H](NC(=O)[C@H](Cc2ccc(cc2)O)N)CC(=O)N([C@H](C(=O)N)Cc2ccc(cc2)O)[C@](C)(NC(=O)[C@@H](NC(=O)[C@@H](NC(=O)[C@@H](NC(=O)[C@@H](NC1=O)Cc1c[nH]c2c1cccc2)CC(=O)N)C)Cc1ccccc1)C(=O)O)N

>  <CID>  (1) 
73354516.0

>  <ChEMBL ID>  (1) 
nan

>  <InChiKey>  (1) 
YNTGNBUNWBJHKM-JEPMUWQFSA-N

>  <InChi>  (1) 
InChI=1S/C76H89N17O16/c1-42-65(99)86-57(36-45-19-10-5-11-20-45)73(107)92-76(2,74(108)109)93(61(64(79)98)37-47-26-30-50(95)31-27-47)63(97)40-60(87-66(100)52(77)33-46-24-28-49(94)29-25-46)72(106)89-56(35-44-17-8-4-9-18-44)70(104)88-55(34-43-15-6-3-7-16-43)69(103)85-54(23-14-32-82-75(80)81)67(101)90-58(38-48-41-83-53-22-13-12-21-51(48)53)71(105)91-59(39-62(78)96)68(102)84-42/h3-13,15-22,24-31,41-42,52,54-61,83,94-95H,14,23,32-40,77H2,1-2H3,(H2,78,96)(H2,79,98)(H,84,102)(H,85,103)(H,86,99)(H,87,100)(H,88,104)(H,89,106)(H,90,101)(H,91,105)(H,92,107)(H,108,109)(H4,80,81,82)/t42-,52-,54-,55+,56-,57-,58-,59-,60-,61-,76-/m0/s1

>  <IUPAC Name>  (1) 
(2S,5S,8S,11S,14S,17S,20R,23S,26S)-1-[(2S)-1-amino-3-(4-hydroxyphenyl)-1-oxopropan-2-yl]-26-[[(2S)-2-amino-3-(4-hydroxyphenyl)propanoyl]amino]-11-(2-amino-2-oxoethyl)-5,20,23-tribenzyl-17-[3-(diaminomethylideneamino)propyl]-14-(1H-indol-3-ylmethyl)-2,8-dimethyl-4,7,10,13,16,19,22,25,28-nonaoxo-1,3,6,9,12,15,18,21,24-nonazacyclooctacosane-2-carboxylic acid

$$$$
