
     RDKit          3D

 66 69  0  0  0  0  0  0  0  0999 V2000
   -3.5149    1.7004    0.4354 O   0  0  0  0  0  0  0  0  0  0  0  0
   -2.6643    0.5878    0.4047 C   0  0  2  0  0  0  0  0  0  0  0  0
   -3.6099   -0.6286    0.5388 C   0  0  0  0  0  0  0  0  0  0  0  0
   -4.5023   -0.7642   -0.3886 O   0  0  0  0  0  0  0  0  0  0  0  0
   -5.3904   -0.8995   -1.3145 C   0  0  0  0  0  0  0  0  0  0  0  0
   -5.0200   -1.0637   -2.6593 C   0  0  0  0  0  0  0  0  0  0  0  0
   -5.9519   -1.2096   -3.6602 C   0  0  0  0  0  0  0  0  0  0  0  0
   -7.2779   -1.1888   -3.2936 C   0  0  0  0  0  0  0  0  0  0  0  0
   -7.7180   -1.0324   -1.9995 C   0  0  0  0  0  0  0  0  0  0  0  0
   -6.7633   -0.8885   -1.0187 C   0  0  0  0  0  0  0  0  0  0  0  0
   -7.4282   -0.7300    0.3122 C   0  0  0  0  0  0  0  0  0  0  0  0
   -8.8682   -0.8071   -0.0467 C   0  0  0  0  0  0  0  0  0  0  0  0
   -9.8358   -0.7250    0.7666 O   0  0  0  0  0  0  0  0  0  0  0  0
   -9.0275   -0.9886   -1.4483 N   0  0  0  0  0  0  0  0  0  0  0  0
   -1.7331    0.5494    1.6046 C   0  0  0  0  0  0  0  0  0  0  0  0
   -0.9000    1.7033    1.6877 N   0  0  0  0  0  0  0  0  0  0  0  0
    0.0353    1.7587    2.7485 C   0  0  0  0  0  0  0  0  0  0  0  0
    1.1323    0.7340    2.7141 C   0  0  0  0  0  0  0  0  0  0  0  0
    1.9970    0.8000    1.5179 C   0  0  0  0  0  0  0  0  0  0  0  0
    1.7697    0.1163    0.3475 C   0  0  0  0  0  0  0  0  0  0  0  0
    2.6601    0.2601   -0.7245 C   0  0  0  0  0  0  0  0  0  0  0  0
    3.7703    1.0756   -0.6408 C   0  0  0  0  0  0  0  0  0  0  0  0
    3.9997    1.7703    0.5514 C   0  0  0  0  0  0  0  0  0  0  0  0
    3.1202    1.6314    1.6172 C   0  0  0  0  0  0  0  0  0  0  0  0
    4.6739    1.2432   -1.6815 O   0  0  0  0  0  0  0  0  0  0  0  0
    5.7935    0.4485   -1.8780 C   0  0  0  0  0  0  0  0  0  0  0  0
    6.0669   -0.5984   -1.0002 C   0  0  0  0  0  0  0  0  0  0  0  0
    7.1962   -1.3855   -1.2144 C   0  0  0  0  0  0  0  0  0  0  0  0
    8.0309   -1.1138   -2.2994 C   0  0  0  0  0  0  0  0  0  0  0  0
    7.6998   -0.0653   -3.1243 C   0  0  0  0  0  0  0  0  0  0  0  0
    6.6119    0.7006   -2.9261 N   0  0  0  0  0  0  0  0  0  0  0  0
    9.2182   -1.9008   -2.5702 C   0  0  0  0  0  0  0  0  0  0  0  0
    9.9665   -1.6235   -3.5683 O   0  0  0  0  0  0  0  0  0  0  0  0
    9.6022   -2.9879   -1.7672 N   0  0  0  0  0  0  0  0  0  0  0  0
    0.6716    3.1536    2.7185 C   0  0  0  0  0  0  0  0  0  0  0  0
   -0.6075    1.6159    4.1237 C   0  0  0  0  0  0  0  0  0  0  0  0
   -3.0312    2.5536    0.3898 H   0  0  0  0  0  0  0  0  0  0  0  0
   -2.1402    0.5878   -0.5549 H   0  0  0  0  0  0  0  0  0  0  0  0
   -2.9575   -1.5309    0.7881 H   0  0  0  0  0  0  0  0  0  0  0  0
   -4.0925   -0.4303    1.5572 H   0  0  0  0  0  0  0  0  0  0  0  0
   -3.9417   -1.0710   -2.8768 H   0  0  0  0  0  0  0  0  0  0  0  0
   -5.6647   -1.3363   -4.6968 H   0  0  0  0  0  0  0  0  0  0  0  0
   -8.0121   -1.3002   -4.0570 H   0  0  0  0  0  0  0  0  0  0  0  0
   -7.1195   -1.5158    1.0076 H   0  0  0  0  0  0  0  0  0  0  0  0
   -7.2766    0.2966    0.7119 H   0  0  0  0  0  0  0  0  0  0  0  0
   -9.9232   -1.0729   -1.9682 H   0  0  0  0  0  0  0  0  0  0  0  0
   -2.3249    0.3633    2.5256 H   0  0  0  0  0  0  0  0  0  0  0  0
   -1.0946   -0.3461    1.4954 H   0  0  0  0  0  0  0  0  0  0  0  0
   -0.5228    2.0176    0.7775 H   0  0  0  0  0  0  0  0  0  0  0  0
    0.6176   -0.2642    2.6711 H   0  0  0  0  0  0  0  0  0  0  0  0
    1.7256    0.7536    3.6349 H   0  0  0  0  0  0  0  0  0  0  0  0
    0.9175   -0.5236    0.2581 H   0  0  0  0  0  0  0  0  0  0  0  0
    2.4647   -0.2840   -1.6325 H   0  0  0  0  0  0  0  0  0  0  0  0
    4.8471    2.4104    0.6547 H   0  0  0  0  0  0  0  0  0  0  0  0
    3.3399    2.1846    2.5098 H   0  0  0  0  0  0  0  0  0  0  0  0
    5.4179   -0.8074   -0.1594 H   0  0  0  0  0  0  0  0  0  0  0  0
    7.4640   -2.1978   -0.5862 H   0  0  0  0  0  0  0  0  0  0  0  0
    8.3590    0.1421   -3.9731 H   0  0  0  0  0  0  0  0  0  0  0  0
    9.9969   -3.8583   -2.1973 H   0  0  0  0  0  0  0  0  0  0  0  0
    9.5051   -2.9545   -0.7424 H   0  0  0  0  0  0  0  0  0  0  0  0
    1.3241    3.2971    1.8336 H   0  0  0  0  0  0  0  0  0  0  0  0
    1.1548    3.3609    3.6871 H   0  0  0  0  0  0  0  0  0  0  0  0
   -0.1268    3.9342    2.5953 H   0  0  0  0  0  0  0  0  0  0  0  0
   -1.5867    2.0903    4.1934 H   0  0  0  0  0  0  0  0  0  0  0  0
   -0.5961    0.5569    4.4608 H   0  0  0  0  0  0  0  0  0  0  0  0
    0.0738    2.1381    4.8283 H   0  0  0  0  0  0  0  0  0  0  0  0
  1  2  1  0
  2  3  1  0
  3  4  1  0
  4  5  1  0
  5  6  2  0
  6  7  1  0
  7  8  2  0
  8  9  1  0
  9 10  2  0
 10 11  1  0
 11 12  1  0
 12 13  2  0
 12 14  1  0
  2 15  1  0
 15 16  1  0
 16 17  1  0
 17 18  1  0
 18 19  1  0
 19 20  2  0
 20 21  1  0
 21 22  2  0
 22 23  1  0
 23 24  2  0
 22 25  1  0
 25 26  1  0
 26 27  2  0
 27 28  1  0
 28 29  2  0
 29 30  1  0
 30 31  2  0
 29 32  1  0
 32 33  2  0
 32 34  1  0
 17 35  1  0
 17 36  1  0
 10  5  1  0
 24 19  1  0
 31 26  1  0
 14  9  1  0
  1 37  1  0
  2 38  1  6
  3 39  1  0
  3 40  1  0
  6 41  1  0
  7 42  1  0
  8 43  1  0
 11 44  1  0
 11 45  1  0
 14 46  1  0
 15 47  1  0
 15 48  1  0
 16 49  1  0
 18 50  1  0
 18 51  1  0
 20 52  1  0
 21 53  1  0
 23 54  1  0
 24 55  1  0
 27 56  1  0
 28 57  1  0
 30 58  1  0
 34 59  1  0
 34 60  1  0
 35 61  1  0
 35 62  1  0
 35 63  1  0
 36 64  1  0
 36 65  1  0
 36 66  1  0
M  END
>  <Ligand ID>  (1) 
LIG0003401

>  <Ligand>  (1) 
CHEMBL251167

>  <SMILES>  (1) 
O[C@H](COc1cccc2c1CC(=O)N2)CNC(Cc1ccc(cc1)Oc1ccc(cn1)C(=O)N)(C)C

>  <CID>  (1) 
44444153.0

>  <ChEMBL ID>  (1) 
nan

>  <InChiKey>  (1) 
FWRDQWRLAILBSL-IBGZPJMESA-N

>  <InChi>  (1) 
InChI=1S/C27H30N4O5/c1-27(2,30-15-19(32)16-35-23-5-3-4-22-21(23)12-24(33)31-22)13-17-6-9-20(10-7-17)36-25-11-8-18(14-29-25)26(28)34/h3-11,14,19,30,32H,12-13,15-16H2,1-2H3,(H2,28,34)(H,31,33)/t19-/m0/s1

>  <IUPAC Name>  (1) 
6-[4-[2-[[(2S)-2-hydroxy-3-[(2-oxo-1,3-dihydroindol-4-yl)oxy]propyl]amino]-2-methylpropyl]phenoxy]pyridine-3-carboxamide

$$$$
