
     RDKit          3D

 38 39  0  0  0  0  0  0  0  0999 V2000
   -2.3422   -1.9153    2.2582 O   0  0  0  0  0  0  0  0  0  0  0  0
   -2.6740   -2.0877    0.9078 C   0  0  0  0  0  0  0  0  0  0  0  0
   -3.7153   -2.8035    0.7090 O   0  0  0  0  0  0  0  0  0  0  0  0
   -1.9208   -1.5155   -0.2037 C   0  0  1  0  0  0  0  0  0  0  0  0
   -2.8501   -0.5859   -0.9976 C   0  0  0  0  0  0  0  0  0  0  0  0
   -2.5017    0.7588   -0.4186 C   0  0  2  0  0  0  0  0  0  0  0  0
   -1.0443    0.6319   -0.0971 C   0  0  0  0  0  0  0  0  0  0  0  0
   -0.7915   -0.7426    0.0775 N   0  0  0  0  0  0  0  0  0  0  0  0
    0.1687   -1.1639    1.0014 C   0  0  0  0  0  0  0  0  0  0  0  0
    1.5025   -0.6209    0.6334 C   0  0  0  0  0  0  0  0  0  0  0  0
    2.2872   -1.3706   -0.2245 C   0  0  0  0  0  0  0  0  0  0  0  0
    3.5406   -0.9494   -0.6196 C   0  0  0  0  0  0  0  0  0  0  0  0
    4.0483    0.2479   -0.1610 C   0  0  0  0  0  0  0  0  0  0  0  0
    3.2531    0.9794    0.6914 C   0  0  0  0  0  0  0  0  0  0  0  0
    1.9984    0.5713    1.0952 C   0  0  0  0  0  0  0  0  0  0  0  0
    5.3643    0.7033   -0.5680 C   0  0  0  0  0  0  0  0  0  0  0  0
    6.0122   -0.0545   -1.3599 O   0  0  0  0  0  0  0  0  0  0  0  0
    5.8654    1.9039   -0.1041 O   0  0  0  0  0  0  0  0  0  0  0  0
   -3.2404    0.9772    0.8023 N   0  0  0  0  0  0  0  0  0  0  0  0
   -2.7664    1.8613   -1.3894 C   0  0  0  0  0  0  0  0  0  0  0  0
   -2.2019    1.8399   -2.5222 O   0  0  0  0  0  0  0  0  0  0  0  0
   -3.6089    2.9225   -1.1142 O   0  0  0  0  0  0  0  0  0  0  0  0
   -2.3773   -2.6748    2.9234 H   0  0  0  0  0  0  0  0  0  0  0  0
   -1.6064   -2.3597   -0.8778 H   0  0  0  0  0  0  0  0  0  0  0  0
   -2.6080   -0.5974   -2.0830 H   0  0  0  0  0  0  0  0  0  0  0  0
   -3.9110   -0.8655   -0.8259 H   0  0  0  0  0  0  0  0  0  0  0  0
   -0.7226    1.3109    0.7172 H   0  0  0  0  0  0  0  0  0  0  0  0
   -0.4902    0.9616   -1.0188 H   0  0  0  0  0  0  0  0  0  0  0  0
   -0.0304   -0.7449    2.0338 H   0  0  0  0  0  0  0  0  0  0  0  0
    0.3016   -2.2355    1.1335 H   0  0  0  0  0  0  0  0  0  0  0  0
    1.9114   -2.3094   -0.5956 H   0  0  0  0  0  0  0  0  0  0  0  0
    4.1118   -1.5893   -1.3009 H   0  0  0  0  0  0  0  0  0  0  0  0
    3.6660    1.9308    1.0510 H   0  0  0  0  0  0  0  0  0  0  0  0
    1.4170    1.1731    1.7616 H   0  0  0  0  0  0  0  0  0  0  0  0
    6.8768    2.0319   -0.0925 H   0  0  0  0  0  0  0  0  0  0  0  0
   -4.1803    1.3885    0.6155 H   0  0  0  0  0  0  0  0  0  0  0  0
   -2.6686    1.5568    1.4726 H   0  0  0  0  0  0  0  0  0  0  0  0
   -4.0730    3.4351   -1.8575 H   0  0  0  0  0  0  0  0  0  0  0  0
  1  2  1  0
  2  3  2  0
  2  4  1  0
  4  5  1  0
  5  6  1  0
  6  7  1  0
  7  8  1  0
  8  9  1  0
  9 10  1  0
 10 11  2  0
 11 12  1  0
 12 13  2  0
 13 14  1  0
 14 15  2  0
 13 16  1  0
 16 17  2  0
 16 18  1  0
  6 19  1  1
  6 20  1  0
 20 21  2  0
 20 22  1  0
  8  4  1  0
 15 10  1  0
  1 23  1  0
  4 24  1  6
  5 25  1  0
  5 26  1  0
  7 27  1  0
  7 28  1  0
  9 29  1  0
  9 30  1  0
 11 31  1  0
 12 32  1  0
 14 33  1  0
 15 34  1  0
 18 35  1  0
 19 36  1  0
 19 37  1  0
 22 38  1  0
M  END
>  <Ligand ID>  (1) 
LIG0005686

>  <Ligand>  (1) 
CHEMBL539761

>  <SMILES>  (1) 
OC(=O)[C@H]1C[C@](CN1Cc1ccc(cc1)C(=O)O)(N)C(=O)O

>  <CID>  (1) 
44300587.0

>  <ChEMBL ID>  (1) 
nan

>  <InChiKey>  (1) 
JYBOVHJPKPIRCY-QMTHXVAHSA-N

>  <InChi>  (1) 
InChI=1S/C14H16N2O6/c15-14(13(21)22)5-10(12(19)20)16(7-14)6-8-1-3-9(4-2-8)11(17)18/h1-4,10H,5-7,15H2,(H,17,18)(H,19,20)(H,21,22)/t10-,14-/m1/s1

>  <IUPAC Name>  (1) 
(2R,4R)-4-amino-1-[(4-carboxyphenyl)methyl]pyrrolidine-2,4-dicarboxylic acid

$$$$
