
     RDKit          3D

 16 15  0  0  0  0  0  0  0  0999 V2000
    2.5684    0.1864    0.0252 C   0  0  0  0  0  0  0  0  0  0  0  0
    1.3890   -0.3656   -1.2473 S   0  0  0  0  0  0  0  0  0  0  0  0
    0.0279   -1.2061   -0.4163 C   0  0  0  0  0  0  0  0  0  0  0  0
   -0.8001   -0.2925    0.4434 C   0  0  0  0  0  0  0  0  0  0  0  0
   -1.7524    0.5673   -0.3559 C   0  0  0  0  0  0  0  0  0  0  0  0
   -2.4801    1.3037    0.5885 O   0  0  0  0  0  0  0  0  0  0  0  0
    3.4897    0.5337   -0.5071 H   0  0  0  0  0  0  0  0  0  0  0  0
    2.1793    1.0530    0.6022 H   0  0  0  0  0  0  0  0  0  0  0  0
    2.8065   -0.6458    0.7351 H   0  0  0  0  0  0  0  0  0  0  0  0
    0.4448   -1.9856    0.2710 H   0  0  0  0  0  0  0  0  0  0  0  0
   -0.6146   -1.7191   -1.1600 H   0  0  0  0  0  0  0  0  0  0  0  0
   -1.4535   -0.9364    1.0820 H   0  0  0  0  0  0  0  0  0  0  0  0
   -0.1782    0.3054    1.1184 H   0  0  0  0  0  0  0  0  0  0  0  0
   -1.2474    1.2017   -1.0996 H   0  0  0  0  0  0  0  0  0  0  0  0
   -2.4595   -0.0980   -0.8802 H   0  0  0  0  0  0  0  0  0  0  0  0
   -1.9200    2.0981    0.8004 H   0  0  0  0  0  0  0  0  0  0  0  0
  1  2  1  0
  2  3  1  0
  3  4  1  0
  4  5  1  0
  5  6  1  0
  1  7  1  0
  1  8  1  0
  1  9  1  0
  3 10  1  0
  3 11  1  0
  4 12  1  0
  4 13  1  0
  5 14  1  0
  5 15  1  0
  6 16  1  0
M  END
>  <Ligand ID>  (1) 
LIG0000476

>  <Ligand>  (1) 
Methionol

>  <SMILES>  (1) 
CSCCCO

>  <CID>  (1) 
10448.0

>  <ChEMBL ID>  (1) 
nan

>  <InChiKey>  (1) 
CZUGFKJYCPYHHV-UHFFFAOYSA-N

>  <InChi>  (1) 
InChI=1S/C4H10OS/c1-6-4-2-3-5/h5H,2-4H2,1H3

>  <IUPAC Name>  (1) 
3-methylsulfanylpropan-1-ol

$$$$
