
     RDKit          3D

 47 49  0  0  0  0  0  0  0  0999 V2000
    0.2215   -1.9989   -0.9025 C   0  0  0  0  0  0  0  0  0  0  0  0
    0.4113   -0.5093   -0.7055 C   0  0  2  0  0  0  0  0  0  0  0  0
   -0.6659    0.2943   -1.3749 C   0  0  0  0  0  0  0  0  0  0  0  0
   -1.9893   -0.0802   -0.8091 C   0  0  0  0  0  0  0  0  0  0  0  0
   -2.7715   -1.0921   -1.3292 C   0  0  0  0  0  0  0  0  0  0  0  0
   -3.9956   -1.3806   -0.7432 C   0  0  0  0  0  0  0  0  0  0  0  0
   -4.4682   -0.6818    0.3588 C   0  0  0  0  0  0  0  0  0  0  0  0
   -3.6849    0.3282    0.8760 C   0  0  0  0  0  0  0  0  0  0  0  0
   -2.4757    0.6081    0.2916 C   0  0  0  0  0  0  0  0  0  0  0  0
   -4.3557    0.8762    1.9604 O   0  0  0  0  0  0  0  0  0  0  0  0
   -5.6986    0.4591    1.9001 C   0  0  0  0  0  0  0  0  0  0  0  0
   -5.6103   -0.7332    1.1410 O   0  0  0  0  0  0  0  0  0  0  0  0
   -6.5561    1.3839    1.0965 C   0  0  0  0  0  0  0  0  0  0  0  0
   -7.7714    1.0683    1.0021 O   0  0  0  0  0  0  0  0  0  0  0  0
   -6.0537    2.5254    0.4860 O   0  0  0  0  0  0  0  0  0  0  0  0
   -6.2743    0.2209    3.2445 C   0  0  0  0  0  0  0  0  0  0  0  0
   -5.5440    0.4052    4.2619 O   0  0  0  0  0  0  0  0  0  0  0  0
   -7.5895   -0.1937    3.3267 O   0  0  0  0  0  0  0  0  0  0  0  0
    1.7333   -0.1627   -1.0469 N   0  0  0  0  0  0  0  0  0  0  0  0
    2.1193    1.2152   -0.9282 C   0  0  0  0  0  0  0  0  0  0  0  0
    3.5886    1.2738   -1.3634 C   0  0  1  0  0  0  0  0  0  0  0  0
    4.4157    0.5453   -0.3704 C   0  0  0  0  0  0  0  0  0  0  0  0
    5.1148    1.2013    0.6423 C   0  0  0  0  0  0  0  0  0  0  0  0
    5.8831    0.5268    1.5651 C   0  0  0  0  0  0  0  0  0  0  0  0
    5.9927   -0.8490    1.5226 C   0  0  0  0  0  0  0  0  0  0  0  0
    5.3107   -1.5209    0.5304 C   0  0  0  0  0  0  0  0  0  0  0  0
    4.5413   -0.8284   -0.3915 C   0  0  0  0  0  0  0  0  0  0  0  0
    5.4397   -3.2709    0.4624 Cl  0  0  0  0  0  0  0  0  0  0  0  0
    3.7747    0.8437   -2.6622 O   0  0  0  0  0  0  0  0  0  0  0  0
   -0.4462   -2.4461   -0.1317 H   0  0  0  0  0  0  0  0  0  0  0  0
    1.2060   -2.5222   -0.7859 H   0  0  0  0  0  0  0  0  0  0  0  0
   -0.0973   -2.2457   -1.9375 H   0  0  0  0  0  0  0  0  0  0  0  0
    0.2868   -0.3399    0.3882 H   0  0  0  0  0  0  0  0  0  0  0  0
   -0.6580    0.1855   -2.4818 H   0  0  0  0  0  0  0  0  0  0  0  0
   -0.5050    1.3521   -1.1648 H   0  0  0  0  0  0  0  0  0  0  0  0
   -2.4087   -1.6521   -2.2006 H   0  0  0  0  0  0  0  0  0  0  0  0
   -4.5893   -2.1751   -1.1664 H   0  0  0  0  0  0  0  0  0  0  0  0
   -1.8822    1.4168    0.7305 H   0  0  0  0  0  0  0  0  0  0  0  0
    2.0263   -0.4621   -2.0149 H   0  0  0  0  0  0  0  0  0  0  0  0
    2.1163    1.6172    0.1007 H   0  0  0  0  0  0  0  0  0  0  0  0
    1.5724    1.8490   -1.6598 H   0  0  0  0  0  0  0  0  0  0  0  0
    3.8550    2.3630   -1.2464 H   0  0  0  0  0  0  0  0  0  0  0  0
    5.0167    2.2859    0.6605 H   0  0  0  0  0  0  0  0  0  0  0  0
    6.4062    1.0644    2.3292 H   0  0  0  0  0  0  0  0  0  0  0  0
    6.6029   -1.3322    2.2627 H   0  0  0  0  0  0  0  0  0  0  0  0
    4.0404   -1.4250   -1.1343 H   0  0  0  0  0  0  0  0  0  0  0  0
    4.4158    0.0671   -2.5893 H   0  0  0  0  0  0  0  0  0  0  0  0
  1  2  1  0
  2  3  1  0
  3  4  1  0
  4  5  2  0
  5  6  1  0
  6  7  2  0
  7  8  1  0
  8  9  2  0
  8 10  1  0
 10 11  1  0
 11 12  1  0
 11 13  1  0
 13 14  2  0
 13 15  1  0
 11 16  1  0
 16 17  2  0
 16 18  1  0
  2 19  1  0
 19 20  1  0
 20 21  1  0
 21 22  1  0
 22 23  2  0
 23 24  1  0
 24 25  2  0
 25 26  1  0
 26 27  2  0
 26 28  1  0
 21 29  1  0
  9  4  1  0
 27 22  1  0
 12  7  1  0
  1 30  1  0
  1 31  1  0
  1 32  1  0
  2 33  1  1
  3 34  1  0
  3 35  1  0
  5 36  1  0
  6 37  1  0
  9 38  1  0
 19 39  1  0
 20 40  1  0
 20 41  1  0
 21 42  1  6
 23 43  1  0
 24 44  1  0
 25 45  1  0
 27 46  1  0
 29 47  1  0
M  CHG  2  15  -1  18  -1
M  END
>  <Ligand ID>  (1) 
LIG0001112

>  <Ligand>  (1) 
CHEMBL32590

>  <SMILES>  (1) 
C[C@H](Cc1ccc2c(c1)OC(O2)(C(=O)[O-])C(=O)[O-])NC[C@@H](c1cccc(c1)Cl)O

>  <CID>  (1) 
24867844.0

>  <ChEMBL ID>  (1) 
nan

>  <InChiKey>  (1) 
JEDJMKTVUPSHFW-ABAIWWIYSA-L

>  <InChi>  (1) 
InChI=1S/C20H20ClNO7/c1-11(22-10-15(23)13-3-2-4-14(21)9-13)7-12-5-6-16-17(8-12)29-20(28-16,18(24)25)19(26)27/h2-6,8-9,11,15,22-23H,7,10H2,1H3,(H,24,25)(H,26,27)/p-2/t11-,15+/m1/s1

>  <IUPAC Name>  (1) 
5-[(2R)-2-[[(2R)-2-(3-chlorophenyl)-2-hydroxyethyl]amino]propyl]-1,3-benzodioxole-2,2-dicarboxylate

$$$$
