
     RDKit          3D

 41 44  0  0  0  0  0  0  0  0999 V2000
   -1.1109    2.2270    2.2173 C   0  0  0  0  0  0  0  0  0  0  0  0
   -0.9309    1.3899    0.9949 C   0  0  0  0  0  0  0  0  0  0  0  0
    0.1978    0.8595    0.5395 N   0  0  0  0  0  0  0  0  0  0  0  0
    0.0354    0.1679   -0.5684 N   0  0  0  0  0  0  0  0  0  0  0  0
   -1.3000    0.2608   -0.8468 C   0  0  0  0  0  0  0  0  0  0  0  0
   -1.9205    1.0209    0.1195 C   0  0  0  0  0  0  0  0  0  0  0  0
   -3.3586    1.1606   -0.1205 C   0  0  1  0  0  0  0  0  0  0  0  0
   -3.5469    0.4981   -1.4365 C   0  0  1  0  0  0  0  0  0  0  0  0
   -2.2971   -0.1917   -1.8512 C   0  0  0  0  0  0  0  0  0  0  0  0
   -4.1885   -0.0382   -0.2062 C   0  0  0  0  0  0  0  0  0  0  0  0
   -5.6972    0.0486   -0.1800 C   0  0  0  0  0  0  0  0  0  0  0  0
   -3.6606   -1.2825    0.4706 C   0  0  0  0  0  0  0  0  0  0  0  0
    1.0116   -0.5284   -1.3252 C   0  0  0  0  0  0  0  0  0  0  0  0
    0.5919   -1.1291   -2.3752 O   0  0  0  0  0  0  0  0  0  0  0  0
    2.4128   -0.6131   -1.0136 C   0  0  0  0  0  0  0  0  0  0  0  0
    3.0319   -0.0769    0.0007 C   0  0  0  0  0  0  0  0  0  0  0  0
    4.4615   -0.1960    0.2687 C   0  0  0  0  0  0  0  0  0  0  0  0
    5.3315   -0.8987   -0.5314 C   0  0  0  0  0  0  0  0  0  0  0  0
    6.6861   -0.9883   -0.2419 C   0  0  0  0  0  0  0  0  0  0  0  0
    7.1688   -0.3535    0.8802 C   0  0  0  0  0  0  0  0  0  0  0  0
    6.3392    0.3305    1.6643 N   0  0  0  0  0  0  0  0  0  0  0  0
    5.0258    0.4182    1.3849 C   0  0  0  0  0  0  0  0  0  0  0  0
   -1.2375    1.5295    3.0888 H   0  0  0  0  0  0  0  0  0  0  0  0
   -1.9368    2.9377    2.1150 H   0  0  0  0  0  0  0  0  0  0  0  0
   -0.1357    2.7244    2.4034 H   0  0  0  0  0  0  0  0  0  0  0  0
   -3.8827    2.1055    0.1241 H   0  0  0  0  0  0  0  0  0  0  0  0
   -4.1712    1.0393   -2.1657 H   0  0  0  0  0  0  0  0  0  0  0  0
   -2.4521   -1.2924   -1.8395 H   0  0  0  0  0  0  0  0  0  0  0  0
   -1.9628    0.1045   -2.8701 H   0  0  0  0  0  0  0  0  0  0  0  0
   -6.1240   -0.9720   -0.2794 H   0  0  0  0  0  0  0  0  0  0  0  0
   -6.1057    0.6213   -1.0623 H   0  0  0  0  0  0  0  0  0  0  0  0
   -6.0809    0.5688    0.7192 H   0  0  0  0  0  0  0  0  0  0  0  0
   -2.6106   -1.1116    0.8123 H   0  0  0  0  0  0  0  0  0  0  0  0
   -4.2865   -1.4258    1.3879 H   0  0  0  0  0  0  0  0  0  0  0  0
   -3.7464   -2.1721   -0.1755 H   0  0  0  0  0  0  0  0  0  0  0  0
    3.0374   -1.1933   -1.7037 H   0  0  0  0  0  0  0  0  0  0  0  0
    2.4573    0.5002    0.7017 H   0  0  0  0  0  0  0  0  0  0  0  0
    5.0023   -1.4107   -1.4173 H   0  0  0  0  0  0  0  0  0  0  0  0
    7.3576   -1.5395   -0.8729 H   0  0  0  0  0  0  0  0  0  0  0  0
    8.2148   -0.3955    1.1452 H   0  0  0  0  0  0  0  0  0  0  0  0
    4.3804    0.9833    2.0454 H   0  0  0  0  0  0  0  0  0  0  0  0
  1  2  1  0
  2  3  2  0
  3  4  1  0
  4  5  1  0
  5  6  2  0
  6  7  1  0
  7  8  1  0
  8  9  1  0
  8 10  1  0
 10 11  1  0
 10 12  1  0
  4 13  1  0
 13 14  2  0
 13 15  1  0
 15 16  2  0
 16 17  1  0
 17 18  2  0
 18 19  1  0
 19 20  2  0
 20 21  1  0
 21 22  2  0
  6  2  1  0
 10  7  1  0
 22 17  1  0
  9  5  1  0
  1 23  1  0
  1 24  1  0
  1 25  1  0
  7 26  1  6
  8 27  1  6
  9 28  1  0
  9 29  1  0
 11 30  1  0
 11 31  1  0
 11 32  1  0
 12 33  1  0
 12 34  1  0
 12 35  1  0
 15 36  1  0
 16 37  1  0
 18 38  1  0
 19 39  1  0
 20 40  1  0
 22 41  1  0
M  END
>  <Ligand ID>  (1) 
LIG0003972

>  <Ligand>  (1) 
CHEMBL590384

>  <SMILES>  (1) 
Cc1nn(c2c1[C@H]1[C@@H](C2)C1(C)C)C(=O)/C=C/c1cccnc1

>  <CID>  (1) 
46224768.0

>  <ChEMBL ID>  (1) 
nan

>  <InChiKey>  (1) 
UXTMTCULOZQOPD-IRVACUKQSA-N

>  <InChi>  (1) 
InChI=1S/C18H19N3O/c1-11-16-14(9-13-17(16)18(13,2)3)21(20-11)15(22)7-6-12-5-4-8-19-10-12/h4-8,10,13,17H,9H2,1-3H3/b7-6+/t13-,17-/m1/s1

>  <IUPAC Name>  (1) 
(E)-3-pyridin-3-yl-1-[(2S,4R)-3,3,9-trimethyl-7,8-diazatricyclo[4.3.0.02,4]nona-1(6),8-dien-7-yl]prop-2-en-1-one

$$$$
