
     RDKit          3D

 53 55  0  0  0  0  0  0  0  0999 V2000
   -7.2667   -2.5634    2.2957 F   0  0  0  0  0  0  0  0  0  0  0  0
   -8.1380   -1.8121    1.4252 C   0  0  0  0  0  0  0  0  0  0  0  0
   -7.6973   -2.0802    0.0655 O   0  0  0  0  0  0  0  0  0  0  0  0
   -6.3743   -1.5804   -0.1987 C   0  0  0  0  0  0  0  0  0  0  0  0
   -5.8210   -1.7176   -1.4167 C   0  0  0  0  0  0  0  0  0  0  0  0
   -4.5286   -1.2607   -1.7362 C   0  0  0  0  0  0  0  0  0  0  0  0
   -3.8420   -0.6592   -0.7391 C   0  0  0  0  0  0  0  0  0  0  0  0
   -4.4153   -0.5141    0.5099 C   0  0  0  0  0  0  0  0  0  0  0  0
   -5.6787   -0.9482    0.8663 C   0  0  0  0  0  0  0  0  0  0  0  0
   -2.4856   -0.1700   -0.8133 N   0  0  0  0  0  0  0  0  0  0  0  0
   -1.5148   -0.4021    0.1221 C   0  0  0  0  0  0  0  0  0  0  0  0
   -1.6442   -1.1716    1.3953 C   0  0  0  0  0  0  0  0  0  0  0  0
   -0.3932    0.2086   -0.3382 C   0  0  0  0  0  0  0  0  0  0  0  0
   -0.6346    0.8436   -1.5805 C   0  0  0  0  0  0  0  0  0  0  0  0
   -1.9915    0.5470   -1.7948 C   0  0  0  0  0  0  0  0  0  0  0  0
   -2.7727    1.0172   -3.0098 C   0  0  0  0  0  0  0  0  0  0  0  0
    0.2740    1.6110   -2.3956 C   0  0  0  0  0  0  0  0  0  0  0  0
   -0.3135    2.1936   -3.4024 O   0  0  0  0  0  0  0  0  0  0  0  0
    1.6877    1.8341   -2.2780 C   0  0  0  0  0  0  0  0  0  0  0  0
    2.5477    1.3539   -1.5158 O   0  0  0  0  0  0  0  0  0  0  0  0
    3.4929    0.8811   -0.7384 C   0  0  0  0  0  0  0  0  0  0  0  0
    4.7885    1.4241   -0.9628 C   0  0  0  0  0  0  0  0  0  0  0  0
    5.7622    0.9431   -0.1704 C   0  0  0  0  0  0  0  0  0  0  0  0
    5.6505    0.0015    0.8169 C   0  0  0  0  0  0  0  0  0  0  0  0
    4.3936   -0.5463    1.0596 C   0  0  0  0  0  0  0  0  0  0  0  0
    3.3659   -0.0733    0.2572 C   0  0  0  0  0  0  0  0  0  0  0  0
    6.8168   -0.3584    1.5215 N   0  0  0  0  0  0  0  0  0  0  0  0
    7.1386    0.3664    2.7196 C   0  0  0  0  0  0  0  0  0  0  0  0
    6.4733    1.2719    3.2038 O   0  0  0  0  0  0  0  0  0  0  0  0
    8.4032   -0.0244    3.4276 C   0  0  0  0  0  0  0  0  0  0  0  0
   -9.3722   -2.2526    1.7129 F   0  0  0  0  0  0  0  0  0  0  0  0
   -7.9531   -0.7677    1.6784 H   0  0  0  0  0  0  0  0  0  0  0  0
   -6.3092   -2.1859   -2.2847 H   0  0  0  0  0  0  0  0  0  0  0  0
   -4.1026   -1.3805   -2.7165 H   0  0  0  0  0  0  0  0  0  0  0  0
   -3.8851   -0.0102    1.3401 H   0  0  0  0  0  0  0  0  0  0  0  0
   -6.0425   -0.8066    1.8242 H   0  0  0  0  0  0  0  0  0  0  0  0
   -0.7014   -1.7429    1.6040 H   0  0  0  0  0  0  0  0  0  0  0  0
   -2.5012   -1.8868    1.2945 H   0  0  0  0  0  0  0  0  0  0  0  0
   -1.8289   -0.5393    2.2543 H   0  0  0  0  0  0  0  0  0  0  0  0
    0.5322    0.2190    0.2037 H   0  0  0  0  0  0  0  0  0  0  0  0
   -2.5791    2.0728   -3.2232 H   0  0  0  0  0  0  0  0  0  0  0  0
   -2.5298    0.3518   -3.8556 H   0  0  0  0  0  0  0  0  0  0  0  0
   -3.8619    0.9165   -2.7306 H   0  0  0  0  0  0  0  0  0  0  0  0
    1.7547    3.0291   -2.3662 H   0  0  0  0  0  0  0  0  0  0  0  0
    2.0624    1.5862   -3.4132 H   0  0  0  0  0  0  0  0  0  0  0  0
    4.9609    2.1637   -1.6950 H   0  0  0  0  0  0  0  0  0  0  0  0
    6.7783    1.3608   -0.3289 H   0  0  0  0  0  0  0  0  0  0  0  0
    4.2798   -1.2823    1.8245 H   0  0  0  0  0  0  0  0  0  0  0  0
    2.4084   -0.5649    0.4837 H   0  0  0  0  0  0  0  0  0  0  0  0
    7.4101   -1.1547    1.1584 H   0  0  0  0  0  0  0  0  0  0  0  0
    8.2314   -0.3075    4.4546 H   0  0  0  0  0  0  0  0  0  0  0  0
    8.8419   -0.8767    2.8769 H   0  0  0  0  0  0  0  0  0  0  0  0
    9.1243    0.8349    3.3082 H   0  0  0  0  0  0  0  0  0  0  0  0
  1  2  1  0
  2  3  1  0
  3  4  1  0
  4  5  2  0
  5  6  1  0
  6  7  2  0
  7  8  1  0
  8  9  2  0
  7 10  1  0
 10 11  1  0
 11 12  1  0
 11 13  2  0
 13 14  1  0
 14 15  2  0
 15 16  1  0
 14 17  1  0
 17 18  2  0
 17 19  1  0
 19 20  1  0
 20 21  1  0
 21 22  2  0
 22 23  1  0
 23 24  2  0
 24 25  1  0
 25 26  2  0
 24 27  1  0
 27 28  1  0
 28 29  2  0
 28 30  1  0
  2 31  1  0
  9  4  1  0
 15 10  1  0
 26 21  1  0
  2 32  1  0
  5 33  1  0
  6 34  1  0
  8 35  1  0
  9 36  1  0
 12 37  1  0
 12 38  1  0
 12 39  1  0
 13 40  1  0
 16 41  1  0
 16 42  1  0
 16 43  1  0
 19 44  1  0
 19 45  1  0
 22 46  1  0
 23 47  1  0
 25 48  1  0
 26 49  1  0
 27 50  1  0
 30 51  1  0
 30 52  1  0
 30 53  1  0
M  END
>  <Ligand ID>  (1) 
LIG0003725

>  <Ligand>  (1) 
CHEMBL3560612

>  <SMILES>  (1) 
FC(Oc1ccc(cc1)n1c(C)cc(c1C)C(=O)COc1ccc(cc1)NC(=O)C)F

>  <CID>  (1) 
16545124.0

>  <ChEMBL ID>  (1) 
nan

>  <InChiKey>  (1) 
OELJWSCTEOSSHN-UHFFFAOYSA-N

>  <InChi>  (1) 
InChI=1S/C23H22F2N2O4/c1-14-12-21(15(2)27(14)18-6-10-20(11-7-18)31-23(24)25)22(29)13-30-19-8-4-17(5-9-19)26-16(3)28/h4-12,23H,13H2,1-3H3,(H,26,28)

>  <IUPAC Name>  (1) 
N-[4-[2-[1-[4-(difluoromethoxy)phenyl]-2,5-dimethylpyrrol-3-yl]-2-oxoethoxy]phenyl]acetamide

$$$$
