
     RDKit          3D

 77 79  0  0  0  0  0  0  0  0999 V2000
    9.7172    0.4704    1.4623 O   0  0  0  0  0  0  0  0  0  0  0  0
    9.3122   -0.5112    0.5533 C   0  0  0  0  0  0  0  0  0  0  0  0
    8.4735    0.0377   -0.5361 C   0  0  0  0  0  0  0  0  0  0  0  0
    7.1139   -0.1392   -0.5636 C   0  0  0  0  0  0  0  0  0  0  0  0
    6.3080    0.3663   -1.5737 C   0  0  0  0  0  0  0  0  0  0  0  0
    6.8872    1.0813   -2.6037 C   0  0  0  0  0  0  0  0  0  0  0  0
    8.2568    1.2526   -2.5650 C   0  0  0  0  0  0  0  0  0  0  0  0
    9.0604    0.7550   -1.5682 C   0  0  0  0  0  0  0  0  0  0  0  0
   10.4367    0.9331   -1.5393 O   0  0  0  0  0  0  0  0  0  0  0  0
    4.8241    0.1219   -1.5210 C   0  0  2  0  0  0  0  0  0  0  0  0
    4.2792    1.0927   -0.5225 C   0  0  0  0  0  0  0  0  0  0  0  0
    2.8980    1.0127   -0.3442 N   0  0  0  0  0  0  0  0  0  0  0  0
    2.3818   -0.1283    0.2903 C   0  0  0  0  0  0  0  0  0  0  0  0
    2.8156   -0.1182    1.7715 C   0  0  0  0  0  0  0  0  0  0  0  0
    2.2988    1.1160    2.3956 C   0  0  0  0  0  0  0  0  0  0  0  0
    0.8394    1.2737    2.4260 C   0  0  0  0  0  0  0  0  0  0  0  0
    0.0653    0.3840    3.2846 C   0  0  0  0  0  0  0  0  0  0  0  0
    0.1013   -1.0881    3.1323 C   0  0  0  0  0  0  0  0  0  0  0  0
   -0.1708   -1.6793    1.9823 O   0  0  0  0  0  0  0  0  0  0  0  0
   -1.2868   -1.6649    1.2759 C   0  0  0  0  0  0  0  0  0  0  0  0
   -1.8799   -0.4503    0.7141 C   0  0  0  0  0  0  0  0  0  0  0  0
   -3.1237   -0.7074   -0.0993 C   0  0  0  0  0  0  0  0  0  0  0  0
   -4.1847   -1.3476    0.7429 C   0  0  0  0  0  0  0  0  0  0  0  0
   -5.3902   -1.5219   -0.1446 C   0  0  0  0  0  0  0  0  0  0  0  0
   -5.5698   -2.6663   -0.8993 C   0  0  0  0  0  0  0  0  0  0  0  0
   -6.7028   -2.7648   -1.6915 C   0  0  0  0  0  0  0  0  0  0  0  0
   -7.6138   -1.7189   -1.7013 C   0  0  0  0  0  0  0  0  0  0  0  0
   -7.4105   -0.5885   -0.9390 C   0  0  0  0  0  0  0  0  0  0  0  0
   -6.2865   -0.4731   -0.1434 C   0  0  0  0  0  0  0  0  0  0  0  0
   -8.3276    0.5089   -0.9202 N   0  0  0  0  0  0  0  0  0  0  0  0
   -8.0756    1.6881   -1.5008 C   0  0  0  0  0  0  0  0  0  0  0  0
   -6.9844    1.8644   -2.0995 O   0  0  0  0  0  0  0  0  0  0  0  0
   -9.0477    2.6603   -1.4065 C   0  0  0  0  0  0  0  0  0  0  0  0
  -10.2442    2.4385   -0.7389 C   0  0  0  0  0  0  0  0  0  0  0  0
  -10.4422    1.2380   -0.1761 N   0  0  0  0  0  0  0  0  0  0  0  0
   -9.4964    0.2721   -0.2604 C   0  0  0  0  0  0  0  0  0  0  0  0
   -9.7228   -0.8443    0.2831 O   0  0  0  0  0  0  0  0  0  0  0  0
    4.6251   -1.1995   -1.1918 O   0  0  0  0  0  0  0  0  0  0  0  0
   10.3403    1.0874    0.9859 H   0  0  0  0  0  0  0  0  0  0  0  0
    8.6896   -1.2368    1.1187 H   0  0  0  0  0  0  0  0  0  0  0  0
   10.1700   -1.0751    0.1349 H   0  0  0  0  0  0  0  0  0  0  0  0
    6.6403   -0.6951    0.2315 H   0  0  0  0  0  0  0  0  0  0  0  0
    6.2644    1.4787   -3.3956 H   0  0  0  0  0  0  0  0  0  0  0  0
    8.7181    1.8197   -3.3801 H   0  0  0  0  0  0  0  0  0  0  0  0
   10.9516    0.5505   -2.3365 H   0  0  0  0  0  0  0  0  0  0  0  0
    4.4081    0.3072   -2.5528 H   0  0  0  0  0  0  0  0  0  0  0  0
    4.5539    2.1560   -0.8408 H   0  0  0  0  0  0  0  0  0  0  0  0
    4.8865    0.9899    0.4219 H   0  0  0  0  0  0  0  0  0  0  0  0
    2.2766    1.5831   -0.9263 H   0  0  0  0  0  0  0  0  0  0  0  0
    1.2503   -0.1196    0.3136 H   0  0  0  0  0  0  0  0  0  0  0  0
    2.7240   -1.0983   -0.1127 H   0  0  0  0  0  0  0  0  0  0  0  0
    3.9620   -0.0839    1.7737 H   0  0  0  0  0  0  0  0  0  0  0  0
    2.4976   -1.0741    2.1668 H   0  0  0  0  0  0  0  0  0  0  0  0
    2.7323    1.1342    3.4632 H   0  0  0  0  0  0  0  0  0  0  0  0
    2.7888    2.0399    1.9452 H   0  0  0  0  0  0  0  0  0  0  0  0
    0.6165    2.3855    2.7192 H   0  0  0  0  0  0  0  0  0  0  0  0
    0.3942    1.2980    1.3688 H   0  0  0  0  0  0  0  0  0  0  0  0
   -0.9889    0.7904    3.3293 H   0  0  0  0  0  0  0  0  0  0  0  0
    0.3564    0.5779    4.4086 H   0  0  0  0  0  0  0  0  0  0  0  0
   -0.6559   -1.5058    3.9565 H   0  0  0  0  0  0  0  0  0  0  0  0
    1.0200   -1.4912    3.5969 H   0  0  0  0  0  0  0  0  0  0  0  0
   -2.1099   -2.1878    1.8797 H   0  0  0  0  0  0  0  0  0  0  0  0
   -1.1611   -2.3984    0.4182 H   0  0  0  0  0  0  0  0  0  0  0  0
   -2.2008    0.3362    1.4352 H   0  0  0  0  0  0  0  0  0  0  0  0
   -1.1484   -0.0040   -0.0325 H   0  0  0  0  0  0  0  0  0  0  0  0
   -3.4555    0.3204   -0.4414 H   0  0  0  0  0  0  0  0  0  0  0  0
   -2.9091   -1.2874   -1.0230 H   0  0  0  0  0  0  0  0  0  0  0  0
   -4.4463   -0.7590    1.6260 H   0  0  0  0  0  0  0  0  0  0  0  0
   -3.8242   -2.3659    1.0532 H   0  0  0  0  0  0  0  0  0  0  0  0
   -4.8362   -3.4517   -0.8600 H   0  0  0  0  0  0  0  0  0  0  0  0
   -6.8582   -3.6646   -2.2934 H   0  0  0  0  0  0  0  0  0  0  0  0
   -8.4888   -1.7859   -2.3086 H   0  0  0  0  0  0  0  0  0  0  0  0
   -6.1208    0.4063    0.4541 H   0  0  0  0  0  0  0  0  0  0  0  0
   -8.8715    3.6160   -1.8638 H   0  0  0  0  0  0  0  0  0  0  0  0
  -11.0201    3.1777   -0.6492 H   0  0  0  0  0  0  0  0  0  0  0  0
  -11.3204    1.0126    0.3386 H   0  0  0  0  0  0  0  0  0  0  0  0
    5.4406   -1.7390   -1.1422 H   0  0  0  0  0  0  0  0  0  0  0  0
  1  2  1  0
  2  3  1  0
  3  4  2  0
  4  5  1  0
  5  6  2  0
  6  7  1  0
  7  8  2  0
  8  9  1  0
  5 10  1  0
 10 11  1  0
 11 12  1  0
 12 13  1  0
 13 14  1  0
 14 15  1  0
 15 16  1  0
 16 17  1  0
 17 18  1  0
 18 19  1  0
 19 20  1  0
 20 21  1  0
 21 22  1  0
 22 23  1  0
 23 24  1  0
 24 25  2  0
 25 26  1  0
 26 27  2  0
 27 28  1  0
 28 29  2  0
 28 30  1  0
 30 31  1  0
 31 32  2  0
 31 33  1  0
 33 34  2  0
 34 35  1  0
 35 36  1  0
 36 37  2  0
 10 38  1  0
  8  3  1  0
 29 24  1  0
 36 30  1  0
  1 39  1  0
  2 40  1  0
  2 41  1  0
  4 42  1  0
  6 43  1  0
  7 44  1  0
  9 45  1  0
 10 46  1  6
 11 47  1  0
 11 48  1  0
 12 49  1  0
 13 50  1  0
 13 51  1  0
 14 52  1  0
 14 53  1  0
 15 54  1  0
 15 55  1  0
 16 56  1  0
 16 57  1  0
 17 58  1  0
 17 59  1  0
 18 60  1  0
 18 61  1  0
 20 62  1  0
 20 63  1  0
 21 64  1  0
 21 65  1  0
 22 66  1  0
 22 67  1  0
 23 68  1  0
 23 69  1  0
 25 70  1  0
 26 71  1  0
 27 72  1  0
 29 73  1  0
 33 74  1  0
 34 75  1  0
 35 76  1  0
 38 77  1  0
M  END
>  <Ligand ID>  (1) 
LIG0001226

>  <Ligand>  (1) 
CHEMBL1814277

>  <SMILES>  (1) 
OCc1cc(ccc1O)[C@H](CNCCCCCCOCCCCc1cccc(c1)n1c(=O)cc[nH]c1=O)O

>  <CID>  (1) 
56658246.0

>  <ChEMBL ID>  (1) 
nan

>  <InChiKey>  (1) 
SCMBTOKLELJQBE-MHZLTWQESA-N

>  <InChi>  (1) 
InChI=1S/C29H39N3O6/c33-21-24-19-23(11-12-26(24)34)27(35)20-30-14-4-1-2-5-16-38-17-6-3-8-22-9-7-10-25(18-22)32-28(36)13-15-31-29(32)37/h7,9-13,15,18-19,27,30,33-35H,1-6,8,14,16-17,20-21H2,(H,31,37)/t27-/m0/s1

>  <IUPAC Name>  (1) 
3-[3-[4-[6-[[(2R)-2-hydroxy-2-[4-hydroxy-3-(hydroxymethyl)phenyl]ethyl]amino]hexoxy]butyl]phenyl]-1H-pyrimidine-2,4-dione

$$$$
