
     RDKit          3D

 23 24  0  0  0  0  0  0  0  0999 V2000
   -3.7737    0.4613    0.2071 C   0  0  0  0  0  0  0  0  0  0  0  0
   -3.4376   -0.0325    1.4582 C   0  0  0  0  0  0  0  0  0  0  0  0
   -2.1094   -0.3239    1.7040 C   0  0  0  0  0  0  0  0  0  0  0  0
   -1.1233   -0.1329    0.7340 C   0  0  0  0  0  0  0  0  0  0  0  0
   -1.4615    0.3593   -0.5116 C   0  0  0  0  0  0  0  0  0  0  0  0
   -2.7990    0.6573   -0.7721 C   0  0  0  0  0  0  0  0  0  0  0  0
    0.1687   -0.4619    1.1022 O   0  0  0  0  0  0  0  0  0  0  0  0
    1.2921   -0.3637    0.3348 C   0  0  0  0  0  0  0  0  0  0  0  0
    1.7998   -1.3341   -0.4838 C   0  0  0  0  0  0  0  0  0  0  0  0
    2.9454   -1.1646   -1.2342 C   0  0  0  0  0  0  0  0  0  0  0  0
    3.6050    0.0524   -1.1459 C   0  0  0  0  0  0  0  0  0  0  0  0
    3.1375    1.0515   -0.3432 C   0  0  0  0  0  0  0  0  0  0  0  0
    1.9990    0.8441    0.3845 C   0  0  0  0  0  0  0  0  0  0  0  0
   -4.8283    0.6926    0.0120 H   0  0  0  0  0  0  0  0  0  0  0  0
   -4.2004   -0.1861    2.2250 H   0  0  0  0  0  0  0  0  0  0  0  0
   -1.8629   -0.7068    2.6803 H   0  0  0  0  0  0  0  0  0  0  0  0
   -0.6823    0.5002   -1.2497 H   0  0  0  0  0  0  0  0  0  0  0  0
   -3.0912    1.0453   -1.7426 H   0  0  0  0  0  0  0  0  0  0  0  0
    1.2715   -2.2730   -0.5378 H   0  0  0  0  0  0  0  0  0  0  0  0
    3.3659   -1.9022   -1.8814 H   0  0  0  0  0  0  0  0  0  0  0  0
    4.5188    0.2567   -1.7123 H   0  0  0  0  0  0  0  0  0  0  0  0
    3.6400    2.0175   -0.2579 H   0  0  0  0  0  0  0  0  0  0  0  0
    1.6258    1.6527    1.0305 H   0  0  0  0  0  0  0  0  0  0  0  0
  1  2  2  0
  2  3  1  0
  3  4  2  0
  4  5  1  0
  5  6  2  0
  4  7  1  0
  7  8  1  0
  8  9  2  0
  9 10  1  0
 10 11  2  0
 11 12  1  0
 12 13  2  0
  6  1  1  0
 13  8  1  0
  1 14  1  0
  2 15  1  0
  3 16  1  0
  5 17  1  0
  6 18  1  0
  9 19  1  0
 10 20  1  0
 11 21  1  0
 12 22  1  0
 13 23  1  0
M  END
>  <Ligand ID>  (1) 
LIG0000045

>  <Ligand>  (1) 
diphenyl ether

>  <SMILES>  (1) 
c1ccc(cc1)Oc1ccccc1

>  <CID>  (1) 
7583.0

>  <ChEMBL ID>  (1) 
nan

>  <InChiKey>  (1) 
USIUVYZYUHIAEV-UHFFFAOYSA-N

>  <InChi>  (1) 
InChI=1S/C12H10O/c1-3-7-11(8-4-1)13-12-9-5-2-6-10-12/h1-10H

>  <IUPAC Name>  (1) 
phenoxybenzene

$$$$
