
     RDKit          3D

 61 66  0  0  0  0  0  0  0  0999 V2000
   -6.5356    2.9577    0.5776 C   0  0  0  0  0  0  0  0  0  0  0  0
   -5.1789    2.8980    0.1640 O   0  0  0  0  0  0  0  0  0  0  0  0
   -4.5137    1.7025    0.3846 C   0  0  0  0  0  0  0  0  0  0  0  0
   -5.1332    0.6043    0.9820 C   0  0  0  0  0  0  0  0  0  0  0  0
   -4.4369   -0.5924    1.1934 C   0  0  0  0  0  0  0  0  0  0  0  0
   -3.1113   -0.6801    0.8000 C   0  0  0  0  0  0  0  0  0  0  0  0
   -2.5602    0.4177    0.2236 C   0  0  0  0  0  0  0  0  0  0  0  0
   -3.1955    1.6140   -0.0062 C   0  0  0  0  0  0  0  0  0  0  0  0
   -2.2484    2.4286   -0.6038 O   0  0  0  0  0  0  0  0  0  0  0  0
   -0.9345    1.9699   -0.2274 C   0  0  2  0  0  0  0  0  0  0  0  0
   -1.1443    0.4776   -0.2760 C   0  0  2  0  0  0  0  0  0  0  0  0
   -1.1851   -0.0647   -1.6494 C   0  0  0  0  0  0  0  0  0  0  0  0
   -1.5560   -1.5223   -1.6242 C   0  0  0  0  0  0  0  0  0  0  0  0
   -0.7231   -2.2337   -0.7238 N   0  0  0  0  0  0  0  0  0  0  0  0
   -0.8404   -1.7408    0.6456 C   0  0  2  0  0  0  0  0  0  0  0  0
   -2.2945   -1.8883    1.0023 C   0  0  0  0  0  0  0  0  0  0  0  0
   -0.3779   -0.3060    0.7341 C   0  0  2  0  0  0  0  0  0  0  0  0
   -0.8054    0.1178    2.1525 C   0  0  0  0  0  0  0  0  0  0  0  0
   -1.1919    1.5395    2.2772 C   0  0  0  0  0  0  0  0  0  0  0  0
   -0.7340    2.4314    1.1834 C   0  0  0  0  0  0  0  0  0  0  0  0
   -0.2084    3.5105    1.4022 O   0  0  0  0  0  0  0  0  0  0  0  0
    0.9974   -0.0674    0.6671 N   0  0  0  0  0  0  0  0  0  0  0  0
    1.9359   -0.5025   -0.3068 C   0  0  0  0  0  0  0  0  0  0  0  0
    1.6446   -1.2026   -1.2775 O   0  0  0  0  0  0  0  0  0  0  0  0
    3.3662   -0.1151   -0.1898 C   0  0  0  0  0  0  0  0  0  0  0  0
    4.2654   -0.4966   -1.0690 C   0  0  0  0  0  0  0  0  0  0  0  0
    5.6732   -0.1594   -1.0211 C   0  0  0  0  0  0  0  0  0  0  0  0
    6.2360    0.6134   -0.0293 C   0  0  0  0  0  0  0  0  0  0  0  0
    7.5930    0.9107   -0.0256 C   0  0  0  0  0  0  0  0  0  0  0  0
    8.4265    0.4491   -1.0051 C   0  0  0  0  0  0  0  0  0  0  0  0
    7.8806   -0.3347   -2.0193 C   0  0  0  0  0  0  0  0  0  0  0  0
    6.5309   -0.6189   -2.0055 C   0  0  0  0  0  0  0  0  0  0  0  0
    5.8954   -1.6101   -3.3060 Cl  0  0  0  0  0  0  0  0  0  0  0  0
   -0.9414   -3.6482   -0.7181 C   0  0  0  0  0  0  0  0  0  0  0  0
   -7.0201    3.9028    0.2258 H   0  0  0  0  0  0  0  0  0  0  0  0
   -6.5607    2.8550    1.6789 H   0  0  0  0  0  0  0  0  0  0  0  0
   -7.0602    2.0923    0.1345 H   0  0  0  0  0  0  0  0  0  0  0  0
   -6.1674    0.6678    1.2905 H   0  0  0  0  0  0  0  0  0  0  0  0
   -4.9096   -1.4368    1.6518 H   0  0  0  0  0  0  0  0  0  0  0  0
   -0.1541    2.2954   -0.9072 H   0  0  0  0  0  0  0  0  0  0  0  0
   -2.1230    0.4300   -2.1228 H   0  0  0  0  0  0  0  0  0  0  0  0
   -0.3340    0.1364   -2.3042 H   0  0  0  0  0  0  0  0  0  0  0  0
   -2.6426   -1.6629   -1.4508 H   0  0  0  0  0  0  0  0  0  0  0  0
   -1.3861   -1.9743   -2.6444 H   0  0  0  0  0  0  0  0  0  0  0  0
   -0.2852   -2.4261    1.3106 H   0  0  0  0  0  0  0  0  0  0  0  0
   -2.7804   -2.6840    0.3800 H   0  0  0  0  0  0  0  0  0  0  0  0
   -2.4193   -2.2996    2.0496 H   0  0  0  0  0  0  0  0  0  0  0  0
   -1.5478   -0.5289    2.5996 H   0  0  0  0  0  0  0  0  0  0  0  0
    0.1159   -0.0209    2.7966 H   0  0  0  0  0  0  0  0  0  0  0  0
   -2.3084    1.6471    2.3278 H   0  0  0  0  0  0  0  0  0  0  0  0
   -0.8199    1.9763    3.2408 H   0  0  0  0  0  0  0  0  0  0  0  0
    1.4464    0.5304    1.4442 H   0  0  0  0  0  0  0  0  0  0  0  0
    3.7024    0.4983    0.6339 H   0  0  0  0  0  0  0  0  0  0  0  0
    3.9005   -1.1152   -1.8910 H   0  0  0  0  0  0  0  0  0  0  0  0
    5.6528    1.0069    0.7635 H   0  0  0  0  0  0  0  0  0  0  0  0
    8.0121    1.5304    0.7803 H   0  0  0  0  0  0  0  0  0  0  0  0
    9.4856    0.6458   -1.0560 H   0  0  0  0  0  0  0  0  0  0  0  0
    8.5048   -0.7294   -2.8276 H   0  0  0  0  0  0  0  0  0  0  0  0
   -1.0181   -4.0826    0.3073 H   0  0  0  0  0  0  0  0  0  0  0  0
   -1.8173   -3.9312   -1.3201 H   0  0  0  0  0  0  0  0  0  0  0  0
   -0.0609   -4.1819   -1.1689 H   0  0  0  0  0  0  0  0  0  0  0  0
  1  2  1  0
  2  3  1  0
  3  4  2  0
  4  5  1  0
  5  6  2  0
  6  7  1  0
  7  8  2  0
  8  9  1  0
  9 10  1  0
 10 11  1  0
 11 12  1  6
 12 13  1  0
 13 14  1  0
 14 15  1  0
 15 16  1  0
 15 17  1  0
 17 18  1  0
 18 19  1  0
 19 20  1  0
 20 21  2  0
 17 22  1  1
 22 23  1  0
 23 24  2  0
 23 25  1  0
 25 26  2  0
 26 27  1  0
 27 28  2  0
 28 29  1  0
 29 30  2  0
 30 31  1  0
 31 32  2  0
 32 33  1  0
 14 34  1  0
  8  3  1  0
 20 10  1  0
 32 27  1  0
 16  6  1  0
 11  7  1  0
 17 11  1  0
  1 35  1  0
  1 36  1  0
  1 37  1  0
  4 38  1  0
  5 39  1  0
 10 40  1  6
 12 41  1  0
 12 42  1  0
 13 43  1  0
 13 44  1  0
 15 45  1  1
 16 46  1  0
 16 47  1  0
 18 48  1  0
 18 49  1  0
 19 50  1  0
 19 51  1  0
 22 52  1  0
 25 53  1  0
 26 54  1  0
 28 55  1  0
 29 56  1  0
 30 57  1  0
 31 58  1  0
 34 59  1  0
 34 60  1  0
 34 61  1  0
M  END
>  <Ligand ID>  (1) 
LIG0004598

>  <Ligand>  (1) 
CHEMBL607016

>  <SMILES>  (1) 
COc1ccc2c3c1O[C@@H]1[C@@]43CCN([C@H](C2)[C@@]4(CCC1=O)NC(=O)/C=C/c1ccccc1Cl)C

>  <CID>  (1) 
11849361.0

>  <ChEMBL ID>  (1) 
nan

>  <InChiKey>  (1) 
CEMNPQJBUQZWJA-LDHJJSPKSA-N

>  <InChi>  (1) 
InChI=1S/C27H27ClN2O4/c1-30-14-13-26-23-17-7-9-20(33-2)24(23)34-25(26)19(31)11-12-27(26,21(30)15-17)29-22(32)10-8-16-5-3-4-6-18(16)28/h3-10,21,25H,11-15H2,1-2H3,(H,29,32)/b10-8+/t21-,25+,26+,27-/m1/s1

>  <IUPAC Name>  (1) 
(E)-N-[(4R,4aS,7aR,12bR)-9-methoxy-3-methyl-7-oxo-2,4,5,6,7a,13-hexahydro-1H-4,12-methanobenzofuro[3,2-e]isoquinolin-4a-yl]-3-(2-chlorophenyl)prop-2-enamide

$$$$
