
     RDKit          3D

 72 79  0  0  0  0  0  0  0  0999 V2000
   -5.5461    3.5883   -0.2769 C   0  0  0  0  0  0  0  0  0  0  0  0
   -4.1357    3.3733   -0.3140 O   0  0  0  0  0  0  0  0  0  0  0  0
   -3.7043    2.0665   -0.5633 C   0  0  0  0  0  0  0  0  0  0  0  0
   -4.6270    1.0640   -0.7569 C   0  0  0  0  0  0  0  0  0  0  0  0
   -4.1847   -0.2286   -1.0051 C   0  0  0  0  0  0  0  0  0  0  0  0
   -2.8132   -0.4987   -1.0543 C   0  0  0  0  0  0  0  0  0  0  0  0
   -1.8837    0.5416   -0.8534 C   0  0  0  0  0  0  0  0  0  0  0  0
   -2.3311    1.8052   -0.6113 C   0  0  0  0  0  0  0  0  0  0  0  0
   -1.4292    2.8122   -0.4184 O   0  0  0  0  0  0  0  0  0  0  0  0
   -0.4705    0.1458   -0.9201 C   0  0  2  0  0  0  0  0  0  0  0  0
   -0.0584   -0.1627   -2.3139 C   0  0  0  0  0  0  0  0  0  0  0  0
    0.2131   -1.5585   -2.6908 C   0  0  0  0  0  0  0  0  0  0  0  0
   -0.0022   -2.5788   -1.7033 N   0  0  0  0  0  0  0  0  0  0  0  0
   -0.9863   -2.1873   -0.7083 C   0  0  0  0  0  0  0  0  0  0  0  0
   -2.3033   -1.8478   -1.3045 C   0  0  0  0  0  0  0  0  0  0  0  0
   -0.3618   -1.0450    0.0231 C   0  0  2  0  0  0  0  0  0  0  0  0
   -1.0559   -0.8105    1.3214 C   0  0  0  0  0  0  0  0  0  0  0  0
   -0.4880    0.4229    1.9442 C   0  0  0  0  0  0  0  0  0  0  0  0
    0.2582    1.2965    1.1554 C   0  0  0  0  0  0  0  0  0  0  0  0
    0.5202    1.0574   -0.2760 C   0  0  1  0  0  0  0  0  0  0  0  0
    1.7004    0.1019   -0.3330 C   0  0  0  0  0  0  0  0  0  0  0  0
    2.9143    0.3370   -0.7727 C   0  0  0  0  0  0  0  0  0  0  0  0
    3.9350   -0.7354   -0.7462 C   0  0  0  0  0  0  0  0  0  0  0  0
    4.1624   -1.5056    0.3664 C   0  0  0  0  0  0  0  0  0  0  0  0
    5.1001   -2.5465    0.3707 C   0  0  0  0  0  0  0  0  0  0  0  0
    5.8258   -2.8178   -0.7734 C   0  0  0  0  0  0  0  0  0  0  0  0
    5.6110   -2.0569   -1.8945 C   0  0  0  0  0  0  0  0  0  0  0  0
    4.6827   -1.0304   -1.8886 C   0  0  0  0  0  0  0  0  0  0  0  0
    3.2810    1.6595   -1.2918 C   0  0  0  0  0  0  0  0  0  0  0  0
    1.1338   -1.1638    0.2084 C   0  0  0  0  0  0  0  0  0  0  0  0
    0.6780    2.3407    1.9125 N   0  0  0  0  0  0  0  0  0  0  0  0
    0.2008    2.1287    3.1756 C   0  0  0  0  0  0  0  0  0  0  0  0
   -0.5187    0.9530    3.2116 C   0  0  0  0  0  0  0  0  0  0  0  0
   -1.1121    0.4786    4.3595 C   0  0  0  0  0  0  0  0  0  0  0  0
   -0.9621    1.2413    5.5192 C   0  0  0  0  0  0  0  0  0  0  0  0
   -0.2363    2.4218    5.4628 C   0  0  0  0  0  0  0  0  0  0  0  0
    0.3582    2.9000    4.3247 C   0  0  0  0  0  0  0  0  0  0  0  0
   -0.3686   -3.8307   -2.3278 C   0  0  0  0  0  0  0  0  0  0  0  0
   -5.9390    3.3545   -1.2618 H   0  0  0  0  0  0  0  0  0  0  0  0
   -5.7847    4.6174    0.0666 H   0  0  0  0  0  0  0  0  0  0  0  0
   -6.0324    2.9053    0.4674 H   0  0  0  0  0  0  0  0  0  0  0  0
   -5.7006    1.2246   -0.7264 H   0  0  0  0  0  0  0  0  0  0  0  0
   -4.8929   -1.0127   -1.1581 H   0  0  0  0  0  0  0  0  0  0  0  0
   -1.6189    3.8064   -0.5889 H   0  0  0  0  0  0  0  0  0  0  0  0
    0.7934    0.5258   -2.6016 H   0  0  0  0  0  0  0  0  0  0  0  0
   -0.8827    0.2126   -2.9899 H   0  0  0  0  0  0  0  0  0  0  0  0
    1.2791   -1.6425   -3.0093 H   0  0  0  0  0  0  0  0  0  0  0  0
   -0.3787   -1.8833   -3.5986 H   0  0  0  0  0  0  0  0  0  0  0  0
   -1.1041   -3.0352   -0.0127 H   0  0  0  0  0  0  0  0  0  0  0  0
   -3.0882   -2.5685   -0.9579 H   0  0  0  0  0  0  0  0  0  0  0  0
   -2.2215   -2.0480   -2.4127 H   0  0  0  0  0  0  0  0  0  0  0  0
   -0.8286   -1.7095    1.9634 H   0  0  0  0  0  0  0  0  0  0  0  0
   -2.1262   -0.7344    1.2247 H   0  0  0  0  0  0  0  0  0  0  0  0
    0.7157    1.9903   -0.8142 H   0  0  0  0  0  0  0  0  0  0  0  0
    3.6505   -1.3462    1.2966 H   0  0  0  0  0  0  0  0  0  0  0  0
    5.2388   -3.1284    1.2998 H   0  0  0  0  0  0  0  0  0  0  0  0
    6.5286   -3.6286   -0.7142 H   0  0  0  0  0  0  0  0  0  0  0  0
    6.1687   -2.2536   -2.7982 H   0  0  0  0  0  0  0  0  0  0  0  0
    4.5443   -0.4484   -2.7973 H   0  0  0  0  0  0  0  0  0  0  0  0
    4.0754    1.4895   -2.0707 H   0  0  0  0  0  0  0  0  0  0  0  0
    3.7798    2.2942   -0.5220 H   0  0  0  0  0  0  0  0  0  0  0  0
    2.4938    2.2226   -1.7982 H   0  0  0  0  0  0  0  0  0  0  0  0
    1.4961   -2.0582   -0.2815 H   0  0  0  0  0  0  0  0  0  0  0  0
    1.3489   -1.1494    1.3191 H   0  0  0  0  0  0  0  0  0  0  0  0
    1.2589    3.1662    1.6155 H   0  0  0  0  0  0  0  0  0  0  0  0
   -1.6781   -0.4220    4.4282 H   0  0  0  0  0  0  0  0  0  0  0  0
   -1.4279    0.8856    6.4405 H   0  0  0  0  0  0  0  0  0  0  0  0
   -0.1329    2.9917    6.3629 H   0  0  0  0  0  0  0  0  0  0  0  0
    0.8999    3.8161    4.3608 H   0  0  0  0  0  0  0  0  0  0  0  0
    0.5479   -4.4587   -2.4172 H   0  0  0  0  0  0  0  0  0  0  0  0
   -0.9381   -3.7113   -3.2530 H   0  0  0  0  0  0  0  0  0  0  0  0
   -1.0405   -4.3951   -1.6176 H   0  0  0  0  0  0  0  0  0  0  0  0
  1  2  1  0
  2  3  1  0
  3  4  2  0
  4  5  1  0
  5  6  2  0
  6  7  1  0
  7  8  2  0
  8  9  1  0
  7 10  1  0
 10 11  1  6
 11 12  1  0
 12 13  1  0
 13 14  1  0
 14 15  1  0
 14 16  1  0
 16 17  1  1
 17 18  1  0
 18 19  2  0
 19 20  1  0
 20 21  1  0
 21 22  2  0
 22 23  1  0
 23 24  2  0
 24 25  1  0
 25 26  2  0
 26 27  1  0
 27 28  2  0
 22 29  1  0
 21 30  1  0
 19 31  1  0
 31 32  1  0
 32 33  2  0
 33 34  1  0
 34 35  2  0
 35 36  1  0
 36 37  2  0
 13 38  1  0
  8  3  1  0
 20 10  1  0
 28 23  1  0
 37 32  1  0
 15  6  1  0
 30 16  1  0
 16 10  1  0
 33 18  1  0
  1 39  1  0
  1 40  1  0
  1 41  1  0
  4 42  1  0
  5 43  1  0
  9 44  1  0
 11 45  1  0
 11 46  1  0
 12 47  1  0
 12 48  1  0
 14 49  1  0
 15 50  1  0
 15 51  1  0
 17 52  1  0
 17 53  1  0
 20 54  1  6
 24 55  1  0
 25 56  1  0
 26 57  1  0
 27 58  1  0
 28 59  1  0
 29 60  1  0
 29 61  1  0
 29 62  1  0
 30 63  1  0
 30 64  1  0
 31 65  1  0
 34 66  1  0
 35 67  1  0
 36 68  1  0
 37 69  1  0
 38 70  1  0
 38 71  1  0
 38 72  1  0
M  END
>  <Ligand ID>  (1) 
LIG0002321

>  <Ligand>  (1) 
CHEMBL107420

>  <SMILES>  (1) 
COc1ccc2c(c1O)[C@@]13CCN(C(C2)[C@@]23Cc3c([C@H]1/C(=C(/c1ccccc1)\C)/C2)[nH]c1c3cccc1)C

>  <CID>  (1) 
44337800.0

>  <ChEMBL ID>  (1) 
nan

>  <InChiKey>  (1) 
JIODEYLJTASFJC-KQVVFFMJSA-N

>  <InChi>  (1) 
InChI=1S/C34H34N2O2/c1-20(21-9-5-4-6-10-21)24-18-33-19-25-23-11-7-8-12-26(23)35-31(25)30(24)34(33)15-16-36(2)28(33)17-22-13-14-27(38-3)32(37)29(22)34/h4-14,28,30,35,37H,15-19H2,1-3H3/b24-20+/t28?,30-,33+,34+/m1/s1

>  <IUPAC Name>  (1) 
(1S,2S,13R,26E)-19-methoxy-24-methyl-26-(1-phenylethylidene)-4,24-diazaheptacyclo[12.7.3.22,13.01,13.03,11.05,10.016,21]hexacosa-3(11),5,7,9,16(21),17,19-heptaen-20-ol

$$$$
