
     RDKit          3D

 96 99  0  0  0  0  0  0  0  0999 V2000
    4.7534    2.1738    0.3598 O   0  0  0  0  0  0  0  0  0  0  0  0
    4.6267    0.9082    0.2444 C   0  0  0  0  0  0  0  0  0  0  0  0
    5.8256    0.0989    0.5776 C   0  0  0  0  0  0  0  0  0  0  0  0
    5.6016   -1.3296    0.4143 N   0  0  0  0  0  0  0  0  0  0  0  0
    5.0981   -2.1098    1.5139 C   0  0  0  0  0  0  0  0  0  0  0  0
    4.8854   -3.3569    1.3970 O   0  0  0  0  0  0  0  0  0  0  0  0
    4.8266   -1.4251    2.8074 C   0  0  0  0  0  0  0  0  0  0  0  0
    5.9093   -1.9026   -0.8662 C   0  0  0  0  0  0  0  0  0  0  0  0
    7.3316   -2.3424   -0.9091 C   0  0  0  0  0  0  0  0  0  0  0  0
    7.5896   -3.3520    0.1283 C   0  0  0  0  0  0  0  0  0  0  0  0
    7.4322   -4.7229   -0.0848 C   0  0  0  0  0  0  0  0  0  0  0  0
    7.7599   -5.3140    1.0859 N   0  0  0  0  0  0  0  0  0  0  0  0
    8.1025   -4.3447    1.9753 C   0  0  0  0  0  0  0  0  0  0  0  0
    8.0005   -3.1340    1.3947 N   0  0  0  0  0  0  0  0  0  0  0  0
    3.3908    0.3298   -0.1807 N   0  0  0  0  0  0  0  0  0  0  0  0
    2.2199    1.0879   -0.5012 C   0  0  2  0  0  0  0  0  0  0  0  0
    1.1043    0.8160    0.4801 C   0  0  0  0  0  0  0  0  0  0  0  0
    1.3407    0.0011    1.4369 O   0  0  0  0  0  0  0  0  0  0  0  0
   -0.1354    1.4617    0.3055 N   0  0  0  0  0  0  0  0  0  0  0  0
   -1.2756    1.2422    1.2340 C   0  0  2  0  0  0  0  0  0  0  0  0
   -2.4168    0.6785    0.5005 C   0  0  0  0  0  0  0  0  0  0  0  0
   -2.3044    0.6283   -0.7730 O   0  0  0  0  0  0  0  0  0  0  0  0
   -3.6075    0.1897    1.0665 N   0  0  0  0  0  0  0  0  0  0  0  0
   -4.6291   -0.3303    0.1888 C   0  0  2  0  0  0  0  0  0  0  0  0
   -5.8694    0.4899    0.2403 C   0  0  0  0  0  0  0  0  0  0  0  0
   -5.9852    1.5046    0.9948 O   0  0  0  0  0  0  0  0  0  0  0  0
   -7.0037    0.1809   -0.5598 N   0  0  0  0  0  0  0  0  0  0  0  0
   -4.9553   -1.7298    0.6722 C   0  0  0  0  0  0  0  0  0  0  0  0
   -5.9901   -2.3511   -0.1584 C   0  0  0  0  0  0  0  0  0  0  0  0
   -7.3129   -2.5147    0.1943 C   0  0  0  0  0  0  0  0  0  0  0  0
   -7.9313   -3.1277   -0.8382 N   0  0  0  0  0  0  0  0  0  0  0  0
   -7.0199   -3.3463   -1.8204 C   0  0  0  0  0  0  0  0  0  0  0  0
   -5.7802   -2.8671   -1.4236 C   0  0  0  0  0  0  0  0  0  0  0  0
   -4.6586   -2.9621   -2.2445 C   0  0  0  0  0  0  0  0  0  0  0  0
   -4.8009   -3.5546   -3.4900 C   0  0  0  0  0  0  0  0  0  0  0  0
   -6.0318   -4.0488   -3.9253 C   0  0  0  0  0  0  0  0  0  0  0  0
   -7.1162   -3.9361   -3.0850 C   0  0  0  0  0  0  0  0  0  0  0  0
   -1.6020    2.6226    1.7310 C   0  0  0  0  0  0  0  0  0  0  0  0
   -2.7426    2.7221    2.6993 C   0  0  0  0  0  0  0  0  0  0  0  0
   -2.8469    4.1955    3.0800 C   0  0  0  0  0  0  0  0  0  0  0  0
   -3.9026    4.4588    4.0074 N   0  0  0  0  0  0  0  0  0  0  0  0
   -4.5143    5.5952    3.9359 C   0  0  0  0  0  0  0  0  0  0  0  0
   -4.1695    6.5711    2.9758 N   0  0  0  0  0  0  0  0  0  0  0  0
   -5.5688    5.8699    4.8541 N   0  0  0  0  0  0  0  0  0  0  0  0
    1.7322    0.7404   -1.8798 C   0  0  0  0  0  0  0  0  0  0  0  0
    2.7862    1.0496   -2.8728 C   0  0  0  0  0  0  0  0  0  0  0  0
    3.7412    0.1470   -3.2881 C   0  0  0  0  0  0  0  0  0  0  0  0
    4.6991    0.4859   -4.2167 C   0  0  0  0  0  0  0  0  0  0  0  0
    4.7349    1.7455   -4.7643 C   0  0  0  0  0  0  0  0  0  0  0  0
    3.7807    2.6855   -4.3649 C   0  0  0  0  0  0  0  0  0  0  0  0
    2.8344    2.3151   -3.4330 C   0  0  0  0  0  0  0  0  0  0  0  0
    6.0317    0.3027    1.6690 H   0  0  0  0  0  0  0  0  0  0  0  0
    6.7437    0.4407    0.0592 H   0  0  0  0  0  0  0  0  0  0  0  0
    5.7494   -0.9937    3.2371 H   0  0  0  0  0  0  0  0  0  0  0  0
    4.4296   -2.1777    3.5357 H   0  0  0  0  0  0  0  0  0  0  0  0
    4.0808   -0.6238    2.7209 H   0  0  0  0  0  0  0  0  0  0  0  0
    5.2582   -2.7640   -1.0486 H   0  0  0  0  0  0  0  0  0  0  0  0
    5.7593   -1.1463   -1.6835 H   0  0  0  0  0  0  0  0  0  0  0  0
    8.0358   -1.4857   -0.7760 H   0  0  0  0  0  0  0  0  0  0  0  0
    7.5529   -2.7928   -1.9213 H   0  0  0  0  0  0  0  0  0  0  0  0
    7.1122   -5.1752   -1.0110 H   0  0  0  0  0  0  0  0  0  0  0  0
    8.4022   -4.5774    2.9810 H   0  0  0  0  0  0  0  0  0  0  0  0
    8.2092   -2.2402    1.8723 H   0  0  0  0  0  0  0  0  0  0  0  0
    3.3403   -0.7064   -0.2626 H   0  0  0  0  0  0  0  0  0  0  0  0
    2.4048    2.1855   -0.4457 H   0  0  0  0  0  0  0  0  0  0  0  0
   -0.2715    2.1179   -0.4965 H   0  0  0  0  0  0  0  0  0  0  0  0
   -0.8703    0.5840    2.0063 H   0  0  0  0  0  0  0  0  0  0  0  0
   -3.7358    0.1920    2.0915 H   0  0  0  0  0  0  0  0  0  0  0  0
   -4.2848   -0.3172   -0.8579 H   0  0  0  0  0  0  0  0  0  0  0  0
   -6.8885   -0.1505   -1.5391 H   0  0  0  0  0  0  0  0  0  0  0  0
   -7.9780    0.2702   -0.2127 H   0  0  0  0  0  0  0  0  0  0  0  0
   -3.9943   -2.3178    0.5772 H   0  0  0  0  0  0  0  0  0  0  0  0
   -5.2627   -1.6681    1.7414 H   0  0  0  0  0  0  0  0  0  0  0  0
   -7.8147   -2.2178    1.1284 H   0  0  0  0  0  0  0  0  0  0  0  0
   -8.9519   -3.4045   -0.9028 H   0  0  0  0  0  0  0  0  0  0  0  0
   -3.6915   -2.5813   -1.9188 H   0  0  0  0  0  0  0  0  0  0  0  0
   -3.9367   -3.6453   -4.1618 H   0  0  0  0  0  0  0  0  0  0  0  0
   -6.1238   -4.5132   -4.9140 H   0  0  0  0  0  0  0  0  0  0  0  0
   -8.0556   -4.3151   -3.4211 H   0  0  0  0  0  0  0  0  0  0  0  0
   -1.8720    3.3082    0.8706 H   0  0  0  0  0  0  0  0  0  0  0  0
   -0.6887    3.1309    2.1586 H   0  0  0  0  0  0  0  0  0  0  0  0
   -2.6894    2.0756    3.5673 H   0  0  0  0  0  0  0  0  0  0  0  0
   -3.7179    2.4953    2.1704 H   0  0  0  0  0  0  0  0  0  0  0  0
   -3.0388    4.7606    2.1489 H   0  0  0  0  0  0  0  0  0  0  0  0
   -1.8441    4.4889    3.4500 H   0  0  0  0  0  0  0  0  0  0  0  0
   -3.2030    6.7366    2.6215 H   0  0  0  0  0  0  0  0  0  0  0  0
   -4.9408    7.1657    2.5976 H   0  0  0  0  0  0  0  0  0  0  0  0
   -5.7198    6.8518    5.2052 H   0  0  0  0  0  0  0  0  0  0  0  0
   -6.2246    5.1565    5.2190 H   0  0  0  0  0  0  0  0  0  0  0  0
    0.7905    1.2646   -2.1426 H   0  0  0  0  0  0  0  0  0  0  0  0
    1.4824   -0.3519   -1.9427 H   0  0  0  0  0  0  0  0  0  0  0  0
    3.6913   -0.8414   -2.8420 H   0  0  0  0  0  0  0  0  0  0  0  0
    5.4243   -0.2554   -4.5086 H   0  0  0  0  0  0  0  0  0  0  0  0
    5.4702    2.0639   -5.5019 H   0  0  0  0  0  0  0  0  0  0  0  0
    3.7817    3.7020   -4.7844 H   0  0  0  0  0  0  0  0  0  0  0  0
    2.1126    3.0760   -3.1502 H   0  0  0  0  0  0  0  0  0  0  0  0
  1  2  2  0
  2  3  1  0
  3  4  1  0
  4  5  1  0
  5  6  2  0
  5  7  1  0
  4  8  1  0
  8  9  1  0
  9 10  1  0
 10 11  2  0
 11 12  1  0
 12 13  2  0
 13 14  1  0
  2 15  1  0
 15 16  1  0
 16 17  1  0
 17 18  2  0
 17 19  1  0
 19 20  1  0
 20 21  1  0
 21 22  2  0
 21 23  1  0
 23 24  1  0
 24 25  1  0
 25 26  2  0
 25 27  1  0
 24 28  1  0
 28 29  1  0
 29 30  2  0
 30 31  1  0
 31 32  1  0
 32 33  2  0
 33 34  1  0
 34 35  2  0
 35 36  1  0
 36 37  2  0
 20 38  1  0
 38 39  1  0
 39 40  1  0
 40 41  1  0
 41 42  2  3
 42 43  1  0
 42 44  1  0
 16 45  1  0
 45 46  1  0
 46 47  2  0
 47 48  1  0
 48 49  2  0
 49 50  1  0
 50 51  2  0
 14 10  1  0
 33 29  1  0
 51 46  1  0
 37 32  1  0
  3 52  1  0
  3 53  1  0
  7 54  1  0
  7 55  1  0
  7 56  1  0
  8 57  1  0
  8 58  1  0
  9 59  1  0
  9 60  1  0
 11 61  1  0
 13 62  1  0
 14 63  1  0
 15 64  1  0
 16 65  1  6
 19 66  1  0
 20 67  1  1
 23 68  1  0
 24 69  1  6
 27 70  1  0
 27 71  1  0
 28 72  1  0
 28 73  1  0
 30 74  1  0
 31 75  1  0
 34 76  1  0
 35 77  1  0
 36 78  1  0
 37 79  1  0
 38 80  1  0
 38 81  1  0
 39 82  1  0
 39 83  1  0
 40 84  1  0
 40 85  1  0
 43 86  1  0
 43 87  1  0
 44 88  1  0
 44 89  1  0
 45 90  1  0
 45 91  1  0
 47 92  1  0
 48 93  1  0
 49 94  1  0
 50 95  1  0
 51 96  1  0
M  END
>  <Ligand ID>  (1) 
LIG0003281

>  <Ligand>  (1) 
CHEMBL140847

>  <SMILES>  (1) 
O=C(CN(C(=O)C)CCc1cnc[nH]1)N[C@H](C(=O)N[C@H](C(=O)N[C@H](C(=O)N)Cc1c[nH]c2c1cccc2)CCCN=C(N)N)Cc1ccccc1

>  <CID>  (1) 
44359591.0

>  <ChEMBL ID>  (1) 
nan

>  <InChiKey>  (1) 
LQSYLOZZPPJYIZ-DTXPUJKBSA-N

>  <InChi>  (1) 
InChI=1S/C35H45N11O5/c1-22(47)46(15-13-25-19-39-21-42-25)20-31(48)43-30(16-23-8-3-2-4-9-23)34(51)44-28(12-7-14-40-35(37)38)33(50)45-29(32(36)49)17-24-18-41-27-11-6-5-10-26(24)27/h2-6,8-11,18-19,21,28-30,41H,7,12-17,20H2,1H3,(H2,36,49)(H,39,42)(H,43,48)(H,44,51)(H,45,50)(H4,37,38,40)/t28-,29-,30-/m0/s1

>  <IUPAC Name>  (1) 
(2S)-2-[[(2S)-2-[[2-[acetyl-[2-(1H-imidazol-5-yl)ethyl]amino]acetyl]amino]-3-phenylpropanoyl]amino]-N-[(2S)-1-amino-3-(1H-indol-3-yl)-1-oxopropan-2-yl]-5-(diaminomethylideneamino)pentanamide

$$$$
