
     RDKit          3D

 48 49  0  0  0  0  0  0  0  0999 V2000
   -1.0312   -0.9079    0.2793 O   0  0  0  0  0  0  0  0  0  0  0  0
   -0.3452   -0.1558   -0.4859 C   0  0  0  0  0  0  0  0  0  0  0  0
   -1.0259    0.3871   -1.6779 C   0  0  0  0  0  0  0  0  0  0  0  0
   -2.7524   -0.1835   -1.7396 S   0  0  0  0  0  0  0  0  0  0  0  0
   -3.7101    0.4727   -0.4123 C   0  0  0  0  0  0  0  0  0  0  0  0
   -3.0286    1.4677    0.6754 S   0  0  0  0  0  0  0  0  0  0  0  0
   -5.0904    0.1129   -0.3144 N   0  0  0  0  0  0  0  0  0  0  0  0
   -5.7735   -0.7687   -1.2427 C   0  0  0  0  0  0  0  0  0  0  0  0
   -6.8376   -1.4344   -0.3941 C   0  0  0  0  0  0  0  0  0  0  0  0
   -7.1064   -0.4495    0.7360 C   0  0  0  0  0  0  0  0  0  0  0  0
   -6.0044    0.5641    0.7081 C   0  0  0  0  0  0  0  0  0  0  0  0
    1.0132    0.1315   -0.1816 N   0  0  0  0  0  0  0  0  0  0  0  0
    1.5683   -0.4552    1.0084 C   0  0  0  0  0  0  0  0  0  0  0  0
    3.0135   -0.0997    1.2629 C   0  0  0  0  0  0  0  0  0  0  0  0
    3.8555   -0.5580    0.1426 C   0  0  0  0  0  0  0  0  0  0  0  0
    5.1906   -0.2120    0.1382 C   0  0  0  0  0  0  0  0  0  0  0  0
    6.0505   -0.6091   -0.8789 C   0  0  0  0  0  0  0  0  0  0  0  0
    5.5451   -1.3710   -1.9093 C   0  0  0  0  0  0  0  0  0  0  0  0
    4.2162   -1.7406   -1.9460 C   0  0  0  0  0  0  0  0  0  0  0  0
    3.4061   -1.3205   -0.9126 C   0  0  0  0  0  0  0  0  0  0  0  0
    3.2179    1.2301    1.6681 N   0  0  0  0  0  0  0  0  0  0  0  0
    2.8436    2.2954    0.8414 C   0  0  0  0  0  0  0  0  0  0  0  0
    3.9830    1.4841    2.8281 C   0  0  0  0  0  0  0  0  0  0  0  0
   -0.5304    0.0329   -2.5842 H   0  0  0  0  0  0  0  0  0  0  0  0
   -1.0559    1.5016   -1.6542 H   0  0  0  0  0  0  0  0  0  0  0  0
   -6.2460   -0.1426   -2.0162 H   0  0  0  0  0  0  0  0  0  0  0  0
   -5.1077   -1.5207   -1.6650 H   0  0  0  0  0  0  0  0  0  0  0  0
   -7.7388   -1.6119   -0.9901 H   0  0  0  0  0  0  0  0  0  0  0  0
   -6.4626   -2.4085   -0.0258 H   0  0  0  0  0  0  0  0  0  0  0  0
   -7.1301   -0.9971    1.6965 H   0  0  0  0  0  0  0  0  0  0  0  0
   -8.0929    0.0517    0.5546 H   0  0  0  0  0  0  0  0  0  0  0  0
   -6.3914    1.5470    0.3967 H   0  0  0  0  0  0  0  0  0  0  0  0
   -5.5019    0.6184    1.6926 H   0  0  0  0  0  0  0  0  0  0  0  0
    1.5304    0.7525   -0.8414 H   0  0  0  0  0  0  0  0  0  0  0  0
    1.4739   -1.5626    0.8916 H   0  0  0  0  0  0  0  0  0  0  0  0
    0.9550   -0.2348    1.9234 H   0  0  0  0  0  0  0  0  0  0  0  0
    3.3057   -0.7431    2.1465 H   0  0  0  0  0  0  0  0  0  0  0  0
    5.6367    0.3832    0.9213 H   0  0  0  0  0  0  0  0  0  0  0  0
    7.1068   -0.3293   -0.8725 H   0  0  0  0  0  0  0  0  0  0  0  0
    6.1559   -1.7193   -2.7401 H   0  0  0  0  0  0  0  0  0  0  0  0
    3.7991   -2.3428   -2.7529 H   0  0  0  0  0  0  0  0  0  0  0  0
    2.3708   -1.6235   -0.9584 H   0  0  0  0  0  0  0  0  0  0  0  0
    1.7280    2.4225    0.8693 H   0  0  0  0  0  0  0  0  0  0  0  0
    3.2421    2.2981   -0.1901 H   0  0  0  0  0  0  0  0  0  0  0  0
    3.2182    3.2546    1.2848 H   0  0  0  0  0  0  0  0  0  0  0  0
    3.2739    1.6261    3.6948 H   0  0  0  0  0  0  0  0  0  0  0  0
    4.5514    0.5570    3.0847 H   0  0  0  0  0  0  0  0  0  0  0  0
    4.7118    2.3108    2.7514 H   0  0  0  0  0  0  0  0  0  0  0  0
  1  2  2  0
  2  3  1  0
  3  4  1  0
  4  5  1  0
  5  6  2  0
  5  7  1  0
  7  8  1  0
  8  9  1  0
  9 10  1  0
 10 11  1  0
  2 12  1  0
 12 13  1  0
 13 14  1  0
 14 15  1  0
 15 16  2  0
 16 17  1  0
 17 18  2  0
 18 19  1  0
 19 20  2  0
 14 21  1  0
 21 22  1  0
 21 23  1  0
 11  7  1  0
 20 15  1  0
  3 24  1  0
  3 25  1  0
  8 26  1  0
  8 27  1  0
  9 28  1  0
  9 29  1  0
 10 30  1  0
 10 31  1  0
 11 32  1  0
 11 33  1  0
 12 34  1  0
 13 35  1  0
 13 36  1  0
 14 37  1  0
 16 38  1  0
 17 39  1  0
 18 40  1  0
 19 41  1  0
 20 42  1  0
 22 43  1  0
 22 44  1  0
 22 45  1  0
 23 46  1  0
 23 47  1  0
 23 48  1  0
M  END
>  <Ligand ID>  (1) 
LIG0004526

>  <Ligand>  (1) 
MLS002251349

>  <SMILES>  (1) 
O=C(CSC(=S)N1CCCC1)NCC(c1ccccc1)N(C)C

>  <CID>  (1) 
16312302.0

>  <ChEMBL ID>  (1) 
nan

>  <InChiKey>  (1) 
KOQGZSBWRDOVNG-UHFFFAOYSA-N

>  <InChi>  (1) 
InChI=1S/C17H25N3OS2/c1-19(2)15(14-8-4-3-5-9-14)12-18-16(21)13-23-17(22)20-10-6-7-11-20/h3-5,8-9,15H,6-7,10-13H2,1-2H3,(H,18,21)

>  <IUPAC Name>  (1) 
[2-[[2-(dimethylamino)-2-phenylethyl]amino]-2-oxoethyl] pyrrolidine-1-carbodithioate

$$$$
