
     RDKit          3D

 12 12  0  0  0  0  0  0  0  0999 V2000
    2.9872   -0.2750    0.0244 S   0  0  0  0  0  0  0  0  0  0  0  0
    1.3529   -0.1330    0.0111 C   0  0  0  0  0  0  0  0  0  0  0  0
    0.7604    1.1146   -0.0065 C   0  0  0  0  0  0  0  0  0  0  0  0
   -0.6198    1.2014   -0.0173 C   0  0  0  0  0  0  0  0  0  0  0  0
   -1.4298    0.1359   -0.0117 N   0  0  0  0  0  0  0  0  0  0  0  0
   -0.8660   -1.0752    0.0053 C   0  0  0  0  0  0  0  0  0  0  0  0
    0.5136   -1.2280    0.0168 C   0  0  0  0  0  0  0  0  0  0  0  0
    1.3685    2.0085   -0.0116 H   0  0  0  0  0  0  0  0  0  0  0  0
   -1.0358    2.2148   -0.0311 H   0  0  0  0  0  0  0  0  0  0  0  0
   -2.4653    0.2228   -0.0201 H   0  0  0  0  0  0  0  0  0  0  0  0
   -1.5110   -1.9455    0.0099 H   0  0  0  0  0  0  0  0  0  0  0  0
    0.9451   -2.2414    0.0308 H   0  0  0  0  0  0  0  0  0  0  0  0
  1  2  2  0
  2  3  1  0
  3  4  2  0
  4  5  1  0
  5  6  1  0
  6  7  2  0
  7  2  1  0
  3  8  1  0
  4  9  1  0
  5 10  1  0
  6 11  1  0
  7 12  1  0
M  END
>  <Ligand ID>  (1) 
LIG0005062

>  <Ligand>  (1) 
4-Thiopyridine

>  <SMILES>  (1) 
S=c1cc[nH]cc1

>  <CID>  (1) 
2723889.0

>  <ChEMBL ID>  (1) 
nan

>  <InChiKey>  (1) 
FHTDDANQIMVWKZ-UHFFFAOYSA-N

>  <InChi>  (1) 
InChI=1S/C5H5NS/c7-5-1-3-6-4-2-5/h1-4H,(H,6,7)

>  <IUPAC Name>  (1) 
1H-pyridine-4-thione

$$$$
