
     RDKit          3D

 34 36  0  0  0  0  0  0  0  0999 V2000
    6.1218    0.4591    2.3043 N   0  0  0  0  0  0  0  0  0  0  0  0
    5.2381    0.4934    1.5400 C   0  0  0  0  0  0  0  0  0  0  0  0
    4.1526    0.5259    0.5975 C   0  0  0  0  0  0  0  0  0  0  0  0
    4.2219    1.2752   -0.5780 C   0  0  0  0  0  0  0  0  0  0  0  0
    3.1901    1.2850   -1.4393 N   0  0  0  0  0  0  0  0  0  0  0  0
    2.0889    0.5865   -1.1926 C   0  0  0  0  0  0  0  0  0  0  0  0
    1.9708   -0.1790   -0.0306 C   0  0  0  0  0  0  0  0  0  0  0  0
    3.0331   -0.2027    0.8786 C   0  0  0  0  0  0  0  0  0  0  0  0
    0.8163   -0.9097    0.2256 C   0  0  0  0  0  0  0  0  0  0  0  0
    0.8118   -1.5657    1.3007 O   0  0  0  0  0  0  0  0  0  0  0  0
   -0.2290   -0.9071   -0.6351 N   0  0  0  0  0  0  0  0  0  0  0  0
   -0.0838   -0.1613   -1.7425 C   0  0  0  0  0  0  0  0  0  0  0  0
   -1.0206   -0.1183   -2.5805 O   0  0  0  0  0  0  0  0  0  0  0  0
    1.0156    0.5565   -2.0223 N   0  0  0  0  0  0  0  0  0  0  0  0
    1.1111    1.3451   -3.2410 C   0  0  0  0  0  0  0  0  0  0  0  0
   -1.3936   -1.6739   -0.3279 C   0  0  0  0  0  0  0  0  0  0  0  0
   -2.4290   -0.9710    0.4423 C   0  0  0  0  0  0  0  0  0  0  0  0
   -3.4199   -0.2780   -0.2445 C   0  0  0  0  0  0  0  0  0  0  0  0
   -4.4159    0.3989    0.4464 C   0  0  0  0  0  0  0  0  0  0  0  0
   -4.4118    0.3765    1.8261 C   0  0  0  0  0  0  0  0  0  0  0  0
   -3.4339   -0.3081    2.5519 C   0  0  0  0  0  0  0  0  0  0  0  0
   -2.4642   -0.9662    1.8220 C   0  0  0  0  0  0  0  0  0  0  0  0
    5.1292    1.8362   -0.7575 H   0  0  0  0  0  0  0  0  0  0  0  0
    2.9432   -0.7870    1.7659 H   0  0  0  0  0  0  0  0  0  0  0  0
    1.2968    2.4225   -3.0071 H   0  0  0  0  0  0  0  0  0  0  0  0
    0.1508    1.2927   -3.7869 H   0  0  0  0  0  0  0  0  0  0  0  0
    1.9170    1.0012   -3.9081 H   0  0  0  0  0  0  0  0  0  0  0  0
   -1.0719   -2.5645    0.2673 H   0  0  0  0  0  0  0  0  0  0  0  0
   -1.8653   -2.0458   -1.2660 H   0  0  0  0  0  0  0  0  0  0  0  0
   -3.4641   -0.2322   -1.3235 H   0  0  0  0  0  0  0  0  0  0  0  0
   -5.1914    0.9415   -0.1111 H   0  0  0  0  0  0  0  0  0  0  0  0
   -5.1818    0.8997    2.3698 H   0  0  0  0  0  0  0  0  0  0  0  0
   -3.4222   -0.3314    3.6282 H   0  0  0  0  0  0  0  0  0  0  0  0
   -1.7106   -1.4939    2.3938 H   0  0  0  0  0  0  0  0  0  0  0  0
  1  2  3  0
  2  3  1  0
  3  4  2  0
  4  5  1  0
  5  6  2  0
  6  7  1  0
  7  8  2  0
  7  9  1  0
  9 10  2  0
  9 11  1  0
 11 12  1  0
 12 13  2  0
 12 14  1  0
 14 15  1  0
 11 16  1  0
 16 17  1  0
 17 18  2  0
 18 19  1  0
 19 20  2  0
 20 21  1  0
 21 22  2  0
  8  3  1  0
 22 17  1  0
 14  6  1  0
  4 23  1  0
  8 24  1  0
 15 25  1  0
 15 26  1  0
 15 27  1  0
 16 28  1  0
 16 29  1  0
 18 30  1  0
 19 31  1  0
 20 32  1  0
 21 33  1  0
 22 34  1  0
M  END
>  <Ligand ID>  (1) 
LIG0004578

>  <Ligand>  (1) 
CHEMBL440917

>  <SMILES>  (1) 
N#Cc1cnc2c(c1)c(=O)n(c(=O)n2C)Cc1ccccc1

>  <CID>  (1) 
44371162.0

>  <ChEMBL ID>  (1) 
nan

>  <InChiKey>  (1) 
BIVMSUKQESISKU-UHFFFAOYSA-N

>  <InChi>  (1) 
InChI=1S/C16H12N4O2/c1-19-14-13(7-12(8-17)9-18-14)15(21)20(16(19)22)10-11-5-3-2-4-6-11/h2-7,9H,10H2,1H3

>  <IUPAC Name>  (1) 
3-benzyl-1-methyl-2,4-dioxopyrido[2,3-d]pyrimidine-6-carbonitrile

$$$$
