
     RDKit          3D

 97101  0  0  0  0  0  0  0  0999 V2000
   -2.1117   -6.7869    1.3774 N   0  0  0  0  0  0  0  0  0  0  0  0
   -0.8676   -6.4935    1.9919 C   0  0  0  0  0  0  0  0  0  0  0  0
   -0.4436   -5.2713    2.1233 N   0  0  0  0  0  0  0  0  0  0  0  0
   -1.2583   -4.1609    1.6285 C   0  0  0  0  0  0  0  0  0  0  0  0
   -0.9738   -2.8957    2.4078 C   0  0  0  0  0  0  0  0  0  0  0  0
   -1.7804   -1.7367    1.9116 C   0  0  0  0  0  0  0  0  0  0  0  0
   -1.5269   -1.3541    0.4759 C   0  0  1  0  0  0  0  0  0  0  0  0
   -2.4305   -0.1996    0.1814 C   0  0  0  0  0  0  0  0  0  0  0  0
   -1.8200    0.8755   -0.1486 O   0  0  0  0  0  0  0  0  0  0  0  0
   -3.8429   -0.2653    0.2547 N   0  0  0  0  0  0  0  0  0  0  0  0
   -4.5732    0.9536   -0.0543 C   0  0  2  0  0  0  0  0  0  0  0  0
   -5.6542    1.2208    0.8884 C   0  0  0  0  0  0  0  0  0  0  0  0
   -5.8506    0.4004    1.8478 O   0  0  0  0  0  0  0  0  0  0  0  0
   -6.5071    2.3524    0.7972 N   0  0  0  0  0  0  0  0  0  0  0  0
   -5.0429    0.8203   -1.5023 C   0  0  0  0  0  0  0  0  0  0  0  0
   -5.7895    2.0271   -1.8983 C   0  0  0  0  0  0  0  0  0  0  0  0
   -7.1696    2.1960   -2.0571 C   0  0  0  0  0  0  0  0  0  0  0  0
   -7.4029    3.4660   -2.4327 N   0  0  0  0  0  0  0  0  0  0  0  0
   -6.2144    4.1203   -2.5206 C   0  0  0  0  0  0  0  0  0  0  0  0
   -5.1971    3.2559   -2.1957 C   0  0  0  0  0  0  0  0  0  0  0  0
   -3.8966    3.6923   -2.2141 C   0  0  0  0  0  0  0  0  0  0  0  0
   -3.5721    5.0050   -2.5574 C   0  0  0  0  0  0  0  0  0  0  0  0
   -4.5916    5.8721   -2.8832 C   0  0  0  0  0  0  0  0  0  0  0  0
   -5.9194    5.4386   -2.8678 C   0  0  0  0  0  0  0  0  0  0  0  0
   -0.1579   -0.9977    0.2221 N   0  0  0  0  0  0  0  0  0  0  0  0
    0.7644   -1.7162   -0.5702 C   0  0  0  0  0  0  0  0  0  0  0  0
    0.4540   -2.7935   -1.1382 O   0  0  0  0  0  0  0  0  0  0  0  0
    2.1279   -1.1609   -0.7182 C   0  0  2  0  0  0  0  0  0  0  0  0
    2.2068    0.1595   -0.0836 N   0  0  0  0  0  0  0  0  0  0  0  0
    2.9755    0.4559    1.0597 C   0  0  0  0  0  0  0  0  0  0  0  0
    3.6895   -0.3823    1.6784 O   0  0  0  0  0  0  0  0  0  0  0  0
    2.8932    1.8959    1.5233 C   0  0  2  0  0  0  0  0  0  0  0  0
    3.3245    2.8277    0.4106 C   0  0  0  0  0  0  0  0  0  0  0  0
    4.8154    2.8770    0.3023 C   0  0  0  0  0  0  0  0  0  0  0  0
    5.4505    2.7957   -0.9155 C   0  0  0  0  0  0  0  0  0  0  0  0
    6.8337    2.8448   -0.9931 C   0  0  0  0  0  0  0  0  0  0  0  0
    7.5343    2.9755    0.1726 C   0  0  0  0  0  0  0  0  0  0  0  0
    6.8818    3.0568    1.4036 C   0  0  0  0  0  0  0  0  0  0  0  0
    5.5041    3.0087    1.4928 C   0  0  0  0  0  0  0  0  0  0  0  0
    4.7674    3.0861    2.7784 C   0  0  0  0  0  0  0  0  0  0  0  0
    3.6707    2.1406    2.7088 N   0  0  0  0  0  0  0  0  0  0  0  0
    3.3481    1.4200    3.9153 C   0  0  0  0  0  0  0  0  0  0  0  0
    2.3927    0.5649    3.9203 O   0  0  0  0  0  0  0  0  0  0  0  0
    4.0944    1.6333    5.1812 C   0  0  0  0  0  0  0  0  0  0  0  0
    2.5956   -1.1139   -2.1274 C   0  0  0  0  0  0  0  0  0  0  0  0
    2.6311   -2.4383   -2.7429 C   0  0  0  0  0  0  0  0  0  0  0  0
    3.7166   -3.2550   -2.5471 C   0  0  0  0  0  0  0  0  0  0  0  0
    3.8505   -4.5075   -3.1153 C   0  0  0  0  0  0  0  0  0  0  0  0
    2.8385   -4.9926   -3.9388 C   0  0  0  0  0  0  0  0  0  0  0  0
    1.7278   -4.1968   -4.1593 C   0  0  0  0  0  0  0  0  0  0  0  0
    1.6257   -2.9429   -3.5729 C   0  0  0  0  0  0  0  0  0  0  0  0
   -0.0008   -7.5255    2.5036 N   0  0  0  0  0  0  0  0  0  0  0  0
   -3.0144   -6.7018    1.9003 H   0  0  0  0  0  0  0  0  0  0  0  0
   -2.1459   -7.0979    0.3839 H   0  0  0  0  0  0  0  0  0  0  0  0
   -1.2237   -4.0408    0.5510 H   0  0  0  0  0  0  0  0  0  0  0  0
   -2.3142   -4.4678    1.8958 H   0  0  0  0  0  0  0  0  0  0  0  0
   -1.3753   -3.1094    3.4462 H   0  0  0  0  0  0  0  0  0  0  0  0
    0.1149   -2.6906    2.5005 H   0  0  0  0  0  0  0  0  0  0  0  0
   -2.8566   -2.0803    1.9494 H   0  0  0  0  0  0  0  0  0  0  0  0
   -1.7219   -0.8942    2.6096 H   0  0  0  0  0  0  0  0  0  0  0  0
   -1.8148   -2.1897   -0.1605 H   0  0  0  0  0  0  0  0  0  0  0  0
   -4.2887   -1.1629    0.5206 H   0  0  0  0  0  0  0  0  0  0  0  0
   -3.8061    1.7838   -0.0450 H   0  0  0  0  0  0  0  0  0  0  0  0
   -6.0801    3.3219    0.6991 H   0  0  0  0  0  0  0  0  0  0  0  0
   -7.5550    2.2394    0.8264 H   0  0  0  0  0  0  0  0  0  0  0  0
   -4.1453    0.6645   -2.1335 H   0  0  0  0  0  0  0  0  0  0  0  0
   -5.7044   -0.0581   -1.6242 H   0  0  0  0  0  0  0  0  0  0  0  0
   -7.9260    1.4256   -1.9029 H   0  0  0  0  0  0  0  0  0  0  0  0
   -8.3256    3.9164   -2.6348 H   0  0  0  0  0  0  0  0  0  0  0  0
   -3.0699    3.0170   -1.9584 H   0  0  0  0  0  0  0  0  0  0  0  0
   -2.5246    5.3440   -2.5685 H   0  0  0  0  0  0  0  0  0  0  0  0
   -4.3936    6.9090   -3.1591 H   0  0  0  0  0  0  0  0  0  0  0  0
   -6.6879    6.1564   -3.1306 H   0  0  0  0  0  0  0  0  0  0  0  0
    0.1720   -0.0973    0.6912 H   0  0  0  0  0  0  0  0  0  0  0  0
    2.8056   -1.7993   -0.0880 H   0  0  0  0  0  0  0  0  0  0  0  0
    1.6169    0.8972   -0.5700 H   0  0  0  0  0  0  0  0  0  0  0  0
    1.8408    2.1521    1.7888 H   0  0  0  0  0  0  0  0  0  0  0  0
    2.9103    3.8421    0.5701 H   0  0  0  0  0  0  0  0  0  0  0  0
    2.9445    2.4274   -0.5549 H   0  0  0  0  0  0  0  0  0  0  0  0
    4.8785    2.6898   -1.8525 H   0  0  0  0  0  0  0  0  0  0  0  0
    7.2914    2.7758   -1.9815 H   0  0  0  0  0  0  0  0  0  0  0  0
    8.6166    3.0146    0.1206 H   0  0  0  0  0  0  0  0  0  0  0  0
    7.4167    3.1591    2.3373 H   0  0  0  0  0  0  0  0  0  0  0  0
    5.4184    2.9138    3.6480 H   0  0  0  0  0  0  0  0  0  0  0  0
    4.3417    4.1178    2.8966 H   0  0  0  0  0  0  0  0  0  0  0  0
    4.2140    2.7403    5.3145 H   0  0  0  0  0  0  0  0  0  0  0  0
    3.4143    1.3435    6.0255 H   0  0  0  0  0  0  0  0  0  0  0  0
    5.0131    1.0600    5.2800 H   0  0  0  0  0  0  0  0  0  0  0  0
    1.8584   -0.5015   -2.7226 H   0  0  0  0  0  0  0  0  0  0  0  0
    3.5524   -0.5552   -2.2519 H   0  0  0  0  0  0  0  0  0  0  0  0
    4.5332   -2.9323   -1.9163 H   0  0  0  0  0  0  0  0  0  0  0  0
    4.7162   -5.1448   -2.9535 H   0  0  0  0  0  0  0  0  0  0  0  0
    2.8708   -5.9529   -4.4155 H   0  0  0  0  0  0  0  0  0  0  0  0
    0.9025   -4.5062   -4.7881 H   0  0  0  0  0  0  0  0  0  0  0  0
    0.7347   -2.3307   -3.7791 H   0  0  0  0  0  0  0  0  0  0  0  0
   -0.0114   -7.8283    3.4944 H   0  0  0  0  0  0  0  0  0  0  0  0
    0.6886   -8.0209    1.8812 H   0  0  0  0  0  0  0  0  0  0  0  0
  1  2  1  0
  2  3  2  3
  3  4  1  0
  4  5  1  0
  5  6  1  0
  6  7  1  0
  7  8  1  0
  8  9  2  0
  8 10  1  0
 10 11  1  0
 11 12  1  0
 12 13  2  0
 12 14  1  0
 11 15  1  0
 15 16  1  0
 16 17  2  0
 17 18  1  0
 18 19  1  0
 19 20  2  0
 20 21  1  0
 21 22  2  0
 22 23  1  0
 23 24  2  0
  7 25  1  0
 25 26  1  0
 26 27  2  0
 26 28  1  0
 28 29  1  0
 29 30  1  0
 30 31  2  0
 30 32  1  0
 32 33  1  0
 33 34  1  0
 34 35  2  0
 35 36  1  0
 36 37  2  0
 37 38  1  0
 38 39  2  0
 39 40  1  0
 40 41  1  0
 41 42  1  0
 42 43  2  0
 42 44  1  0
 28 45  1  0
 45 46  1  0
 46 47  2  0
 47 48  1  0
 48 49  2  0
 49 50  1  0
 50 51  2  0
  2 52  1  0
 20 16  1  0
 41 32  1  0
 51 46  1  0
 24 19  1  0
 39 34  1  0
  1 53  1  0
  1 54  1  0
  4 55  1  0
  4 56  1  0
  5 57  1  0
  5 58  1  0
  6 59  1  0
  6 60  1  0
  7 61  1  6
 10 62  1  0
 11 63  1  6
 14 64  1  0
 14 65  1  0
 15 66  1  0
 15 67  1  0
 17 68  1  0
 18 69  1  0
 21 70  1  0
 22 71  1  0
 23 72  1  0
 24 73  1  0
 25 74  1  0
 28 75  1  1
 29 76  1  0
 32 77  1  1
 33 78  1  0
 33 79  1  0
 35 80  1  0
 36 81  1  0
 37 82  1  0
 38 83  1  0
 40 84  1  0
 40 85  1  0
 44 86  1  0
 44 87  1  0
 44 88  1  0
 45 89  1  0
 45 90  1  0
 47 91  1  0
 48 92  1  0
 49 93  1  0
 50 94  1  0
 51 95  1  0
 52 96  1  0
 52 97  1  0
M  END
>  <Ligand ID>  (1) 
LIG0001459

>  <Ligand>  (1) 
CHEMBL96871

>  <SMILES>  (1) 
NC(=NCCC[C@@H](C(=O)N[C@H](C(=O)N)Cc1c[nH]c2c1cccc2)NC(=O)[C@H](NC(=O)[C@@H]1Cc2ccccc2CN1C(=O)C)Cc1ccccc1)N

>  <CID>  (1) 
10897829.0

>  <ChEMBL ID>  (1) 
nan

>  <InChiKey>  (1) 
YVMNAKQQXPYPRY-SSNHPIBPSA-N

>  <InChi>  (1) 
InChI=1S/C38H45N9O5/c1-23(48)47-22-26-13-6-5-12-25(26)20-33(47)37(52)46-32(18-24-10-3-2-4-11-24)36(51)44-30(16-9-17-42-38(40)41)35(50)45-31(34(39)49)19-27-21-43-29-15-8-7-14-28(27)29/h2-8,10-15,21,30-33,43H,9,16-20,22H2,1H3,(H2,39,49)(H,44,51)(H,45,50)(H,46,52)(H4,40,41,42)/t30-,31-,32+,33-/m0/s1

>  <IUPAC Name>  (1) 
(3S)-2-acetyl-N-[(2R)-1-[[(2S)-1-[[(2S)-1-amino-3-(1H-indol-3-yl)-1-oxopropan-2-yl]amino]-5-(diaminomethylideneamino)-1-oxopentan-2-yl]amino]-1-oxo-3-phenylpropan-2-yl]-3,4-dihydro-1H-isoquinoline-3-carboxamide

$$$$
