
     RDKit          3D

 38 39  0  0  0  0  0  0  0  0999 V2000
    6.9150   -1.2573    1.1877 O   0  0  0  0  0  0  0  0  0  0  0  0
    6.5300   -0.2078    0.3399 C   0  0  0  0  0  0  0  0  0  0  0  0
    7.4118    0.6081   -0.0337 O   0  0  0  0  0  0  0  0  0  0  0  0
    5.1025   -0.0624   -0.1096 C   0  0  0  0  0  0  0  0  0  0  0  0
    4.4462    1.0170    0.7149 C   0  0  0  0  0  0  0  0  0  0  0  0
    2.9924    1.2333    0.3279 C   0  0  0  0  0  0  0  0  0  0  0  0
    2.2802    0.0258    0.5233 O   0  0  0  0  0  0  0  0  0  0  0  0
    0.9039   -0.0437    0.2418 C   0  0  0  0  0  0  0  0  0  0  0  0
    0.3139    1.1013   -0.2203 C   0  0  0  0  0  0  0  0  0  0  0  0
   -1.0475    1.0458   -0.5024 C   0  0  0  0  0  0  0  0  0  0  0  0
   -1.7868   -0.0915   -0.3326 C   0  0  0  0  0  0  0  0  0  0  0  0
   -1.1245   -1.2274    0.1422 C   0  0  0  0  0  0  0  0  0  0  0  0
    0.2216   -1.2240    0.4355 C   0  0  0  0  0  0  0  0  0  0  0  0
   -3.2071   -0.2316   -0.5711 C   0  0  0  0  0  0  0  0  0  0  0  0
   -3.5617   -1.1422   -1.5794 C   0  0  0  0  0  0  0  0  0  0  0  0
   -4.8523   -1.3812   -1.9450 C   0  0  0  0  0  0  0  0  0  0  0  0
   -5.8489   -0.6975   -1.2941 C   0  0  0  0  0  0  0  0  0  0  0  0
   -5.5033    0.1823   -0.3191 C   0  0  0  0  0  0  0  0  0  0  0  0
   -4.1946    0.4456    0.0745 C   0  0  0  0  0  0  0  0  0  0  0  0
   -3.9313    1.3966    1.1471 C   0  0  0  0  0  0  0  0  0  0  0  0
   -3.2246    0.7380    2.1660 F   0  0  0  0  0  0  0  0  0  0  0  0
   -3.3105    2.5461    0.8218 F   0  0  0  0  0  0  0  0  0  0  0  0
   -5.1754    1.6818    1.7618 F   0  0  0  0  0  0  0  0  0  0  0  0
    7.6234   -1.0895    1.9166 H   0  0  0  0  0  0  0  0  0  0  0  0
    5.0971    0.1770   -1.1744 H   0  0  0  0  0  0  0  0  0  0  0  0
    4.5589   -1.0213   -0.0012 H   0  0  0  0  0  0  0  0  0  0  0  0
    5.0279    1.9508    0.5553 H   0  0  0  0  0  0  0  0  0  0  0  0
    4.5132    0.7744    1.7922 H   0  0  0  0  0  0  0  0  0  0  0  0
    2.9031    1.5219   -0.7310 H   0  0  0  0  0  0  0  0  0  0  0  0
    2.5663    1.9977    1.0054 H   0  0  0  0  0  0  0  0  0  0  0  0
    0.8699    2.0295   -0.3684 H   0  0  0  0  0  0  0  0  0  0  0  0
   -1.4879    1.9402   -0.8829 H   0  0  0  0  0  0  0  0  0  0  0  0
   -1.6604   -2.1634    0.2967 H   0  0  0  0  0  0  0  0  0  0  0  0
    0.7295   -2.1274    0.8078 H   0  0  0  0  0  0  0  0  0  0  0  0
   -2.7868   -1.7016   -2.1174 H   0  0  0  0  0  0  0  0  0  0  0  0
   -5.0975   -2.0795   -2.7142 H   0  0  0  0  0  0  0  0  0  0  0  0
   -6.8878   -0.8494   -1.5462 H   0  0  0  0  0  0  0  0  0  0  0  0
   -6.3179    0.7148    0.1846 H   0  0  0  0  0  0  0  0  0  0  0  0
  1  2  1  0
  2  3  2  0
  2  4  1  0
  4  5  1  0
  5  6  1  0
  6  7  1  0
  7  8  1  0
  8  9  2  0
  9 10  1  0
 10 11  2  0
 11 12  1  0
 12 13  2  0
 11 14  1  0
 14 15  2  0
 15 16  1  0
 16 17  2  0
 17 18  1  0
 18 19  2  0
 19 20  1  0
 20 21  1  0
 20 22  1  0
 20 23  1  0
 13  8  1  0
 19 14  1  0
  1 24  1  0
  4 25  1  0
  4 26  1  0
  5 27  1  0
  5 28  1  0
  6 29  1  0
  6 30  1  0
  9 31  1  0
 10 32  1  0
 12 33  1  0
 13 34  1  0
 15 35  1  0
 16 36  1  0
 17 37  1  0
 18 38  1  0
M  END
>  <Ligand ID>  (1) 
LIG0002573

>  <Ligand>  (1) 
CHEMBL3943430

>  <SMILES>  (1) 
OC(=O)CCCOc1ccc(cc1)c1ccccc1C(F)(F)F

>  <CID>  (1) 
134145750.0

>  <ChEMBL ID>  (1) 
nan

>  <InChiKey>  (1) 
MJRMAEQWKBQUGE-UHFFFAOYSA-N

>  <InChi>  (1) 
InChI=1S/C17H15F3O3/c18-17(19,20)15-5-2-1-4-14(15)12-7-9-13(10-8-12)23-11-3-6-16(21)22/h1-2,4-5,7-10H,3,6,11H2,(H,21,22)

>  <IUPAC Name>  (1) 
4-[4-[2-(trifluoromethyl)phenyl]phenoxy]butanoic acid

$$$$
