
     RDKit          3D

 45 45  0  0  0  0  0  0  0  0999 V2000
   -0.7438   -1.9300   -1.3596 O   0  0  0  0  0  0  0  0  0  0  0  0
   -0.9677   -2.2703   -0.1785 C   0  0  0  0  0  0  0  0  0  0  0  0
   -1.8123   -1.3777    0.6020 C   0  0  0  0  0  0  0  0  0  0  0  0
   -2.5704   -0.4149   -0.3125 C   0  0  0  0  0  0  0  0  0  0  0  0
   -3.1908    0.7344    0.4745 C   0  0  0  0  0  0  0  0  0  0  0  0
   -2.0859    1.7763    0.8406 C   0  0  0  0  0  0  0  0  0  0  0  0
   -1.6635    2.5010   -0.3738 C   0  0  0  0  0  0  0  0  0  0  0  0
   -0.3975    3.3647   -0.2759 C   0  0  0  0  0  0  0  0  0  0  0  0
    0.6790    2.3218    0.0754 C   0  0  0  0  0  0  0  0  0  0  0  0
    2.0798    2.6856   -0.1769 C   0  0  0  0  0  0  0  0  0  0  0  0
    2.9811    1.4501    0.1070 C   0  0  0  0  0  0  0  0  0  0  0  0
    2.2807    0.2264   -0.5268 C   0  0  0  0  0  0  0  0  0  0  0  0
    1.4181   -0.4298    0.4768 C   0  0  0  0  0  0  0  0  0  0  0  0
    1.3592   -1.7054    0.7421 C   0  0  0  0  0  0  0  0  0  0  0  0
    2.0749   -2.8484    0.1599 C   0  0  0  0  0  0  0  0  0  0  0  0
    1.0076   -3.7572   -0.5020 C   0  0  0  0  0  0  0  0  0  0  0  0
   -0.3205   -3.5451    0.2229 C   0  0  0  0  0  0  0  0  0  0  0  0
   -2.6454   -1.9915    1.0838 H   0  0  0  0  0  0  0  0  0  0  0  0
   -1.3532   -0.8555    1.4415 H   0  0  0  0  0  0  0  0  0  0  0  0
   -3.4351   -0.9807   -0.7170 H   0  0  0  0  0  0  0  0  0  0  0  0
   -1.9739   -0.1119   -1.1648 H   0  0  0  0  0  0  0  0  0  0  0  0
   -3.6230    0.3381    1.4057 H   0  0  0  0  0  0  0  0  0  0  0  0
   -3.9443    1.2919   -0.0754 H   0  0  0  0  0  0  0  0  0  0  0  0
   -2.5828    2.4912    1.5359 H   0  0  0  0  0  0  0  0  0  0  0  0
   -1.3490    1.2225    1.4014 H   0  0  0  0  0  0  0  0  0  0  0  0
   -2.5120    3.1657   -0.7117 H   0  0  0  0  0  0  0  0  0  0  0  0
   -1.4579    1.8104   -1.2404 H   0  0  0  0  0  0  0  0  0  0  0  0
   -0.1866    3.7571   -1.2827 H   0  0  0  0  0  0  0  0  0  0  0  0
   -0.5229    4.1233    0.5068 H   0  0  0  0  0  0  0  0  0  0  0  0
    0.4117    1.4698   -0.5540 H   0  0  0  0  0  0  0  0  0  0  0  0
    0.6025    2.1792    1.1927 H   0  0  0  0  0  0  0  0  0  0  0  0
    2.4145    3.4496    0.5460 H   0  0  0  0  0  0  0  0  0  0  0  0
    2.3031    3.0691   -1.1891 H   0  0  0  0  0  0  0  0  0  0  0  0
    3.0659    1.3813    1.1839 H   0  0  0  0  0  0  0  0  0  0  0  0
    3.9112    1.6593   -0.4495 H   0  0  0  0  0  0  0  0  0  0  0  0
    1.8247    0.5391   -1.4594 H   0  0  0  0  0  0  0  0  0  0  0  0
    3.1418   -0.4288   -0.8206 H   0  0  0  0  0  0  0  0  0  0  0  0
    0.7393    0.1534    1.1507 H   0  0  0  0  0  0  0  0  0  0  0  0
    0.6855   -1.9991    1.5925 H   0  0  0  0  0  0  0  0  0  0  0  0
    2.5210   -3.4650    0.9649 H   0  0  0  0  0  0  0  0  0  0  0  0
    2.8508   -2.6126   -0.5638 H   0  0  0  0  0  0  0  0  0  0  0  0
    0.9217   -3.5772   -1.5775 H   0  0  0  0  0  0  0  0  0  0  0  0
    1.3346   -4.7889   -0.3299 H   0  0  0  0  0  0  0  0  0  0  0  0
   -1.0205   -4.3512   -0.1491 H   0  0  0  0  0  0  0  0  0  0  0  0
   -0.2495   -3.7200    1.2987 H   0  0  0  0  0  0  0  0  0  0  0  0
  1  2  2  0
  2  3  1  0
  3  4  1  0
  4  5  1  0
  5  6  1  0
  6  7  1  0
  7  8  1  0
  8  9  1  0
  9 10  1  0
 10 11  1  0
 11 12  1  0
 12 13  1  0
 13 14  2  0
 14 15  1  0
 15 16  1  0
 16 17  1  0
 17  2  1  0
  3 18  1  0
  3 19  1  0
  4 20  1  0
  4 21  1  0
  5 22  1  0
  5 23  1  0
  6 24  1  0
  6 25  1  0
  7 26  1  0
  7 27  1  0
  8 28  1  0
  8 29  1  0
  9 30  1  0
  9 31  1  0
 10 32  1  0
 10 33  1  0
 11 34  1  0
 11 35  1  0
 12 36  1  0
 12 37  1  0
 13 38  1  0
 14 39  1  0
 15 40  1  0
 15 41  1  0
 16 42  1  0
 16 43  1  0
 17 44  1  0
 17 45  1  0
M  END
>  <Ligand ID>  (1) 
LIG0000353

>  <Ligand>  (1) 
Velvione

>  <SMILES>  (1) 
O=C1CCCCCCCCCC/C=C\CCC1

>  <CID>  (1) 
5362736.0

>  <ChEMBL ID>  (1) 
nan

>  <InChiKey>  (1) 
ABRIMXGLNHCLIP-VURMDHGXSA-N

>  <InChi>  (1) 
InChI=1S/C16H28O/c17-16-14-12-10-8-6-4-2-1-3-5-7-9-11-13-15-16/h6,8H,1-5,7,9-15H2/b8-6-

>  <IUPAC Name>  (1) 
(5Z)-cyclohexadec-5-en-1-one

$$$$
