
     RDKit          3D

 18 17  0  0  0  0  0  0  0  0999 V2000
   -2.5751    0.3274   -0.1816 C   0  0  0  0  0  0  0  0  0  0  0  0
   -1.4511   -0.6674   -0.1364 C   0  0  0  0  0  0  0  0  0  0  0  0
   -0.1678    0.0900    0.2076 C   0  0  0  0  0  0  0  0  0  0  0  0
    1.0117   -0.8495    0.2712 C   0  0  0  0  0  0  0  0  0  0  0  0
    2.1990   -0.2320    0.5768 O   0  0  0  0  0  0  0  0  0  0  0  0
    2.6115    0.7415   -0.2971 C   0  0  0  0  0  0  0  0  0  0  0  0
   -2.2389    1.2907   -0.6170 H   0  0  0  0  0  0  0  0  0  0  0  0
   -3.4647   -0.0596   -0.7384 H   0  0  0  0  0  0  0  0  0  0  0  0
   -2.9601    0.5479    0.8429 H   0  0  0  0  0  0  0  0  0  0  0  0
   -1.3369   -1.2402   -1.0581 H   0  0  0  0  0  0  0  0  0  0  0  0
   -1.5692   -1.4010    0.6994 H   0  0  0  0  0  0  0  0  0  0  0  0
   -0.3146    0.5006    1.2271 H   0  0  0  0  0  0  0  0  0  0  0  0
    0.0087    0.8716   -0.5331 H   0  0  0  0  0  0  0  0  0  0  0  0
    1.0342   -1.3877   -0.7132 H   0  0  0  0  0  0  0  0  0  0  0  0
    0.8479   -1.6375    1.0353 H   0  0  0  0  0  0  0  0  0  0  0  0
    3.5900    1.1310    0.1087 H   0  0  0  0  0  0  0  0  0  0  0  0
    1.9077    1.6017   -0.3868 H   0  0  0  0  0  0  0  0  0  0  0  0
    2.8677    0.3727   -1.3151 H   0  0  0  0  0  0  0  0  0  0  0  0
  1  2  1  0
  2  3  1  0
  3  4  1  0
  4  5  1  0
  5  6  1  0
  1  7  1  0
  1  8  1  0
  1  9  1  0
  2 10  1  0
  2 11  1  0
  3 12  1  0
  3 13  1  0
  4 14  1  0
  4 15  1  0
  6 16  1  0
  6 17  1  0
  6 18  1  0
M  END
>  <Ligand ID>  (1) 
LIG0005035

>  <Ligand>  (1) 
butyl methyl ether

>  <SMILES>  (1) 
CCCCOC

>  <CID>  (1) 
12338.0

>  <ChEMBL ID>  (1) 
nan

>  <InChiKey>  (1) 
CXBDYQVECUFKRK-UHFFFAOYSA-N

>  <InChi>  (1) 
InChI=1S/C5H12O/c1-3-4-5-6-2/h3-5H2,1-2H3

>  <IUPAC Name>  (1) 
1-methoxybutane

$$$$
