
     RDKit          3D

 18 17  0  0  0  0  0  0  0  0999 V2000
   -2.3693   -0.8553   -0.1829 C   0  0  0  0  0  0  0  0  0  0  0  0
   -1.0549   -0.3595    0.3820 C   0  0  0  0  0  0  0  0  0  0  0  0
   -0.4352    0.7241   -0.4691 C   0  0  0  0  0  0  0  0  0  0  0  0
    0.8491    1.1487    0.1606 C   0  0  0  0  0  0  0  0  0  0  0  0
    1.8747    0.0587    0.3067 C   0  0  0  0  0  0  0  0  0  0  0  0
    2.3613   -0.6698   -1.2628 S   0  0  0  0  0  0  0  0  0  0  0  0
   -3.0795   -0.0412   -0.3751 H   0  0  0  0  0  0  0  0  0  0  0  0
   -2.8113   -1.5234    0.5929 H   0  0  0  0  0  0  0  0  0  0  0  0
   -2.2146   -1.4982   -1.0866 H   0  0  0  0  0  0  0  0  0  0  0  0
   -0.3827   -1.2314    0.4875 H   0  0  0  0  0  0  0  0  0  0  0  0
   -1.2895    0.0230    1.3961 H   0  0  0  0  0  0  0  0  0  0  0  0
   -1.0619    1.6357   -0.5166 H   0  0  0  0  0  0  0  0  0  0  0  0
   -0.3332    0.3904   -1.5198 H   0  0  0  0  0  0  0  0  0  0  0  0
    0.6136    1.4716    1.2016 H   0  0  0  0  0  0  0  0  0  0  0  0
    1.3158    2.0019   -0.3713 H   0  0  0  0  0  0  0  0  0  0  0  0
    1.5378   -0.7536    0.9796 H   0  0  0  0  0  0  0  0  0  0  0  0
    2.7800    0.5708    0.7453 H   0  0  0  0  0  0  0  0  0  0  0  0
    3.6997   -1.0925   -1.1306 H   0  0  0  0  0  0  0  0  0  0  0  0
  1  2  1  0
  2  3  1  0
  3  4  1  0
  4  5  1  0
  5  6  1  0
  1  7  1  0
  1  8  1  0
  1  9  1  0
  2 10  1  0
  2 11  1  0
  3 12  1  0
  3 13  1  0
  4 14  1  0
  4 15  1  0
  5 16  1  0
  5 17  1  0
  6 18  1  0
M  END
>  <Ligand ID>  (1) 
LIG0000627

>  <Ligand>  (1) 
1-Pentanethiol

>  <SMILES>  (1) 
CCCCCS

>  <CID>  (1) 
8067.0

>  <ChEMBL ID>  (1) 
nan

>  <InChiKey>  (1) 
ZRKMQKLGEQPLNS-UHFFFAOYSA-N

>  <InChi>  (1) 
InChI=1S/C5H12S/c1-2-3-4-5-6/h6H,2-5H2,1H3

>  <IUPAC Name>  (1) 
pentane-1-thiol

$$$$
