
     RDKit          3D

 12 11  0  0  0  0  0  0  0  0999 V2000
    2.6196    0.2420   -0.4847 C   0  0  0  0  0  0  0  0  0  0  0  0
    1.7393   -1.3048   -0.2494 S   0  0  0  0  0  0  0  0  0  0  0  0
   -0.0392   -1.0282   -0.0702 C   0  0  0  0  0  0  0  0  0  0  0  0
   -0.8628   -2.1855    0.1248 S   0  0  0  0  0  0  0  0  0  0  0  0
   -0.7332    0.6208   -0.1345 S   0  0  0  0  0  0  0  0  0  0  0  0
   -2.5313    0.5190    0.0799 C   0  0  0  0  0  0  0  0  0  0  0  0
    3.2492    0.1254   -1.4147 H   0  0  0  0  0  0  0  0  0  0  0  0
    1.9520    1.1115   -0.7152 H   0  0  0  0  0  0  0  0  0  0  0  0
    3.3231    0.4851    0.3333 H   0  0  0  0  0  0  0  0  0  0  0  0
   -2.8009    0.0875    1.0642 H   0  0  0  0  0  0  0  0  0  0  0  0
   -2.9429   -0.1898   -0.6926 H   0  0  0  0  0  0  0  0  0  0  0  0
   -2.9729    1.5170   -0.0559 H   0  0  0  0  0  0  0  0  0  0  0  0
  1  2  1  0
  2  3  1  0
  3  4  2  0
  3  5  1  0
  5  6  1  0
  1  7  1  0
  1  8  1  0
  1  9  1  0
  6 10  1  0
  6 11  1  0
  6 12  1  0
M  END
>  <Ligand ID>  (1) 
LIG0005043

>  <Ligand>  (1) 
Dimethyl trithiocarbonate

>  <SMILES>  (1) 
CSC(=S)SC

>  <CID>  (1) 
16840.0

>  <ChEMBL ID>  (1) 
nan

>  <InChiKey>  (1) 
IQWMXKTYXNMSLC-UHFFFAOYSA-N

>  <InChi>  (1) 
InChI=1S/C3H6S3/c1-5-3(4)6-2/h1-2H3

>  <IUPAC Name>  (1) 
bis(methylsulfanyl)methanethione

$$$$
