
     RDKit          3D

136138  0  0  0  0  0  0  0  0999 V2000
   11.9187    3.4015    0.7224 C   0  0  0  0  0  0  0  0  0  0  0  0
   10.5704    4.0894    0.5559 C   0  0  0  0  0  0  0  0  0  0  0  0
    9.8519    3.5916   -0.5712 N   0  0  0  0  0  0  0  0  0  0  0  0
    8.5588    4.1647   -0.8050 C   0  0  0  0  0  0  0  0  0  0  0  0
    7.6092    3.7797    0.2700 C   0  0  0  0  0  0  0  0  0  0  0  0
    7.3655    2.3833    0.6266 C   0  0  0  0  0  0  0  0  0  0  0  0
    6.8501    1.3484   -0.2738 C   0  0  1  0  0  0  0  0  0  0  0  0
    7.5763    0.9301   -1.4518 C   0  0  0  0  0  0  0  0  0  0  0  0
    7.9505    1.5906   -2.4386 O   0  0  0  0  0  0  0  0  0  0  0  0
    7.9418   -0.4820   -1.5278 N   0  0  0  0  0  0  0  0  0  0  0  0
    8.6729   -0.9921   -2.6724 C   0  0  0  0  0  0  0  0  0  0  0  0
    9.9937   -0.2751   -2.7422 C   0  0  0  0  0  0  0  0  0  0  0  0
   10.7708   -0.5674   -3.6877 O   0  0  0  0  0  0  0  0  0  0  0  0
   10.3450    0.6979   -1.7586 N   0  0  0  0  0  0  0  0  0  0  0  0
    6.5678    0.1970    0.6221 N   0  0  0  0  0  0  0  0  0  0  0  0
    5.3027   -0.4699    0.6300 C   0  0  0  0  0  0  0  0  0  0  0  0
    4.4558   -0.0390   -0.1713 O   0  0  0  0  0  0  0  0  0  0  0  0
    5.1823   -1.5632    1.5806 C   0  0  2  0  0  0  0  0  0  0  0  0
    6.1938   -2.6692    1.2730 C   0  0  0  0  0  0  0  0  0  0  0  0
    5.7204   -3.7722    2.1826 C   0  0  0  0  0  0  0  0  0  0  0  0
    4.4376   -3.3263    2.8081 C   0  0  0  0  0  0  0  0  0  0  0  0
    3.9957   -2.2908    1.7684 N   0  0  0  0  0  0  0  0  0  0  0  0
    2.6746   -2.3840    1.3561 C   0  0  0  0  0  0  0  0  0  0  0  0
    2.0808   -3.4448    1.9362 O   0  0  0  0  0  0  0  0  0  0  0  0
    1.7758   -1.6799    0.4995 C   0  0  2  0  0  0  0  0  0  0  0  0
    1.3706   -0.3386    1.1031 C   0  0  0  0  0  0  0  0  0  0  0  0
    0.5646   -0.4538    2.6935 S   0  0  0  0  0  0  0  0  0  0  0  0
   -1.1825   -1.6182    2.6795 S   0  0  0  0  0  0  0  0  0  0  0  0
   -2.6647   -0.7704    2.2393 C   0  0  0  0  0  0  0  0  0  0  0  0
   -3.1188    0.3507    3.1183 C   0  0  2  0  0  0  0  0  0  0  0  0
   -3.4125    0.0143    4.4686 N   0  0  0  0  0  0  0  0  0  0  0  0
   -4.3288    0.9282    2.4539 C   0  0  0  0  0  0  0  0  0  0  0  0
   -4.2266    1.1438    1.2393 O   0  0  0  0  0  0  0  0  0  0  0  0
   -5.5527    1.2463    3.0728 N   0  0  0  0  0  0  0  0  0  0  0  0
   -6.6307    1.6803    2.1512 C   0  0  1  0  0  0  0  0  0  0  0  0
   -6.4189    2.9945    1.5321 C   0  0  0  0  0  0  0  0  0  0  0  0
   -6.2946    4.0480    2.5577 C   0  0  0  0  0  0  0  0  0  0  0  0
   -5.0002    4.3733    2.9859 C   0  0  0  0  0  0  0  0  0  0  0  0
   -4.7334    5.3236    3.9271 C   0  0  0  0  0  0  0  0  0  0  0  0
   -5.7892    6.0215    4.5081 C   0  0  0  0  0  0  0  0  0  0  0  0
   -7.0535    5.7075    4.0941 C   0  0  0  0  0  0  0  0  0  0  0  0
   -7.3144    4.7367    3.1335 C   0  0  0  0  0  0  0  0  0  0  0  0
   -6.7779    0.5691    1.1331 C   0  0  0  0  0  0  0  0  0  0  0  0
   -6.2068   -0.4997    1.3568 O   0  0  0  0  0  0  0  0  0  0  0  0
   -7.5214    0.6651   -0.0689 N   0  0  0  0  0  0  0  0  0  0  0  0
   -7.5519   -0.5032   -0.9159 C   0  0  2  0  0  0  0  0  0  0  0  0
   -6.2225   -0.6756   -1.6116 C   0  0  0  0  0  0  0  0  0  0  0  0
   -5.3668    0.1627   -1.4333 O   0  0  0  0  0  0  0  0  0  0  0  0
   -5.9244   -1.7668   -2.4607 N   0  0  0  0  0  0  0  0  0  0  0  0
   -4.5808   -1.9518   -3.0718 C   0  0  2  0  0  0  0  0  0  0  0  0
   -3.6162   -2.3210   -2.0590 C   0  0  0  0  0  0  0  0  0  0  0  0
   -3.9881   -2.1812   -0.8367 O   0  0  0  0  0  0  0  0  0  0  0  0
   -2.3013   -2.8273   -2.1729 N   0  0  0  0  0  0  0  0  0  0  0  0
   -1.4796   -3.1733   -1.0142 C   0  0  2  0  0  0  0  0  0  0  0  0
   -0.2564   -2.3372   -0.8831 C   0  0  0  0  0  0  0  0  0  0  0  0
    0.1738   -1.5409   -1.7207 O   0  0  0  0  0  0  0  0  0  0  0  0
    0.4966   -2.4489    0.3169 N   0  0  0  0  0  0  0  0  0  0  0  0
   -1.0722   -4.6314   -1.0668 C   0  0  0  0  0  0  0  0  0  0  0  0
   -2.1926   -5.5508   -1.0560 C   0  0  0  0  0  0  0  0  0  0  0  0
   -3.4090   -5.1531   -0.8842 O   0  0  0  0  0  0  0  0  0  0  0  0
   -2.0689   -6.9692   -1.2327 N   0  0  0  0  0  0  0  0  0  0  0  0
   -4.2063   -0.7958   -3.9028 C   0  0  0  0  0  0  0  0  0  0  0  0
   -2.8707   -0.9706   -4.5088 C   0  0  0  0  0  0  0  0  0  0  0  0
   -1.8106   -0.4823   -4.0513 O   0  0  0  0  0  0  0  0  0  0  0  0
   -2.7808   -1.7531   -5.7074 N   0  0  0  0  0  0  0  0  0  0  0  0
   -8.7349   -0.7551   -1.7255 C   0  0  2  0  0  0  0  0  0  0  0  0
   -9.1578    0.2542   -2.7359 C   0  0  0  0  0  0  0  0  0  0  0  0
   -8.0574    0.4754   -3.7565 C   0  0  0  0  0  0  0  0  0  0  0  0
   -9.9407   -1.1079   -0.8405 C   0  0  0  0  0  0  0  0  0  0  0  0
   12.2404    2.9947   -0.2704 H   0  0  0  0  0  0  0  0  0  0  0  0
   12.6738    4.0715    1.1733 H   0  0  0  0  0  0  0  0  0  0  0  0
   11.8368    2.5155    1.4011 H   0  0  0  0  0  0  0  0  0  0  0  0
    9.9925    3.8488    1.4722 H   0  0  0  0  0  0  0  0  0  0  0  0
   10.7510    5.1713    0.5144 H   0  0  0  0  0  0  0  0  0  0  0  0
   10.4626    3.7230   -1.4322 H   0  0  0  0  0  0  0  0  0  0  0  0
    8.6965    5.3131   -0.6739 H   0  0  0  0  0  0  0  0  0  0  0  0
    8.2158    3.9846   -1.8115 H   0  0  0  0  0  0  0  0  0  0  0  0
    7.9878    4.3503    1.2008 H   0  0  0  0  0  0  0  0  0  0  0  0
    6.5944    4.2867    0.1027 H   0  0  0  0  0  0  0  0  0  0  0  0
    6.7368    2.3991    1.6088 H   0  0  0  0  0  0  0  0  0  0  0  0
    8.3674    2.0193    1.1114 H   0  0  0  0  0  0  0  0  0  0  0  0
    5.7988    1.6551   -0.5991 H   0  0  0  0  0  0  0  0  0  0  0  0
    7.6666   -1.1233   -0.7348 H   0  0  0  0  0  0  0  0  0  0  0  0
    8.8893   -2.0475   -2.4884 H   0  0  0  0  0  0  0  0  0  0  0  0
    8.1025   -0.7883   -3.5945 H   0  0  0  0  0  0  0  0  0  0  0  0
   10.9793    1.4732   -2.1044 H   0  0  0  0  0  0  0  0  0  0  0  0
   10.0375    0.6985   -0.7830 H   0  0  0  0  0  0  0  0  0  0  0  0
    7.3615   -0.1064    1.2630 H   0  0  0  0  0  0  0  0  0  0  0  0
    5.5033   -1.2335    2.6294 H   0  0  0  0  0  0  0  0  0  0  0  0
    6.1626   -2.9121    0.2005 H   0  0  0  0  0  0  0  0  0  0  0  0
    7.2227   -2.3997    1.5885 H   0  0  0  0  0  0  0  0  0  0  0  0
    6.4563   -4.0396    2.9712 H   0  0  0  0  0  0  0  0  0  0  0  0
    5.5283   -4.6746    1.5291 H   0  0  0  0  0  0  0  0  0  0  0  0
    3.6894   -4.0783    2.9660 H   0  0  0  0  0  0  0  0  0  0  0  0
    4.5887   -2.7678    3.7309 H   0  0  0  0  0  0  0  0  0  0  0  0
    2.1857   -1.4342   -0.4850 H   0  0  0  0  0  0  0  0  0  0  0  0
    0.7875    0.2887    0.3990 H   0  0  0  0  0  0  0  0  0  0  0  0
    2.3128    0.2338    1.2718 H   0  0  0  0  0  0  0  0  0  0  0  0
   -2.5742   -0.3465    1.2007 H   0  0  0  0  0  0  0  0  0  0  0  0
   -3.5063   -1.5249    2.2573 H   0  0  0  0  0  0  0  0  0  0  0  0
   -2.2914    1.0992    3.1429 H   0  0  0  0  0  0  0  0  0  0  0  0
   -2.8679   -0.8086    4.8275 H   0  0  0  0  0  0  0  0  0  0  0  0
   -3.3815    0.8272    5.1199 H   0  0  0  0  0  0  0  0  0  0  0  0
   -5.6236    1.1713    4.0690 H   0  0  0  0  0  0  0  0  0  0  0  0
   -7.5608    1.6713    2.7736 H   0  0  0  0  0  0  0  0  0  0  0  0
   -7.3264    3.2435    0.9092 H   0  0  0  0  0  0  0  0  0  0  0  0
   -5.5595    2.9779    0.8306 H   0  0  0  0  0  0  0  0  0  0  0  0
   -4.1703    3.8418    2.5393 H   0  0  0  0  0  0  0  0  0  0  0  0
   -3.7324    5.5775    4.2488 H   0  0  0  0  0  0  0  0  0  0  0  0
   -5.6402    6.7829    5.2510 H   0  0  0  0  0  0  0  0  0  0  0  0
   -7.9314    6.2077    4.4970 H   0  0  0  0  0  0  0  0  0  0  0  0
   -8.3241    4.4948    2.8155 H   0  0  0  0  0  0  0  0  0  0  0  0
   -7.9787    1.5600   -0.2340 H   0  0  0  0  0  0  0  0  0  0  0  0
   -7.4711   -1.3668   -0.1639 H   0  0  0  0  0  0  0  0  0  0  0  0
   -6.6961   -2.4195   -2.6216 H   0  0  0  0  0  0  0  0  0  0  0  0
   -4.7253   -2.8197   -3.7683 H   0  0  0  0  0  0  0  0  0  0  0  0
   -1.9490   -2.9613   -3.1220 H   0  0  0  0  0  0  0  0  0  0  0  0
   -2.1121   -3.0400   -0.1176 H   0  0  0  0  0  0  0  0  0  0  0  0
    0.1313   -3.0583    1.0350 H   0  0  0  0  0  0  0  0  0  0  0  0
   -0.4274   -4.7308   -1.9976 H   0  0  0  0  0  0  0  0  0  0  0  0
   -0.3526   -4.7565   -0.2159 H   0  0  0  0  0  0  0  0  0  0  0  0
   -2.8842   -7.6079   -1.3125 H   0  0  0  0  0  0  0  0  0  0  0  0
   -1.1305   -7.4421   -1.2924 H   0  0  0  0  0  0  0  0  0  0  0  0
   -4.1735    0.1894   -3.3719 H   0  0  0  0  0  0  0  0  0  0  0  0
   -4.9288   -0.7280   -4.7685 H   0  0  0  0  0  0  0  0  0  0  0  0
   -2.5808   -2.7755   -5.7095 H   0  0  0  0  0  0  0  0  0  0  0  0
   -2.9302   -1.2668   -6.6374 H   0  0  0  0  0  0  0  0  0  0  0  0
   -8.5610   -1.7147   -2.3026 H   0  0  0  0  0  0  0  0  0  0  0  0
   -9.9754   -0.2581   -3.3397 H   0  0  0  0  0  0  0  0  0  0  0  0
   -9.6107    1.1709   -2.3764 H   0  0  0  0  0  0  0  0  0  0  0  0
   -7.7847   -0.4954   -4.2106 H   0  0  0  0  0  0  0  0  0  0  0  0
   -8.4227    1.1300   -4.5642 H   0  0  0  0  0  0  0  0  0  0  0  0
   -7.1654    0.9491   -3.3379 H   0  0  0  0  0  0  0  0  0  0  0  0
   -9.6512   -1.6139    0.0907 H   0  0  0  0  0  0  0  0  0  0  0  0
  -10.6260   -1.7563   -1.4140 H   0  0  0  0  0  0  0  0  0  0  0  0
  -10.4835   -0.1607   -0.6651 H   0  0  0  0  0  0  0  0  0  0  0  0
  1  2  1  0
  2  3  1  0
  3  4  1  0
  4  5  1  0
  5  6  1  0
  6  7  1  0
  7  8  1  0
  8  9  2  0
  8 10  1  0
 10 11  1  0
 11 12  1  0
 12 13  2  0
 12 14  1  0
  7 15  1  0
 15 16  1  0
 16 17  2  0
 16 18  1  0
 18 19  1  0
 19 20  1  0
 20 21  1  0
 21 22  1  0
 22 23  1  0
 23 24  2  0
 23 25  1  0
 25 26  1  0
 26 27  1  0
 27 28  1  0
 28 29  1  0
 29 30  1  0
 30 31  1  0
 30 32  1  0
 32 33  2  0
 32 34  1  0
 34 35  1  0
 35 36  1  0
 36 37  1  0
 37 38  2  0
 38 39  1  0
 39 40  2  0
 40 41  1  0
 41 42  2  0
 35 43  1  0
 43 44  2  0
 43 45  1  0
 45 46  1  0
 46 47  1  0
 47 48  2  0
 47 49  1  0
 49 50  1  0
 50 51  1  0
 51 52  2  0
 51 53  1  0
 53 54  1  0
 54 55  1  0
 55 56  2  0
 55 57  1  0
 54 58  1  0
 58 59  1  0
 59 60  2  0
 59 61  1  0
 50 62  1  0
 62 63  1  0
 63 64  2  0
 63 65  1  0
 46 66  1  0
 66 67  1  0
 67 68  1  0
 66 69  1  0
 22 18  1  0
 57 25  1  0
 42 37  1  0
  1 70  1  0
  1 71  1  0
  1 72  1  0
  2 73  1  0
  2 74  1  0
  3 75  1  0
  4 76  1  0
  4 77  1  0
  5 78  1  0
  5 79  1  0
  6 80  1  0
  6 81  1  0
  7 82  1  6
 10 83  1  0
 11 84  1  0
 11 85  1  0
 14 86  1  0
 14 87  1  0
 15 88  1  0
 18 89  1  1
 19 90  1  0
 19 91  1  0
 20 92  1  0
 20 93  1  0
 21 94  1  0
 21 95  1  0
 25 96  1  6
 26 97  1  0
 26 98  1  0
 29 99  1  0
 29100  1  0
 30101  1  1
 31102  1  0
 31103  1  0
 34104  1  0
 35105  1  1
 36106  1  0
 36107  1  0
 38108  1  0
 39109  1  0
 40110  1  0
 41111  1  0
 42112  1  0
 45113  1  0
 46114  1  1
 49115  1  0
 50116  1  6
 53117  1  0
 54118  1  1
 57119  1  0
 58120  1  0
 58121  1  0
 61122  1  0
 61123  1  0
 62124  1  0
 62125  1  0
 65126  1  0
 65127  1  0
 66128  1  6
 67129  1  0
 67130  1  0
 68131  1  0
 68132  1  0
 68133  1  0
 69134  1  0
 69135  1  0
 69136  1  0
M  END
>  <Ligand ID>  (1) 
LIG0000924

>  <Ligand>  (1) 
CHEMBL1817754

>  <SMILES>  (1) 
CCNCCC[C@@H](C(=O)NCC(=O)N)NC(=O)[C@@H]1CCCN1C(=O)[C@@H]1CSSC[C@H](N)C(=O)N[C@@H](Cc2ccccc2)C(=O)N[C@H](C(=O)N[C@H](C(=O)N[C@H](C(=O)N1)CC(=O)N)CC(=O)N)[C@H](CC)C

>  <CID>  (1) 
53362605.0

>  <ChEMBL ID>  (1) 
nan

>  <InChiKey>  (1) 
RLABTNAJSYFEFL-GHDRINTISA-N

>  <InChi>  (1) 
InChI=1S/C43H67N13O11S2/c1-4-23(3)35-42(66)53-29(19-33(46)58)38(62)52-28(18-32(45)57)39(63)54-30(22-69-68-21-25(44)36(60)51-27(40(64)55-35)17-24-11-7-6-8-12-24)43(67)56-16-10-14-31(56)41(65)50-26(13-9-15-48-5-2)37(61)49-20-34(47)59/h6-8,11-12,23,25-31,35,48H,4-5,9-10,13-22,44H2,1-3H3,(H2,45,57)(H2,46,58)(H2,47,59)(H,49,61)(H,50,65)(H,51,60)(H,52,62)(H,53,66)(H,54,63)(H,55,64)/t23-,25-,26-,27-,28-,29-,30-,31-,35-/m0/s1

>  <IUPAC Name>  (1) 
(2S)-1-[(4R,7S,10S,13S,16S,19R)-19-amino-7,10-bis(2-amino-2-oxoethyl)-16-benzyl-13-[(2S)-butan-2-yl]-6,9,12,15,18-pentaoxo-1,2-dithia-5,8,11,14,17-pentazacycloicosane-4-carbonyl]-N-[(2S)-1-[(2-amino-2-oxoethyl)amino]-5-(ethylamino)-1-oxopentan-2-yl]pyrrolidine-2-carboxamide

$$$$
