
     RDKit          3D

 57 61  0  0  0  0  0  0  0  0999 V2000
   -1.7513    4.2820   -0.2279 C   0  0  0  0  0  0  0  0  0  0  0  0
   -2.9419    3.6135   -0.5482 O   0  0  0  0  0  0  0  0  0  0  0  0
   -3.1063    2.2394   -0.5346 C   0  0  0  0  0  0  0  0  0  0  0  0
   -2.0016    1.4860   -0.1699 C   0  0  0  0  0  0  0  0  0  0  0  0
   -2.1261    0.1241   -0.1436 C   0  0  0  0  0  0  0  0  0  0  0  0
   -3.3277   -0.4632   -0.4768 C   0  0  0  0  0  0  0  0  0  0  0  0
   -4.4098    0.3122   -0.8363 C   0  0  0  0  0  0  0  0  0  0  0  0
   -4.3153    1.6838   -0.8700 C   0  0  0  0  0  0  0  0  0  0  0  0
   -5.3649    2.5223   -1.2185 O   0  0  0  0  0  0  0  0  0  0  0  0
   -6.6512    2.1368   -1.5921 C   0  0  0  0  0  0  0  0  0  0  0  0
   -3.4083   -1.8092   -0.4118 N   0  0  0  0  0  0  0  0  0  0  0  0
   -2.3545   -2.5891   -0.0312 C   0  0  0  0  0  0  0  0  0  0  0  0
   -1.1929   -1.9724    0.2879 N   0  0  0  0  0  0  0  0  0  0  0  0
   -1.0597   -0.6308    0.2375 C   0  0  0  0  0  0  0  0  0  0  0  0
    0.2306   -0.1001    0.5534 N   0  0  0  0  0  0  0  0  0  0  0  0
    1.1136    0.1207   -0.5751 C   0  0  0  0  0  0  0  0  0  0  0  0
    2.4278    0.6400   -0.1058 C   0  0  0  0  0  0  0  0  0  0  0  0
    2.8913    0.0388    1.1147 N   0  0  0  0  0  0  0  0  0  0  0  0
    1.9942   -0.3630    2.2080 C   0  0  0  0  0  0  0  0  0  0  0  0
    0.6373    0.2112    1.9001 C   0  0  0  0  0  0  0  0  0  0  0  0
    4.2847   -0.2286    1.3806 C   0  0  0  0  0  0  0  0  0  0  0  0
    4.6635   -0.7518    2.4754 O   0  0  0  0  0  0  0  0  0  0  0  0
    5.3420    0.0771    0.4254 C   0  0  0  0  0  0  0  0  0  0  0  0
    5.4864    1.3342   -0.0936 C   0  0  0  0  0  0  0  0  0  0  0  0
    6.5500    1.5073   -0.9896 C   0  0  0  0  0  0  0  0  0  0  0  0
    7.3876    0.4678   -1.3176 C   0  0  0  0  0  0  0  0  0  0  0  0
    7.2335   -0.7956   -0.7909 C   0  0  0  0  0  0  0  0  0  0  0  0
    6.1859   -0.9845    0.0993 C   0  0  0  0  0  0  0  0  0  0  0  0
   -2.5213   -4.0625   -0.0011 C   0  0  0  0  0  0  0  0  0  0  0  0
   -3.3381   -4.7407   -1.0380 C   0  0  0  0  0  0  0  0  0  0  0  0
   -3.9376   -4.5292    0.2963 C   0  0  0  0  0  0  0  0  0  0  0  0
   -1.2142    3.8667    0.6614 H   0  0  0  0  0  0  0  0  0  0  0  0
   -1.0494    4.2588   -1.0891 H   0  0  0  0  0  0  0  0  0  0  0  0
   -1.9876    5.3430   -0.0047 H   0  0  0  0  0  0  0  0  0  0  0  0
   -1.0414    1.9291    0.0914 H   0  0  0  0  0  0  0  0  0  0  0  0
   -5.3264   -0.2060   -1.0873 H   0  0  0  0  0  0  0  0  0  0  0  0
   -7.3872    2.8204   -1.1789 H   0  0  0  0  0  0  0  0  0  0  0  0
   -6.6819    2.0776   -2.7182 H   0  0  0  0  0  0  0  0  0  0  0  0
   -6.8438    1.0991   -1.2137 H   0  0  0  0  0  0  0  0  0  0  0  0
    0.6937    0.8330   -1.3291 H   0  0  0  0  0  0  0  0  0  0  0  0
    1.2774   -0.8527   -1.1277 H   0  0  0  0  0  0  0  0  0  0  0  0
    2.3468    1.7552    0.0805 H   0  0  0  0  0  0  0  0  0  0  0  0
    3.2273    0.5183   -0.8764 H   0  0  0  0  0  0  0  0  0  0  0  0
    2.3596    0.0428    3.1766 H   0  0  0  0  0  0  0  0  0  0  0  0
    1.8935   -1.4716    2.2271 H   0  0  0  0  0  0  0  0  0  0  0  0
   -0.0708   -0.1983    2.6553 H   0  0  0  0  0  0  0  0  0  0  0  0
    0.7135    1.3125    2.0595 H   0  0  0  0  0  0  0  0  0  0  0  0
    4.8429    2.1520    0.1509 H   0  0  0  0  0  0  0  0  0  0  0  0
    6.6868    2.5068   -1.4212 H   0  0  0  0  0  0  0  0  0  0  0  0
    8.1850    0.6996   -2.0242 H   0  0  0  0  0  0  0  0  0  0  0  0
    7.8853   -1.6163   -1.0434 H   0  0  0  0  0  0  0  0  0  0  0  0
    6.0566   -1.9770    0.5194 H   0  0  0  0  0  0  0  0  0  0  0  0
   -1.6651   -4.5869    0.4750 H   0  0  0  0  0  0  0  0  0  0  0  0
   -3.0181   -5.7668   -1.2909 H   0  0  0  0  0  0  0  0  0  0  0  0
   -3.7270   -4.1481   -1.8831 H   0  0  0  0  0  0  0  0  0  0  0  0
   -4.0118   -5.3533    1.0364 H   0  0  0  0  0  0  0  0  0  0  0  0
   -4.7633   -3.8143    0.3793 H   0  0  0  0  0  0  0  0  0  0  0  0
  1  2  1  0
  2  3  1  0
  3  4  2  0
  4  5  1  0
  5  6  2  0
  6  7  1  0
  7  8  2  0
  8  9  1  0
  9 10  1  0
  6 11  1  0
 11 12  2  0
 12 13  1  0
 13 14  2  0
 14 15  1  0
 15 16  1  0
 16 17  1  0
 17 18  1  0
 18 19  1  0
 19 20  1  0
 18 21  1  0
 21 22  2  0
 21 23  1  0
 23 24  2  0
 24 25  1  0
 25 26  2  0
 26 27  1  0
 27 28  2  0
 12 29  1  0
 29 30  1  0
 30 31  1  0
  8  3  1  0
 20 15  1  0
 28 23  1  0
 31 29  1  0
 14  5  1  0
  1 32  1  0
  1 33  1  0
  1 34  1  0
  4 35  1  0
  7 36  1  0
 10 37  1  0
 10 38  1  0
 10 39  1  0
 16 40  1  0
 16 41  1  0
 17 42  1  0
 17 43  1  0
 19 44  1  0
 19 45  1  0
 20 46  1  0
 20 47  1  0
 24 48  1  0
 25 49  1  0
 26 50  1  0
 27 51  1  0
 28 52  1  0
 29 53  1  0
 30 54  1  0
 30 55  1  0
 31 56  1  0
 31 57  1  0
M  END
>  <Ligand ID>  (1) 
LIG0004748

>  <Ligand>  (1) 
CHEMBL2431108

>  <SMILES>  (1) 
COc1cc2c(cc1OC)nc(nc2N1CCN(CC1)C(=O)c1ccccc1)C1CC1

>  <CID>  (1) 
56593289.0

>  <ChEMBL ID>  (1) 
nan

>  <InChiKey>  (1) 
LAVIRFINTRGEDZ-UHFFFAOYSA-N

>  <InChi>  (1) 
InChI=1S/C24H26N4O3/c1-30-20-14-18-19(15-21(20)31-2)25-22(16-8-9-16)26-23(18)27-10-12-28(13-11-27)24(29)17-6-4-3-5-7-17/h3-7,14-16H,8-13H2,1-2H3

>  <IUPAC Name>  (1) 
[4-(2-cyclopropyl-6,7-dimethoxyquinazolin-4-yl)piperazin-1-yl]-phenylmethanone

$$$$
