
     RDKit          3D

 65 67  0  0  0  0  0  0  0  0999 V2000
  -10.8837    0.8353    2.7196 O   0  0  0  0  0  0  0  0  0  0  0  0
  -10.8052    0.1127    1.5516 C   0  0  0  0  0  0  0  0  0  0  0  0
  -11.8582   -0.3184    0.9892 O   0  0  0  0  0  0  0  0  0  0  0  0
   -9.5140   -0.2135    0.8708 C   0  0  0  0  0  0  0  0  0  0  0  0
   -8.3282    0.3620    1.6374 C   0  0  0  0  0  0  0  0  0  0  0  0
   -7.0578    0.0480    0.9759 C   0  0  0  0  0  0  0  0  0  0  0  0
   -6.4350    1.0760    0.2613 C   0  0  0  0  0  0  0  0  0  0  0  0
   -5.2384    0.8847   -0.3968 C   0  0  0  0  0  0  0  0  0  0  0  0
   -4.6659   -0.3676   -0.3287 C   0  0  0  0  0  0  0  0  0  0  0  0
   -5.2776   -1.3778    0.3734 C   0  0  0  0  0  0  0  0  0  0  0  0
   -6.4734   -1.1834    1.0300 C   0  0  0  0  0  0  0  0  0  0  0  0
   -7.0943   -2.1818    1.7335 F   0  0  0  0  0  0  0  0  0  0  0  0
   -3.4311   -0.5752   -1.0051 N   0  0  0  0  0  0  0  0  0  0  0  0
   -2.8150    0.5054   -1.7332 C   0  0  0  0  0  0  0  0  0  0  0  0
   -1.5385    0.0784   -2.3716 C   0  0  0  0  0  0  0  0  0  0  0  0
   -1.6483   -0.4297   -3.6634 C   0  0  0  0  0  0  0  0  0  0  0  0
   -0.5404   -0.8602   -4.3641 C   0  0  0  0  0  0  0  0  0  0  0  0
    0.6986   -0.7648   -3.7225 C   0  0  0  0  0  0  0  0  0  0  0  0
    0.8137   -0.2607   -2.4387 C   0  0  0  0  0  0  0  0  0  0  0  0
   -0.3149    0.1714   -1.7408 C   0  0  0  0  0  0  0  0  0  0  0  0
    2.1218   -0.1779   -1.7979 C   0  0  0  0  0  0  0  0  0  0  0  0
    2.4762    0.9851   -1.1401 C   0  0  0  0  0  0  0  0  0  0  0  0
    3.7184    1.0801   -0.5282 C   0  0  0  0  0  0  0  0  0  0  0  0
    4.6340    0.0450   -0.5472 C   0  0  0  0  0  0  0  0  0  0  0  0
    4.2622   -1.1068   -1.2081 C   0  0  0  0  0  0  0  0  0  0  0  0
    3.0194   -1.2261   -1.8306 C   0  0  0  0  0  0  0  0  0  0  0  0
    2.7005   -2.4851   -2.5101 C   0  0  0  0  0  0  0  0  0  0  0  0
    5.8856    0.1563    0.0760 O   0  0  0  0  0  0  0  0  0  0  0  0
    6.1738    1.3676    0.7235 C   0  0  0  0  0  0  0  0  0  0  0  0
    7.5736    1.2432    1.3154 C   0  0  0  0  0  0  0  0  0  0  0  0
    7.5387    0.0874    2.2816 C   0  0  0  0  0  0  0  0  0  0  0  0
    9.1071   -0.1889    3.0617 S   0  0  0  0  0  0  0  0  0  0  0  0
   10.1396   -0.5730    2.0679 O   0  0  0  0  0  0  0  0  0  0  0  0
    8.9291   -1.3258    4.0293 O   0  0  0  0  0  0  0  0  0  0  0  0
    9.5858    1.2639    3.9623 C   0  0  0  0  0  0  0  0  0  0  0  0
  -11.7098    0.7951    3.2948 H   0  0  0  0  0  0  0  0  0  0  0  0
   -9.5328    0.3065   -0.1115 H   0  0  0  0  0  0  0  0  0  0  0  0
   -9.4195   -1.3014    0.7344 H   0  0  0  0  0  0  0  0  0  0  0  0
   -8.4877    1.4429    1.7734 H   0  0  0  0  0  0  0  0  0  0  0  0
   -8.4008   -0.1067    2.6543 H   0  0  0  0  0  0  0  0  0  0  0  0
   -6.8706    2.0687    0.1963 H   0  0  0  0  0  0  0  0  0  0  0  0
   -4.7806    1.7117   -0.9455 H   0  0  0  0  0  0  0  0  0  0  0  0
   -4.8188   -2.3685    0.4238 H   0  0  0  0  0  0  0  0  0  0  0  0
   -2.9885   -1.5093   -0.9638 H   0  0  0  0  0  0  0  0  0  0  0  0
   -2.5464    1.3010   -1.0020 H   0  0  0  0  0  0  0  0  0  0  0  0
   -3.5075    0.9654   -2.4608 H   0  0  0  0  0  0  0  0  0  0  0  0
   -2.6061   -0.5043   -4.1623 H   0  0  0  0  0  0  0  0  0  0  0  0
   -0.6194   -1.2562   -5.3690 H   0  0  0  0  0  0  0  0  0  0  0  0
    1.5396   -1.1084   -4.2991 H   0  0  0  0  0  0  0  0  0  0  0  0
   -0.2563    0.5699   -0.7368 H   0  0  0  0  0  0  0  0  0  0  0  0
    1.7876    1.8320   -1.0968 H   0  0  0  0  0  0  0  0  0  0  0  0
    4.0088    1.9839   -0.0104 H   0  0  0  0  0  0  0  0  0  0  0  0
    4.9466   -1.9421   -1.2486 H   0  0  0  0  0  0  0  0  0  0  0  0
    3.2083   -2.6272   -3.4923 H   0  0  0  0  0  0  0  0  0  0  0  0
    3.1466   -3.3004   -1.8665 H   0  0  0  0  0  0  0  0  0  0  0  0
    1.6237   -2.7130   -2.5228 H   0  0  0  0  0  0  0  0  0  0  0  0
    6.1665    2.1834   -0.0567 H   0  0  0  0  0  0  0  0  0  0  0  0
    5.4502    1.6555    1.5006 H   0  0  0  0  0  0  0  0  0  0  0  0
    8.2352    1.0134    0.4528 H   0  0  0  0  0  0  0  0  0  0  0  0
    7.8412    2.2046    1.8062 H   0  0  0  0  0  0  0  0  0  0  0  0
    6.7267    0.2104    3.0023 H   0  0  0  0  0  0  0  0  0  0  0  0
    7.2773   -0.8092    1.6643 H   0  0  0  0  0  0  0  0  0  0  0  0
    9.1044    1.2893    4.9422 H   0  0  0  0  0  0  0  0  0  0  0  0
   10.6885    1.1702    4.1616 H   0  0  0  0  0  0  0  0  0  0  0  0
    9.3353    2.1569    3.3687 H   0  0  0  0  0  0  0  0  0  0  0  0
  1  2  1  0
  2  3  2  0
  2  4  1  0
  4  5  1  0
  5  6  1  0
  6  7  2  0
  7  8  1  0
  8  9  2  0
  9 10  1  0
 10 11  2  0
 11 12  1  0
  9 13  1  0
 13 14  1  0
 14 15  1  0
 15 16  2  0
 16 17  1  0
 17 18  2  0
 18 19  1  0
 19 20  2  0
 19 21  1  0
 21 22  2  0
 22 23  1  0
 23 24  2  0
 24 25  1  0
 25 26  2  0
 26 27  1  0
 24 28  1  0
 28 29  1  0
 29 30  1  0
 30 31  1  0
 31 32  1  0
 32 33  2  0
 32 34  2  0
 32 35  1  0
 11  6  1  0
 20 15  1  0
 26 21  1  0
  1 36  1  0
  4 37  1  0
  4 38  1  0
  5 39  1  0
  5 40  1  0
  7 41  1  0
  8 42  1  0
 10 43  1  0
 13 44  1  0
 14 45  1  0
 14 46  1  0
 16 47  1  0
 17 48  1  0
 18 49  1  0
 20 50  1  0
 22 51  1  0
 23 52  1  0
 25 53  1  0
 27 54  1  0
 27 55  1  0
 27 56  1  0
 29 57  1  0
 29 58  1  0
 30 59  1  0
 30 60  1  0
 31 61  1  0
 31 62  1  0
 35 63  1  0
 35 64  1  0
 35 65  1  0
M  END
>  <Ligand ID>  (1) 
LIG0003632

>  <Ligand>  (1) 
TUG-905

>  <SMILES>  (1) 
OC(=O)CCc1ccc(cc1F)NCc1cccc(c1)c1ccc(cc1C)OCCCS(=O)(=O)C

>  <CID>  (1) 
60195125.0

>  <ChEMBL ID>  (1) 
nan

>  <InChiKey>  (1) 
ODIHLEYTPVYAPY-UHFFFAOYSA-N

>  <InChi>  (1) 
InChI=1S/C27H30FNO5S/c1-19-15-24(34-13-4-14-35(2,32)33)10-11-25(19)22-6-3-5-20(16-22)18-29-23-9-7-21(26(28)17-23)8-12-27(30)31/h3,5-7,9-11,15-17,29H,4,8,12-14,18H2,1-2H3,(H,30,31)

>  <IUPAC Name>  (1) 
3-[2-fluoro-4-[[3-[2-methyl-4-(3-methylsulfonylpropoxy)phenyl]phenyl]methylamino]phenyl]propanoic acid

$$$$
