
     RDKit          3D

 51 55  0  0  0  0  0  0  0  0999 V2000
   -1.1210    2.0067   -0.8584 C   0  0  0  0  0  0  0  0  0  0  0  0
   -0.6567    1.8515    0.5347 C   0  0  1  0  0  0  0  0  0  0  0  0
   -1.6687    1.2103    1.4926 C   0  0  0  0  0  0  0  0  0  0  0  0
   -2.0630   -0.1100    1.0816 N   0  0  0  0  0  0  0  0  0  0  0  0
   -1.3110   -1.2047    1.4141 C   0  0  0  0  0  0  0  0  0  0  0  0
   -1.8503   -2.3511    0.8992 C   0  0  0  0  0  0  0  0  0  0  0  0
   -2.9799   -1.9700    0.2193 C   0  0  0  0  0  0  0  0  0  0  0  0
   -3.0673   -0.5813    0.3615 C   0  0  0  0  0  0  0  0  0  0  0  0
   -4.1384    0.0112   -0.2398 C   0  0  0  0  0  0  0  0  0  0  0  0
   -4.3230    1.3664   -0.1557 C   0  0  0  0  0  0  0  0  0  0  0  0
   -5.4324    1.9688   -0.7718 C   0  0  0  0  0  0  0  0  0  0  0  0
   -6.3098    1.1624   -1.4502 C   0  0  0  0  0  0  0  0  0  0  0  0
   -6.1217   -0.1626   -1.5279 N   0  0  0  0  0  0  0  0  0  0  0  0
   -5.0471   -0.7343   -0.9291 C   0  0  0  0  0  0  0  0  0  0  0  0
   -4.9632   -2.1171   -1.0739 C   0  0  0  0  0  0  0  0  0  0  0  0
   -3.8836   -2.7199   -0.4680 C   0  0  0  0  0  0  0  0  0  0  0  0
    0.5867    1.1096    0.5716 N   0  0  0  0  0  0  0  0  0  0  0  0
    1.6373    1.7958   -0.0870 C   0  0  0  0  0  0  0  0  0  0  0  0
    2.8941    0.9728    0.1455 C   0  0  0  0  0  0  0  0  0  0  0  0
    3.6849    1.2251    1.2561 C   0  0  0  0  0  0  0  0  0  0  0  0
    4.8319    0.4921    1.4912 C   0  0  0  0  0  0  0  0  0  0  0  0
    5.2141   -0.5097    0.6211 C   0  0  0  0  0  0  0  0  0  0  0  0
    4.4162   -0.7481   -0.4791 C   0  0  0  0  0  0  0  0  0  0  0  0
    3.2805   -0.0156   -0.7034 C   0  0  0  0  0  0  0  0  0  0  0  0
    4.7542   -1.7364   -1.3766 C   0  0  0  0  0  0  0  0  0  0  0  0
    5.8842   -2.5108   -1.2105 C   0  0  0  0  0  0  0  0  0  0  0  0
    6.6754   -2.2727   -0.1173 C   0  0  0  0  0  0  0  0  0  0  0  0
    6.3469   -1.2736    0.8033 C   0  0  0  0  0  0  0  0  0  0  0  0
   -0.2926    2.3518   -1.5004 H   0  0  0  0  0  0  0  0  0  0  0  0
   -1.8579    2.8654   -0.8895 H   0  0  0  0  0  0  0  0  0  0  0  0
   -1.6284    1.1109   -1.2713 H   0  0  0  0  0  0  0  0  0  0  0  0
   -0.4816    2.8721    1.0119 H   0  0  0  0  0  0  0  0  0  0  0  0
   -0.9849    1.0638    2.4308 H   0  0  0  0  0  0  0  0  0  0  0  0
   -2.4042    1.8715    1.9136 H   0  0  0  0  0  0  0  0  0  0  0  0
   -0.3924   -1.2196    2.0083 H   0  0  0  0  0  0  0  0  0  0  0  0
   -1.4746   -3.3480    1.0007 H   0  0  0  0  0  0  0  0  0  0  0  0
   -3.6854    2.0570    0.3484 H   0  0  0  0  0  0  0  0  0  0  0  0
   -5.6064    3.0279   -0.7247 H   0  0  0  0  0  0  0  0  0  0  0  0
   -7.1511    1.6152   -1.9182 H   0  0  0  0  0  0  0  0  0  0  0  0
   -5.6972   -2.6863   -1.6265 H   0  0  0  0  0  0  0  0  0  0  0  0
   -3.7527   -3.7908   -0.5377 H   0  0  0  0  0  0  0  0  0  0  0  0
    0.4226    0.2021    0.0825 H   0  0  0  0  0  0  0  0  0  0  0  0
    1.8101    2.8231    0.2532 H   0  0  0  0  0  0  0  0  0  0  0  0
    1.5301    1.7661   -1.2129 H   0  0  0  0  0  0  0  0  0  0  0  0
    3.4033    1.9947    1.9366 H   0  0  0  0  0  0  0  0  0  0  0  0
    5.4762    0.6676    2.3584 H   0  0  0  0  0  0  0  0  0  0  0  0
    2.6449   -0.2019   -1.5754 H   0  0  0  0  0  0  0  0  0  0  0  0
    4.1477   -1.9525   -2.2566 H   0  0  0  0  0  0  0  0  0  0  0  0
    6.1369   -3.2806   -1.9201 H   0  0  0  0  0  0  0  0  0  0  0  0
    7.5828   -2.8727    0.0435 H   0  0  0  0  0  0  0  0  0  0  0  0
    6.9855   -1.0917    1.6727 H   0  0  0  0  0  0  0  0  0  0  0  0
  1  2  1  0
  2  3  1  0
  3  4  1  0
  4  5  1  0
  5  6  2  0
  6  7  1  0
  7  8  2  0
  8  9  1  0
  9 10  2  0
 10 11  1  0
 11 12  2  0
 12 13  1  0
 13 14  2  0
 14 15  1  0
 15 16  2  0
  2 17  1  0
 17 18  1  0
 18 19  1  0
 19 20  2  0
 20 21  1  0
 21 22  2  0
 22 23  1  0
 23 24  2  0
 23 25  1  0
 25 26  2  0
 26 27  1  0
 27 28  2  0
  8  4  1  0
 14  9  1  0
 24 19  1  0
 16  7  1  0
 28 22  1  0
  1 29  1  0
  1 30  1  0
  1 31  1  0
  2 32  1  1
  3 33  1  0
  3 34  1  0
  5 35  1  0
  6 36  1  0
 10 37  1  0
 11 38  1  0
 12 39  1  0
 15 40  1  0
 16 41  1  0
 17 42  1  0
 18 43  1  0
 18 44  1  0
 20 45  1  0
 21 46  1  0
 24 47  1  0
 25 48  1  0
 26 49  1  0
 27 50  1  0
 28 51  1  0
M  END
>  <Ligand ID>  (1) 
LIG0002149

>  <Ligand>  (1) 
CHEMBL202616

>  <SMILES>  (1) 
C[C@@H](Cn1ccc2c1c1cccnc1cc2)NCc1ccc2c(c1)cccc2

>  <CID>  (1) 
44407398.0

>  <ChEMBL ID>  (1) 
nan

>  <InChiKey>  (1) 
HECOADMZVNOEPY-SFHVURJKSA-N

>  <InChi>  (1) 
InChI=1S/C25H23N3/c1-18(27-16-19-8-9-20-5-2-3-6-22(20)15-19)17-28-14-12-21-10-11-24-23(25(21)28)7-4-13-26-24/h2-15,18,27H,16-17H2,1H3/t18-/m0/s1

>  <IUPAC Name>  (1) 
(2S)-N-(naphthalen-2-ylmethyl)-1-pyrrolo[2,3-f]quinolin-1-ylpropan-2-amine

$$$$
