
     RDKit          3D

 72 74  0  0  0  0  0  0  0  0999 V2000
   -6.3294    3.2400    1.7539 C   0  0  0  0  0  0  0  0  0  0  0  0
   -5.4545    1.9913    1.6786 C   0  0  0  0  0  0  0  0  0  0  0  0
   -5.1744    1.7106    0.2360 C   0  0  0  0  0  0  0  0  0  0  0  0
   -4.3274    0.5123    0.0080 C   0  0  0  0  0  0  0  0  0  0  0  0
   -2.9756    0.6924   -0.3070 C   0  0  0  0  0  0  0  0  0  0  0  0
   -2.1573   -0.3956   -0.5223 C   0  0  0  0  0  0  0  0  0  0  0  0
   -2.6787   -1.6847   -0.4259 C   0  0  0  0  0  0  0  0  0  0  0  0
   -4.0106   -1.8561   -0.1155 C   0  0  0  0  0  0  0  0  0  0  0  0
   -4.8343   -0.7652    0.1013 C   0  0  0  0  0  0  0  0  0  0  0  0
   -6.2283   -1.0184    0.4217 C   0  0  0  0  0  0  0  0  0  0  0  0
   -6.6378   -1.3820    1.5528 O   0  0  0  0  0  0  0  0  0  0  0  0
   -7.1956   -0.8390   -0.6287 N   0  0  0  0  0  0  0  0  0  0  0  0
   -8.8837   -1.1169   -0.3370 S   0  0  0  0  0  0  0  0  0  0  0  0
   -9.7312   -0.2744   -1.2633 O   0  0  0  0  0  0  0  0  0  0  0  0
   -9.1595   -0.8410    1.0949 O   0  0  0  0  0  0  0  0  0  0  0  0
   -9.2530   -2.8332   -0.6627 C   0  0  0  0  0  0  0  0  0  0  0  0
   -0.7420   -0.2914   -0.8446 C   0  0  0  0  0  0  0  0  0  0  0  0
    0.0666    0.7292   -0.3685 C   0  0  0  0  0  0  0  0  0  0  0  0
    1.4086    0.8257   -0.6779 C   0  0  0  0  0  0  0  0  0  0  0  0
    1.9896   -0.1296   -1.4985 C   0  0  0  0  0  0  0  0  0  0  0  0
    1.1859   -1.1496   -1.9760 C   0  0  0  0  0  0  0  0  0  0  0  0
   -0.1511   -1.2242   -1.6526 C   0  0  0  0  0  0  0  0  0  0  0  0
    3.4163   -0.0987   -1.8690 C   0  0  0  0  0  0  0  0  0  0  0  0
    4.2848   -0.9000   -0.8994 C   0  0  2  0  0  0  0  0  0  0  0  0
    5.6308   -0.7944   -1.3524 N   0  0  0  0  0  0  0  0  0  0  0  0
    6.6118   -1.5188   -0.6310 C   0  0  0  0  0  0  0  0  0  0  0  0
    6.9047   -1.0769    0.7586 C   0  0  1  0  0  0  0  0  0  0  0  0
    7.6650    0.1754    0.8839 C   0  0  0  0  0  0  0  0  0  0  0  0
    7.8190    0.6844    2.1773 C   0  0  0  0  0  0  0  0  0  0  0  0
    8.5156    1.8490    2.4180 C   0  0  0  0  0  0  0  0  0  0  0  0
    9.0950    2.5689    1.3929 C   0  0  0  0  0  0  0  0  0  0  0  0
    8.9305    2.0458    0.1154 C   0  0  0  0  0  0  0  0  0  0  0  0
    8.2339    0.8810   -0.1264 C   0  0  0  0  0  0  0  0  0  0  0  0
    5.7645   -1.1288    1.5640 O   0  0  0  0  0  0  0  0  0  0  0  0
    3.7920   -2.3088   -0.9176 C   0  0  0  0  0  0  0  0  0  0  0  0
   -4.1685    2.3231    2.4184 C   0  0  0  0  0  0  0  0  0  0  0  0
   -6.2272    3.8658    0.8623 H   0  0  0  0  0  0  0  0  0  0  0  0
   -6.1225    3.8138    2.6811 H   0  0  0  0  0  0  0  0  0  0  0  0
   -7.4129    2.9552    1.8280 H   0  0  0  0  0  0  0  0  0  0  0  0
   -6.0096    1.1970    2.1974 H   0  0  0  0  0  0  0  0  0  0  0  0
   -6.1397    1.6377   -0.3160 H   0  0  0  0  0  0  0  0  0  0  0  0
   -4.6581    2.6002   -0.1996 H   0  0  0  0  0  0  0  0  0  0  0  0
   -2.5661    1.6849   -0.3838 H   0  0  0  0  0  0  0  0  0  0  0  0
   -2.0726   -2.5648   -0.5862 H   0  0  0  0  0  0  0  0  0  0  0  0
   -4.3887   -2.8679   -0.0470 H   0  0  0  0  0  0  0  0  0  0  0  0
   -6.8928   -0.5340   -1.5987 H   0  0  0  0  0  0  0  0  0  0  0  0
   -8.3618   -3.3671   -1.0297 H   0  0  0  0  0  0  0  0  0  0  0  0
  -10.0979   -2.9234   -1.3779 H   0  0  0  0  0  0  0  0  0  0  0  0
   -9.6120   -3.3433    0.2768 H   0  0  0  0  0  0  0  0  0  0  0  0
   -0.3899    1.4830    0.2777 H   0  0  0  0  0  0  0  0  0  0  0  0
    2.0416    1.6300   -0.3013 H   0  0  0  0  0  0  0  0  0  0  0  0
    1.5751   -1.9212   -2.6166 H   0  0  0  0  0  0  0  0  0  0  0  0
   -0.7493   -2.0236   -2.0363 H   0  0  0  0  0  0  0  0  0  0  0  0
    3.7651    0.9550   -1.9038 H   0  0  0  0  0  0  0  0  0  0  0  0
    3.5108   -0.4759   -2.9094 H   0  0  0  0  0  0  0  0  0  0  0  0
    4.0787   -0.4734    0.1018 H   0  0  0  0  0  0  0  0  0  0  0  0
    5.8737    0.1239   -1.7174 H   0  0  0  0  0  0  0  0  0  0  0  0
    6.3406   -2.5920   -0.5973 H   0  0  0  0  0  0  0  0  0  0  0  0
    7.5811   -1.4342   -1.2025 H   0  0  0  0  0  0  0  0  0  0  0  0
    7.5773   -1.8779    1.1987 H   0  0  0  0  0  0  0  0  0  0  0  0
    7.3992    0.1890    3.0449 H   0  0  0  0  0  0  0  0  0  0  0  0
    8.6200    2.2251    3.4434 H   0  0  0  0  0  0  0  0  0  0  0  0
    9.6398    3.4815    1.5886 H   0  0  0  0  0  0  0  0  0  0  0  0
    9.3554    2.5523   -0.7409 H   0  0  0  0  0  0  0  0  0  0  0  0
    8.1400    0.5184   -1.1371 H   0  0  0  0  0  0  0  0  0  0  0  0
    5.6424   -0.3264    2.1327 H   0  0  0  0  0  0  0  0  0  0  0  0
    4.3750   -2.9792   -0.2334 H   0  0  0  0  0  0  0  0  0  0  0  0
    3.7360   -2.7047   -1.9384 H   0  0  0  0  0  0  0  0  0  0  0  0
    2.7630   -2.3308   -0.4969 H   0  0  0  0  0  0  0  0  0  0  0  0
   -3.7747    3.3118    2.1080 H   0  0  0  0  0  0  0  0  0  0  0  0
   -3.3619    1.5920    2.2188 H   0  0  0  0  0  0  0  0  0  0  0  0
   -4.3988    2.3218    3.5003 H   0  0  0  0  0  0  0  0  0  0  0  0
  1  2  1  0
  2  3  1  0
  3  4  1  0
  4  5  2  0
  5  6  1  0
  6  7  2  0
  7  8  1  0
  8  9  2  0
  9 10  1  0
 10 11  2  0
 10 12  1  0
 12 13  1  0
 13 14  2  0
 13 15  2  0
 13 16  1  0
  6 17  1  0
 17 18  2  0
 18 19  1  0
 19 20  2  0
 20 21  1  0
 21 22  2  0
 20 23  1  0
 23 24  1  0
 24 25  1  0
 25 26  1  0
 26 27  1  0
 27 28  1  0
 28 29  2  0
 29 30  1  0
 30 31  2  0
 31 32  1  0
 32 33  2  0
 27 34  1  0
 24 35  1  0
  2 36  1  0
  9  4  1  0
 22 17  1  0
 33 28  1  0
  1 37  1  0
  1 38  1  0
  1 39  1  0
  2 40  1  0
  3 41  1  0
  3 42  1  0
  5 43  1  0
  7 44  1  0
  8 45  1  0
 12 46  1  0
 16 47  1  0
 16 48  1  0
 16 49  1  0
 18 50  1  0
 19 51  1  0
 21 52  1  0
 22 53  1  0
 23 54  1  0
 23 55  1  0
 24 56  1  1
 25 57  1  0
 26 58  1  0
 26 59  1  0
 27 60  1  1
 29 61  1  0
 30 62  1  0
 31 63  1  0
 32 64  1  0
 33 65  1  0
 34 66  1  0
 35 67  1  0
 35 68  1  0
 35 69  1  0
 36 70  1  0
 36 71  1  0
 36 72  1  0
M  END
>  <Ligand ID>  (1) 
LIG0005451

>  <Ligand>  (1) 
CHEMBL551532

>  <SMILES>  (1) 
CC(Cc1cc(ccc1C(=O)NS(=O)(=O)C)c1ccc(cc1)C[C@H](NC[C@@H](c1ccccc1)O)C)C

>  <CID>  (1) 
45271886.0

>  <ChEMBL ID>  (1) 
nan

>  <InChiKey>  (1) 
HZBACCFYWKQVGF-PIKZIKFNSA-N

>  <InChi>  (1) 
InChI=1S/C29H36N2O4S/c1-20(2)16-26-18-25(14-15-27(26)29(33)31-36(4,34)35)23-12-10-22(11-13-23)17-21(3)30-19-28(32)24-8-6-5-7-9-24/h5-15,18,20-21,28,30,32H,16-17,19H2,1-4H3,(H,31,33)/t21-,28+/m1/s1

>  <IUPAC Name>  (1) 
4-[4-[(2R)-2-[[(2R)-2-hydroxy-2-phenylethyl]amino]propyl]phenyl]-2-(2-methylpropyl)-N-methylsulfonylbenzamide

$$$$
