
     RDKit          3D

 53 55  0  0  0  0  0  0  0  0999 V2000
   10.4459   -0.3924   -1.2344 O   0  0  0  0  0  0  0  0  0  0  0  0
    9.0751   -0.3262   -1.0525 C   0  0  0  0  0  0  0  0  0  0  0  0
    8.3645   -1.2380   -1.5393 O   0  0  0  0  0  0  0  0  0  0  0  0
    8.5134    0.8047   -0.3006 C   0  0  0  0  0  0  0  0  0  0  0  0
    7.0240    0.7235   -0.1925 C   0  0  0  0  0  0  0  0  0  0  0  0
    6.2050    1.2624   -1.1707 C   0  0  0  0  0  0  0  0  0  0  0  0
    4.8372    1.1628   -1.0261 C   0  0  0  0  0  0  0  0  0  0  0  0
    4.2673    0.5304    0.0863 C   0  0  0  0  0  0  0  0  0  0  0  0
    5.1021   -0.0068    1.0619 C   0  0  0  0  0  0  0  0  0  0  0  0
    6.4826    0.0901    0.9218 C   0  0  0  0  0  0  0  0  0  0  0  0
    2.8147    0.4417    0.2156 C   0  0  0  0  0  0  0  0  0  0  0  0
    1.9637    0.3357   -0.8590 C   0  0  0  0  0  0  0  0  0  0  0  0
    0.6002    0.2678   -0.6304 C   0  0  0  0  0  0  0  0  0  0  0  0
    0.1006    0.3062    0.6603 C   0  0  0  0  0  0  0  0  0  0  0  0
    0.9747    0.4138    1.7405 C   0  0  0  0  0  0  0  0  0  0  0  0
    2.3251    0.4809    1.5214 C   0  0  0  0  0  0  0  0  0  0  0  0
   -1.3454    0.2412    0.9657 C   0  0  0  0  0  0  0  0  0  0  0  0
   -1.8633   -1.1514    1.1902 C   0  0  0  0  0  0  0  0  0  0  0  0
   -3.2654   -1.1166    1.4813 N   0  0  0  0  0  0  0  0  0  0  0  0
   -4.1184   -0.7380    0.3999 C   0  0  0  0  0  0  0  0  0  0  0  0
   -5.5521   -0.7221    0.8816 C   0  0  1  0  0  0  0  0  0  0  0  0
   -6.5106   -0.2346   -0.1195 C   0  0  0  0  0  0  0  0  0  0  0  0
   -6.1785    0.2755   -1.3522 C   0  0  0  0  0  0  0  0  0  0  0  0
   -7.1402    0.7227   -2.2421 C   0  0  0  0  0  0  0  0  0  0  0  0
   -8.4796    0.6557   -1.8830 C   0  0  0  0  0  0  0  0  0  0  0  0
   -8.8387    0.1433   -0.6419 C   0  0  0  0  0  0  0  0  0  0  0  0
   -7.8628   -0.2930    0.2212 C   0  0  0  0  0  0  0  0  0  0  0  0
  -10.5505    0.0661   -0.2031 Cl  0  0  0  0  0  0  0  0  0  0  0  0
   -5.9810   -1.9565    1.3580 O   0  0  0  0  0  0  0  0  0  0  0  0
   10.9455   -1.2767   -1.3462 H   0  0  0  0  0  0  0  0  0  0  0  0
    8.8340    1.7433   -0.7789 H   0  0  0  0  0  0  0  0  0  0  0  0
    8.9344    0.7807    0.7205 H   0  0  0  0  0  0  0  0  0  0  0  0
    6.6328    1.7611   -2.0467 H   0  0  0  0  0  0  0  0  0  0  0  0
    4.2028    1.5813   -1.7872 H   0  0  0  0  0  0  0  0  0  0  0  0
    4.6605   -0.4982    1.9259 H   0  0  0  0  0  0  0  0  0  0  0  0
    7.1563   -0.3113    1.6500 H   0  0  0  0  0  0  0  0  0  0  0  0
    2.3939    0.3084   -1.8608 H   0  0  0  0  0  0  0  0  0  0  0  0
   -0.0646    0.1842   -1.4665 H   0  0  0  0  0  0  0  0  0  0  0  0
    0.5775    0.4448    2.7551 H   0  0  0  0  0  0  0  0  0  0  0  0
    2.9729    0.5633    2.3834 H   0  0  0  0  0  0  0  0  0  0  0  0
   -1.5384    0.7863    1.9377 H   0  0  0  0  0  0  0  0  0  0  0  0
   -1.9443    0.8052    0.2054 H   0  0  0  0  0  0  0  0  0  0  0  0
   -1.3694   -1.5010    2.1427 H   0  0  0  0  0  0  0  0  0  0  0  0
   -1.5964   -1.8535    0.3771 H   0  0  0  0  0  0  0  0  0  0  0  0
   -3.6206   -1.9595    1.9811 H   0  0  0  0  0  0  0  0  0  0  0  0
   -3.8376    0.1860   -0.0994 H   0  0  0  0  0  0  0  0  0  0  0  0
   -4.0781   -1.5571   -0.3780 H   0  0  0  0  0  0  0  0  0  0  0  0
   -5.6356   -0.0242    1.7661 H   0  0  0  0  0  0  0  0  0  0  0  0
   -5.1443    0.3287   -1.6368 H   0  0  0  0  0  0  0  0  0  0  0  0
   -6.8506    1.1238   -3.2143 H   0  0  0  0  0  0  0  0  0  0  0  0
   -9.2631    0.9918   -2.5453 H   0  0  0  0  0  0  0  0  0  0  0  0
   -8.1831   -0.6913    1.1949 H   0  0  0  0  0  0  0  0  0  0  0  0
   -5.5939   -2.6650    0.7671 H   0  0  0  0  0  0  0  0  0  0  0  0
  1  2  1  0
  2  3  2  0
  2  4  1  0
  4  5  1  0
  5  6  2  0
  6  7  1  0
  7  8  2  0
  8  9  1  0
  9 10  2  0
  8 11  1  0
 11 12  2  0
 12 13  1  0
 13 14  2  0
 14 15  1  0
 15 16  2  0
 14 17  1  0
 17 18  1  0
 18 19  1  0
 19 20  1  0
 20 21  1  0
 21 22  1  0
 22 23  2  0
 23 24  1  0
 24 25  2  0
 25 26  1  0
 26 27  2  0
 26 28  1  0
 21 29  1  0
 10  5  1  0
 16 11  1  0
 27 22  1  0
  1 30  1  0
  4 31  1  0
  4 32  1  0
  6 33  1  0
  7 34  1  0
  9 35  1  0
 10 36  1  0
 12 37  1  0
 13 38  1  0
 15 39  1  0
 16 40  1  0
 17 41  1  0
 17 42  1  0
 18 43  1  0
 18 44  1  0
 19 45  1  0
 20 46  1  0
 20 47  1  0
 21 48  1  1
 23 49  1  0
 24 50  1  0
 25 51  1  0
 27 52  1  0
 29 53  1  0
M  END
>  <Ligand ID>  (1) 
LIG0005823

>  <Ligand>  (1) 
CHEMBL408694

>  <SMILES>  (1) 
OC(=O)Cc1ccc(cc1)c1ccc(cc1)CCNC[C@@H](c1cccc(c1)Cl)O

>  <CID>  (1) 
24822970.0

>  <ChEMBL ID>  (1) 
nan

>  <InChiKey>  (1) 
ZDQYZZAKPIWNLU-QHCPKHFHSA-N

>  <InChi>  (1) 
InChI=1S/C24H24ClNO3/c25-22-3-1-2-21(15-22)23(27)16-26-13-12-17-4-8-19(9-5-17)20-10-6-18(7-11-20)14-24(28)29/h1-11,15,23,26-27H,12-14,16H2,(H,28,29)/t23-/m0/s1

>  <IUPAC Name>  (1) 
2-[4-[4-[2-[[(2R)-2-(3-chlorophenyl)-2-hydroxyethyl]amino]ethyl]phenyl]phenyl]acetic acid

$$$$
