
     RDKit          3D

 56 57  0  0  0  0  0  0  0  0999 V2000
   -7.8450    0.7497   -2.7251 O   0  0  0  0  0  0  0  0  0  0  0  0
   -7.2839    0.7154   -1.4426 C   0  0  0  0  0  0  0  0  0  0  0  0
   -7.6053    1.6278   -0.6654 O   0  0  0  0  0  0  0  0  0  0  0  0
   -6.3684   -0.4026   -1.1491 C   0  0  0  0  0  0  0  0  0  0  0  0
   -5.7681   -0.3625    0.2102 C   0  0  0  0  0  0  0  0  0  0  0  0
   -4.9309    0.8549    0.4627 C   0  0  0  0  0  0  0  0  0  0  0  0
   -3.8030    0.9721   -0.4717 C   0  0  0  0  0  0  0  0  0  0  0  0
   -2.5241    1.0103   -0.1880 C   0  0  0  0  0  0  0  0  0  0  0  0
   -1.8898    0.9460    1.1324 C   0  0  0  0  0  0  0  0  0  0  0  0
   -0.9497   -0.2096    1.3065 C   0  0  1  0  0  0  0  0  0  0  0  0
   -1.7223   -1.4718    1.1109 C   0  0  0  0  0  0  0  0  0  0  0  0
   -2.7800   -1.7072    1.6676 O   0  0  0  0  0  0  0  0  0  0  0  0
   -0.9659   -2.3445    0.1384 C   0  0  0  0  0  0  0  0  0  0  0  0
    0.4491   -1.8126    0.3805 C   0  0  2  0  0  0  0  0  0  0  0  0
    0.1486   -0.3060    0.3093 C   0  0  2  0  0  0  0  0  0  0  0  0
    1.3878    0.4066    0.6416 C   0  0  0  0  0  0  0  0  0  0  0  0
    1.6264    1.1142    1.7129 C   0  0  0  0  0  0  0  0  0  0  0  0
    2.8993    1.8092    1.9891 C   0  0  2  0  0  0  0  0  0  0  0  0
    3.9400    1.6281    0.9396 C   0  0  0  0  0  0  0  0  0  0  0  0
    4.3323    0.2740    0.8655 O   0  0  0  0  0  0  0  0  0  0  0  0
    5.3086   -0.1560   -0.0538 C   0  0  0  0  0  0  0  0  0  0  0  0
    5.8992    0.7619   -0.9037 C   0  0  0  0  0  0  0  0  0  0  0  0
    6.8634    0.3136   -1.8056 C   0  0  0  0  0  0  0  0  0  0  0  0
    7.1864   -1.0420   -1.8070 C   0  0  0  0  0  0  0  0  0  0  0  0
    6.5873   -1.9438   -0.9520 C   0  0  0  0  0  0  0  0  0  0  0  0
    5.6291   -1.4980   -0.0558 C   0  0  0  0  0  0  0  0  0  0  0  0
    3.3685    1.4289    3.2297 O   0  0  0  0  0  0  0  0  0  0  0  0
    1.3309   -2.2304   -0.5794 O   0  0  0  0  0  0  0  0  0  0  0  0
   -8.6923    1.2884   -2.8434 H   0  0  0  0  0  0  0  0  0  0  0  0
   -6.9431   -1.3409   -1.3052 H   0  0  0  0  0  0  0  0  0  0  0  0
   -5.6003   -0.3857   -1.9651 H   0  0  0  0  0  0  0  0  0  0  0  0
   -5.1248   -1.2684    0.3359 H   0  0  0  0  0  0  0  0  0  0  0  0
   -6.6090   -0.4237    0.9605 H   0  0  0  0  0  0  0  0  0  0  0  0
   -5.5797    1.7538    0.3683 H   0  0  0  0  0  0  0  0  0  0  0  0
   -4.6151    0.8610    1.5461 H   0  0  0  0  0  0  0  0  0  0  0  0
   -4.0826    1.0352   -1.5458 H   0  0  0  0  0  0  0  0  0  0  0  0
   -1.8396    1.1054   -1.0517 H   0  0  0  0  0  0  0  0  0  0  0  0
   -1.3866    1.9284    1.2900 H   0  0  0  0  0  0  0  0  0  0  0  0
   -2.6672    0.8302    1.9083 H   0  0  0  0  0  0  0  0  0  0  0  0
   -0.5720   -0.2352    2.3498 H   0  0  0  0  0  0  0  0  0  0  0  0
   -1.2284   -2.1096   -0.9131 H   0  0  0  0  0  0  0  0  0  0  0  0
   -1.0677   -3.4074    0.3779 H   0  0  0  0  0  0  0  0  0  0  0  0
    0.7076   -2.0227    1.4175 H   0  0  0  0  0  0  0  0  0  0  0  0
   -0.2293   -0.0621   -0.7110 H   0  0  0  0  0  0  0  0  0  0  0  0
    2.2070    0.3367   -0.0950 H   0  0  0  0  0  0  0  0  0  0  0  0
    0.8401    1.2028    2.4535 H   0  0  0  0  0  0  0  0  0  0  0  0
    2.6276    2.9025    2.0645 H   0  0  0  0  0  0  0  0  0  0  0  0
    4.8576    2.1821    1.2851 H   0  0  0  0  0  0  0  0  0  0  0  0
    3.6873    2.0497   -0.0346 H   0  0  0  0  0  0  0  0  0  0  0  0
    5.6041    1.7990   -0.8524 H   0  0  0  0  0  0  0  0  0  0  0  0
    7.3454    1.0048   -2.4849 H   0  0  0  0  0  0  0  0  0  0  0  0
    7.9494   -1.3562   -2.5311 H   0  0  0  0  0  0  0  0  0  0  0  0
    6.8854   -2.9865   -1.0053 H   0  0  0  0  0  0  0  0  0  0  0  0
    5.1710   -2.2177    0.6052 H   0  0  0  0  0  0  0  0  0  0  0  0
    3.5908    0.4685    3.2165 H   0  0  0  0  0  0  0  0  0  0  0  0
    2.2442   -2.0579   -0.2286 H   0  0  0  0  0  0  0  0  0  0  0  0
  1  2  1  0
  2  3  2  0
  2  4  1  0
  4  5  1  0
  5  6  1  0
  6  7  1  0
  7  8  2  0
  8  9  1  0
  9 10  1  0
 10 11  1  0
 11 12  2  0
 11 13  1  0
 13 14  1  0
 14 15  1  0
 15 16  1  0
 16 17  2  0
 17 18  1  0
 18 19  1  0
 19 20  1  0
 20 21  1  0
 21 22  2  0
 22 23  1  0
 23 24  2  0
 24 25  1  0
 25 26  2  0
 18 27  1  0
 14 28  1  0
 15 10  1  0
 26 21  1  0
  1 29  1  0
  4 30  1  0
  4 31  1  0
  5 32  1  0
  5 33  1  0
  6 34  1  0
  6 35  1  0
  7 36  1  0
  8 37  1  0
  9 38  1  0
  9 39  1  0
 10 40  1  1
 13 41  1  0
 13 42  1  0
 14 43  1  1
 15 44  1  6
 16 45  1  0
 17 46  1  0
 18 47  1  1
 19 48  1  0
 19 49  1  0
 22 50  1  0
 23 51  1  0
 24 52  1  0
 25 53  1  0
 26 54  1  0
 27 55  1  0
 28 56  1  0
M  END
>  <Ligand ID>  (1) 
LIG0005713

>  <Ligand>  (1) 
CHEMBL3967903

>  <SMILES>  (1) 
OC(=O)CCC/C=C\C[C@H]1C(=O)C[C@H]([C@@H]1/C=C/[C@H](COc1ccccc1)O)O

>  <CID>  (1) 
13174090.0

>  <ChEMBL ID>  (1) 
nan

>  <InChiKey>  (1) 
LYXKJZCRLQWIIN-OMIHVFMZSA-N

>  <InChi>  (1) 
InChI=1S/C22H28O6/c23-16(15-28-17-8-4-3-5-9-17)12-13-19-18(20(24)14-21(19)25)10-6-1-2-7-11-22(26)27/h1,3-6,8-9,12-13,16,18-19,21,23,25H,2,7,10-11,14-15H2,(H,26,27)/b6-1-,13-12+/t16-,18-,19-,21-/m1/s1

>  <IUPAC Name>  (1) 
(Z)-7-[(1R,2R,3R)-3-hydroxy-2-[(E,3R)-3-hydroxy-4-phenoxybut-1-enyl]-5-oxocyclopentyl]hept-5-enoic acid

$$$$
