
     RDKit          3D

 44 47  0  0  0  0  0  0  0  0999 V2000
    7.0805   -1.6748   -0.1036 C   0  0  0  0  0  0  0  0  0  0  0  0
    5.7293   -1.0772   -0.0125 C   0  0  0  0  0  0  0  0  0  0  0  0
    4.9963   -0.9973    1.1485 C   0  0  0  0  0  0  0  0  0  0  0  0
    3.7201   -0.4184    1.1710 C   0  0  0  0  0  0  0  0  0  0  0  0
    3.1566    0.0946    0.0157 C   0  0  0  0  0  0  0  0  0  0  0  0
    3.9021    0.0090   -1.1437 C   0  0  0  0  0  0  0  0  0  0  0  0
    5.1750   -0.5694   -1.1644 C   0  0  0  0  0  0  0  0  0  0  0  0
    1.8488    0.6891    0.0208 N   0  0  0  0  0  0  0  0  0  0  0  0
    1.2219    1.1807    1.0705 N   0  0  0  0  0  0  0  0  0  0  0  0
    0.0205    1.6667    0.7632 C   0  0  0  0  0  0  0  0  0  0  0  0
   -0.1635    1.4874   -0.5759 C   0  0  0  0  0  0  0  0  0  0  0  0
    1.0144    0.8647   -1.0160 C   0  0  0  0  0  0  0  0  0  0  0  0
    1.2406    0.5269   -2.2123 O   0  0  0  0  0  0  0  0  0  0  0  0
   -1.2335    1.8264   -1.4741 C   0  0  0  0  0  0  0  0  0  0  0  0
   -2.3446    1.2425   -1.6372 N   0  0  0  0  0  0  0  0  0  0  0  0
   -2.7730    0.0994   -0.9417 C   0  0  0  0  0  0  0  0  0  0  0  0
   -2.0377   -1.0318   -0.7238 C   0  0  0  0  0  0  0  0  0  0  0  0
   -2.5536   -2.1227   -0.0174 C   0  0  0  0  0  0  0  0  0  0  0  0
   -3.8369   -2.0957    0.4903 C   0  0  0  0  0  0  0  0  0  0  0  0
   -4.5837   -0.9621    0.2763 C   0  0  0  0  0  0  0  0  0  0  0  0
   -4.0748    0.1372   -0.4317 C   0  0  0  0  0  0  0  0  0  0  0  0
   -4.8366    1.2301   -0.6282 N   0  0  0  0  0  0  0  0  0  0  0  0
   -6.0905    1.2769   -0.1478 C   0  0  0  0  0  0  0  0  0  0  0  0
   -6.6652    0.2311    0.5623 C   0  0  0  0  0  0  0  0  0  0  0  0
   -5.8704   -0.8789    0.7533 C   0  0  0  0  0  0  0  0  0  0  0  0
   -4.4933   -3.4471    1.3738 Cl  0  0  0  0  0  0  0  0  0  0  0  0
   -1.0059    2.3062    1.6459 C   0  0  0  0  0  0  0  0  0  0  0  0
    7.1891   -2.2868   -1.0216 H   0  0  0  0  0  0  0  0  0  0  0  0
    7.2772   -2.3138    0.7738 H   0  0  0  0  0  0  0  0  0  0  0  0
    7.9001   -0.9020   -0.1107 H   0  0  0  0  0  0  0  0  0  0  0  0
    5.4480   -1.4046    2.0557 H   0  0  0  0  0  0  0  0  0  0  0  0
    3.1804   -0.3808    2.1223 H   0  0  0  0  0  0  0  0  0  0  0  0
    3.5479    0.3822   -2.0866 H   0  0  0  0  0  0  0  0  0  0  0  0
    5.7305   -0.6183   -2.0960 H   0  0  0  0  0  0  0  0  0  0  0  0
    1.5963    1.2055    2.0648 H   0  0  0  0  0  0  0  0  0  0  0  0
   -1.0614    2.7193   -2.1087 H   0  0  0  0  0  0  0  0  0  0  0  0
   -1.0374   -1.1080   -1.1016 H   0  0  0  0  0  0  0  0  0  0  0  0
   -1.9667   -3.0169    0.1549 H   0  0  0  0  0  0  0  0  0  0  0  0
   -6.6707    2.1813   -0.3322 H   0  0  0  0  0  0  0  0  0  0  0  0
   -7.6669    0.3387    0.9135 H   0  0  0  0  0  0  0  0  0  0  0  0
   -6.2834   -1.7159    1.3035 H   0  0  0  0  0  0  0  0  0  0  0  0
   -1.6461    2.9885    1.0745 H   0  0  0  0  0  0  0  0  0  0  0  0
   -1.5938    1.4659    2.0992 H   0  0  0  0  0  0  0  0  0  0  0  0
   -0.4860    2.8721    2.4434 H   0  0  0  0  0  0  0  0  0  0  0  0
  1  2  1  0
  2  3  2  0
  3  4  1  0
  4  5  2  0
  5  6  1  0
  6  7  2  0
  5  8  1  0
  8  9  1  0
  9 10  1  0
 10 11  2  0
 11 12  1  0
 12 13  2  0
 11 14  1  0
 14 15  2  3
 15 16  1  0
 16 17  2  0
 17 18  1  0
 18 19  2  0
 19 20  1  0
 20 21  2  0
 21 22  1  0
 22 23  2  0
 23 24  1  0
 24 25  2  0
 19 26  1  0
 10 27  1  0
  7  2  1  0
 12  8  1  0
 21 16  1  0
 25 20  1  0
  1 28  1  0
  1 29  1  0
  1 30  1  0
  3 31  1  0
  4 32  1  0
  6 33  1  0
  7 34  1  0
  9 35  1  0
 14 36  1  0
 17 37  1  0
 18 38  1  0
 23 39  1  0
 24 40  1  0
 25 41  1  0
 27 42  1  0
 27 43  1  0
 27 44  1  0
M  END
>  <Ligand ID>  (1) 
LIG0003823

>  <Ligand>  (1) 
MLS-0425693.0001

>  <SMILES>  (1) 
Cc1ccc(cc1)n1[nH]c(c(c1=O)C=Nc1ccc(c2c1nccc2)Cl)C

>  <CID>  (1) 
135938588.0

>  <ChEMBL ID>  (1) 
nan

>  <InChiKey>  (1) 
UXYFQRIKQIUTEH-UHFFFAOYSA-N

>  <InChi>  (1) 
InChI=1S/C21H17ClN4O/c1-13-5-7-15(8-6-13)26-21(27)17(14(2)25-26)12-24-19-10-9-18(22)16-4-3-11-23-20(16)19/h3-12,25H,1-2H3

>  <IUPAC Name>  (1) 
4-[(5-chloroquinolin-8-yl)iminomethyl]-5-methyl-2-(4-methylphenyl)-1H-pyrazol-3-one

$$$$
