
     RDKit          3D

 24 25  0  0  0  0  0  0  0  0999 V2000
    3.2481    0.3884   -0.0855 C   0  0  0  0  0  0  0  0  0  0  0  0
    2.0778   -0.4867   -0.0478 N   0  0  0  0  0  0  0  0  0  0  0  0
    2.1098   -1.8327   -0.0365 C   0  0  0  0  0  0  0  0  0  0  0  0
    0.8201   -2.2381    0.0001 N   0  0  0  0  0  0  0  0  0  0  0  0
    0.0122   -1.1618    0.0111 C   0  0  0  0  0  0  0  0  0  0  0  0
    0.8105   -0.0430   -0.0194 C   0  0  0  0  0  0  0  0  0  0  0  0
    0.2278    1.2288   -0.0159 C   0  0  0  0  0  0  0  0  0  0  0  0
    0.9363    2.2536   -0.0432 O   0  0  0  0  0  0  0  0  0  0  0  0
   -1.1176    1.3006    0.0178 N   0  0  0  0  0  0  0  0  0  0  0  0
   -1.6875    2.6433    0.0203 C   0  0  0  0  0  0  0  0  0  0  0  0
   -1.8846    0.1902    0.0474 C   0  0  0  0  0  0  0  0  0  0  0  0
   -3.1486    0.3536    0.0782 O   0  0  0  0  0  0  0  0  0  0  0  0
   -1.3249   -1.0152    0.0439 N   0  0  0  0  0  0  0  0  0  0  0  0
   -2.1625   -2.1984    0.0759 C   0  0  0  0  0  0  0  0  0  0  0  0
    4.0668   -0.1386   -0.6414 H   0  0  0  0  0  0  0  0  0  0  0  0
    3.6029    0.5804    0.9611 H   0  0  0  0  0  0  0  0  0  0  0  0
    3.0102    1.3265   -0.5946 H   0  0  0  0  0  0  0  0  0  0  0  0
    2.9864   -2.4939   -0.0530 H   0  0  0  0  0  0  0  0  0  0  0  0
   -1.4154    3.1795   -0.9343 H   0  0  0  0  0  0  0  0  0  0  0  0
   -1.3071    3.1720    0.9019 H   0  0  0  0  0  0  0  0  0  0  0  0
   -2.7959    2.5136    0.0234 H   0  0  0  0  0  0  0  0  0  0  0  0
   -2.9739   -2.0789   -0.6680 H   0  0  0  0  0  0  0  0  0  0  0  0
   -1.5622   -3.1068   -0.1627 H   0  0  0  0  0  0  0  0  0  0  0  0
   -2.5287   -2.3364    1.1211 H   0  0  0  0  0  0  0  0  0  0  0  0
  1  2  1  0
  2  3  1  0
  3  4  2  0
  4  5  1  0
  5  6  2  0
  6  7  1  0
  7  8  2  0
  7  9  1  0
  9 10  1  0
  9 11  1  0
 11 12  2  0
 11 13  1  0
 13 14  1  0
  6  2  1  0
 13  5  1  0
  1 15  1  0
  1 16  1  0
  1 17  1  0
  3 18  1  0
 10 19  1  0
 10 20  1  0
 10 21  1  0
 14 22  1  0
 14 23  1  0
 14 24  1  0
M  END
>  <Ligand ID>  (1) 
LIG0000756

>  <Ligand>  (1) 
Caffeine

>  <SMILES>  (1) 
Cn1cnc2c1c(=O)n(C)c(=O)n2C

>  <CID>  (1) 
2519.0

>  <ChEMBL ID>  (1) 
nan

>  <InChiKey>  (1) 
RYYVLZVUVIJVGH-UHFFFAOYSA-N

>  <InChi>  (1) 
InChI=1S/C8H10N4O2/c1-10-4-9-6-5(10)7(13)12(3)8(14)11(6)2/h4H,1-3H3

>  <IUPAC Name>  (1) 
1,3,7-trimethylpurine-2,6-dione

$$$$
