
     RDKit          3D

 20 19  0  0  0  0  0  0  0  0999 V2000
    2.2502    0.9266   -0.8492 O   0  0  0  0  0  0  0  0  0  0  0  0
    2.1393   -0.2176   -0.0777 C   0  0  0  0  0  0  0  0  0  0  0  0
    0.8276   -0.1679    0.7152 C   0  0  0  0  0  0  0  0  0  0  0  0
   -0.2755   -0.1541   -0.2813 C   0  0  0  0  0  0  0  0  0  0  0  0
   -1.6415    0.0612    0.3060 C   0  0  0  0  0  0  0  0  0  0  0  0
   -2.6330   -0.0254   -0.8176 C   0  0  0  0  0  0  0  0  0  0  0  0
   -3.4196    0.8792   -0.9989 O   0  0  0  0  0  0  0  0  0  0  0  0
   -1.7616    1.2218    1.0241 O   0  0  0  0  0  0  0  0  0  0  0  0
   -0.2228   -1.3547   -1.0000 O   0  0  0  0  0  0  0  0  0  0  0  0
    0.9015    0.9668    1.5073 O   0  0  0  0  0  0  0  0  0  0  0  0
    2.5680    0.6838   -1.7309 H   0  0  0  0  0  0  0  0  0  0  0  0
    3.0065   -0.2939    0.6202 H   0  0  0  0  0  0  0  0  0  0  0  0
    2.0592   -1.0958   -0.7440 H   0  0  0  0  0  0  0  0  0  0  0  0
    0.7282   -1.0571    1.3648 H   0  0  0  0  0  0  0  0  0  0  0  0
   -0.0761    0.6375   -1.0496 H   0  0  0  0  0  0  0  0  0  0  0  0
   -1.8850   -0.7863    0.9863 H   0  0  0  0  0  0  0  0  0  0  0  0
   -2.5793   -0.9277   -1.4182 H   0  0  0  0  0  0  0  0  0  0  0  0
   -1.3798    2.0138    0.5507 H   0  0  0  0  0  0  0  0  0  0  0  0
   -0.2050   -2.0659   -0.3099 H   0  0  0  0  0  0  0  0  0  0  0  0
    1.5989    0.7558    2.2026 H   0  0  0  0  0  0  0  0  0  0  0  0
  1  2  1  0
  2  3  1  0
  3  4  1  0
  4  5  1  0
  5  6  1  0
  6  7  2  0
  5  8  1  0
  4  9  1  0
  3 10  1  0
  1 11  1  0
  2 12  1  0
  2 13  1  0
  3 14  1  0
  4 15  1  0
  5 16  1  0
  6 17  1  0
  8 18  1  0
  9 19  1  0
 10 20  1  0
M  END
>  <Ligand ID>  (1) 
LIG0000129

>  <Ligand>  (1) 
(+)-Xylose

>  <SMILES>  (1) 
OCC(C(C(C=O)O)O)O

>  <CID>  (1) 
854.0

>  <ChEMBL ID>  (1) 
nan

>  <InChiKey>  (1) 
PYMYPHUHKUWMLA-UHFFFAOYSA-N

>  <InChi>  (1) 
InChI=1S/C5H10O5/c6-1-3(8)5(10)4(9)2-7/h1,3-5,7-10H,2H2

>  <IUPAC Name>  (1) 
2,3,4,5-tetrahydroxypentanal

$$$$
