
     RDKit          3D

107111  0  0  0  0  0  0  0  0999 V2000
    2.9934   -0.2620    2.9547 O   0  0  0  0  0  0  0  0  0  0  0  0
    3.7076   -1.0459    2.2433 C   0  0  0  0  0  0  0  0  0  0  0  0
    4.5385   -0.5507    1.1865 N   0  0  0  0  0  0  0  0  0  0  0  0
    4.4687    0.9274    1.1050 C   0  0  2  0  0  0  0  0  0  0  0  0
    3.1226    1.2335    0.4319 C   0  0  0  0  0  0  0  0  0  0  0  0
    2.7400    0.6499   -0.5757 O   0  0  0  0  0  0  0  0  0  0  0  0
    2.3583    2.2641    1.1210 N   0  0  0  0  0  0  0  0  0  0  0  0
    1.0789    2.7096    0.6948 C   0  0  2  0  0  0  0  0  0  0  0  0
   -0.0385    1.7968    0.9713 C   0  0  0  0  0  0  0  0  0  0  0  0
    0.2039    0.6754    1.5189 O   0  0  0  0  0  0  0  0  0  0  0  0
   -1.3620    2.2006    0.6181 N   0  0  0  0  0  0  0  0  0  0  0  0
   -2.5383    1.4190    0.8276 C   0  0  2  0  0  0  0  0  0  0  0  0
   -2.8128    0.5098   -0.3547 C   0  0  0  0  0  0  0  0  0  0  0  0
   -2.0424    0.4975   -1.3555 O   0  0  0  0  0  0  0  0  0  0  0  0
   -3.9295   -0.3500   -0.3702 N   0  0  0  0  0  0  0  0  0  0  0  0
   -4.1518   -1.2713   -1.5494 C   0  0  2  0  0  0  0  0  0  0  0  0
   -5.4313   -0.8339   -2.0887 C   0  0  0  0  0  0  0  0  0  0  0  0
   -6.0820    0.0095   -1.3416 O   0  0  0  0  0  0  0  0  0  0  0  0
   -6.0579   -1.1882   -3.2872 N   0  0  0  0  0  0  0  0  0  0  0  0
   -4.2830   -2.6030   -0.8405 C   0  0  0  0  0  0  0  0  0  0  0  0
   -4.4767   -3.7882   -1.6671 C   0  0  0  0  0  0  0  0  0  0  0  0
   -3.3846   -4.5969   -2.0621 C   0  0  0  0  0  0  0  0  0  0  0  0
   -3.7833   -5.5918   -2.8270 N   0  0  0  0  0  0  0  0  0  0  0  0
   -5.1021   -5.4966   -2.9734 C   0  0  0  0  0  0  0  0  0  0  0  0
   -5.5613   -4.3790   -2.2583 C   0  0  0  0  0  0  0  0  0  0  0  0
   -6.9048   -4.0397   -2.2207 C   0  0  0  0  0  0  0  0  0  0  0  0
   -7.7890   -4.8201   -2.9005 C   0  0  0  0  0  0  0  0  0  0  0  0
   -7.3162   -5.9380   -3.6164 C   0  0  0  0  0  0  0  0  0  0  0  0
   -6.0055   -6.2927   -3.6686 C   0  0  0  0  0  0  0  0  0  0  0  0
   -3.7324    2.1316    1.3221 C   0  0  0  0  0  0  0  0  0  0  0  0
   -3.4101    2.7548    2.6444 C   0  0  0  0  0  0  0  0  0  0  0  0
   -4.5317    3.5046    3.2605 C   0  0  0  0  0  0  0  0  0  0  0  0
   -5.6812    2.6639    3.5157 N   0  0  0  0  0  0  0  0  0  0  0  0
   -6.7805    2.6753    2.8814 C   0  0  0  0  0  0  0  0  0  0  0  0
   -7.8757    1.7868    3.2182 N   0  0  0  0  0  0  0  0  0  0  0  0
   -7.0660    3.5559    1.7744 N   0  0  0  0  0  0  0  0  0  0  0  0
    1.0154    3.1049   -0.7842 C   0  0  0  0  0  0  0  0  0  0  0  0
    1.9547    4.2355   -1.0246 C   0  0  0  0  0  0  0  0  0  0  0  0
    1.4452    5.5021   -0.7513 C   0  0  0  0  0  0  0  0  0  0  0  0
    2.1791    6.6538   -0.9149 C   0  0  0  0  0  0  0  0  0  0  0  0
    3.4821    6.5633   -1.3729 C   0  0  0  0  0  0  0  0  0  0  0  0
    3.9814    5.2724   -1.6469 C   0  0  0  0  0  0  0  0  0  0  0  0
    3.2327    4.1387   -1.4749 C   0  0  0  0  0  0  0  0  0  0  0  0
    5.5639    1.4329    0.2330 C   0  0  0  0  0  0  0  0  0  0  0  0
    6.9301    1.0880    0.6395 C   0  0  0  0  0  0  0  0  0  0  0  0
    7.5311   -0.0483    0.0601 C   0  0  0  0  0  0  0  0  0  0  0  0
    8.7839   -0.4752    0.3783 C   0  0  0  0  0  0  0  0  0  0  0  0
    9.4943    0.2521    1.3141 C   0  0  0  0  0  0  0  0  0  0  0  0
    8.9327    1.3538    1.8854 C   0  0  0  0  0  0  0  0  0  0  0  0
    7.6852    1.7743    1.5697 C   0  0  0  0  0  0  0  0  0  0  0  0
   11.1052   -0.3121    1.7056 Cl  0  0  0  0  0  0  0  0  0  0  0  0
    3.5971   -2.4821    2.6016 C   0  0  0  0  0  0  0  0  0  0  0  0
    4.3680   -3.3235    1.8747 O   0  0  0  0  0  0  0  0  0  0  0  0
    4.5551   -3.7598    0.6360 C   0  0  0  0  0  0  0  0  0  0  0  0
    5.6086   -4.6902    0.4545 C   0  0  0  0  0  0  0  0  0  0  0  0
    5.8881   -5.2019   -0.7892 C   0  0  0  0  0  0  0  0  0  0  0  0
    5.1609   -4.8338   -1.8874 C   0  0  0  0  0  0  0  0  0  0  0  0
    4.1117   -3.9206   -1.7545 C   0  0  0  0  0  0  0  0  0  0  0  0
    3.8275   -3.4017   -0.4978 C   0  0  0  0  0  0  0  0  0  0  0  0
    5.1067   -1.1156    0.5640 H   0  0  0  0  0  0  0  0  0  0  0  0
    4.4897    1.3352    2.1024 H   0  0  0  0  0  0  0  0  0  0  0  0
    2.7644    2.6950    2.0185 H   0  0  0  0  0  0  0  0  0  0  0  0
    0.9094    3.7290    1.2008 H   0  0  0  0  0  0  0  0  0  0  0  0
   -1.5117    3.1572    0.1660 H   0  0  0  0  0  0  0  0  0  0  0  0
   -2.2346    0.6654    1.6244 H   0  0  0  0  0  0  0  0  0  0  0  0
   -4.6203   -0.3684    0.4187 H   0  0  0  0  0  0  0  0  0  0  0  0
   -3.3054   -1.1835   -2.2334 H   0  0  0  0  0  0  0  0  0  0  0  0
   -7.1072   -1.1153   -3.3543 H   0  0  0  0  0  0  0  0  0  0  0  0
   -5.5164   -1.5314   -4.1023 H   0  0  0  0  0  0  0  0  0  0  0  0
   -5.1056   -2.5555   -0.0676 H   0  0  0  0  0  0  0  0  0  0  0  0
   -3.3650   -2.7778   -0.1849 H   0  0  0  0  0  0  0  0  0  0  0  0
   -2.3409   -4.4321   -1.7732 H   0  0  0  0  0  0  0  0  0  0  0  0
   -3.2017   -6.3622   -3.2829 H   0  0  0  0  0  0  0  0  0  0  0  0
   -7.1936   -3.1543   -1.6457 H   0  0  0  0  0  0  0  0  0  0  0  0
   -8.8319   -4.5933   -2.8927 H   0  0  0  0  0  0  0  0  0  0  0  0
   -8.0166   -6.5675   -4.1688 H   0  0  0  0  0  0  0  0  0  0  0  0
   -5.6313   -7.1399   -4.2141 H   0  0  0  0  0  0  0  0  0  0  0  0
   -4.2010    2.8233    0.6037 H   0  0  0  0  0  0  0  0  0  0  0  0
   -4.5538    1.3718    1.5138 H   0  0  0  0  0  0  0  0  0  0  0  0
   -2.4604    3.3421    2.6351 H   0  0  0  0  0  0  0  0  0  0  0  0
   -3.1684    1.8869    3.3256 H   0  0  0  0  0  0  0  0  0  0  0  0
   -4.1979    3.8398    4.2838 H   0  0  0  0  0  0  0  0  0  0  0  0
   -4.8181    4.4082    2.6585 H   0  0  0  0  0  0  0  0  0  0  0  0
   -7.8677    0.7771    2.9704 H   0  0  0  0  0  0  0  0  0  0  0  0
   -8.6598    2.2301    3.7299 H   0  0  0  0  0  0  0  0  0  0  0  0
   -7.6295    3.1418    0.9670 H   0  0  0  0  0  0  0  0  0  0  0  0
   -6.7729    4.5207    1.6962 H   0  0  0  0  0  0  0  0  0  0  0  0
    0.0164    3.4259   -1.0953 H   0  0  0  0  0  0  0  0  0  0  0  0
    1.3273    2.2967   -1.4737 H   0  0  0  0  0  0  0  0  0  0  0  0
    0.4354    5.6354   -0.3884 H   0  0  0  0  0  0  0  0  0  0  0  0
    1.8244    7.6550   -0.7257 H   0  0  0  0  0  0  0  0  0  0  0  0
    4.1173    7.4503   -1.5191 H   0  0  0  0  0  0  0  0  0  0  0  0
    4.9881    5.1758   -2.0141 H   0  0  0  0  0  0  0  0  0  0  0  0
    3.6258    3.1453   -1.6908 H   0  0  0  0  0  0  0  0  0  0  0  0
    5.4511    0.9935   -0.8262 H   0  0  0  0  0  0  0  0  0  0  0  0
    5.5249    2.5350    0.0469 H   0  0  0  0  0  0  0  0  0  0  0  0
    6.9936   -0.6384   -0.6893 H   0  0  0  0  0  0  0  0  0  0  0  0
    9.2234   -1.3496   -0.0755 H   0  0  0  0  0  0  0  0  0  0  0  0
    9.5377    1.8876    2.6144 H   0  0  0  0  0  0  0  0  0  0  0  0
    7.2655    2.6616    2.0391 H   0  0  0  0  0  0  0  0  0  0  0  0
    2.4933   -2.7329    2.4539 H   0  0  0  0  0  0  0  0  0  0  0  0
    3.8164   -2.5501    3.7038 H   0  0  0  0  0  0  0  0  0  0  0  0
    6.2070   -4.9938    1.3104 H   0  0  0  0  0  0  0  0  0  0  0  0
    6.7250   -5.9084   -0.8695 H   0  0  0  0  0  0  0  0  0  0  0  0
    5.4234   -5.2628   -2.8388 H   0  0  0  0  0  0  0  0  0  0  0  0
    3.5292   -3.6165   -2.6057 H   0  0  0  0  0  0  0  0  0  0  0  0
    3.0018   -2.6766   -0.3916 H   0  0  0  0  0  0  0  0  0  0  0  0
  1  2  2  0
  2  3  1  0
  3  4  1  0
  4  5  1  0
  5  6  2  0
  5  7  1  0
  7  8  1  0
  8  9  1  0
  9 10  2  0
  9 11  1  0
 11 12  1  0
 12 13  1  0
 13 14  2  0
 13 15  1  0
 15 16  1  0
 16 17  1  0
 17 18  2  0
 17 19  1  0
 16 20  1  0
 20 21  1  0
 21 22  2  0
 22 23  1  0
 23 24  1  0
 24 25  2  0
 25 26  1  0
 26 27  2  0
 27 28  1  0
 28 29  2  0
 12 30  1  0
 30 31  1  0
 31 32  1  0
 32 33  1  0
 33 34  2  3
 34 35  1  0
 34 36  1  0
  8 37  1  0
 37 38  1  0
 38 39  2  0
 39 40  1  0
 40 41  2  0
 41 42  1  0
 42 43  2  0
  4 44  1  0
 44 45  1  0
 45 46  2  0
 46 47  1  0
 47 48  2  0
 48 49  1  0
 49 50  2  0
 48 51  1  0
  2 52  1  0
 52 53  1  0
 53 54  1  0
 54 55  2  0
 55 56  1  0
 56 57  2  0
 57 58  1  0
 58 59  2  0
 25 21  1  0
 43 38  1  0
 50 45  1  0
 59 54  1  0
 29 24  1  0
  3 60  1  0
  4 61  1  1
  7 62  1  0
  8 63  1  1
 11 64  1  0
 12 65  1  1
 15 66  1  0
 16 67  1  6
 19 68  1  0
 19 69  1  0
 20 70  1  0
 20 71  1  0
 22 72  1  0
 23 73  1  0
 26 74  1  0
 27 75  1  0
 28 76  1  0
 29 77  1  0
 30 78  1  0
 30 79  1  0
 31 80  1  0
 31 81  1  0
 32 82  1  0
 32 83  1  0
 35 84  1  0
 35 85  1  0
 36 86  1  0
 36 87  1  0
 37 88  1  0
 37 89  1  0
 39 90  1  0
 40 91  1  0
 41 92  1  0
 42 93  1  0
 43 94  1  0
 44 95  1  0
 44 96  1  0
 46 97  1  0
 47 98  1  0
 49 99  1  0
 50100  1  0
 52101  1  0
 52102  1  0
 55103  1  0
 56104  1  0
 57105  1  0
 58106  1  0
 59107  1  0
M  END
>  <Ligand ID>  (1) 
LIG0002633

>  <Ligand>  (1) 
CHEMBL425348

>  <SMILES>  (1) 
O=C(N[C@H](C(=O)N[C@H](C(=O)N[C@H](C(=O)N[C@H](C(=O)N)Cc1c[nH]c2c1cccc2)CCCN=C(N)N)Cc1ccccc1)Cc1ccc(cc1)Cl)COc1ccccc1

>  <CID>  (1) 
44394787.0

>  <ChEMBL ID>  (1) 
nan

>  <InChiKey>  (1) 
TWDFHSVNGCHVCF-BQYLNSIHSA-N

>  <InChi>  (1) 
InChI=1S/C43H48ClN9O6/c44-30-19-17-28(18-20-30)23-36(50-38(54)26-59-31-12-5-2-6-13-31)41(57)53-37(22-27-10-3-1-4-11-27)42(58)51-34(16-9-21-48-43(46)47)40(56)52-35(39(45)55)24-29-25-49-33-15-8-7-14-32(29)33/h1-8,10-15,17-20,25,34-37,49H,9,16,21-24,26H2,(H2,45,55)(H,50,54)(H,51,58)(H,52,56)(H,53,57)(H4,46,47,48)/t34-,35-,36-,37-/m0/s1

>  <IUPAC Name>  (1) 
(2S)-N-[(2S)-1-amino-3-(1H-indol-3-yl)-1-oxopropan-2-yl]-2-[[(2S)-2-[[(2S)-3-(4-chlorophenyl)-2-[(2-phenoxyacetyl)amino]propanoyl]amino]-3-phenylpropanoyl]amino]-5-(diaminomethylideneamino)pentanamide

$$$$
