
     RDKit          3D

 58 60  0  0  0  0  0  0  0  0999 V2000
   -4.9407    1.0809    1.4989 O   0  0  0  0  0  0  0  0  0  0  0  0
   -4.2469   -0.0986    1.1542 C   0  0  0  0  0  0  0  0  0  0  0  0
   -5.0187   -0.8966    0.1572 C   0  0  0  0  0  0  0  0  0  0  0  0
   -5.4049    0.0473   -0.9690 C   0  0  0  0  0  0  0  0  0  0  0  0
   -6.0039    1.1551   -0.3744 O   0  0  0  0  0  0  0  0  0  0  0  0
   -6.4943    2.3045   -1.4877 P   0  0  0  0  0  0  0  0  0  0  0  0
   -7.2450    3.3832   -0.7421 O   0  0  0  0  0  0  0  0  0  0  0  0
   -5.2631    2.9449   -2.4146 O   0  0  0  0  0  0  0  0  0  0  0  0
   -7.6498    1.5521   -2.4986 O   0  0  0  0  0  0  0  0  0  0  0  0
   -4.3701   -2.1235   -0.2914 C   0  0  0  0  0  0  0  0  0  0  0  0
   -3.1050   -2.1883   -1.0071 C   0  0  0  0  0  0  0  0  0  0  0  0
   -1.8675   -1.6690   -0.4398 C   0  0  0  0  0  0  0  0  0  0  0  0
   -1.1970   -2.4670    0.4912 C   0  0  0  0  0  0  0  0  0  0  0  0
    0.0106   -2.0968    1.0407 C   0  0  0  0  0  0  0  0  0  0  0  0
    0.5878   -0.9016    0.6684 C   0  0  0  0  0  0  0  0  0  0  0  0
   -0.0378   -0.0825   -0.2467 C   0  0  0  0  0  0  0  0  0  0  0  0
   -1.2448   -0.4896   -0.7729 C   0  0  0  0  0  0  0  0  0  0  0  0
    1.8699   -0.4849    1.2373 C   0  0  0  0  0  0  0  0  0  0  0  0
    2.6028   -1.2162    2.1672 C   0  0  0  0  0  0  0  0  0  0  0  0
    3.6684   -0.5168    2.4199 O   0  0  0  0  0  0  0  0  0  0  0  0
    3.7202    0.5978    1.7582 C   0  0  0  0  0  0  0  0  0  0  0  0
    2.5844    0.6289    1.0045 N   0  0  0  0  0  0  0  0  0  0  0  0
    4.8043    1.6125    1.8260 C   0  0  0  0  0  0  0  0  0  0  0  0
    5.8646    1.3616    0.8398 C   0  0  0  0  0  0  0  0  0  0  0  0
    5.8720    1.8718   -0.4440 C   0  0  0  0  0  0  0  0  0  0  0  0
    6.9194    1.5871   -1.3262 C   0  0  0  0  0  0  0  0  0  0  0  0
    7.9686    0.7864   -0.9246 C   0  0  0  0  0  0  0  0  0  0  0  0
    7.9416    0.2876    0.3604 C   0  0  0  0  0  0  0  0  0  0  0  0
    6.9263    0.5487    1.2530 C   0  0  0  0  0  0  0  0  0  0  0  0
    9.1052    0.4661   -1.8537 C   0  0  0  0  0  0  0  0  0  0  0  0
    8.6693   -0.2692   -2.9167 F   0  0  0  0  0  0  0  0  0  0  0  0
    9.6596    1.6862   -2.2197 F   0  0  0  0  0  0  0  0  0  0  0  0
   10.0310   -0.2794   -1.1804 F   0  0  0  0  0  0  0  0  0  0  0  0
   -6.3261   -1.1976    0.8108 N   0  0  0  0  0  0  0  0  0  0  0  0
   -5.1384    1.1390    2.4519 H   0  0  0  0  0  0  0  0  0  0  0  0
   -3.2448    0.1995    0.8502 H   0  0  0  0  0  0  0  0  0  0  0  0
   -4.1303   -0.6677    2.1040 H   0  0  0  0  0  0  0  0  0  0  0  0
   -6.2115   -0.4033   -1.6080 H   0  0  0  0  0  0  0  0  0  0  0  0
   -4.5526    0.3930   -1.5631 H   0  0  0  0  0  0  0  0  0  0  0  0
   -4.7900    3.6478   -1.8643 H   0  0  0  0  0  0  0  0  0  0  0  0
   -8.5395    1.5100   -2.0375 H   0  0  0  0  0  0  0  0  0  0  0  0
   -5.1747   -2.7061   -0.8836 H   0  0  0  0  0  0  0  0  0  0  0  0
   -4.2597   -2.8445    0.6072 H   0  0  0  0  0  0  0  0  0  0  0  0
   -2.8836   -3.2997   -1.2164 H   0  0  0  0  0  0  0  0  0  0  0  0
   -3.1683   -1.7860   -2.0682 H   0  0  0  0  0  0  0  0  0  0  0  0
   -1.6212   -3.3948    0.7956 H   0  0  0  0  0  0  0  0  0  0  0  0
    0.4874   -2.7656    1.7659 H   0  0  0  0  0  0  0  0  0  0  0  0
    0.3662    0.8642   -0.5759 H   0  0  0  0  0  0  0  0  0  0  0  0
   -1.7600    0.1427   -1.5002 H   0  0  0  0  0  0  0  0  0  0  0  0
    2.2969   -2.1601    2.5582 H   0  0  0  0  0  0  0  0  0  0  0  0
    5.2062    1.6337    2.8714 H   0  0  0  0  0  0  0  0  0  0  0  0
    4.3060    2.6084    1.6540 H   0  0  0  0  0  0  0  0  0  0  0  0
    5.0486    2.4981   -0.7539 H   0  0  0  0  0  0  0  0  0  0  0  0
    6.9324    1.9828   -2.3328 H   0  0  0  0  0  0  0  0  0  0  0  0
    8.7668   -0.3512    0.6990 H   0  0  0  0  0  0  0  0  0  0  0  0
    6.9699    0.1247    2.2439 H   0  0  0  0  0  0  0  0  0  0  0  0
   -6.2262   -2.0557    1.3979 H   0  0  0  0  0  0  0  0  0  0  0  0
   -7.0697   -1.2341    0.1028 H   0  0  0  0  0  0  0  0  0  0  0  0
  1  2  1  0
  2  3  1  0
  3  4  1  0
  4  5  1  0
  5  6  1  0
  6  7  2  0
  6  8  1  0
  6  9  1  0
  3 10  1  0
 10 11  1  0
 11 12  1  0
 12 13  2  0
 13 14  1  0
 14 15  2  0
 15 16  1  0
 16 17  2  0
 15 18  1  0
 18 19  2  0
 19 20  1  0
 20 21  1  0
 21 22  2  0
 21 23  1  0
 23 24  1  0
 24 25  2  0
 25 26  1  0
 26 27  2  0
 27 28  1  0
 28 29  2  0
 27 30  1  0
 30 31  1  0
 30 32  1  0
 30 33  1  0
  3 34  1  0
 17 12  1  0
 22 18  1  0
 29 24  1  0
  1 35  1  0
  2 36  1  0
  2 37  1  0
  4 38  1  0
  4 39  1  0
  8 40  1  0
  9 41  1  0
 10 42  1  0
 10 43  1  0
 11 44  1  0
 11 45  1  0
 13 46  1  0
 14 47  1  0
 16 48  1  0
 17 49  1  0
 19 50  1  0
 23 51  1  0
 23 52  1  0
 25 53  1  0
 26 54  1  0
 28 55  1  0
 29 56  1  0
 34 57  1  0
 34 58  1  0
M  END
>  <Ligand ID>  (1) 
LIG0005925

>  <Ligand>  (1) 
CHEMBL3341933

>  <SMILES>  (1) 
OCC(COP(=O)(O)O)(CCc1ccc(cc1)c1coc(n1)Cc1ccc(cc1)C(F)(F)F)N

>  <CID>  (1) 
118716155.0

>  <ChEMBL ID>  (1) 
nan

>  <InChiKey>  (1) 
ZHYKYMFLSZLWRO-UHFFFAOYSA-N

>  <InChi>  (1) 
InChI=1S/C22H24F3N2O6P/c23-22(24,25)18-7-3-16(4-8-18)11-20-27-19(12-32-20)17-5-1-15(2-6-17)9-10-21(26,13-28)14-33-34(29,30)31/h1-8,12,28H,9-11,13-14,26H2,(H2,29,30,31)

>  <IUPAC Name>  (1) 
[2-amino-2-(hydroxymethyl)-4-[4-[2-[[4-(trifluoromethyl)phenyl]methyl]-1,3-oxazol-4-yl]phenyl]butyl] dihydrogen phosphate

$$$$
