
     RDKit          3D

 45 49  0  0  0  0  0  0  0  0999 V2000
   -7.2716   -2.9797    1.6482 F   0  0  0  0  0  0  0  0  0  0  0  0
   -6.0625   -2.4583    1.2750 C   0  0  0  0  0  0  0  0  0  0  0  0
   -5.2079   -3.1329    0.4232 C   0  0  0  0  0  0  0  0  0  0  0  0
   -3.9869   -2.6150    0.0415 C   0  0  0  0  0  0  0  0  0  0  0  0
   -3.6044   -1.3799    0.5267 C   0  0  0  0  0  0  0  0  0  0  0  0
   -4.4335   -0.6665    1.3864 C   0  0  0  0  0  0  0  0  0  0  0  0
   -5.6448   -1.2241    1.7403 C   0  0  0  0  0  0  0  0  0  0  0  0
   -4.0662    0.5409    1.8644 F   0  0  0  0  0  0  0  0  0  0  0  0
   -2.3654   -0.7684    0.1879 N   0  0  0  0  0  0  0  0  0  0  0  0
   -1.1978   -1.3081    0.4826 N   0  0  0  0  0  0  0  0  0  0  0  0
   -0.1795   -0.5364    0.0561 C   0  0  0  0  0  0  0  0  0  0  0  0
   -0.7406    0.5690   -0.5510 C   0  0  0  0  0  0  0  0  0  0  0  0
   -2.1076    0.3795   -0.4441 C   0  0  0  0  0  0  0  0  0  0  0  0
   -2.8354    1.5204   -1.0704 C   0  0  1  0  0  0  0  0  0  0  0  0
   -2.6114    2.8331   -0.4425 C   0  0  0  0  0  0  0  0  0  0  0  0
   -1.7654    2.3991   -1.6031 C   0  0  1  0  0  0  0  0  0  0  0  0
   -0.4299    1.8287   -1.2446 C   0  0  0  0  0  0  0  0  0  0  0  0
    1.2282   -0.8775    0.2411 C   0  0  0  0  0  0  0  0  0  0  0  0
    1.4777   -1.9618    0.8372 O   0  0  0  0  0  0  0  0  0  0  0  0
    2.2656   -0.0271   -0.2288 N   0  0  0  0  0  0  0  0  0  0  0  0
    3.6442   -0.4536    0.0032 C   0  0  0  0  0  0  0  0  0  0  0  0
    4.3184    0.5645    0.8855 C   0  0  0  0  0  0  0  0  0  0  0  0
    5.8085    0.4194    0.9156 C   0  0  0  0  0  0  0  0  0  0  0  0
    6.3684    0.3397   -0.3549 O   0  0  0  0  0  0  0  0  0  0  0  0
    5.4183    0.5071   -1.3581 C   0  0  0  0  0  0  0  0  0  0  0  0
    4.4065   -0.6323   -1.2655 C   0  0  0  0  0  0  0  0  0  0  0  0
   -5.5132   -4.1027    0.0449 H   0  0  0  0  0  0  0  0  0  0  0  0
   -3.3006   -3.1223   -0.6232 H   0  0  0  0  0  0  0  0  0  0  0  0
   -6.2676   -0.6463    2.4097 H   0  0  0  0  0  0  0  0  0  0  0  0
   -3.7327    1.3117   -1.6904 H   0  0  0  0  0  0  0  0  0  0  0  0
   -2.1866    2.9349    0.5714 H   0  0  0  0  0  0  0  0  0  0  0  0
   -3.3181    3.6593   -0.6885 H   0  0  0  0  0  0  0  0  0  0  0  0
   -1.9310    2.8508   -2.6012 H   0  0  0  0  0  0  0  0  0  0  0  0
    0.2482    1.7116   -2.1121 H   0  0  0  0  0  0  0  0  0  0  0  0
    0.0873    2.5740   -0.5740 H   0  0  0  0  0  0  0  0  0  0  0  0
    2.0385    0.8687   -0.7212 H   0  0  0  0  0  0  0  0  0  0  0  0
    3.6020   -1.4232    0.5367 H   0  0  0  0  0  0  0  0  0  0  0  0
    3.9829    1.5674    0.5833 H   0  0  0  0  0  0  0  0  0  0  0  0
    3.9467    0.4079    1.9269 H   0  0  0  0  0  0  0  0  0  0  0  0
    6.0741   -0.4830    1.5123 H   0  0  0  0  0  0  0  0  0  0  0  0
    6.2345    1.2934    1.4312 H   0  0  0  0  0  0  0  0  0  0  0  0
    4.8541    1.4396   -1.3089 H   0  0  0  0  0  0  0  0  0  0  0  0
    5.9857    0.3945   -2.3220 H   0  0  0  0  0  0  0  0  0  0  0  0
    3.7877   -0.5527   -2.1820 H   0  0  0  0  0  0  0  0  0  0  0  0
    4.9831   -1.5633   -1.2396 H   0  0  0  0  0  0  0  0  0  0  0  0
  1  2  1  0
  2  3  2  0
  3  4  1  0
  4  5  2  0
  5  6  1  0
  6  7  2  0
  6  8  1  0
  5  9  1  0
  9 10  1  0
 10 11  2  0
 11 12  1  0
 12 13  2  0
 13 14  1  0
 14 15  1  0
 15 16  1  0
 16 17  1  0
 11 18  1  0
 18 19  2  0
 18 20  1  0
 20 21  1  0
 21 22  1  0
 22 23  1  0
 23 24  1  0
 24 25  1  0
 25 26  1  0
  7  2  1  0
 13  9  1  0
 16 14  1  0
 26 21  1  0
 17 12  1  0
  3 27  1  0
  4 28  1  0
  7 29  1  0
 14 30  1  6
 15 31  1  0
 15 32  1  0
 16 33  1  6
 17 34  1  0
 17 35  1  0
 20 36  1  0
 21 37  1  0
 22 38  1  0
 22 39  1  0
 23 40  1  0
 23 41  1  0
 25 42  1  0
 25 43  1  0
 26 44  1  0
 26 45  1  0
M  END
>  <Ligand ID>  (1) 
LIG0001393

>  <Ligand>  (1) 
CHEMBL3354965

>  <SMILES>  (1) 
Fc1ccc(c(c1)F)n1nc(c2c1[C@H]1C[C@H]1C2)C(=O)NC1CCOCC1

>  <CID>  (1) 
118720573.0

>  <ChEMBL ID>  (1) 
nan

>  <InChiKey>  (1) 
HAEXUVKAIDVGKX-GWCFXTLKSA-N

>  <InChi>  (1) 
InChI=1S/C19H19F2N3O2/c20-11-1-2-16(15(21)9-11)24-18-13-7-10(13)8-14(18)17(23-24)19(25)22-12-3-5-26-6-4-12/h1-2,9-10,12-13H,3-8H2,(H,22,25)/t10-,13-/m0/s1

>  <IUPAC Name>  (1) 
(2S,4S)-9-(2,4-difluorophenyl)-N-(oxan-4-yl)-8,9-diazatricyclo[4.3.0.02,4]nona-1(6),7-diene-7-carboxamide

$$$$
