
     RDKit          3D

 84 84  0  0  0  0  0  0  0  0999 V2000
    2.7069   -1.2402    0.2218 O   0  0  0  0  0  0  0  0  0  0  0  0
    1.3203   -1.2449    0.2745 C   0  0  0  0  0  0  0  0  0  0  0  0
    0.7699   -2.3259    0.6125 O   0  0  0  0  0  0  0  0  0  0  0  0
    0.5063   -0.0739   -0.0393 C   0  0  0  0  0  0  0  0  0  0  0  0
   -0.8146   -0.1444    0.0303 C   0  0  0  0  0  0  0  0  0  0  0  0
   -1.6798    0.9839   -0.2691 C   0  0  0  0  0  0  0  0  0  0  0  0
   -2.9339    0.9002   -0.1980 O   0  0  0  0  0  0  0  0  0  0  0  0
   -1.1432    2.1960   -0.6451 O   0  0  0  0  0  0  0  0  0  0  0  0
    6.4772    2.3522   -2.9038 O   0  0  0  0  0  0  0  0  0  0  0  0
    7.6199    1.9422   -3.1748 C   0  0  0  0  0  0  0  0  0  0  0  0
    7.9842    0.5914   -3.0626 N   0  0  0  0  0  0  0  0  0  0  0  0
    7.1774   -0.4714   -2.6512 C   0  0  0  0  0  0  0  0  0  0  0  0
    5.8566   -0.3934   -2.2703 C   0  0  0  0  0  0  0  0  0  0  0  0
    5.1244   -1.4969   -1.8747 C   0  0  0  0  0  0  0  0  0  0  0  0
    5.7028   -2.7520   -1.8448 C   0  0  0  0  0  0  0  0  0  0  0  0
    7.0115   -2.8473   -2.2191 C   0  0  0  0  0  0  0  0  0  0  0  0
    7.7376   -1.7472   -2.6125 C   0  0  0  0  0  0  0  0  0  0  0  0
    9.0799   -1.9574   -2.9781 O   0  0  0  0  0  0  0  0  0  0  0  0
    3.6972   -1.3912   -1.4677 C   0  0  2  0  0  0  0  0  0  0  0  0
    3.6641   -1.5163    0.0357 C   0  0  0  0  0  0  0  0  0  0  0  0
    2.3466   -1.5377    0.5853 N   0  0  0  0  0  0  0  0  0  0  0  0
    1.6071   -0.3407    0.4920 C   0  0  0  0  0  0  0  0  0  0  0  0
    2.1095    0.7963    1.3221 C   0  0  0  0  0  0  0  0  0  0  0  0
    2.1512    0.5545    2.7871 C   0  0  0  0  0  0  0  0  0  0  0  0
    0.7935    0.2371    3.3422 C   0  0  0  0  0  0  0  0  0  0  0  0
   -0.1515    1.4129    3.0780 C   0  0  0  0  0  0  0  0  0  0  0  0
   -1.4784    1.0204    3.6680 C   0  0  0  0  0  0  0  0  0  0  0  0
   -2.3973    2.0177    3.5081 O   0  0  0  0  0  0  0  0  0  0  0  0
   -2.6258    2.3542    2.2058 C   0  0  0  0  0  0  0  0  0  0  0  0
   -3.1305    1.1785    1.4026 C   0  0  0  0  0  0  0  0  0  0  0  0
   -4.4125    0.7106    2.0347 C   0  0  0  0  0  0  0  0  0  0  0  0
   -5.0409   -0.4602    1.3513 C   0  0  0  0  0  0  0  0  0  0  0  0
   -5.4007   -0.2371   -0.0507 C   0  0  0  0  0  0  0  0  0  0  0  0
   -4.5020   -0.5093   -1.0626 C   0  0  0  0  0  0  0  0  0  0  0  0
   -4.8454   -0.2988   -2.3908 C   0  0  0  0  0  0  0  0  0  0  0  0
   -6.0950    0.1873   -2.7184 C   0  0  0  0  0  0  0  0  0  0  0  0
   -6.9964    0.4609   -1.7126 C   0  0  0  0  0  0  0  0  0  0  0  0
   -6.6424    0.2468   -0.3874 C   0  0  0  0  0  0  0  0  0  0  0  0
   -8.6043    1.0753   -2.0067 S   0  0  0  0  0  0  0  0  0  0  0  0
   -8.6366    1.8487   -3.3091 O   0  0  0  0  0  0  0  0  0  0  0  0
   -9.0476    1.9870   -0.9010 O   0  0  0  0  0  0  0  0  0  0  0  0
   -9.7263   -0.2222   -2.1761 N   0  0  0  0  0  0  0  0  0  0  0  0
    3.0427   -2.4473   -2.1039 O   0  0  0  0  0  0  0  0  0  0  0  0
    3.2786   -1.7735    0.8876 H   0  0  0  0  0  0  0  0  0  0  0  0
    0.9890    0.8485   -0.3282 H   0  0  0  0  0  0  0  0  0  0  0  0
   -1.2594   -1.0903    0.3247 H   0  0  0  0  0  0  0  0  0  0  0  0
   -1.7403    2.9644   -0.8716 H   0  0  0  0  0  0  0  0  0  0  0  0
    8.3385    2.7001   -3.5104 H   0  0  0  0  0  0  0  0  0  0  0  0
    8.9926    0.3722   -3.3247 H   0  0  0  0  0  0  0  0  0  0  0  0
    5.3575    0.5401   -2.2718 H   0  0  0  0  0  0  0  0  0  0  0  0
    5.1901   -3.6426   -1.5488 H   0  0  0  0  0  0  0  0  0  0  0  0
    7.4945   -3.8096   -2.2078 H   0  0  0  0  0  0  0  0  0  0  0  0
    9.7553   -1.5605   -2.3295 H   0  0  0  0  0  0  0  0  0  0  0  0
    3.3373   -0.4067   -1.8128 H   0  0  0  0  0  0  0  0  0  0  0  0
    4.3302   -0.7487    0.4548 H   0  0  0  0  0  0  0  0  0  0  0  0
    4.1313   -2.5059    0.2621 H   0  0  0  0  0  0  0  0  0  0  0  0
    2.2929   -2.0237    1.4816 H   0  0  0  0  0  0  0  0  0  0  0  0
    0.5692   -0.5494    0.8233 H   0  0  0  0  0  0  0  0  0  0  0  0
    1.5378    0.0180   -0.5459 H   0  0  0  0  0  0  0  0  0  0  0  0
    3.1646    1.0711    1.0147 H   0  0  0  0  0  0  0  0  0  0  0  0
    1.5345    1.7220    1.1248 H   0  0  0  0  0  0  0  0  0  0  0  0
    2.4315    1.5450    3.2566 H   0  0  0  0  0  0  0  0  0  0  0  0
    2.9356   -0.1370    3.1189 H   0  0  0  0  0  0  0  0  0  0  0  0
    0.7992    0.1149    4.4396 H   0  0  0  0  0  0  0  0  0  0  0  0
    0.3135   -0.6433    2.8455 H   0  0  0  0  0  0  0  0  0  0  0  0
    0.2613    2.3197    3.5324 H   0  0  0  0  0  0  0  0  0  0  0  0
   -0.2810    1.5644    1.9926 H   0  0  0  0  0  0  0  0  0  0  0  0
   -1.8578    0.0693    3.2269 H   0  0  0  0  0  0  0  0  0  0  0  0
   -1.3520    0.7479    4.7637 H   0  0  0  0  0  0  0  0  0  0  0  0
   -1.7382    2.8342    1.7208 H   0  0  0  0  0  0  0  0  0  0  0  0
   -3.4485    3.1559    2.2413 H   0  0  0  0  0  0  0  0  0  0  0  0
   -3.3089    1.5644    0.3658 H   0  0  0  0  0  0  0  0  0  0  0  0
   -2.3393    0.4236    1.3494 H   0  0  0  0  0  0  0  0  0  0  0  0
   -4.2081    0.4198    3.0776 H   0  0  0  0  0  0  0  0  0  0  0  0
   -5.0962    1.5881    2.1006 H   0  0  0  0  0  0  0  0  0  0  0  0
   -5.9832   -0.6864    1.9016 H   0  0  0  0  0  0  0  0  0  0  0  0
   -4.3834   -1.3334    1.5048 H   0  0  0  0  0  0  0  0  0  0  0  0
   -3.5095   -0.8942   -0.8334 H   0  0  0  0  0  0  0  0  0  0  0  0
   -4.1494   -0.5076   -3.2063 H   0  0  0  0  0  0  0  0  0  0  0  0
   -6.3865    0.3604   -3.7541 H   0  0  0  0  0  0  0  0  0  0  0  0
   -7.3411    0.4570    0.4143 H   0  0  0  0  0  0  0  0  0  0  0  0
   -9.2574   -1.1615   -2.0063 H   0  0  0  0  0  0  0  0  0  0  0  0
  -10.5108   -0.0955   -1.4827 H   0  0  0  0  0  0  0  0  0  0  0  0
    2.9344   -3.2299   -1.5249 H   0  0  0  0  0  0  0  0  0  0  0  0
  1  2  1  0
  2  3  2  0
  2  4  1  0
  4  5  2  0
  5  6  1  0
  6  7  2  0
  6  8  1  0
  9 10  2  0
 10 11  1  0
 11 12  1  0
 12 13  2  0
 13 14  1  0
 14 15  2  0
 15 16  1  0
 16 17  2  0
 17 18  1  0
 14 19  1  0
 19 20  1  0
 20 21  1  0
 21 22  1  0
 22 23  1  0
 23 24  1  0
 24 25  1  0
 25 26  1  0
 26 27  1  0
 27 28  1  0
 28 29  1  0
 29 30  1  0
 30 31  1  0
 31 32  1  0
 32 33  1  0
 33 34  2  0
 34 35  1  0
 35 36  2  0
 36 37  1  0
 37 38  2  0
 37 39  1  0
 39 40  2  0
 39 41  2  0
 39 42  1  0
 19 43  1  0
 17 12  1  0
 38 33  1  0
  1 44  1  0
  4 45  1  0
  5 46  1  0
  8 47  1  0
 10 48  1  0
 11 49  1  0
 13 50  1  0
 15 51  1  0
 16 52  1  0
 18 53  1  0
 19 54  1  1
 20 55  1  0
 20 56  1  0
 21 57  1  0
 22 58  1  0
 22 59  1  0
 23 60  1  0
 23 61  1  0
 24 62  1  0
 24 63  1  0
 25 64  1  0
 25 65  1  0
 26 66  1  0
 26 67  1  0
 27 68  1  0
 27 69  1  0
 29 70  1  0
 29 71  1  0
 30 72  1  0
 30 73  1  0
 31 74  1  0
 31 75  1  0
 32 76  1  0
 32 77  1  0
 34 78  1  0
 35 79  1  0
 36 80  1  0
 38 81  1  0
 42 82  1  0
 42 83  1  0
 43 84  1  0
M  END
>  <Ligand ID>  (1) 
LIG0002527

>  <Ligand>  (1) 
CHEMBL443435

>  <SMILES>  (1) 
OC(=O)/C=C/C(=O)O.O=CNc1cc(ccc1O)[C@H](CNCCCCCCOCCCCc1cccc(c1)S(=O)(=O)N)O

>  <CID>  (1) 
44572221.0

>  <ChEMBL ID>  (1) 
nan

>  <InChiKey>  (1) 
AIQSQNBXZYYDNO-RHWBLDFMSA-N

>  <InChi>  (1) 
InChI=1S/C25H37N3O6S.C4H4O4/c26-35(32,33)22-10-7-9-20(16-22)8-3-6-15-34-14-5-2-1-4-13-27-18-25(31)21-11-12-24(30)23(17-21)28-19-29;5-3(6)1-2-4(7)8/h7,9-12,16-17,19,25,27,30-31H,1-6,8,13-15,18H2,(H,28,29)(H2,26,32,33);1-2H,(H,5,6)(H,7,8)/b;2-1+/t25-;/m0./s1

>  <IUPAC Name>  (1) 
(E)-but-2-enedioic acid;N-[2-hydroxy-5-[(1R)-1-hydroxy-2-[6-[4-(3-sulfamoylphenyl)butoxy]hexylamino]ethyl]phenyl]formamide

$$$$
