
     RDKit          3D

 60 63  0  0  0  0  0  0  0  0999 V2000
    8.4882   -0.4586    1.6129 C   0  0  0  0  0  0  0  0  0  0  0  0
    8.4364    0.2338    0.3877 O   0  0  0  0  0  0  0  0  0  0  0  0
    7.3133    0.3151   -0.3936 C   0  0  0  0  0  0  0  0  0  0  0  0
    7.2435    0.9870   -1.5950 C   0  0  0  0  0  0  0  0  0  0  0  0
    6.0730    1.0360   -2.3476 C   0  0  0  0  0  0  0  0  0  0  0  0
    4.9262    0.4046   -1.9106 C   0  0  0  0  0  0  0  0  0  0  0  0
    5.0174   -0.2637   -0.7004 C   0  0  0  0  0  0  0  0  0  0  0  0
    6.1708   -0.3139    0.0431 C   0  0  0  0  0  0  0  0  0  0  0  0
    3.8049   -0.8812   -0.2046 C   0  0  0  0  0  0  0  0  0  0  0  0
    2.6218   -0.8215   -0.8585 C   0  0  0  0  0  0  0  0  0  0  0  0
    2.5049   -0.1031   -2.1318 C   0  0  0  0  0  0  0  0  0  0  0  0
    3.7359    0.3801   -2.5604 O   0  0  0  0  0  0  0  0  0  0  0  0
    1.5164   -1.5369   -0.1730 C   0  0  0  0  0  0  0  0  0  0  0  0
    0.4456   -0.6107    0.1076 N   0  0  0  0  0  0  0  0  0  0  0  0
   -0.4402   -1.1898    1.1546 C   0  0  0  0  0  0  0  0  0  0  0  0
   -1.2675   -0.0564    1.6991 C   0  0  0  0  0  0  0  0  0  0  0  0
   -2.0253    0.6775    0.6081 C   0  0  0  0  0  0  0  0  0  0  0  0
   -1.3545    0.6621   -0.7230 C   0  0  0  0  0  0  0  0  0  0  0  0
   -0.5235   -0.5421   -1.0153 C   0  0  0  0  0  0  0  0  0  0  0  0
   -2.0169    2.1440    1.0733 C   0  0  0  0  0  0  0  0  0  0  0  0
   -2.6365    2.2793    2.2983 O   0  0  0  0  0  0  0  0  0  0  0  0
   -3.4098    0.1214    0.6072 C   0  0  0  0  0  0  0  0  0  0  0  0
   -4.3573    0.6819   -0.3857 C   0  0  0  0  0  0  0  0  0  0  0  0
   -5.6723   -0.0210   -0.1711 C   0  0  0  0  0  0  0  0  0  0  0  0
   -6.5845    0.5535    0.7159 C   0  0  0  0  0  0  0  0  0  0  0  0
   -7.8056   -0.0380    0.9603 C   0  0  0  0  0  0  0  0  0  0  0  0
   -8.1171   -1.2051    0.3186 C   0  0  0  0  0  0  0  0  0  0  0  0
   -7.2205   -1.7765   -0.5578 C   0  0  0  0  0  0  0  0  0  0  0  0
   -5.9934   -1.1942   -0.8120 C   0  0  0  0  0  0  0  0  0  0  0  0
    9.4923   -0.2744    2.0733 H   0  0  0  0  0  0  0  0  0  0  0  0
    7.7028   -0.1348    2.3388 H   0  0  0  0  0  0  0  0  0  0  0  0
    8.4350   -1.5462    1.4165 H   0  0  0  0  0  0  0  0  0  0  0  0
    8.1556    1.4838   -1.9329 H   0  0  0  0  0  0  0  0  0  0  0  0
    6.0335    1.5665   -3.2871 H   0  0  0  0  0  0  0  0  0  0  0  0
    6.1985   -0.8577    0.9984 H   0  0  0  0  0  0  0  0  0  0  0  0
    3.8904   -1.4116    0.7470 H   0  0  0  0  0  0  0  0  0  0  0  0
    1.7933    0.7723   -2.0421 H   0  0  0  0  0  0  0  0  0  0  0  0
    2.0889   -0.7506   -2.9217 H   0  0  0  0  0  0  0  0  0  0  0  0
    1.8413   -1.9447    0.7800 H   0  0  0  0  0  0  0  0  0  0  0  0
    1.1450   -2.3540   -0.8711 H   0  0  0  0  0  0  0  0  0  0  0  0
   -1.0064   -2.0426    0.7717 H   0  0  0  0  0  0  0  0  0  0  0  0
    0.2398   -1.5376    1.9491 H   0  0  0  0  0  0  0  0  0  0  0  0
   -0.5888    0.6115    2.2669 H   0  0  0  0  0  0  0  0  0  0  0  0
   -1.9771   -0.4789    2.4362 H   0  0  0  0  0  0  0  0  0  0  0  0
   -2.0911    0.8383   -1.5308 H   0  0  0  0  0  0  0  0  0  0  0  0
   -0.6471    1.5436   -0.8032 H   0  0  0  0  0  0  0  0  0  0  0  0
   -1.2133   -1.4446   -0.9728 H   0  0  0  0  0  0  0  0  0  0  0  0
   -0.0763   -0.4657   -1.9957 H   0  0  0  0  0  0  0  0  0  0  0  0
   -2.3624    2.8366    0.3059 H   0  0  0  0  0  0  0  0  0  0  0  0
   -0.9292    2.3680    1.2364 H   0  0  0  0  0  0  0  0  0  0  0  0
   -2.5955    1.4285    2.8058 H   0  0  0  0  0  0  0  0  0  0  0  0
   -3.2944   -0.9714    0.3611 H   0  0  0  0  0  0  0  0  0  0  0  0
   -3.7818    0.1322    1.6509 H   0  0  0  0  0  0  0  0  0  0  0  0
   -4.5580    1.7506   -0.2924 H   0  0  0  0  0  0  0  0  0  0  0  0
   -4.0553    0.3751   -1.4149 H   0  0  0  0  0  0  0  0  0  0  0  0
   -6.3648    1.4827    1.2408 H   0  0  0  0  0  0  0  0  0  0  0  0
   -8.5153    0.4089    1.6502 H   0  0  0  0  0  0  0  0  0  0  0  0
   -9.0920   -1.6420    0.5389 H   0  0  0  0  0  0  0  0  0  0  0  0
   -7.4809   -2.7042   -1.0604 H   0  0  0  0  0  0  0  0  0  0  0  0
   -5.2601   -1.6060   -1.4892 H   0  0  0  0  0  0  0  0  0  0  0  0
  1  2  1  0
  2  3  1  0
  3  4  2  0
  4  5  1  0
  5  6  2  0
  6  7  1  0
  7  8  2  0
  7  9  1  0
  9 10  2  0
 10 11  1  0
 11 12  1  0
 10 13  1  0
 13 14  1  0
 14 15  1  0
 15 16  1  0
 16 17  1  0
 17 18  1  0
 18 19  1  0
 17 20  1  0
 20 21  1  0
 17 22  1  0
 22 23  1  0
 23 24  1  0
 24 25  2  0
 25 26  1  0
 26 27  2  0
 27 28  1  0
 28 29  2  0
  8  3  1  0
 19 14  1  0
 29 24  1  0
 12  6  1  0
  1 30  1  0
  1 31  1  0
  1 32  1  0
  4 33  1  0
  5 34  1  0
  8 35  1  0
  9 36  1  0
 11 37  1  0
 11 38  1  0
 13 39  1  0
 13 40  1  0
 15 41  1  0
 15 42  1  0
 16 43  1  0
 16 44  1  0
 18 45  1  0
 18 46  1  0
 19 47  1  0
 19 48  1  0
 20 49  1  0
 20 50  1  0
 21 51  1  0
 22 52  1  0
 22 53  1  0
 23 54  1  0
 23 55  1  0
 25 56  1  0
 26 57  1  0
 27 58  1  0
 28 59  1  0
 29 60  1  0
M  END
>  <Ligand ID>  (1) 
LIG0004890

>  <Ligand>  (1) 
MLS000735582

>  <SMILES>  (1) 
COc1ccc2c(c1)C=C(CO2)CN1CCC(CC1)(CO)CCc1ccccc1

>  <CID>  (1) 
16187807.0

>  <ChEMBL ID>  (1) 
nan

>  <InChiKey>  (1) 
FWOGYIQHCVEICD-UHFFFAOYSA-N

>  <InChi>  (1) 
InChI=1S/C25H31NO3/c1-28-23-7-8-24-22(16-23)15-21(18-29-24)17-26-13-11-25(19-27,12-14-26)10-9-20-5-3-2-4-6-20/h2-8,15-16,27H,9-14,17-19H2,1H3

>  <IUPAC Name>  (1) 
[1-[(6-methoxy-2H-chromen-3-yl)methyl]-4-(2-phenylethyl)piperidin-4-yl]methanol

$$$$
