
     RDKit          3D

 58 62  0  0  0  0  0  0  0  0999 V2000
   -1.6454   -3.0527    4.2362 C   0  0  0  0  0  0  0  0  0  0  0  0
   -1.2694   -2.1146    3.2638 O   0  0  0  0  0  0  0  0  0  0  0  0
   -2.1708   -1.2008    2.7012 C   0  0  0  0  0  0  0  0  0  0  0  0
   -3.3384   -1.2975    3.1439 O   0  0  0  0  0  0  0  0  0  0  0  0
   -1.7176   -0.2520    1.6957 C   0  0  0  0  0  0  0  0  0  0  0  0
   -0.3865   -0.1999    1.2369 C   0  0  0  0  0  0  0  0  0  0  0  0
   -0.2958    0.7911    0.2983 C   0  0  0  0  0  0  0  0  0  0  0  0
   -1.5610    1.3267    0.1974 C   0  0  0  0  0  0  0  0  0  0  0  0
   -2.4278    0.7073    1.0325 N   0  0  0  0  0  0  0  0  0  0  0  0
   -4.1016    1.0347    1.1565 S   0  0  0  0  0  0  0  0  0  0  0  0
   -4.2817    2.5432    1.4987 O   0  0  0  0  0  0  0  0  0  0  0  0
   -4.8122    0.3533    2.2673 O   0  0  0  0  0  0  0  0  0  0  0  0
   -5.0016    0.7019   -0.2995 C   0  0  0  0  0  0  0  0  0  0  0  0
   -5.1345   -0.6337   -0.6622 C   0  0  0  0  0  0  0  0  0  0  0  0
   -5.8785   -0.9696   -1.7924 C   0  0  0  0  0  0  0  0  0  0  0  0
   -6.4986   -0.0384   -2.5817 C   0  0  0  0  0  0  0  0  0  0  0  0
   -6.3588    1.2967   -2.2087 C   0  0  0  0  0  0  0  0  0  0  0  0
   -5.6221    1.6235   -1.0900 C   0  0  0  0  0  0  0  0  0  0  0  0
   -7.2954   -0.3631   -3.7880 C   0  0  0  0  0  0  0  0  0  0  0  0
   -1.7507    2.4317   -0.7334 C   0  0  0  0  0  0  0  0  0  0  0  0
   -2.8530    3.0097   -0.9129 O   0  0  0  0  0  0  0  0  0  0  0  0
   -0.6419    2.9690   -1.5490 C   0  0  0  0  0  0  0  0  0  0  0  0
   -0.8129    3.9244   -2.3528 O   0  0  0  0  0  0  0  0  0  0  0  0
    0.6521    2.3168   -1.3557 C   0  0  0  0  0  0  0  0  0  0  0  0
    0.8188    1.2736   -0.4708 C   0  0  0  0  0  0  0  0  0  0  0  0
    2.1396    0.9110   -0.5452 C   0  0  0  0  0  0  0  0  0  0  0  0
    2.7123    1.7705   -1.4885 C   0  0  0  0  0  0  0  0  0  0  0  0
    1.8061    2.6185   -1.9747 N   0  0  0  0  0  0  0  0  0  0  0  0
    2.9009   -0.1078    0.1320 C   0  0  0  0  0  0  0  0  0  0  0  0
    2.5414   -0.9308    0.9681 O   0  0  0  0  0  0  0  0  0  0  0  0
    4.2831   -0.2111   -0.1861 O   0  0  0  0  0  0  0  0  0  0  0  0
    5.0645   -1.2120    0.4695 C   0  0  0  0  0  0  0  0  0  0  0  0
    6.4556   -1.1078   -0.0349 C   0  0  0  0  0  0  0  0  0  0  0  0
    6.9234   -1.7960   -1.1317 C   0  0  0  0  0  0  0  0  0  0  0  0
    8.2406   -1.6350   -1.5294 C   0  0  0  0  0  0  0  0  0  0  0  0
    9.1145   -0.8031   -0.8637 C   0  0  0  0  0  0  0  0  0  0  0  0
    8.6443   -0.1105    0.2397 C   0  0  0  0  0  0  0  0  0  0  0  0
    7.3323   -0.2642    0.6444 C   0  0  0  0  0  0  0  0  0  0  0  0
   -1.5466   -2.6880    5.2855 H   0  0  0  0  0  0  0  0  0  0  0  0
   -1.0913   -3.9988    4.1782 H   0  0  0  0  0  0  0  0  0  0  0  0
   -2.7162   -3.3256    4.0152 H   0  0  0  0  0  0  0  0  0  0  0  0
    0.3276   -0.8837    1.6460 H   0  0  0  0  0  0  0  0  0  0  0  0
   -4.6734   -1.4343   -0.0890 H   0  0  0  0  0  0  0  0  0  0  0  0
   -5.9764   -2.0220   -2.0682 H   0  0  0  0  0  0  0  0  0  0  0  0
   -6.8285    2.0948   -2.7949 H   0  0  0  0  0  0  0  0  0  0  0  0
   -5.5335    2.6617   -0.8151 H   0  0  0  0  0  0  0  0  0  0  0  0
   -7.7687   -1.3618   -3.7395 H   0  0  0  0  0  0  0  0  0  0  0  0
   -6.6188   -0.3153   -4.6635 H   0  0  0  0  0  0  0  0  0  0  0  0
   -8.0511    0.4485   -3.9315 H   0  0  0  0  0  0  0  0  0  0  0  0
    3.7537    1.7962   -1.8262 H   0  0  0  0  0  0  0  0  0  0  0  0
    1.9708    3.3655   -2.6940 H   0  0  0  0  0  0  0  0  0  0  0  0
    5.0492   -0.9785    1.5413 H   0  0  0  0  0  0  0  0  0  0  0  0
    4.6772   -2.2225    0.2592 H   0  0  0  0  0  0  0  0  0  0  0  0
    6.2296   -2.4470   -1.6480 H   0  0  0  0  0  0  0  0  0  0  0  0
    8.6008   -2.1775   -2.3900 H   0  0  0  0  0  0  0  0  0  0  0  0
   10.1440   -0.6530   -1.1434 H   0  0  0  0  0  0  0  0  0  0  0  0
    9.2869    0.5523    0.7947 H   0  0  0  0  0  0  0  0  0  0  0  0
    6.9916    0.2859    1.5058 H   0  0  0  0  0  0  0  0  0  0  0  0
  1  2  1  0
  2  3  1  0
  3  4  2  0
  3  5  1  0
  5  6  2  0
  6  7  1  0
  7  8  2  0
  8  9  1  0
  9 10  1  0
 10 11  2  0
 10 12  2  0
 10 13  1  0
 13 14  2  0
 14 15  1  0
 15 16  2  0
 16 17  1  0
 17 18  2  0
 16 19  1  0
  8 20  1  0
 20 21  2  0
 20 22  1  0
 22 23  2  0
 22 24  1  0
 24 25  2  0
 25 26  1  0
 26 27  2  0
 27 28  1  0
 26 29  1  0
 29 30  2  0
 29 31  1  0
 31 32  1  0
 32 33  1  0
 33 34  2  0
 34 35  1  0
 35 36  2  0
 36 37  1  0
 37 38  2  0
  9  5  1  0
 18 13  1  0
 28 24  1  0
 38 33  1  0
 25  7  1  0
  1 39  1  0
  1 40  1  0
  1 41  1  0
  6 42  1  0
 14 43  1  0
 15 44  1  0
 17 45  1  0
 18 46  1  0
 19 47  1  0
 19 48  1  0
 19 49  1  0
 27 50  1  0
 28 51  1  0
 32 52  1  0
 32 53  1  0
 34 54  1  0
 35 55  1  0
 36 56  1  0
 37 57  1  0
 38 58  1  0
M  END
>  <Ligand ID>  (1) 
LIG0003833

>  <Ligand>  (1) 
106674-03-7

>  <SMILES>  (1) 
COC(=O)c1cc2c(n1S(=O)(=O)c1ccc(cc1)C)c(=O)c(=O)c1c2c(c[nH]1)C(=O)OCc1ccccc1

>  <CID>  (1) 
386817.0

>  <ChEMBL ID>  (1) 
nan

>  <InChiKey>  (1) 
AVADCSIAVBNFKV-UHFFFAOYSA-N

>  <InChi>  (1) 
InChI=1S/C27H20N2O8S/c1-15-8-10-17(11-9-15)38(34,35)29-20(27(33)36-2)12-18-21-19(13-28-22(21)24(30)25(31)23(18)29)26(32)37-14-16-6-4-3-5-7-16/h3-13,28H,14H2,1-2H3

>  <IUPAC Name>  (1) 
8-O-benzyl 2-O-methyl 3-(4-methylphenyl)sulfonyl-4,5-dioxo-6H-pyrrolo[3,2-e]indole-2,8-dicarboxylate

$$$$
