
     RDKit          3D

 20 20  0  0  0  0  0  0  0  0999 V2000
    2.6837   -1.4616    0.4271 O   0  0  0  0  0  0  0  0  0  0  0  0
    2.1142   -0.3002   -0.1063 C   0  0  0  0  0  0  0  0  0  0  0  0
    2.3364    0.7601    0.5369 O   0  0  0  0  0  0  0  0  0  0  0  0
    1.3124   -0.3629   -1.3459 C   0  0  0  0  0  0  0  0  0  0  0  0
   -0.1363   -0.0090   -1.1761 C   0  0  2  0  0  0  0  0  0  0  0  0
   -0.3386    1.3998   -0.6411 C   0  0  0  0  0  0  0  0  0  0  0  0
   -0.7107    0.1948    0.1496 C   0  0  2  0  0  0  0  0  0  0  0  0
    0.0261   -0.2622    1.2841 N   0  0  0  0  0  0  0  0  0  0  0  0
   -2.2015    0.0966    0.3555 C   0  0  0  0  0  0  0  0  0  0  0  0
   -2.9772    0.4661   -0.5801 O   0  0  0  0  0  0  0  0  0  0  0  0
   -2.7548   -0.3831    1.5310 O   0  0  0  0  0  0  0  0  0  0  0  0
    2.8478   -1.5880    1.3976 H   0  0  0  0  0  0  0  0  0  0  0  0
    1.4533   -1.3733   -1.7947 H   0  0  0  0  0  0  0  0  0  0  0  0
    1.7534    0.4175   -2.0238 H   0  0  0  0  0  0  0  0  0  0  0  0
   -0.8521   -0.3704   -1.9463 H   0  0  0  0  0  0  0  0  0  0  0  0
   -1.1092    1.9958   -1.1456 H   0  0  0  0  0  0  0  0  0  0  0  0
    0.5191    1.9749   -0.2781 H   0  0  0  0  0  0  0  0  0  0  0  0
   -0.2188    0.2087    2.1674 H   0  0  0  0  0  0  0  0  0  0  0  0
   -0.0556   -1.3073    1.3422 H   0  0  0  0  0  0  0  0  0  0  0  0
   -3.6915   -0.0962    1.8467 H   0  0  0  0  0  0  0  0  0  0  0  0
  1  2  1  0
  2  3  2  0
  2  4  1  0
  4  5  1  0
  5  6  1  0
  6  7  1  0
  7  8  1  1
  7  9  1  0
  9 10  2  0
  9 11  1  0
  7  5  1  0
  1 12  1  0
  4 13  1  0
  4 14  1  0
  5 15  1  6
  6 16  1  0
  6 17  1  0
  8 18  1  0
  8 19  1  0
 11 20  1  0
M  END
>  <Ligand ID>  (1) 
LIG0000655

>  <Ligand>  (1) 
CTK0H1302

>  <SMILES>  (1) 
OC(=O)C[C@@H]1C[C@@]1(N)C(=O)O

>  <CID>  (1) 
11768848.0

>  <ChEMBL ID>  (1) 
nan

>  <InChiKey>  (1) 
HMHPAFJEDLYRGO-CVYQJGLWSA-N

>  <InChi>  (1) 
InChI=1S/C6H9NO4/c7-6(5(10)11)2-3(6)1-4(8)9/h3H,1-2,7H2,(H,8,9)(H,10,11)/t3-,6+/m1/s1

>  <IUPAC Name>  (1) 
(1S,2S)-1-amino-2-(carboxymethyl)cyclopropane-1-carboxylic acid

$$$$
