
     RDKit          3D

 96100  0  0  0  0  0  0  0  0999 V2000
    5.1814   -4.1828   -1.6566 C   0  0  0  0  0  0  0  0  0  0  0  0
    4.6832   -2.7626   -1.5814 C   0  0  0  0  0  0  0  0  0  0  0  0
    4.0738   -2.3498   -2.5989 O   0  0  0  0  0  0  0  0  0  0  0  0
    4.9136   -1.9885   -0.4163 N   0  0  0  0  0  0  0  0  0  0  0  0
    4.4942   -0.6234   -0.2359 C   0  0  2  0  0  0  0  0  0  0  0  0
    3.1545   -0.5529    0.3417 C   0  0  0  0  0  0  0  0  0  0  0  0
    2.5711   -1.6657    0.5865 O   0  0  0  0  0  0  0  0  0  0  0  0
    2.5297    0.6943    0.6191 N   0  0  0  0  0  0  0  0  0  0  0  0
    1.1890    0.7917    1.1952 C   0  0  1  0  0  0  0  0  0  0  0  0
    0.1824    0.1773    0.3413 C   0  0  0  0  0  0  0  0  0  0  0  0
    0.6149   -0.4757   -0.6786 O   0  0  0  0  0  0  0  0  0  0  0  0
   -1.2176    0.2054    0.4842 N   0  0  0  0  0  0  0  0  0  0  0  0
   -2.0883   -0.5185   -0.4731 C   0  0  0  0  0  0  0  0  0  0  0  0
   -2.9681   -1.2565    0.5240 C   0  0  1  0  0  0  0  0  0  0  0  0
   -3.2094   -0.2136    1.6097 C   0  0  0  0  0  0  0  0  0  0  0  0
   -2.1229    0.8313    1.3899 C   0  0  2  0  0  0  0  0  0  0  0  0
   -2.7939    2.0550    0.7813 C   0  0  0  0  0  0  0  0  0  0  0  0
   -1.7521    3.0753    0.3938 C   0  0  0  0  0  0  0  0  0  0  0  0
   -2.4495    4.2832   -0.2082 C   0  0  0  0  0  0  0  0  0  0  0  0
   -1.4634    5.2880   -0.5897 N   0  0  0  0  0  0  0  0  0  0  0  0
   -1.6730    6.5495   -0.4857 C   0  0  0  0  0  0  0  0  0  0  0  0
   -0.6364    7.4505   -0.8888 N   0  0  0  0  0  0  0  0  0  0  0  0
   -2.8744    7.1180    0.0063 N   0  0  0  0  0  0  0  0  0  0  0  0
   -4.2063   -1.6016    0.0013 O   0  0  0  0  0  0  0  0  0  0  0  0
   -4.3342   -2.9904    0.2299 C   0  0  0  0  0  0  0  0  0  0  0  0
   -5.6415   -3.4033   -0.3127 C   0  0  0  0  0  0  0  0  0  0  0  0
   -6.7823   -3.3919    0.4472 C   0  0  0  0  0  0  0  0  0  0  0  0
   -8.0135   -3.7810   -0.0610 C   0  0  0  0  0  0  0  0  0  0  0  0
   -8.1067   -4.1937   -1.3673 C   0  0  0  0  0  0  0  0  0  0  0  0
   -6.9686   -4.2119   -2.1493 C   0  0  0  0  0  0  0  0  0  0  0  0
   -5.7617   -3.8255   -1.6347 C   0  0  0  0  0  0  0  0  0  0  0  0
   -7.0962   -4.6301   -3.4538 C   0  0  0  0  0  0  0  0  0  0  0  0
   -8.3310   -5.0209   -3.9649 C   0  0  0  0  0  0  0  0  0  0  0  0
   -9.4433   -4.9890   -3.1550 C   0  0  0  0  0  0  0  0  0  0  0  0
   -9.3426   -4.5716   -1.8364 C   0  0  0  0  0  0  0  0  0  0  0  0
    1.2035    0.2016    2.6021 C   0  0  0  0  0  0  0  0  0  0  0  0
    2.1522    0.9589    3.4442 C   0  0  0  0  0  0  0  0  0  0  0  0
    3.4788    0.6412    3.6077 C   0  0  0  0  0  0  0  0  0  0  0  0
    4.2698    1.4289    4.4151 C   0  0  0  0  0  0  0  0  0  0  0  0
    3.7465    2.5307    5.0602 C   0  0  0  0  0  0  0  0  0  0  0  0
    2.4227    2.8725    4.9151 C   0  0  0  0  0  0  0  0  0  0  0  0
    1.6471    2.0738    4.1044 C   0  0  0  0  0  0  0  0  0  0  0  0
    4.7022    0.2604   -1.4552 C   0  0  0  0  0  0  0  0  0  0  0  0
    6.1388    0.3232   -1.7525 C   0  0  0  0  0  0  0  0  0  0  0  0
    6.8415   -0.4377   -2.6330 C   0  0  0  0  0  0  0  0  0  0  0  0
    8.2183   -0.2874   -2.8115 C   0  0  0  0  0  0  0  0  0  0  0  0
    8.9378    0.6474   -2.0984 C   0  0  0  0  0  0  0  0  0  0  0  0
    8.2351    1.4246   -1.2033 C   0  0  0  0  0  0  0  0  0  0  0  0
    6.8774    1.2742   -1.0290 C   0  0  0  0  0  0  0  0  0  0  0  0
   10.3043    0.7872   -2.2850 O   0  0  0  0  0  0  0  0  0  0  0  0
    4.7664   -4.7250   -2.5047 H   0  0  0  0  0  0  0  0  0  0  0  0
    6.2988   -4.2132   -1.5884 H   0  0  0  0  0  0  0  0  0  0  0  0
    4.8164   -4.6753   -0.7095 H   0  0  0  0  0  0  0  0  0  0  0  0
    5.4397   -2.4978    0.3606 H   0  0  0  0  0  0  0  0  0  0  0  0
    5.3068   -0.1966    0.4695 H   0  0  0  0  0  0  0  0  0  0  0  0
    3.0891    1.5520    0.3865 H   0  0  0  0  0  0  0  0  0  0  0  0
    0.9659    1.8680    1.3021 H   0  0  0  0  0  0  0  0  0  0  0  0
   -1.5341   -1.1933   -1.1216 H   0  0  0  0  0  0  0  0  0  0  0  0
   -2.7290    0.1661   -1.0385 H   0  0  0  0  0  0  0  0  0  0  0  0
   -2.4631   -2.1559    0.9534 H   0  0  0  0  0  0  0  0  0  0  0  0
   -3.1128   -0.6906    2.6066 H   0  0  0  0  0  0  0  0  0  0  0  0
   -4.2083    0.2395    1.5261 H   0  0  0  0  0  0  0  0  0  0  0  0
   -1.7474    1.1412    2.3572 H   0  0  0  0  0  0  0  0  0  0  0  0
   -3.4017    2.4867    1.6187 H   0  0  0  0  0  0  0  0  0  0  0  0
   -3.4467    1.7893   -0.0479 H   0  0  0  0  0  0  0  0  0  0  0  0
   -1.2777    3.4084    1.3395 H   0  0  0  0  0  0  0  0  0  0  0  0
   -0.9974    2.6545   -0.2862 H   0  0  0  0  0  0  0  0  0  0  0  0
   -3.1625    4.7117    0.5205 H   0  0  0  0  0  0  0  0  0  0  0  0
   -3.0062    4.0420   -1.1262 H   0  0  0  0  0  0  0  0  0  0  0  0
    0.3707    7.1499   -0.7694 H   0  0  0  0  0  0  0  0  0  0  0  0
   -0.8259    8.3918   -1.2953 H   0  0  0  0  0  0  0  0  0  0  0  0
   -3.0981    7.0556    1.0132 H   0  0  0  0  0  0  0  0  0  0  0  0
   -3.4939    7.5859   -0.6910 H   0  0  0  0  0  0  0  0  0  0  0  0
   -3.5558   -3.5686   -0.2913 H   0  0  0  0  0  0  0  0  0  0  0  0
   -4.2811   -3.1519    1.3432 H   0  0  0  0  0  0  0  0  0  0  0  0
   -6.7486   -3.0721    1.4869 H   0  0  0  0  0  0  0  0  0  0  0  0
   -8.8866   -3.7472    0.6044 H   0  0  0  0  0  0  0  0  0  0  0  0
   -4.8766   -3.8477   -2.2716 H   0  0  0  0  0  0  0  0  0  0  0  0
   -6.2245   -4.6488   -4.0730 H   0  0  0  0  0  0  0  0  0  0  0  0
   -8.4126   -5.3436   -4.9820 H   0  0  0  0  0  0  0  0  0  0  0  0
  -10.3883   -5.3030   -3.5956 H   0  0  0  0  0  0  0  0  0  0  0  0
  -10.2330   -4.5525   -1.2079 H   0  0  0  0  0  0  0  0  0  0  0  0
    1.5370   -0.8734    2.5620 H   0  0  0  0  0  0  0  0  0  0  0  0
    0.2299    0.1912    3.0655 H   0  0  0  0  0  0  0  0  0  0  0  0
    3.8868   -0.2227    3.1066 H   0  0  0  0  0  0  0  0  0  0  0  0
    5.3107    1.1822    4.5445 H   0  0  0  0  0  0  0  0  0  0  0  0
    4.3564    3.1674    5.7037 H   0  0  0  0  0  0  0  0  0  0  0  0
    1.9818    3.7305    5.4071 H   0  0  0  0  0  0  0  0  0  0  0  0
    0.6103    2.3483    3.9955 H   0  0  0  0  0  0  0  0  0  0  0  0
    4.0871   -0.0431   -2.3258 H   0  0  0  0  0  0  0  0  0  0  0  0
    4.3451    1.2658   -1.1775 H   0  0  0  0  0  0  0  0  0  0  0  0
    6.3748   -1.1823   -3.2460 H   0  0  0  0  0  0  0  0  0  0  0  0
    8.7464   -0.9194   -3.5282 H   0  0  0  0  0  0  0  0  0  0  0  0
    8.7436    2.1866   -0.6051 H   0  0  0  0  0  0  0  0  0  0  0  0
    6.3724    1.9225   -0.2993 H   0  0  0  0  0  0  0  0  0  0  0  0
   10.9895    0.5687   -1.5753 H   0  0  0  0  0  0  0  0  0  0  0  0
  1  2  1  0
  2  3  2  0
  2  4  1  0
  4  5  1  0
  5  6  1  0
  6  7  2  0
  6  8  1  0
  8  9  1  0
  9 10  1  0
 10 11  2  0
 10 12  1  0
 12 13  1  0
 13 14  1  0
 14 15  1  0
 15 16  1  0
 16 17  1  0
 17 18  1  0
 18 19  1  0
 19 20  1  0
 20 21  2  3
 21 22  1  0
 21 23  1  0
 14 24  1  0
 24 25  1  0
 25 26  1  0
 26 27  2  0
 27 28  1  0
 28 29  2  0
 29 30  1  0
 30 31  2  0
 30 32  1  0
 32 33  2  0
 33 34  1  0
 34 35  2  0
  9 36  1  0
 36 37  1  0
 37 38  2  0
 38 39  1  0
 39 40  2  0
 40 41  1  0
 41 42  2  0
  5 43  1  0
 43 44  1  0
 44 45  2  0
 45 46  1  0
 46 47  2  0
 47 48  1  0
 48 49  2  0
 47 50  1  0
 16 12  1  0
 31 26  1  0
 42 37  1  0
 49 44  1  0
 35 29  1  0
  1 51  1  0
  1 52  1  0
  1 53  1  0
  4 54  1  0
  5 55  1  1
  8 56  1  0
  9 57  1  1
 13 58  1  0
 13 59  1  0
 14 60  1  1
 15 61  1  0
 15 62  1  0
 16 63  1  1
 17 64  1  0
 17 65  1  0
 18 66  1  0
 18 67  1  0
 19 68  1  0
 19 69  1  0
 22 70  1  0
 22 71  1  0
 23 72  1  0
 23 73  1  0
 25 74  1  0
 25 75  1  0
 27 76  1  0
 28 77  1  0
 31 78  1  0
 32 79  1  0
 33 80  1  0
 34 81  1  0
 35 82  1  0
 36 83  1  0
 36 84  1  0
 38 85  1  0
 39 86  1  0
 40 87  1  0
 41 88  1  0
 42 89  1  0
 43 90  1  0
 43 91  1  0
 45 92  1  0
 46 93  1  0
 48 94  1  0
 49 95  1  0
 50 96  1  0
M  END
>  <Ligand ID>  (1) 
LIG0003286

>  <Ligand>  (1) 
CHEMBL377620

>  <SMILES>  (1) 
CC(=O)N[C@H](C(=O)N[C@@H](C(=O)N1C[C@@H](C[C@@H]1CCCN=C(N)N)OCc1ccc2c(c1)cccc2)Cc1ccccc1)Cc1ccc(cc1)O

>  <CID>  (1) 
44413930.0

>  <ChEMBL ID>  (1) 
nan

>  <InChiKey>  (1) 
OJPUSZQXDWHXOL-GIFUDOJISA-N

>  <InChi>  (1) 
InChI=1S/C39H46N6O5/c1-26(46)43-35(21-28-14-17-33(47)18-15-28)37(48)44-36(22-27-8-3-2-4-9-27)38(49)45-24-34(23-32(45)12-7-19-42-39(40)41)50-25-29-13-16-30-10-5-6-11-31(30)20-29/h2-6,8-11,13-18,20,32,34-36,47H,7,12,19,21-25H2,1H3,(H,43,46)(H,44,48)(H4,40,41,42)/t32-,34+,35-,36+/m0/s1

>  <IUPAC Name>  (1) 
(2S)-2-acetamido-N-[(2R)-1-[(2S,4R)-2-[3-(diaminomethylideneamino)propyl]-4-(naphthalen-2-ylmethoxy)pyrrolidin-1-yl]-1-oxo-3-phenylpropan-2-yl]-3-(4-hydroxyphenyl)propanamide

$$$$
