
     RDKit          3D

 39 42  0  0  0  0  0  0  0  0999 V2000
    6.2630   -1.0978   -0.5669 C   0  0  0  0  0  0  0  0  0  0  0  0
    4.8340   -0.6642   -0.4207 C   0  0  0  0  0  0  0  0  0  0  0  0
    4.2628    0.1574   -1.3871 C   0  0  0  0  0  0  0  0  0  0  0  0
    2.9464    0.5330   -1.2145 C   0  0  0  0  0  0  0  0  0  0  0  0
    2.2074    0.1045   -0.1069 C   0  0  0  0  0  0  0  0  0  0  0  0
    2.7679   -0.7105    0.8554 C   0  0  0  0  0  0  0  0  0  0  0  0
    4.0905   -1.0778    0.6660 C   0  0  0  0  0  0  0  0  0  0  0  0
    0.8625    0.5652   -0.0522 N   0  0  0  0  0  0  0  0  0  0  0  0
    0.5627    1.8586   -0.0249 N   0  0  0  0  0  0  0  0  0  0  0  0
   -0.7535    2.0057    0.0247 C   0  0  0  0  0  0  0  0  0  0  0  0
   -1.2934    0.7365    0.0281 C   0  0  0  0  0  0  0  0  0  0  0  0
   -0.2625   -0.1786   -0.0209 C   0  0  0  0  0  0  0  0  0  0  0  0
   -2.6461    0.5470    0.0755 C   0  0  0  0  0  0  0  0  0  0  0  0
   -3.4332    1.6616    0.1192 N   0  0  0  0  0  0  0  0  0  0  0  0
   -2.9029    2.8803    0.1156 N   0  0  0  0  0  0  0  0  0  0  0  0
   -1.5763    3.1183    0.0696 C   0  0  0  0  0  0  0  0  0  0  0  0
   -1.0021    4.4784    0.0662 C   0  0  0  0  0  0  0  0  0  0  0  0
   -3.3145   -0.7306    0.0846 C   0  0  0  0  0  0  0  0  0  0  0  0
   -3.0047   -1.7834   -0.7497 C   0  0  0  0  0  0  0  0  0  0  0  0
   -3.7120   -2.9501   -0.6437 C   0  0  0  0  0  0  0  0  0  0  0  0
   -4.7361   -3.1417    0.2642 C   0  0  0  0  0  0  0  0  0  0  0  0
   -5.0527   -2.0832    1.1078 C   0  0  0  0  0  0  0  0  0  0  0  0
   -4.3405   -0.9095    1.0006 C   0  0  0  0  0  0  0  0  0  0  0  0
   -6.4432   -2.2623    2.3811 Br  0  0  0  0  0  0  0  0  0  0  0  0
    6.8856   -0.7022    0.2831 H   0  0  0  0  0  0  0  0  0  0  0  0
    6.6864   -0.6325   -1.4702 H   0  0  0  0  0  0  0  0  0  0  0  0
    6.3679   -2.1989   -0.5335 H   0  0  0  0  0  0  0  0  0  0  0  0
    4.8624    0.4686   -2.2281 H   0  0  0  0  0  0  0  0  0  0  0  0
    2.5161    1.1716   -1.9737 H   0  0  0  0  0  0  0  0  0  0  0  0
    2.1763   -1.0269    1.6999 H   0  0  0  0  0  0  0  0  0  0  0  0
    4.5785   -1.7183    1.3945 H   0  0  0  0  0  0  0  0  0  0  0  0
   -0.3497   -1.2381   -0.0304 H   0  0  0  0  0  0  0  0  0  0  0  0
    0.0512    4.4177    0.3812 H   0  0  0  0  0  0  0  0  0  0  0  0
   -0.9968    4.8668   -0.9642 H   0  0  0  0  0  0  0  0  0  0  0  0
   -1.5002    5.1600    0.7853 H   0  0  0  0  0  0  0  0  0  0  0  0
   -2.2104   -1.6645   -1.4709 H   0  0  0  0  0  0  0  0  0  0  0  0
   -3.4799   -3.7850   -1.2919 H   0  0  0  0  0  0  0  0  0  0  0  0
   -5.2899   -4.0726    0.3384 H   0  0  0  0  0  0  0  0  0  0  0  0
   -4.6209   -0.1024    1.6821 H   0  0  0  0  0  0  0  0  0  0  0  0
  1  2  1  0
  2  3  2  0
  3  4  1  0
  4  5  2  0
  5  6  1  0
  6  7  2  0
  5  8  1  0
  8  9  1  0
  9 10  2  0
 10 11  1  0
 11 12  2  0
 11 13  1  0
 13 14  2  0
 14 15  1  0
 15 16  2  0
 16 17  1  0
 13 18  1  0
 18 19  2  0
 19 20  1  0
 20 21  2  0
 21 22  1  0
 22 23  2  0
 22 24  1  0
  7  2  1  0
 12  8  1  0
 23 18  1  0
 16 10  1  0
  1 25  1  0
  1 26  1  0
  1 27  1  0
  3 28  1  0
  4 29  1  0
  6 30  1  0
  7 31  1  0
 12 32  1  0
 17 33  1  0
 17 34  1  0
 17 35  1  0
 19 36  1  0
 20 37  1  0
 21 38  1  0
 23 39  1  0
M  END
>  <Ligand ID>  (1) 
LIG0003826

>  <Ligand>  (1) 
MLS000324601

>  <SMILES>  (1) 
Cc1ccc(cc1)n1nc2c(c1)c(nnc2C)c1cccc(c1)Br

>  <CID>  (1) 
1214670.0

>  <ChEMBL ID>  (1) 
nan

>  <InChiKey>  (1) 
NUKHSIDVEMUYCP-UHFFFAOYSA-N

>  <InChi>  (1) 
InChI=1S/C19H15BrN4/c1-12-6-8-16(9-7-12)24-11-17-18(23-24)13(2)21-22-19(17)14-4-3-5-15(20)10-14/h3-11H,1-2H3

>  <IUPAC Name>  (1) 
4-(3-bromophenyl)-7-methyl-2-(4-methylphenyl)pyrazolo[3,4-d]pyridazine

$$$$
