
     RDKit          3D

 51 52  0  0  0  0  0  0  0  0999 V2000
    7.0898    1.9271   -0.5016 C   0  0  0  0  0  0  0  0  0  0  0  0
    7.2111    0.6062    0.2350 C   0  0  0  0  0  0  0  0  0  0  0  0
    6.0066   -0.0994    0.3275 O   0  0  0  0  0  0  0  0  0  0  0  0
    4.8493    0.3370    0.9365 C   0  0  0  0  0  0  0  0  0  0  0  0
    4.8211    1.4713    1.4765 O   0  0  0  0  0  0  0  0  0  0  0  0
    3.7014   -0.5005    0.9461 N   0  0  0  0  0  0  0  0  0  0  0  0
    2.4476   -0.1408    1.5577 C   0  0  0  0  0  0  0  0  0  0  0  0
    1.4369   -1.2023    1.1412 C   0  0  0  0  0  0  0  0  0  0  0  0
    1.4045   -1.2181   -0.3661 C   0  0  0  0  0  0  0  0  0  0  0  0
    2.7250   -1.8701   -0.8077 C   0  0  0  0  0  0  0  0  0  0  0  0
    3.7645   -1.8122    0.2997 C   0  0  0  0  0  0  0  0  0  0  0  0
    0.3660   -2.0113   -0.9313 N   0  0  0  0  0  0  0  0  0  0  0  0
   -0.9710   -1.6591   -0.6106 C   0  0  0  0  0  0  0  0  0  0  0  0
   -1.4678   -0.3665   -1.1633 C   0  0  0  0  0  0  0  0  0  0  0  0
   -2.8549   -0.2104   -0.7236 N   0  0  0  0  0  0  0  0  0  0  0  0
   -3.6429    0.9222   -1.0723 C   0  0  0  0  0  0  0  0  0  0  0  0
   -3.0925    1.8045   -1.7859 O   0  0  0  0  0  0  0  0  0  0  0  0
   -5.0226    1.0876   -0.6441 C   0  0  0  0  0  0  0  0  0  0  0  0
   -5.9380    1.4142   -1.6503 C   0  0  0  0  0  0  0  0  0  0  0  0
   -7.2661    1.5815   -1.3114 C   0  0  0  0  0  0  0  0  0  0  0  0
   -7.6911    1.4326   -0.0184 C   0  0  0  0  0  0  0  0  0  0  0  0
   -6.7794    1.1101    0.9674 C   0  0  0  0  0  0  0  0  0  0  0  0
   -5.4435    0.9368    0.6595 C   0  0  0  0  0  0  0  0  0  0  0  0
   -4.4729    0.5945    1.7052 C   0  0  0  0  0  0  0  0  0  0  0  0
    7.4772    1.8335   -1.5587 H   0  0  0  0  0  0  0  0  0  0  0  0
    5.9875    2.1050   -0.6346 H   0  0  0  0  0  0  0  0  0  0  0  0
    7.5336    2.7775    0.0264 H   0  0  0  0  0  0  0  0  0  0  0  0
    7.8982   -0.0360   -0.3723 H   0  0  0  0  0  0  0  0  0  0  0  0
    7.7286    0.7228    1.2080 H   0  0  0  0  0  0  0  0  0  0  0  0
    2.5457   -0.0622    2.6481 H   0  0  0  0  0  0  0  0  0  0  0  0
    2.1017    0.8041    1.0994 H   0  0  0  0  0  0  0  0  0  0  0  0
    1.7292   -2.2201    1.4777 H   0  0  0  0  0  0  0  0  0  0  0  0
    0.4518   -1.0002    1.6056 H   0  0  0  0  0  0  0  0  0  0  0  0
    1.4218   -0.1795   -0.7860 H   0  0  0  0  0  0  0  0  0  0  0  0
    2.5656   -2.9621   -0.9990 H   0  0  0  0  0  0  0  0  0  0  0  0
    3.1109   -1.4331   -1.7303 H   0  0  0  0  0  0  0  0  0  0  0  0
    3.6714   -2.6478    1.0206 H   0  0  0  0  0  0  0  0  0  0  0  0
    4.7525   -1.9363   -0.2074 H   0  0  0  0  0  0  0  0  0  0  0  0
    0.5389   -2.4118   -1.8611 H   0  0  0  0  0  0  0  0  0  0  0  0
   -1.6477   -2.4626   -1.0033 H   0  0  0  0  0  0  0  0  0  0  0  0
   -1.1264   -1.6539    0.4964 H   0  0  0  0  0  0  0  0  0  0  0  0
   -1.4252   -0.3585   -2.2534 H   0  0  0  0  0  0  0  0  0  0  0  0
   -0.9070    0.4918   -0.7296 H   0  0  0  0  0  0  0  0  0  0  0  0
   -3.3329   -0.9356   -0.1269 H   0  0  0  0  0  0  0  0  0  0  0  0
   -5.6270    1.5349   -2.6826 H   0  0  0  0  0  0  0  0  0  0  0  0
   -7.9497    1.8332   -2.1085 H   0  0  0  0  0  0  0  0  0  0  0  0
   -8.7412    1.5767    0.1834 H   0  0  0  0  0  0  0  0  0  0  0  0
   -7.1668    0.9999    1.9804 H   0  0  0  0  0  0  0  0  0  0  0  0
   -4.5477   -0.5090    1.8937 H   0  0  0  0  0  0  0  0  0  0  0  0
   -4.7875    1.1316    2.6464 H   0  0  0  0  0  0  0  0  0  0  0  0
   -3.4362    0.8626    1.4810 H   0  0  0  0  0  0  0  0  0  0  0  0
  1  2  1  0
  2  3  1  0
  3  4  1  0
  4  5  2  0
  4  6  1  0
  6  7  1  0
  7  8  1  0
  8  9  1  0
  9 10  1  0
 10 11  1  0
  9 12  1  0
 12 13  1  0
 13 14  1  0
 14 15  1  0
 15 16  1  0
 16 17  2  0
 16 18  1  0
 18 19  2  0
 19 20  1  0
 20 21  2  0
 21 22  1  0
 22 23  2  0
 23 24  1  0
 11  6  1  0
 23 18  1  0
  1 25  1  0
  1 26  1  0
  1 27  1  0
  2 28  1  0
  2 29  1  0
  7 30  1  0
  7 31  1  0
  8 32  1  0
  8 33  1  0
  9 34  1  0
 10 35  1  0
 10 36  1  0
 11 37  1  0
 11 38  1  0
 12 39  1  0
 13 40  1  0
 13 41  1  0
 14 42  1  0
 14 43  1  0
 15 44  1  0
 19 45  1  0
 20 46  1  0
 21 47  1  0
 22 48  1  0
 24 49  1  0
 24 50  1  0
 24 51  1  0
M  END
>  <Ligand ID>  (1) 
LIG0000595

>  <Ligand>  (1) 
CHEMBL1624037

>  <SMILES>  (1) 
CCOC(=O)N1CCC(CC1)NCCNC(=O)c1ccccc1C

>  <CID>  (1) 
25010776.0

>  <ChEMBL ID>  (1) 
nan

>  <InChiKey>  (1) 
ZBSSIYGXZQZYDM-UHFFFAOYSA-N

>  <InChi>  (1) 
InChI=1S/C18H27N3O3/c1-3-24-18(23)21-12-8-15(9-13-21)19-10-11-20-17(22)16-7-5-4-6-14(16)2/h4-7,15,19H,3,8-13H2,1-2H3,(H,20,22)

>  <IUPAC Name>  (1) 
ethyl 4-[2-[(2-methylbenzoyl)amino]ethylamino]piperidine-1-carboxylate

$$$$
