
     RDKit          3D

 77 79  0  0  0  0  0  0  0  0999 V2000
   10.8883    0.9929   -0.9526 C   0  0  0  0  0  0  0  0  0  0  0  0
   10.0744    1.1433    0.3093 C   0  0  0  0  0  0  0  0  0  0  0  0
    8.7830    0.3620    0.2097 C   0  0  0  0  0  0  0  0  0  0  0  0
    8.0006    0.9044   -0.9684 C   0  0  0  0  0  0  0  0  0  0  0  0
    6.6986    0.1869   -1.1476 C   0  0  0  0  0  0  0  0  0  0  0  0
    5.7957    0.3017    0.0536 C   0  0  0  0  0  0  0  0  0  0  0  0
    5.4443    1.7264    0.3727 C   0  0  0  0  0  0  0  0  0  0  0  0
    4.5298    1.7954    1.5901 C   0  0  0  0  0  0  0  0  0  0  0  0
    3.3255    1.0557    1.2818 N   0  0  0  0  0  0  0  0  0  0  0  0
    2.3248    0.9901    2.2807 C   0  0  0  0  0  0  0  0  0  0  0  0
    2.4102    1.5270    3.4085 O   0  0  0  0  0  0  0  0  0  0  0  0
    1.1056    0.2398    1.9661 C   0  0  0  0  0  0  0  0  0  0  0  0
    0.0319    0.0987    2.8177 C   0  0  0  0  0  0  0  0  0  0  0  0
   -0.8521   -0.6203    2.2119 O   0  0  0  0  0  0  0  0  0  0  0  0
   -0.4580   -0.9720    1.0247 C   0  0  0  0  0  0  0  0  0  0  0  0
    0.7847   -0.4333    0.8527 N   0  0  0  0  0  0  0  0  0  0  0  0
   -1.1337   -1.7929   -0.0278 C   0  0  2  0  0  0  0  0  0  0  0  0
   -0.4120   -1.6485   -1.3478 C   0  0  0  0  0  0  0  0  0  0  0  0
   -1.5557   -2.0147   -2.3040 C   0  0  0  0  0  0  0  0  0  0  0  0
   -2.7710   -1.3909   -1.5966 C   0  0  0  0  0  0  0  0  0  0  0  0
   -2.4521   -1.4270   -0.2607 N   0  0  0  0  0  0  0  0  0  0  0  0
   -3.4005   -1.3971    0.7718 C   0  0  0  0  0  0  0  0  0  0  0  0
   -4.4910   -2.3719    0.7354 C   0  0  0  0  0  0  0  0  0  0  0  0
   -4.2850   -3.5846    1.4046 C   0  0  0  0  0  0  0  0  0  0  0  0
   -5.1909   -4.6109    1.3895 C   0  0  0  0  0  0  0  0  0  0  0  0
   -4.9909   -5.7841    2.0371 F   0  0  0  0  0  0  0  0  0  0  0  0
   -6.3648   -4.4615    0.6888 C   0  0  0  0  0  0  0  0  0  0  0  0
   -6.5874   -3.2800    0.0268 C   0  0  0  0  0  0  0  0  0  0  0  0
   -5.6687   -2.2209    0.0353 C   0  0  0  0  0  0  0  0  0  0  0  0
   -6.0698   -0.9942   -0.6443 C   0  0  0  0  0  0  0  0  0  0  0  0
   -6.6655   -0.0462    0.4127 C   0  0  0  0  0  0  0  0  0  0  0  0
   -7.0816    1.2237   -0.2265 C   0  0  0  0  0  0  0  0  0  0  0  0
   -6.9259    1.4066   -1.4643 O   0  0  0  0  0  0  0  0  0  0  0  0
   -7.6636    2.2611    0.5393 N   0  0  0  0  0  0  0  0  0  0  0  0
   -8.1298    3.7233   -0.2586 S   0  0  0  0  0  0  0  0  0  0  0  0
   -8.5982    3.4578   -1.6627 O   0  0  0  0  0  0  0  0  0  0  0  0
   -9.2585    4.3486    0.5046 O   0  0  0  0  0  0  0  0  0  0  0  0
   -6.7731    4.8941   -0.2585 C   0  0  0  0  0  0  0  0  0  0  0  0
   -7.1719    6.0335   -0.8930 F   0  0  0  0  0  0  0  0  0  0  0  0
   -5.6765    4.2992   -0.8374 F   0  0  0  0  0  0  0  0  0  0  0  0
   -6.4866    5.1185    1.0933 F   0  0  0  0  0  0  0  0  0  0  0  0
   10.8733   -0.0459   -1.2871 H   0  0  0  0  0  0  0  0  0  0  0  0
   10.4399    1.6976   -1.7105 H   0  0  0  0  0  0  0  0  0  0  0  0
   11.9352    1.3392   -0.7356 H   0  0  0  0  0  0  0  0  0  0  0  0
   10.6493    0.8390    1.2108 H   0  0  0  0  0  0  0  0  0  0  0  0
    9.8112    2.2188    0.3905 H   0  0  0  0  0  0  0  0  0  0  0  0
    8.2282    0.4412    1.1457 H   0  0  0  0  0  0  0  0  0  0  0  0
    9.0514   -0.7091    0.0469 H   0  0  0  0  0  0  0  0  0  0  0  0
    7.8207    1.9907   -0.7713 H   0  0  0  0  0  0  0  0  0  0  0  0
    8.5876    0.8695   -1.8969 H   0  0  0  0  0  0  0  0  0  0  0  0
    6.8780   -0.8726   -1.3493 H   0  0  0  0  0  0  0  0  0  0  0  0
    6.1727    0.6599   -2.0193 H   0  0  0  0  0  0  0  0  0  0  0  0
    6.3015   -0.1806    0.9319 H   0  0  0  0  0  0  0  0  0  0  0  0
    4.9120   -0.3183   -0.1428 H   0  0  0  0  0  0  0  0  0  0  0  0
    6.3080    2.3655    0.5475 H   0  0  0  0  0  0  0  0  0  0  0  0
    4.9164    2.1252   -0.5249 H   0  0  0  0  0  0  0  0  0  0  0  0
    4.2233    2.8159    1.8186 H   0  0  0  0  0  0  0  0  0  0  0  0
    5.0671    1.3760    2.4622 H   0  0  0  0  0  0  0  0  0  0  0  0
    3.1636    0.5770    0.3689 H   0  0  0  0  0  0  0  0  0  0  0  0
   -0.0669    0.5175    3.8322 H   0  0  0  0  0  0  0  0  0  0  0  0
   -0.9854   -2.8724    0.2559 H   0  0  0  0  0  0  0  0  0  0  0  0
    0.4588   -2.2994   -1.4610 H   0  0  0  0  0  0  0  0  0  0  0  0
   -0.1829   -0.5539   -1.4672 H   0  0  0  0  0  0  0  0  0  0  0  0
   -1.3723   -1.5837   -3.2896 H   0  0  0  0  0  0  0  0  0  0  0  0
   -1.6003   -3.1155   -2.3193 H   0  0  0  0  0  0  0  0  0  0  0  0
   -3.6379   -2.0008   -1.9339 H   0  0  0  0  0  0  0  0  0  0  0  0
   -2.9437   -0.3747   -2.0237 H   0  0  0  0  0  0  0  0  0  0  0  0
   -3.7265   -0.3334    0.8919 H   0  0  0  0  0  0  0  0  0  0  0  0
   -2.8514   -1.5901    1.7433 H   0  0  0  0  0  0  0  0  0  0  0  0
   -3.3727   -3.7370    1.9659 H   0  0  0  0  0  0  0  0  0  0  0  0
   -7.0909   -5.2625    0.6656 H   0  0  0  0  0  0  0  0  0  0  0  0
   -7.5218   -3.1897   -0.5178 H   0  0  0  0  0  0  0  0  0  0  0  0
   -5.3039   -0.4036   -1.1340 H   0  0  0  0  0  0  0  0  0  0  0  0
   -6.8704   -1.2481   -1.3895 H   0  0  0  0  0  0  0  0  0  0  0  0
   -7.5585   -0.5126    0.8799 H   0  0  0  0  0  0  0  0  0  0  0  0
   -5.9768    0.1716    1.2348 H   0  0  0  0  0  0  0  0  0  0  0  0
   -7.8185    2.1599    1.5852 H   0  0  0  0  0  0  0  0  0  0  0  0
  1  2  1  0
  2  3  1  0
  3  4  1  0
  4  5  1  0
  5  6  1  0
  6  7  1  0
  7  8  1  0
  8  9  1  0
  9 10  1  0
 10 11  2  0
 10 12  1  0
 12 13  2  0
 13 14  1  0
 14 15  1  0
 15 16  2  0
 15 17  1  0
 17 18  1  0
 18 19  1  0
 19 20  1  0
 20 21  1  0
 21 22  1  0
 22 23  1  0
 23 24  2  0
 24 25  1  0
 25 26  1  0
 25 27  2  0
 27 28  1  0
 28 29  2  0
 29 30  1  0
 30 31  1  0
 31 32  1  0
 32 33  2  0
 32 34  1  0
 34 35  1  0
 35 36  2  0
 35 37  2  0
 35 38  1  0
 38 39  1  0
 38 40  1  0
 38 41  1  0
 16 12  1  0
 21 17  1  0
 29 23  1  0
  1 42  1  0
  1 43  1  0
  1 44  1  0
  2 45  1  0
  2 46  1  0
  3 47  1  0
  3 48  1  0
  4 49  1  0
  4 50  1  0
  5 51  1  0
  5 52  1  0
  6 53  1  0
  6 54  1  0
  7 55  1  0
  7 56  1  0
  8 57  1  0
  8 58  1  0
  9 59  1  0
 13 60  1  0
 17 61  1  1
 18 62  1  0
 18 63  1  0
 19 64  1  0
 19 65  1  0
 20 66  1  0
 20 67  1  0
 22 68  1  0
 22 69  1  0
 24 70  1  0
 27 71  1  0
 28 72  1  0
 30 73  1  0
 30 74  1  0
 31 75  1  0
 31 76  1  0
 34 77  1  0
M  END
>  <Ligand ID>  (1) 
LIG0000515

>  <Ligand>  (1) 
CHEMBL3896035

>  <SMILES>  (1) 
CCCCCCCCNC(=O)c1coc(n1)[C@@H]1CCCN1Cc1cc(F)ccc1CCC(=O)NS(=O)(=O)C(F)(F)F

>  <CID>  (1) 
56839536.0

>  <ChEMBL ID>  (1) 
nan

>  <InChiKey>  (1) 
BFFVYRGBDKURRE-QHCPKHFHSA-N

>  <InChi>  (1) 
InChI=1S/C27H36F4N4O5S/c1-2-3-4-5-6-7-14-32-25(37)22-18-40-26(33-22)23-9-8-15-35(23)17-20-16-21(28)12-10-19(20)11-13-24(36)34-41(38,39)27(29,30)31/h10,12,16,18,23H,2-9,11,13-15,17H2,1H3,(H,32,37)(H,34,36)/t23-/m0/s1

>  <IUPAC Name>  (1) 
2-[(2S)-1-[[5-fluoro-2-[3-oxo-3-(trifluoromethylsulfonylamino)propyl]phenyl]methyl]pyrrolidin-2-yl]-N-octyl-1,3-oxazole-4-carboxamide

$$$$
