
     RDKit          3D

 96 99  0  0  0  0  0  0  0  0999 V2000
    1.1779    4.0961   -4.5169 N   0  0  0  0  0  0  0  0  0  0  0  0
    2.4856    4.5379   -4.1766 C   0  0  0  0  0  0  0  0  0  0  0  0
    3.4568    3.6820   -4.1586 N   0  0  0  0  0  0  0  0  0  0  0  0
    3.1316    2.2966   -4.4966 C   0  0  0  0  0  0  0  0  0  0  0  0
    2.6266    1.5956   -3.2345 C   0  0  0  0  0  0  0  0  0  0  0  0
    2.2559    0.1653   -3.4572 C   0  0  0  0  0  0  0  0  0  0  0  0
    1.7371   -0.5215   -2.2498 C   0  0  1  0  0  0  0  0  0  0  0  0
    2.6918   -0.5743   -1.1002 C   0  0  0  0  0  0  0  0  0  0  0  0
    3.5650   -1.4835   -1.1630 O   0  0  0  0  0  0  0  0  0  0  0  0
    2.5672    0.3553   -0.0472 N   0  0  0  0  0  0  0  0  0  0  0  0
    3.3439    0.4150    1.1487 C   0  0  2  0  0  0  0  0  0  0  0  0
    3.5436    1.7098    1.7691 C   0  0  0  0  0  0  0  0  0  0  0  0
    4.2297    1.7702    2.8361 O   0  0  0  0  0  0  0  0  0  0  0  0
    2.9818    2.9216    1.1977 N   0  0  0  0  0  0  0  0  0  0  0  0
    4.6422   -0.4162    1.0207 C   0  0  0  0  0  0  0  0  0  0  0  0
    5.4210   -0.3185    2.2981 C   0  0  0  0  0  0  0  0  0  0  0  0
    6.5608    0.4257    2.5475 C   0  0  0  0  0  0  0  0  0  0  0  0
    6.8881    0.2105    3.8370 N   0  0  0  0  0  0  0  0  0  0  0  0
    6.0029   -0.6407    4.4134 C   0  0  0  0  0  0  0  0  0  0  0  0
    5.0706   -0.9792    3.4406 C   0  0  0  0  0  0  0  0  0  0  0  0
    4.0715   -1.8480    3.8454 C   0  0  0  0  0  0  0  0  0  0  0  0
    3.9593   -2.3706    5.1090 C   0  0  0  0  0  0  0  0  0  0  0  0
    4.9064   -2.0067    6.0399 C   0  0  0  0  0  0  0  0  0  0  0  0
    5.9149   -1.1506    5.6893 C   0  0  0  0  0  0  0  0  0  0  0  0
    0.5201    0.1733   -1.8265 N   0  0  0  0  0  0  0  0  0  0  0  0
   -0.4982   -0.6677   -1.3215 C   0  0  0  0  0  0  0  0  0  0  0  0
   -0.2310   -1.9259   -1.2858 O   0  0  0  0  0  0  0  0  0  0  0  0
   -1.8257   -0.2955   -0.8226 C   0  0  2  0  0  0  0  0  0  0  0  0
   -2.3766   -1.4428   -0.0552 N   0  0  0  0  0  0  0  0  0  0  0  0
   -2.8348   -1.1595    1.2577 C   0  0  0  0  0  0  0  0  0  0  0  0
   -2.8265   -0.0316    1.7949 O   0  0  0  0  0  0  0  0  0  0  0  0
   -3.3882   -2.2766    2.1352 C   0  0  2  0  0  0  0  0  0  0  0  0
   -4.4460   -3.0442    1.4687 C   0  0  0  0  0  0  0  0  0  0  0  0
   -4.9387   -4.1300    2.3329 C   0  0  0  0  0  0  0  0  0  0  0  0
   -5.9497   -4.9584    1.9263 N   0  0  0  0  0  0  0  0  0  0  0  0
   -6.1786   -5.8548    2.9010 C   0  0  0  0  0  0  0  0  0  0  0  0
   -5.3456   -5.6360    3.9314 N   0  0  0  0  0  0  0  0  0  0  0  0
   -4.5744   -4.5639    3.5785 C   0  0  0  0  0  0  0  0  0  0  0  0
   -3.8903   -1.5600    3.2960 N   0  0  0  0  0  0  0  0  0  0  0  0
   -3.2318   -1.4367    4.5334 C   0  0  0  0  0  0  0  0  0  0  0  0
   -2.0961   -1.9470    4.7911 O   0  0  0  0  0  0  0  0  0  0  0  0
   -3.8597   -0.6744    5.6455 C   0  0  0  0  0  0  0  0  0  0  0  0
   -2.7941    0.0904   -1.9007 C   0  0  0  0  0  0  0  0  0  0  0  0
   -2.3667    1.2566   -2.7395 C   0  0  0  0  0  0  0  0  0  0  0  0
   -3.4182    1.5890   -3.7835 C   0  0  0  0  0  0  0  0  0  0  0  0
   -4.4556    2.4628   -3.4796 C   0  0  0  0  0  0  0  0  0  0  0  0
   -5.3719    2.7402   -4.4713 C   0  0  0  0  0  0  0  0  0  0  0  0
   -5.2700    2.1747   -5.7162 C   0  0  0  0  0  0  0  0  0  0  0  0
   -4.2292    1.2859   -6.0523 C   0  0  0  0  0  0  0  0  0  0  0  0
   -3.3395    1.0342   -5.0493 C   0  0  0  0  0  0  0  0  0  0  0  0
    2.6489    5.9132   -3.8670 N   0  0  0  0  0  0  0  0  0  0  0  0
    0.4573    3.9796   -3.7534 H   0  0  0  0  0  0  0  0  0  0  0  0
    0.8562    3.8718   -5.4751 H   0  0  0  0  0  0  0  0  0  0  0  0
    2.3059    2.3506   -5.2590 H   0  0  0  0  0  0  0  0  0  0  0  0
    4.0283    1.8244   -4.8927 H   0  0  0  0  0  0  0  0  0  0  0  0
    3.5298    1.5720   -2.5535 H   0  0  0  0  0  0  0  0  0  0  0  0
    1.8095    2.1891   -2.8017 H   0  0  0  0  0  0  0  0  0  0  0  0
    3.1010   -0.4367   -3.8663 H   0  0  0  0  0  0  0  0  0  0  0  0
    1.4601    0.1391   -4.2513 H   0  0  0  0  0  0  0  0  0  0  0  0
    1.5038   -1.5753   -2.4742 H   0  0  0  0  0  0  0  0  0  0  0  0
    1.8125    1.1002   -0.1578 H   0  0  0  0  0  0  0  0  0  0  0  0
    2.7694   -0.2603    1.8828 H   0  0  0  0  0  0  0  0  0  0  0  0
    3.3576    3.3327    0.3164 H   0  0  0  0  0  0  0  0  0  0  0  0
    2.1850    3.4164    1.6513 H   0  0  0  0  0  0  0  0  0  0  0  0
    5.2654   -0.1390    0.1890 H   0  0  0  0  0  0  0  0  0  0  0  0
    4.3636   -1.4886    0.9431 H   0  0  0  0  0  0  0  0  0  0  0  0
    7.1021    1.0531    1.8815 H   0  0  0  0  0  0  0  0  0  0  0  0
    7.6979    0.6285    4.3536 H   0  0  0  0  0  0  0  0  0  0  0  0
    3.3018   -2.1723    3.1325 H   0  0  0  0  0  0  0  0  0  0  0  0
    3.1533   -3.0563    5.3941 H   0  0  0  0  0  0  0  0  0  0  0  0
    4.8016   -2.4247    7.0303 H   0  0  0  0  0  0  0  0  0  0  0  0
    6.6595   -0.8715    6.4377 H   0  0  0  0  0  0  0  0  0  0  0  0
    0.3713    1.1884   -1.8562 H   0  0  0  0  0  0  0  0  0  0  0  0
   -1.7573    0.5271   -0.1013 H   0  0  0  0  0  0  0  0  0  0  0  0
   -2.4073   -2.4008   -0.4872 H   0  0  0  0  0  0  0  0  0  0  0  0
   -2.5223   -2.9076    2.3821 H   0  0  0  0  0  0  0  0  0  0  0  0
   -4.0774   -3.5412    0.5393 H   0  0  0  0  0  0  0  0  0  0  0  0
   -5.3006   -2.3600    1.2357 H   0  0  0  0  0  0  0  0  0  0  0  0
   -6.4576   -4.9014    1.0186 H   0  0  0  0  0  0  0  0  0  0  0  0
   -6.9184   -6.6586    2.9080 H   0  0  0  0  0  0  0  0  0  0  0  0
   -3.8046   -4.1605    4.2121 H   0  0  0  0  0  0  0  0  0  0  0  0
   -4.8180   -1.1032    3.1800 H   0  0  0  0  0  0  0  0  0  0  0  0
   -4.9001   -0.3728    5.3935 H   0  0  0  0  0  0  0  0  0  0  0  0
   -3.2935    0.2659    5.8041 H   0  0  0  0  0  0  0  0  0  0  0  0
   -3.8096   -1.2623    6.5984 H   0  0  0  0  0  0  0  0  0  0  0  0
   -3.0121   -0.8118   -2.5143 H   0  0  0  0  0  0  0  0  0  0  0  0
   -3.7881    0.3952   -1.4608 H   0  0  0  0  0  0  0  0  0  0  0  0
   -1.4121    1.0301   -3.2844 H   0  0  0  0  0  0  0  0  0  0  0  0
   -2.2089    2.1517   -2.1221 H   0  0  0  0  0  0  0  0  0  0  0  0
   -4.5737    2.9241   -2.5118 H   0  0  0  0  0  0  0  0  0  0  0  0
   -6.1868    3.4302   -4.2265 H   0  0  0  0  0  0  0  0  0  0  0  0
   -6.0040    2.4167   -6.4708 H   0  0  0  0  0  0  0  0  0  0  0  0
   -4.1912    0.8651   -7.0457 H   0  0  0  0  0  0  0  0  0  0  0  0
   -2.5231    0.3542   -5.2494 H   0  0  0  0  0  0  0  0  0  0  0  0
    3.5516    6.4339   -4.0220 H   0  0  0  0  0  0  0  0  0  0  0  0
    1.8580    6.4777   -3.4599 H   0  0  0  0  0  0  0  0  0  0  0  0
  1  2  1  0
  2  3  2  3
  3  4  1  0
  4  5  1  0
  5  6  1  0
  6  7  1  0
  7  8  1  0
  8  9  2  0
  8 10  1  0
 10 11  1  0
 11 12  1  0
 12 13  2  0
 12 14  1  0
 11 15  1  0
 15 16  1  0
 16 17  2  0
 17 18  1  0
 18 19  1  0
 19 20  2  0
 20 21  1  0
 21 22  2  0
 22 23  1  0
 23 24  2  0
  7 25  1  0
 25 26  1  0
 26 27  2  0
 26 28  1  0
 28 29  1  0
 29 30  1  0
 30 31  2  0
 30 32  1  0
 32 33  1  0
 33 34  1  0
 34 35  1  0
 35 36  1  0
 36 37  2  0
 37 38  1  0
 32 39  1  0
 39 40  1  0
 40 41  2  0
 40 42  1  0
 28 43  1  0
 43 44  1  0
 44 45  1  0
 45 46  2  0
 46 47  1  0
 47 48  2  0
 48 49  1  0
 49 50  2  0
  2 51  1  0
 20 16  1  0
 38 34  2  0
 50 45  1  0
 24 19  1  0
  1 52  1  0
  1 53  1  0
  4 54  1  0
  4 55  1  0
  5 56  1  0
  5 57  1  0
  6 58  1  0
  6 59  1  0
  7 60  1  6
 10 61  1  0
 11 62  1  1
 14 63  1  0
 14 64  1  0
 15 65  1  0
 15 66  1  0
 17 67  1  0
 18 68  1  0
 21 69  1  0
 22 70  1  0
 23 71  1  0
 24 72  1  0
 25 73  1  0
 28 74  1  1
 29 75  1  0
 32 76  1  1
 33 77  1  0
 33 78  1  0
 35 79  1  0
 36 80  1  0
 38 81  1  0
 39 82  1  0
 42 83  1  0
 42 84  1  0
 42 85  1  0
 43 86  1  0
 43 87  1  0
 44 88  1  0
 44 89  1  0
 46 90  1  0
 47 91  1  0
 48 92  1  0
 49 93  1  0
 50 94  1  0
 51 95  1  0
 51 96  1  0
M  END
>  <Ligand ID>  (1) 
LIG0001442

>  <Ligand>  (1) 
CHEMBL430843

>  <SMILES>  (1) 
NC(=NCCC[C@@H](C(=O)N[C@H](C(=O)N)Cc1c[nH]c2c1cccc2)NC(=O)[C@H](NC(=O)[C@H](Cc1[nH]cnc1)NC(=O)C)CCc1ccccc1)N

>  <CID>  (1) 
11083039.0

>  <ChEMBL ID>  (1) 
nan

>  <InChiKey>  (1) 
KFJXIWLXGNVXSU-XJYHXZFBSA-N

>  <InChi>  (1) 
InChI=1S/C35H45N11O5/c1-21(47)43-30(17-24-19-39-20-42-24)34(51)45-28(14-13-22-8-3-2-4-9-22)33(50)44-27(12-7-15-40-35(37)38)32(49)46-29(31(36)48)16-23-18-41-26-11-6-5-10-25(23)26/h2-6,8-11,18-20,27-30,41H,7,12-17H2,1H3,(H2,36,48)(H,39,42)(H,43,47)(H,44,50)(H,45,51)(H,46,49)(H4,37,38,40)/t27-,28+,29-,30-/m0/s1

>  <IUPAC Name>  (1) 
(2S)-2-[[(2R)-2-[[(2S)-2-acetamido-3-(1H-imidazol-5-yl)propanoyl]amino]-4-phenylbutanoyl]amino]-N-[(2S)-1-amino-3-(1H-indol-3-yl)-1-oxopropan-2-yl]-5-(diaminomethylideneamino)pentanamide

$$$$
