
     RDKit          3D

 98 99  0  0  0  0  0  0  0  0999 V2000
    9.1910   -1.1052    2.5793 C   0  0  0  0  0  0  0  0  0  0  0  0
    8.7157   -0.1920    1.4705 C   0  0  0  0  0  0  0  0  0  0  0  0
    7.2215   -0.3650    1.3352 C   0  0  1  0  0  0  0  0  0  0  0  0
    6.6903    0.5110    0.2559 C   0  0  0  0  0  0  0  0  0  0  0  0
    5.4833    0.0897   -0.3691 N   0  0  0  0  0  0  0  0  0  0  0  0
    5.1366   -1.2856   -0.2343 C   0  0  1  0  0  0  0  0  0  0  0  0
    5.5156   -1.9050    1.0867 C   0  0  0  0  0  0  0  0  0  0  0  0
    6.9702   -1.7682    1.1765 N   0  0  0  0  0  0  0  0  0  0  0  0
    7.6416   -2.3603    0.0436 C   0  0  0  0  0  0  0  0  0  0  0  0
    3.6752   -1.4743   -0.3988 C   0  0  0  0  0  0  0  0  0  0  0  0
    3.2512   -2.6765   -0.3036 O   0  0  0  0  0  0  0  0  0  0  0  0
    2.7764   -0.4028   -0.6480 N   0  0  0  0  0  0  0  0  0  0  0  0
    1.3369   -0.7164   -0.7954 C   0  0  1  0  0  0  0  0  0  0  0  0
    0.5564   -0.0455    0.2461 C   0  0  0  0  0  0  0  0  0  0  0  0
    1.2076    0.7845    0.9841 O   0  0  0  0  0  0  0  0  0  0  0  0
   -0.7971   -0.2020    0.5283 N   0  0  0  0  0  0  0  0  0  0  0  0
   -1.7085   -1.1168   -0.1621 C   0  0  0  0  0  0  0  0  0  0  0  0
   -2.8537   -0.3722   -0.7679 C   0  0  0  0  0  0  0  0  0  0  0  0
   -3.5960    0.4131    0.2561 C   0  0  0  0  0  0  0  0  0  0  0  0
   -2.5626    1.3456    0.9350 C   0  0  0  0  0  0  0  0  0  0  0  0
   -1.4600    0.5820    1.5916 C   0  0  0  0  0  0  0  0  0  0  0  0
   -4.6004    1.3836   -0.3543 C   0  0  0  0  0  0  0  0  0  0  0  0
   -5.5887    0.7187   -1.2561 C   0  0  0  0  0  0  0  0  0  0  0  0
   -5.7577    1.3969   -2.6005 C   0  0  0  0  0  0  0  0  0  0  0  0
   -5.8583    2.8787   -2.5407 C   0  0  0  0  0  0  0  0  0  0  0  0
   -5.1301    3.5023   -1.4030 C   0  0  0  0  0  0  0  0  0  0  0  0
   -3.9578    2.6139   -0.9501 C   0  0  0  0  0  0  0  0  0  0  0  0
   -4.1846   -0.3758    1.3352 C   0  0  0  0  0  0  0  0  0  0  0  0
   -4.0639   -0.0724    2.5788 O   0  0  0  0  0  0  0  0  0  0  0  0
   -4.9449   -1.5566    1.1001 N   0  0  0  0  0  0  0  0  0  0  0  0
   -5.4767   -2.2483    2.2700 C   0  0  0  0  0  0  0  0  0  0  0  0
   -6.4137   -1.3763    3.0777 C   0  0  0  0  0  0  0  0  0  0  0  0
   -4.3604   -2.7335    3.1702 C   0  0  0  0  0  0  0  0  0  0  0  0
   -6.2515   -3.4783    1.8475 C   0  0  0  0  0  0  0  0  0  0  0  0
    0.9844   -0.2901   -2.2105 C   0  0  0  0  0  0  0  0  0  0  0  0
    1.2319    1.1547   -2.4383 C   0  0  0  0  0  0  0  0  0  0  0  0
    2.5011    1.5122   -2.9097 C   0  0  0  0  0  0  0  0  0  0  0  0
    2.7623    2.8681   -3.1335 C   0  0  0  0  0  0  0  0  0  0  0  0
    1.8066    3.8315   -2.9004 C   0  0  0  0  0  0  0  0  0  0  0  0
    0.5799    3.4658   -2.4429 C   0  0  0  0  0  0  0  0  0  0  0  0
    0.2943    2.1377   -2.2135 C   0  0  0  0  0  0  0  0  0  0  0  0
    2.1201    5.1168   -3.1354 F   0  0  0  0  0  0  0  0  0  0  0  0
    0.6864    0.0000    0.0000 Cl  0  0  0  0  0  0  0  0  0  0  0  0
    0.6925    0.0000    0.0000 Cl  0  0  0  0  0  0  0  0  0  0  0  0
    9.3210   -0.5420    3.5362 H   0  0  0  0  0  0  0  0  0  0  0  0
   10.1593   -1.5810    2.3117 H   0  0  0  0  0  0  0  0  0  0  0  0
    8.4351   -1.8988    2.7474 H   0  0  0  0  0  0  0  0  0  0  0  0
    8.9870    0.8509    1.7522 H   0  0  0  0  0  0  0  0  0  0  0  0
    9.2363   -0.5239    0.5322 H   0  0  0  0  0  0  0  0  0  0  0  0
    6.7776   -0.0659    2.3075 H   0  0  0  0  0  0  0  0  0  0  0  0
    7.5073    0.7506   -0.4732 H   0  0  0  0  0  0  0  0  0  0  0  0
    6.4679    1.5128    0.7281 H   0  0  0  0  0  0  0  0  0  0  0  0
    5.5933    0.2677   -1.4136 H   0  0  0  0  0  0  0  0  0  0  0  0
    5.6516   -1.8698   -1.0432 H   0  0  0  0  0  0  0  0  0  0  0  0
    5.1016   -1.3166    1.9164 H   0  0  0  0  0  0  0  0  0  0  0  0
    5.1835   -2.9522    1.0804 H   0  0  0  0  0  0  0  0  0  0  0  0
    8.6262   -2.8148    0.3432 H   0  0  0  0  0  0  0  0  0  0  0  0
    7.8651   -1.6021   -0.7140 H   0  0  0  0  0  0  0  0  0  0  0  0
    7.0608   -3.1949   -0.3980 H   0  0  0  0  0  0  0  0  0  0  0  0
    3.1294    0.5745   -0.7217 H   0  0  0  0  0  0  0  0  0  0  0  0
    1.2542   -1.8071   -0.6704 H   0  0  0  0  0  0  0  0  0  0  0  0
   -2.0678   -1.7970    0.6717 H   0  0  0  0  0  0  0  0  0  0  0  0
   -1.1708   -1.7565   -0.8442 H   0  0  0  0  0  0  0  0  0  0  0  0
   -2.4585    0.2847   -1.5473 H   0  0  0  0  0  0  0  0  0  0  0  0
   -3.4859   -1.1224   -1.2863 H   0  0  0  0  0  0  0  0  0  0  0  0
   -3.0762    1.9994    1.6455 H   0  0  0  0  0  0  0  0  0  0  0  0
   -2.0507    1.9364    0.1098 H   0  0  0  0  0  0  0  0  0  0  0  0
   -1.8449   -0.1402    2.2976 H   0  0  0  0  0  0  0  0  0  0  0  0
   -0.7406    1.3063    2.0285 H   0  0  0  0  0  0  0  0  0  0  0  0
   -5.2395    1.8173    0.4915 H   0  0  0  0  0  0  0  0  0  0  0  0
   -6.6242    0.6385   -0.8226 H   0  0  0  0  0  0  0  0  0  0  0  0
   -5.3288   -0.3363   -1.5056 H   0  0  0  0  0  0  0  0  0  0  0  0
   -6.7005    0.9996   -3.0456 H   0  0  0  0  0  0  0  0  0  0  0  0
   -4.9486    1.0396   -3.2691 H   0  0  0  0  0  0  0  0  0  0  0  0
   -6.9006    3.2685   -2.5168 H   0  0  0  0  0  0  0  0  0  0  0  0
   -5.3957    3.2839   -3.4863 H   0  0  0  0  0  0  0  0  0  0  0  0
   -5.7787    3.5562   -0.4801 H   0  0  0  0  0  0  0  0  0  0  0  0
   -4.7595    4.5171   -1.6363 H   0  0  0  0  0  0  0  0  0  0  0  0
   -3.5439    3.2101   -0.0766 H   0  0  0  0  0  0  0  0  0  0  0  0
   -3.2330    2.4256   -1.7368 H   0  0  0  0  0  0  0  0  0  0  0  0
   -5.1370   -1.9539    0.1624 H   0  0  0  0  0  0  0  0  0  0  0  0
   -7.4732   -1.7616    3.0320 H   0  0  0  0  0  0  0  0  0  0  0  0
   -6.1381   -1.4181    4.1498 H   0  0  0  0  0  0  0  0  0  0  0  0
   -6.4318   -0.3259    2.6913 H   0  0  0  0  0  0  0  0  0  0  0  0
   -4.7668   -3.5834    3.7547 H   0  0  0  0  0  0  0  0  0  0  0  0
   -3.5410   -3.1252    2.5496 H   0  0  0  0  0  0  0  0  0  0  0  0
   -4.0221   -1.9952    3.9097 H   0  0  0  0  0  0  0  0  0  0  0  0
   -6.8321   -3.3110    0.9186 H   0  0  0  0  0  0  0  0  0  0  0  0
   -5.5865   -4.3489    1.6759 H   0  0  0  0  0  0  0  0  0  0  0  0
   -6.9337   -3.7172    2.7031 H   0  0  0  0  0  0  0  0  0  0  0  0
   -0.0282   -0.5963   -2.5087 H   0  0  0  0  0  0  0  0  0  0  0  0
    1.6773   -0.9039   -2.8600 H   0  0  0  0  0  0  0  0  0  0  0  0
    3.2691    0.7729   -3.1018 H   0  0  0  0  0  0  0  0  0  0  0  0
    3.7452    3.0957   -3.4934 H   0  0  0  0  0  0  0  0  0  0  0  0
   -0.2095    4.2027   -2.2444 H   0  0  0  0  0  0  0  0  0  0  0  0
   -0.6837    1.8635   -1.8513 H   0  0  0  0  0  0  0  0  0  0  0  0
   -0.6864    0.0000    0.0000 H   0  0  0  0  0  0  0  0  0  0  0  0
   -0.6925    0.0000    0.0000 H   0  0  0  0  0  0  0  0  0  0  0  0
  1  2  1  0
  2  3  1  0
  3  4  1  0
  4  5  1  0
  5  6  1  0
  6  7  1  0
  7  8  1  0
  8  9  1  0
  6 10  1  0
 10 11  2  0
 10 12  1  0
 12 13  1  0
 13 14  1  0
 14 15  2  0
 14 16  1  0
 16 17  1  0
 17 18  1  0
 18 19  1  0
 19 20  1  0
 20 21  1  0
 19 22  1  0
 22 23  1  0
 23 24  1  0
 24 25  1  0
 25 26  1  0
 26 27  1  0
 19 28  1  0
 28 29  2  0
 28 30  1  0
 30 31  1  0
 31 32  1  0
 31 33  1  0
 31 34  1  0
 13 35  1  0
 35 36  1  0
 36 37  2  0
 37 38  1  0
 38 39  2  0
 39 40  1  0
 40 41  2  0
 39 42  1  0
  8  3  1  0
 21 16  1  0
 27 22  1  0
 41 36  1  0
  1 45  1  0
  1 46  1  0
  1 47  1  0
  2 48  1  0
  2 49  1  0
  3 50  1  1
  4 51  1  0
  4 52  1  0
  5 53  1  0
  6 54  1  6
  7 55  1  0
  7 56  1  0
  9 57  1  0
  9 58  1  0
  9 59  1  0
 12 60  1  0
 13 61  1  6
 17 62  1  0
 17 63  1  0
 18 64  1  0
 18 65  1  0
 20 66  1  0
 20 67  1  0
 21 68  1  0
 21 69  1  0
 22 70  1  0
 23 71  1  0
 23 72  1  0
 24 73  1  0
 24 74  1  0
 25 75  1  0
 25 76  1  0
 26 77  1  0
 26 78  1  0
 27 79  1  0
 27 80  1  0
 30 81  1  0
 32 82  1  0
 32 83  1  0
 32 84  1  0
 33 85  1  0
 33 86  1  0
 33 87  1  0
 34 88  1  0
 34 89  1  0
 34 90  1  0
 35 91  1  0
 35 92  1  0
 37 93  1  0
 38 94  1  0
 40 95  1  0
 41 96  1  0
 43 97  1  0
 44 98  1  0
M  END
>  <Ligand ID>  (1) 
LIG0003545

>  <Ligand>  (1) 
CHEMBL538567

>  <SMILES>  (1) 
CC[C@H]1CN[C@@H](CN1C)C(=O)N[C@@H](C(=O)N1CCC(CC1)(C1CCCCC1)C(=O)NC(C)(C)C)Cc1ccc(cc1)F.Cl.Cl

>  <CID>  (1) 
45265696.0

>  <ChEMBL ID>  (1) 
nan

>  <InChiKey>  (1) 
JGGCXGAPTAQBEJ-WUBJFWIESA-N

>  <InChi>  (1) 
InChI=1S/C33H52FN5O3.2ClH/c1-6-26-21-35-28(22-38(26)5)29(40)36-27(20-23-12-14-25(34)15-13-23)30(41)39-18-16-33(17-19-39,24-10-8-7-9-11-24)31(42)37-32(2,3)4;;/h12-15,24,26-28,35H,6-11,16-22H2,1-5H3,(H,36,40)(H,37,42);2*1H/t26-,27+,28-;;/m0../s1

>  <IUPAC Name>  (1) 
(2S,5S)-N-[(2R)-1-[4-(tert-butylcarbamoyl)-4-cyclohexylpiperidin-1-yl]-3-(4-fluorophenyl)-1-oxopropan-2-yl]-5-ethyl-4-methylpiperazine-2-carboxamide;dihydrochloride

$$$$
