
     RDKit          3D

 36 38  0  0  0  0  0  0  0  0999 V2000
    5.0228    2.7120    0.2006 C   0  0  0  0  0  0  0  0  0  0  0  0
    3.8330    1.8388   -0.0341 C   0  0  0  0  0  0  0  0  0  0  0  0
    2.6144    2.1060   -0.6215 C   0  0  0  0  0  0  0  0  0  0  0  0
    1.7366    1.0887   -0.6815 C   0  0  0  0  0  0  0  0  0  0  0  0
    2.0547   -0.0999   -0.1901 C   0  0  0  0  0  0  0  0  0  0  0  0
    3.6999    0.0949    0.4343 S   0  0  0  0  0  0  0  0  0  0  0  0
    1.4696   -1.4259   -0.1032 C   0  0  0  0  0  0  0  0  0  0  0  0
    2.3052   -2.5423    0.0260 C   0  0  0  0  0  0  0  0  0  0  0  0
    1.8439   -3.8315    0.1298 C   0  0  0  0  0  0  0  0  0  0  0  0
    0.4989   -4.0776    0.1095 C   0  0  0  0  0  0  0  0  0  0  0  0
   -0.3447   -2.9990   -0.0142 C   0  0  0  0  0  0  0  0  0  0  0  0
    0.1223   -1.6884   -0.1178 C   0  0  0  0  0  0  0  0  0  0  0  0
   -0.8740   -0.6732   -0.1190 N   0  0  0  0  0  0  0  0  0  0  0  0
   -2.2783   -1.0595   -0.1663 C   0  0  0  0  0  0  0  0  0  0  0  0
   -3.1514    0.1111   -0.1619 C   0  0  0  0  0  0  0  0  0  0  0  0
   -3.9939    0.4082   -1.0983 N   0  0  0  0  0  0  0  0  0  0  0  0
   -4.7000    1.6396   -0.7729 C   0  0  0  0  0  0  0  0  0  0  0  0
   -3.9015    2.2662    0.3622 C   0  0  0  0  0  0  0  0  0  0  0  0
   -3.1938    1.0830    0.8724 N   0  0  0  0  0  0  0  0  0  0  0  0
    5.6398    2.2918    1.0427 H   0  0  0  0  0  0  0  0  0  0  0  0
    5.6983    2.7272   -0.6762 H   0  0  0  0  0  0  0  0  0  0  0  0
    4.6897    3.7210    0.5181 H   0  0  0  0  0  0  0  0  0  0  0  0
    2.4229    3.1310   -1.0086 H   0  0  0  0  0  0  0  0  0  0  0  0
    0.7489    1.2700   -1.1994 H   0  0  0  0  0  0  0  0  0  0  0  0
    3.3964   -2.4340    0.0479 H   0  0  0  0  0  0  0  0  0  0  0  0
    2.5299   -4.6650    0.2282 H   0  0  0  0  0  0  0  0  0  0  0  0
    0.1700   -5.1008    0.1911 H   0  0  0  0  0  0  0  0  0  0  0  0
   -1.4112   -3.2329   -0.0269 H   0  0  0  0  0  0  0  0  0  0  0  0
   -0.7018    0.3354   -0.0558 H   0  0  0  0  0  0  0  0  0  0  0  0
   -2.4064   -1.7157   -1.0416 H   0  0  0  0  0  0  0  0  0  0  0  0
   -2.4741   -1.6783    0.7578 H   0  0  0  0  0  0  0  0  0  0  0  0
   -4.7682    2.3014   -1.6607 H   0  0  0  0  0  0  0  0  0  0  0  0
   -5.7465    1.3970   -0.4476 H   0  0  0  0  0  0  0  0  0  0  0  0
   -4.5553    2.6944    1.1472 H   0  0  0  0  0  0  0  0  0  0  0  0
   -3.1882    2.9865   -0.0830 H   0  0  0  0  0  0  0  0  0  0  0  0
   -2.8079    1.0199    1.8386 H   0  0  0  0  0  0  0  0  0  0  0  0
  1  2  1  0
  2  3  2  0
  3  4  1  0
  4  5  2  0
  5  6  1  0
  5  7  1  0
  7  8  2  0
  8  9  1  0
  9 10  2  0
 10 11  1  0
 11 12  2  0
 12 13  1  0
 13 14  1  0
 14 15  1  0
 15 16  2  0
 16 17  1  0
 17 18  1  0
 18 19  1  0
  6  2  1  0
 12  7  1  0
 19 15  1  0
  1 20  1  0
  1 21  1  0
  1 22  1  0
  3 23  1  0
  4 24  1  0
  8 25  1  0
  9 26  1  0
 10 27  1  0
 11 28  1  0
 13 29  1  0
 14 30  1  0
 14 31  1  0
 17 32  1  0
 17 33  1  0
 18 34  1  0
 18 35  1  0
 19 36  1  0
M  END
>  <Ligand ID>  (1) 
LIG0003843

>  <Ligand>  (1) 
CHEMBL351543

>  <SMILES>  (1) 
Cc1ccc(s1)c1ccccc1NCC1=NCCN1

>  <CID>  (1) 
44369646.0

>  <ChEMBL ID>  (1) 
nan

>  <InChiKey>  (1) 
KMJVEYIACAOTSD-UHFFFAOYSA-N

>  <InChi>  (1) 
InChI=1S/C15H17N3S/c1-11-6-7-14(19-11)12-4-2-3-5-13(12)18-10-15-16-8-9-17-15/h2-7,18H,8-10H2,1H3,(H,16,17)

>  <IUPAC Name>  (1) 
N-(4,5-dihydro-1H-imidazol-2-ylmethyl)-2-(5-methylthiophen-2-yl)aniline

$$$$
