
     RDKit          3D

 59 62  0  0  0  0  0  0  0  0999 V2000
    2.4888    1.8396   -0.1061 C   0  0  0  0  0  0  0  0  0  0  0  0
    3.2087    0.8495    0.8146 C   0  0  2  0  0  0  0  0  0  0  0  0
    4.6855    1.0749    0.7053 C   0  0  0  0  0  0  0  0  0  0  0  0
    5.4807   -0.1196    0.7310 N   0  0  0  0  0  0  0  0  0  0  0  0
    4.8971   -1.2692    1.4416 C   0  0  0  0  0  0  0  0  0  0  0  0
    3.5683   -1.6239    0.8573 C   0  0  0  0  0  0  0  0  0  0  0  0
    2.7583   -0.4677    0.4927 N   0  0  0  0  0  0  0  0  0  0  0  0
    1.5325   -0.7666   -0.1787 C   0  0  0  0  0  0  0  0  0  0  0  0
    1.2595   -2.0487   -0.4765 N   0  0  0  0  0  0  0  0  0  0  0  0
    0.1182   -2.4026   -1.1064 C   0  0  0  0  0  0  0  0  0  0  0  0
   -0.8360   -1.4465   -1.4793 C   0  0  0  0  0  0  0  0  0  0  0  0
   -0.5182   -0.1495   -1.1572 C   0  0  0  0  0  0  0  0  0  0  0  0
    0.6301    0.1520   -0.5298 N   0  0  0  0  0  0  0  0  0  0  0  0
   -1.9374   -1.8974   -2.1029 O   0  0  0  0  0  0  0  0  0  0  0  0
   -3.0467   -1.2598   -2.5756 C   0  0  0  0  0  0  0  0  0  0  0  0
   -3.8211   -0.6037   -1.5079 C   0  0  0  0  0  0  0  0  0  0  0  0
   -3.9337    0.7391   -1.2854 C   0  0  0  0  0  0  0  0  0  0  0  0
   -4.7273    1.2419   -0.2546 C   0  0  0  0  0  0  0  0  0  0  0  0
   -5.4392    0.4185    0.5933 C   0  0  0  0  0  0  0  0  0  0  0  0
   -5.3255   -0.9443    0.3682 C   0  0  0  0  0  0  0  0  0  0  0  0
   -4.5399   -1.4409   -0.6519 C   0  0  0  0  0  0  0  0  0  0  0  0
   -4.4813   -2.7851   -0.8065 F   0  0  0  0  0  0  0  0  0  0  0  0
   -6.2885    0.8689    1.6908 C   0  0  0  0  0  0  0  0  0  0  0  0
   -7.9663    1.1505    1.2158 S   0  0  0  0  0  0  0  0  0  0  0  0
   -7.9829    2.2150    0.1447 O   0  0  0  0  0  0  0  0  0  0  0  0
   -8.8015    1.6503    2.4265 N   0  0  0  0  0  0  0  0  0  0  0  0
   -8.7521   -0.2823    0.5784 C   0  0  0  0  0  0  0  0  0  0  0  0
    6.7496   -0.1896    0.1086 C   0  0  0  0  0  0  0  0  0  0  0  0
    6.8955   -0.5759   -1.1855 N   0  0  0  0  0  0  0  0  0  0  0  0
    8.1770   -0.5507   -1.5042 N   0  0  0  0  0  0  0  0  0  0  0  0
    8.8406   -0.1491   -0.4133 C   0  0  0  0  0  0  0  0  0  0  0  0
    7.9446    0.0620    0.5487 O   0  0  0  0  0  0  0  0  0  0  0  0
   10.3196    0.0356   -0.2784 C   0  0  0  0  0  0  0  0  0  0  0  0
   10.6816   -0.5855    0.8986 F   0  0  0  0  0  0  0  0  0  0  0  0
   10.5976    1.4048   -0.2539 F   0  0  0  0  0  0  0  0  0  0  0  0
   10.9197   -0.5433   -1.3878 F   0  0  0  0  0  0  0  0  0  0  0  0
    3.0991    2.7816   -0.1489 H   0  0  0  0  0  0  0  0  0  0  0  0
    1.5123    2.1593    0.3032 H   0  0  0  0  0  0  0  0  0  0  0  0
    2.4547    1.4884   -1.1550 H   0  0  0  0  0  0  0  0  0  0  0  0
    2.8541    1.1210    1.8491 H   0  0  0  0  0  0  0  0  0  0  0  0
    4.9312    1.5871   -0.2625 H   0  0  0  0  0  0  0  0  0  0  0  0
    5.0374    1.8001    1.4910 H   0  0  0  0  0  0  0  0  0  0  0  0
    4.7354   -0.9760    2.5185 H   0  0  0  0  0  0  0  0  0  0  0  0
    5.5441   -2.1521    1.4091 H   0  0  0  0  0  0  0  0  0  0  0  0
    3.7019   -2.2174   -0.0851 H   0  0  0  0  0  0  0  0  0  0  0  0
    2.9886   -2.2798    1.5368 H   0  0  0  0  0  0  0  0  0  0  0  0
   -0.0485   -3.4619   -1.3222 H   0  0  0  0  0  0  0  0  0  0  0  0
   -1.1660    0.6658   -1.4052 H   0  0  0  0  0  0  0  0  0  0  0  0
   -3.7492   -1.9438   -3.1216 H   0  0  0  0  0  0  0  0  0  0  0  0
   -2.7412   -0.4414   -3.2865 H   0  0  0  0  0  0  0  0  0  0  0  0
   -3.3794    1.3976   -1.9466 H   0  0  0  0  0  0  0  0  0  0  0  0
   -4.7942    2.3039   -0.1066 H   0  0  0  0  0  0  0  0  0  0  0  0
   -5.8656   -1.6510    1.0066 H   0  0  0  0  0  0  0  0  0  0  0  0
   -5.8696    1.7917    2.1297 H   0  0  0  0  0  0  0  0  0  0  0  0
   -6.3059    0.0976    2.4831 H   0  0  0  0  0  0  0  0  0  0  0  0
   -9.3840    2.5016    2.3809 H   0  0  0  0  0  0  0  0  0  0  0  0
   -8.4691   -1.2163    1.1437 H   0  0  0  0  0  0  0  0  0  0  0  0
   -8.5949   -0.4199   -0.5133 H   0  0  0  0  0  0  0  0  0  0  0  0
   -9.8468   -0.1744    0.7273 H   0  0  0  0  0  0  0  0  0  0  0  0
  1  2  1  0
  2  3  1  0
  3  4  1  0
  4  5  1  0
  5  6  1  0
  6  7  1  0
  7  8  1  0
  8  9  2  0
  9 10  1  0
 10 11  2  0
 11 12  1  0
 12 13  2  0
 11 14  1  0
 14 15  1  0
 15 16  1  0
 16 17  2  0
 17 18  1  0
 18 19  2  0
 19 20  1  0
 20 21  2  0
 21 22  1  0
 19 23  1  0
 23 24  1  0
 24 25  2  0
 24 26  2  0
 24 27  1  0
  4 28  1  0
 28 29  2  0
 29 30  1  0
 30 31  2  0
 31 32  1  0
 31 33  1  0
 33 34  1  0
 33 35  1  0
 33 36  1  0
  7  2  1  0
 13  8  1  0
 21 16  1  0
 32 28  1  0
  1 37  1  0
  1 38  1  0
  1 39  1  0
  2 40  1  1
  3 41  1  0
  3 42  1  0
  5 43  1  0
  5 44  1  0
  6 45  1  0
  6 46  1  0
 10 47  1  0
 12 48  1  0
 15 49  1  0
 15 50  1  0
 17 51  1  0
 18 52  1  0
 20 53  1  0
 23 54  1  0
 23 55  1  0
 26 56  1  0
 27 57  1  0
 27 58  1  0
 27 59  1  0
M  END
>  <Ligand ID>  (1) 
LIG0005270

>  <Ligand>  (1) 
CHEMBL3358004

>  <SMILES>  (1) 
C[C@@H]1CN(CCN1c1ncc(cn1)OCc1ccc(cc1F)CS(=O)(=N)C)c1nnc(o1)C(F)(F)F

>  <CID>  (1) 
118722580.0

>  <ChEMBL ID>  (1) 
nan

>  <InChiKey>  (1) 
CDEAEZQLBRDDDP-OYDRJWEHSA-N

>  <InChi>  (1) 
InChI=1S/C21H23F4N7O3S/c1-13-10-31(20-30-29-18(35-20)21(23,24)25)5-6-32(13)19-27-8-16(9-28-19)34-11-15-4-3-14(7-17(15)22)12-36(2,26)33/h3-4,7-9,13,26H,5-6,10-12H2,1-2H3/t13-,36?/m1/s1

>  <IUPAC Name>  (1) 
[3-fluoro-4-[[2-[(2R)-2-methyl-4-[5-(trifluoromethyl)-1,3,4-oxadiazol-2-yl]piperazin-1-yl]pyrimidin-5-yl]oxymethyl]phenyl]methyl-imino-methyl-oxo-lambda6-sulfane

$$$$
