
     RDKit          3D

 19 18  0  0  0  0  0  0  0  0999 V2000
    3.7089   -0.6791   -0.7018 O   0  0  0  0  0  0  0  0  0  0  0  0
    2.5065   -0.7001   -0.0470 C   0  0  0  0  0  0  0  0  0  0  0  0
    2.4696   -1.2009    1.1074 O   0  0  0  0  0  0  0  0  0  0  0  0
    1.2593   -0.1641   -0.6328 C   0  0  0  0  0  0  0  0  0  0  0  0
    0.1111   -0.3341    0.3325 C   0  0  0  0  0  0  0  0  0  0  0  0
   -1.1147    0.2377   -0.3453 C   0  0  1  0  0  0  0  0  0  0  0  0
   -2.2599    0.0805    0.5896 C   0  0  0  0  0  0  0  0  0  0  0  0
   -2.8450    1.0985    1.0902 O   0  0  0  0  0  0  0  0  0  0  0  0
   -2.7565   -1.1605    0.9705 O   0  0  0  0  0  0  0  0  0  0  0  0
   -0.8756    1.6585   -0.5116 N   0  0  0  0  0  0  0  0  0  0  0  0
    4.5759   -0.4837   -0.2137 H   0  0  0  0  0  0  0  0  0  0  0  0
    1.0112   -0.7807   -1.5419 H   0  0  0  0  0  0  0  0  0  0  0  0
    1.3465    0.8788   -0.9940 H   0  0  0  0  0  0  0  0  0  0  0  0
   -0.0474   -1.3980    0.5316 H   0  0  0  0  0  0  0  0  0  0  0  0
    0.3266    0.2668    1.2327 H   0  0  0  0  0  0  0  0  0  0  0  0
   -1.3254   -0.2279   -1.3122 H   0  0  0  0  0  0  0  0  0  0  0  0
   -3.7698   -1.3134    1.0633 H   0  0  0  0  0  0  0  0  0  0  0  0
   -1.6506    2.1257   -1.0318 H   0  0  0  0  0  0  0  0  0  0  0  0
   -0.6707    2.0960    0.4143 H   0  0  0  0  0  0  0  0  0  0  0  0
  1  2  1  0
  2  3  2  0
  2  4  1  0
  4  5  1  0
  5  6  1  0
  6  7  1  0
  7  8  2  0
  7  9  1  0
  6 10  1  0
  1 11  1  0
  4 12  1  0
  4 13  1  0
  5 14  1  0
  5 15  1  0
  6 16  1  6
  9 17  1  0
 10 18  1  0
 10 19  1  0
M  END
>  <Ligand ID>  (1) 
LIG0000777

>  <Ligand>  (1) 
L-glutamic acid

>  <SMILES>  (1) 
OC(=O)CC[C@@H](C(=O)O)N

>  <CID>  (1) 
33032.0

>  <ChEMBL ID>  (1) 
nan

>  <InChiKey>  (1) 
WHUUTDBJXJRKMK-VKHMYHEASA-N

>  <InChi>  (1) 
InChI=1S/C5H9NO4/c6-3(5(9)10)1-2-4(7)8/h3H,1-2,6H2,(H,7,8)(H,9,10)/t3-/m0/s1

>  <IUPAC Name>  (1) 
(2S)-2-aminopentanedioic acid

$$$$
