
     RDKit          3D

 62 64  0  0  0  0  0  0  0  0999 V2000
   -1.8944   -2.2135   -0.8567 C   0  0  0  0  0  0  0  0  0  0  0  0
   -1.7003   -0.7652   -0.4243 C   0  0  1  0  0  0  0  0  0  0  0  0
   -2.9062    0.0700   -0.6315 C   0  0  0  0  0  0  0  0  0  0  0  0
   -3.3940    0.7841    0.4993 N   0  0  0  0  0  0  0  0  0  0  0  0
   -2.4775    1.0784    1.5854 C   0  0  0  0  0  0  0  0  0  0  0  0
   -1.9116   -0.2870    1.9990 C   0  0  0  0  0  0  0  0  0  0  0  0
   -1.1214   -0.7239    0.8819 N   0  0  0  0  0  0  0  0  0  0  0  0
    0.2277   -1.1097    1.0912 C   0  0  0  0  0  0  0  0  0  0  0  0
    0.7099   -1.0474    2.3423 N   0  0  0  0  0  0  0  0  0  0  0  0
    1.9678   -1.3874    2.6520 C   0  0  0  0  0  0  0  0  0  0  0  0
    2.8683   -1.8376    1.6578 C   0  0  0  0  0  0  0  0  0  0  0  0
    2.3366   -1.8875    0.3908 C   0  0  0  0  0  0  0  0  0  0  0  0
    1.0506   -1.5304    0.1288 N   0  0  0  0  0  0  0  0  0  0  0  0
    4.0975   -2.1547    2.0558 O   0  0  0  0  0  0  0  0  0  0  0  0
    5.2538   -2.6028    1.4884 C   0  0  0  0  0  0  0  0  0  0  0  0
    5.8351   -1.6906    0.4827 C   0  0  0  0  0  0  0  0  0  0  0  0
    6.6266   -0.6490    0.9606 C   0  0  0  0  0  0  0  0  0  0  0  0
    7.2397    0.2510    0.1029 C   0  0  0  0  0  0  0  0  0  0  0  0
    7.0883    0.1494   -1.2746 C   0  0  0  0  0  0  0  0  0  0  0  0
    6.3028   -0.8859   -1.7346 C   0  0  0  0  0  0  0  0  0  0  0  0
    5.6918   -1.7842   -0.8659 C   0  0  0  0  0  0  0  0  0  0  0  0
    7.8787    1.3034   -2.2954 S   0  0  0  0  0  0  0  0  0  0  0  0
    8.2541    0.6928   -3.6159 O   0  0  0  0  0  0  0  0  0  0  0  0
    9.1258    1.7680   -1.5901 O   0  0  0  0  0  0  0  0  0  0  0  0
    6.8730    2.7126   -2.6164 C   0  0  0  0  0  0  0  0  0  0  0  0
   -4.7326    1.2158    0.6041 C   0  0  0  0  0  0  0  0  0  0  0  0
   -5.1499    1.8502    1.6176 O   0  0  0  0  0  0  0  0  0  0  0  0
   -5.6590    0.9690   -0.3939 O   0  0  0  0  0  0  0  0  0  0  0  0
   -6.9988    1.3633   -0.3633 C   0  0  0  0  0  0  0  0  0  0  0  0
   -7.7826    0.9548   -1.5991 C   0  0  0  0  0  0  0  0  0  0  0  0
   -7.6529    0.6571    0.8078 C   0  0  0  0  0  0  0  0  0  0  0  0
   -7.1809    2.8411   -0.1188 C   0  0  0  0  0  0  0  0  0  0  0  0
   -1.7679   -2.2845   -1.9579 H   0  0  0  0  0  0  0  0  0  0  0  0
   -2.9354   -2.5081   -0.6549 H   0  0  0  0  0  0  0  0  0  0  0  0
   -1.1497   -2.8672   -0.3863 H   0  0  0  0  0  0  0  0  0  0  0  0
   -0.9158   -0.3658   -1.1325 H   0  0  0  0  0  0  0  0  0  0  0  0
   -2.8290    0.7746   -1.5073 H   0  0  0  0  0  0  0  0  0  0  0  0
   -3.7340   -0.6306   -0.9475 H   0  0  0  0  0  0  0  0  0  0  0  0
   -1.6023    1.6589    1.2146 H   0  0  0  0  0  0  0  0  0  0  0  0
   -2.9839    1.5750    2.4126 H   0  0  0  0  0  0  0  0  0  0  0  0
   -2.7199   -1.0000    2.2413 H   0  0  0  0  0  0  0  0  0  0  0  0
   -1.3110   -0.1155    2.9007 H   0  0  0  0  0  0  0  0  0  0  0  0
    2.2876   -1.3127    3.6775 H   0  0  0  0  0  0  0  0  0  0  0  0
    2.9209   -2.2200   -0.4421 H   0  0  0  0  0  0  0  0  0  0  0  0
    6.0438   -2.7219    2.2799 H   0  0  0  0  0  0  0  0  0  0  0  0
    5.1730   -3.6401    1.0551 H   0  0  0  0  0  0  0  0  0  0  0  0
    6.7926   -0.5031    2.0181 H   0  0  0  0  0  0  0  0  0  0  0  0
    7.8535    1.0574    0.4934 H   0  0  0  0  0  0  0  0  0  0  0  0
    6.1648   -0.9933   -2.7957 H   0  0  0  0  0  0  0  0  0  0  0  0
    5.0934   -2.5819   -1.2754 H   0  0  0  0  0  0  0  0  0  0  0  0
    6.0554    2.7433   -1.8480 H   0  0  0  0  0  0  0  0  0  0  0  0
    6.3914    2.6219   -3.6249 H   0  0  0  0  0  0  0  0  0  0  0  0
    7.4960    3.6152   -2.6350 H   0  0  0  0  0  0  0  0  0  0  0  0
   -7.6401    1.6298   -2.4469 H   0  0  0  0  0  0  0  0  0  0  0  0
   -7.5115   -0.0902   -1.8317 H   0  0  0  0  0  0  0  0  0  0  0  0
   -8.8611    0.9211   -1.2726 H   0  0  0  0  0  0  0  0  0  0  0  0
   -7.1509   -0.3123    0.9434 H   0  0  0  0  0  0  0  0  0  0  0  0
   -7.4139    1.2774    1.7170 H   0  0  0  0  0  0  0  0  0  0  0  0
   -8.7502    0.5617    0.6711 H   0  0  0  0  0  0  0  0  0  0  0  0
   -6.4787    3.4677   -0.7033 H   0  0  0  0  0  0  0  0  0  0  0  0
   -8.1940    3.0929   -0.5027 H   0  0  0  0  0  0  0  0  0  0  0  0
   -7.1889    3.0460    0.9646 H   0  0  0  0  0  0  0  0  0  0  0  0
  1  2  1  0
  2  3  1  0
  3  4  1  0
  4  5  1  0
  5  6  1  0
  6  7  1  0
  7  8  1  0
  8  9  2  0
  9 10  1  0
 10 11  2  0
 11 12  1  0
 12 13  2  0
 11 14  1  0
 14 15  1  0
 15 16  1  0
 16 17  2  0
 17 18  1  0
 18 19  2  0
 19 20  1  0
 20 21  2  0
 19 22  1  0
 22 23  2  0
 22 24  2  0
 22 25  1  0
  4 26  1  0
 26 27  2  0
 26 28  1  0
 28 29  1  0
 29 30  1  0
 29 31  1  0
 29 32  1  0
  7  2  1  0
 13  8  1  0
 21 16  1  0
  1 33  1  0
  1 34  1  0
  1 35  1  0
  2 36  1  6
  3 37  1  0
  3 38  1  0
  5 39  1  0
  5 40  1  0
  6 41  1  0
  6 42  1  0
 10 43  1  0
 12 44  1  0
 15 45  1  0
 15 46  1  0
 17 47  1  0
 18 48  1  0
 20 49  1  0
 21 50  1  0
 25 51  1  0
 25 52  1  0
 25 53  1  0
 30 54  1  0
 30 55  1  0
 30 56  1  0
 31 57  1  0
 31 58  1  0
 31 59  1  0
 32 60  1  0
 32 61  1  0
 32 62  1  0
M  END
>  <Ligand ID>  (1) 
LIG0005543

>  <Ligand>  (1) 
CHEMBL2086659

>  <SMILES>  (1) 
C[C@H]1CN(CCN1c1ncc(cn1)OCc1ccc(cc1)S(=O)(=O)C)C(=O)OC(C)(C)C

>  <CID>  (1) 
58190405.0

>  <ChEMBL ID>  (1) 
nan

>  <InChiKey>  (1) 
LMLPLWPZYOTASZ-INIZCTEOSA-N

>  <InChi>  (1) 
InChI=1S/C22H30N4O5S/c1-16-14-25(21(27)31-22(2,3)4)10-11-26(16)20-23-12-18(13-24-20)30-15-17-6-8-19(9-7-17)32(5,28)29/h6-9,12-13,16H,10-11,14-15H2,1-5H3/t16-/m0/s1

>  <IUPAC Name>  (1) 
tert-butyl (3S)-3-methyl-4-[5-[(4-methylsulfonylphenyl)methoxy]pyrimidin-2-yl]piperazine-1-carboxylate

$$$$
