
     RDKit          3D

144146  0  0  0  0  0  0  0  0999 V2000
   -9.1383   -0.8487    3.3873 C   0  0  0  0  0  0  0  0  0  0  0  0
   -9.0352   -0.7815    1.8747 C   0  0  0  0  0  0  0  0  0  0  0  0
   -7.8751   -1.5976    1.3428 C   0  0  1  0  0  0  0  0  0  0  0  0
   -6.6133   -1.0783    1.8658 C   0  0  2  0  0  0  0  0  0  0  0  0
   -6.3147    0.3032    1.5070 N   0  0  0  0  0  0  0  0  0  0  0  0
   -5.6862    0.6176    0.2441 C   0  0  0  0  0  0  0  0  0  0  0  0
   -5.5012   -0.3580   -0.5071 O   0  0  0  0  0  0  0  0  0  0  0  0
   -5.2705    1.9435   -0.1925 C   0  0  1  0  0  0  0  0  0  0  0  0
   -4.3132    1.7175   -1.3108 N   0  0  0  0  0  0  0  0  0  0  0  0
   -3.2623    2.6491   -1.5280 C   0  0  0  0  0  0  0  0  0  0  0  0
   -3.3167    3.6852   -0.8498 O   0  0  0  0  0  0  0  0  0  0  0  0
   -2.1584    2.3790   -2.5371 C   0  0  0  0  0  0  0  0  0  0  0  0
   -1.3868    3.6004   -2.8719 C   0  0  0  0  0  0  0  0  0  0  0  0
   -0.0168    3.3180   -3.9803 S   0  0  0  0  0  0  0  0  0  0  0  0
    1.3239    2.3156   -3.3270 C   0  0  0  0  0  0  0  0  0  0  0  0
    1.0370    0.8837   -3.3606 C   0  0  0  0  0  0  0  0  0  0  0  0
    1.9758   -0.0081   -2.5278 C   0  0  2  0  0  0  0  0  0  0  0  0
    1.7873    0.2605   -1.1138 N   0  0  0  0  0  0  0  0  0  0  0  0
    0.9759   -0.6768   -0.4164 C   0  0  0  0  0  0  0  0  0  0  0  0
    0.5241   -1.6160   -1.0709 O   0  0  0  0  0  0  0  0  0  0  0  0
    0.5912   -0.6556    1.0422 C   0  0  1  0  0  0  0  0  0  0  0  0
   -0.4039   -1.7981    1.1613 N   0  0  0  0  0  0  0  0  0  0  0  0
   -1.7730   -1.5218    1.2084 C   0  0  0  0  0  0  0  0  0  0  0  0
   -1.9961   -0.2397    1.3225 O   0  0  0  0  0  0  0  0  0  0  0  0
   -2.9675   -2.3393    1.1675 C   0  0  1  0  0  0  0  0  0  0  0  0
   -4.1319   -1.4709    1.4486 N   0  0  0  0  0  0  0  0  0  0  0  0
   -5.4486   -2.0025    1.6841 C   0  0  0  0  0  0  0  0  0  0  0  0
   -5.4950   -3.2353    1.7211 O   0  0  0  0  0  0  0  0  0  0  0  0
   -3.2197   -2.9613   -0.2186 C   0  0  0  0  0  0  0  0  0  0  0  0
   -2.1503   -3.8702   -0.6516 C   0  0  0  0  0  0  0  0  0  0  0  0
   -2.4699   -4.3738   -2.0542 C   0  0  0  0  0  0  0  0  0  0  0  0
   -3.6391   -4.2479   -2.5160 O   0  0  0  0  0  0  0  0  0  0  0  0
   -1.4507   -4.9809   -2.8368 N   0  0  0  0  0  0  0  0  0  0  0  0
    1.7766   -1.0761    1.8354 C   0  0  0  0  0  0  0  0  0  0  0  0
    1.3728   -1.0544    3.2793 C   0  0  0  0  0  0  0  0  0  0  0  0
    0.2035   -0.7142    3.5807 O   0  0  0  0  0  0  0  0  0  0  0  0
    2.3464   -1.4226    4.2498 N   0  0  0  0  0  0  0  0  0  0  0  0
    3.3174   -0.0263   -3.0122 C   0  0  0  0  0  0  0  0  0  0  0  0
    3.4532   -0.7471   -4.1200 O   0  0  0  0  0  0  0  0  0  0  0  0
    4.5327    0.5426   -2.5861 N   0  0  0  0  0  0  0  0  0  0  0  0
    4.7998    1.4700   -1.5495 C   0  0  0  0  0  0  0  0  0  0  0  0
    4.9957    0.9015   -0.2256 C   0  0  0  0  0  0  0  0  0  0  0  0
    4.8284   -0.2860    0.0952 O   0  0  0  0  0  0  0  0  0  0  0  0
    5.4266    1.8177    0.7989 N   0  0  0  0  0  0  0  0  0  0  0  0
    5.6447    1.4851    2.1806 C   0  0  2  0  0  0  0  0  0  0  0  0
    5.6381    2.6552    3.0141 C   0  0  0  0  0  0  0  0  0  0  0  0
    5.7231    2.6034    4.2940 O   0  0  0  0  0  0  0  0  0  0  0  0
    5.5316    4.0275    2.5466 N   0  0  0  0  0  0  0  0  0  0  0  0
    5.5369    5.1327    3.5170 C   0  0  0  0  0  0  0  0  0  0  0  0
    6.8221    5.1164    4.2206 C   0  0  0  0  0  0  0  0  0  0  0  0
    7.0427    5.9729    5.1421 O   0  0  0  0  0  0  0  0  0  0  0  0
    7.8202    4.1898    3.9134 N   0  0  0  0  0  0  0  0  0  0  0  0
    6.8247    0.5362    2.2808 C   0  0  0  0  0  0  0  0  0  0  0  0
    7.2378    0.0554    3.6028 C   0  0  0  0  0  0  0  0  0  0  0  0
    6.2150   -0.6422    4.4448 C   0  0  0  0  0  0  0  0  0  0  0  0
    8.1866    0.9205    4.3594 C   0  0  0  0  0  0  0  0  0  0  0  0
    5.7073    0.1861   -3.3933 C   0  0  0  0  0  0  0  0  0  0  0  0
    6.4638   -1.0135   -3.0696 C   0  0  0  0  0  0  0  0  0  0  0  0
    5.8528   -2.3302   -3.1473 C   0  0  0  0  0  0  0  0  0  0  0  0
    5.2963   -3.0550   -2.1193 C   0  0  0  0  0  0  0  0  0  0  0  0
    4.7366   -4.2992   -2.2572 C   0  0  0  0  0  0  0  0  0  0  0  0
    4.7099   -4.8970   -3.5066 C   0  0  0  0  0  0  0  0  0  0  0  0
    5.2575   -4.2115   -4.5851 C   0  0  0  0  0  0  0  0  0  0  0  0
    5.8213   -2.9470   -4.4065 C   0  0  0  0  0  0  0  0  0  0  0  0
   -6.4090    2.8170   -0.7093 C   0  0  0  0  0  0  0  0  0  0  0  0
   -7.0834    2.2804   -1.8968 C   0  0  0  0  0  0  0  0  0  0  0  0
   -8.1550    1.4257   -1.8532 C   0  0  0  0  0  0  0  0  0  0  0  0
   -8.7204    0.9852   -3.0250 C   0  0  0  0  0  0  0  0  0  0  0  0
   -8.1979    1.4091   -4.2448 C   0  0  0  0  0  0  0  0  0  0  0  0
   -7.1227    2.2660   -4.2959 C   0  0  0  0  0  0  0  0  0  0  0  0
   -6.5517    2.7133   -3.1354 C   0  0  0  0  0  0  0  0  0  0  0  0
   -8.8000    0.9385   -5.4186 O   0  0  0  0  0  0  0  0  0  0  0  0
   -8.0832   -3.0251    1.8177 C   0  0  0  0  0  0  0  0  0  0  0  0
  -10.1475   -0.5472    3.7535 H   0  0  0  0  0  0  0  0  0  0  0  0
   -8.3188   -0.4112    3.9396 H   0  0  0  0  0  0  0  0  0  0  0  0
   -9.1097   -1.9619    3.6289 H   0  0  0  0  0  0  0  0  0  0  0  0
   -9.9924   -1.1597    1.4881 H   0  0  0  0  0  0  0  0  0  0  0  0
   -8.9606    0.2924    1.6153 H   0  0  0  0  0  0  0  0  0  0  0  0
   -7.9236   -1.6360    0.2238 H   0  0  0  0  0  0  0  0  0  0  0  0
   -6.6818   -1.0309    3.0099 H   0  0  0  0  0  0  0  0  0  0  0  0
   -6.5077    1.1213    2.0798 H   0  0  0  0  0  0  0  0  0  0  0  0
   -4.7649    2.5237    0.5477 H   0  0  0  0  0  0  0  0  0  0  0  0
   -4.3626    0.9316   -1.9479 H   0  0  0  0  0  0  0  0  0  0  0  0
   -1.4610    1.6291   -2.0057 H   0  0  0  0  0  0  0  0  0  0  0  0
   -2.5046    1.8655   -3.4306 H   0  0  0  0  0  0  0  0  0  0  0  0
   -1.0129    4.0098   -1.8755 H   0  0  0  0  0  0  0  0  0  0  0  0
   -2.0426    4.4338   -3.2398 H   0  0  0  0  0  0  0  0  0  0  0  0
    1.5716    2.5936   -2.2597 H   0  0  0  0  0  0  0  0  0  0  0  0
    2.2235    2.5726   -3.9707 H   0  0  0  0  0  0  0  0  0  0  0  0
    0.0047    0.6132   -3.1779 H   0  0  0  0  0  0  0  0  0  0  0  0
    1.2288    0.4461   -4.4215 H   0  0  0  0  0  0  0  0  0  0  0  0
    1.5305   -1.0349   -2.7116 H   0  0  0  0  0  0  0  0  0  0  0  0
    2.1555    1.0207   -0.5659 H   0  0  0  0  0  0  0  0  0  0  0  0
    0.1474    0.2813    1.3175 H   0  0  0  0  0  0  0  0  0  0  0  0
   -0.0765   -2.7408    1.2331 H   0  0  0  0  0  0  0  0  0  0  0  0
   -2.9733   -3.1338    1.9179 H   0  0  0  0  0  0  0  0  0  0  0  0
   -4.0297   -0.4691    1.5304 H   0  0  0  0  0  0  0  0  0  0  0  0
   -4.1721   -3.5314   -0.1488 H   0  0  0  0  0  0  0  0  0  0  0  0
   -3.4265   -2.1235   -0.9201 H   0  0  0  0  0  0  0  0  0  0  0  0
   -1.1394   -3.5436   -0.5757 H   0  0  0  0  0  0  0  0  0  0  0  0
   -2.2038   -4.8027    0.0118 H   0  0  0  0  0  0  0  0  0  0  0  0
   -1.3649   -4.6456   -3.8264 H   0  0  0  0  0  0  0  0  0  0  0  0
   -0.8085   -5.7121   -2.5098 H   0  0  0  0  0  0  0  0  0  0  0  0
    2.6256   -0.3903    1.6716 H   0  0  0  0  0  0  0  0  0  0  0  0
    2.0525   -2.1487    1.5781 H   0  0  0  0  0  0  0  0  0  0  0  0
    2.8161   -0.6877    4.8052 H   0  0  0  0  0  0  0  0  0  0  0  0
    2.6324   -2.4082    4.4427 H   0  0  0  0  0  0  0  0  0  0  0  0
    3.9642    2.2428   -1.4489 H   0  0  0  0  0  0  0  0  0  0  0  0
    5.6643    2.1548   -1.8412 H   0  0  0  0  0  0  0  0  0  0  0  0
    5.6169    2.7902    0.4982 H   0  0  0  0  0  0  0  0  0  0  0  0
    4.7700    0.8018    2.4735 H   0  0  0  0  0  0  0  0  0  0  0  0
    5.4424    4.2857    1.5714 H   0  0  0  0  0  0  0  0  0  0  0  0
    5.4941    6.1091    2.9659 H   0  0  0  0  0  0  0  0  0  0  0  0
    4.6589    5.0189    4.1723 H   0  0  0  0  0  0  0  0  0  0  0  0
    7.9203    3.8176    2.9467 H   0  0  0  0  0  0  0  0  0  0  0  0
    8.4553    3.8843    4.7018 H   0  0  0  0  0  0  0  0  0  0  0  0
    6.5393   -0.3526    1.6505 H   0  0  0  0  0  0  0  0  0  0  0  0
    7.7275    0.9785    1.7856 H   0  0  0  0  0  0  0  0  0  0  0  0
    7.9570   -0.8567    3.2857 H   0  0  0  0  0  0  0  0  0  0  0  0
    5.5154   -1.2106    3.7632 H   0  0  0  0  0  0  0  0  0  0  0  0
    5.5660   -0.0066    5.0459 H   0  0  0  0  0  0  0  0  0  0  0  0
    6.7162   -1.4261    5.0643 H   0  0  0  0  0  0  0  0  0  0  0  0
    7.8029    1.3756    5.2691 H   0  0  0  0  0  0  0  0  0  0  0  0
    8.6669    1.6307    3.6365 H   0  0  0  0  0  0  0  0  0  0  0  0
    9.0451    0.2549    4.7288 H   0  0  0  0  0  0  0  0  0  0  0  0
    5.4207    0.2160   -4.4702 H   0  0  0  0  0  0  0  0  0  0  0  0
    6.4139    1.0705   -3.3096 H   0  0  0  0  0  0  0  0  0  0  0  0
    7.3690   -1.0227   -3.7644 H   0  0  0  0  0  0  0  0  0  0  0  0
    6.9669   -0.9294   -2.0585 H   0  0  0  0  0  0  0  0  0  0  0  0
    5.3108   -2.6162   -1.1414 H   0  0  0  0  0  0  0  0  0  0  0  0
    4.3297   -4.8044   -1.3875 H   0  0  0  0  0  0  0  0  0  0  0  0
    4.2748   -5.8793   -3.6534 H   0  0  0  0  0  0  0  0  0  0  0  0
    5.2176   -4.6998   -5.5345 H   0  0  0  0  0  0  0  0  0  0  0  0
    6.2439   -2.4369   -5.2848 H   0  0  0  0  0  0  0  0  0  0  0  0
   -5.9005    3.8068   -0.9051 H   0  0  0  0  0  0  0  0  0  0  0  0
   -7.0765    3.0066    0.1373 H   0  0  0  0  0  0  0  0  0  0  0  0
   -8.5095    1.1404   -0.8629 H   0  0  0  0  0  0  0  0  0  0  0  0
   -9.5532    0.3232   -3.0398 H   0  0  0  0  0  0  0  0  0  0  0  0
   -6.6831    2.6262   -5.2306 H   0  0  0  0  0  0  0  0  0  0  0  0
   -5.6900    3.3936   -3.1383 H   0  0  0  0  0  0  0  0  0  0  0  0
   -9.4217    1.6206   -5.8599 H   0  0  0  0  0  0  0  0  0  0  0  0
   -7.5186   -3.2076    2.7602 H   0  0  0  0  0  0  0  0  0  0  0  0
   -7.7296   -3.7708    1.0802 H   0  0  0  0  0  0  0  0  0  0  0  0
   -9.1701   -3.2559    1.9535 H   0  0  0  0  0  0  0  0  0  0  0  0
  1  2  1  0
  2  3  1  0
  3  4  1  0
  4  5  1  0
  5  6  1  0
  6  7  2  0
  6  8  1  0
  8  9  1  0
  9 10  1  0
 10 11  2  0
 10 12  1  0
 12 13  1  0
 13 14  1  0
 14 15  1  0
 15 16  1  0
 16 17  1  0
 17 18  1  0
 18 19  1  0
 19 20  2  0
 19 21  1  0
 21 22  1  0
 22 23  1  0
 23 24  2  0
 23 25  1  0
 25 26  1  0
 26 27  1  0
 27 28  2  0
 25 29  1  0
 29 30  1  0
 30 31  1  0
 31 32  2  0
 31 33  1  0
 21 34  1  0
 34 35  1  0
 35 36  2  0
 35 37  1  0
 17 38  1  0
 38 39  2  0
 38 40  1  0
 40 41  1  0
 41 42  1  0
 42 43  2  0
 42 44  1  0
 44 45  1  0
 45 46  1  0
 46 47  2  0
 46 48  1  0
 48 49  1  0
 49 50  1  0
 50 51  2  0
 50 52  1  0
 45 53  1  0
 53 54  1  0
 54 55  1  0
 54 56  1  0
 40 57  1  0
 57 58  1  0
 58 59  1  0
 59 60  2  0
 60 61  1  0
 61 62  2  0
 62 63  1  0
 63 64  2  0
  8 65  1  0
 65 66  1  0
 66 67  2  0
 67 68  1  0
 68 69  2  0
 69 70  1  0
 70 71  2  0
 69 72  1  0
  3 73  1  0
 27  4  1  0
 64 59  1  0
 71 66  1  0
  1 74  1  0
  1 75  1  0
  1 76  1  0
  2 77  1  0
  2 78  1  0
  3 79  1  6
  4 80  1  1
  5 81  1  0
  8 82  1  1
  9 83  1  0
 12 84  1  0
 12 85  1  0
 13 86  1  0
 13 87  1  0
 15 88  1  0
 15 89  1  0
 16 90  1  0
 16 91  1  0
 17 92  1  1
 18 93  1  0
 21 94  1  1
 22 95  1  0
 25 96  1  1
 26 97  1  0
 29 98  1  0
 29 99  1  0
 30100  1  0
 30101  1  0
 33102  1  0
 33103  1  0
 34104  1  0
 34105  1  0
 37106  1  0
 37107  1  0
 41108  1  0
 41109  1  0
 44110  1  0
 45111  1  1
 48112  1  0
 49113  1  0
 49114  1  0
 52115  1  0
 52116  1  0
 53117  1  0
 53118  1  0
 54119  1  0
 55120  1  0
 55121  1  0
 55122  1  0
 56123  1  0
 56124  1  0
 56125  1  0
 57126  1  0
 57127  1  0
 58128  1  0
 58129  1  0
 60130  1  0
 61131  1  0
 62132  1  0
 63133  1  0
 64134  1  0
 65135  1  0
 65136  1  0
 67137  1  0
 68138  1  0
 70139  1  0
 71140  1  0
 72141  1  0
 73142  1  0
 73143  1  0
 73144  1  0
M  END
>  <Ligand ID>  (1) 
LIG0001558

>  <Ligand>  (1) 
CHEMBL3354598

>  <SMILES>  (1) 
CC[C@@H]([C@@H]1NC(=O)[C@@H](NC(=O)CCSCC[C@H](NC(=O)[C@@H](NC(=O)[C@@H](NC1=O)CCC(=O)N)CC(=O)N)C(=O)N(CC(=O)N[C@H](C(=O)NCC(=O)N)CC(C)C)CCc1ccccc1)Cc1ccc(cc1)O)C

>  <CID>  (1) 
118720286.0

>  <ChEMBL ID>  (1) 
nan

>  <InChiKey>  (1) 
BWNAYWOWQSTEQG-ASIWTYMMSA-N

>  <InChi>  (1) 
InChI=1S/C49H71N11O12S/c1-5-29(4)43-48(71)56-33(15-16-38(50)62)45(68)58-37(25-39(51)63)46(69)57-34(18-21-73-22-19-41(65)54-36(47(70)59-43)24-31-11-13-32(61)14-12-31)49(72)60(20-17-30-9-7-6-8-10-30)27-42(66)55-35(23-28(2)3)44(67)53-26-40(52)64/h6-14,28-29,33-37,43,61H,5,15-27H2,1-4H3,(H2,50,62)(H2,51,63)(H2,52,64)(H,53,67)(H,54,65)(H,55,66)(H,56,71)(H,57,69)(H,58,68)(H,59,70)/t29-,33-,34-,35-,36-,37-,43-/m0/s1

>  <IUPAC Name>  (1) 
(4S,7S,10S,13S,16S)-7-(2-amino-2-oxoethyl)-N-[2-[[(2S)-1-[(2-amino-2-oxoethyl)amino]-4-methyl-1-oxopentan-2-yl]amino]-2-oxoethyl]-10-(3-amino-3-oxopropyl)-13-[(2S)-butan-2-yl]-16-[(4-hydroxyphenyl)methyl]-6,9,12,15,18-pentaoxo-N-(2-phenylethyl)-1-thia-5,8,11,14,17-pentazacycloicosane-4-carboxamide

$$$$
