
     RDKit          3D

 66 73  0  0  0  0  0  0  0  0999 V2000
    6.4627   -1.2392   -0.5877 C   0  0  0  0  0  0  0  0  0  0  0  0
    5.6017   -1.2962    0.4196 C   0  0  0  0  0  0  0  0  0  0  0  0
    4.3855   -2.1917    0.3824 C   0  0  0  0  0  0  0  0  0  0  0  0
    3.2290   -1.4276    0.4993 N   0  0  0  0  0  0  0  0  0  0  0  0
    2.9664   -0.7828    1.7105 C   0  0  0  0  0  0  0  0  0  0  0  0
    2.1528    0.4666    1.5756 C   0  0  0  0  0  0  0  0  0  0  0  0
    1.0436    0.3809    0.5906 C   0  0  2  0  0  0  0  0  0  0  0  0
    0.9700   -0.9032   -0.1887 C   0  0  1  0  0  0  0  0  0  0  0  0
    2.3777   -1.2024   -0.6112 C   0  0  1  0  0  0  0  0  0  0  0  0
    2.9340   -0.0827   -1.4181 C   0  0  0  0  0  0  0  0  0  0  0  0
    2.1864    1.1855   -1.3980 C   0  0  0  0  0  0  0  0  0  0  0  0
    1.1906    1.4585   -0.4422 C   0  0  0  0  0  0  0  0  0  0  0  0
    0.5258    2.6876   -0.5775 C   0  0  0  0  0  0  0  0  0  0  0  0
   -0.5125    3.2895    0.1644 O   0  0  0  0  0  0  0  0  0  0  0  0
   -1.5961    2.6519    0.8477 C   0  0  0  0  0  0  0  0  0  0  0  0
   -2.0053    1.5633    0.1655 O   0  0  0  0  0  0  0  0  0  0  0  0
   -1.4683    0.3384    0.4565 C   0  0  1  0  0  0  0  0  0  0  0  0
   -0.2515    0.3265    1.2902 C   0  0  1  0  0  0  0  0  0  0  0  0
   -0.2015   -1.1436    1.7197 C   0  0  2  0  0  0  0  0  0  0  0  0
    0.4723   -1.8116    0.7375 O   0  0  0  0  0  0  0  0  0  0  0  0
   -1.6361   -1.5247    1.8296 C   0  0  0  0  0  0  0  0  0  0  0  0
   -2.1355   -2.6002    2.2471 O   0  0  0  0  0  0  0  0  0  0  0  0
   -2.3799   -0.4086    1.3572 N   0  0  0  0  0  0  0  0  0  0  0  0
   -3.7385   -0.0381    1.6628 C   0  0  0  0  0  0  0  0  0  0  0  0
   -4.7190   -0.6437    0.6990 C   0  0  0  0  0  0  0  0  0  0  0  0
   -5.0451    0.0889   -0.4506 C   0  0  0  0  0  0  0  0  0  0  0  0
   -5.9380   -0.4004   -1.3831 C   0  0  0  0  0  0  0  0  0  0  0  0
   -6.5087   -1.6351   -1.1610 C   0  0  0  0  0  0  0  0  0  0  0  0
   -6.1929   -2.3607   -0.0337 C   0  0  0  0  0  0  0  0  0  0  0  0
   -5.2910   -1.8831    0.9236 C   0  0  0  0  0  0  0  0  0  0  0  0
   -1.3637   -0.4860   -0.7749 C   0  0  0  0  0  0  0  0  0  0  0  0
    0.0172   -0.7716   -1.2941 C   0  0  0  0  0  0  0  0  0  0  0  0
    0.8467    3.5763   -1.5965 C   0  0  0  0  0  0  0  0  0  0  0  0
    1.8234    3.2954   -2.5192 C   0  0  0  0  0  0  0  0  0  0  0  0
    2.4798    2.0967   -2.4028 C   0  0  0  0  0  0  0  0  0  0  0  0
    0.1453    4.7730   -1.6600 O   0  0  0  0  0  0  0  0  0  0  0  0
    7.3388   -0.6264   -0.6177 H   0  0  0  0  0  0  0  0  0  0  0  0
    6.2594   -1.8630   -1.4449 H   0  0  0  0  0  0  0  0  0  0  0  0
    5.8079   -0.6655    1.2842 H   0  0  0  0  0  0  0  0  0  0  0  0
    4.5279   -2.9461    1.2151 H   0  0  0  0  0  0  0  0  0  0  0  0
    4.4425   -2.7419   -0.5907 H   0  0  0  0  0  0  0  0  0  0  0  0
    2.5642   -1.4776    2.4833 H   0  0  0  0  0  0  0  0  0  0  0  0
    3.9546   -0.4482    2.1576 H   0  0  0  0  0  0  0  0  0  0  0  0
    2.8630    1.2911    1.2694 H   0  0  0  0  0  0  0  0  0  0  0  0
    1.7559    0.7845    2.5632 H   0  0  0  0  0  0  0  0  0  0  0  0
    2.3710   -2.1410   -1.2290 H   0  0  0  0  0  0  0  0  0  0  0  0
    3.9653    0.1733   -1.0338 H   0  0  0  0  0  0  0  0  0  0  0  0
    3.1467   -0.4104   -2.4857 H   0  0  0  0  0  0  0  0  0  0  0  0
   -2.4311    3.4153    0.7752 H   0  0  0  0  0  0  0  0  0  0  0  0
   -1.4031    2.5627    1.9200 H   0  0  0  0  0  0  0  0  0  0  0  0
   -0.3168    0.8873    2.2251 H   0  0  0  0  0  0  0  0  0  0  0  0
    0.2097   -1.2550    2.7439 H   0  0  0  0  0  0  0  0  0  0  0  0
   -3.8712    1.0827    1.6606 H   0  0  0  0  0  0  0  0  0  0  0  0
   -3.9900   -0.3543    2.6910 H   0  0  0  0  0  0  0  0  0  0  0  0
   -4.5971    1.0697   -0.6352 H   0  0  0  0  0  0  0  0  0  0  0  0
   -6.2101    0.1426   -2.2791 H   0  0  0  0  0  0  0  0  0  0  0  0
   -7.2177   -2.0028   -1.9184 H   0  0  0  0  0  0  0  0  0  0  0  0
   -6.6605   -3.3464    0.1274 H   0  0  0  0  0  0  0  0  0  0  0  0
   -5.0411   -2.4529    1.8103 H   0  0  0  0  0  0  0  0  0  0  0  0
   -1.9317    0.0126   -1.6155 H   0  0  0  0  0  0  0  0  0  0  0  0
   -1.8857   -1.4843   -0.6838 H   0  0  0  0  0  0  0  0  0  0  0  0
    0.2315   -0.0299   -2.0817 H   0  0  0  0  0  0  0  0  0  0  0  0
   -0.0129   -1.7527   -1.8373 H   0  0  0  0  0  0  0  0  0  0  0  0
    2.0434    4.0072   -3.2923 H   0  0  0  0  0  0  0  0  0  0  0  0
    3.2466    1.8813   -3.1335 H   0  0  0  0  0  0  0  0  0  0  0  0
    0.0135    5.3420   -0.8272 H   0  0  0  0  0  0  0  0  0  0  0  0
  1  2  2  0
  2  3  1  0
  3  4  1  0
  4  5  1  0
  5  6  1  0
  7  6  1  1
  7  8  1  0
  8  9  1  0
  9 10  1  0
 10 11  1  0
 11 12  2  0
 12 13  1  0
 13 14  1  0
 14 15  1  0
 15 16  1  0
 17 16  1  6
 17 18  1  0
 18 19  1  0
 19 20  1  0
 19 21  1  0
 21 22  2  0
 21 23  1  0
 23 24  1  0
 24 25  1  0
 25 26  2  0
 26 27  1  0
 27 28  2  0
 28 29  1  0
 29 30  2  0
 17 31  1  0
 31 32  1  0
 13 33  2  0
 33 34  1  0
 34 35  2  0
 33 36  1  0
  9  4  1  0
 35 11  1  0
 12  7  1  0
 23 17  1  0
 30 25  1  0
 18  7  1  0
 32  8  1  0
  8 20  1  1
  1 37  1  0
  1 38  1  0
  2 39  1  0
  3 40  1  0
  3 41  1  0
  5 42  1  0
  5 43  1  0
  6 44  1  0
  6 45  1  0
  9 46  1  6
 10 47  1  0
 10 48  1  0
 15 49  1  0
 15 50  1  0
 18 51  1  1
 19 52  1  1
 24 53  1  0
 24 54  1  0
 26 55  1  0
 27 56  1  0
 28 57  1  0
 29 58  1  0
 30 59  1  0
 31 60  1  0
 31 61  1  0
 32 62  1  0
 32 63  1  0
 34 64  1  0
 35 65  1  0
 36 66  1  0
M  END
>  <Ligand ID>  (1) 
LIG0002336

>  <Ligand>  (1) 
CHEMBL3264745

>  <SMILES>  (1) 
C=CCN1CC[C@]23[C@]45[C@H]1Cc1c2c(OCO[C@]2([C@H]3[C@H](O5)C(=O)N2Cc2ccccc2)CC4)c(cc1)O

>  <CID>  (1) 
90655826.0

>  <ChEMBL ID>  (1) 
nan

>  <InChiKey>  (1) 
CPQZLWPWUDCRPX-HRPGWMCCSA-N

>  <InChi>  (1) 
InChI=1S/C29H30N2O5/c1-2-13-30-14-12-27-22-19-8-9-20(32)23(22)34-17-35-29-11-10-28(27,21(30)15-19)36-24(25(27)29)26(33)31(29)16-18-6-4-3-5-7-18/h2-9,21,24-25,32H,1,10-17H2/t21-,24+,25+,27+,28-,29+/m1/s1

>  <IUPAC Name>  (1) 
(1S,11R,15R,16R,17S,19S)-22-benzyl-6-hydroxy-12-prop-2-enyl-2,4,18-trioxa-12,22-diazaheptacyclo[15.4.2.15,9.01,16.011,19.015,19.015,24]tetracosa-5,7,9(24)-trien-23-one

$$$$
