
     RDKit          3D

 64 67  0  0  0  0  0  0  0  0999 V2000
   -1.2165    4.1981   -2.1324 C   0  0  0  0  0  0  0  0  0  0  0  0
   -2.5331    3.8924   -1.7156 O   0  0  0  0  0  0  0  0  0  0  0  0
   -2.7633    2.7096   -1.0155 C   0  0  0  0  0  0  0  0  0  0  0  0
   -1.7102    1.8661   -0.7446 C   0  0  0  0  0  0  0  0  0  0  0  0
   -1.8829    0.6984   -0.0643 C   0  0  0  0  0  0  0  0  0  0  0  0
   -3.1738    0.3899    0.3498 C   0  0  0  0  0  0  0  0  0  0  0  0
   -4.2428    1.2095    0.0952 C   0  0  0  0  0  0  0  0  0  0  0  0
   -4.0207    2.3787   -0.5960 C   0  0  0  0  0  0  0  0  0  0  0  0
   -5.0528    3.2528   -0.8881 O   0  0  0  0  0  0  0  0  0  0  0  0
   -6.3572    2.9103   -0.4527 C   0  0  0  0  0  0  0  0  0  0  0  0
   -3.3350   -0.7593    1.0302 N   0  0  0  0  0  0  0  0  0  0  0  0
   -2.3015   -1.5484    1.2850 C   0  0  0  0  0  0  0  0  0  0  0  0
   -1.0502   -1.2471    0.8817 N   0  0  0  0  0  0  0  0  0  0  0  0
   -0.8139   -0.0949    0.1850 C   0  0  0  0  0  0  0  0  0  0  0  0
    0.5183    0.1197   -0.2238 N   0  0  0  0  0  0  0  0  0  0  0  0
    1.0325   -0.0000   -1.5531 C   0  0  0  0  0  0  0  0  0  0  0  0
    2.5099   -0.3545   -1.5629 C   0  0  0  0  0  0  0  0  0  0  0  0
    3.2740    0.5487   -0.7264 N   0  0  0  0  0  0  0  0  0  0  0  0
    2.4940    1.3980    0.1796 C   0  0  0  0  0  0  0  0  0  0  0  0
    1.4677    0.5009    0.8339 C   0  0  0  0  0  0  0  0  0  0  0  0
    4.6896    0.6016   -0.7879 C   0  0  0  0  0  0  0  0  0  0  0  0
    5.2366    1.8390   -1.1472 C   0  0  0  0  0  0  0  0  0  0  0  0
    6.5975    2.0179   -1.2422 C   0  0  0  0  0  0  0  0  0  0  0  0
    7.4237    0.9671   -0.9803 C   0  0  0  0  0  0  0  0  0  0  0  0
    6.8811   -0.2691   -0.6215 C   0  0  0  0  0  0  0  0  0  0  0  0
    5.5148   -0.4622   -0.5224 C   0  0  0  0  0  0  0  0  0  0  0  0
    4.9519   -1.6809   -0.1678 O   0  0  0  0  0  0  0  0  0  0  0  0
    5.8473   -2.7536    0.0978 C   0  0  0  0  0  0  0  0  0  0  0  0
   -2.4791   -2.8163    2.0371 C   0  0  0  0  0  0  0  0  0  0  0  0
   -3.9002   -3.0591    2.4406 C   0  0  0  0  0  0  0  0  0  0  0  0
   -3.9476   -4.3841    3.2009 C   0  0  0  0  0  0  0  0  0  0  0  0
   -4.7286   -3.2062    1.1823 C   0  0  0  0  0  0  0  0  0  0  0  0
   -1.2463    5.1418   -2.6867 H   0  0  0  0  0  0  0  0  0  0  0  0
   -0.6296    4.3135   -1.1805 H   0  0  0  0  0  0  0  0  0  0  0  0
   -0.8026    3.3913   -2.7668 H   0  0  0  0  0  0  0  0  0  0  0  0
   -0.7402    2.1653   -1.0784 H   0  0  0  0  0  0  0  0  0  0  0  0
   -5.2247    0.9273    0.4365 H   0  0  0  0  0  0  0  0  0  0  0  0
   -6.3464    2.6356    0.6431 H   0  0  0  0  0  0  0  0  0  0  0  0
   -7.0527    3.7577   -0.6552 H   0  0  0  0  0  0  0  0  0  0  0  0
   -6.7184    2.0025   -0.9819 H   0  0  0  0  0  0  0  0  0  0  0  0
    0.5293   -0.8796   -2.0527 H   0  0  0  0  0  0  0  0  0  0  0  0
    0.8197    0.8720   -2.1586 H   0  0  0  0  0  0  0  0  0  0  0  0
    2.6800   -1.3842   -1.1916 H   0  0  0  0  0  0  0  0  0  0  0  0
    2.8485   -0.3036   -2.6175 H   0  0  0  0  0  0  0  0  0  0  0  0
    1.9974    2.1583   -0.4645 H   0  0  0  0  0  0  0  0  0  0  0  0
    3.1421    1.8926    0.9290 H   0  0  0  0  0  0  0  0  0  0  0  0
    0.9772    0.9469    1.7039 H   0  0  0  0  0  0  0  0  0  0  0  0
    2.0307   -0.4165    1.1688 H   0  0  0  0  0  0  0  0  0  0  0  0
    4.5929    2.6945   -1.3611 H   0  0  0  0  0  0  0  0  0  0  0  0
    6.9795    2.9934   -1.5239 H   0  0  0  0  0  0  0  0  0  0  0  0
    8.4981    1.1212   -1.0589 H   0  0  0  0  0  0  0  0  0  0  0  0
    7.5508   -1.0929   -0.4166 H   0  0  0  0  0  0  0  0  0  0  0  0
    5.2563   -3.5751    0.5113 H   0  0  0  0  0  0  0  0  0  0  0  0
    6.6359   -2.4776    0.8115 H   0  0  0  0  0  0  0  0  0  0  0  0
    6.2896   -3.1506   -0.8538 H   0  0  0  0  0  0  0  0  0  0  0  0
   -1.7864   -2.7720    2.9008 H   0  0  0  0  0  0  0  0  0  0  0  0
   -2.1696   -3.6233    1.3375 H   0  0  0  0  0  0  0  0  0  0  0  0
   -4.3452   -2.2430    3.0206 H   0  0  0  0  0  0  0  0  0  0  0  0
   -2.9563   -4.6569    3.6228 H   0  0  0  0  0  0  0  0  0  0  0  0
   -4.6531   -4.2751    4.0665 H   0  0  0  0  0  0  0  0  0  0  0  0
   -4.2672   -5.2239    2.5479 H   0  0  0  0  0  0  0  0  0  0  0  0
   -4.0831   -3.6153    0.3684 H   0  0  0  0  0  0  0  0  0  0  0  0
   -5.5363   -3.9562    1.4257 H   0  0  0  0  0  0  0  0  0  0  0  0
   -5.1988   -2.2314    0.9006 H   0  0  0  0  0  0  0  0  0  0  0  0
  1  2  1  0
  2  3  1  0
  3  4  2  0
  4  5  1  0
  5  6  2  0
  6  7  1  0
  7  8  2  0
  8  9  1  0
  9 10  1  0
  6 11  1  0
 11 12  2  0
 12 13  1  0
 13 14  2  0
 14 15  1  0
 15 16  1  0
 16 17  1  0
 17 18  1  0
 18 19  1  0
 19 20  1  0
 18 21  1  0
 21 22  2  0
 22 23  1  0
 23 24  2  0
 24 25  1  0
 25 26  2  0
 26 27  1  0
 27 28  1  0
 12 29  1  0
 29 30  1  0
 30 31  1  0
 30 32  1  0
  8  3  1  0
 20 15  1  0
 26 21  1  0
 14  5  1  0
  1 33  1  0
  1 34  1  0
  1 35  1  0
  4 36  1  0
  7 37  1  0
 10 38  1  0
 10 39  1  0
 10 40  1  0
 16 41  1  0
 16 42  1  0
 17 43  1  0
 17 44  1  0
 19 45  1  0
 19 46  1  0
 20 47  1  0
 20 48  1  0
 22 49  1  0
 23 50  1  0
 24 51  1  0
 25 52  1  0
 28 53  1  0
 28 54  1  0
 28 55  1  0
 29 56  1  0
 29 57  1  0
 30 58  1  0
 31 59  1  0
 31 60  1  0
 31 61  1  0
 32 62  1  0
 32 63  1  0
 32 64  1  0
M  END
>  <Ligand ID>  (1) 
LIG0003466

>  <Ligand>  (1) 
CHEMBL2431118

>  <SMILES>  (1) 
COc1cc2c(cc1OC)nc(nc2N1CCN(CC1)c1ccccc1OC)CC(C)C

>  <CID>  (1) 
56593282.0

>  <ChEMBL ID>  (1) 
nan

>  <InChiKey>  (1) 
JMACYYSITUBWPB-UHFFFAOYSA-N

>  <InChi>  (1) 
InChI=1S/C25H32N4O3/c1-17(2)14-24-26-19-16-23(32-5)22(31-4)15-18(19)25(27-24)29-12-10-28(11-13-29)20-8-6-7-9-21(20)30-3/h6-9,15-17H,10-14H2,1-5H3

>  <IUPAC Name>  (1) 
6,7-dimethoxy-4-[4-(2-methoxyphenyl)piperazin-1-yl]-2-(2-methylpropyl)quinazoline

$$$$
