
     RDKit          3D

 50 53  0  0  0  0  0  0  0  0999 V2000
    6.2604   -2.0780    1.7599 C   0  0  0  0  0  0  0  0  0  0  0  0
    5.2056   -1.5217    0.9345 N   0  0  0  0  0  0  0  0  0  0  0  0
    5.5787   -0.5458   -0.0299 C   0  0  0  0  0  0  0  0  0  0  0  0
    6.8121   -0.2240   -0.1064 O   0  0  0  0  0  0  0  0  0  0  0  0
    4.6461    0.1202   -0.9463 C   0  0  1  0  0  0  0  0  0  0  0  0
    3.3314   -0.2916   -0.7911 O   0  0  0  0  0  0  0  0  0  0  0  0
    2.5783    0.7350   -1.3500 C   0  0  2  0  0  0  0  0  0  0  0  0
    3.1865    1.9328   -0.6446 C   0  0  1  0  0  0  0  0  0  0  0  0
    4.6708    1.6205   -0.8611 C   0  0  2  0  0  0  0  0  0  0  0  0
    4.9942    2.1673   -2.1050 O   0  0  0  0  0  0  0  0  0  0  0  0
    2.8092    3.1439   -1.1877 O   0  0  0  0  0  0  0  0  0  0  0  0
    1.1772    0.5889   -1.1685 N   0  0  0  0  0  0  0  0  0  0  0  0
    0.2526    1.1491   -2.0036 C   0  0  0  0  0  0  0  0  0  0  0  0
   -0.9742    0.8486   -1.5937 N   0  0  0  0  0  0  0  0  0  0  0  0
   -0.8320    0.0920   -0.4902 C   0  0  0  0  0  0  0  0  0  0  0  0
    0.5093   -0.0767   -0.2153 C   0  0  0  0  0  0  0  0  0  0  0  0
    0.9055   -0.8028    0.8494 N   0  0  0  0  0  0  0  0  0  0  0  0
   -0.0649   -1.3482    1.6212 C   0  0  0  0  0  0  0  0  0  0  0  0
    0.2614   -2.1369    2.7754 N   0  0  0  0  0  0  0  0  0  0  0  0
   -1.3748   -1.1913    1.3642 N   0  0  0  0  0  0  0  0  0  0  0  0
   -1.8144   -0.4760    0.3141 C   0  0  0  0  0  0  0  0  0  0  0  0
   -3.2010   -0.3033    0.0324 N   0  0  0  0  0  0  0  0  0  0  0  0
   -4.2510   -0.8685    0.8312 C   0  0  0  0  0  0  0  0  0  0  0  0
   -5.6111   -0.5467    0.3332 C   0  0  0  0  0  0  0  0  0  0  0  0
   -6.2566   -1.3766   -0.5868 C   0  0  0  0  0  0  0  0  0  0  0  0
   -7.5384   -1.0229   -1.0211 C   0  0  0  0  0  0  0  0  0  0  0  0
   -8.1626    0.1147   -0.5609 C   0  0  0  0  0  0  0  0  0  0  0  0
   -7.5214    0.9294    0.3463 C   0  0  0  0  0  0  0  0  0  0  0  0
   -6.2460    0.6090    0.8003 C   0  0  0  0  0  0  0  0  0  0  0  0
    6.7539   -2.9204    1.2259 H   0  0  0  0  0  0  0  0  0  0  0  0
    7.0575   -1.3308    1.9680 H   0  0  0  0  0  0  0  0  0  0  0  0
    5.8027   -2.3966    2.7094 H   0  0  0  0  0  0  0  0  0  0  0  0
    4.2025   -1.7951    1.0092 H   0  0  0  0  0  0  0  0  0  0  0  0
    4.9478   -0.1944   -1.9886 H   0  0  0  0  0  0  0  0  0  0  0  0
    2.8529    0.8116   -2.4124 H   0  0  0  0  0  0  0  0  0  0  0  0
    3.0491    1.8855    0.4576 H   0  0  0  0  0  0  0  0  0  0  0  0
    5.2946    2.0140   -0.0361 H   0  0  0  0  0  0  0  0  0  0  0  0
    5.1596    1.4625   -2.7800 H   0  0  0  0  0  0  0  0  0  0  0  0
    2.8552    3.8477   -0.4873 H   0  0  0  0  0  0  0  0  0  0  0  0
    0.4726    1.7492   -2.8716 H   0  0  0  0  0  0  0  0  0  0  0  0
    1.0747   -1.8432    3.3877 H   0  0  0  0  0  0  0  0  0  0  0  0
   -0.3130   -2.9952    2.9952 H   0  0  0  0  0  0  0  0  0  0  0  0
   -3.4582    0.2628   -0.7966 H   0  0  0  0  0  0  0  0  0  0  0  0
   -4.1909   -1.9953    0.8288 H   0  0  0  0  0  0  0  0  0  0  0  0
   -4.1634   -0.5328    1.8718 H   0  0  0  0  0  0  0  0  0  0  0  0
   -5.7825   -2.2691   -0.9562 H   0  0  0  0  0  0  0  0  0  0  0  0
   -8.0426   -1.6735   -1.7413 H   0  0  0  0  0  0  0  0  0  0  0  0
   -9.1572    0.3564   -0.9206 H   0  0  0  0  0  0  0  0  0  0  0  0
   -7.9992    1.8323    0.7208 H   0  0  0  0  0  0  0  0  0  0  0  0
   -5.7470    1.2573    1.5162 H   0  0  0  0  0  0  0  0  0  0  0  0
  1  2  1  0
  2  3  1  0
  3  4  2  0
  3  5  1  0
  5  6  1  0
  6  7  1  0
  7  8  1  0
  8  9  1  0
  9 10  1  0
  8 11  1  0
  7 12  1  0
 12 13  1  0
 13 14  2  0
 14 15  1  0
 15 16  2  0
 16 17  1  0
 17 18  2  0
 18 19  1  0
 18 20  1  0
 20 21  2  0
 21 22  1  0
 22 23  1  0
 23 24  1  0
 24 25  2  0
 25 26  1  0
 26 27  2  0
 27 28  1  0
 28 29  2  0
  9  5  1  0
 16 12  1  0
 29 24  1  0
 21 15  1  0
  1 30  1  0
  1 31  1  0
  1 32  1  0
  2 33  1  0
  5 34  1  6
  7 35  1  6
  8 36  1  1
  9 37  1  1
 10 38  1  0
 11 39  1  0
 13 40  1  0
 19 41  1  0
 19 42  1  0
 22 43  1  0
 23 44  1  0
 23 45  1  0
 25 46  1  0
 26 47  1  0
 27 48  1  0
 28 49  1  0
 29 50  1  0
M  END
>  <Ligand ID>  (1) 
LIG0001983

>  <Ligand>  (1) 
CHEMBL3133160

>  <SMILES>  (1) 
CNC(=O)[C@H]1O[C@H]([C@@H]([C@@H]1O)O)n1cnc2c1nc(N)nc2NCc1ccccc1

>  <CID>  (1) 
76329266.0

>  <ChEMBL ID>  (1) 
nan

>  <InChiKey>  (1) 
FZEBWDIAMQALDL-PFHKOEEOSA-N

>  <InChi>  (1) 
InChI=1S/C18H21N7O4/c1-20-16(28)13-11(26)12(27)17(29-13)25-8-22-10-14(23-18(19)24-15(10)25)21-7-9-5-3-2-4-6-9/h2-6,8,11-13,17,26-27H,7H2,1H3,(H,20,28)(H3,19,21,23,24)/t11-,12+,13-,17+/m0/s1

>  <IUPAC Name>  (1) 
(2S,3S,4R,5R)-5-[2-amino-6-(benzylamino)purin-9-yl]-3,4-dihydroxy-N-methyloxolane-2-carboxamide

$$$$
