
     RDKit          3D

 54 56  0  0  0  0  0  0  0  0999 V2000
   -6.9486   -2.1910    1.8528 N   0  0  0  0  0  0  0  0  0  0  0  0
   -7.3939   -1.3631    1.1448 C   0  0  0  0  0  0  0  0  0  0  0  0
   -7.9284   -0.3611    0.2639 C   0  0  0  0  0  0  0  0  0  0  0  0
   -9.2851   -0.0328    0.2779 C   0  0  0  0  0  0  0  0  0  0  0  0
   -9.7668    0.9197   -0.5673 N   0  0  0  0  0  0  0  0  0  0  0  0
   -8.9587    1.5701   -1.4359 C   0  0  0  0  0  0  0  0  0  0  0  0
   -7.5930    1.2653   -1.4761 C   0  0  0  0  0  0  0  0  0  0  0  0
   -7.0885    0.2884   -0.6119 C   0  0  0  0  0  0  0  0  0  0  0  0
   -5.6365    0.0225   -0.7085 C   0  0  0  0  0  0  0  0  0  0  0  0
   -4.8821    0.5899    0.3268 O   0  0  0  0  0  0  0  0  0  0  0  0
   -3.4898    0.3907    0.3198 C   0  0  0  0  0  0  0  0  0  0  0  0
   -2.6824    0.9179    1.2998 C   0  0  0  0  0  0  0  0  0  0  0  0
   -1.3623    0.6819    1.2208 N   0  0  0  0  0  0  0  0  0  0  0  0
   -0.7583   -0.0275    0.2641 C   0  0  0  0  0  0  0  0  0  0  0  0
   -1.5386   -0.5489   -0.7008 N   0  0  0  0  0  0  0  0  0  0  0  0
   -2.8754   -0.3464   -0.6769 C   0  0  0  0  0  0  0  0  0  0  0  0
    0.6659   -0.2124    0.2809 N   0  0  0  0  0  0  0  0  0  0  0  0
    1.2304   -1.0336   -0.7521 C   0  0  0  0  0  0  0  0  0  0  0  0
    2.6608   -1.3966   -0.5762 C   0  0  0  0  0  0  0  0  0  0  0  0
    3.3004   -0.8123    0.5870 N   0  0  0  0  0  0  0  0  0  0  0  0
    2.4904   -0.5589    1.7622 C   0  0  0  0  0  0  0  0  0  0  0  0
    1.4353    0.4344    1.3254 C   0  0  1  0  0  0  0  0  0  0  0  0
    2.0433    1.7258    0.8223 C   0  0  0  0  0  0  0  0  0  0  0  0
    4.6808   -0.4766    0.6345 C   0  0  0  0  0  0  0  0  0  0  0  0
    5.2258    0.0326    1.6478 O   0  0  0  0  0  0  0  0  0  0  0  0
    5.5217   -0.6982   -0.4620 O   0  0  0  0  0  0  0  0  0  0  0  0
    6.8970   -0.3654   -0.4206 C   0  0  0  0  0  0  0  0  0  0  0  0
    7.4820   -0.7243   -1.7171 C   0  0  0  0  0  0  0  0  0  0  0  0
    7.9269   -1.0069   -2.7474 N   0  0  0  0  0  0  0  0  0  0  0  0
    7.6538   -1.0747    0.6599 C   0  0  0  0  0  0  0  0  0  0  0  0
    7.1078    1.1237   -0.2593 C   0  0  0  0  0  0  0  0  0  0  0  0
   -9.9035   -0.5632    0.9766 H   0  0  0  0  0  0  0  0  0  0  0  0
   -9.3103    2.3302   -2.1186 H   0  0  0  0  0  0  0  0  0  0  0  0
   -6.9228    1.7849   -2.1759 H   0  0  0  0  0  0  0  0  0  0  0  0
   -5.4909   -1.0775   -0.6691 H   0  0  0  0  0  0  0  0  0  0  0  0
   -5.2401    0.3136   -1.7222 H   0  0  0  0  0  0  0  0  0  0  0  0
   -3.0953    1.5012    2.1044 H   0  0  0  0  0  0  0  0  0  0  0  0
   -3.5064   -0.7688   -1.4573 H   0  0  0  0  0  0  0  0  0  0  0  0
    1.0843   -0.5687   -1.7697 H   0  0  0  0  0  0  0  0  0  0  0  0
    0.6237   -1.9788   -0.8206 H   0  0  0  0  0  0  0  0  0  0  0  0
    2.7592   -2.4938   -0.4496 H   0  0  0  0  0  0  0  0  0  0  0  0
    3.2464   -1.1452   -1.4978 H   0  0  0  0  0  0  0  0  0  0  0  0
    3.0873   -0.1924    2.6152 H   0  0  0  0  0  0  0  0  0  0  0  0
    1.9443   -1.5061    1.9887 H   0  0  0  0  0  0  0  0  0  0  0  0
    0.8074    0.6790    2.1927 H   0  0  0  0  0  0  0  0  0  0  0  0
    2.6450    1.5915   -0.0989 H   0  0  0  0  0  0  0  0  0  0  0  0
    2.5681    2.2044    1.6572 H   0  0  0  0  0  0  0  0  0  0  0  0
    1.1878    2.3739    0.5419 H   0  0  0  0  0  0  0  0  0  0  0  0
    7.8531   -0.3959    1.5407 H   0  0  0  0  0  0  0  0  0  0  0  0
    8.6713   -1.3193    0.2754 H   0  0  0  0  0  0  0  0  0  0  0  0
    7.2003   -2.0377    0.9772 H   0  0  0  0  0  0  0  0  0  0  0  0
    6.3491    1.6207    0.3526 H   0  0  0  0  0  0  0  0  0  0  0  0
    8.0935    1.2761    0.2411 H   0  0  0  0  0  0  0  0  0  0  0  0
    7.2145    1.6400   -1.2583 H   0  0  0  0  0  0  0  0  0  0  0  0
  1  2  3  0
  2  3  1  0
  3  4  2  0
  4  5  1  0
  5  6  2  0
  6  7  1  0
  7  8  2  0
  8  9  1  0
  9 10  1  0
 10 11  1  0
 11 12  2  0
 12 13  1  0
 13 14  2  0
 14 15  1  0
 15 16  2  0
 14 17  1  0
 17 18  1  0
 18 19  1  0
 19 20  1  0
 20 21  1  0
 21 22  1  0
 22 23  1  0
 20 24  1  0
 24 25  2  0
 24 26  1  0
 26 27  1  0
 27 28  1  0
 28 29  3  0
 27 30  1  0
 27 31  1  0
  8  3  1  0
 16 11  1  0
 22 17  1  0
  4 32  1  0
  6 33  1  0
  7 34  1  0
  9 35  1  0
  9 36  1  0
 12 37  1  0
 16 38  1  0
 18 39  1  0
 18 40  1  0
 19 41  1  0
 19 42  1  0
 21 43  1  0
 21 44  1  0
 22 45  1  1
 23 46  1  0
 23 47  1  0
 23 48  1  0
 30 49  1  0
 30 50  1  0
 30 51  1  0
 31 52  1  0
 31 53  1  0
 31 54  1  0
M  END
>  <Ligand ID>  (1) 
LIG0005292

>  <Ligand>  (1) 
CHEMBL2086686

>  <SMILES>  (1) 
N#Cc1cnccc1COc1cnc(nc1)N1CCN(C[C@H]1C)C(=O)OC(C#N)(C)C

>  <CID>  (1) 
51030529.0

>  <ChEMBL ID>  (1) 
nan

>  <InChiKey>  (1) 
AXCPODYQWVLWMM-OAHLLOKOSA-N

>  <InChi>  (1) 
InChI=1S/C21H23N7O3/c1-15-12-27(20(29)31-21(2,3)14-23)6-7-28(15)19-25-10-18(11-26-19)30-13-16-4-5-24-9-17(16)8-22/h4-5,9-11,15H,6-7,12-13H2,1-3H3/t15-/m1/s1

>  <IUPAC Name>  (1) 
2-cyanopropan-2-yl (3R)-4-[5-[(3-cyanopyridin-4-yl)methoxy]pyrimidin-2-yl]-3-methylpiperazine-1-carboxylate

$$$$
