
     RDKit          3D

134138  0  0  0  0  0  0  0  0999 V2000
    1.4369   -4.1361   -1.8714 O   0  0  0  0  0  0  0  0  0  0  0  0
    0.6944   -3.5950   -1.0424 C   0  0  0  0  0  0  0  0  0  0  0  0
   -0.4224   -2.7646   -1.5384 C   0  0  0  0  0  0  0  0  0  0  0  0
   -1.2354   -2.1567   -0.5133 N   0  0  0  0  0  0  0  0  0  0  0  0
   -2.4303   -1.3928   -0.8845 C   0  0  0  0  0  0  0  0  0  0  0  0
   -2.5945   -1.3483   -2.1123 O   0  0  0  0  0  0  0  0  0  0  0  0
   -3.2984   -0.7924    0.1388 C   0  0  2  0  0  0  0  0  0  0  0  0
   -4.6427   -0.6719   -0.4317 N   0  0  0  0  0  0  0  0  0  0  0  0
   -5.5593   -1.6981   -0.0265 C   0  0  0  0  0  0  0  0  0  0  0  0
   -5.2151   -2.6269    0.7594 O   0  0  0  0  0  0  0  0  0  0  0  0
   -6.9681   -1.7398   -0.5052 C   0  0  2  0  0  0  0  0  0  0  0  0
   -7.8273   -0.6608    0.1279 C   0  0  0  0  0  0  0  0  0  0  0  0
   -9.2059   -0.8015   -0.4175 C   0  0  0  0  0  0  0  0  0  0  0  0
  -10.1090   -1.6269    0.2011 C   0  0  0  0  0  0  0  0  0  0  0  0
  -11.4108   -1.8046   -0.2340 C   0  0  0  0  0  0  0  0  0  0  0  0
  -11.8101   -1.0953   -1.3704 C   0  0  0  0  0  0  0  0  0  0  0  0
  -10.9079   -0.2573   -2.0050 C   0  0  0  0  0  0  0  0  0  0  0  0
   -9.5993   -0.0914   -1.5495 C   0  0  0  0  0  0  0  0  0  0  0  0
  -13.1167   -1.2465   -1.8447 O   0  0  0  0  0  0  0  0  0  0  0  0
   -7.5868   -2.9986   -0.1303 N   0  0  0  0  0  0  0  0  0  0  0  0
   -2.9102    0.5366    0.6958 C   0  0  0  0  0  0  0  0  0  0  0  0
   -3.9425    0.9593    1.7223 C   0  0  0  0  0  0  0  0  0  0  0  0
   -2.9900    1.5674   -0.4630 C   0  0  0  0  0  0  0  0  0  0  0  0
   -1.2786    0.6681    1.4016 S   0  0  0  0  0  0  0  0  0  0  0  0
    0.1336    1.4895    0.0606 S   0  0  0  0  0  0  0  0  0  0  0  0
    0.3715    3.2425    0.2789 C   0  0  0  0  0  0  0  0  0  0  0  0
   -0.8601    4.0704   -0.0324 C   0  0  0  0  0  0  0  0  0  0  0  0
    0.7748    3.4361    1.7404 C   0  0  0  0  0  0  0  0  0  0  0  0
    1.5213    3.7579   -0.5541 C   0  0  1  0  0  0  0  0  0  0  0  0
    1.5404    5.2331   -0.3441 N   0  0  0  0  0  0  0  0  0  0  0  0
    1.3593    6.0799   -1.4478 C   0  0  0  0  0  0  0  0  0  0  0  0
    1.1629    5.4547   -2.5742 O   0  0  0  0  0  0  0  0  0  0  0  0
    1.3584    7.5181   -1.5469 C   0  0  2  0  0  0  0  0  0  0  0  0
    0.4470    8.3746   -0.7768 C   0  0  0  0  0  0  0  0  0  0  0  0
    0.5475    8.3193    0.6789 C   0  0  0  0  0  0  0  0  0  0  0  0
   -0.2357    7.6045    1.5374 C   0  0  0  0  0  0  0  0  0  0  0  0
   -0.0891    7.6009    2.9124 C   0  0  0  0  0  0  0  0  0  0  0  0
    0.9176    8.3704    3.4986 C   0  0  0  0  0  0  0  0  0  0  0  0
    1.7156    9.0963    2.6486 C   0  0  0  0  0  0  0  0  0  0  0  0
    1.5593    9.0911    1.2728 C   0  0  0  0  0  0  0  0  0  0  0  0
    1.1108    8.4073    4.8673 O   0  0  0  0  0  0  0  0  0  0  0  0
    1.1844    7.8155   -3.0020 N   0  0  0  0  0  0  0  0  0  0  0  0
    2.7997    3.2716   -0.0205 C   0  0  0  0  0  0  0  0  0  0  0  0
    3.4579    4.0010    0.7465 O   0  0  0  0  0  0  0  0  0  0  0  0
    3.4023    2.0170   -0.3004 N   0  0  0  0  0  0  0  0  0  0  0  0
    4.7022    1.7316    0.3306 C   0  0  0  0  0  0  0  0  0  0  0  0
    5.2255    0.4338   -0.1517 C   0  0  0  0  0  0  0  0  0  0  0  0
    4.5533   -0.1846   -0.9940 O   0  0  0  0  0  0  0  0  0  0  0  0
    6.4286   -0.1788    0.2640 N   0  0  0  0  0  0  0  0  0  0  0  0
    6.7597   -1.4594   -0.4156 C   0  0  2  0  0  0  0  0  0  0  0  0
    5.8927   -2.5116    0.1744 C   0  0  0  0  0  0  0  0  0  0  0  0
    5.2699   -2.2779    1.2321 O   0  0  0  0  0  0  0  0  0  0  0  0
    5.6669   -3.7973   -0.3566 N   0  0  0  0  0  0  0  0  0  0  0  0
    4.7268   -4.5827    0.4109 N   0  0  0  0  0  0  0  0  0  0  0  0
    3.3911   -4.1191    0.1783 C   0  0  0  0  0  0  0  0  0  0  0  0
    3.3719   -3.1423   -0.6182 O   0  0  0  0  0  0  0  0  0  0  0  0
    2.1522   -4.6543    0.7549 C   0  0  1  0  0  0  0  0  0  0  0  0
    0.9994   -3.8382    0.3219 N   0  0  0  0  0  0  0  0  0  0  0  0
    1.8885   -6.0646    0.2831 C   0  0  0  0  0  0  0  0  0  0  0  0
    0.6710   -6.6770    0.8202 C   0  0  0  0  0  0  0  0  0  0  0  0
   -0.5723   -6.6185    0.2401 C   0  0  0  0  0  0  0  0  0  0  0  0
   -1.6766   -7.2376    0.8326 C   0  0  0  0  0  0  0  0  0  0  0  0
   -1.5130   -7.9181    2.0172 C   0  0  0  0  0  0  0  0  0  0  0  0
   -0.2824   -7.9960    2.6227 C   0  0  0  0  0  0  0  0  0  0  0  0
    0.7976   -7.3786    2.0252 C   0  0  0  0  0  0  0  0  0  0  0  0
    8.1861   -1.7792   -0.3251 C   0  0  0  0  0  0  0  0  0  0  0  0
    8.5888   -3.0412   -0.9763 C   0  0  0  0  0  0  0  0  0  0  0  0
    8.7332   -4.2423   -0.3178 C   0  0  0  0  0  0  0  0  0  0  0  0
    9.1007   -5.3503   -1.0570 C   0  0  0  0  0  0  0  0  0  0  0  0
    9.3315   -5.3273   -2.4126 C   0  0  0  0  0  0  0  0  0  0  0  0
    9.1852   -4.1172   -3.0679 C   0  0  0  0  0  0  0  0  0  0  0  0
    8.8195   -3.0212   -2.3272 C   0  0  0  0  0  0  0  0  0  0  0  0
   -1.0770   -3.4838   -2.1173 H   0  0  0  0  0  0  0  0  0  0  0  0
   -0.0449   -2.0118   -2.2705 H   0  0  0  0  0  0  0  0  0  0  0  0
   -1.0854   -2.1790    0.4933 H   0  0  0  0  0  0  0  0  0  0  0  0
   -3.3387   -1.5155    1.0127 H   0  0  0  0  0  0  0  0  0  0  0  0
   -4.9970    0.0313   -1.0696 H   0  0  0  0  0  0  0  0  0  0  0  0
   -7.0475   -1.6267   -1.5991 H   0  0  0  0  0  0  0  0  0  0  0  0
   -7.4854    0.3591   -0.1191 H   0  0  0  0  0  0  0  0  0  0  0  0
   -7.8960   -0.7898    1.2298 H   0  0  0  0  0  0  0  0  0  0  0  0
   -9.7882   -2.1744    1.0882 H   0  0  0  0  0  0  0  0  0  0  0  0
  -12.1127   -2.4628    0.2668 H   0  0  0  0  0  0  0  0  0  0  0  0
  -11.2713    0.2739   -2.8851 H   0  0  0  0  0  0  0  0  0  0  0  0
   -8.9172    0.5754   -2.0699 H   0  0  0  0  0  0  0  0  0  0  0  0
  -13.2456   -1.8482   -2.6394 H   0  0  0  0  0  0  0  0  0  0  0  0
   -7.8752   -3.4887   -1.0005 H   0  0  0  0  0  0  0  0  0  0  0  0
   -6.8792   -3.5737    0.4075 H   0  0  0  0  0  0  0  0  0  0  0  0
   -3.5051    1.7399    2.3656 H   0  0  0  0  0  0  0  0  0  0  0  0
   -4.2269    0.0956    2.3649 H   0  0  0  0  0  0  0  0  0  0  0  0
   -4.8456    1.4214    1.2526 H   0  0  0  0  0  0  0  0  0  0  0  0
   -3.7092    1.3057   -1.2276 H   0  0  0  0  0  0  0  0  0  0  0  0
   -1.9511    1.6102   -0.8734 H   0  0  0  0  0  0  0  0  0  0  0  0
   -3.2592    2.5456   -0.0619 H   0  0  0  0  0  0  0  0  0  0  0  0
   -0.5220    5.1431   -0.0908 H   0  0  0  0  0  0  0  0  0  0  0  0
   -1.5878    3.9275    0.7492 H   0  0  0  0  0  0  0  0  0  0  0  0
   -1.2365    3.7651   -1.0141 H   0  0  0  0  0  0  0  0  0  0  0  0
    0.0055    3.0077    2.4186 H   0  0  0  0  0  0  0  0  0  0  0  0
    1.7473    2.9236    1.8835 H   0  0  0  0  0  0  0  0  0  0  0  0
    0.9164    4.4999    2.0068 H   0  0  0  0  0  0  0  0  0  0  0  0
    1.3634    3.5427   -1.6069 H   0  0  0  0  0  0  0  0  0  0  0  0
    1.6865    5.6615    0.5812 H   0  0  0  0  0  0  0  0  0  0  0  0
    2.4510    7.8468   -1.3916 H   0  0  0  0  0  0  0  0  0  0  0  0
   -0.6280    8.2935   -1.1217 H   0  0  0  0  0  0  0  0  0  0  0  0
    0.6779    9.4589   -1.0585 H   0  0  0  0  0  0  0  0  0  0  0  0
   -1.0360    7.0098    1.1404 H   0  0  0  0  0  0  0  0  0  0  0  0
   -0.7256    7.0265    3.5736 H   0  0  0  0  0  0  0  0  0  0  0  0
    2.4990    9.6964    3.1114 H   0  0  0  0  0  0  0  0  0  0  0  0
    2.2336    9.6934    0.6889 H   0  0  0  0  0  0  0  0  0  0  0  0
    0.6084    7.7390    5.4565 H   0  0  0  0  0  0  0  0  0  0  0  0
    0.2568    7.4295   -3.2785 H   0  0  0  0  0  0  0  0  0  0  0  0
    1.2000    8.8639   -3.0359 H   0  0  0  0  0  0  0  0  0  0  0  0
    2.8984    1.3997   -0.9177 H   0  0  0  0  0  0  0  0  0  0  0  0
    5.4055    2.5635    0.2295 H   0  0  0  0  0  0  0  0  0  0  0  0
    4.4355    1.5597    1.4138 H   0  0  0  0  0  0  0  0  0  0  0  0
    6.9760    0.2661    0.9720 H   0  0  0  0  0  0  0  0  0  0  0  0
    6.4060   -1.2766   -1.4819 H   0  0  0  0  0  0  0  0  0  0  0  0
    6.0429   -4.2339   -1.1571 H   0  0  0  0  0  0  0  0  0  0  0  0
    4.9466   -5.3296    1.0012 H   0  0  0  0  0  0  0  0  0  0  0  0
    2.1561   -4.6689    1.8703 H   0  0  0  0  0  0  0  0  0  0  0  0
    0.3745   -3.4180    1.0039 H   0  0  0  0  0  0  0  0  0  0  0  0
    1.8379   -6.1704   -0.8202 H   0  0  0  0  0  0  0  0  0  0  0  0
    2.7771   -6.7058    0.5679 H   0  0  0  0  0  0  0  0  0  0  0  0
   -0.7008   -6.0853   -0.6891 H   0  0  0  0  0  0  0  0  0  0  0  0
   -2.6645   -7.2030    0.3902 H   0  0  0  0  0  0  0  0  0  0  0  0
   -2.3517   -8.4196    2.5130 H   0  0  0  0  0  0  0  0  0  0  0  0
   -0.1543   -8.5342    3.5537 H   0  0  0  0  0  0  0  0  0  0  0  0
    1.7548   -7.4627    2.5349 H   0  0  0  0  0  0  0  0  0  0  0  0
    8.8408   -0.9312   -0.7137 H   0  0  0  0  0  0  0  0  0  0  0  0
    8.5519   -1.8666    0.7428 H   0  0  0  0  0  0  0  0  0  0  0  0
    8.5601   -4.3001    0.7417 H   0  0  0  0  0  0  0  0  0  0  0  0
    9.2273   -6.3248   -0.5718 H   0  0  0  0  0  0  0  0  0  0  0  0
    9.6183   -6.2053   -2.9774 H   0  0  0  0  0  0  0  0  0  0  0  0
    9.3497   -4.0296   -4.1251 H   0  0  0  0  0  0  0  0  0  0  0  0
    8.7131   -2.0837   -2.8790 H   0  0  0  0  0  0  0  0  0  0  0  0
  1  2  2  0
  2  3  1  0
  3  4  1  0
  4  5  1  0
  5  6  2  0
  5  7  1  0
  7  8  1  0
  8  9  1  0
  9 10  2  0
  9 11  1  0
 11 12  1  0
 12 13  1  0
 13 14  2  0
 14 15  1  0
 15 16  2  0
 16 17  1  0
 17 18  2  0
 16 19  1  0
 11 20  1  0
  7 21  1  0
 21 22  1  0
 21 23  1  0
 21 24  1  0
 24 25  1  0
 25 26  1  0
 26 27  1  0
 26 28  1  0
 26 29  1  0
 29 30  1  0
 30 31  1  0
 31 32  2  0
 31 33  1  0
 33 34  1  0
 34 35  1  0
 35 36  2  0
 36 37  1  0
 37 38  2  0
 38 39  1  0
 39 40  2  0
 38 41  1  0
 33 42  1  0
 29 43  1  0
 43 44  2  0
 43 45  1  0
 45 46  1  0
 46 47  1  0
 47 48  2  0
 47 49  1  0
 49 50  1  0
 50 51  1  0
 51 52  2  0
 51 53  1  0
 53 54  1  0
 54 55  1  0
 55 56  2  0
 55 57  1  0
 57 58  1  0
 57 59  1  0
 59 60  1  0
 60 61  2  0
 61 62  1  0
 62 63  2  0
 63 64  1  0
 64 65  2  0
 50 66  1  0
 66 67  1  0
 67 68  2  0
 68 69  1  0
 69 70  2  0
 70 71  1  0
 71 72  2  0
 58  2  1  0
 65 60  1  0
 72 67  1  0
 18 13  1  0
 40 35  1  0
  3 73  1  0
  3 74  1  0
  4 75  1  0
  7 76  1  1
  8 77  1  0
 11 78  1  6
 12 79  1  0
 12 80  1  0
 14 81  1  0
 15 82  1  0
 17 83  1  0
 18 84  1  0
 19 85  1  0
 20 86  1  0
 20 87  1  0
 22 88  1  0
 22 89  1  0
 22 90  1  0
 23 91  1  0
 23 92  1  0
 23 93  1  0
 27 94  1  0
 27 95  1  0
 27 96  1  0
 28 97  1  0
 28 98  1  0
 28 99  1  0
 29100  1  6
 30101  1  0
 33102  1  1
 34103  1  0
 34104  1  0
 36105  1  0
 37106  1  0
 39107  1  0
 40108  1  0
 41109  1  0
 42110  1  0
 42111  1  0
 45112  1  0
 46113  1  0
 46114  1  0
 49115  1  0
 50116  1  6
 53117  1  0
 54118  1  0
 57119  1  1
 58120  1  0
 59121  1  0
 59122  1  0
 61123  1  0
 62124  1  0
 63125  1  0
 64126  1  0
 65127  1  0
 66128  1  0
 66129  1  0
 68130  1  0
 69131  1  0
 70132  1  0
 71133  1  0
 72134  1  0
M  END
>  <Ligand ID>  (1) 
LIG0003557

>  <Ligand>  (1) 
CHEMBL3331510

>  <SMILES>  (1) 
O=C1CNC(=O)[C@H](NC(=O)[C@H](Cc2ccc(cc2)O)N)C(C)(C)SSC(C)(C)[C@@H](NC(=O)[C@H](Cc2ccc(cc2)O)N)C(=O)NCC(=O)N[C@H](C(=O)NNC(=O)[C@@H](N1)Cc1ccccc1)Cc1ccccc1

>  <CID>  (1) 
118713810.0

>  <ChEMBL ID>  (1) 
nan

>  <InChiKey>  (1) 
BNEJMYFGXBQLFU-CIJOKURBSA-N

>  <InChi>  (1) 
InChI=1S/C50H62N10O10S2/c1-49(2)41(57-43(65)35(51)23-31-15-19-33(61)20-16-31)47(69)53-27-39(63)55-37(25-29-11-7-5-8-12-29)45(67)59-60-46(68)38(26-30-13-9-6-10-14-30)56-40(64)28-54-48(70)42(50(3,4)72-71-49)58-44(66)36(52)24-32-17-21-34(62)22-18-32/h5-22,35-38,41-42,61-62H,23-28,51-52H2,1-4H3,(H,53,69)(H,54,70)(H,55,63)(H,56,64)(H,57,65)(H,58,66)(H,59,67)(H,60,68)/t35-,36-,37-,38-,41-,42-/m0/s1

>  <IUPAC Name>  (1) 
(2S)-2-amino-N-[(4S,10S,15S,21S)-21-[[(2S)-2-amino-3-(4-hydroxyphenyl)propanoyl]amino]-10,15-dibenzyl-3,3,22,22-tetramethyl-5,8,11,14,17,20-hexaoxo-1,2-dithia-6,9,12,13,16,19-hexazacyclodocos-4-yl]-3-(4-hydroxyphenyl)propanamide

$$$$
