
     RDKit          3D

 45 48  0  0  0  0  0  0  0  0999 V2000
   -4.6040    2.4995    0.0817 O   0  0  0  0  0  0  0  0  0  0  0  0
   -3.4237    1.8792   -0.3314 C   0  0  0  0  0  0  0  0  0  0  0  0
   -2.7209    2.3415   -1.4538 C   0  0  0  0  0  0  0  0  0  0  0  0
   -1.5664    1.6818   -1.8027 C   0  0  0  0  0  0  0  0  0  0  0  0
   -1.0603    0.5960   -1.1173 C   0  0  0  0  0  0  0  0  0  0  0  0
   -1.7712    0.1676   -0.0224 C   0  0  0  0  0  0  0  0  0  0  0  0
   -2.9329    0.7791    0.3837 C   0  0  0  0  0  0  0  0  0  0  0  0
   -1.2719   -1.0008    0.7481 C   0  0  2  0  0  0  0  0  0  0  0  0
   -2.4428   -1.7381    1.3696 C   0  0  0  0  0  0  0  0  0  0  0  0
   -0.4290   -0.4746    1.8757 C   0  0  0  0  0  0  0  0  0  0  0  0
    0.8991    0.1017    1.4418 C   0  0  0  0  0  0  0  0  0  0  0  0
    1.5189   -0.5409    0.3806 N   0  0  0  0  0  0  0  0  0  0  0  0
    0.6969   -1.0622   -0.6617 C   0  0  2  0  0  0  0  0  0  0  0  0
    0.1839   -0.0094   -1.6060 C   0  0  0  0  0  0  0  0  0  0  0  0
   -0.4228   -1.9006   -0.0894 C   0  0  2  0  0  0  0  0  0  0  0  0
   -1.1692   -2.6875   -1.1169 C   0  0  0  0  0  0  0  0  0  0  0  0
    2.9058   -0.6256    0.2475 C   0  0  0  0  0  0  0  0  0  0  0  0
    3.5374    0.6906   -0.0765 C   0  0  0  0  0  0  0  0  0  0  0  0
    3.4078    1.8310    0.8504 C   0  0  0  0  0  0  0  0  0  0  0  0
    4.7636    1.1231    0.6691 C   0  0  0  0  0  0  0  0  0  0  0  0
   -4.7145    3.4902    0.0725 H   0  0  0  0  0  0  0  0  0  0  0  0
   -3.1192    3.1924   -1.9882 H   0  0  0  0  0  0  0  0  0  0  0  0
   -1.0365    2.0592   -2.6780 H   0  0  0  0  0  0  0  0  0  0  0  0
   -3.5040    0.4456    1.2491 H   0  0  0  0  0  0  0  0  0  0  0  0
   -2.1768   -2.7874    1.5959 H   0  0  0  0  0  0  0  0  0  0  0  0
   -3.3084   -1.6212    0.6896 H   0  0  0  0  0  0  0  0  0  0  0  0
   -2.7033   -1.2705    2.3538 H   0  0  0  0  0  0  0  0  0  0  0  0
   -1.0020    0.3395    2.3644 H   0  0  0  0  0  0  0  0  0  0  0  0
   -0.2987   -1.2586    2.6695 H   0  0  0  0  0  0  0  0  0  0  0  0
    0.7748    1.1824    1.2514 H   0  0  0  0  0  0  0  0  0  0  0  0
    1.5511    0.0188    2.3623 H   0  0  0  0  0  0  0  0  0  0  0  0
    1.3228   -1.7557   -1.2657 H   0  0  0  0  0  0  0  0  0  0  0  0
   -0.0333   -0.4890   -2.5790 H   0  0  0  0  0  0  0  0  0  0  0  0
    0.9635    0.7754   -1.6833 H   0  0  0  0  0  0  0  0  0  0  0  0
    0.0827   -2.6046    0.6294 H   0  0  0  0  0  0  0  0  0  0  0  0
   -0.4242   -3.1234   -1.8181 H   0  0  0  0  0  0  0  0  0  0  0  0
   -1.8351   -2.0612   -1.7125 H   0  0  0  0  0  0  0  0  0  0  0  0
   -1.6772   -3.5560   -0.6401 H   0  0  0  0  0  0  0  0  0  0  0  0
    3.1792   -1.4009   -0.5098 H   0  0  0  0  0  0  0  0  0  0  0  0
    3.3496   -1.0348    1.2081 H   0  0  0  0  0  0  0  0  0  0  0  0
    3.6115    0.9261   -1.1760 H   0  0  0  0  0  0  0  0  0  0  0  0
    3.3362    2.8651    0.3868 H   0  0  0  0  0  0  0  0  0  0  0  0
    2.9781    1.7946    1.8526 H   0  0  0  0  0  0  0  0  0  0  0  0
    5.5273    1.7322    0.1920 H   0  0  0  0  0  0  0  0  0  0  0  0
    5.0578    0.4905    1.5323 H   0  0  0  0  0  0  0  0  0  0  0  0
  1  2  1  0
  2  3  2  0
  3  4  1  0
  4  5  2  0
  5  6  1  0
  6  7  2  0
  6  8  1  0
  8  9  1  1
  8 10  1  0
 10 11  1  0
 11 12  1  0
 12 13  1  0
 13 14  1  0
 13 15  1  0
 15 16  1  0
 12 17  1  0
 17 18  1  0
 18 19  1  0
 19 20  1  0
  7  2  1  0
 15  8  1  0
 20 18  1  0
 14  5  1  0
  1 21  1  0
  3 22  1  0
  4 23  1  0
  7 24  1  0
  9 25  1  0
  9 26  1  0
  9 27  1  0
 10 28  1  0
 10 29  1  0
 11 30  1  0
 11 31  1  0
 13 32  1  6
 14 33  1  0
 14 34  1  0
 15 35  1  1
 16 36  1  0
 16 37  1  0
 16 38  1  0
 17 39  1  0
 17 40  1  0
 18 41  1  0
 19 42  1  0
 19 43  1  0
 20 44  1  0
 20 45  1  0
M  END
>  <Ligand ID>  (1) 
LIG0005486

>  <Ligand>  (1) 
(-)-cyclazocine

>  <SMILES>  (1) 
Oc1ccc2c(c1)[C@]1(C)CCN([C@H](C2)[C@@H]1C)CC1CC1

>  <CID>  (1) 
3037926.0

>  <ChEMBL ID>  (1) 
nan

>  <InChiKey>  (1) 
YQYVFVRQLZMJKJ-JBBXEZCESA-N

>  <InChi>  (1) 
InChI=1S/C18H25NO/c1-12-17-9-14-5-6-15(20)10-16(14)18(12,2)7-8-19(17)11-13-3-4-13/h5-6,10,12-13,17,20H,3-4,7-9,11H2,1-2H3/t12-,17+,18+/m0/s1

>  <IUPAC Name>  (1) 
(1R,9R,13R)-10-(cyclopropylmethyl)-1,13-dimethyl-10-azatricyclo[7.3.1.02,7]trideca-2(7),3,5-trien-4-ol

$$$$
