
     RDKit          3D

 69 71  0  0  0  0  0  0  0  0999 V2000
    2.3258    1.1927    0.6510 O   0  0  0  0  0  0  0  0  0  0  0  0
    1.4619    0.2953   -0.0774 C   0  0  0  0  0  0  0  0  0  0  0  0
    1.0798   -0.7157    0.9124 C   0  0  0  0  0  0  0  0  0  0  0  0
    0.0533   -1.5755    0.6161 O   0  0  0  0  0  0  0  0  0  0  0  0
   -1.2607   -1.1886    0.5622 C   0  0  0  0  0  0  0  0  0  0  0  0
   -2.3239   -2.0852    0.2557 C   0  0  0  0  0  0  0  0  0  0  0  0
   -3.6623   -1.6164    0.2430 C   0  0  0  0  0  0  0  0  0  0  0  0
   -3.9148   -0.2529    0.5472 C   0  0  0  0  0  0  0  0  0  0  0  0
   -2.8699    0.6491    0.8497 C   0  0  0  0  0  0  0  0  0  0  0  0
   -1.6568    0.0350    0.8083 C   0  0  0  0  0  0  0  0  0  0  0  0
   -5.2246    0.1465    0.5527 O   0  0  0  0  0  0  0  0  0  0  0  0
   -5.7727    1.3899    0.7205 C   0  0  0  0  0  0  0  0  0  0  0  0
   -7.3088    1.3343    0.7956 C   0  0  0  0  0  0  0  0  0  0  0  0
   -7.8549    0.7621   -0.1577 O   0  0  0  0  0  0  0  0  0  0  0  0
   -8.4009    0.1890   -1.1190 C   0  0  0  0  0  0  0  0  0  0  0  0
   -8.8096   -1.2412   -0.6780 C   0  0  0  0  0  0  0  0  0  0  0  0
   -9.9328   -0.9034    0.2908 C   0  0  0  0  0  0  0  0  0  0  0  0
  -10.6040    0.3536   -0.2497 C   0  0  0  0  0  0  0  0  0  0  0  0
   -9.8415    0.6504   -1.4838 C   0  0  0  0  0  0  0  0  0  0  0  0
    2.4205   -0.3967   -1.0759 C   0  0  0  0  0  0  0  0  0  0  0  0
    3.3220   -1.2673   -0.5070 N   0  0  0  0  0  0  0  0  0  0  0  0
    4.2796   -0.8618    0.4251 C   0  0  0  0  0  0  0  0  0  0  0  0
    5.1966   -2.0314    0.8310 C   0  0  0  0  0  0  0  0  0  0  0  0
    6.2024   -2.1975   -0.2262 N   0  0  0  0  0  0  0  0  0  0  0  0
    7.1248   -1.1314   -0.2569 C   0  0  0  0  0  0  0  0  0  0  0  0
    7.0265   -0.2262    0.6587 O   0  0  0  0  0  0  0  0  0  0  0  0
    8.1950   -0.8799   -1.1625 N   0  0  0  0  0  0  0  0  0  0  0  0
    8.9304    0.3044   -0.7667 C   0  0  0  0  0  0  0  0  0  0  0  0
    8.4233    1.5195   -1.1406 C   0  0  0  0  0  0  0  0  0  0  0  0
    9.0656    2.6254   -0.5830 C   0  0  0  0  0  0  0  0  0  0  0  0
   10.1381    2.5179    0.2812 C   0  0  0  0  0  0  0  0  0  0  0  0
   10.5953    1.2405    0.6032 C   0  0  0  0  0  0  0  0  0  0  0  0
    9.9860    0.0930    0.0703 C   0  0  0  0  0  0  0  0  0  0  0  0
   10.7750    3.6177    0.8189 O   0  0  0  0  0  0  0  0  0  0  0  0
    1.6747    1.6808    1.2512 H   0  0  0  0  0  0  0  0  0  0  0  0
    0.7214    0.8388   -0.5537 H   0  0  0  0  0  0  0  0  0  0  0  0
    1.9712   -1.2847    1.3369 H   0  0  0  0  0  0  0  0  0  0  0  0
    0.7682   -0.0945    1.8570 H   0  0  0  0  0  0  0  0  0  0  0  0
   -2.1211   -3.1260    0.0285 H   0  0  0  0  0  0  0  0  0  0  0  0
   -4.4607   -2.2822    0.0075 H   0  0  0  0  0  0  0  0  0  0  0  0
   -3.0592    1.6797    1.0787 H   0  0  0  0  0  0  0  0  0  0  0  0
   -0.8347    0.7811    1.0324 H   0  0  0  0  0  0  0  0  0  0  0  0
   -5.5409    2.0552   -0.1608 H   0  0  0  0  0  0  0  0  0  0  0  0
   -5.3913    1.9956    1.5939 H   0  0  0  0  0  0  0  0  0  0  0  0
   -7.5787    2.3840    1.0961 H   0  0  0  0  0  0  0  0  0  0  0  0
   -7.4705    0.7701    1.7908 H   0  0  0  0  0  0  0  0  0  0  0  0
   -7.9091    0.1428   -2.0874 H   0  0  0  0  0  0  0  0  0  0  0  0
   -8.0066   -1.7982   -0.2060 H   0  0  0  0  0  0  0  0  0  0  0  0
   -9.2509   -1.7204   -1.5606 H   0  0  0  0  0  0  0  0  0  0  0  0
  -10.6233   -1.7618    0.3196 H   0  0  0  0  0  0  0  0  0  0  0  0
   -9.5131   -0.6838    1.2936 H   0  0  0  0  0  0  0  0  0  0  0  0
  -11.6736    0.0901   -0.4986 H   0  0  0  0  0  0  0  0  0  0  0  0
  -10.6898    1.1500    0.5095 H   0  0  0  0  0  0  0  0  0  0  0  0
   -9.8961    1.6475   -1.8986 H   0  0  0  0  0  0  0  0  0  0  0  0
  -10.1654   -0.0713   -2.2713 H   0  0  0  0  0  0  0  0  0  0  0  0
    1.7483   -0.9761   -1.7814 H   0  0  0  0  0  0  0  0  0  0  0  0
    2.8828    0.4436   -1.6592 H   0  0  0  0  0  0  0  0  0  0  0  0
    3.7244   -1.9068   -1.2093 H   0  0  0  0  0  0  0  0  0  0  0  0
    3.9286   -0.2981    1.2726 H   0  0  0  0  0  0  0  0  0  0  0  0
    4.9683   -0.1100   -0.1226 H   0  0  0  0  0  0  0  0  0  0  0  0
    4.5665   -2.9305    0.8564 H   0  0  0  0  0  0  0  0  0  0  0  0
    5.6428   -1.8355    1.8018 H   0  0  0  0  0  0  0  0  0  0  0  0
    6.3056   -2.9355   -0.8979 H   0  0  0  0  0  0  0  0  0  0  0  0
    8.3371   -1.5151   -1.9370 H   0  0  0  0  0  0  0  0  0  0  0  0
    7.6078    1.5668   -1.8131 H   0  0  0  0  0  0  0  0  0  0  0  0
    8.6812    3.5969   -0.7986 H   0  0  0  0  0  0  0  0  0  0  0  0
   11.4315    1.1178    1.2743 H   0  0  0  0  0  0  0  0  0  0  0  0
   10.3917   -0.8535    0.3799 H   0  0  0  0  0  0  0  0  0  0  0  0
   11.6695    3.8982    0.4454 H   0  0  0  0  0  0  0  0  0  0  0  0
  1  2  1  0
  2  3  1  0
  3  4  1  0
  4  5  1  0
  5  6  2  0
  6  7  1  0
  7  8  2  0
  8  9  1  0
  9 10  2  0
  8 11  1  0
 11 12  1  0
 12 13  1  0
 13 14  1  0
 14 15  1  0
 15 16  1  0
 16 17  1  0
 17 18  1  0
 18 19  1  0
  2 20  1  0
 20 21  1  0
 21 22  1  0
 22 23  1  0
 23 24  1  0
 24 25  1  0
 25 26  2  0
 25 27  1  0
 27 28  1  0
 28 29  2  0
 29 30  1  0
 30 31  2  0
 31 32  1  0
 32 33  2  0
 31 34  1  0
 10  5  1  0
 19 15  1  0
 33 28  1  0
  1 35  1  0
  2 36  1  0
  3 37  1  0
  3 38  1  0
  6 39  1  0
  7 40  1  0
  9 41  1  0
 10 42  1  0
 12 43  1  0
 12 44  1  0
 13 45  1  0
 13 46  1  0
 15 47  1  0
 16 48  1  0
 16 49  1  0
 17 50  1  0
 17 51  1  0
 18 52  1  0
 18 53  1  0
 19 54  1  0
 19 55  1  0
 20 56  1  0
 20 57  1  0
 21 58  1  0
 22 59  1  0
 22 60  1  0
 23 61  1  0
 23 62  1  0
 24 63  1  0
 27 64  1  0
 29 65  1  0
 30 66  1  0
 32 67  1  0
 33 68  1  0
 34 69  1  0
M  END
>  <Ligand ID>  (1) 
LIG0003041

>  <Ligand>  (1) 
CHEMBL2348219

>  <SMILES>  (1) 
OC(COc1ccc(cc1)OCCOC1CCCC1)CNCCNC(=O)Nc1ccc(cc1)O

>  <CID>  (1) 
56597179.0

>  <ChEMBL ID>  (1) 
nan

>  <InChiKey>  (1) 
AEISDSYQXOEKFX-UHFFFAOYSA-N

>  <InChi>  (1) 
InChI=1S/C25H35N3O6/c29-20-7-5-19(6-8-20)28-25(31)27-14-13-26-17-21(30)18-34-24-11-9-23(10-12-24)33-16-15-32-22-3-1-2-4-22/h5-12,21-22,26,29-30H,1-4,13-18H2,(H2,27,28,31)

>  <IUPAC Name>  (1) 
1-[2-[[3-[4-(2-cyclopentyloxyethoxy)phenoxy]-2-hydroxypropyl]amino]ethyl]-3-(4-hydroxyphenyl)urea

$$$$
