
     RDKit          3D

 43 46  0  0  0  0  0  0  0  0999 V2000
    3.9570   -1.6003    1.5703 O   0  0  0  0  0  0  0  0  0  0  0  0
    4.2329   -0.2532    1.6867 C   0  0  0  0  0  0  0  0  0  0  0  0
    3.7500    0.6013    0.5509 C   0  0  0  0  0  0  0  0  0  0  0  0
    2.3278    0.5623    0.3633 N   0  0  0  0  0  0  0  0  0  0  0  0
    1.5746   -0.5855    0.0201 C   0  0  0  0  0  0  0  0  0  0  0  0
    2.0834   -1.7161   -0.1657 O   0  0  0  0  0  0  0  0  0  0  0  0
    0.1185   -0.4927   -0.1370 C   0  0  0  0  0  0  0  0  0  0  0  0
   -0.6310    0.6251    0.0166 N   0  0  0  0  0  0  0  0  0  0  0  0
   -1.8986    0.4065   -0.1856 N   0  0  0  0  0  0  0  0  0  0  0  0
   -2.0321   -0.8978   -0.4876 C   0  0  0  0  0  0  0  0  0  0  0  0
   -0.7825   -1.4833   -0.4637 C   0  0  0  0  0  0  0  0  0  0  0  0
   -0.8442   -2.9142   -0.7846 C   0  0  0  0  0  0  0  0  0  0  0  0
   -2.2815   -3.1496   -1.1099 C   0  0  2  0  0  0  0  0  0  0  0  0
   -3.0594   -1.8901   -0.8301 C   0  0  1  0  0  0  0  0  0  0  0  0
   -3.2065   -3.0597    0.0501 C   0  0  0  0  0  0  0  0  0  0  0  0
   -2.9153    1.4022   -0.0913 C   0  0  0  0  0  0  0  0  0  0  0  0
   -2.9229    2.3514    0.9304 C   0  0  0  0  0  0  0  0  0  0  0  0
   -3.9525    3.2847    0.9447 C   0  0  0  0  0  0  0  0  0  0  0  0
   -4.9477    3.2993   -0.0039 C   0  0  0  0  0  0  0  0  0  0  0  0
   -4.9007    2.3700   -0.9659 N   0  0  0  0  0  0  0  0  0  0  0  0
   -3.9301    1.4447   -1.0286 C   0  0  0  0  0  0  0  0  0  0  0  0
    4.4921    0.2083   -0.7210 C   0  0  0  0  0  0  0  0  0  0  0  0
    4.1679    2.0373    0.8279 C   0  0  0  0  0  0  0  0  0  0  0  0
    3.7641   -1.9564    2.4685 H   0  0  0  0  0  0  0  0  0  0  0  0
    3.7416    0.1450    2.6112 H   0  0  0  0  0  0  0  0  0  0  0  0
    5.3212   -0.0567    1.8080 H   0  0  0  0  0  0  0  0  0  0  0  0
    1.7586    1.4556    0.4851 H   0  0  0  0  0  0  0  0  0  0  0  0
   -0.1473   -3.1679   -1.6121 H   0  0  0  0  0  0  0  0  0  0  0  0
   -0.6032   -3.5545    0.0983 H   0  0  0  0  0  0  0  0  0  0  0  0
   -2.5454   -3.7401   -2.0094 H   0  0  0  0  0  0  0  0  0  0  0  0
   -3.8848   -1.6749   -1.5200 H   0  0  0  0  0  0  0  0  0  0  0  0
   -2.7824   -3.0541    1.0754 H   0  0  0  0  0  0  0  0  0  0  0  0
   -4.1041   -3.7169   -0.0242 H   0  0  0  0  0  0  0  0  0  0  0  0
   -2.1463    2.3397    1.6702 H   0  0  0  0  0  0  0  0  0  0  0  0
   -4.0018    4.0448    1.7210 H   0  0  0  0  0  0  0  0  0  0  0  0
   -5.7585    4.0304    0.0031 H   0  0  0  0  0  0  0  0  0  0  0  0
   -3.9838    0.7396   -1.8451 H   0  0  0  0  0  0  0  0  0  0  0  0
    5.5524    0.5685   -0.5895 H   0  0  0  0  0  0  0  0  0  0  0  0
    4.5427   -0.8797   -0.8728 H   0  0  0  0  0  0  0  0  0  0  0  0
    4.0827    0.7839   -1.5576 H   0  0  0  0  0  0  0  0  0  0  0  0
    3.3973    2.6997    0.3455 H   0  0  0  0  0  0  0  0  0  0  0  0
    4.2363    2.1989    1.9093 H   0  0  0  0  0  0  0  0  0  0  0  0
    5.1615    2.2444    0.3913 H   0  0  0  0  0  0  0  0  0  0  0  0
  1  2  1  0
  2  3  1  0
  3  4  1  0
  4  5  1  0
  5  6  2  0
  5  7  1  0
  7  8  2  0
  8  9  1  0
  9 10  1  0
 10 11  2  0
 11 12  1  0
 12 13  1  0
 13 14  1  0
 14 15  1  0
  9 16  1  0
 16 17  2  0
 17 18  1  0
 18 19  2  0
 19 20  1  0
 20 21  2  0
  3 22  1  0
  3 23  1  0
 11  7  1  0
 15 13  1  0
 21 16  1  0
 14 10  1  0
  1 24  1  0
  2 25  1  0
  2 26  1  0
  4 27  1  0
 12 28  1  0
 12 29  1  0
 13 30  1  6
 14 31  1  6
 15 32  1  0
 15 33  1  0
 17 34  1  0
 18 35  1  0
 19 36  1  0
 21 37  1  0
 22 38  1  0
 22 39  1  0
 22 40  1  0
 23 41  1  0
 23 42  1  0
 23 43  1  0
M  END
>  <Ligand ID>  (1) 
LIG0001498

>  <Ligand>  (1) 
CHEMBL3354975

>  <SMILES>  (1) 
OCC(NC(=O)c1nn(c2c1C[C@@H]1[C@H]2C1)c1cccnc1)(C)C

>  <CID>  (1) 
118720582.0

>  <ChEMBL ID>  (1) 
nan

>  <InChiKey>  (1) 
YXFPVINSZDYPCU-ZYHUDNBSSA-N

>  <InChi>  (1) 
InChI=1S/C17H20N4O2/c1-17(2,9-22)19-16(23)14-13-7-10-6-12(10)15(13)21(20-14)11-4-3-5-18-8-11/h3-5,8,10,12,22H,6-7,9H2,1-2H3,(H,19,23)/t10-,12-/m1/s1

>  <IUPAC Name>  (1) 
(2R,4R)-N-(1-hydroxy-2-methylpropan-2-yl)-9-pyridin-3-yl-8,9-diazatricyclo[4.3.0.02,4]nona-1(6),7-diene-7-carboxamide

$$$$
