
     RDKit          3D

 76 75  0  0  0  0  0  0  0  0999 V2000
    6.7245    2.4675   -1.7719 C   0  0  0  0  0  0  0  0  0  0  0  0
    6.9723    2.7873   -0.3065 C   0  0  0  0  0  0  0  0  0  0  0  0
    7.7435    1.7085    0.3820 C   0  0  0  0  0  0  0  0  0  0  0  0
    7.0482    0.3931    0.3453 C   0  0  0  0  0  0  0  0  0  0  0  0
    5.7154    0.4893    1.0240 C   0  0  0  0  0  0  0  0  0  0  0  0
    5.0431   -0.8689    0.9711 C   0  0  0  0  0  0  0  0  0  0  0  0
    4.7973   -1.3980   -0.3787 C   0  0  0  0  0  0  0  0  0  0  0  0
    4.0094   -0.6726   -1.3744 C   0  0  0  0  0  0  0  0  0  0  0  0
    2.5916   -0.3342   -1.1521 C   0  0  0  0  0  0  0  0  0  0  0  0
    2.3464    0.5891   -0.0298 C   0  0  0  0  0  0  0  0  0  0  0  0
    0.8793    0.9538    0.1331 C   0  0  0  0  0  0  0  0  0  0  0  0
    0.0253   -0.2988    0.3744 C   0  0  0  0  0  0  0  0  0  0  0  0
    0.4250   -1.0468    1.5925 C   0  0  0  0  0  0  0  0  0  0  0  0
   -0.3455   -2.2629    1.8818 C   0  0  0  0  0  0  0  0  0  0  0  0
   -1.7717   -2.2616    2.2027 C   0  0  0  0  0  0  0  0  0  0  0  0
   -2.7947   -1.7705    1.2665 C   0  0  0  0  0  0  0  0  0  0  0  0
   -2.7566   -2.5098   -0.0432 C   0  0  0  0  0  0  0  0  0  0  0  0
   -3.8215   -1.9934   -1.0221 C   0  0  0  0  0  0  0  0  0  0  0  0
   -5.0442   -2.1745   -0.4385 O   0  0  0  0  0  0  0  0  0  0  0  0
   -6.1454   -1.7953   -1.1467 C   0  0  0  0  0  0  0  0  0  0  0  0
   -6.2440   -0.3636   -1.5362 C   0  0  1  0  0  0  0  0  0  0  0  0
   -6.4368    0.5537   -0.3473 C   0  0  0  0  0  0  0  0  0  0  0  0
   -6.7817    1.8064   -0.8486 O   0  0  0  0  0  0  0  0  0  0  0  0
   -7.0146    2.8748    0.4474 P   0  0  0  0  0  0  0  0  0  0  0  0
   -5.8655    2.5940    1.6883 S   0  0  0  0  0  0  0  0  0  0  0  0
   -6.8964    4.4504   -0.1759 O   0  0  0  0  0  0  0  0  0  0  0  0
   -8.5875    2.6637    1.0554 O   0  0  0  0  0  0  0  0  0  0  0  0
   -5.2483    0.1239   -2.3372 O   0  0  0  0  0  0  0  0  0  0  0  0
   -5.6504    0.5783   -3.5769 C   0  0  0  0  0  0  0  0  0  0  0  0
    7.2867    3.2004   -2.4215 H   0  0  0  0  0  0  0  0  0  0  0  0
    5.6393    2.6144   -1.9871 H   0  0  0  0  0  0  0  0  0  0  0  0
    7.1112    1.4771   -2.0746 H   0  0  0  0  0  0  0  0  0  0  0  0
    6.0430    3.0220    0.2363 H   0  0  0  0  0  0  0  0  0  0  0  0
    7.5823    3.7384   -0.2453 H   0  0  0  0  0  0  0  0  0  0  0  0
    8.7825    1.6504   -0.0155 H   0  0  0  0  0  0  0  0  0  0  0  0
    7.8186    2.0084    1.4571 H   0  0  0  0  0  0  0  0  0  0  0  0
    7.6467   -0.3672    0.9009 H   0  0  0  0  0  0  0  0  0  0  0  0
    6.9509   -0.0135   -0.6919 H   0  0  0  0  0  0  0  0  0  0  0  0
    5.8838    0.7267    2.0941 H   0  0  0  0  0  0  0  0  0  0  0  0
    5.0966    1.2715    0.5579 H   0  0  0  0  0  0  0  0  0  0  0  0
    4.2907   -0.9499    1.7394 H   0  0  0  0  0  0  0  0  0  0  0  0
    5.8998   -1.5587    1.3852 H   0  0  0  0  0  0  0  0  0  0  0  0
    5.8152   -1.7095   -0.7931 H   0  0  0  0  0  0  0  0  0  0  0  0
    4.3071   -2.4174   -0.2264 H   0  0  0  0  0  0  0  0  0  0  0  0
    4.0310   -1.3163   -2.3200 H   0  0  0  0  0  0  0  0  0  0  0  0
    4.5203    0.2937   -1.6962 H   0  0  0  0  0  0  0  0  0  0  0  0
    2.0524   -1.3284   -0.9507 H   0  0  0  0  0  0  0  0  0  0  0  0
    2.1261    0.0391   -2.1097 H   0  0  0  0  0  0  0  0  0  0  0  0
    2.8478    1.5609   -0.2734 H   0  0  0  0  0  0  0  0  0  0  0  0
    2.6559    0.1806    0.9229 H   0  0  0  0  0  0  0  0  0  0  0  0
    0.4689    1.4696   -0.7519 H   0  0  0  0  0  0  0  0  0  0  0  0
    0.8110    1.5999    1.0127 H   0  0  0  0  0  0  0  0  0  0  0  0
    0.1224   -0.9441   -0.5486 H   0  0  0  0  0  0  0  0  0  0  0  0
   -1.0032    0.0926    0.3601 H   0  0  0  0  0  0  0  0  0  0  0  0
    1.5118   -1.3505    1.4163 H   0  0  0  0  0  0  0  0  0  0  0  0
    0.4529   -0.3218    2.4526 H   0  0  0  0  0  0  0  0  0  0  0  0
    0.1634   -2.7927    2.7746 H   0  0  0  0  0  0  0  0  0  0  0  0
   -0.1155   -3.0561    1.0650 H   0  0  0  0  0  0  0  0  0  0  0  0
   -2.0391   -3.3528    2.4362 H   0  0  0  0  0  0  0  0  0  0  0  0
   -1.8766   -1.7645    3.2229 H   0  0  0  0  0  0  0  0  0  0  0  0
   -2.8329   -0.6840    1.2054 H   0  0  0  0  0  0  0  0  0  0  0  0
   -3.8005   -2.0250    1.7873 H   0  0  0  0  0  0  0  0  0  0  0  0
   -1.7564   -2.4003   -0.4935 H   0  0  0  0  0  0  0  0  0  0  0  0
   -2.9163   -3.6014    0.1110 H   0  0  0  0  0  0  0  0  0  0  0  0
   -3.6111   -0.8932   -1.0769 H   0  0  0  0  0  0  0  0  0  0  0  0
   -3.6484   -2.5092   -1.9696 H   0  0  0  0  0  0  0  0  0  0  0  0
   -7.0352   -1.9977   -0.4785 H   0  0  0  0  0  0  0  0  0  0  0  0
   -6.3498   -2.4443   -2.0348 H   0  0  0  0  0  0  0  0  0  0  0  0
   -7.2004   -0.2648   -2.1282 H   0  0  0  0  0  0  0  0  0  0  0  0
   -7.2763    0.1660    0.2902 H   0  0  0  0  0  0  0  0  0  0  0  0
   -5.4984    0.5855    0.2498 H   0  0  0  0  0  0  0  0  0  0  0  0
   -7.7108    4.9782    0.0524 H   0  0  0  0  0  0  0  0  0  0  0  0
   -9.0477    1.9047    0.5785 H   0  0  0  0  0  0  0  0  0  0  0  0
   -6.1341   -0.1826   -4.2058 H   0  0  0  0  0  0  0  0  0  0  0  0
   -4.7174    0.8711   -4.1199 H   0  0  0  0  0  0  0  0  0  0  0  0
   -6.2646    1.5118   -3.5097 H   0  0  0  0  0  0  0  0  0  0  0  0
  1  2  1  0
  2  3  1  0
  3  4  1  0
  4  5  1  0
  5  6  1  0
  6  7  1  0
  7  8  1  0
  8  9  1  0
  9 10  1  0
 10 11  1  0
 11 12  1  0
 12 13  1  0
 13 14  1  0
 14 15  1  0
 15 16  1  0
 16 17  1  0
 17 18  1  0
 18 19  1  0
 19 20  1  0
 20 21  1  0
 21 22  1  0
 22 23  1  0
 23 24  1  0
 24 25  2  0
 24 26  1  0
 24 27  1  0
 21 28  1  0
 28 29  1  0
  1 30  1  0
  1 31  1  0
  1 32  1  0
  2 33  1  0
  2 34  1  0
  3 35  1  0
  3 36  1  0
  4 37  1  0
  4 38  1  0
  5 39  1  0
  5 40  1  0
  6 41  1  0
  6 42  1  0
  7 43  1  0
  7 44  1  0
  8 45  1  0
  8 46  1  0
  9 47  1  0
  9 48  1  0
 10 49  1  0
 10 50  1  0
 11 51  1  0
 11 52  1  0
 12 53  1  0
 12 54  1  0
 13 55  1  0
 13 56  1  0
 14 57  1  0
 14 58  1  0
 15 59  1  0
 15 60  1  0
 16 61  1  0
 16 62  1  0
 17 63  1  0
 17 64  1  0
 18 65  1  0
 18 66  1  0
 20 67  1  0
 20 68  1  0
 21 69  1  6
 22 70  1  0
 22 71  1  0
 26 72  1  0
 27 73  1  0
 29 74  1  0
 29 75  1  0
 29 76  1  0
M  END
>  <Ligand ID>  (1) 
LIG0000699

>  <Ligand>  (1) 
CHEMBL2335047

>  <SMILES>  (1) 
CCCCCCCCCCCCCCCCCCOC[C@@H](COP(=S)(O)O)OC

>  <CID>  (1) 
71720690.0

>  <ChEMBL ID>  (1) 
nan

>  <InChiKey>  (1) 
JYAROLONGLXUOT-QFIPXVFZSA-N

>  <InChi>  (1) 
InChI=1S/C22H47O5PS/c1-3-4-5-6-7-8-9-10-11-12-13-14-15-16-17-18-19-26-20-22(25-2)21-27-28(23,24)29/h22H,3-21H2,1-2H3,(H2,23,24,29)/t22-/m0/s1

>  <IUPAC Name>  (1) 
dihydroxy-[(2S)-2-methoxy-3-octadecoxypropoxy]-sulfanylidene-lambda5-phosphane

$$$$
