
     RDKit          3D

102106  0  0  0  0  0  0  0  0999 V2000
    4.3703    7.1050   -0.7763 N   0  0  0  0  0  0  0  0  0  0  0  0
    4.7096    5.8583   -1.3856 C   0  0  0  0  0  0  0  0  0  0  0  0
    3.9092    4.8472   -1.4159 N   0  0  0  0  0  0  0  0  0  0  0  0
    2.6124    4.9860   -0.8074 C   0  0  0  0  0  0  0  0  0  0  0  0
    2.0442    3.5796   -0.6729 C   0  0  0  0  0  0  0  0  0  0  0  0
    2.9858    2.7980    0.2211 C   0  0  0  0  0  0  0  0  0  0  0  0
    2.4591    1.4069    0.3839 C   0  0  1  0  0  0  0  0  0  0  0  0
    3.3171    0.5711    1.2482 C   0  0  0  0  0  0  0  0  0  0  0  0
    2.8999   -0.1272    2.2054 O   0  0  0  0  0  0  0  0  0  0  0  0
    4.7198    0.5674    0.9644 N   0  0  0  0  0  0  0  0  0  0  0  0
    5.6470   -0.2492    1.7654 C   0  0  2  0  0  0  0  0  0  0  0  0
    6.2826    0.6496    2.8136 C   0  0  0  0  0  0  0  0  0  0  0  0
    5.9896    1.8591    2.9100 O   0  0  0  0  0  0  0  0  0  0  0  0
    7.2257   -0.0122    3.6556 N   0  0  0  0  0  0  0  0  0  0  0  0
    6.7591   -0.7903    0.9494 C   0  0  0  0  0  0  0  0  0  0  0  0
    6.2510   -1.6432   -0.1525 C   0  0  0  0  0  0  0  0  0  0  0  0
    6.1751   -1.2006   -1.4611 C   0  0  0  0  0  0  0  0  0  0  0  0
    5.6678   -2.2159   -2.2248 N   0  0  0  0  0  0  0  0  0  0  0  0
    5.4280   -3.2719   -1.4298 C   0  0  0  0  0  0  0  0  0  0  0  0
    5.7861   -2.9370   -0.1220 C   0  0  0  0  0  0  0  0  0  0  0  0
    5.6349   -3.8637    0.8805 C   0  0  0  0  0  0  0  0  0  0  0  0
    5.1345   -5.1142    0.5950 C   0  0  0  0  0  0  0  0  0  0  0  0
    4.7677   -5.4850   -0.6954 C   0  0  0  0  0  0  0  0  0  0  0  0
    4.9289   -4.5284   -1.6976 C   0  0  0  0  0  0  0  0  0  0  0  0
    1.1112    1.3915    0.9394 N   0  0  0  0  0  0  0  0  0  0  0  0
    0.0258    0.6915    0.3525 C   0  0  0  0  0  0  0  0  0  0  0  0
    0.1082    0.0042   -0.6883 O   0  0  0  0  0  0  0  0  0  0  0  0
   -1.2971    0.8425    1.0939 C   0  0  1  0  0  0  0  0  0  0  0  0
   -2.3032    0.1050    0.3880 N   0  0  0  0  0  0  0  0  0  0  0  0
   -3.0252    0.7315   -0.6326 C   0  0  0  0  0  0  0  0  0  0  0  0
   -2.7155    1.9638   -0.8749 O   0  0  0  0  0  0  0  0  0  0  0  0
   -4.0876    0.1760   -1.4701 C   0  0  1  0  0  0  0  0  0  0  0  0
   -4.5938   -1.1057   -1.0234 N   0  0  0  0  0  0  0  0  0  0  0  0
   -4.4713   -2.3186   -1.7432 C   0  0  0  0  0  0  0  0  0  0  0  0
   -3.8648   -2.2907   -2.8609 O   0  0  0  0  0  0  0  0  0  0  0  0
   -5.0232   -3.5882   -1.2342 C   0  0  0  0  0  0  0  0  0  0  0  0
   -5.7323   -3.6696   -0.0581 C   0  0  0  0  0  0  0  0  0  0  0  0
   -6.2405   -4.8994    0.3727 C   0  0  0  0  0  0  0  0  0  0  0  0
   -6.0106   -6.0077   -0.4063 C   0  0  0  0  0  0  0  0  0  0  0  0
   -5.3109   -5.9046   -1.5583 N   0  0  0  0  0  0  0  0  0  0  0  0
   -4.8126   -4.7373   -1.9945 C   0  0  0  0  0  0  0  0  0  0  0  0
   -5.2631    1.1227   -1.6949 C   0  0  0  0  0  0  0  0  0  0  0  0
   -6.2386    0.4197   -2.5716 C   0  0  0  0  0  0  0  0  0  0  0  0
   -7.2774   -0.3486   -2.0909 C   0  0  0  0  0  0  0  0  0  0  0  0
   -8.1194   -0.9578   -3.0198 C   0  0  0  0  0  0  0  0  0  0  0  0
   -7.9058   -0.7863   -4.3833 C   0  0  0  0  0  0  0  0  0  0  0  0
   -6.8659   -0.0178   -4.8499 C   0  0  0  0  0  0  0  0  0  0  0  0
   -6.0272    0.5890   -3.9513 C   0  0  0  0  0  0  0  0  0  0  0  0
   -8.9949   -1.5730   -5.5339 Cl  0  0  0  0  0  0  0  0  0  0  0  0
   -1.1626    0.4697    2.5328 C   0  0  0  0  0  0  0  0  0  0  0  0
   -2.3975    0.5940    3.3124 C   0  0  0  0  0  0  0  0  0  0  0  0
   -2.6586    1.8428    3.8839 C   0  0  0  0  0  0  0  0  0  0  0  0
   -3.7788    2.0889    4.6460 C   0  0  0  0  0  0  0  0  0  0  0  0
   -4.6790    1.0533    4.8521 C   0  0  0  0  0  0  0  0  0  0  0  0
   -4.4480   -0.1902    4.3003 C   0  0  0  0  0  0  0  0  0  0  0  0
   -3.3101   -0.4098    3.5349 C   0  0  0  0  0  0  0  0  0  0  0  0
    5.9878    5.6511   -2.0201 N   0  0  0  0  0  0  0  0  0  0  0  0
    3.8813    7.8565   -1.3423 H   0  0  0  0  0  0  0  0  0  0  0  0
    4.6213    7.2397    0.2355 H   0  0  0  0  0  0  0  0  0  0  0  0
    2.6738    5.3736    0.2476 H   0  0  0  0  0  0  0  0  0  0  0  0
    1.9001    5.5911   -1.4039 H   0  0  0  0  0  0  0  0  0  0  0  0
    0.9988    3.5613   -0.3513 H   0  0  0  0  0  0  0  0  0  0  0  0
    2.0634    3.1594   -1.7237 H   0  0  0  0  0  0  0  0  0  0  0  0
    3.9519    2.7161   -0.3189 H   0  0  0  0  0  0  0  0  0  0  0  0
    3.1927    3.3102    1.1596 H   0  0  0  0  0  0  0  0  0  0  0  0
    2.4371    0.9451   -0.6591 H   0  0  0  0  0  0  0  0  0  0  0  0
    5.1412    1.1224    0.2045 H   0  0  0  0  0  0  0  0  0  0  0  0
    5.0320   -0.9845    2.3015 H   0  0  0  0  0  0  0  0  0  0  0  0
    8.0317    0.4682    4.1118 H   0  0  0  0  0  0  0  0  0  0  0  0
    7.1577   -1.0494    3.8685 H   0  0  0  0  0  0  0  0  0  0  0  0
    7.4919   -1.3667    1.5744 H   0  0  0  0  0  0  0  0  0  0  0  0
    7.3519    0.0685    0.5659 H   0  0  0  0  0  0  0  0  0  0  0  0
    6.4430   -0.2509   -1.8872 H   0  0  0  0  0  0  0  0  0  0  0  0
    5.5054   -2.1413   -3.2741 H   0  0  0  0  0  0  0  0  0  0  0  0
    5.9272   -3.5629    1.8991 H   0  0  0  0  0  0  0  0  0  0  0  0
    5.0217   -5.8289    1.3855 H   0  0  0  0  0  0  0  0  0  0  0  0
    4.3702   -6.4768   -0.9198 H   0  0  0  0  0  0  0  0  0  0  0  0
    4.6562   -4.7683   -2.7273 H   0  0  0  0  0  0  0  0  0  0  0  0
    0.9979    1.9529    1.8277 H   0  0  0  0  0  0  0  0  0  0  0  0
   -1.5566    1.9449    1.0096 H   0  0  0  0  0  0  0  0  0  0  0  0
   -2.5431   -0.9048    0.5936 H   0  0  0  0  0  0  0  0  0  0  0  0
   -3.6266    0.0057   -2.4848 H   0  0  0  0  0  0  0  0  0  0  0  0
   -5.0850   -1.0839   -0.0790 H   0  0  0  0  0  0  0  0  0  0  0  0
   -5.9066   -2.8095    0.5390 H   0  0  0  0  0  0  0  0  0  0  0  0
   -6.7942   -4.9303    1.3008 H   0  0  0  0  0  0  0  0  0  0  0  0
   -6.3940   -6.9624   -0.0968 H   0  0  0  0  0  0  0  0  0  0  0  0
   -4.2618   -4.7326   -2.9231 H   0  0  0  0  0  0  0  0  0  0  0  0
   -4.8775    2.0522   -2.1852 H   0  0  0  0  0  0  0  0  0  0  0  0
   -5.6804    1.3594   -0.6943 H   0  0  0  0  0  0  0  0  0  0  0  0
   -7.4262   -0.4670   -1.0387 H   0  0  0  0  0  0  0  0  0  0  0  0
   -8.9514   -1.5772   -2.7301 H   0  0  0  0  0  0  0  0  0  0  0  0
   -6.7511    0.0788   -5.9223 H   0  0  0  0  0  0  0  0  0  0  0  0
   -5.1861    1.2060   -4.3081 H   0  0  0  0  0  0  0  0  0  0  0  0
   -0.3484    1.0556    3.0268 H   0  0  0  0  0  0  0  0  0  0  0  0
   -0.7714   -0.5933    2.5476 H   0  0  0  0  0  0  0  0  0  0  0  0
   -1.9623    2.6547    3.7292 H   0  0  0  0  0  0  0  0  0  0  0  0
   -3.9985    3.0324    5.0917 H   0  0  0  0  0  0  0  0  0  0  0  0
   -5.5865    1.1840    5.4481 H   0  0  0  0  0  0  0  0  0  0  0  0
   -5.1719   -0.9715    4.4842 H   0  0  0  0  0  0  0  0  0  0  0  0
   -3.1018   -1.3720    3.0903 H   0  0  0  0  0  0  0  0  0  0  0  0
    6.0790    6.0357   -2.9743 H   0  0  0  0  0  0  0  0  0  0  0  0
    6.7310    5.1381   -1.4971 H   0  0  0  0  0  0  0  0  0  0  0  0
  1  2  1  0
  2  3  2  3
  3  4  1  0
  4  5  1  0
  5  6  1  0
  6  7  1  0
  7  8  1  0
  8  9  2  0
  8 10  1  0
 10 11  1  0
 11 12  1  0
 12 13  2  0
 12 14  1  0
 11 15  1  0
 15 16  1  0
 16 17  2  0
 17 18  1  0
 18 19  1  0
 19 20  2  0
 20 21  1  0
 21 22  2  0
 22 23  1  0
 23 24  2  0
  7 25  1  0
 25 26  1  0
 26 27  2  0
 26 28  1  0
 28 29  1  0
 29 30  1  0
 30 31  2  0
 30 32  1  0
 32 33  1  0
 33 34  1  0
 34 35  2  0
 34 36  1  0
 36 37  2  0
 37 38  1  0
 38 39  2  0
 39 40  1  0
 40 41  2  0
 32 42  1  0
 42 43  1  0
 43 44  2  0
 44 45  1  0
 45 46  2  0
 46 47  1  0
 47 48  2  0
 46 49  1  0
 28 50  1  0
 50 51  1  0
 51 52  2  0
 52 53  1  0
 53 54  2  0
 54 55  1  0
 55 56  2  0
  2 57  1  0
 20 16  1  0
 41 36  1  0
 48 43  1  0
 56 51  1  0
 24 19  1  0
  1 58  1  0
  1 59  1  0
  4 60  1  0
  4 61  1  0
  5 62  1  0
  5 63  1  0
  6 64  1  0
  6 65  1  0
  7 66  1  6
 10 67  1  0
 11 68  1  1
 14 69  1  0
 14 70  1  0
 15 71  1  0
 15 72  1  0
 17 73  1  0
 18 74  1  0
 21 75  1  0
 22 76  1  0
 23 77  1  0
 24 78  1  0
 25 79  1  0
 28 80  1  1
 29 81  1  0
 32 82  1  6
 33 83  1  0
 37 84  1  0
 38 85  1  0
 39 86  1  0
 41 87  1  0
 42 88  1  0
 42 89  1  0
 44 90  1  0
 45 91  1  0
 47 92  1  0
 48 93  1  0
 50 94  1  0
 50 95  1  0
 52 96  1  0
 53 97  1  0
 54 98  1  0
 55 99  1  0
 56100  1  0
 57101  1  0
 57102  1  0
M  END
>  <Ligand ID>  (1) 
LIG0002623

>  <Ligand>  (1) 
CHEMBL360598

>  <SMILES>  (1) 
NC(=NCCC[C@@H](C(=O)N[C@H](C(=O)N)Cc1c[nH]c2c1cccc2)NC(=O)[C@@H](NC(=O)[C@@H](NC(=O)c1cccnc1)Cc1ccc(cc1)Cl)Cc1ccccc1)N

>  <CID>  (1) 
44394691.0

>  <ChEMBL ID>  (1) 
nan

>  <InChiKey>  (1) 
GQEMLAVOVURURZ-BBACVFHCSA-N

>  <InChi>  (1) 
InChI=1S/C41H45ClN10O5/c42-29-16-14-26(15-17-29)21-34(51-37(54)27-10-6-18-46-23-27)40(57)52-35(20-25-8-2-1-3-9-25)39(56)49-32(13-7-19-47-41(44)45)38(55)50-33(36(43)53)22-28-24-48-31-12-5-4-11-30(28)31/h1-6,8-12,14-18,23-24,32-35,48H,7,13,19-22H2,(H2,43,53)(H,49,56)(H,50,55)(H,51,54)(H,52,57)(H4,44,45,47)/t32-,33-,34-,35-/m0/s1

>  <IUPAC Name>  (1) 
N-[(2S)-1-[[(2S)-1-[[(2S)-1-[[(2S)-1-amino-3-(1H-indol-3-yl)-1-oxopropan-2-yl]amino]-5-(diaminomethylideneamino)-1-oxopentan-2-yl]amino]-1-oxo-3-phenylpropan-2-yl]amino]-3-(4-chlorophenyl)-1-oxopropan-2-yl]pyridine-3-carboxamide

$$$$
