
     RDKit          3D

 57 59  0  0  0  0  0  0  0  0999 V2000
   -7.0098   -2.5712    0.5091 C   0  0  0  0  0  0  0  0  0  0  0  0
   -6.8039   -1.5985    1.6350 C   0  0  0  0  0  0  0  0  0  0  0  0
   -5.5690   -0.9235    1.4800 O   0  0  0  0  0  0  0  0  0  0  0  0
   -5.3864   -0.1737    0.3258 C   0  0  0  0  0  0  0  0  0  0  0  0
   -6.2531   -0.0655   -0.5782 O   0  0  0  0  0  0  0  0  0  0  0  0
   -4.0542    0.5243    0.2112 C   0  0  0  0  0  0  0  0  0  0  0  0
   -4.0949    1.2481   -1.0827 C   0  0  0  0  0  0  0  0  0  0  0  0
   -3.7517    0.7397   -2.2119 N   0  0  0  0  0  0  0  0  0  0  0  0
   -3.2935   -0.6015   -2.2916 C   0  0  0  0  0  0  0  0  0  0  0  0
   -2.9441   -1.1498   -3.3776 O   0  0  0  0  0  0  0  0  0  0  0  0
   -3.2285   -1.3626   -1.0699 N   0  0  0  0  0  0  0  0  0  0  0  0
   -3.0288   -0.5574    0.1389 C   0  0  0  0  0  0  0  0  0  0  0  0
   -1.6266   -0.0913    0.2245 C   0  0  0  0  0  0  0  0  0  0  0  0
   -1.2631    1.1977    0.5475 C   0  0  0  0  0  0  0  0  0  0  0  0
    0.0642    1.5763    0.6127 C   0  0  0  0  0  0  0  0  0  0  0  0
    1.0275    0.6150    0.3417 C   0  0  0  0  0  0  0  0  0  0  0  0
    0.7020   -0.6866    0.0145 C   0  0  0  0  0  0  0  0  0  0  0  0
   -0.6375   -1.0172   -0.0379 C   0  0  0  0  0  0  0  0  0  0  0  0
    1.7072   -1.6078   -0.2471 O   0  0  0  0  0  0  0  0  0  0  0  0
    1.3185   -2.9294   -0.5779 C   0  0  0  0  0  0  0  0  0  0  0  0
    2.3867    0.9361    0.3913 O   0  0  0  0  0  0  0  0  0  0  0  0
    2.8839    2.1939    0.7030 C   0  0  0  0  0  0  0  0  0  0  0  0
    4.3893    2.1239    0.6482 C   0  0  0  0  0  0  0  0  0  0  0  0
    4.9938    3.1768    0.9046 O   0  0  0  0  0  0  0  0  0  0  0  0
    5.0508    0.9157    0.3210 N   0  0  0  0  0  0  0  0  0  0  0  0
    6.4447    0.7323    0.2398 C   0  0  0  0  0  0  0  0  0  0  0  0
    6.8919   -0.5463   -0.1005 C   0  0  0  0  0  0  0  0  0  0  0  0
    8.2364   -0.8202   -0.2038 C   0  0  0  0  0  0  0  0  0  0  0  0
    9.2053    0.1394    0.0197 C   0  0  0  0  0  0  0  0  0  0  0  0
    8.7706    1.3958    0.3540 C   0  0  0  0  0  0  0  0  0  0  0  0
    7.4039    1.6701    0.4580 C   0  0  0  0  0  0  0  0  0  0  0  0
   -4.5744    2.6753   -1.0484 C   0  0  0  0  0  0  0  0  0  0  0  0
   -7.1203   -3.6189    0.8624 H   0  0  0  0  0  0  0  0  0  0  0  0
   -6.1154   -2.5552   -0.1680 H   0  0  0  0  0  0  0  0  0  0  0  0
   -7.8916   -2.2779   -0.0939 H   0  0  0  0  0  0  0  0  0  0  0  0
   -6.8492   -2.1184    2.6184 H   0  0  0  0  0  0  0  0  0  0  0  0
   -7.6591   -0.8676    1.6545 H   0  0  0  0  0  0  0  0  0  0  0  0
   -3.8834    1.1871    1.0664 H   0  0  0  0  0  0  0  0  0  0  0  0
   -3.3172   -2.3838   -1.0707 H   0  0  0  0  0  0  0  0  0  0  0  0
   -3.1837   -1.2684    0.9961 H   0  0  0  0  0  0  0  0  0  0  0  0
   -2.0151    1.9264    0.7531 H   0  0  0  0  0  0  0  0  0  0  0  0
    0.3529    2.5980    0.8687 H   0  0  0  0  0  0  0  0  0  0  0  0
   -0.9070   -2.0451   -0.2960 H   0  0  0  0  0  0  0  0  0  0  0  0
    0.5934   -3.3458    0.1761 H   0  0  0  0  0  0  0  0  0  0  0  0
    0.7572   -2.8813   -1.5358 H   0  0  0  0  0  0  0  0  0  0  0  0
    2.2202   -3.5911   -0.6641 H   0  0  0  0  0  0  0  0  0  0  0  0
    2.5953    2.8683   -0.1457 H   0  0  0  0  0  0  0  0  0  0  0  0
    2.5551    2.5982    1.6653 H   0  0  0  0  0  0  0  0  0  0  0  0
    4.4091    0.0951    0.1254 H   0  0  0  0  0  0  0  0  0  0  0  0
    6.1910   -1.3614   -0.2934 H   0  0  0  0  0  0  0  0  0  0  0  0
    8.5324   -1.8226   -0.4693 H   0  0  0  0  0  0  0  0  0  0  0  0
   10.2541   -0.0924   -0.0656 H   0  0  0  0  0  0  0  0  0  0  0  0
    9.5115    2.1617    0.5333 H   0  0  0  0  0  0  0  0  0  0  0  0
    7.1455    2.6607    0.7195 H   0  0  0  0  0  0  0  0  0  0  0  0
   -5.6900    2.6088   -1.1468 H   0  0  0  0  0  0  0  0  0  0  0  0
   -4.2751    3.1756   -0.1107 H   0  0  0  0  0  0  0  0  0  0  0  0
   -4.1679    3.1923   -1.9400 H   0  0  0  0  0  0  0  0  0  0  0  0
  1  2  1  0
  2  3  1  0
  3  4  1  0
  4  5  2  0
  4  6  1  0
  6  7  1  0
  7  8  2  0
  8  9  1  0
  9 10  2  0
  9 11  1  0
 11 12  1  0
 12 13  1  0
 13 14  2  0
 14 15  1  0
 15 16  2  0
 16 17  1  0
 17 18  2  0
 17 19  1  0
 19 20  1  0
 16 21  1  0
 21 22  1  0
 22 23  1  0
 23 24  2  0
 23 25  1  0
 25 26  1  0
 26 27  2  0
 27 28  1  0
 28 29  2  0
 29 30  1  0
 30 31  2  0
  7 32  1  0
 12  6  1  0
 18 13  1  0
 31 26  1  0
  1 33  1  0
  1 34  1  0
  1 35  1  0
  2 36  1  0
  2 37  1  0
  6 38  1  0
 11 39  1  0
 12 40  1  0
 14 41  1  0
 15 42  1  0
 18 43  1  0
 20 44  1  0
 20 45  1  0
 20 46  1  0
 22 47  1  0
 22 48  1  0
 25 49  1  0
 27 50  1  0
 28 51  1  0
 29 52  1  0
 30 53  1  0
 31 54  1  0
 32 55  1  0
 32 56  1  0
 32 57  1  0
M  END
>  <Ligand ID>  (1) 
LIG0004451

>  <Ligand>  (1) 
BDBM31035

>  <SMILES>  (1) 
CCOC(=O)C1C(=NC(=O)NC1c1ccc(c(c1)OC)OCC(=O)Nc1ccccc1)C

>  <CID>  (1) 
91896121.0

>  <ChEMBL ID>  (1) 
nan

>  <InChiKey>  (1) 
FUDKKBFANBSPIG-UHFFFAOYSA-N

>  <InChi>  (1) 
InChI=1S/C23H25N3O6/c1-4-31-22(28)20-14(2)24-23(29)26-21(20)15-10-11-17(18(12-15)30-3)32-13-19(27)25-16-8-6-5-7-9-16/h5-12,20-21H,4,13H2,1-3H3,(H,25,27)(H,26,29)

>  <IUPAC Name>  (1) 
ethyl 6-[4-(2-anilino-2-oxoethoxy)-3-methoxyphenyl]-4-methyl-2-oxo-5,6-dihydro-1H-pyrimidine-5-carboxylate

$$$$
