
     RDKit          3D

 53 57  0  0  0  0  0  0  0  0999 V2000
   -5.1999    5.1171    2.3697 Cl  0  0  0  0  0  0  0  0  0  0  0  0
   -4.3320    3.7703    1.6331 C   0  0  0  0  0  0  0  0  0  0  0  0
   -3.1888    3.9934    0.8979 C   0  0  0  0  0  0  0  0  0  0  0  0
   -2.4838    2.9627    0.3077 C   0  0  0  0  0  0  0  0  0  0  0  0
   -2.9164    1.6538    0.4426 C   0  0  0  0  0  0  0  0  0  0  0  0
   -4.0615    1.4191    1.1780 C   0  0  0  0  0  0  0  0  0  0  0  0
   -4.7591    2.4775    1.7663 C   0  0  0  0  0  0  0  0  0  0  0  0
   -2.1512    0.5340   -0.2022 C   0  0  0  0  0  0  0  0  0  0  0  0
   -1.0368    0.0900    0.6671 C   0  0  0  0  0  0  0  0  0  0  0  0
   -1.2131   -0.2526    1.9913 C   0  0  0  0  0  0  0  0  0  0  0  0
   -0.1793   -0.6726    2.8005 C   0  0  0  0  0  0  0  0  0  0  0  0
    1.0984   -0.7484    2.2375 C   0  0  0  0  0  0  0  0  0  0  0  0
    1.3277   -0.4147    0.9109 C   0  0  0  0  0  0  0  0  0  0  0  0
    0.2601   -0.0092    0.1740 C   0  0  0  0  0  0  0  0  0  0  0  0
    2.6152   -0.5109    0.4188 C   0  0  0  0  0  0  0  0  0  0  0  0
    2.8843   -0.1601   -0.9293 N   0  0  0  0  0  0  0  0  0  0  0  0
    4.2179   -0.1542   -1.4748 C   0  0  0  0  0  0  0  0  0  0  0  0
    5.2746    0.4536   -0.8533 C   0  0  0  0  0  0  0  0  0  0  0  0
    6.5408    0.4138   -1.4029 C   0  0  0  0  0  0  0  0  0  0  0  0
    6.7773   -0.2391   -2.5952 C   0  0  0  0  0  0  0  0  0  0  0  0
    5.7164   -0.8558   -3.2319 C   0  0  0  0  0  0  0  0  0  0  0  0
    4.4489   -0.8158   -2.6806 C   0  0  0  0  0  0  0  0  0  0  0  0
    5.9945   -1.4846   -4.3997 F   0  0  0  0  0  0  0  0  0  0  0  0
    8.4052   -0.2601   -3.2516 Cl  0  0  0  0  0  0  0  0  0  0  0  0
    3.5858   -0.9336    1.2844 C   0  0  0  0  0  0  0  0  0  0  0  0
    3.3230   -1.2627    2.6176 C   0  0  0  0  0  0  0  0  0  0  0  0
    4.2315   -1.6428    3.3730 O   0  0  0  0  0  0  0  0  0  0  0  0
    2.0702   -1.1610    3.0677 N   0  0  0  0  0  0  0  0  0  0  0  0
   -2.9684   -0.5952   -0.6133 C   0  0  0  0  0  0  0  0  0  0  0  0
   -3.1000   -1.7957    0.0482 C   0  0  0  0  0  0  0  0  0  0  0  0
   -3.9100   -2.8248   -0.4097 C   0  0  0  0  0  0  0  0  0  0  0  0
   -4.6301   -2.6751   -1.5751 C   0  0  0  0  0  0  0  0  0  0  0  0
   -4.5129   -1.4873   -2.2489 C   0  0  0  0  0  0  0  0  0  0  0  0
   -3.7065   -0.4706   -1.7875 C   0  0  0  0  0  0  0  0  0  0  0  0
   -5.6611   -3.9560   -2.1786 Cl  0  0  0  0  0  0  0  0  0  0  0  0
   -2.8406    5.0031    0.7855 H   0  0  0  0  0  0  0  0  0  0  0  0
   -1.5866    3.1407   -0.2680 H   0  0  0  0  0  0  0  0  0  0  0  0
   -4.3908    0.4036    1.2798 H   0  0  0  0  0  0  0  0  0  0  0  0
   -5.6558    2.2992    2.3422 H   0  0  0  0  0  0  0  0  0  0  0  0
   -1.6847    0.9554   -1.1265 H   0  0  0  0  0  0  0  0  0  0  0  0
   -2.1906   -0.1960    2.4551 H   0  0  0  0  0  0  0  0  0  0  0  0
   -0.3379   -0.9421    3.8550 H   0  0  0  0  0  0  0  0  0  0  0  0
    0.3799    0.2628   -0.8611 H   0  0  0  0  0  0  0  0  0  0  0  0
    2.1503    0.1149   -1.6217 H   0  0  0  0  0  0  0  0  0  0  0  0
    5.1678    0.9977    0.0738 H   0  0  0  0  0  0  0  0  0  0  0  0
    7.3703    0.9010   -0.8986 H   0  0  0  0  0  0  0  0  0  0  0  0
    3.6533   -1.3055   -3.2043 H   0  0  0  0  0  0  0  0  0  0  0  0
    4.6112   -1.0515    0.9820 H   0  0  0  0  0  0  0  0  0  0  0  0
    1.8845   -1.4146    4.0815 H   0  0  0  0  0  0  0  0  0  0  0  0
   -2.5648   -1.9867    0.9614 H   0  0  0  0  0  0  0  0  0  0  0  0
   -3.9820   -3.7572    0.1504 H   0  0  0  0  0  0  0  0  0  0  0  0
   -5.0943   -1.3853   -3.1760 H   0  0  0  0  0  0  0  0  0  0  0  0
   -3.6503    0.4580   -2.3668 H   0  0  0  0  0  0  0  0  0  0  0  0
  1  2  1  0
  2  3  2  0
  3  4  1  0
  4  5  2  0
  5  6  1  0
  6  7  2  0
  5  8  1  0
  8  9  1  0
  9 10  2  0
 10 11  1  0
 11 12  2  0
 12 13  1  0
 13 14  2  0
 13 15  1  0
 15 16  1  0
 16 17  1  0
 17 18  2  0
 18 19  1  0
 19 20  2  0
 20 21  1  0
 21 22  2  0
 21 23  1  0
 20 24  1  0
 15 25  2  0
 25 26  1  0
 26 27  2  0
 26 28  1  0
  8 29  1  0
 29 30  2  0
 30 31  1  0
 31 32  2  0
 32 33  1  0
 33 34  2  0
 32 35  1  0
  7  2  1  0
 14  9  1  0
 22 17  1  0
 34 29  1  0
 28 12  1  0
  3 36  1  0
  4 37  1  0
  6 38  1  0
  7 39  1  0
  8 40  1  0
 10 41  1  0
 11 42  1  0
 14 43  1  0
 16 44  1  0
 18 45  1  0
 19 46  1  0
 22 47  1  0
 25 48  1  0
 28 49  1  0
 30 50  1  0
 31 51  1  0
 33 52  1  0
 34 53  1  0
M  END
>  <Ligand ID>  (1) 
LIG0005891

>  <Ligand>  (1) 
CHEMBL3900808

>  <SMILES>  (1) 
Clc1ccc(cc1)C(c1ccc2c(c1)c(Nc1ccc(c(c1)F)Cl)cc(=O)[nH]2)c1ccc(cc1)Cl

>  <CID>  (1) 
118329983.0

>  <ChEMBL ID>  (1) 
nan

>  <InChiKey>  (1) 
YHQMYQZVZSFUFW-UHFFFAOYSA-N

>  <InChi>  (1) 
InChI=1S/C28H18Cl3FN2O/c29-19-6-1-16(2-7-19)28(17-3-8-20(30)9-4-17)18-5-12-25-22(13-18)26(15-27(35)34-25)33-21-10-11-23(31)24(32)14-21/h1-15,28H,(H2,33,34,35)

>  <IUPAC Name>  (1) 
6-[bis(4-chlorophenyl)methyl]-4-(4-chloro-3-fluoroanilino)-1H-quinolin-2-one

$$$$
