
     RDKit          3D

 51 53  0  0  0  0  0  0  0  0999 V2000
   -5.6165   -1.7891    3.8698 Cl  0  0  0  0  0  0  0  0  0  0  0  0
   -6.0637   -1.1412    2.2992 C   0  0  0  0  0  0  0  0  0  0  0  0
   -7.3634   -0.7441    2.0164 C   0  0  0  0  0  0  0  0  0  0  0  0
   -7.6489   -0.2427    0.7663 C   0  0  0  0  0  0  0  0  0  0  0  0
   -6.6657   -0.1261   -0.2155 C   0  0  0  0  0  0  0  0  0  0  0  0
   -5.3782   -0.5198    0.0653 C   0  0  0  0  0  0  0  0  0  0  0  0
   -5.0622   -1.0323    1.3267 C   0  0  0  0  0  0  0  0  0  0  0  0
   -4.3598   -0.3788   -1.0058 C   0  0  2  0  0  0  0  0  0  0  0  0
   -3.8680    1.0640   -1.0403 C   0  0  0  0  0  0  0  0  0  0  0  0
   -2.7929    1.2660   -1.9533 N   0  0  0  0  0  0  0  0  0  0  0  0
   -1.5634    0.6176   -1.5566 C   0  0  0  0  0  0  0  0  0  0  0  0
   -0.9562    1.2383   -0.3254 C   0  0  0  0  0  0  0  0  0  0  0  0
    0.2988    0.4987   -0.0079 C   0  0  0  0  0  0  0  0  0  0  0  0
    0.2978   -0.6035    0.8211 C   0  0  0  0  0  0  0  0  0  0  0  0
    1.5130   -1.2474    1.0743 C   0  0  0  0  0  0  0  0  0  0  0  0
    2.6944   -0.7859    0.5026 C   0  0  0  0  0  0  0  0  0  0  0  0
    2.6572    0.3176   -0.3200 C   0  0  0  0  0  0  0  0  0  0  0  0
    1.4728    0.9735   -0.5881 C   0  0  0  0  0  0  0  0  0  0  0  0
    3.8110    0.8360   -0.9291 O   0  0  0  0  0  0  0  0  0  0  0  0
    5.0551    0.2346   -0.7280 C   0  0  0  0  0  0  0  0  0  0  0  0
    5.5214   -0.7770   -1.5717 C   0  0  0  0  0  0  0  0  0  0  0  0
    6.7600   -1.3697   -1.3656 C   0  0  0  0  0  0  0  0  0  0  0  0
    7.5523   -0.9495   -0.2997 C   0  0  0  0  0  0  0  0  0  0  0  0
    7.0807    0.0518    0.5286 C   0  0  0  0  0  0  0  0  0  0  0  0
    5.8625    0.6287    0.3185 C   0  0  0  0  0  0  0  0  0  0  0  0
    7.9502    0.4523    1.6293 C   0  0  0  0  0  0  0  0  0  0  0  0
    9.0677   -0.0988    1.8029 O   0  0  0  0  0  0  0  0  0  0  0  0
    7.6016    1.4497    2.5360 O   0  0  0  0  0  0  0  0  0  0  0  0
   -4.8218   -0.8111   -2.2326 O   0  0  0  0  0  0  0  0  0  0  0  0
   -8.0783   -0.8562    2.8076 H   0  0  0  0  0  0  0  0  0  0  0  0
   -8.6786    0.0608    0.5757 H   0  0  0  0  0  0  0  0  0  0  0  0
   -6.9424    0.2777   -1.1893 H   0  0  0  0  0  0  0  0  0  0  0  0
   -4.0431   -1.3430    1.5432 H   0  0  0  0  0  0  0  0  0  0  0  0
   -3.5011   -1.0395   -0.6819 H   0  0  0  0  0  0  0  0  0  0  0  0
   -3.6908    1.4139   -0.0244 H   0  0  0  0  0  0  0  0  0  0  0  0
   -4.7369    1.6554   -1.4278 H   0  0  0  0  0  0  0  0  0  0  0  0
   -3.0461    0.8852   -2.8773 H   0  0  0  0  0  0  0  0  0  0  0  0
   -1.6740   -0.4584   -1.4387 H   0  0  0  0  0  0  0  0  0  0  0  0
   -0.8449    0.8014   -2.3850 H   0  0  0  0  0  0  0  0  0  0  0  0
   -1.6607    1.0960    0.5175 H   0  0  0  0  0  0  0  0  0  0  0  0
   -0.7632    2.3054   -0.4329 H   0  0  0  0  0  0  0  0  0  0  0  0
   -0.6344   -0.9584    1.2646 H   0  0  0  0  0  0  0  0  0  0  0  0
    1.5011   -2.1105    1.7258 H   0  0  0  0  0  0  0  0  0  0  0  0
    3.6374   -1.2873    0.7011 H   0  0  0  0  0  0  0  0  0  0  0  0
    1.4360    1.8509   -1.2412 H   0  0  0  0  0  0  0  0  0  0  0  0
    4.9068   -1.1149   -2.4136 H   0  0  0  0  0  0  0  0  0  0  0  0
    7.1007   -2.1632   -2.0463 H   0  0  0  0  0  0  0  0  0  0  0  0
    8.5177   -1.4151   -0.1428 H   0  0  0  0  0  0  0  0  0  0  0  0
    5.4898    1.4183    0.9710 H   0  0  0  0  0  0  0  0  0  0  0  0
    7.8167    1.3525    3.5428 H   0  0  0  0  0  0  0  0  0  0  0  0
   -5.1474   -0.0408   -2.7653 H   0  0  0  0  0  0  0  0  0  0  0  0
  1  2  1  0
  2  3  2  0
  3  4  1  0
  4  5  2  0
  5  6  1  0
  6  7  2  0
  6  8  1  0
  8  9  1  0
  9 10  1  0
 10 11  1  0
 11 12  1  0
 12 13  1  0
 13 14  2  0
 14 15  1  0
 15 16  2  0
 16 17  1  0
 17 18  2  0
 17 19  1  0
 19 20  1  0
 20 21  2  0
 21 22  1  0
 22 23  2  0
 23 24  1  0
 24 25  2  0
 24 26  1  0
 26 27  2  0
 26 28  1  0
  8 29  1  0
  7  2  1  0
 18 13  1  0
 25 20  1  0
  3 30  1  0
  4 31  1  0
  5 32  1  0
  7 33  1  0
  8 34  1  1
  9 35  1  0
  9 36  1  0
 10 37  1  0
 11 38  1  0
 11 39  1  0
 12 40  1  0
 12 41  1  0
 14 42  1  0
 15 43  1  0
 16 44  1  0
 18 45  1  0
 21 46  1  0
 22 47  1  0
 23 48  1  0
 25 49  1  0
 28 50  1  0
 29 51  1  0
M  END
>  <Ligand ID>  (1) 
LIG0005870

>  <Ligand>  (1) 
CHEMBL523817

>  <SMILES>  (1) 
Clc1cccc(c1)[C@H](CNCCc1cccc(c1)Oc1cccc(c1)C(=O)O)O

>  <CID>  (1) 
44579965.0

>  <ChEMBL ID>  (1) 
nan

>  <InChiKey>  (1) 
KIIFBGJNZWAPBC-QFIPXVFZSA-N

>  <InChi>  (1) 
InChI=1S/C23H22ClNO4/c24-19-7-2-5-17(13-19)22(26)15-25-11-10-16-4-1-8-20(12-16)29-21-9-3-6-18(14-21)23(27)28/h1-9,12-14,22,25-26H,10-11,15H2,(H,27,28)/t22-/m0/s1

>  <IUPAC Name>  (1) 
3-[3-[2-[[(2R)-2-(3-chlorophenyl)-2-hydroxyethyl]amino]ethyl]phenoxy]benzoic acid

$$$$
