
     RDKit          3D

108111  0  0  0  0  0  0  0  0999 V2000
   -4.7909   -4.3760    2.7600 O   0  0  0  0  0  0  0  0  0  0  0  0
   -6.0191   -3.7876    3.0139 C   0  0  0  0  0  0  0  0  0  0  0  0
   -5.9110   -2.2769    3.1257 C   0  0  1  0  0  0  0  0  0  0  0  0
   -5.0737   -1.9475    4.2909 C   0  0  0  0  0  0  0  0  0  0  0  0
   -4.0457   -1.2517    4.2043 O   0  0  0  0  0  0  0  0  0  0  0  0
   -5.5184   -2.4847    5.5597 N   0  0  0  0  0  0  0  0  0  0  0  0
   -5.3955   -1.6937    1.9044 N   0  0  0  0  0  0  0  0  0  0  0  0
   -6.2951   -0.9387    1.1150 C   0  0  0  0  0  0  0  0  0  0  0  0
   -7.5121   -0.7692    1.4500 O   0  0  0  0  0  0  0  0  0  0  0  0
   -5.8925   -0.2757   -0.1773 C   0  0  2  0  0  0  0  0  0  0  0  0
   -6.6819   -0.9646   -1.2532 C   0  0  0  0  0  0  0  0  0  0  0  0
   -5.6738   -1.6488   -2.1375 C   0  0  0  0  0  0  0  0  0  0  0  0
   -4.4408   -1.8438   -1.2401 C   0  0  0  0  0  0  0  0  0  0  0  0
   -4.5198   -0.5429   -0.5268 N   0  0  0  0  0  0  0  0  0  0  0  0
   -3.3292    0.1797   -0.2678 C   0  0  0  0  0  0  0  0  0  0  0  0
   -2.2452   -0.4095   -0.6197 O   0  0  0  0  0  0  0  0  0  0  0  0
   -3.1874    1.4980    0.3469 C   0  0  2  0  0  0  0  0  0  0  0  0
   -3.2579    2.5556   -0.7784 C   0  0  0  0  0  0  0  0  0  0  0  0
   -4.4938    2.5686   -1.5466 C   0  0  0  0  0  0  0  0  0  0  0  0
   -4.6394    1.7805   -2.6747 C   0  0  0  0  0  0  0  0  0  0  0  0
   -5.7872    1.7763   -3.4367 C   0  0  0  0  0  0  0  0  0  0  0  0
   -6.8703    2.5852   -3.0898 C   0  0  0  0  0  0  0  0  0  0  0  0
   -6.7137    3.3653   -1.9650 C   0  0  0  0  0  0  0  0  0  0  0  0
   -5.5608    3.3701   -1.1996 C   0  0  0  0  0  0  0  0  0  0  0  0
   -8.0194    2.5696   -3.8656 O   0  0  0  0  0  0  0  0  0  0  0  0
   -1.7443    1.6374    0.7286 N   0  0  0  0  0  0  0  0  0  0  0  0
   -1.3723    2.0972    2.0131 C   0  0  0  0  0  0  0  0  0  0  0  0
   -2.2846    2.3822    2.8607 O   0  0  0  0  0  0  0  0  0  0  0  0
    0.0552    2.2584    2.4091 C   0  0  0  0  0  0  0  0  0  0  0  0
    0.9893    1.9595    1.3648 N   0  0  0  0  0  0  0  0  0  0  0  0
    0.9446    2.7544    0.1851 C   0  0  0  0  0  0  0  0  0  0  0  0
    0.1028    3.7190    0.0610 O   0  0  0  0  0  0  0  0  0  0  0  0
    1.8342    2.5522   -0.9825 C   0  0  1  0  0  0  0  0  0  0  0  0
    2.7750    1.4977   -0.6629 N   0  0  0  0  0  0  0  0  0  0  0  0
    4.1413    1.7435   -1.0137 C   0  0  0  0  0  0  0  0  0  0  0  0
    4.4983    2.8279   -1.5811 O   0  0  0  0  0  0  0  0  0  0  0  0
    5.2286    0.7685   -0.7492 C   0  0  1  0  0  0  0  0  0  0  0  0
    4.7546   -0.3746    0.0117 N   0  0  0  0  0  0  0  0  0  0  0  0
    5.4615   -0.6598    1.2208 C   0  0  0  0  0  0  0  0  0  0  0  0
    6.4266    0.0663    1.5489 O   0  0  0  0  0  0  0  0  0  0  0  0
    5.1127   -1.7817    2.1202 C   0  0  2  0  0  0  0  0  0  0  0  0
    6.1740   -2.8770    2.0619 C   0  0  0  0  0  0  0  0  0  0  0  0
    7.5011   -2.3667    2.4674 C   0  0  0  0  0  0  0  0  0  0  0  0
    8.3709   -1.8721    1.5151 C   0  0  0  0  0  0  0  0  0  0  0  0
    9.6203   -1.3846    1.8095 C   0  0  0  0  0  0  0  0  0  0  0  0
   10.0071   -1.4011    3.1519 C   0  0  0  0  0  0  0  0  0  0  0  0
    9.1553   -1.8905    4.1267 C   0  0  0  0  0  0  0  0  0  0  0  0
    7.8886   -2.3827    3.8121 C   0  0  0  0  0  0  0  0  0  0  0  0
   11.2622   -0.9174    3.4885 O   0  0  0  0  0  0  0  0  0  0  0  0
    3.8765   -2.4305    1.6771 N   0  0  0  0  0  0  0  0  0  0  0  0
    5.6971    0.2512   -2.0999 C   0  0  0  0  0  0  0  0  0  0  0  0
    1.0031    2.1300   -2.2074 C   0  0  0  0  0  0  0  0  0  0  0  0
    1.8884    1.9337   -3.3736 C   0  0  0  0  0  0  0  0  0  0  0  0
    2.4933    0.7310   -3.6858 C   0  0  0  0  0  0  0  0  0  0  0  0
    3.3124    0.6310   -4.8059 C   0  0  0  0  0  0  0  0  0  0  0  0
    3.5385    1.7207   -5.6240 C   0  0  0  0  0  0  0  0  0  0  0  0
    2.9243    2.8973   -5.2859 C   0  0  0  0  0  0  0  0  0  0  0  0
    2.1050    3.0449   -4.1880 C   0  0  0  0  0  0  0  0  0  0  0  0
   -4.9720   -5.3291    2.5560 H   0  0  0  0  0  0  0  0  0  0  0  0
   -6.3662   -4.1430    4.0068 H   0  0  0  0  0  0  0  0  0  0  0  0
   -6.7989   -4.0521    2.2764 H   0  0  0  0  0  0  0  0  0  0  0  0
   -6.9509   -1.9351    3.3362 H   0  0  0  0  0  0  0  0  0  0  0  0
   -6.3044   -1.9998    6.0571 H   0  0  0  0  0  0  0  0  0  0  0  0
   -5.0524   -3.3476    5.9608 H   0  0  0  0  0  0  0  0  0  0  0  0
   -4.4023   -1.8219    1.6273 H   0  0  0  0  0  0  0  0  0  0  0  0
   -6.1373    0.8115   -0.1120 H   0  0  0  0  0  0  0  0  0  0  0  0
   -7.4218   -1.6861   -0.8333 H   0  0  0  0  0  0  0  0  0  0  0  0
   -7.2183   -0.1499   -1.8228 H   0  0  0  0  0  0  0  0  0  0  0  0
   -6.0703   -2.6401   -2.4654 H   0  0  0  0  0  0  0  0  0  0  0  0
   -5.3467   -1.0289   -2.9799 H   0  0  0  0  0  0  0  0  0  0  0  0
   -4.6426   -2.6749   -0.5496 H   0  0  0  0  0  0  0  0  0  0  0  0
   -3.5334   -1.9415   -1.8285 H   0  0  0  0  0  0  0  0  0  0  0  0
   -3.8513    1.7344    1.1676 H   0  0  0  0  0  0  0  0  0  0  0  0
   -2.4035    2.3584   -1.4629 H   0  0  0  0  0  0  0  0  0  0  0  0
   -3.0159    3.5514   -0.3212 H   0  0  0  0  0  0  0  0  0  0  0  0
   -3.8090    1.1307   -2.9821 H   0  0  0  0  0  0  0  0  0  0  0  0
   -5.9080    1.1651   -4.3178 H   0  0  0  0  0  0  0  0  0  0  0  0
   -7.5508    4.0037   -1.6758 H   0  0  0  0  0  0  0  0  0  0  0  0
   -5.4361    3.9815   -0.3167 H   0  0  0  0  0  0  0  0  0  0  0  0
   -8.8482    3.0419   -3.5104 H   0  0  0  0  0  0  0  0  0  0  0  0
   -1.0826    1.3555   -0.0208 H   0  0  0  0  0  0  0  0  0  0  0  0
    0.2020    3.2678    2.8358 H   0  0  0  0  0  0  0  0  0  0  0  0
    0.1968    1.5389    3.2679 H   0  0  0  0  0  0  0  0  0  0  0  0
    1.6716    1.1861    1.4835 H   0  0  0  0  0  0  0  0  0  0  0  0
    2.3925    3.4370   -1.2902 H   0  0  0  0  0  0  0  0  0  0  0  0
    2.5272    0.5950   -0.2140 H   0  0  0  0  0  0  0  0  0  0  0  0
    6.0517    1.2678   -0.2489 H   0  0  0  0  0  0  0  0  0  0  0  0
    3.9599   -0.9687   -0.2672 H   0  0  0  0  0  0  0  0  0  0  0  0
    4.9586   -1.4340    3.1406 H   0  0  0  0  0  0  0  0  0  0  0  0
    5.9091   -3.7180    2.7293 H   0  0  0  0  0  0  0  0  0  0  0  0
    6.2429   -3.2891    1.0338 H   0  0  0  0  0  0  0  0  0  0  0  0
    8.0416   -1.8721    0.4673 H   0  0  0  0  0  0  0  0  0  0  0  0
   10.2607   -1.0099    1.0323 H   0  0  0  0  0  0  0  0  0  0  0  0
    9.5067   -1.8796    5.1612 H   0  0  0  0  0  0  0  0  0  0  0  0
    7.2340   -2.7609    4.5828 H   0  0  0  0  0  0  0  0  0  0  0  0
   11.5815   -0.1124    2.9724 H   0  0  0  0  0  0  0  0  0  0  0  0
    3.2066   -1.6623    1.5096 H   0  0  0  0  0  0  0  0  0  0  0  0
    4.0595   -2.9705    0.8078 H   0  0  0  0  0  0  0  0  0  0  0  0
    5.6615    1.0340   -2.8784 H   0  0  0  0  0  0  0  0  0  0  0  0
    6.7265   -0.1483   -1.9906 H   0  0  0  0  0  0  0  0  0  0  0  0
    4.9950   -0.5691   -2.3956 H   0  0  0  0  0  0  0  0  0  0  0  0
    0.5714    1.1258   -1.9428 H   0  0  0  0  0  0  0  0  0  0  0  0
    0.2507    2.8889   -2.4096 H   0  0  0  0  0  0  0  0  0  0  0  0
    2.3200   -0.1298   -3.0452 H   0  0  0  0  0  0  0  0  0  0  0  0
    3.8079   -0.2932   -5.0865 H   0  0  0  0  0  0  0  0  0  0  0  0
    4.1711    1.6892   -6.5063 H   0  0  0  0  0  0  0  0  0  0  0  0
    3.0981    3.7630   -5.9284 H   0  0  0  0  0  0  0  0  0  0  0  0
    1.6505    4.0012   -3.9758 H   0  0  0  0  0  0  0  0  0  0  0  0
  1  2  1  0
  2  3  1  0
  3  4  1  0
  4  5  2  0
  4  6  1  0
  3  7  1  0
  7  8  1  0
  8  9  2  0
  8 10  1  0
 10 11  1  0
 11 12  1  0
 12 13  1  0
 13 14  1  0
 14 15  1  0
 15 16  2  0
 15 17  1  0
 17 18  1  0
 18 19  1  0
 19 20  2  0
 20 21  1  0
 21 22  2  0
 22 23  1  0
 23 24  2  0
 22 25  1  0
 17 26  1  0
 26 27  1  0
 27 28  2  0
 27 29  1  0
 29 30  1  0
 30 31  1  0
 31 32  2  0
 31 33  1  0
 33 34  1  0
 34 35  1  0
 35 36  2  0
 35 37  1  0
 37 38  1  0
 38 39  1  0
 39 40  2  0
 39 41  1  0
 41 42  1  0
 42 43  1  0
 43 44  2  0
 44 45  1  0
 45 46  2  0
 46 47  1  0
 47 48  2  0
 46 49  1  0
 41 50  1  0
 37 51  1  0
 33 52  1  0
 52 53  1  0
 53 54  2  0
 54 55  1  0
 55 56  2  0
 56 57  1  0
 57 58  2  0
 14 10  1  0
 24 19  1  0
 48 43  1  0
 58 53  1  0
  1 59  1  0
  2 60  1  0
  2 61  1  0
  3 62  1  1
  6 63  1  0
  6 64  1  0
  7 65  1  0
 10 66  1  1
 11 67  1  0
 11 68  1  0
 12 69  1  0
 12 70  1  0
 13 71  1  0
 13 72  1  0
 17 73  1  1
 18 74  1  0
 18 75  1  0
 20 76  1  0
 21 77  1  0
 23 78  1  0
 24 79  1  0
 25 80  1  0
 26 81  1  0
 29 82  1  0
 29 83  1  0
 30 84  1  0
 33 85  1  6
 34 86  1  0
 37 87  1  1
 38 88  1  0
 41 89  1  1
 42 90  1  0
 42 91  1  0
 44 92  1  0
 45 93  1  0
 47 94  1  0
 48 95  1  0
 49 96  1  0
 50 97  1  0
 50 98  1  0
 51 99  1  0
 51100  1  0
 51101  1  0
 52102  1  0
 52103  1  0
 54104  1  0
 55105  1  0
 56106  1  0
 57107  1  0
 58108  1  0
M  END
>  <Ligand ID>  (1) 
LIG0005161

>  <Ligand>  (1) 
CHEMBL285479

>  <SMILES>  (1) 
OC[C@@H](C(=O)N)NC(=O)[C@@H]1CCCN1C(=O)[C@H](Cc1ccc(cc1)O)NC(=O)CNC(=O)[C@@H](NC(=O)[C@@H](NC(=O)[C@H](Cc1ccc(cc1)O)N)C)Cc1ccccc1

>  <CID>  (1) 
107772.0

>  <ChEMBL ID>  (1) 
nan

>  <InChiKey>  (1) 
FHZPGIUBXYVUOY-XDGMXVDYSA-N

>  <InChi>  (1) 
InChI=1S/C40H50N8O10/c1-23(44-37(55)29(41)18-25-9-13-27(50)14-10-25)36(54)46-30(19-24-6-3-2-4-7-24)38(56)43-21-34(52)45-31(20-26-11-15-28(51)16-12-26)40(58)48-17-5-8-33(48)39(57)47-32(22-49)35(42)53/h2-4,6-7,9-16,23,29-33,49-51H,5,8,17-22,41H2,1H3,(H2,42,53)(H,43,56)(H,44,55)(H,45,52)(H,46,54)(H,47,57)/t23-,29-,30-,31-,32-,33-/m0/s1

>  <IUPAC Name>  (1) 
(2S)-N-[(2S)-1-amino-3-hydroxy-1-oxopropan-2-yl]-1-[(2S)-2-[[2-[[(2S)-2-[[(2S)-2-[[(2S)-2-amino-3-(4-hydroxyphenyl)propanoyl]amino]propanoyl]amino]-3-phenylpropanoyl]amino]acetyl]amino]-3-(4-hydroxyphenyl)propanoyl]pyrrolidine-2-carboxamide

$$$$
