
     RDKit          3D

153159  0  0  0  0  0  0  0  0999 V2000
   10.4759   -4.3450    1.0867 C   0  0  0  0  0  0  0  0  0  0  0  0
    9.5017   -3.7005    2.0662 C   0  0  0  0  0  0  0  0  0  0  0  0
    8.3349   -3.0674    1.3652 C   0  0  0  0  0  0  0  0  0  0  0  0
    8.7691   -1.9991    0.4162 C   0  0  0  0  0  0  0  0  0  0  0  0
    7.6011   -1.3419   -0.3195 C   0  0  2  0  0  0  0  0  0  0  0  0
    6.7179   -0.7330    0.6962 C   0  0  0  0  0  0  0  0  0  0  0  0
    7.2149    0.1234    1.5030 O   0  0  0  0  0  0  0  0  0  0  0  0
    5.3118   -1.0814    0.7971 N   0  0  0  0  0  0  0  0  0  0  0  0
    4.5654   -0.4271    1.8086 C   0  0  2  0  0  0  0  0  0  0  0  0
    3.7391   -1.3952    2.6492 C   0  0  0  0  0  0  0  0  0  0  0  0
    2.8349   -2.1682    1.7700 C   0  0  0  0  0  0  0  0  0  0  0  0
    2.8787   -2.1859    0.5265 O   0  0  0  0  0  0  0  0  0  0  0  0
    1.7704   -3.0093    2.2892 N   0  0  0  0  0  0  0  0  0  0  0  0
    0.9813   -3.7283    1.3138 C   0  0  0  0  0  0  0  0  0  0  0  0
    1.7284   -4.7844    0.5544 C   0  0  0  0  0  0  0  0  0  0  0  0
    0.7650   -5.2936   -0.5290 C   0  0  0  0  0  0  0  0  0  0  0  0
    0.7310   -4.2817   -1.6123 C   0  0  0  0  0  0  0  0  0  0  0  0
   -0.3930   -4.4950   -2.6377 C   0  0  2  0  0  0  0  0  0  0  0  0
   -1.6626   -4.2557   -1.9254 N   0  0  0  0  0  0  0  0  0  0  0  0
   -2.2244   -2.9658   -2.0855 C   0  0  0  0  0  0  0  0  0  0  0  0
   -1.6735   -2.2032   -2.8789 O   0  0  0  0  0  0  0  0  0  0  0  0
   -3.4518   -2.5200   -1.3203 C   0  0  1  0  0  0  0  0  0  0  0  0
   -3.7129   -1.1238   -1.6309 N   0  0  0  0  0  0  0  0  0  0  0  0
   -2.9253   -0.1674   -0.9291 C   0  0  0  0  0  0  0  0  0  0  0  0
   -2.0360   -0.6425   -0.2004 O   0  0  0  0  0  0  0  0  0  0  0  0
   -3.0659    1.2916   -0.9957 C   0  0  2  0  0  0  0  0  0  0  0  0
   -1.9928    1.9657   -0.3207 N   0  0  0  0  0  0  0  0  0  0  0  0
   -2.0227    3.2634    0.2595 C   0  0  0  0  0  0  0  0  0  0  0  0
   -3.1241    3.8101    0.2931 O   0  0  0  0  0  0  0  0  0  0  0  0
   -0.8509    3.9545    0.8202 C   0  0  1  0  0  0  0  0  0  0  0  0
    0.4185    3.6031    0.2423 N   0  0  0  0  0  0  0  0  0  0  0  0
    1.4690    2.8674    0.9198 C   0  0  0  0  0  0  0  0  0  0  0  0
    1.0904    2.4601    2.0315 O   0  0  0  0  0  0  0  0  0  0  0  0
    2.7362    2.7123    0.2619 C   0  0  1  0  0  0  0  0  0  0  0  0
    3.4658    1.4542    0.3149 N   0  0  0  0  0  0  0  0  0  0  0  0
    3.8059    0.7648    1.4750 C   0  0  0  0  0  0  0  0  0  0  0  0
    3.2941    1.3666    2.4988 O   0  0  0  0  0  0  0  0  0  0  0  0
    3.8591    0.9157   -0.9525 C   0  0  0  0  0  0  0  0  0  0  0  0
    4.6893    1.9637   -1.6793 C   0  0  0  0  0  0  0  0  0  0  0  0
    5.9168    1.6967   -2.1981 C   0  0  0  0  0  0  0  0  0  0  0  0
    6.5773    2.7472   -2.8333 C   0  0  0  0  0  0  0  0  0  0  0  0
    5.9598    3.9867   -2.9019 C   0  0  0  0  0  0  0  0  0  0  0  0
    4.7143    4.2443   -2.3718 C   0  0  0  0  0  0  0  0  0  0  0  0
    4.0721    3.2018   -1.7482 C   0  0  0  0  0  0  0  0  0  0  0  0
    2.7236    3.2985   -1.1316 C   0  0  0  0  0  0  0  0  0  0  0  0
   -0.9913    5.4349    0.7053 C   0  0  0  0  0  0  0  0  0  0  0  0
   -2.1268    6.0511    1.3753 C   0  0  0  0  0  0  0  0  0  0  0  0
   -2.0187    6.2574    2.7584 C   0  0  0  0  0  0  0  0  0  0  0  0
   -3.0324    6.8599    3.4780 C   0  0  0  0  0  0  0  0  0  0  0  0
   -4.1859    7.2811    2.8655 C   0  0  0  0  0  0  0  0  0  0  0  0
   -4.3126    7.0891    1.5025 C   0  0  0  0  0  0  0  0  0  0  0  0
   -3.2917    6.4854    0.7958 C   0  0  0  0  0  0  0  0  0  0  0  0
   -5.4648    7.5106    0.8745 C   0  0  0  0  0  0  0  0  0  0  0  0
   -6.4488    8.1095    1.6359 C   0  0  0  0  0  0  0  0  0  0  0  0
   -6.3448    8.3108    2.9932 C   0  0  0  0  0  0  0  0  0  0  0  0
   -5.1877    7.8870    3.6225 C   0  0  0  0  0  0  0  0  0  0  0  0
   -4.4599    1.7116   -0.5381 C   0  0  0  0  0  0  0  0  0  0  0  0
   -4.8610    1.3791    0.8244 C   0  0  0  0  0  0  0  0  0  0  0  0
   -6.2947    1.9060    1.0604 C   0  0  0  0  0  0  0  0  0  0  0  0
   -7.2153    1.3039    0.1181 N   0  0  0  0  0  0  0  0  0  0  0  0
   -7.7736    1.9988   -0.8282 C   0  0  0  0  0  0  0  0  0  0  0  0
   -7.5170    3.3970   -0.9999 N   0  0  0  0  0  0  0  0  0  0  0  0
   -8.6760    1.4062   -1.7469 N   0  0  0  0  0  0  0  0  0  0  0  0
   -4.6217   -3.3495   -1.6747 C   0  0  0  0  0  0  0  0  0  0  0  0
   -5.8585   -2.9234   -0.9226 C   0  0  0  0  0  0  0  0  0  0  0  0
   -6.9375   -2.2146   -1.4009 C   0  0  0  0  0  0  0  0  0  0  0  0
   -7.8331   -2.0456   -0.3843 N   0  0  0  0  0  0  0  0  0  0  0  0
   -7.3464   -2.6334    0.7370 C   0  0  0  0  0  0  0  0  0  0  0  0
   -6.1324   -3.1718    0.3992 C   0  0  0  0  0  0  0  0  0  0  0  0
   -5.4121   -3.8343    1.3671 C   0  0  0  0  0  0  0  0  0  0  0  0
   -5.9517   -3.9213    2.6246 C   0  0  0  0  0  0  0  0  0  0  0  0
   -7.1753   -3.3824    2.9756 C   0  0  0  0  0  0  0  0  0  0  0  0
   -7.8831   -2.7239    2.0006 C   0  0  0  0  0  0  0  0  0  0  0  0
   -0.3299   -5.8258   -3.1905 C   0  0  0  0  0  0  0  0  0  0  0  0
    0.6644   -6.2560   -3.8332 O   0  0  0  0  0  0  0  0  0  0  0  0
   -1.4144   -6.7531   -3.0389 N   0  0  0  0  0  0  0  0  0  0  0  0
    6.9440   -2.2932   -1.1865 N   0  0  0  0  0  0  0  0  0  0  0  0
    7.0143   -2.2668   -2.6027 C   0  0  0  0  0  0  0  0  0  0  0  0
    7.6880   -1.3724   -3.2218 O   0  0  0  0  0  0  0  0  0  0  0  0
    6.3074   -3.2795   -3.4036 C   0  0  0  0  0  0  0  0  0  0  0  0
   11.2802   -4.8176    1.6812 H   0  0  0  0  0  0  0  0  0  0  0  0
    9.9334   -5.1417    0.5360 H   0  0  0  0  0  0  0  0  0  0  0  0
   10.9438   -3.6035    0.4239 H   0  0  0  0  0  0  0  0  0  0  0  0
   10.0504   -2.9758    2.6914 H   0  0  0  0  0  0  0  0  0  0  0  0
    9.1518   -4.5208    2.7293 H   0  0  0  0  0  0  0  0  0  0  0  0
    7.7017   -2.6103    2.1564 H   0  0  0  0  0  0  0  0  0  0  0  0
    7.6989   -3.8343    0.8927 H   0  0  0  0  0  0  0  0  0  0  0  0
    9.3026   -1.2115    1.0054 H   0  0  0  0  0  0  0  0  0  0  0  0
    9.4861   -2.4185   -0.3436 H   0  0  0  0  0  0  0  0  0  0  0  0
    8.1021   -0.5823   -0.9837 H   0  0  0  0  0  0  0  0  0  0  0  0
    5.0143   -1.8065    0.1225 H   0  0  0  0  0  0  0  0  0  0  0  0
    5.3196   -0.0198    2.6117 H   0  0  0  0  0  0  0  0  0  0  0  0
    3.2426   -0.7961    3.4102 H   0  0  0  0  0  0  0  0  0  0  0  0
    4.4858   -2.1290    3.0480 H   0  0  0  0  0  0  0  0  0  0  0  0
    1.6849   -3.0095    3.2914 H   0  0  0  0  0  0  0  0  0  0  0  0
    0.2211   -4.2982    1.9402 H   0  0  0  0  0  0  0  0  0  0  0  0
    0.4659   -3.0611    0.6138 H   0  0  0  0  0  0  0  0  0  0  0  0
    1.9989   -5.6645    1.2018 H   0  0  0  0  0  0  0  0  0  0  0  0
    2.6600   -4.4164    0.1394 H   0  0  0  0  0  0  0  0  0  0  0  0
   -0.1971   -5.4852   -0.0114 H   0  0  0  0  0  0  0  0  0  0  0  0
    1.1547   -6.2591   -0.9466 H   0  0  0  0  0  0  0  0  0  0  0  0
    1.6570   -4.4691   -2.2400 H   0  0  0  0  0  0  0  0  0  0  0  0
    0.8302   -3.2329   -1.3091 H   0  0  0  0  0  0  0  0  0  0  0  0
   -0.1989   -3.7301   -3.4003 H   0  0  0  0  0  0  0  0  0  0  0  0
   -2.1548   -4.9130   -1.3515 H   0  0  0  0  0  0  0  0  0  0  0  0
   -3.1990   -2.6253   -0.2250 H   0  0  0  0  0  0  0  0  0  0  0  0
   -4.3857   -0.7525   -2.2874 H   0  0  0  0  0  0  0  0  0  0  0  0
   -3.0590    1.6302   -2.0379 H   0  0  0  0  0  0  0  0  0  0  0  0
   -1.1021    1.4814   -0.2239 H   0  0  0  0  0  0  0  0  0  0  0  0
   -0.8481    3.6507    1.9287 H   0  0  0  0  0  0  0  0  0  0  0  0
    0.6163    3.8711   -0.7121 H   0  0  0  0  0  0  0  0  0  0  0  0
    3.4552    3.4217    0.8195 H   0  0  0  0  0  0  0  0  0  0  0  0
    2.9102    0.8532   -1.5705 H   0  0  0  0  0  0  0  0  0  0  0  0
    4.4374    0.0264   -0.9770 H   0  0  0  0  0  0  0  0  0  0  0  0
    6.3199    0.7147   -2.1005 H   0  0  0  0  0  0  0  0  0  0  0  0
    7.5511    2.5863   -3.2603 H   0  0  0  0  0  0  0  0  0  0  0  0
    6.4824    4.7894   -3.3983 H   0  0  0  0  0  0  0  0  0  0  0  0
    4.2282    5.2089   -2.4247 H   0  0  0  0  0  0  0  0  0  0  0  0
    1.9466    2.8678   -1.7930 H   0  0  0  0  0  0  0  0  0  0  0  0
    2.5102    4.3895   -1.0055 H   0  0  0  0  0  0  0  0  0  0  0  0
   -1.0175    5.7586   -0.3614 H   0  0  0  0  0  0  0  0  0  0  0  0
   -0.0667    5.9540    1.1062 H   0  0  0  0  0  0  0  0  0  0  0  0
   -1.1175    5.9362    3.2948 H   0  0  0  0  0  0  0  0  0  0  0  0
   -2.9054    7.0000    4.5615 H   0  0  0  0  0  0  0  0  0  0  0  0
   -3.4393    6.3802   -0.2662 H   0  0  0  0  0  0  0  0  0  0  0  0
   -5.6156    7.3841   -0.1959 H   0  0  0  0  0  0  0  0  0  0  0  0
   -7.3488    8.4419    1.1453 H   0  0  0  0  0  0  0  0  0  0  0  0
   -7.0970    8.7743    3.6002 H   0  0  0  0  0  0  0  0  0  0  0  0
   -5.0082    7.9972    4.6811 H   0  0  0  0  0  0  0  0  0  0  0  0
   -5.1327    1.0852   -1.2247 H   0  0  0  0  0  0  0  0  0  0  0  0
   -4.7153    2.7344   -0.8251 H   0  0  0  0  0  0  0  0  0  0  0  0
   -4.2742    1.7214    1.6666 H   0  0  0  0  0  0  0  0  0  0  0  0
   -4.9870    0.2617    0.9499 H   0  0  0  0  0  0  0  0  0  0  0  0
   -6.2833    3.0056    0.8386 H   0  0  0  0  0  0  0  0  0  0  0  0
   -6.5887    1.7861    2.1004 H   0  0  0  0  0  0  0  0  0  0  0  0
   -6.7423    3.7651   -1.5931 H   0  0  0  0  0  0  0  0  0  0  0  0
   -8.1191    4.1276   -0.5204 H   0  0  0  0  0  0  0  0  0  0  0  0
   -9.5945    1.8971   -1.9320 H   0  0  0  0  0  0  0  0  0  0  0  0
   -8.5185    0.5287   -2.2625 H   0  0  0  0  0  0  0  0  0  0  0  0
   -4.8707   -3.3101   -2.7590 H   0  0  0  0  0  0  0  0  0  0  0  0
   -4.4758   -4.4316   -1.3875 H   0  0  0  0  0  0  0  0  0  0  0  0
   -7.0763   -1.8451   -2.4068 H   0  0  0  0  0  0  0  0  0  0  0  0
   -8.7430   -1.5443   -0.4571 H   0  0  0  0  0  0  0  0  0  0  0  0
   -4.4466   -4.2667    1.1067 H   0  0  0  0  0  0  0  0  0  0  0  0
   -5.3704   -4.4495    3.3814 H   0  0  0  0  0  0  0  0  0  0  0  0
   -7.5337   -3.4965    4.0051 H   0  0  0  0  0  0  0  0  0  0  0  0
   -8.8405   -2.2972    2.2623 H   0  0  0  0  0  0  0  0  0  0  0  0
   -1.4124   -7.4083   -2.2134 H   0  0  0  0  0  0  0  0  0  0  0  0
   -2.1704   -6.7574   -3.7436 H   0  0  0  0  0  0  0  0  0  0  0  0
    6.3743   -3.0534   -0.7583 H   0  0  0  0  0  0  0  0  0  0  0  0
    5.3280   -3.5647   -2.9606 H   0  0  0  0  0  0  0  0  0  0  0  0
    6.1058   -2.9060   -4.4156 H   0  0  0  0  0  0  0  0  0  0  0  0
    6.9075   -4.2242   -3.5563 H   0  0  0  0  0  0  0  0  0  0  0  0
  1  2  1  0
  2  3  1  0
  3  4  1  0
  4  5  1  0
  5  6  1  0
  6  7  2  0
  6  8  1  0
  8  9  1  0
  9 10  1  0
 10 11  1  0
 11 12  2  0
 11 13  1  0
 13 14  1  0
 14 15  1  0
 15 16  1  0
 16 17  1  0
 17 18  1  0
 18 19  1  0
 19 20  1  0
 20 21  2  0
 20 22  1  0
 22 23  1  0
 23 24  1  0
 24 25  2  0
 24 26  1  0
 26 27  1  0
 27 28  1  0
 28 29  2  0
 28 30  1  0
 30 31  1  0
 31 32  1  0
 32 33  2  0
 32 34  1  0
 34 35  1  0
 35 36  1  0
 36 37  2  0
 35 38  1  0
 38 39  1  0
 39 40  2  0
 40 41  1  0
 41 42  2  0
 42 43  1  0
 43 44  2  0
 44 45  1  0
 30 46  1  0
 46 47  1  0
 47 48  2  0
 48 49  1  0
 49 50  2  0
 50 51  1  0
 51 52  2  0
 51 53  1  0
 53 54  2  0
 54 55  1  0
 55 56  2  0
 26 57  1  0
 57 58  1  0
 58 59  1  0
 59 60  1  0
 60 61  2  3
 61 62  1  0
 61 63  1  0
 22 64  1  0
 64 65  1  0
 65 66  2  0
 66 67  1  0
 67 68  1  0
 68 69  2  0
 69 70  1  0
 70 71  2  0
 71 72  1  0
 72 73  2  0
 18 74  1  0
 74 75  2  0
 74 76  1  0
  5 77  1  0
 77 78  1  0
 78 79  2  0
 78 80  1  0
 36  9  1  0
 44 39  1  0
 52 47  1  0
 69 65  1  0
 45 34  1  0
 56 50  1  0
 73 68  1  0
  1 81  1  0
  1 82  1  0
  1 83  1  0
  2 84  1  0
  2 85  1  0
  3 86  1  0
  3 87  1  0
  4 88  1  0
  4 89  1  0
  5 90  1  6
  8 91  1  0
  9 92  1  1
 10 93  1  0
 10 94  1  0
 13 95  1  0
 14 96  1  0
 14 97  1  0
 15 98  1  0
 15 99  1  0
 16100  1  0
 16101  1  0
 17102  1  0
 17103  1  0
 18104  1  6
 19105  1  0
 22106  1  1
 23107  1  0
 26108  1  6
 27109  1  0
 30110  1  1
 31111  1  0
 34112  1  1
 38113  1  0
 38114  1  0
 40115  1  0
 41116  1  0
 42117  1  0
 43118  1  0
 45119  1  0
 45120  1  0
 46121  1  0
 46122  1  0
 48123  1  0
 49124  1  0
 52125  1  0
 53126  1  0
 54127  1  0
 55128  1  0
 56129  1  0
 57130  1  0
 57131  1  0
 58132  1  0
 58133  1  0
 59134  1  0
 59135  1  0
 62136  1  0
 62137  1  0
 63138  1  0
 63139  1  0
 64140  1  0
 64141  1  0
 66142  1  0
 67143  1  0
 70144  1  0
 71145  1  0
 72146  1  0
 73147  1  0
 76148  1  0
 76149  1  0
 77150  1  0
 80151  1  0
 80152  1  0
 80153  1  0
M  END
>  <Ligand ID>  (1) 
LIG0004166

>  <Ligand>  (1) 
CHEMBL2372589

>  <SMILES>  (1) 
CCCC[C@H](C(=O)N[C@@H]1CC(=O)NCCCC[C@H](NC(=O)[C@@H](NC(=O)[C@H](NC(=O)[C@@H](NC(=O)[C@H]2N(C1=O)Cc1ccccc1C2)Cc1ccc2c(c1)cccc2)CCCN=C(N)N)Cc1c[nH]c2c1cccc2)C(=O)N)NC(=O)C

>  <CID>  (1) 
73356313.0

>  <ChEMBL ID>  (1) 
nan

>  <InChiKey>  (1) 
UVUOMESIOOEXGA-MCIUMEGRSA-N

>  <InChi>  (1) 
InChI=1S/C58H73N13O9/c1-3-4-19-44(65-34(2)72)52(75)70-48-31-50(73)62-25-12-11-21-43(51(59)74)66-55(78)47(29-40-32-64-42-20-10-9-18-41(40)42)68-53(76)45(22-13-26-63-58(60)61)67-54(77)46(28-35-23-24-36-14-5-6-15-37(36)27-35)69-56(79)49-30-38-16-7-8-17-39(38)33-71(49)57(48)80/h5-10,14-18,20,23-24,27,32,43-49,64H,3-4,11-13,19,21-22,25-26,28-31,33H2,1-2H3,(H2,59,74)(H,62,73)(H,65,72)(H,66,78)(H,67,77)(H,68,76)(H,69,79)(H,70,75)(H4,60,61,63)/t43-,44+,45+,46-,47-,48+,49-/m0/s1

>  <IUPAC Name>  (1) 
(3R,11S,14S,17R,20S,23S)-3-[[(2R)-2-acetamidohexanoyl]amino]-17-[3-(diaminomethylideneamino)propyl]-14-(1H-indol-3-ylmethyl)-20-(naphthalen-2-ylmethyl)-2,5,13,16,19,22-hexaoxo-1,6,12,15,18,21-hexazatricyclo[21.8.0.025,30]hentriaconta-25,27,29-triene-11-carboxamide

$$$$
