
     RDKit          3D

103107  0  0  0  0  0  0  0  0999 V2000
    0.9245    3.5656   -3.3522 N   0  0  0  0  0  0  0  0  0  0  0  0
    0.9441    4.6824   -2.4226 C   0  0  0  0  0  0  0  0  0  0  0  0
    1.3970    4.6052   -1.3518 N   0  0  0  0  0  0  0  0  0  0  0  0
    1.9448    4.3662   -0.1716 C   0  0  0  0  0  0  0  0  0  0  0  0
    2.3355    2.8921    0.1171 C   0  0  0  0  0  0  0  0  0  0  0  0
    1.1068    2.0633    0.0529 C   0  0  0  0  0  0  0  0  0  0  0  0
    1.3467    0.5640    0.2796 C   0  0  1  0  0  0  0  0  0  0  0  0
    1.9664    0.3703    1.6135 C   0  0  0  0  0  0  0  0  0  0  0  0
    1.2821   -0.0293    2.6158 O   0  0  0  0  0  0  0  0  0  0  0  0
    3.3598    0.6385    1.7474 N   0  0  0  0  0  0  0  0  0  0  0  0
    4.0832    0.4836    2.9893 C   0  0  2  0  0  0  0  0  0  0  0  0
    4.9597    1.6197    3.3064 C   0  0  0  0  0  0  0  0  0  0  0  0
    5.6266    1.5950    4.4004 O   0  0  0  0  0  0  0  0  0  0  0  0
    5.1472    2.7680    2.5032 N   0  0  0  0  0  0  0  0  0  0  0  0
    4.8692   -0.8342    2.9928 C   0  0  0  0  0  0  0  0  0  0  0  0
    5.8420   -0.9232    1.8894 C   0  0  0  0  0  0  0  0  0  0  0  0
    7.2031   -0.6431    1.9863 C   0  0  0  0  0  0  0  0  0  0  0  0
    7.7903   -0.7971    0.7904 N   0  0  0  0  0  0  0  0  0  0  0  0
    6.8620   -1.1772   -0.1256 C   0  0  0  0  0  0  0  0  0  0  0  0
    5.6578   -1.2549    0.5577 C   0  0  0  0  0  0  0  0  0  0  0  0
    4.5309   -1.6341   -0.1427 C   0  0  0  0  0  0  0  0  0  0  0  0
    4.5978   -1.9272   -1.4884 C   0  0  0  0  0  0  0  0  0  0  0  0
    5.7924   -1.8564   -2.2004 C   0  0  0  0  0  0  0  0  0  0  0  0
    6.9014   -1.4745   -1.4679 C   0  0  0  0  0  0  0  0  0  0  0  0
   -0.0370    0.0233    0.3036 N   0  0  0  0  0  0  0  0  0  0  0  0
   -0.4144   -0.8500   -0.7082 C   0  0  0  0  0  0  0  0  0  0  0  0
    0.4290   -1.1402   -1.5993 O   0  0  0  0  0  0  0  0  0  0  0  0
   -1.7546   -1.4971   -0.8538 C   0  0  2  0  0  0  0  0  0  0  0  0
   -2.3034   -1.2348   -2.2309 C   0  0  0  0  0  0  0  0  0  0  0  0
   -3.5739   -1.8918   -2.5402 C   0  0  0  0  0  0  0  0  0  0  0  0
   -3.9323   -3.1505   -2.0276 C   0  0  0  0  0  0  0  0  0  0  0  0
   -5.1141   -3.7631   -2.3758 C   0  0  0  0  0  0  0  0  0  0  0  0
   -5.9871   -3.1512   -3.2464 C   0  0  0  0  0  0  0  0  0  0  0  0
   -5.6614   -1.9039   -3.7717 C   0  0  0  0  0  0  0  0  0  0  0  0
   -4.4859   -1.2870   -3.4296 C   0  0  0  0  0  0  0  0  0  0  0  0
   -1.3076   -1.5625   -3.2974 C   0  0  0  0  0  0  0  0  0  0  0  0
   -0.9264   -0.6471   -4.2566 C   0  0  0  0  0  0  0  0  0  0  0  0
   -0.0136   -1.0454   -5.2144 C   0  0  0  0  0  0  0  0  0  0  0  0
    0.5237   -2.3254   -5.2380 C   0  0  0  0  0  0  0  0  0  0  0  0
    0.1288   -3.2270   -4.2684 C   0  0  0  0  0  0  0  0  0  0  0  0
   -0.7806   -2.8625   -3.2974 C   0  0  0  0  0  0  0  0  0  0  0  0
   -2.5721   -1.1196    0.2623 N   0  0  0  0  0  0  0  0  0  0  0  0
   -3.8964   -0.7675    0.4200 C   0  0  0  0  0  0  0  0  0  0  0  0
   -4.7877   -0.6607   -0.4398 O   0  0  0  0  0  0  0  0  0  0  0  0
   -4.4009   -0.4528    1.8312 C   0  0  2  0  0  0  0  0  0  0  0  0
   -4.9565    0.9497    1.7847 C   0  0  0  0  0  0  0  0  0  0  0  0
   -5.4863    1.3556    3.1285 C   0  0  0  0  0  0  0  0  0  0  0  0
   -6.7195    1.1874    3.5843 N   0  0  0  0  0  0  0  0  0  0  0  0
   -6.8280    1.6812    4.8469 C   0  0  0  0  0  0  0  0  0  0  0  0
   -5.6132    2.1640    5.1627 N   0  0  0  0  0  0  0  0  0  0  0  0
   -4.7692    1.9808    4.1336 C   0  0  0  0  0  0  0  0  0  0  0  0
   -3.3757   -0.6132    2.8145 N   0  0  0  0  0  0  0  0  0  0  0  0
   -3.6072   -1.6217    3.8242 C   0  0  0  0  0  0  0  0  0  0  0  0
   -4.6648   -2.3160    3.8248 O   0  0  0  0  0  0  0  0  0  0  0  0
   -2.6031   -1.8773    4.9024 C   0  0  0  0  0  0  0  0  0  0  0  0
    0.3560    5.8809   -2.9561 N   0  0  0  0  0  0  0  0  0  0  0  0
    1.6687    3.5077   -4.0811 H   0  0  0  0  0  0  0  0  0  0  0  0
    0.1958    2.8388   -3.3031 H   0  0  0  0  0  0  0  0  0  0  0  0
    2.9278    4.9227   -0.0050 H   0  0  0  0  0  0  0  0  0  0  0  0
    1.3550    4.6690    0.7463 H   0  0  0  0  0  0  0  0  0  0  0  0
    2.7538    2.9566    1.1504 H   0  0  0  0  0  0  0  0  0  0  0  0
    3.0858    2.6297   -0.6409 H   0  0  0  0  0  0  0  0  0  0  0  0
    0.5713    2.1942   -0.9025 H   0  0  0  0  0  0  0  0  0  0  0  0
    0.4049    2.4137    0.8448 H   0  0  0  0  0  0  0  0  0  0  0  0
    1.9044    0.1578   -0.5556 H   0  0  0  0  0  0  0  0  0  0  0  0
    3.9528    0.9655    0.9240 H   0  0  0  0  0  0  0  0  0  0  0  0
    3.3608    0.3376    3.8495 H   0  0  0  0  0  0  0  0  0  0  0  0
    5.7572    2.7091    1.6343 H   0  0  0  0  0  0  0  0  0  0  0  0
    4.7244    3.7030    2.6949 H   0  0  0  0  0  0  0  0  0  0  0  0
    4.1572   -1.6786    2.9137 H   0  0  0  0  0  0  0  0  0  0  0  0
    5.4096   -0.9675    3.9442 H   0  0  0  0  0  0  0  0  0  0  0  0
    7.6817   -0.3507    2.8912 H   0  0  0  0  0  0  0  0  0  0  0  0
    8.7929   -0.6699    0.5014 H   0  0  0  0  0  0  0  0  0  0  0  0
    3.5717   -1.7171    0.3481 H   0  0  0  0  0  0  0  0  0  0  0  0
    3.6826   -2.2268   -2.0224 H   0  0  0  0  0  0  0  0  0  0  0  0
    5.8582   -2.0817   -3.2527 H   0  0  0  0  0  0  0  0  0  0  0  0
    7.8407   -1.4194   -2.0252 H   0  0  0  0  0  0  0  0  0  0  0  0
   -0.6680    0.3082    1.0499 H   0  0  0  0  0  0  0  0  0  0  0  0
   -1.6351   -2.5893   -0.8411 H   0  0  0  0  0  0  0  0  0  0  0  0
   -2.5162   -0.1326   -2.2626 H   0  0  0  0  0  0  0  0  0  0  0  0
   -3.2868   -3.6575   -1.3541 H   0  0  0  0  0  0  0  0  0  0  0  0
   -5.3530   -4.7386   -1.9546 H   0  0  0  0  0  0  0  0  0  0  0  0
   -6.9259   -3.6452   -3.5169 H   0  0  0  0  0  0  0  0  0  0  0  0
   -6.3918   -1.4771   -4.4526 H   0  0  0  0  0  0  0  0  0  0  0  0
   -4.2726   -0.3368   -3.8514 H   0  0  0  0  0  0  0  0  0  0  0  0
   -1.3418    0.3516   -4.2447 H   0  0  0  0  0  0  0  0  0  0  0  0
    0.3033   -0.3410   -5.9827 H   0  0  0  0  0  0  0  0  0  0  0  0
    1.2470   -2.5922   -6.0239 H   0  0  0  0  0  0  0  0  0  0  0  0
    0.5300   -4.2369   -4.2575 H   0  0  0  0  0  0  0  0  0  0  0  0
   -1.0895   -3.5745   -2.5370 H   0  0  0  0  0  0  0  0  0  0  0  0
   -1.9979   -1.1356    1.1990 H   0  0  0  0  0  0  0  0  0  0  0  0
   -5.2603   -1.1382    2.0257 H   0  0  0  0  0  0  0  0  0  0  0  0
   -4.1864    1.6853    1.4368 H   0  0  0  0  0  0  0  0  0  0  0  0
   -5.8076    1.0134    1.0790 H   0  0  0  0  0  0  0  0  0  0  0  0
   -7.5098    0.7418    3.0665 H   0  0  0  0  0  0  0  0  0  0  0  0
   -7.6768    1.7034    5.4913 H   0  0  0  0  0  0  0  0  0  0  0  0
   -3.7133    2.2782    4.1121 H   0  0  0  0  0  0  0  0  0  0  0  0
   -2.5207   -0.0482    2.8149 H   0  0  0  0  0  0  0  0  0  0  0  0
   -3.1358   -1.6859    5.8633 H   0  0  0  0  0  0  0  0  0  0  0  0
   -2.3665   -2.9618    4.8385 H   0  0  0  0  0  0  0  0  0  0  0  0
   -1.7473   -1.2304    4.7174 H   0  0  0  0  0  0  0  0  0  0  0  0
    0.7702    6.7816   -2.6129 H   0  0  0  0  0  0  0  0  0  0  0  0
   -0.4402    5.8467   -3.6478 H   0  0  0  0  0  0  0  0  0  0  0  0
  1  2  1  0
  2  3  2  3
  3  4  1  0
  4  5  1  0
  5  6  1  0
  6  7  1  0
  7  8  1  0
  8  9  2  0
  8 10  1  0
 10 11  1  0
 11 12  1  0
 12 13  2  0
 12 14  1  0
 11 15  1  0
 15 16  1  0
 16 17  2  0
 17 18  1  0
 18 19  1  0
 19 20  2  0
 20 21  1  0
 21 22  2  0
 22 23  1  0
 23 24  2  0
  7 25  1  0
 25 26  1  0
 26 27  2  0
 26 28  1  0
 28 29  1  0
 29 30  1  0
 30 31  2  0
 31 32  1  0
 32 33  2  0
 33 34  1  0
 34 35  2  0
 29 36  1  0
 36 37  2  0
 37 38  1  0
 38 39  2  0
 39 40  1  0
 40 41  2  0
 28 42  1  0
 42 43  1  0
 43 44  2  0
 43 45  1  0
 45 46  1  0
 46 47  1  0
 47 48  1  0
 48 49  1  0
 49 50  2  0
 50 51  1  0
 45 52  1  0
 52 53  1  0
 53 54  2  0
 53 55  1  0
  2 56  1  0
 20 16  1  0
 35 30  1  0
 41 36  1  0
 51 47  2  0
 24 19  1  0
  1 57  1  0
  1 58  1  0
  4 59  1  0
  4 60  1  0
  5 61  1  0
  5 62  1  0
  6 63  1  0
  6 64  1  0
  7 65  1  6
 10 66  1  0
 11 67  1  1
 14 68  1  0
 14 69  1  0
 15 70  1  0
 15 71  1  0
 17 72  1  0
 18 73  1  0
 21 74  1  0
 22 75  1  0
 23 76  1  0
 24 77  1  0
 25 78  1  0
 28 79  1  6
 29 80  1  0
 31 81  1  0
 32 82  1  0
 33 83  1  0
 34 84  1  0
 35 85  1  0
 37 86  1  0
 38 87  1  0
 39 88  1  0
 40 89  1  0
 41 90  1  0
 42 91  1  0
 45 92  1  1
 46 93  1  0
 46 94  1  0
 48 95  1  0
 49 96  1  0
 51 97  1  0
 52 98  1  0
 55 99  1  0
 55100  1  0
 55101  1  0
 56102  1  0
 56103  1  0
M  END
>  <Ligand ID>  (1) 
LIG0001400

>  <Ligand>  (1) 
CHEMBL432018

>  <SMILES>  (1) 
NC(=NCCC[C@@H](C(=O)N[C@H](C(=O)N)Cc1c[nH]c2c1cccc2)NC(=O)[C@H](C(c1ccccc1)c1ccccc1)NC(=O)[C@H](Cc1[nH]cnc1)NC(=O)C)N

>  <CID>  (1) 
11061667.0

>  <ChEMBL ID>  (1) 
nan

>  <InChiKey>  (1) 
JDVCDJBHKUIJSL-TUCRWICHSA-N

>  <InChi>  (1) 
InChI=1S/C40H47N11O5/c1-24(52)48-33(20-28-22-44-23-47-28)38(55)51-35(34(25-11-4-2-5-12-25)26-13-6-3-7-14-26)39(56)49-31(17-10-18-45-40(42)43)37(54)50-32(36(41)53)19-27-21-46-30-16-9-8-15-29(27)30/h2-9,11-16,21-23,31-35,46H,10,17-20H2,1H3,(H2,41,53)(H,44,47)(H,48,52)(H,49,56)(H,50,54)(H,51,55)(H4,42,43,45)/t31-,32-,33-,35-/m0/s1

>  <IUPAC Name>  (1) 
(2S)-2-[[(2S)-2-[[(2S)-2-acetamido-3-(1H-imidazol-5-yl)propanoyl]amino]-3,3-diphenylpropanoyl]amino]-N-[(2S)-1-amino-3-(1H-indol-3-yl)-1-oxopropan-2-yl]-5-(diaminomethylideneamino)pentanamide

$$$$
