
     RDKit          3D

104108  0  0  0  0  0  0  0  0999 V2000
   -0.7694    3.6134   -0.2062 O   0  0  0  0  0  0  0  0  0  0  0  0
   -0.9111    4.8315   -0.0955 C   0  0  0  0  0  0  0  0  0  0  0  0
    0.2753    5.6019   -0.3947 N   0  0  0  0  0  0  0  0  0  0  0  0
    1.5273    4.9342   -0.8046 C   0  0  0  0  0  0  0  0  0  0  0  0
    1.4032    4.2157   -2.0803 C   0  0  0  0  0  0  0  0  0  0  0  0
    2.6531    3.5576   -2.5263 C   0  0  0  0  0  0  0  0  0  0  0  0
    3.0481    2.3103   -1.8851 C   0  0  0  0  0  0  0  0  0  0  0  0
    3.3990    2.1863   -0.4569 C   0  0  1  0  0  0  0  0  0  0  0  0
    3.7633    0.7374   -0.2077 N   0  0  0  0  0  0  0  0  0  0  0  0
    3.0618   -0.0209    0.7466 C   0  0  0  0  0  0  0  0  0  0  0  0
    2.2269    0.6014    1.4328 O   0  0  0  0  0  0  0  0  0  0  0  0
    3.2075   -1.4722    1.0178 C   0  0  2  0  0  0  0  0  0  0  0  0
    2.1646   -1.8479    2.0133 N   0  0  0  0  0  0  0  0  0  0  0  0
    0.9312   -2.2428    1.4813 C   0  0  0  0  0  0  0  0  0  0  0  0
    0.8202   -2.2534    0.2433 O   0  0  0  0  0  0  0  0  0  0  0  0
   -0.2902   -2.6567    2.2523 C   0  0  1  0  0  0  0  0  0  0  0  0
   -1.3774   -2.8488    1.2584 N   0  0  0  0  0  0  0  0  0  0  0  0
   -2.5359   -2.0199    1.2526 C   0  0  0  0  0  0  0  0  0  0  0  0
   -2.5913   -1.1822    2.1663 O   0  0  0  0  0  0  0  0  0  0  0  0
   -3.6065   -2.1554    0.2015 C   0  0  2  0  0  0  0  0  0  0  0  0
   -4.5478   -1.0457    0.3435 N   0  0  0  0  0  0  0  0  0  0  0  0
   -4.1229    0.3350    0.2654 C   0  0  0  0  0  0  0  0  0  0  0  0
   -2.8971    0.4756    0.1683 O   0  0  0  0  0  0  0  0  0  0  0  0
   -5.1196    1.4265    0.3206 C   0  0  1  0  0  0  0  0  0  0  0  0
   -4.4559    2.5771    0.8189 N   0  0  0  0  0  0  0  0  0  0  0  0
   -3.6013    3.4926    0.1409 C   0  0  0  0  0  0  0  0  0  0  0  0
   -3.3622    3.2477   -1.0365 O   0  0  0  0  0  0  0  0  0  0  0  0
   -3.0996    4.6318    0.9412 C   0  0  0  0  0  0  0  0  0  0  0  0
   -2.1458    5.5430    0.3070 C   0  0  0  0  0  0  0  0  0  0  0  0
   -5.6461    1.5787   -1.0951 C   0  0  0  0  0  0  0  0  0  0  0  0
   -6.6687    2.6486   -1.0838 C   0  0  0  0  0  0  0  0  0  0  0  0
   -7.9993    2.4071   -0.8497 N   0  0  0  0  0  0  0  0  0  0  0  0
   -8.6828    3.5611   -0.9044 C   0  0  0  0  0  0  0  0  0  0  0  0
   -7.8125    4.5699   -1.1737 N   0  0  0  0  0  0  0  0  0  0  0  0
   -6.5910    3.9887   -1.2789 C   0  0  0  0  0  0  0  0  0  0  0  0
   -4.3811   -3.3899    0.4093 C   0  0  0  0  0  0  0  0  0  0  0  0
   -3.6626   -4.6701    0.4041 C   0  0  0  0  0  0  0  0  0  0  0  0
   -3.3404   -5.4156   -0.6913 C   0  0  0  0  0  0  0  0  0  0  0  0
   -2.6825   -6.6331   -0.5940 C   0  0  0  0  0  0  0  0  0  0  0  0
   -2.3210   -7.1472    0.6404 C   0  0  0  0  0  0  0  0  0  0  0  0
   -2.6405   -6.4017    1.7740 C   0  0  0  0  0  0  0  0  0  0  0  0
   -3.2907   -5.2018    1.6554 C   0  0  0  0  0  0  0  0  0  0  0  0
    0.0177   -3.9053    3.0004 C   0  0  0  0  0  0  0  0  0  0  0  0
    4.5371   -1.8714    1.5276 C   0  0  0  0  0  0  0  0  0  0  0  0
    5.6807   -1.5750    0.6519 C   0  0  0  0  0  0  0  0  0  0  0  0
    6.6813   -0.6303    0.8527 C   0  0  0  0  0  0  0  0  0  0  0  0
    7.5685   -0.6625   -0.1500 N   0  0  0  0  0  0  0  0  0  0  0  0
    7.1873   -1.6061   -1.0167 C   0  0  0  0  0  0  0  0  0  0  0  0
    6.0223   -2.1890   -0.5479 C   0  0  0  0  0  0  0  0  0  0  0  0
    5.4564   -3.1934   -1.3036 C   0  0  0  0  0  0  0  0  0  0  0  0
    6.0789   -3.5609   -2.4817 C   0  0  0  0  0  0  0  0  0  0  0  0
    7.2325   -2.9881   -2.9530 C   0  0  0  0  0  0  0  0  0  0  0  0
    7.7965   -1.9855   -2.1965 C   0  0  0  0  0  0  0  0  0  0  0  0
    4.5748    3.0021   -0.1027 C   0  0  0  0  0  0  0  0  0  0  0  0
    4.6039    4.2690   -0.2088 O   0  0  0  0  0  0  0  0  0  0  0  0
    5.8004    2.4321    0.3978 N   0  0  0  0  0  0  0  0  0  0  0  0
    0.1693    6.6050   -0.3002 H   0  0  0  0  0  0  0  0  0  0  0  0
    2.3178    5.7349   -0.9563 H   0  0  0  0  0  0  0  0  0  0  0  0
    1.7671    4.2822    0.0256 H   0  0  0  0  0  0  0  0  0  0  0  0
    0.6337    3.3688   -2.0270 H   0  0  0  0  0  0  0  0  0  0  0  0
    1.0837    4.8989   -2.9287 H   0  0  0  0  0  0  0  0  0  0  0  0
    3.4918    4.3474   -2.4661 H   0  0  0  0  0  0  0  0  0  0  0  0
    2.5352    3.4202   -3.6600 H   0  0  0  0  0  0  0  0  0  0  0  0
    2.2996    1.4880   -2.1664 H   0  0  0  0  0  0  0  0  0  0  0  0
    3.9934    1.9511   -2.4541 H   0  0  0  0  0  0  0  0  0  0  0  0
    2.6154    2.3442    0.2796 H   0  0  0  0  0  0  0  0  0  0  0  0
    4.5059    0.2874   -0.7207 H   0  0  0  0  0  0  0  0  0  0  0  0
    2.9647   -2.0421    0.0736 H   0  0  0  0  0  0  0  0  0  0  0  0
    2.2884   -1.8360    3.0078 H   0  0  0  0  0  0  0  0  0  0  0  0
   -0.5017   -1.8412    2.9374 H   0  0  0  0  0  0  0  0  0  0  0  0
   -1.3379   -3.5608    0.5330 H   0  0  0  0  0  0  0  0  0  0  0  0
   -3.0381   -2.1291   -0.7283 H   0  0  0  0  0  0  0  0  0  0  0  0
   -5.5428   -1.1666    0.5130 H   0  0  0  0  0  0  0  0  0  0  0  0
   -5.9824    1.0964    0.9305 H   0  0  0  0  0  0  0  0  0  0  0  0
   -4.6010    2.8054    1.8246 H   0  0  0  0  0  0  0  0  0  0  0  0
   -2.6837    4.1514    1.8840 H   0  0  0  0  0  0  0  0  0  0  0  0
   -4.0160    5.1622    1.3481 H   0  0  0  0  0  0  0  0  0  0  0  0
   -1.8326    6.2961    1.0961 H   0  0  0  0  0  0  0  0  0  0  0  0
   -2.5345    6.0811   -0.5845 H   0  0  0  0  0  0  0  0  0  0  0  0
   -6.1622    0.6307   -1.3538 H   0  0  0  0  0  0  0  0  0  0  0  0
   -4.8654    1.6915   -1.8603 H   0  0  0  0  0  0  0  0  0  0  0  0
   -8.4337    1.4597   -0.6556 H   0  0  0  0  0  0  0  0  0  0  0  0
   -9.7499    3.7525   -0.7714 H   0  0  0  0  0  0  0  0  0  0  0  0
   -5.7121    4.5577   -1.4938 H   0  0  0  0  0  0  0  0  0  0  0  0
   -5.2696   -3.4460   -0.3088 H   0  0  0  0  0  0  0  0  0  0  0  0
   -4.9304   -3.3477    1.4146 H   0  0  0  0  0  0  0  0  0  0  0  0
   -3.6126   -5.0324   -1.6588 H   0  0  0  0  0  0  0  0  0  0  0  0
   -2.4155   -7.2369   -1.4461 H   0  0  0  0  0  0  0  0  0  0  0  0
   -1.8078   -8.0897    0.7623 H   0  0  0  0  0  0  0  0  0  0  0  0
   -2.3721   -6.7728    2.7751 H   0  0  0  0  0  0  0  0  0  0  0  0
   -3.5227   -4.6550    2.5684 H   0  0  0  0  0  0  0  0  0  0  0  0
   -0.9049   -4.2536    3.5085 H   0  0  0  0  0  0  0  0  0  0  0  0
    0.7210   -3.6214    3.8236 H   0  0  0  0  0  0  0  0  0  0  0  0
    0.4691   -4.6309    2.3114 H   0  0  0  0  0  0  0  0  0  0  0  0
    4.5818   -2.9627    1.7939 H   0  0  0  0  0  0  0  0  0  0  0  0
    4.7725   -1.3761    2.5222 H   0  0  0  0  0  0  0  0  0  0  0  0
    6.6761    0.0077    1.7247 H   0  0  0  0  0  0  0  0  0  0  0  0
    8.3958   -0.0259   -0.1829 H   0  0  0  0  0  0  0  0  0  0  0  0
    4.5497   -3.6589   -0.9521 H   0  0  0  0  0  0  0  0  0  0  0  0
    5.6396   -4.3449   -3.0765 H   0  0  0  0  0  0  0  0  0  0  0  0
    7.6637   -3.3383   -3.8990 H   0  0  0  0  0  0  0  0  0  0  0  0
    8.7039   -1.5314   -2.5631 H   0  0  0  0  0  0  0  0  0  0  0  0
    5.8513    2.3346    1.4300 H   0  0  0  0  0  0  0  0  0  0  0  0
    6.5728    2.1423   -0.2332 H   0  0  0  0  0  0  0  0  0  0  0  0
  1  2  2  0
  2  3  1  0
  3  4  1  0
  4  5  1  0
  5  6  1  0
  6  7  1  0
  7  8  1  0
  8  9  1  0
  9 10  1  0
 10 11  2  0
 10 12  1  0
 12 13  1  0
 13 14  1  0
 14 15  2  0
 14 16  1  0
 16 17  1  0
 17 18  1  0
 18 19  2  0
 18 20  1  0
 20 21  1  0
 21 22  1  0
 22 23  2  0
 22 24  1  0
 24 25  1  0
 25 26  1  0
 26 27  2  0
 26 28  1  0
 28 29  1  0
 24 30  1  0
 30 31  1  0
 31 32  1  0
 32 33  1  0
 33 34  2  0
 34 35  1  0
 20 36  1  0
 36 37  1  0
 37 38  2  0
 38 39  1  0
 39 40  2  0
 40 41  1  0
 41 42  2  0
 16 43  1  0
 12 44  1  0
 44 45  1  0
 45 46  2  0
 46 47  1  0
 47 48  1  0
 48 49  2  0
 49 50  1  0
 50 51  2  0
 51 52  1  0
 52 53  2  0
  8 54  1  0
 54 55  2  0
 54 56  1  0
 29  2  1  0
 35 31  2  0
 42 37  1  0
 49 45  1  0
 53 48  1  0
  3 57  1  0
  4 58  1  0
  4 59  1  0
  5 60  1  0
  5 61  1  0
  6 62  1  0
  6 63  1  0
  7 64  1  0
  7 65  1  0
  8 66  1  1
  9 67  1  0
 12 68  1  6
 13 69  1  0
 16 70  1  1
 17 71  1  0
 20 72  1  6
 21 73  1  0
 24 74  1  1
 25 75  1  0
 28 76  1  0
 28 77  1  0
 29 78  1  0
 29 79  1  0
 30 80  1  0
 30 81  1  0
 32 82  1  0
 33 83  1  0
 35 84  1  0
 36 85  1  0
 36 86  1  0
 38 87  1  0
 39 88  1  0
 40 89  1  0
 41 90  1  0
 42 91  1  0
 43 92  1  0
 43 93  1  0
 43 94  1  0
 44 95  1  0
 44 96  1  0
 46 97  1  0
 47 98  1  0
 50 99  1  0
 51100  1  0
 52101  1  0
 53102  1  0
 56103  1  0
 56104  1  0
M  END
>  <Ligand ID>  (1) 
LIG0002277

>  <Ligand>  (1) 
CHEMBL315397

>  <SMILES>  (1) 
O=C1NCCCC[C@@H](NC(=O)[C@H](NC(=O)[C@@H](NC(=O)[C@H](NC(=O)[C@@H](NC(=O)CC1)Cc1[nH]cnc1)Cc1ccccc1)C)Cc1c[nH]c2c1cccc2)C(=O)N

>  <CID>  (1) 
44323211.0

>  <ChEMBL ID>  (1) 
nan

>  <InChiKey>  (1) 
MGWAYCITAYXPEZ-FFHRXNJASA-N

>  <InChi>  (1) 
InChI=1S/C39H48N10O7/c1-23-36(53)48-31(18-25-20-43-28-12-6-5-11-27(25)28)38(55)47-29(35(40)52)13-7-8-16-42-33(50)14-15-34(51)46-32(19-26-21-41-22-44-26)39(56)49-30(37(54)45-23)17-24-9-3-2-4-10-24/h2-6,9-12,20-23,29-32,43H,7-8,13-19H2,1H3,(H2,40,52)(H,41,44)(H,42,50)(H,45,54)(H,46,51)(H,47,55)(H,48,53)(H,49,56)/t23-,29+,30+,31+,32-/m0/s1

>  <IUPAC Name>  (1) 
(3R,6S,9R,12S,23R)-9-benzyl-12-(1H-imidazol-5-ylmethyl)-3-(1H-indol-3-ylmethyl)-6-methyl-2,5,8,11,14,17-hexaoxo-1,4,7,10,13,18-hexazacyclotricosane-23-carboxamide

$$$$
