
     RDKit          3D

 53 56  0  0  0  0  0  0  0  0999 V2000
   -0.0805    0.8876   -2.3793 O   0  0  0  0  0  0  0  0  0  0  0  0
   -0.4785    0.6867   -1.0532 C   0  0  2  0  0  0  0  0  0  0  0  0
    0.4275    1.4198   -0.0878 C   0  0  0  0  0  0  0  0  0  0  0  0
    1.3322    0.3451    0.4352 C   0  0  1  0  0  0  0  0  0  0  0  0
    1.1276   -0.8826   -0.3931 C   0  0  1  0  0  0  0  0  0  0  0  0
   -0.3602   -0.7630   -0.7591 C   0  0  1  0  0  0  0  0  0  0  0  0
   -1.1603   -1.2895    0.3747 C   0  0  0  0  0  0  0  0  0  0  0  0
   -2.6330   -1.0801    0.1496 C   0  0  0  0  0  0  0  0  0  0  0  0
   -3.4431   -1.6205    1.2937 C   0  0  0  0  0  0  0  0  0  0  0  0
   -4.7872   -1.4164    1.0878 O   0  0  0  0  0  0  0  0  0  0  0  0
   -5.5563   -0.3056    0.9771 C   0  0  0  0  0  0  0  0  0  0  0  0
   -6.9184   -0.4999    0.7357 C   0  0  0  0  0  0  0  0  0  0  0  0
   -7.8014    0.5466    0.6062 C   0  0  0  0  0  0  0  0  0  0  0  0
   -7.3725    1.8517    0.7109 C   0  0  0  0  0  0  0  0  0  0  0  0
   -6.0339    2.0756    0.9493 C   0  0  0  0  0  0  0  0  0  0  0  0
   -5.1503    1.0007    1.0786 C   0  0  0  0  0  0  0  0  0  0  0  0
    1.9999   -0.9354   -1.5968 C   0  0  0  0  0  0  0  0  0  0  0  0
    2.9841    0.1712   -1.7277 C   0  0  0  0  0  0  0  0  0  0  0  0
    3.4401    0.8138   -0.4766 C   0  0  1  0  0  0  0  0  0  0  0  0
    2.6341    0.6984    0.6275 O   0  0  0  0  0  0  0  0  0  0  0  0
    4.8444    0.3589   -0.0964 C   0  0  0  0  0  0  0  0  0  0  0  0
    5.7679   -0.7770   -1.2648 S   0  0  0  0  0  0  0  0  0  0  0  0
    7.2018   -0.7851   -0.1028 C   0  0  0  0  0  0  0  0  0  0  0  0
    6.8236    0.0057    0.9277 C   0  0  0  0  0  0  0  0  0  0  0  0
    5.6187    0.5058    0.7876 N   0  0  0  0  0  0  0  0  0  0  0  0
    7.6892    0.2727    2.0902 C   0  0  0  0  0  0  0  0  0  0  0  0
    7.3327    1.0075    3.0436 O   0  0  0  0  0  0  0  0  0  0  0  0
    8.9532   -0.2893    2.1736 O   0  0  0  0  0  0  0  0  0  0  0  0
   -0.8779    0.6410   -2.9449 H   0  0  0  0  0  0  0  0  0  0  0  0
   -1.5264    1.0195   -0.9833 H   0  0  0  0  0  0  0  0  0  0  0  0
    0.9698    2.2571   -0.5700 H   0  0  0  0  0  0  0  0  0  0  0  0
   -0.2193    1.8739    0.6906 H   0  0  0  0  0  0  0  0  0  0  0  0
    0.9313    0.1025    1.4655 H   0  0  0  0  0  0  0  0  0  0  0  0
    1.2717   -1.7764    0.2755 H   0  0  0  0  0  0  0  0  0  0  0  0
   -0.5285   -1.4112   -1.6484 H   0  0  0  0  0  0  0  0  0  0  0  0
   -0.9694   -2.3803    0.4729 H   0  0  0  0  0  0  0  0  0  0  0  0
   -0.8749   -0.8311    1.3493 H   0  0  0  0  0  0  0  0  0  0  0  0
   -2.9403   -1.7040   -0.7482 H   0  0  0  0  0  0  0  0  0  0  0  0
   -2.9268   -0.0736   -0.0976 H   0  0  0  0  0  0  0  0  0  0  0  0
   -3.0793   -1.1861    2.2729 H   0  0  0  0  0  0  0  0  0  0  0  0
   -3.2892   -2.7344    1.3798 H   0  0  0  0  0  0  0  0  0  0  0  0
   -7.3162   -1.5007    0.6434 H   0  0  0  0  0  0  0  0  0  0  0  0
   -8.8515    0.3514    0.4190 H   0  0  0  0  0  0  0  0  0  0  0  0
   -8.1073    2.6372    0.6009 H   0  0  0  0  0  0  0  0  0  0  0  0
   -5.6988    3.0963    1.0312 H   0  0  0  0  0  0  0  0  0  0  0  0
   -4.1313    1.2682    1.2812 H   0  0  0  0  0  0  0  0  0  0  0  0
    2.5013   -1.9384   -1.6032 H   0  0  0  0  0  0  0  0  0  0  0  0
    1.3846   -0.9234   -2.5431 H   0  0  0  0  0  0  0  0  0  0  0  0
    2.6623    0.9330   -2.4938 H   0  0  0  0  0  0  0  0  0  0  0  0
    3.9006   -0.2826   -2.2109 H   0  0  0  0  0  0  0  0  0  0  0  0
    3.5128    1.9264   -0.6735 H   0  0  0  0  0  0  0  0  0  0  0  0
    8.1572   -1.3871   -0.3400 H   0  0  0  0  0  0  0  0  0  0  0  0
    9.6444    0.0195    2.8559 H   0  0  0  0  0  0  0  0  0  0  0  0
  1  2  1  0
  2  3  1  0
  3  4  1  0
  4  5  1  0
  5  6  1  0
  6  7  1  0
  7  8  1  0
  8  9  1  0
  9 10  1  0
 10 11  1  0
 11 12  2  0
 12 13  1  0
 13 14  2  0
 14 15  1  0
 15 16  2  0
  5 17  1  0
 17 18  1  0
 18 19  1  0
 19 20  1  0
 19 21  1  0
 21 22  1  0
 22 23  1  0
 23 24  2  0
 24 25  1  0
 24 26  1  0
 26 27  2  0
 26 28  1  0
  6  2  1  0
 16 11  1  0
 25 21  2  0
 20  4  1  0
  1 29  1  0
  2 30  1  6
  3 31  1  0
  3 32  1  0
  4 33  1  1
  5 34  1  1
  6 35  1  6
  7 36  1  0
  7 37  1  0
  8 38  1  0
  8 39  1  0
  9 40  1  0
  9 41  1  0
 12 42  1  0
 13 43  1  0
 14 44  1  0
 15 45  1  0
 16 46  1  0
 17 47  1  0
 17 48  1  0
 18 49  1  0
 18 50  1  0
 19 51  1  6
 23 52  1  0
 28 53  1  0
M  END
>  <Ligand ID>  (1) 
LIG0000837

>  <Ligand>  (1) 
CHEMBL3805044

>  <SMILES>  (1) 
O[C@@H]1C[C@H]2[C@@H]([C@H]1CCCOc1ccccc1)CC[C@@H](O2)c1scc(n1)C(=O)O

>  <CID>  (1) 
126495398.0

>  <ChEMBL ID>  (1) 
nan

>  <InChiKey>  (1) 
XIVLPTBYQGCIIK-YRGVVPAESA-N

>  <InChi>  (1) 
InChI=1S/C21H25NO5S/c23-17-11-19-15(14(17)7-4-10-26-13-5-2-1-3-6-13)8-9-18(27-19)20-22-16(12-28-20)21(24)25/h1-3,5-6,12,14-15,17-19,23H,4,7-11H2,(H,24,25)/t14-,15-,17-,18-,19+/m1/s1

>  <IUPAC Name>  (1) 
2-[(2R,4aR,5R,6R,7aS)-6-hydroxy-5-(3-phenoxypropyl)-2,3,4,4a,5,6,7,7a-octahydrocyclopenta[b]pyran-2-yl]-1,3-thiazole-4-carboxylic acid

$$$$
