
     RDKit          3D

139141  0  0  0  0  0  0  0  0999 V2000
   11.3113   -2.2449    3.8545 N   0  0  0  0  0  0  0  0  0  0  0  0
   10.4937   -1.0513    3.9766 C   0  0  0  0  0  0  0  0  0  0  0  0
    9.9402   -0.7165    2.5845 C   0  0  0  0  0  0  0  0  0  0  0  0
    9.0800    0.5026    2.5932 C   0  0  0  0  0  0  0  0  0  0  0  0
    8.5187    0.8854    1.2751 C   0  0  1  0  0  0  0  0  0  0  0  0
    9.6596    1.1810    0.3233 C   0  0  0  0  0  0  0  0  0  0  0  0
    9.7671    0.4740   -0.7213 O   0  0  0  0  0  0  0  0  0  0  0  0
   10.5849    2.2249    0.5782 N   0  0  0  0  0  0  0  0  0  0  0  0
   11.6741    2.6027   -0.2730 C   0  0  0  0  0  0  0  0  0  0  0  0
   12.6244    1.5144   -0.4837 C   0  0  0  0  0  0  0  0  0  0  0  0
   13.6295    1.7710   -1.2425 O   0  0  0  0  0  0  0  0  0  0  0  0
   12.5764    0.2136    0.0435 N   0  0  0  0  0  0  0  0  0  0  0  0
    7.7726   -0.2061    0.6383 N   0  0  0  0  0  0  0  0  0  0  0  0
    6.6290    0.0529   -0.1470 C   0  0  0  0  0  0  0  0  0  0  0  0
    6.2025    1.2486   -0.3402 O   0  0  0  0  0  0  0  0  0  0  0  0
    5.8169   -1.0044   -0.8215 C   0  0  2  0  0  0  0  0  0  0  0  0
    6.6854   -2.0351   -1.4535 C   0  0  0  0  0  0  0  0  0  0  0  0
    6.7915   -1.6399   -2.8896 C   0  0  0  0  0  0  0  0  0  0  0  0
    5.9981   -0.3401   -3.0056 C   0  0  0  0  0  0  0  0  0  0  0  0
    5.0213   -0.4708   -1.8844 N   0  0  0  0  0  0  0  0  0  0  0  0
    3.6896   -0.0825   -2.0637 C   0  0  0  0  0  0  0  0  0  0  0  0
    3.4197    0.4066   -3.2323 O   0  0  0  0  0  0  0  0  0  0  0  0
    2.5691   -0.1468   -1.1346 C   0  0  2  0  0  0  0  0  0  0  0  0
    2.1538   -1.6035   -0.8561 C   0  0  0  0  0  0  0  0  0  0  0  0
    1.3063   -2.2969   -2.2639 S   0  0  0  0  0  0  0  0  0  0  0  0
    1.0796   -4.3820   -1.9573 S   0  0  0  0  0  0  0  0  0  0  0  0
   -0.4139   -4.6821   -1.0205 C   0  0  0  0  0  0  0  0  0  0  0  0
   -1.6164   -4.2233   -1.7786 C   0  0  2  0  0  0  0  0  0  0  0  0
   -1.4954   -2.7706   -1.8993 N   0  0  0  0  0  0  0  0  0  0  0  0
   -2.8770   -4.5165   -1.0734 C   0  0  0  0  0  0  0  0  0  0  0  0
   -3.3619   -5.6539   -1.1760 O   0  0  0  0  0  0  0  0  0  0  0  0
   -3.6187   -3.6106   -0.2560 N   0  0  0  0  0  0  0  0  0  0  0  0
   -4.9038   -4.0578    0.3121 C   0  0  1  0  0  0  0  0  0  0  0  0
   -4.7423   -4.2618    1.8181 C   0  0  0  0  0  0  0  0  0  0  0  0
   -6.0496   -4.6919    2.3549 C   0  0  0  0  0  0  0  0  0  0  0  0
   -6.4896   -5.9900    2.4175 C   0  0  0  0  0  0  0  0  0  0  0  0
   -7.7269   -6.3076    2.9569 C   0  0  0  0  0  0  0  0  0  0  0  0
   -8.5448   -5.3075    3.4454 C   0  0  0  0  0  0  0  0  0  0  0  0
   -8.1348   -4.0026    3.3971 C   0  0  0  0  0  0  0  0  0  0  0  0
   -6.9057   -3.7178    2.8585 C   0  0  0  0  0  0  0  0  0  0  0  0
   -5.9602   -3.0585    0.1069 C   0  0  0  0  0  0  0  0  0  0  0  0
   -7.1685   -3.3336    0.1701 O   0  0  0  0  0  0  0  0  0  0  0  0
   -5.7012   -1.6611   -0.1744 N   0  0  0  0  0  0  0  0  0  0  0  0
   -6.8435   -0.7717   -0.5124 C   0  0  2  0  0  0  0  0  0  0  0  0
   -6.4092    0.2288   -1.5007 C   0  0  0  0  0  0  0  0  0  0  0  0
   -7.1146    0.7153   -2.4024 O   0  0  0  0  0  0  0  0  0  0  0  0
   -5.0553    0.7765   -1.5012 N   0  0  0  0  0  0  0  0  0  0  0  0
   -4.6070    1.6586   -2.5574 C   0  0  2  0  0  0  0  0  0  0  0  0
   -3.1606    1.7682   -2.7213 C   0  0  0  0  0  0  0  0  0  0  0  0
   -2.6732    2.2522   -3.7465 O   0  0  0  0  0  0  0  0  0  0  0  0
   -2.1876    1.3454   -1.7297 N   0  0  0  0  0  0  0  0  0  0  0  0
   -0.8095    1.4829   -2.1093 C   0  0  2  0  0  0  0  0  0  0  0  0
    0.1558    0.7038   -1.3211 C   0  0  0  0  0  0  0  0  0  0  0  0
   -0.0546    0.1790   -0.2121 O   0  0  0  0  0  0  0  0  0  0  0  0
    1.4508    0.5049   -1.8520 N   0  0  0  0  0  0  0  0  0  0  0  0
   -0.4077    2.9844   -1.9070 C   0  0  0  0  0  0  0  0  0  0  0  0
   -0.5972    3.3626   -0.5077 C   0  0  0  0  0  0  0  0  0  0  0  0
   -1.0462    2.5316    0.3530 O   0  0  0  0  0  0  0  0  0  0  0  0
   -0.2776    4.6878   -0.0810 N   0  0  0  0  0  0  0  0  0  0  0  0
   -5.2097    3.0710   -2.3034 C   0  0  0  0  0  0  0  0  0  0  0  0
   -4.7991    3.6386   -0.9935 C   0  0  0  0  0  0  0  0  0  0  0  0
   -5.4402    4.9980   -0.9101 C   0  0  0  0  0  0  0  0  0  0  0  0
   -6.0966    5.4680   -1.8847 O   0  0  0  0  0  0  0  0  0  0  0  0
   -5.3263    5.7927    0.2669 N   0  0  0  0  0  0  0  0  0  0  0  0
   -5.9555    7.0898    0.2923 C   0  0  0  0  0  0  0  0  0  0  0  0
   -5.7033    7.7108    1.6549 C   0  0  0  0  0  0  0  0  0  0  0  0
   -7.4173   -0.2228    0.7649 C   0  0  2  0  0  0  0  0  0  0  0  0
   -8.5769    0.6859    0.6551 C   0  0  0  0  0  0  0  0  0  0  0  0
   -8.3918    1.9586   -0.0912 C   0  0  0  0  0  0  0  0  0  0  0  0
   -6.3635    0.4307    1.6351 C   0  0  0  0  0  0  0  0  0  0  0  0
   10.7135   -2.9688    3.3860 H   0  0  0  0  0  0  0  0  0  0  0  0
   12.1138   -2.0149    3.2260 H   0  0  0  0  0  0  0  0  0  0  0  0
   11.0287   -0.2138    4.4245 H   0  0  0  0  0  0  0  0  0  0  0  0
    9.6335   -1.3022    4.6354 H   0  0  0  0  0  0  0  0  0  0  0  0
    9.3891   -1.6336    2.2765 H   0  0  0  0  0  0  0  0  0  0  0  0
   10.8025   -0.6399    1.9220 H   0  0  0  0  0  0  0  0  0  0  0  0
    9.6758    1.3701    2.9890 H   0  0  0  0  0  0  0  0  0  0  0  0
    8.2550    0.3561    3.3253 H   0  0  0  0  0  0  0  0  0  0  0  0
    7.8273    1.7563    1.2746 H   0  0  0  0  0  0  0  0  0  0  0  0
   10.4325    2.7505    1.4763 H   0  0  0  0  0  0  0  0  0  0  0  0
   11.3052    2.9362   -1.2796 H   0  0  0  0  0  0  0  0  0  0  0  0
   12.2150    3.4544    0.2182 H   0  0  0  0  0  0  0  0  0  0  0  0
   12.8926    0.0641    1.0396 H   0  0  0  0  0  0  0  0  0  0  0  0
   12.2545   -0.6386   -0.4636 H   0  0  0  0  0  0  0  0  0  0  0  0
    8.0875   -1.1806    0.7654 H   0  0  0  0  0  0  0  0  0  0  0  0
    5.2108   -1.5113   -0.0359 H   0  0  0  0  0  0  0  0  0  0  0  0
    7.7283   -2.0329   -1.0485 H   0  0  0  0  0  0  0  0  0  0  0  0
    6.2099   -3.0325   -1.3300 H   0  0  0  0  0  0  0  0  0  0  0  0
    7.8206   -1.5219   -3.2227 H   0  0  0  0  0  0  0  0  0  0  0  0
    6.3224   -2.4420   -3.5012 H   0  0  0  0  0  0  0  0  0  0  0  0
    6.7039    0.4700   -2.8468 H   0  0  0  0  0  0  0  0  0  0  0  0
    5.4982   -0.3883   -3.9798 H   0  0  0  0  0  0  0  0  0  0  0  0
    2.6233    0.3065   -0.1538 H   0  0  0  0  0  0  0  0  0  0  0  0
    1.4827   -1.5661    0.0388 H   0  0  0  0  0  0  0  0  0  0  0  0
    3.0178   -2.2256   -0.5615 H   0  0  0  0  0  0  0  0  0  0  0  0
   -0.4720   -5.8032   -0.8734 H   0  0  0  0  0  0  0  0  0  0  0  0
   -0.3304   -4.1974   -0.0170 H   0  0  0  0  0  0  0  0  0  0  0  0
   -1.5700   -4.7065   -2.7805 H   0  0  0  0  0  0  0  0  0  0  0  0
   -1.1245   -2.5581   -2.8761 H   0  0  0  0  0  0  0  0  0  0  0  0
   -2.4950   -2.4064   -1.9685 H   0  0  0  0  0  0  0  0  0  0  0  0
   -3.2018   -2.7008   -0.1112 H   0  0  0  0  0  0  0  0  0  0  0  0
   -5.1520   -5.0610   -0.0794 H   0  0  0  0  0  0  0  0  0  0  0  0
   -4.3909   -3.3597    2.3370 H   0  0  0  0  0  0  0  0  0  0  0  0
   -4.0580   -5.1262    1.9154 H   0  0  0  0  0  0  0  0  0  0  0  0
   -5.8306   -6.7655    2.0257 H   0  0  0  0  0  0  0  0  0  0  0  0
   -8.0662   -7.3393    3.0009 H   0  0  0  0  0  0  0  0  0  0  0  0
   -9.5146   -5.5354    3.8723 H   0  0  0  0  0  0  0  0  0  0  0  0
   -8.8094   -3.2557    3.7940 H   0  0  0  0  0  0  0  0  0  0  0  0
   -6.6232   -2.6585    2.8435 H   0  0  0  0  0  0  0  0  0  0  0  0
   -4.7418   -1.3869   -0.1139 H   0  0  0  0  0  0  0  0  0  0  0  0
   -7.6365   -1.4051   -0.9447 H   0  0  0  0  0  0  0  0  0  0  0  0
   -4.5030    0.4829   -0.7023 H   0  0  0  0  0  0  0  0  0  0  0  0
   -5.0774    1.4223   -3.5401 H   0  0  0  0  0  0  0  0  0  0  0  0
   -2.5849    1.0029   -0.8706 H   0  0  0  0  0  0  0  0  0  0  0  0
   -0.6453    1.3814   -3.2112 H   0  0  0  0  0  0  0  0  0  0  0  0
    1.5889    0.8447   -2.8146 H   0  0  0  0  0  0  0  0  0  0  0  0
    0.6342    3.0785   -2.2646 H   0  0  0  0  0  0  0  0  0  0  0  0
   -1.0551    3.5811   -2.5725 H   0  0  0  0  0  0  0  0  0  0  0  0
    0.3964    5.3017   -0.5897 H   0  0  0  0  0  0  0  0  0  0  0  0
   -0.7522    5.0414    0.7850 H   0  0  0  0  0  0  0  0  0  0  0  0
   -4.8969    3.7169   -3.1274 H   0  0  0  0  0  0  0  0  0  0  0  0
   -6.2979    2.9259   -2.3261 H   0  0  0  0  0  0  0  0  0  0  0  0
   -3.6925    3.8724   -1.0220 H   0  0  0  0  0  0  0  0  0  0  0  0
   -5.0576    3.0197   -0.1289 H   0  0  0  0  0  0  0  0  0  0  0  0
   -4.7898    5.4026    1.0709 H   0  0  0  0  0  0  0  0  0  0  0  0
   -5.3470    7.7252   -0.4222 H   0  0  0  0  0  0  0  0  0  0  0  0
   -6.9964    7.0925   -0.0218 H   0  0  0  0  0  0  0  0  0  0  0  0
   -6.5235    8.3921    1.9504 H   0  0  0  0  0  0  0  0  0  0  0  0
   -4.7201    8.2046    1.6807 H   0  0  0  0  0  0  0  0  0  0  0  0
   -5.6204    6.8536    2.3780 H   0  0  0  0  0  0  0  0  0  0  0  0
   -7.7558   -1.1267    1.3540 H   0  0  0  0  0  0  0  0  0  0  0  0
   -9.4666    0.0972    0.2629 H   0  0  0  0  0  0  0  0  0  0  0  0
   -8.8915    0.9438    1.7172 H   0  0  0  0  0  0  0  0  0  0  0  0
   -8.8204    2.8045    0.5467 H   0  0  0  0  0  0  0  0  0  0  0  0
   -8.9754    2.0432   -1.0379 H   0  0  0  0  0  0  0  0  0  0  0  0
   -7.3208    2.2203   -0.1860 H   0  0  0  0  0  0  0  0  0  0  0  0
   -6.1432    1.4695    1.3584 H   0  0  0  0  0  0  0  0  0  0  0  0
   -6.8216    0.4711    2.6680 H   0  0  0  0  0  0  0  0  0  0  0  0
   -5.4595   -0.1923    1.7631 H   0  0  0  0  0  0  0  0  0  0  0  0
  1  2  1  0
  2  3  1  0
  3  4  1  0
  4  5  1  0
  5  6  1  0
  6  7  2  0
  6  8  1  0
  8  9  1  0
  9 10  1  0
 10 11  2  0
 10 12  1  0
  5 13  1  0
 13 14  1  0
 14 15  2  0
 14 16  1  0
 16 17  1  0
 17 18  1  0
 18 19  1  0
 19 20  1  0
 20 21  1  0
 21 22  2  0
 21 23  1  0
 23 24  1  0
 24 25  1  0
 25 26  1  0
 26 27  1  0
 27 28  1  0
 28 29  1  0
 28 30  1  0
 30 31  2  0
 30 32  1  0
 32 33  1  0
 33 34  1  0
 34 35  1  0
 35 36  2  0
 36 37  1  0
 37 38  2  0
 38 39  1  0
 39 40  2  0
 33 41  1  0
 41 42  2  0
 41 43  1  0
 43 44  1  0
 44 45  1  0
 45 46  2  0
 45 47  1  0
 47 48  1  0
 48 49  1  0
 49 50  2  0
 49 51  1  0
 51 52  1  0
 52 53  1  0
 53 54  2  0
 53 55  1  0
 52 56  1  0
 56 57  1  0
 57 58  2  0
 57 59  1  0
 48 60  1  0
 60 61  1  0
 61 62  1  0
 62 63  2  0
 62 64  1  0
 64 65  1  0
 65 66  1  0
 44 67  1  0
 67 68  1  0
 68 69  1  0
 67 70  1  0
 20 16  1  0
 55 23  1  0
 40 35  1  0
  1 71  1  0
  1 72  1  0
  2 73  1  0
  2 74  1  0
  3 75  1  0
  3 76  1  0
  4 77  1  0
  4 78  1  0
  5 79  1  1
  8 80  1  0
  9 81  1  0
  9 82  1  0
 12 83  1  0
 12 84  1  0
 13 85  1  0
 16 86  1  1
 17 87  1  0
 17 88  1  0
 18 89  1  0
 18 90  1  0
 19 91  1  0
 19 92  1  0
 23 93  1  1
 24 94  1  0
 24 95  1  0
 27 96  1  0
 27 97  1  0
 28 98  1  6
 29 99  1  0
 29100  1  0
 32101  1  0
 33102  1  6
 34103  1  0
 34104  1  0
 36105  1  0
 37106  1  0
 38107  1  0
 39108  1  0
 40109  1  0
 43110  1  0
 44111  1  6
 47112  1  0
 48113  1  6
 51114  1  0
 52115  1  6
 55116  1  0
 56117  1  0
 56118  1  0
 59119  1  0
 59120  1  0
 60121  1  0
 60122  1  0
 61123  1  0
 61124  1  0
 64125  1  0
 65126  1  0
 65127  1  0
 66128  1  0
 66129  1  0
 66130  1  0
 67131  1  1
 68132  1  0
 68133  1  0
 69134  1  0
 69135  1  0
 69136  1  0
 70137  1  0
 70138  1  0
 70139  1  0
M  END
>  <Ligand ID>  (1) 
LIG0001595

>  <Ligand>  (1) 
CHEMBL1819558

>  <SMILES>  (1) 
NCCC[C@@H](C(=O)NCC(=O)N)NC(=O)[C@@H]1CCCN1C(=O)[C@@H]1CSSC[C@H](N)C(=O)N[C@@H](Cc2ccccc2)C(=O)N[C@H](C(=O)N[C@H](C(=O)N[C@H](C(=O)N1)CC(=O)N)CCC(=O)NCC)[C@H](CC)C

>  <CID>  (1) 
53363017.0

>  <ChEMBL ID>  (1) 
nan

>  <InChiKey>  (1) 
JIPGMLWOBLXPMK-PFCVTPPASA-N

>  <InChi>  (1) 
InChI=1S/C44H69N13O11S2/c1-4-24(3)36-43(67)52-28(15-16-35(60)49-5-2)39(63)54-30(20-33(47)58)40(64)55-31(23-70-69-22-26(46)37(61)53-29(41(65)56-36)19-25-11-7-6-8-12-25)44(68)57-18-10-14-32(57)42(66)51-27(13-9-17-45)38(62)50-21-34(48)59/h6-8,11-12,24,26-32,36H,4-5,9-10,13-23,45-46H2,1-3H3,(H2,47,58)(H2,48,59)(H,49,60)(H,50,62)(H,51,66)(H,52,67)(H,53,61)(H,54,63)(H,55,64)(H,56,65)/t24-,26-,27-,28-,29-,30-,31-,32-,36-/m0/s1

>  <IUPAC Name>  (1) 
(2S)-N-[(2S)-5-amino-1-[(2-amino-2-oxoethyl)amino]-1-oxopentan-2-yl]-1-[(4R,7S,10S,13S,16S,19R)-19-amino-7-(2-amino-2-oxoethyl)-16-benzyl-13-[(2S)-butan-2-yl]-10-[3-(ethylamino)-3-oxopropyl]-6,9,12,15,18-pentaoxo-1,2-dithia-5,8,11,14,17-pentazacycloicosane-4-carbonyl]pyrrolidine-2-carboxamide

$$$$
