
     RDKit          3D

 58 61  0  0  0  0  0  0  0  0999 V2000
    2.2221   -4.8396   -0.5418 C   0  0  0  0  0  0  0  0  0  0  0  0
    3.0568   -3.7522   -1.1338 C   0  0  0  0  0  0  0  0  0  0  0  0
    2.1805   -2.5524   -1.4928 C   0  0  0  0  0  0  0  0  0  0  0  0
    1.5062   -2.0297   -0.2771 C   0  0  0  0  0  0  0  0  0  0  0  0
    0.6549   -0.8373   -0.5320 C   0  0  0  0  0  0  0  0  0  0  0  0
    1.3910    0.3470   -1.0823 C   0  0  0  0  0  0  0  0  0  0  0  0
    2.4588    0.8829   -0.2336 C   0  0  0  0  0  0  0  0  0  0  0  0
    3.7801    0.5097   -0.2737 C   0  0  0  0  0  0  0  0  0  0  0  0
    4.7499    1.0481    0.5567 C   0  0  0  0  0  0  0  0  0  0  0  0
    4.4134    2.0090    1.4832 C   0  0  0  0  0  0  0  0  0  0  0  0
    3.0984    2.4047    1.5485 C   0  0  0  0  0  0  0  0  0  0  0  0
    2.1362    1.8613    0.7150 C   0  0  0  0  0  0  0  0  0  0  0  0
    2.7483    3.3913    2.4986 N   0  0  0  0  0  0  0  0  0  0  0  0
    1.5720    3.8039    2.6191 O   0  0  0  0  0  0  0  0  0  0  0  0
    3.6825    3.9640    3.3556 O   0  0  0  0  0  0  0  0  0  0  0  0
   -0.5460   -1.0730   -1.3718 C   0  0  0  0  0  0  0  0  0  0  0  0
   -0.5642   -1.8280   -2.3539 O   0  0  0  0  0  0  0  0  0  0  0  0
   -1.6230   -0.2701   -0.8145 N   0  0  0  0  0  0  0  0  0  0  0  0
   -1.2641    0.0518    0.4796 N   0  0  0  0  0  0  0  0  0  0  0  0
    0.0292   -0.5099    0.8123 C   0  0  0  0  0  0  0  0  0  0  0  0
    0.5260   -0.6884    1.9497 O   0  0  0  0  0  0  0  0  0  0  0  0
   -1.9511    0.8222    1.4763 C   0  0  0  0  0  0  0  0  0  0  0  0
   -1.8039    2.2159    1.5364 C   0  0  0  0  0  0  0  0  0  0  0  0
   -2.4743    2.8963    2.5521 C   0  0  0  0  0  0  0  0  0  0  0  0
   -3.2600    2.2491    3.4770 C   0  0  0  0  0  0  0  0  0  0  0  0
   -3.4066    0.8781    3.4201 C   0  0  0  0  0  0  0  0  0  0  0  0
   -2.7583    0.1707    2.4290 C   0  0  0  0  0  0  0  0  0  0  0  0
   -2.7913    0.0978   -1.5448 C   0  0  0  0  0  0  0  0  0  0  0  0
   -3.8610    0.7697   -1.0055 C   0  0  0  0  0  0  0  0  0  0  0  0
   -4.9843    1.1341   -1.7459 C   0  0  0  0  0  0  0  0  0  0  0  0
   -5.0741    0.8295   -3.0835 C   0  0  0  0  0  0  0  0  0  0  0  0
   -4.0158    0.1575   -3.6451 C   0  0  0  0  0  0  0  0  0  0  0  0
   -2.8907   -0.2054   -2.8959 C   0  0  0  0  0  0  0  0  0  0  0  0
    1.1897   -4.7676   -0.9722 H   0  0  0  0  0  0  0  0  0  0  0  0
    2.0756   -4.6932    0.5594 H   0  0  0  0  0  0  0  0  0  0  0  0
    2.5940   -5.8560   -0.7508 H   0  0  0  0  0  0  0  0  0  0  0  0
    3.5096   -4.1151   -2.0622 H   0  0  0  0  0  0  0  0  0  0  0  0
    3.8336   -3.4674   -0.3953 H   0  0  0  0  0  0  0  0  0  0  0  0
    2.7201   -1.7788   -2.0592 H   0  0  0  0  0  0  0  0  0  0  0  0
    1.3762   -2.9515   -2.1834 H   0  0  0  0  0  0  0  0  0  0  0  0
    0.8747   -2.8039    0.2333 H   0  0  0  0  0  0  0  0  0  0  0  0
    2.2397   -1.7260    0.5214 H   0  0  0  0  0  0  0  0  0  0  0  0
    1.7778    0.0240   -2.0750 H   0  0  0  0  0  0  0  0  0  0  0  0
    0.6904    1.1839   -1.3222 H   0  0  0  0  0  0  0  0  0  0  0  0
    4.1157   -0.2340   -0.9750 H   0  0  0  0  0  0  0  0  0  0  0  0
    5.7961    0.7129    0.4831 H   0  0  0  0  0  0  0  0  0  0  0  0
    5.2009    2.4013    2.1100 H   0  0  0  0  0  0  0  0  0  0  0  0
    1.1333    2.2343    0.8402 H   0  0  0  0  0  0  0  0  0  0  0  0
   -1.1938    2.7448    0.8185 H   0  0  0  0  0  0  0  0  0  0  0  0
   -2.3920    3.9761    2.6410 H   0  0  0  0  0  0  0  0  0  0  0  0
   -3.7800    2.7784    4.2651 H   0  0  0  0  0  0  0  0  0  0  0  0
   -4.0168    0.3314    4.1303 H   0  0  0  0  0  0  0  0  0  0  0  0
   -2.8449   -0.9215    2.3435 H   0  0  0  0  0  0  0  0  0  0  0  0
   -3.8808    1.0436    0.0219 H   0  0  0  0  0  0  0  0  0  0  0  0
   -5.8065    1.6638   -1.2810 H   0  0  0  0  0  0  0  0  0  0  0  0
   -5.9403    1.1179   -3.6257 H   0  0  0  0  0  0  0  0  0  0  0  0
   -4.0786   -0.0840   -4.6904 H   0  0  0  0  0  0  0  0  0  0  0  0
   -2.1311   -0.7216   -3.4564 H   0  0  0  0  0  0  0  0  0  0  0  0
  1  2  1  0
  2  3  1  0
  3  4  1  0
  4  5  1  0
  5  6  1  0
  6  7  1  0
  7  8  2  0
  8  9  1  0
  9 10  2  0
 10 11  1  0
 11 12  2  0
 11 13  1  0
 13 14  2  0
 13 15  1  0
  5 16  1  0
 16 17  2  0
 16 18  1  0
 18 19  1  0
 19 20  1  0
 20 21  2  0
 19 22  1  0
 22 23  2  0
 23 24  1  0
 24 25  2  0
 25 26  1  0
 26 27  2  0
 18 28  1  0
 28 29  2  0
 29 30  1  0
 30 31  2  0
 31 32  1  0
 32 33  2  0
 20  5  1  0
 27 22  1  0
 33 28  1  0
 12  7  1  0
  1 34  1  0
  1 35  1  0
  1 36  1  0
  2 37  1  0
  2 38  1  0
  3 39  1  0
  3 40  1  0
  4 41  1  0
  4 42  1  0
  6 43  1  0
  6 44  1  0
  8 45  1  0
  9 46  1  0
 10 47  1  0
 12 48  1  0
 23 49  1  0
 24 50  1  0
 25 51  1  0
 26 52  1  0
 27 53  1  0
 29 54  1  0
 30 55  1  0
 31 56  1  0
 32 57  1  0
 33 58  1  0
M  CHG  2  13   1  15  -1
M  END
>  <Ligand ID>  (1) 
LIG0004198

>  <Ligand>  (1) 
MLS000575653

>  <SMILES>  (1) 
CCCCC1(Cc2cccc(c2)[N+](=O)[O-])C(=O)N(N(C1=O)c1ccccc1)c1ccccc1

>  <CID>  (1) 
1828692.0

>  <ChEMBL ID>  (1) 
nan

>  <InChiKey>  (1) 
WRVNPBBTMQTXBC-UHFFFAOYSA-N

>  <InChi>  (1) 
InChI=1S/C26H25N3O4/c1-2-3-17-26(19-20-11-10-16-23(18-20)29(32)33)24(30)27(21-12-6-4-7-13-21)28(25(26)31)22-14-8-5-9-15-22/h4-16,18H,2-3,17,19H2,1H3

>  <IUPAC Name>  (1) 
4-butyl-4-[(3-nitrophenyl)methyl]-1,2-diphenylpyrazolidine-3,5-dione

$$$$
