
     RDKit          3D

 44 47  0  0  0  0  0  0  0  0999 V2000
    4.1403    2.6278   -0.2110 C   0  0  0  0  0  0  0  0  0  0  0  0
    3.3781    1.3289   -0.4982 C   0  0  0  0  0  0  0  0  0  0  0  0
    2.1172    1.2527    0.2863 C   0  0  0  0  0  0  0  0  0  0  0  0
    1.3171    0.0996    0.1080 N   0  0  0  0  0  0  0  0  0  0  0  0
    1.8880   -1.1212    0.6146 C   0  0  0  0  0  0  0  0  0  0  0  0
    0.7688   -2.0843    0.7577 C   0  0  0  0  0  0  0  0  0  0  0  0
    0.9085   -3.1530    1.6206 C   0  0  0  0  0  0  0  0  0  0  0  0
   -0.0692   -4.0954    1.8137 C   0  0  0  0  0  0  0  0  0  0  0  0
   -1.2549   -3.9881    1.1228 C   0  0  0  0  0  0  0  0  0  0  0  0
   -1.4142   -2.9245    0.2541 C   0  0  0  0  0  0  0  0  0  0  0  0
   -0.4196   -1.9888    0.0747 C   0  0  0  0  0  0  0  0  0  0  0  0
   -0.6107   -0.8720   -0.8518 C   0  0  0  0  0  0  0  0  0  0  0  0
    0.6986   -0.1275   -1.1425 C   0  0  0  0  0  0  0  0  0  0  0  0
    0.5005    1.0249   -2.0479 C   0  0  0  0  0  0  0  0  0  0  0  0
   -0.8655    1.3709   -2.2887 O   0  0  0  0  0  0  0  0  0  0  0  0
   -1.7576    1.2393   -1.2458 C   0  0  0  0  0  0  0  0  0  0  0  0
   -1.6592    0.0821   -0.4673 C   0  0  0  0  0  0  0  0  0  0  0  0
   -2.5341   -0.0551    0.5623 C   0  0  0  0  0  0  0  0  0  0  0  0
   -3.4899    0.8876    0.8537 C   0  0  0  0  0  0  0  0  0  0  0  0
   -3.6118    2.0425    0.1014 C   0  0  0  0  0  0  0  0  0  0  0  0
   -2.7294    2.2049   -0.9550 C   0  0  0  0  0  0  0  0  0  0  0  0
   -4.5741    2.9700    0.4114 O   0  0  0  0  0  0  0  0  0  0  0  0
   -4.3891    0.7279    1.9266 O   0  0  0  0  0  0  0  0  0  0  0  0
    3.5350    3.5107   -0.4998 H   0  0  0  0  0  0  0  0  0  0  0  0
    5.1156    2.6125   -0.7509 H   0  0  0  0  0  0  0  0  0  0  0  0
    4.3398    2.6989    0.8715 H   0  0  0  0  0  0  0  0  0  0  0  0
    4.0699    0.4933   -0.2583 H   0  0  0  0  0  0  0  0  0  0  0  0
    3.2599    1.3082   -1.6003 H   0  0  0  0  0  0  0  0  0  0  0  0
    2.4341    1.2265    1.3745 H   0  0  0  0  0  0  0  0  0  0  0  0
    1.5218    2.1787    0.2185 H   0  0  0  0  0  0  0  0  0  0  0  0
    2.4626   -0.9942    1.5425 H   0  0  0  0  0  0  0  0  0  0  0  0
    2.5660   -1.5461   -0.1667 H   0  0  0  0  0  0  0  0  0  0  0  0
    1.8347   -3.2481    2.1690 H   0  0  0  0  0  0  0  0  0  0  0  0
    0.1210   -4.9166    2.5192 H   0  0  0  0  0  0  0  0  0  0  0  0
   -2.0360   -4.7276    1.2671 H   0  0  0  0  0  0  0  0  0  0  0  0
   -2.3469   -2.8409   -0.2891 H   0  0  0  0  0  0  0  0  0  0  0  0
   -0.9668   -1.3372   -1.8182 H   0  0  0  0  0  0  0  0  0  0  0  0
    1.3266   -0.8984   -1.6795 H   0  0  0  0  0  0  0  0  0  0  0  0
    0.9665    1.9700   -1.7013 H   0  0  0  0  0  0  0  0  0  0  0  0
    0.8810    0.7819   -3.0882 H   0  0  0  0  0  0  0  0  0  0  0  0
   -2.4851   -0.9233    1.1757 H   0  0  0  0  0  0  0  0  0  0  0  0
   -2.8064    3.1123   -1.5662 H   0  0  0  0  0  0  0  0  0  0  0  0
   -4.8040    3.7228   -0.2322 H   0  0  0  0  0  0  0  0  0  0  0  0
   -5.3272    0.3676    1.7129 H   0  0  0  0  0  0  0  0  0  0  0  0
  1  2  1  0
  2  3  1  0
  3  4  1  0
  4  5  1  0
  5  6  1  0
  6  7  2  0
  7  8  1  0
  8  9  2  0
  9 10  1  0
 10 11  2  0
 11 12  1  0
 12 13  1  0
 13 14  1  0
 14 15  1  0
 15 16  1  0
 16 17  2  0
 17 18  1  0
 18 19  2  0
 19 20  1  0
 20 21  2  0
 20 22  1  0
 19 23  1  0
 13  4  1  0
 21 16  1  0
 11  6  1  0
 17 12  1  0
  1 24  1  0
  1 25  1  0
  1 26  1  0
  2 27  1  0
  2 28  1  0
  3 29  1  0
  3 30  1  0
  5 31  1  0
  5 32  1  0
  7 33  1  0
  8 34  1  0
  9 35  1  0
 10 36  1  0
 12 37  1  0
 13 38  1  0
 14 39  1  0
 14 40  1  0
 18 41  1  0
 21 42  1  0
 22 43  1  0
 23 44  1  0
M  END
>  <Ligand ID>  (1) 
LIG0004348

>  <Ligand>  (1) 
CHEMBL1203924

>  <SMILES>  (1) 
CCCN1Cc2ccccc2C2C1COc1c2cc(c(c1)O)O

>  <CID>  (1) 
44417647.0

>  <ChEMBL ID>  (1) 
nan

>  <InChiKey>  (1) 
ZFTCHNBVJNLSJT-UHFFFAOYSA-N

>  <InChi>  (1) 
InChI=1S/C19H21NO3/c1-2-7-20-10-12-5-3-4-6-13(12)19-14-8-16(21)17(22)9-18(14)23-11-15(19)20/h3-6,8-9,15,19,21-22H,2,7,10-11H2,1H3

>  <IUPAC Name>  (1) 
7-propyl-6,6a,8,12b-tetrahydrochromeno[3,4-c]isoquinoline-2,3-diol

$$$$
