
     RDKit          3D

 54 56  0  0  0  0  0  0  0  0999 V2000
    7.7416    1.7291   -2.8132 O   0  0  0  0  0  0  0  0  0  0  0  0
    6.8560    0.8300   -2.1913 C   0  0  0  0  0  0  0  0  0  0  0  0
    7.0868    0.8333   -0.7204 C   0  0  0  0  0  0  0  0  0  0  0  0
    6.3128    0.0126    0.0567 O   0  0  0  0  0  0  0  0  0  0  0  0
    4.9850   -0.0697    0.3075 C   0  0  0  0  0  0  0  0  0  0  0  0
    3.9905    0.7290   -0.1892 C   0  0  0  0  0  0  0  0  0  0  0  0
    2.6438    0.5572    0.1325 C   0  0  0  0  0  0  0  0  0  0  0  0
    2.2644   -0.4547    0.9881 C   0  0  0  0  0  0  0  0  0  0  0  0
    3.2456   -1.2742    1.5037 C   0  0  0  0  0  0  0  0  0  0  0  0
    4.5682   -1.0900    1.1752 C   0  0  0  0  0  0  0  0  0  0  0  0
    0.8782   -0.6988    1.3704 C   0  0  0  0  0  0  0  0  0  0  0  0
    0.1029   -1.5518    0.6354 C   0  0  0  0  0  0  0  0  0  0  0  0
    0.6786   -2.1894   -0.5007 C   0  0  0  0  0  0  0  0  0  0  0  0
    1.1493   -2.7242   -1.4142 N   0  0  0  0  0  0  0  0  0  0  0  0
   -1.2248   -1.7761    1.0143 C   0  0  0  0  0  0  0  0  0  0  0  0
   -1.6618   -1.1222    2.1027 N   0  0  0  0  0  0  0  0  0  0  0  0
   -0.9396   -0.2829    2.8463 C   0  0  0  0  0  0  0  0  0  0  0  0
    0.3653   -0.0514    2.4887 C   0  0  0  0  0  0  0  0  0  0  0  0
    1.1642    0.8513    3.2765 C   0  0  0  0  0  0  0  0  0  0  0  0
    1.8098    1.5519    3.9008 N   0  0  0  0  0  0  0  0  0  0  0  0
   -1.4950    0.3715    3.9921 N   0  0  0  0  0  0  0  0  0  0  0  0
   -2.2525   -2.8860    0.0588 S   0  0  0  0  0  0  0  0  0  0  0  0
   -3.1211   -2.0192   -1.2556 C   0  0  0  0  0  0  0  0  0  0  0  0
   -4.1032   -1.1023   -0.6142 C   0  0  0  0  0  0  0  0  0  0  0  0
   -4.5093   -1.3051    0.7018 C   0  0  0  0  0  0  0  0  0  0  0  0
   -5.3968   -0.5065    1.3539 C   0  0  0  0  0  0  0  0  0  0  0  0
   -5.9463    0.5772    0.7019 C   0  0  0  0  0  0  0  0  0  0  0  0
   -5.5629    0.8104   -0.6157 C   0  0  0  0  0  0  0  0  0  0  0  0
   -4.6577   -0.0175   -1.2570 C   0  0  0  0  0  0  0  0  0  0  0  0
   -6.1487    1.9490   -1.2782 C   0  0  0  0  0  0  0  0  0  0  0  0
   -6.9678    2.6758   -0.6600 O   0  0  0  0  0  0  0  0  0  0  0  0
   -5.8264    2.2880   -2.6360 N   0  0  0  0  0  0  0  0  0  0  0  0
   -2.1625   -1.2508   -2.1488 C   0  0  0  0  0  0  0  0  0  0  0  0
    8.6332    1.3449   -2.9285 H   0  0  0  0  0  0  0  0  0  0  0  0
    5.8390    1.1379   -2.4509 H   0  0  0  0  0  0  0  0  0  0  0  0
    7.0828   -0.1784   -2.6384 H   0  0  0  0  0  0  0  0  0  0  0  0
    7.1314    1.8998   -0.3489 H   0  0  0  0  0  0  0  0  0  0  0  0
    8.1639    0.4971   -0.5797 H   0  0  0  0  0  0  0  0  0  0  0  0
    4.2164    1.5346   -0.8465 H   0  0  0  0  0  0  0  0  0  0  0  0
    1.8810    1.2095   -0.2797 H   0  0  0  0  0  0  0  0  0  0  0  0
    2.9589   -2.0829    2.1855 H   0  0  0  0  0  0  0  0  0  0  0  0
    5.2859   -1.7743    1.6191 H   0  0  0  0  0  0  0  0  0  0  0  0
   -2.4452    0.8119    3.8338 H   0  0  0  0  0  0  0  0  0  0  0  0
   -0.9980    0.4085    4.9079 H   0  0  0  0  0  0  0  0  0  0  0  0
   -3.6940   -2.7383   -1.8690 H   0  0  0  0  0  0  0  0  0  0  0  0
   -4.0810   -2.1531    1.2027 H   0  0  0  0  0  0  0  0  0  0  0  0
   -5.6389   -0.7652    2.3851 H   0  0  0  0  0  0  0  0  0  0  0  0
   -6.6507    1.2064    1.2273 H   0  0  0  0  0  0  0  0  0  0  0  0
   -4.3884    0.2002   -2.2805 H   0  0  0  0  0  0  0  0  0  0  0  0
   -4.9791    2.8062   -2.8934 H   0  0  0  0  0  0  0  0  0  0  0  0
   -6.4874    1.9932   -3.4087 H   0  0  0  0  0  0  0  0  0  0  0  0
   -1.5270   -1.9994   -2.6747 H   0  0  0  0  0  0  0  0  0  0  0  0
   -2.6713   -0.6789   -2.9217 H   0  0  0  0  0  0  0  0  0  0  0  0
   -1.4982   -0.5928   -1.5536 H   0  0  0  0  0  0  0  0  0  0  0  0
  1  2  1  0
  2  3  1  0
  3  4  1  0
  4  5  1  0
  5  6  2  0
  6  7  1  0
  7  8  2  0
  8  9  1  0
  9 10  2  0
  8 11  1  0
 11 12  2  0
 12 13  1  0
 13 14  3  0
 12 15  1  0
 15 16  2  0
 16 17  1  0
 17 18  2  0
 18 19  1  0
 19 20  3  0
 17 21  1  0
 15 22  1  0
 22 23  1  0
 23 24  1  0
 24 25  2  0
 25 26  1  0
 26 27  2  0
 27 28  1  0
 28 29  2  0
 28 30  1  0
 30 31  2  0
 30 32  1  0
 23 33  1  0
 10  5  1  0
 18 11  1  0
 29 24  1  0
  1 34  1  0
  2 35  1  0
  2 36  1  0
  3 37  1  0
  3 38  1  0
  6 39  1  0
  7 40  1  0
  9 41  1  0
 10 42  1  0
 21 43  1  0
 21 44  1  0
 23 45  1  0
 25 46  1  0
 26 47  1  0
 27 48  1  0
 29 49  1  0
 32 50  1  0
 32 51  1  0
 33 52  1  0
 33 53  1  0
 33 54  1  0
M  END
>  <Ligand ID>  (1) 
LIG0003506

>  <Ligand>  (1) 
SCHEMBL244768

>  <SMILES>  (1) 
OCCOc1ccc(cc1)c1c(C#N)c(nc(c1C#N)N)SC(c1cccc(c1)C(=O)N)C

>  <CID>  (1) 
66631434.0

>  <ChEMBL ID>  (1) 
nan

>  <InChiKey>  (1) 
PRQHDJVUYYXVOP-UHFFFAOYSA-N

>  <InChi>  (1) 
InChI=1S/C24H21N5O3S/c1-14(16-3-2-4-17(11-16)23(28)31)33-24-20(13-26)21(19(12-25)22(27)29-24)15-5-7-18(8-6-15)32-10-9-30/h2-8,11,14,30H,9-10H2,1H3,(H2,27,29)(H2,28,31)

>  <IUPAC Name>  (1) 
3-[1-[6-amino-3,5-dicyano-4-[4-(2-hydroxyethoxy)phenyl]pyridin-2-yl]sulfanylethyl]benzamide

$$$$
