
     RDKit          3D

  6  5  0  0  0  0  0  0  0  0999 V2000
    1.3471   -1.2627    0.2176 O   0  0  0  0  0  0  0  0  0  0  0  0
    0.7273   -0.0392    0.1165 C   0  0  0  0  0  0  0  0  0  0  0  0
    1.3846    1.0222    0.2203 O   0  0  0  0  0  0  0  0  0  0  0  0
   -0.7112    0.0387   -0.1140 C   0  0  0  0  0  0  0  0  0  0  0  0
   -1.3910   -1.0222   -0.2214 O   0  0  0  0  0  0  0  0  0  0  0  0
   -1.3567    1.2631   -0.2191 O   0  0  0  0  0  0  0  0  0  0  0  0
  1  2  1  0
  2  3  2  0
  2  4  1  0
  4  5  2  0
  4  6  1  0
M  CHG  2   1  -1   6  -1
M  END
>  <Ligand ID>  (1) 
LIG0000600

>  <Ligand>  (1) 
oxalate

>  <SMILES>  (1) 
[O-]C(=O)C(=O)[O-]

>  <CID>  (1) 
71081.0

>  <ChEMBL ID>  (1) 
nan

>  <InChiKey>  (1) 
MUBZPKHOEPUJKR-UHFFFAOYSA-L

>  <InChi>  (1) 
InChI=1S/C2H2O4/c3-1(4)2(5)6/h(H,3,4)(H,5,6)/p-2

>  <IUPAC Name>  (1) 
oxalate

$$$$
