
     RDKit          3D

 42 45  0  0  0  0  0  0  0  0999 V2000
   -3.8783    3.8988    1.2096 O   0  0  0  0  0  0  0  0  0  0  0  0
   -2.9849    2.9271    0.7861 C   0  0  0  0  0  0  0  0  0  0  0  0
   -2.0078    2.5047    1.6254 C   0  0  0  0  0  0  0  0  0  0  0  0
   -1.0977    1.5253    1.2155 C   0  0  0  0  0  0  0  0  0  0  0  0
   -1.1369    0.9496   -0.0233 C   0  0  0  0  0  0  0  0  0  0  0  0
   -2.1500    1.3952   -0.8789 C   0  0  0  0  0  0  0  0  0  0  0  0
   -3.0584    2.3734   -0.4685 C   0  0  0  0  0  0  0  0  0  0  0  0
   -0.1668   -0.1078   -0.4810 C   0  0  0  0  0  0  0  0  0  0  0  0
   -0.6356   -1.4736   -0.2622 C   0  0  0  0  0  0  0  0  0  0  0  0
   -1.9262   -1.8456   -0.6170 C   0  0  0  0  0  0  0  0  0  0  0  0
   -2.3934   -3.1446   -0.4286 C   0  0  0  0  0  0  0  0  0  0  0  0
   -1.6012   -4.1303    0.1197 C   0  0  0  0  0  0  0  0  0  0  0  0
   -0.3192   -3.7693    0.4743 C   0  0  0  0  0  0  0  0  0  0  0  0
    0.1431   -2.4853    0.2881 C   0  0  0  0  0  0  0  0  0  0  0  0
   -2.0205   -5.4225    0.3233 O   0  0  0  0  0  0  0  0  0  0  0  0
    0.1811    0.1935   -1.9102 C   0  0  0  0  0  0  0  0  0  0  0  0
   -0.5333    0.0382   -2.9404 O   0  0  0  0  0  0  0  0  0  0  0  0
    1.5030    0.7116   -1.9913 N   0  0  0  0  0  0  0  0  0  0  0  0
    2.0641    0.6296   -0.7094 C   0  0  0  0  0  0  0  0  0  0  0  0
    1.1599    0.0877    0.1954 C   0  0  0  0  0  0  0  0  0  0  0  0
    1.6367   -0.1052    1.4776 C   0  0  0  0  0  0  0  0  0  0  0  0
    2.9216    0.2143    1.8628 C   0  0  0  0  0  0  0  0  0  0  0  0
    3.8013    0.7499    0.9646 C   0  0  0  0  0  0  0  0  0  0  0  0
    3.3687    0.9557   -0.3207 C   0  0  0  0  0  0  0  0  0  0  0  0
    4.3432    1.5392   -1.2837 C   0  0  0  0  0  0  0  0  0  0  0  0
   -4.4804    4.3249    0.5069 H   0  0  0  0  0  0  0  0  0  0  0  0
   -1.9509    2.9400    2.6095 H   0  0  0  0  0  0  0  0  0  0  0  0
   -0.3622    1.2551    1.9294 H   0  0  0  0  0  0  0  0  0  0  0  0
   -2.2864    1.0278   -1.8707 H   0  0  0  0  0  0  0  0  0  0  0  0
   -3.8420    2.7105   -1.1458 H   0  0  0  0  0  0  0  0  0  0  0  0
   -2.6398   -1.1622   -1.0541 H   0  0  0  0  0  0  0  0  0  0  0  0
   -3.4111   -3.4149   -0.7146 H   0  0  0  0  0  0  0  0  0  0  0  0
    0.3440   -4.5277    0.9151 H   0  0  0  0  0  0  0  0  0  0  0  0
    1.1628   -2.2947    0.5899 H   0  0  0  0  0  0  0  0  0  0  0  0
   -2.6188   -5.5938    1.1173 H   0  0  0  0  0  0  0  0  0  0  0  0
    1.9741    1.0903   -2.8662 H   0  0  0  0  0  0  0  0  0  0  0  0
    1.0140   -0.5486    2.2693 H   0  0  0  0  0  0  0  0  0  0  0  0
    3.2716    0.0515    2.8843 H   0  0  0  0  0  0  0  0  0  0  0  0
    4.8067    0.9991    1.2736 H   0  0  0  0  0  0  0  0  0  0  0  0
    5.3748    1.2751   -0.9747 H   0  0  0  0  0  0  0  0  0  0  0  0
    4.1888    1.0405   -2.2855 H   0  0  0  0  0  0  0  0  0  0  0  0
    4.2422    2.6171   -1.4109 H   0  0  0  0  0  0  0  0  0  0  0  0
  1  2  1  0
  2  3  2  0
  3  4  1  0
  4  5  2  0
  5  6  1  0
  6  7  2  0
  5  8  1  0
  8  9  1  0
  9 10  2  0
 10 11  1  0
 11 12  2  0
 12 13  1  0
 13 14  2  0
 12 15  1  0
  8 16  1  0
 16 17  2  0
 16 18  1  0
 18 19  1  0
 19 20  2  0
 20 21  1  0
 21 22  2  0
 22 23  1  0
 23 24  2  0
 24 25  1  0
  7  2  1  0
 20  8  1  0
 14  9  1  0
 24 19  1  0
  1 26  1  0
  3 27  1  0
  4 28  1  0
  6 29  1  0
  7 30  1  0
 10 31  1  0
 11 32  1  0
 13 33  1  0
 14 34  1  0
 15 35  1  0
 18 36  1  0
 21 37  1  0
 22 38  1  0
 23 39  1  0
 25 40  1  0
 25 41  1  0
 25 42  1  0
M  END
>  <Ligand ID>  (1) 
LIG0003887

>  <Ligand>  (1) 
BHPI

>  <SMILES>  (1) 
Oc1ccc(cc1)C1(c2ccc(cc2)O)C(=O)Nc2c1cccc2C

>  <CID>  (1) 
3860640.0

>  <ChEMBL ID>  (1) 
nan

>  <InChiKey>  (1) 
FABLAHMQSQFDHR-UHFFFAOYSA-N

>  <InChi>  (1) 
InChI=1S/C21H17NO3/c1-13-3-2-4-18-19(13)22-20(25)21(18,14-5-9-16(23)10-6-14)15-7-11-17(24)12-8-15/h2-12,23-24H,1H3,(H,22,25)

>  <IUPAC Name>  (1) 
3,3-bis(4-hydroxyphenyl)-7-methyl-1H-indol-2-one

$$$$
