
     RDKit          3D

 62 63  0  0  0  0  0  0  0  0999 V2000
    2.3851    3.5729   -0.2767 O   0  0  0  0  0  0  0  0  0  0  0  0
    1.6804    2.6238    0.1712 C   0  0  0  0  0  0  0  0  0  0  0  0
    2.0925    1.3138   -0.1474 N   0  0  0  0  0  0  0  0  0  0  0  0
    3.2878    1.0317   -0.9538 C   0  0  2  0  0  0  0  0  0  0  0  0
    2.8351    0.3716   -2.1806 C   0  0  0  0  0  0  0  0  0  0  0  0
    1.6163    0.1160   -2.4115 O   0  0  0  0  0  0  0  0  0  0  0  0
    3.7455   -0.0364   -3.2185 N   0  0  0  0  0  0  0  0  0  0  0  0
    4.2309    0.2570   -0.1045 C   0  0  0  0  0  0  0  0  0  0  0  0
    5.4697   -0.0868   -0.8102 C   0  0  0  0  0  0  0  0  0  0  0  0
    5.6130   -1.2704   -1.5118 C   0  0  0  0  0  0  0  0  0  0  0  0
    6.7835   -1.5877   -2.1793 C   0  0  0  0  0  0  0  0  0  0  0  0
    7.8516   -0.7104   -2.1564 C   0  0  0  0  0  0  0  0  0  0  0  0
    7.7304    0.4881   -1.4560 C   0  0  0  0  0  0  0  0  0  0  0  0
    6.5513    0.7748   -0.8015 C   0  0  0  0  0  0  0  0  0  0  0  0
    0.5007    2.9804    0.9766 C   0  0  0  0  0  0  0  0  0  0  0  0
   -0.1715    1.7987    1.4593 N   0  0  0  0  0  0  0  0  0  0  0  0
    0.4840    0.8994    2.3413 C   0  0  0  0  0  0  0  0  0  0  0  0
    1.6585    1.0592    2.7642 O   0  0  0  0  0  0  0  0  0  0  0  0
   -0.2416   -0.3113    2.8062 C   0  0  2  0  0  0  0  0  0  0  0  0
   -1.5854   -0.3907    2.2615 N   0  0  0  0  0  0  0  0  0  0  0  0
   -2.0396   -1.4649    1.4538 C   0  0  0  0  0  0  0  0  0  0  0  0
   -1.2530   -2.4315    1.1683 O   0  0  0  0  0  0  0  0  0  0  0  0
   -3.4222   -1.4317    0.9631 C   0  0  2  0  0  0  0  0  0  0  0  0
   -3.5522   -1.4098   -0.5462 C   0  0  0  0  0  0  0  0  0  0  0  0
   -5.0410   -1.3776   -0.7882 C   0  0  0  0  0  0  0  0  0  0  0  0
   -5.7104   -0.1786   -0.8857 C   0  0  0  0  0  0  0  0  0  0  0  0
   -7.0903   -0.1114   -1.1078 C   0  0  0  0  0  0  0  0  0  0  0  0
   -7.7640   -1.3159   -1.2273 C   0  0  0  0  0  0  0  0  0  0  0  0
   -7.1379   -2.5383   -1.1371 C   0  0  0  0  0  0  0  0  0  0  0  0
   -5.7633   -2.5626   -0.9153 C   0  0  0  0  0  0  0  0  0  0  0  0
   -9.1474   -1.3310   -1.4506 O   0  0  0  0  0  0  0  0  0  0  0  0
   -4.1676   -0.2488    1.4099 N   0  0  0  0  0  0  0  0  0  0  0  0
   -0.3915   -0.2381    4.3119 C   0  0  0  0  0  0  0  0  0  0  0  0
    1.5595    0.4906    0.1644 H   0  0  0  0  0  0  0  0  0  0  0  0
    3.7810    1.9804   -1.2499 H   0  0  0  0  0  0  0  0  0  0  0  0
    3.6695   -0.9604   -3.6956 H   0  0  0  0  0  0  0  0  0  0  0  0
    4.4974    0.6624   -3.4660 H   0  0  0  0  0  0  0  0  0  0  0  0
    3.7642   -0.6094    0.4136 H   0  0  0  0  0  0  0  0  0  0  0  0
    4.5296    0.9426    0.7402 H   0  0  0  0  0  0  0  0  0  0  0  0
    4.8039   -2.0049   -1.5625 H   0  0  0  0  0  0  0  0  0  0  0  0
    6.8402   -2.5334   -2.7161 H   0  0  0  0  0  0  0  0  0  0  0  0
    8.7758   -0.9653   -2.6858 H   0  0  0  0  0  0  0  0  0  0  0  0
    8.5657    1.1696   -1.4405 H   0  0  0  0  0  0  0  0  0  0  0  0
    6.4302    1.6969   -0.2506 H   0  0  0  0  0  0  0  0  0  0  0  0
    0.8122    3.6069    1.8509 H   0  0  0  0  0  0  0  0  0  0  0  0
   -0.1652    3.5776    0.3165 H   0  0  0  0  0  0  0  0  0  0  0  0
   -1.1467    1.5768    1.1753 H   0  0  0  0  0  0  0  0  0  0  0  0
    0.3086   -1.2198    2.4873 H   0  0  0  0  0  0  0  0  0  0  0  0
   -2.2167    0.4270    2.5145 H   0  0  0  0  0  0  0  0  0  0  0  0
   -4.0058   -2.3050    1.3221 H   0  0  0  0  0  0  0  0  0  0  0  0
   -3.1377   -0.4480   -0.9350 H   0  0  0  0  0  0  0  0  0  0  0  0
   -3.1306   -2.3039   -1.0191 H   0  0  0  0  0  0  0  0  0  0  0  0
   -5.1822    0.7786   -0.7922 H   0  0  0  0  0  0  0  0  0  0  0  0
   -7.6039    0.8514   -1.1821 H   0  0  0  0  0  0  0  0  0  0  0  0
   -7.6758   -3.4837   -1.2324 H   0  0  0  0  0  0  0  0  0  0  0  0
   -5.2153   -3.5087   -0.8357 H   0  0  0  0  0  0  0  0  0  0  0  0
   -9.6947   -0.5039   -1.2585 H   0  0  0  0  0  0  0  0  0  0  0  0
   -3.6533    0.5968    1.0778 H   0  0  0  0  0  0  0  0  0  0  0  0
   -4.1494   -0.2218    2.4524 H   0  0  0  0  0  0  0  0  0  0  0  0
   -1.1823   -0.9464    4.6005 H   0  0  0  0  0  0  0  0  0  0  0  0
    0.5700   -0.3870    4.8394 H   0  0  0  0  0  0  0  0  0  0  0  0
   -0.7861    0.7775    4.5464 H   0  0  0  0  0  0  0  0  0  0  0  0
  1  2  2  0
  2  3  1  0
  3  4  1  0
  4  5  1  0
  5  6  2  0
  5  7  1  0
  4  8  1  0
  8  9  1  0
  9 10  2  0
 10 11  1  0
 11 12  2  0
 12 13  1  0
 13 14  2  0
  2 15  1  0
 15 16  1  0
 16 17  1  0
 17 18  2  0
 17 19  1  0
 19 20  1  0
 20 21  1  0
 21 22  2  0
 21 23  1  0
 23 24  1  0
 24 25  1  0
 25 26  2  0
 26 27  1  0
 27 28  2  0
 28 29  1  0
 29 30  2  0
 28 31  1  0
 23 32  1  0
 19 33  1  0
 14  9  1  0
 30 25  1  0
  3 34  1  0
  4 35  1  6
  7 36  1  0
  7 37  1  0
  8 38  1  0
  8 39  1  0
 10 40  1  0
 11 41  1  0
 12 42  1  0
 13 43  1  0
 14 44  1  0
 15 45  1  0
 15 46  1  0
 16 47  1  0
 19 48  1  1
 20 49  1  0
 23 50  1  1
 24 51  1  0
 24 52  1  0
 26 53  1  0
 27 54  1  0
 29 55  1  0
 30 56  1  0
 31 57  1  0
 32 58  1  0
 32 59  1  0
 33 60  1  0
 33 61  1  0
 33 62  1  0
M  END
>  <Ligand ID>  (1) 
LIG0005371

>  <Ligand>  (1) 
Tetrapeptamide

>  <SMILES>  (1) 
O=C(N[C@H](C(=O)N)Cc1ccccc1)CNC(=O)[C@H](NC(=O)[C@H](Cc1ccc(cc1)O)N)C

>  <CID>  (1) 
5490373.0

>  <ChEMBL ID>  (1) 
nan

>  <InChiKey>  (1) 
RJEUERNNQHNSKG-CCKFTAQKSA-N

>  <InChi>  (1) 
InChI=1S/C23H29N5O5/c1-14(27-23(33)18(24)11-16-7-9-17(29)10-8-16)22(32)26-13-20(30)28-19(21(25)31)12-15-5-3-2-4-6-15/h2-10,14,18-19,29H,11-13,24H2,1H3,(H2,25,31)(H,26,32)(H,27,33)(H,28,30)/t14-,18+,19+/m1/s1

>  <IUPAC Name>  (1) 
(2S)-2-amino-N-[(2R)-1-[[2-[[(2S)-1-amino-1-oxo-3-phenylpropan-2-yl]amino]-2-oxoethyl]amino]-1-oxopropan-2-yl]-3-(4-hydroxyphenyl)propanamide

$$$$
