
     RDKit          3D

 49 51  0  0  0  0  0  0  0  0999 V2000
    1.3049    4.6833    1.1122 C   0  0  0  0  0  0  0  0  0  0  0  0
    2.2275    3.8556    0.2192 C   0  0  0  0  0  0  0  0  0  0  0  0
    1.7391    2.4106    0.1723 C   0  0  0  0  0  0  0  0  0  0  0  0
    2.5893    1.5652   -0.7267 C   0  0  0  0  0  0  0  0  0  0  0  0
    2.1280    0.1649   -0.7990 N   0  0  0  0  0  0  0  0  0  0  0  0
    2.6386   -0.6245    0.2982 C   0  0  0  0  0  0  0  0  0  0  0  0
    3.3369    0.0060    1.1468 O   0  0  0  0  0  0  0  0  0  0  0  0
    2.4385   -2.0224    0.5090 C   0  0  0  0  0  0  0  0  0  0  0  0
    3.5251   -2.8592    0.1806 C   0  0  0  0  0  0  0  0  0  0  0  0
    3.4463   -4.2200    0.3531 C   0  0  0  0  0  0  0  0  0  0  0  0
    2.2982   -4.8414    0.8593 C   0  0  0  0  0  0  0  0  0  0  0  0
    1.2463   -3.9723    1.1710 C   0  0  0  0  0  0  0  0  0  0  0  0
    1.3637   -2.6455    0.9854 N   0  0  0  0  0  0  0  0  0  0  0  0
    1.2588   -0.3454   -1.8209 C   0  0  0  0  0  0  0  0  0  0  0  0
   -0.1426   -0.1027   -1.5183 C   0  0  0  0  0  0  0  0  0  0  0  0
   -1.0017   -0.9010   -0.8085 C   0  0  0  0  0  0  0  0  0  0  0  0
   -2.3010   -0.5078   -0.5264 C   0  0  0  0  0  0  0  0  0  0  0  0
   -3.1267   -1.3180    0.2195 C   0  0  0  0  0  0  0  0  0  0  0  0
   -4.4060   -0.8546    0.4994 C   0  0  0  0  0  0  0  0  0  0  0  0
   -5.3146   -1.6720    1.3181 C   0  0  0  0  0  0  0  0  0  0  0  0
   -4.8549    0.3668    0.0548 C   0  0  0  0  0  0  0  0  0  0  0  0
   -4.0370    1.1857   -0.6939 C   0  0  0  0  0  0  0  0  0  0  0  0
   -2.7658    0.7089   -0.9613 C   0  0  0  0  0  0  0  0  0  0  0  0
   -1.9407    1.4867   -1.6544 N   0  0  0  0  0  0  0  0  0  0  0  0
   -0.6817    1.1204   -1.9330 C   0  0  0  0  0  0  0  0  0  0  0  0
    0.0110    1.9345   -2.5995 O   0  0  0  0  0  0  0  0  0  0  0  0
    0.3990    4.1092    1.4111 H   0  0  0  0  0  0  0  0  0  0  0  0
    0.9168    5.5397    0.4936 H   0  0  0  0  0  0  0  0  0  0  0  0
    1.8224    5.0308    2.0208 H   0  0  0  0  0  0  0  0  0  0  0  0
    3.2169    3.8468    0.6827 H   0  0  0  0  0  0  0  0  0  0  0  0
    2.2789    4.2775   -0.7783 H   0  0  0  0  0  0  0  0  0  0  0  0
    1.7802    1.9910    1.2415 H   0  0  0  0  0  0  0  0  0  0  0  0
    0.6798    2.4569   -0.0490 H   0  0  0  0  0  0  0  0  0  0  0  0
    3.6575    1.5602   -0.3907 H   0  0  0  0  0  0  0  0  0  0  0  0
    2.5996    2.0068   -1.7326 H   0  0  0  0  0  0  0  0  0  0  0  0
    4.4347   -2.4252   -0.2098 H   0  0  0  0  0  0  0  0  0  0  0  0
    4.3279   -4.8096    0.0818 H   0  0  0  0  0  0  0  0  0  0  0  0
    2.2552   -5.9002    0.9842 H   0  0  0  0  0  0  0  0  0  0  0  0
    0.3284   -4.4216    1.5641 H   0  0  0  0  0  0  0  0  0  0  0  0
    1.5559    0.0650   -2.8320 H   0  0  0  0  0  0  0  0  0  0  0  0
    1.3636   -1.4691   -1.9129 H   0  0  0  0  0  0  0  0  0  0  0  0
   -0.6926   -1.8620   -0.4717 H   0  0  0  0  0  0  0  0  0  0  0  0
   -2.7781   -2.3002    0.5826 H   0  0  0  0  0  0  0  0  0  0  0  0
   -5.5083   -1.1025    2.2568 H   0  0  0  0  0  0  0  0  0  0  0  0
   -6.2373   -1.8525    0.7618 H   0  0  0  0  0  0  0  0  0  0  0  0
   -4.8595   -2.6357    1.6681 H   0  0  0  0  0  0  0  0  0  0  0  0
   -5.8547    0.7170    0.2801 H   0  0  0  0  0  0  0  0  0  0  0  0
   -4.3757    2.1652   -1.0594 H   0  0  0  0  0  0  0  0  0  0  0  0
   -2.2903    2.4104   -1.9852 H   0  0  0  0  0  0  0  0  0  0  0  0
  1  2  1  0
  2  3  1  0
  3  4  1  0
  4  5  1  0
  5  6  1  0
  6  7  2  0
  6  8  1  0
  8  9  2  0
  9 10  1  0
 10 11  2  0
 11 12  1  0
 12 13  2  0
  5 14  1  0
 14 15  1  0
 15 16  2  0
 16 17  1  0
 17 18  2  0
 18 19  1  0
 19 20  1  0
 19 21  2  0
 21 22  1  0
 22 23  2  0
 23 24  1  0
 24 25  1  0
 25 26  2  0
 13  8  1  0
 25 15  1  0
 23 17  1  0
  1 27  1  0
  1 28  1  0
  1 29  1  0
  2 30  1  0
  2 31  1  0
  3 32  1  0
  3 33  1  0
  4 34  1  0
  4 35  1  0
  9 36  1  0
 10 37  1  0
 11 38  1  0
 12 39  1  0
 14 40  1  0
 14 41  1  0
 16 42  1  0
 18 43  1  0
 20 44  1  0
 20 45  1  0
 20 46  1  0
 21 47  1  0
 22 48  1  0
 24 49  1  0
M  END
>  <Ligand ID>  (1) 
LIG0004325

>  <Ligand>  (1) 
MLS000778656

>  <SMILES>  (1) 
CCCCN(C(=O)c1ccccn1)Cc1cc2cc(C)ccc2[nH]c1=O

>  <CID>  (1) 
1636023.0

>  <ChEMBL ID>  (1) 
nan

>  <InChiKey>  (1) 
LYKJFXYAMIGMRT-UHFFFAOYSA-N

>  <InChi>  (1) 
InChI=1S/C21H23N3O2/c1-3-4-11-24(21(26)19-7-5-6-10-22-19)14-17-13-16-12-15(2)8-9-18(16)23-20(17)25/h5-10,12-13H,3-4,11,14H2,1-2H3,(H,23,25)

>  <IUPAC Name>  (1) 
N-butyl-N-[(6-methyl-2-oxo-1H-quinolin-3-yl)methyl]pyridine-2-carboxamide

$$$$
