
     RDKit          3D

 16 15  0  0  0  0  0  0  0  0999 V2000
   -1.5890    1.0332    0.3646 C   0  0  0  0  0  0  0  0  0  0  0  0
   -0.3646    0.4499   -0.2687 C   0  0  0  0  0  0  0  0  0  0  0  0
   -0.7001   -0.7225   -1.1468 C   0  0  0  0  0  0  0  0  0  0  0  0
   -1.8635   -1.0768   -1.2620 O   0  0  0  0  0  0  0  0  0  0  0  0
    0.6356   -0.0548    0.7580 C   0  0  0  0  0  0  0  0  0  0  0  0
    1.8394   -0.6265    0.0444 C   0  0  0  0  0  0  0  0  0  0  0  0
   -1.5627    1.0226    1.4878 H   0  0  0  0  0  0  0  0  0  0  0  0
   -2.4658    0.3927    0.0549 H   0  0  0  0  0  0  0  0  0  0  0  0
   -1.8430    2.0404    0.0004 H   0  0  0  0  0  0  0  0  0  0  0  0
    0.1335    1.2441   -0.8756 H   0  0  0  0  0  0  0  0  0  0  0  0
    0.1318   -1.2078   -1.6475 H   0  0  0  0  0  0  0  0  0  0  0  0
    0.1894   -0.8816    1.3480 H   0  0  0  0  0  0  0  0  0  0  0  0
    0.9533    0.7433    1.4581 H   0  0  0  0  0  0  0  0  0  0  0  0
    2.6795   -0.7279    0.7821 H   0  0  0  0  0  0  0  0  0  0  0  0
    1.6334   -1.6492   -0.3113 H   0  0  0  0  0  0  0  0  0  0  0  0
    2.1928    0.0210   -0.7865 H   0  0  0  0  0  0  0  0  0  0  0  0
  1  2  1  0
  2  3  1  0
  3  4  2  0
  2  5  1  0
  5  6  1  0
  1  7  1  0
  1  8  1  0
  1  9  1  0
  2 10  1  0
  3 11  1  0
  5 12  1  0
  5 13  1  0
  6 14  1  0
  6 15  1  0
  6 16  1  0
M  END
>  <Ligand ID>  (1) 
LIG0000455

>  <Ligand>  (1) 
2-Methylbutyraldehyde

>  <SMILES>  (1) 
CC(C=O)CC

>  <CID>  (1) 
7284.0

>  <ChEMBL ID>  (1) 
nan

>  <InChiKey>  (1) 
BYGQBDHUGHBGMD-UHFFFAOYSA-N

>  <InChi>  (1) 
InChI=1S/C5H10O/c1-3-5(2)4-6/h4-5H,3H2,1-2H3

>  <IUPAC Name>  (1) 
2-methylbutanal

$$$$
