
     RDKit          3D

 72 75  0  0  0  0  0  0  0  0999 V2000
    5.8152   -0.6674    2.2011 C   0  0  0  0  0  0  0  0  0  0  0  0
    5.1805    0.6394    1.9352 C   0  0  0  0  0  0  0  0  0  0  0  0
    4.5743    0.8243    0.6004 C   0  0  0  0  0  0  0  0  0  0  0  0
    3.1853    0.6273    0.5348 C   0  0  0  0  0  0  0  0  0  0  0  0
    2.4637    0.8073   -0.6168 C   0  0  0  0  0  0  0  0  0  0  0  0
    3.1383    1.1947   -1.7425 C   0  0  0  0  0  0  0  0  0  0  0  0
    4.4944    1.3877   -1.6852 C   0  0  0  0  0  0  0  0  0  0  0  0
    5.2476    1.2098   -0.5241 C   0  0  0  0  0  0  0  0  0  0  0  0
    6.7002    1.4087   -0.6498 C   0  0  0  0  0  0  0  0  0  0  0  0
    7.4865    0.3797   -1.1254 N   0  0  0  0  0  0  0  0  0  0  0  0
    8.9288    0.7549   -1.1530 C   0  0  0  0  0  0  0  0  0  0  0  0
    9.0206   -0.1132    0.1230 C   0  0  0  0  0  0  0  0  0  0  0  0
    7.8709   -0.8390   -0.6027 C   0  0  0  0  0  0  0  0  0  0  0  0
   10.2530   -0.9086    0.2016 C   0  0  0  0  0  0  0  0  0  0  0  0
   10.2663   -2.1754    0.2664 O   0  0  0  0  0  0  0  0  0  0  0  0
   11.4673   -0.2178    0.2041 O   0  0  0  0  0  0  0  0  0  0  0  0
    1.0208    0.6025   -0.6582 C   0  0  0  0  0  0  0  0  0  0  0  0
    0.3325    0.2263    0.3750 N   0  0  0  0  0  0  0  0  0  0  0  0
   -0.9994    0.0231    0.3951 O   0  0  0  0  0  0  0  0  0  0  0  0
   -1.6648   -1.0074   -0.2833 C   0  0  0  0  0  0  0  0  0  0  0  0
   -3.1379   -0.8607   -0.0101 C   0  0  0  0  0  0  0  0  0  0  0  0
   -3.8074    0.0019   -0.8828 C   0  0  0  0  0  0  0  0  0  0  0  0
   -5.1615    0.1666   -0.6735 C   0  0  0  0  0  0  0  0  0  0  0  0
   -5.8389   -0.4926    0.3574 C   0  0  0  0  0  0  0  0  0  0  0  0
   -5.1538   -1.3374    1.2028 C   0  0  0  0  0  0  0  0  0  0  0  0
   -3.7762   -1.5197    1.0085 C   0  0  0  0  0  0  0  0  0  0  0  0
   -5.8530   -2.0369    2.3069 C   0  0  0  0  0  0  0  0  0  0  0  0
   -6.4210   -1.1556    3.1993 F   0  0  0  0  0  0  0  0  0  0  0  0
   -6.7362   -3.0006    1.8834 F   0  0  0  0  0  0  0  0  0  0  0  0
   -4.8780   -2.7196    3.0514 F   0  0  0  0  0  0  0  0  0  0  0  0
   -7.2911   -0.2255    0.4479 C   0  0  0  0  0  0  0  0  0  0  0  0
   -7.9757   -1.0889   -0.6180 C   0  0  0  0  0  0  0  0  0  0  0  0
   -9.2274   -0.3724   -1.0639 C   0  0  0  0  0  0  0  0  0  0  0  0
   -9.9050    0.3504    0.0803 C   0  0  0  0  0  0  0  0  0  0  0  0
   -9.0583    1.4803    0.5788 C   0  0  0  0  0  0  0  0  0  0  0  0
   -7.6191    1.2210    0.1786 C   0  0  0  0  0  0  0  0  0  0  0  0
    0.2519    0.8285   -1.9097 C   0  0  0  0  0  0  0  0  0  0  0  0
    6.9061   -0.5500    2.1293 H   0  0  0  0  0  0  0  0  0  0  0  0
    5.6019   -1.0469    3.2373 H   0  0  0  0  0  0  0  0  0  0  0  0
    5.4275   -1.4255    1.4901 H   0  0  0  0  0  0  0  0  0  0  0  0
    5.8833    1.4962    2.1533 H   0  0  0  0  0  0  0  0  0  0  0  0
    4.3832    0.7918    2.7205 H   0  0  0  0  0  0  0  0  0  0  0  0
    2.6313    0.3168    1.4307 H   0  0  0  0  0  0  0  0  0  0  0  0
    2.6584    1.3625   -2.7079 H   0  0  0  0  0  0  0  0  0  0  0  0
    5.0104    1.6974   -2.6071 H   0  0  0  0  0  0  0  0  0  0  0  0
    6.8095    2.2857   -1.3818 H   0  0  0  0  0  0  0  0  0  0  0  0
    7.1001    1.8807    0.3113 H   0  0  0  0  0  0  0  0  0  0  0  0
    9.4270    0.2173   -1.9614 H   0  0  0  0  0  0  0  0  0  0  0  0
    9.1159    1.8156   -1.0064 H   0  0  0  0  0  0  0  0  0  0  0  0
    8.7203    0.4661    0.9954 H   0  0  0  0  0  0  0  0  0  0  0  0
    8.3714   -1.4582   -1.4344 H   0  0  0  0  0  0  0  0  0  0  0  0
    7.2499   -1.4876   -0.0047 H   0  0  0  0  0  0  0  0  0  0  0  0
   12.3613   -0.6784    0.2883 H   0  0  0  0  0  0  0  0  0  0  0  0
   -1.4845   -1.0815   -1.3489 H   0  0  0  0  0  0  0  0  0  0  0  0
   -1.3121   -1.9811    0.1711 H   0  0  0  0  0  0  0  0  0  0  0  0
   -3.2820    0.5167   -1.6876 H   0  0  0  0  0  0  0  0  0  0  0  0
   -5.6672    0.8374   -1.3554 H   0  0  0  0  0  0  0  0  0  0  0  0
   -3.1996   -2.1722    1.6481 H   0  0  0  0  0  0  0  0  0  0  0  0
   -7.6842   -0.5578    1.4301 H   0  0  0  0  0  0  0  0  0  0  0  0
   -7.3100   -1.2730   -1.4871 H   0  0  0  0  0  0  0  0  0  0  0  0
   -8.1986   -2.0738   -0.1619 H   0  0  0  0  0  0  0  0  0  0  0  0
   -8.9718    0.3220   -1.8665 H   0  0  0  0  0  0  0  0  0  0  0  0
   -9.9367   -1.1750   -1.4117 H   0  0  0  0  0  0  0  0  0  0  0  0
  -10.8336    0.8053   -0.3306 H   0  0  0  0  0  0  0  0  0  0  0  0
  -10.1784   -0.3614    0.8856 H   0  0  0  0  0  0  0  0  0  0  0  0
   -9.3924    2.4763    0.2397 H   0  0  0  0  0  0  0  0  0  0  0  0
   -9.1359    1.4780    1.6949 H   0  0  0  0  0  0  0  0  0  0  0  0
   -7.5494    1.4174   -0.9092 H   0  0  0  0  0  0  0  0  0  0  0  0
   -6.9095    1.9094    0.6898 H   0  0  0  0  0  0  0  0  0  0  0  0
    0.3083   -0.0617   -2.5664 H   0  0  0  0  0  0  0  0  0  0  0  0
   -0.7876    1.1658   -1.6882 H   0  0  0  0  0  0  0  0  0  0  0  0
    0.6746    1.6673   -2.5312 H   0  0  0  0  0  0  0  0  0  0  0  0
  1  2  1  0
  2  3  1  0
  3  4  2  0
  4  5  1  0
  5  6  2  0
  6  7  1  0
  7  8  2  0
  8  9  1  0
  9 10  1  0
 10 11  1  0
 11 12  1  0
 12 13  1  0
 12 14  1  0
 14 15  2  0
 14 16  1  0
  5 17  1  0
 17 18  2  0
 18 19  1  0
 19 20  1  0
 20 21  1  0
 21 22  2  0
 22 23  1  0
 23 24  2  0
 24 25  1  0
 25 26  2  0
 25 27  1  0
 27 28  1  0
 27 29  1  0
 27 30  1  0
 24 31  1  0
 31 32  1  0
 32 33  1  0
 33 34  1  0
 34 35  1  0
 35 36  1  0
 17 37  1  0
  8  3  1  0
 13 10  1  0
 26 21  1  0
 36 31  1  0
  1 38  1  0
  1 39  1  0
  1 40  1  0
  2 41  1  0
  2 42  1  0
  4 43  1  0
  6 44  1  0
  7 45  1  0
  9 46  1  0
  9 47  1  0
 11 48  1  0
 11 49  1  0
 12 50  1  0
 13 51  1  0
 13 52  1  0
 16 53  1  0
 20 54  1  0
 20 55  1  0
 22 56  1  0
 23 57  1  0
 26 58  1  0
 31 59  1  0
 32 60  1  0
 32 61  1  0
 33 62  1  0
 33 63  1  0
 34 64  1  0
 34 65  1  0
 35 66  1  0
 35 67  1  0
 36 68  1  0
 36 69  1  0
 37 70  1  0
 37 71  1  0
 37 72  1  0
M  END
>  <Ligand ID>  (1) 
LIG0004093

>  <Ligand>  (1) 
siponimod

>  <SMILES>  (1) 
CCc1cc(ccc1CN1CC(C1)C(=O)O)/C(=N/OCc1ccc(c(c1)C(F)(F)F)C1CCCCC1)/C

>  <CID>  (1) 
44599207.0

>  <ChEMBL ID>  (1) 
nan

>  <InChiKey>  (1) 
KIHYPELVXPAIDH-HNSNBQBZSA-N

>  <InChi>  (1) 
InChI=1S/C29H35F3N2O3/c1-3-21-14-23(10-11-24(21)15-34-16-25(17-34)28(35)36)19(2)33-37-18-20-9-12-26(22-7-5-4-6-8-22)27(13-20)29(30,31)32/h9-14,22,25H,3-8,15-18H2,1-2H3,(H,35,36)/b33-19+

>  <IUPAC Name>  (1) 
1-[[4-[(E)-N-[[4-cyclohexyl-3-(trifluoromethyl)phenyl]methoxy]-C-methylcarbonimidoyl]-2-ethylphenyl]methyl]azetidine-3-carboxylic acid

$$$$
