
     RDKit          3D

 57 59  0  0  0  0  0  0  0  0999 V2000
   -4.6365   -2.1795    1.8547 O   0  0  0  0  0  0  0  0  0  0  0  0
   -4.6022   -1.0225    1.0569 C   0  0  2  0  0  0  0  0  0  0  0  0
   -4.8248   -1.4907   -0.3560 C   0  0  0  0  0  0  0  0  0  0  0  0
   -4.8707   -0.5138   -1.3281 O   0  0  0  0  0  0  0  0  0  0  0  0
   -5.7429    0.5011   -1.5222 C   0  0  0  0  0  0  0  0  0  0  0  0
   -6.8592    0.8130   -0.7947 C   0  0  0  0  0  0  0  0  0  0  0  0
   -7.7006    1.8638   -1.0466 C   0  0  0  0  0  0  0  0  0  0  0  0
   -7.4384    2.7077   -2.1170 C   0  0  0  0  0  0  0  0  0  0  0  0
   -6.3155    2.4180   -2.8730 C   0  0  0  0  0  0  0  0  0  0  0  0
   -5.4798    1.3606   -2.6096 C   0  0  0  0  0  0  0  0  0  0  0  0
   -3.2655   -0.3173    1.1875 C   0  0  0  0  0  0  0  0  0  0  0  0
   -2.1317   -1.0768    0.8025 N   0  0  0  0  0  0  0  0  0  0  0  0
   -1.7587   -2.1705    1.6243 C   0  0  0  0  0  0  0  0  0  0  0  0
   -0.5097   -2.8544    1.0415 C   0  0  0  0  0  0  0  0  0  0  0  0
    0.6338   -1.9229    0.9452 C   0  0  0  0  0  0  0  0  0  0  0  0
    1.4445   -1.7728    2.0424 C   0  0  0  0  0  0  0  0  0  0  0  0
    2.5384   -0.9372    2.0395 C   0  0  0  0  0  0  0  0  0  0  0  0
    2.8735   -0.2036    0.9177 C   0  0  0  0  0  0  0  0  0  0  0  0
    2.0669   -0.3495   -0.1819 C   0  0  0  0  0  0  0  0  0  0  0  0
    0.9517   -1.1994   -0.1819 C   0  0  0  0  0  0  0  0  0  0  0  0
    4.0000    0.6372    1.0018 N   0  0  0  0  0  0  0  0  0  0  0  0
    4.5763    1.3771   -0.0483 C   0  0  0  0  0  0  0  0  0  0  0  0
    4.1352    1.3625   -1.2161 O   0  0  0  0  0  0  0  0  0  0  0  0
    5.7876    2.2374    0.2159 C   0  0  0  0  0  0  0  0  0  0  0  0
    6.9562    1.6583   -0.5071 C   0  0  0  0  0  0  0  0  0  0  0  0
    7.2903    1.9622   -1.7987 C   0  0  0  0  0  0  0  0  0  0  0  0
    8.4094    1.3699   -2.3932 C   0  0  0  0  0  0  0  0  0  0  0  0
    9.1989    0.4622   -1.6757 C   0  0  0  0  0  0  0  0  0  0  0  0
    8.8043    0.2001   -0.3739 C   0  0  0  0  0  0  0  0  0  0  0  0
    7.7269    0.7710    0.1961 N   0  0  0  0  0  0  0  0  0  0  0  0
   -5.5754   -2.5130    1.8256 H   0  0  0  0  0  0  0  0  0  0  0  0
   -5.4061   -0.3791    1.4261 H   0  0  0  0  0  0  0  0  0  0  0  0
   -4.0300   -2.2525   -0.6056 H   0  0  0  0  0  0  0  0  0  0  0  0
   -5.7799   -2.0955   -0.4042 H   0  0  0  0  0  0  0  0  0  0  0  0
   -7.1108    0.1753    0.0342 H   0  0  0  0  0  0  0  0  0  0  0  0
   -8.5669    2.0427   -0.4185 H   0  0  0  0  0  0  0  0  0  0  0  0
   -8.0987    3.5282   -2.3101 H   0  0  0  0  0  0  0  0  0  0  0  0
   -6.1366    3.1038   -3.7125 H   0  0  0  0  0  0  0  0  0  0  0  0
   -4.6020    1.1758   -3.2398 H   0  0  0  0  0  0  0  0  0  0  0  0
   -3.3338    0.5582    0.4800 H   0  0  0  0  0  0  0  0  0  0  0  0
   -3.1319    0.1421    2.1955 H   0  0  0  0  0  0  0  0  0  0  0  0
   -2.1459   -1.2814   -0.2240 H   0  0  0  0  0  0  0  0  0  0  0  0
   -1.4059   -1.7519    2.6156 H   0  0  0  0  0  0  0  0  0  0  0  0
   -2.5193   -2.9040    1.8774 H   0  0  0  0  0  0  0  0  0  0  0  0
   -0.7715   -3.2890    0.0696 H   0  0  0  0  0  0  0  0  0  0  0  0
   -0.2733   -3.6624    1.7599 H   0  0  0  0  0  0  0  0  0  0  0  0
    1.2222   -2.3265    2.9437 H   0  0  0  0  0  0  0  0  0  0  0  0
    3.1267   -0.8842    2.9629 H   0  0  0  0  0  0  0  0  0  0  0  0
    2.2494    0.1765   -1.0805 H   0  0  0  0  0  0  0  0  0  0  0  0
    0.3235   -1.3035   -1.0599 H   0  0  0  0  0  0  0  0  0  0  0  0
    4.4806    0.7368    1.9463 H   0  0  0  0  0  0  0  0  0  0  0  0
    5.5082    3.2322   -0.2413 H   0  0  0  0  0  0  0  0  0  0  0  0
    5.9226    2.3157    1.2902 H   0  0  0  0  0  0  0  0  0  0  0  0
    6.6598    2.6674   -2.3248 H   0  0  0  0  0  0  0  0  0  0  0  0
    8.6730    1.6126   -3.4206 H   0  0  0  0  0  0  0  0  0  0  0  0
   10.0666   -0.0109   -2.1001 H   0  0  0  0  0  0  0  0  0  0  0  0
    9.3978   -0.5043    0.2184 H   0  0  0  0  0  0  0  0  0  0  0  0
  1  2  1  0
  2  3  1  0
  3  4  1  0
  4  5  1  0
  5  6  2  0
  6  7  1  0
  7  8  2  0
  8  9  1  0
  9 10  2  0
  2 11  1  0
 11 12  1  0
 12 13  1  0
 13 14  1  0
 14 15  1  0
 15 16  2  0
 16 17  1  0
 17 18  2  0
 18 19  1  0
 19 20  2  0
 18 21  1  0
 21 22  1  0
 22 23  2  0
 22 24  1  0
 24 25  1  0
 25 26  2  0
 26 27  1  0
 27 28  2  0
 28 29  1  0
 29 30  2  0
 10  5  1  0
 20 15  1  0
 30 25  1  0
  1 31  1  0
  2 32  1  1
  3 33  1  0
  3 34  1  0
  6 35  1  0
  7 36  1  0
  8 37  1  0
  9 38  1  0
 10 39  1  0
 11 40  1  0
 11 41  1  0
 12 42  1  0
 13 43  1  0
 13 44  1  0
 14 45  1  0
 14 46  1  0
 16 47  1  0
 17 48  1  0
 19 49  1  0
 20 50  1  0
 21 51  1  0
 24 52  1  0
 24 53  1  0
 26 54  1  0
 27 55  1  0
 28 56  1  0
 29 57  1  0
M  END
>  <Ligand ID>  (1) 
LIG0002723

>  <Ligand>  (1) 
CHEMBL466515

>  <SMILES>  (1) 
O[C@H](COc1ccccc1)CNCCc1ccc(cc1)NC(=O)Cc1ccccn1

>  <CID>  (1) 
44574686.0

>  <ChEMBL ID>  (1) 
nan

>  <InChiKey>  (1) 
XNHTXTLINNESCS-QFIPXVFZSA-N

>  <InChi>  (1) 
InChI=1S/C24H27N3O3/c28-22(18-30-23-7-2-1-3-8-23)17-25-15-13-19-9-11-20(12-10-19)27-24(29)16-21-6-4-5-14-26-21/h1-12,14,22,25,28H,13,15-18H2,(H,27,29)/t22-/m0/s1

>  <IUPAC Name>  (1) 
N-[4-[2-[[(2S)-2-hydroxy-3-phenoxypropyl]amino]ethyl]phenyl]-2-pyridin-2-ylacetamide

$$$$
