
     RDKit          3D

 69 75  0  0  0  0  0  0  0  0999 V2000
    2.0965    1.4385    1.3349 C   0  0  0  0  0  0  0  0  0  0  0  0
    1.3522    1.5294    0.1942 O   0  0  0  0  0  0  0  0  0  0  0  0
    0.3823    0.5823    0.0068 C   0  0  1  0  0  0  0  0  0  0  0  0
   -0.4613    1.1113   -1.1837 C   0  0  0  0  0  0  0  0  0  0  0  0
   -1.5387    0.1292   -1.5522 C   0  0  0  0  0  0  0  0  0  0  0  0
   -1.5304   -0.9911   -0.5523 C   0  0  1  0  0  0  0  0  0  0  0  0
   -0.2423   -1.7269   -0.6857 C   0  0  0  0  0  0  0  0  0  0  0  0
    0.9099   -0.7826   -0.3950 C   0  0  1  0  0  0  0  0  0  0  0  0
    1.7497   -0.7362   -1.6221 C   0  0  0  0  0  0  0  0  0  0  0  0
    2.9115   -0.0402   -1.5928 O   0  0  0  0  0  0  0  0  0  0  0  0
    3.9090   -0.7097   -0.8465 C   0  0  0  0  0  0  0  0  0  0  0  0
    5.1251    0.1222   -0.8855 C   0  0  0  0  0  0  0  0  0  0  0  0
    5.9957   -0.0512   -1.9621 C   0  0  0  0  0  0  0  0  0  0  0  0
    7.1638    0.6790   -2.0755 C   0  0  0  0  0  0  0  0  0  0  0  0
    7.5273    1.6157   -1.1298 C   0  0  0  0  0  0  0  0  0  0  0  0
    6.6681    1.7897   -0.0630 C   0  0  0  0  0  0  0  0  0  0  0  0
    5.4926    1.0522    0.0477 C   0  0  0  0  0  0  0  0  0  0  0  0
   -1.6533   -0.4143    0.8606 C   0  0  1  0  0  0  0  0  0  0  0  0
   -0.5005    0.4557    1.2035 C   0  0  2  0  0  0  0  0  0  0  0  0
   -1.0624    1.7505    1.5049 O   0  0  0  0  0  0  0  0  0  0  0  0
   -2.3864    1.8173    1.0977 C   0  0  0  0  0  0  0  0  0  0  0  0
   -2.7330    0.5759    0.6996 C   0  0  0  0  0  0  0  0  0  0  0  0
   -3.9310    0.1387    0.2057 C   0  0  0  0  0  0  0  0  0  0  0  0
   -4.0291   -1.2680   -0.2048 C   0  0  0  0  0  0  0  0  0  0  0  0
   -2.7169   -1.8876   -0.6637 C   0  0  2  0  0  0  0  0  0  0  0  0
   -2.3887   -3.0615    0.1017 N   0  0  0  0  0  0  0  0  0  0  0  0
   -2.2247   -2.8114    1.5020 C   0  0  0  0  0  0  0  0  0  0  0  0
   -2.0257   -1.4028    1.8962 C   0  0  0  0  0  0  0  0  0  0  0  0
   -3.2629   -4.1789   -0.1593 C   0  0  0  0  0  0  0  0  0  0  0  0
   -4.9192    1.0948    0.1055 C   0  0  0  0  0  0  0  0  0  0  0  0
   -4.6413    2.4099    0.5015 C   0  0  0  0  0  0  0  0  0  0  0  0
   -3.3847    2.7824    0.9967 C   0  0  0  0  0  0  0  0  0  0  0  0
   -3.0812    4.1364    1.4090 C   0  0  0  0  0  0  0  0  0  0  0  0
   -3.9965    4.9922    1.3097 O   0  0  0  0  0  0  0  0  0  0  0  0
   -1.7990    4.4805    1.9056 N   0  0  0  0  0  0  0  0  0  0  0  0
    1.4448    1.5549    2.2588 H   0  0  0  0  0  0  0  0  0  0  0  0
    2.6671    0.5270    1.5004 H   0  0  0  0  0  0  0  0  0  0  0  0
    2.7719    2.3372    1.4009 H   0  0  0  0  0  0  0  0  0  0  0  0
    0.2635    1.3162   -1.9957 H   0  0  0  0  0  0  0  0  0  0  0  0
   -0.8864    2.0853   -0.7969 H   0  0  0  0  0  0  0  0  0  0  0  0
   -2.5208    0.6090   -1.7122 H   0  0  0  0  0  0  0  0  0  0  0  0
   -1.2872   -0.3218   -2.5571 H   0  0  0  0  0  0  0  0  0  0  0  0
   -0.1472   -2.0881   -1.7293 H   0  0  0  0  0  0  0  0  0  0  0  0
   -0.1867   -2.6397   -0.0525 H   0  0  0  0  0  0  0  0  0  0  0  0
    1.4492   -1.1906    0.4911 H   0  0  0  0  0  0  0  0  0  0  0  0
    2.0268   -1.8078   -1.8924 H   0  0  0  0  0  0  0  0  0  0  0  0
    1.0811   -0.4404   -2.4831 H   0  0  0  0  0  0  0  0  0  0  0  0
    3.5685   -0.9825    0.1538 H   0  0  0  0  0  0  0  0  0  0  0  0
    4.1339   -1.6850   -1.3970 H   0  0  0  0  0  0  0  0  0  0  0  0
    5.7969   -0.7620   -2.7538 H   0  0  0  0  0  0  0  0  0  0  0  0
    7.8174    0.5246   -2.9174 H   0  0  0  0  0  0  0  0  0  0  0  0
    8.4218    2.2021   -1.1791 H   0  0  0  0  0  0  0  0  0  0  0  0
    6.9382    2.5258    0.6952 H   0  0  0  0  0  0  0  0  0  0  0  0
    4.8861    1.2343    0.8952 H   0  0  0  0  0  0  0  0  0  0  0  0
    0.0548    0.1126    2.1072 H   0  0  0  0  0  0  0  0  0  0  0  0
   -4.8163   -1.3578   -0.9858 H   0  0  0  0  0  0  0  0  0  0  0  0
   -4.3903   -1.8785    0.6437 H   0  0  0  0  0  0  0  0  0  0  0  0
   -2.8482   -2.1861   -1.7175 H   0  0  0  0  0  0  0  0  0  0  0  0
   -1.3803   -3.4350    1.8587 H   0  0  0  0  0  0  0  0  0  0  0  0
   -3.1315   -3.2578    1.9879 H   0  0  0  0  0  0  0  0  0  0  0  0
   -1.2252   -1.3436    2.6919 H   0  0  0  0  0  0  0  0  0  0  0  0
   -2.9434   -1.0586    2.4567 H   0  0  0  0  0  0  0  0  0  0  0  0
   -2.7409   -5.0898    0.2062 H   0  0  0  0  0  0  0  0  0  0  0  0
   -3.4554   -4.2866   -1.2270 H   0  0  0  0  0  0  0  0  0  0  0  0
   -4.1755   -4.0481    0.4502 H   0  0  0  0  0  0  0  0  0  0  0  0
   -5.8780    0.7925   -0.2774 H   0  0  0  0  0  0  0  0  0  0  0  0
   -5.4330    3.1692    0.4206 H   0  0  0  0  0  0  0  0  0  0  0  0
   -1.3880    5.3756    1.5651 H   0  0  0  0  0  0  0  0  0  0  0  0
   -1.2625    3.8897    2.5812 H   0  0  0  0  0  0  0  0  0  0  0  0
  1  2  1  0
  3  2  1  1
  3  4  1  0
  4  5  1  0
  6  5  1  6
  6  7  1  0
  7  8  1  0
  8  9  1  0
  9 10  1  0
 10 11  1  0
 11 12  1  0
 12 13  2  0
 13 14  1  0
 14 15  2  0
 15 16  1  0
 16 17  2  0
  6 18  1  0
 18 19  1  0
 19 20  1  0
 20 21  1  0
 21 22  2  0
 22 23  1  0
 23 24  1  0
 24 25  1  0
 25 26  1  0
 26 27  1  0
 27 28  1  0
 26 29  1  0
 23 30  2  0
 30 31  1  0
 31 32  2  0
 32 33  1  0
 33 34  2  0
 33 35  1  0
  8  3  1  0
 17 12  1  0
 18 28  1  1
 19  3  1  0
 32 21  1  0
 25  6  1  0
 22 18  1  0
  1 36  1  0
  1 37  1  0
  1 38  1  0
  4 39  1  0
  4 40  1  0
  5 41  1  0
  5 42  1  0
  7 43  1  0
  7 44  1  0
  8 45  1  1
  9 46  1  0
  9 47  1  0
 11 48  1  0
 11 49  1  0
 13 50  1  0
 14 51  1  0
 15 52  1  0
 16 53  1  0
 17 54  1  0
 19 55  1  1
 24 56  1  0
 24 57  1  0
 25 58  1  6
 27 59  1  0
 27 60  1  0
 28 61  1  0
 28 62  1  0
 29 63  1  0
 29 64  1  0
 29 65  1  0
 30 66  1  0
 31 67  1  0
 35 68  1  0
 35 69  1  0
M  END
>  <Ligand ID>  (1) 
LIG0004620

>  <Ligand>  (1) 
CHEMBL3948050

>  <SMILES>  (1) 
CO[C@@]12CC[C@@]3(C[C@H]1COCc1ccccc1)[C@]14[C@@H]2Oc2c4c(C[C@@H]3N(CC1)C)ccc2C(=O)N

>  <CID>  (1) 
134147462.0

>  <ChEMBL ID>  (1) 
nan

>  <InChiKey>  (1) 
YWZUTHYBZDSTKA-CDLJOZAKSA-N

>  <InChi>  (1) 
InChI=1S/C29H34N2O4/c1-31-13-12-28-23-19-8-9-21(25(30)32)24(23)35-26(28)29(33-2)11-10-27(28,22(31)14-19)15-20(29)17-34-16-18-6-4-3-5-7-18/h3-9,20,22,26H,10-17H2,1-2H3,(H2,30,32)/t20-,22-,26-,27-,28+,29-/m0/s1

>  <IUPAC Name>  (1) 
(1R,2R,6S,14S,15S,16S)-15-methoxy-5-methyl-16-(phenylmethoxymethyl)-13-oxa-5-azahexacyclo[13.2.2.12,8.01,6.02,14.012,20]icosa-8(20),9,11-triene-11-carboxamide

$$$$
