
     RDKit          3D

 56 59  0  0  0  0  0  0  0  0999 V2000
    6.5498    0.6110   -3.5497 N   0  0  0  0  0  0  0  0  0  0  0  0
    7.2411    0.3559   -2.6556 C   0  0  0  0  0  0  0  0  0  0  0  0
    8.0955    0.0594   -1.5374 C   0  0  0  0  0  0  0  0  0  0  0  0
    9.4093    0.4827   -1.4730 C   0  0  0  0  0  0  0  0  0  0  0  0
   10.2113    0.2038   -0.4248 N   0  0  0  0  0  0  0  0  0  0  0  0
    9.7166   -0.5225    0.6158 C   0  0  0  0  0  0  0  0  0  0  0  0
    8.4092   -0.9763    0.6134 C   0  0  0  0  0  0  0  0  0  0  0  0
    7.6153   -0.6747   -0.4724 C   0  0  0  0  0  0  0  0  0  0  0  0
    6.2021   -1.1855   -0.4336 C   0  0  0  0  0  0  0  0  0  0  0  0
    5.3999   -0.0884   -0.1225 O   0  0  0  0  0  0  0  0  0  0  0  0
    4.0360   -0.0691    0.0206 C   0  0  0  0  0  0  0  0  0  0  0  0
    3.2144   -1.1670   -0.1264 C   0  0  0  0  0  0  0  0  0  0  0  0
    1.8643   -1.0465    0.0367 N   0  0  0  0  0  0  0  0  0  0  0  0
    1.3024    0.1504    0.3456 C   0  0  0  0  0  0  0  0  0  0  0  0
    2.1001    1.2293    0.4910 N   0  0  0  0  0  0  0  0  0  0  0  0
    3.4450    1.1446    0.3359 C   0  0  0  0  0  0  0  0  0  0  0  0
   -0.1039    0.3064    0.5219 N   0  0  0  0  0  0  0  0  0  0  0  0
   -0.6706    1.5982    0.8620 C   0  0  0  0  0  0  0  0  0  0  0  0
   -1.9687    1.6997    0.0514 C   0  0  0  0  0  0  0  0  0  0  0  0
   -2.8626    0.6270    0.4326 N   0  0  0  0  0  0  0  0  0  0  0  0
   -2.2828   -0.5327    1.0808 C   0  0  0  0  0  0  0  0  0  0  0  0
   -0.9897   -0.8365    0.3609 C   0  0  1  0  0  0  0  0  0  0  0  0
   -1.2954   -1.0871   -1.0854 C   0  0  0  0  0  0  0  0  0  0  0  0
   -4.2609    0.6898    0.1852 C   0  0  0  0  0  0  0  0  0  0  0  0
   -4.9425    1.6512   -0.4560 N   0  0  0  0  0  0  0  0  0  0  0  0
   -6.2106    1.3431   -0.4728 O   0  0  0  0  0  0  0  0  0  0  0  0
   -6.3823    0.1923    0.1475 C   0  0  0  0  0  0  0  0  0  0  0  0
   -5.1725   -0.2220    0.5609 N   0  0  0  0  0  0  0  0  0  0  0  0
   -7.6788   -0.5198    0.3534 C   0  0  0  0  0  0  0  0  0  0  0  0
   -7.3782   -1.8736    0.5563 O   0  0  0  0  0  0  0  0  0  0  0  0
   -8.3028   -0.0179    1.6578 C   0  0  0  0  0  0  0  0  0  0  0  0
   -8.5476   -0.2767   -0.8364 C   0  0  0  0  0  0  0  0  0  0  0  0
    9.8050    1.0619   -2.3017 H   0  0  0  0  0  0  0  0  0  0  0  0
   10.3922   -0.7195    1.4286 H   0  0  0  0  0  0  0  0  0  0  0  0
    8.0368   -1.5570    1.4607 H   0  0  0  0  0  0  0  0  0  0  0  0
    6.1006   -2.0608    0.2070 H   0  0  0  0  0  0  0  0  0  0  0  0
    5.9725   -1.4717   -1.5005 H   0  0  0  0  0  0  0  0  0  0  0  0
    3.6522   -2.1143   -0.3699 H   0  0  0  0  0  0  0  0  0  0  0  0
    4.0210    2.0603    0.4699 H   0  0  0  0  0  0  0  0  0  0  0  0
   -0.9452    1.6233    1.9393 H   0  0  0  0  0  0  0  0  0  0  0  0
   -0.0035    2.4046    0.5419 H   0  0  0  0  0  0  0  0  0  0  0  0
   -2.3987    2.7024    0.3093 H   0  0  0  0  0  0  0  0  0  0  0  0
   -1.7406    1.7488   -1.0177 H   0  0  0  0  0  0  0  0  0  0  0  0
   -2.0508   -0.3566    2.1424 H   0  0  0  0  0  0  0  0  0  0  0  0
   -2.9964   -1.3806    0.9163 H   0  0  0  0  0  0  0  0  0  0  0  0
   -0.4838   -1.7360    0.7586 H   0  0  0  0  0  0  0  0  0  0  0  0
   -2.3779   -1.0445   -1.2650 H   0  0  0  0  0  0  0  0  0  0  0  0
   -0.9705   -2.1149   -1.4086 H   0  0  0  0  0  0  0  0  0  0  0  0
   -0.8324   -0.3370   -1.7733 H   0  0  0  0  0  0  0  0  0  0  0  0
   -7.4868   -2.1389    1.4974 H   0  0  0  0  0  0  0  0  0  0  0  0
   -7.5047    0.0658    2.4158 H   0  0  0  0  0  0  0  0  0  0  0  0
   -9.0888   -0.7110    1.9590 H   0  0  0  0  0  0  0  0  0  0  0  0
   -8.6716    1.0212    1.4889 H   0  0  0  0  0  0  0  0  0  0  0  0
   -8.3176    0.7356   -1.2366 H   0  0  0  0  0  0  0  0  0  0  0  0
   -8.2346   -1.0128   -1.6272 H   0  0  0  0  0  0  0  0  0  0  0  0
   -9.6388   -0.3776   -0.6185 H   0  0  0  0  0  0  0  0  0  0  0  0
  1  2  3  0
  2  3  1  0
  3  4  2  0
  4  5  1  0
  5  6  2  0
  6  7  1  0
  7  8  2  0
  8  9  1  0
  9 10  1  0
 10 11  1  0
 11 12  2  0
 12 13  1  0
 13 14  2  0
 14 15  1  0
 15 16  2  0
 14 17  1  0
 17 18  1  0
 18 19  1  0
 19 20  1  0
 20 21  1  0
 21 22  1  0
 22 23  1  0
 20 24  1  0
 24 25  2  0
 25 26  1  0
 26 27  1  0
 27 28  2  0
 27 29  1  0
 29 30  1  0
 29 31  1  0
 29 32  1  0
  8  3  1  0
 16 11  1  0
 22 17  1  0
 28 24  1  0
  4 33  1  0
  6 34  1  0
  7 35  1  0
  9 36  1  0
  9 37  1  0
 12 38  1  0
 16 39  1  0
 18 40  1  0
 18 41  1  0
 19 42  1  0
 19 43  1  0
 21 44  1  0
 21 45  1  0
 22 46  1  1
 23 47  1  0
 23 48  1  0
 23 49  1  0
 30 50  1  0
 31 51  1  0
 31 52  1  0
 31 53  1  0
 32 54  1  0
 32 55  1  0
 32 56  1  0
M  END
>  <Ligand ID>  (1) 
LIG0005312

>  <Ligand>  (1) 
CHEMBL3220234

>  <SMILES>  (1) 
N#Cc1cnccc1COc1cnc(nc1)N1CCN(C[C@H]1C)c1noc(n1)C(O)(C)C

>  <CID>  (1) 
90666909.0

>  <ChEMBL ID>  (1) 
nan

>  <InChiKey>  (1) 
YSEGETUQPPSDLC-CQSZACIVSA-N

>  <InChi>  (1) 
InChI=1S/C21H24N8O3/c1-14-12-28(20-26-18(32-27-20)21(2,3)30)6-7-29(14)19-24-10-17(11-25-19)31-13-15-4-5-23-9-16(15)8-22/h4-5,9-11,14,30H,6-7,12-13H2,1-3H3/t14-/m1/s1

>  <IUPAC Name>  (1) 
4-[[2-[(2R)-4-[5-(2-hydroxypropan-2-yl)-1,2,4-oxadiazol-3-yl]-2-methylpiperazin-1-yl]pyrimidin-5-yl]oxymethyl]pyridine-3-carbonitrile

$$$$
