
     RDKit          3D

 41 44  0  0  0  0  0  0  0  0999 V2000
    5.6071   -1.4452    0.4037 C   0  0  0  0  0  0  0  0  0  0  0  0
    4.5481   -1.5117   -0.4489 C   0  0  0  0  0  0  0  0  0  0  0  0
    3.6765   -0.4538   -0.5349 C   0  0  0  0  0  0  0  0  0  0  0  0
    3.8909    0.6680    0.2510 C   0  0  0  0  0  0  0  0  0  0  0  0
    4.9757    0.7325    1.1224 C   0  0  0  0  0  0  0  0  0  0  0  0
    5.8471   -0.3311    1.2052 C   0  0  0  0  0  0  0  0  0  0  0  0
    2.9156    1.7762    0.1129 C   0  0  0  0  0  0  0  0  0  0  0  0
    1.5326    1.6115    1.2656 S   0  0  0  0  0  0  0  0  0  0  0  0
    0.5322    0.1747    0.8822 C   0  0  0  0  0  0  0  0  0  0  0  0
    0.7254   -1.0672    1.3728 N   0  0  0  0  0  0  0  0  0  0  0  0
   -0.1877   -1.8577    0.8800 N   0  0  0  0  0  0  0  0  0  0  0  0
   -0.9751   -1.1267    0.0678 C   0  0  0  0  0  0  0  0  0  0  0  0
   -0.5435    0.1477    0.0538 N   0  0  0  0  0  0  0  0  0  0  0  0
   -1.0276    1.3019   -0.6387 C   0  0  0  0  0  0  0  0  0  0  0  0
   -2.0406    2.0574    0.1342 C   0  0  0  0  0  0  0  0  0  0  0  0
   -3.4202    1.8438    0.0887 C   0  0  0  0  0  0  0  0  0  0  0  0
   -3.9620    2.7666    0.9605 C   0  0  0  0  0  0  0  0  0  0  0  0
   -2.9036    3.5045    1.5027 C   0  0  0  0  0  0  0  0  0  0  0  0
   -1.7755    3.0387    0.9738 O   0  0  0  0  0  0  0  0  0  0  0  0
   -2.1221   -1.6136   -0.6902 C   0  0  0  0  0  0  0  0  0  0  0  0
   -2.8136   -2.6809   -0.1573 C   0  0  0  0  0  0  0  0  0  0  0  0
   -3.9017   -3.1795   -0.8295 C   0  0  0  0  0  0  0  0  0  0  0  0
   -4.2900   -2.6019   -2.0362 C   0  0  0  0  0  0  0  0  0  0  0  0
   -3.5778   -1.5327   -2.5467 C   0  0  0  0  0  0  0  0  0  0  0  0
   -2.5033   -1.0526   -1.8670 N   0  0  0  0  0  0  0  0  0  0  0  0
    6.3040   -2.2747    0.4815 H   0  0  0  0  0  0  0  0  0  0  0  0
    4.3422   -2.3658   -1.0802 H   0  0  0  0  0  0  0  0  0  0  0  0
    2.8306   -0.4921   -1.2079 H   0  0  0  0  0  0  0  0  0  0  0  0
    5.1310    1.6074    1.7262 H   0  0  0  0  0  0  0  0  0  0  0  0
    6.7085   -0.3032    1.8842 H   0  0  0  0  0  0  0  0  0  0  0  0
    2.5706    1.8080   -0.9439 H   0  0  0  0  0  0  0  0  0  0  0  0
    3.4577    2.7047    0.4103 H   0  0  0  0  0  0  0  0  0  0  0  0
   -0.1757    2.0055   -0.8394 H   0  0  0  0  0  0  0  0  0  0  0  0
   -1.4362    1.0676   -1.6443 H   0  0  0  0  0  0  0  0  0  0  0  0
   -3.9485    1.0921   -0.5208 H   0  0  0  0  0  0  0  0  0  0  0  0
   -5.0223    2.8748    1.1663 H   0  0  0  0  0  0  0  0  0  0  0  0
   -2.9918    4.3188    2.2315 H   0  0  0  0  0  0  0  0  0  0  0  0
   -2.4951   -3.1244    0.7937 H   0  0  0  0  0  0  0  0  0  0  0  0
   -4.4894   -4.0258   -0.4544 H   0  0  0  0  0  0  0  0  0  0  0  0
   -5.1440   -3.0038   -2.5505 H   0  0  0  0  0  0  0  0  0  0  0  0
   -3.8481   -1.0581   -3.4795 H   0  0  0  0  0  0  0  0  0  0  0  0
  1  2  2  0
  2  3  1  0
  3  4  2  0
  4  5  1  0
  5  6  2  0
  4  7  1  0
  7  8  1  0
  8  9  1  0
  9 10  2  0
 10 11  1  0
 11 12  2  0
 12 13  1  0
 13 14  1  0
 14 15  1  0
 15 16  2  0
 16 17  1  0
 17 18  2  0
 18 19  1  0
 12 20  1  0
 20 21  2  0
 21 22  1  0
 22 23  2  0
 23 24  1  0
 24 25  2  0
  6  1  1  0
 13  9  1  0
 19 15  1  0
 25 20  1  0
  1 26  1  0
  2 27  1  0
  3 28  1  0
  5 29  1  0
  6 30  1  0
  7 31  1  0
  7 32  1  0
 14 33  1  0
 14 34  1  0
 16 35  1  0
 17 36  1  0
 18 37  1  0
 21 38  1  0
 22 39  1  0
 23 40  1  0
 24 41  1  0
M  END
>  <Ligand ID>  (1) 
LIG0002713

>  <Ligand>  (1) 
KUC103896N

>  <SMILES>  (1) 
c1ccc(cc1)CSc1nnc(n1Cc1ccco1)c1ccccn1

>  <CID>  (1) 
44601466.0

>  <ChEMBL ID>  (1) 
nan

>  <InChiKey>  (1) 
JFXHTECZZIPNMK-UHFFFAOYSA-N

>  <InChi>  (1) 
InChI=1S/C19H16N4OS/c1-2-7-15(8-3-1)14-25-19-22-21-18(17-10-4-5-11-20-17)23(19)13-16-9-6-12-24-16/h1-12H,13-14H2

>  <IUPAC Name>  (1) 
2-[5-benzylsulfanyl-4-(furan-2-ylmethyl)-1,2,4-triazol-3-yl]pyridine

$$$$
