
     RDKit          3D

 35 35  0  0  0  0  0  0  0  0999 V2000
   -3.9924    0.5470    1.7791 N   0  0  0  0  0  0  0  0  0  0  0  0
   -4.1969   -0.1728    0.5364 C   0  0  0  0  0  0  0  0  0  0  0  0
   -3.2838    0.4293   -0.5401 C   0  0  0  0  0  0  0  0  0  0  0  0
   -1.8914    0.2783   -0.0652 C   0  0  0  0  0  0  0  0  0  0  0  0
   -1.2734   -0.9534    0.0587 C   0  0  0  0  0  0  0  0  0  0  0  0
    0.0252   -1.0913    0.5018 C   0  0  0  0  0  0  0  0  0  0  0  0
    0.7748    0.0380    0.8477 C   0  0  0  0  0  0  0  0  0  0  0  0
    0.1744    1.2772    0.7305 C   0  0  0  0  0  0  0  0  0  0  0  0
   -1.1432    1.3947    0.2792 C   0  0  0  0  0  0  0  0  0  0  0  0
    2.0721   -0.1196    1.2889 O   0  0  0  0  0  0  0  0  0  0  0  0
    3.1131   -0.1133    0.3725 C   0  0  0  0  0  0  0  0  0  0  0  0
    4.3882   -0.2760    0.8799 C   0  0  0  0  0  0  0  0  0  0  0  0
    5.4279   -0.2698   -0.0339 C   0  0  0  0  0  0  0  0  0  0  0  0
    5.2091   -0.1099   -1.3846 C   0  0  0  0  0  0  0  0  0  0  0  0
    3.9352    0.0526   -1.8916 C   0  0  0  0  0  0  0  0  0  0  0  0
    2.8749    0.0483   -0.9787 C   0  0  0  0  0  0  0  0  0  0  0  0
   -3.5550   -0.1869   -1.8162 C   0  0  0  0  0  0  0  0  0  0  0  0
   -3.7616   -0.7081   -2.8807 C   0  0  0  0  0  0  0  0  0  0  0  0
    0.6871    0.0000    0.0000 Cl  0  0  0  0  0  0  0  0  0  0  0  0
   -4.8875    1.0037    2.0779 H   0  0  0  0  0  0  0  0  0  0  0  0
   -3.7488   -0.1380    2.5083 H   0  0  0  0  0  0  0  0  0  0  0  0
   -5.2707   -0.1021    0.1963 H   0  0  0  0  0  0  0  0  0  0  0  0
   -3.9844   -1.2562    0.6625 H   0  0  0  0  0  0  0  0  0  0  0  0
   -3.5619    1.5185   -0.5561 H   0  0  0  0  0  0  0  0  0  0  0  0
   -1.8378   -1.8557   -0.2056 H   0  0  0  0  0  0  0  0  0  0  0  0
    0.5240   -2.0518    0.6044 H   0  0  0  0  0  0  0  0  0  0  0  0
    0.7181    2.1821    0.9878 H   0  0  0  0  0  0  0  0  0  0  0  0
   -1.6313    2.3593    0.1808 H   0  0  0  0  0  0  0  0  0  0  0  0
    4.5933   -0.4038    1.9344 H   0  0  0  0  0  0  0  0  0  0  0  0
    6.4727   -0.3915    0.2711 H   0  0  0  0  0  0  0  0  0  0  0  0
    6.0474   -0.1090   -2.0826 H   0  0  0  0  0  0  0  0  0  0  0  0
    3.7744    0.1771   -2.9507 H   0  0  0  0  0  0  0  0  0  0  0  0
    1.8536    0.1742   -1.3432 H   0  0  0  0  0  0  0  0  0  0  0  0
   -3.9583   -1.1715   -3.8214 H   0  0  0  0  0  0  0  0  0  0  0  0
   -0.6871    0.0000    0.0000 H   0  0  0  0  0  0  0  0  0  0  0  0
  1  2  1  0
  2  3  1  0
  3  4  1  0
  4  5  2  0
  5  6  1  0
  6  7  2  0
  7  8  1  0
  8  9  2  0
  7 10  1  0
 10 11  1  0
 11 12  2  0
 12 13  1  0
 13 14  2  0
 14 15  1  0
 15 16  2  0
  3 17  1  0
 17 18  3  0
  9  4  1  0
 16 11  1  0
  1 20  1  0
  1 21  1  0
  2 22  1  0
  2 23  1  0
  3 24  1  0
  5 25  1  0
  6 26  1  0
  8 27  1  0
  9 28  1  0
 12 29  1  0
 13 30  1  0
 14 31  1  0
 15 32  1  0
 16 33  1  0
 18 34  1  0
 19 35  1  0
M  END
>  <Ligand ID>  (1) 
LIG0005595

>  <Ligand>  (1) 
CHEMBL541905

>  <SMILES>  (1) 
NCC(c1ccc(cc1)Oc1ccccc1)C#C.Cl

>  <CID>  (1) 
16735071.0

>  <ChEMBL ID>  (1) 
nan

>  <InChiKey>  (1) 
YNQXUMJCYZGWED-UHFFFAOYSA-N

>  <InChi>  (1) 
InChI=1S/C16H15NO.ClH/c1-2-13(12-17)14-8-10-16(11-9-14)18-15-6-4-3-5-7-15;/h1,3-11,13H,12,17H2;1H

>  <IUPAC Name>  (1) 
2-(4-phenoxyphenyl)but-3-yn-1-amine;hydrochloride

$$$$
