
     RDKit          3D

 26 26  0  0  0  0  0  0  0  0999 V2000
    4.6852    0.5313    0.0739 C   0  0  0  0  0  0  0  0  0  0  0  0
    3.3098    1.1563    0.2822 C   0  0  0  0  0  0  0  0  0  0  0  0
    2.3603    0.1871   -0.0496 O   0  0  0  0  0  0  0  0  0  0  0  0
    0.9801    0.3870    0.0144 C   0  0  0  0  0  0  0  0  0  0  0  0
    0.5352    1.5034    0.3922 O   0  0  0  0  0  0  0  0  0  0  0  0
    0.1210   -0.7510   -0.3744 C   0  0  0  0  0  0  0  0  0  0  0  0
   -1.3334   -0.4676   -0.2823 C   0  0  0  0  0  0  0  0  0  0  0  0
   -2.0559   -1.7474   -0.7189 C   0  0  0  0  0  0  0  0  0  0  0  0
   -1.7714    0.6306   -0.9844 O   0  0  0  0  0  0  0  0  0  0  0  0
   -3.0786    0.8152   -0.5095 C   0  0  0  0  0  0  0  0  0  0  0  0
   -3.1284    0.0540    0.8002 C   0  0  0  0  0  0  0  0  0  0  0  0
   -1.7680   -0.2142    1.0084 O   0  0  0  0  0  0  0  0  0  0  0  0
    4.8362   -0.3363    0.7552 H   0  0  0  0  0  0  0  0  0  0  0  0
    4.7055    0.1208   -0.9570 H   0  0  0  0  0  0  0  0  0  0  0  0
    5.5063    1.2287    0.2886 H   0  0  0  0  0  0  0  0  0  0  0  0
    3.2621    1.4923    1.3380 H   0  0  0  0  0  0  0  0  0  0  0  0
    3.2700    2.0680   -0.3496 H   0  0  0  0  0  0  0  0  0  0  0  0
    0.3524   -0.9871   -1.4400 H   0  0  0  0  0  0  0  0  0  0  0  0
    0.3613   -1.6118    0.2455 H   0  0  0  0  0  0  0  0  0  0  0  0
   -2.9328   -1.4633   -1.3208 H   0  0  0  0  0  0  0  0  0  0  0  0
   -2.4334   -2.3223    0.1600 H   0  0  0  0  0  0  0  0  0  0  0  0
   -1.3788   -2.4501   -1.2438 H   0  0  0  0  0  0  0  0  0  0  0  0
   -3.2355    1.8856   -0.2306 H   0  0  0  0  0  0  0  0  0  0  0  0
   -3.8497    0.4919   -1.2171 H   0  0  0  0  0  0  0  0  0  0  0  0
   -3.7471   -0.8399    0.6775 H   0  0  0  0  0  0  0  0  0  0  0  0
   -3.5724    0.6387    1.6236 H   0  0  0  0  0  0  0  0  0  0  0  0
  1  2  1  0
  2  3  1  0
  3  4  1  0
  4  5  2  0
  4  6  1  0
  6  7  1  0
  7  8  1  0
  7  9  1  0
  9 10  1  0
 10 11  1  0
 11 12  1  0
 12  7  1  0
  1 13  1  0
  1 14  1  0
  1 15  1  0
  2 16  1  0
  2 17  1  0
  6 18  1  0
  6 19  1  0
  8 20  1  0
  8 21  1  0
  8 22  1  0
 10 23  1  0
 10 24  1  0
 11 25  1  0
 11 26  1  0
M  END
>  <Ligand ID>  (1) 
LIG0000415

>  <Ligand>  (1) 
Ethyl acetoacetate ethyleneglycol ketal

>  <SMILES>  (1) 
CCOC(=O)CC1(C)OCCO1

>  <CID>  (1) 
80865.0

>  <ChEMBL ID>  (1) 
nan

>  <InChiKey>  (1) 
XWEOGMYZFCHQNT-UHFFFAOYSA-N

>  <InChi>  (1) 
InChI=1S/C8H14O4/c1-3-10-7(9)6-8(2)11-4-5-12-8/h3-6H2,1-2H3

>  <IUPAC Name>  (1) 
ethyl 2-(2-methyl-1,3-dioxolan-2-yl)acetate

$$$$
