
     RDKit          3D

 28 30  0  0  0  0  0  0  0  0999 V2000
    1.6694   -3.0771   -0.9217 O   0  0  0  0  0  0  0  0  0  0  0  0
    1.0150   -2.0548   -0.5497 C   0  0  0  0  0  0  0  0  0  0  0  0
   -0.4122   -2.1264   -0.3986 N   0  0  0  0  0  0  0  0  0  0  0  0
   -1.1325   -0.8814   -0.5593 C   0  0  0  0  0  0  0  0  0  0  0  0
   -2.5513   -0.9205   -0.1048 C   0  0  0  0  0  0  0  0  0  0  0  0
   -3.1180    0.3852   -0.2735 N   0  0  0  0  0  0  0  0  0  0  0  0
   -2.3602    1.4552    0.3144 C   0  0  0  0  0  0  0  0  0  0  0  0
   -1.2067    0.9115    1.1377 C   0  0  0  0  0  0  0  0  0  0  0  0
   -0.4222    0.1281    0.2496 N   0  0  0  0  0  0  0  0  0  0  0  0
    0.9698    0.2875    0.1280 C   0  0  0  0  0  0  0  0  0  0  0  0
    1.7409   -0.7950   -0.2754 C   0  0  0  0  0  0  0  0  0  0  0  0
    3.0916   -0.6757   -0.4035 C   0  0  0  0  0  0  0  0  0  0  0  0
    4.0313   -2.0447   -0.9094 Cl  0  0  0  0  0  0  0  0  0  0  0  0
    3.6551    0.5672   -0.1146 C   0  0  0  0  0  0  0  0  0  0  0  0
    2.8836    1.6403    0.2862 C   0  0  0  0  0  0  0  0  0  0  0  0
    1.5076    1.5214    0.4175 C   0  0  0  0  0  0  0  0  0  0  0  0
   -0.8643   -3.0417   -0.1857 H   0  0  0  0  0  0  0  0  0  0  0  0
   -1.1084   -0.6086   -1.6265 H   0  0  0  0  0  0  0  0  0  0  0  0
   -2.6789   -1.3115    0.9211 H   0  0  0  0  0  0  0  0  0  0  0  0
   -3.1316   -1.5989   -0.7890 H   0  0  0  0  0  0  0  0  0  0  0  0
   -3.2365    0.5389   -1.3091 H   0  0  0  0  0  0  0  0  0  0  0  0
   -1.8541    2.0166   -0.5227 H   0  0  0  0  0  0  0  0  0  0  0  0
   -2.9591    2.1731    0.8935 H   0  0  0  0  0  0  0  0  0  0  0  0
   -1.6792    0.1927    1.8684 H   0  0  0  0  0  0  0  0  0  0  0  0
   -0.7925    1.7036    1.7045 H   0  0  0  0  0  0  0  0  0  0  0  0
    4.7090    0.6925   -0.2053 H   0  0  0  0  0  0  0  0  0  0  0  0
    3.3633    2.5858    0.4999 H   0  0  0  0  0  0  0  0  0  0  0  0
    0.8710    2.3370    0.7281 H   0  0  0  0  0  0  0  0  0  0  0  0
  1  2  2  0
  2  3  1  0
  3  4  1  0
  4  5  1  0
  5  6  1  0
  6  7  1  0
  7  8  1  0
  8  9  1  0
  9 10  1  0
 10 11  2  0
 11 12  1  0
 12 13  1  0
 12 14  2  0
 14 15  1  0
 15 16  2  0
 11  2  1  0
  9  4  1  0
 16 10  1  0
  3 17  1  0
  4 18  1  0
  5 19  1  0
  5 20  1  0
  6 21  1  0
  7 22  1  0
  7 23  1  0
  8 24  1  0
  8 25  1  0
 14 26  1  0
 15 27  1  0
 16 28  1  0
M  END
>  <Ligand ID>  (1) 
LIG0003228

>  <Ligand>  (1) 
CHEMBL605402

>  <SMILES>  (1) 
O=C1NC2CNCCN2c2c1c(Cl)ccc2

>  <CID>  (1) 
46230049.0

>  <ChEMBL ID>  (1) 
nan

>  <InChiKey>  (1) 
HVGOEFOHXQIZBF-UHFFFAOYSA-N

>  <InChi>  (1) 
InChI=1S/C11H12ClN3O/c12-7-2-1-3-8-10(7)11(16)14-9-6-13-4-5-15(8)9/h1-3,9,13H,4-6H2,(H,14,16)

>  <IUPAC Name>  (1) 
7-chloro-1,2,3,4,4a,5-hexahydropyrazino[1,2-a]quinazolin-6-one

$$$$
