
     RDKit          3D

 73 77  0  0  0  0  0  0  0  0999 V2000
  -11.0723    3.8884    1.1558 O   0  0  0  0  0  0  0  0  0  0  0  0
  -10.5037    2.7736    1.0997 C   0  0  0  0  0  0  0  0  0  0  0  0
  -10.4025    1.8103    0.1703 N   0  0  0  0  0  0  0  0  0  0  0  0
   -9.7376    0.7305    0.3720 C   0  0  0  0  0  0  0  0  0  0  0  0
   -9.0835    0.5194    1.5921 C   0  0  0  0  0  0  0  0  0  0  0  0
   -9.5057    2.1002    2.5404 S   0  0  0  0  0  0  0  0  0  0  0  0
   -8.2746   -0.5328    2.1369 C   0  0  0  0  0  0  0  0  0  0  0  0
   -6.8841   -0.4851    1.5755 C   0  0  0  0  0  0  0  0  0  0  0  0
   -5.9855    0.3540    2.1938 C   0  0  0  0  0  0  0  0  0  0  0  0
   -4.6739    0.4450    1.7244 C   0  0  0  0  0  0  0  0  0  0  0  0
   -4.2432   -0.2996    0.6335 C   0  0  0  0  0  0  0  0  0  0  0  0
   -5.1735   -1.1231    0.0478 C   0  0  0  0  0  0  0  0  0  0  0  0
   -6.4870   -1.2302    0.4986 C   0  0  0  0  0  0  0  0  0  0  0  0
   -2.8976   -0.1743    0.1683 N   0  0  0  0  0  0  0  0  0  0  0  0
   -2.1758    1.0043    0.6858 C   0  0  0  0  0  0  0  0  0  0  0  0
   -0.7480    0.8303    0.1249 C   0  0  0  0  0  0  0  0  0  0  0  0
   -0.2380   -0.5039    0.5695 C   0  0  0  0  0  0  0  0  0  0  0  0
   -0.8882   -1.5429   -0.3467 C   0  0  0  0  0  0  0  0  0  0  0  0
   -2.2981   -1.1184   -0.7260 C   0  0  0  0  0  0  0  0  0  0  0  0
    1.1188   -0.6000    0.7441 N   0  0  0  0  0  0  0  0  0  0  0  0
    2.1278   -0.5031   -0.1887 C   0  0  0  0  0  0  0  0  0  0  0  0
    2.4929    0.7814   -0.8423 C   0  0  1  0  0  0  0  0  0  0  0  0
    3.6304    0.4403   -1.7894 C   0  0  0  0  0  0  0  0  0  0  0  0
    3.3508   -0.1527   -2.9937 C   0  0  0  0  0  0  0  0  0  0  0  0
    4.3910   -0.4621   -3.8432 C   0  0  0  0  0  0  0  0  0  0  0  0
    5.6880   -0.1750   -3.4768 C   0  0  0  0  0  0  0  0  0  0  0  0
    6.0095    0.4269   -2.2622 C   0  0  0  0  0  0  0  0  0  0  0  0
    4.9398    0.7193   -1.4434 C   0  0  0  0  0  0  0  0  0  0  0  0
    7.3559    0.6989   -1.9496 N   0  0  0  0  0  0  0  0  0  0  0  0
    7.9489    1.2521   -0.4453 S   0  0  0  0  0  0  0  0  0  0  0  0
    9.4074    1.5988   -0.5910 O   0  0  0  0  0  0  0  0  0  0  0  0
    7.2029    2.5387   -0.0855 O   0  0  0  0  0  0  0  0  0  0  0  0
    7.6620    0.1540    0.8543 C   0  0  0  0  0  0  0  0  0  0  0  0
    6.6400    0.2532    1.7667 C   0  0  0  0  0  0  0  0  0  0  0  0
    6.4394   -0.6498    2.7938 C   0  0  0  0  0  0  0  0  0  0  0  0
    7.3060   -1.7388    2.9444 C   0  0  0  0  0  0  0  0  0  0  0  0
    8.3460   -1.8384    2.0153 C   0  0  0  0  0  0  0  0  0  0  0  0
    8.5239   -0.9280    1.0035 C   0  0  0  0  0  0  0  0  0  0  0  0
    6.6940   -0.5155   -4.3854 O   0  0  0  0  0  0  0  0  0  0  0  0
    1.5358    1.4015   -1.6001 O   0  0  0  0  0  0  0  0  0  0  0  0
   -9.6196   -0.3051   -0.6057 O   0  0  0  0  0  0  0  0  0  0  0  0
  -10.9203    1.9985   -0.7701 H   0  0  0  0  0  0  0  0  0  0  0  0
   -8.7331   -1.5094    1.8602 H   0  0  0  0  0  0  0  0  0  0  0  0
   -8.1836   -0.5042    3.2354 H   0  0  0  0  0  0  0  0  0  0  0  0
   -6.3096    0.9428    3.0507 H   0  0  0  0  0  0  0  0  0  0  0  0
   -4.0392    1.1255    2.2660 H   0  0  0  0  0  0  0  0  0  0  0  0
   -4.9322   -1.7371   -0.8060 H   0  0  0  0  0  0  0  0  0  0  0  0
   -7.1936   -1.8797    0.0253 H   0  0  0  0  0  0  0  0  0  0  0  0
   -2.5685    1.9366    0.2685 H   0  0  0  0  0  0  0  0  0  0  0  0
   -2.0834    1.0154    1.7651 H   0  0  0  0  0  0  0  0  0  0  0  0
   -0.9175    0.8041   -0.9691 H   0  0  0  0  0  0  0  0  0  0  0  0
   -0.1426    1.6364    0.5136 H   0  0  0  0  0  0  0  0  0  0  0  0
   -0.7193   -0.7576    1.5920 H   0  0  0  0  0  0  0  0  0  0  0  0
   -0.9169   -2.5183    0.1770 H   0  0  0  0  0  0  0  0  0  0  0  0
   -0.2948   -1.7119   -1.2745 H   0  0  0  0  0  0  0  0  0  0  0  0
   -2.2406   -0.6621   -1.7316 H   0  0  0  0  0  0  0  0  0  0  0  0
   -2.9588   -2.0042   -0.8466 H   0  0  0  0  0  0  0  0  0  0  0  0
    1.4390   -0.9975    1.6799 H   0  0  0  0  0  0  0  0  0  0  0  0
    3.1075   -0.8684    0.2950 H   0  0  0  0  0  0  0  0  0  0  0  0
    2.0363   -1.2506   -1.0461 H   0  0  0  0  0  0  0  0  0  0  0  0
    2.8658    1.5464   -0.1104 H   0  0  0  0  0  0  0  0  0  0  0  0
    2.3182   -0.3675   -3.2565 H   0  0  0  0  0  0  0  0  0  0  0  0
    4.1340   -0.9287   -4.7831 H   0  0  0  0  0  0  0  0  0  0  0  0
    5.1067    1.1908   -0.4917 H   0  0  0  0  0  0  0  0  0  0  0  0
    8.0581    0.5451   -2.7175 H   0  0  0  0  0  0  0  0  0  0  0  0
    5.9464    1.0718    1.7067 H   0  0  0  0  0  0  0  0  0  0  0  0
    5.6093   -0.5389    3.5083 H   0  0  0  0  0  0  0  0  0  0  0  0
    7.1573   -2.4393    3.7345 H   0  0  0  0  0  0  0  0  0  0  0  0
    9.0049   -2.7020    2.1632 H   0  0  0  0  0  0  0  0  0  0  0  0
    9.3567   -1.0900    0.3346 H   0  0  0  0  0  0  0  0  0  0  0  0
    6.5776   -1.2798   -5.0180 H   0  0  0  0  0  0  0  0  0  0  0  0
    1.3905    2.3502   -1.3548 H   0  0  0  0  0  0  0  0  0  0  0  0
   -8.8730   -0.2587   -1.2862 H   0  0  0  0  0  0  0  0  0  0  0  0
  1  2  2  0
  2  3  1  0
  3  4  1  0
  4  5  2  0
  5  6  1  0
  5  7  1  0
  7  8  1  0
  8  9  2  0
  9 10  1  0
 10 11  2  0
 11 12  1  0
 12 13  2  0
 11 14  1  0
 14 15  1  0
 15 16  1  0
 16 17  1  0
 17 18  1  0
 18 19  1  0
 17 20  1  0
 20 21  1  0
 21 22  1  0
 22 23  1  0
 23 24  2  0
 24 25  1  0
 25 26  2  0
 26 27  1  0
 27 28  2  0
 27 29  1  0
 29 30  1  0
 30 31  2  0
 30 32  2  0
 30 33  1  0
 33 34  2  0
 34 35  1  0
 35 36  2  0
 36 37  1  0
 37 38  2  0
 26 39  1  0
 22 40  1  0
  4 41  1  0
  6  2  1  0
 13  8  1  0
 19 14  1  0
 28 23  1  0
 38 33  1  0
  3 42  1  0
  7 43  1  0
  7 44  1  0
  9 45  1  0
 10 46  1  0
 12 47  1  0
 13 48  1  0
 15 49  1  0
 15 50  1  0
 16 51  1  0
 16 52  1  0
 17 53  1  0
 18 54  1  0
 18 55  1  0
 19 56  1  0
 19 57  1  0
 20 58  1  0
 21 59  1  0
 21 60  1  0
 22 61  1  1
 24 62  1  0
 25 63  1  0
 28 64  1  0
 29 65  1  0
 34 66  1  0
 35 67  1  0
 36 68  1  0
 37 69  1  0
 38 70  1  0
 39 71  1  0
 40 72  1  0
 41 73  1  0
M  END
>  <Ligand ID>  (1) 
LIG0003146

>  <Ligand>  (1) 
BDBM50097799

>  <SMILES>  (1) 
O=c1[nH]c(c(s1)Cc1ccc(cc1)N1CCC(CC1)NC[C@@H](c1ccc(c(c1)NS(=O)(=O)c1ccccc1)O)O)O

>  <CID>  (1) 
91931605.0

>  <ChEMBL ID>  (1) 
nan

>  <InChiKey>  (1) 
ADDYIVVOISESEV-SANMLTNESA-N

>  <InChi>  (1) 
InChI=1S/C29H32N4O6S2/c34-25-11-8-20(17-24(25)32-41(38,39)23-4-2-1-3-5-23)26(35)18-30-21-12-14-33(15-13-21)22-9-6-19(7-10-22)16-27-28(36)31-29(37)40-27/h1-11,17,21,26,30,32,34-36H,12-16,18H2,(H,31,37)/t26-/m0/s1

>  <IUPAC Name>  (1) 
N-[2-hydroxy-5-[(1R)-1-hydroxy-2-[[1-[4-[(4-hydroxy-2-oxo-3H-1,3-thiazol-5-yl)methyl]phenyl]piperidin-4-yl]amino]ethyl]phenyl]benzenesulfonamide

$$$$
