
     RDKit          3D

 40 42  0  0  0  0  0  0  0  0999 V2000
    1.6134    4.3409   -0.8464 Cl  0  0  0  0  0  0  0  0  0  0  0  0
    2.7804    3.0173   -0.6839 C   0  0  0  0  0  0  0  0  0  0  0  0
    4.1357    3.2588   -0.7473 C   0  0  0  0  0  0  0  0  0  0  0  0
    4.8926    1.5906   -0.5063 S   0  0  0  0  0  0  0  0  0  0  0  0
    3.1931    0.8369   -0.3618 C   0  0  0  0  0  0  0  0  0  0  0  0
    2.4840    1.7497   -0.4868 N   0  0  0  0  0  0  0  0  0  0  0  0
    3.1950   -0.6725   -0.1175 C   0  0  0  0  0  0  0  0  0  0  0  0
    4.3492   -1.3089    0.2210 C   0  0  0  0  0  0  0  0  0  0  0  0
    4.3989   -2.6880    0.4241 C   0  0  0  0  0  0  0  0  0  0  0  0
    3.2395   -3.3940    0.2730 C   0  0  0  0  0  0  0  0  0  0  0  0
    2.0773   -2.7511   -0.0680 C   0  0  0  0  0  0  0  0  0  0  0  0
    2.0495   -1.3751   -0.2671 C   0  0  0  0  0  0  0  0  0  0  0  0
    0.7912   -0.7924   -0.6790 C   0  0  0  0  0  0  0  0  0  0  0  0
    0.6653    0.3402   -1.2298 O   0  0  0  0  0  0  0  0  0  0  0  0
   -0.4492   -1.4896   -0.4870 N   0  0  0  0  0  0  0  0  0  0  0  0
   -1.6610   -0.8217   -0.9390 C   0  0  0  0  0  0  0  0  0  0  0  0
   -1.9538    0.4655   -0.1951 C   0  0  0  0  0  0  0  0  0  0  0  0
   -3.2132    1.0399   -0.8029 C   0  0  0  0  0  0  0  0  0  0  0  0
   -4.4484    0.3588   -0.2650 C   0  0  0  0  0  0  0  0  0  0  0  0
   -4.6265    0.8530    1.0954 N   0  0  0  0  0  0  0  0  0  0  0  0
   -3.3656    1.0722    1.7440 C   0  0  0  0  0  0  0  0  0  0  0  0
   -2.2673    0.1640    1.2650 C   0  0  0  0  0  0  0  0  0  0  0  0
    4.7643    4.1884   -0.9065 H   0  0  0  0  0  0  0  0  0  0  0  0
    5.3005   -0.7983    0.3641 H   0  0  0  0  0  0  0  0  0  0  0  0
    5.3022   -3.1875    0.6905 H   0  0  0  0  0  0  0  0  0  0  0  0
    3.2596   -4.4508    0.4242 H   0  0  0  0  0  0  0  0  0  0  0  0
    1.1981   -3.3856   -0.1718 H   0  0  0  0  0  0  0  0  0  0  0  0
   -0.5161   -2.4257   -0.0481 H   0  0  0  0  0  0  0  0  0  0  0  0
   -1.6196   -0.5570   -2.0318 H   0  0  0  0  0  0  0  0  0  0  0  0
   -2.4944   -1.5260   -0.8296 H   0  0  0  0  0  0  0  0  0  0  0  0
   -1.1757    1.2125   -0.2349 H   0  0  0  0  0  0  0  0  0  0  0  0
   -3.2350    0.8974   -1.9066 H   0  0  0  0  0  0  0  0  0  0  0  0
   -3.3023    2.1115   -0.5189 H   0  0  0  0  0  0  0  0  0  0  0  0
   -4.2984   -0.7353   -0.2935 H   0  0  0  0  0  0  0  0  0  0  0  0
   -5.3120    0.6426   -0.8800 H   0  0  0  0  0  0  0  0  0  0  0  0
   -5.1873    1.7065    1.0803 H   0  0  0  0  0  0  0  0  0  0  0  0
   -3.5133    0.9609    2.8649 H   0  0  0  0  0  0  0  0  0  0  0  0
   -3.0400    2.0984    1.5121 H   0  0  0  0  0  0  0  0  0  0  0  0
   -2.6257   -0.8938    1.3805 H   0  0  0  0  0  0  0  0  0  0  0  0
   -1.3848    0.3470    1.9184 H   0  0  0  0  0  0  0  0  0  0  0  0
  1  2  1  0
  2  3  2  0
  3  4  1  0
  4  5  1  0
  5  6  2  0
  5  7  1  0
  7  8  2  0
  8  9  1  0
  9 10  2  0
 10 11  1  0
 11 12  2  0
 12 13  1  0
 13 14  2  0
 13 15  1  0
 15 16  1  0
 16 17  1  0
 17 18  1  0
 18 19  1  0
 19 20  1  0
 20 21  1  0
 21 22  1  0
  6  2  1  0
 12  7  1  0
 22 17  1  0
  3 23  1  0
  8 24  1  0
  9 25  1  0
 10 26  1  0
 11 27  1  0
 15 28  1  0
 16 29  1  0
 16 30  1  0
 17 31  1  0
 18 32  1  0
 18 33  1  0
 19 34  1  0
 19 35  1  0
 20 36  1  0
 21 37  1  0
 21 38  1  0
 22 39  1  0
 22 40  1  0
M  END
>  <Ligand ID>  (1) 
LIG0000880

>  <Ligand>  (1) 
CHEMBL1083911

>  <SMILES>  (1) 
Clc1csc(n1)c1ccccc1C(=O)NCC1CCNCC1

>  <CID>  (1) 
46891375.0

>  <ChEMBL ID>  (1) 
nan

>  <InChiKey>  (1) 
ZDSQJKATGRXWKZ-UHFFFAOYSA-N

>  <InChi>  (1) 
InChI=1S/C16H18ClN3OS/c17-14-10-22-16(20-14)13-4-2-1-3-12(13)15(21)19-9-11-5-7-18-8-6-11/h1-4,10-11,18H,5-9H2,(H,19,21)

>  <IUPAC Name>  (1) 
2-(4-chloro-1,3-thiazol-2-yl)-N-(piperidin-4-ylmethyl)benzamide

$$$$
