
     RDKit          3D

192199  0  0  0  0  0  0  0  0999 V2000
    8.9618    6.2317   -1.9544 N   0  0  0  0  0  0  0  0  0  0  0  0
    8.2034    6.0588   -0.7715 C   0  0  0  0  0  0  0  0  0  0  0  0
    6.9687    6.5831   -0.6972 N   0  0  0  0  0  0  0  0  0  0  0  0
    8.6047    5.3527    0.3738 N   0  0  0  0  0  0  0  0  0  0  0  0
    8.1168    4.1125    0.8459 C   0  0  0  0  0  0  0  0  0  0  0  0
    6.7828    3.8851    1.3556 C   0  0  0  0  0  0  0  0  0  0  0  0
    5.5218    4.0197    0.6824 C   0  0  0  0  0  0  0  0  0  0  0  0
    5.2487    3.1804   -0.5689 C   0  0  2  0  0  0  0  0  0  0  0  0
    3.8932    3.5275   -1.0356 N   0  0  0  0  0  0  0  0  0  0  0  0
    3.7237    4.5731   -2.0266 C   0  0  0  0  0  0  0  0  0  0  0  0
    4.8299    5.0827   -2.3474 O   0  0  0  0  0  0  0  0  0  0  0  0
    2.5377    5.0607   -2.6328 C   0  0  1  0  0  0  0  0  0  0  0  0
    2.6836    5.3769   -4.1425 C   0  0  0  0  0  0  0  0  0  0  0  0
    3.6870    6.3852   -4.4453 C   0  0  0  0  0  0  0  0  0  0  0  0
    3.2934    7.7233   -4.3170 C   0  0  0  0  0  0  0  0  0  0  0  0
    4.1859    8.7678   -4.6053 C   0  0  0  0  0  0  0  0  0  0  0  0
    5.4648    8.4415   -5.0191 C   0  0  0  0  0  0  0  0  0  0  0  0
    5.8895    7.1392   -5.1595 C   0  0  0  0  0  0  0  0  0  0  0  0
    4.9770    6.1514   -4.8645 C   0  0  0  0  0  0  0  0  0  0  0  0
    1.2429    4.4711   -2.4146 N   0  0  0  0  0  0  0  0  0  0  0  0
    0.0920    5.2455   -1.9547 C   0  0  0  0  0  0  0  0  0  0  0  0
    0.3814    6.4083   -1.6306 O   0  0  0  0  0  0  0  0  0  0  0  0
   -1.2599    4.7492   -1.8688 C   0  0  2  0  0  0  0  0  0  0  0  0
   -2.1711    6.0205   -1.8642 C   0  0  0  0  0  0  0  0  0  0  0  0
   -2.3095    6.3454   -0.4238 C   0  0  0  0  0  0  0  0  0  0  0  0
   -1.6707    5.1724    0.3418 C   0  0  0  0  0  0  0  0  0  0  0  0
   -1.7549    4.1601   -0.6434 N   0  0  0  0  0  0  0  0  0  0  0  0
   -2.1404    2.8155   -0.6524 C   0  0  0  0  0  0  0  0  0  0  0  0
   -1.8527    2.2088   -1.7346 O   0  0  0  0  0  0  0  0  0  0  0  0
   -2.7987    1.9995    0.3835 C   0  0  1  0  0  0  0  0  0  0  0  0
   -3.6324    2.6885    1.3233 N   0  0  0  0  0  0  0  0  0  0  0  0
   -4.5367    3.7277    0.8795 C   0  0  0  0  0  0  0  0  0  0  0  0
   -4.6189    4.0523   -0.3271 O   0  0  0  0  0  0  0  0  0  0  0  0
   -5.4086    4.4581    1.8399 C   0  0  2  0  0  0  0  0  0  0  0  0
   -6.4139    3.5181    2.4092 C   0  0  0  0  0  0  0  0  0  0  0  0
   -7.3483    4.1633    3.3870 C   0  0  0  0  0  0  0  0  0  0  0  0
   -7.0615    4.2425    4.7200 C   0  0  0  0  0  0  0  0  0  0  0  0
   -7.9253    4.8296    5.6439 C   0  0  0  0  0  0  0  0  0  0  0  0
   -9.1142    5.3459    5.1686 C   0  0  0  0  0  0  0  0  0  0  0  0
   -9.4484    5.2892    3.8194 C   0  0  0  0  0  0  0  0  0  0  0  0
   -8.5473    4.6942    2.9584 C   0  0  0  0  0  0  0  0  0  0  0  0
  -10.0120    5.9398    6.0606 O   0  0  0  0  0  0  0  0  0  0  0  0
   -6.1302    5.4741    1.0724 N   0  0  0  0  0  0  0  0  0  0  0  0
   -3.3778    0.7336   -0.2142 C   0  0  0  0  0  0  0  0  0  0  0  0
   -3.9378   -0.1753    0.7744 C   0  0  0  0  0  0  0  0  0  0  0  0
   -4.0972    0.1200    1.9156 O   0  0  0  0  0  0  0  0  0  0  0  0
   -4.3668   -1.5605    0.4635 N   0  0  0  0  0  0  0  0  0  0  0  0
   -4.3004   -1.7617   -0.9470 C   0  0  2  0  0  0  0  0  0  0  0  0
   -5.6445   -1.9207   -1.5534 C   0  0  0  0  0  0  0  0  0  0  0  0
   -5.7784   -1.6512   -2.8134 O   0  0  0  0  0  0  0  0  0  0  0  0
   -6.8227   -2.3427   -0.9150 N   0  0  0  0  0  0  0  0  0  0  0  0
   -3.2653   -2.6878   -1.4474 C   0  0  0  0  0  0  0  0  0  0  0  0
   -3.3647   -2.6806   -2.9477 C   0  0  0  0  0  0  0  0  0  0  0  0
   -2.6411   -1.7844   -3.7124 C   0  0  0  0  0  0  0  0  0  0  0  0
   -2.7778   -1.8435   -5.0910 C   0  0  0  0  0  0  0  0  0  0  0  0
   -3.6012   -2.7525   -5.7183 C   0  0  0  0  0  0  0  0  0  0  0  0
   -4.3126   -3.6310   -4.9459 C   0  0  0  0  0  0  0  0  0  0  0  0
   -4.2006   -3.6016   -3.5825 C   0  0  0  0  0  0  0  0  0  0  0  0
   -3.7587   -2.8397   -7.0899 O   0  0  0  0  0  0  0  0  0  0  0  0
   -4.7969   -2.4315    1.4963 C   0  0  0  0  0  0  0  0  0  0  0  0
   -4.0178   -2.1434    2.7942 C   0  0  0  0  0  0  0  0  0  0  0  0
   -4.5472   -3.8643    1.3201 N   0  0  0  0  0  0  0  0  0  0  0  0
   -3.1913   -4.3104    1.3306 C   0  0  0  0  0  0  0  0  0  0  0  0
   -2.3280   -3.4397    1.4872 O   0  0  0  0  0  0  0  0  0  0  0  0
   -2.7402   -5.7136    1.1664 C   0  0  1  0  0  0  0  0  0  0  0  0
   -1.3214   -5.8149    1.2324 N   0  0  0  0  0  0  0  0  0  0  0  0
   -0.4784   -6.8344    0.6958 C   0  0  0  0  0  0  0  0  0  0  0  0
   -1.0294   -7.8040    0.1942 O   0  0  0  0  0  0  0  0  0  0  0  0
    0.9810   -6.6050    0.8227 C   0  0  1  0  0  0  0  0  0  0  0  0
    1.3275   -5.2800    0.2864 N   0  0  0  0  0  0  0  0  0  0  0  0
    2.7111   -4.9259    0.0179 C   0  0  0  0  0  0  0  0  0  0  0  0
    3.5362   -5.6992    0.4646 O   0  0  0  0  0  0  0  0  0  0  0  0
    2.9489   -3.6725   -0.7423 C   0  0  1  0  0  0  0  0  0  0  0  0
    4.1656   -2.9606   -0.2853 N   0  0  0  0  0  0  0  0  0  0  0  0
    4.1311   -1.5553   -0.1641 C   0  0  0  0  0  0  0  0  0  0  0  0
    2.9985   -1.0470   -0.5269 O   0  0  0  0  0  0  0  0  0  0  0  0
    5.1297   -0.6175    0.2808 C   0  0  1  0  0  0  0  0  0  0  0  0
    4.5806    0.7530    0.0608 N   0  0  0  0  0  0  0  0  0  0  0  0
    5.4947    1.8050   -0.2423 C   0  0  0  0  0  0  0  0  0  0  0  0
    6.7046    1.4005   -0.1882 O   0  0  0  0  0  0  0  0  0  0  0  0
    5.7256   -0.7218    1.6343 C   0  0  0  0  0  0  0  0  0  0  0  0
    6.4821   -1.9211    1.9643 C   0  0  0  0  0  0  0  0  0  0  0  0
    7.8830   -1.9787    1.7648 C   0  0  0  0  0  0  0  0  0  0  0  0
    8.3367   -3.1801    2.0950 N   0  0  0  0  0  0  0  0  0  0  0  0
    7.3011   -3.9698    2.5223 C   0  0  0  0  0  0  0  0  0  0  0  0
    6.1790   -3.1691    2.4315 C   0  0  0  0  0  0  0  0  0  0  0  0
    4.9739   -3.6945    2.8040 C   0  0  0  0  0  0  0  0  0  0  0  0
    4.9104   -5.0052    3.2568 C   0  0  0  0  0  0  0  0  0  0  0  0
    6.0682   -5.7925    3.3359 C   0  0  0  0  0  0  0  0  0  0  0  0
    7.2973   -5.2706    2.9635 C   0  0  0  0  0  0  0  0  0  0  0  0
    3.4160   -4.1658   -2.1488 C   0  0  0  0  0  0  0  0  0  0  0  0
    2.4075   -4.9917   -2.7955 C   0  0  0  0  0  0  0  0  0  0  0  0
    1.2481   -5.2477   -2.3980 O   0  0  0  0  0  0  0  0  0  0  0  0
    2.7709   -5.6040   -4.0482 N   0  0  0  0  0  0  0  0  0  0  0  0
    1.2299   -6.5602    2.3568 C   0  0  0  0  0  0  0  0  0  0  0  0
   -3.5090   -6.5047    2.2044 C   0  0  0  0  0  0  0  0  0  0  0  0
   -3.2008   -7.9523    2.1882 C   0  0  0  0  0  0  0  0  0  0  0  0
   -2.2576   -8.5440    3.0140 C   0  0  0  0  0  0  0  0  0  0  0  0
   -2.0497   -9.8814    2.9012 C   0  0  0  0  0  0  0  0  0  0  0  0
   -2.7549  -10.6549    1.9902 C   0  0  0  0  0  0  0  0  0  0  0  0
   -3.6891  -10.0735    1.1729 C   0  0  0  0  0  0  0  0  0  0  0  0
   -3.9270   -8.7168    1.2574 C   0  0  0  0  0  0  0  0  0  0  0  0
   -6.2257   -2.3511    1.8600 C   0  0  0  0  0  0  0  0  0  0  0  0
   -6.9686   -3.3713    2.0312 O   0  0  0  0  0  0  0  0  0  0  0  0
   -6.8847   -1.1131    2.0412 O   0  0  0  0  0  0  0  0  0  0  0  0
    8.6700    5.6997   -2.8149 H   0  0  0  0  0  0  0  0  0  0  0  0
    9.8111    6.8822   -1.9958 H   0  0  0  0  0  0  0  0  0  0  0  0
    6.6532    7.0877   -1.5553 H   0  0  0  0  0  0  0  0  0  0  0  0
    9.4176    5.8512    0.9119 H   0  0  0  0  0  0  0  0  0  0  0  0
    8.5267    3.2397    0.2262 H   0  0  0  0  0  0  0  0  0  0  0  0
    8.7983    3.9305    1.7866 H   0  0  0  0  0  0  0  0  0  0  0  0
    6.7950    2.8589    1.9265 H   0  0  0  0  0  0  0  0  0  0  0  0
    6.6978    4.5539    2.3018 H   0  0  0  0  0  0  0  0  0  0  0  0
    5.1984    5.0318    0.4848 H   0  0  0  0  0  0  0  0  0  0  0  0
    4.7544    3.5275    1.4131 H   0  0  0  0  0  0  0  0  0  0  0  0
    5.9100    3.5252   -1.3916 H   0  0  0  0  0  0  0  0  0  0  0  0
    3.0419    3.0903   -0.7265 H   0  0  0  0  0  0  0  0  0  0  0  0
    2.4231    6.1386   -2.2327 H   0  0  0  0  0  0  0  0  0  0  0  0
    3.0203    4.4171   -4.5967 H   0  0  0  0  0  0  0  0  0  0  0  0
    1.6876    5.5634   -4.5874 H   0  0  0  0  0  0  0  0  0  0  0  0
    2.3027    8.0030   -3.9816 H   0  0  0  0  0  0  0  0  0  0  0  0
    3.8717    9.8195   -4.4966 H   0  0  0  0  0  0  0  0  0  0  0  0
    6.1154    9.2869   -5.2295 H   0  0  0  0  0  0  0  0  0  0  0  0
    6.9108    6.9240   -5.4894 H   0  0  0  0  0  0  0  0  0  0  0  0
    5.3214    5.1105   -4.9910 H   0  0  0  0  0  0  0  0  0  0  0  0
    1.0118    3.4870   -2.5574 H   0  0  0  0  0  0  0  0  0  0  0  0
   -1.5652    4.1241   -2.7542 H   0  0  0  0  0  0  0  0  0  0  0  0
   -3.0860    5.8547   -2.4236 H   0  0  0  0  0  0  0  0  0  0  0  0
   -1.6270    6.8513   -2.3458 H   0  0  0  0  0  0  0  0  0  0  0  0
   -3.3700    6.4495   -0.1493 H   0  0  0  0  0  0  0  0  0  0  0  0
   -1.8156    7.2927   -0.1311 H   0  0  0  0  0  0  0  0  0  0  0  0
   -0.5951    5.4416    0.5774 H   0  0  0  0  0  0  0  0  0  0  0  0
   -2.0979    5.0015    1.3206 H   0  0  0  0  0  0  0  0  0  0  0  0
   -1.8778    1.6127    0.9857 H   0  0  0  0  0  0  0  0  0  0  0  0
   -3.6491    2.5030    2.3467 H   0  0  0  0  0  0  0  0  0  0  0  0
   -4.7896    4.9895    2.6028 H   0  0  0  0  0  0  0  0  0  0  0  0
   -7.0645    3.1675    1.5552 H   0  0  0  0  0  0  0  0  0  0  0  0
   -5.9525    2.6060    2.8104 H   0  0  0  0  0  0  0  0  0  0  0  0
   -6.1328    3.8436    5.1134 H   0  0  0  0  0  0  0  0  0  0  0  0
   -7.6733    4.8801    6.7003 H   0  0  0  0  0  0  0  0  0  0  0  0
  -10.3937    5.7151    3.5032 H   0  0  0  0  0  0  0  0  0  0  0  0
   -8.8208    4.6567    1.9086 H   0  0  0  0  0  0  0  0  0  0  0  0
   -9.8189    6.8647    6.4133 H   0  0  0  0  0  0  0  0  0  0  0  0
   -6.1139    6.4000    1.5840 H   0  0  0  0  0  0  0  0  0  0  0  0
   -5.8276    5.5403    0.0970 H   0  0  0  0  0  0  0  0  0  0  0  0
   -2.5556    0.3486   -0.8542 H   0  0  0  0  0  0  0  0  0  0  0  0
   -4.1523    1.1143   -0.9274 H   0  0  0  0  0  0  0  0  0  0  0  0
   -3.9533   -0.7785   -1.3904 H   0  0  0  0  0  0  0  0  0  0  0  0
   -7.0529   -3.3478   -0.7192 H   0  0  0  0  0  0  0  0  0  0  0  0
   -7.5366   -1.6375   -0.6053 H   0  0  0  0  0  0  0  0  0  0  0  0
   -2.2833   -2.3088   -1.2001 H   0  0  0  0  0  0  0  0  0  0  0  0
   -3.4584   -3.7626   -1.2276 H   0  0  0  0  0  0  0  0  0  0  0  0
   -1.9967   -1.0807   -3.2187 H   0  0  0  0  0  0  0  0  0  0  0  0
   -2.2267   -1.1643   -5.7235 H   0  0  0  0  0  0  0  0  0  0  0  0
   -4.9825   -4.3724   -5.4014 H   0  0  0  0  0  0  0  0  0  0  0  0
   -4.7455   -4.2793   -2.9722 H   0  0  0  0  0  0  0  0  0  0  0  0
   -4.6558   -2.5871   -7.4760 H   0  0  0  0  0  0  0  0  0  0  0  0
   -3.8680   -3.1217    3.2989 H   0  0  0  0  0  0  0  0  0  0  0  0
   -3.0523   -1.6934    2.5898 H   0  0  0  0  0  0  0  0  0  0  0  0
   -4.6768   -1.5043    3.4400 H   0  0  0  0  0  0  0  0  0  0  0  0
   -5.2419   -4.5669    1.1870 H   0  0  0  0  0  0  0  0  0  0  0  0
   -3.0731   -6.1286    0.1966 H   0  0  0  0  0  0  0  0  0  0  0  0
   -0.8145   -5.0604    1.7363 H   0  0  0  0  0  0  0  0  0  0  0  0
    1.6386   -7.3395    0.4625 H   0  0  0  0  0  0  0  0  0  0  0  0
    0.6582   -4.5394    0.0971 H   0  0  0  0  0  0  0  0  0  0  0  0
    2.1349   -2.9898   -0.8343 H   0  0  0  0  0  0  0  0  0  0  0  0
    5.0124   -3.4437   -0.0749 H   0  0  0  0  0  0  0  0  0  0  0  0
    6.0448   -0.7042   -0.4069 H   0  0  0  0  0  0  0  0  0  0  0  0
    3.6066    0.9884    0.1166 H   0  0  0  0  0  0  0  0  0  0  0  0
    6.2437    0.2209    1.9466 H   0  0  0  0  0  0  0  0  0  0  0  0
    4.8326   -0.7407    2.3531 H   0  0  0  0  0  0  0  0  0  0  0  0
    8.5181   -1.1823    1.3909 H   0  0  0  0  0  0  0  0  0  0  0  0
    9.3588   -3.4851    2.0370 H   0  0  0  0  0  0  0  0  0  0  0  0
    4.0833   -3.0713    2.7343 H   0  0  0  0  0  0  0  0  0  0  0  0
    3.9455   -5.4399    3.5557 H   0  0  0  0  0  0  0  0  0  0  0  0
    6.0316   -6.8219    3.6804 H   0  0  0  0  0  0  0  0  0  0  0  0
    8.2270   -5.8318    3.0121 H   0  0  0  0  0  0  0  0  0  0  0  0
    3.6687   -3.2711   -2.7759 H   0  0  0  0  0  0  0  0  0  0  0  0
    4.4126   -4.6847   -2.0230 H   0  0  0  0  0  0  0  0  0  0  0  0
    3.0844   -6.6050   -4.0055 H   0  0  0  0  0  0  0  0  0  0  0  0
    2.7170   -5.0536   -4.9322 H   0  0  0  0  0  0  0  0  0  0  0  0
    0.2992   -6.7637    2.9185 H   0  0  0  0  0  0  0  0  0  0  0  0
    2.0489   -7.2189    2.6510 H   0  0  0  0  0  0  0  0  0  0  0  0
    1.5100   -5.5164    2.6464 H   0  0  0  0  0  0  0  0  0  0  0  0
   -3.3111   -6.0192    3.1864 H   0  0  0  0  0  0  0  0  0  0  0  0
   -4.5867   -6.3277    1.9853 H   0  0  0  0  0  0  0  0  0  0  0  0
   -1.6989   -7.9366    3.7337 H   0  0  0  0  0  0  0  0  0  0  0  0
   -1.3251  -10.4165    3.4979 H   0  0  0  0  0  0  0  0  0  0  0  0
   -2.5905  -11.7386    1.9058 H   0  0  0  0  0  0  0  0  0  0  0  0
   -4.2337  -10.6943    0.4570 H   0  0  0  0  0  0  0  0  0  0  0  0
   -4.6631   -8.2543    0.6077 H   0  0  0  0  0  0  0  0  0  0  0  0
   -7.9186   -1.1078    1.9857 H   0  0  0  0  0  0  0  0  0  0  0  0
  1  2  1  0
  2  3  2  3
  2  4  1  0
  4  5  1  0
  5  6  1  0
  6  7  1  0
  7  8  1  0
  8  9  1  0
  9 10  1  0
 10 11  2  0
 10 12  1  0
 12 13  1  0
 13 14  1  0
 14 15  2  0
 15 16  1  0
 16 17  2  0
 17 18  1  0
 18 19  2  0
 12 20  1  0
 20 21  1  0
 21 22  2  0
 21 23  1  0
 23 24  1  0
 24 25  1  0
 25 26  1  0
 26 27  1  0
 27 28  1  0
 28 29  2  0
 28 30  1  0
 30 31  1  0
 31 32  1  0
 32 33  2  0
 32 34  1  0
 34 35  1  0
 35 36  1  0
 36 37  2  0
 37 38  1  0
 38 39  2  0
 39 40  1  0
 40 41  2  0
 39 42  1  0
 34 43  1  0
 30 44  1  0
 44 45  1  0
 45 46  2  0
 45 47  1  0
 47 48  1  0
 48 49  1  0
 49 50  2  0
 49 51  1  0
 48 52  1  0
 52 53  1  0
 53 54  2  0
 54 55  1  0
 55 56  2  0
 56 57  1  0
 57 58  2  0
 56 59  1  0
 47 60  1  0
 60 61  1  0
 60 62  1  0
 62 63  1  0
 63 64  2  0
 63 65  1  0
 65 66  1  0
 66 67  1  0
 67 68  2  0
 67 69  1  0
 69 70  1  0
 70 71  1  0
 71 72  2  0
 71 73  1  0
 73 74  1  0
 74 75  1  0
 75 76  2  0
 75 77  1  0
 77 78  1  0
 78 79  1  0
 79 80  2  0
 77 81  1  0
 81 82  1  0
 82 83  2  0
 83 84  1  0
 84 85  1  0
 85 86  2  0
 86 87  1  0
 87 88  2  0
 88 89  1  0
 89 90  2  0
 73 91  1  0
 91 92  1  0
 92 93  2  0
 92 94  1  0
 69 95  1  0
 65 96  1  0
 96 97  1  0
 97 98  2  0
 98 99  1  0
 99100  2  0
100101  1  0
101102  2  0
 60103  1  0
103104  2  0
103105  1  0
 79  8  1  0
 86 82  1  0
102 97  1  0
 19 14  1  0
 27 23  1  0
 41 36  1  0
 58 53  1  0
 90 85  1  0
  1106  1  0
  1107  1  0
  3108  1  0
  4109  1  0
  5110  1  0
  5111  1  0
  6112  1  0
  6113  1  0
  7114  1  0
  7115  1  0
  8116  1  6
  9117  1  0
 12118  1  1
 13119  1  0
 13120  1  0
 15121  1  0
 16122  1  0
 17123  1  0
 18124  1  0
 19125  1  0
 20126  1  0
 23127  1  6
 24128  1  0
 24129  1  0
 25130  1  0
 25131  1  0
 26132  1  0
 26133  1  0
 30134  1  1
 31135  1  0
 34136  1  1
 35137  1  0
 35138  1  0
 37139  1  0
 38140  1  0
 40141  1  0
 41142  1  0
 42143  1  0
 43144  1  0
 43145  1  0
 44146  1  0
 44147  1  0
 48148  1  6
 51149  1  0
 51150  1  0
 52151  1  0
 52152  1  0
 54153  1  0
 55154  1  0
 57155  1  0
 58156  1  0
 59157  1  0
 61158  1  0
 61159  1  0
 61160  1  0
 62161  1  0
 65162  1  6
 66163  1  0
 69164  1  6
 70165  1  0
 73166  1  6
 74167  1  0
 77168  1  6
 78169  1  0
 81170  1  0
 81171  1  0
 83172  1  0
 84173  1  0
 87174  1  0
 88175  1  0
 89176  1  0
 90177  1  0
 91178  1  0
 91179  1  0
 94180  1  0
 94181  1  0
 95182  1  0
 95183  1  0
 95184  1  0
 96185  1  0
 96186  1  0
 98187  1  0
 99188  1  0
100189  1  0
101190  1  0
102191  1  0
105192  1  0
M  END
>  <Ligand ID>  (1) 
LIG0002289

>  <Ligand>  (1) 
CHEMBL2096725

>  <SMILES>  (1) 
NC(=N)NCCC[C@@H]1NC(=O)[C@@H](Cc2ccccc2)NC(=O)[C@@H]2CCCN2C(=O)[C@@H](NC(=O)[C@H](Cc2ccc(cc2)O)N)CC(=O)N([C@H](C(=O)N)Cc2ccc(cc2)O)C(C)(NC(=O)[C@@H](NC(=O)[C@@H](NC(=O)[C@@H](NC(=O)[C@@H](NC1=O)Cc1c[nH]c2c1cccc2)CC(=O)N)C)Cc1ccccc1)C(=O)O

>  <CID>  (1) 
91900712.0

>  <ChEMBL ID>  (1) 
nan

>  <InChiKey>  (1) 
SEYGCFZCZOOPJP-KMSOYGCPSA-N

>  <InChi>  (1) 
InChI=1S/C72H87N17O16/c1-39-61(95)82-52(33-41-15-7-4-8-16-41)67(101)87-72(2,70(104)105)89(57(60(75)94)34-43-23-27-46(91)28-24-43)59(93)37-55(86-62(96)48(73)31-42-21-25-45(90)26-22-42)69(103)88-30-12-20-56(88)68(102)85-51(32-40-13-5-3-6-14-40)65(99)81-50(19-11-29-78-71(76)77)63(97)83-53(35-44-38-79-49-18-10-9-17-47(44)49)66(100)84-54(36-58(74)92)64(98)80-39/h3-10,13-18,21-28,38-39,48,50-57,79,90-91H,11-12,19-20,29-37,73H2,1-2H3,(H2,74,92)(H2,75,94)(H,80,98)(H,81,99)(H,82,95)(H,83,97)(H,84,100)(H,85,102)(H,86,96)(H,87,101)(H,104,105)(H4,76,77,78)/t39-,48-,50-,51+,52-,53-,54-,55-,56-,57-,72?/m0/s1

>  <IUPAC Name>  (1) 
(3S,10S,13S,16S,19S,22S,25R,28S)-6-[(2S)-1-amino-3-(4-hydroxyphenyl)-1-oxopropan-2-yl]-3-[[(2S)-2-amino-3-(4-hydroxyphenyl)propanoyl]amino]-16-(2-amino-2-oxoethyl)-10,25-dibenzyl-22-(3-carbamimidamidopropyl)-19-(1H-indol-3-ylmethyl)-7,13-dimethyl-2,5,9,12,15,18,21,24,27-nonaoxo-1,6,8,11,14,17,20,23,26-nonazabicyclo[26.3.0]hentriacontane-7-carboxylic acid

$$$$
