
     RDKit          3D

 57 59  0  0  0  0  0  0  0  0999 V2000
   -5.9958    1.5074   -1.3363 C   0  0  0  0  0  0  0  0  0  0  0  0
   -6.6059    0.1742   -1.0088 C   0  0  0  0  0  0  0  0  0  0  0  0
   -5.8815   -0.4762    0.0119 O   0  0  0  0  0  0  0  0  0  0  0  0
   -6.2586   -1.7278    0.4856 C   0  0  0  0  0  0  0  0  0  0  0  0
   -7.2692   -2.2537   -0.0299 O   0  0  0  0  0  0  0  0  0  0  0  0
   -5.5233   -2.4473    1.5592 C   0  0  0  0  0  0  0  0  0  0  0  0
   -4.4267   -1.6771    1.9217 O   0  0  0  0  0  0  0  0  0  0  0  0
   -3.3673   -1.2973    1.1306 C   0  0  0  0  0  0  0  0  0  0  0  0
   -3.2593   -1.6629   -0.1758 C   0  0  0  0  0  0  0  0  0  0  0  0
   -2.1660   -1.2366   -0.8904 C   0  0  0  0  0  0  0  0  0  0  0  0
   -1.1626   -0.4541   -0.3579 C   0  0  0  0  0  0  0  0  0  0  0  0
   -1.2673   -0.0831    0.9594 C   0  0  0  0  0  0  0  0  0  0  0  0
   -2.3794   -0.5158    1.6878 C   0  0  0  0  0  0  0  0  0  0  0  0
   -0.4184    0.7213    1.8379 C   0  0  0  0  0  0  0  0  0  0  0  0
    0.9665    1.0401    1.2481 C   0  0  2  0  0  0  0  0  0  0  0  0
    0.8068    1.8186    0.0117 C   0  0  0  0  0  0  0  0  0  0  0  0
    0.4031    1.2138   -1.2480 C   0  0  0  0  0  0  0  0  0  0  0  0
   -0.1024   -0.1554   -1.3400 C   0  0  0  0  0  0  0  0  0  0  0  0
    1.8591   -0.0224    1.3599 N   0  0  0  0  0  0  0  0  0  0  0  0
    3.2428    0.1140    1.1436 C   0  0  0  0  0  0  0  0  0  0  0  0
    3.6709    0.3144   -0.2514 C   0  0  1  0  0  0  0  0  0  0  0  0
    5.1681    0.2699   -0.3936 C   0  0  0  0  0  0  0  0  0  0  0  0
    5.7589   -0.0651   -1.6047 C   0  0  0  0  0  0  0  0  0  0  0  0
    7.1471   -0.1108   -1.7512 C   0  0  0  0  0  0  0  0  0  0  0  0
    7.9402    0.1922   -0.6383 C   0  0  0  0  0  0  0  0  0  0  0  0
    7.3779    0.5265    0.5691 C   0  0  0  0  0  0  0  0  0  0  0  0
    5.9985    0.5577    0.6638 C   0  0  0  0  0  0  0  0  0  0  0  0
    8.3797    0.9128    1.9743 Cl  0  0  0  0  0  0  0  0  0  0  0  0
    3.2461   -0.8290   -0.9784 O   0  0  0  0  0  0  0  0  0  0  0  0
   -4.9122    1.4203   -1.5446 H   0  0  0  0  0  0  0  0  0  0  0  0
   -6.1271    2.1785   -0.4648 H   0  0  0  0  0  0  0  0  0  0  0  0
   -6.5334    1.9619   -2.1943 H   0  0  0  0  0  0  0  0  0  0  0  0
   -7.6355    0.3366   -0.5900 H   0  0  0  0  0  0  0  0  0  0  0  0
   -6.6541   -0.4282   -1.9237 H   0  0  0  0  0  0  0  0  0  0  0  0
   -6.1962   -2.5246    2.4379 H   0  0  0  0  0  0  0  0  0  0  0  0
   -5.2666   -3.4858    1.2666 H   0  0  0  0  0  0  0  0  0  0  0  0
   -3.9788   -2.2734   -0.6807 H   0  0  0  0  0  0  0  0  0  0  0  0
   -2.0855   -1.5349   -1.9489 H   0  0  0  0  0  0  0  0  0  0  0  0
   -2.4797   -0.2273    2.7463 H   0  0  0  0  0  0  0  0  0  0  0  0
   -0.9050    1.7082    1.9942 H   0  0  0  0  0  0  0  0  0  0  0  0
   -0.2864    0.2199    2.8104 H   0  0  0  0  0  0  0  0  0  0  0  0
    1.3413    1.8176    2.0180 H   0  0  0  0  0  0  0  0  0  0  0  0
   -0.0475    2.5613    0.2709 H   0  0  0  0  0  0  0  0  0  0  0  0
    1.6528    2.5670   -0.1029 H   0  0  0  0  0  0  0  0  0  0  0  0
   -0.3526    1.8693   -1.8027 H   0  0  0  0  0  0  0  0  0  0  0  0
    1.2922    1.2839   -1.9573 H   0  0  0  0  0  0  0  0  0  0  0  0
    0.6406   -0.9801   -1.4170 H   0  0  0  0  0  0  0  0  0  0  0  0
   -0.6243   -0.2372   -2.3546 H   0  0  0  0  0  0  0  0  0  0  0  0
    1.6777   -0.5449    2.2428 H   0  0  0  0  0  0  0  0  0  0  0  0
    3.8183   -0.8048    1.5128 H   0  0  0  0  0  0  0  0  0  0  0  0
    3.5843    0.9394    1.8309 H   0  0  0  0  0  0  0  0  0  0  0  0
    3.3530    1.1812   -0.7989 H   0  0  0  0  0  0  0  0  0  0  0  0
    5.1307   -0.3024   -2.4748 H   0  0  0  0  0  0  0  0  0  0  0  0
    7.6285   -0.3666   -2.6670 H   0  0  0  0  0  0  0  0  0  0  0  0
    9.0128    0.1508   -0.7676 H   0  0  0  0  0  0  0  0  0  0  0  0
    5.6010    0.8291    1.6370 H   0  0  0  0  0  0  0  0  0  0  0  0
    3.4694   -1.6630   -0.5047 H   0  0  0  0  0  0  0  0  0  0  0  0
  1  2  1  0
  2  3  1  0
  3  4  1  0
  4  5  2  0
  4  6  1  0
  6  7  1  0
  7  8  1  0
  8  9  2  0
  9 10  1  0
 10 11  2  0
 11 12  1  0
 12 13  2  0
 12 14  1  0
 14 15  1  0
 15 16  1  0
 16 17  1  0
 17 18  1  0
 15 19  1  0
 19 20  1  0
 20 21  1  0
 21 22  1  0
 22 23  2  0
 23 24  1  0
 24 25  2  0
 25 26  1  0
 26 27  2  0
 26 28  1  0
 21 29  1  0
 13  8  1  0
 27 22  1  0
 18 11  1  0
  1 30  1  0
  1 31  1  0
  1 32  1  0
  2 33  1  0
  2 34  1  0
  6 35  1  0
  6 36  1  0
  9 37  1  0
 10 38  1  0
 13 39  1  0
 14 40  1  0
 14 41  1  0
 15 42  1  1
 16 43  1  0
 16 44  1  0
 17 45  1  0
 17 46  1  0
 18 47  1  0
 18 48  1  0
 19 49  1  0
 20 50  1  0
 20 51  1  0
 21 52  1  6
 23 53  1  0
 24 54  1  0
 25 55  1  0
 27 56  1  0
 29 57  1  0
M  END
>  <Ligand ID>  (1) 
LIG0001937

>  <Ligand>  (1) 
CHEMBL59765

>  <SMILES>  (1) 
CCOC(=O)COc1ccc2c(c1)C[C@H](CCC2)NC[C@@H](c1cccc(c1)Cl)O

>  <CID>  (1) 
9803988.0

>  <ChEMBL ID>  (1) 
nan

>  <InChiKey>  (1) 
QFMUIHJMDMGJAY-UNMCSNQZSA-N

>  <InChi>  (1) 
InChI=1S/C23H28ClNO4/c1-2-28-23(27)15-29-21-10-9-16-5-4-8-20(12-18(16)13-21)25-14-22(26)17-6-3-7-19(24)11-17/h3,6-7,9-11,13,20,22,25-26H,2,4-5,8,12,14-15H2,1H3/t20-,22-/m0/s1

>  <IUPAC Name>  (1) 
ethyl 2-[[(6S)-6-[[(2R)-2-(3-chlorophenyl)-2-hydroxyethyl]amino]-6,7,8,9-tetrahydro-5H-benzo[7]annulen-3-yl]oxy]acetate

$$$$
