
     RDKit          3D

 68 70  0  0  0  0  0  0  0  0999 V2000
    0.9621   -3.5746   -1.2164 O   0  0  0  0  0  0  0  0  0  0  0  0
    0.7291   -2.3010   -0.5962 C   0  0  0  0  0  0  0  0  0  0  0  0
   -0.1313   -2.5903    0.6527 C   0  0  0  0  0  0  0  0  0  0  0  0
   -1.3699   -3.1360    0.1479 O   0  0  0  0  0  0  0  0  0  0  0  0
   -2.2315   -2.3049   -0.5392 C   0  0  0  0  0  0  0  0  0  0  0  0
   -3.3852   -2.8601   -1.1046 C   0  0  0  0  0  0  0  0  0  0  0  0
   -4.2865   -2.0849   -1.7924 C   0  0  0  0  0  0  0  0  0  0  0  0
   -4.0884   -0.7061   -1.9556 C   0  0  0  0  0  0  0  0  0  0  0  0
   -2.9538   -0.1671   -1.3958 C   0  0  0  0  0  0  0  0  0  0  0  0
   -2.0352   -0.9515   -0.6962 C   0  0  0  0  0  0  0  0  0  0  0  0
   -5.0378   -0.0366   -2.6561 O   0  0  0  0  0  0  0  0  0  0  0  0
   -5.2014    1.2874   -2.9715 C   0  0  0  0  0  0  0  0  0  0  0  0
   -5.4356    2.3043   -1.9202 C   0  0  0  0  0  0  0  0  0  0  0  0
   -6.5233    2.2210   -1.1387 O   0  0  0  0  0  0  0  0  0  0  0  0
   -6.7627    1.1964   -0.3070 C   0  0  0  0  0  0  0  0  0  0  0  0
   -8.0723    0.5293   -0.7875 C   0  0  0  0  0  0  0  0  0  0  0  0
   -9.1741    1.2351   -0.0568 C   0  0  0  0  0  0  0  0  0  0  0  0
   -8.5123    2.3054    0.8020 C   0  0  0  0  0  0  0  0  0  0  0  0
   -7.1780    1.6172    1.0945 C   0  0  0  0  0  0  0  0  0  0  0  0
    2.0479   -1.7967   -0.1849 C   0  0  0  0  0  0  0  0  0  0  0  0
    2.7590   -2.5855    0.8013 N   0  0  0  0  0  0  0  0  0  0  0  0
    4.1230   -2.0557    0.7853 C   0  0  0  0  0  0  0  0  0  0  0  0
    5.0087   -2.6379    1.8489 C   0  0  0  0  0  0  0  0  0  0  0  0
    6.3448   -2.1073    1.6123 N   0  0  0  0  0  0  0  0  0  0  0  0
    6.7142   -0.7558    1.6178 C   0  0  0  0  0  0  0  0  0  0  0  0
    5.8613    0.1072    1.8727 O   0  0  0  0  0  0  0  0  0  0  0  0
    8.0440   -0.4103    1.3296 N   0  0  0  0  0  0  0  0  0  0  0  0
    8.5891    0.8990    1.2973 C   0  0  0  0  0  0  0  0  0  0  0  0
    9.8623    0.9985    0.7024 C   0  0  0  0  0  0  0  0  0  0  0  0
   10.5053    2.2396    0.6377 C   0  0  0  0  0  0  0  0  0  0  0  0
    9.8434    3.2949    1.1684 C   0  0  0  0  0  0  0  0  0  0  0  0
    8.6030    3.2732    1.7619 C   0  0  0  0  0  0  0  0  0  0  0  0
    7.9880    2.0091    1.8083 C   0  0  0  0  0  0  0  0  0  0  0  0
    7.8571    4.7087    2.4146 Cl  0  0  0  0  0  0  0  0  0  0  0  0
    1.5535   -3.4554   -1.9935 H   0  0  0  0  0  0  0  0  0  0  0  0
    0.2192   -1.7153   -1.3614 H   0  0  0  0  0  0  0  0  0  0  0  0
    0.4070   -3.2453    1.3250 H   0  0  0  0  0  0  0  0  0  0  0  0
   -0.3537   -1.5992    1.0944 H   0  0  0  0  0  0  0  0  0  0  0  0
   -3.5905   -3.9212   -1.0104 H   0  0  0  0  0  0  0  0  0  0  0  0
   -5.1656   -2.5787   -2.2117 H   0  0  0  0  0  0  0  0  0  0  0  0
   -2.7817    0.8859   -1.5191 H   0  0  0  0  0  0  0  0  0  0  0  0
   -1.1987   -0.4053   -0.2833 H   0  0  0  0  0  0  0  0  0  0  0  0
   -4.2462    1.5949   -3.5211 H   0  0  0  0  0  0  0  0  0  0  0  0
   -5.9819    1.4379   -3.7758 H   0  0  0  0  0  0  0  0  0  0  0  0
   -5.4528    3.3355   -2.4115 H   0  0  0  0  0  0  0  0  0  0  0  0
   -4.5455    2.3817   -1.2446 H   0  0  0  0  0  0  0  0  0  0  0  0
   -5.9745    0.4231   -0.2768 H   0  0  0  0  0  0  0  0  0  0  0  0
   -8.0089   -0.5652   -0.5187 H   0  0  0  0  0  0  0  0  0  0  0  0
   -8.1460    0.6736   -1.8995 H   0  0  0  0  0  0  0  0  0  0  0  0
   -9.8798    1.7508   -0.7599 H   0  0  0  0  0  0  0  0  0  0  0  0
   -9.7649    0.5524    0.6033 H   0  0  0  0  0  0  0  0  0  0  0  0
   -9.0936    2.5056    1.7211 H   0  0  0  0  0  0  0  0  0  0  0  0
   -8.2860    3.2216    0.2281 H   0  0  0  0  0  0  0  0  0  0  0  0
   -6.4715    2.2694    1.6001 H   0  0  0  0  0  0  0  0  0  0  0  0
   -7.2916    0.6856    1.6756 H   0  0  0  0  0  0  0  0  0  0  0  0
    2.7315   -1.7315   -1.0604 H   0  0  0  0  0  0  0  0  0  0  0  0
    1.9119   -0.7910    0.2933 H   0  0  0  0  0  0  0  0  0  0  0  0
    2.8419   -3.5702    0.4529 H   0  0  0  0  0  0  0  0  0  0  0  0
    4.0191   -0.9689    0.9630 H   0  0  0  0  0  0  0  0  0  0  0  0
    4.5570   -2.1367   -0.2337 H   0  0  0  0  0  0  0  0  0  0  0  0
    4.9558   -3.7189    1.8539 H   0  0  0  0  0  0  0  0  0  0  0  0
    4.6170   -2.2679    2.8294 H   0  0  0  0  0  0  0  0  0  0  0  0
    7.0702   -2.8630    1.4166 H   0  0  0  0  0  0  0  0  0  0  0  0
    8.6981   -1.2292    1.1268 H   0  0  0  0  0  0  0  0  0  0  0  0
   10.3540    0.1125    0.2866 H   0  0  0  0  0  0  0  0  0  0  0  0
   11.4785    2.2748    0.1707 H   0  0  0  0  0  0  0  0  0  0  0  0
   10.3348    4.2724    1.1273 H   0  0  0  0  0  0  0  0  0  0  0  0
    7.0205    1.9784    2.2768 H   0  0  0  0  0  0  0  0  0  0  0  0
  1  2  1  0
  2  3  1  0
  3  4  1  0
  4  5  1  0
  5  6  2  0
  6  7  1  0
  7  8  2  0
  8  9  1  0
  9 10  2  0
  8 11  1  0
 11 12  1  0
 12 13  1  0
 13 14  1  0
 14 15  1  0
 15 16  1  0
 16 17  1  0
 17 18  1  0
 18 19  1  0
  2 20  1  0
 20 21  1  0
 21 22  1  0
 22 23  1  0
 23 24  1  0
 24 25  1  0
 25 26  2  0
 25 27  1  0
 27 28  1  0
 28 29  2  0
 29 30  1  0
 30 31  2  0
 31 32  1  0
 32 33  2  0
 32 34  1  0
 10  5  1  0
 19 15  1  0
 33 28  1  0
  1 35  1  0
  2 36  1  0
  3 37  1  0
  3 38  1  0
  6 39  1  0
  7 40  1  0
  9 41  1  0
 10 42  1  0
 12 43  1  0
 12 44  1  0
 13 45  1  0
 13 46  1  0
 15 47  1  0
 16 48  1  0
 16 49  1  0
 17 50  1  0
 17 51  1  0
 18 52  1  0
 18 53  1  0
 19 54  1  0
 19 55  1  0
 20 56  1  0
 20 57  1  0
 21 58  1  0
 22 59  1  0
 22 60  1  0
 23 61  1  0
 23 62  1  0
 24 63  1  0
 27 64  1  0
 29 65  1  0
 30 66  1  0
 31 67  1  0
 33 68  1  0
M  END
>  <Ligand ID>  (1) 
LIG0003040

>  <Ligand>  (1) 
CHEMBL2348201

>  <SMILES>  (1) 
OC(COc1ccc(cc1)OCCOC1CCCC1)CNCCNC(=O)Nc1cccc(c1)Cl

>  <CID>  (1) 
66653268.0

>  <ChEMBL ID>  (1) 
nan

>  <InChiKey>  (1) 
IMCUOTHFJIPMIY-UHFFFAOYSA-N

>  <InChi>  (1) 
InChI=1S/C25H34ClN3O5/c26-19-4-3-5-20(16-19)29-25(31)28-13-12-27-17-21(30)18-34-24-10-8-23(9-11-24)33-15-14-32-22-6-1-2-7-22/h3-5,8-11,16,21-22,27,30H,1-2,6-7,12-15,17-18H2,(H2,28,29,31)

>  <IUPAC Name>  (1) 
1-(3-chlorophenyl)-3-[2-[[3-[4-(2-cyclopentyloxyethoxy)phenoxy]-2-hydroxypropyl]amino]ethyl]urea

$$$$
