
     RDKit          3D

103107  0  0  0  0  0  0  0  0999 V2000
    4.9638    2.5468    0.3312 O   0  0  0  0  0  0  0  0  0  0  0  0
    4.1182    2.0332    1.1290 C   0  0  0  0  0  0  0  0  0  0  0  0
    3.3117    0.9177    0.7356 N   0  0  0  0  0  0  0  0  0  0  0  0
    3.3925    0.3010   -0.5545 C   0  0  2  0  0  0  0  0  0  0  0  0
    2.1147    0.3190   -1.3062 C   0  0  0  0  0  0  0  0  0  0  0  0
    1.2379    1.1359   -0.8317 O   0  0  0  0  0  0  0  0  0  0  0  0
    1.8208   -0.4595   -2.4370 N   0  0  0  0  0  0  0  0  0  0  0  0
    0.6171   -0.4731   -3.2124 C   0  0  2  0  0  0  0  0  0  0  0  0
   -0.5188   -1.2443   -2.5954 C   0  0  0  0  0  0  0  0  0  0  0  0
   -1.5092   -1.5855   -3.3351 O   0  0  0  0  0  0  0  0  0  0  0  0
   -0.5388   -1.5948   -1.2417 N   0  0  0  0  0  0  0  0  0  0  0  0
   -1.6209   -2.3390   -0.5716 C   0  0  2  0  0  0  0  0  0  0  0  0
   -2.7435   -1.3910   -0.2664 C   0  0  0  0  0  0  0  0  0  0  0  0
   -3.7462   -1.6638    0.4160 O   0  0  0  0  0  0  0  0  0  0  0  0
   -2.6973   -0.0472   -0.7938 N   0  0  0  0  0  0  0  0  0  0  0  0
   -3.8093    0.8291   -0.4753 C   0  0  2  0  0  0  0  0  0  0  0  0
   -4.8137    0.5517   -1.5949 C   0  0  0  0  0  0  0  0  0  0  0  0
   -5.9278    1.1224   -1.6105 O   0  0  0  0  0  0  0  0  0  0  0  0
   -4.5136   -0.3565   -2.6408 N   0  0  0  0  0  0  0  0  0  0  0  0
   -3.5130    2.2740   -0.5701 C   0  0  0  0  0  0  0  0  0  0  0  0
   -4.6335    3.1854   -0.2507 C   0  0  0  0  0  0  0  0  0  0  0  0
   -5.4509    3.8021   -1.2071 C   0  0  0  0  0  0  0  0  0  0  0  0
   -6.3767    4.5451   -0.5652 N   0  0  0  0  0  0  0  0  0  0  0  0
   -6.1818    4.4266    0.7614 C   0  0  0  0  0  0  0  0  0  0  0  0
   -5.1039    3.5875    1.0041 C   0  0  0  0  0  0  0  0  0  0  0  0
   -4.6984    3.3237    2.2783 C   0  0  0  0  0  0  0  0  0  0  0  0
   -5.4033    3.9246    3.3296 C   0  0  0  0  0  0  0  0  0  0  0  0
   -6.4879    4.7680    3.0636 C   0  0  0  0  0  0  0  0  0  0  0  0
   -6.9011    5.0361    1.7736 C   0  0  0  0  0  0  0  0  0  0  0  0
   -1.1187   -3.0427    0.6014 C   0  0  0  0  0  0  0  0  0  0  0  0
   -2.1804   -3.8224    1.3258 C   0  0  0  0  0  0  0  0  0  0  0  0
   -1.5599   -4.5468    2.5357 C   0  0  0  0  0  0  0  0  0  0  0  0
   -1.0025   -3.5248    3.4162 N   0  0  0  0  0  0  0  0  0  0  0  0
   -1.2741   -3.5414    4.6932 C   0  0  0  0  0  0  0  0  0  0  0  0
   -2.1142   -4.5425    5.2707 N   0  0  0  0  0  0  0  0  0  0  0  0
   -0.7485   -2.5667    5.5898 N   0  0  0  0  0  0  0  0  0  0  0  0
    0.7193   -0.5521   -4.6702 C   0  0  0  0  0  0  0  0  0  0  0  0
    1.3639   -1.6816   -5.3085 C   0  0  0  0  0  0  0  0  0  0  0  0
    0.6403   -2.7997   -5.7142 C   0  0  0  0  0  0  0  0  0  0  0  0
    1.2343   -3.8807   -6.3273 C   0  0  0  0  0  0  0  0  0  0  0  0
    2.5917   -3.8475   -6.5433 C   0  0  0  0  0  0  0  0  0  0  0  0
    3.3422   -2.7686   -6.1608 C   0  0  0  0  0  0  0  0  0  0  0  0
    2.7398   -1.6946   -5.5493 C   0  0  0  0  0  0  0  0  0  0  0  0
    4.0673   -1.0083   -0.6478 C   0  0  0  0  0  0  0  0  0  0  0  0
    3.5314   -2.1405    0.0962 C   0  0  0  0  0  0  0  0  0  0  0  0
    4.1478   -3.4037    0.0547 C   0  0  0  0  0  0  0  0  0  0  0  0
    3.4881   -4.2690    0.8153 N   0  0  0  0  0  0  0  0  0  0  0  0
    2.4604   -3.5954    1.3473 C   0  0  0  0  0  0  0  0  0  0  0  0
    2.4896   -2.3230    0.9142 N   0  0  0  0  0  0  0  0  0  0  0  0
    3.9404    2.5825    2.5164 C   0  0  0  0  0  0  0  0  0  0  0  0
    4.8949    3.7159    2.7005 C   0  0  0  0  0  0  0  0  0  0  0  0
    4.5442    5.0370    2.5390 C   0  0  0  0  0  0  0  0  0  0  0  0
    5.5404    5.9723    2.7491 C   0  0  0  0  0  0  0  0  0  0  0  0
    6.8331    5.6315    3.1044 C   0  0  0  0  0  0  0  0  0  0  0  0
    7.1725    4.2938    3.2647 C   0  0  0  0  0  0  0  0  0  0  0  0
    6.1917    3.3513    3.0583 C   0  0  0  0  0  0  0  0  0  0  0  0
    8.0819    6.8377    3.3650 Cl  0  0  0  0  0  0  0  0  0  0  0  0
    2.6440    0.5679    1.4369 H   0  0  0  0  0  0  0  0  0  0  0  0
    4.0805    1.0061   -1.1617 H   0  0  0  0  0  0  0  0  0  0  0  0
    2.5750   -1.1333   -2.7804 H   0  0  0  0  0  0  0  0  0  0  0  0
    0.2303    0.6119   -3.0181 H   0  0  0  0  0  0  0  0  0  0  0  0
    0.2566   -1.3342   -0.6259 H   0  0  0  0  0  0  0  0  0  0  0  0
   -2.0282   -3.0512   -1.3449 H   0  0  0  0  0  0  0  0  0  0  0  0
   -1.9105    0.3028   -1.3770 H   0  0  0  0  0  0  0  0  0  0  0  0
   -4.2579    0.4892    0.4572 H   0  0  0  0  0  0  0  0  0  0  0  0
   -4.5693   -0.1344   -3.6592 H   0  0  0  0  0  0  0  0  0  0  0  0
   -4.1983   -1.3599   -2.4418 H   0  0  0  0  0  0  0  0  0  0  0  0
   -3.0976    2.5958   -1.5491 H   0  0  0  0  0  0  0  0  0  0  0  0
   -2.6999    2.5416    0.1718 H   0  0  0  0  0  0  0  0  0  0  0  0
   -5.3564    3.7073   -2.2925 H   0  0  0  0  0  0  0  0  0  0  0  0
   -7.0994    5.0955   -1.0955 H   0  0  0  0  0  0  0  0  0  0  0  0
   -3.8584    2.6720    2.4489 H   0  0  0  0  0  0  0  0  0  0  0  0
   -5.0700    3.7147    4.3331 H   0  0  0  0  0  0  0  0  0  0  0  0
   -6.9777    5.1944    3.9428 H   0  0  0  0  0  0  0  0  0  0  0  0
   -7.7441    5.6847    1.6119 H   0  0  0  0  0  0  0  0  0  0  0  0
   -0.2291   -3.6955    0.3958 H   0  0  0  0  0  0  0  0  0  0  0  0
   -0.7681   -2.2564    1.3440 H   0  0  0  0  0  0  0  0  0  0  0  0
   -2.6230   -4.6367    0.6922 H   0  0  0  0  0  0  0  0  0  0  0  0
   -2.9984   -3.2472    1.7517 H   0  0  0  0  0  0  0  0  0  0  0  0
   -2.3453   -5.1558    3.0194 H   0  0  0  0  0  0  0  0  0  0  0  0
   -0.7890   -5.1954    2.1301 H   0  0  0  0  0  0  0  0  0  0  0  0
   -3.1281   -4.3858    5.4470 H   0  0  0  0  0  0  0  0  0  0  0  0
   -1.7483   -5.4836    5.5413 H   0  0  0  0  0  0  0  0  0  0  0  0
   -1.2012   -1.6061    5.5634 H   0  0  0  0  0  0  0  0  0  0  0  0
    0.0454   -2.7724    6.2531 H   0  0  0  0  0  0  0  0  0  0  0  0
   -0.3115   -0.4728   -5.1393 H   0  0  0  0  0  0  0  0  0  0  0  0
    1.1987    0.4143   -5.0247 H   0  0  0  0  0  0  0  0  0  0  0  0
   -0.4386   -2.8492   -5.5575 H   0  0  0  0  0  0  0  0  0  0  0  0
    0.6984   -4.7630   -6.6544 H   0  0  0  0  0  0  0  0  0  0  0  0
    3.0802   -4.6932   -7.0322 H   0  0  0  0  0  0  0  0  0  0  0  0
    4.4153   -2.8254   -6.3703 H   0  0  0  0  0  0  0  0  0  0  0  0
    3.3278   -0.8473   -5.2457 H   0  0  0  0  0  0  0  0  0  0  0  0
    4.1630   -1.2982   -1.7218 H   0  0  0  0  0  0  0  0  0  0  0  0
    5.1888   -0.8899   -0.3746 H   0  0  0  0  0  0  0  0  0  0  0  0
    5.0538   -3.6671   -0.5192 H   0  0  0  0  0  0  0  0  0  0  0  0
    1.7336   -4.0337    2.0154 H   0  0  0  0  0  0  0  0  0  0  0  0
    1.7926   -1.6082    1.1867 H   0  0  0  0  0  0  0  0  0  0  0  0
    4.1061    1.8031    3.2859 H   0  0  0  0  0  0  0  0  0  0  0  0
    2.9256    2.9993    2.5231 H   0  0  0  0  0  0  0  0  0  0  0  0
    3.5345    5.2954    2.2608 H   0  0  0  0  0  0  0  0  0  0  0  0
    5.3366    7.0239    2.6430 H   0  0  0  0  0  0  0  0  0  0  0  0
    8.1711    4.0177    3.5435 H   0  0  0  0  0  0  0  0  0  0  0  0
    6.4861    2.3127    3.1883 H   0  0  0  0  0  0  0  0  0  0  0  0
  1  2  2  0
  2  3  1  0
  3  4  1  0
  4  5  1  0
  5  6  2  0
  5  7  1  0
  7  8  1  0
  8  9  1  0
  9 10  2  0
  9 11  1  0
 11 12  1  0
 12 13  1  0
 13 14  2  0
 13 15  1  0
 15 16  1  0
 16 17  1  0
 17 18  2  0
 17 19  1  0
 16 20  1  0
 20 21  1  0
 21 22  2  0
 22 23  1  0
 23 24  1  0
 24 25  2  0
 25 26  1  0
 26 27  2  0
 27 28  1  0
 28 29  2  0
 12 30  1  0
 30 31  1  0
 31 32  1  0
 32 33  1  0
 33 34  2  3
 34 35  1  0
 34 36  1  0
  8 37  1  0
 37 38  1  0
 38 39  2  0
 39 40  1  0
 40 41  2  0
 41 42  1  0
 42 43  2  0
  4 44  1  0
 44 45  1  0
 45 46  2  0
 46 47  1  0
 47 48  2  0
 48 49  1  0
  2 50  1  0
 50 51  1  0
 51 52  2  0
 52 53  1  0
 53 54  2  0
 54 55  1  0
 55 56  2  0
 54 57  1  0
 25 21  1  0
 43 38  1  0
 49 45  1  0
 56 51  1  0
 29 24  1  0
  3 58  1  0
  4 59  1  6
  7 60  1  0
  8 61  1  6
 11 62  1  0
 12 63  1  6
 15 64  1  0
 16 65  1  1
 19 66  1  0
 19 67  1  0
 20 68  1  0
 20 69  1  0
 22 70  1  0
 23 71  1  0
 26 72  1  0
 27 73  1  0
 28 74  1  0
 29 75  1  0
 30 76  1  0
 30 77  1  0
 31 78  1  0
 31 79  1  0
 32 80  1  0
 32 81  1  0
 35 82  1  0
 35 83  1  0
 36 84  1  0
 36 85  1  0
 37 86  1  0
 37 87  1  0
 39 88  1  0
 40 89  1  0
 41 90  1  0
 42 91  1  0
 43 92  1  0
 44 93  1  0
 44 94  1  0
 46 95  1  0
 48 96  1  0
 49 97  1  0
 50 98  1  0
 50 99  1  0
 52100  1  0
 53101  1  0
 55102  1  0
 56103  1  0
M  END
>  <Ligand ID>  (1) 
LIG0002643

>  <Ligand>  (1) 
CHEMBL92481

>  <SMILES>  (1) 
O=C(N[C@H](C(=O)N[C@H](C(=O)N[C@H](C(=O)N[C@H](C(=O)N)Cc1c[nH]c2c1cccc2)CCCN=C(N)N)Cc1ccccc1)Cc1cnc[nH]1)Cc1ccc(cc1)Cl

>  <CID>  (1) 
44323029.0

>  <ChEMBL ID>  (1) 
nan

>  <InChiKey>  (1) 
AUPOJQYWSLXSAP-CUPIEXAXSA-N

>  <InChi>  (1) 
InChI=1S/C40H46ClN11O5/c41-27-14-12-25(13-15-27)18-35(53)49-34(20-28-22-45-23-48-28)39(57)52-33(17-24-7-2-1-3-8-24)38(56)50-31(11-6-16-46-40(43)44)37(55)51-32(36(42)54)19-26-21-47-30-10-5-4-9-29(26)30/h1-5,7-10,12-15,21-23,31-34,47H,6,11,16-20H2,(H2,42,54)(H,45,48)(H,49,53)(H,50,56)(H,51,55)(H,52,57)(H4,43,44,46)/t31-,32-,33-,34-/m0/s1

>  <IUPAC Name>  (1) 
(2S)-N-[(2S)-1-amino-3-(1H-indol-3-yl)-1-oxopropan-2-yl]-2-[[(2S)-2-[[(2S)-2-[[2-(4-chlorophenyl)acetyl]amino]-3-(1H-imidazol-5-yl)propanoyl]amino]-3-phenylpropanoyl]amino]-5-(diaminomethylideneamino)pentanamide

$$$$
