
     RDKit          3D

 15 15  0  0  0  0  0  0  0  0999 V2000
    2.0268    2.0112   -0.3596 O   0  0  0  0  0  0  0  0  0  0  0  0
    1.0701    1.2056   -0.2881 C   0  0  0  0  0  0  0  0  0  0  0  0
    1.3182   -0.2828   -0.3242 C   0  0  0  0  0  0  0  0  0  0  0  0
    0.3642   -0.7996    0.7355 C   0  0  0  0  0  0  0  0  0  0  0  0
   -0.9935   -0.7418    0.0448 C   0  0  0  0  0  0  0  0  0  0  0  0
   -1.3408    0.7084   -0.1354 C   0  0  0  0  0  0  0  0  0  0  0  0
   -0.2588    1.5873   -0.1734 O   0  0  0  0  0  0  0  0  0  0  0  0
    2.3707   -0.5357   -0.1496 H   0  0  0  0  0  0  0  0  0  0  0  0
    0.9888   -0.6139   -1.3450 H   0  0  0  0  0  0  0  0  0  0  0  0
    0.3206   -0.0818    1.6022 H   0  0  0  0  0  0  0  0  0  0  0  0
    0.6186   -1.7807    1.1385 H   0  0  0  0  0  0  0  0  0  0  0  0
   -0.8363   -1.1863   -0.9752 H   0  0  0  0  0  0  0  0  0  0  0  0
   -1.7532   -1.3157    0.5742 H   0  0  0  0  0  0  0  0  0  0  0  0
   -1.9181    0.8525   -1.0945 H   0  0  0  0  0  0  0  0  0  0  0  0
   -1.9772    0.9732    0.7498 H   0  0  0  0  0  0  0  0  0  0  0  0
  1  2  2  0
  2  3  1  0
  3  4  1  0
  4  5  1  0
  5  6  1  0
  6  7  1  0
  7  2  1  0
  3  8  1  0
  3  9  1  0
  4 10  1  0
  4 11  1  0
  5 12  1  0
  5 13  1  0
  6 14  1  0
  6 15  1  0
M  END
>  <Ligand ID>  (1) 
LIG0001069

>  <Ligand>  (1) 
Delta-Valerolactone

>  <SMILES>  (1) 
O=C1CCCCO1

>  <CID>  (1) 
10953.0

>  <ChEMBL ID>  (1) 
nan

>  <InChiKey>  (1) 
OZJPLYNZGCXSJM-UHFFFAOYSA-N

>  <InChi>  (1) 
InChI=1S/C5H8O2/c6-5-3-1-2-4-7-5/h1-4H2

>  <IUPAC Name>  (1) 
oxan-2-one

$$$$
