
     RDKit          3D

 40 43  0  0  0  0  0  0  0  0999 V2000
   -3.6010   -3.0035   -1.0050 F   0  0  0  0  0  0  0  0  0  0  0  0
   -4.0930   -1.8741   -0.4412 C   0  0  0  0  0  0  0  0  0  0  0  0
   -5.4483   -1.5796   -0.4147 C   0  0  0  0  0  0  0  0  0  0  0  0
   -5.9385   -0.4197    0.1658 C   0  0  0  0  0  0  0  0  0  0  0  0
   -5.0654    0.4726    0.7351 C   0  0  0  0  0  0  0  0  0  0  0  0
   -3.6951    0.2041    0.7241 C   0  0  0  0  0  0  0  0  0  0  0  0
   -3.2220   -0.9719    0.1332 C   0  0  0  0  0  0  0  0  0  0  0  0
   -1.7779   -1.1698    0.1677 C   0  0  0  0  0  0  0  0  0  0  0  0
   -1.1857   -2.3687    0.5069 C   0  0  0  0  0  0  0  0  0  0  0  0
    0.1974   -2.4856    0.5188 C   0  0  0  0  0  0  0  0  0  0  0  0
    1.0214   -1.4060    0.1917 C   0  0  0  0  0  0  0  0  0  0  0  0
    0.3865   -0.2320   -0.1396 C   0  0  0  0  0  0  0  0  0  0  0  0
   -0.9863   -0.0915   -0.1586 C   0  0  0  0  0  0  0  0  0  0  0  0
    1.3737    0.6787   -0.4203 C   0  0  0  0  0  0  0  0  0  0  0  0
    2.5744   -0.0115   -0.2387 C   0  0  0  0  0  0  0  0  0  0  0  0
    2.3301   -1.2464    0.1243 O   0  0  0  0  0  0  0  0  0  0  0  0
    3.8869    0.6670   -0.4570 C   0  0  0  0  0  0  0  0  0  0  0  0
    4.9847   -0.3574   -0.1766 C   0  0  0  0  0  0  0  0  0  0  0  0
    6.3306    0.2796   -0.3834 C   0  0  0  0  0  0  0  0  0  0  0  0
    7.0757    0.9301    0.5560 N   0  0  0  0  0  0  0  0  0  0  0  0
    8.2040    1.3594    0.0123 N   0  0  0  0  0  0  0  0  0  0  0  0
    8.1886    0.9910   -1.2636 N   0  0  0  0  0  0  0  0  0  0  0  0
    7.0583    0.3370   -1.5111 N   0  0  0  0  0  0  0  0  0  0  0  0
   -5.4555    1.6593    1.3399 O   0  0  0  0  0  0  0  0  0  0  0  0
   -5.5563    2.8569    0.5978 C   0  0  0  0  0  0  0  0  0  0  0  0
   -5.9629    3.9055    1.4179 F   0  0  0  0  0  0  0  0  0  0  0  0
   -6.4868    2.6761   -0.4007 F   0  0  0  0  0  0  0  0  0  0  0  0
   -4.3719    3.2268   -0.0102 F   0  0  0  0  0  0  0  0  0  0  0  0
   -6.1572   -2.2704   -0.8586 H   0  0  0  0  0  0  0  0  0  0  0  0
   -6.9912   -0.1729    0.1962 H   0  0  0  0  0  0  0  0  0  0  0  0
   -3.0002    0.9110    1.1754 H   0  0  0  0  0  0  0  0  0  0  0  0
   -1.8284   -3.1962    0.7579 H   0  0  0  0  0  0  0  0  0  0  0  0
    0.6765   -3.4212    0.7833 H   0  0  0  0  0  0  0  0  0  0  0  0
   -1.4154    0.8593   -0.4283 H   0  0  0  0  0  0  0  0  0  0  0  0
    1.2401    1.7103   -0.7182 H   0  0  0  0  0  0  0  0  0  0  0  0
    4.0191    1.5267    0.2226 H   0  0  0  0  0  0  0  0  0  0  0  0
    3.9347    1.0133   -1.5089 H   0  0  0  0  0  0  0  0  0  0  0  0
    4.9161   -0.6645    0.8743 H   0  0  0  0  0  0  0  0  0  0  0  0
    4.9028   -1.2082   -0.8628 H   0  0  0  0  0  0  0  0  0  0  0  0
    8.9372    1.8864    0.5364 H   0  0  0  0  0  0  0  0  0  0  0  0
  1  2  1  0
  2  3  2  0
  3  4  1  0
  4  5  2  0
  5  6  1  0
  6  7  2  0
  7  8  1  0
  8  9  2  0
  9 10  1  0
 10 11  2  0
 11 12  1  0
 12 13  2  0
 12 14  1  0
 14 15  2  0
 15 16  1  0
 15 17  1  0
 17 18  1  0
 18 19  1  0
 19 20  2  0
 20 21  1  0
 21 22  1  0
 22 23  2  0
  5 24  1  0
 24 25  1  0
 25 26  1  0
 25 27  1  0
 25 28  1  0
  7  2  1  0
 13  8  1  0
 23 19  1  0
 16 11  1  0
  3 29  1  0
  4 30  1  0
  6 31  1  0
  9 32  1  0
 10 33  1  0
 13 34  1  0
 14 35  1  0
 17 36  1  0
 17 37  1  0
 18 38  1  0
 18 39  1  0
 21 40  1  0
M  END
>  <Ligand ID>  (1) 
LIG0002792

>  <Ligand>  (1) 
CHEMBL3953859

>  <SMILES>  (1) 
Fc1ccc(cc1c1ccc2c(c1)cc(o2)CCc1n[nH]nn1)OC(F)(F)F

>  <CID>  (1) 
134145195.0

>  <ChEMBL ID>  (1) 
nan

>  <InChiKey>  (1) 
OOKJDEWYOSGUHO-UHFFFAOYSA-N

>  <InChi>  (1) 
InChI=1S/C18H12F4N4O2/c19-15-4-2-13(28-18(20,21)22)9-14(15)10-1-5-16-11(7-10)8-12(27-16)3-6-17-23-25-26-24-17/h1-2,4-5,7-9H,3,6H2,(H,23,24,25,26)

>  <IUPAC Name>  (1) 
5-[2-[5-[2-fluoro-5-(trifluoromethoxy)phenyl]-1-benzofuran-2-yl]ethyl]-2H-tetrazole

$$$$
