
     RDKit          3D

 44 47  0  0  0  0  0  0  0  0999 V2000
   -3.8864    2.2546   -0.8493 O   0  0  0  0  0  0  0  0  0  0  0  0
   -4.4572    1.0004   -0.8859 C   0  0  0  0  0  0  0  0  0  0  0  0
   -3.9855    0.0412    0.1628 C   0  0  0  0  0  0  0  0  0  0  0  0
   -2.5888   -0.2181    0.0897 N   0  0  0  0  0  0  0  0  0  0  0  0
   -1.5487    0.7221    0.2663 C   0  0  0  0  0  0  0  0  0  0  0  0
   -1.7496    1.9338    0.5217 O   0  0  0  0  0  0  0  0  0  0  0  0
   -0.1293    0.3233    0.1581 C   0  0  0  0  0  0  0  0  0  0  0  0
    0.8997    1.1736    0.3251 N   0  0  0  0  0  0  0  0  0  0  0  0
    2.0575    0.5457    0.1719 N   0  0  0  0  0  0  0  0  0  0  0  0
    1.7727   -0.7340   -0.0993 C   0  0  0  0  0  0  0  0  0  0  0  0
    0.3868   -0.9253   -0.1190 C   0  0  0  0  0  0  0  0  0  0  0  0
    0.0596   -2.3248   -0.4167 C   0  0  0  0  0  0  0  0  0  0  0  0
    1.3914   -3.0063   -0.6331 C   0  0  2  0  0  0  0  0  0  0  0  0
    2.4624   -2.0157   -0.3844 C   0  0  1  0  0  0  0  0  0  0  0  0
    2.2853   -2.5571   -1.7318 C   0  0  0  0  0  0  0  0  0  0  0  0
    3.3344    1.1610    0.2846 C   0  0  0  0  0  0  0  0  0  0  0  0
    4.0540    1.2063    1.4601 C   0  0  0  0  0  0  0  0  0  0  0  0
    5.2906    1.8145    1.5232 C   0  0  0  0  0  0  0  0  0  0  0  0
    6.0147    1.8707    2.6670 F   0  0  0  0  0  0  0  0  0  0  0  0
    5.7660    2.3739    0.3460 C   0  0  0  0  0  0  0  0  0  0  0  0
    5.0812    2.3482   -0.8370 C   0  0  0  0  0  0  0  0  0  0  0  0
    3.8545    1.7364   -0.8682 C   0  0  0  0  0  0  0  0  0  0  0  0
    3.1893    1.7204   -2.0502 F   0  0  0  0  0  0  0  0  0  0  0  0
   -4.3975    0.6353    1.5019 C   0  0  0  0  0  0  0  0  0  0  0  0
   -4.7507   -1.2541    0.0435 C   0  0  0  0  0  0  0  0  0  0  0  0
   -4.3590    2.7505   -0.1200 H   0  0  0  0  0  0  0  0  0  0  0  0
   -4.2753    0.5029   -1.8732 H   0  0  0  0  0  0  0  0  0  0  0  0
   -5.5661    1.1377   -0.8283 H   0  0  0  0  0  0  0  0  0  0  0  0
   -2.2755   -1.2067   -0.1162 H   0  0  0  0  0  0  0  0  0  0  0  0
   -0.6047   -2.4373   -1.3034 H   0  0  0  0  0  0  0  0  0  0  0  0
   -0.4578   -2.7663    0.4352 H   0  0  0  0  0  0  0  0  0  0  0  0
    1.4541   -4.0398   -0.2926 H   0  0  0  0  0  0  0  0  0  0  0  0
    3.2702   -2.3520    0.2977 H   0  0  0  0  0  0  0  0  0  0  0  0
    1.8961   -1.9200   -2.5451 H   0  0  0  0  0  0  0  0  0  0  0  0
    3.0402   -3.2938   -2.0699 H   0  0  0  0  0  0  0  0  0  0  0  0
    3.6500    0.7630    2.3422 H   0  0  0  0  0  0  0  0  0  0  0  0
    6.7448    2.8498    0.4165 H   0  0  0  0  0  0  0  0  0  0  0  0
    5.5409    2.8141   -1.6985 H   0  0  0  0  0  0  0  0  0  0  0  0
   -5.5164    0.5963    1.4891 H   0  0  0  0  0  0  0  0  0  0  0  0
   -4.0922   -0.0087    2.3535 H   0  0  0  0  0  0  0  0  0  0  0  0
   -4.1189    1.6856    1.6056 H   0  0  0  0  0  0  0  0  0  0  0  0
   -5.1034   -1.4732   -0.9741 H   0  0  0  0  0  0  0  0  0  0  0  0
   -5.5820   -1.3319    0.7447 H   0  0  0  0  0  0  0  0  0  0  0  0
   -4.0516   -2.0965    0.3216 H   0  0  0  0  0  0  0  0  0  0  0  0
  1  2  1  0
  2  3  1  0
  3  4  1  0
  4  5  1  0
  5  6  2  0
  5  7  1  0
  7  8  2  0
  8  9  1  0
  9 10  1  0
 10 11  2  0
 11 12  1  0
 12 13  1  0
 13 14  1  0
 14 15  1  0
  9 16  1  0
 16 17  2  0
 17 18  1  0
 18 19  1  0
 18 20  2  0
 20 21  1  0
 21 22  2  0
 22 23  1  0
  3 24  1  0
  3 25  1  0
 11  7  1  0
 15 13  1  0
 22 16  1  0
 14 10  1  0
  1 26  1  0
  2 27  1  0
  2 28  1  0
  4 29  1  0
 12 30  1  0
 12 31  1  0
 13 32  1  1
 14 33  1  1
 15 34  1  0
 15 35  1  0
 17 36  1  0
 20 37  1  0
 21 38  1  0
 24 39  1  0
 24 40  1  0
 24 41  1  0
 25 42  1  0
 25 43  1  0
 25 44  1  0
M  END
>  <Ligand ID>  (1) 
LIG0001491

>  <Ligand>  (1) 
CHEMBL3354971

>  <SMILES>  (1) 
OCC(NC(=O)c1nn(c2c1C[C@@H]1[C@H]2C1)c1cc(F)ccc1F)(C)C

>  <CID>  (1) 
118720578.0

>  <ChEMBL ID>  (1) 
nan

>  <InChiKey>  (1) 
LOPPWNUZPHTWQM-MWLCHTKSSA-N

>  <InChi>  (1) 
InChI=1S/C18H19F2N3O2/c1-18(2,8-24)21-17(25)15-12-6-9-5-11(9)16(12)23(22-15)14-7-10(19)3-4-13(14)20/h3-4,7,9,11,24H,5-6,8H2,1-2H3,(H,21,25)/t9-,11-/m1/s1

>  <IUPAC Name>  (1) 
(2R,4R)-9-(2,5-difluorophenyl)-N-(1-hydroxy-2-methylpropan-2-yl)-8,9-diazatricyclo[4.3.0.02,4]nona-1(6),7-diene-7-carboxamide

$$$$
