
     RDKit          3D

 32 31  0  0  0  0  0  0  0  0999 V2000
   -5.0111   -2.0788   -0.8378 Br  0  0  0  0  0  0  0  0  0  0  0  0
   -4.9343   -0.8098    0.5949 C   0  0  0  0  0  0  0  0  0  0  0  0
   -4.1292    0.4221    0.2221 C   0  0  0  0  0  0  0  0  0  0  0  0
   -2.7077    0.0681   -0.1304 C   0  0  0  0  0  0  0  0  0  0  0  0
   -1.9645    1.3184   -0.4926 C   0  0  0  0  0  0  0  0  0  0  0  0
   -0.5247    1.0523   -0.8603 C   0  0  0  0  0  0  0  0  0  0  0  0
    0.2789    0.4187    0.2247 C   0  0  0  0  0  0  0  0  0  0  0  0
    1.6758    0.2349   -0.3260 C   0  0  0  0  0  0  0  0  0  0  0  0
    2.6055   -0.4025    0.6726 C   0  0  0  0  0  0  0  0  0  0  0  0
    3.9491   -0.5123   -0.0266 C   0  0  0  0  0  0  0  0  0  0  0  0
    5.0027   -1.1181    0.8013 C   0  0  0  0  0  0  0  0  0  0  0  0
    4.9685   -2.3553    1.0347 O   0  0  0  0  0  0  0  0  0  0  0  0
    6.0545   -0.3987    1.3542 O   0  0  0  0  0  0  0  0  0  0  0  0
   -4.4421   -1.2326    1.5145 H   0  0  0  0  0  0  0  0  0  0  0  0
   -5.9641   -0.5397    0.8978 H   0  0  0  0  0  0  0  0  0  0  0  0
   -4.6470    0.8831   -0.6217 H   0  0  0  0  0  0  0  0  0  0  0  0
   -4.0978    1.1233    1.0784 H   0  0  0  0  0  0  0  0  0  0  0  0
   -2.6637   -0.6799   -0.9283 H   0  0  0  0  0  0  0  0  0  0  0  0
   -2.1834   -0.3569    0.7671 H   0  0  0  0  0  0  0  0  0  0  0  0
   -2.4380    1.7218   -1.4312 H   0  0  0  0  0  0  0  0  0  0  0  0
   -2.0804    2.0882    0.2745 H   0  0  0  0  0  0  0  0  0  0  0  0
   -0.0731    2.0189   -1.1280 H   0  0  0  0  0  0  0  0  0  0  0  0
   -0.5094    0.4200   -1.7448 H   0  0  0  0  0  0  0  0  0  0  0  0
   -0.1452   -0.5036    0.6297 H   0  0  0  0  0  0  0  0  0  0  0  0
    0.3658    1.1470    1.0732 H   0  0  0  0  0  0  0  0  0  0  0  0
    2.1082    1.2200   -0.5842 H   0  0  0  0  0  0  0  0  0  0  0  0
    1.6713   -0.3981   -1.2194 H   0  0  0  0  0  0  0  0  0  0  0  0
    2.2974   -1.4298    0.9500 H   0  0  0  0  0  0  0  0  0  0  0  0
    2.7169    0.1905    1.5997 H   0  0  0  0  0  0  0  0  0  0  0  0
    4.2012    0.5044   -0.3849 H   0  0  0  0  0  0  0  0  0  0  0  0
    3.7510   -1.1323   -0.9441 H   0  0  0  0  0  0  0  0  0  0  0  0
    6.8689   -0.8832    1.7135 H   0  0  0  0  0  0  0  0  0  0  0  0
  1  2  1  0
  2  3  1  0
  3  4  1  0
  4  5  1  0
  5  6  1  0
  6  7  1  0
  7  8  1  0
  8  9  1  0
  9 10  1  0
 10 11  1  0
 11 12  2  0
 11 13  1  0
  2 14  1  0
  2 15  1  0
  3 16  1  0
  3 17  1  0
  4 18  1  0
  4 19  1  0
  5 20  1  0
  5 21  1  0
  6 22  1  0
  6 23  1  0
  7 24  1  0
  7 25  1  0
  8 26  1  0
  8 27  1  0
  9 28  1  0
  9 29  1  0
 10 30  1  0
 10 31  1  0
 13 32  1  0
M  END
>  <Ligand ID>  (1) 
LIG0001017

>  <Ligand>  (1) 
10-Bromodecanoic acid

>  <SMILES>  (1) 
BrCCCCCCCCCC(=O)O

>  <CID>  (1) 
142712.0

>  <ChEMBL ID>  (1) 
nan

>  <InChiKey>  (1) 
PGVRSPIEZYGOAD-UHFFFAOYSA-N

>  <InChi>  (1) 
InChI=1S/C10H19BrO2/c11-9-7-5-3-1-2-4-6-8-10(12)13/h1-9H2,(H,12,13)

>  <IUPAC Name>  (1) 
10-bromodecanoic acid

$$$$
