
     RDKit          3D

 87 88  0  0  0  0  0  0  0  0999 V2000
   -0.9712    0.0333    0.1380 C   0  0  0  0  0  0  0  0  0  0  0  0
    0.4670    0.2286   -0.1708 C   0  0  0  0  0  0  0  0  0  0  0  0
    0.8280    1.0448   -1.0806 O   0  0  0  0  0  0  0  0  0  0  0  0
    1.4875   -0.4439    0.4900 O   0  0  0  0  0  0  0  0  0  0  0  0
    9.5828   -2.8329    0.0181 O   0  0  0  0  0  0  0  0  0  0  0  0
    9.6407   -1.6505   -0.7470 C   0  0  0  0  0  0  0  0  0  0  0  0
    9.1234   -0.5201    0.0621 C   0  0  0  0  0  0  0  0  0  0  0  0
    7.8658    0.0311   -0.1242 C   0  0  0  0  0  0  0  0  0  0  0  0
    7.4545    1.0781    0.6635 C   0  0  0  0  0  0  0  0  0  0  0  0
    8.2625    1.6117    1.6515 C   0  0  0  0  0  0  0  0  0  0  0  0
    9.5317    1.0675    1.8518 C   0  0  0  0  0  0  0  0  0  0  0  0
    9.9445    0.0120    1.0575 C   0  0  0  0  0  0  0  0  0  0  0  0
   11.2215   -0.5286    1.2671 O   0  0  0  0  0  0  0  0  0  0  0  0
    6.0987    1.7168    0.5244 C   0  0  2  0  0  0  0  0  0  0  0  0
    5.3261    1.1277   -0.6021 C   0  0  0  0  0  0  0  0  0  0  0  0
    3.9971    1.6240   -0.6937 N   0  0  0  0  0  0  0  0  0  0  0  0
    3.1636    1.2204    0.3811 C   0  0  0  0  0  0  0  0  0  0  0  0
    2.8754   -0.2598    0.3617 C   0  0  0  0  0  0  0  0  0  0  0  0
    2.1772   -0.7426   -0.8644 C   0  0  0  0  0  0  0  0  0  0  0  0
    0.8619   -0.0637   -1.0464 C   0  0  0  0  0  0  0  0  0  0  0  0
   -0.0497   -0.3178    0.1094 C   0  0  0  0  0  0  0  0  0  0  0  0
   -0.3150   -1.7750    0.3181 C   0  0  0  0  0  0  0  0  0  0  0  0
   -0.8420   -2.4515   -0.6674 O   0  0  0  0  0  0  0  0  0  0  0  0
   -2.0299   -2.4157   -1.1756 C   0  0  0  0  0  0  0  0  0  0  0  0
   -2.5552   -1.1593   -1.7381 C   0  0  0  0  0  0  0  0  0  0  0  0
   -3.9348   -1.3172   -2.3626 C   0  0  0  0  0  0  0  0  0  0  0  0
   -5.0133   -1.7451   -1.4399 C   0  0  0  0  0  0  0  0  0  0  0  0
   -5.3005   -0.8147   -0.3241 C   0  0  0  0  0  0  0  0  0  0  0  0
   -4.7053   -0.8631    0.9115 C   0  0  0  0  0  0  0  0  0  0  0  0
   -5.0307    0.0455    1.8976 C   0  0  0  0  0  0  0  0  0  0  0  0
   -5.9513    1.0295    1.7004 C   0  0  0  0  0  0  0  0  0  0  0  0
   -6.5720    1.1048    0.4596 C   0  0  0  0  0  0  0  0  0  0  0  0
   -6.2400    0.1923   -0.5192 C   0  0  0  0  0  0  0  0  0  0  0  0
   -7.6041    2.1590    0.1668 C   0  0  0  0  0  0  0  0  0  0  0  0
   -8.9419    1.6754    0.5099 N   0  0  0  0  0  0  0  0  0  0  0  0
   -9.8541    0.9688   -0.3857 C   0  0  0  0  0  0  0  0  0  0  0  0
  -10.6057    0.0986    0.5760 C   0  0  0  0  0  0  0  0  0  0  0  0
  -11.1047   -1.0430    0.3476 O   0  0  0  0  0  0  0  0  0  0  0  0
  -10.6488    0.8148    1.8092 N   0  0  0  0  0  0  0  0  0  0  0  0
   -9.6170    1.7931    1.7688 C   0  0  0  0  0  0  0  0  0  0  0  0
   -9.3031    2.6487    2.6642 O   0  0  0  0  0  0  0  0  0  0  0  0
    6.2279    3.1067    0.4727 O   0  0  0  0  0  0  0  0  0  0  0  0
   -1.2988    0.6421    1.0057 H   0  0  0  0  0  0  0  0  0  0  0  0
   -1.2035   -1.0289    0.4130 H   0  0  0  0  0  0  0  0  0  0  0  0
   -1.5696    0.3668   -0.7313 H   0  0  0  0  0  0  0  0  0  0  0  0
    2.2606   -0.8427   -0.0640 H   0  0  0  0  0  0  0  0  0  0  0  0
    8.6615   -3.1279    0.1821 H   0  0  0  0  0  0  0  0  0  0  0  0
   10.6979   -1.4977   -1.0481 H   0  0  0  0  0  0  0  0  0  0  0  0
    8.9477   -1.7875   -1.6034 H   0  0  0  0  0  0  0  0  0  0  0  0
    7.2604   -0.3854   -0.8862 H   0  0  0  0  0  0  0  0  0  0  0  0
    7.9256    2.4388    2.2677 H   0  0  0  0  0  0  0  0  0  0  0  0
   10.1771    1.4645    2.6142 H   0  0  0  0  0  0  0  0  0  0  0  0
   11.3059   -1.5237    1.3265 H   0  0  0  0  0  0  0  0  0  0  0  0
    5.5885    1.4649    1.4830 H   0  0  0  0  0  0  0  0  0  0  0  0
    5.8049    1.2774   -1.5934 H   0  0  0  0  0  0  0  0  0  0  0  0
    5.3553    0.0098   -0.4545 H   0  0  0  0  0  0  0  0  0  0  0  0
    3.9502    2.6137   -0.9470 H   0  0  0  0  0  0  0  0  0  0  0  0
    2.1850    1.7775    0.2763 H   0  0  0  0  0  0  0  0  0  0  0  0
    3.6072    1.4749    1.3464 H   0  0  0  0  0  0  0  0  0  0  0  0
    2.2729   -0.5039    1.2538 H   0  0  0  0  0  0  0  0  0  0  0  0
    3.8292   -0.8483    0.5280 H   0  0  0  0  0  0  0  0  0  0  0  0
    2.7641   -0.5467   -1.7969 H   0  0  0  0  0  0  0  0  0  0  0  0
    2.0197   -1.8400   -0.7483 H   0  0  0  0  0  0  0  0  0  0  0  0
    1.0345    1.0338   -1.2172 H   0  0  0  0  0  0  0  0  0  0  0  0
    0.4419   -0.4311   -2.0094 H   0  0  0  0  0  0  0  0  0  0  0  0
    0.4482    0.0505    1.0848 H   0  0  0  0  0  0  0  0  0  0  0  0
   -0.9219    0.3425    0.0592 H   0  0  0  0  0  0  0  0  0  0  0  0
   -0.9236   -1.8496    1.2994 H   0  0  0  0  0  0  0  0  0  0  0  0
    0.6755   -2.2517    0.6945 H   0  0  0  0  0  0  0  0  0  0  0  0
   -2.0455   -3.1724   -2.0583 H   0  0  0  0  0  0  0  0  0  0  0  0
   -2.7537   -2.8633   -0.4071 H   0  0  0  0  0  0  0  0  0  0  0  0
   -2.6345   -0.3638   -0.9363 H   0  0  0  0  0  0  0  0  0  0  0  0
   -1.8888   -0.7635   -2.5063 H   0  0  0  0  0  0  0  0  0  0  0  0
   -4.1919   -0.2999   -2.7363 H   0  0  0  0  0  0  0  0  0  0  0  0
   -3.8714   -1.9767   -3.2478 H   0  0  0  0  0  0  0  0  0  0  0  0
   -4.9139   -2.7969   -1.0859 H   0  0  0  0  0  0  0  0  0  0  0  0
   -5.9504   -1.7876   -2.0685 H   0  0  0  0  0  0  0  0  0  0  0  0
   -3.9838   -1.6010    1.1387 H   0  0  0  0  0  0  0  0  0  0  0  0
   -4.5338   -0.0246    2.8699 H   0  0  0  0  0  0  0  0  0  0  0  0
   -6.1910    1.7300    2.4832 H   0  0  0  0  0  0  0  0  0  0  0  0
   -6.7432    0.2696   -1.4965 H   0  0  0  0  0  0  0  0  0  0  0  0
   -7.5386    2.3695   -0.9020 H   0  0  0  0  0  0  0  0  0  0  0  0
   -7.4051    3.0873    0.7358 H   0  0  0  0  0  0  0  0  0  0  0  0
  -10.5196    1.6692   -0.9235 H   0  0  0  0  0  0  0  0  0  0  0  0
   -9.2742    0.3273   -1.1083 H   0  0  0  0  0  0  0  0  0  0  0  0
  -11.3115    0.6667    2.6166 H   0  0  0  0  0  0  0  0  0  0  0  0
    5.5070    3.5492    0.9842 H   0  0  0  0  0  0  0  0  0  0  0  0
  1  2  1  0
  2  3  2  0
  2  4  1  0
  5  6  1  0
  6  7  1  0
  7  8  2  0
  8  9  1  0
  9 10  2  0
 10 11  1  0
 11 12  2  0
 12 13  1  0
  9 14  1  0
 14 15  1  0
 15 16  1  0
 16 17  1  0
 17 18  1  0
 18 19  1  0
 19 20  1  0
 20 21  1  0
 21 22  1  0
 22 23  1  0
 23 24  1  0
 24 25  1  0
 25 26  1  0
 26 27  1  0
 27 28  1  0
 28 29  2  0
 29 30  1  0
 30 31  2  0
 31 32  1  0
 32 33  2  0
 32 34  1  0
 34 35  1  0
 35 36  1  0
 36 37  1  0
 37 38  2  0
 37 39  1  0
 39 40  1  0
 40 41  2  0
 14 42  1  0
 12  7  1  0
 33 28  1  0
 40 35  1  0
  1 43  1  0
  1 44  1  0
  1 45  1  0
  4 46  1  0
  5 47  1  0
  6 48  1  0
  6 49  1  0
  8 50  1  0
 10 51  1  0
 11 52  1  0
 13 53  1  0
 14 54  1  1
 15 55  1  0
 15 56  1  0
 16 57  1  0
 17 58  1  0
 17 59  1  0
 18 60  1  0
 18 61  1  0
 19 62  1  0
 19 63  1  0
 20 64  1  0
 20 65  1  0
 21 66  1  0
 21 67  1  0
 22 68  1  0
 22 69  1  0
 24 70  1  0
 24 71  1  0
 25 72  1  0
 25 73  1  0
 26 74  1  0
 26 75  1  0
 27 76  1  0
 27 77  1  0
 29 78  1  0
 30 79  1  0
 31 80  1  0
 33 81  1  0
 34 82  1  0
 34 83  1  0
 36 84  1  0
 36 85  1  0
 39 86  1  0
 42 87  1  0
M  END
>  <Ligand ID>  (1) 
LIG0003352

>  <Ligand>  (1) 
SCHEMBL5183999

>  <SMILES>  (1) 
CC(=O)O.OCc1cc(ccc1O)[C@H](CNCCCCCCOCCCCc1cccc(c1)CN1CC(=O)NC1=O)O

>  <CID>  (1) 
56678846.0

>  <ChEMBL ID>  (1) 
nan

>  <InChiKey>  (1) 
WGAMYTRJCLBYON-YCBFMBTMSA-N

>  <InChi>  (1) 
InChI=1S/C29H41N3O6.C2H4O2/c33-21-25-17-24(11-12-26(25)34)27(35)18-30-13-4-1-2-5-14-38-15-6-3-8-22-9-7-10-23(16-22)19-32-20-28(36)31-29(32)37;1-2(3)4/h7,9-12,16-17,27,30,33-35H,1-6,8,13-15,18-21H2,(H,31,36,37);1H3,(H,3,4)/t27-;/m0./s1

>  <IUPAC Name>  (1) 
acetic acid;1-[[3-[4-[6-[[(2R)-2-hydroxy-2-[4-hydroxy-3-(hydroxymethyl)phenyl]ethyl]amino]hexoxy]butyl]phenyl]methyl]imidazolidine-2,4-dione

$$$$
