
     RDKit          3D

 58 62  0  0  0  0  0  0  0  0999 V2000
    4.1046   -1.4631   -1.7713 O   0  0  0  0  0  0  0  0  0  0  0  0
    4.2776   -0.9394   -0.6291 C   0  0  0  0  0  0  0  0  0  0  0  0
    5.5693   -0.9596    0.0704 C   0  0  2  0  0  0  0  0  0  0  0  0
    5.4102   -1.6800    1.3929 C   0  0  0  0  0  0  0  0  0  0  0  0
    6.5604   -1.0883    2.1862 C   0  0  0  0  0  0  0  0  0  0  0  0
    6.6348    0.2903    1.6620 C   0  0  0  0  0  0  0  0  0  0  0  0
    6.0581    0.3275    0.4493 N   0  0  0  0  0  0  0  0  0  0  0  0
    6.1220    1.5765   -0.0328 N   0  0  0  0  0  0  0  0  0  0  0  0
    6.7335    2.3484    0.8537 C   0  0  0  0  0  0  0  0  0  0  0  0
    7.0735    1.5517    1.9497 C   0  0  0  0  0  0  0  0  0  0  0  0
    3.1267   -0.3200   -0.0545 N   0  0  0  0  0  0  0  0  0  0  0  0
    1.8766   -0.3062   -0.7431 C   0  0  0  0  0  0  0  0  0  0  0  0
    1.6459    0.7694   -1.5764 C   0  0  0  0  0  0  0  0  0  0  0  0
    0.4589    0.8174   -2.2532 C   0  0  0  0  0  0  0  0  0  0  0  0
   -0.5282   -0.1433   -2.1575 C   0  0  0  0  0  0  0  0  0  0  0  0
   -0.2564   -1.2118   -1.3065 C   0  0  0  0  0  0  0  0  0  0  0  0
    0.9318   -1.3029   -0.6006 C   0  0  0  0  0  0  0  0  0  0  0  0
   -1.8106   -0.0713   -2.9016 C   0  0  0  0  0  0  0  0  0  0  0  0
   -2.8710    0.6570   -2.1043 C   0  0  2  0  0  0  0  0  0  0  0  0
   -2.4617    2.0714   -1.7844 C   0  0  0  0  0  0  0  0  0  0  0  0
   -3.4655    2.4156   -0.6763 C   0  0  0  0  0  0  0  0  0  0  0  0
   -4.0042    1.0821   -0.2270 C   0  0  1  0  0  0  0  0  0  0  0  0
   -3.0595    0.1110   -0.7742 N   0  0  0  0  0  0  0  0  0  0  0  0
   -4.1345    0.9489    1.2656 C   0  0  1  0  0  0  0  0  0  0  0  0
   -4.8050   -0.3400    1.5435 C   0  0  0  0  0  0  0  0  0  0  0  0
   -6.1731   -0.4143    1.7733 C   0  0  0  0  0  0  0  0  0  0  0  0
   -6.8046   -1.6281    2.0350 C   0  0  0  0  0  0  0  0  0  0  0  0
   -6.0080   -2.7587    2.0561 C   0  0  0  0  0  0  0  0  0  0  0  0
   -4.6897   -2.7067    1.8373 N   0  0  0  0  0  0  0  0  0  0  0  0
   -4.0993   -1.5243    1.5864 C   0  0  0  0  0  0  0  0  0  0  0  0
   -2.9617    1.1400    1.9534 O   0  0  0  0  0  0  0  0  0  0  0  0
    6.2945   -1.5138   -0.5936 H   0  0  0  0  0  0  0  0  0  0  0  0
    4.4138   -1.3619    1.7951 H   0  0  0  0  0  0  0  0  0  0  0  0
    5.4736   -2.7607    1.2662 H   0  0  0  0  0  0  0  0  0  0  0  0
    7.4539   -1.6901    1.9447 H   0  0  0  0  0  0  0  0  0  0  0  0
    6.3094   -1.1128    3.2712 H   0  0  0  0  0  0  0  0  0  0  0  0
    6.9457    3.4250    0.7634 H   0  0  0  0  0  0  0  0  0  0  0  0
    7.5945    1.9290    2.8431 H   0  0  0  0  0  0  0  0  0  0  0  0
    3.2536    0.1193    0.8931 H   0  0  0  0  0  0  0  0  0  0  0  0
    2.3757    1.5511   -1.6942 H   0  0  0  0  0  0  0  0  0  0  0  0
    0.3029    1.6828   -2.9079 H   0  0  0  0  0  0  0  0  0  0  0  0
   -0.9671   -2.0157   -1.1636 H   0  0  0  0  0  0  0  0  0  0  0  0
    1.1406   -2.1475    0.0688 H   0  0  0  0  0  0  0  0  0  0  0  0
   -1.6390    0.5606   -3.8090 H   0  0  0  0  0  0  0  0  0  0  0  0
   -2.1652   -1.0375   -3.2875 H   0  0  0  0  0  0  0  0  0  0  0  0
   -3.8538    0.6321   -2.5928 H   0  0  0  0  0  0  0  0  0  0  0  0
   -2.5729    2.7749   -2.6114 H   0  0  0  0  0  0  0  0  0  0  0  0
   -1.4482    2.0599   -1.3121 H   0  0  0  0  0  0  0  0  0  0  0  0
   -2.9925    2.9945    0.1396 H   0  0  0  0  0  0  0  0  0  0  0  0
   -4.3012    2.9726   -1.1526 H   0  0  0  0  0  0  0  0  0  0  0  0
   -4.9829    0.8630   -0.6803 H   0  0  0  0  0  0  0  0  0  0  0  0
   -3.5479   -0.8155   -0.8040 H   0  0  0  0  0  0  0  0  0  0  0  0
   -4.8332    1.7480    1.5945 H   0  0  0  0  0  0  0  0  0  0  0  0
   -6.7382    0.5135    1.7416 H   0  0  0  0  0  0  0  0  0  0  0  0
   -7.8823   -1.6643    2.2129 H   0  0  0  0  0  0  0  0  0  0  0  0
   -6.5126   -3.7139    2.2632 H   0  0  0  0  0  0  0  0  0  0  0  0
   -3.0179   -1.5552    1.4166 H   0  0  0  0  0  0  0  0  0  0  0  0
   -2.5548    0.3135    2.3200 H   0  0  0  0  0  0  0  0  0  0  0  0
  1  2  2  0
  2  3  1  0
  3  4  1  0
  4  5  1  0
  5  6  1  0
  6  7  1  0
  7  8  1  0
  8  9  2  0
  9 10  1  0
  2 11  1  0
 11 12  1  0
 12 13  2  0
 13 14  1  0
 14 15  2  0
 15 16  1  0
 16 17  2  0
 15 18  1  0
 18 19  1  0
 19 20  1  0
 20 21  1  0
 21 22  1  0
 22 23  1  0
 22 24  1  0
 24 25  1  0
 25 26  2  0
 26 27  1  0
 27 28  2  0
 28 29  1  0
 29 30  2  0
 24 31  1  0
  7  3  1  0
 17 12  1  0
 23 19  1  0
 30 25  1  0
 10  6  2  0
  3 32  1  6
  4 33  1  0
  4 34  1  0
  5 35  1  0
  5 36  1  0
  9 37  1  0
 10 38  1  0
 11 39  1  0
 13 40  1  0
 14 41  1  0
 16 42  1  0
 17 43  1  0
 18 44  1  0
 18 45  1  0
 19 46  1  6
 20 47  1  0
 20 48  1  0
 21 49  1  0
 21 50  1  0
 22 51  1  6
 23 52  1  0
 24 53  1  1
 26 54  1  0
 27 55  1  0
 28 56  1  0
 30 57  1  0
 31 58  1  0
M  END
>  <Ligand ID>  (1) 
LIG0001298

>  <Ligand>  (1) 
CHEMBL3128188

>  <SMILES>  (1) 
O=C([C@@H]1CCc2n1ncc2)Nc1ccc(cc1)C[C@@H]1CC[C@@H](N1)[C@@H](c1cccnc1)O

>  <CID>  (1) 
70792359.0

>  <ChEMBL ID>  (1) 
nan

>  <InChiKey>  (1) 
VXXIYUBYYXZZOE-FCJDFRRUSA-N

>  <InChi>  (1) 
InChI=1S/C24H27N5O2/c30-23(17-2-1-12-25-15-17)21-9-7-19(27-21)14-16-3-5-18(6-4-16)28-24(31)22-10-8-20-11-13-26-29(20)22/h1-6,11-13,15,19,21-23,27,30H,7-10,14H2,(H,28,31)/t19-,21+,22-,23+/m0/s1

>  <IUPAC Name>  (1) 
(6S)-N-[4-[[(2S,5R)-5-[(R)-hydroxy(pyridin-3-yl)methyl]pyrrolidin-2-yl]methyl]phenyl]-5,6-dihydro-4H-pyrrolo[1,2-b]pyrazole-6-carboxamide

$$$$
