
     RDKit          3D

 37 40  0  0  0  0  0  0  0  0999 V2000
    4.9286   -1.3606    0.8635 O   0  0  0  0  0  0  0  0  0  0  0  0
    3.6470   -0.9832    0.5236 C   0  0  0  0  0  0  0  0  0  0  0  0
    3.2230    0.2906    0.8365 C   0  0  0  0  0  0  0  0  0  0  0  0
    1.9498    0.7146    0.5174 C   0  0  0  0  0  0  0  0  0  0  0  0
    1.6230    2.1336    0.8949 C   0  0  0  0  0  0  0  0  0  0  0  0
    0.4703    2.6609    0.0674 C   0  0  0  0  0  0  0  0  0  0  0  0
   -0.6741    1.7230    0.0001 C   0  0  2  0  0  0  0  0  0  0  0  0
   -0.2934    0.3334   -0.4646 C   0  0  1  0  0  0  0  0  0  0  0  0
    1.0268   -0.1005   -0.1286 C   0  0  0  0  0  0  0  0  0  0  0  0
    1.4569   -1.3724   -0.4395 C   0  0  0  0  0  0  0  0  0  0  0  0
    2.7495   -1.8029   -0.1155 C   0  0  0  0  0  0  0  0  0  0  0  0
    3.1747   -3.0901   -0.4333 O   0  0  0  0  0  0  0  0  0  0  0  0
   -1.4510   -0.5053   -0.0852 C   0  0  0  0  0  0  0  0  0  0  0  0
   -1.3934   -1.6649    0.6261 C   0  0  0  0  0  0  0  0  0  0  0  0
   -2.5545   -2.3677    0.9235 C   0  0  0  0  0  0  0  0  0  0  0  0
   -3.7534   -1.8497    0.4752 C   0  0  0  0  0  0  0  0  0  0  0  0
   -3.8423   -0.6759   -0.2474 C   0  0  0  0  0  0  0  0  0  0  0  0
   -2.6922    0.0136   -0.5379 C   0  0  0  0  0  0  0  0  0  0  0  0
   -2.6615    1.2933   -1.2937 C   0  0  0  0  0  0  0  0  0  0  0  0
   -1.7320    2.2641   -0.7812 N   0  0  0  0  0  0  0  0  0  0  0  0
    5.3629   -2.2212    0.6315 H   0  0  0  0  0  0  0  0  0  0  0  0
    3.9254    0.9533    1.3443 H   0  0  0  0  0  0  0  0  0  0  0  0
    1.3543    2.1317    1.9602 H   0  0  0  0  0  0  0  0  0  0  0  0
    2.5108    2.7657    0.7563 H   0  0  0  0  0  0  0  0  0  0  0  0
    0.8996    2.9004   -0.9289 H   0  0  0  0  0  0  0  0  0  0  0  0
    0.2050    3.6401    0.5132 H   0  0  0  0  0  0  0  0  0  0  0  0
   -1.0632    1.6003    1.0389 H   0  0  0  0  0  0  0  0  0  0  0  0
   -0.3522    0.3962   -1.5965 H   0  0  0  0  0  0  0  0  0  0  0  0
    0.8546   -2.1101   -0.9525 H   0  0  0  0  0  0  0  0  0  0  0  0
    3.1121   -3.4246   -1.4059 H   0  0  0  0  0  0  0  0  0  0  0  0
   -0.4507   -2.0504    0.9781 H   0  0  0  0  0  0  0  0  0  0  0  0
   -2.5367   -3.2983    1.4907 H   0  0  0  0  0  0  0  0  0  0  0  0
   -4.6940   -2.3646    0.6827 H   0  0  0  0  0  0  0  0  0  0  0  0
   -4.7932   -0.2703   -0.5996 H   0  0  0  0  0  0  0  0  0  0  0  0
   -3.6818    1.7242   -1.2436 H   0  0  0  0  0  0  0  0  0  0  0  0
   -2.4526    1.0717   -2.3583 H   0  0  0  0  0  0  0  0  0  0  0  0
   -1.4022    2.9019   -1.5120 H   0  0  0  0  0  0  0  0  0  0  0  0
  1  2  1  0
  2  3  2  0
  3  4  1  0
  4  5  1  0
  5  6  1  0
  6  7  1  0
  7  8  1  0
  8  9  1  0
  9 10  1  0
 10 11  2  0
 11 12  1  0
  8 13  1  0
 13 14  2  0
 14 15  1  0
 15 16  2  0
 16 17  1  0
 17 18  2  0
 18 19  1  0
 19 20  1  0
 11  2  1  0
 18 13  1  0
  9  4  2  0
 20  7  1  0
  1 21  1  0
  3 22  1  0
  5 23  1  0
  5 24  1  0
  6 25  1  0
  6 26  1  0
  7 27  1  1
  8 28  1  6
 10 29  1  0
 12 30  1  0
 14 31  1  0
 15 32  1  0
 16 33  1  0
 17 34  1  0
 19 35  1  0
 19 36  1  0
 20 37  1  0
M  END
>  <Ligand ID>  (1) 
LIG0000850

>  <Ligand>  (1) 
DIHYDREXIDINE

>  <SMILES>  (1) 
Oc1cc2CC[C@@H]3[C@@H](c2cc1O)c1ccccc1CN3

>  <CID>  (1) 
6603820.0

>  <ChEMBL ID>  (1) 
nan

>  <InChiKey>  (1) 
BGOQGUHWXBGXJW-RHSMWYFYSA-N

>  <InChi>  (1) 
InChI=1S/C17H17NO2/c19-15-7-10-5-6-14-17(13(10)8-16(15)20)12-4-2-1-3-11(12)9-18-14/h1-4,7-8,14,17-20H,5-6,9H2/t14-,17-/m1/s1

>  <IUPAC Name>  (1) 
(6aR,12bS)-5,6,6a,7,8,12b-hexahydrobenzo[a]phenanthridine-10,11-diol

$$$$
