
     RDKit          3D

 12 11  0  0  0  0  0  0  0  0999 V2000
    2.1450   -0.2949   -0.0037 O   0  0  0  0  0  0  0  0  0  0  0  0
    0.9927    0.4376   -0.2511 C   0  0  0  0  0  0  0  0  0  0  0  0
    1.0543    1.3180   -1.1372 O   0  0  0  0  0  0  0  0  0  0  0  0
   -0.2827    0.2168    0.4839 C   0  0  0  0  0  0  0  0  0  0  0  0
   -0.1479   -0.8047    1.4282 O   0  0  0  0  0  0  0  0  0  0  0  0
   -1.4510   -0.0511   -0.4202 C   0  0  0  0  0  0  0  0  0  0  0  0
    2.6899   -0.6600   -0.7913 H   0  0  0  0  0  0  0  0  0  0  0  0
   -0.4968    1.1466    1.0857 H   0  0  0  0  0  0  0  0  0  0  0  0
    0.8147   -0.9766    1.5431 H   0  0  0  0  0  0  0  0  0  0  0  0
   -1.1617   -0.4044   -1.4348 H   0  0  0  0  0  0  0  0  0  0  0  0
   -2.0455    0.8955   -0.5362 H   0  0  0  0  0  0  0  0  0  0  0  0
   -2.1110   -0.8228    0.0335 H   0  0  0  0  0  0  0  0  0  0  0  0
  1  2  1  0
  2  3  2  0
  2  4  1  0
  4  5  1  0
  4  6  1  0
  1  7  1  0
  4  8  1  0
  5  9  1  0
  6 10  1  0
  6 11  1  0
  6 12  1  0
M  END
>  <Ligand ID>  (1) 
LIG0000339

>  <Ligand>  (1) 
Lactic Acid

>  <SMILES>  (1) 
OC(=O)C(O)C

>  <CID>  (1) 
612.0

>  <ChEMBL ID>  (1) 
nan

>  <InChiKey>  (1) 
JVTAAEKCZFNVCJ-UHFFFAOYSA-N

>  <InChi>  (1) 
InChI=1S/C3H6O3/c1-2(4)3(5)6/h2,4H,1H3,(H,5,6)

>  <IUPAC Name>  (1) 
2-hydroxypropanoic acid

$$$$
