
     RDKit          3D

 32 33  0  0  0  0  0  0  0  0999 V2000
   -1.0669   -3.5693    1.7371 F   0  0  0  0  0  0  0  0  0  0  0  0
   -1.3054   -2.4745    0.9583 C   0  0  0  0  0  0  0  0  0  0  0  0
   -2.2217   -2.6302   -0.0595 C   0  0  0  0  0  0  0  0  0  0  0  0
   -2.4719   -1.5320   -0.8536 C   0  0  0  0  0  0  0  0  0  0  0  0
   -1.8381   -0.3332   -0.6441 C   0  0  0  0  0  0  0  0  0  0  0  0
   -0.9028   -0.1487    0.3826 C   0  0  0  0  0  0  0  0  0  0  0  0
   -0.6752   -1.2710    1.1622 C   0  0  0  0  0  0  0  0  0  0  0  0
   -0.2940    1.0973    0.5872 N   0  0  0  0  0  0  0  0  0  0  0  0
    0.6885    1.4427    1.5575 C   0  0  0  0  0  0  0  0  0  0  0  0
    2.0697    0.9807    1.2259 C   0  0  0  0  0  0  0  0  0  0  0  0
    3.0611    1.8347    1.0890 N   0  0  0  0  0  0  0  0  0  0  0  0
    4.2748    1.1733    0.7753 C   0  0  0  0  0  0  0  0  0  0  0  0
    3.7968   -0.1562    0.2306 C   0  0  0  0  0  0  0  0  0  0  0  0
    2.5733   -0.3102    1.0081 N   0  0  0  0  0  0  0  0  0  0  0  0
   -2.2095    0.9997   -1.6884 S   0  0  0  0  0  0  0  0  0  0  0  0
   -1.0230    1.4603   -2.4887 O   0  0  0  0  0  0  0  0  0  0  0  0
   -2.7963    2.1345   -0.9024 O   0  0  0  0  0  0  0  0  0  0  0  0
   -3.4283    0.5310   -2.9230 C   0  0  0  0  0  0  0  0  0  0  0  0
   -2.7479   -3.5451   -0.2703 H   0  0  0  0  0  0  0  0  0  0  0  0
   -3.1945   -1.6180   -1.6724 H   0  0  0  0  0  0  0  0  0  0  0  0
    0.0150   -1.2136    1.9856 H   0  0  0  0  0  0  0  0  0  0  0  0
   -0.6076    1.8824   -0.0681 H   0  0  0  0  0  0  0  0  0  0  0  0
    0.4598    0.8927    2.5191 H   0  0  0  0  0  0  0  0  0  0  0  0
    0.7197    2.5238    1.7150 H   0  0  0  0  0  0  0  0  0  0  0  0
    4.9918    1.0707    1.6066 H   0  0  0  0  0  0  0  0  0  0  0  0
    4.8195    1.7547   -0.0203 H   0  0  0  0  0  0  0  0  0  0  0  0
    3.6179   -0.1585   -0.8551 H   0  0  0  0  0  0  0  0  0  0  0  0
    4.5319   -0.9348    0.4581 H   0  0  0  0  0  0  0  0  0  0  0  0
    2.2160   -1.2209    1.3030 H   0  0  0  0  0  0  0  0  0  0  0  0
   -3.3991    1.2414   -3.7746 H   0  0  0  0  0  0  0  0  0  0  0  0
   -4.4490    0.5558   -2.5068 H   0  0  0  0  0  0  0  0  0  0  0  0
   -3.2049   -0.4596   -3.3541 H   0  0  0  0  0  0  0  0  0  0  0  0
  1  2  1  0
  2  3  2  0
  3  4  1  0
  4  5  2  0
  5  6  1  0
  6  7  2  0
  6  8  1  0
  8  9  1  0
  9 10  1  0
 10 11  2  0
 11 12  1  0
 12 13  1  0
 13 14  1  0
  5 15  1  0
 15 16  2  0
 15 17  2  0
 15 18  1  0
  7  2  1  0
 14 10  1  0
  3 19  1  0
  4 20  1  0
  7 21  1  0
  8 22  1  0
  9 23  1  0
  9 24  1  0
 12 25  1  0
 12 26  1  0
 13 27  1  0
 13 28  1  0
 14 29  1  0
 18 30  1  0
 18 31  1  0
 18 32  1  0
M  END
>  <Ligand ID>  (1) 
LIG0001000

>  <Ligand>  (1) 
CHEMBL74467

>  <SMILES>  (1) 
Fc1ccc(c(c1)NCC1=NCCN1)S(=O)(=O)C

>  <CID>  (1) 
10199335.0

>  <ChEMBL ID>  (1) 
nan

>  <InChiKey>  (1) 
YYHDOUOUAFMQDK-UHFFFAOYSA-N

>  <InChi>  (1) 
InChI=1S/C11H14FN3O2S/c1-18(16,17)10-3-2-8(12)6-9(10)15-7-11-13-4-5-14-11/h2-3,6,15H,4-5,7H2,1H3,(H,13,14)

>  <IUPAC Name>  (1) 
N-(4,5-dihydro-1H-imidazol-2-ylmethyl)-5-fluoro-2-methylsulfonylaniline

$$$$
