
     RDKit          3D

 35 36  0  0  0  0  0  0  0  0999 V2000
    5.9538    1.3384    1.4281 O   0  0  0  0  0  0  0  0  0  0  0  0
    5.1049    0.2804    1.0478 C   0  0  0  0  0  0  0  0  0  0  0  0
    4.5040   -0.2892    1.9663 O   0  0  0  0  0  0  0  0  0  0  0  0
    5.0354   -0.0173   -0.3821 C   0  0  0  0  0  0  0  0  0  0  0  0
    4.1401   -1.1162   -0.8062 C   0  0  0  0  0  0  0  0  0  0  0  0
    2.7098   -0.9589   -0.4862 C   0  0  0  0  0  0  0  0  0  0  0  0
    2.0835   -1.4773    0.6188 C   0  0  0  0  0  0  0  0  0  0  0  0
    0.7406   -1.2374    0.8019 C   0  0  0  0  0  0  0  0  0  0  0  0
   -0.0268   -0.4976   -0.0696 C   0  0  0  0  0  0  0  0  0  0  0  0
    0.6037    0.0258   -1.1855 C   0  0  0  0  0  0  0  0  0  0  0  0
    1.9378   -0.2173   -1.3592 C   0  0  0  0  0  0  0  0  0  0  0  0
   -1.3829   -0.2991    0.1863 O   0  0  0  0  0  0  0  0  0  0  0  0
   -2.1203    0.4659   -0.7387 C   0  0  0  0  0  0  0  0  0  0  0  0
   -3.5263    0.5393   -0.2591 C   0  0  0  0  0  0  0  0  0  0  0  0
   -3.9146    1.5820    0.5870 C   0  0  0  0  0  0  0  0  0  0  0  0
   -5.2243    1.6494    1.0332 C   0  0  0  0  0  0  0  0  0  0  0  0
   -6.1671    0.7068    0.6626 C   0  0  0  0  0  0  0  0  0  0  0  0
   -5.7865   -0.3082   -0.1617 C   0  0  0  0  0  0  0  0  0  0  0  0
   -4.4785   -0.3933   -0.6197 C   0  0  0  0  0  0  0  0  0  0  0  0
   -7.0291   -1.6643   -0.7300 Br  0  0  0  0  0  0  0  0  0  0  0  0
    5.8269    1.7558    2.3312 H   0  0  0  0  0  0  0  0  0  0  0  0
    4.8200    0.9196   -0.9455 H   0  0  0  0  0  0  0  0  0  0  0  0
    6.0828   -0.3051   -0.7034 H   0  0  0  0  0  0  0  0  0  0  0  0
    4.4454   -2.0966   -0.3566 H   0  0  0  0  0  0  0  0  0  0  0  0
    4.2519   -1.2434   -1.9208 H   0  0  0  0  0  0  0  0  0  0  0  0
    2.6175   -2.0720    1.3303 H   0  0  0  0  0  0  0  0  0  0  0  0
    0.2331   -1.6497    1.6854 H   0  0  0  0  0  0  0  0  0  0  0  0
    0.0251    0.6187   -1.8997 H   0  0  0  0  0  0  0  0  0  0  0  0
    2.3968    0.2157   -2.2557 H   0  0  0  0  0  0  0  0  0  0  0  0
   -2.1625   -0.0645   -1.7250 H   0  0  0  0  0  0  0  0  0  0  0  0
   -1.6730    1.4567   -0.9337 H   0  0  0  0  0  0  0  0  0  0  0  0
   -3.1694    2.3171    0.8729 H   0  0  0  0  0  0  0  0  0  0  0  0
   -5.4960    2.4660    1.6859 H   0  0  0  0  0  0  0  0  0  0  0  0
   -7.1926    0.7719    1.0206 H   0  0  0  0  0  0  0  0  0  0  0  0
   -4.1633   -1.2021   -1.2803 H   0  0  0  0  0  0  0  0  0  0  0  0
  1  2  1  0
  2  3  2  0
  2  4  1  0
  4  5  1  0
  5  6  1  0
  6  7  2  0
  7  8  1  0
  8  9  2  0
  9 10  1  0
 10 11  2  0
  9 12  1  0
 12 13  1  0
 13 14  1  0
 14 15  2  0
 15 16  1  0
 16 17  2  0
 17 18  1  0
 18 19  2  0
 18 20  1  0
 11  6  1  0
 19 14  1  0
  1 21  1  0
  4 22  1  0
  4 23  1  0
  5 24  1  0
  5 25  1  0
  7 26  1  0
  8 27  1  0
 10 28  1  0
 11 29  1  0
 13 30  1  0
 13 31  1  0
 15 32  1  0
 16 33  1  0
 17 34  1  0
 19 35  1  0
M  END
>  <Ligand ID>  (1) 
LIG0005798

>  <Ligand>  (1) 
CHEMBL1773254

>  <SMILES>  (1) 
OC(=O)CCc1ccc(cc1)OCc1cccc(c1)Br

>  <CID>  (1) 
54584098.0

>  <ChEMBL ID>  (1) 
nan

>  <InChiKey>  (1) 
PRPRITPGWICLOV-UHFFFAOYSA-N

>  <InChi>  (1) 
InChI=1S/C16H15BrO3/c17-14-3-1-2-13(10-14)11-20-15-7-4-12(5-8-15)6-9-16(18)19/h1-5,7-8,10H,6,9,11H2,(H,18,19)

>  <IUPAC Name>  (1) 
3-[4-[(3-bromophenyl)methoxy]phenyl]propanoic acid

$$$$
