
     RDKit          3D

 35 38  0  0  0  0  0  0  0  0999 V2000
   -2.3290    3.4933   -0.2755 O   0  0  0  0  0  0  0  0  0  0  0  0
   -2.9836    2.3070   -0.0425 N   0  0  0  0  0  0  0  0  0  0  0  0
   -2.3227    1.2204   -0.2156 C   0  0  0  0  0  0  0  0  0  0  0  0
   -3.0090   -0.0441    0.0292 C   0  0  0  0  0  0  0  0  0  0  0  0
   -4.1851   -0.0459    0.7284 C   0  0  0  0  0  0  0  0  0  0  0  0
   -4.8311   -1.2565    0.9563 C   0  0  0  0  0  0  0  0  0  0  0  0
   -4.2645   -2.4364    0.4671 C   0  0  0  0  0  0  0  0  0  0  0  0
   -3.0760   -2.4229   -0.2379 C   0  0  0  0  0  0  0  0  0  0  0  0
   -2.4514   -1.2106   -0.4528 C   0  0  0  0  0  0  0  0  0  0  0  0
   -1.2515   -1.0995   -1.1520 O   0  0  0  0  0  0  0  0  0  0  0  0
   -0.3495   -0.0493   -1.0091 C   0  0  2  0  0  0  0  0  0  0  0  0
   -0.9099    1.2560   -0.6499 C   0  0  1  0  0  0  0  0  0  0  0  0
   -0.5169    1.0474   -2.0458 C   0  0  0  0  0  0  0  0  0  0  0  0
    1.0247   -0.3418   -0.5128 C   0  0  0  0  0  0  0  0  0  0  0  0
    1.3623   -1.5189   -0.2281 O   0  0  0  0  0  0  0  0  0  0  0  0
    1.9512    0.7262   -0.3646 N   0  0  0  0  0  0  0  0  0  0  0  0
    3.2674    0.4573    0.1091 C   0  0  0  0  0  0  0  0  0  0  0  0
    3.4865    0.5055    1.4885 C   0  0  0  0  0  0  0  0  0  0  0  0
    4.7637    0.2455    1.9630 C   0  0  0  0  0  0  0  0  0  0  0  0
    5.7866   -0.0523    1.0881 C   0  0  0  0  0  0  0  0  0  0  0  0
    5.5336   -0.0919   -0.2803 C   0  0  0  0  0  0  0  0  0  0  0  0
    4.2899    0.1631   -0.7165 N   0  0  0  0  0  0  0  0  0  0  0  0
   -2.3241    3.8261   -1.2384 H   0  0  0  0  0  0  0  0  0  0  0  0
   -4.6663    0.8340    1.1281 H   0  0  0  0  0  0  0  0  0  0  0  0
   -5.7729   -1.2892    1.5121 H   0  0  0  0  0  0  0  0  0  0  0  0
   -4.8057   -3.3519    0.6708 H   0  0  0  0  0  0  0  0  0  0  0  0
   -2.6384   -3.3371   -0.6161 H   0  0  0  0  0  0  0  0  0  0  0  0
   -0.2884    1.9562   -0.0600 H   0  0  0  0  0  0  0  0  0  0  0  0
   -1.3021    0.9582   -2.8111 H   0  0  0  0  0  0  0  0  0  0  0  0
    0.4372    1.4665   -2.3996 H   0  0  0  0  0  0  0  0  0  0  0  0
    1.6622    1.7057   -0.6042 H   0  0  0  0  0  0  0  0  0  0  0  0
    2.6740    0.7412    2.1718 H   0  0  0  0  0  0  0  0  0  0  0  0
    4.9086    0.2896    3.0457 H   0  0  0  0  0  0  0  0  0  0  0  0
    6.7678   -0.2497    1.4843 H   0  0  0  0  0  0  0  0  0  0  0  0
    6.3622   -0.3289   -0.9295 H   0  0  0  0  0  0  0  0  0  0  0  0
  1  2  1  0
  2  3  2  0
  3  4  1  0
  4  5  2  0
  5  6  1  0
  6  7  2  0
  7  8  1  0
  8  9  2  0
  9 10  1  0
 10 11  1  0
 11 12  1  0
 12 13  1  0
 11 14  1  1
 14 15  2  0
 14 16  1  0
 16 17  1  0
 17 18  2  0
 18 19  1  0
 19 20  2  0
 20 21  1  0
 21 22  2  0
 12  3  1  0
 22 17  1  0
  9  4  1  0
 13 11  1  0
  1 23  1  0
  5 24  1  0
  6 25  1  0
  7 26  1  0
  8 27  1  0
 12 28  1  1
 13 29  1  0
 13 30  1  0
 16 31  1  0
 18 32  1  0
 19 33  1  0
 20 34  1  0
 21 35  1  0
M  END
>  <Ligand ID>  (1) 
LIG0000490

>  <Ligand>  (1) 
CID 70682300

>  <SMILES>  (1) 
O/N=C\1/c2ccccc2O[C@@]2([C@H]1C2)C(=O)Nc1ccccn1

>  <CID>  (1) 
70682300.0

>  <ChEMBL ID>  (1) 
nan

>  <InChiKey>  (1) 
NAPZSTOOVHXHKA-UPDNOGQMSA-N

>  <InChi>  (1) 
InChI=1S/C16H13N3O3/c20-15(18-13-7-3-4-8-17-13)16-9-11(16)14(19-21)10-5-1-2-6-12(10)22-16/h1-8,11,21H,9H2,(H,17,18,20)/b19-14-/t11-,16-/m0/s1

>  <IUPAC Name>  (1) 
(1aS,7E,7aS)-7-hydroxyimino-N-pyridin-2-yl-1,7a-dihydrocyclopropa[b]chromene-1a-carboxamide

$$$$
