
     RDKit          3D

 43 43  0  0  0  0  0  0  0  0999 V2000
    1.8545    2.0876    0.4107 C   0  0  0  0  0  0  0  0  0  0  0  0
    0.5872    1.8210   -0.3748 C   0  0  0  0  0  0  0  0  0  0  0  0
   -0.5230    2.5896    0.2759 C   0  0  0  0  0  0  0  0  0  0  0  0
   -1.8075    2.6618   -0.4121 C   0  0  0  0  0  0  0  0  0  0  0  0
   -2.6424    1.4972   -0.7439 C   0  0  0  0  0  0  0  0  0  0  0  0
   -3.1710    0.6130    0.2937 C   0  0  0  0  0  0  0  0  0  0  0  0
   -2.4057   -0.5837    0.7541 C   0  0  0  0  0  0  0  0  0  0  0  0
   -2.2944   -1.5700   -0.3836 C   0  0  0  0  0  0  0  0  0  0  0  0
   -1.8035   -2.9079   -0.0234 C   0  0  0  0  0  0  0  0  0  0  0  0
   -0.2032   -3.0351    0.7410 S   0  0  0  0  0  0  0  0  0  0  0  0
    1.1386   -2.4968   -0.3030 C   0  0  0  0  0  0  0  0  0  0  0  0
    2.4633   -2.5346    0.4615 C   0  0  0  0  0  0  0  0  0  0  0  0
    3.3473   -1.3766   -0.1245 C   0  0  0  0  0  0  0  0  0  0  0  0
    2.5657   -0.1729    0.3283 C   0  0  0  0  0  0  0  0  0  0  0  0
    2.9859    1.1713   -0.1259 C   0  0  0  0  0  0  0  0  0  0  0  0
    2.1895    3.1240    0.3372 H   0  0  0  0  0  0  0  0  0  0  0  0
    1.7587    1.8138    1.4811 H   0  0  0  0  0  0  0  0  0  0  0  0
    0.7975    2.2840   -1.3906 H   0  0  0  0  0  0  0  0  0  0  0  0
    0.3923    0.7769   -0.5193 H   0  0  0  0  0  0  0  0  0  0  0  0
   -0.1311    3.6532    0.3779 H   0  0  0  0  0  0  0  0  0  0  0  0
   -0.6009    2.2646    1.3533 H   0  0  0  0  0  0  0  0  0  0  0  0
   -2.4498    3.4816    0.1060 H   0  0  0  0  0  0  0  0  0  0  0  0
   -1.5939    3.2192   -1.4098 H   0  0  0  0  0  0  0  0  0  0  0  0
   -2.0904    0.9069   -1.5453 H   0  0  0  0  0  0  0  0  0  0  0  0
   -3.5318    1.9046   -1.3524 H   0  0  0  0  0  0  0  0  0  0  0  0
   -4.2091    0.2122    0.0219 H   0  0  0  0  0  0  0  0  0  0  0  0
   -3.4165    1.2067    1.2437 H   0  0  0  0  0  0  0  0  0  0  0  0
   -3.0234   -1.0743    1.5413 H   0  0  0  0  0  0  0  0  0  0  0  0
   -1.4433   -0.3318    1.2134 H   0  0  0  0  0  0  0  0  0  0  0  0
   -1.6668   -1.1876   -1.2146 H   0  0  0  0  0  0  0  0  0  0  0  0
   -3.3501   -1.6815   -0.7645 H   0  0  0  0  0  0  0  0  0  0  0  0
   -2.5732   -3.3779    0.6721 H   0  0  0  0  0  0  0  0  0  0  0  0
   -1.8473   -3.5390   -0.9706 H   0  0  0  0  0  0  0  0  0  0  0  0
    1.0340   -1.5734   -0.8421 H   0  0  0  0  0  0  0  0  0  0  0  0
    1.3371   -3.2922   -1.1297 H   0  0  0  0  0  0  0  0  0  0  0  0
    2.3156   -2.2746    1.5178 H   0  0  0  0  0  0  0  0  0  0  0  0
    2.9831   -3.4890    0.3946 H   0  0  0  0  0  0  0  0  0  0  0  0
    3.3746   -1.5069   -1.2012 H   0  0  0  0  0  0  0  0  0  0  0  0
    4.3228   -1.4872    0.3407 H   0  0  0  0  0  0  0  0  0  0  0  0
    2.8843   -0.1348    1.4764 H   0  0  0  0  0  0  0  0  0  0  0  0
    1.5174   -0.3805    0.4176 H   0  0  0  0  0  0  0  0  0  0  0  0
    2.9920    1.2437   -1.2358 H   0  0  0  0  0  0  0  0  0  0  0  0
    3.9372    1.4756    0.3069 H   0  0  0  0  0  0  0  0  0  0  0  0
  1  2  1  0
  2  3  1  0
  3  4  1  0
  4  5  1  0
  5  6  1  0
  6  7  1  0
  7  8  1  0
  8  9  1  0
  9 10  1  0
 10 11  1  0
 11 12  1  0
 12 13  1  0
 13 14  1  0
 14 15  1  0
 15  1  1  0
  1 16  1  0
  1 17  1  0
  2 18  1  0
  2 19  1  0
  3 20  1  0
  3 21  1  0
  4 22  1  0
  4 23  1  0
  5 24  1  0
  5 25  1  0
  6 26  1  0
  6 27  1  0
  7 28  1  0
  7 29  1  0
  8 30  1  0
  8 31  1  0
  9 32  1  0
  9 33  1  0
 11 34  1  0
 11 35  1  0
 12 36  1  0
 12 37  1  0
 13 38  1  0
 13 39  1  0
 14 40  1  0
 14 41  1  0
 15 42  1  0
 15 43  1  0
M  END
>  <Ligand ID>  (1) 
LIG0004987

>  <Ligand>  (1) 
thiacyclopentadecane

>  <SMILES>  (1) 
C1CCCCCCCCSCCCCC1

>  <CID>  (1) 
12543973.0

>  <ChEMBL ID>  (1) 
nan

>  <InChiKey>  (1) 
DKUCXLVSOULMGO-UHFFFAOYSA-N

>  <InChi>  (1) 
InChI=1S/C14H28S/c1-2-4-6-8-10-12-14-15-13-11-9-7-5-3-1/h1-14H2

>  <IUPAC Name>  (1) 
thiacyclopentadecane

$$$$
