
     RDKit          3D

 76 78  0  0  0  0  0  0  0  0999 V2000
   -3.2772    0.9676   -4.8042 C   0  0  0  0  0  0  0  0  0  0  0  0
   -2.7277    0.9619   -3.4593 N   0  0  0  0  0  0  0  0  0  0  0  0
   -3.2777    0.1055   -2.4669 C   0  0  0  0  0  0  0  0  0  0  0  0
   -4.2406   -0.6252   -2.8157 O   0  0  0  0  0  0  0  0  0  0  0  0
   -2.7832    0.0371   -1.0827 C   0  0  2  0  0  0  0  0  0  0  0  0
   -3.7843    0.3882   -0.0331 C   0  0  0  0  0  0  0  0  0  0  0  0
   -4.9739   -0.4593   -0.0080 C   0  0  0  0  0  0  0  0  0  0  0  0
   -6.1348   -0.1954   -0.7352 C   0  0  0  0  0  0  0  0  0  0  0  0
   -7.2102   -1.0683   -0.6399 C   0  0  0  0  0  0  0  0  0  0  0  0
   -7.1564   -2.1979    0.1627 C   0  0  0  0  0  0  0  0  0  0  0  0
   -6.0113   -2.4654    0.8850 C   0  0  0  0  0  0  0  0  0  0  0  0
   -4.9404   -1.5994    0.7923 C   0  0  0  0  0  0  0  0  0  0  0  0
   -5.9069   -3.5752    1.6981 C   0  0  0  0  0  0  0  0  0  0  0  0
   -6.9649   -4.4676    1.8150 C   0  0  0  0  0  0  0  0  0  0  0  0
   -8.1036   -4.1886    1.0879 C   0  0  0  0  0  0  0  0  0  0  0  0
   -8.2147   -3.0812    0.2734 C   0  0  0  0  0  0  0  0  0  0  0  0
   -1.6800    0.9843   -0.9840 N   0  0  0  0  0  0  0  0  0  0  0  0
   -0.3997    0.4744   -0.6753 C   0  0  0  0  0  0  0  0  0  0  0  0
   -0.1722   -0.7558   -0.4827 O   0  0  0  0  0  0  0  0  0  0  0  0
    0.7541    1.4657   -0.5723 C   0  0  1  0  0  0  0  0  0  0  0  0
    1.9162    0.6669   -0.2512 N   0  0  0  0  0  0  0  0  0  0  0  0
    2.3028    0.6445    1.1331 C   0  0  0  0  0  0  0  0  0  0  0  0
    1.6346    1.3024    1.9944 O   0  0  0  0  0  0  0  0  0  0  0  0
    3.4781   -0.1551    1.4987 C   0  0  1  0  0  0  0  0  0  0  0  0
    3.2048   -1.1384    2.6145 C   0  0  0  0  0  0  0  0  0  0  0  0
    4.4526   -1.8996    2.9109 C   0  0  0  0  0  0  0  0  0  0  0  0
    4.7251   -3.0819    2.2449 C   0  0  0  0  0  0  0  0  0  0  0  0
    5.8442   -3.8359    2.4598 C   0  0  0  0  0  0  0  0  0  0  0  0
    6.7599   -3.4044    3.3898 C   0  0  0  0  0  0  0  0  0  0  0  0
    6.5416   -2.2228    4.0920 C   0  0  0  0  0  0  0  0  0  0  0  0
    5.3825   -1.4831    3.8398 C   0  0  0  0  0  0  0  0  0  0  0  0
    7.8805   -4.1299    3.6264 F   0  0  0  0  0  0  0  0  0  0  0  0
    4.0861   -0.8025    0.3490 N   0  0  0  0  0  0  0  0  0  0  0  0
    0.8843    2.2213   -1.8372 C   0  0  0  0  0  0  0  0  0  0  0  0
    1.9502    3.2588   -1.9400 C   0  0  0  0  0  0  0  0  0  0  0  0
    3.3192    2.6920   -1.7914 C   0  0  0  0  0  0  0  0  0  0  0  0
    4.3414    3.7393   -1.9359 N   0  0  0  0  0  0  0  0  0  0  0  0
    4.7444    4.4140   -0.9146 C   0  0  0  0  0  0  0  0  0  0  0  0
    4.1876    4.1301    0.3411 N   0  0  0  0  0  0  0  0  0  0  0  0
    5.7363    5.4056   -1.1523 N   0  0  0  0  0  0  0  0  0  0  0  0
   -2.6791    1.6558   -5.4388 H   0  0  0  0  0  0  0  0  0  0  0  0
   -4.3028    1.3878   -4.7313 H   0  0  0  0  0  0  0  0  0  0  0  0
   -3.2756   -0.0626   -5.2165 H   0  0  0  0  0  0  0  0  0  0  0  0
   -1.9292    1.5847   -3.2159 H   0  0  0  0  0  0  0  0  0  0  0  0
   -2.3428   -0.9665   -0.8773 H   0  0  0  0  0  0  0  0  0  0  0  0
   -4.0721    1.4555   -0.1399 H   0  0  0  0  0  0  0  0  0  0  0  0
   -3.2657    0.3180    0.9447 H   0  0  0  0  0  0  0  0  0  0  0  0
   -6.1661    0.6713   -1.3460 H   0  0  0  0  0  0  0  0  0  0  0  0
   -8.1188   -0.8727   -1.2018 H   0  0  0  0  0  0  0  0  0  0  0  0
   -4.0595   -1.8282    1.3639 H   0  0  0  0  0  0  0  0  0  0  0  0
   -5.0129   -3.7972    2.2714 H   0  0  0  0  0  0  0  0  0  0  0  0
   -6.8781   -5.3338    2.4531 H   0  0  0  0  0  0  0  0  0  0  0  0
   -8.9360   -4.8770    1.1700 H   0  0  0  0  0  0  0  0  0  0  0  0
   -9.1305   -2.8895   -0.2893 H   0  0  0  0  0  0  0  0  0  0  0  0
   -1.8795    1.9943   -1.1442 H   0  0  0  0  0  0  0  0  0  0  0  0
    0.4676    2.1244    0.2545 H   0  0  0  0  0  0  0  0  0  0  0  0
    2.4234    0.1494   -0.9910 H   0  0  0  0  0  0  0  0  0  0  0  0
    4.2716    0.5453    1.8879 H   0  0  0  0  0  0  0  0  0  0  0  0
    2.9008   -0.5153    3.4964 H   0  0  0  0  0  0  0  0  0  0  0  0
    2.4095   -1.8537    2.3764 H   0  0  0  0  0  0  0  0  0  0  0  0
    4.0012   -3.4352    1.5018 H   0  0  0  0  0  0  0  0  0  0  0  0
    5.9757   -4.7612    1.8829 H   0  0  0  0  0  0  0  0  0  0  0  0
    7.2778   -1.8938    4.8267 H   0  0  0  0  0  0  0  0  0  0  0  0
    5.2155   -0.5613    4.3898 H   0  0  0  0  0  0  0  0  0  0  0  0
    4.9848   -1.2532    0.6215 H   0  0  0  0  0  0  0  0  0  0  0  0
    4.3333   -0.0006   -0.3057 H   0  0  0  0  0  0  0  0  0  0  0  0
   -0.0903    2.7787   -2.0314 H   0  0  0  0  0  0  0  0  0  0  0  0
    0.9338    1.5299   -2.7396 H   0  0  0  0  0  0  0  0  0  0  0  0
    1.7626    4.0723   -1.1893 H   0  0  0  0  0  0  0  0  0  0  0  0
    1.8870    3.7677   -2.9439 H   0  0  0  0  0  0  0  0  0  0  0  0
    3.5091    2.2763   -0.7869 H   0  0  0  0  0  0  0  0  0  0  0  0
    3.5150    1.9644   -2.6018 H   0  0  0  0  0  0  0  0  0  0  0  0
    4.5855    3.3528    0.9112 H   0  0  0  0  0  0  0  0  0  0  0  0
    3.3933    4.6822    0.6981 H   0  0  0  0  0  0  0  0  0  0  0  0
    6.7478    5.2024   -1.0887 H   0  0  0  0  0  0  0  0  0  0  0  0
    5.3765    6.3621   -1.3977 H   0  0  0  0  0  0  0  0  0  0  0  0
  1  2  1  0
  2  3  1  0
  3  4  2  0
  3  5  1  0
  5  6  1  0
  6  7  1  0
  7  8  2  0
  8  9  1  0
  9 10  2  0
 10 11  1  0
 11 12  2  0
 11 13  1  0
 13 14  2  0
 14 15  1  0
 15 16  2  0
  5 17  1  0
 17 18  1  0
 18 19  2  0
 18 20  1  0
 20 21  1  0
 21 22  1  0
 22 23  2  0
 22 24  1  0
 24 25  1  0
 25 26  1  0
 26 27  2  0
 27 28  1  0
 28 29  2  0
 29 30  1  0
 30 31  2  0
 29 32  1  0
 24 33  1  0
 20 34  1  0
 34 35  1  0
 35 36  1  0
 36 37  1  0
 37 38  2  3
 38 39  1  0
 38 40  1  0
 12  7  1  0
 31 26  1  0
 16 10  1  0
  1 41  1  0
  1 42  1  0
  1 43  1  0
  2 44  1  0
  5 45  1  1
  6 46  1  0
  6 47  1  0
  8 48  1  0
  9 49  1  0
 12 50  1  0
 13 51  1  0
 14 52  1  0
 15 53  1  0
 16 54  1  0
 17 55  1  0
 20 56  1  1
 21 57  1  0
 24 58  1  1
 25 59  1  0
 25 60  1  0
 27 61  1  0
 28 62  1  0
 30 63  1  0
 31 64  1  0
 33 65  1  0
 33 66  1  0
 34 67  1  0
 34 68  1  0
 35 69  1  0
 35 70  1  0
 36 71  1  0
 36 72  1  0
 39 73  1  0
 39 74  1  0
 40 75  1  0
 40 76  1  0
M  END
>  <Ligand ID>  (1) 
LIG0004648

>  <Ligand>  (1) 
CHEMBL212332

>  <SMILES>  (1) 
CNC(=O)[C@H](Cc1ccc2c(c1)cccc2)NC(=O)[C@@H](NC(=O)[C@@H](Cc1ccc(cc1)F)N)CCCN=C(N)N

>  <CID>  (1) 
44415972.0

>  <ChEMBL ID>  (1) 
nan

>  <InChiKey>  (1) 
KLUZHUBQPREOSA-DSITVLBTSA-N

>  <InChi>  (1) 
InChI=1S/C29H36FN7O3/c1-34-27(39)25(17-19-8-11-20-5-2-3-6-21(20)15-19)37-28(40)24(7-4-14-35-29(32)33)36-26(38)23(31)16-18-9-12-22(30)13-10-18/h2-3,5-6,8-13,15,23-25H,4,7,14,16-17,31H2,1H3,(H,34,39)(H,36,38)(H,37,40)(H4,32,33,35)/t23-,24+,25+/m1/s1

>  <IUPAC Name>  (1) 
(2S)-2-[[(2R)-2-amino-3-(4-fluorophenyl)propanoyl]amino]-5-(diaminomethylideneamino)-N-[(2S)-1-(methylamino)-3-naphthalen-2-yl-1-oxopropan-2-yl]pentanamide

$$$$
