
     RDKit          3D

 18 18  0  0  0  0  0  0  0  0999 V2000
    3.3638    0.9962   -0.4787 C   0  0  0  0  0  0  0  0  0  0  0  0
    2.3744    0.0342    0.0955 C   0  0  0  0  0  0  0  0  0  0  0  0
    1.0416    0.3664   -0.1949 O   0  0  0  0  0  0  0  0  0  0  0  0
    0.0662   -0.4839    0.3070 C   0  0  0  0  0  0  0  0  0  0  0  0
    0.3756   -1.5071    0.9927 O   0  0  0  0  0  0  0  0  0  0  0  0
   -1.3543   -0.2456    0.0731 C   0  0  0  0  0  0  0  0  0  0  0  0
   -2.3560   -1.0643    0.5530 C   0  0  0  0  0  0  0  0  0  0  0  0
   -3.5690   -0.5393    0.1432 C   0  0  0  0  0  0  0  0  0  0  0  0
   -3.2314    0.6058   -0.5866 C   0  0  0  0  0  0  0  0  0  0  0  0
   -1.9132    0.7347   -0.5982 O   0  0  0  0  0  0  0  0  0  0  0  0
    3.3566    1.0266   -1.5866 H   0  0  0  0  0  0  0  0  0  0  0  0
    4.3718    0.6442   -0.1358 H   0  0  0  0  0  0  0  0  0  0  0  0
    3.2022    1.9911   -0.0285 H   0  0  0  0  0  0  0  0  0  0  0  0
    2.6157   -0.9872   -0.2995 H   0  0  0  0  0  0  0  0  0  0  0  0
    2.4872    0.0608    1.2006 H   0  0  0  0  0  0  0  0  0  0  0  0
   -2.2756   -1.9718    1.1505 H   0  0  0  0  0  0  0  0  0  0  0  0
   -4.5729   -0.8980    0.3223 H   0  0  0  0  0  0  0  0  0  0  0  0
   -3.9827    1.2372   -1.0405 H   0  0  0  0  0  0  0  0  0  0  0  0
  1  2  1  0
  2  3  1  0
  3  4  1  0
  4  5  2  0
  4  6  1  0
  6  7  2  0
  7  8  1  0
  8  9  2  0
  9 10  1  0
 10  6  1  0
  1 11  1  0
  1 12  1  0
  1 13  1  0
  2 14  1  0
  2 15  1  0
  7 16  1  0
  8 17  1  0
  9 18  1  0
M  END
>  <Ligand ID>  (1) 
LIG0000318

>  <Ligand>  (1) 
Ethyl 2-furoate

>  <SMILES>  (1) 
CCOC(=O)c1ccco1

>  <CID>  (1) 
11980.0

>  <ChEMBL ID>  (1) 
nan

>  <InChiKey>  (1) 
NHXSTXWKZVAVOQ-UHFFFAOYSA-N

>  <InChi>  (1) 
InChI=1S/C7H8O3/c1-2-9-7(8)6-4-3-5-10-6/h3-5H,2H2,1H3

>  <IUPAC Name>  (1) 
ethyl furan-2-carboxylate

$$$$
