
     RDKit          3D

 31 33  0  0  0  0  0  0  0  0999 V2000
   -4.0005   -1.8721    0.9146 C   0  0  0  0  0  0  0  0  0  0  0  0
   -2.7222   -1.6034    0.6619 C   0  0  0  0  0  0  0  0  0  0  0  0
   -2.2562   -1.0376   -0.6396 C   0  0  0  0  0  0  0  0  0  0  0  0
   -1.6000    0.2402   -0.4633 N   0  0  0  0  0  0  0  0  0  0  0  0
   -2.2603    1.4140   -0.5003 C   0  0  0  0  0  0  0  0  0  0  0  0
   -3.5136    1.3866   -0.6993 O   0  0  0  0  0  0  0  0  0  0  0  0
   -1.5833    2.6030   -0.3258 C   0  0  0  0  0  0  0  0  0  0  0  0
   -2.2808    3.8598   -0.3639 C   0  0  0  0  0  0  0  0  0  0  0  0
   -2.8504    4.8883   -0.3855 N   0  0  0  0  0  0  0  0  0  0  0  0
   -0.2166    2.6644   -0.1070 C   0  0  0  0  0  0  0  0  0  0  0  0
    0.4361    1.4274   -0.0749 C   0  0  0  0  0  0  0  0  0  0  0  0
   -0.2635    0.2438   -0.2526 C   0  0  0  0  0  0  0  0  0  0  0  0
    0.3922   -0.9309   -0.2164 N   0  0  0  0  0  0  0  0  0  0  0  0
    1.7209   -0.9134   -0.0061 C   0  0  0  0  0  0  0  0  0  0  0  0
    2.3417   -2.1651    0.0202 C   0  0  0  0  0  0  0  0  0  0  0  0
    3.7028   -2.2533    0.2295 C   0  0  0  0  0  0  0  0  0  0  0  0
    4.4070   -1.0804    0.4074 C   0  0  0  0  0  0  0  0  0  0  0  0
    3.7458    0.1292    0.3723 C   0  0  0  0  0  0  0  0  0  0  0  0
    2.4153    0.2269    0.1683 N   0  0  0  0  0  0  0  0  0  0  0  0
    1.8121    1.4273    0.1419 C   0  0  0  0  0  0  0  0  0  0  0  0
    2.4831    2.4551    0.3062 O   0  0  0  0  0  0  0  0  0  0  0  0
   -4.3362   -2.2888    1.8758 H   0  0  0  0  0  0  0  0  0  0  0  0
   -4.7114   -1.6606    0.1223 H   0  0  0  0  0  0  0  0  0  0  0  0
   -2.0078   -1.8065    1.4336 H   0  0  0  0  0  0  0  0  0  0  0  0
   -3.1889   -0.8098   -1.2301 H   0  0  0  0  0  0  0  0  0  0  0  0
   -1.6652   -1.7599   -1.2119 H   0  0  0  0  0  0  0  0  0  0  0  0
    0.3007    3.5873    0.0271 H   0  0  0  0  0  0  0  0  0  0  0  0
    1.7689   -3.0678   -0.1216 H   0  0  0  0  0  0  0  0  0  0  0  0
    4.1667   -3.2373    0.2464 H   0  0  0  0  0  0  0  0  0  0  0  0
    5.4813   -1.1410    0.5731 H   0  0  0  0  0  0  0  0  0  0  0  0
    4.2824    1.0748    0.5108 H   0  0  0  0  0  0  0  0  0  0  0  0
  1  2  2  0
  2  3  1  0
  3  4  1  0
  4  5  1  0
  5  6  2  0
  5  7  1  0
  7  8  1  0
  8  9  3  0
  7 10  2  0
 10 11  1  0
 11 12  2  0
 12 13  1  0
 13 14  2  0
 14 15  1  0
 15 16  2  0
 16 17  1  0
 17 18  2  0
 18 19  1  0
 19 20  1  0
 20 21  2  0
 12  4  1  0
 19 14  1  0
 20 11  1  0
  1 22  1  0
  1 23  1  0
  2 24  1  0
  3 25  1  0
  3 26  1  0
 10 27  1  0
 15 28  1  0
 16 29  1  0
 17 30  1  0
 18 31  1  0
M  END
>  <Ligand ID>  (1) 
LIG0000813

>  <Ligand>  (1) 
MLS000094258

>  <SMILES>  (1) 
C=CCn1c(=O)c(C#N)cc2c1nc1ccccn1c2=O

>  <CID>  (1) 
3239161.0

>  <ChEMBL ID>  (1) 
nan

>  <InChiKey>  (1) 
ARCGSTOFFXSCJR-UHFFFAOYSA-N

>  <InChi>  (1) 
InChI=1S/C15H10N4O2/c1-2-6-19-13-11(8-10(9-16)14(19)20)15(21)18-7-4-3-5-12(18)17-13/h2-5,7-8H,1,6H2

>  <IUPAC Name>  (1) 
2,6-dioxo-7-prop-2-enyl-1,7,9-triazatricyclo[8.4.0.03,8]tetradeca-3(8),4,9,11,13-pentaene-5-carbonitrile

$$$$
