
     RDKit          3D

 72 73  0  0  0  0  0  0  0  0999 V2000
   -7.3482    3.2226   -2.0728 O   0  0  0  0  0  0  0  0  0  0  0  0
   -6.2463    3.2121   -1.2218 C   0  0  0  0  0  0  0  0  0  0  0  0
   -6.5148    2.2093   -0.1424 C   0  0  0  0  0  0  0  0  0  0  0  0
   -5.8834    0.9673   -0.1793 C   0  0  0  0  0  0  0  0  0  0  0  0
   -6.1289    0.0286    0.8213 C   0  0  0  0  0  0  0  0  0  0  0  0
   -6.9969    0.3416    1.8395 C   0  0  0  0  0  0  0  0  0  0  0  0
   -7.6229    1.5819    1.8700 C   0  0  0  0  0  0  0  0  0  0  0  0
   -7.3843    2.5246    0.8766 C   0  0  0  0  0  0  0  0  0  0  0  0
   -8.0384    3.7462    0.9605 O   0  0  0  0  0  0  0  0  0  0  0  0
   -5.4293   -1.3040    0.7460 C   0  0  2  0  0  0  0  0  0  0  0  0
   -4.0322   -1.2033    1.2523 C   0  0  0  0  0  0  0  0  0  0  0  0
   -3.1516   -0.3598    0.5340 N   0  0  0  0  0  0  0  0  0  0  0  0
   -2.7657   -0.7562   -0.7719 C   0  0  0  0  0  0  0  0  0  0  0  0
   -1.8833   -2.0096   -0.7108 C   0  0  0  0  0  0  0  0  0  0  0  0
   -0.6299   -1.7344    0.0961 C   0  0  0  0  0  0  0  0  0  0  0  0
    0.2520   -2.9580    0.1595 C   0  0  0  0  0  0  0  0  0  0  0  0
    0.6686   -3.3783   -1.2240 C   0  0  0  0  0  0  0  0  0  0  0  0
    1.2893   -2.5338   -1.9526 O   0  0  0  0  0  0  0  0  0  0  0  0
    2.3339   -1.7862   -2.0671 C   0  0  0  0  0  0  0  0  0  0  0  0
    2.6846   -0.6221   -1.2324 C   0  0  0  0  0  0  0  0  0  0  0  0
    2.9009   -0.7093    0.2047 C   0  0  0  0  0  0  0  0  0  0  0  0
    3.9502   -1.6336    0.6939 C   0  0  0  0  0  0  0  0  0  0  0  0
    5.3430   -1.3865    0.2718 C   0  0  0  0  0  0  0  0  0  0  0  0
    5.9656   -0.1287    0.6559 C   0  0  0  0  0  0  0  0  0  0  0  0
    6.6258   -0.0848    1.8910 C   0  0  0  0  0  0  0  0  0  0  0  0
    7.2492    1.0581    2.3397 C   0  0  0  0  0  0  0  0  0  0  0  0
    7.2558    2.2058    1.6053 C   0  0  0  0  0  0  0  0  0  0  0  0
    6.6004    2.1776    0.3693 C   0  0  0  0  0  0  0  0  0  0  0  0
    5.9840    1.0374   -0.0684 C   0  0  0  0  0  0  0  0  0  0  0  0
    6.5768    3.6294   -0.6103 S   0  0  0  0  0  0  0  0  0  0  0  0
    5.3306    3.6142   -1.4464 O   0  0  0  0  0  0  0  0  0  0  0  0
    6.6043    4.8239    0.3124 O   0  0  0  0  0  0  0  0  0  0  0  0
    7.9800    3.5959   -1.6164 N   0  0  0  0  0  0  0  0  0  0  0  0
   -5.5045   -1.7975   -0.5377 O   0  0  0  0  0  0  0  0  0  0  0  0
   -7.4693    2.2877   -2.3894 H   0  0  0  0  0  0  0  0  0  0  0  0
   -5.3630    2.8786   -1.8152 H   0  0  0  0  0  0  0  0  0  0  0  0
   -6.0913    4.2119   -0.7684 H   0  0  0  0  0  0  0  0  0  0  0  0
   -5.2128    0.7796   -1.0039 H   0  0  0  0  0  0  0  0  0  0  0  0
   -7.1790   -0.3981    2.6117 H   0  0  0  0  0  0  0  0  0  0  0  0
   -8.3124    1.8265    2.6816 H   0  0  0  0  0  0  0  0  0  0  0  0
   -7.7576    4.4585    1.6033 H   0  0  0  0  0  0  0  0  0  0  0  0
   -6.0113   -1.9806    1.4311 H   0  0  0  0  0  0  0  0  0  0  0  0
   -3.6532   -2.2422    1.3888 H   0  0  0  0  0  0  0  0  0  0  0  0
   -4.0788   -0.8019    2.3057 H   0  0  0  0  0  0  0  0  0  0  0  0
   -2.3917   -0.0027    1.1154 H   0  0  0  0  0  0  0  0  0  0  0  0
   -3.5738   -0.9911   -1.4610 H   0  0  0  0  0  0  0  0  0  0  0  0
   -2.0783    0.0353   -1.1704 H   0  0  0  0  0  0  0  0  0  0  0  0
   -2.5076   -2.8039   -0.2733 H   0  0  0  0  0  0  0  0  0  0  0  0
   -1.6380   -2.2931   -1.7525 H   0  0  0  0  0  0  0  0  0  0  0  0
   -0.8596   -1.3352    1.0922 H   0  0  0  0  0  0  0  0  0  0  0  0
   -0.0774   -0.9534   -0.4600 H   0  0  0  0  0  0  0  0  0  0  0  0
   -0.3721   -3.7955    0.6331 H   0  0  0  0  0  0  0  0  0  0  0  0
    1.0914   -2.8081    0.8364 H   0  0  0  0  0  0  0  0  0  0  0  0
   -0.2957   -3.8154   -1.7176 H   0  0  0  0  0  0  0  0  0  0  0  0
    1.2119   -4.3775   -1.0466 H   0  0  0  0  0  0  0  0  0  0  0  0
    2.2715   -1.3125   -3.1416 H   0  0  0  0  0  0  0  0  0  0  0  0
    3.2990   -2.4114   -2.2736 H   0  0  0  0  0  0  0  0  0  0  0  0
    1.8350    0.1275   -1.3881 H   0  0  0  0  0  0  0  0  0  0  0  0
    3.5493   -0.0479   -1.7050 H   0  0  0  0  0  0  0  0  0  0  0  0
    3.3143    0.3415    0.5009 H   0  0  0  0  0  0  0  0  0  0  0  0
    2.0131   -0.7606    0.8610 H   0  0  0  0  0  0  0  0  0  0  0  0
    3.7146   -2.7043    0.4121 H   0  0  0  0  0  0  0  0  0  0  0  0
    3.8318   -1.6815    1.8187 H   0  0  0  0  0  0  0  0  0  0  0  0
    6.0273   -2.2043    0.6183 H   0  0  0  0  0  0  0  0  0  0  0  0
    5.3996   -1.4616   -0.8489 H   0  0  0  0  0  0  0  0  0  0  0  0
    6.6541   -0.9493    2.5088 H   0  0  0  0  0  0  0  0  0  0  0  0
    7.7503    1.0291    3.3174 H   0  0  0  0  0  0  0  0  0  0  0  0
    7.7498    3.0942    1.9734 H   0  0  0  0  0  0  0  0  0  0  0  0
    5.4996    1.0703   -1.0289 H   0  0  0  0  0  0  0  0  0  0  0  0
    7.7809    4.0652   -2.5437 H   0  0  0  0  0  0  0  0  0  0  0  0
    8.2559    2.6150   -1.8675 H   0  0  0  0  0  0  0  0  0  0  0  0
   -6.3610   -2.2793   -0.6998 H   0  0  0  0  0  0  0  0  0  0  0  0
  1  2  1  0
  2  3  1  0
  3  4  2  0
  4  5  1  0
  5  6  2  0
  6  7  1  0
  7  8  2  0
  8  9  1  0
  5 10  1  0
 10 11  1  0
 11 12  1  0
 12 13  1  0
 13 14  1  0
 14 15  1  0
 15 16  1  0
 16 17  1  0
 17 18  1  0
 18 19  1  0
 19 20  1  0
 20 21  1  0
 21 22  1  0
 22 23  1  0
 23 24  1  0
 24 25  2  0
 25 26  1  0
 26 27  2  0
 27 28  1  0
 28 29  2  0
 28 30  1  0
 30 31  2  0
 30 32  2  0
 30 33  1  0
 10 34  1  0
  8  3  1  0
 29 24  1  0
  1 35  1  0
  2 36  1  0
  2 37  1  0
  4 38  1  0
  6 39  1  0
  7 40  1  0
  9 41  1  0
 10 42  1  1
 11 43  1  0
 11 44  1  0
 12 45  1  0
 13 46  1  0
 13 47  1  0
 14 48  1  0
 14 49  1  0
 15 50  1  0
 15 51  1  0
 16 52  1  0
 16 53  1  0
 17 54  1  0
 17 55  1  0
 19 56  1  0
 19 57  1  0
 20 58  1  0
 20 59  1  0
 21 60  1  0
 21 61  1  0
 22 62  1  0
 22 63  1  0
 23 64  1  0
 23 65  1  0
 25 66  1  0
 26 67  1  0
 27 68  1  0
 29 69  1  0
 33 70  1  0
 33 71  1  0
 34 72  1  0
M  END
>  <Ligand ID>  (1) 
LIG0002524

>  <Ligand>  (1) 
CHEMBL483202

>  <SMILES>  (1) 
OCc1cc(ccc1O)[C@H](CNCCCCCOCCCCCc1cccc(c1)S(=O)(=O)N)O

>  <CID>  (1) 
42625741.0

>  <ChEMBL ID>  (1) 
nan

>  <InChiKey>  (1) 
WBZQJNRPUIVYMF-VWLOTQADSA-N

>  <InChi>  (1) 
InChI=1S/C25H38N2O6S/c26-34(31,32)23-10-7-9-20(16-23)8-3-1-5-14-33-15-6-2-4-13-27-18-25(30)21-11-12-24(29)22(17-21)19-28/h7,9-12,16-17,25,27-30H,1-6,8,13-15,18-19H2,(H2,26,31,32)/t25-/m0/s1

>  <IUPAC Name>  (1) 
3-[5-[5-[[(2R)-2-hydroxy-2-[4-hydroxy-3-(hydroxymethyl)phenyl]ethyl]amino]pentoxy]pentyl]benzenesulfonamide

$$$$
