
     RDKit          3D

 80 84  0  0  0  0  0  0  0  0999 V2000
    4.0898   -6.0272   -1.7920 O   0  0  0  0  0  0  0  0  0  0  0  0
    3.1161   -5.4235   -1.0113 C   0  0  0  0  0  0  0  0  0  0  0  0
    2.1780   -6.1434   -0.5904 O   0  0  0  0  0  0  0  0  0  0  0  0
    3.1732   -3.9699   -0.6790 C   0  0  0  0  0  0  0  0  0  0  0  0
    2.0427   -3.6456    0.1341 N   0  0  0  0  0  0  0  0  0  0  0  0
    2.0348   -2.2569    0.5397 C   0  0  2  0  0  0  0  0  0  0  0  0
    0.7959   -2.0363    1.3779 C   0  0  0  0  0  0  0  0  0  0  0  0
    0.8023   -0.5977    1.8304 C   0  0  0  0  0  0  0  0  0  0  0  0
    0.5563    0.2246    0.5853 C   0  0  2  0  0  0  0  0  0  0  0  0
    1.6805    0.0356   -0.4162 C   0  0  2  0  0  0  0  0  0  0  0  0
    2.0768   -1.3902   -0.6761 C   0  0  1  0  0  0  0  0  0  0  0  0
    3.4694   -1.2656   -0.9841 O   0  0  0  0  0  0  0  0  0  0  0  0
    3.9834   -0.2916   -0.1528 C   0  0  0  0  0  0  0  0  0  0  0  0
    2.9617    0.5151    0.2152 C   0  0  0  0  0  0  0  0  0  0  0  0
    3.0178    1.6053    1.0343 C   0  0  0  0  0  0  0  0  0  0  0  0
    1.7767    2.3393    1.3225 C   0  0  0  0  0  0  0  0  0  0  0  0
    0.5098    1.7126    0.8516 C   0  0  1  0  0  0  0  0  0  0  0  0
   -0.0298    2.2875   -0.3132 N   0  0  0  0  0  0  0  0  0  0  0  0
    0.4238    1.8870   -1.5821 C   0  0  0  0  0  0  0  0  0  0  0  0
    1.3845    0.7818   -1.6549 C   0  0  0  0  0  0  0  0  0  0  0  0
   -0.9850    3.2934   -0.2493 C   0  0  0  0  0  0  0  0  0  0  0  0
   -0.6205    4.6410    0.2517 C   0  0  0  0  0  0  0  0  0  0  0  0
    0.4248    5.4057   -0.4874 C   0  0  0  0  0  0  0  0  0  0  0  0
   -1.0036    5.8535   -0.5517 C   0  0  0  0  0  0  0  0  0  0  0  0
    4.2590    1.9265    1.5479 C   0  0  0  0  0  0  0  0  0  0  0  0
    5.3520    1.1301    1.2023 C   0  0  0  0  0  0  0  0  0  0  0  0
    5.2353    0.0309    0.3639 C   0  0  0  0  0  0  0  0  0  0  0  0
    6.3270   -0.7631    0.0195 O   0  0  0  0  0  0  0  0  0  0  0  0
   -0.5890   -0.2212   -0.0113 O   0  0  0  0  0  0  0  0  0  0  0  0
   -1.7356   -0.1954    0.7059 C   0  0  0  0  0  0  0  0  0  0  0  0
   -2.8625   -0.7326   -0.1932 C   0  0  0  0  0  0  0  0  0  0  0  0
   -4.1385   -0.6847    0.6556 C   0  0  0  0  0  0  0  0  0  0  0  0
   -5.2607   -1.1801   -0.1454 C   0  0  0  0  0  0  0  0  0  0  0  0
   -5.9898   -0.2969   -0.9012 C   0  0  0  0  0  0  0  0  0  0  0  0
   -7.0615   -0.6492   -1.6862 C   0  0  0  0  0  0  0  0  0  0  0  0
   -7.4222   -1.9938   -1.7084 C   0  0  0  0  0  0  0  0  0  0  0  0
   -6.6999   -2.9216   -0.9493 C   0  0  0  0  0  0  0  0  0  0  0  0
   -5.6289   -2.5084   -0.1770 C   0  0  0  0  0  0  0  0  0  0  0  0
    0.6888    0.0000    0.0000 Cl  0  0  0  0  0  0  0  0  0  0  0  0
    0.6866    0.0000    0.0000 Cl  0  0  0  0  0  0  0  0  0  0  0  0
    4.4529   -6.9400   -1.5453 H   0  0  0  0  0  0  0  0  0  0  0  0
    3.1680   -3.4365   -1.6678 H   0  0  0  0  0  0  0  0  0  0  0  0
    4.1076   -3.7382   -0.1529 H   0  0  0  0  0  0  0  0  0  0  0  0
    1.1675   -3.8338   -0.3881 H   0  0  0  0  0  0  0  0  0  0  0  0
    2.9123   -2.1193    1.2065 H   0  0  0  0  0  0  0  0  0  0  0  0
   -0.0456   -2.3223    0.7418 H   0  0  0  0  0  0  0  0  0  0  0  0
    0.8987   -2.7004    2.2590 H   0  0  0  0  0  0  0  0  0  0  0  0
    0.0014   -0.3605    2.5437 H   0  0  0  0  0  0  0  0  0  0  0  0
    1.8028   -0.3809    2.2502 H   0  0  0  0  0  0  0  0  0  0  0  0
    1.5536   -1.8546   -1.5405 H   0  0  0  0  0  0  0  0  0  0  0  0
    1.8831    3.3251    0.7773 H   0  0  0  0  0  0  0  0  0  0  0  0
    1.7903    2.5640    2.4125 H   0  0  0  0  0  0  0  0  0  0  0  0
   -0.2262    1.9326    1.6885 H   0  0  0  0  0  0  0  0  0  0  0  0
   -0.5044    1.5938   -2.1615 H   0  0  0  0  0  0  0  0  0  0  0  0
    0.7857    2.7770   -2.1386 H   0  0  0  0  0  0  0  0  0  0  0  0
    1.0707    0.0112   -2.4187 H   0  0  0  0  0  0  0  0  0  0  0  0
    2.3578    1.1457   -2.0632 H   0  0  0  0  0  0  0  0  0  0  0  0
   -1.8653    2.9546    0.3735 H   0  0  0  0  0  0  0  0  0  0  0  0
   -1.4425    3.4173   -1.2786 H   0  0  0  0  0  0  0  0  0  0  0  0
   -0.7241    4.7885    1.3507 H   0  0  0  0  0  0  0  0  0  0  0  0
    0.8458    5.0437   -1.4300 H   0  0  0  0  0  0  0  0  0  0  0  0
    1.1412    5.9674    0.1496 H   0  0  0  0  0  0  0  0  0  0  0  0
   -1.2163    6.8006   -0.0180 H   0  0  0  0  0  0  0  0  0  0  0  0
   -1.5504    5.7553   -1.5087 H   0  0  0  0  0  0  0  0  0  0  0  0
    4.3422    2.7813    2.1989 H   0  0  0  0  0  0  0  0  0  0  0  0
    6.3343    1.3914    1.6137 H   0  0  0  0  0  0  0  0  0  0  0  0
    6.6737   -1.3748    0.7536 H   0  0  0  0  0  0  0  0  0  0  0  0
   -2.0974    0.7440    1.1030 H   0  0  0  0  0  0  0  0  0  0  0  0
   -1.7501   -0.9075    1.5787 H   0  0  0  0  0  0  0  0  0  0  0  0
   -2.9615   -0.0329   -1.0397 H   0  0  0  0  0  0  0  0  0  0  0  0
   -2.6256   -1.7414   -0.5355 H   0  0  0  0  0  0  0  0  0  0  0  0
   -4.0316   -1.3742    1.5197 H   0  0  0  0  0  0  0  0  0  0  0  0
   -4.2556    0.3322    1.0490 H   0  0  0  0  0  0  0  0  0  0  0  0
   -5.7060    0.7464   -0.8808 H   0  0  0  0  0  0  0  0  0  0  0  0
   -7.6028    0.0816   -2.2624 H   0  0  0  0  0  0  0  0  0  0  0  0
   -8.2616   -2.3183   -2.3123 H   0  0  0  0  0  0  0  0  0  0  0  0
   -6.9923   -3.9660   -0.9766 H   0  0  0  0  0  0  0  0  0  0  0  0
   -5.0744   -3.2270    0.4066 H   0  0  0  0  0  0  0  0  0  0  0  0
   -0.6888    0.0000    0.0000 H   0  0  0  0  0  0  0  0  0  0  0  0
   -0.6866    0.0000    0.0000 H   0  0  0  0  0  0  0  0  0  0  0  0
  1  2  1  0
  2  3  2  0
  2  4  1  0
  4  5  1  0
  5  6  1  0
  6  7  1  0
  7  8  1  0
  8  9  1  0
  9 10  1  0
 10 11  1  0
 11 12  1  0
 12 13  1  0
 13 14  2  0
 14 15  1  0
 15 16  1  0
 16 17  1  0
 17 18  1  0
 18 19  1  0
 19 20  1  0
 18 21  1  0
 21 22  1  0
 22 23  1  0
 23 24  1  0
 15 25  2  0
 25 26  1  0
 26 27  2  0
 27 28  1  0
  9 29  1  6
 29 30  1  0
 30 31  1  0
 31 32  1  0
 32 33  1  0
 33 34  2  0
 34 35  1  0
 35 36  2  0
 36 37  1  0
 37 38  2  0
 11  6  1  0
 27 13  1  0
 38 33  1  0
 17  9  1  0
 24 22  1  0
 10 20  1  6
 14 10  1  0
  1 41  1  0
  4 42  1  0
  4 43  1  0
  5 44  1  0
  6 45  1  1
  7 46  1  0
  7 47  1  0
  8 48  1  0
  8 49  1  0
 11 50  1  6
 16 51  1  0
 16 52  1  0
 17 53  1  1
 19 54  1  0
 19 55  1  0
 20 56  1  0
 20 57  1  0
 21 58  1  0
 21 59  1  0
 22 60  1  0
 23 61  1  0
 23 62  1  0
 24 63  1  0
 24 64  1  0
 25 65  1  0
 26 66  1  0
 28 67  1  0
 30 68  1  0
 30 69  1  0
 31 70  1  0
 31 71  1  0
 32 72  1  0
 32 73  1  0
 34 74  1  0
 35 75  1  0
 36 76  1  0
 37 77  1  0
 38 78  1  0
 39 79  1  0
 40 80  1  0
M  END
>  <Ligand ID>  (1) 
LIG0002884

>  <Ligand>  (1) 
CHEMBL3216936

>  <SMILES>  (1) 
OC(=O)CN[C@@H]1CC[C@@]2([C@@]34[C@H]1Oc1c4c(C[C@H]2N(CC3)CC2CC2)ccc1O)OCCCc1ccccc1.Cl.Cl

>  <CID>  (1) 
51003216.0

>  <ChEMBL ID>  (1) 
nan

>  <InChiKey>  (1) 
CWOMCLVWSXLYKC-LZRGLGAVSA-N

>  <InChi>  (1) 
InChI=1S/C31H38N2O5.2ClH/c34-24-11-10-22-17-25-31(37-16-4-7-20-5-2-1-3-6-20)13-12-23(32-18-26(35)36)29-30(31,27(22)28(24)38-29)14-15-33(25)19-21-8-9-21;;/h1-3,5-6,10-11,21,23,25,29,32,34H,4,7-9,12-19H2,(H,35,36);2*1H/t23-,25-,29+,30+,31-;;/m1../s1

>  <IUPAC Name>  (1) 
2-[[(4R,4aS,7R,7aR,12bS)-3-(cyclopropylmethyl)-9-hydroxy-4a-(3-phenylpropoxy)-1,2,4,5,6,7,7a,13-octahydro-4,12-methanobenzofuro[3,2-e]isoquinolin-7-yl]amino]acetic acid;dihydrochloride

$$$$
