
     RDKit          3D

 46 50  0  0  0  0  0  0  0  0999 V2000
    5.7042    3.1608    0.1091 C   0  0  0  0  0  0  0  0  0  0  0  0
    6.2087    1.7623   -0.2693 C   0  0  0  0  0  0  0  0  0  0  0  0
    5.3526    0.8280    0.4500 N   0  0  0  0  0  0  0  0  0  0  0  0
    5.6429    0.3970    1.6609 N   0  0  0  0  0  0  0  0  0  0  0  0
    4.6999   -0.4442    2.0876 N   0  0  0  0  0  0  0  0  0  0  0  0
    3.7903   -0.5232    1.0743 C   0  0  0  0  0  0  0  0  0  0  0  0
    4.2174    0.2719    0.0755 N   0  0  0  0  0  0  0  0  0  0  0  0
    2.5497   -1.3257    1.0438 C   0  0  1  0  0  0  0  0  0  0  0  0
    1.5082   -0.5411    0.5455 O   0  0  0  0  0  0  0  0  0  0  0  0
    0.4950   -1.4939    0.4389 C   0  0  2  0  0  0  0  0  0  0  0  0
    1.1469   -2.5551   -0.3866 C   0  0  1  0  0  0  0  0  0  0  0  0
    2.5859   -2.4994    0.1199 C   0  0  2  0  0  0  0  0  0  0  0  0
    2.8311   -3.6795    0.8430 O   0  0  0  0  0  0  0  0  0  0  0  0
    0.5794   -3.8028   -0.1468 O   0  0  0  0  0  0  0  0  0  0  0  0
   -0.7050   -0.9580   -0.1598 N   0  0  0  0  0  0  0  0  0  0  0  0
   -0.9609   -0.9642   -1.4810 C   0  0  0  0  0  0  0  0  0  0  0  0
   -2.1629   -0.3846   -1.6565 N   0  0  0  0  0  0  0  0  0  0  0  0
   -2.6591   -0.0176   -0.4650 C   0  0  0  0  0  0  0  0  0  0  0  0
   -1.7427   -0.3766    0.4908 C   0  0  0  0  0  0  0  0  0  0  0  0
   -1.9761   -0.1275    1.8089 N   0  0  0  0  0  0  0  0  0  0  0  0
   -3.1413    0.4836    2.1268 C   0  0  0  0  0  0  0  0  0  0  0  0
   -3.4979    0.8315    3.8167 Cl  0  0  0  0  0  0  0  0  0  0  0  0
   -4.0364    0.8335    1.1864 N   0  0  0  0  0  0  0  0  0  0  0  0
   -3.8691    0.6177   -0.1280 C   0  0  0  0  0  0  0  0  0  0  0  0
   -4.8016    0.9738   -1.1280 N   0  0  0  0  0  0  0  0  0  0  0  0
   -6.0550    1.6237   -0.9512 C   0  0  0  0  0  0  0  0  0  0  0  0
   -7.0841    0.9695   -0.0441 C   0  0  0  0  0  0  0  0  0  0  0  0
   -6.4023    2.2716    0.3126 C   0  0  0  0  0  0  0  0  0  0  0  0
    6.0817    3.9432   -0.5658 H   0  0  0  0  0  0  0  0  0  0  0  0
    4.5956    3.1216    0.0975 H   0  0  0  0  0  0  0  0  0  0  0  0
    5.9880    3.3281    1.1689 H   0  0  0  0  0  0  0  0  0  0  0  0
    7.2763    1.6307   -0.0686 H   0  0  0  0  0  0  0  0  0  0  0  0
    5.9334    1.6542   -1.3481 H   0  0  0  0  0  0  0  0  0  0  0  0
    2.2130   -1.6043    2.0810 H   0  0  0  0  0  0  0  0  0  0  0  0
    0.3338   -1.8828    1.4524 H   0  0  0  0  0  0  0  0  0  0  0  0
    1.1653   -2.3821   -1.4637 H   0  0  0  0  0  0  0  0  0  0  0  0
    3.2966   -2.3488   -0.6986 H   0  0  0  0  0  0  0  0  0  0  0  0
    2.9684   -4.4489    0.2648 H   0  0  0  0  0  0  0  0  0  0  0  0
    1.0571   -4.4744   -0.6999 H   0  0  0  0  0  0  0  0  0  0  0  0
   -0.3728   -1.3398   -2.3061 H   0  0  0  0  0  0  0  0  0  0  0  0
   -4.5141    0.7149   -2.1255 H   0  0  0  0  0  0  0  0  0  0  0  0
   -6.4741    2.0699   -1.9061 H   0  0  0  0  0  0  0  0  0  0  0  0
   -8.1515    1.0327   -0.3336 H   0  0  0  0  0  0  0  0  0  0  0  0
   -6.7855    0.1181    0.5829 H   0  0  0  0  0  0  0  0  0  0  0  0
   -5.7804    2.3393    1.1995 H   0  0  0  0  0  0  0  0  0  0  0  0
   -7.0487    3.1971    0.2051 H   0  0  0  0  0  0  0  0  0  0  0  0
  1  2  1  0
  2  3  1  0
  3  4  1  0
  4  5  2  0
  5  6  1  0
  6  7  2  0
  6  8  1  0
  8  9  1  0
  9 10  1  0
 10 11  1  0
 11 12  1  0
 12 13  1  0
 11 14  1  0
 10 15  1  0
 15 16  1  0
 16 17  2  0
 17 18  1  0
 18 19  2  0
 19 20  1  0
 20 21  2  0
 21 22  1  0
 21 23  1  0
 23 24  2  0
 24 25  1  0
 25 26  1  0
 26 27  1  0
 27 28  1  0
  7  3  1  0
 12  8  1  0
 19 15  1  0
 28 26  1  0
 24 18  1  0
  1 29  1  0
  1 30  1  0
  1 31  1  0
  2 32  1  0
  2 33  1  0
  8 34  1  1
 10 35  1  1
 11 36  1  6
 12 37  1  6
 13 38  1  0
 14 39  1  0
 16 40  1  0
 25 41  1  0
 26 42  1  0
 27 43  1  0
 27 44  1  0
 28 45  1  0
 28 46  1  0
M  END
>  <Ligand ID>  (1) 
LIG0001922

>  <Ligand>  (1) 
CHEMBL3414941

>  <SMILES>  (1) 
CCn1nnc(n1)[C@H]1O[C@H]([C@@H]([C@@H]1O)O)n1cnc2c1nc(Cl)nc2NC1CC1

>  <CID>  (1) 
118732975.0

>  <ChEMBL ID>  (1) 
nan

>  <InChiKey>  (1) 
IRRXNCFETDOCCQ-AEISUSGSSA-N

>  <InChi>  (1) 
InChI=1S/C15H18ClN9O3/c1-2-25-22-12(21-23-25)10-8(26)9(27)14(28-10)24-5-17-7-11(18-6-3-4-6)19-15(16)20-13(7)24/h5-6,8-10,14,26-27H,2-4H2,1H3,(H,18,19,20)/t8-,9+,10-,14+/m0/s1

>  <IUPAC Name>  (1) 
(2R,3R,4S,5R)-2-[2-chloro-6-(cyclopropylamino)purin-9-yl]-5-(2-ethyltetrazol-5-yl)oxolane-3,4-diol

$$$$
