
     RDKit          3D

 53 55  0  0  0  0  0  0  0  0999 V2000
    1.4426    0.3198    1.0191 C   0  0  0  0  0  0  0  0  0  0  0  0
    1.6915   -0.6524   -0.0706 C   0  0  2  0  0  0  0  0  0  0  0  0
    0.7910   -1.8947    0.0965 C   0  0  0  0  0  0  0  0  0  0  0  0
   -0.5970   -1.4500    0.0538 C   0  0  0  0  0  0  0  0  0  0  0  0
   -1.3661   -1.1439    1.1657 C   0  0  0  0  0  0  0  0  0  0  0  0
   -2.6819   -0.7164    1.0632 C   0  0  0  0  0  0  0  0  0  0  0  0
   -3.2717   -0.5823   -0.1820 C   0  0  0  0  0  0  0  0  0  0  0  0
   -2.5268   -0.8807   -1.3049 C   0  0  0  0  0  0  0  0  0  0  0  0
   -1.2161   -1.3051   -1.1691 C   0  0  0  0  0  0  0  0  0  0  0  0
   -4.6600   -0.1362   -0.2394 C   0  0  0  0  0  0  0  0  0  0  0  0
   -5.2184    0.7222    0.6831 C   0  0  0  0  0  0  0  0  0  0  0  0
   -6.5622    1.0762    0.5231 C   0  0  0  0  0  0  0  0  0  0  0  0
   -7.3262    0.6000   -0.5102 C   0  0  0  0  0  0  0  0  0  0  0  0
   -6.7598   -0.2579   -1.4287 C   0  0  0  0  0  0  0  0  0  0  0  0
   -5.4355   -0.6085   -1.2730 C   0  0  0  0  0  0  0  0  0  0  0  0
   -8.7327    0.9603   -0.6865 C   0  0  0  0  0  0  0  0  0  0  0  0
   -9.2468    1.7386    0.1507 O   0  0  0  0  0  0  0  0  0  0  0  0
   -9.4821    0.4689   -1.7333 O   0  0  0  0  0  0  0  0  0  0  0  0
    3.0102   -1.1056   -0.2976 N   0  0  0  0  0  0  0  0  0  0  0  0
    3.7820   -0.4029   -1.2437 C   0  0  0  0  0  0  0  0  0  0  0  0
    4.2513    0.9779   -0.8915 C   0  0  1  0  0  0  0  0  0  0  0  0
    5.2177    0.8267    0.2273 C   0  0  0  0  0  0  0  0  0  0  0  0
    5.0996    1.3663    1.4603 C   0  0  0  0  0  0  0  0  0  0  0  0
    6.0524    1.1651    2.4614 C   0  0  0  0  0  0  0  0  0  0  0  0
    7.1571    0.3882    2.1876 C   0  0  0  0  0  0  0  0  0  0  0  0
    7.3116   -0.1776    0.9422 C   0  0  0  0  0  0  0  0  0  0  0  0
    6.3418    0.0397   -0.0421 C   0  0  0  0  0  0  0  0  0  0  0  0
    8.7244   -1.1550    0.6384 Cl  0  0  0  0  0  0  0  0  0  0  0  0
    4.9846    1.4505   -2.0269 O   0  0  0  0  0  0  0  0  0  0  0  0
    0.5216    0.9492    0.8195 H   0  0  0  0  0  0  0  0  0  0  0  0
    1.1793   -0.2192    1.9844 H   0  0  0  0  0  0  0  0  0  0  0  0
    2.2451    1.0198    1.1575 H   0  0  0  0  0  0  0  0  0  0  0  0
    1.3438   -0.1180   -1.0271 H   0  0  0  0  0  0  0  0  0  0  0  0
    0.9990   -2.3248    1.1073 H   0  0  0  0  0  0  0  0  0  0  0  0
    1.0150   -2.6607   -0.6426 H   0  0  0  0  0  0  0  0  0  0  0  0
   -0.9454   -1.2391    2.1548 H   0  0  0  0  0  0  0  0  0  0  0  0
   -3.2613   -0.4831    1.9554 H   0  0  0  0  0  0  0  0  0  0  0  0
   -2.9893   -0.7768   -2.2899 H   0  0  0  0  0  0  0  0  0  0  0  0
   -0.6679   -1.5300   -2.0590 H   0  0  0  0  0  0  0  0  0  0  0  0
   -4.6296    1.1031    1.4957 H   0  0  0  0  0  0  0  0  0  0  0  0
   -7.0455    1.7455    1.2219 H   0  0  0  0  0  0  0  0  0  0  0  0
   -7.3777   -0.6297   -2.2466 H   0  0  0  0  0  0  0  0  0  0  0  0
   -5.0437   -1.2943   -2.0357 H   0  0  0  0  0  0  0  0  0  0  0  0
  -10.4812    0.2844   -1.5522 H   0  0  0  0  0  0  0  0  0  0  0  0
    3.1105   -2.1332   -0.4424 H   0  0  0  0  0  0  0  0  0  0  0  0
    3.2001   -0.2701   -2.2243 H   0  0  0  0  0  0  0  0  0  0  0  0
    4.6650   -1.0237   -1.6037 H   0  0  0  0  0  0  0  0  0  0  0  0
    3.4364    1.6427   -0.6722 H   0  0  0  0  0  0  0  0  0  0  0  0
    4.2717    1.9875    1.7222 H   0  0  0  0  0  0  0  0  0  0  0  0
    5.9441    1.6043    3.4431 H   0  0  0  0  0  0  0  0  0  0  0  0
    7.8845    0.2409    2.9691 H   0  0  0  0  0  0  0  0  0  0  0  0
    6.5083   -0.4231   -1.0035 H   0  0  0  0  0  0  0  0  0  0  0  0
    5.3424    2.3369   -1.8044 H   0  0  0  0  0  0  0  0  0  0  0  0
  1  2  1  0
  2  3  1  0
  3  4  1  0
  4  5  2  0
  5  6  1  0
  6  7  2  0
  7  8  1  0
  8  9  2  0
  7 10  1  0
 10 11  2  0
 11 12  1  0
 12 13  2  0
 13 14  1  0
 14 15  2  0
 13 16  1  0
 16 17  2  0
 16 18  1  0
  2 19  1  0
 19 20  1  0
 20 21  1  0
 21 22  1  0
 22 23  2  0
 23 24  1  0
 24 25  2  0
 25 26  1  0
 26 27  2  0
 26 28  1  0
 21 29  1  0
  9  4  1  0
 15 10  1  0
 27 22  1  0
  1 30  1  0
  1 31  1  0
  1 32  1  0
  2 33  1  6
  3 34  1  0
  3 35  1  0
  5 36  1  0
  6 37  1  0
  8 38  1  0
  9 39  1  0
 11 40  1  0
 12 41  1  0
 14 42  1  0
 15 43  1  0
 18 44  1  0
 19 45  1  0
 20 46  1  0
 20 47  1  0
 21 48  1  1
 23 49  1  0
 24 50  1  0
 25 51  1  0
 27 52  1  0
 29 53  1  0
M  END
>  <Ligand ID>  (1) 
LIG0005457

>  <Ligand>  (1) 
CHEMBL488430

>  <SMILES>  (1) 
C[C@H](Cc1ccc(cc1)c1ccc(cc1)C(=O)O)NC[C@@H](c1cccc(c1)Cl)O

>  <CID>  (1) 
24895265.0

>  <ChEMBL ID>  (1) 
nan

>  <InChiKey>  (1) 
UDSXXZFTNZSJDL-MWTRTKDXSA-N

>  <InChi>  (1) 
InChI=1S/C24H24ClNO3/c1-16(26-15-23(27)21-3-2-4-22(25)14-21)13-17-5-7-18(8-6-17)19-9-11-20(12-10-19)24(28)29/h2-12,14,16,23,26-27H,13,15H2,1H3,(H,28,29)/t16-,23+/m1/s1

>  <IUPAC Name>  (1) 
4-[4-[(2R)-2-[[(2R)-2-(3-chlorophenyl)-2-hydroxyethyl]amino]propyl]phenyl]benzoic acid

$$$$
