
     RDKit          3D

 37 39  0  0  0  0  0  0  0  0999 V2000
   -0.4887   -4.4702    1.1717 O   0  0  0  0  0  0  0  0  0  0  0  0
   -0.8683   -3.3028    0.9173 C   0  0  0  0  0  0  0  0  0  0  0  0
   -1.8448   -2.9656   -0.1052 C   0  0  0  0  0  0  0  0  0  0  0  0
   -2.4668   -3.7258   -0.8911 O   0  0  0  0  0  0  0  0  0  0  0  0
   -2.0174   -1.5107   -0.0933 C   0  0  0  0  0  0  0  0  0  0  0  0
   -1.1846   -1.0039    0.8884 C   0  0  0  0  0  0  0  0  0  0  0  0
   -0.4800   -2.0673    1.5130 N   0  0  0  0  0  0  0  0  0  0  0  0
    0.4692   -1.9197    2.5724 C   0  0  0  0  0  0  0  0  0  0  0  0
    1.8969   -1.7280    2.0700 C   0  0  0  0  0  0  0  0  0  0  0  0
    2.1368   -0.7001    1.3146 O   0  0  0  0  0  0  0  0  0  0  0  0
    2.3707    0.3212    0.5759 C   0  0  0  0  0  0  0  0  0  0  0  0
    2.1471    1.6295    1.0413 C   0  0  0  0  0  0  0  0  0  0  0  0
    2.3930    2.7342    0.2616 C   0  0  0  0  0  0  0  0  0  0  0  0
    2.8728    2.5141   -1.0095 C   0  0  0  0  0  0  0  0  0  0  0  0
    3.1167    1.2690   -1.5364 C   0  0  0  0  0  0  0  0  0  0  0  0
    2.8617    0.1829   -0.7340 C   0  0  0  0  0  0  0  0  0  0  0  0
   -1.1624    0.3606    1.1011 C   0  0  0  0  0  0  0  0  0  0  0  0
   -1.9634    1.1854    0.3379 C   0  0  0  0  0  0  0  0  0  0  0  0
   -2.8074    0.7066   -0.6521 C   0  0  0  0  0  0  0  0  0  0  0  0
   -2.8126   -0.6728   -0.8482 C   0  0  0  0  0  0  0  0  0  0  0  0
   -3.6013    1.5629   -1.4031 O   0  0  0  0  0  0  0  0  0  0  0  0
   -3.0475    2.0830   -2.6040 C   0  0  0  0  0  0  0  0  0  0  0  0
   -3.9433    2.9168   -3.2471 F   0  0  0  0  0  0  0  0  0  0  0  0
   -2.8098    1.0129   -3.4424 F   0  0  0  0  0  0  0  0  0  0  0  0
   -1.8867    2.7585   -2.2638 F   0  0  0  0  0  0  0  0  0  0  0  0
    0.4824   -2.8404    3.1929 H   0  0  0  0  0  0  0  0  0  0  0  0
    0.2496   -1.0930    3.2708 H   0  0  0  0  0  0  0  0  0  0  0  0
    2.5104   -1.7200    3.0334 H   0  0  0  0  0  0  0  0  0  0  0  0
    2.2135   -2.6968    1.5976 H   0  0  0  0  0  0  0  0  0  0  0  0
    1.7738    1.7713    2.0335 H   0  0  0  0  0  0  0  0  0  0  0  0
    2.2083    3.7353    0.6544 H   0  0  0  0  0  0  0  0  0  0  0  0
    3.0630    3.3862   -1.6145 H   0  0  0  0  0  0  0  0  0  0  0  0
    3.4950    1.1401   -2.5435 H   0  0  0  0  0  0  0  0  0  0  0  0
    3.0367   -0.8230   -1.1003 H   0  0  0  0  0  0  0  0  0  0  0  0
   -0.5063    0.7429    1.8720 H   0  0  0  0  0  0  0  0  0  0  0  0
   -1.9303    2.2617    0.5228 H   0  0  0  0  0  0  0  0  0  0  0  0
   -3.4762   -1.0349   -1.6247 H   0  0  0  0  0  0  0  0  0  0  0  0
  1  2  2  0
  2  3  1  0
  3  4  2  0
  3  5  1  0
  5  6  2  0
  6  7  1  0
  7  8  1  0
  8  9  1  0
  9 10  1  0
 10 11  1  0
 11 12  2  0
 12 13  1  0
 13 14  2  0
 14 15  1  0
 15 16  2  0
  6 17  1  0
 17 18  2  0
 18 19  1  0
 19 20  2  0
 19 21  1  0
 21 22  1  0
 22 23  1  0
 22 24  1  0
 22 25  1  0
  7  2  1  0
 16 11  1  0
 20  5  1  0
  8 26  1  0
  8 27  1  0
  9 28  1  0
  9 29  1  0
 12 30  1  0
 13 31  1  0
 14 32  1  0
 15 33  1  0
 16 34  1  0
 17 35  1  0
 18 36  1  0
 20 37  1  0
M  END
>  <Ligand ID>  (1) 
LIG0000497

>  <Ligand>  (1) 
CHEMBL2381694

>  <SMILES>  (1) 
O=C1C(=O)c2c(N1CCOc1ccccc1)ccc(c2)OC(F)(F)F

>  <CID>  (1) 
57525860.0

>  <ChEMBL ID>  (1) 
nan

>  <InChiKey>  (1) 
LSQVHDRSPDDZCD-UHFFFAOYSA-N

>  <InChi>  (1) 
InChI=1S/C17H12F3NO4/c18-17(19,20)25-12-6-7-14-13(10-12)15(22)16(23)21(14)8-9-24-11-4-2-1-3-5-11/h1-7,10H,8-9H2

>  <IUPAC Name>  (1) 
1-(2-phenoxyethyl)-5-(trifluoromethoxy)indole-2,3-dione

$$$$
