
     RDKit          3D

 64 68  0  0  0  0  0  0  0  0999 V2000
    6.1112    1.0598   -3.4055 O   0  0  0  0  0  0  0  0  0  0  0  0
    7.3837    0.9107   -2.8802 C   0  0  0  0  0  0  0  0  0  0  0  0
    8.3688    0.9529   -3.6888 O   0  0  0  0  0  0  0  0  0  0  0  0
    7.6721    0.7073   -1.4426 C   0  0  0  0  0  0  0  0  0  0  0  0
    6.5018    0.6399   -0.7046 O   0  0  0  0  0  0  0  0  0  0  0  0
    5.4754   -0.2541   -0.7888 C   0  0  0  0  0  0  0  0  0  0  0  0
    5.5234   -1.2864   -1.7140 C   0  0  0  0  0  0  0  0  0  0  0  0
    4.4909   -2.2183   -1.8267 C   0  0  0  0  0  0  0  0  0  0  0  0
    3.4051   -2.0927   -0.9883 C   0  0  0  0  0  0  0  0  0  0  0  0
    3.3862   -1.0507   -0.0739 C   0  0  0  0  0  0  0  0  0  0  0  0
    4.3673   -0.1272    0.0659 C   0  0  0  0  0  0  0  0  0  0  0  0
    4.4111    1.0010    1.0125 C   0  0  0  0  0  0  0  0  0  0  0  0
    3.2838    0.9117    1.9765 C   0  0  0  0  0  0  0  0  0  0  0  0
    2.0029    0.4007    1.3618 C   0  0  0  0  0  0  0  0  0  0  0  0
    2.1748   -0.9841    0.8031 C   0  0  0  0  0  0  0  0  0  0  0  0
    0.9391    0.3871    2.4190 C   0  0  0  0  0  0  0  0  0  0  0  0
   -0.3402   -0.0700    1.9389 N   0  0  0  0  0  0  0  0  0  0  0  0
   -1.1384    0.8461    1.3938 N   0  0  0  0  0  0  0  0  0  0  0  0
   -2.3555    0.5731    0.8890 C   0  0  0  0  0  0  0  0  0  0  0  0
   -3.1439    1.6729    0.3140 C   0  0  0  0  0  0  0  0  0  0  0  0
   -3.4581    2.7001    1.2084 C   0  0  0  0  0  0  0  0  0  0  0  0
   -4.1932    3.8013    0.8193 C   0  0  0  0  0  0  0  0  0  0  0  0
   -4.6102    3.8480   -0.5036 C   0  0  0  0  0  0  0  0  0  0  0  0
   -4.2970    2.8223   -1.3986 C   0  0  0  0  0  0  0  0  0  0  0  0
   -3.5516    1.7176   -0.9812 C   0  0  0  0  0  0  0  0  0  0  0  0
   -2.8290   -0.7035    0.9214 C   0  0  0  0  0  0  0  0  0  0  0  0
   -2.0380   -1.6872    1.4768 C   0  0  0  0  0  0  0  0  0  0  0  0
   -0.7872   -1.3257    1.9800 C   0  0  0  0  0  0  0  0  0  0  0  0
   -0.0988   -2.2471    2.4785 O   0  0  0  0  0  0  0  0  0  0  0  0
   -4.1516   -0.9574    0.3631 C   0  0  0  0  0  0  0  0  0  0  0  0
   -5.2686   -0.3500    0.9344 C   0  0  0  0  0  0  0  0  0  0  0  0
   -6.5143   -0.5999    0.3934 C   0  0  0  0  0  0  0  0  0  0  0  0
   -6.6841   -1.4304   -0.6921 C   0  0  0  0  0  0  0  0  0  0  0  0
   -5.5696   -2.0360   -1.2616 C   0  0  0  0  0  0  0  0  0  0  0  0
   -4.3074   -1.8040   -0.7404 C   0  0  0  0  0  0  0  0  0  0  0  0
   -5.8067   -2.9231   -2.4315 C   0  0  0  0  0  0  0  0  0  0  0  0
    5.9292    0.9290   -4.3958 H   0  0  0  0  0  0  0  0  0  0  0  0
    8.2484    1.5932   -1.0573 H   0  0  0  0  0  0  0  0  0  0  0  0
    8.2718   -0.2280   -1.2786 H   0  0  0  0  0  0  0  0  0  0  0  0
    6.3508   -1.4402   -2.3924 H   0  0  0  0  0  0  0  0  0  0  0  0
    4.5159   -3.0222   -2.5396 H   0  0  0  0  0  0  0  0  0  0  0  0
    2.5883   -2.8004   -1.0521 H   0  0  0  0  0  0  0  0  0  0  0  0
    5.3554    0.9026    1.6047 H   0  0  0  0  0  0  0  0  0  0  0  0
    4.4436    1.9672    0.4665 H   0  0  0  0  0  0  0  0  0  0  0  0
    3.0743    1.9566    2.3293 H   0  0  0  0  0  0  0  0  0  0  0  0
    3.5794    0.3433    2.8748 H   0  0  0  0  0  0  0  0  0  0  0  0
    1.6902    1.0904    0.5561 H   0  0  0  0  0  0  0  0  0  0  0  0
    2.3680   -1.7344    1.5951 H   0  0  0  0  0  0  0  0  0  0  0  0
    1.2897   -1.3001    0.2381 H   0  0  0  0  0  0  0  0  0  0  0  0
    0.8458    1.3868    2.8973 H   0  0  0  0  0  0  0  0  0  0  0  0
    1.2508   -0.3254    3.2385 H   0  0  0  0  0  0  0  0  0  0  0  0
   -3.1286    2.6619    2.2508 H   0  0  0  0  0  0  0  0  0  0  0  0
   -4.4287    4.5864    1.5184 H   0  0  0  0  0  0  0  0  0  0  0  0
   -5.1862    4.7151   -0.8008 H   0  0  0  0  0  0  0  0  0  0  0  0
   -4.6400    2.8899   -2.4305 H   0  0  0  0  0  0  0  0  0  0  0  0
   -3.2929    0.9076   -1.6492 H   0  0  0  0  0  0  0  0  0  0  0  0
   -2.3962   -2.7052    1.5111 H   0  0  0  0  0  0  0  0  0  0  0  0
   -5.1583    0.3061    1.7877 H   0  0  0  0  0  0  0  0  0  0  0  0
   -7.4067   -0.1358    0.8234 H   0  0  0  0  0  0  0  0  0  0  0  0
   -7.6773   -1.6182   -1.1090 H   0  0  0  0  0  0  0  0  0  0  0  0
   -3.4534   -2.2921   -1.2074 H   0  0  0  0  0  0  0  0  0  0  0  0
   -6.1546   -2.3471   -3.3176 H   0  0  0  0  0  0  0  0  0  0  0  0
   -6.4382   -3.7851   -2.2199 H   0  0  0  0  0  0  0  0  0  0  0  0
   -4.7941   -3.3067   -2.7419 H   0  0  0  0  0  0  0  0  0  0  0  0
  1  2  1  0
  2  3  2  0
  2  4  1  0
  4  5  1  0
  5  6  1  0
  6  7  2  0
  7  8  1  0
  8  9  2  0
  9 10  1  0
 10 11  2  0
 11 12  1  0
 12 13  1  0
 13 14  1  0
 14 15  1  0
 14 16  1  0
 16 17  1  0
 17 18  1  0
 18 19  2  0
 19 20  1  0
 20 21  2  0
 21 22  1  0
 22 23  2  0
 23 24  1  0
 24 25  2  0
 19 26  1  0
 26 27  2  0
 27 28  1  0
 28 29  2  0
 26 30  1  0
 30 31  2  0
 31 32  1  0
 32 33  2  0
 33 34  1  0
 34 35  2  0
 34 36  1  0
 11  6  1  0
 28 17  1  0
 35 30  1  0
 15 10  1  0
 25 20  1  0
  1 37  1  0
  4 38  1  0
  4 39  1  0
  7 40  1  0
  8 41  1  0
  9 42  1  0
 12 43  1  0
 12 44  1  0
 13 45  1  0
 13 46  1  0
 14 47  1  0
 15 48  1  0
 15 49  1  0
 16 50  1  0
 16 51  1  0
 21 52  1  0
 22 53  1  0
 23 54  1  0
 24 55  1  0
 25 56  1  0
 27 57  1  0
 31 58  1  0
 32 59  1  0
 33 60  1  0
 35 61  1  0
 36 62  1  0
 36 63  1  0
 36 64  1  0
M  END
>  <Ligand ID>  (1) 
LIG0003848

>  <Ligand>  (1) 
CHEMBL3398209

>  <SMILES>  (1) 
OC(=O)COc1cccc2c1CCC(C2)Cn1nc(c2ccccc2)c(cc1=O)c1cccc(c1)C

>  <CID>  (1) 
118727288.0

>  <ChEMBL ID>  (1) 
nan

>  <InChiKey>  (1) 
DWWOTQACOVJOEC-UHFFFAOYSA-N

>  <InChi>  (1) 
InChI=1S/C30H28N2O4/c1-20-7-5-10-23(15-20)26-17-28(33)32(31-30(26)22-8-3-2-4-9-22)18-21-13-14-25-24(16-21)11-6-12-27(25)36-19-29(34)35/h2-12,15,17,21H,13-14,16,18-19H2,1H3,(H,34,35)

>  <IUPAC Name>  (1) 
2-[[6-[[4-(3-methylphenyl)-6-oxo-3-phenylpyridazin-1-yl]methyl]-5,6,7,8-tetrahydronaphthalen-1-yl]oxy]acetic acid

$$$$
