
     RDKit          3D

 50 54  0  0  0  0  0  0  0  0999 V2000
   -0.8389    4.2063   -1.7191 C   0  0  0  0  0  0  0  0  0  0  0  0
   -0.9077    2.7902   -1.2407 C   0  0  0  0  0  0  0  0  0  0  0  0
   -1.9115    2.4260   -0.3612 C   0  0  0  0  0  0  0  0  0  0  0  0
   -1.9514    1.1282    0.0594 C   0  0  0  0  0  0  0  0  0  0  0  0
   -2.9550    0.5991    0.9883 C   0  0  0  0  0  0  0  0  0  0  0  0
   -2.9422   -0.6692    1.3597 C   0  0  0  0  0  0  0  0  0  0  0  0
   -1.9462   -1.6644    0.8948 C   0  0  0  0  0  0  0  0  0  0  0  0
   -0.9721   -1.1078   -0.0198 N   0  0  0  0  0  0  0  0  0  0  0  0
   -1.0102    0.2584   -0.4011 C   0  0  0  0  0  0  0  0  0  0  0  0
    0.0029    0.5707   -1.2721 C   0  0  0  0  0  0  0  0  0  0  0  0
    0.0452    1.8993   -1.7039 C   0  0  0  0  0  0  0  0  0  0  0  0
    0.7952   -0.6443   -1.5147 C   0  0  0  0  0  0  0  0  0  0  0  0
    0.6902   -1.2455   -3.2305 S   0  0  0  0  0  0  0  0  0  0  0  0
    2.4923   -1.5571   -3.4292 C   0  0  0  0  0  0  0  0  0  0  0  0
    2.9737   -0.5618   -2.4382 C   0  0  0  0  0  0  0  0  0  0  0  0
    3.9945    0.1609   -2.6630 O   0  0  0  0  0  0  0  0  0  0  0  0
    2.1969   -0.5242   -1.2823 N   0  0  0  0  0  0  0  0  0  0  0  0
    2.7566   -0.3726    0.0398 C   0  0  0  0  0  0  0  0  0  0  0  0
    2.9079    0.9341    0.4972 C   0  0  0  0  0  0  0  0  0  0  0  0
    3.4326    1.1924    1.7500 C   0  0  0  0  0  0  0  0  0  0  0  0
    3.8004    0.1195    2.5305 C   0  0  0  0  0  0  0  0  0  0  0  0
    3.6447   -1.1837    2.0630 C   0  0  0  0  0  0  0  0  0  0  0  0
    3.1206   -1.4550    0.8106 C   0  0  0  0  0  0  0  0  0  0  0  0
    4.3164    0.3824    3.7633 F   0  0  0  0  0  0  0  0  0  0  0  0
    0.1215   -1.6844   -0.6854 C   0  0  0  0  0  0  0  0  0  0  0  0
    0.4641   -2.8960   -0.5841 O   0  0  0  0  0  0  0  0  0  0  0  0
   -2.7694   -2.7480    0.1853 C   0  0  0  0  0  0  0  0  0  0  0  0
   -1.2224   -2.2573    2.0848 C   0  0  0  0  0  0  0  0  0  0  0  0
   -3.9895    1.4915    1.5136 C   0  0  0  0  0  0  0  0  0  0  0  0
    0.0922    4.7020   -1.3796 H   0  0  0  0  0  0  0  0  0  0  0  0
   -1.6700    4.7927   -1.2837 H   0  0  0  0  0  0  0  0  0  0  0  0
   -0.9806    4.2304   -2.8079 H   0  0  0  0  0  0  0  0  0  0  0  0
   -2.6606    3.1009    0.0105 H   0  0  0  0  0  0  0  0  0  0  0  0
   -3.6971   -1.0155    2.0428 H   0  0  0  0  0  0  0  0  0  0  0  0
    0.8089    2.1996   -2.3800 H   0  0  0  0  0  0  0  0  0  0  0  0
    2.7142   -2.5936   -3.0970 H   0  0  0  0  0  0  0  0  0  0  0  0
    2.8197   -1.3275   -4.4429 H   0  0  0  0  0  0  0  0  0  0  0  0
    2.6184    1.7866   -0.1165 H   0  0  0  0  0  0  0  0  0  0  0  0
    3.5341    2.2236    2.0689 H   0  0  0  0  0  0  0  0  0  0  0  0
    3.9503   -2.0002    2.7173 H   0  0  0  0  0  0  0  0  0  0  0  0
    2.9928   -2.4616    0.4317 H   0  0  0  0  0  0  0  0  0  0  0  0
   -2.0405   -3.3347   -0.4200 H   0  0  0  0  0  0  0  0  0  0  0  0
   -3.2628   -3.3934    0.9242 H   0  0  0  0  0  0  0  0  0  0  0  0
   -3.5277   -2.2972   -0.4666 H   0  0  0  0  0  0  0  0  0  0  0  0
   -0.9160   -3.2958    1.7988 H   0  0  0  0  0  0  0  0  0  0  0  0
   -0.2854   -1.7059    2.3109 H   0  0  0  0  0  0  0  0  0  0  0  0
   -1.9531   -2.2788    2.9129 H   0  0  0  0  0  0  0  0  0  0  0  0
   -3.6469    1.8795    2.4979 H   0  0  0  0  0  0  0  0  0  0  0  0
   -4.3232    2.3153    0.9181 H   0  0  0  0  0  0  0  0  0  0  0  0
   -4.9060    0.8860    1.7652 H   0  0  0  0  0  0  0  0  0  0  0  0
  1  2  1  0
  2  3  2  0
  3  4  1  0
  4  5  1  0
  5  6  2  0
  6  7  1  0
  7  8  1  0
  8  9  1  0
  9 10  1  0
 10 11  2  0
 10 12  1  0
 12 13  1  0
 13 14  1  0
 14 15  1  0
 15 16  2  0
 15 17  1  0
 17 18  1  0
 18 19  2  0
 19 20  1  0
 20 21  2  0
 21 22  1  0
 22 23  2  0
 21 24  1  0
 12 25  1  0
 25 26  2  0
  7 27  1  0
  7 28  1  0
  5 29  1  0
 11  2  1  0
 17 12  1  0
 23 18  1  0
  9  4  2  0
 25  8  1  0
  1 30  1  0
  1 31  1  0
  1 32  1  0
  3 33  1  0
  6 34  1  0
 11 35  1  0
 14 36  1  0
 14 37  1  0
 19 38  1  0
 20 39  1  0
 22 40  1  0
 23 41  1  0
 27 42  1  0
 27 43  1  0
 27 44  1  0
 28 45  1  0
 28 46  1  0
 28 47  1  0
 29 48  1  0
 29 49  1  0
 29 50  1  0
M  END
>  <Ligand ID>  (1) 
LIG0003901

>  <Ligand>  (1) 
MLS000538872

>  <SMILES>  (1) 
Cc1cc2C(=CC(N3c2c(c1)C1(SCC(=O)N1c1ccc(cc1)F)C3=O)(C)C)C

>  <CID>  (1) 
2981819.0

>  <ChEMBL ID>  (1) 
nan

>  <InChiKey>  (1) 
LAMFLBUXIPOABX-UHFFFAOYSA-N

>  <InChi>  (1) 
InChI=1S/C23H21FN2O2S/c1-13-9-17-14(2)11-22(3,4)26-20(17)18(10-13)23(21(26)28)25(19(27)12-29-23)16-7-5-15(24)6-8-16/h5-11H,12H2,1-4H3

>  <IUPAC Name>  (1) 
3-(4-fluorophenyl)-6',9',11',11'-tetramethylspiro[1,3-thiazolidine-2,3'-1-azatricyclo[6.3.1.04,12]dodeca-4,6,8(12),9-tetraene]-2',4-dione

$$$$
