
     RDKit          3D

 59 63  0  0  0  0  0  0  0  0999 V2000
    3.1635   -6.1764   -1.1354 Cl  0  0  0  0  0  0  0  0  0  0  0  0
    2.4139   -4.6652   -0.6873 C   0  0  0  0  0  0  0  0  0  0  0  0
    1.6694   -3.9733   -1.6184 C   0  0  0  0  0  0  0  0  0  0  0  0
    1.0502   -2.7597   -1.3103 C   0  0  0  0  0  0  0  0  0  0  0  0
    1.1801   -2.2178   -0.0246 C   0  0  0  0  0  0  0  0  0  0  0  0
    1.9372   -2.9215    0.9222 C   0  0  0  0  0  0  0  0  0  0  0  0
    2.5446   -4.1254    0.5974 C   0  0  0  0  0  0  0  0  0  0  0  0
    2.1443   -2.3108    2.5381 Cl  0  0  0  0  0  0  0  0  0  0  0  0
    0.5516   -0.9873    0.3222 N   0  0  0  0  0  0  0  0  0  0  0  0
   -0.7784   -0.9346    0.5161 N   0  0  0  0  0  0  0  0  0  0  0  0
   -1.1477    0.3175    0.8395 C   0  0  0  0  0  0  0  0  0  0  0  0
    0.0138    1.0566    0.8411 C   0  0  0  0  0  0  0  0  0  0  0  0
    1.0646    0.2275    0.5161 C   0  0  0  0  0  0  0  0  0  0  0  0
    2.4363    0.7274    0.4349 C   0  0  0  0  0  0  0  0  0  0  0  0
    3.3539    0.0598   -0.1996 C   0  0  0  0  0  0  0  0  0  0  0  0
    4.7540    0.4867   -0.3261 C   0  0  0  0  0  0  0  0  0  0  0  0
    5.3447    0.3742   -1.5704 C   0  0  0  0  0  0  0  0  0  0  0  0
    6.6392    0.7178   -1.8104 C   0  0  0  0  0  0  0  0  0  0  0  0
    7.3958    1.2006   -0.7610 C   0  0  0  0  0  0  0  0  0  0  0  0
    6.8201    1.3155    0.4759 C   0  0  0  0  0  0  0  0  0  0  0  0
    5.4939    0.9651    0.7290 C   0  0  0  0  0  0  0  0  0  0  0  0
    9.0640    1.6442   -1.0638 Cl  0  0  0  0  0  0  0  0  0  0  0  0
    2.7227    2.0250    1.0715 C   0  0  0  0  0  0  0  0  0  0  0  0
    1.5849    3.0046    0.9050 C   0  0  0  0  0  0  0  0  0  0  0  0
    0.2253    2.4762    1.1273 C   0  0  0  0  0  0  0  0  0  0  0  0
   -2.4989    0.7859    1.1241 C   0  0  0  0  0  0  0  0  0  0  0  0
   -2.6574    2.0175    1.4218 O   0  0  0  0  0  0  0  0  0  0  0  0
   -3.6013   -0.0875    1.0743 N   0  0  0  0  0  0  0  0  0  0  0  0
   -4.9457    0.4228    1.3676 C   0  0  1  0  0  0  0  0  0  0  0  0
   -5.8257    0.2869    0.1789 C   0  0  0  0  0  0  0  0  0  0  0  0
   -6.6202    1.3610   -0.1724 C   0  0  0  0  0  0  0  0  0  0  0  0
   -7.4733    1.3163   -1.2717 C   0  0  0  0  0  0  0  0  0  0  0  0
   -7.4764    0.1373   -1.9861 C   0  0  0  0  0  0  0  0  0  0  0  0
   -6.6812   -0.9495   -1.6419 C   0  0  0  0  0  0  0  0  0  0  0  0
   -5.8601   -0.8599   -0.5558 N   0  0  0  0  0  0  0  0  0  0  0  0
   -5.4584   -0.2626    2.5907 C   0  0  0  0  0  0  0  0  0  0  0  0
    1.5376   -4.3463   -2.6254 H   0  0  0  0  0  0  0  0  0  0  0  0
    0.4713   -2.2443   -2.0713 H   0  0  0  0  0  0  0  0  0  0  0  0
    3.1296   -4.6617    1.3408 H   0  0  0  0  0  0  0  0  0  0  0  0
    3.1186   -0.8752   -0.6896 H   0  0  0  0  0  0  0  0  0  0  0  0
    4.7526   -0.0053   -2.4006 H   0  0  0  0  0  0  0  0  0  0  0  0
    7.0829    0.6224   -2.7890 H   0  0  0  0  0  0  0  0  0  0  0  0
    7.4299    1.6965    1.2866 H   0  0  0  0  0  0  0  0  0  0  0  0
    5.0739    1.0594    1.7199 H   0  0  0  0  0  0  0  0  0  0  0  0
    3.6142    2.5290    0.6187 H   0  0  0  0  0  0  0  0  0  0  0  0
    2.8686    1.8661    2.1566 H   0  0  0  0  0  0  0  0  0  0  0  0
    1.7706    3.8264    1.6317 H   0  0  0  0  0  0  0  0  0  0  0  0
    1.7191    3.4749   -0.1136 H   0  0  0  0  0  0  0  0  0  0  0  0
   -0.1223    2.6270    2.1890 H   0  0  0  0  0  0  0  0  0  0  0  0
   -0.4808    3.1399    0.5457 H   0  0  0  0  0  0  0  0  0  0  0  0
   -3.5169   -1.0938    0.8366 H   0  0  0  0  0  0  0  0  0  0  0  0
   -4.7984    1.4962    1.5988 H   0  0  0  0  0  0  0  0  0  0  0  0
   -6.5788    2.2516    0.4153 H   0  0  0  0  0  0  0  0  0  0  0  0
   -8.0946    2.1543   -1.5478 H   0  0  0  0  0  0  0  0  0  0  0  0
   -8.1291    0.0417   -2.8648 H   0  0  0  0  0  0  0  0  0  0  0  0
   -6.7127   -1.8640   -2.2335 H   0  0  0  0  0  0  0  0  0  0  0  0
   -6.0029   -1.1836    2.2737 H   0  0  0  0  0  0  0  0  0  0  0  0
   -6.0753    0.4187    3.1913 H   0  0  0  0  0  0  0  0  0  0  0  0
   -4.6004   -0.6249    3.2133 H   0  0  0  0  0  0  0  0  0  0  0  0
  1  2  1  0
  2  3  2  0
  3  4  1  0
  4  5  2  0
  5  6  1  0
  6  7  2  0
  6  8  1  0
  5  9  1  0
  9 10  1  0
 10 11  2  0
 11 12  1  0
 12 13  2  0
 13 14  1  0
 14 15  2  0
 15 16  1  0
 16 17  2  0
 17 18  1  0
 18 19  2  0
 19 20  1  0
 20 21  2  0
 19 22  1  0
 14 23  1  0
 23 24  1  0
 24 25  1  0
 11 26  1  0
 26 27  2  0
 26 28  1  0
 28 29  1  0
 29 30  1  0
 30 31  2  0
 31 32  1  0
 32 33  2  0
 33 34  1  0
 34 35  2  0
 29 36  1  0
  7  2  1  0
 13  9  1  0
 21 16  1  0
 35 30  1  0
 25 12  1  0
  3 37  1  0
  4 38  1  0
  7 39  1  0
 15 40  1  0
 17 41  1  0
 18 42  1  0
 20 43  1  0
 21 44  1  0
 23 45  1  0
 23 46  1  0
 24 47  1  0
 24 48  1  0
 25 49  1  0
 25 50  1  0
 28 51  1  0
 29 52  1  1
 31 53  1  0
 32 54  1  0
 33 55  1  0
 34 56  1  0
 36 57  1  0
 36 58  1  0
 36 59  1  0
M  END
>  <Ligand ID>  (1) 
LIG0005416

>  <Ligand>  (1) 
CHEMBL3977840

>  <SMILES>  (1) 
Clc1ccc(c(c1)Cl)n1nc(c2c1/C(=C/c1ccc(cc1)Cl)/CCC2)C(=O)N[C@@H](c1ccccn1)C

>  <CID>  (1) 
134152497.0

>  <ChEMBL ID>  (1) 
nan

>  <InChiKey>  (1) 
GJRORIVCMARHTK-VXNZKSKFSA-N

>  <InChi>  (1) 
InChI=1S/C28H23Cl3N4O/c1-17(24-7-2-3-14-32-24)33-28(36)26-22-6-4-5-19(15-18-8-10-20(29)11-9-18)27(22)35(34-26)25-13-12-21(30)16-23(25)31/h2-3,7-17H,4-6H2,1H3,(H,33,36)/b19-15+/t17-/m1/s1

>  <IUPAC Name>  (1) 
(7E)-7-[(4-chlorophenyl)methylidene]-1-(2,4-dichlorophenyl)-N-[(1R)-1-pyridin-2-ylethyl]-5,6-dihydro-4H-indazole-3-carboxamide

$$$$
