
     RDKit          3D

 20 20  0  0  0  0  0  0  0  0999 V2000
    3.6364   -1.5753   -0.2754 O   0  0  0  0  0  0  0  0  0  0  0  0
    3.2367   -0.4212   -0.0087 C   0  0  0  0  0  0  0  0  0  0  0  0
    1.8399   -0.0253    0.0444 C   0  0  0  0  0  0  0  0  0  0  0  0
    1.4192    1.2537    0.3407 C   0  0  0  0  0  0  0  0  0  0  0  0
    0.0846    1.6159    0.3875 C   0  0  0  0  0  0  0  0  0  0  0  0
   -0.8488    0.6363    0.1223 C   0  0  0  0  0  0  0  0  0  0  0  0
   -0.4372   -0.6469   -0.1752 C   0  0  0  0  0  0  0  0  0  0  0  0
    0.8968   -0.9952   -0.2188 C   0  0  0  0  0  0  0  0  0  0  0  0
   -1.5269   -1.6481   -0.4505 C   0  0  0  0  0  0  0  0  0  0  0  0
   -2.2794    1.0367    0.1755 C   0  0  0  0  0  0  0  0  0  0  0  0
    3.9685    0.3722    0.2054 H   0  0  0  0  0  0  0  0  0  0  0  0
    2.1872    1.9889    0.5417 H   0  0  0  0  0  0  0  0  0  0  0  0
   -0.1642    2.6364    0.6265 H   0  0  0  0  0  0  0  0  0  0  0  0
    1.1897   -2.0123   -0.4557 H   0  0  0  0  0  0  0  0  0  0  0  0
   -2.3147   -1.5981    0.3405 H   0  0  0  0  0  0  0  0  0  0  0  0
   -1.0474   -2.6448   -0.3170 H   0  0  0  0  0  0  0  0  0  0  0  0
   -1.9490   -1.5330   -1.4621 H   0  0  0  0  0  0  0  0  0  0  0  0
   -2.4451    1.9512   -0.4360 H   0  0  0  0  0  0  0  0  0  0  0  0
   -2.9704    0.2779   -0.2141 H   0  0  0  0  0  0  0  0  0  0  0  0
   -2.4759    1.3311    1.2290 H   0  0  0  0  0  0  0  0  0  0  0  0
  1  2  2  0
  2  3  1  0
  3  4  2  0
  4  5  1  0
  5  6  2  0
  6  7  1  0
  7  8  2  0
  7  9  1  0
  6 10  1  0
  8  3  1  0
  2 11  1  0
  4 12  1  0
  5 13  1  0
  8 14  1  0
  9 15  1  0
  9 16  1  0
  9 17  1  0
 10 18  1  0
 10 19  1  0
 10 20  1  0
M  END
>  <Ligand ID>  (1) 
LIG0005052

>  <Ligand>  (1) 
3,4-dimethylbenzaldehyde

>  <SMILES>  (1) 
O=Cc1ccc(c(c1)C)C

>  <CID>  (1) 
22278.0

>  <ChEMBL ID>  (1) 
nan

>  <InChiKey>  (1) 
POQJHLBMLVTHAU-UHFFFAOYSA-N

>  <InChi>  (1) 
InChI=1S/C9H10O/c1-7-3-4-9(6-10)5-8(7)2/h3-6H,1-2H3

>  <IUPAC Name>  (1) 
3,4-dimethylbenzaldehyde

$$$$
