
     RDKit          3D

 69 76  0  0  0  0  0  0  0  0999 V2000
    2.0457   -3.2719    0.2349 C   0  0  0  0  0  0  0  0  0  0  0  0
    1.0507   -2.3854   -0.2789 N   0  0  0  0  0  0  0  0  0  0  0  0
   -0.0826   -3.0591   -0.8591 C   0  0  0  0  0  0  0  0  0  0  0  0
   -0.9495   -2.0975   -1.5977 C   0  0  0  0  0  0  0  0  0  0  0  0
   -1.2617   -0.8944   -0.7798 C   0  0  2  0  0  0  0  0  0  0  0  0
   -0.0060   -0.2654   -0.2837 C   0  0  2  0  0  0  0  0  0  0  0  0
    0.6855   -1.3018    0.5945 C   0  0  0  0  0  0  0  0  0  0  0  0
   -0.0414   -1.7170    1.8093 C   0  0  0  0  0  0  0  0  0  0  0  0
   -1.4835   -1.7148    1.5976 C   0  0  0  0  0  0  0  0  0  0  0  0
   -2.0289   -1.3287    0.4262 C   0  0  0  0  0  0  0  0  0  0  0  0
   -3.3881   -1.2918    0.1685 C   0  0  0  0  0  0  0  0  0  0  0  0
   -3.4812   -0.8347   -1.1435 O   0  0  0  0  0  0  0  0  0  0  0  0
   -2.2973   -0.0287   -1.3989 C   0  0  2  0  0  0  0  0  0  0  0  0
   -2.2375    0.1570   -2.8705 C   0  0  0  0  0  0  0  0  0  0  0  0
   -2.5016    1.2084   -0.6325 C   0  0  0  0  0  0  0  0  0  0  0  0
   -1.5120    1.6615    0.1749 C   0  0  0  0  0  0  0  0  0  0  0  0
   -0.1905    1.0468    0.3864 C   0  0  0  0  0  0  0  0  0  0  0  0
   -2.0107    2.8316    0.7553 C   0  0  0  0  0  0  0  0  0  0  0  0
   -1.5109    3.7526    1.6520 C   0  0  0  0  0  0  0  0  0  0  0  0
   -2.3084    4.8225    2.0144 C   0  0  0  0  0  0  0  0  0  0  0  0
   -3.5813    5.0144    1.5225 C   0  0  0  0  0  0  0  0  0  0  0  0
   -4.0765    4.0913    0.6265 C   0  0  0  0  0  0  0  0  0  0  0  0
   -3.2836    3.0125    0.2557 C   0  0  0  0  0  0  0  0  0  0  0  0
   -3.5898    2.0227   -0.5941 N   0  0  0  0  0  0  0  0  0  0  0  0
   -4.2515   -1.6737    1.1653 C   0  0  0  0  0  0  0  0  0  0  0  0
   -3.7287   -2.0775    2.3821 C   0  0  0  0  0  0  0  0  0  0  0  0
   -2.3482   -2.1041    2.6158 C   0  0  0  0  0  0  0  0  0  0  0  0
   -5.6132   -1.6358    0.9018 O   0  0  0  0  0  0  0  0  0  0  0  0
    0.9731   -0.0937   -1.4293 C   0  0  0  0  0  0  0  0  0  0  0  0
    2.2565    0.5074   -1.0082 C   0  0  0  0  0  0  0  0  0  0  0  0
    3.3636   -0.2019   -1.1817 C   0  0  0  0  0  0  0  0  0  0  0  0
    4.6936    0.2575   -0.8169 C   0  0  0  0  0  0  0  0  0  0  0  0
    5.8045   -0.5657   -1.0395 C   0  0  0  0  0  0  0  0  0  0  0  0
    7.0832   -0.1734   -0.7111 C   0  0  0  0  0  0  0  0  0  0  0  0
    7.3305    1.0586   -0.1432 C   0  0  0  0  0  0  0  0  0  0  0  0
    6.2541    1.8859    0.0854 C   0  0  0  0  0  0  0  0  0  0  0  0
    4.9610    1.4790   -0.2511 C   0  0  0  0  0  0  0  0  0  0  0  0
    2.4891   -2.8490    1.1577 H   0  0  0  0  0  0  0  0  0  0  0  0
    1.7078   -4.3208    0.3448 H   0  0  0  0  0  0  0  0  0  0  0  0
    2.8765   -3.2947   -0.5173 H   0  0  0  0  0  0  0  0  0  0  0  0
    0.3201   -3.7917   -1.5997 H   0  0  0  0  0  0  0  0  0  0  0  0
   -0.6537   -3.6689   -0.1359 H   0  0  0  0  0  0  0  0  0  0  0  0
   -0.5731   -1.9015   -2.6177 H   0  0  0  0  0  0  0  0  0  0  0  0
   -1.9328   -2.6281   -1.7670 H   0  0  0  0  0  0  0  0  0  0  0  0
    1.6476   -0.8196    0.9025 H   0  0  0  0  0  0  0  0  0  0  0  0
    0.2083   -1.0515    2.6592 H   0  0  0  0  0  0  0  0  0  0  0  0
    0.3376   -2.7168    2.0970 H   0  0  0  0  0  0  0  0  0  0  0  0
   -2.1063   -0.8024   -3.3723 H   0  0  0  0  0  0  0  0  0  0  0  0
   -3.2737    0.4963   -3.1798 H   0  0  0  0  0  0  0  0  0  0  0  0
   -1.5856    0.9805   -3.2279 H   0  0  0  0  0  0  0  0  0  0  0  0
    0.0055    0.9926    1.5015 H   0  0  0  0  0  0  0  0  0  0  0  0
    0.5483    1.7994    0.0393 H   0  0  0  0  0  0  0  0  0  0  0  0
   -0.4987    3.6240    2.0604 H   0  0  0  0  0  0  0  0  0  0  0  0
   -1.8922    5.5373    2.7243 H   0  0  0  0  0  0  0  0  0  0  0  0
   -4.1261    5.8680    1.8569 H   0  0  0  0  0  0  0  0  0  0  0  0
   -5.0788    4.2341    0.2329 H   0  0  0  0  0  0  0  0  0  0  0  0
   -4.4710    1.8967   -1.1172 H   0  0  0  0  0  0  0  0  0  0  0  0
   -4.4246   -2.3759    3.1575 H   0  0  0  0  0  0  0  0  0  0  0  0
   -1.9387   -2.4200    3.5685 H   0  0  0  0  0  0  0  0  0  0  0  0
   -6.1164   -2.5210    0.9634 H   0  0  0  0  0  0  0  0  0  0  0  0
    1.1338   -1.1323   -1.8227 H   0  0  0  0  0  0  0  0  0  0  0  0
    0.5446    0.5226   -2.2467 H   0  0  0  0  0  0  0  0  0  0  0  0
    2.3769    1.4810   -0.5735 H   0  0  0  0  0  0  0  0  0  0  0  0
    3.2721   -1.1912   -1.6255 H   0  0  0  0  0  0  0  0  0  0  0  0
    5.6450   -1.5504   -1.4887 H   0  0  0  0  0  0  0  0  0  0  0  0
    7.8854   -0.8846   -0.9226 H   0  0  0  0  0  0  0  0  0  0  0  0
    8.3367    1.3592    0.1114 H   0  0  0  0  0  0  0  0  0  0  0  0
    6.4164    2.8663    0.5330 H   0  0  0  0  0  0  0  0  0  0  0  0
    4.1828    2.1697   -0.0454 H   0  0  0  0  0  0  0  0  0  0  0  0
  1  2  1  0
  2  3  1  0
  3  4  1  0
  5  4  1  6
  5  6  1  0
  6  7  1  0
  7  8  1  0
  8  9  1  0
  9 10  2  0
 10 11  1  0
 11 12  1  0
 12 13  1  0
 13 14  1  6
 13 15  1  0
 15 16  2  0
 16 17  1  0
 16 18  1  0
 18 19  2  0
 19 20  1  0
 20 21  2  0
 21 22  1  0
 22 23  2  0
 23 24  1  0
 11 25  2  0
 25 26  1  0
 26 27  2  0
 25 28  1  0
  6 29  1  6
 29 30  1  0
 30 31  2  0
 31 32  1  0
 32 33  2  0
 33 34  1  0
 34 35  2  0
 35 36  1  0
 36 37  2  0
  7  2  1  0
 27  9  1  0
 37 32  1  0
 10  5  1  0
 24 15  1  0
 13  5  1  0
 23 18  1  0
 17  6  1  0
  1 38  1  0
  1 39  1  0
  1 40  1  0
  3 41  1  0
  3 42  1  0
  4 43  1  0
  4 44  1  0
  7 45  1  0
  8 46  1  0
  8 47  1  0
 14 48  1  0
 14 49  1  0
 14 50  1  0
 17 51  1  0
 17 52  1  0
 19 53  1  0
 20 54  1  0
 21 55  1  0
 22 56  1  0
 24 57  1  0
 26 58  1  0
 27 59  1  0
 28 60  1  0
 29 61  1  0
 29 62  1  0
 30 63  1  0
 31 64  1  0
 33 65  1  0
 34 66  1  0
 35 67  1  0
 36 68  1  0
 37 69  1  0
M  END
>  <Ligand ID>  (1) 
LIG0002123

>  <Ligand>  (1) 
CHEMBL110461

>  <SMILES>  (1) 
CN1CC[C@]23[C@@]4(C1Cc1c2c(O[C@@]3(C)c2c(C4)c3ccccc3[nH]2)c(cc1)O)C/C=C/c1ccccc1

>  <CID>  (1) 
10074239.0

>  <ChEMBL ID>  (1) 
nan

>  <InChiKey>  (1) 
VHAISVIZOZORLQ-TYSZLRMISA-N

>  <InChi>  (1) 
InChI=1S/C33H32N2O2/c1-31-30-24(23-12-6-7-13-25(23)34-30)20-32(16-8-11-21-9-4-3-5-10-21)27-19-22-14-15-26(36)29(37-31)28(22)33(31,32)17-18-35(27)2/h3-15,27,34,36H,16-20H2,1-2H3/b11-8+/t27?,31-,32-,33-/m0/s1

>  <IUPAC Name>  (1) 
(1S,2R,13R)-13,22-dimethyl-2-[(E)-3-phenylprop-2-enyl]-14-oxa-11,22-diazaheptacyclo[13.9.1.01,13.02,21.04,12.05,10.019,25]pentacosa-4(12),5,7,9,15,17,19(25)-heptaen-16-ol

$$$$
