
     RDKit          3D

 26 25  0  0  0  0  0  0  0  0999 V2000
    3.4009   -0.3321    1.0131 C   0  0  0  0  0  0  0  0  0  0  0  0
    2.4091   -0.1643   -0.0597 C   0  0  0  0  0  0  0  0  0  0  0  0
    2.2624   -1.0192   -0.9725 O   0  0  0  0  0  0  0  0  0  0  0  0
    1.5665    0.9580   -0.1312 O   0  0  0  0  0  0  0  0  0  0  0  0
    0.6132    1.1514   -1.1347 C   0  0  0  0  0  0  0  0  0  0  0  0
   -0.4300    0.0695   -1.1955 C   0  0  0  0  0  0  0  0  0  0  0  0
   -1.2039   -0.0848    0.0081 N   0  0  0  0  0  0  0  0  0  0  0  0
   -1.7953    1.1721    0.4235 C   0  0  0  0  0  0  0  0  0  0  0  0
   -0.5259   -0.7212    1.0903 C   0  0  0  0  0  0  0  0  0  0  0  0
   -2.3463   -0.9237   -0.3915 C   0  0  0  0  0  0  0  0  0  0  0  0
    3.0628   -1.0108    1.8213 H   0  0  0  0  0  0  0  0  0  0  0  0
    4.2891   -0.8405    0.5422 H   0  0  0  0  0  0  0  0  0  0  0  0
    3.7791    0.6374    1.3949 H   0  0  0  0  0  0  0  0  0  0  0  0
    0.1056    2.1121   -0.9069 H   0  0  0  0  0  0  0  0  0  0  0  0
    1.0420    1.2256   -2.1558 H   0  0  0  0  0  0  0  0  0  0  0  0
   -0.0189   -0.9039   -1.4971 H   0  0  0  0  0  0  0  0  0  0  0  0
   -1.1558    0.3494   -1.9869 H   0  0  0  0  0  0  0  0  0  0  0  0
   -2.6235    0.9170    1.1189 H   0  0  0  0  0  0  0  0  0  0  0  0
   -1.1179    1.8486    0.9474 H   0  0  0  0  0  0  0  0  0  0  0  0
   -2.2665    1.6075   -0.4842 H   0  0  0  0  0  0  0  0  0  0  0  0
   -1.3326   -1.1307    1.7662 H   0  0  0  0  0  0  0  0  0  0  0  0
    0.0750    0.0275    1.6504 H   0  0  0  0  0  0  0  0  0  0  0  0
    0.0181   -1.5975    0.7389 H   0  0  0  0  0  0  0  0  0  0  0  0
   -2.0039   -1.9595   -0.5812 H   0  0  0  0  0  0  0  0  0  0  0  0
   -2.6748   -0.5426   -1.3819 H   0  0  0  0  0  0  0  0  0  0  0  0
   -3.1284   -0.8453    0.3618 H   0  0  0  0  0  0  0  0  0  0  0  0
  1  2  1  0
  2  3  2  0
  2  4  1  0
  4  5  1  0
  5  6  1  0
  6  7  1  0
  7  8  1  0
  7  9  1  0
  7 10  1  0
  1 11  1  0
  1 12  1  0
  1 13  1  0
  5 14  1  0
  5 15  1  0
  6 16  1  0
  6 17  1  0
  8 18  1  0
  8 19  1  0
  8 20  1  0
  9 21  1  0
  9 22  1  0
  9 23  1  0
 10 24  1  0
 10 25  1  0
 10 26  1  0
M  CHG  1   7   1
M  END
>  <Ligand ID>  (1) 
LIG0001469

>  <Ligand>  (1) 
[3H]acetylcholine

>  <SMILES>  (1) 
CC(=O)OCC[N+](C)(C)C

>  <CID>  (1) 
187.0

>  <ChEMBL ID>  (1) 
nan

>  <InChiKey>  (1) 
OIPILFWXSMYKGL-UHFFFAOYSA-N

>  <InChi>  (1) 
InChI=1S/C7H16NO2/c1-7(9)10-6-5-8(2,3)4/h5-6H2,1-4H3/q+1

>  <IUPAC Name>  (1) 
2-acetyloxyethyl(trimethyl)azanium

$$$$
