
     RDKit          3D

 13 13  0  0  0  0  0  0  0  0999 V2000
    2.3406    0.8176    0.4365 O   0  0  0  0  0  0  0  0  0  0  0  0
    1.7187   -0.3246   -0.0832 C   0  0  0  0  0  0  0  0  0  0  0  0
    0.2342   -0.2089    0.0340 C   0  0  0  0  0  0  0  0  0  0  0  0
   -0.5610    0.3505   -0.9555 C   0  0  0  0  0  0  0  0  0  0  0  0
   -1.8712    0.2841   -0.4956 C   0  0  0  0  0  0  0  0  0  0  0  0
   -1.7924   -0.3128    0.7477 C   0  0  0  0  0  0  0  0  0  0  0  0
   -0.5288   -0.5916    1.0293 O   0  0  0  0  0  0  0  0  0  0  0  0
    2.1346    0.8340    1.4056 H   0  0  0  0  0  0  0  0  0  0  0  0
    1.9932   -1.2111    0.5555 H   0  0  0  0  0  0  0  0  0  0  0  0
    2.0088   -0.5217   -1.1345 H   0  0  0  0  0  0  0  0  0  0  0  0
   -0.2339    0.7630   -1.9077 H   0  0  0  0  0  0  0  0  0  0  0  0
   -2.7786    0.6251   -0.9957 H   0  0  0  0  0  0  0  0  0  0  0  0
   -2.6641   -0.5035    1.3634 H   0  0  0  0  0  0  0  0  0  0  0  0
  1  2  1  0
  2  3  1  0
  3  4  2  0
  4  5  1  0
  5  6  2  0
  6  7  1  0
  7  3  1  0
  1  8  1  0
  2  9  1  0
  2 10  1  0
  4 11  1  0
  5 12  1  0
  6 13  1  0
M  END
>  <Ligand ID>  (1) 
LIG0002102

>  <Ligand>  (1) 
Furfuryl alcohol

>  <SMILES>  (1) 
OCc1ccco1

>  <CID>  (1) 
7361.0

>  <ChEMBL ID>  (1) 
nan

>  <InChiKey>  (1) 
XPFVYQJUAUNWIW-UHFFFAOYSA-N

>  <InChi>  (1) 
InChI=1S/C5H6O2/c6-4-5-2-1-3-7-5/h1-3,6H,4H2

>  <IUPAC Name>  (1) 
furan-2-ylmethanol

$$$$
