
     RDKit          3D

 41 44  0  0  0  0  0  0  0  0999 V2000
   -0.5762    1.3805   -0.3129 O   0  0  0  0  0  0  0  0  0  0  0  0
   -0.9647    2.1547    0.5829 C   0  0  0  0  0  0  0  0  0  0  0  0
   -2.2619    2.1104    1.1447 N   0  0  0  0  0  0  0  0  0  0  0  0
   -3.2828    1.2081    0.7854 C   0  0  0  0  0  0  0  0  0  0  0  0
   -4.5032    1.3227    1.4584 C   0  0  0  0  0  0  0  0  0  0  0  0
   -5.5346    0.5103    1.1870 N   0  0  0  0  0  0  0  0  0  0  0  0
   -5.4723   -0.4560    0.2653 C   0  0  0  0  0  0  0  0  0  0  0  0
   -4.2899   -0.6098   -0.4262 C   0  0  0  0  0  0  0  0  0  0  0  0
   -3.2055    0.2298   -0.1543 C   0  0  0  0  0  0  0  0  0  0  0  0
   -4.2088   -1.6027   -1.3812 C   0  0  0  0  0  0  0  0  0  0  0  0
   -5.3211   -2.3891   -1.5909 C   0  0  0  0  0  0  0  0  0  0  0  0
   -6.5042   -2.2290   -0.8933 C   0  0  0  0  0  0  0  0  0  0  0  0
   -6.5448   -1.2418    0.0377 N   0  0  0  0  0  0  0  0  0  0  0  0
   -5.3030   -3.6840   -2.7957 Cl  0  0  0  0  0  0  0  0  0  0  0  0
    0.0317    3.1731    1.0607 C   0  0  0  0  0  0  0  0  0  0  0  0
    1.3325    2.9957    0.3007 C   0  0  0  0  0  0  0  0  0  0  0  0
    1.8766    1.6345    0.5334 C   0  0  0  0  0  0  0  0  0  0  0  0
    1.4040    0.6502    1.2588 O   0  0  0  0  0  0  0  0  0  0  0  0
    2.2080   -0.3664    1.1768 N   0  0  0  0  0  0  0  0  0  0  0  0
    3.2508   -0.0713    0.3796 C   0  0  0  0  0  0  0  0  0  0  0  0
    3.0312    1.2001   -0.0234 N   0  0  0  0  0  0  0  0  0  0  0  0
    4.3919   -0.8989   -0.0002 C   0  0  0  0  0  0  0  0  0  0  0  0
    5.3832   -0.4182   -0.8437 C   0  0  0  0  0  0  0  0  0  0  0  0
    6.4743   -1.1918   -1.2144 C   0  0  0  0  0  0  0  0  0  0  0  0
    6.5730   -2.4870   -0.7234 C   0  0  0  0  0  0  0  0  0  0  0  0
    5.5800   -2.9527    0.1148 C   0  0  0  0  0  0  0  0  0  0  0  0
    4.4975   -2.1801    0.4804 C   0  0  0  0  0  0  0  0  0  0  0  0
    3.2789   -2.8687    1.5591 Cl  0  0  0  0  0  0  0  0  0  0  0  0
    7.6382   -3.2326   -1.0895 F   0  0  0  0  0  0  0  0  0  0  0  0
   -2.4577    2.8218    1.8928 H   0  0  0  0  0  0  0  0  0  0  0  0
   -4.6582    2.0704    2.2211 H   0  0  0  0  0  0  0  0  0  0  0  0
   -2.3281    0.0635   -0.7157 H   0  0  0  0  0  0  0  0  0  0  0  0
   -3.2986   -1.7532   -1.9432 H   0  0  0  0  0  0  0  0  0  0  0  0
   -7.3714   -2.8536   -1.0674 H   0  0  0  0  0  0  0  0  0  0  0  0
   -0.3550    4.2037    0.9730 H   0  0  0  0  0  0  0  0  0  0  0  0
    0.2523    2.9982    2.1256 H   0  0  0  0  0  0  0  0  0  0  0  0
    1.0618    3.1092   -0.7797 H   0  0  0  0  0  0  0  0  0  0  0  0
    2.0067    3.8079    0.5966 H   0  0  0  0  0  0  0  0  0  0  0  0
    5.2479    0.5987   -1.1920 H   0  0  0  0  0  0  0  0  0  0  0  0
    7.2104   -0.7710   -1.8681 H   0  0  0  0  0  0  0  0  0  0  0  0
    5.7110   -3.9856    0.4727 H   0  0  0  0  0  0  0  0  0  0  0  0
  1  2  2  0
  2  3  1  0
  3  4  1  0
  4  5  2  0
  5  6  1  0
  6  7  2  0
  7  8  1  0
  8  9  2  0
  8 10  1  0
 10 11  2  0
 11 12  1  0
 12 13  2  0
 11 14  1  0
  2 15  1  0
 15 16  1  0
 16 17  1  0
 17 18  1  0
 18 19  1  0
 19 20  2  0
 20 21  1  0
 20 22  1  0
 22 23  2  0
 23 24  1  0
 24 25  2  0
 25 26  1  0
 26 27  2  0
 27 28  1  0
 25 29  1  0
  9  4  1  0
 21 17  2  0
 27 22  1  0
 13  7  1  0
  3 30  1  0
  5 31  1  0
  9 32  1  0
 10 33  1  0
 12 34  1  0
 15 35  1  0
 15 36  1  0
 16 37  1  0
 16 38  1  0
 23 39  1  0
 24 40  1  0
 26 41  1  0
M  END
>  <Ligand ID>  (1) 
LIG0002487

>  <Ligand>  (1) 
CHEMBL499050

>  <SMILES>  (1) 
O=C(Nc1cnc2c(c1)cc(cn2)Cl)CCc1onc(n1)c1ccc(cc1Cl)F

>  <CID>  (1) 
25034140.0

>  <ChEMBL ID>  (1) 
nan

>  <InChiKey>  (1) 
GUXZMJXQQKUUOL-UHFFFAOYSA-N

>  <InChi>  (1) 
InChI=1S/C19H12Cl2FN5O2/c20-11-5-10-6-13(9-24-18(10)23-8-11)25-16(28)3-4-17-26-19(27-29-17)14-2-1-12(22)7-15(14)21/h1-2,5-9H,3-4H2,(H,25,28)

>  <IUPAC Name>  (1) 
3-[3-(2-chloro-4-fluorophenyl)-1,2,4-oxadiazol-5-yl]-N-(6-chloro-1,8-naphthyridin-3-yl)propanamide

$$$$
