
     RDKit          3D

 38 40  0  0  0  0  0  0  0  0999 V2000
    3.5256    1.2033    1.2468 C   0  0  0  0  0  0  0  0  0  0  0  0
    3.2018    0.4614   -0.0361 C   0  0  0  0  0  0  0  0  0  0  0  0
    1.8724   -0.2046    0.0506 C   0  0  0  0  0  0  0  0  0  0  0  0
    0.7117    0.5535    0.1970 C   0  0  0  0  0  0  0  0  0  0  0  0
   -0.5409   -0.0518    0.2799 C   0  0  0  0  0  0  0  0  0  0  0  0
   -1.7063    0.7966    0.4470 C   0  0  1  0  0  0  0  0  0  0  0  0
   -1.7643    2.0754   -0.3062 C   0  0  0  0  0  0  0  0  0  0  0  0
   -3.2034    2.3599   -0.4380 N   0  0  0  0  0  0  0  0  0  0  0  0
   -3.9039    1.1381   -0.0134 C   0  0  0  0  0  0  0  0  0  0  0  0
   -2.8806    0.1008   -0.2654 C   0  0  2  0  0  0  0  0  0  0  0  0
   -3.0204   -1.1531    0.4157 N   0  0  0  0  0  0  0  0  0  0  0  0
   -1.9048   -2.0677    0.2814 C   0  0  0  0  0  0  0  0  0  0  0  0
   -2.0756   -3.3122    0.2314 O   0  0  0  0  0  0  0  0  0  0  0  0
   -0.5811   -1.4395    0.2098 C   0  0  0  0  0  0  0  0  0  0  0  0
    0.5495   -2.2139    0.0655 C   0  0  0  0  0  0  0  0  0  0  0  0
    1.7727   -1.5820   -0.0130 C   0  0  0  0  0  0  0  0  0  0  0  0
    0.4196   -3.6922   -0.0007 C   0  0  0  0  0  0  0  0  0  0  0  0
    3.3341    1.3863   -1.2090 C   0  0  0  0  0  0  0  0  0  0  0  0
    4.6056    1.4670    1.2202 H   0  0  0  0  0  0  0  0  0  0  0  0
    2.8773    2.0965    1.3616 H   0  0  0  0  0  0  0  0  0  0  0  0
    3.4380    0.4910    2.1098 H   0  0  0  0  0  0  0  0  0  0  0  0
    3.9931   -0.3355   -0.1508 H   0  0  0  0  0  0  0  0  0  0  0  0
    0.8431    1.6258    0.2416 H   0  0  0  0  0  0  0  0  0  0  0  0
   -1.9881    0.9876    1.5014 H   0  0  0  0  0  0  0  0  0  0  0  0
   -1.2025    2.9072    0.1219 H   0  0  0  0  0  0  0  0  0  0  0  0
   -1.4510    1.8379   -1.3643 H   0  0  0  0  0  0  0  0  0  0  0  0
   -3.4758    3.1850    0.1135 H   0  0  0  0  0  0  0  0  0  0  0  0
   -4.8579    1.0159   -0.5240 H   0  0  0  0  0  0  0  0  0  0  0  0
   -4.0286    1.2715    1.0887 H   0  0  0  0  0  0  0  0  0  0  0  0
   -2.6337    0.0184   -1.3323 H   0  0  0  0  0  0  0  0  0  0  0  0
   -3.8381   -1.4535    0.9826 H   0  0  0  0  0  0  0  0  0  0  0  0
    2.6866   -2.1527   -0.1267 H   0  0  0  0  0  0  0  0  0  0  0  0
   -0.1280   -3.9163   -0.9300 H   0  0  0  0  0  0  0  0  0  0  0  0
    0.0090   -4.1263    0.9147 H   0  0  0  0  0  0  0  0  0  0  0  0
    1.4314   -4.1490   -0.1234 H   0  0  0  0  0  0  0  0  0  0  0  0
    3.4853    2.4482   -0.9014 H   0  0  0  0  0  0  0  0  0  0  0  0
    4.0829    1.0708   -1.9625 H   0  0  0  0  0  0  0  0  0  0  0  0
    2.3452    1.3523   -1.7457 H   0  0  0  0  0  0  0  0  0  0  0  0
  1  2  1  0
  2  3  1  0
  3  4  2  0
  4  5  1  0
  5  6  1  0
  6  7  1  0
  7  8  1  0
  8  9  1  0
  9 10  1  0
 10 11  1  0
 11 12  1  0
 12 13  2  0
 12 14  1  0
 14 15  1  0
 15 16  2  0
 15 17  1  0
  2 18  1  0
 16  3  1  0
 14  5  2  0
 10  6  1  0
  1 19  1  0
  1 20  1  0
  1 21  1  0
  2 22  1  0
  4 23  1  0
  6 24  1  1
  7 25  1  0
  7 26  1  0
  8 27  1  0
  9 28  1  0
  9 29  1  0
 10 30  1  6
 11 31  1  0
 16 32  1  0
 17 33  1  0
 17 34  1  0
 17 35  1  0
 18 36  1  0
 18 37  1  0
 18 38  1  0
M  END
>  <Ligand ID>  (1) 
LIG0003691

>  <Ligand>  (1) 
CHEMBL2337105

>  <SMILES>  (1) 
CC(c1cc2[C@H]3CNC[C@@H]3NC(=O)c2c(c1)C)C

>  <CID>  (1) 
11644842.0

>  <ChEMBL ID>  (1) 
nan

>  <InChiKey>  (1) 
XCFUWBWYDNILRE-OLZOCXBDSA-N

>  <InChi>  (1) 
InChI=1S/C15H20N2O/c1-8(2)10-4-9(3)14-11(5-10)12-6-16-7-13(12)17-15(14)18/h4-5,8,12-13,16H,6-7H2,1-3H3,(H,17,18)/t12-,13+/m1/s1

>  <IUPAC Name>  (1) 
(3aR,9bS)-6-methyl-8-propan-2-yl-1,2,3,3a,4,9b-hexahydropyrrolo[3,4-c]isoquinolin-5-one

$$$$
