
     RDKit          3D

 91 96  0  0  0  0  0  0  0  0999 V2000
   -5.7760    4.2130    1.4065 N   0  0  0  0  0  0  0  0  0  0  0  0
   -4.3342    4.2627    1.3585 C   0  0  0  0  0  0  0  0  0  0  0  0
   -3.7432    3.7752    0.4106 N   0  0  0  0  0  0  0  0  0  0  0  0
   -2.5139    3.5192   -0.1763 C   0  0  0  0  0  0  0  0  0  0  0  0
   -1.4366    3.0065    0.7148 C   0  0  0  0  0  0  0  0  0  0  0  0
   -1.6167    1.7756    1.4824 C   0  0  0  0  0  0  0  0  0  0  0  0
   -1.8764    0.4677    0.8463 C   0  0  1  0  0  0  0  0  0  0  0  0
   -3.1118    0.2848    0.0667 C   0  0  0  0  0  0  0  0  0  0  0  0
   -2.6941   -0.5959   -1.1162 C   0  0  1  0  0  0  0  0  0  0  0  0
   -1.2739   -0.0996   -1.3163 C   0  0  0  0  0  0  0  0  0  0  0  0
   -0.7461    0.0232    0.0263 N   0  0  0  0  0  0  0  0  0  0  0  0
    0.5456   -0.1963    0.5442 C   0  0  0  0  0  0  0  0  0  0  0  0
    0.7979   -0.0662    1.7971 O   0  0  0  0  0  0  0  0  0  0  0  0
    1.7270   -0.5907   -0.2732 C   0  0  2  0  0  0  0  0  0  0  0  0
    2.8540   -0.8991    0.5832 N   0  0  0  0  0  0  0  0  0  0  0  0
    3.6054    0.0655    1.2888 C   0  0  0  0  0  0  0  0  0  0  0  0
    3.2896    1.2858    1.1815 O   0  0  0  0  0  0  0  0  0  0  0  0
    4.7439   -0.3776    2.1360 C   0  0  0  0  0  0  0  0  0  0  0  0
    5.4294    0.6899    2.7781 N   0  0  0  0  0  0  0  0  0  0  0  0
    6.4974    1.2980    2.0587 C   0  0  0  0  0  0  0  0  0  0  0  0
    7.4272    0.2218    1.6340 C   0  0  0  0  0  0  0  0  0  0  0  0
    7.0072   -1.0519    1.3096 C   0  0  0  0  0  0  0  0  0  0  0  0
    5.5774   -1.3573    1.3887 C   0  0  0  0  0  0  0  0  0  0  0  0
    7.8692   -2.0520    0.9138 C   0  0  0  0  0  0  0  0  0  0  0  0
    9.2280   -1.7957    0.8284 C   0  0  0  0  0  0  0  0  0  0  0  0
    9.6738   -0.5289    1.1479 C   0  0  0  0  0  0  0  0  0  0  0  0
    8.7837    0.4650    1.5451 C   0  0  0  0  0  0  0  0  0  0  0  0
    2.0566    0.4440   -1.3173 C   0  0  0  0  0  0  0  0  0  0  0  0
    3.2115    0.0243   -2.1187 C   0  0  0  0  0  0  0  0  0  0  0  0
    2.9721   -0.8115   -3.2163 C   0  0  0  0  0  0  0  0  0  0  0  0
    3.9863   -1.2367   -4.0186 C   0  0  0  0  0  0  0  0  0  0  0  0
    5.2882   -0.8765   -3.8027 C   0  0  0  0  0  0  0  0  0  0  0  0
    5.5679   -0.0406   -2.7141 C   0  0  0  0  0  0  0  0  0  0  0  0
    4.5163    0.3817   -1.9085 C   0  0  0  0  0  0  0  0  0  0  0  0
   -2.6443   -1.9072   -0.7564 O   0  0  0  0  0  0  0  0  0  0  0  0
   -3.4245   -2.7130   -1.5250 C   0  0  0  0  0  0  0  0  0  0  0  0
   -4.8521   -2.3367   -1.4565 C   0  0  0  0  0  0  0  0  0  0  0  0
   -5.5232   -1.5880   -2.3816 C   0  0  0  0  0  0  0  0  0  0  0  0
   -6.8553   -1.2829   -2.1810 C   0  0  0  0  0  0  0  0  0  0  0  0
   -7.5679   -1.6969   -1.0783 C   0  0  0  0  0  0  0  0  0  0  0  0
   -6.8824   -2.4556   -0.1447 C   0  0  0  0  0  0  0  0  0  0  0  0
   -5.5574   -2.7685   -0.3283 C   0  0  0  0  0  0  0  0  0  0  0  0
   -7.5262   -2.9040    0.9835 C   0  0  0  0  0  0  0  0  0  0  0  0
   -8.8392   -2.6107    1.1967 C   0  0  0  0  0  0  0  0  0  0  0  0
   -9.5106   -1.8532    0.2566 C   0  0  0  0  0  0  0  0  0  0  0  0
   -8.9146   -1.3760   -0.8943 C   0  0  0  0  0  0  0  0  0  0  0  0
   -3.7287    4.9129    2.4952 N   0  0  0  0  0  0  0  0  0  0  0  0
   -6.3692    4.9593    0.9754 H   0  0  0  0  0  0  0  0  0  0  0  0
   -6.1849    3.3722    1.9049 H   0  0  0  0  0  0  0  0  0  0  0  0
   -2.1454    4.5753   -0.5463 H   0  0  0  0  0  0  0  0  0  0  0  0
   -2.5708    3.0019   -1.1660 H   0  0  0  0  0  0  0  0  0  0  0  0
   -0.4358    3.0315    0.1661 H   0  0  0  0  0  0  0  0  0  0  0  0
   -1.2661    3.8442    1.4787 H   0  0  0  0  0  0  0  0  0  0  0  0
   -2.4655    1.9363    2.2345 H   0  0  0  0  0  0  0  0  0  0  0  0
   -0.7275    1.6065    2.1839 H   0  0  0  0  0  0  0  0  0  0  0  0
   -1.9526   -0.2741    1.7244 H   0  0  0  0  0  0  0  0  0  0  0  0
   -3.9096   -0.2803    0.6489 H   0  0  0  0  0  0  0  0  0  0  0  0
   -3.5340    1.1844   -0.3768 H   0  0  0  0  0  0  0  0  0  0  0  0
   -3.3175   -0.3548   -1.9833 H   0  0  0  0  0  0  0  0  0  0  0  0
   -0.6711   -0.8533   -1.8711 H   0  0  0  0  0  0  0  0  0  0  0  0
   -1.2723    0.8438   -1.8571 H   0  0  0  0  0  0  0  0  0  0  0  0
    1.4798   -1.5001   -0.8330 H   0  0  0  0  0  0  0  0  0  0  0  0
    3.1626   -1.9119    0.7122 H   0  0  0  0  0  0  0  0  0  0  0  0
    4.2530   -0.9676    2.9713 H   0  0  0  0  0  0  0  0  0  0  0  0
    5.7175    0.4814    3.7602 H   0  0  0  0  0  0  0  0  0  0  0  0
    7.0477    1.9472    2.7805 H   0  0  0  0  0  0  0  0  0  0  0  0
    6.1795    1.9578    1.2258 H   0  0  0  0  0  0  0  0  0  0  0  0
    5.4932   -2.4104    1.7834 H   0  0  0  0  0  0  0  0  0  0  0  0
    5.2057   -1.4490    0.3321 H   0  0  0  0  0  0  0  0  0  0  0  0
    7.4671   -3.0477    0.6672 H   0  0  0  0  0  0  0  0  0  0  0  0
    9.9118   -2.5846    0.5156 H   0  0  0  0  0  0  0  0  0  0  0  0
   10.7313   -0.3575    1.0728 H   0  0  0  0  0  0  0  0  0  0  0  0
    9.1624    1.4583    1.7920 H   0  0  0  0  0  0  0  0  0  0  0  0
    1.1933    0.5232   -1.9975 H   0  0  0  0  0  0  0  0  0  0  0  0
    2.1687    1.4620   -0.8861 H   0  0  0  0  0  0  0  0  0  0  0  0
    1.9555   -1.1454   -3.4564 H   0  0  0  0  0  0  0  0  0  0  0  0
    3.7860   -1.8833   -4.8659 H   0  0  0  0  0  0  0  0  0  0  0  0
    6.1294   -1.1838   -4.4044 H   0  0  0  0  0  0  0  0  0  0  0  0
    6.5905    0.2769   -2.4959 H   0  0  0  0  0  0  0  0  0  0  0  0
    4.7766    1.0283   -1.0973 H   0  0  0  0  0  0  0  0  0  0  0  0
   -3.3243   -3.8068   -1.2497 H   0  0  0  0  0  0  0  0  0  0  0  0
   -3.1130   -2.7067   -2.6147 H   0  0  0  0  0  0  0  0  0  0  0  0
   -5.0299   -1.2414   -3.2714 H   0  0  0  0  0  0  0  0  0  0  0  0
   -7.3344   -0.6854   -2.9486 H   0  0  0  0  0  0  0  0  0  0  0  0
   -5.0421   -3.3714    0.4326 H   0  0  0  0  0  0  0  0  0  0  0  0
   -7.0294   -3.5064    1.7551 H   0  0  0  0  0  0  0  0  0  0  0  0
   -9.4156   -2.9299    2.0648 H   0  0  0  0  0  0  0  0  0  0  0  0
  -10.5652   -1.5912    0.3814 H   0  0  0  0  0  0  0  0  0  0  0  0
   -9.4166   -0.7876   -1.6371 H   0  0  0  0  0  0  0  0  0  0  0  0
   -2.9617    5.6272    2.3743 H   0  0  0  0  0  0  0  0  0  0  0  0
   -4.0636    4.6651    3.4475 H   0  0  0  0  0  0  0  0  0  0  0  0
  1  2  1  0
  2  3  2  3
  3  4  1  0
  4  5  1  0
  5  6  1  0
  6  7  1  0
  7  8  1  0
  8  9  1  0
  9 10  1  0
 10 11  1  0
 11 12  1  0
 12 13  2  0
 12 14  1  0
 14 15  1  0
 15 16  1  0
 16 17  2  0
 16 18  1  0
 18 19  1  0
 19 20  1  0
 20 21  1  0
 21 22  2  0
 22 23  1  0
 22 24  1  0
 24 25  2  0
 25 26  1  0
 26 27  2  0
 14 28  1  0
 28 29  1  0
 29 30  2  0
 30 31  1  0
 31 32  2  0
 32 33  1  0
 33 34  2  0
  9 35  1  0
 35 36  1  0
 36 37  1  0
 37 38  2  0
 38 39  1  0
 39 40  2  0
 40 41  1  0
 41 42  2  0
 41 43  1  0
 43 44  2  0
 44 45  1  0
 45 46  2  0
  2 47  1  0
 11  7  1  0
 23 18  1  0
 34 29  1  0
 42 37  1  0
 27 21  1  0
 46 40  1  0
  1 48  1  0
  1 49  1  0
  4 50  1  0
  4 51  1  0
  5 52  1  0
  5 53  1  0
  6 54  1  0
  6 55  1  0
  7 56  1  1
  8 57  1  0
  8 58  1  0
  9 59  1  6
 10 60  1  0
 10 61  1  0
 14 62  1  6
 15 63  1  0
 18 64  1  0
 19 65  1  0
 20 66  1  0
 20 67  1  0
 23 68  1  0
 23 69  1  0
 24 70  1  0
 25 71  1  0
 26 72  1  0
 27 73  1  0
 28 74  1  0
 28 75  1  0
 30 76  1  0
 31 77  1  0
 32 78  1  0
 33 79  1  0
 34 80  1  0
 36 81  1  0
 36 82  1  0
 38 83  1  0
 39 84  1  0
 42 85  1  0
 43 86  1  0
 44 87  1  0
 45 88  1  0
 46 89  1  0
 47 90  1  0
 47 91  1  0
M  END
>  <Ligand ID>  (1) 
LIG0002403

>  <Ligand>  (1) 
CHEMBL379168

>  <SMILES>  (1) 
NC(=NCCC[C@H]1C[C@@H](CN1C(=O)[C@H](NC(=O)C1NCc2c(C1)cccc2)Cc1ccccc1)OCc1ccc2c(c1)cccc2)N

>  <CID>  (1) 
44413828.0

>  <ChEMBL ID>  (1) 
nan

>  <InChiKey>  (1) 
GBTCAHLJDYHAKJ-BOYZONONSA-N

>  <InChi>  (1) 
InChI=1S/C38H44N6O3/c39-38(40)41-18-8-15-32-22-33(47-25-27-16-17-28-11-4-5-12-29(28)19-27)24-44(32)37(46)35(20-26-9-2-1-3-10-26)43-36(45)34-21-30-13-6-7-14-31(30)23-42-34/h1-7,9-14,16-17,19,32-35,42H,8,15,18,20-25H2,(H,43,45)(H4,39,40,41)/t32-,33-,34?,35+/m0/s1

>  <IUPAC Name>  (1) 
N-[(2R)-1-[(2S,4S)-2-[3-(diaminomethylideneamino)propyl]-4-(naphthalen-2-ylmethoxy)pyrrolidin-1-yl]-1-oxo-3-phenylpropan-2-yl]-1,2,3,4-tetrahydroisoquinoline-3-carboxamide

$$$$
