
     RDKit          3D

 87 91  0  0  0  0  0  0  0  0999 V2000
   -0.2153    2.2874   -3.8124 C   0  0  0  0  0  0  0  0  0  0  0  0
    0.5704    1.4812   -2.7604 C   0  0  0  0  0  0  0  0  0  0  0  0
   -0.1973    1.4494   -1.4888 C   0  0  0  0  0  0  0  0  0  0  0  0
    0.4167    0.7052   -0.3489 C   0  0  2  0  0  0  0  0  0  0  0  0
   -0.5471    0.8293    0.7641 N   0  0  0  0  0  0  0  0  0  0  0  0
   -0.2304    1.7901    1.7840 C   0  0  0  0  0  0  0  0  0  0  0  0
    1.0319    1.3207    2.4907 C   0  0  0  0  0  0  0  0  0  0  0  0
    2.0943    1.2942    1.4979 N   0  0  0  0  0  0  0  0  0  0  0  0
    1.7121    1.2359    0.1158 C   0  0  0  0  0  0  0  0  0  0  0  0
    2.5980    1.6898   -0.6912 O   0  0  0  0  0  0  0  0  0  0  0  0
    3.4615    1.3201    1.9059 C   0  0  2  0  0  0  0  0  0  0  0  0
    4.2135    2.4995    1.4659 C   0  0  0  0  0  0  0  0  0  0  0  0
    3.7433    3.4680    0.8194 O   0  0  0  0  0  0  0  0  0  0  0  0
    5.6148    2.5434    1.8091 N   0  0  0  0  0  0  0  0  0  0  0  0
    6.3077    3.7554    1.3381 C   0  0  0  0  0  0  0  0  0  0  0  0
    4.1237    0.0040    1.7045 C   0  0  0  0  0  0  0  0  0  0  0  0
    4.1712   -0.5331    0.3448 C   0  0  0  0  0  0  0  0  0  0  0  0
    3.2028   -1.4070   -0.1729 C   0  0  0  0  0  0  0  0  0  0  0  0
    3.3007   -1.8931   -1.4720 C   0  0  0  0  0  0  0  0  0  0  0  0
    4.3403   -1.5436   -2.3010 C   0  0  0  0  0  0  0  0  0  0  0  0
    5.2936   -0.6843   -1.7940 C   0  0  0  0  0  0  0  0  0  0  0  0
    5.2271   -0.1779   -0.4969 C   0  0  0  0  0  0  0  0  0  0  0  0
    6.3529   -0.3194   -2.6183 C   0  0  0  0  0  0  0  0  0  0  0  0
    6.4289   -0.8176   -3.9102 C   0  0  0  0  0  0  0  0  0  0  0  0
    5.4452   -1.6861   -4.3896 C   0  0  0  0  0  0  0  0  0  0  0  0
    4.3739   -2.0607   -3.5699 C   0  0  0  0  0  0  0  0  0  0  0  0
   -1.6635   -0.0160    0.7115 C   0  0  0  0  0  0  0  0  0  0  0  0
   -1.7373   -0.8201   -0.2670 O   0  0  0  0  0  0  0  0  0  0  0  0
   -2.7760   -0.0720    1.6874 C   0  0  2  0  0  0  0  0  0  0  0  0
   -3.6497   -1.1950    1.3410 N   0  0  0  0  0  0  0  0  0  0  0  0
   -3.8581   -2.3089    2.1608 C   0  0  0  0  0  0  0  0  0  0  0  0
   -3.2675   -2.3894    3.2934 O   0  0  0  0  0  0  0  0  0  0  0  0
   -4.7570   -3.4358    1.7667 C   0  0  0  0  0  0  0  0  0  0  0  0
   -5.4264   -3.1272    0.5313 N   0  0  0  0  0  0  0  0  0  0  0  0
   -5.5880   -4.0162    2.8674 C   0  0  0  0  0  0  0  0  0  0  0  0
   -5.2486   -5.3949    2.3119 C   0  0  0  0  0  0  0  0  0  0  0  0
   -3.9985   -4.7745    1.6942 C   0  0  0  0  0  0  0  0  0  0  0  0
   -3.6816    1.1419    1.6496 C   0  0  0  0  0  0  0  0  0  0  0  0
   -4.3234    1.3301    0.3271 C   0  0  0  0  0  0  0  0  0  0  0  0
   -5.5571    0.7977    0.0318 C   0  0  0  0  0  0  0  0  0  0  0  0
   -6.1646    0.9457   -1.1924 C   0  0  0  0  0  0  0  0  0  0  0  0
   -5.5078    1.6701   -2.1959 C   0  0  0  0  0  0  0  0  0  0  0  0
   -4.2603    2.2094   -1.8975 C   0  0  0  0  0  0  0  0  0  0  0  0
   -3.6726    2.0401   -0.6431 C   0  0  0  0  0  0  0  0  0  0  0  0
   -6.1006    1.8180   -3.4020 F   0  0  0  0  0  0  0  0  0  0  0  0
   -0.0047    3.3696   -3.7348 H   0  0  0  0  0  0  0  0  0  0  0  0
   -1.2979    2.1304   -3.6157 H   0  0  0  0  0  0  0  0  0  0  0  0
    0.0395    1.9603   -4.8410 H   0  0  0  0  0  0  0  0  0  0  0  0
    0.7646    0.4739   -3.1903 H   0  0  0  0  0  0  0  0  0  0  0  0
    1.5460    2.0007   -2.7043 H   0  0  0  0  0  0  0  0  0  0  0  0
   -1.1993    0.9753   -1.7030 H   0  0  0  0  0  0  0  0  0  0  0  0
   -0.4130    2.5254   -1.2242 H   0  0  0  0  0  0  0  0  0  0  0  0
    0.5398   -0.3627   -0.5904 H   0  0  0  0  0  0  0  0  0  0  0  0
    0.0197    2.7977    1.3478 H   0  0  0  0  0  0  0  0  0  0  0  0
   -1.0165    1.9349    2.5505 H   0  0  0  0  0  0  0  0  0  0  0  0
    1.2900    1.9883    3.3408 H   0  0  0  0  0  0  0  0  0  0  0  0
    0.8882    0.3009    2.9282 H   0  0  0  0  0  0  0  0  0  0  0  0
    3.4183    1.4166    3.0533 H   0  0  0  0  0  0  0  0  0  0  0  0
    6.0926    1.8014    2.3333 H   0  0  0  0  0  0  0  0  0  0  0  0
    7.3524    3.8025    1.6605 H   0  0  0  0  0  0  0  0  0  0  0  0
    5.7622    4.5894    1.8414 H   0  0  0  0  0  0  0  0  0  0  0  0
    6.1480    3.9260    0.2514 H   0  0  0  0  0  0  0  0  0  0  0  0
    5.1419   -0.0237    2.2052 H   0  0  0  0  0  0  0  0  0  0  0  0
    3.5393   -0.7306    2.3443 H   0  0  0  0  0  0  0  0  0  0  0  0
    2.3644   -1.7117    0.4417 H   0  0  0  0  0  0  0  0  0  0  0  0
    2.5365   -2.5688   -1.8458 H   0  0  0  0  0  0  0  0  0  0  0  0
    5.9749    0.4964   -0.1020 H   0  0  0  0  0  0  0  0  0  0  0  0
    7.1302    0.3566   -2.2653 H   0  0  0  0  0  0  0  0  0  0  0  0
    7.2253   -0.5701   -4.5965 H   0  0  0  0  0  0  0  0  0  0  0  0
    5.5028   -2.0848   -5.4153 H   0  0  0  0  0  0  0  0  0  0  0  0
    3.5979   -2.7376   -3.9327 H   0  0  0  0  0  0  0  0  0  0  0  0
   -2.3535   -0.2101    2.6831 H   0  0  0  0  0  0  0  0  0  0  0  0
   -4.1534   -1.1715    0.4182 H   0  0  0  0  0  0  0  0  0  0  0  0
   -5.8889   -2.1999    0.6333 H   0  0  0  0  0  0  0  0  0  0  0  0
   -4.7130   -3.0375   -0.2227 H   0  0  0  0  0  0  0  0  0  0  0  0
   -6.6567   -3.7890    2.8059 H   0  0  0  0  0  0  0  0  0  0  0  0
   -5.2353   -3.8264    3.9035 H   0  0  0  0  0  0  0  0  0  0  0  0
   -5.9921   -5.7289    1.5649 H   0  0  0  0  0  0  0  0  0  0  0  0
   -5.0707   -6.1126    3.1125 H   0  0  0  0  0  0  0  0  0  0  0  0
   -3.1014   -4.8061    2.3213 H   0  0  0  0  0  0  0  0  0  0  0  0
   -3.8436   -5.0416    0.6272 H   0  0  0  0  0  0  0  0  0  0  0  0
   -4.5349    0.8626    2.3472 H   0  0  0  0  0  0  0  0  0  0  0  0
   -3.2717    2.0553    2.0712 H   0  0  0  0  0  0  0  0  0  0  0  0
   -6.1065    0.2260    0.7829 H   0  0  0  0  0  0  0  0  0  0  0  0
   -7.1406    0.5059   -1.3764 H   0  0  0  0  0  0  0  0  0  0  0  0
   -3.7701    2.7662   -2.6880 H   0  0  0  0  0  0  0  0  0  0  0  0
   -2.7060    2.4975   -0.5109 H   0  0  0  0  0  0  0  0  0  0  0  0
  1  2  1  0
  2  3  1  0
  3  4  1  0
  4  5  1  0
  5  6  1  0
  6  7  1  0
  7  8  1  0
  8  9  1  0
  9 10  2  0
  8 11  1  0
 11 12  1  0
 12 13  2  0
 12 14  1  0
 14 15  1  0
 11 16  1  0
 16 17  1  0
 17 18  2  0
 18 19  1  0
 19 20  2  0
 20 21  1  0
 21 22  2  0
 21 23  1  0
 23 24  2  0
 24 25  1  0
 25 26  2  0
  5 27  1  0
 27 28  2  0
 27 29  1  0
 29 30  1  0
 30 31  1  0
 31 32  2  0
 31 33  1  0
 33 34  1  0
 33 35  1  0
 35 36  1  0
 36 37  1  0
 29 38  1  0
 38 39  1  0
 39 40  2  0
 40 41  1  0
 41 42  2  0
 42 43  1  0
 43 44  2  0
 42 45  1  0
  9  4  1  0
 22 17  1  0
 37 33  1  0
 44 39  1  0
 26 20  1  0
  1 46  1  0
  1 47  1  0
  1 48  1  0
  2 49  1  0
  2 50  1  0
  3 51  1  0
  3 52  1  0
  4 53  1  6
  6 54  1  0
  6 55  1  0
  7 56  1  0
  7 57  1  0
 11 58  1  1
 14 59  1  0
 15 60  1  0
 15 61  1  0
 15 62  1  0
 16 63  1  0
 16 64  1  0
 18 65  1  0
 19 66  1  0
 22 67  1  0
 23 68  1  0
 24 69  1  0
 25 70  1  0
 26 71  1  0
 29 72  1  1
 30 73  1  0
 34 74  1  0
 34 75  1  0
 35 76  1  0
 35 77  1  0
 36 78  1  0
 36 79  1  0
 37 80  1  0
 37 81  1  0
 38 82  1  0
 38 83  1  0
 40 84  1  0
 41 85  1  0
 43 86  1  0
 44 87  1  0
M  END
>  <Ligand ID>  (1) 
LIG0004077

>  <Ligand>  (1) 
CHEMBL447117

>  <SMILES>  (1) 
CCC[C@@H]1N(CCN(C1=O)[C@H](C(=O)NC)Cc1ccc2c(c1)cccc2)C(=O)[C@H](NC(=O)C1(N)CCC1)Cc1ccc(cc1)F

>  <CID>  (1) 
25133208.0

>  <ChEMBL ID>  (1) 
nan

>  <InChiKey>  (1) 
DUSMRMPLECSLRG-NGDRWEMDSA-N

>  <InChi>  (1) 
InChI=1S/C35H42FN5O4/c1-3-7-29-33(44)41(30(31(42)38-2)22-24-10-13-25-8-4-5-9-26(25)20-24)19-18-40(29)32(43)28(21-23-11-14-27(36)15-12-23)39-34(45)35(37)16-6-17-35/h4-5,8-15,20,28-30H,3,6-7,16-19,21-22,37H2,1-2H3,(H,38,42)(H,39,45)/t28-,29+,30+/m1/s1

>  <IUPAC Name>  (1) 
1-amino-N-[(2R)-3-(4-fluorophenyl)-1-[(2S)-4-[(2S)-1-(methylamino)-3-naphthalen-2-yl-1-oxopropan-2-yl]-3-oxo-2-propylpiperazin-1-yl]-1-oxopropan-2-yl]cyclobutane-1-carboxamide

$$$$
