
     RDKit          3D

 47 49  0  0  0  0  0  0  0  0999 V2000
    4.9319   -0.5151    1.1462 C   0  0  0  0  0  0  0  0  0  0  0  0
    3.7972    0.2989    0.6176 C   0  0  0  0  0  0  0  0  0  0  0  0
    3.9374    1.5490    0.6030 O   0  0  0  0  0  0  0  0  0  0  0  0
    2.6424   -0.3248    0.1655 O   0  0  0  0  0  0  0  0  0  0  0  0
    1.5278    0.3383   -0.3457 C   0  0  2  0  0  0  0  0  0  0  0  0
    1.9724    1.1257   -1.5649 C   0  0  0  0  0  0  0  0  0  0  0  0
    0.9753    1.3477    0.6161 C   0  0  0  0  0  0  0  0  0  0  0  0
   -0.4273    1.7675    0.3676 C   0  0  0  0  0  0  0  0  0  0  0  0
   -1.2323    0.6884   -0.2631 C   0  0  1  0  0  0  0  0  0  0  0  0
   -0.5869    0.0862   -1.4792 C   0  0  0  0  0  0  0  0  0  0  0  0
    0.5499   -0.6850   -0.8083 C   0  0  2  0  0  0  0  0  0  0  0  0
   -0.1956   -1.4416    0.2260 C   0  0  0  0  0  0  0  0  0  0  0  0
   -0.8134   -2.6663   -0.4481 C   0  0  0  0  0  0  0  0  0  0  0  0
    0.6333   -2.0400    1.3261 C   0  0  0  0  0  0  0  0  0  0  0  0
   -1.2472   -0.4778    0.7117 C   0  0  2  0  0  0  0  0  0  0  0  0
   -2.6441   -0.9995    0.6987 C   0  0  0  0  0  0  0  0  0  0  0  0
   -3.4587   -0.1471   -0.2578 C   0  0  0  0  0  0  0  0  0  0  0  0
   -2.6314    1.0552   -0.5802 C   0  0  1  0  0  0  0  0  0  0  0  0
   -3.1003    2.3268    0.0823 C   0  0  0  0  0  0  0  0  0  0  0  0
    5.7393   -0.4135    0.3831 H   0  0  0  0  0  0  0  0  0  0  0  0
    5.3500   -0.0951    2.0843 H   0  0  0  0  0  0  0  0  0  0  0  0
    4.6279   -1.5688    1.2246 H   0  0  0  0  0  0  0  0  0  0  0  0
    1.5402    2.1463   -1.5974 H   0  0  0  0  0  0  0  0  0  0  0  0
    1.7616    0.5543   -2.4975 H   0  0  0  0  0  0  0  0  0  0  0  0
    3.0745    1.2575   -1.5493 H   0  0  0  0  0  0  0  0  0  0  0  0
    1.1222    1.0338    1.6912 H   0  0  0  0  0  0  0  0  0  0  0  0
    1.6120    2.2598    0.5463 H   0  0  0  0  0  0  0  0  0  0  0  0
   -0.4809    2.7289   -0.1868 H   0  0  0  0  0  0  0  0  0  0  0  0
   -0.9028    1.9739    1.3660 H   0  0  0  0  0  0  0  0  0  0  0  0
   -0.2383    0.8317   -2.2059 H   0  0  0  0  0  0  0  0  0  0  0  0
   -1.3147   -0.5582   -1.9798 H   0  0  0  0  0  0  0  0  0  0  0  0
    1.0645   -1.3475   -1.5179 H   0  0  0  0  0  0  0  0  0  0  0  0
    0.0464   -3.1623   -0.9751 H   0  0  0  0  0  0  0  0  0  0  0  0
   -1.1983   -3.3969    0.3022 H   0  0  0  0  0  0  0  0  0  0  0  0
   -1.5623   -2.4294   -1.2059 H   0  0  0  0  0  0  0  0  0  0  0  0
   -0.0875   -2.4176    2.0893 H   0  0  0  0  0  0  0  0  0  0  0  0
    1.3406   -1.3642    1.8141 H   0  0  0  0  0  0  0  0  0  0  0  0
    1.1659   -2.9145    0.9223 H   0  0  0  0  0  0  0  0  0  0  0  0
   -0.9830   -0.1718    1.7378 H   0  0  0  0  0  0  0  0  0  0  0  0
   -3.1350   -0.8796    1.6898 H   0  0  0  0  0  0  0  0  0  0  0  0
   -2.7458   -2.0481    0.4184 H   0  0  0  0  0  0  0  0  0  0  0  0
   -4.4156    0.2009    0.1793 H   0  0  0  0  0  0  0  0  0  0  0  0
   -3.6779   -0.7260   -1.1819 H   0  0  0  0  0  0  0  0  0  0  0  0
   -2.7056    1.2476   -1.6893 H   0  0  0  0  0  0  0  0  0  0  0  0
   -3.0307    2.2953    1.1788 H   0  0  0  0  0  0  0  0  0  0  0  0
   -2.4708    3.1452   -0.3569 H   0  0  0  0  0  0  0  0  0  0  0  0
   -4.1262    2.5316   -0.2901 H   0  0  0  0  0  0  0  0  0  0  0  0
  1  2  1  0
  2  3  2  0
  2  4  1  0
  5  4  1  1
  5  6  1  0
  5  7  1  0
  7  8  1  0
  9  8  1  1
  9 10  1  0
 10 11  1  0
 11 12  1  0
 12 13  1  0
 12 14  1  0
 12 15  1  0
 15 16  1  0
 16 17  1  0
 17 18  1  0
 18 19  1  0
 11  5  1  0
 15  9  1  0
 18  9  1  0
  1 20  1  0
  1 21  1  0
  1 22  1  0
  6 23  1  0
  6 24  1  0
  6 25  1  0
  7 26  1  0
  7 27  1  0
  8 28  1  0
  8 29  1  0
 10 30  1  0
 10 31  1  0
 11 32  1  6
 13 33  1  0
 13 34  1  0
 13 35  1  0
 14 36  1  0
 14 37  1  0
 14 38  1  0
 15 39  1  1
 16 40  1  0
 16 41  1  0
 17 42  1  0
 17 43  1  0
 18 44  1  6
 19 45  1  0
 19 46  1  0
 19 47  1  0
M  END
>  <Ligand ID>  (1) 
LIG0000528

>  <Ligand>  (1) 
Cedryl Acetate

>  <SMILES>  (1) 
CC(=O)O[C@]1(C)CC[C@@]23C[C@@H]1C(C)(C)[C@@H]2CC[C@H]3C

>  <CID>  (1) 
13918856.0

>  <ChEMBL ID>  (1) 
nan

>  <InChiKey>  (1) 
HQKQRXZEXPXXIG-DTWJZALFSA-N

>  <InChi>  (1) 
InChI=1S/C17H28O2/c1-11-6-7-13-15(3,4)14-10-17(11,13)9-8-16(14,5)19-12(2)18/h11,13-14H,6-10H2,1-5H3/t11-,13+,14-,16-,17+/m1/s1

>  <IUPAC Name>  (1) 
[(1S,2R,5S,7R,8R)-2,6,6,8-tetramethyl-8-tricyclo[5.3.1.01,5]undecanyl] acetate

$$$$
