
     RDKit          3D

 33 35  0  0  0  0  0  0  0  0999 V2000
    3.9067    1.4821   -0.5178 C   0  0  0  0  0  0  0  0  0  0  0  0
    4.6316    0.5759    0.4473 C   0  0  0  0  0  0  0  0  0  0  0  0
    3.5898   -0.3597    0.8110 N   0  0  0  0  0  0  0  0  0  0  0  0
    2.6770   -0.3925   -0.0906 C   0  0  0  0  0  0  0  0  0  0  0  0
    3.0016    0.5059   -1.1441 N   0  0  0  0  0  0  0  0  0  0  0  0
    1.4619   -1.2505   -0.0321 C   0  0  0  0  0  0  0  0  0  0  0  0
    0.2683   -0.4582   -0.0526 N   0  0  0  0  0  0  0  0  0  0  0  0
   -0.9805   -1.0996   -0.0043 C   0  0  0  0  0  0  0  0  0  0  0  0
   -1.0858   -2.4718    0.0781 C   0  0  0  0  0  0  0  0  0  0  0  0
   -2.2907   -3.1404    0.1400 C   0  0  0  0  0  0  0  0  0  0  0  0
   -3.4637   -2.4120    0.1194 C   0  0  0  0  0  0  0  0  0  0  0  0
   -3.3519   -1.0477    0.0372 C   0  0  0  0  0  0  0  0  0  0  0  0
   -2.1490   -0.3755   -0.0252 C   0  0  0  0  0  0  0  0  0  0  0  0
   -2.2065    1.0745   -0.1234 C   0  0  0  0  0  0  0  0  0  0  0  0
   -2.9710    1.8920    0.6917 C   0  0  0  0  0  0  0  0  0  0  0  0
   -2.7849    3.1835    0.3049 N   0  0  0  0  0  0  0  0  0  0  0  0
   -1.9294    3.2044   -0.7257 N   0  0  0  0  0  0  0  0  0  0  0  0
   -1.5719    1.9334   -0.9948 C   0  0  0  0  0  0  0  0  0  0  0  0
    3.2147    2.1995   -0.0000 H   0  0  0  0  0  0  0  0  0  0  0  0
    4.5573    1.9824   -1.2393 H   0  0  0  0  0  0  0  0  0  0  0  0
    5.0139    1.1214    1.3320 H   0  0  0  0  0  0  0  0  0  0  0  0
    5.4381    0.0784   -0.1249 H   0  0  0  0  0  0  0  0  0  0  0  0
    2.6716    0.4768   -2.1346 H   0  0  0  0  0  0  0  0  0  0  0  0
    1.4656   -1.9923   -0.8856 H   0  0  0  0  0  0  0  0  0  0  0  0
    1.4746   -1.8872    0.8703 H   0  0  0  0  0  0  0  0  0  0  0  0
    0.3679    0.5746   -0.0990 H   0  0  0  0  0  0  0  0  0  0  0  0
   -0.1687   -3.0661    0.0956 H   0  0  0  0  0  0  0  0  0  0  0  0
   -2.3412   -4.2276    0.2046 H   0  0  0  0  0  0  0  0  0  0  0  0
   -4.4424   -2.9041    0.1669 H   0  0  0  0  0  0  0  0  0  0  0  0
   -4.2954   -0.4899    0.0223 H   0  0  0  0  0  0  0  0  0  0  0  0
   -3.6061    1.5797    1.4941 H   0  0  0  0  0  0  0  0  0  0  0  0
   -3.2093    4.0501    0.7054 H   0  0  0  0  0  0  0  0  0  0  0  0
   -0.8924    1.6606   -1.7836 H   0  0  0  0  0  0  0  0  0  0  0  0
  1  2  1  0
  2  3  1  0
  3  4  2  0
  4  5  1  0
  4  6  1  0
  6  7  1  0
  7  8  1  0
  8  9  2  0
  9 10  1  0
 10 11  2  0
 11 12  1  0
 12 13  2  0
 13 14  1  0
 14 15  2  0
 15 16  1  0
 16 17  1  0
 17 18  2  0
  5  1  1  0
 13  8  1  0
 18 14  1  0
  1 19  1  0
  1 20  1  0
  2 21  1  0
  2 22  1  0
  5 23  1  0
  6 24  1  0
  6 25  1  0
  7 26  1  0
  9 27  1  0
 10 28  1  0
 11 29  1  0
 12 30  1  0
 15 31  1  0
 16 32  1  0
 18 33  1  0
M  END
>  <Ligand ID>  (1) 
LIG0003179

>  <Ligand>  (1) 
CHEMBL275844

>  <SMILES>  (1) 
C1CN=C(N1)CNc1ccccc1c1c[nH]nc1

>  <CID>  (1) 
22493365.0

>  <ChEMBL ID>  (1) 
nan

>  <InChiKey>  (1) 
KCZJGPLQOLDCRP-UHFFFAOYSA-N

>  <InChi>  (1) 
InChI=1S/C13H15N5/c1-2-4-12(16-9-13-14-5-6-15-13)11(3-1)10-7-17-18-8-10/h1-4,7-8,16H,5-6,9H2,(H,14,15)(H,17,18)

>  <IUPAC Name>  (1) 
N-(4,5-dihydro-1H-imidazol-2-ylmethyl)-2-(1H-pyrazol-4-yl)aniline

$$$$
