
     RDKit          3D

 47 49  0  0  0  0  0  0  0  0999 V2000
    0.1975   -0.8416    1.0596 O   0  0  0  0  0  0  0  0  0  0  0  0
    0.5078    0.0533    0.2151 C   0  0  0  0  0  0  0  0  0  0  0  0
   -0.3899    1.0738   -0.1652 N   0  0  0  0  0  0  0  0  0  0  0  0
   -1.7000    1.0903    0.4326 C   0  0  0  0  0  0  0  0  0  0  0  0
   -1.9649    0.1681    1.2784 N   0  0  0  0  0  0  0  0  0  0  0  0
   -3.1650   -0.0457    2.0053 C   0  0  0  0  0  0  0  0  0  0  0  0
   -4.4325    0.3384    1.3076 C   0  0  0  0  0  0  0  0  0  0  0  0
   -4.5527   -0.4695    0.0227 C   0  0  0  0  0  0  0  0  0  0  0  0
   -5.8173   -0.0871   -0.6692 C   0  0  0  0  0  0  0  0  0  0  0  0
   -6.7397    0.8359   -0.2419 C   0  0  0  0  0  0  0  0  0  0  0  0
   -7.7474    0.9164   -1.1159 N   0  0  0  0  0  0  0  0  0  0  0  0
   -7.4825    0.0402   -2.1216 C   0  0  0  0  0  0  0  0  0  0  0  0
   -6.3120   -0.5604   -1.8393 N   0  0  0  0  0  0  0  0  0  0  0  0
   -2.5922    2.1209    0.0425 N   0  0  0  0  0  0  0  0  0  0  0  0
    1.8830   -0.0412   -0.3505 C   0  0  0  0  0  0  0  0  0  0  0  0
    2.6316   -1.2174    0.2285 C   0  0  0  0  0  0  0  0  0  0  0  0
    4.0094   -1.3491   -0.3086 C   0  0  0  0  0  0  0  0  0  0  0  0
    4.5205   -2.2186   -1.2389 C   0  0  0  0  0  0  0  0  0  0  0  0
    5.8358   -1.9749   -1.4258 N   0  0  0  0  0  0  0  0  0  0  0  0
    6.1510   -0.9458   -0.6069 C   0  0  0  0  0  0  0  0  0  0  0  0
    5.0517   -0.5290    0.1013 C   0  0  0  0  0  0  0  0  0  0  0  0
    5.1900    0.5145    0.9879 C   0  0  0  0  0  0  0  0  0  0  0  0
    6.4175    1.1503    1.1773 C   0  0  0  0  0  0  0  0  0  0  0  0
    7.5100    0.7041    0.4449 C   0  0  0  0  0  0  0  0  0  0  0  0
    7.3794   -0.3448   -0.4488 C   0  0  0  0  0  0  0  0  0  0  0  0
   -0.1091    1.8141   -0.8757 H   0  0  0  0  0  0  0  0  0  0  0  0
   -3.0960    0.5888    2.9363 H   0  0  0  0  0  0  0  0  0  0  0  0
   -3.2416   -1.0939    2.4070 H   0  0  0  0  0  0  0  0  0  0  0  0
   -4.5574    1.4053    1.1405 H   0  0  0  0  0  0  0  0  0  0  0  0
   -5.3337    0.0177    1.9138 H   0  0  0  0  0  0  0  0  0  0  0  0
   -3.7056   -0.3528   -0.6553 H   0  0  0  0  0  0  0  0  0  0  0  0
   -4.6809   -1.5440    0.3199 H   0  0  0  0  0  0  0  0  0  0  0  0
   -6.6446    1.4023    0.6706 H   0  0  0  0  0  0  0  0  0  0  0  0
   -8.1270   -0.1063   -2.9666 H   0  0  0  0  0  0  0  0  0  0  0  0
   -5.8200   -1.2886   -2.4083 H   0  0  0  0  0  0  0  0  0  0  0  0
   -2.7451    2.9693    0.6482 H   0  0  0  0  0  0  0  0  0  0  0  0
   -3.1353    2.1002   -0.8441 H   0  0  0  0  0  0  0  0  0  0  0  0
    1.8044   -0.2043   -1.4515 H   0  0  0  0  0  0  0  0  0  0  0  0
    2.4069    0.9133   -0.1861 H   0  0  0  0  0  0  0  0  0  0  0  0
    2.6754   -1.0203    1.3353 H   0  0  0  0  0  0  0  0  0  0  0  0
    2.0764   -2.1418    0.0573 H   0  0  0  0  0  0  0  0  0  0  0  0
    3.9066   -2.9779   -1.7261 H   0  0  0  0  0  0  0  0  0  0  0  0
    6.4286   -2.5106   -2.0847 H   0  0  0  0  0  0  0  0  0  0  0  0
    4.3113    0.8327    1.5403 H   0  0  0  0  0  0  0  0  0  0  0  0
    6.4887    1.9671    1.8826 H   0  0  0  0  0  0  0  0  0  0  0  0
    8.4537    1.1898    0.5875 H   0  0  0  0  0  0  0  0  0  0  0  0
    8.2553   -0.6755   -1.0119 H   0  0  0  0  0  0  0  0  0  0  0  0
  1  2  2  0
  2  3  1  0
  3  4  1  0
  4  5  2  3
  5  6  1  0
  6  7  1  0
  7  8  1  0
  8  9  1  0
  9 10  2  0
 10 11  1  0
 11 12  2  0
 12 13  1  0
  4 14  1  0
  2 15  1  0
 15 16  1  0
 16 17  1  0
 17 18  2  0
 18 19  1  0
 19 20  1  0
 20 21  2  0
 21 22  1  0
 22 23  2  0
 23 24  1  0
 24 25  2  0
 13  9  1  0
 21 17  1  0
 25 20  1  0
  3 26  1  0
  6 27  1  0
  6 28  1  0
  7 29  1  0
  7 30  1  0
  8 31  1  0
  8 32  1  0
 10 33  1  0
 12 34  1  0
 13 35  1  0
 14 36  1  0
 14 37  1  0
 15 38  1  0
 15 39  1  0
 16 40  1  0
 16 41  1  0
 18 42  1  0
 19 43  1  0
 22 44  1  0
 23 45  1  0
 24 46  1  0
 25 47  1  0
M  END
>  <Ligand ID>  (1) 
LIG0002739

>  <Ligand>  (1) 
CHEMBL514641

>  <SMILES>  (1) 
O=C(NC(=NCCCc1cnc[nH]1)N)CCc1c[nH]c2c1cccc2

>  <CID>  (1) 
42625221.0

>  <ChEMBL ID>  (1) 
nan

>  <InChiKey>  (1) 
UZGNSWKIWQZYQQ-UHFFFAOYSA-N

>  <InChi>  (1) 
InChI=1S/C18H22N6O/c19-18(21-9-3-4-14-11-20-12-23-14)24-17(25)8-7-13-10-22-16-6-2-1-5-15(13)16/h1-2,5-6,10-12,22H,3-4,7-9H2,(H,20,23)(H3,19,21,24,25)

>  <IUPAC Name>  (1) 
N-[N'-[3-(1H-imidazol-5-yl)propyl]carbamimidoyl]-3-(1H-indol-3-yl)propanamide

$$$$
