
     RDKit          3D

 26 27  0  0  0  0  0  0  0  0999 V2000
    2.6471   -0.9965    0.2732 C   0  0  0  0  0  0  0  0  0  0  0  0
    1.4558   -0.1377    0.0345 C   0  0  0  0  0  0  0  0  0  0  0  0
    1.4064    1.0689    0.5890 C   0  0  0  0  0  0  0  0  0  0  0  0
    0.1053    1.8067    0.6061 C   0  0  0  0  0  0  0  0  0  0  0  0
   -0.8077    1.1183   -0.3512 C   0  0  0  0  0  0  0  0  0  0  0  0
   -0.0805    0.6801   -1.6091 C   0  0  0  0  0  0  0  0  0  0  0  0
    0.3092   -0.5665   -0.8003 C   0  0  0  0  0  0  0  0  0  0  0  0
   -0.9490   -0.3637   -0.0464 C   0  0  0  0  0  0  0  0  0  0  0  0
   -2.2219   -0.8574   -0.6627 C   0  0  0  0  0  0  0  0  0  0  0  0
   -0.9144   -0.7279    1.4072 C   0  0  0  0  0  0  0  0  0  0  0  0
    3.0466   -0.7437    1.2764 H   0  0  0  0  0  0  0  0  0  0  0  0
    2.3859   -2.0703    0.1525 H   0  0  0  0  0  0  0  0  0  0  0  0
    3.4471   -0.7606   -0.4603 H   0  0  0  0  0  0  0  0  0  0  0  0
    2.2792    1.5213    1.0228 H   0  0  0  0  0  0  0  0  0  0  0  0
   -0.3485    1.6897    1.6263 H   0  0  0  0  0  0  0  0  0  0  0  0
    0.1939    2.8528    0.2995 H   0  0  0  0  0  0  0  0  0  0  0  0
   -1.7295    1.6365   -0.6303 H   0  0  0  0  0  0  0  0  0  0  0  0
   -0.7199    0.4359   -2.4563 H   0  0  0  0  0  0  0  0  0  0  0  0
    0.7987    1.3100   -1.8405 H   0  0  0  0  0  0  0  0  0  0  0  0
    0.4397   -1.4775   -1.3836 H   0  0  0  0  0  0  0  0  0  0  0  0
   -2.4056   -1.9269   -0.4282 H   0  0  0  0  0  0  0  0  0  0  0  0
   -3.0533   -0.3020   -0.1335 H   0  0  0  0  0  0  0  0  0  0  0  0
   -2.3277   -0.6005   -1.7278 H   0  0  0  0  0  0  0  0  0  0  0  0
   -1.8658   -0.3346    1.8666 H   0  0  0  0  0  0  0  0  0  0  0  0
   -0.0273   -0.4085    1.9506 H   0  0  0  0  0  0  0  0  0  0  0  0
   -1.0637   -1.8459    1.4255 H   0  0  0  0  0  0  0  0  0  0  0  0
  1  2  1  0
  2  3  2  0
  3  4  1  0
  4  5  1  0
  5  6  1  0
  6  7  1  0
  7  8  1  0
  8  9  1  0
  8 10  1  0
  7  2  1  0
  8  5  1  0
  1 11  1  0
  1 12  1  0
  1 13  1  0
  3 14  1  0
  4 15  1  0
  4 16  1  0
  5 17  1  0
  6 18  1  0
  6 19  1  0
  7 20  1  0
  9 21  1  0
  9 22  1  0
  9 23  1  0
 10 24  1  0
 10 25  1  0
 10 26  1  0
M  END
>  <Ligand ID>  (1) 
LIG0000232

>  <Ligand>  (1) 
alpha-PINENE

>  <SMILES>  (1) 
CC1=CCC2CC1C2(C)C

>  <CID>  (1) 
6654.0

>  <ChEMBL ID>  (1) 
nan

>  <InChiKey>  (1) 
GRWFGVWFFZKLTI-UHFFFAOYSA-N

>  <InChi>  (1) 
InChI=1S/C10H16/c1-7-4-5-8-6-9(7)10(8,2)3/h4,8-9H,5-6H2,1-3H3

>  <IUPAC Name>  (1) 
2,6,6-trimethylbicyclo[3.1.1]hept-2-ene

$$$$
