
     RDKit          3D

 67 72  0  0  0  0  0  0  0  0999 V2000
   -3.9945    1.6574    5.9513 Cl  0  0  0  0  0  0  0  0  0  0  0  0
   -2.9578    1.1967    4.6037 C   0  0  0  0  0  0  0  0  0  0  0  0
   -2.1002    0.1173    4.8339 C   0  0  0  0  0  0  0  0  0  0  0  0
   -1.2805   -0.2578    3.7896 C   0  0  0  0  0  0  0  0  0  0  0  0
   -1.2739    0.3715    2.5634 C   0  0  0  0  0  0  0  0  0  0  0  0
   -2.1355    1.4391    2.3647 C   0  0  0  0  0  0  0  0  0  0  0  0
   -2.9853    1.8560    3.3923 C   0  0  0  0  0  0  0  0  0  0  0  0
   -0.3792   -0.0966    1.5572 N   0  0  0  0  0  0  0  0  0  0  0  0
    0.9459   -0.1284    1.6510 N   0  0  0  0  0  0  0  0  0  0  0  0
    1.4455   -0.6341    0.4991 C   0  0  0  0  0  0  0  0  0  0  0  0
    0.3905   -0.9189   -0.3211 C   0  0  0  0  0  0  0  0  0  0  0  0
   -0.7808   -0.5708    0.3671 C   0  0  0  0  0  0  0  0  0  0  0  0
   -2.0880   -0.7749   -0.2801 C   0  0  0  0  0  0  0  0  0  0  0  0
   -3.0821   -1.1132    0.5183 C   0  0  0  0  0  0  0  0  0  0  0  0
   -4.4277   -1.3563    0.0283 C   0  0  0  0  0  0  0  0  0  0  0  0
   -5.4801   -0.6487    0.6063 C   0  0  0  0  0  0  0  0  0  0  0  0
   -6.7967   -0.8572    0.2198 C   0  0  0  0  0  0  0  0  0  0  0  0
   -7.0834   -1.7869   -0.7616 C   0  0  0  0  0  0  0  0  0  0  0  0
   -6.0684   -2.4994   -1.3487 C   0  0  0  0  0  0  0  0  0  0  0  0
   -4.7552   -2.2699   -0.9408 C   0  0  0  0  0  0  0  0  0  0  0  0
   -8.7425   -2.0793   -1.2834 Cl  0  0  0  0  0  0  0  0  0  0  0  0
   -2.2051   -0.5404   -1.7335 C   0  0  0  0  0  0  0  0  0  0  0  0
   -0.8691   -0.6661   -2.3193 N   0  0  0  0  0  0  0  0  0  0  0  0
    0.1722   -1.4740   -1.6859 C   0  0  0  0  0  0  0  0  0  0  0  0
   -0.6167    0.0320   -3.5316 C   0  0  0  0  0  0  0  0  0  0  0  0
    0.5228   -0.0727   -4.0418 O   0  0  0  0  0  0  0  0  0  0  0  0
   -1.6092    0.8465   -4.1924 C   0  0  0  0  0  0  0  0  0  0  0  0
   -2.2974    0.6041   -5.3368 N   0  0  0  0  0  0  0  0  0  0  0  0
   -3.1220    1.6436   -5.5817 C   0  0  0  0  0  0  0  0  0  0  0  0
   -2.9522    2.5440   -4.5888 N   0  0  0  0  0  0  0  0  0  0  0  0
   -2.0426    2.0648   -3.7536 N   0  0  0  0  0  0  0  0  0  0  0  0
    2.8406   -0.8671    0.1296 C   0  0  0  0  0  0  0  0  0  0  0  0
    3.1644   -1.3839   -0.9873 O   0  0  0  0  0  0  0  0  0  0  0  0
    3.8899   -0.5037    1.0531 N   0  0  0  0  0  0  0  0  0  0  0  0
    5.2791   -0.7456    0.6827 C   0  0  1  0  0  0  0  0  0  0  0  0
    6.0053    0.5259    0.4318 C   0  0  0  0  0  0  0  0  0  0  0  0
    5.8940    1.5974    1.2911 C   0  0  0  0  0  0  0  0  0  0  0  0
    6.5970    2.7688    1.0133 C   0  0  0  0  0  0  0  0  0  0  0  0
    7.4058    2.9041   -0.0930 C   0  0  0  0  0  0  0  0  0  0  0  0
    7.5191    1.8178   -0.9656 C   0  0  0  0  0  0  0  0  0  0  0  0
    6.8202    0.6381   -0.6987 C   0  0  0  0  0  0  0  0  0  0  0  0
    5.9462   -1.5990    1.7117 C   0  0  0  0  0  0  0  0  0  0  0  0
   -2.0906   -0.3977    5.8000 H   0  0  0  0  0  0  0  0  0  0  0  0
   -0.6141   -1.0787    3.9398 H   0  0  0  0  0  0  0  0  0  0  0  0
   -2.1456    1.9461    1.4094 H   0  0  0  0  0  0  0  0  0  0  0  0
   -3.6694    2.6836    3.2756 H   0  0  0  0  0  0  0  0  0  0  0  0
   -2.9394   -1.2292    1.5890 H   0  0  0  0  0  0  0  0  0  0  0  0
   -5.2758    0.0955    1.3920 H   0  0  0  0  0  0  0  0  0  0  0  0
   -7.5822   -0.2812    0.7036 H   0  0  0  0  0  0  0  0  0  0  0  0
   -6.2706   -3.2417   -2.1304 H   0  0  0  0  0  0  0  0  0  0  0  0
   -4.0096   -2.8836   -1.4228 H   0  0  0  0  0  0  0  0  0  0  0  0
   -2.9483   -1.1070   -2.2743 H   0  0  0  0  0  0  0  0  0  0  0  0
   -2.4682    0.5619   -1.8845 H   0  0  0  0  0  0  0  0  0  0  0  0
   -0.2125   -2.5179   -1.6766 H   0  0  0  0  0  0  0  0  0  0  0  0
    1.0950   -1.4520   -2.2912 H   0  0  0  0  0  0  0  0  0  0  0  0
   -3.7749    1.6786   -6.4426 H   0  0  0  0  0  0  0  0  0  0  0  0
   -1.7451    2.5901   -2.9061 H   0  0  0  0  0  0  0  0  0  0  0  0
    3.6513   -0.0641    1.9921 H   0  0  0  0  0  0  0  0  0  0  0  0
    5.2475   -1.3071   -0.2734 H   0  0  0  0  0  0  0  0  0  0  0  0
    5.2819    1.5499    2.1602 H   0  0  0  0  0  0  0  0  0  0  0  0
    6.5000    3.6048    1.6981 H   0  0  0  0  0  0  0  0  0  0  0  0
    7.9279    3.8218   -0.2710 H   0  0  0  0  0  0  0  0  0  0  0  0
    8.1507    1.9332   -1.8212 H   0  0  0  0  0  0  0  0  0  0  0  0
    6.9275   -0.1843   -1.3915 H   0  0  0  0  0  0  0  0  0  0  0  0
    6.6644   -1.0331    2.3457 H   0  0  0  0  0  0  0  0  0  0  0  0
    6.4117   -2.5002    1.2479 H   0  0  0  0  0  0  0  0  0  0  0  0
    5.1766   -1.9679    2.4186 H   0  0  0  0  0  0  0  0  0  0  0  0
  1  2  1  0
  2  3  2  0
  3  4  1  0
  4  5  2  0
  5  6  1  0
  6  7  2  0
  5  8  1  0
  8  9  1  0
  9 10  2  0
 10 11  1  0
 11 12  2  0
 12 13  1  0
 13 14  2  0
 14 15  1  0
 15 16  2  0
 16 17  1  0
 17 18  2  0
 18 19  1  0
 19 20  2  0
 18 21  1  0
 13 22  1  0
 22 23  1  0
 23 24  1  0
 23 25  1  0
 25 26  2  0
 25 27  1  0
 27 28  2  0
 28 29  1  0
 29 30  2  0
 30 31  1  0
 10 32  1  0
 32 33  2  0
 32 34  1  0
 34 35  1  0
 35 36  1  0
 36 37  2  0
 37 38  1  0
 38 39  2  0
 39 40  1  0
 40 41  2  0
 35 42  1  0
  7  2  1  0
 12  8  1  0
 20 15  1  0
 31 27  1  0
 41 36  1  0
 24 11  1  0
  3 43  1  0
  4 44  1  0
  6 45  1  0
  7 46  1  0
 14 47  1  0
 16 48  1  0
 17 49  1  0
 19 50  1  0
 20 51  1  0
 22 52  1  0
 22 53  1  0
 24 54  1  0
 24 55  1  0
 29 56  1  0
 31 57  1  0
 34 58  1  0
 35 59  1  6
 37 60  1  0
 38 61  1  0
 39 62  1  0
 40 63  1  0
 41 64  1  0
 42 65  1  0
 42 66  1  0
 42 67  1  0
M  END
>  <Ligand ID>  (1) 
LIG0005406

>  <Ligand>  (1) 
CHEMBL3915676

>  <SMILES>  (1) 
Clc1ccc(cc1)n1nc(c2c1/C(=C/c1ccc(cc1)Cl)/CN(C2)C(=O)c1ncn[nH]1)C(=O)N[C@@H](c1ccccc1)C

>  <CID>  (1) 
134142675.0

>  <ChEMBL ID>  (1) 
nan

>  <InChiKey>  (1) 
ODZRGLSWNBPCCB-QTCOBDOFSA-N

>  <InChi>  (1) 
InChI=1S/C31H25Cl2N7O2/c1-19(21-5-3-2-4-6-21)36-30(41)27-26-17-39(31(42)29-34-18-35-37-29)16-22(15-20-7-9-23(32)10-8-20)28(26)40(38-27)25-13-11-24(33)12-14-25/h2-15,18-19H,16-17H2,1H3,(H,36,41)(H,34,35,37)/b22-15+/t19-/m1/s1

>  <IUPAC Name>  (1) 
(7E)-1-(4-chlorophenyl)-7-[(4-chlorophenyl)methylidene]-N-[(1R)-1-phenylethyl]-5-(1H-1,2,4-triazole-5-carbonyl)-4,6-dihydropyrazolo[4,3-c]pyridine-3-carboxamide

$$$$
