
     RDKit          3D

 44 44  0  0  0  0  0  0  0  0999 V2000
    5.0079    1.9714    0.2897 O   0  0  0  0  0  0  0  0  0  0  0  0
    5.6641    1.5594   -0.8499 C   0  0  0  0  0  0  0  0  0  0  0  0
    6.4166    2.3816   -1.4260 O   0  0  0  0  0  0  0  0  0  0  0  0
    5.5471    0.2098   -1.4478 C   0  0  0  0  0  0  0  0  0  0  0  0
    4.6523   -0.6266   -0.7492 O   0  0  0  0  0  0  0  0  0  0  0  0
    3.3098   -0.3896   -0.5688 C   0  0  0  0  0  0  0  0  0  0  0  0
    2.6331    0.7059   -1.0550 C   0  0  0  0  0  0  0  0  0  0  0  0
    1.2876    0.9116   -0.8562 C   0  0  0  0  0  0  0  0  0  0  0  0
    0.6029   -0.0431   -0.1294 C   0  0  0  0  0  0  0  0  0  0  0  0
    1.2243   -1.1627    0.3838 C   0  0  0  0  0  0  0  0  0  0  0  0
    2.5834   -1.3106    0.1478 C   0  0  0  0  0  0  0  0  0  0  0  0
    3.2797   -2.5261    0.6999 C   0  0  0  0  0  0  0  0  0  0  0  0
    3.8269   -3.2480   -0.3545 F   0  0  0  0  0  0  0  0  0  0  0  0
    2.3603   -3.3589    1.3059 F   0  0  0  0  0  0  0  0  0  0  0  0
    4.2271   -2.1938    1.6449 F   0  0  0  0  0  0  0  0  0  0  0  0
   -0.8725    0.1795    0.0902 C   0  0  0  0  0  0  0  0  0  0  0  0
   -1.8805   -0.8711   -0.9422 P   0  0  0  0  0  0  0  0  0  0  0  0
   -1.1162   -2.1499   -1.3144 O   0  0  0  0  0  0  0  0  0  0  0  0
   -3.3294   -1.3846   -0.0044 C   0  0  0  0  0  0  0  0  0  0  0  0
   -4.6050   -0.7153   -0.3488 C   0  0  0  0  0  0  0  0  0  0  0  0
   -4.6559    0.7707   -0.1437 C   0  0  1  0  0  0  0  0  0  0  0  0
   -4.3969    1.1112    1.3032 C   0  0  0  0  0  0  0  0  0  0  0  0
   -5.0741    0.5485    2.2256 O   0  0  0  0  0  0  0  0  0  0  0  0
   -3.4487    2.0167    1.6974 O   0  0  0  0  0  0  0  0  0  0  0  0
   -3.7397    1.5373   -0.9323 N   0  0  0  0  0  0  0  0  0  0  0  0
   -2.3834   -0.1660   -2.3847 O   0  0  0  0  0  0  0  0  0  0  0  0
   -1.1944   -0.0843    1.4321 O   0  0  0  0  0  0  0  0  0  0  0  0
    5.3006    2.8325    0.7342 H   0  0  0  0  0  0  0  0  0  0  0  0
    5.2327    0.2968   -2.5284 H   0  0  0  0  0  0  0  0  0  0  0  0
    6.5740   -0.2238   -1.4611 H   0  0  0  0  0  0  0  0  0  0  0  0
    3.1586    1.4547   -1.6297 H   0  0  0  0  0  0  0  0  0  0  0  0
    0.7658    1.7580   -1.2318 H   0  0  0  0  0  0  0  0  0  0  0  0
    0.6651   -1.8941    0.9487 H   0  0  0  0  0  0  0  0  0  0  0  0
   -1.1252    1.2353   -0.0955 H   0  0  0  0  0  0  0  0  0  0  0  0
   -3.4281   -2.5140   -0.0324 H   0  0  0  0  0  0  0  0  0  0  0  0
   -3.1689   -1.1830    1.1047 H   0  0  0  0  0  0  0  0  0  0  0  0
   -4.9543   -0.9185   -1.3881 H   0  0  0  0  0  0  0  0  0  0  0  0
   -5.3799   -1.1357    0.3612 H   0  0  0  0  0  0  0  0  0  0  0  0
   -5.7077    1.1217   -0.3524 H   0  0  0  0  0  0  0  0  0  0  0  0
   -3.5142    2.5957    2.5232 H   0  0  0  0  0  0  0  0  0  0  0  0
   -3.3235    2.3336   -0.4090 H   0  0  0  0  0  0  0  0  0  0  0  0
   -4.1502    1.8831   -1.8322 H   0  0  0  0  0  0  0  0  0  0  0  0
   -1.7103   -0.2524   -3.1100 H   0  0  0  0  0  0  0  0  0  0  0  0
   -1.1608   -1.0627    1.5833 H   0  0  0  0  0  0  0  0  0  0  0  0
  1  2  1  0
  2  3  2  0
  2  4  1  0
  4  5  1  0
  5  6  1  0
  6  7  2  0
  7  8  1  0
  8  9  2  0
  9 10  1  0
 10 11  2  0
 11 12  1  0
 12 13  1  0
 12 14  1  0
 12 15  1  0
  9 16  1  0
 16 17  1  0
 17 18  2  0
 17 19  1  0
 19 20  1  0
 20 21  1  0
 21 22  1  0
 22 23  2  0
 22 24  1  0
 21 25  1  0
 17 26  1  0
 16 27  1  0
 11  6  1  0
  1 28  1  0
  4 29  1  0
  4 30  1  0
  7 31  1  0
  8 32  1  0
 10 33  1  0
 16 34  1  0
 19 35  1  0
 19 36  1  0
 20 37  1  0
 20 38  1  0
 21 39  1  6
 24 40  1  0
 25 41  1  0
 25 42  1  0
 26 43  1  0
 27 44  1  0
M  END
>  <Ligand ID>  (1) 
LIG0002471

>  <Ligand>  (1) 
CHEMBL3918221

>  <SMILES>  (1) 
OC(=O)COc1ccc(cc1C(F)(F)F)C(P(=O)(CC[C@@H](C(=O)O)N)O)O

>  <CID>  (1) 
71042038.0

>  <ChEMBL ID>  (1) 
nan

>  <InChiKey>  (1) 
UBMMJJHZNWYYJF-LLTODGECSA-N

>  <InChi>  (1) 
InChI=1S/C14H17F3NO8P/c15-14(16,17)8-5-7(1-2-10(8)26-6-11(19)20)13(23)27(24,25)4-3-9(18)12(21)22/h1-2,5,9,13,23H,3-4,6,18H2,(H,19,20)(H,21,22)(H,24,25)/t9-,13?/m0/s1

>  <IUPAC Name>  (1) 
(2S)-2-amino-4-[[[4-(carboxymethoxy)-3-(trifluoromethyl)phenyl]-hydroxymethyl]-hydroxyphosphoryl]butanoic acid

$$$$
