
     RDKit          3D

 24 25  0  0  0  0  0  0  0  0999 V2000
   -3.0206   -0.1055    1.3318 N   0  0  0  0  0  0  0  0  0  0  0  0
   -2.7178   -1.2450    0.4992 C   0  0  0  0  0  0  0  0  0  0  0  0
   -1.3734   -1.0428   -0.1692 C   0  0  1  0  0  0  0  0  0  0  0  0
   -1.3444    0.2269   -1.0656 C   0  0  0  0  0  0  0  0  0  0  0  0
   -0.5900    0.1120    0.2607 C   0  0  2  0  0  0  0  0  0  0  0  0
    0.8738    0.2296    0.1029 C   0  0  0  0  0  0  0  0  0  0  0  0
    1.6850   -0.8670   -0.1203 C   0  0  0  0  0  0  0  0  0  0  0  0
    3.0535   -0.7288   -0.2646 C   0  0  0  0  0  0  0  0  0  0  0  0
    3.6170    0.5325   -0.1832 C   0  0  0  0  0  0  0  0  0  0  0  0
    2.8175    1.6303    0.0389 C   0  0  0  0  0  0  0  0  0  0  0  0
    1.4536    1.5013    0.1836 C   0  0  0  0  0  0  0  0  0  0  0  0
    0.4258    2.9088    0.4686 Cl  0  0  0  0  0  0  0  0  0  0  0  0
    3.5401    3.2303    0.1412 Cl  0  0  0  0  0  0  0  0  0  0  0  0
   -3.8017    0.4812    0.9686 H   0  0  0  0  0  0  0  0  0  0  0  0
   -3.1129   -0.3369    2.3380 H   0  0  0  0  0  0  0  0  0  0  0  0
   -3.5281   -1.3770   -0.2577 H   0  0  0  0  0  0  0  0  0  0  0  0
   -2.6711   -2.1553    1.1360 H   0  0  0  0  0  0  0  0  0  0  0  0
   -0.9146   -1.9579   -0.5767 H   0  0  0  0  0  0  0  0  0  0  0  0
   -2.2092    0.8906   -1.0534 H   0  0  0  0  0  0  0  0  0  0  0  0
   -0.7830    0.1069   -2.0093 H   0  0  0  0  0  0  0  0  0  0  0  0
   -0.9690    0.7482    1.0995 H   0  0  0  0  0  0  0  0  0  0  0  0
    1.2041   -1.8254   -0.1760 H   0  0  0  0  0  0  0  0  0  0  0  0
    3.6715   -1.5973   -0.4385 H   0  0  0  0  0  0  0  0  0  0  0  0
    4.6939    0.6401   -0.2968 H   0  0  0  0  0  0  0  0  0  0  0  0
  1  2  1  0
  2  3  1  0
  3  4  1  0
  4  5  1  0
  5  6  1  0
  6  7  2  0
  7  8  1  0
  8  9  2  0
  9 10  1  0
 10 11  2  0
 11 12  1  0
 10 13  1  0
  5  3  1  0
 11  6  1  0
  1 14  1  0
  1 15  1  0
  2 16  1  0
  2 17  1  0
  3 18  1  6
  4 19  1  0
  4 20  1  0
  5 21  1  1
  7 22  1  0
  8 23  1  0
  9 24  1  0
M  END
>  <Ligand ID>  (1) 
LIG0002352

>  <Ligand>  (1) 
CHEMBL464475

>  <SMILES>  (1) 
NC[C@H]1C[C@@H]1c1cccc(c1Cl)Cl

>  <CID>  (1) 
44572168.0

>  <ChEMBL ID>  (1) 
nan

>  <InChiKey>  (1) 
HGQVAQJYSRDGDC-SVRRBLITSA-N

>  <InChi>  (1) 
InChI=1S/C10H11Cl2N/c11-9-3-1-2-7(10(9)12)8-4-6(8)5-13/h1-3,6,8H,4-5,13H2/t6-,8+/m1/s1

>  <IUPAC Name>  (1) 
[(1S,2S)-2-(2,3-dichlorophenyl)cyclopropyl]methanamine

$$$$
