
     RDKit          3D

 34 35  0  0  0  0  0  0  0  0999 V2000
   -1.0546   -1.5401   -2.0532 O   0  0  0  0  0  0  0  0  0  0  0  0
   -0.3574   -0.8736   -1.0641 C   0  0  2  0  0  0  0  0  0  0  0  0
    0.8611   -1.7033   -0.6125 C   0  0  2  0  0  0  0  0  0  0  0  0
    0.4669   -2.9745   -0.2467 O   0  0  0  0  0  0  0  0  0  0  0  0
    1.1643   -0.9260    0.6519 C   0  0  2  0  0  0  0  0  0  0  0  0
   -0.0227   -0.4005    1.1273 O   0  0  0  0  0  0  0  0  0  0  0  0
   -1.0298   -0.7893    0.2477 C   0  0  1  0  0  0  0  0  0  0  0  0
   -2.2101   -0.0118    0.3182 N   0  0  0  0  0  0  0  0  0  0  0  0
   -2.9417   -0.0620    1.4637 C   0  0  0  0  0  0  0  0  0  0  0  0
   -4.1041    0.6629    1.6173 C   0  0  0  0  0  0  0  0  0  0  0  0
   -4.5562    1.4668    0.5962 C   0  0  0  0  0  0  0  0  0  0  0  0
   -5.9283    2.3060    0.8116 S   0  0  0  0  0  0  0  0  0  0  0  0
   -3.8239    1.5050   -0.5254 N   0  0  0  0  0  0  0  0  0  0  0  0
   -2.6940    0.7874   -0.6481 C   0  0  0  0  0  0  0  0  0  0  0  0
   -2.0652    0.8683   -1.7109 O   0  0  0  0  0  0  0  0  0  0  0  0
    2.0643    0.2738    0.3306 C   0  0  0  0  0  0  0  0  0  0  0  0
    3.2886   -0.1867   -0.1578 O   0  0  0  0  0  0  0  0  0  0  0  0
    4.2864    1.1486   -0.5132 P   0  0  0  0  0  0  0  0  0  0  0  0
    3.4515    2.3121   -0.9935 O   0  0  0  0  0  0  0  0  0  0  0  0
    5.3489    0.7270   -1.7367 O   0  0  0  0  0  0  0  0  0  0  0  0
    5.1458    1.5428    0.8864 O   0  0  0  0  0  0  0  0  0  0  0  0
   -1.2580   -2.4619   -1.8301 H   0  0  0  0  0  0  0  0  0  0  0  0
    0.1041    0.0487   -1.4459 H   0  0  0  0  0  0  0  0  0  0  0  0
    1.6721   -1.6844   -1.3526 H   0  0  0  0  0  0  0  0  0  0  0  0
    0.8085   -3.2412    0.6534 H   0  0  0  0  0  0  0  0  0  0  0  0
    1.6390   -1.5202    1.4359 H   0  0  0  0  0  0  0  0  0  0  0  0
   -1.2965   -1.8281    0.5513 H   0  0  0  0  0  0  0  0  0  0  0  0
   -2.6332   -0.6821    2.3087 H   0  0  0  0  0  0  0  0  0  0  0  0
   -4.6591    0.5899    2.5585 H   0  0  0  0  0  0  0  0  0  0  0  0
   -4.1393    2.0995   -1.3077 H   0  0  0  0  0  0  0  0  0  0  0  0
    2.2170    0.8646    1.2363 H   0  0  0  0  0  0  0  0  0  0  0  0
    1.6340    0.9298   -0.4244 H   0  0  0  0  0  0  0  0  0  0  0  0
    5.9976    1.4390   -1.8863 H   0  0  0  0  0  0  0  0  0  0  0  0
    4.6240    1.3133    1.7142 H   0  0  0  0  0  0  0  0  0  0  0  0
  1  2  1  0
  2  3  1  0
  3  4  1  0
  3  5  1  0
  5  6  1  0
  6  7  1  0
  7  8  1  0
  8  9  1  0
  9 10  2  0
 10 11  1  0
 11 12  2  0
 11 13  1  0
 13 14  1  0
 14 15  2  0
  5 16  1  0
 16 17  1  0
 17 18  1  0
 18 19  2  0
 18 20  1  0
 18 21  1  0
  7  2  1  0
 14  8  1  0
  1 22  1  0
  2 23  1  6
  3 24  1  6
  4 25  1  0
  5 26  1  1
  7 27  1  1
  9 28  1  0
 10 29  1  0
 13 30  1  0
 16 31  1  0
 16 32  1  0
 20 33  1  0
 21 34  1  0
M  END
>  <Ligand ID>  (1) 
LIG0002835

>  <Ligand>  (1) 
CHEMBL1230331

>  <SMILES>  (1) 
O[C@@H]1[C@H](O)[C@H](O[C@H]1n1ccc(=S)[nH]c1=O)COP(=O)(O)O

>  <CID>  (1) 
16655024.0

>  <ChEMBL ID>  (1) 
nan

>  <InChiKey>  (1) 
CKTAUHRBDDXUDJ-XVFCMESISA-N

>  <InChi>  (1) 
InChI=1S/C9H13N2O8PS/c12-6-4(3-18-20(15,16)17)19-8(7(6)13)11-2-1-5(21)10-9(11)14/h1-2,4,6-8,12-13H,3H2,(H,10,14,21)(H2,15,16,17)/t4-,6-,7-,8-/m1/s1

>  <IUPAC Name>  (1) 
[(2R,3S,4R,5R)-3,4-dihydroxy-5-(2-oxo-4-sulfanylidenepyrimidin-1-yl)oxolan-2-yl]methyl dihydrogen phosphate

$$$$
