
     RDKit          3D

 57 62  0  0  0  0  0  0  0  0999 V2000
   -2.3988    3.0465   -4.0578 Cl  0  0  0  0  0  0  0  0  0  0  0  0
   -1.3895    2.6209   -2.6868 C   0  0  0  0  0  0  0  0  0  0  0  0
   -0.6776    3.6423   -2.0857 C   0  0  0  0  0  0  0  0  0  0  0  0
    0.1111    3.3011   -1.0119 C   0  0  0  0  0  0  0  0  0  0  0  0
    0.1648    1.9804   -0.5800 C   0  0  0  0  0  0  0  0  0  0  0  0
   -0.5623    0.9770   -1.2050 C   0  0  0  0  0  0  0  0  0  0  0  0
   -1.3365    1.3285   -2.2633 C   0  0  0  0  0  0  0  0  0  0  0  0
   -0.6483   -0.4298   -0.9222 N   0  0  0  0  0  0  0  0  0  0  0  0
   -1.7638   -1.1781   -1.3989 C   0  0  0  0  0  0  0  0  0  0  0  0
   -2.9783   -1.1629   -0.5584 C   0  0  0  0  0  0  0  0  0  0  0  0
   -3.2144   -2.0540    0.4766 C   0  0  0  0  0  0  0  0  0  0  0  0
   -4.3461   -2.0464    1.2494 C   0  0  0  0  0  0  0  0  0  0  0  0
   -5.3454   -1.1224    1.0339 C   0  0  0  0  0  0  0  0  0  0  0  0
   -5.1466   -0.2200    0.0132 C   0  0  0  0  0  0  0  0  0  0  0  0
   -3.9996   -0.2280   -0.7699 C   0  0  0  0  0  0  0  0  0  0  0  0
   -6.1457    0.7193   -0.2196 C   0  0  0  0  0  0  0  0  0  0  0  0
   -7.2944    0.7172    0.5728 C   0  0  0  0  0  0  0  0  0  0  0  0
   -7.4641   -0.2044    1.5926 C   0  0  0  0  0  0  0  0  0  0  0  0
   -6.4556   -1.1441    1.8191 C   0  0  0  0  0  0  0  0  0  0  0  0
    0.3717   -1.1121   -0.1525 C   0  0  0  0  0  0  0  0  0  0  0  0
    0.1123   -2.3095    0.1292 O   0  0  0  0  0  0  0  0  0  0  0  0
    1.6796   -0.6447    0.3658 C   0  0  0  0  0  0  0  0  0  0  0  0
    1.6202    0.6296    1.0372 N   0  0  0  0  0  0  0  0  0  0  0  0
    1.0636    1.8475    0.5747 C   0  0  0  0  0  0  0  0  0  0  0  0
    1.3500    2.9078    1.1877 O   0  0  0  0  0  0  0  0  0  0  0  0
    2.6120   -0.5856   -0.8345 C   0  0  0  0  0  0  0  0  0  0  0  0
    3.9689   -0.1393   -0.5153 C   0  0  0  0  0  0  0  0  0  0  0  0
    4.4386    1.1432   -0.8111 C   0  0  0  0  0  0  0  0  0  0  0  0
    5.7177    1.2593   -0.4049 N   0  0  0  0  0  0  0  0  0  0  0  0
    6.0586    0.0942    0.1328 C   0  0  0  0  0  0  0  0  0  0  0  0
    5.0091   -0.8106    0.0901 C   0  0  0  0  0  0  0  0  0  0  0  0
    5.1054   -2.0942    0.5840 C   0  0  0  0  0  0  0  0  0  0  0  0
    6.3157   -2.4699    1.1421 C   0  0  0  0  0  0  0  0  0  0  0  0
    7.3945   -1.6101    1.2112 C   0  0  0  0  0  0  0  0  0  0  0  0
    7.2579   -0.3154    0.6992 C   0  0  0  0  0  0  0  0  0  0  0  0
   -0.7379    4.6577   -2.4414 H   0  0  0  0  0  0  0  0  0  0  0  0
    0.7064    4.0506   -0.4798 H   0  0  0  0  0  0  0  0  0  0  0  0
   -1.9085    0.5930   -2.7629 H   0  0  0  0  0  0  0  0  0  0  0  0
   -1.9248   -1.2398   -2.4814 H   0  0  0  0  0  0  0  0  0  0  0  0
   -1.4191   -2.2730   -1.2315 H   0  0  0  0  0  0  0  0  0  0  0  0
   -2.4768   -2.8100    0.7017 H   0  0  0  0  0  0  0  0  0  0  0  0
   -4.4735   -2.7753    2.0514 H   0  0  0  0  0  0  0  0  0  0  0  0
   -3.9559    0.5177   -1.5403 H   0  0  0  0  0  0  0  0  0  0  0  0
   -6.0516    1.4564   -1.0071 H   0  0  0  0  0  0  0  0  0  0  0  0
   -8.0869    1.4556    0.3940 H   0  0  0  0  0  0  0  0  0  0  0  0
   -8.3495   -0.2263    2.2232 H   0  0  0  0  0  0  0  0  0  0  0  0
   -6.5910   -1.8588    2.6129 H   0  0  0  0  0  0  0  0  0  0  0  0
    2.0671   -1.3636    1.0884 H   0  0  0  0  0  0  0  0  0  0  0  0
    2.0379    0.7125    2.0117 H   0  0  0  0  0  0  0  0  0  0  0  0
    2.5887   -1.6279   -1.2660 H   0  0  0  0  0  0  0  0  0  0  0  0
    2.1349    0.0379   -1.6173 H   0  0  0  0  0  0  0  0  0  0  0  0
    3.8630    1.9288   -1.2950 H   0  0  0  0  0  0  0  0  0  0  0  0
    6.2698    2.1474   -0.5304 H   0  0  0  0  0  0  0  0  0  0  0  0
    4.2492   -2.7581    0.5225 H   0  0  0  0  0  0  0  0  0  0  0  0
    6.4459   -3.4582    1.5421 H   0  0  0  0  0  0  0  0  0  0  0  0
    8.3475   -1.8940    1.6460 H   0  0  0  0  0  0  0  0  0  0  0  0
    8.0800    0.3942    0.7320 H   0  0  0  0  0  0  0  0  0  0  0  0
  1  2  1  0
  2  3  2  0
  3  4  1  0
  4  5  2  0
  5  6  1  0
  6  7  2  0
  6  8  1  0
  8  9  1  0
  9 10  1  0
 10 11  2  0
 11 12  1  0
 12 13  2  0
 13 14  1  0
 14 15  2  0
 14 16  1  0
 16 17  2  0
 17 18  1  0
 18 19  2  0
  8 20  1  0
 20 21  2  0
 20 22  1  0
 22 23  1  0
 23 24  1  0
 24 25  2  0
 22 26  1  0
 26 27  1  0
 27 28  2  0
 28 29  1  0
 29 30  1  0
 30 31  2  0
 31 32  1  0
 32 33  2  0
 33 34  1  0
 34 35  2  0
  7  2  1  0
 15 10  1  0
 31 27  1  0
 24  5  1  0
 35 30  1  0
 19 13  1  0
  3 36  1  0
  4 37  1  0
  7 38  1  0
  9 39  1  0
  9 40  1  0
 11 41  1  0
 12 42  1  0
 15 43  1  0
 16 44  1  0
 17 45  1  0
 18 46  1  0
 19 47  1  0
 22 48  1  0
 23 49  1  0
 26 50  1  0
 26 51  1  0
 28 52  1  0
 29 53  1  0
 32 54  1  0
 33 55  1  0
 34 56  1  0
 35 57  1  0
M  END
>  <Ligand ID>  (1) 
LIG0001279

>  <Ligand>  (1) 
CHEMBL272437

>  <SMILES>  (1) 
Clc1ccc2c(c1)N(Cc1ccc3c(c1)cccc3)C(=O)C(NC2=O)Cc1c[nH]c2c1cccc2

>  <CID>  (1) 
44456983.0

>  <ChEMBL ID>  (1) 
nan

>  <InChiKey>  (1) 
KYBZSOAEPBZBSJ-UHFFFAOYSA-N

>  <InChi>  (1) 
InChI=1S/C29H22ClN3O2/c30-22-11-12-24-27(15-22)33(17-18-9-10-19-5-1-2-6-20(19)13-18)29(35)26(32-28(24)34)14-21-16-31-25-8-4-3-7-23(21)25/h1-13,15-16,26,31H,14,17H2,(H,32,34)

>  <IUPAC Name>  (1) 
8-chloro-3-(1H-indol-3-ylmethyl)-1-(naphthalen-2-ylmethyl)-3,4-dihydro-1,4-benzodiazepine-2,5-dione

$$$$
