
     RDKit          3D

117121  0  0  0  0  0  0  0  0999 V2000
    6.4427    1.5057    4.7938 C   0  0  0  0  0  0  0  0  0  0  0  0
    5.8676    1.8506    3.4017 C   0  0  0  0  0  0  0  0  0  0  0  0
    6.3336    0.8232    2.4198 C   0  0  0  0  0  0  0  0  0  0  0  0
    5.9705    0.9919    1.0075 C   0  0  0  0  0  0  0  0  0  0  0  0
    4.5888    1.0755    0.5565 C   0  0  2  0  0  0  0  0  0  0  0  0
    3.7898    2.2045    1.0081 N   0  0  0  0  0  0  0  0  0  0  0  0
    2.7601    2.6319    0.1180 C   0  0  0  0  0  0  0  0  0  0  0  0
    2.6513    2.0285   -0.9428 O   0  0  0  0  0  0  0  0  0  0  0  0
    1.8189    3.7720    0.4350 C   0  0  0  0  0  0  0  0  0  0  0  0
    0.7738    3.6134   -0.5986 C   0  0  0  0  0  0  0  0  0  0  0  0
   -0.4378    4.5311   -0.5359 C   0  0  2  0  0  0  0  0  0  0  0  0
   -1.2552    3.9357   -1.6270 N   0  0  0  0  0  0  0  0  0  0  0  0
   -2.0140    2.8065   -1.2463 C   0  0  0  0  0  0  0  0  0  0  0  0
   -1.9715    2.4898   -0.0461 O   0  0  0  0  0  0  0  0  0  0  0  0
   -2.8431    1.9701   -2.1460 C   0  0  1  0  0  0  0  0  0  0  0  0
   -3.1683    0.8063   -1.2797 N   0  0  0  0  0  0  0  0  0  0  0  0
   -2.1801   -0.2374   -1.1027 C   0  0  0  0  0  0  0  0  0  0  0  0
   -1.1166   -0.0241   -1.7020 O   0  0  0  0  0  0  0  0  0  0  0  0
   -2.4281   -1.4360   -0.2768 C   0  0  1  0  0  0  0  0  0  0  0  0
   -1.2195   -2.2261   -0.1024 N   0  0  0  0  0  0  0  0  0  0  0  0
   -0.9832   -3.4652   -0.7510 C   0  0  0  0  0  0  0  0  0  0  0  0
   -1.9050   -3.8134   -1.5204 O   0  0  0  0  0  0  0  0  0  0  0  0
    0.1775   -4.3363   -0.6129 C   0  0  2  0  0  0  0  0  0  0  0  0
    1.2468   -3.9460    0.2335 N   0  0  0  0  0  0  0  0  0  0  0  0
    2.0706   -2.7696    0.1115 C   0  0  0  0  0  0  0  0  0  0  0  0
    1.7918   -2.0319   -0.8353 O   0  0  0  0  0  0  0  0  0  0  0  0
    3.1574   -2.5367    1.0959 C   0  0  2  0  0  0  0  0  0  0  0  0
    4.0731   -1.4597    0.7288 N   0  0  0  0  0  0  0  0  0  0  0  0
    3.7211   -0.1049    0.9421 C   0  0  0  0  0  0  0  0  0  0  0  0
    2.6106    0.0406    1.4883 O   0  0  0  0  0  0  0  0  0  0  0  0
    5.2792   -2.0023    0.2016 C   0  0  0  0  0  0  0  0  0  0  0  0
    5.0508   -3.4943   -0.0030 C   0  0  0  0  0  0  0  0  0  0  0  0
    4.0118   -3.7871    1.0594 C   0  0  0  0  0  0  0  0  0  0  0  0
    0.5705   -5.1291   -1.8098 C   0  0  0  0  0  0  0  0  0  0  0  0
    0.9406   -4.4432   -3.0306 C   0  0  0  0  0  0  0  0  0  0  0  0
    2.2620   -4.0828   -3.2497 C   0  0  0  0  0  0  0  0  0  0  0  0
    2.6908   -3.4419   -4.3901 C   0  0  0  0  0  0  0  0  0  0  0  0
    1.8079   -3.1204   -5.3917 C   0  0  0  0  0  0  0  0  0  0  0  0
    0.4871   -3.4641   -5.2068 C   0  0  0  0  0  0  0  0  0  0  0  0
    0.0606   -4.1074   -4.0606 C   0  0  0  0  0  0  0  0  0  0  0  0
   -3.0940   -1.1159    1.0225 C   0  0  0  0  0  0  0  0  0  0  0  0
   -3.3021   -2.4347    1.7909 C   0  0  0  0  0  0  0  0  0  0  0  0
   -3.9661   -2.1658    3.1027 C   0  0  0  0  0  0  0  0  0  0  0  0
   -4.1866   -3.3442    3.8575 N   0  0  0  0  0  0  0  0  0  0  0  0
   -3.8907   -4.5516    3.6290 C   0  0  0  0  0  0  0  0  0  0  0  0
   -4.2724   -5.5158    4.6324 N   0  0  0  0  0  0  0  0  0  0  0  0
   -3.2234   -5.0748    2.4975 N   0  0  0  0  0  0  0  0  0  0  0  0
   -4.0316    2.5627   -2.7548 C   0  0  0  0  0  0  0  0  0  0  0  0
   -5.0853    3.0547   -1.8726 C   0  0  0  0  0  0  0  0  0  0  0  0
   -6.2330    2.2996   -1.5773 C   0  0  0  0  0  0  0  0  0  0  0  0
   -7.0114    2.9857   -0.7212 N   0  0  0  0  0  0  0  0  0  0  0  0
   -6.4255    4.1632   -0.4394 C   0  0  0  0  0  0  0  0  0  0  0  0
   -5.2468    4.2048   -1.1450 C   0  0  0  0  0  0  0  0  0  0  0  0
   -4.4675    5.3175   -1.0279 C   0  0  0  0  0  0  0  0  0  0  0  0
   -4.8653    6.3602   -0.2192 C   0  0  0  0  0  0  0  0  0  0  0  0
   -6.0376    6.3217    0.4857 C   0  0  0  0  0  0  0  0  0  0  0  0
   -6.8516    5.1947    0.3810 C   0  0  0  0  0  0  0  0  0  0  0  0
   -0.0200    5.8954   -0.8136 C   0  0  0  0  0  0  0  0  0  0  0  0
    0.6738    6.5077    0.0357 O   0  0  0  0  0  0  0  0  0  0  0  0
   -0.3466    6.6044   -2.0040 N   0  0  0  0  0  0  0  0  0  0  0  0
    7.4737    1.9098    4.8797 H   0  0  0  0  0  0  0  0  0  0  0  0
    5.7678    1.9654    5.5284 H   0  0  0  0  0  0  0  0  0  0  0  0
    6.4545    0.3976    4.8377 H   0  0  0  0  0  0  0  0  0  0  0  0
    5.9769    2.8842    3.1300 H   0  0  0  0  0  0  0  0  0  0  0  0
    4.7535    1.6392    3.5426 H   0  0  0  0  0  0  0  0  0  0  0  0
    7.4703    0.8409    2.4735 H   0  0  0  0  0  0  0  0  0  0  0  0
    6.0545   -0.2161    2.7930 H   0  0  0  0  0  0  0  0  0  0  0  0
    6.5177    0.2932    0.3138 H   0  0  0  0  0  0  0  0  0  0  0  0
    6.4654    1.9829    0.6975 H   0  0  0  0  0  0  0  0  0  0  0  0
    4.5555    1.0032   -0.5742 H   0  0  0  0  0  0  0  0  0  0  0  0
    3.8675    2.7377    1.8558 H   0  0  0  0  0  0  0  0  0  0  0  0
    2.3526    4.7517    0.2595 H   0  0  0  0  0  0  0  0  0  0  0  0
    1.4821    3.7306    1.4695 H   0  0  0  0  0  0  0  0  0  0  0  0
    0.3610    2.5664   -0.4996 H   0  0  0  0  0  0  0  0  0  0  0  0
    1.2471    3.6292   -1.5972 H   0  0  0  0  0  0  0  0  0  0  0  0
   -0.8990    4.3436    0.4574 H   0  0  0  0  0  0  0  0  0  0  0  0
   -1.3079    4.2603   -2.5670 H   0  0  0  0  0  0  0  0  0  0  0  0
   -2.1329    1.6411   -2.9677 H   0  0  0  0  0  0  0  0  0  0  0  0
   -4.0320    0.6706   -0.7905 H   0  0  0  0  0  0  0  0  0  0  0  0
   -3.1130   -2.1102   -0.8769 H   0  0  0  0  0  0  0  0  0  0  0  0
   -0.4928   -1.8960    0.5248 H   0  0  0  0  0  0  0  0  0  0  0  0
   -0.3193   -5.1810    0.0490 H   0  0  0  0  0  0  0  0  0  0  0  0
    1.5124   -4.5285    1.0479 H   0  0  0  0  0  0  0  0  0  0  0  0
    2.6929   -2.3610    2.0806 H   0  0  0  0  0  0  0  0  0  0  0  0
    6.1198   -1.9006    0.9504 H   0  0  0  0  0  0  0  0  0  0  0  0
    5.5939   -1.6207   -0.7682 H   0  0  0  0  0  0  0  0  0  0  0  0
    4.7420   -3.7295   -1.0178 H   0  0  0  0  0  0  0  0  0  0  0  0
    6.0145   -3.9718    0.2243 H   0  0  0  0  0  0  0  0  0  0  0  0
    3.4922   -4.6985    0.7823 H   0  0  0  0  0  0  0  0  0  0  0  0
    4.5492   -3.8820    2.0230 H   0  0  0  0  0  0  0  0  0  0  0  0
    1.4081   -5.8073   -1.4586 H   0  0  0  0  0  0  0  0  0  0  0  0
   -0.2608   -5.8790   -2.0024 H   0  0  0  0  0  0  0  0  0  0  0  0
    2.9686   -4.3239   -2.4856 H   0  0  0  0  0  0  0  0  0  0  0  0
    3.7347   -3.1635   -4.5506 H   0  0  0  0  0  0  0  0  0  0  0  0
    2.0629   -2.6234   -6.3063 H   0  0  0  0  0  0  0  0  0  0  0  0
   -0.2553   -3.2253   -5.9847 H   0  0  0  0  0  0  0  0  0  0  0  0
   -0.9681   -4.3488   -3.9874 H   0  0  0  0  0  0  0  0  0  0  0  0
   -4.0897   -0.7027    0.8269 H   0  0  0  0  0  0  0  0  0  0  0  0
   -2.5460   -0.4085    1.6444 H   0  0  0  0  0  0  0  0  0  0  0  0
   -4.0256   -3.0188    1.1811 H   0  0  0  0  0  0  0  0  0  0  0  0
   -2.3520   -2.9324    1.9744 H   0  0  0  0  0  0  0  0  0  0  0  0
   -4.9515   -1.6640    2.9017 H   0  0  0  0  0  0  0  0  0  0  0  0
   -3.3876   -1.4545    3.7323 H   0  0  0  0  0  0  0  0  0  0  0  0
   -5.2827   -5.8006    4.6575 H   0  0  0  0  0  0  0  0  0  0  0  0
   -3.5509   -5.8886    5.2831 H   0  0  0  0  0  0  0  0  0  0  0  0
   -3.7005   -5.3335    1.5982 H   0  0  0  0  0  0  0  0  0  0  0  0
   -2.1732   -5.2490    2.4818 H   0  0  0  0  0  0  0  0  0  0  0  0
   -3.6590    3.3696   -3.4613 H   0  0  0  0  0  0  0  0  0  0  0  0
   -4.4524    1.8016   -3.4813 H   0  0  0  0  0  0  0  0  0  0  0  0
   -6.4735    1.3040   -1.9739 H   0  0  0  0  0  0  0  0  0  0  0  0
   -7.9399    2.6509   -0.3307 H   0  0  0  0  0  0  0  0  0  0  0  0
   -3.5575    5.3670   -1.5780 H   0  0  0  0  0  0  0  0  0  0  0  0
   -4.2276    7.2373   -0.1401 H   0  0  0  0  0  0  0  0  0  0  0  0
   -6.3532    7.1502    1.1284 H   0  0  0  0  0  0  0  0  0  0  0  0
   -7.7888    5.1449    0.9340 H   0  0  0  0  0  0  0  0  0  0  0  0
    0.2476    6.6056   -2.8558 H   0  0  0  0  0  0  0  0  0  0  0  0
   -1.2476    7.1542   -2.0014 H   0  0  0  0  0  0  0  0  0  0  0  0
  1  2  1  0
  2  3  1  0
  3  4  1  0
  4  5  1  0
  5  6  1  0
  6  7  1  0
  7  8  2  0
  7  9  1  0
  9 10  1  0
 10 11  1  0
 11 12  1  0
 12 13  1  0
 13 14  2  0
 13 15  1  0
 15 16  1  0
 16 17  1  0
 17 18  2  0
 17 19  1  0
 19 20  1  0
 20 21  1  0
 21 22  2  0
 21 23  1  0
 23 24  1  0
 24 25  1  0
 25 26  2  0
 25 27  1  0
 27 28  1  0
 28 29  1  0
 29 30  2  0
 28 31  1  0
 31 32  1  0
 32 33  1  0
 23 34  1  0
 34 35  1  0
 35 36  2  0
 36 37  1  0
 37 38  2  0
 38 39  1  0
 39 40  2  0
 19 41  1  0
 41 42  1  0
 42 43  1  0
 43 44  1  0
 44 45  2  3
 45 46  1  0
 45 47  1  0
 15 48  1  0
 48 49  1  0
 49 50  2  0
 50 51  1  0
 51 52  1  0
 52 53  2  0
 53 54  1  0
 54 55  2  0
 55 56  1  0
 56 57  2  0
 11 58  1  0
 58 59  2  0
 58 60  1  0
 29  5  1  0
 40 35  1  0
 53 49  1  0
 33 27  1  0
 57 52  1  0
  1 61  1  0
  1 62  1  0
  1 63  1  0
  2 64  1  0
  2 65  1  0
  3 66  1  0
  3 67  1  0
  4 68  1  0
  4 69  1  0
  5 70  1  6
  6 71  1  0
  9 72  1  0
  9 73  1  0
 10 74  1  0
 10 75  1  0
 11 76  1  1
 12 77  1  0
 15 78  1  6
 16 79  1  0
 19 80  1  6
 20 81  1  0
 23 82  1  1
 24 83  1  0
 27 84  1  1
 31 85  1  0
 31 86  1  0
 32 87  1  0
 32 88  1  0
 33 89  1  0
 33 90  1  0
 34 91  1  0
 34 92  1  0
 36 93  1  0
 37 94  1  0
 38 95  1  0
 39 96  1  0
 40 97  1  0
 41 98  1  0
 41 99  1  0
 42100  1  0
 42101  1  0
 43102  1  0
 43103  1  0
 46104  1  0
 46105  1  0
 47106  1  0
 47107  1  0
 48108  1  0
 48109  1  0
 50110  1  0
 51111  1  0
 54112  1  0
 55113  1  0
 56114  1  0
 57115  1  0
 60116  1  0
 60117  1  0
M  END
>  <Ligand ID>  (1) 
LIG0001847

>  <Ligand>  (1) 
CHEMBL381739

>  <SMILES>  (1) 
CCCC[C@@H]1NC(=O)CC[C@H](NC(=O)[C@@H](NC(=O)[C@@H](NC(=O)[C@H](NC(=O)[C@@H]2N(C1=O)CCC2)Cc1ccccc1)CCCN=C(N)N)Cc1c[nH]c2c1cccc2)C(=O)N

>  <CID>  (1) 
44408408.0

>  <ChEMBL ID>  (1) 
nan

>  <InChiKey>  (1) 
AKNCBPIMUGVGES-IPLXUGDNSA-N

>  <InChi>  (1) 
InChI=1S/C42H57N11O7/c1-2-3-14-31-41(60)53-21-10-17-34(53)40(59)52-32(22-25-11-5-4-6-12-25)38(57)50-30(16-9-20-46-42(44)45)37(56)51-33(23-26-24-47-28-15-8-7-13-27(26)28)39(58)49-29(36(43)55)18-19-35(54)48-31/h4-8,11-13,15,24,29-34,47H,2-3,9-10,14,16-23H2,1H3,(H2,43,55)(H,48,54)(H,49,58)(H,50,57)(H,51,56)(H,52,59)(H4,44,45,46)/t29-,30-,31-,32+,33-,34+/m0/s1

>  <IUPAC Name>  (1) 
(3S,8S,11S,14S,17R,20R)-17-benzyl-3-butyl-14-[3-(diaminomethylideneamino)propyl]-11-(1H-indol-3-ylmethyl)-2,5,10,13,16,19-hexaoxo-1,4,9,12,15,18-hexazabicyclo[18.3.0]tricosane-8-carboxamide

$$$$
