
     RDKit          3D

 59 62  0  0  0  0  0  0  0  0999 V2000
   -8.5574    2.6824    0.1139 C   0  0  0  0  0  0  0  0  0  0  0  0
   -7.7468    1.6629    0.6571 O   0  0  0  0  0  0  0  0  0  0  0  0
   -6.5351    1.3796    0.0419 C   0  0  0  0  0  0  0  0  0  0  0  0
   -6.0868    2.0519   -1.0811 C   0  0  0  0  0  0  0  0  0  0  0  0
   -4.8785    1.7238   -1.6420 C   0  0  0  0  0  0  0  0  0  0  0  0
   -4.0749    0.7142   -1.1031 C   0  0  0  0  0  0  0  0  0  0  0  0
   -4.5145    0.0422    0.0126 C   0  0  0  0  0  0  0  0  0  0  0  0
   -5.7310    0.3779    0.5712 C   0  0  0  0  0  0  0  0  0  0  0  0
   -6.1377   -0.3799    1.7645 C   0  0  0  0  0  0  0  0  0  0  0  0
   -5.4516   -1.2835    2.2680 O   0  0  0  0  0  0  0  0  0  0  0  0
   -7.3612   -0.0965    2.3984 O   0  0  0  0  0  0  0  0  0  0  0  0
   -2.8899    0.4392   -1.7062 O   0  0  0  0  0  0  0  0  0  0  0  0
   -1.9505   -0.5098   -1.3340 C   0  0  0  0  0  0  0  0  0  0  0  0
   -1.9667   -1.8133   -1.8243 C   0  0  0  0  0  0  0  0  0  0  0  0
   -1.0161   -2.7492   -1.4388 C   0  0  0  0  0  0  0  0  0  0  0  0
   -0.0591   -2.3383   -0.5543 C   0  0  0  0  0  0  0  0  0  0  0  0
   -0.0377   -1.0258   -0.0566 C   0  0  0  0  0  0  0  0  0  0  0  0
   -0.9787   -0.0949   -0.4368 C   0  0  0  0  0  0  0  0  0  0  0  0
    1.0662   -0.7357    0.8964 C   0  0  0  0  0  0  0  0  0  0  0  0
    2.3639   -1.0860    0.1707 C   0  0  2  0  0  0  0  0  0  0  0  0
    2.2971   -2.4688   -0.4520 C   0  0  0  0  0  0  0  0  0  0  0  0
    1.0345   -3.2135   -0.0402 C   0  0  0  0  0  0  0  0  0  0  0  0
    3.4819   -1.1032    1.0726 N   0  0  0  0  0  0  0  0  0  0  0  0
    3.7291    0.0962    1.7910 C   0  0  0  0  0  0  0  0  0  0  0  0
    4.2023    1.2569    0.9871 C   0  0  1  0  0  0  0  0  0  0  0  0
    5.5132    1.0090    0.3309 C   0  0  0  0  0  0  0  0  0  0  0  0
    6.6702    1.4598    0.8919 C   0  0  0  0  0  0  0  0  0  0  0  0
    7.8904    1.2346    0.2857 C   0  0  0  0  0  0  0  0  0  0  0  0
    8.0002    0.5482   -0.9073 C   0  0  0  0  0  0  0  0  0  0  0  0
    6.8303    0.0839   -1.4892 C   0  0  0  0  0  0  0  0  0  0  0  0
    5.6052    0.3125   -0.8766 C   0  0  0  0  0  0  0  0  0  0  0  0
    9.5745    0.2736   -1.6574 Cl  0  0  0  0  0  0  0  0  0  0  0  0
    3.3306    1.6772   -0.0108 O   0  0  0  0  0  0  0  0  0  0  0  0
   -9.0272    2.3410   -0.8251 H   0  0  0  0  0  0  0  0  0  0  0  0
   -9.2928    2.9604    0.9028 H   0  0  0  0  0  0  0  0  0  0  0  0
   -7.9770    3.6121   -0.1278 H   0  0  0  0  0  0  0  0  0  0  0  0
   -6.6996    2.8443   -1.5189 H   0  0  0  0  0  0  0  0  0  0  0  0
   -4.5675    2.2835   -2.5268 H   0  0  0  0  0  0  0  0  0  0  0  0
   -3.8787   -0.7313    0.4093 H   0  0  0  0  0  0  0  0  0  0  0  0
   -7.4275   -0.0662    3.4093 H   0  0  0  0  0  0  0  0  0  0  0  0
   -2.7459   -2.0968   -2.5260 H   0  0  0  0  0  0  0  0  0  0  0  0
   -1.0042   -3.7650   -1.8025 H   0  0  0  0  0  0  0  0  0  0  0  0
   -0.9305    0.9055   -0.0338 H   0  0  0  0  0  0  0  0  0  0  0  0
    1.0083    0.3203    1.1494 H   0  0  0  0  0  0  0  0  0  0  0  0
    0.9547   -1.3222    1.8421 H   0  0  0  0  0  0  0  0  0  0  0  0
    2.4363   -0.3429   -0.6466 H   0  0  0  0  0  0  0  0  0  0  0  0
    3.2055   -3.0677   -0.2463 H   0  0  0  0  0  0  0  0  0  0  0  0
    2.2180   -2.3556   -1.5536 H   0  0  0  0  0  0  0  0  0  0  0  0
    1.0664   -4.1989   -0.5139 H   0  0  0  0  0  0  0  0  0  0  0  0
    1.0443   -3.2460    1.0678 H   0  0  0  0  0  0  0  0  0  0  0  0
    3.4049   -1.9192    1.6895 H   0  0  0  0  0  0  0  0  0  0  0  0
    2.8665    0.3677    2.4598 H   0  0  0  0  0  0  0  0  0  0  0  0
    4.5515   -0.1381    2.5292 H   0  0  0  0  0  0  0  0  0  0  0  0
    4.3489    2.1108    1.7114 H   0  0  0  0  0  0  0  0  0  0  0  0
    6.5926    2.0011    1.8324 H   0  0  0  0  0  0  0  0  0  0  0  0
    8.8095    1.5949    0.7350 H   0  0  0  0  0  0  0  0  0  0  0  0
    6.8640   -0.4626   -2.4307 H   0  0  0  0  0  0  0  0  0  0  0  0
    4.7255   -0.0639   -1.3599 H   0  0  0  0  0  0  0  0  0  0  0  0
    3.8383    2.3072   -0.5851 H   0  0  0  0  0  0  0  0  0  0  0  0
  1  2  1  0
  2  3  1  0
  3  4  2  0
  4  5  1  0
  5  6  2  0
  6  7  1  0
  7  8  2  0
  8  9  1  0
  9 10  2  0
  9 11  1  0
  6 12  1  0
 12 13  1  0
 13 14  2  0
 14 15  1  0
 15 16  2  0
 16 17  1  0
 17 18  2  0
 17 19  1  0
 19 20  1  0
 20 21  1  0
 21 22  1  0
 20 23  1  0
 23 24  1  0
 24 25  1  0
 25 26  1  0
 26 27  2  0
 27 28  1  0
 28 29  2  0
 29 30  1  0
 30 31  2  0
 29 32  1  0
 25 33  1  0
  8  3  1  0
 18 13  1  0
 31 26  1  0
 22 16  1  0
  1 34  1  0
  1 35  1  0
  1 36  1  0
  4 37  1  0
  5 38  1  0
  7 39  1  0
 11 40  1  0
 14 41  1  0
 15 42  1  0
 18 43  1  0
 19 44  1  0
 19 45  1  0
 20 46  1  6
 21 47  1  0
 21 48  1  0
 22 49  1  0
 22 50  1  0
 23 51  1  0
 24 52  1  0
 24 53  1  0
 25 54  1  1
 27 55  1  0
 28 56  1  0
 30 57  1  0
 31 58  1  0
 33 59  1  0
M  END
>  <Ligand ID>  (1) 
LIG0004739

>  <Ligand>  (1) 
CHEMBL456795

>  <SMILES>  (1) 
COc1ccc(cc1C(=O)O)Oc1ccc2c(c1)C[C@H](CC2)NC[C@@H](c1ccc(cc1)Cl)O

>  <CID>  (1) 
24949570.0

>  <ChEMBL ID>  (1) 
nan

>  <InChiKey>  (1) 
QGMDIZKABCYUIG-RDPSFJRHSA-N

>  <InChi>  (1) 
InChI=1S/C26H26ClNO5/c1-32-25-11-10-22(14-23(25)26(30)31)33-21-9-5-16-4-8-20(12-18(16)13-21)28-15-24(29)17-2-6-19(27)7-3-17/h2-3,5-7,9-11,13-14,20,24,28-29H,4,8,12,15H2,1H3,(H,30,31)/t20-,24-/m0/s1

>  <IUPAC Name>  (1) 
5-[[(7S)-7-[[(2R)-2-(4-chlorophenyl)-2-hydroxyethyl]amino]-5,6,7,8-tetrahydronaphthalen-2-yl]oxy]-2-methoxybenzoic acid

$$$$
