
     RDKit          3D

197204  0  0  0  0  0  0  0  0999 V2000
  -11.4631    4.6868   -1.8996 N   0  0  0  0  0  0  0  0  0  0  0  0
  -10.1443    4.8205   -1.3045 C   0  0  0  0  0  0  0  0  0  0  0  0
   -9.8255    5.9162   -0.8546 N   0  0  0  0  0  0  0  0  0  0  0  0
   -9.2553    3.7203   -1.2513 N   0  0  0  0  0  0  0  0  0  0  0  0
   -8.6027    3.2134   -0.0840 C   0  0  0  0  0  0  0  0  0  0  0  0
   -7.5773    4.0957    0.5450 C   0  0  0  0  0  0  0  0  0  0  0  0
   -6.8977    3.5251    1.7383 C   0  0  0  0  0  0  0  0  0  0  0  0
   -6.1083    2.2721    1.5417 C   0  0  2  0  0  0  0  0  0  0  0  0
   -5.0426    2.4546    0.5578 N   0  0  0  0  0  0  0  0  0  0  0  0
   -3.7213    2.8971    0.9468 C   0  0  0  0  0  0  0  0  0  0  0  0
   -3.6333    3.1451    2.1650 O   0  0  0  0  0  0  0  0  0  0  0  0
   -2.6081    3.0446   -0.0123 C   0  0  2  0  0  0  0  0  0  0  0  0
   -2.2018    1.6490   -0.4933 C   0  0  0  0  0  0  0  0  0  0  0  0
   -1.4644    3.6936    0.6178 N   0  0  0  0  0  0  0  0  0  0  0  0
   -0.7171    4.6531   -0.1415 C   0  0  0  0  0  0  0  0  0  0  0  0
   -1.0846    4.8110   -1.3033 O   0  0  0  0  0  0  0  0  0  0  0  0
    0.4476    5.3966    0.4787 C   0  0  2  0  0  0  0  0  0  0  0  0
   -0.1682    6.3684    1.4659 C   0  0  0  0  0  0  0  0  0  0  0  0
    0.7994    7.2253    2.1518 C   0  0  0  0  0  0  0  0  0  0  0  0
    1.4618    6.9548    3.3090 C   0  0  0  0  0  0  0  0  0  0  0  0
    2.3604    7.8466    3.9059 C   0  0  0  0  0  0  0  0  0  0  0  0
    2.5977    9.0668    3.3041 C   0  0  0  0  0  0  0  0  0  0  0  0
    1.9407    9.3774    2.1248 C   0  0  0  0  0  0  0  0  0  0  0  0
    1.0595    8.4711    1.5620 C   0  0  0  0  0  0  0  0  0  0  0  0
    3.4773   10.0064    3.8438 O   0  0  0  0  0  0  0  0  0  0  0  0
    1.2385    6.0930   -0.5053 N   0  0  0  0  0  0  0  0  0  0  0  0
    2.5434    5.5415   -0.8347 C   0  0  0  0  0  0  0  0  0  0  0  0
    2.8185    4.5067   -0.2253 O   0  0  0  0  0  0  0  0  0  0  0  0
    3.4547    6.1583   -1.8115 C   0  0  2  0  0  0  0  0  0  0  0  0
    2.9431    5.8725   -3.2200 C   0  0  0  0  0  0  0  0  0  0  0  0
    4.1822    5.8321   -4.0661 C   0  0  0  0  0  0  0  0  0  0  0  0
    5.2760    5.3418   -3.1410 C   0  0  0  0  0  0  0  0  0  0  0  0
    4.7713    5.5713   -1.8231 N   0  0  0  0  0  0  0  0  0  0  0  0
    5.5107    5.2957   -0.5957 C   0  0  0  0  0  0  0  0  0  0  0  0
    4.9298    5.7093    0.4121 O   0  0  0  0  0  0  0  0  0  0  0  0
    6.8115    4.6027   -0.5986 C   0  0  1  0  0  0  0  0  0  0  0  0
    7.9348    5.4079    0.0092 C   0  0  0  0  0  0  0  0  0  0  0  0
    7.7156    5.1873    1.4860 C   0  0  0  0  0  0  0  0  0  0  0  0
    7.0203    3.8415    1.6169 C   0  0  0  0  0  0  0  0  0  0  0  0
    6.8347    3.4171    0.2824 N   0  0  0  0  0  0  0  0  0  0  0  0
    6.6162    2.1233   -0.2749 C   0  0  0  0  0  0  0  0  0  0  0  0
    6.2893    2.1315   -1.4764 O   0  0  0  0  0  0  0  0  0  0  0  0
    6.7240    0.8385    0.4150 C   0  0  2  0  0  0  0  0  0  0  0  0
    8.1959    0.3625    0.3297 C   0  0  0  0  0  0  0  0  0  0  0  0
    9.1625    1.2504    0.9435 C   0  0  0  0  0  0  0  0  0  0  0  0
    9.7888    2.3159    0.3049 C   0  0  0  0  0  0  0  0  0  0  0  0
   10.7078    3.1098    0.9791 C   0  0  0  0  0  0  0  0  0  0  0  0
   11.0367    2.8794    2.3004 C   0  0  0  0  0  0  0  0  0  0  0  0
   10.4202    1.8207    2.9474 C   0  0  0  0  0  0  0  0  0  0  0  0
    9.5104    1.0410    2.2634 C   0  0  0  0  0  0  0  0  0  0  0  0
   11.9431    3.6408    3.0146 O   0  0  0  0  0  0  0  0  0  0  0  0
    6.0214   -0.1381   -0.4339 N   0  0  0  0  0  0  0  0  0  0  0  0
    5.4669   -1.3526    0.1491 C   0  0  0  0  0  0  0  0  0  0  0  0
    5.7533   -1.4757    1.3551 O   0  0  0  0  0  0  0  0  0  0  0  0
    4.6695   -2.3037   -0.6440 C   0  0  1  0  0  0  0  0  0  0  0  0
    4.4782   -3.5171    0.1394 N   0  0  0  0  0  0  0  0  0  0  0  0
    3.7416   -4.6431   -0.3690 C   0  0  0  0  0  0  0  0  0  0  0  0
    3.1816   -4.4426   -1.4525 O   0  0  0  0  0  0  0  0  0  0  0  0
    3.6247   -5.9380    0.3121 C   0  0  1  0  0  0  0  0  0  0  0  0
    2.4294   -6.6588   -0.1487 N   0  0  0  0  0  0  0  0  0  0  0  0
    1.9310   -7.8071    0.5692 C   0  0  0  0  0  0  0  0  0  0  0  0
    2.6582   -8.2013    1.4782 O   0  0  0  0  0  0  0  0  0  0  0  0
    0.6216   -8.4480    0.1878 C   0  0  1  0  0  0  0  0  0  0  0  0
   -0.1697   -7.4722   -0.5807 N   0  0  0  0  0  0  0  0  0  0  0  0
   -1.3861   -6.9930   -0.0096 C   0  0  0  0  0  0  0  0  0  0  0  0
   -1.7137   -7.5216    1.0675 O   0  0  0  0  0  0  0  0  0  0  0  0
   -2.2451   -5.9559   -0.5906 C   0  0  1  0  0  0  0  0  0  0  0  0
   -3.3439   -5.5974    0.2712 N   0  0  0  0  0  0  0  0  0  0  0  0
   -4.5249   -4.9006   -0.1526 C   0  0  0  0  0  0  0  0  0  0  0  0
   -4.5512   -4.5928   -1.3451 O   0  0  0  0  0  0  0  0  0  0  0  0
   -5.6171   -4.5888    0.8387 C   0  0  1  0  0  0  0  0  0  0  0  0
   -6.5438   -3.6499    0.2461 N   0  0  0  0  0  0  0  0  0  0  0  0
   -6.3166   -2.2533    0.5011 C   0  0  0  0  0  0  0  0  0  0  0  0
   -5.2912   -2.0027    1.1521 O   0  0  0  0  0  0  0  0  0  0  0  0
   -7.1693   -1.1434    0.0588 C   0  0  1  0  0  0  0  0  0  0  0  0
   -6.4681    0.1058    0.3533 N   0  0  0  0  0  0  0  0  0  0  0  0
   -6.8751    1.0355    1.3540 C   0  0  0  0  0  0  0  0  0  0  0  0
   -7.8798    0.6855    1.9990 O   0  0  0  0  0  0  0  0  0  0  0  0
   -7.6656   -1.1882   -1.3382 C   0  0  0  0  0  0  0  0  0  0  0  0
   -6.6525   -1.2137   -2.3950 C   0  0  0  0  0  0  0  0  0  0  0  0
   -6.1676   -2.3570   -2.9920 C   0  0  0  0  0  0  0  0  0  0  0  0
   -5.1973   -2.3123   -3.9876 C   0  0  0  0  0  0  0  0  0  0  0  0
   -4.7167   -1.0724   -4.3741 C   0  0  0  0  0  0  0  0  0  0  0  0
   -5.1715    0.1008   -3.8019 C   0  0  0  0  0  0  0  0  0  0  0  0
   -6.1391    0.0194   -2.8134 C   0  0  0  0  0  0  0  0  0  0  0  0
   -6.3650   -5.8288    1.2086 C   0  0  0  0  0  0  0  0  0  0  0  0
   -7.4285   -5.5372    2.1789 C   0  0  0  0  0  0  0  0  0  0  0  0
   -8.7301   -5.2012    1.8163 C   0  0  0  0  0  0  0  0  0  0  0  0
   -9.7062   -4.9403    2.7417 C   0  0  0  0  0  0  0  0  0  0  0  0
   -9.4412   -4.9992    4.0833 C   0  0  0  0  0  0  0  0  0  0  0  0
   -8.1664   -5.3285    4.4755 C   0  0  0  0  0  0  0  0  0  0  0  0
   -7.1668   -5.5954    3.5589 C   0  0  0  0  0  0  0  0  0  0  0  0
   -1.3484   -4.7020   -0.6736 C   0  0  0  0  0  0  0  0  0  0  0  0
   -0.8432   -4.2505    0.6083 C   0  0  0  0  0  0  0  0  0  0  0  0
   -0.1404   -3.1729    0.5929 O   0  0  0  0  0  0  0  0  0  0  0  0
   -1.0097   -4.8232    1.8812 N   0  0  0  0  0  0  0  0  0  0  0  0
    0.9352   -9.6578   -0.6630 C   0  0  0  0  0  0  0  0  0  0  0  0
    4.8559   -6.8168   -0.0342 C   0  0  0  0  0  0  0  0  0  0  0  0
    4.9381   -7.0662   -1.4860 C   0  0  0  0  0  0  0  0  0  0  0  0
    5.6121   -6.2532   -2.3650 C   0  0  0  0  0  0  0  0  0  0  0  0
    5.6622   -6.5582   -3.7198 C   0  0  0  0  0  0  0  0  0  0  0  0
    5.0319   -7.6915   -4.2007 C   0  0  0  0  0  0  0  0  0  0  0  0
    4.3455   -8.5273   -3.3304 C   0  0  0  0  0  0  0  0  0  0  0  0
    4.3060   -8.2023   -1.9712 C   0  0  0  0  0  0  0  0  0  0  0  0
    3.2429   -1.6798   -0.8242 C   0  0  0  0  0  0  0  0  0  0  0  0
  -12.2450    4.9010   -1.2585 H   0  0  0  0  0  0  0  0  0  0  0  0
  -11.5630    4.4000   -2.8949 H   0  0  0  0  0  0  0  0  0  0  0  0
   -9.1359    6.4479   -0.4117 H   0  0  0  0  0  0  0  0  0  0  0  0
   -9.0856    3.2480   -2.1955 H   0  0  0  0  0  0  0  0  0  0  0  0
   -8.0688    2.2616   -0.3953 H   0  0  0  0  0  0  0  0  0  0  0  0
   -9.3582    2.8569    0.6404 H   0  0  0  0  0  0  0  0  0  0  0  0
   -6.8617    4.5237   -0.1855 H   0  0  0  0  0  0  0  0  0  0  0  0
   -8.1474    4.9904    0.9453 H   0  0  0  0  0  0  0  0  0  0  0  0
   -6.2896    4.3017    2.2906 H   0  0  0  0  0  0  0  0  0  0  0  0
   -7.7149    3.2848    2.4856 H   0  0  0  0  0  0  0  0  0  0  0  0
   -5.5811    2.1495    2.5659 H   0  0  0  0  0  0  0  0  0  0  0  0
   -5.1372    2.2898   -0.4437 H   0  0  0  0  0  0  0  0  0  0  0  0
   -2.9185    3.5833   -0.9261 H   0  0  0  0  0  0  0  0  0  0  0  0
   -1.5564    1.2300    0.3173 H   0  0  0  0  0  0  0  0  0  0  0  0
   -3.0832    1.0261   -0.7167 H   0  0  0  0  0  0  0  0  0  0  0  0
   -1.6199    1.7909   -1.4219 H   0  0  0  0  0  0  0  0  0  0  0  0
   -1.1263    3.5345    1.5622 H   0  0  0  0  0  0  0  0  0  0  0  0
    1.0571    4.6703    1.0480 H   0  0  0  0  0  0  0  0  0  0  0  0
   -0.9881    6.9193    0.9509 H   0  0  0  0  0  0  0  0  0  0  0  0
   -0.7397    5.7682    2.2487 H   0  0  0  0  0  0  0  0  0  0  0  0
    1.2690    5.9830    3.7766 H   0  0  0  0  0  0  0  0  0  0  0  0
    2.8702    7.5935    4.8252 H   0  0  0  0  0  0  0  0  0  0  0  0
    2.1367   10.3525    1.6669 H   0  0  0  0  0  0  0  0  0  0  0  0
    0.5440    8.7320    0.6203 H   0  0  0  0  0  0  0  0  0  0  0  0
    3.3165   11.0096    3.8339 H   0  0  0  0  0  0  0  0  0  0  0  0
    1.0081    6.9401   -1.0134 H   0  0  0  0  0  0  0  0  0  0  0  0
    3.5349    7.2351   -1.7184 H   0  0  0  0  0  0  0  0  0  0  0  0
    2.4033    4.8947   -3.2365 H   0  0  0  0  0  0  0  0  0  0  0  0
    2.3187    6.7200   -3.5405 H   0  0  0  0  0  0  0  0  0  0  0  0
    4.4545    6.7802   -4.5470 H   0  0  0  0  0  0  0  0  0  0  0  0
    4.0792    5.0710   -4.8710 H   0  0  0  0  0  0  0  0  0  0  0  0
    5.5459    4.2762   -3.3100 H   0  0  0  0  0  0  0  0  0  0  0  0
    6.2260    5.9327   -3.2966 H   0  0  0  0  0  0  0  0  0  0  0  0
    7.1024    4.2866   -1.6353 H   0  0  0  0  0  0  0  0  0  0  0  0
    7.8192    6.4880   -0.2687 H   0  0  0  0  0  0  0  0  0  0  0  0
    8.9153    5.0107   -0.3522 H   0  0  0  0  0  0  0  0  0  0  0  0
    7.1384    6.0197    1.9484 H   0  0  0  0  0  0  0  0  0  0  0  0
    8.7084    5.1723    1.9866 H   0  0  0  0  0  0  0  0  0  0  0  0
    6.0502    3.9723    2.1769 H   0  0  0  0  0  0  0  0  0  0  0  0
    7.6367    3.2104    2.2555 H   0  0  0  0  0  0  0  0  0  0  0  0
    6.4038    0.8605    1.4410 H   0  0  0  0  0  0  0  0  0  0  0  0
    8.2959   -0.6909    0.6993 H   0  0  0  0  0  0  0  0  0  0  0  0
    8.4392    0.2982   -0.7653 H   0  0  0  0  0  0  0  0  0  0  0  0
    9.5375    2.5161   -0.7171 H   0  0  0  0  0  0  0  0  0  0  0  0
   11.2075    3.9405    0.4986 H   0  0  0  0  0  0  0  0  0  0  0  0
   10.6615    1.6170    3.9869 H   0  0  0  0  0  0  0  0  0  0  0  0
    9.0555    0.2238    2.8003 H   0  0  0  0  0  0  0  0  0  0  0  0
   11.7373    3.8181    4.0144 H   0  0  0  0  0  0  0  0  0  0  0  0
    5.8752   -0.0604   -1.4305 H   0  0  0  0  0  0  0  0  0  0  0  0
    4.9594   -2.4981   -1.6731 H   0  0  0  0  0  0  0  0  0  0  0  0
    4.8351   -3.6513    1.0864 H   0  0  0  0  0  0  0  0  0  0  0  0
    3.6371   -5.8942    1.4008 H   0  0  0  0  0  0  0  0  0  0  0  0
    1.9000   -6.4165   -0.9785 H   0  0  0  0  0  0  0  0  0  0  0  0
    0.0737   -8.7617    1.0680 H   0  0  0  0  0  0  0  0  0  0  0  0
    0.0701   -7.1143   -1.4929 H   0  0  0  0  0  0  0  0  0  0  0  0
   -2.6171   -6.1545   -1.6243 H   0  0  0  0  0  0  0  0  0  0  0  0
   -3.3231   -5.8462    1.2561 H   0  0  0  0  0  0  0  0  0  0  0  0
   -5.0446   -4.1211    1.6812 H   0  0  0  0  0  0  0  0  0  0  0  0
   -7.3406   -3.8567   -0.3431 H   0  0  0  0  0  0  0  0  0  0  0  0
   -8.0874   -1.1962    0.7373 H   0  0  0  0  0  0  0  0  0  0  0  0
   -5.6377    0.3347   -0.1724 H   0  0  0  0  0  0  0  0  0  0  0  0
   -8.3935   -0.3435   -1.4712 H   0  0  0  0  0  0  0  0  0  0  0  0
   -8.2920   -2.1125   -1.4387 H   0  0  0  0  0  0  0  0  0  0  0  0
   -6.5758   -3.3068   -2.6563 H   0  0  0  0  0  0  0  0  0  0  0  0
   -4.8228   -3.2432   -4.4522 H   0  0  0  0  0  0  0  0  0  0  0  0
   -3.9461   -0.9778   -5.1546 H   0  0  0  0  0  0  0  0  0  0  0  0
   -4.8189    1.0829   -4.0738 H   0  0  0  0  0  0  0  0  0  0  0  0
   -6.4955    0.9435   -2.3610 H   0  0  0  0  0  0  0  0  0  0  0  0
   -6.8551   -6.1851    0.2552 H   0  0  0  0  0  0  0  0  0  0  0  0
   -5.6884   -6.6603    1.5047 H   0  0  0  0  0  0  0  0  0  0  0  0
   -9.0045   -5.1455    0.7740 H   0  0  0  0  0  0  0  0  0  0  0  0
  -10.7206   -4.6778    2.3983 H   0  0  0  0  0  0  0  0  0  0  0  0
  -10.1616   -4.8079    4.8610 H   0  0  0  0  0  0  0  0  0  0  0  0
   -7.9250   -5.3880    5.5294 H   0  0  0  0  0  0  0  0  0  0  0  0
   -6.1839   -5.8460    3.9031 H   0  0  0  0  0  0  0  0  0  0  0  0
   -1.9236   -3.8811   -1.1523 H   0  0  0  0  0  0  0  0  0  0  0  0
   -0.4736   -4.9497   -1.3529 H   0  0  0  0  0  0  0  0  0  0  0  0
   -0.3305   -5.5426    2.2594 H   0  0  0  0  0  0  0  0  0  0  0  0
   -1.7867   -4.5882    2.5431 H   0  0  0  0  0  0  0  0  0  0  0  0
    1.7229  -10.2817   -0.1782 H   0  0  0  0  0  0  0  0  0  0  0  0
    1.3364   -9.3342   -1.6694 H   0  0  0  0  0  0  0  0  0  0  0  0
    0.0455  -10.3319   -0.7867 H   0  0  0  0  0  0  0  0  0  0  0  0
    4.7459   -7.7113    0.5724 H   0  0  0  0  0  0  0  0  0  0  0  0
    5.7640   -6.2751    0.3171 H   0  0  0  0  0  0  0  0  0  0  0  0
    6.1090   -5.3627   -2.0139 H   0  0  0  0  0  0  0  0  0  0  0  0
    6.1813   -5.9239   -4.4184 H   0  0  0  0  0  0  0  0  0  0  0  0
    5.0327   -7.9901   -5.2399 H   0  0  0  0  0  0  0  0  0  0  0  0
    3.8374   -9.4312   -3.7074 H   0  0  0  0  0  0  0  0  0  0  0  0
    3.7532   -8.8875   -1.3534 H   0  0  0  0  0  0  0  0  0  0  0  0
    3.4214   -0.6187   -1.0590 H   0  0  0  0  0  0  0  0  0  0  0  0
    2.7702   -1.8230    0.1694 H   0  0  0  0  0  0  0  0  0  0  0  0
    2.7615   -2.1819   -1.6544 H   0  0  0  0  0  0  0  0  0  0  0  0
  1  2  1  0
  2  3  2  3
  2  4  1  0
  4  5  1  0
  5  6  1  0
  6  7  1  0
  7  8  1  0
  8  9  1  0
  9 10  1  0
 10 11  2  0
 10 12  1  0
 12 13  1  0
 12 14  1  0
 14 15  1  0
 15 16  2  0
 15 17  1  0
 17 18  1  0
 18 19  1  0
 19 20  2  0
 20 21  1  0
 21 22  2  0
 22 23  1  0
 23 24  2  0
 22 25  1  0
 17 26  1  0
 26 27  1  0
 27 28  2  0
 27 29  1  0
 29 30  1  0
 30 31  1  0
 31 32  1  0
 32 33  1  0
 33 34  1  0
 34 35  2  0
 34 36  1  0
 36 37  1  0
 37 38  1  0
 38 39  1  0
 39 40  1  0
 40 41  1  0
 41 42  2  0
 41 43  1  0
 43 44  1  0
 44 45  1  0
 45 46  2  0
 46 47  1  0
 47 48  2  0
 48 49  1  0
 49 50  2  0
 48 51  1  0
 43 52  1  0
 52 53  1  0
 53 54  2  0
 53 55  1  0
 55 56  1  0
 56 57  1  0
 57 58  2  0
 57 59  1  0
 59 60  1  0
 60 61  1  0
 61 62  2  0
 61 63  1  0
 63 64  1  0
 64 65  1  0
 65 66  2  0
 65 67  1  0
 67 68  1  0
 68 69  1  0
 69 70  2  0
 69 71  1  0
 71 72  1  0
 72 73  1  0
 73 74  2  0
 73 75  1  0
 75 76  1  0
 76 77  1  0
 77 78  2  0
 75 79  1  0
 79 80  1  0
 80 81  2  0
 81 82  1  0
 82 83  2  0
 83 84  1  0
 84 85  2  0
 71 86  1  0
 86 87  1  0
 87 88  2  0
 88 89  1  0
 89 90  2  0
 90 91  1  0
 91 92  2  0
 67 93  1  0
 93 94  1  0
 94 95  2  0
 94 96  1  0
 63 97  1  0
 59 98  1  0
 98 99  1  0
 99100  2  0
100101  1  0
101102  2  0
102103  1  0
103104  2  0
 55105  1  0
 77  8  1  0
 85 80  1  0
 92 87  1  0
104 99  1  0
 24 19  1  0
 33 29  1  0
 40 36  1  0
 50 45  1  0
  1106  1  0
  1107  1  0
  3108  1  0
  4109  1  0
  5110  1  0
  5111  1  0
  6112  1  0
  6113  1  0
  7114  1  0
  7115  1  0
  8116  1  1
  9117  1  0
 12118  1  6
 13119  1  0
 13120  1  0
 13121  1  0
 14122  1  0
 17123  1  1
 18124  1  0
 18125  1  0
 20126  1  0
 21127  1  0
 23128  1  0
 24129  1  0
 25130  1  0
 26131  1  0
 29132  1  1
 30133  1  0
 30134  1  0
 31135  1  0
 31136  1  0
 32137  1  0
 32138  1  0
 36139  1  6
 37140  1  0
 37141  1  0
 38142  1  0
 38143  1  0
 39144  1  0
 39145  1  0
 43146  1  1
 44147  1  0
 44148  1  0
 46149  1  0
 47150  1  0
 49151  1  0
 50152  1  0
 51153  1  0
 52154  1  0
 55155  1  6
 56156  1  0
 59157  1  1
 60158  1  0
 63159  1  1
 64160  1  0
 67161  1  6
 68162  1  0
 71163  1  1
 72164  1  0
 75165  1  1
 76166  1  0
 79167  1  0
 79168  1  0
 81169  1  0
 82170  1  0
 83171  1  0
 84172  1  0
 85173  1  0
 86174  1  0
 86175  1  0
 88176  1  0
 89177  1  0
 90178  1  0
 91179  1  0
 92180  1  0
 93181  1  0
 93182  1  0
 96183  1  0
 96184  1  0
 97185  1  0
 97186  1  0
 97187  1  0
 98188  1  0
 98189  1  0
100190  1  0
101191  1  0
102192  1  0
103193  1  0
104194  1  0
105195  1  0
105196  1  0
105197  1  0
M  END
>  <Ligand ID>  (1) 
LIG0005495

>  <Ligand>  (1) 
CHEMBL3577979

>  <SMILES>  (1) 
NC(=N)NCCC[C@@H]1NC(=O)[C@H](C)NC(=O)[C@H](Cc2ccc(cc2)O)NC(=O)[C@@H]2CCCN2C(=O)[C@H]2CCCN2C(=O)[C@H](Cc2ccc(cc2)O)NC(=O)[C@@H](NC(=O)[C@@H](NC(=O)[C@@H](NC(=O)[C@@H](NC(=O)[C@@H](NC(=O)[C@@H](NC1=O)Cc1ccccc1)Cc1ccccc1)CC(=O)N)C)Cc1ccccc1)C

>  <CID>  (1) 
122178149.0

>  <ChEMBL ID>  (1) 
nan

>  <InChiKey>  (1) 
XYIDQVLTFQUKGG-NKWBYMEMSA-N

>  <InChi>  (1) 
InChI=1S/C74H92N16O15/c1-42-62(94)82-52(22-13-33-78-74(76)77)65(97)84-55(37-46-18-9-5-10-19-46)69(101)85-56(38-47-20-11-6-12-21-47)70(102)86-57(41-61(75)93)68(100)81-43(2)63(95)83-53(36-45-16-7-4-8-17-45)66(98)80-44(3)64(96)88-58(40-49-27-31-51(92)32-28-49)72(104)90-35-15-24-60(90)73(105)89-34-14-23-59(89)71(103)87-54(67(99)79-42)39-48-25-29-50(91)30-26-48/h4-12,16-21,25-32,42-44,52-60,91-92H,13-15,22-24,33-41H2,1-3H3,(H2,75,93)(H,79,99)(H,80,98)(H,81,100)(H,82,94)(H,83,95)(H,84,97)(H,85,101)(H,86,102)(H,87,103)(H,88,96)(H4,76,77,78)/t42-,43-,44-,52-,53-,54-,55-,56-,57-,58-,59-,60+/m0/s1

>  <IUPAC Name>  (1) 
2-[(3R,9S,12S,15S,18S,21S,24S,27S,30S,33S,36S,39S)-15,24,27-tribenzyl-30-(3-carbamimidamidopropyl)-9,36-bis[(4-hydroxyphenyl)methyl]-12,18,33-trimethyl-2,8,11,14,17,20,23,26,29,32,35,38-dodecaoxo-1,7,10,13,16,19,22,25,28,31,34,37-dodecazatricyclo[37.3.0.03,7]dotetracontan-21-yl]acetamide

$$$$
