
     RDKit          3D

 84 86  0  0  0  0  0  0  0  0999 V2000
  -11.6001    4.1190    2.5221 C   0  0  0  0  0  0  0  0  0  0  0  0
  -10.7996    4.0524    1.3564 O   0  0  0  0  0  0  0  0  0  0  0  0
   -9.6495    3.2681    1.3903 C   0  0  0  0  0  0  0  0  0  0  0  0
   -8.8189    3.1652    0.2666 C   0  0  0  0  0  0  0  0  0  0  0  0
   -7.6663    2.3726    0.3166 C   0  0  0  0  0  0  0  0  0  0  0  0
   -7.3093    1.6760    1.4488 C   0  0  0  0  0  0  0  0  0  0  0  0
   -8.1425    1.7854    2.5610 C   0  0  0  0  0  0  0  0  0  0  0  0
   -9.2790    2.5652    2.5159 C   0  0  0  0  0  0  0  0  0  0  0  0
   -6.1272    0.8432    1.5536 C   0  0  0  0  0  0  0  0  0  0  0  0
   -5.2672    0.6769    0.5635 C   0  0  0  0  0  0  0  0  0  0  0  0
   -4.1008   -0.1761    0.7388 C   0  0  0  0  0  0  0  0  0  0  0  0
   -3.9317   -0.7486    1.8443 O   0  0  0  0  0  0  0  0  0  0  0  0
   -3.1614   -0.3588   -0.3304 N   0  0  0  0  0  0  0  0  0  0  0  0
   -2.0402   -1.2119   -0.0856 C   0  0  2  0  0  0  0  0  0  0  0  0
   -0.7203   -0.5261   -0.1592 C   0  0  0  0  0  0  0  0  0  0  0  0
   -0.7386    0.6673   -0.5310 O   0  0  0  0  0  0  0  0  0  0  0  0
    0.4234   -1.2668    0.1952 N   0  0  0  0  0  0  0  0  0  0  0  0
    1.7752   -0.8939    0.2519 C   0  0  1  0  0  0  0  0  0  0  0  0
    2.5956   -1.6305   -0.7001 C   0  0  0  0  0  0  0  0  0  0  0  0
    2.0758   -2.4685   -1.4782 O   0  0  0  0  0  0  0  0  0  0  0  0
    4.0085   -1.4511   -0.8054 N   0  0  0  0  0  0  0  0  0  0  0  0
    4.8343   -2.1724   -1.7429 C   0  0  1  0  0  0  0  0  0  0  0  0
    5.4762   -1.2764   -2.6981 C   0  0  0  0  0  0  0  0  0  0  0  0
    5.1203   -0.0426   -2.7222 O   0  0  0  0  0  0  0  0  0  0  0  0
    6.4835   -1.6991   -3.6124 N   0  0  0  0  0  0  0  0  0  0  0  0
    5.7302   -3.1828   -1.1469 C   0  0  0  0  0  0  0  0  0  0  0  0
    6.6957   -2.7473   -0.1388 C   0  0  0  0  0  0  0  0  0  0  0  0
    7.7548   -1.7743   -0.4291 C   0  0  0  0  0  0  0  0  0  0  0  0
    7.3057   -0.4845   -0.7837 N   0  0  0  0  0  0  0  0  0  0  0  0
    8.0654    0.4731   -1.2121 C   0  0  0  0  0  0  0  0  0  0  0  0
    7.5594    1.7607   -1.5575 N   0  0  0  0  0  0  0  0  0  0  0  0
    9.4605    0.1518   -1.3181 N   0  0  0  0  0  0  0  0  0  0  0  0
    2.1522    0.5450    0.4683 C   0  0  0  0  0  0  0  0  0  0  0  0
    1.7522    1.1249    1.7544 C   0  0  0  0  0  0  0  0  0  0  0  0
    2.6049    0.8204    2.8381 C   0  0  0  0  0  0  0  0  0  0  0  0
    2.3846    1.3132    4.0968 C   0  0  0  0  0  0  0  0  0  0  0  0
    1.3172    2.1336    4.3712 C   0  0  0  0  0  0  0  0  0  0  0  0
    0.4750    2.4431    3.3303 C   0  0  0  0  0  0  0  0  0  0  0  0
    0.7061    1.9354    2.0425 C   0  0  0  0  0  0  0  0  0  0  0  0
   -2.0747   -2.3012   -1.1306 C   0  0  0  0  0  0  0  0  0  0  0  0
   -2.0080   -1.6606   -2.4652 C   0  0  0  0  0  0  0  0  0  0  0  0
   -3.1097   -1.2783   -3.1693 N   0  0  0  0  0  0  0  0  0  0  0  0
   -2.7540   -0.7248   -4.3368 C   0  0  0  0  0  0  0  0  0  0  0  0
   -1.4039   -0.7607   -4.3660 N   0  0  0  0  0  0  0  0  0  0  0  0
   -0.9409   -1.3206   -3.2475 C   0  0  0  0  0  0  0  0  0  0  0  0
  -11.1465    4.7128    3.3268 H   0  0  0  0  0  0  0  0  0  0  0  0
  -11.7828    3.0882    2.9433 H   0  0  0  0  0  0  0  0  0  0  0  0
  -12.6213    4.4983    2.3026 H   0  0  0  0  0  0  0  0  0  0  0  0
   -9.1075    3.7122   -0.6113 H   0  0  0  0  0  0  0  0  0  0  0  0
   -7.0631    2.3240   -0.5646 H   0  0  0  0  0  0  0  0  0  0  0  0
   -7.8725    1.2460    3.4515 H   0  0  0  0  0  0  0  0  0  0  0  0
   -9.8718    2.5964    3.4232 H   0  0  0  0  0  0  0  0  0  0  0  0
   -5.9091    0.3203    2.4719 H   0  0  0  0  0  0  0  0  0  0  0  0
   -5.4130    1.1685   -0.3881 H   0  0  0  0  0  0  0  0  0  0  0  0
   -3.3541    0.1435   -1.2192 H   0  0  0  0  0  0  0  0  0  0  0  0
   -2.1268   -1.6280    0.9513 H   0  0  0  0  0  0  0  0  0  0  0  0
    0.2125   -2.2971    0.4660 H   0  0  0  0  0  0  0  0  0  0  0  0
    2.0915   -1.3142    1.3278 H   0  0  0  0  0  0  0  0  0  0  0  0
    4.5018   -0.7663   -0.1779 H   0  0  0  0  0  0  0  0  0  0  0  0
    4.0482   -2.8147   -2.3872 H   0  0  0  0  0  0  0  0  0  0  0  0
    7.0537   -2.5572   -3.4671 H   0  0  0  0  0  0  0  0  0  0  0  0
    6.6954   -1.1505   -4.4852 H   0  0  0  0  0  0  0  0  0  0  0  0
    6.2529   -3.7802   -1.9894 H   0  0  0  0  0  0  0  0  0  0  0  0
    5.0841   -4.0396   -0.7101 H   0  0  0  0  0  0  0  0  0  0  0  0
    6.1086   -2.3643    0.7793 H   0  0  0  0  0  0  0  0  0  0  0  0
    7.1738   -3.7062    0.2864 H   0  0  0  0  0  0  0  0  0  0  0  0
    8.5164   -2.1643   -1.1650 H   0  0  0  0  0  0  0  0  0  0  0  0
    8.3911   -1.6370    0.5068 H   0  0  0  0  0  0  0  0  0  0  0  0
    7.3404    2.0494   -2.5342 H   0  0  0  0  0  0  0  0  0  0  0  0
    7.4180    2.4216   -0.7466 H   0  0  0  0  0  0  0  0  0  0  0  0
    9.9194   -0.1417   -0.4235 H   0  0  0  0  0  0  0  0  0  0  0  0
    9.9765    0.2101   -2.2328 H   0  0  0  0  0  0  0  0  0  0  0  0
    1.5592    1.1222   -0.3104 H   0  0  0  0  0  0  0  0  0  0  0  0
    3.2039    0.7467    0.2004 H   0  0  0  0  0  0  0  0  0  0  0  0
    3.4679    0.1812    2.7033 H   0  0  0  0  0  0  0  0  0  0  0  0
    3.0776    1.0492    4.9116 H   0  0  0  0  0  0  0  0  0  0  0  0
    1.1354    2.5242    5.3515 H   0  0  0  0  0  0  0  0  0  0  0  0
   -0.3696    3.0840    3.5180 H   0  0  0  0  0  0  0  0  0  0  0  0
    0.0053    2.2565    1.3015 H   0  0  0  0  0  0  0  0  0  0  0  0
   -3.0564   -2.8099   -1.0459 H   0  0  0  0  0  0  0  0  0  0  0  0
   -1.2656   -3.0477   -0.9863 H   0  0  0  0  0  0  0  0  0  0  0  0
   -4.1256   -1.3828   -2.8787 H   0  0  0  0  0  0  0  0  0  0  0  0
   -3.3458   -0.3150   -5.1370 H   0  0  0  0  0  0  0  0  0  0  0  0
    0.0847   -1.4690   -3.0217 H   0  0  0  0  0  0  0  0  0  0  0  0
  1  2  1  0
  2  3  1  0
  3  4  2  0
  4  5  1  0
  5  6  2  0
  6  7  1  0
  7  8  2  0
  6  9  1  0
  9 10  2  0
 10 11  1  0
 11 12  2  0
 11 13  1  0
 13 14  1  0
 14 15  1  0
 15 16  2  0
 15 17  1  0
 17 18  1  0
 18 19  1  0
 19 20  2  0
 19 21  1  0
 21 22  1  0
 22 23  1  0
 23 24  2  0
 23 25  1  0
 22 26  1  0
 26 27  1  0
 27 28  1  0
 28 29  1  0
 29 30  2  3
 30 31  1  0
 30 32  1  0
 18 33  1  0
 33 34  1  0
 34 35  2  0
 35 36  1  0
 36 37  2  0
 37 38  1  0
 38 39  2  0
 14 40  1  0
 40 41  1  0
 41 42  1  0
 42 43  1  0
 43 44  2  0
 44 45  1  0
  8  3  1  0
 39 34  1  0
 45 41  2  0
  1 46  1  0
  1 47  1  0
  1 48  1  0
  4 49  1  0
  5 50  1  0
  7 51  1  0
  8 52  1  0
  9 53  1  0
 10 54  1  0
 13 55  1  0
 14 56  1  1
 17 57  1  0
 18 58  1  1
 21 59  1  0
 22 60  1  6
 25 61  1  0
 25 62  1  0
 26 63  1  0
 26 64  1  0
 27 65  1  0
 27 66  1  0
 28 67  1  0
 28 68  1  0
 31 69  1  0
 31 70  1  0
 32 71  1  0
 32 72  1  0
 33 73  1  0
 33 74  1  0
 35 75  1  0
 36 76  1  0
 37 77  1  0
 38 78  1  0
 39 79  1  0
 40 80  1  0
 40 81  1  0
 42 82  1  0
 43 83  1  0
 45 84  1  0
M  END
>  <Ligand ID>  (1) 
LIG0004795

>  <Ligand>  (1) 
CHEMBL567233

>  <SMILES>  (1) 
COc1ccc(cc1)/C=C/C(=O)N[C@H](C(=O)N[C@@H](C(=O)N[C@@H](C(=O)N)CCCN=C(N)N)Cc1ccccc1)Cc1[nH]cnc1

>  <CID>  (1) 
45487417.0

>  <ChEMBL ID>  (1) 
nan

>  <InChiKey>  (1) 
JYNLYZMGADFMLF-DFQJRSOHSA-N

>  <InChi>  (1) 
InChI=1S/C31H39N9O5/c1-45-23-12-9-20(10-13-23)11-14-27(41)38-26(17-22-18-35-19-37-22)30(44)40-25(16-21-6-3-2-4-7-21)29(43)39-24(28(32)42)8-5-15-36-31(33)34/h2-4,6-7,9-14,18-19,24-26H,5,8,15-17H2,1H3,(H2,32,42)(H,35,37)(H,38,41)(H,39,43)(H,40,44)(H4,33,34,36)/b14-11+/t24-,25-,26+/m1/s1

>  <IUPAC Name>  (1) 
(2R)-5-(diaminomethylideneamino)-2-[[(2R)-2-[[(2S)-3-(1H-imidazol-5-yl)-2-[[(E)-3-(4-methoxyphenyl)prop-2-enoyl]amino]propanoyl]amino]-3-phenylpropanoyl]amino]pentanamide

$$$$
