
     RDKit          3D

 49 52  0  0  0  0  0  0  0  0999 V2000
    7.1376   -2.5706    1.1455 C   0  0  0  0  0  0  0  0  0  0  0  0
    5.9756   -1.7238    0.7582 C   0  0  0  0  0  0  0  0  0  0  0  0
    6.2007   -0.3665    0.5540 C   0  0  0  0  0  0  0  0  0  0  0  0
    5.1047    0.3917    0.1962 C   0  0  0  0  0  0  0  0  0  0  0  0
    3.8405   -0.1187    0.0376 C   0  0  0  0  0  0  0  0  0  0  0  0
    3.6539   -1.4507    0.2448 N   0  0  0  0  0  0  0  0  0  0  0  0
    4.7044   -2.2371    0.5988 C   0  0  0  0  0  0  0  0  0  0  0  0
    2.7496    0.7693   -0.3430 C   0  0  0  0  0  0  0  0  0  0  0  0
    2.9688    2.0144   -0.5277 O   0  0  0  0  0  0  0  0  0  0  0  0
    1.4257    0.3237   -0.5255 N   0  0  0  0  0  0  0  0  0  0  0  0
    0.3616    1.1922   -0.8972 C   0  0  0  0  0  0  0  0  0  0  0  0
    0.5616    2.5171   -1.1000 N   0  0  0  0  0  0  0  0  0  0  0  0
   -0.6360    3.0367   -1.4344 C   0  0  0  0  0  0  0  0  0  0  0  0
   -1.5526    1.9873   -1.4252 C   0  0  0  0  0  0  0  0  0  0  0  0
   -0.9065    0.8589   -1.0893 N   0  0  0  0  0  0  0  0  0  0  0  0
   -1.4919   -0.4632   -0.9640 C   0  0  0  0  0  0  0  0  0  0  0  0
   -1.9512   -0.6233    0.4583 C   0  0  0  0  0  0  0  0  0  0  0  0
   -2.5544   -1.8958    0.7227 N   0  0  0  0  0  0  0  0  0  0  0  0
   -2.9484   -1.9150    2.1218 C   0  0  0  0  0  0  0  0  0  0  0  0
   -4.2429   -1.1003    2.1325 C   0  0  0  0  0  0  0  0  0  0  0  0
   -4.7886   -1.1694    0.7148 C   0  0  0  0  0  0  0  0  0  0  0  0
   -3.8043   -2.1121    0.0590 C   0  0  0  0  0  0  0  0  0  0  0  0
   -2.8776    2.2103   -1.7306 C   0  0  0  0  0  0  0  0  0  0  0  0
   -3.2974    3.4856   -2.0481 C   0  0  0  0  0  0  0  0  0  0  0  0
   -2.4061    4.5506   -2.0653 C   0  0  0  0  0  0  0  0  0  0  0  0
   -1.0701    4.3175   -1.7558 C   0  0  0  0  0  0  0  0  0  0  0  0
    7.5028   -2.2277    2.1366 H   0  0  0  0  0  0  0  0  0  0  0  0
    6.8223   -3.6402    1.1631 H   0  0  0  0  0  0  0  0  0  0  0  0
    7.9646   -2.4605    0.3912 H   0  0  0  0  0  0  0  0  0  0  0  0
    7.1955    0.0755    0.6714 H   0  0  0  0  0  0  0  0  0  0  0  0
    5.2571    1.4460    0.0331 H   0  0  0  0  0  0  0  0  0  0  0  0
    4.5454   -3.2911    0.7605 H   0  0  0  0  0  0  0  0  0  0  0  0
    1.2267   -0.7095   -0.3757 H   0  0  0  0  0  0  0  0  0  0  0  0
   -2.3371   -0.5040   -1.6927 H   0  0  0  0  0  0  0  0  0  0  0  0
   -0.7697   -1.2585   -1.2139 H   0  0  0  0  0  0  0  0  0  0  0  0
   -2.6111    0.2263    0.7420 H   0  0  0  0  0  0  0  0  0  0  0  0
   -1.0535   -0.5355    1.0970 H   0  0  0  0  0  0  0  0  0  0  0  0
   -2.2255   -1.3991    2.7663 H   0  0  0  0  0  0  0  0  0  0  0  0
   -3.1052   -2.9413    2.5033 H   0  0  0  0  0  0  0  0  0  0  0  0
   -4.9799   -1.5020    2.8325 H   0  0  0  0  0  0  0  0  0  0  0  0
   -4.0421   -0.0235    2.3242 H   0  0  0  0  0  0  0  0  0  0  0  0
   -4.8370   -0.1911    0.2190 H   0  0  0  0  0  0  0  0  0  0  0  0
   -5.7784   -1.6400    0.6462 H   0  0  0  0  0  0  0  0  0  0  0  0
   -3.7596   -2.0216   -1.0305 H   0  0  0  0  0  0  0  0  0  0  0  0
   -4.1196   -3.1556    0.3027 H   0  0  0  0  0  0  0  0  0  0  0  0
   -3.6272    1.4295   -1.7372 H   0  0  0  0  0  0  0  0  0  0  0  0
   -4.3270    3.7202   -2.2967 H   0  0  0  0  0  0  0  0  0  0  0  0
   -2.7190    5.5583   -2.3125 H   0  0  0  0  0  0  0  0  0  0  0  0
   -0.3790    5.1369   -1.7680 H   0  0  0  0  0  0  0  0  0  0  0  0
  1  2  1  0
  2  3  2  0
  3  4  1  0
  4  5  2  0
  5  6  1  0
  6  7  2  0
  5  8  1  0
  8  9  2  0
  8 10  1  0
 10 11  1  0
 11 12  2  0
 12 13  1  0
 13 14  2  0
 14 15  1  0
 15 16  1  0
 16 17  1  0
 17 18  1  0
 18 19  1  0
 19 20  1  0
 20 21  1  0
 21 22  1  0
 14 23  1  0
 23 24  2  0
 24 25  1  0
 25 26  2  0
  7  2  1  0
 15 11  1  0
 22 18  1  0
 26 13  1  0
  1 27  1  0
  1 28  1  0
  1 29  1  0
  3 30  1  0
  4 31  1  0
  7 32  1  0
 10 33  1  0
 16 34  1  0
 16 35  1  0
 17 36  1  0
 17 37  1  0
 19 38  1  0
 19 39  1  0
 20 40  1  0
 20 41  1  0
 21 42  1  0
 21 43  1  0
 22 44  1  0
 22 45  1  0
 23 46  1  0
 24 47  1  0
 25 48  1  0
 26 49  1  0
M  END
>  <Ligand ID>  (1) 
LIG0003905

>  <Ligand>  (1) 
CHEMBL3393993

>  <SMILES>  (1) 
Cc1ccc(nc1)C(=O)Nc1nc2c(n1CCN1CCCC1)cccc2

>  <CID>  (1) 
118725843.0

>  <ChEMBL ID>  (1) 
nan

>  <InChiKey>  (1) 
XCTOSBRBVBUSSI-UHFFFAOYSA-N

>  <InChi>  (1) 
InChI=1S/C20H23N5O/c1-15-8-9-17(21-14-15)19(26)23-20-22-16-6-2-3-7-18(16)25(20)13-12-24-10-4-5-11-24/h2-3,6-9,14H,4-5,10-13H2,1H3,(H,22,23,26)

>  <IUPAC Name>  (1) 
5-methyl-N-[1-(2-pyrrolidin-1-ylethyl)benzimidazol-2-yl]pyridine-2-carboxamide

$$$$
