
     RDKit          3D

 76 80  0  0  0  0  0  0  0  0999 V2000
   -2.4509    1.7480    2.8418 O   0  0  0  0  0  0  0  0  0  0  0  0
   -2.2650    1.4635    1.5217 C   0  0  2  0  0  0  0  0  0  0  0  0
   -2.7685    0.1414    1.0210 C   0  0  0  0  0  0  0  0  0  0  0  0
   -4.0955   -0.1323    1.1192 O   0  0  0  0  0  0  0  0  0  0  0  0
   -4.9986   -0.3148    2.0839 C   0  0  0  0  0  0  0  0  0  0  0  0
   -4.8192   -0.3015    3.4461 C   0  0  0  0  0  0  0  0  0  0  0  0
   -5.8432   -0.5087    4.3580 C   0  0  0  0  0  0  0  0  0  0  0  0
   -7.1248   -0.7453    3.9247 C   0  0  0  0  0  0  0  0  0  0  0  0
   -7.3406   -0.7666    2.5671 C   0  0  0  0  0  0  0  0  0  0  0  0
   -6.3268   -0.5611    1.6692 C   0  0  0  0  0  0  0  0  0  0  0  0
   -6.9021   -0.6514    0.3062 C   0  0  0  0  0  0  0  0  0  0  0  0
   -6.7207    0.5745   -0.5245 C   0  0  0  0  0  0  0  0  0  0  0  0
   -7.0461    0.0698   -1.9173 C   0  0  0  0  0  0  0  0  0  0  0  0
   -6.8481   -1.4373   -1.8900 C   0  0  0  0  0  0  0  0  0  0  0  0
   -6.2145   -1.7065   -0.5299 C   0  0  0  0  0  0  0  0  0  0  0  0
   -8.3269   -0.9232    0.4926 C   0  0  0  0  0  0  0  0  0  0  0  0
   -9.1994   -1.0750   -0.3851 O   0  0  0  0  0  0  0  0  0  0  0  0
   -8.5823   -0.9922    1.8877 N   0  0  0  0  0  0  0  0  0  0  0  0
   -0.7868    1.6616    1.1112 C   0  0  0  0  0  0  0  0  0  0  0  0
   -0.7020    1.3447   -0.2617 N   0  0  0  0  0  0  0  0  0  0  0  0
    0.5649    1.4441   -0.8984 C   0  0  0  0  0  0  0  0  0  0  0  0
    1.5316    0.5392   -0.2555 C   0  0  0  0  0  0  0  0  0  0  0  0
    2.8925    0.5064   -0.7783 C   0  0  0  0  0  0  0  0  0  0  0  0
    3.3328   -0.3415   -1.7849 C   0  0  0  0  0  0  0  0  0  0  0  0
    4.6622   -0.2887   -2.2108 C   0  0  0  0  0  0  0  0  0  0  0  0
    5.5666    0.5921   -1.6557 C   0  0  0  0  0  0  0  0  0  0  0  0
    5.1300    1.4363   -0.6541 C   0  0  0  0  0  0  0  0  0  0  0  0
    3.8251    1.3779   -0.2426 C   0  0  0  0  0  0  0  0  0  0  0  0
    6.8885    0.6847   -2.0390 O   0  0  0  0  0  0  0  0  0  0  0  0
    7.8992   -0.0638   -1.4526 C   0  0  0  0  0  0  0  0  0  0  0  0
    7.6828   -0.9687   -0.4360 C   0  0  0  0  0  0  0  0  0  0  0  0
    8.7507   -1.6739    0.0916 C   0  0  0  0  0  0  0  0  0  0  0  0
   10.0095   -1.4433   -0.4250 C   0  0  0  0  0  0  0  0  0  0  0  0
   10.2051   -0.5228   -1.4538 C   0  0  0  0  0  0  0  0  0  0  0  0
    9.1487    0.1366   -1.9348 N   0  0  0  0  0  0  0  0  0  0  0  0
   11.1523   -2.1729    0.1122 C   0  0  0  0  0  0  0  0  0  0  0  0
   11.0134   -2.9981    1.0247 O   0  0  0  0  0  0  0  0  0  0  0  0
   12.4543   -1.9490   -0.4047 N   0  0  0  0  0  0  0  0  0  0  0  0
    0.3502    0.9871   -2.3497 C   0  0  0  0  0  0  0  0  0  0  0  0
    1.1399    2.8431   -0.8948 C   0  0  0  0  0  0  0  0  0  0  0  0
   -1.8579    1.2070    3.4174 H   0  0  0  0  0  0  0  0  0  0  0  0
   -2.8873    2.2322    0.9584 H   0  0  0  0  0  0  0  0  0  0  0  0
   -2.1198   -0.6567    1.5116 H   0  0  0  0  0  0  0  0  0  0  0  0
   -2.4762    0.0070   -0.0725 H   0  0  0  0  0  0  0  0  0  0  0  0
   -3.8447   -0.1479    3.8722 H   0  0  0  0  0  0  0  0  0  0  0  0
   -5.6780   -0.4929    5.4220 H   0  0  0  0  0  0  0  0  0  0  0  0
   -7.9115   -0.9048    4.6471 H   0  0  0  0  0  0  0  0  0  0  0  0
   -5.6736    0.9381   -0.4670 H   0  0  0  0  0  0  0  0  0  0  0  0
   -7.4642    1.3435   -0.2703 H   0  0  0  0  0  0  0  0  0  0  0  0
   -6.3323    0.4631   -2.6691 H   0  0  0  0  0  0  0  0  0  0  0  0
   -8.0738    0.2829   -2.2388 H   0  0  0  0  0  0  0  0  0  0  0  0
   -6.1582   -1.7878   -2.6809 H   0  0  0  0  0  0  0  0  0  0  0  0
   -7.7883   -1.9920   -2.0074 H   0  0  0  0  0  0  0  0  0  0  0  0
   -5.1548   -1.4562   -0.6107 H   0  0  0  0  0  0  0  0  0  0  0  0
   -6.4335   -2.7382   -0.1852 H   0  0  0  0  0  0  0  0  0  0  0  0
   -9.5137   -1.1754    2.3222 H   0  0  0  0  0  0  0  0  0  0  0  0
   -0.6076    2.7253    1.3808 H   0  0  0  0  0  0  0  0  0  0  0  0
   -0.1984    1.0245    1.7818 H   0  0  0  0  0  0  0  0  0  0  0  0
   -1.4258    1.8737   -0.7833 H   0  0  0  0  0  0  0  0  0  0  0  0
    1.5894    0.7763    0.8269 H   0  0  0  0  0  0  0  0  0  0  0  0
    1.1342   -0.5088   -0.3312 H   0  0  0  0  0  0  0  0  0  0  0  0
    2.6196   -1.0371   -2.2236 H   0  0  0  0  0  0  0  0  0  0  0  0
    4.9882   -0.9567   -2.9961 H   0  0  0  0  0  0  0  0  0  0  0  0
    5.8172    2.1449   -0.1930 H   0  0  0  0  0  0  0  0  0  0  0  0
    3.5231    2.0536    0.5418 H   0  0  0  0  0  0  0  0  0  0  0  0
    6.6755   -1.1111   -0.0679 H   0  0  0  0  0  0  0  0  0  0  0  0
    8.6187   -2.3956    0.8935 H   0  0  0  0  0  0  0  0  0  0  0  0
   11.1822   -0.3294   -1.8703 H   0  0  0  0  0  0  0  0  0  0  0  0
   13.1383   -2.7331   -0.4490 H   0  0  0  0  0  0  0  0  0  0  0  0
   12.7843   -1.0140   -0.7571 H   0  0  0  0  0  0  0  0  0  0  0  0
    0.1120   -0.0957   -2.3919 H   0  0  0  0  0  0  0  0  0  0  0  0
   -0.5082    1.5044   -2.8253 H   0  0  0  0  0  0  0  0  0  0  0  0
    1.2933    1.0994   -2.9443 H   0  0  0  0  0  0  0  0  0  0  0  0
    0.5619    3.5577   -1.5309 H   0  0  0  0  0  0  0  0  0  0  0  0
    2.1604    2.8584   -1.3288 H   0  0  0  0  0  0  0  0  0  0  0  0
    1.0710    3.2899    0.1190 H   0  0  0  0  0  0  0  0  0  0  0  0
  1  2  1  0
  2  3  1  0
  3  4  1  0
  4  5  1  0
  5  6  2  0
  6  7  1  0
  7  8  2  0
  8  9  1  0
  9 10  2  0
 10 11  1  0
 11 12  1  0
 12 13  1  0
 13 14  1  0
 14 15  1  0
 11 16  1  0
 16 17  2  0
 16 18  1  0
  2 19  1  0
 19 20  1  0
 20 21  1  0
 21 22  1  0
 22 23  1  0
 23 24  2  0
 24 25  1  0
 25 26  2  0
 26 27  1  0
 27 28  2  0
 26 29  1  0
 29 30  1  0
 30 31  2  0
 31 32  1  0
 32 33  2  0
 33 34  1  0
 34 35  2  0
 33 36  1  0
 36 37  2  0
 36 38  1  0
 21 39  1  0
 21 40  1  0
 10  5  1  0
 15 11  1  0
 28 23  1  0
 35 30  1  0
 18  9  1  0
  1 41  1  0
  2 42  1  6
  3 43  1  0
  3 44  1  0
  6 45  1  0
  7 46  1  0
  8 47  1  0
 12 48  1  0
 12 49  1  0
 13 50  1  0
 13 51  1  0
 14 52  1  0
 14 53  1  0
 15 54  1  0
 15 55  1  0
 18 56  1  0
 19 57  1  0
 19 58  1  0
 20 59  1  0
 22 60  1  0
 22 61  1  0
 24 62  1  0
 25 63  1  0
 27 64  1  0
 28 65  1  0
 31 66  1  0
 32 67  1  0
 34 68  1  0
 38 69  1  0
 38 70  1  0
 39 71  1  0
 39 72  1  0
 39 73  1  0
 40 74  1  0
 40 75  1  0
 40 76  1  0
M  END
>  <Ligand ID>  (1) 
LIG0003399

>  <Ligand>  (1) 
CHEMBL430392

>  <SMILES>  (1) 
O[C@H](COc1cccc2c1C1(CCCC1)C(=O)N2)CNC(Cc1ccc(cc1)Oc1ccc(cn1)C(=O)N)(C)C

>  <CID>  (1) 
10209243.0

>  <ChEMBL ID>  (1) 
nan

>  <InChiKey>  (1) 
QXPQGOYPJBKDKD-QFIPXVFZSA-N

>  <InChi>  (1) 
InChI=1S/C31H36N4O5/c1-30(2,16-20-8-11-23(12-9-20)40-26-13-10-21(17-33-26)28(32)37)34-18-22(36)19-39-25-7-5-6-24-27(25)31(29(38)35-24)14-3-4-15-31/h5-13,17,22,34,36H,3-4,14-16,18-19H2,1-2H3,(H2,32,37)(H,35,38)/t22-/m0/s1

>  <IUPAC Name>  (1) 
6-[4-[2-[[(2S)-2-hydroxy-3-(2-oxospiro[1H-indole-3,1'-cyclopentane]-4-yl)oxypropyl]amino]-2-methylpropyl]phenoxy]pyridine-3-carboxamide

$$$$
