
     RDKit          3D

148150  0  0  0  0  0  0  0  0999 V2000
   -7.9257   -0.8829    2.2941 C   0  0  0  0  0  0  0  0  0  0  0  0
   -8.4698    0.4624    2.6242 C   0  0  0  0  0  0  0  0  0  0  0  0
   -8.5127    1.4560    1.5276 C   0  0  1  0  0  0  0  0  0  0  0  0
   -7.2763    1.8775    0.8734 C   0  0  2  0  0  0  0  0  0  0  0  0
   -6.5411    0.7948    0.2438 N   0  0  0  0  0  0  0  0  0  0  0  0
   -6.4803    0.6851   -1.1609 C   0  0  0  0  0  0  0  0  0  0  0  0
   -7.2851    1.4808   -1.7634 O   0  0  0  0  0  0  0  0  0  0  0  0
   -5.6670   -0.1754   -2.0019 C   0  0  2  0  0  0  0  0  0  0  0  0
   -6.3185   -0.7784   -3.2001 C   0  0  0  0  0  0  0  0  0  0  0  0
   -7.4619   -1.6538   -3.0139 C   0  0  0  0  0  0  0  0  0  0  0  0
   -7.2693   -3.0263   -2.8441 C   0  0  0  0  0  0  0  0  0  0  0  0
   -8.3268   -3.9026   -2.6805 C   0  0  0  0  0  0  0  0  0  0  0  0
   -9.6287   -3.4518   -2.6788 C   0  0  0  0  0  0  0  0  0  0  0  0
   -9.8263   -2.1036   -2.8447 C   0  0  0  0  0  0  0  0  0  0  0  0
   -8.7898   -1.2083   -3.0093 C   0  0  0  0  0  0  0  0  0  0  0  0
   -4.6511   -0.9841   -1.4146 N   0  0  0  0  0  0  0  0  0  0  0  0
   -4.7512   -2.0553   -0.4939 C   0  0  0  0  0  0  0  0  0  0  0  0
   -5.8550   -2.3388   -0.0637 O   0  0  0  0  0  0  0  0  0  0  0  0
   -3.4741   -2.8030   -0.0797 C   0  0  1  0  0  0  0  0  0  0  0  0
   -3.6899   -3.4943    1.1462 N   0  0  0  0  0  0  0  0  0  0  0  0
   -3.3179   -3.8254   -1.2450 C   0  0  0  0  0  0  0  0  0  0  0  0
   -3.2243   -2.9632   -2.7583 S   0  0  0  0  0  0  0  0  0  0  0  0
   -1.5502   -2.0521   -3.4357 S   0  0  0  0  0  0  0  0  0  0  0  0
   -1.1270   -0.4141   -2.9516 C   0  0  0  0  0  0  0  0  0  0  0  0
   -0.2467   -0.3567   -1.6372 C   0  0  2  0  0  0  0  0  0  0  0  0
   -0.0789    1.0320   -1.3152 N   0  0  0  0  0  0  0  0  0  0  0  0
   -0.6549    1.4559   -0.0323 C   0  0  0  0  0  0  0  0  0  0  0  0
   -1.0971    0.5414    0.6522 O   0  0  0  0  0  0  0  0  0  0  0  0
   -0.6690    2.9081    0.3437 C   0  0  1  0  0  0  0  0  0  0  0  0
   -1.4007    3.0650    1.6155 N   0  0  0  0  0  0  0  0  0  0  0  0
   -2.7762    2.7662    1.5629 C   0  0  0  0  0  0  0  0  0  0  0  0
   -3.1362    2.3038    0.4111 O   0  0  0  0  0  0  0  0  0  0  0  0
   -3.8573    2.8640    2.5269 C   0  0  1  0  0  0  0  0  0  0  0  0
   -5.0301    2.2029    1.8364 N   0  0  0  0  0  0  0  0  0  0  0  0
   -6.3209    2.6935    1.7248 C   0  0  0  0  0  0  0  0  0  0  0  0
   -6.6125    3.7297    2.3059 O   0  0  0  0  0  0  0  0  0  0  0  0
   -3.8011    2.3426    3.8960 C   0  0  0  0  0  0  0  0  0  0  0  0
   -3.6364    0.8893    4.1519 C   0  0  0  0  0  0  0  0  0  0  0  0
   -2.3507    0.3394    3.7526 C   0  0  0  0  0  0  0  0  0  0  0  0
   -1.2656    0.9330    3.6795 O   0  0  0  0  0  0  0  0  0  0  0  0
   -2.3135   -1.0663    3.4066 N   0  0  0  0  0  0  0  0  0  0  0  0
    0.6799    3.4720    0.4696 C   0  0  0  0  0  0  0  0  0  0  0  0
    1.4744    2.7861    1.4856 C   0  0  0  0  0  0  0  0  0  0  0  0
    1.1871    1.7680    2.1350 O   0  0  0  0  0  0  0  0  0  0  0  0
    2.7900    3.3409    1.8072 N   0  0  0  0  0  0  0  0  0  0  0  0
    1.0239   -0.9985   -2.0599 C   0  0  0  0  0  0  0  0  0  0  0  0
    1.0961   -2.2550   -1.7451 O   0  0  0  0  0  0  0  0  0  0  0  0
    2.1045   -0.4516   -2.7412 N   0  0  0  0  0  0  0  0  0  0  0  0
    2.4181    0.8695   -3.2487 C   0  0  0  0  0  0  0  0  0  0  0  0
    3.2446    0.5972   -4.5344 C   0  0  0  0  0  0  0  0  0  0  0  0
    3.0732   -0.9194   -4.7296 C   0  0  0  0  0  0  0  0  0  0  0  0
    3.2317   -1.2880   -3.2146 C   0  0  1  0  0  0  0  0  0  0  0  0
    4.5581   -0.8212   -2.8777 C   0  0  0  0  0  0  0  0  0  0  0  0
    5.4787   -1.1706   -3.7355 O   0  0  0  0  0  0  0  0  0  0  0  0
    5.0149   -0.0677   -1.8029 N   0  0  0  0  0  0  0  0  0  0  0  0
    6.4800    0.2542   -1.8401 C   0  0  2  0  0  0  0  0  0  0  0  0
    7.1106   -0.9233   -1.2576 C   0  0  0  0  0  0  0  0  0  0  0  0
    8.3544   -1.0817   -1.3210 O   0  0  0  0  0  0  0  0  0  0  0  0
    6.3843   -1.9568   -0.5932 N   0  0  0  0  0  0  0  0  0  0  0  0
    7.0066   -3.1330   -0.0254 C   0  0  0  0  0  0  0  0  0  0  0  0
    5.9368   -3.9934    0.5885 C   0  0  0  0  0  0  0  0  0  0  0  0
    6.1940   -5.0854    1.1557 O   0  0  0  0  0  0  0  0  0  0  0  0
    4.5605   -3.6150    0.5601 N   0  0  0  0  0  0  0  0  0  0  0  0
    6.6631    1.5954   -1.2913 C   0  0  0  0  0  0  0  0  0  0  0  0
    7.9250    2.2955   -1.2199 C   0  0  0  0  0  0  0  0  0  0  0  0
    9.1215    1.9746   -0.4397 C   0  0  0  0  0  0  0  0  0  0  0  0
    9.1266    1.9727    0.9366 N   0  0  0  0  0  0  0  0  0  0  0  0
    8.5792    1.1117    1.8426 C   0  0  0  0  0  0  0  0  0  0  0  0
    9.1896   -0.2512    2.0219 C   0  0  0  0  0  0  0  0  0  0  0  0
   10.6441   -0.2130    2.4451 C   0  0  0  0  0  0  0  0  0  0  0  0
   11.5094    0.5055    1.4002 C   0  0  0  0  0  0  0  0  0  0  0  0
   10.8798    0.4498    3.7604 C   0  0  0  0  0  0  0  0  0  0  0  0
   -9.5755    0.9882    0.5345 C   0  0  0  0  0  0  0  0  0  0  0  0
   -7.9809   -1.1542    1.2308 H   0  0  0  0  0  0  0  0  0  0  0  0
   -8.5246   -1.7081    2.8095 H   0  0  0  0  0  0  0  0  0  0  0  0
   -6.9062   -1.0292    2.6947 H   0  0  0  0  0  0  0  0  0  0  0  0
   -9.5448    0.2909    2.9346 H   0  0  0  0  0  0  0  0  0  0  0  0
   -8.0133    0.8762    3.5730 H   0  0  0  0  0  0  0  0  0  0  0  0
   -8.9742    2.3952    1.9899 H   0  0  0  0  0  0  0  0  0  0  0  0
   -7.5826    2.6368    0.0818 H   0  0  0  0  0  0  0  0  0  0  0  0
   -6.0641    0.0949    0.7935 H   0  0  0  0  0  0  0  0  0  0  0  0
   -4.9910    0.6631   -2.5280 H   0  0  0  0  0  0  0  0  0  0  0  0
   -6.5615    0.0865   -3.9069 H   0  0  0  0  0  0  0  0  0  0  0  0
   -5.4845   -1.2943   -3.7650 H   0  0  0  0  0  0  0  0  0  0  0  0
   -6.2844   -3.4584   -2.8346 H   0  0  0  0  0  0  0  0  0  0  0  0
   -8.1689   -4.9765   -2.5468 H   0  0  0  0  0  0  0  0  0  0  0  0
  -10.4346   -4.1656   -2.5477 H   0  0  0  0  0  0  0  0  0  0  0  0
  -10.8358   -1.7105   -2.8485 H   0  0  0  0  0  0  0  0  0  0  0  0
   -8.9962   -0.1588   -3.1398 H   0  0  0  0  0  0  0  0  0  0  0  0
   -3.6515   -0.7694   -1.6633 H   0  0  0  0  0  0  0  0  0  0  0  0
   -2.6680   -2.1054   -0.1523 H   0  0  0  0  0  0  0  0  0  0  0  0
   -2.7772   -3.9157    1.4312 H   0  0  0  0  0  0  0  0  0  0  0  0
   -4.4759   -4.1387    1.1499 H   0  0  0  0  0  0  0  0  0  0  0  0
   -2.3759   -4.3947   -0.9611 H   0  0  0  0  0  0  0  0  0  0  0  0
   -4.1306   -4.5534   -1.1540 H   0  0  0  0  0  0  0  0  0  0  0  0
   -0.4159    0.0032   -3.6991 H   0  0  0  0  0  0  0  0  0  0  0  0
   -1.9378    0.3315   -2.8803 H   0  0  0  0  0  0  0  0  0  0  0  0
   -0.7784   -0.9555   -0.9178 H   0  0  0  0  0  0  0  0  0  0  0  0
    0.3654    1.7796   -1.8028 H   0  0  0  0  0  0  0  0  0  0  0  0
   -1.3178    3.4087   -0.4585 H   0  0  0  0  0  0  0  0  0  0  0  0
   -1.0084    3.3637    2.4924 H   0  0  0  0  0  0  0  0  0  0  0  0
   -4.2309    3.9412    2.6199 H   0  0  0  0  0  0  0  0  0  0  0  0
   -4.7838    1.3101    1.4324 H   0  0  0  0  0  0  0  0  0  0  0  0
   -4.7660    2.6886    4.4043 H   0  0  0  0  0  0  0  0  0  0  0  0
   -2.9725    2.8963    4.4346 H   0  0  0  0  0  0  0  0  0  0  0  0
   -3.8322    0.7143    5.2572 H   0  0  0  0  0  0  0  0  0  0  0  0
   -4.4711    0.2859    3.6809 H   0  0  0  0  0  0  0  0  0  0  0  0
   -2.1042   -1.7719    4.1494 H   0  0  0  0  0  0  0  0  0  0  0  0
   -2.5005   -1.3042    2.4067 H   0  0  0  0  0  0  0  0  0  0  0  0
    0.6342    4.5867    0.6637 H   0  0  0  0  0  0  0  0  0  0  0  0
    1.2565    3.3824   -0.5005 H   0  0  0  0  0  0  0  0  0  0  0  0
    3.6604    2.8699    1.5020 H   0  0  0  0  0  0  0  0  0  0  0  0
    2.7538    4.2339    2.3655 H   0  0  0  0  0  0  0  0  0  0  0  0
    1.5105    1.4321   -3.5942 H   0  0  0  0  0  0  0  0  0  0  0  0
    3.0335    1.4731   -2.5797 H   0  0  0  0  0  0  0  0  0  0  0  0
    2.8413    1.1754   -5.3706 H   0  0  0  0  0  0  0  0  0  0  0  0
    4.3192    0.7862   -4.3551 H   0  0  0  0  0  0  0  0  0  0  0  0
    2.0890   -1.1951   -5.0891 H   0  0  0  0  0  0  0  0  0  0  0  0
    3.9442   -1.3635   -5.2383 H   0  0  0  0  0  0  0  0  0  0  0  0
    3.0484   -2.3527   -3.1046 H   0  0  0  0  0  0  0  0  0  0  0  0
    4.3998    0.2464   -1.0494 H   0  0  0  0  0  0  0  0  0  0  0  0
    6.8117    0.2748   -2.9329 H   0  0  0  0  0  0  0  0  0  0  0  0
    5.3488   -1.8354   -0.5202 H   0  0  0  0  0  0  0  0  0  0  0  0
    7.7365   -2.8848    0.7479 H   0  0  0  0  0  0  0  0  0  0  0  0
    7.4969   -3.6691   -0.8693 H   0  0  0  0  0  0  0  0  0  0  0  0
    4.1379   -2.8988    1.1785 H   0  0  0  0  0  0  0  0  0  0  0  0
    3.8802   -4.0687   -0.1236 H   0  0  0  0  0  0  0  0  0  0  0  0
    6.0878    1.6302   -0.2926 H   0  0  0  0  0  0  0  0  0  0  0  0
    5.9637    2.2751   -1.9106 H   0  0  0  0  0  0  0  0  0  0  0  0
    7.6722    3.3869   -0.9542 H   0  0  0  0  0  0  0  0  0  0  0  0
    8.2579    2.4607   -2.3290 H   0  0  0  0  0  0  0  0  0  0  0  0
    9.8669    2.8419   -0.7317 H   0  0  0  0  0  0  0  0  0  0  0  0
    9.6718    1.1293   -0.9379 H   0  0  0  0  0  0  0  0  0  0  0  0
    9.2259    2.9509    1.3166 H   0  0  0  0  0  0  0  0  0  0  0  0
    7.4685    0.9408    1.7615 H   0  0  0  0  0  0  0  0  0  0  0  0
    8.6514    1.5843    2.8797 H   0  0  0  0  0  0  0  0  0  0  0  0
    8.6569   -0.6852    2.9248 H   0  0  0  0  0  0  0  0  0  0  0  0
    9.0125   -0.9613    1.2219 H   0  0  0  0  0  0  0  0  0  0  0  0
   11.0528   -1.2391    2.4974 H   0  0  0  0  0  0  0  0  0  0  0  0
   11.4038    1.6055    1.4611 H   0  0  0  0  0  0  0  0  0  0  0  0
   11.2261    0.0689    0.4407 H   0  0  0  0  0  0  0  0  0  0  0  0
   12.5901    0.2798    1.5808 H   0  0  0  0  0  0  0  0  0  0  0  0
   10.6165   -0.2171    4.6208 H   0  0  0  0  0  0  0  0  0  0  0  0
   10.4624    1.4683    3.8423 H   0  0  0  0  0  0  0  0  0  0  0  0
   11.9973    0.5840    3.8401 H   0  0  0  0  0  0  0  0  0  0  0  0
  -10.4621    0.6859    1.1238 H   0  0  0  0  0  0  0  0  0  0  0  0
   -9.7661    1.7342   -0.2391 H   0  0  0  0  0  0  0  0  0  0  0  0
   -9.1764    0.0372    0.0988 H   0  0  0  0  0  0  0  0  0  0  0  0
  1  2  1  0
  2  3  1  0
  3  4  1  0
  4  5  1  0
  5  6  1  0
  6  7  2  0
  6  8  1  0
  8  9  1  0
  9 10  1  0
 10 11  2  0
 11 12  1  0
 12 13  2  0
 13 14  1  0
 14 15  2  0
  8 16  1  0
 16 17  1  0
 17 18  2  0
 17 19  1  0
 19 20  1  0
 19 21  1  0
 21 22  1  0
 22 23  1  0
 23 24  1  0
 24 25  1  0
 25 26  1  0
 26 27  1  0
 27 28  2  0
 27 29  1  0
 29 30  1  0
 30 31  1  0
 31 32  2  0
 31 33  1  0
 33 34  1  0
 34 35  1  0
 35 36  2  0
 33 37  1  0
 37 38  1  0
 38 39  1  0
 39 40  2  0
 39 41  1  0
 29 42  1  0
 42 43  1  0
 43 44  2  0
 43 45  1  0
 25 46  1  0
 46 47  2  0
 46 48  1  0
 48 49  1  0
 49 50  1  0
 50 51  1  0
 51 52  1  0
 52 53  1  0
 53 54  2  0
 53 55  1  0
 55 56  1  0
 56 57  1  0
 57 58  2  0
 57 59  1  0
 59 60  1  0
 60 61  1  0
 61 62  2  0
 61 63  1  0
 56 64  1  0
 64 65  1  0
 65 66  1  0
 66 67  1  0
 67 68  1  0
 68 69  1  0
 69 70  1  0
 70 71  1  0
 70 72  1  0
  3 73  1  0
 35  4  1  0
 52 48  1  0
 15 10  1  0
  1 74  1  0
  1 75  1  0
  1 76  1  0
  2 77  1  0
  2 78  1  0
  3 79  1  1
  4 80  1  6
  5 81  1  0
  8 82  1  6
  9 83  1  0
  9 84  1  0
 11 85  1  0
 12 86  1  0
 13 87  1  0
 14 88  1  0
 15 89  1  0
 16 90  1  0
 19 91  1  1
 20 92  1  0
 20 93  1  0
 21 94  1  0
 21 95  1  0
 24 96  1  0
 24 97  1  0
 25 98  1  1
 26 99  1  0
 29100  1  6
 30101  1  0
 33102  1  1
 34103  1  0
 37104  1  0
 37105  1  0
 38106  1  0
 38107  1  0
 41108  1  0
 41109  1  0
 42110  1  0
 42111  1  0
 45112  1  0
 45113  1  0
 49114  1  0
 49115  1  0
 50116  1  0
 50117  1  0
 51118  1  0
 51119  1  0
 52120  1  6
 55121  1  0
 56122  1  6
 59123  1  0
 60124  1  0
 60125  1  0
 63126  1  0
 63127  1  0
 64128  1  0
 64129  1  0
 65130  1  0
 65131  1  0
 66132  1  0
 66133  1  0
 67134  1  0
 68135  1  0
 68136  1  0
 69137  1  0
 69138  1  0
 70139  1  0
 71140  1  0
 71141  1  0
 71142  1  0
 72143  1  0
 72144  1  0
 72145  1  0
 73146  1  0
 73147  1  0
 73148  1  0
M  END
>  <Ligand ID>  (1) 
LIG0001601

>  <Ligand>  (1) 
CHEMBL1817708

>  <SMILES>  (1) 
CC[C@@H]([C@@H]1NC(=O)[C@H](Cc2ccccc2)NC(=O)[C@@H](N)CSSC[C@H](NC(=O)[C@@H](NC(=O)[C@@H](NC1=O)CCC(=O)N)CC(=O)N)C(=O)N1CCC[C@H]1C(=O)N[C@H](C(=O)NCC(=O)N)CCCNCCC(C)C)C

>  <CID>  (1) 
53362489.0

>  <ChEMBL ID>  (1) 
nan

>  <InChiKey>  (1) 
WDTRQOKWGIZYIH-LMFHWLLXSA-N

>  <InChi>  (1) 
InChI=1S/C47H75N13O11S2/c1-5-27(4)39-46(70)55-31(15-16-36(49)61)42(66)57-33(22-37(50)62)43(67)58-34(25-73-72-24-29(48)40(64)56-32(44(68)59-39)21-28-11-7-6-8-12-28)47(71)60-20-10-14-35(60)45(69)54-30(41(65)53-23-38(51)63)13-9-18-52-19-17-26(2)3/h6-8,11-12,26-27,29-35,39,52H,5,9-10,13-25,48H2,1-4H3,(H2,49,61)(H2,50,62)(H2,51,63)(H,53,65)(H,54,69)(H,55,70)(H,56,64)(H,57,66)(H,58,67)(H,59,68)/t27-,29-,30-,31-,32-,33-,34-,35-,39-/m0/s1

>  <IUPAC Name>  (1) 
(2S)-1-[(4R,7S,10S,13S,16S,19R)-19-amino-7-(2-amino-2-oxoethyl)-10-(3-amino-3-oxopropyl)-16-benzyl-13-[(2S)-butan-2-yl]-6,9,12,15,18-pentaoxo-1,2-dithia-5,8,11,14,17-pentazacycloicosane-4-carbonyl]-N-[(2S)-1-[(2-amino-2-oxoethyl)amino]-5-(3-methylbutylamino)-1-oxopentan-2-yl]pyrrolidine-2-carboxamide

$$$$
