
     RDKit          3D

 45 47  0  0  0  0  0  0  0  0999 V2000
   -1.4916   -3.1304   -0.1438 F   0  0  0  0  0  0  0  0  0  0  0  0
   -2.8470   -3.2042   -0.3822 C   0  0  0  0  0  0  0  0  0  0  0  0
   -3.6325   -2.1360    0.3418 C   0  0  0  0  0  0  0  0  0  0  0  0
   -3.3007   -0.8342    0.0214 O   0  0  0  0  0  0  0  0  0  0  0  0
   -2.1042   -0.1805    0.1595 C   0  0  0  0  0  0  0  0  0  0  0  0
   -0.9771   -0.7079    0.6574 N   0  0  0  0  0  0  0  0  0  0  0  0
    0.1567   -0.0240    0.7679 C   0  0  0  0  0  0  0  0  0  0  0  0
    0.2022    1.3029    0.3547 C   0  0  0  0  0  0  0  0  0  0  0  0
   -0.9114    1.9041   -0.1630 C   0  0  0  0  0  0  0  0  0  0  0  0
   -2.0626    1.1517   -0.2565 C   0  0  0  0  0  0  0  0  0  0  0  0
   -3.2383    1.7640   -0.7944 N   0  0  0  0  0  0  0  0  0  0  0  0
   -4.5836    2.0559   -0.3345 C   0  0  0  0  0  0  0  0  0  0  0  0
   -4.5936    3.2245   -1.2978 C   0  0  0  0  0  0  0  0  0  0  0  0
   -3.6039    2.3692   -2.0609 C   0  0  0  0  0  0  0  0  0  0  0  0
   -5.7915    3.4233   -1.9518 F   0  0  0  0  0  0  0  0  0  0  0  0
   -4.0579    4.3539   -0.7409 F   0  0  0  0  0  0  0  0  0  0  0  0
    1.3989   -0.5758    1.3073 C   0  0  0  0  0  0  0  0  0  0  0  0
    1.3554   -0.8977    2.5441 O   0  0  0  0  0  0  0  0  0  0  0  0
    2.5432   -0.7321    0.5082 N   0  0  0  0  0  0  0  0  0  0  0  0
    2.6204   -0.3722   -0.9134 C   0  0  0  0  0  0  0  0  0  0  0  0
    4.0188    0.2005   -0.9857 C   0  0  0  0  0  0  0  0  0  0  0  0
    4.7961   -0.8360   -0.2099 C   0  0  0  0  0  0  0  0  0  0  0  0
    3.8227   -1.2474    0.8729 C   0  0  1  0  0  0  0  0  0  0  0  0
    4.3542   -0.6882    2.1427 C   0  0  0  0  0  0  0  0  0  0  0  0
    3.7445    0.1651    2.8352 O   0  0  0  0  0  0  0  0  0  0  0  0
    5.6213   -1.1449    2.5966 N   0  0  0  0  0  0  0  0  0  0  0  0
    4.4598    0.3229   -2.2856 F   0  0  0  0  0  0  0  0  0  0  0  0
    4.0435    1.3836   -0.2944 F   0  0  0  0  0  0  0  0  0  0  0  0
   -3.0097   -3.1420   -1.4962 H   0  0  0  0  0  0  0  0  0  0  0  0
   -3.1536   -4.2219   -0.0320 H   0  0  0  0  0  0  0  0  0  0  0  0
   -4.7056   -2.2831    0.0205 H   0  0  0  0  0  0  0  0  0  0  0  0
   -3.5345   -2.3588    1.4256 H   0  0  0  0  0  0  0  0  0  0  0  0
    1.1043    1.8986    0.4262 H   0  0  0  0  0  0  0  0  0  0  0  0
   -0.8741    2.9352   -0.4836 H   0  0  0  0  0  0  0  0  0  0  0  0
   -5.3068    1.2789   -0.6550 H   0  0  0  0  0  0  0  0  0  0  0  0
   -4.6530    2.3396    0.7348 H   0  0  0  0  0  0  0  0  0  0  0  0
   -2.8324    2.9989   -2.5451 H   0  0  0  0  0  0  0  0  0  0  0  0
   -4.1387    1.6975   -2.7610 H   0  0  0  0  0  0  0  0  0  0  0  0
    2.6147   -1.3359   -1.4643 H   0  0  0  0  0  0  0  0  0  0  0  0
    1.8383    0.3227   -1.2264 H   0  0  0  0  0  0  0  0  0  0  0  0
    5.0095   -1.6722   -0.9105 H   0  0  0  0  0  0  0  0  0  0  0  0
    5.7169   -0.3728    0.1890 H   0  0  0  0  0  0  0  0  0  0  0  0
    3.7530   -2.3544    0.9294 H   0  0  0  0  0  0  0  0  0  0  0  0
    6.0538   -0.7779    3.4770 H   0  0  0  0  0  0  0  0  0  0  0  0
    6.1760   -1.8625    2.0769 H   0  0  0  0  0  0  0  0  0  0  0  0
  1  2  1  0
  2  3  1  0
  3  4  1  0
  4  5  1  0
  5  6  2  0
  6  7  1  0
  7  8  2  0
  8  9  1  0
  9 10  2  0
 10 11  1  0
 11 12  1  0
 12 13  1  0
 13 14  1  0
 13 15  1  0
 13 16  1  0
  7 17  1  0
 17 18  2  0
 17 19  1  0
 19 20  1  0
 20 21  1  0
 21 22  1  0
 22 23  1  0
 23 24  1  0
 24 25  2  0
 24 26  1  0
 21 27  1  0
 21 28  1  0
 10  5  1  0
 14 11  1  0
 23 19  1  0
  2 29  1  0
  2 30  1  0
  3 31  1  0
  3 32  1  0
  8 33  1  0
  9 34  1  0
 12 35  1  0
 12 36  1  0
 14 37  1  0
 14 38  1  0
 20 39  1  0
 20 40  1  0
 22 41  1  0
 22 42  1  0
 23 43  1  1
 26 44  1  0
 26 45  1  0
M  END
>  <Ligand ID>  (1) 
LIG0005725

>  <Ligand>  (1) 
CHEMBL3949988

>  <SMILES>  (1) 
FCCOc1nc(ccc1N1CC(C1)(F)F)C(=O)N1CC(C[C@H]1C(=O)N)(F)F

>  <CID>  (1) 
76281603.0

>  <ChEMBL ID>  (1) 
nan

>  <InChiKey>  (1) 
RNCZOORZQWSMEE-NSHDSACASA-N

>  <InChi>  (1) 
InChI=1S/C16H17F5N4O3/c17-3-4-28-13-10(24-6-16(20,21)7-24)2-1-9(23-13)14(27)25-8-15(18,19)5-11(25)12(22)26/h1-2,11H,3-8H2,(H2,22,26)/t11-/m0/s1

>  <IUPAC Name>  (1) 
(2S)-1-[5-(3,3-difluoroazetidin-1-yl)-6-(2-fluoroethoxy)pyridine-2-carbonyl]-4,4-difluoropyrrolidine-2-carboxamide

$$$$
