
     RDKit          3D

 63 65  0  0  0  0  0  0  0  0999 V2000
    3.8677    2.0519   -2.8503 O   0  0  0  0  0  0  0  0  0  0  0  0
    3.8028    1.6519   -1.4919 C   0  0  2  0  0  0  0  0  0  0  0  0
    4.8974    0.7230   -1.1349 C   0  0  0  0  0  0  0  0  0  0  0  0
    6.1838    1.3266   -1.4232 O   0  0  0  0  0  0  0  0  0  0  0  0
    7.2955    0.5589   -1.1213 C   0  0  0  0  0  0  0  0  0  0  0  0
    7.1308   -0.7092   -0.5796 C   0  0  0  0  0  0  0  0  0  0  0  0
    8.2092   -1.5224   -0.2550 C   0  0  0  0  0  0  0  0  0  0  0  0
    9.5032   -1.0574   -0.4779 C   0  0  0  0  0  0  0  0  0  0  0  0
    9.6634    0.1967   -1.0138 C   0  0  0  0  0  0  0  0  0  0  0  0
    8.5764    1.0089   -1.3376 C   0  0  0  0  0  0  0  0  0  0  0  0
    2.4282    1.1287   -1.2946 C   0  0  0  0  0  0  0  0  0  0  0  0
    2.1239    0.6294   -0.0244 N   0  0  0  0  0  0  0  0  0  0  0  0
    2.5628   -0.6403    0.4127 C   0  0  0  0  0  0  0  0  0  0  0  0
    2.1220   -0.8408    1.8803 C   0  0  0  0  0  0  0  0  0  0  0  0
    0.6711   -0.7937    1.9163 C   0  0  0  0  0  0  0  0  0  0  0  0
   -0.1226    0.3146    2.0989 C   0  0  0  0  0  0  0  0  0  0  0  0
   -1.5219    0.2375    2.1119 C   0  0  0  0  0  0  0  0  0  0  0  0
   -2.1902   -0.9501    1.9447 C   0  0  0  0  0  0  0  0  0  0  0  0
   -1.3914   -2.0741    1.7614 C   0  0  0  0  0  0  0  0  0  0  0  0
   -0.0179   -2.0036    1.7468 C   0  0  0  0  0  0  0  0  0  0  0  0
   -3.5868   -1.1138    1.9161 N   0  0  0  0  0  0  0  0  0  0  0  0
   -4.5522   -0.0821    1.9186 C   0  0  0  0  0  0  0  0  0  0  0  0
   -4.2353    1.1314    1.9407 O   0  0  0  0  0  0  0  0  0  0  0  0
   -6.0023   -0.3959    1.8929 C   0  0  0  0  0  0  0  0  0  0  0  0
   -6.4882    0.0517    0.5561 C   0  0  0  0  0  0  0  0  0  0  0  0
   -6.6005   -0.9669   -0.4037 C   0  0  0  0  0  0  0  0  0  0  0  0
   -7.0233   -0.7062   -1.6847 C   0  0  0  0  0  0  0  0  0  0  0  0
   -7.1212   -1.8190   -2.6389 C   0  0  0  0  0  0  0  0  0  0  0  0
   -7.3371    0.6119   -1.9977 C   0  0  0  0  0  0  0  0  0  0  0  0
   -7.2111    1.5752   -1.0264 C   0  0  0  0  0  0  0  0  0  0  0  0
   -6.7922    1.2988    0.2365 N   0  0  0  0  0  0  0  0  0  0  0  0
   -7.5632    2.9809   -1.4335 C   0  0  0  0  0  0  0  0  0  0  0  0
    4.3423    2.8924   -2.9713 H   0  0  0  0  0  0  0  0  0  0  0  0
    3.8950    2.6205   -0.8939 H   0  0  0  0  0  0  0  0  0  0  0  0
    4.9464    0.6917    0.0021 H   0  0  0  0  0  0  0  0  0  0  0  0
    4.7877   -0.2668   -1.5568 H   0  0  0  0  0  0  0  0  0  0  0  0
    6.1560   -1.1423   -0.3772 H   0  0  0  0  0  0  0  0  0  0  0  0
    8.0508   -2.5261    0.1742 H   0  0  0  0  0  0  0  0  0  0  0  0
   10.3105   -1.7203   -0.2101 H   0  0  0  0  0  0  0  0  0  0  0  0
   10.6816    0.5761   -1.1934 H   0  0  0  0  0  0  0  0  0  0  0  0
    8.7529    2.0093   -1.7654 H   0  0  0  0  0  0  0  0  0  0  0  0
    1.6808    1.9441   -1.6123 H   0  0  0  0  0  0  0  0  0  0  0  0
    2.2348    0.2731   -2.0439 H   0  0  0  0  0  0  0  0  0  0  0  0
    2.1727    1.3558    0.7453 H   0  0  0  0  0  0  0  0  0  0  0  0
    3.5960   -0.9016    0.3763 H   0  0  0  0  0  0  0  0  0  0  0  0
    1.9315   -1.4695   -0.1045 H   0  0  0  0  0  0  0  0  0  0  0  0
    2.5303   -1.7899    2.2782 H   0  0  0  0  0  0  0  0  0  0  0  0
    2.5383    0.0289    2.4454 H   0  0  0  0  0  0  0  0  0  0  0  0
    0.3634    1.2690    2.2415 H   0  0  0  0  0  0  0  0  0  0  0  0
   -2.0337    1.1541    2.2626 H   0  0  0  0  0  0  0  0  0  0  0  0
   -1.8540   -3.0261    1.6250 H   0  0  0  0  0  0  0  0  0  0  0  0
    0.5343   -2.9166    1.5978 H   0  0  0  0  0  0  0  0  0  0  0  0
   -3.9717   -2.0942    1.8897 H   0  0  0  0  0  0  0  0  0  0  0  0
   -6.5082    0.2175    2.6373 H   0  0  0  0  0  0  0  0  0  0  0  0
   -6.2304   -1.4497    2.0707 H   0  0  0  0  0  0  0  0  0  0  0  0
   -6.3503   -2.0059   -0.1408 H   0  0  0  0  0  0  0  0  0  0  0  0
   -7.9779   -2.4466   -2.3000 H   0  0  0  0  0  0  0  0  0  0  0  0
   -7.1974   -1.4369   -3.6593 H   0  0  0  0  0  0  0  0  0  0  0  0
   -6.2048   -2.4724   -2.5234 H   0  0  0  0  0  0  0  0  0  0  0  0
   -7.6711    0.8059   -3.0101 H   0  0  0  0  0  0  0  0  0  0  0  0
   -7.6571    3.5551   -0.4786 H   0  0  0  0  0  0  0  0  0  0  0  0
   -8.4683    3.0179   -2.0469 H   0  0  0  0  0  0  0  0  0  0  0  0
   -6.6612    3.4509   -1.9265 H   0  0  0  0  0  0  0  0  0  0  0  0
  1  2  1  0
  2  3  1  0
  3  4  1  0
  4  5  1  0
  5  6  2  0
  6  7  1  0
  7  8  2  0
  8  9  1  0
  9 10  2  0
  2 11  1  0
 11 12  1  0
 12 13  1  0
 13 14  1  0
 14 15  1  0
 15 16  2  0
 16 17  1  0
 17 18  2  0
 18 19  1  0
 19 20  2  0
 18 21  1  0
 21 22  1  0
 22 23  2  0
 22 24  1  0
 24 25  1  0
 25 26  2  0
 26 27  1  0
 27 28  1  0
 27 29  2  0
 29 30  1  0
 30 31  2  0
 30 32  1  0
 10  5  1  0
 20 15  1  0
 31 25  1  0
  1 33  1  0
  2 34  1  1
  3 35  1  0
  3 36  1  0
  6 37  1  0
  7 38  1  0
  8 39  1  0
  9 40  1  0
 10 41  1  0
 11 42  1  0
 11 43  1  0
 12 44  1  0
 13 45  1  0
 13 46  1  0
 14 47  1  0
 14 48  1  0
 16 49  1  0
 17 50  1  0
 19 51  1  0
 20 52  1  0
 21 53  1  0
 24 54  1  0
 24 55  1  0
 26 56  1  0
 28 57  1  0
 28 58  1  0
 28 59  1  0
 29 60  1  0
 32 61  1  0
 32 62  1  0
 32 63  1  0
M  END
>  <Ligand ID>  (1) 
LIG0003781

>  <Ligand>  (1) 
CHEMBL466925

>  <SMILES>  (1) 
O[C@H](COc1ccccc1)CNCCc1ccc(cc1)NC(=O)Cc1cc(C)cc(n1)C

>  <CID>  (1) 
44574722.0

>  <ChEMBL ID>  (1) 
nan

>  <InChiKey>  (1) 
FQWZNIUMQVNSJJ-DEOSSOPVSA-N

>  <InChi>  (1) 
InChI=1S/C26H31N3O3/c1-19-14-20(2)28-23(15-19)16-26(31)29-22-10-8-21(9-11-22)12-13-27-17-24(30)18-32-25-6-4-3-5-7-25/h3-11,14-15,24,27,30H,12-13,16-18H2,1-2H3,(H,29,31)/t24-/m0/s1

>  <IUPAC Name>  (1) 
2-(4,6-dimethylpyridin-2-yl)-N-[4-[2-[[(2S)-2-hydroxy-3-phenoxypropyl]amino]ethyl]phenyl]acetamide

$$$$
