
     RDKit          3D

137142  0  0  0  0  0  0  0  0999 V2000
   -3.2714   -5.6568    0.8203 C   0  0  0  0  0  0  0  0  0  0  0  0
   -3.9367   -4.7059    1.7840 C   0  0  0  0  0  0  0  0  0  0  0  0
   -3.2862   -3.3735    1.7116 C   0  0  0  0  0  0  0  0  0  0  0  0
   -3.3795   -2.7403    0.3307 C   0  0  1  0  0  0  0  0  0  0  0  0
   -4.8048   -2.5708   -0.0165 C   0  0  0  0  0  0  0  0  0  0  0  0
   -5.5466   -3.5473   -0.3872 O   0  0  0  0  0  0  0  0  0  0  0  0
   -5.4702   -1.3090    0.0401 N   0  0  0  0  0  0  0  0  0  0  0  0
   -6.8938   -1.1792   -0.3179 C   0  0  2  0  0  0  0  0  0  0  0  0
   -7.2849    0.1420   -0.7570 C   0  0  0  0  0  0  0  0  0  0  0  0
   -8.4255    0.4084   -1.2267 O   0  0  0  0  0  0  0  0  0  0  0  0
   -6.3852    1.1736   -0.6664 O   0  0  0  0  0  0  0  0  0  0  0  0
   -6.5267    2.4966   -1.0283 C   0  0  0  0  0  0  0  0  0  0  0  0
   -7.6417    3.1485   -0.3065 C   0  0  0  0  0  0  0  0  0  0  0  0
   -8.8833    3.2982   -0.9225 C   0  0  0  0  0  0  0  0  0  0  0  0
   -9.9513    3.9083   -0.2684 C   0  0  0  0  0  0  0  0  0  0  0  0
   -9.7799    4.3793    1.0275 C   0  0  0  0  0  0  0  0  0  0  0  0
   -8.5646    4.2446    1.6602 C   0  0  0  0  0  0  0  0  0  0  0  0
   -7.5414    3.6366    0.9737 C   0  0  0  0  0  0  0  0  0  0  0  0
   -8.4305    4.7631    3.0479 C   0  0  0  0  0  0  0  0  0  0  0  0
   -7.1587    4.6104    3.5337 F   0  0  0  0  0  0  0  0  0  0  0  0
   -9.2796    4.0602    3.8941 F   0  0  0  0  0  0  0  0  0  0  0  0
   -8.8803    6.0688    3.0534 F   0  0  0  0  0  0  0  0  0  0  0  0
  -11.2504    4.0581   -0.9830 C   0  0  0  0  0  0  0  0  0  0  0  0
  -11.8188    2.8267   -1.1357 F   0  0  0  0  0  0  0  0  0  0  0  0
  -11.0453    4.6525   -2.2173 F   0  0  0  0  0  0  0  0  0  0  0  0
  -12.0997    4.8458   -0.2376 F   0  0  0  0  0  0  0  0  0  0  0  0
   -7.7420   -1.8385    0.7162 C   0  0  0  0  0  0  0  0  0  0  0  0
   -9.1758   -1.7196    0.4483 C   0  0  0  0  0  0  0  0  0  0  0  0
   -9.9478   -2.5972   -0.2875 C   0  0  0  0  0  0  0  0  0  0  0  0
  -11.2215   -2.1752   -0.3569 N   0  0  0  0  0  0  0  0  0  0  0  0
  -11.2838   -1.0291    0.3287 C   0  0  0  0  0  0  0  0  0  0  0  0
  -10.0325   -0.7124    0.8435 C   0  0  0  0  0  0  0  0  0  0  0  0
   -9.8536    0.4241    1.6210 C   0  0  0  0  0  0  0  0  0  0  0  0
  -10.9003    1.2686    1.9085 C   0  0  0  0  0  0  0  0  0  0  0  0
  -12.1553    0.9525    1.3932 C   0  0  0  0  0  0  0  0  0  0  0  0
  -12.3200   -0.1783    0.6207 C   0  0  0  0  0  0  0  0  0  0  0  0
   -2.6598   -1.4717    0.3397 N   0  0  0  0  0  0  0  0  0  0  0  0
   -1.3778   -1.4381   -0.3245 C   0  0  0  0  0  0  0  0  0  0  0  0
   -1.0023   -2.5159   -0.8296 O   0  0  0  0  0  0  0  0  0  0  0  0
   -0.6693   -0.1626   -0.3375 C   0  0  2  0  0  0  0  0  0  0  0  0
   -1.3789    0.8329   -1.2955 C   0  0  0  0  0  0  0  0  0  0  0  0
   -1.0952    0.1346   -2.6306 C   0  0  0  0  0  0  0  0  0  0  0  0
    0.1902   -0.6510   -2.4403 C   0  0  0  0  0  0  0  0  0  0  0  0
    0.5652   -0.2980   -1.0876 N   0  0  0  0  0  0  0  0  0  0  0  0
    1.9053   -0.0792   -0.6001 C   0  0  0  0  0  0  0  0  0  0  0  0
    2.0835    0.2430    0.6053 O   0  0  0  0  0  0  0  0  0  0  0  0
    3.0439   -0.2362   -1.5567 C   0  0  2  0  0  0  0  0  0  0  0  0
    3.2531   -1.7057   -1.8787 C   0  0  0  0  0  0  0  0  0  0  0  0
    4.4136   -1.8760   -2.8260 C   0  0  0  0  0  0  0  0  0  0  0  0
    4.2369   -1.8238   -4.2024 C   0  0  0  0  0  0  0  0  0  0  0  0
    5.3157   -1.9860   -5.0696 C   0  0  0  0  0  0  0  0  0  0  0  0
    6.5666   -2.1999   -4.5014 C   0  0  0  0  0  0  0  0  0  0  0  0
    6.7523   -2.2532   -3.1452 C   0  0  0  0  0  0  0  0  0  0  0  0
    5.6741   -2.0921   -2.2698 C   0  0  0  0  0  0  0  0  0  0  0  0
    4.2799    0.3498   -1.0547 N   0  0  0  0  0  0  0  0  0  0  0  0
    4.5825    1.6570   -1.4792 C   0  0  0  0  0  0  0  0  0  0  0  0
    3.7079    2.2034   -2.2548 O   0  0  0  0  0  0  0  0  0  0  0  0
    5.7408    2.4822   -1.1695 C   0  0  0  0  0  0  0  0  0  0  0  0
    6.7828    1.9686   -0.3693 N   0  0  0  0  0  0  0  0  0  0  0  0
    6.7662    1.5104    0.9619 C   0  0  0  0  0  0  0  0  0  0  0  0
    5.6817    1.5334    1.5816 O   0  0  0  0  0  0  0  0  0  0  0  0
    8.0405    1.0010    1.6325 C   0  0  2  0  0  0  0  0  0  0  0  0
    9.0804    1.1358    0.6376 N   0  0  0  0  0  0  0  0  0  0  0  0
   10.1194    2.0985    0.6821 C   0  0  0  0  0  0  0  0  0  0  0  0
   10.1542    2.8893    1.6609 O   0  0  0  0  0  0  0  0  0  0  0  0
   11.0996    2.1223   -0.4290 C   0  0  2  0  0  0  0  0  0  0  0  0
   11.9479    0.8818   -0.5333 C   0  0  0  0  0  0  0  0  0  0  0  0
   12.7795    0.6033    0.6398 C   0  0  0  0  0  0  0  0  0  0  0  0
   12.4311   -0.1707    1.7149 C   0  0  0  0  0  0  0  0  0  0  0  0
   13.2939   -0.3805    2.7916 C   0  0  0  0  0  0  0  0  0  0  0  0
   14.5585    0.1928    2.8214 C   0  0  0  0  0  0  0  0  0  0  0  0
   14.8961    0.9680    1.7358 C   0  0  0  0  0  0  0  0  0  0  0  0
   14.0464    1.1793    0.6673 C   0  0  0  0  0  0  0  0  0  0  0  0
   15.4437    0.0093    3.8715 O   0  0  0  0  0  0  0  0  0  0  0  0
   11.9508    3.3123   -0.3330 N   0  0  0  0  0  0  0  0  0  0  0  0
    7.8002   -0.4147    2.0322 C   0  0  0  0  0  0  0  0  0  0  0  0
   -3.7747   -5.1858    3.2314 C   0  0  0  0  0  0  0  0  0  0  0  0
   -3.6457   -5.4732   -0.1838 H   0  0  0  0  0  0  0  0  0  0  0  0
   -2.1765   -5.4238    0.8182 H   0  0  0  0  0  0  0  0  0  0  0  0
   -3.4660   -6.7113    1.1339 H   0  0  0  0  0  0  0  0  0  0  0  0
   -5.0206   -4.6959    1.5417 H   0  0  0  0  0  0  0  0  0  0  0  0
   -2.2042   -3.4989    1.9382 H   0  0  0  0  0  0  0  0  0  0  0  0
   -3.6426   -2.6720    2.5188 H   0  0  0  0  0  0  0  0  0  0  0  0
   -2.9045   -3.4283   -0.3631 H   0  0  0  0  0  0  0  0  0  0  0  0
   -4.9980   -0.4231    0.3268 H   0  0  0  0  0  0  0  0  0  0  0  0
   -6.9746   -1.8975   -1.2103 H   0  0  0  0  0  0  0  0  0  0  0  0
   -6.6699    2.6364   -2.1399 H   0  0  0  0  0  0  0  0  0  0  0  0
   -5.6093    3.0795   -0.7573 H   0  0  0  0  0  0  0  0  0  0  0  0
   -9.0743    2.9546   -1.9329 H   0  0  0  0  0  0  0  0  0  0  0  0
  -10.6486    4.8495    1.4953 H   0  0  0  0  0  0  0  0  0  0  0  0
   -6.5621    3.5218    1.4640 H   0  0  0  0  0  0  0  0  0  0  0  0
   -7.5359   -1.3884    1.7267 H   0  0  0  0  0  0  0  0  0  0  0  0
   -7.4625   -2.9317    0.7268 H   0  0  0  0  0  0  0  0  0  0  0  0
   -9.6421   -3.5289   -0.7830 H   0  0  0  0  0  0  0  0  0  0  0  0
  -12.0134   -2.6598   -0.8579 H   0  0  0  0  0  0  0  0  0  0  0  0
   -8.8734    0.6474    2.0086 H   0  0  0  0  0  0  0  0  0  0  0  0
  -10.7360    2.1270    2.5113 H   0  0  0  0  0  0  0  0  0  0  0  0
  -12.9535    1.6364    1.6434 H   0  0  0  0  0  0  0  0  0  0  0  0
  -13.3194   -0.3684    0.2512 H   0  0  0  0  0  0  0  0  0  0  0  0
   -3.0272   -0.6090    0.7941 H   0  0  0  0  0  0  0  0  0  0  0  0
   -0.5419    0.3085    0.6442 H   0  0  0  0  0  0  0  0  0  0  0  0
   -2.4524    0.8210   -1.1018 H   0  0  0  0  0  0  0  0  0  0  0  0
   -0.8770    1.7940   -1.2161 H   0  0  0  0  0  0  0  0  0  0  0  0
   -0.9759    0.8294   -3.4643 H   0  0  0  0  0  0  0  0  0  0  0  0
   -1.8919   -0.5935   -2.8779 H   0  0  0  0  0  0  0  0  0  0  0  0
    0.0489   -1.7252   -2.6233 H   0  0  0  0  0  0  0  0  0  0  0  0
    0.9656   -0.3297   -3.1765 H   0  0  0  0  0  0  0  0  0  0  0  0
    2.7953    0.2828   -2.5043 H   0  0  0  0  0  0  0  0  0  0  0  0
    2.3649   -2.1077   -2.3957 H   0  0  0  0  0  0  0  0  0  0  0  0
    3.5032   -2.2827   -0.9680 H   0  0  0  0  0  0  0  0  0  0  0  0
    3.2300   -1.6554   -4.5401 H   0  0  0  0  0  0  0  0  0  0  0  0
    5.1505   -1.9402   -6.1177 H   0  0  0  0  0  0  0  0  0  0  0  0
    7.3958   -2.3216   -5.1829 H   0  0  0  0  0  0  0  0  0  0  0  0
    7.7363   -2.4208   -2.6918 H   0  0  0  0  0  0  0  0  0  0  0  0
    5.8594   -2.1483   -1.2246 H   0  0  0  0  0  0  0  0  0  0  0  0
    4.9403   -0.1236   -0.4178 H   0  0  0  0  0  0  0  0  0  0  0  0
    6.1728    2.7854   -2.1814 H   0  0  0  0  0  0  0  0  0  0  0  0
    5.4133    3.4921   -0.7689 H   0  0  0  0  0  0  0  0  0  0  0  0
    7.7542    1.9129   -0.8389 H   0  0  0  0  0  0  0  0  0  0  0  0
    8.2349    1.6337    2.5253 H   0  0  0  0  0  0  0  0  0  0  0  0
    9.0511    0.4692   -0.1682 H   0  0  0  0  0  0  0  0  0  0  0  0
   10.5286    2.2201   -1.3715 H   0  0  0  0  0  0  0  0  0  0  0  0
   11.2973   -0.0027   -0.6986 H   0  0  0  0  0  0  0  0  0  0  0  0
   12.5980    0.9576   -1.4243 H   0  0  0  0  0  0  0  0  0  0  0  0
   11.4455   -0.6254    1.7039 H   0  0  0  0  0  0  0  0  0  0  0  0
   13.0229   -0.9902    3.6389 H   0  0  0  0  0  0  0  0  0  0  0  0
   15.8680    1.4539    1.6672 H   0  0  0  0  0  0  0  0  0  0  0  0
   14.3646    1.7992   -0.1586 H   0  0  0  0  0  0  0  0  0  0  0  0
   15.6046    0.7105    4.5866 H   0  0  0  0  0  0  0  0  0  0  0  0
   11.3147    4.0746    0.0478 H   0  0  0  0  0  0  0  0  0  0  0  0
   12.1792    3.6683   -1.3102 H   0  0  0  0  0  0  0  0  0  0  0  0
    6.6975   -0.5949    2.1892 H   0  0  0  0  0  0  0  0  0  0  0  0
    8.3894   -0.6857    2.9524 H   0  0  0  0  0  0  0  0  0  0  0  0
    8.1013   -1.1653    1.2527 H   0  0  0  0  0  0  0  0  0  0  0  0
   -2.7511   -5.5692    3.3650 H   0  0  0  0  0  0  0  0  0  0  0  0
   -3.8492   -4.2524    3.8722 H   0  0  0  0  0  0  0  0  0  0  0  0
   -4.5848   -5.8230    3.5714 H   0  0  0  0  0  0  0  0  0  0  0  0
  1  2  1  0
  2  3  1  0
  3  4  1  0
  4  5  1  0
  5  6  2  0
  5  7  1  0
  7  8  1  0
  8  9  1  0
  9 10  2  0
  9 11  1  0
 11 12  1  0
 12 13  1  0
 13 14  2  0
 14 15  1  0
 15 16  2  0
 16 17  1  0
 17 18  2  0
 17 19  1  0
 19 20  1  0
 19 21  1  0
 19 22  1  0
 15 23  1  0
 23 24  1  0
 23 25  1  0
 23 26  1  0
  8 27  1  0
 27 28  1  0
 28 29  2  0
 29 30  1  0
 30 31  1  0
 31 32  2  0
 32 33  1  0
 33 34  2  0
 34 35  1  0
 35 36  2  0
  4 37  1  0
 37 38  1  0
 38 39  2  0
 38 40  1  0
 40 41  1  0
 41 42  1  0
 42 43  1  0
 43 44  1  0
 44 45  1  0
 45 46  2  0
 45 47  1  0
 47 48  1  0
 48 49  1  0
 49 50  2  0
 50 51  1  0
 51 52  2  0
 52 53  1  0
 53 54  2  0
 47 55  1  0
 55 56  1  0
 56 57  2  0
 56 58  1  0
 58 59  1  0
 59 60  1  0
 60 61  2  0
 60 62  1  0
 62 63  1  0
 63 64  1  0
 64 65  2  0
 64 66  1  0
 66 67  1  0
 67 68  1  0
 68 69  2  0
 69 70  1  0
 70 71  2  0
 71 72  1  0
 72 73  2  0
 71 74  1  0
 66 75  1  0
 62 76  1  0
  2 77  1  0
 18 13  1  0
 32 28  1  0
 44 40  1  0
 54 49  1  0
 73 68  1  0
 36 31  1  0
  1 78  1  0
  1 79  1  0
  1 80  1  0
  2 81  1  0
  3 82  1  0
  3 83  1  0
  4 84  1  6
  7 85  1  0
  8 86  1  6
 12 87  1  0
 12 88  1  0
 14 89  1  0
 16 90  1  0
 18 91  1  0
 27 92  1  0
 27 93  1  0
 29 94  1  0
 30 95  1  0
 33 96  1  0
 34 97  1  0
 35 98  1  0
 36 99  1  0
 37100  1  0
 40101  1  1
 41102  1  0
 41103  1  0
 42104  1  0
 42105  1  0
 43106  1  0
 43107  1  0
 47108  1  6
 48109  1  0
 48110  1  0
 50111  1  0
 51112  1  0
 52113  1  0
 53114  1  0
 54115  1  0
 55116  1  0
 58117  1  0
 58118  1  0
 59119  1  0
 62120  1  1
 63121  1  0
 66122  1  6
 67123  1  0
 67124  1  0
 69125  1  0
 70126  1  0
 72127  1  0
 73128  1  0
 74129  1  0
 75130  1  0
 75131  1  0
 76132  1  0
 76133  1  0
 76134  1  0
 77135  1  0
 77136  1  0
 77137  1  0
M  END
>  <Ligand ID>  (1) 
LIG0005388

>  <Ligand>  (1) 
H-Tyr-D-Ala-Gly Phe-Pro-Leu-Trp-O-3,5-Bzl(CF3)2

>  <SMILES>  (1) 
CC(C[C@@H](C(=O)N[C@H](C(=O)OCc1cc(cc(c1)C(F)(F)F)C(F)(F)F)Cc1c[nH]c2c1cccc2)NC(=O)[C@@H]1CCCN1C(=O)[C@H](Cc1ccccc1)NC(=O)CNC(=O)[C@H](NC(=O)[C@H](Cc1ccc(cc1)O)N)C)C

>  <CID>  (1) 
24768351.0

>  <ChEMBL ID>  (1) 
nan

>  <InChiKey>  (1) 
XHJXRHNUFXHMEV-REAJPLCASA-N

>  <InChi>  (1) 
InChI=1S/C54H60F6N8O9/c1-30(2)20-42(49(73)67-44(25-35-27-62-41-13-8-7-12-39(35)41)52(76)77-29-34-21-36(53(55,56)57)26-37(22-34)54(58,59)60)66-50(74)45-14-9-19-68(45)51(75)43(24-32-10-5-4-6-11-32)65-46(70)28-63-47(71)31(3)64-48(72)40(61)23-33-15-17-38(69)18-16-33/h4-8,10-13,15-18,21-22,26-27,30-31,40,42-45,62,69H,9,14,19-20,23-25,28-29,61H2,1-3H3,(H,63,71)(H,64,72)(H,65,70)(H,66,74)(H,67,73)/t31-,40+,42+,43+,44+,45+/m1/s1

>  <IUPAC Name>  (1) 
[3,5-bis(trifluoromethyl)phenyl]methyl (2S)-2-[[(2S)-2-[[(2S)-1-[(2S)-2-[[2-[[(2R)-2-[[(2S)-2-amino-3-(4-hydroxyphenyl)propanoyl]amino]propanoyl]amino]acetyl]amino]-3-phenylpropanoyl]pyrrolidine-2-carbonyl]amino]-4-methylpentanoyl]amino]-3-(1H-indol-3-yl)propanoate

$$$$
