
     RDKit          3D

 66 69  0  0  0  0  0  0  0  0999 V2000
    7.1140   -1.7351    0.9065 C   0  0  0  0  0  0  0  0  0  0  0  0
    5.6403   -1.6297    0.5592 C   0  0  0  0  0  0  0  0  0  0  0  0
    5.4229   -1.6410   -0.9262 C   0  0  0  0  0  0  0  0  0  0  0  0
    3.9195   -1.3486   -1.1318 C   0  0  0  0  0  0  0  0  0  0  0  0
    3.1446   -2.3480   -0.4951 N   0  0  0  0  0  0  0  0  0  0  0  0
    3.3592   -2.4620    0.9146 C   0  0  0  0  0  0  0  0  0  0  0  0
    4.8442   -2.7472    1.1754 C   0  0  0  0  0  0  0  0  0  0  0  0
    1.7915   -2.4015   -0.8769 C   0  0  0  0  0  0  0  0  0  0  0  0
    0.9216   -1.3232   -0.5484 N   0  0  0  0  0  0  0  0  0  0  0  0
    0.8847   -0.0234   -1.0625 C   0  0  0  0  0  0  0  0  0  0  0  0
    1.6510    0.4127   -1.9567 O   0  0  0  0  0  0  0  0  0  0  0  0
   -0.1173    1.0031   -0.5670 C   0  0  2  0  0  0  0  0  0  0  0  0
    0.7037    2.1589   -0.0456 C   0  0  0  0  0  0  0  0  0  0  0  0
   -0.1573    3.2573    0.4799 C   0  0  0  0  0  0  0  0  0  0  0  0
   -0.4277    3.5968    1.7908 C   0  0  0  0  0  0  0  0  0  0  0  0
   -1.2613    4.6641    1.7916 N   0  0  0  0  0  0  0  0  0  0  0  0
   -1.5240    5.0070    0.5342 C   0  0  0  0  0  0  0  0  0  0  0  0
   -0.8582    4.1590   -0.3230 C   0  0  0  0  0  0  0  0  0  0  0  0
   -0.9918    4.3367   -1.6845 C   0  0  0  0  0  0  0  0  0  0  0  0
   -1.7658    5.3303   -2.2484 C   0  0  0  0  0  0  0  0  0  0  0  0
   -2.4275    6.1729   -1.3853 C   0  0  0  0  0  0  0  0  0  0  0  0
   -2.2989    6.0017   -0.0355 C   0  0  0  0  0  0  0  0  0  0  0  0
   -0.8946    0.3557    0.4614 N   0  0  0  0  0  0  0  0  0  0  0  0
   -2.3042    0.1709    0.2610 C   0  0  0  0  0  0  0  0  0  0  0  0
   -2.7840    0.5847   -0.8028 O   0  0  0  0  0  0  0  0  0  0  0  0
   -3.1023   -0.4628    1.2524 N   0  0  0  0  0  0  0  0  0  0  0  0
   -4.5089   -0.6912    1.1456 C   0  0  0  0  0  0  0  0  0  0  0  0
   -4.9081   -1.7969    0.2665 C   0  0  0  0  0  0  0  0  0  0  0  0
   -5.0383   -3.0911    0.7815 C   0  0  0  0  0  0  0  0  0  0  0  0
   -5.4101   -4.1587    0.0064 C   0  0  0  0  0  0  0  0  0  0  0  0
   -5.6683   -3.9682   -1.3283 C   0  0  0  0  0  0  0  0  0  0  0  0
   -5.5554   -2.7146   -1.8869 C   0  0  0  0  0  0  0  0  0  0  0  0
   -5.1802   -1.6666   -1.0798 C   0  0  0  0  0  0  0  0  0  0  0  0
    7.6683   -1.4264   -0.0036 H   0  0  0  0  0  0  0  0  0  0  0  0
    7.3425   -1.0047    1.7101 H   0  0  0  0  0  0  0  0  0  0  0  0
    7.3916   -2.7638    1.2149 H   0  0  0  0  0  0  0  0  0  0  0  0
    5.2184   -0.6851    0.9835 H   0  0  0  0  0  0  0  0  0  0  0  0
    6.0350   -0.8967   -1.4512 H   0  0  0  0  0  0  0  0  0  0  0  0
    5.6227   -2.6438   -1.3130 H   0  0  0  0  0  0  0  0  0  0  0  0
    3.7570   -0.3934   -0.6064 H   0  0  0  0  0  0  0  0  0  0  0  0
    3.7101   -1.2196   -2.1972 H   0  0  0  0  0  0  0  0  0  0  0  0
    2.6981   -3.1797    1.4087 H   0  0  0  0  0  0  0  0  0  0  0  0
    3.1772   -1.4669    1.3976 H   0  0  0  0  0  0  0  0  0  0  0  0
    5.0208   -2.8384    2.2703 H   0  0  0  0  0  0  0  0  0  0  0  0
    5.0859   -3.7213    0.6663 H   0  0  0  0  0  0  0  0  0  0  0  0
    1.3480   -3.3326   -0.3966 H   0  0  0  0  0  0  0  0  0  0  0  0
    1.6824   -2.6691   -1.9855 H   0  0  0  0  0  0  0  0  0  0  0  0
    0.1848   -1.5281    0.2008 H   0  0  0  0  0  0  0  0  0  0  0  0
   -0.7669    1.3137   -1.4302 H   0  0  0  0  0  0  0  0  0  0  0  0
    1.2926    2.5852   -0.8561 H   0  0  0  0  0  0  0  0  0  0  0  0
    1.3433    1.7759    0.7573 H   0  0  0  0  0  0  0  0  0  0  0  0
   -0.0242    3.0758    2.6511 H   0  0  0  0  0  0  0  0  0  0  0  0
   -1.6573    5.1657    2.6231 H   0  0  0  0  0  0  0  0  0  0  0  0
   -0.4647    3.6651   -2.3387 H   0  0  0  0  0  0  0  0  0  0  0  0
   -1.8430    5.4341   -3.3120 H   0  0  0  0  0  0  0  0  0  0  0  0
   -3.0507    6.9730   -1.7902 H   0  0  0  0  0  0  0  0  0  0  0  0
   -2.8352    6.6853    0.6082 H   0  0  0  0  0  0  0  0  0  0  0  0
   -0.4101    0.0406    1.3293 H   0  0  0  0  0  0  0  0  0  0  0  0
   -2.5721   -0.7732    2.1214 H   0  0  0  0  0  0  0  0  0  0  0  0
   -5.0798    0.2089    0.8336 H   0  0  0  0  0  0  0  0  0  0  0  0
   -4.9091   -0.9372    2.1581 H   0  0  0  0  0  0  0  0  0  0  0  0
   -4.8429   -3.2751    1.8271 H   0  0  0  0  0  0  0  0  0  0  0  0
   -5.5151   -5.1707    0.3938 H   0  0  0  0  0  0  0  0  0  0  0  0
   -5.9661   -4.7767   -1.9911 H   0  0  0  0  0  0  0  0  0  0  0  0
   -5.7549   -2.5293   -2.9487 H   0  0  0  0  0  0  0  0  0  0  0  0
   -5.0996   -0.6935   -1.5421 H   0  0  0  0  0  0  0  0  0  0  0  0
  1  2  1  0
  2  3  1  0
  3  4  1  0
  4  5  1  0
  5  6  1  0
  6  7  1  0
  5  8  1  0
  8  9  1  0
  9 10  1  0
 10 11  2  0
 10 12  1  0
 12 13  1  0
 13 14  1  0
 14 15  2  0
 15 16  1  0
 16 17  1  0
 17 18  2  0
 18 19  1  0
 19 20  2  0
 20 21  1  0
 21 22  2  0
 12 23  1  0
 23 24  1  0
 24 25  2  0
 24 26  1  0
 26 27  1  0
 27 28  1  0
 28 29  2  0
 29 30  1  0
 30 31  2  0
 31 32  1  0
 32 33  2  0
  7  2  1  0
 18 14  1  0
 33 28  1  0
 22 17  1  0
  1 34  1  0
  1 35  1  0
  1 36  1  0
  2 37  1  0
  3 38  1  0
  3 39  1  0
  4 40  1  0
  4 41  1  0
  6 42  1  0
  6 43  1  0
  7 44  1  0
  7 45  1  0
  8 46  1  0
  8 47  1  0
  9 48  1  0
 12 49  1  6
 13 50  1  0
 13 51  1  0
 15 52  1  0
 16 53  1  0
 19 54  1  0
 20 55  1  0
 21 56  1  0
 22 57  1  0
 23 58  1  0
 26 59  1  0
 27 60  1  0
 27 61  1  0
 29 62  1  0
 30 63  1  0
 31 64  1  0
 32 65  1  0
 33 66  1  0
M  END
>  <Ligand ID>  (1) 
LIG0001747

>  <Ligand>  (1) 
CHEMBL64967

>  <SMILES>  (1) 
CC1CCN(CC1)CNC(=O)[C@H](Cc1c[nH]c2c1cccc2)NC(=O)NCc1ccccc1

>  <CID>  (1) 
44305784.0

>  <ChEMBL ID>  (1) 
nan

>  <InChiKey>  (1) 
MYTYZMBNMDOGRW-DEOSSOPVSA-N

>  <InChi>  (1) 
InChI=1S/C26H33N5O2/c1-19-11-13-31(14-12-19)18-29-25(32)24(15-21-17-27-23-10-6-5-9-22(21)23)30-26(33)28-16-20-7-3-2-4-8-20/h2-10,17,19,24,27H,11-16,18H2,1H3,(H,29,32)(H2,28,30,33)/t24-/m0/s1

>  <IUPAC Name>  (1) 
(2S)-2-(benzylcarbamoylamino)-3-(1H-indol-3-yl)-N-[(4-methylpiperidin-1-yl)methyl]propanamide

$$$$
