
     RDKit          3D

 70 74  0  0  0  0  0  0  0  0999 V2000
    1.2614    0.3780   -2.1305 O   0  0  0  0  0  0  0  0  0  0  0  0
    2.0154    1.1630   -1.5065 C   0  0  0  0  0  0  0  0  0  0  0  0
    3.2919    0.7080   -0.8886 C   0  0  0  0  0  0  0  0  0  0  0  0
    3.5134   -0.7566   -1.1090 C   0  0  0  0  0  0  0  0  0  0  0  0
    4.7799   -1.1492   -0.4826 N   0  0  0  0  0  0  0  0  0  0  0  0
    4.8056   -1.5598    0.7932 C   0  0  0  0  0  0  0  0  0  0  0  0
    3.7884   -1.6321    1.4998 O   0  0  0  0  0  0  0  0  0  0  0  0
    6.0247   -1.9276    1.3713 C   0  0  0  0  0  0  0  0  0  0  0  0
    6.3175   -2.3797    2.6501 C   0  0  0  0  0  0  0  0  0  0  0  0
    7.6859   -2.6035    2.7051 C   0  0  0  0  0  0  0  0  0  0  0  0
    8.1895   -2.2784    1.4468 C   0  0  0  0  0  0  0  0  0  0  0  0
    7.1651   -1.8724    0.6586 N   0  0  0  0  0  0  0  0  0  0  0  0
    7.1320   -1.4563   -0.6309 C   0  0  0  0  0  0  0  0  0  0  0  0
    5.9297   -1.0908   -1.2088 C   0  0  0  0  0  0  0  0  0  0  0  0
    5.8293   -0.6730   -2.4738 N   0  0  0  0  0  0  0  0  0  0  0  0
    6.9306   -0.5941   -3.2435 C   0  0  0  0  0  0  0  0  0  0  0  0
    8.1595   -0.9571   -2.6865 C   0  0  0  0  0  0  0  0  0  0  0  0
    8.2863   -1.3876   -1.3946 C   0  0  0  0  0  0  0  0  0  0  0  0
    1.6410    2.5383   -1.3822 N   0  0  0  0  0  0  0  0  0  0  0  0
    0.4350    3.0792   -1.9390 C   0  0  0  0  0  0  0  0  0  0  0  0
   -0.8164    2.4361   -1.4108 C   0  0  0  0  0  0  0  0  0  0  0  0
   -0.8977    2.6137    0.0827 C   0  0  0  0  0  0  0  0  0  0  0  0
   -2.0768    2.0208    0.6261 N   0  0  0  0  0  0  0  0  0  0  0  0
   -2.1332    0.5859    0.5743 C   0  0  0  0  0  0  0  0  0  0  0  0
   -3.2557    0.1444    1.5215 C   0  0  0  0  0  0  0  0  0  0  0  0
   -4.5361    0.7170    1.0305 N   0  0  0  0  0  0  0  0  0  0  0  0
   -4.4875    2.1423    0.8220 C   0  0  0  0  0  0  0  0  0  0  0  0
   -3.2840    2.5389   -0.0123 C   0  0  0  0  0  0  0  0  0  0  0  0
   -5.6486   -0.1224    0.8547 C   0  0  0  0  0  0  0  0  0  0  0  0
   -5.7763   -1.1879    1.7533 C   0  0  0  0  0  0  0  0  0  0  0  0
   -6.8406   -2.0573    1.7136 C   0  0  0  0  0  0  0  0  0  0  0  0
   -6.9566   -3.1958    2.6913 C   0  0  0  0  0  0  0  0  0  0  0  0
   -7.8391   -1.9164    0.7788 C   0  0  0  0  0  0  0  0  0  0  0  0
   -7.7241   -0.8716   -0.1112 C   0  0  0  0  0  0  0  0  0  0  0  0
   -6.6401    0.0175   -0.0757 C   0  0  0  0  0  0  0  0  0  0  0  0
   -6.5811    1.0933   -1.0930 C   0  0  0  0  0  0  0  0  0  0  0  0
    3.2720    0.9175    0.2135 H   0  0  0  0  0  0  0  0  0  0  0  0
    4.1060    1.3097   -1.3301 H   0  0  0  0  0  0  0  0  0  0  0  0
    3.5236   -0.9724   -2.1971 H   0  0  0  0  0  0  0  0  0  0  0  0
    2.6692   -1.3179   -0.6451 H   0  0  0  0  0  0  0  0  0  0  0  0
    5.6258   -2.5380    3.4724 H   0  0  0  0  0  0  0  0  0  0  0  0
    8.2175   -2.9607    3.5722 H   0  0  0  0  0  0  0  0  0  0  0  0
    9.2094   -2.3312    1.1271 H   0  0  0  0  0  0  0  0  0  0  0  0
    6.8673   -0.2542   -4.2819 H   0  0  0  0  0  0  0  0  0  0  0  0
    9.0298   -0.8837   -3.3306 H   0  0  0  0  0  0  0  0  0  0  0  0
    9.2251   -1.6725   -0.9446 H   0  0  0  0  0  0  0  0  0  0  0  0
    2.3159    3.1597   -0.8425 H   0  0  0  0  0  0  0  0  0  0  0  0
    0.4219    2.9125   -3.0532 H   0  0  0  0  0  0  0  0  0  0  0  0
    0.4143    4.1666   -1.7405 H   0  0  0  0  0  0  0  0  0  0  0  0
   -1.6773    2.9399   -1.8707 H   0  0  0  0  0  0  0  0  0  0  0  0
   -0.8051    1.3434   -1.6194 H   0  0  0  0  0  0  0  0  0  0  0  0
   -1.0041    3.7255    0.2552 H   0  0  0  0  0  0  0  0  0  0  0  0
    0.0199    2.3166    0.6103 H   0  0  0  0  0  0  0  0  0  0  0  0
   -2.3109    0.1986   -0.4490 H   0  0  0  0  0  0  0  0  0  0  0  0
   -1.2055    0.1389    0.9717 H   0  0  0  0  0  0  0  0  0  0  0  0
   -3.3711   -0.9377    1.5003 H   0  0  0  0  0  0  0  0  0  0  0  0
   -3.0141    0.5873    2.5042 H   0  0  0  0  0  0  0  0  0  0  0  0
   -5.3733    2.6202    0.4194 H   0  0  0  0  0  0  0  0  0  0  0  0
   -4.3363    2.6528    1.8351 H   0  0  0  0  0  0  0  0  0  0  0  0
   -3.1751    3.6294   -0.0351 H   0  0  0  0  0  0  0  0  0  0  0  0
   -3.3426    2.0762   -1.0167 H   0  0  0  0  0  0  0  0  0  0  0  0
   -5.0376   -1.3748    2.5289 H   0  0  0  0  0  0  0  0  0  0  0  0
   -7.6600   -2.9813    3.5067 H   0  0  0  0  0  0  0  0  0  0  0  0
   -7.3120   -4.0801    2.0855 H   0  0  0  0  0  0  0  0  0  0  0  0
   -5.9478   -3.4789    3.0512 H   0  0  0  0  0  0  0  0  0  0  0  0
   -8.6835   -2.5905    0.7329 H   0  0  0  0  0  0  0  0  0  0  0  0
   -8.4991   -0.7263   -0.8718 H   0  0  0  0  0  0  0  0  0  0  0  0
   -7.0937    0.6325   -2.0067 H   0  0  0  0  0  0  0  0  0  0  0  0
   -5.5613    1.2952   -1.4804 H   0  0  0  0  0  0  0  0  0  0  0  0
   -7.1957    1.9709   -0.8769 H   0  0  0  0  0  0  0  0  0  0  0  0
  1  2  2  0
  2  3  1  0
  3  4  1  0
  4  5  1  0
  5  6  1  0
  6  7  2  0
  6  8  1  0
  8  9  2  0
  9 10  1  0
 10 11  2  0
 11 12  1  0
 12 13  1  0
 13 14  2  0
 14 15  1  0
 15 16  2  0
 16 17  1  0
 17 18  2  0
  2 19  1  0
 19 20  1  0
 20 21  1  0
 21 22  1  0
 22 23  1  0
 23 24  1  0
 24 25  1  0
 25 26  1  0
 26 27  1  0
 27 28  1  0
 26 29  1  0
 29 30  2  0
 30 31  1  0
 31 32  1  0
 31 33  2  0
 33 34  1  0
 34 35  2  0
 35 36  1  0
 14  5  1  0
 28 23  1  0
 35 29  1  0
 12  8  1  0
 18 13  1  0
  3 37  1  0
  3 38  1  0
  4 39  1  0
  4 40  1  0
  9 41  1  0
 10 42  1  0
 11 43  1  0
 16 44  1  0
 17 45  1  0
 18 46  1  0
 19 47  1  0
 20 48  1  0
 20 49  1  0
 21 50  1  0
 21 51  1  0
 22 52  1  0
 22 53  1  0
 24 54  1  0
 24 55  1  0
 25 56  1  0
 25 57  1  0
 27 58  1  0
 27 59  1  0
 28 60  1  0
 28 61  1  0
 30 62  1  0
 32 63  1  0
 32 64  1  0
 32 65  1  0
 33 66  1  0
 34 67  1  0
 36 68  1  0
 36 69  1  0
 36 70  1  0
M  END
>  <Ligand ID>  (1) 
LIG0003706

>  <Ligand>  (1) 
MLS-0362777.0001

>  <SMILES>  (1) 
O=C(CCn1c(=O)c2cccn2c2c1nccc2)NCCCN1CCN(CC1)c1cc(C)ccc1C

>  <CID>  (1) 
24791925.0

>  <ChEMBL ID>  (1) 
nan

>  <InChiKey>  (1) 
QVXDIUYYXRDRHV-UHFFFAOYSA-N

>  <InChi>  (1) 
InChI=1S/C28H34N6O2/c1-21-8-9-22(2)25(20-21)32-18-16-31(17-19-32)13-5-12-29-26(35)10-15-34-27-23(6-3-11-30-27)33-14-4-7-24(33)28(34)36/h3-4,6-9,11,14,20H,5,10,12-13,15-19H2,1-2H3,(H,29,35)

>  <IUPAC Name>  (1) 
N-[3-[4-(2,5-dimethylphenyl)piperazin-1-yl]propyl]-3-(7-oxo-2,8,10-triazatricyclo[7.4.0.02,6]trideca-1(9),3,5,10,12-pentaen-8-yl)propanamide

$$$$
