
     RDKit          3D

 26 26  0  0  0  0  0  0  0  0999 V2000
    3.1080    1.3794    0.3881 C   0  0  0  0  0  0  0  0  0  0  0  0
    2.7597   -0.0155    0.2468 N   0  0  0  0  0  0  0  0  0  0  0  0
    1.3866   -0.2131   -0.1432 C   0  0  2  0  0  0  0  0  0  0  0  0
    0.4131    0.3653    0.8645 C   0  0  0  0  0  0  0  0  0  0  0  0
   -1.0029    0.1592    0.4580 C   0  0  0  0  0  0  0  0  0  0  0  0
   -1.5948    1.1571   -0.3244 C   0  0  0  0  0  0  0  0  0  0  0  0
   -2.9174    1.0203   -0.7355 C   0  0  0  0  0  0  0  0  0  0  0  0
   -3.6228   -0.1195   -0.3521 C   0  0  0  0  0  0  0  0  0  0  0  0
   -3.0413   -1.1085    0.4214 C   0  0  0  0  0  0  0  0  0  0  0  0
   -1.7235   -0.9693    0.8294 C   0  0  0  0  0  0  0  0  0  0  0  0
    1.1621   -1.7157   -0.1709 C   0  0  0  0  0  0  0  0  0  0  0  0
    2.9441    1.9745   -0.5328 H   0  0  0  0  0  0  0  0  0  0  0  0
    2.6419    1.8541    1.2602 H   0  0  0  0  0  0  0  0  0  0  0  0
    4.2199    1.3940    0.5833 H   0  0  0  0  0  0  0  0  0  0  0  0
    3.3507   -0.4180   -0.5089 H   0  0  0  0  0  0  0  0  0  0  0  0
    1.1496    0.1544   -1.1421 H   0  0  0  0  0  0  0  0  0  0  0  0
    0.5764   -0.0551    1.8779 H   0  0  0  0  0  0  0  0  0  0  0  0
    0.6542    1.4455    0.9303 H   0  0  0  0  0  0  0  0  0  0  0  0
   -1.0038    2.0253   -0.5966 H   0  0  0  0  0  0  0  0  0  0  0  0
   -3.3783    1.7937   -1.3426 H   0  0  0  0  0  0  0  0  0  0  0  0
   -4.6489   -0.2196   -0.6745 H   0  0  0  0  0  0  0  0  0  0  0  0
   -3.6309   -1.9853    0.6990 H   0  0  0  0  0  0  0  0  0  0  0  0
   -1.2480   -1.7280    1.4337 H   0  0  0  0  0  0  0  0  0  0  0  0
    1.1380   -2.0307    0.8940 H   0  0  0  0  0  0  0  0  0  0  0  0
    0.2309   -1.9827   -0.7061 H   0  0  0  0  0  0  0  0  0  0  0  0
    2.0777   -2.1617   -0.6311 H   0  0  0  0  0  0  0  0  0  0  0  0
  1  2  1  0
  2  3  1  0
  3  4  1  0
  4  5  1  0
  5  6  2  0
  6  7  1  0
  7  8  2  0
  8  9  1  0
  9 10  2  0
  3 11  1  0
 10  5  1  0
  1 12  1  0
  1 13  1  0
  1 14  1  0
  2 15  1  0
  3 16  1  6
  4 17  1  0
  4 18  1  0
  6 19  1  0
  7 20  1  0
  8 21  1  0
  9 22  1  0
 10 23  1  0
 11 24  1  0
 11 25  1  0
 11 26  1  0
M  END
>  <Ligand ID>  (1) 
LIG0001096

>  <Ligand>  (1) 
METHAMPHETAMINE

>  <SMILES>  (1) 
CN[C@H](Cc1ccccc1)C

>  <CID>  (1) 
10836.0

>  <ChEMBL ID>  (1) 
nan

>  <InChiKey>  (1) 
MYWUZJCMWCOHBA-VIFPVBQESA-N

>  <InChi>  (1) 
InChI=1S/C10H15N/c1-9(11-2)8-10-6-4-3-5-7-10/h3-7,9,11H,8H2,1-2H3/t9-/m0/s1

>  <IUPAC Name>  (1) 
(2S)-N-methyl-1-phenylpropan-2-amine

$$$$
