
     RDKit          3D

 48 51  0  0  0  0  0  0  0  0999 V2000
    8.8033    0.0283    1.3808 O   0  0  0  0  0  0  0  0  0  0  0  0
    7.7853    0.8057    0.8097 C   0  0  0  0  0  0  0  0  0  0  0  0
    7.4230    1.8025    1.4975 O   0  0  0  0  0  0  0  0  0  0  0  0
    7.1928    0.4721   -0.4955 C   0  0  0  0  0  0  0  0  0  0  0  0
    5.8218   -0.1382   -0.3119 C   0  0  0  0  0  0  0  0  0  0  0  0
    4.8531    0.7789    0.3820 C   0  0  0  0  0  0  0  0  0  0  0  0
    3.5334    0.1953    0.5687 N   0  0  0  0  0  0  0  0  0  0  0  0
    2.8451    0.0179   -0.6857 C   0  0  0  0  0  0  0  0  0  0  0  0
    1.5232   -0.5860   -0.6011 C   0  0  0  0  0  0  0  0  0  0  0  0
    1.1710   -1.8902   -0.6327 C   0  0  0  0  0  0  0  0  0  0  0  0
   -0.1341   -2.2122   -0.5488 C   0  0  0  0  0  0  0  0  0  0  0  0
   -1.0267   -1.1924   -0.4359 C   0  0  0  0  0  0  0  0  0  0  0  0
   -0.0596    0.2902   -0.4419 S   0  0  0  0  0  0  0  0  0  0  0  0
   -2.4074   -1.3627   -0.3444 C   0  0  0  0  0  0  0  0  0  0  0  0
   -2.9606   -2.6498   -0.3661 C   0  0  0  0  0  0  0  0  0  0  0  0
   -2.0650   -3.6769   -0.4795 C   0  0  0  0  0  0  0  0  0  0  0  0
   -0.7042   -3.5055   -0.5694 C   0  0  0  0  0  0  0  0  0  0  0  0
   -3.3247   -0.2386   -0.2245 C   0  0  0  0  0  0  0  0  0  0  0  0
   -3.2012    0.9271   -0.9473 C   0  0  0  0  0  0  0  0  0  0  0  0
   -4.1175    1.9524   -0.8003 C   0  0  0  0  0  0  0  0  0  0  0  0
   -5.1878    1.8382    0.0781 C   0  0  0  0  0  0  0  0  0  0  0  0
   -5.3191    0.6533    0.8175 C   0  0  0  0  0  0  0  0  0  0  0  0
   -4.4011   -0.3603    0.6635 C   0  0  0  0  0  0  0  0  0  0  0  0
   -6.3838    0.5059    1.7055 C   0  0  0  0  0  0  0  0  0  0  0  0
   -7.3170    1.5186    1.8669 C   0  0  0  0  0  0  0  0  0  0  0  0
   -7.1889    2.6966    1.1330 C   0  0  0  0  0  0  0  0  0  0  0  0
   -6.1152    2.8294    0.2466 C   0  0  0  0  0  0  0  0  0  0  0  0
    9.5149    0.5080    1.9515 H   0  0  0  0  0  0  0  0  0  0  0  0
    7.1742    1.3385   -1.1806 H   0  0  0  0  0  0  0  0  0  0  0  0
    7.8240   -0.3123   -0.9794 H   0  0  0  0  0  0  0  0  0  0  0  0
    5.9533   -1.0976    0.2330 H   0  0  0  0  0  0  0  0  0  0  0  0
    5.4265   -0.4133   -1.3121 H   0  0  0  0  0  0  0  0  0  0  0  0
    5.2635    0.9336    1.4208 H   0  0  0  0  0  0  0  0  0  0  0  0
    4.7892    1.7542   -0.1643 H   0  0  0  0  0  0  0  0  0  0  0  0
    2.9692    0.9127    1.1122 H   0  0  0  0  0  0  0  0  0  0  0  0
    2.7009    1.0661   -1.0852 H   0  0  0  0  0  0  0  0  0  0  0  0
    3.4170   -0.5411   -1.4372 H   0  0  0  0  0  0  0  0  0  0  0  0
    1.9788   -2.6680   -0.7274 H   0  0  0  0  0  0  0  0  0  0  0  0
   -4.0247   -2.7515   -0.2949 H   0  0  0  0  0  0  0  0  0  0  0  0
   -2.4736   -4.6835   -0.4996 H   0  0  0  0  0  0  0  0  0  0  0  0
   -0.1070   -4.3929   -0.6540 H   0  0  0  0  0  0  0  0  0  0  0  0
   -2.3797    1.0437   -1.6377 H   0  0  0  0  0  0  0  0  0  0  0  0
   -3.9984    2.8692   -1.3877 H   0  0  0  0  0  0  0  0  0  0  0  0
   -4.5329   -1.2766    1.2588 H   0  0  0  0  0  0  0  0  0  0  0  0
   -6.5111   -0.4098    2.2966 H   0  0  0  0  0  0  0  0  0  0  0  0
   -8.1477    1.3895    2.5667 H   0  0  0  0  0  0  0  0  0  0  0  0
   -7.8921    3.4967    1.2359 H   0  0  0  0  0  0  0  0  0  0  0  0
   -5.9823    3.7348   -0.3460 H   0  0  0  0  0  0  0  0  0  0  0  0
  1  2  1  0
  2  3  2  0
  2  4  1  0
  4  5  1  0
  5  6  1  0
  6  7  1  0
  7  8  1  0
  8  9  1  0
  9 10  2  0
 10 11  1  0
 11 12  2  0
 12 13  1  0
 12 14  1  0
 14 15  2  0
 15 16  1  0
 16 17  2  0
 14 18  1  0
 18 19  2  0
 19 20  1  0
 20 21  2  0
 21 22  1  0
 22 23  2  0
 22 24  1  0
 24 25  2  0
 25 26  1  0
 26 27  2  0
 13  9  1  0
 23 18  1  0
 17 11  1  0
 27 21  1  0
  1 28  1  0
  4 29  1  0
  4 30  1  0
  5 31  1  0
  5 32  1  0
  6 33  1  0
  6 34  1  0
  7 35  1  0
  8 36  1  0
  8 37  1  0
 10 38  1  0
 15 39  1  0
 16 40  1  0
 17 41  1  0
 19 42  1  0
 20 43  1  0
 23 44  1  0
 24 45  1  0
 25 46  1  0
 26 47  1  0
 27 48  1  0
M  END
>  <Ligand ID>  (1) 
LIG0001278

>  <Ligand>  (1) 
compound 5c [PMID: 27894870]

>  <SMILES>  (1) 
OC(=O)CCCNCc1cc2c(s1)c(ccc2)c1ccc2c(c1)cccc2

>  <CID>  (1) 
124221654.0

>  <ChEMBL ID>  (1) 
nan

>  <InChiKey>  (1) 
XDCOYBQVEVSNNB-UHFFFAOYSA-N

>  <InChi>  (1) 
InChI=1S/C23H21NO2S/c25-22(26)9-4-12-24-15-20-14-19-7-3-8-21(23(19)27-20)18-11-10-16-5-1-2-6-17(16)13-18/h1-3,5-8,10-11,13-14,24H,4,9,12,15H2,(H,25,26)

>  <IUPAC Name>  (1) 
4-[(7-naphthalen-2-yl-1-benzothiophen-2-yl)methylamino]butanoic acid

$$$$
