
     RDKit          3D

 33 36  0  0  0  0  0  0  0  0999 V2000
   -3.4188   -5.2592   -0.2236 N   0  0  0  0  0  0  0  0  0  0  0  0
   -2.8552   -4.2301   -0.1772 C   0  0  0  0  0  0  0  0  0  0  0  0
   -2.1735   -2.9670   -0.1430 C   0  0  0  0  0  0  0  0  0  0  0  0
   -0.7905   -2.9189   -0.0555 C   0  0  0  0  0  0  0  0  0  0  0  0
   -0.1564   -1.6982   -0.0240 C   0  0  0  0  0  0  0  0  0  0  0  0
    1.2357   -1.6351    0.0640 C   0  0  0  0  0  0  0  0  0  0  0  0
    1.9176   -2.6786    0.1147 O   0  0  0  0  0  0  0  0  0  0  0  0
    1.8159   -0.4017    0.0920 N   0  0  0  0  0  0  0  0  0  0  0  0
    3.1690   -0.3132    0.1772 C   0  0  0  0  0  0  0  0  0  0  0  0
    3.7716    0.9397    0.2065 C   0  0  0  0  0  0  0  0  0  0  0  0
    5.2466    1.1033    0.2990 C   0  0  0  0  0  0  0  0  0  0  0  0
    2.9756    2.0872    0.1478 C   0  0  0  0  0  0  0  0  0  0  0  0
    1.5982    1.9845    0.0611 C   0  0  0  0  0  0  0  0  0  0  0  0
    1.0458    0.7185    0.0351 C   0  0  0  0  0  0  0  0  0  0  0  0
   -0.3061    0.6371   -0.0502 N   0  0  0  0  0  0  0  0  0  0  0  0
   -0.9243   -0.5586   -0.0809 C   0  0  0  0  0  0  0  0  0  0  0  0
   -2.2671   -0.6386   -0.1655 N   0  0  0  0  0  0  0  0  0  0  0  0
   -2.9280   -1.8101   -0.1991 C   0  0  0  0  0  0  0  0  0  0  0  0
   -4.1725   -1.9002   -0.2775 O   0  0  0  0  0  0  0  0  0  0  0  0
   -3.0648    0.5428   -0.2246 C   0  0  0  0  0  0  0  0  0  0  0  0
   -3.9917    0.9742   -0.7149 N   0  0  0  0  0  0  0  0  0  0  0  0
   -4.5737    2.1504   -0.6173 C   0  0  0  0  0  0  0  0  0  0  0  0
   -3.9525    3.0205    0.2305 C   0  0  0  0  0  0  0  0  0  0  0  0
   -2.5041    2.0297    0.8548 S   0  0  0  0  0  0  0  0  0  0  0  0
   -0.1875   -3.8354   -0.0107 H   0  0  0  0  0  0  0  0  0  0  0  0
    3.7887   -1.2197    0.2230 H   0  0  0  0  0  0  0  0  0  0  0  0
    5.7427    0.1972    0.6675 H   0  0  0  0  0  0  0  0  0  0  0  0
    5.4682    1.9965    0.9340 H   0  0  0  0  0  0  0  0  0  0  0  0
    5.6838    1.3181   -0.7089 H   0  0  0  0  0  0  0  0  0  0  0  0
    3.4525    3.0764    0.1710 H   0  0  0  0  0  0  0  0  0  0  0  0
    0.9621    2.8578    0.0145 H   0  0  0  0  0  0  0  0  0  0  0  0
   -5.4822    2.4205   -1.1662 H   0  0  0  0  0  0  0  0  0  0  0  0
   -4.1252    4.0102    0.5464 H   0  0  0  0  0  0  0  0  0  0  0  0
  1  2  3  0
  2  3  1  0
  3  4  2  0
  4  5  1  0
  5  6  1  0
  6  7  2  0
  6  8  1  0
  8  9  1  0
  9 10  2  0
 10 11  1  0
 10 12  1  0
 12 13  2  0
 13 14  1  0
 14 15  2  0
 15 16  1  0
 16 17  1  0
 17 18  1  0
 18 19  2  0
 17 20  1  0
 20 21  2  0
 21 22  1  0
 22 23  2  0
 23 24  1  0
 18  3  1  0
 24 20  1  0
 16  5  2  0
 14  8  1  0
  4 25  1  0
  9 26  1  0
 11 27  1  0
 11 28  1  0
 11 29  1  0
 12 30  1  0
 13 31  1  0
 22 32  1  0
 23 33  1  0
M  END
>  <Ligand ID>  (1) 
LIG0001738

>  <Ligand>  (1) 
MLS000084423

>  <SMILES>  (1) 
N#Cc1cc2c(=O)n3cc(C)ccc3nc2n(c1=O)c1nccs1

>  <CID>  (1) 
665934.0

>  <ChEMBL ID>  (1) 
nan

>  <InChiKey>  (1) 
GMABSQHMTMQRTP-UHFFFAOYSA-N

>  <InChi>  (1) 
InChI=1S/C16H9N5O2S/c1-9-2-3-12-19-13-11(15(23)20(12)8-9)6-10(7-17)14(22)21(13)16-18-4-5-24-16/h2-6,8H,1H3

>  <IUPAC Name>  (1) 
13-methyl-2,6-dioxo-7-(1,3-thiazol-2-yl)-1,7,9-triazatricyclo[8.4.0.03,8]tetradeca-3(8),4,9,11,13-pentaene-5-carbonitrile

$$$$
