
     RDKit          3D

 17 16  0  0  0  0  0  0  0  0999 V2000
    2.5044    0.7125    0.1488 C   0  0  0  0  0  0  0  0  0  0  0  0
    1.3454   -0.0692   -0.3678 C   0  0  0  0  0  0  0  0  0  0  0  0
    0.1255    0.0543    0.4735 C   0  0  0  0  0  0  0  0  0  0  0  0
    0.0853    0.7278    1.4812 O   0  0  0  0  0  0  0  0  0  0  0  0
   -1.0826   -0.7019    0.0205 C   0  0  0  0  0  0  0  0  0  0  0  0
   -1.5100   -0.0251   -1.6228 S   0  0  0  0  0  0  0  0  0  0  0  0
   -2.2544   -0.4997    0.9513 C   0  0  0  0  0  0  0  0  0  0  0  0
    2.4675    1.7928   -0.1143 H   0  0  0  0  0  0  0  0  0  0  0  0
    2.6544    0.5622    1.2386 H   0  0  0  0  0  0  0  0  0  0  0  0
    3.4080    0.3201   -0.3816 H   0  0  0  0  0  0  0  0  0  0  0  0
    1.1787    0.2176   -1.4278 H   0  0  0  0  0  0  0  0  0  0  0  0
    1.6249   -1.1415   -0.3536 H   0  0  0  0  0  0  0  0  0  0  0  0
   -0.8855   -1.7921   -0.0381 H   0  0  0  0  0  0  0  0  0  0  0  0
   -1.9257    1.3027   -1.4551 H   0  0  0  0  0  0  0  0  0  0  0  0
   -2.0084   -0.8386    1.9662 H   0  0  0  0  0  0  0  0  0  0  0  0
   -3.0635   -1.1556    0.5617 H   0  0  0  0  0  0  0  0  0  0  0  0
   -2.6641    0.5338    0.8968 H   0  0  0  0  0  0  0  0  0  0  0  0
  1  2  1  0
  2  3  1  0
  3  4  2  0
  3  5  1  0
  5  6  1  0
  5  7  1  0
  1  8  1  0
  1  9  1  0
  1 10  1  0
  2 11  1  0
  2 12  1  0
  5 13  1  0
  6 14  1  0
  7 15  1  0
  7 16  1  0
  7 17  1  0
M  END
>  <Ligand ID>  (1) 
LIG0002060

>  <Ligand>  (1) 
2-Mercapto-3-pentanone

>  <SMILES>  (1) 
CCC(=O)C(S)C

>  <CID>  (1) 
529635.0

>  <ChEMBL ID>  (1) 
nan

>  <InChiKey>  (1) 
TWOGJUHCCNLYPC-UHFFFAOYSA-N

>  <InChi>  (1) 
InChI=1S/C5H10OS/c1-3-5(6)4(2)7/h4,7H,3H2,1-2H3

>  <IUPAC Name>  (1) 
2-sulfanylpentan-3-one

$$$$
