
     RDKit          3D

 54 56  0  0  0  0  0  0  0  0999 V2000
    4.0975   -2.4696    0.0631 O   0  0  0  0  0  0  0  0  0  0  0  0
    4.2032   -1.2753    0.5057 C   0  0  0  0  0  0  0  0  0  0  0  0
    5.5396   -0.7344    0.8423 C   0  0  2  0  0  0  0  0  0  0  0  0
    5.8197    0.5913    0.1872 C   0  0  0  0  0  0  0  0  0  0  0  0
    5.9541    0.5407   -1.1808 O   0  0  0  0  0  0  0  0  0  0  0  0
    6.2578    2.1329   -1.7014 P   0  0  0  0  0  0  0  0  0  0  0  0
    6.0318    2.2956   -3.1769 O   0  0  0  0  0  0  0  0  0  0  0  0
    5.1544    3.1196   -0.8838 O   0  0  0  0  0  0  0  0  0  0  0  0
    7.8062    2.5726   -1.2323 O   0  0  0  0  0  0  0  0  0  0  0  0
    6.5887   -1.7065    0.6054 N   0  0  0  0  0  0  0  0  0  0  0  0
    5.5685   -0.4720    2.3517 C   0  0  0  0  0  0  0  0  0  0  0  0
    3.0701   -0.4371    0.6886 N   0  0  0  0  0  0  0  0  0  0  0  0
    1.7979   -0.9832    0.3570 C   0  0  0  0  0  0  0  0  0  0  0  0
    1.3156   -0.8276   -0.9458 C   0  0  0  0  0  0  0  0  0  0  0  0
    0.0901   -1.3346   -1.3271 C   0  0  0  0  0  0  0  0  0  0  0  0
   -0.6603   -2.0112   -0.3724 C   0  0  0  0  0  0  0  0  0  0  0  0
   -0.2188   -2.1861    0.9257 C   0  0  0  0  0  0  0  0  0  0  0  0
    1.0220   -1.6682    1.2969 C   0  0  0  0  0  0  0  0  0  0  0  0
   -1.8959   -2.5161   -0.7769 O   0  0  0  0  0  0  0  0  0  0  0  0
   -3.0100   -1.7001   -0.6401 C   0  0  0  0  0  0  0  0  0  0  0  0
   -4.2537   -2.1507   -1.0216 C   0  0  0  0  0  0  0  0  0  0  0  0
   -5.3619   -1.3425   -0.8868 C   0  0  0  0  0  0  0  0  0  0  0  0
   -5.2606   -0.0613   -0.3673 C   0  0  0  0  0  0  0  0  0  0  0  0
   -4.0120    0.4083    0.0224 C   0  0  0  0  0  0  0  0  0  0  0  0
   -2.9186   -0.4145   -0.1205 C   0  0  0  0  0  0  0  0  0  0  0  0
   -6.4393    0.8046   -0.2208 C   0  0  0  0  0  0  0  0  0  0  0  0
   -6.5187    1.7443    0.8048 C   0  0  0  0  0  0  0  0  0  0  0  0
   -7.6368    2.5507    0.9271 C   0  0  0  0  0  0  0  0  0  0  0  0
   -8.6738    2.4101    0.0167 C   0  0  0  0  0  0  0  0  0  0  0  0
   -8.5959    1.4721   -1.0080 C   0  0  0  0  0  0  0  0  0  0  0  0
   -7.4688    0.6558   -1.1353 C   0  0  0  0  0  0  0  0  0  0  0  0
    6.8064    0.9326    0.5870 H   0  0  0  0  0  0  0  0  0  0  0  0
    5.0504    1.3048    0.5300 H   0  0  0  0  0  0  0  0  0  0  0  0
    4.2619    2.6758   -0.7710 H   0  0  0  0  0  0  0  0  0  0  0  0
    7.8324    3.5596   -1.1164 H   0  0  0  0  0  0  0  0  0  0  0  0
    6.2988   -2.3529   -0.1852 H   0  0  0  0  0  0  0  0  0  0  0  0
    6.6808   -2.3715    1.4311 H   0  0  0  0  0  0  0  0  0  0  0  0
    5.6924   -1.4496    2.9021 H   0  0  0  0  0  0  0  0  0  0  0  0
    6.4362    0.1532    2.6362 H   0  0  0  0  0  0  0  0  0  0  0  0
    4.6544    0.0195    2.6881 H   0  0  0  0  0  0  0  0  0  0  0  0
    3.1376    0.5471    1.0512 H   0  0  0  0  0  0  0  0  0  0  0  0
    1.8931   -0.3023   -1.6961 H   0  0  0  0  0  0  0  0  0  0  0  0
   -0.2934   -1.2150   -2.3493 H   0  0  0  0  0  0  0  0  0  0  0  0
   -0.8038   -2.7127    1.6674 H   0  0  0  0  0  0  0  0  0  0  0  0
    1.3782   -1.7968    2.3031 H   0  0  0  0  0  0  0  0  0  0  0  0
   -4.3986   -3.1494   -1.4373 H   0  0  0  0  0  0  0  0  0  0  0  0
   -6.3379   -1.6684   -1.1754 H   0  0  0  0  0  0  0  0  0  0  0  0
   -3.8771    1.3972    0.4326 H   0  0  0  0  0  0  0  0  0  0  0  0
   -1.9583   -0.0271    0.1895 H   0  0  0  0  0  0  0  0  0  0  0  0
   -5.6906    1.8325    1.5040 H   0  0  0  0  0  0  0  0  0  0  0  0
   -7.7324    3.2946    1.7156 H   0  0  0  0  0  0  0  0  0  0  0  0
   -9.5673    3.0220    0.0771 H   0  0  0  0  0  0  0  0  0  0  0  0
   -9.4184    1.3633   -1.7268 H   0  0  0  0  0  0  0  0  0  0  0  0
   -7.4368   -0.0642   -1.9419 H   0  0  0  0  0  0  0  0  0  0  0  0
  1  2  2  0
  2  3  1  0
  3  4  1  0
  4  5  1  0
  5  6  1  0
  6  7  2  0
  6  8  1  0
  6  9  1  0
  3 10  1  1
  3 11  1  0
  2 12  1  0
 12 13  1  0
 13 14  2  0
 14 15  1  0
 15 16  2  0
 16 17  1  0
 17 18  2  0
 16 19  1  0
 19 20  1  0
 20 21  2  0
 21 22  1  0
 22 23  2  0
 23 24  1  0
 24 25  2  0
 23 26  1  0
 26 27  2  0
 27 28  1  0
 28 29  2  0
 29 30  1  0
 30 31  2  0
 18 13  1  0
 25 20  1  0
 31 26  1  0
  4 32  1  0
  4 33  1  0
  8 34  1  0
  9 35  1  0
 10 36  1  0
 10 37  1  0
 11 38  1  0
 11 39  1  0
 11 40  1  0
 12 41  1  0
 14 42  1  0
 15 43  1  0
 17 44  1  0
 18 45  1  0
 21 46  1  0
 22 47  1  0
 24 48  1  0
 25 49  1  0
 27 50  1  0
 28 51  1  0
 29 52  1  0
 30 53  1  0
 31 54  1  0
M  END
>  <Ligand ID>  (1) 
LIG0005094

>  <Ligand>  (1) 
CHEMBL515603

>  <SMILES>  (1) 
O=C([C@](COP(=O)(O)O)(N)C)Nc1ccc(cc1)Oc1ccc(cc1)c1ccccc1

>  <CID>  (1) 
11690779.0

>  <ChEMBL ID>  (1) 
nan

>  <InChiKey>  (1) 
BPFTXGAARBAJDP-QFIPXVFZSA-N

>  <InChi>  (1) 
InChI=1S/C22H23N2O6P/c1-22(23,15-29-31(26,27)28)21(25)24-18-9-13-20(14-10-18)30-19-11-7-17(8-12-19)16-5-3-2-4-6-16/h2-14H,15,23H2,1H3,(H,24,25)(H2,26,27,28)/t22-/m0/s1

>  <IUPAC Name>  (1) 
[(2S)-2-amino-2-methyl-3-oxo-3-[4-(4-phenylphenoxy)anilino]propyl] dihydrogen phosphate

$$$$
