
     RDKit          3D

 35 38  0  0  0  0  0  0  0  0999 V2000
   -3.7047    3.0381   -0.5062 N   0  0  0  0  0  0  0  0  0  0  0  0
   -2.6083    3.0951    0.2895 C   0  0  0  0  0  0  0  0  0  0  0  0
   -1.8843    1.9328    0.4833 C   0  0  0  0  0  0  0  0  0  0  0  0
   -2.2092    0.7284   -0.0811 C   0  0  0  0  0  0  0  0  0  0  0  0
   -3.3502    0.7213   -0.8944 C   0  0  0  0  0  0  0  0  0  0  0  0
   -4.0741    1.8792   -1.0892 C   0  0  0  0  0  0  0  0  0  0  0  0
   -1.5048   -0.5113    0.0629 C   0  0  0  0  0  0  0  0  0  0  0  0
   -2.2626   -1.6330    0.4222 C   0  0  0  0  0  0  0  0  0  0  0  0
   -1.6927   -2.8768    0.5875 C   0  0  0  0  0  0  0  0  0  0  0  0
   -0.3401   -3.0638    0.4029 C   0  0  0  0  0  0  0  0  0  0  0  0
    0.4150   -1.9657    0.0490 C   0  0  0  0  0  0  0  0  0  0  0  0
   -0.1556   -0.6985   -0.1210 C   0  0  0  0  0  0  0  0  0  0  0  0
    0.7464    0.3910   -0.4956 C   0  0  1  0  0  0  0  0  0  0  0  0
    1.5596    0.9935    0.5878 C   0  0  0  0  0  0  0  0  0  0  0  0
    2.8400    0.3286    0.5716 N   0  0  0  0  0  0  0  0  0  0  0  0
    2.9933   -0.2745   -0.5996 C   0  0  0  0  0  0  0  0  0  0  0  0
    1.8185   -0.0688   -1.4853 C   0  0  0  0  0  0  0  0  0  0  0  0
    4.1872   -0.8923   -0.6110 N   0  0  0  0  0  0  0  0  0  0  0  0
    4.8212   -0.6932    0.5603 C   0  0  0  0  0  0  0  0  0  0  0  0
    3.9417    0.0918    1.3052 C   0  0  0  0  0  0  0  0  0  0  0  0
   -2.2967    4.0110    0.7642 H   0  0  0  0  0  0  0  0  0  0  0  0
   -1.0255    2.0043    1.1257 H   0  0  0  0  0  0  0  0  0  0  0  0
   -3.6980   -0.1660   -1.3870 H   0  0  0  0  0  0  0  0  0  0  0  0
   -4.9685    1.9126   -1.7160 H   0  0  0  0  0  0  0  0  0  0  0  0
   -3.3396   -1.5350    0.5798 H   0  0  0  0  0  0  0  0  0  0  0  0
   -2.3395   -3.7061    0.8675 H   0  0  0  0  0  0  0  0  0  0  0  0
    0.0674   -4.0557    0.5425 H   0  0  0  0  0  0  0  0  0  0  0  0
    1.4749   -2.1398   -0.0899 H   0  0  0  0  0  0  0  0  0  0  0  0
    0.2092    1.2136   -1.0518 H   0  0  0  0  0  0  0  0  0  0  0  0
    1.7106    2.0797    0.3722 H   0  0  0  0  0  0  0  0  0  0  0  0
    1.1429    0.8687    1.6034 H   0  0  0  0  0  0  0  0  0  0  0  0
    2.0082    0.6526   -2.2787 H   0  0  0  0  0  0  0  0  0  0  0  0
    1.5384   -1.0285   -1.9607 H   0  0  0  0  0  0  0  0  0  0  0  0
    5.8029   -1.0543    0.8789 H   0  0  0  0  0  0  0  0  0  0  0  0
    4.1772    0.4212    2.3108 H   0  0  0  0  0  0  0  0  0  0  0  0
  1  2  2  0
  2  3  1  0
  3  4  2  0
  4  5  1  0
  5  6  2  0
  4  7  1  0
  7  8  2  0
  8  9  1  0
  9 10  2  0
 10 11  1  0
 11 12  2  0
 12 13  1  0
 13 14  1  0
 14 15  1  0
 15 16  1  0
 16 17  1  0
 16 18  2  0
 18 19  1  0
 19 20  2  0
  6  1  1  0
 12  7  1  0
 17 13  1  0
 20 15  1  0
  2 21  1  0
  3 22  1  0
  5 23  1  0
  6 24  1  0
  8 25  1  0
  9 26  1  0
 10 27  1  0
 11 28  1  0
 13 29  1  6
 14 30  1  0
 14 31  1  0
 17 32  1  0
 17 33  1  0
 19 34  1  0
 20 35  1  0
M  END
>  <Ligand ID>  (1) 
LIG0002429

>  <Ligand>  (1) 
CHEMBL512289

>  <SMILES>  (1) 
n1ccc(cc1)c1ccccc1[C@H]1Cn2c(C1)ncc2

>  <CID>  (1) 
44574079.0

>  <ChEMBL ID>  (1) 
nan

>  <InChiKey>  (1) 
PEIDTOAIWXQRBC-CQSZACIVSA-N

>  <InChi>  (1) 
InChI=1S/C17H15N3/c1-2-4-16(14-11-17-19-9-10-20(17)12-14)15(3-1)13-5-7-18-8-6-13/h1-10,14H,11-12H2/t14-/m1/s1

>  <IUPAC Name>  (1) 
(6S)-6-(2-pyridin-4-ylphenyl)-6,7-dihydro-5H-pyrrolo[1,2-a]imidazole

$$$$
