
     RDKit          3D

 16 16  0  0  0  0  0  0  0  0999 V2000
    1.9105   -1.1751    0.4208 O   0  0  0  0  0  0  0  0  0  0  0  0
    1.2704   -0.8780   -0.7978 C   0  0  0  0  0  0  0  0  0  0  0  0
    0.6342    0.4531   -0.7162 C   0  0  0  0  0  0  0  0  0  0  0  0
    1.0864    1.5924   -1.2726 N   0  0  0  0  0  0  0  0  0  0  0  0
    0.2541    2.5108   -0.9688 O   0  0  0  0  0  0  0  0  0  0  0  0
   -0.7145    2.0799   -0.2567 N   0  0  0  0  0  0  0  0  0  0  0  0
   -0.5369    0.7609   -0.0534 C   0  0  0  0  0  0  0  0  0  0  0  0
   -1.4100   -0.0917    0.7010 C   0  0  0  0  0  0  0  0  0  0  0  0
   -2.4663    0.3782    1.2511 O   0  0  0  0  0  0  0  0  0  0  0  0
   -1.1890   -1.4782    0.8970 N   0  0  0  0  0  0  0  0  0  0  0  0
   -1.7833    2.7904    0.2468 O   0  0  0  0  0  0  0  0  0  0  0  0
    2.4685   -0.3769    0.6382 H   0  0  0  0  0  0  0  0  0  0  0  0
    2.1243   -0.8773   -1.5386 H   0  0  0  0  0  0  0  0  0  0  0  0
    0.5818   -1.7048   -1.0291 H   0  0  0  0  0  0  0  0  0  0  0  0
   -1.4803   -2.1220    0.1170 H   0  0  0  0  0  0  0  0  0  0  0  0
   -0.7501   -1.8617    1.7874 H   0  0  0  0  0  0  0  0  0  0  0  0
  1  2  1  0
  2  3  1  0
  3  4  2  0
  4  5  1  0
  5  6  1  0
  6  7  2  0
  7  8  1  0
  8  9  2  0
  8 10  1  0
  6 11  1  0
  7  3  1  0
  1 12  1  0
  2 13  1  0
  2 14  1  0
 10 15  1  0
 10 16  1  0
M  CHG  2   6   1  11  -1
M  END
>  <Ligand ID>  (1) 
LIG0002117

>  <Ligand>  (1) 
CHEMBL206100

>  <SMILES>  (1) 
OCc1no[n+](c1C(=O)N)[O-]

>  <CID>  (1) 
10103414.0

>  <ChEMBL ID>  (1) 
nan

>  <InChiKey>  (1) 
IPHRXVUYWVWSTP-UHFFFAOYSA-N

>  <InChi>  (1) 
InChI=1S/C4H5N3O4/c5-4(9)3-2(1-8)6-11-7(3)10/h8H,1H2,(H2,5,9)

>  <IUPAC Name>  (1) 
4-(hydroxymethyl)-2-oxido-1,2,5-oxadiazol-2-ium-3-carboxamide

$$$$
