
     RDKit          3D

 39 41  0  0  0  0  0  0  0  0999 V2000
    5.7293   -0.5472   -0.7198 C   0  0  0  0  0  0  0  0  0  0  0  0
    4.4913   -1.3142   -1.1337 C   0  0  0  0  0  0  0  0  0  0  0  0
    3.4150   -1.1491   -0.1625 N   0  0  0  0  0  0  0  0  0  0  0  0
    3.1672   -1.9048    0.9046 N   0  0  0  0  0  0  0  0  0  0  0  0
    2.0896   -1.4205    1.5379 C   0  0  0  0  0  0  0  0  0  0  0  0
    1.6346   -0.2998    0.8317 C   0  0  0  0  0  0  0  0  0  0  0  0
    2.4848   -0.1664   -0.2154 C   0  0  0  0  0  0  0  0  0  0  0  0
    0.4841    0.4624    1.2707 C   0  0  0  0  0  0  0  0  0  0  0  0
    0.4913    0.8602    2.6131 C   0  0  0  0  0  0  0  0  0  0  0  0
   -0.5295    1.6048    3.1606 C   0  0  0  0  0  0  0  0  0  0  0  0
   -1.5705    1.9475    2.3270 C   0  0  0  0  0  0  0  0  0  0  0  0
   -1.5770    1.5535    0.9996 C   0  0  0  0  0  0  0  0  0  0  0  0
   -0.5692    0.8083    0.4273 C   0  0  0  0  0  0  0  0  0  0  0  0
   -0.5820    0.4027   -0.9119 N   0  0  0  0  0  0  0  0  0  0  0  0
   -1.6120    0.6934   -1.8793 C   0  0  0  0  0  0  0  0  0  0  0  0
   -2.9317    0.0846   -1.5414 C   0  0  0  0  0  0  0  0  0  0  0  0
   -4.0818    0.6230   -1.3962 N   0  0  0  0  0  0  0  0  0  0  0  0
   -5.0897   -0.3590   -1.0664 C   0  0  0  0  0  0  0  0  0  0  0  0
   -4.2537   -1.4830   -0.4948 C   0  0  0  0  0  0  0  0  0  0  0  0
   -3.0533   -1.3385   -1.3312 N   0  0  0  0  0  0  0  0  0  0  0  0
    6.0966    0.0916   -1.5610 H   0  0  0  0  0  0  0  0  0  0  0  0
    6.5683   -1.2345   -0.4665 H   0  0  0  0  0  0  0  0  0  0  0  0
    5.4577    0.0978    0.1615 H   0  0  0  0  0  0  0  0  0  0  0  0
    4.7275   -2.4094   -1.1401 H   0  0  0  0  0  0  0  0  0  0  0  0
    4.1763   -1.0215   -2.1549 H   0  0  0  0  0  0  0  0  0  0  0  0
    1.6468   -1.8328    2.4479 H   0  0  0  0  0  0  0  0  0  0  0  0
    2.4513    0.5811   -0.9634 H   0  0  0  0  0  0  0  0  0  0  0  0
    1.3209    0.5839    3.2662 H   0  0  0  0  0  0  0  0  0  0  0  0
   -0.4684    1.8818    4.2024 H   0  0  0  0  0  0  0  0  0  0  0  0
   -2.3804    2.5322    2.7402 H   0  0  0  0  0  0  0  0  0  0  0  0
   -2.4314    1.8723    0.4207 H   0  0  0  0  0  0  0  0  0  0  0  0
    0.2420   -0.1811   -1.2489 H   0  0  0  0  0  0  0  0  0  0  0  0
   -1.2905    0.3172   -2.8688 H   0  0  0  0  0  0  0  0  0  0  0  0
   -1.7347    1.7981   -1.9465 H   0  0  0  0  0  0  0  0  0  0  0  0
   -5.5319   -0.7262   -2.0224 H   0  0  0  0  0  0  0  0  0  0  0  0
   -5.8608    0.0148   -0.3646 H   0  0  0  0  0  0  0  0  0  0  0  0
   -3.9776   -1.1938    0.5422 H   0  0  0  0  0  0  0  0  0  0  0  0
   -4.7164   -2.4710   -0.5726 H   0  0  0  0  0  0  0  0  0  0  0  0
   -2.4321   -2.0833   -1.6911 H   0  0  0  0  0  0  0  0  0  0  0  0
  1  2  1  0
  2  3  1  0
  3  4  1  0
  4  5  2  0
  5  6  1  0
  6  7  2  0
  6  8  1  0
  8  9  2  0
  9 10  1  0
 10 11  2  0
 11 12  1  0
 12 13  2  0
 13 14  1  0
 14 15  1  0
 15 16  1  0
 16 17  2  0
 17 18  1  0
 18 19  1  0
 19 20  1  0
  7  3  1  0
 13  8  1  0
 20 16  1  0
  1 21  1  0
  1 22  1  0
  1 23  1  0
  2 24  1  0
  2 25  1  0
  5 26  1  0
  7 27  1  0
  9 28  1  0
 10 29  1  0
 11 30  1  0
 12 31  1  0
 14 32  1  0
 15 33  1  0
 15 34  1  0
 18 35  1  0
 18 36  1  0
 19 37  1  0
 19 38  1  0
 20 39  1  0
M  END
>  <Ligand ID>  (1) 
LIG0004389

>  <Ligand>  (1) 
CHEMBL276733

>  <SMILES>  (1) 
CCn1ncc(c1)c1ccccc1NCC1=NCCN1

>  <CID>  (1) 
22493316.0

>  <ChEMBL ID>  (1) 
nan

>  <InChiKey>  (1) 
UKWYQJMWISEHPK-UHFFFAOYSA-N

>  <InChi>  (1) 
InChI=1S/C15H19N5/c1-2-20-11-12(9-19-20)13-5-3-4-6-14(13)18-10-15-16-7-8-17-15/h3-6,9,11,18H,2,7-8,10H2,1H3,(H,16,17)

>  <IUPAC Name>  (1) 
N-(4,5-dihydro-1H-imidazol-2-ylmethyl)-2-(1-ethylpyrazol-4-yl)aniline

$$$$
