
     RDKit          3D

 62 64  0  0  0  0  0  0  0  0999 V2000
    9.8346    1.0703    0.8539 C   0  0  0  0  0  0  0  0  0  0  0  0
    9.4020    0.7560   -0.5405 C   0  0  0  0  0  0  0  0  0  0  0  0
    8.5304   -0.3420   -0.5288 O   0  0  0  0  0  0  0  0  0  0  0  0
    7.3319   -0.3134    0.1301 C   0  0  0  0  0  0  0  0  0  0  0  0
    6.5557   -1.4756    0.0788 C   0  0  0  0  0  0  0  0  0  0  0  0
    5.3317   -1.5408    0.7121 C   0  0  0  0  0  0  0  0  0  0  0  0
    4.8149   -0.4569    1.4288 C   0  0  0  0  0  0  0  0  0  0  0  0
    5.5935    0.6824    1.4693 C   0  0  0  0  0  0  0  0  0  0  0  0
    6.8175    0.7443    0.8344 C   0  0  0  0  0  0  0  0  0  0  0  0
    3.2729   -0.5175    2.2357 S   0  0  0  0  0  0  0  0  0  0  0  0
    2.8921   -1.9409    2.5743 O   0  0  0  0  0  0  0  0  0  0  0  0
    3.4263    0.2687    3.5293 O   0  0  0  0  0  0  0  0  0  0  0  0
    2.0747    0.2403    1.2850 N   0  0  0  0  0  0  0  0  0  0  0  0
    1.6483   -0.1331    0.0011 C   0  0  0  0  0  0  0  0  0  0  0  0
    2.4333   -0.3808   -1.0877 C   0  0  0  0  0  0  0  0  0  0  0  0
    1.9247   -0.7323   -2.3366 C   0  0  0  0  0  0  0  0  0  0  0  0
    0.5592   -0.8321   -2.4706 C   0  0  0  0  0  0  0  0  0  0  0  0
   -0.2760   -0.5936   -1.4095 C   0  0  0  0  0  0  0  0  0  0  0  0
    0.2667   -0.2488   -0.1915 C   0  0  0  0  0  0  0  0  0  0  0  0
   -1.7085   -0.7213   -1.6392 C   0  0  0  0  0  0  0  0  0  0  0  0
   -2.1106   -1.0408   -2.7868 O   0  0  0  0  0  0  0  0  0  0  0  0
   -2.6871   -0.5036   -0.6313 N   0  0  0  0  0  0  0  0  0  0  0  0
   -4.0839   -0.6794   -1.0505 C   0  0  0  0  0  0  0  0  0  0  0  0
   -5.0143   -0.4202    0.1072 C   0  0  0  0  0  0  0  0  0  0  0  0
   -6.4004   -0.5941   -0.3068 C   0  0  0  0  0  0  0  0  0  0  0  0
   -7.1761    0.3928   -0.9073 C   0  0  0  0  0  0  0  0  0  0  0  0
   -8.4855    0.1831   -1.2827 C   0  0  0  0  0  0  0  0  0  0  0  0
   -9.0959   -1.0326   -1.0774 C   0  0  0  0  0  0  0  0  0  0  0  0
   -8.3570   -2.0234   -0.4882 C   0  0  0  0  0  0  0  0  0  0  0  0
   -7.0692   -1.8143   -0.1199 C   0  0  0  0  0  0  0  0  0  0  0  0
   -4.6659    0.7521    0.8097 N   0  0  0  0  0  0  0  0  0  0  0  0
   -4.6074    1.9809    0.1164 C   0  0  0  0  0  0  0  0  0  0  0  0
   -5.2019    0.8365    2.1421 C   0  0  0  0  0  0  0  0  0  0  0  0
    9.6752    2.1421    1.0688 H   0  0  0  0  0  0  0  0  0  0  0  0
    9.2846    0.4933    1.6297 H   0  0  0  0  0  0  0  0  0  0  0  0
   10.9359    0.8809    0.9247 H   0  0  0  0  0  0  0  0  0  0  0  0
    8.7858    1.6275   -0.9122 H   0  0  0  0  0  0  0  0  0  0  0  0
   10.2741    0.5856   -1.2068 H   0  0  0  0  0  0  0  0  0  0  0  0
    6.9020   -2.3494   -0.4611 H   0  0  0  0  0  0  0  0  0  0  0  0
    4.7118   -2.4253    0.6888 H   0  0  0  0  0  0  0  0  0  0  0  0
    5.2307    1.5445    2.0133 H   0  0  0  0  0  0  0  0  0  0  0  0
    7.3582    1.6626    0.9045 H   0  0  0  0  0  0  0  0  0  0  0  0
    1.5775    1.0996    1.6924 H   0  0  0  0  0  0  0  0  0  0  0  0
    3.4842   -0.2980   -1.0061 H   0  0  0  0  0  0  0  0  0  0  0  0
    2.5883   -0.9165   -3.1592 H   0  0  0  0  0  0  0  0  0  0  0  0
    0.1832   -1.1073   -3.4523 H   0  0  0  0  0  0  0  0  0  0  0  0
   -0.3998   -0.0687    0.6160 H   0  0  0  0  0  0  0  0  0  0  0  0
   -2.4045   -0.2423    0.3157 H   0  0  0  0  0  0  0  0  0  0  0  0
   -4.1709   -1.7693   -1.2887 H   0  0  0  0  0  0  0  0  0  0  0  0
   -4.3344   -0.1410   -1.9654 H   0  0  0  0  0  0  0  0  0  0  0  0
   -4.7961   -1.2768    0.8255 H   0  0  0  0  0  0  0  0  0  0  0  0
   -6.7583    1.3684   -1.0979 H   0  0  0  0  0  0  0  0  0  0  0  0
   -9.0582    0.9872   -1.7517 H   0  0  0  0  0  0  0  0  0  0  0  0
  -10.1122   -1.2589   -1.3472 H   0  0  0  0  0  0  0  0  0  0  0  0
   -8.8067   -2.9913   -0.3124 H   0  0  0  0  0  0  0  0  0  0  0  0
   -6.4945   -2.6063    0.3457 H   0  0  0  0  0  0  0  0  0  0  0  0
   -3.7015    2.5400    0.5077 H   0  0  0  0  0  0  0  0  0  0  0  0
   -5.4548    2.6429    0.4387 H   0  0  0  0  0  0  0  0  0  0  0  0
   -4.4492    1.9256   -0.9562 H   0  0  0  0  0  0  0  0  0  0  0  0
   -6.0111    0.1150    2.2775 H   0  0  0  0  0  0  0  0  0  0  0  0
   -5.4579    1.8679    2.3911 H   0  0  0  0  0  0  0  0  0  0  0  0
   -4.3517    0.5412    2.8244 H   0  0  0  0  0  0  0  0  0  0  0  0
  1  2  1  0
  2  3  1  0
  3  4  1  0
  4  5  2  0
  5  6  1  0
  6  7  2  0
  7  8  1  0
  8  9  2  0
  7 10  1  0
 10 11  2  0
 10 12  2  0
 10 13  1  0
 13 14  1  0
 14 15  2  0
 15 16  1  0
 16 17  2  0
 17 18  1  0
 18 19  2  0
 18 20  1  0
 20 21  2  0
 20 22  1  0
 22 23  1  0
 23 24  1  0
 24 25  1  0
 25 26  2  0
 26 27  1  0
 27 28  2  0
 28 29  1  0
 29 30  2  0
 24 31  1  0
 31 32  1  0
 31 33  1  0
  9  4  1  0
 19 14  1  0
 30 25  1  0
  1 34  1  0
  1 35  1  0
  1 36  1  0
  2 37  1  0
  2 38  1  0
  5 39  1  0
  6 40  1  0
  8 41  1  0
  9 42  1  0
 13 43  1  0
 15 44  1  0
 16 45  1  0
 17 46  1  0
 19 47  1  0
 22 48  1  0
 23 49  1  0
 23 50  1  0
 24 51  1  0
 26 52  1  0
 27 53  1  0
 28 54  1  0
 29 55  1  0
 30 56  1  0
 32 57  1  0
 32 58  1  0
 32 59  1  0
 33 60  1  0
 33 61  1  0
 33 62  1  0
M  END
>  <Ligand ID>  (1) 
LIG0004485

>  <Ligand>  (1) 
MLS001139643

>  <SMILES>  (1) 
CCOc1ccc(cc1)S(=O)(=O)Nc1cccc(c1)C(=O)NCC(c1ccccc1)N(C)C

>  <CID>  (1) 
17540413.0

>  <ChEMBL ID>  (1) 
nan

>  <InChiKey>  (1) 
PGMDWBTVIQYXDF-UHFFFAOYSA-N

>  <InChi>  (1) 
InChI=1S/C25H29N3O4S/c1-4-32-22-13-15-23(16-14-22)33(30,31)27-21-12-8-11-20(17-21)25(29)26-18-24(28(2)3)19-9-6-5-7-10-19/h5-17,24,27H,4,18H2,1-3H3,(H,26,29)

>  <IUPAC Name>  (1) 
N-[2-(dimethylamino)-2-phenylethyl]-3-[(4-ethoxyphenyl)sulfonylamino]benzamide

$$$$
