
     RDKit          3D

 70 74  0  0  0  0  0  0  0  0999 V2000
   -0.2489   -4.6619   -3.3847 C   0  0  0  0  0  0  0  0  0  0  0  0
   -0.4976   -3.3093   -3.0167 O   0  0  0  0  0  0  0  0  0  0  0  0
   -0.6113   -2.9110   -1.6849 C   0  0  0  0  0  0  0  0  0  0  0  0
   -0.4879   -3.7833   -0.8145 O   0  0  0  0  0  0  0  0  0  0  0  0
   -0.8700   -1.4750   -1.4381 C   0  0  2  0  0  0  0  0  0  0  0  0
    0.2165   -0.6460   -1.9916 C   0  0  0  0  0  0  0  0  0  0  0  0
    0.9029    0.3006   -1.0844 C   0  0  2  0  0  0  0  0  0  0  0  0
    2.2132   -0.0917   -0.7325 O   0  0  0  0  0  0  0  0  0  0  0  0
    3.3076    0.6609   -1.0684 C   0  0  0  0  0  0  0  0  0  0  0  0
    3.1710    1.7282   -1.7034 O   0  0  0  0  0  0  0  0  0  0  0  0
    4.6534    0.2410   -0.6972 C   0  0  0  0  0  0  0  0  0  0  0  0
    5.7238    1.0599   -1.0769 C   0  0  0  0  0  0  0  0  0  0  0  0
    6.9909    0.6440   -0.7142 C   0  0  0  0  0  0  0  0  0  0  0  0
    7.2288   -0.5197   -0.0096 C   0  0  0  0  0  0  0  0  0  0  0  0
    6.1618   -1.3141    0.3562 C   0  0  0  0  0  0  0  0  0  0  0  0
    4.8668   -0.9223    0.0050 C   0  0  0  0  0  0  0  0  0  0  0  0
    8.4951   -0.9363    0.3532 O   0  0  0  0  0  0  0  0  0  0  0  0
    9.6653   -0.2052    0.0337 C   0  0  0  0  0  0  0  0  0  0  0  0
    0.1012    0.7023    0.1049 C   0  0  0  0  0  0  0  0  0  0  0  0
    0.6651    1.3305    0.9759 O   0  0  0  0  0  0  0  0  0  0  0  0
   -1.3254    0.2988    0.1252 C   0  0  1  0  0  0  0  0  0  0  0  0
   -1.2565   -1.2007    0.0029 C   0  0  2  0  0  0  0  0  0  0  0  0
   -0.2000   -1.8295    0.8485 C   0  0  0  0  0  0  0  0  0  0  0  0
   -2.5616   -1.8995    0.3115 C   0  0  0  0  0  0  0  0  0  0  0  0
   -2.9417   -1.4537    1.7124 C   0  0  0  0  0  0  0  0  0  0  0  0
   -3.3318   -0.0247    1.5686 C   0  0  2  0  0  0  0  0  0  0  0  0
   -2.1861    0.8787    1.1627 C   0  0  1  0  0  0  0  0  0  0  0  0
   -1.4250    1.4132    2.3356 C   0  0  0  0  0  0  0  0  0  0  0  0
   -2.9373    2.1113    0.6204 C   0  0  0  0  0  0  0  0  0  0  0  0
   -3.9482    2.6787    1.5314 C   0  0  2  0  0  0  0  0  0  0  0  0
   -4.3454    1.9306    2.6337 O   0  0  0  0  0  0  0  0  0  0  0  0
   -3.9608    0.5855    2.7508 C   0  0  0  0  0  0  0  0  0  0  0  0
   -4.1628   -0.0267    3.8292 O   0  0  0  0  0  0  0  0  0  0  0  0
   -5.2209    3.0721    0.8236 C   0  0  0  0  0  0  0  0  0  0  0  0
   -5.5554    4.3134    0.3207 C   0  0  0  0  0  0  0  0  0  0  0  0
   -6.8181    4.1486   -0.2275 C   0  0  0  0  0  0  0  0  0  0  0  0
   -7.2099    2.8981   -0.0638 O   0  0  0  0  0  0  0  0  0  0  0  0
   -6.2802    2.2228    0.5616 C   0  0  0  0  0  0  0  0  0  0  0  0
    0.0515   -5.2672   -2.4875 H   0  0  0  0  0  0  0  0  0  0  0  0
   -1.1652   -5.0283   -3.8720 H   0  0  0  0  0  0  0  0  0  0  0  0
    0.5874   -4.6600   -4.1144 H   0  0  0  0  0  0  0  0  0  0  0  0
   -1.8204   -1.2496   -2.0118 H   0  0  0  0  0  0  0  0  0  0  0  0
    0.9560   -1.3081   -2.5552 H   0  0  0  0  0  0  0  0  0  0  0  0
   -0.2110   -0.0535   -2.8589 H   0  0  0  0  0  0  0  0  0  0  0  0
    1.0566    1.2752   -1.6385 H   0  0  0  0  0  0  0  0  0  0  0  0
    5.5462    1.9808   -1.6338 H   0  0  0  0  0  0  0  0  0  0  0  0
    7.8247    1.2774   -1.0076 H   0  0  0  0  0  0  0  0  0  0  0  0
    6.3449   -2.2260    0.9081 H   0  0  0  0  0  0  0  0  0  0  0  0
    4.0136   -1.5363    0.2848 H   0  0  0  0  0  0  0  0  0  0  0  0
    9.6988   -0.0751   -1.0804 H   0  0  0  0  0  0  0  0  0  0  0  0
    9.5288    0.8060    0.4948 H   0  0  0  0  0  0  0  0  0  0  0  0
   10.5745   -0.6823    0.4177 H   0  0  0  0  0  0  0  0  0  0  0  0
   -1.7313    0.6700   -0.8693 H   0  0  0  0  0  0  0  0  0  0  0  0
   -0.5871   -2.7485    1.3347 H   0  0  0  0  0  0  0  0  0  0  0  0
    0.1710   -1.2141    1.6900 H   0  0  0  0  0  0  0  0  0  0  0  0
    0.7187   -2.1354    0.3030 H   0  0  0  0  0  0  0  0  0  0  0  0
   -2.3989   -2.9755    0.2403 H   0  0  0  0  0  0  0  0  0  0  0  0
   -3.3119   -1.5030   -0.4034 H   0  0  0  0  0  0  0  0  0  0  0  0
   -2.1858   -1.6754    2.4553 H   0  0  0  0  0  0  0  0  0  0  0  0
   -3.8647   -2.0098    1.9820 H   0  0  0  0  0  0  0  0  0  0  0  0
   -4.0863   -0.0094    0.7535 H   0  0  0  0  0  0  0  0  0  0  0  0
   -2.1058    1.6336    3.2117 H   0  0  0  0  0  0  0  0  0  0  0  0
   -0.6731    0.7403    2.7728 H   0  0  0  0  0  0  0  0  0  0  0  0
   -1.0505    2.4254    2.0707 H   0  0  0  0  0  0  0  0  0  0  0  0
   -2.1828    2.8699    0.2616 H   0  0  0  0  0  0  0  0  0  0  0  0
   -3.4279    1.7496   -0.3069 H   0  0  0  0  0  0  0  0  0  0  0  0
   -3.4989    3.6233    1.9611 H   0  0  0  0  0  0  0  0  0  0  0  0
   -4.9438    5.2070    0.3600 H   0  0  0  0  0  0  0  0  0  0  0  0
   -7.4119    4.9193   -0.7214 H   0  0  0  0  0  0  0  0  0  0  0  0
   -6.3962    1.1707    0.7998 H   0  0  0  0  0  0  0  0  0  0  0  0
  1  2  1  0
  2  3  1  0
  3  4  2  0
  3  5  1  0
  5  6  1  0
  6  7  1  0
  7  8  1  0
  8  9  1  0
  9 10  2  0
  9 11  1  0
 11 12  2  0
 12 13  1  0
 13 14  2  0
 14 15  1  0
 15 16  2  0
 14 17  1  0
 17 18  1  0
  7 19  1  0
 19 20  2  0
 19 21  1  0
 21 22  1  0
 22 23  1  1
 22 24  1  0
 24 25  1  0
 25 26  1  0
 26 27  1  0
 27 28  1  1
 27 29  1  0
 29 30  1  0
 30 31  1  0
 31 32  1  0
 32 33  2  0
 30 34  1  0
 34 35  1  0
 35 36  2  0
 36 37  1  0
 37 38  1  0
 22  5  1  0
 32 26  1  0
 38 34  2  0
 16 11  1  0
 27 21  1  0
  1 39  1  0
  1 40  1  0
  1 41  1  0
  5 42  1  6
  6 43  1  0
  6 44  1  0
  7 45  1  6
 12 46  1  0
 13 47  1  0
 15 48  1  0
 16 49  1  0
 18 50  1  0
 18 51  1  0
 18 52  1  0
 21 53  1  6
 23 54  1  0
 23 55  1  0
 23 56  1  0
 24 57  1  0
 24 58  1  0
 25 59  1  0
 25 60  1  0
 26 61  1  6
 28 62  1  0
 28 63  1  0
 28 64  1  0
 29 65  1  0
 29 66  1  0
 30 67  1  1
 35 68  1  0
 36 69  1  0
 38 70  1  0
M  END
>  <Ligand ID>  (1) 
LIG0005150

>  <Ligand>  (1) 
CHEMBL260286

>  <SMILES>  (1) 
COC(=O)[C@@H]1C[C@H](OC(=O)c2ccc(cc2)OC)C(=O)[C@H]2[C@@]1(C)CC[C@@H]1[C@]2(C)C[C@H](OC1=O)c1ccoc1

>  <CID>  (1) 
16059781.0

>  <ChEMBL ID>  (1) 
nan

>  <InChiKey>  (1) 
QTJRSFJCMFHRFT-UTFYOTOKSA-N

>  <InChi>  (1) 
InChI=1S/C29H32O9/c1-28-11-9-19-27(33)38-22(17-10-12-36-15-17)14-29(19,2)24(28)23(30)21(13-20(28)26(32)35-4)37-25(31)16-5-7-18(34-3)8-6-16/h5-8,10,12,15,19-22,24H,9,11,13-14H2,1-4H3/t19-,20-,21-,22-,24-,28-,29-/m0/s1

>  <IUPAC Name>  (1) 
methyl (2S,4aR,6aR,7R,9S,10aS,10bR)-2-(furan-3-yl)-9-(4-methoxybenzoyl)oxy-6a,10b-dimethyl-4,10-dioxo-2,4a,5,6,7,8,9,10a-octahydro-1H-benzo[f]isochromene-7-carboxylate

$$$$
