
     RDKit          3D

 69 72  0  0  0  0  0  0  0  0999 V2000
    8.5811    1.5986   -1.6676 C   0  0  0  0  0  0  0  0  0  0  0  0
    8.6955    0.3987   -0.9612 O   0  0  0  0  0  0  0  0  0  0  0  0
    7.6527   -0.5134   -0.7692 C   0  0  0  0  0  0  0  0  0  0  0  0
    6.3949   -0.3132   -1.2682 C   0  0  0  0  0  0  0  0  0  0  0  0
    5.3871   -1.2294   -1.0620 C   0  0  0  0  0  0  0  0  0  0  0  0
    5.7080   -2.3619   -0.3275 C   0  0  0  0  0  0  0  0  0  0  0  0
    6.9787   -2.5583    0.1723 C   0  0  0  0  0  0  0  0  0  0  0  0
    7.9901   -1.6465   -0.0296 C   0  0  0  0  0  0  0  0  0  0  0  0
    9.2791   -1.8047    0.4544 O   0  0  0  0  0  0  0  0  0  0  0  0
    9.6660   -2.9333    1.2064 C   0  0  0  0  0  0  0  0  0  0  0  0
    4.0031   -1.0624   -1.5793 C   0  0  0  0  0  0  0  0  0  0  0  0
    3.2099   -0.2917   -0.5775 C   0  0  0  0  0  0  0  0  0  0  0  0
    3.8277    0.0872    0.4497 O   0  0  0  0  0  0  0  0  0  0  0  0
    1.8138    0.0001   -0.7797 N   0  0  0  0  0  0  0  0  0  0  0  0
    1.1762    0.7586    0.2708 C   0  0  0  0  0  0  0  0  0  0  0  0
    0.1495   -0.0061    1.0111 C   0  0  0  0  0  0  0  0  0  0  0  0
   -1.2831    0.2634    0.5543 C   0  0  0  0  0  0  0  0  0  0  0  0
   -1.6243    1.6068    0.7794 N   0  0  0  0  0  0  0  0  0  0  0  0
   -0.4252    2.4309    0.8897 C   0  0  0  0  0  0  0  0  0  0  0  0
    0.5652    2.0568   -0.2063 C   0  0  0  0  0  0  0  0  0  0  0  0
   -2.4844    2.2869   -0.1281 C   0  0  0  0  0  0  0  0  0  0  0  0
   -3.9140    1.9041   -0.2016 C   0  0  0  0  0  0  0  0  0  0  0  0
   -4.2067    0.5350   -0.6319 C   0  0  0  0  0  0  0  0  0  0  0  0
   -5.6288    0.2231   -0.6843 N   0  0  0  0  0  0  0  0  0  0  0  0
   -6.4072    0.4168   -1.8525 C   0  0  0  0  0  0  0  0  0  0  0  0
   -5.8155    0.4073   -2.9721 O   0  0  0  0  0  0  0  0  0  0  0  0
   -7.8678    0.6194   -1.7062 C   0  0  0  0  0  0  0  0  0  0  0  0
   -8.5256   -0.3701   -0.7741 C   0  0  0  0  0  0  0  0  0  0  0  0
   -7.6881   -0.5724    0.4222 C   0  0  0  0  0  0  0  0  0  0  0  0
   -6.3285   -0.2891    0.4645 C   0  0  0  0  0  0  0  0  0  0  0  0
   -5.6703   -0.5175    1.6602 C   0  0  0  0  0  0  0  0  0  0  0  0
   -6.2909   -1.0063    2.7887 C   0  0  0  0  0  0  0  0  0  0  0  0
   -5.5677   -1.2071    3.9403 F   0  0  0  0  0  0  0  0  0  0  0  0
   -7.6342   -1.2859    2.7382 C   0  0  0  0  0  0  0  0  0  0  0  0
   -8.3067   -1.0651    1.5625 C   0  0  0  0  0  0  0  0  0  0  0  0
   -8.2346   -1.7673    3.8565 F   0  0  0  0  0  0  0  0  0  0  0  0
    7.7809    2.2563   -1.2210 H   0  0  0  0  0  0  0  0  0  0  0  0
    9.5522    2.1363   -1.5273 H   0  0  0  0  0  0  0  0  0  0  0  0
    8.3577    1.4218   -2.7277 H   0  0  0  0  0  0  0  0  0  0  0  0
    6.2000    0.5726   -1.8261 H   0  0  0  0  0  0  0  0  0  0  0  0
    4.9131   -3.0750   -0.1721 H   0  0  0  0  0  0  0  0  0  0  0  0
    7.1649   -3.4524    0.7329 H   0  0  0  0  0  0  0  0  0  0  0  0
   10.5560   -2.6977    1.8443 H   0  0  0  0  0  0  0  0  0  0  0  0
   10.0189   -3.7714    0.5459 H   0  0  0  0  0  0  0  0  0  0  0  0
    8.8556   -3.3256    1.8516 H   0  0  0  0  0  0  0  0  0  0  0  0
    3.5048   -2.0045   -1.8250 H   0  0  0  0  0  0  0  0  0  0  0  0
    4.0638   -0.4171   -2.4942 H   0  0  0  0  0  0  0  0  0  0  0  0
    1.3214   -0.3257   -1.6336 H   0  0  0  0  0  0  0  0  0  0  0  0
    1.9550    1.0828    1.0335 H   0  0  0  0  0  0  0  0  0  0  0  0
    0.3314   -1.1187    1.0001 H   0  0  0  0  0  0  0  0  0  0  0  0
    0.2144    0.2593    2.1043 H   0  0  0  0  0  0  0  0  0  0  0  0
   -1.8749   -0.4327    1.2444 H   0  0  0  0  0  0  0  0  0  0  0  0
   -1.3991   -0.1249   -0.4622 H   0  0  0  0  0  0  0  0  0  0  0  0
    0.0193    2.2660    1.8792 H   0  0  0  0  0  0  0  0  0  0  0  0
   -0.7280    3.4881    0.7605 H   0  0  0  0  0  0  0  0  0  0  0  0
    0.0200    1.9627   -1.1579 H   0  0  0  0  0  0  0  0  0  0  0  0
    1.3431    2.8398   -0.2681 H   0  0  0  0  0  0  0  0  0  0  0  0
   -2.0131    2.1379   -1.1508 H   0  0  0  0  0  0  0  0  0  0  0  0
   -2.3692    3.3922    0.1424 H   0  0  0  0  0  0  0  0  0  0  0  0
   -4.2946    1.9863    0.8740 H   0  0  0  0  0  0  0  0  0  0  0  0
   -4.5457    2.6849   -0.7090 H   0  0  0  0  0  0  0  0  0  0  0  0
   -3.7556   -0.2446   -0.0199 H   0  0  0  0  0  0  0  0  0  0  0  0
   -3.8401    0.3579   -1.6695 H   0  0  0  0  0  0  0  0  0  0  0  0
   -8.3245    0.6017   -2.7167 H   0  0  0  0  0  0  0  0  0  0  0  0
   -7.9933    1.6267   -1.2390 H   0  0  0  0  0  0  0  0  0  0  0  0
   -8.7047   -1.2988   -1.3452 H   0  0  0  0  0  0  0  0  0  0  0  0
   -9.5310    0.0304   -0.5045 H   0  0  0  0  0  0  0  0  0  0  0  0
   -4.6005   -0.3111    1.7657 H   0  0  0  0  0  0  0  0  0  0  0  0
   -9.3735   -1.2957    1.5575 H   0  0  0  0  0  0  0  0  0  0  0  0
  1  2  1  0
  2  3  1  0
  3  4  2  0
  4  5  1  0
  5  6  2  0
  6  7  1  0
  7  8  2  0
  8  9  1  0
  9 10  1  0
  5 11  1  0
 11 12  1  0
 12 13  2  0
 12 14  1  0
 14 15  1  0
 15 16  1  0
 16 17  1  0
 17 18  1  0
 18 19  1  0
 19 20  1  0
 18 21  1  0
 21 22  1  0
 22 23  1  0
 23 24  1  0
 24 25  1  0
 25 26  2  0
 25 27  1  0
 27 28  1  0
 28 29  1  0
 29 30  2  0
 30 31  1  0
 31 32  2  0
 32 33  1  0
 32 34  1  0
 34 35  2  0
 34 36  1  0
  8  3  1  0
 20 15  1  0
 30 24  1  0
 35 29  1  0
  1 37  1  0
  1 38  1  0
  1 39  1  0
  4 40  1  0
  6 41  1  0
  7 42  1  0
 10 43  1  0
 10 44  1  0
 10 45  1  0
 11 46  1  0
 11 47  1  0
 14 48  1  0
 15 49  1  0
 16 50  1  0
 16 51  1  0
 17 52  1  0
 17 53  1  0
 19 54  1  0
 19 55  1  0
 20 56  1  0
 20 57  1  0
 21 58  1  0
 21 59  1  0
 22 60  1  0
 22 61  1  0
 23 62  1  0
 23 63  1  0
 27 64  1  0
 27 65  1  0
 28 66  1  0
 28 67  1  0
 31 68  1  0
 35 69  1  0
M  END
>  <Ligand ID>  (1) 
LIG0004733

>  <Ligand>  (1) 
CHEMBL1242979

>  <SMILES>  (1) 
COc1cc(ccc1OC)CC(=O)NC1CCN(CC1)CCCN1C(=O)CCc2c1cc(F)c(c2)F

>  <CID>  (1) 
44208359.0

>  <ChEMBL ID>  (1) 
nan

>  <InChiKey>  (1) 
XGOZHCNNVCVDJO-UHFFFAOYSA-N

>  <InChi>  (1) 
InChI=1S/C27H33F2N3O4/c1-35-24-6-4-18(14-25(24)36-2)15-26(33)30-20-8-12-31(13-9-20)10-3-11-32-23-17-22(29)21(28)16-19(23)5-7-27(32)34/h4,6,14,16-17,20H,3,5,7-13,15H2,1-2H3,(H,30,33)

>  <IUPAC Name>  (1) 
N-[1-[3-(6,7-difluoro-2-oxo-3,4-dihydroquinolin-1-yl)propyl]piperidin-4-yl]-2-(3,4-dimethoxyphenyl)acetamide

$$$$
