
     RDKit          3D

 62 66  0  0  0  0  0  0  0  0999 V2000
   -4.1892   -3.2189    4.5851 Cl  0  0  0  0  0  0  0  0  0  0  0  0
   -3.1483   -2.5387    3.3471 C   0  0  0  0  0  0  0  0  0  0  0  0
   -3.3376   -2.7543    2.0085 C   0  0  0  0  0  0  0  0  0  0  0  0
   -2.5322   -2.2284    1.0180 C   0  0  0  0  0  0  0  0  0  0  0  0
   -1.4483   -1.4203    1.3985 C   0  0  0  0  0  0  0  0  0  0  0  0
   -1.2287   -1.1812    2.7657 C   0  0  0  0  0  0  0  0  0  0  0  0
   -2.0780   -1.7415    3.7116 C   0  0  0  0  0  0  0  0  0  0  0  0
   -0.5781   -0.8610    0.4216 N   0  0  0  0  0  0  0  0  0  0  0  0
    0.7357   -0.9691    0.4661 N   0  0  0  0  0  0  0  0  0  0  0  0
    1.3298   -0.3618   -0.5898 C   0  0  0  0  0  0  0  0  0  0  0  0
    0.3404    0.1645   -1.3523 C   0  0  0  0  0  0  0  0  0  0  0  0
   -0.8582   -0.1635   -0.6924 C   0  0  0  0  0  0  0  0  0  0  0  0
   -2.2422    0.1513   -1.0647 C   0  0  0  0  0  0  0  0  0  0  0  0
   -2.9847    0.5497   -0.0244 C   0  0  0  0  0  0  0  0  0  0  0  0
   -4.3782    0.9162   -0.1146 C   0  0  0  0  0  0  0  0  0  0  0  0
   -4.7573    2.0865    0.5565 C   0  0  0  0  0  0  0  0  0  0  0  0
   -6.0521    2.5396    0.5694 C   0  0  0  0  0  0  0  0  0  0  0  0
   -7.0542    1.8365   -0.0985 C   0  0  0  0  0  0  0  0  0  0  0  0
   -6.6883    0.6878   -0.7582 C   0  0  0  0  0  0  0  0  0  0  0  0
   -5.3682    0.2423   -0.7602 C   0  0  0  0  0  0  0  0  0  0  0  0
   -8.3222    2.3136   -0.0642 F   0  0  0  0  0  0  0  0  0  0  0  0
   -2.8664    0.1013   -2.4063 C   0  0  0  0  0  0  0  0  0  0  0  0
   -1.8143    0.3312   -3.4636 C   0  0  0  0  0  0  0  0  0  0  0  0
   -0.9143    1.4422   -3.0469 C   0  0  0  0  0  0  0  0  0  0  0  0
    0.4576    0.9373   -2.6218 C   0  0  0  0  0  0  0  0  0  0  0  0
    2.7520   -0.2656   -0.8898 C   0  0  0  0  0  0  0  0  0  0  0  0
    3.1772    0.3302   -1.9151 O   0  0  0  0  0  0  0  0  0  0  0  0
    3.7341   -0.8541   -0.0164 N   0  0  0  0  0  0  0  0  0  0  0  0
    5.1472   -0.7369   -0.3508 C   0  0  1  0  0  0  0  0  0  0  0  0
    5.8572    0.0535    0.6959 C   0  0  0  0  0  0  0  0  0  0  0  0
    6.7622    1.0467    0.3444 C   0  0  0  0  0  0  0  0  0  0  0  0
    7.4411    1.8026    1.2726 C   0  0  0  0  0  0  0  0  0  0  0  0
    7.2128    1.5640    2.6163 C   0  0  0  0  0  0  0  0  0  0  0  0
    6.3082    0.5709    2.9556 C   0  0  0  0  0  0  0  0  0  0  0  0
    5.6588   -0.1525    2.0182 N   0  0  0  0  0  0  0  0  0  0  0  0
    5.7776   -2.0950   -0.5487 C   0  0  0  0  0  0  0  0  0  0  0  0
   -4.1791   -3.3831    1.6808 H   0  0  0  0  0  0  0  0  0  0  0  0
   -2.7255   -2.4305   -0.0408 H   0  0  0  0  0  0  0  0  0  0  0  0
   -0.3937   -0.5566    3.0858 H   0  0  0  0  0  0  0  0  0  0  0  0
   -1.8422   -1.5113    4.7490 H   0  0  0  0  0  0  0  0  0  0  0  0
   -2.5428    0.6351    0.9857 H   0  0  0  0  0  0  0  0  0  0  0  0
   -4.0069    2.6814    1.1004 H   0  0  0  0  0  0  0  0  0  0  0  0
   -6.2826    3.4493    1.1039 H   0  0  0  0  0  0  0  0  0  0  0  0
   -7.4581    0.1481   -1.2714 H   0  0  0  0  0  0  0  0  0  0  0  0
   -5.1824   -0.6692   -1.2891 H   0  0  0  0  0  0  0  0  0  0  0  0
   -3.2728   -0.9538   -2.5260 H   0  0  0  0  0  0  0  0  0  0  0  0
   -3.7280    0.7692   -2.5137 H   0  0  0  0  0  0  0  0  0  0  0  0
   -1.2207   -0.6083   -3.5051 H   0  0  0  0  0  0  0  0  0  0  0  0
   -2.3124    0.4790   -4.4454 H   0  0  0  0  0  0  0  0  0  0  0  0
   -0.7215    2.0818   -3.9575 H   0  0  0  0  0  0  0  0  0  0  0  0
   -1.3500    2.1386   -2.3001 H   0  0  0  0  0  0  0  0  0  0  0  0
    0.8289    0.2918   -3.4362 H   0  0  0  0  0  0  0  0  0  0  0  0
    1.1068    1.7971   -2.4691 H   0  0  0  0  0  0  0  0  0  0  0  0
    3.4537   -1.3655    0.8550 H   0  0  0  0  0  0  0  0  0  0  0  0
    5.2340   -0.1817   -1.2891 H   0  0  0  0  0  0  0  0  0  0  0  0
    6.9228    1.2135   -0.7149 H   0  0  0  0  0  0  0  0  0  0  0  0
    8.1456    2.5742    0.9579 H   0  0  0  0  0  0  0  0  0  0  0  0
    7.7219    2.1312    3.4014 H   0  0  0  0  0  0  0  0  0  0  0  0
    6.1612    0.4180    4.0247 H   0  0  0  0  0  0  0  0  0  0  0  0
    5.0151   -2.7831   -0.9989 H   0  0  0  0  0  0  0  0  0  0  0  0
    6.1895   -2.5122    0.3922 H   0  0  0  0  0  0  0  0  0  0  0  0
    6.5887   -1.9781   -1.2937 H   0  0  0  0  0  0  0  0  0  0  0  0
  1  2  1  0
  2  3  2  0
  3  4  1  0
  4  5  2  0
  5  6  1  0
  6  7  2  0
  5  8  1  0
  8  9  1  0
  9 10  2  0
 10 11  1  0
 11 12  2  0
 12 13  1  0
 13 14  2  0
 14 15  1  0
 15 16  2  0
 16 17  1  0
 17 18  2  0
 18 19  1  0
 19 20  2  0
 18 21  1  0
 13 22  1  0
 22 23  1  0
 23 24  1  0
 24 25  1  0
 10 26  1  0
 26 27  2  0
 26 28  1  0
 28 29  1  0
 29 30  1  0
 30 31  2  0
 31 32  1  0
 32 33  2  0
 33 34  1  0
 34 35  2  0
 29 36  1  0
  7  2  1  0
 12  8  1  0
 20 15  1  0
 35 30  1  0
 25 11  1  0
  3 37  1  0
  4 38  1  0
  6 39  1  0
  7 40  1  0
 14 41  1  0
 16 42  1  0
 17 43  1  0
 19 44  1  0
 20 45  1  0
 22 46  1  0
 22 47  1  0
 23 48  1  0
 23 49  1  0
 24 50  1  0
 24 51  1  0
 25 52  1  0
 25 53  1  0
 28 54  1  0
 29 55  1  6
 31 56  1  0
 32 57  1  0
 33 58  1  0
 34 59  1  0
 36 60  1  0
 36 61  1  0
 36 62  1  0
M  END
>  <Ligand ID>  (1) 
LIG0005427

>  <Ligand>  (1) 
CHEMBL3959009

>  <SMILES>  (1) 
Clc1ccc(cc1)n1nc(c2c1/C(=C/c1ccc(cc1)F)/CCCC2)C(=O)N[C@@H](c1ccccn1)C

>  <CID>  (1) 
134154932.0

>  <ChEMBL ID>  (1) 
nan

>  <InChiKey>  (1) 
HZAFFOPZBPZPPC-AZZGVMCLSA-N

>  <InChi>  (1) 
InChI=1S/C29H26ClFN4O/c1-19(26-8-4-5-17-32-26)33-29(36)27-25-7-3-2-6-21(18-20-9-13-23(31)14-10-20)28(25)35(34-27)24-15-11-22(30)12-16-24/h4-5,8-19H,2-3,6-7H2,1H3,(H,33,36)/b21-18+/t19-/m1/s1

>  <IUPAC Name>  (1) 
(8E)-1-(4-chlorophenyl)-8-[(4-fluorophenyl)methylidene]-N-[(1R)-1-pyridin-2-ylethyl]-4,5,6,7-tetrahydrocyclohepta[c]pyrazole-3-carboxamide

$$$$
