
     RDKit          3D

 93 96  0  0  0  0  0  0  0  0999 V2000
   -3.2335    7.5233   -1.0556 N   0  0  0  0  0  0  0  0  0  0  0  0
   -2.6603    7.3181   -2.3201 C   0  0  0  0  0  0  0  0  0  0  0  0
   -2.1478    6.1908   -2.6606 N   0  0  0  0  0  0  0  0  0  0  0  0
   -2.1019    5.0291   -1.8019 C   0  0  0  0  0  0  0  0  0  0  0  0
   -1.2206    5.2116   -0.5880 C   0  0  0  0  0  0  0  0  0  0  0  0
   -1.2556    3.9941    0.1938 N   0  0  0  0  0  0  0  0  0  0  0  0
   -0.8304    2.7301   -0.2930 C   0  0  0  0  0  0  0  0  0  0  0  0
   -0.3834    2.5693   -1.4471 O   0  0  0  0  0  0  0  0  0  0  0  0
   -0.9043    1.5177    0.5749 C   0  0  1  0  0  0  0  0  0  0  0  0
   -2.3767    1.2302    0.9276 C   0  0  0  0  0  0  0  0  0  0  0  0
   -2.4545   -0.2369    0.6777 C   0  0  2  0  0  0  0  0  0  0  0  0
   -1.6366   -0.3080   -0.6196 C   0  0  0  0  0  0  0  0  0  0  0  0
   -0.4109    0.3481   -0.0911 N   0  0  0  0  0  0  0  0  0  0  0  0
    0.8508   -0.2138   -0.3224 C   0  0  0  0  0  0  0  0  0  0  0  0
    0.8512   -1.2951   -1.0196 O   0  0  0  0  0  0  0  0  0  0  0  0
    2.1716    0.2506    0.1123 C   0  0  2  0  0  0  0  0  0  0  0  0
    3.1971   -0.6074   -0.4663 N   0  0  0  0  0  0  0  0  0  0  0  0
    4.1846   -0.1818   -1.3565 C   0  0  0  0  0  0  0  0  0  0  0  0
    4.3425    0.9800   -1.7884 O   0  0  0  0  0  0  0  0  0  0  0  0
    5.1592   -1.2254   -1.8465 C   0  0  1  0  0  0  0  0  0  0  0  0
    6.1005   -0.5968   -2.7305 N   0  0  0  0  0  0  0  0  0  0  0  0
    6.5217   -1.1992   -3.9504 C   0  0  0  0  0  0  0  0  0  0  0  0
    6.0783   -2.3283   -4.3128 O   0  0  0  0  0  0  0  0  0  0  0  0
    7.5060   -0.4366   -4.7747 C   0  0  0  0  0  0  0  0  0  0  0  0
    5.8615   -1.8772   -0.6916 C   0  0  0  0  0  0  0  0  0  0  0  0
    6.6808   -1.0062    0.1795 C   0  0  0  0  0  0  0  0  0  0  0  0
    7.8700   -0.3993   -0.4254 C   0  0  0  0  0  0  0  0  0  0  0  0
    8.4998   -0.8348   -1.4161 O   0  0  0  0  0  0  0  0  0  0  0  0
    8.3734    0.8035    0.1666 N   0  0  0  0  0  0  0  0  0  0  0  0
    2.3418    0.4304    1.5748 C   0  0  0  0  0  0  0  0  0  0  0  0
    2.1441   -0.7057    2.4308 C   0  0  0  0  0  0  0  0  0  0  0  0
    3.1278   -1.6012    2.8104 C   0  0  0  0  0  0  0  0  0  0  0  0
    2.8679   -2.6731    3.6331 C   0  0  0  0  0  0  0  0  0  0  0  0
    1.5917   -2.8889    4.1127 C   0  0  0  0  0  0  0  0  0  0  0  0
    0.6022   -2.0214    3.7550 C   0  0  0  0  0  0  0  0  0  0  0  0
    0.8662   -0.9584    2.9373 C   0  0  0  0  0  0  0  0  0  0  0  0
   -3.7439   -0.7193    0.5166 O   0  0  0  0  0  0  0  0  0  0  0  0
   -3.8629   -1.7382    1.4871 C   0  0  0  0  0  0  0  0  0  0  0  0
   -5.1749   -2.3857    1.4863 C   0  0  0  0  0  0  0  0  0  0  0  0
   -6.2378   -1.9508    2.2584 C   0  0  0  0  0  0  0  0  0  0  0  0
   -7.4376   -2.6279    2.1891 C   0  0  0  0  0  0  0  0  0  0  0  0
   -7.6363   -3.7270    1.3822 C   0  0  0  0  0  0  0  0  0  0  0  0
   -6.5601   -4.1537    0.6115 C   0  0  0  0  0  0  0  0  0  0  0  0
   -5.3650   -3.4861    0.6750 C   0  0  0  0  0  0  0  0  0  0  0  0
   -6.6798   -5.2558   -0.2295 C   0  0  0  0  0  0  0  0  0  0  0  0
   -7.8778   -5.9462   -0.3108 C   0  0  0  0  0  0  0  0  0  0  0  0
   -8.9375   -5.5114    0.4598 C   0  0  0  0  0  0  0  0  0  0  0  0
   -8.8248   -4.4054    1.3069 C   0  0  0  0  0  0  0  0  0  0  0  0
   -2.6193    8.3607   -3.3023 N   0  0  0  0  0  0  0  0  0  0  0  0
   -2.7884    8.2395   -0.4121 H   0  0  0  0  0  0  0  0  0  0  0  0
   -4.0653    7.0384   -0.6753 H   0  0  0  0  0  0  0  0  0  0  0  0
   -1.7189    4.2012   -2.4098 H   0  0  0  0  0  0  0  0  0  0  0  0
   -3.1249    4.7839   -1.4364 H   0  0  0  0  0  0  0  0  0  0  0  0
   -0.1871    5.4942   -0.8757 H   0  0  0  0  0  0  0  0  0  0  0  0
   -1.6681    6.0177    0.0248 H   0  0  0  0  0  0  0  0  0  0  0  0
   -1.6114    3.9940    1.1961 H   0  0  0  0  0  0  0  0  0  0  0  0
   -0.4449    1.7777    1.5283 H   0  0  0  0  0  0  0  0  0  0  0  0
   -2.9912    1.7774    0.1603 H   0  0  0  0  0  0  0  0  0  0  0  0
   -2.6130    1.5337    1.9442 H   0  0  0  0  0  0  0  0  0  0  0  0
   -1.9701   -0.7873    1.4813 H   0  0  0  0  0  0  0  0  0  0  0  0
   -2.0999    0.3431   -1.3681 H   0  0  0  0  0  0  0  0  0  0  0  0
   -1.4637   -1.3326   -0.9339 H   0  0  0  0  0  0  0  0  0  0  0  0
    2.3388    1.2483   -0.3377 H   0  0  0  0  0  0  0  0  0  0  0  0
    3.1502   -1.6189   -0.1595 H   0  0  0  0  0  0  0  0  0  0  0  0
    4.6111   -2.0592   -2.3560 H   0  0  0  0  0  0  0  0  0  0  0  0
    6.4433    0.3662   -2.4317 H   0  0  0  0  0  0  0  0  0  0  0  0
    7.9711   -1.1214   -5.5225 H   0  0  0  0  0  0  0  0  0  0  0  0
    7.0827    0.4533   -5.2477 H   0  0  0  0  0  0  0  0  0  0  0  0
    8.3542   -0.1035   -4.1105 H   0  0  0  0  0  0  0  0  0  0  0  0
    5.1451   -2.5150   -0.1055 H   0  0  0  0  0  0  0  0  0  0  0  0
    6.5761   -2.6414   -1.1387 H   0  0  0  0  0  0  0  0  0  0  0  0
    7.0168   -1.6044    1.0632 H   0  0  0  0  0  0  0  0  0  0  0  0
    6.0095   -0.1795    0.5365 H   0  0  0  0  0  0  0  0  0  0  0  0
    9.1090    0.7267    0.9030 H   0  0  0  0  0  0  0  0  0  0  0  0
    7.9671    1.6889   -0.1812 H   0  0  0  0  0  0  0  0  0  0  0  0
    1.7555    1.2897    1.9098 H   0  0  0  0  0  0  0  0  0  0  0  0
    3.4203    0.7796    1.7133 H   0  0  0  0  0  0  0  0  0  0  0  0
    4.1349   -1.4521    2.4469 H   0  0  0  0  0  0  0  0  0  0  0  0
    3.6215   -3.3902    3.9444 H   0  0  0  0  0  0  0  0  0  0  0  0
    1.3319   -3.7113    4.7588 H   0  0  0  0  0  0  0  0  0  0  0  0
   -0.4238   -2.1367    4.1001 H   0  0  0  0  0  0  0  0  0  0  0  0
    0.0582   -0.2764    2.6637 H   0  0  0  0  0  0  0  0  0  0  0  0
   -3.6368   -1.2164    2.4614 H   0  0  0  0  0  0  0  0  0  0  0  0
   -3.0230   -2.4298    1.3059 H   0  0  0  0  0  0  0  0  0  0  0  0
   -6.1031   -1.0956    2.8951 H   0  0  0  0  0  0  0  0  0  0  0  0
   -8.2554   -2.2706    2.8017 H   0  0  0  0  0  0  0  0  0  0  0  0
   -4.5493   -3.8517    0.0561 H   0  0  0  0  0  0  0  0  0  0  0  0
   -5.8353   -5.5727   -0.8195 H   0  0  0  0  0  0  0  0  0  0  0  0
   -7.9432   -6.8060   -0.9780 H   0  0  0  0  0  0  0  0  0  0  0  0
   -9.8944   -6.0368    0.4173 H   0  0  0  0  0  0  0  0  0  0  0  0
   -9.6780   -4.0753    1.9117 H   0  0  0  0  0  0  0  0  0  0  0  0
   -3.3019    9.1627   -3.2862 H   0  0  0  0  0  0  0  0  0  0  0  0
   -1.9227    8.3840   -4.0763 H   0  0  0  0  0  0  0  0  0  0  0  0
  1  2  1  0
  2  3  2  3
  3  4  1  0
  4  5  1  0
  5  6  1  0
  6  7  1  0
  7  8  2  0
  7  9  1  0
  9 10  1  0
 10 11  1  0
 11 12  1  0
 12 13  1  0
 13 14  1  0
 14 15  2  0
 14 16  1  0
 16 17  1  0
 17 18  1  0
 18 19  2  0
 18 20  1  0
 20 21  1  0
 21 22  1  0
 22 23  2  0
 22 24  1  0
 20 25  1  0
 25 26  1  0
 26 27  1  0
 27 28  2  0
 27 29  1  0
 16 30  1  0
 30 31  1  0
 31 32  2  0
 32 33  1  0
 33 34  2  0
 34 35  1  0
 35 36  2  0
 11 37  1  0
 37 38  1  0
 38 39  1  0
 39 40  2  0
 40 41  1  0
 41 42  2  0
 42 43  1  0
 43 44  2  0
 43 45  1  0
 45 46  2  0
 46 47  1  0
 47 48  2  0
  2 49  1  0
 13  9  1  0
 36 31  1  0
 44 39  1  0
 48 42  1  0
  1 50  1  0
  1 51  1  0
  4 52  1  0
  4 53  1  0
  5 54  1  0
  5 55  1  0
  6 56  1  0
  9 57  1  1
 10 58  1  0
 10 59  1  0
 11 60  1  1
 12 61  1  0
 12 62  1  0
 16 63  1  6
 17 64  1  0
 20 65  1  6
 21 66  1  0
 24 67  1  0
 24 68  1  0
 24 69  1  0
 25 70  1  0
 25 71  1  0
 26 72  1  0
 26 73  1  0
 29 74  1  0
 29 75  1  0
 30 76  1  0
 30 77  1  0
 32 78  1  0
 33 79  1  0
 34 80  1  0
 35 81  1  0
 36 82  1  0
 38 83  1  0
 38 84  1  0
 40 85  1  0
 41 86  1  0
 44 87  1  0
 45 88  1  0
 46 89  1  0
 47 90  1  0
 48 91  1  0
 49 92  1  0
 49 93  1  0
M  END
>  <Ligand ID>  (1) 
LIG0003311

>  <Ligand>  (1) 
CHEMBL377779

>  <SMILES>  (1) 
NC(=NCCNC(=O)[C@H]1C[C@H](CN1C(=O)[C@H](NC(=O)[C@@H](NC(=O)C)CCC(=O)N)Cc1ccccc1)OCc1ccc2c(c1)cccc2)N

>  <CID>  (1) 
44413913.0

>  <ChEMBL ID>  (1) 
nan

>  <InChiKey>  (1) 
ZQUWNPZLQBVXOY-GOGZTAQTSA-N

>  <InChi>  (1) 
InChI=1S/C35H44N8O6/c1-22(44)41-28(13-14-31(36)45)32(46)42-29(18-23-7-3-2-4-8-23)34(48)43-20-27(19-30(43)33(47)39-15-16-40-35(37)38)49-21-24-11-12-25-9-5-6-10-26(25)17-24/h2-12,17,27-30H,13-16,18-21H2,1H3,(H2,36,45)(H,39,47)(H,41,44)(H,42,46)(H4,37,38,40)/t27-,28+,29-,30-/m1/s1

>  <IUPAC Name>  (1) 
(2S)-2-acetamido-N-[(2R)-1-[(2R,4R)-2-[2-(diaminomethylideneamino)ethylcarbamoyl]-4-(naphthalen-2-ylmethoxy)pyrrolidin-1-yl]-1-oxo-3-phenylpropan-2-yl]pentanediamide

$$$$
