
     RDKit          3D

 59 59  0  0  0  0  0  0  0  0999 V2000
    7.1380   -0.7011   -0.8608 C   0  0  0  0  0  0  0  0  0  0  0  0
    6.0140   -1.5207   -0.2721 C   0  0  0  0  0  0  0  0  0  0  0  0
    4.8047   -1.5398   -1.2271 C   0  0  0  0  0  0  0  0  0  0  0  0
    3.7047   -2.3500   -0.6280 C   0  0  0  0  0  0  0  0  0  0  0  0
    2.4920   -2.4606   -1.4690 C   0  0  0  0  0  0  0  0  0  0  0  0
    1.7976   -1.1718   -1.8128 C   0  0  1  0  0  0  0  0  0  0  0  0
    1.4036   -0.5231   -0.5140 C   0  0  0  0  0  0  0  0  0  0  0  0
    0.7754    0.6133   -0.5107 C   0  0  0  0  0  0  0  0  0  0  0  0
    0.3221    1.3750    0.6880 C   0  0  1  0  0  0  0  0  0  0  0  0
    0.9770    2.7432    0.7014 C   0  0  2  0  0  0  0  0  0  0  0  0
    1.9767    2.7568    1.6460 O   0  0  0  0  0  0  0  0  0  0  0  0
   -0.0953    3.7319    1.0935 C   0  0  0  0  0  0  0  0  0  0  0  0
   -1.1825    2.8761    1.7006 C   0  0  1  0  0  0  0  0  0  0  0  0
   -1.1307    1.6496    0.7520 C   0  0  2  0  0  0  0  0  0  0  0  0
   -1.9796    0.5631    1.3366 C   0  0  0  0  0  0  0  0  0  0  0  0
   -1.9427   -0.7224    0.6356 C   0  0  0  0  0  0  0  0  0  0  0  0
   -2.9731   -1.3243    0.0591 C   0  0  0  0  0  0  0  0  0  0  0  0
   -4.3579   -0.8032    0.0180 C   0  0  0  0  0  0  0  0  0  0  0  0
   -4.8209   -0.6003   -1.4084 C   0  0  0  0  0  0  0  0  0  0  0  0
   -6.2135   -0.0713   -1.4986 C   0  0  0  0  0  0  0  0  0  0  0  0
   -7.2425   -0.9215   -0.8959 C   0  0  0  0  0  0  0  0  0  0  0  0
   -7.6132   -1.9567   -1.4967 O   0  0  0  0  0  0  0  0  0  0  0  0
   -7.8556   -0.6578    0.3283 O   0  0  0  0  0  0  0  0  0  0  0  0
   -0.8492    2.3988    2.9586 O   0  0  0  0  0  0  0  0  0  0  0  0
    2.5582   -0.2760   -2.5215 O   0  0  0  0  0  0  0  0  0  0  0  0
    8.0983   -1.2366   -0.8106 H   0  0  0  0  0  0  0  0  0  0  0  0
    6.8642   -0.4448   -1.9145 H   0  0  0  0  0  0  0  0  0  0  0  0
    7.2202    0.2302   -0.2826 H   0  0  0  0  0  0  0  0  0  0  0  0
    6.3290   -2.5760   -0.1213 H   0  0  0  0  0  0  0  0  0  0  0  0
    5.6533   -1.0772    0.6651 H   0  0  0  0  0  0  0  0  0  0  0  0
    4.5039   -0.4736   -1.4248 H   0  0  0  0  0  0  0  0  0  0  0  0
    5.1393   -1.9969   -2.1725 H   0  0  0  0  0  0  0  0  0  0  0  0
    4.1032   -3.3768   -0.3752 H   0  0  0  0  0  0  0  0  0  0  0  0
    3.4667   -1.8630    0.3617 H   0  0  0  0  0  0  0  0  0  0  0  0
    1.7695   -3.1240   -0.9007 H   0  0  0  0  0  0  0  0  0  0  0  0
    2.7040   -3.0515   -2.3902 H   0  0  0  0  0  0  0  0  0  0  0  0
    0.8500   -1.4301   -2.3624 H   0  0  0  0  0  0  0  0  0  0  0  0
    1.6311   -0.9828    0.4531 H   0  0  0  0  0  0  0  0  0  0  0  0
    0.5433    1.0795   -1.4784 H   0  0  0  0  0  0  0  0  0  0  0  0
    0.6027    0.8650    1.6326 H   0  0  0  0  0  0  0  0  0  0  0  0
    1.4312    2.9908   -0.2803 H   0  0  0  0  0  0  0  0  0  0  0  0
    2.3534    3.6624    1.7960 H   0  0  0  0  0  0  0  0  0  0  0  0
   -0.5267    4.1786    0.1601 H   0  0  0  0  0  0  0  0  0  0  0  0
    0.2788    4.5130    1.7863 H   0  0  0  0  0  0  0  0  0  0  0  0
   -2.1264    3.4126    1.6313 H   0  0  0  0  0  0  0  0  0  0  0  0
   -1.5577    1.9842   -0.2320 H   0  0  0  0  0  0  0  0  0  0  0  0
   -3.0043    0.9255    1.5782 H   0  0  0  0  0  0  0  0  0  0  0  0
   -1.5563    0.3377    2.3753 H   0  0  0  0  0  0  0  0  0  0  0  0
   -1.0005   -1.2554    0.5912 H   0  0  0  0  0  0  0  0  0  0  0  0
   -2.8190   -2.2984   -0.4424 H   0  0  0  0  0  0  0  0  0  0  0  0
   -5.0363   -1.6022    0.4450 H   0  0  0  0  0  0  0  0  0  0  0  0
   -4.5453    0.0726    0.6502 H   0  0  0  0  0  0  0  0  0  0  0  0
   -4.6838   -1.5660   -1.9429 H   0  0  0  0  0  0  0  0  0  0  0  0
   -4.1660    0.1191   -1.9500 H   0  0  0  0  0  0  0  0  0  0  0  0
   -6.4259    0.1074   -2.5844 H   0  0  0  0  0  0  0  0  0  0  0  0
   -6.1880    0.9572   -1.0426 H   0  0  0  0  0  0  0  0  0  0  0  0
   -8.1279   -1.4516    0.9013 H   0  0  0  0  0  0  0  0  0  0  0  0
    0.1043    2.6208    3.1648 H   0  0  0  0  0  0  0  0  0  0  0  0
    2.4103    0.6429   -2.1762 H   0  0  0  0  0  0  0  0  0  0  0  0
  1  2  1  0
  2  3  1  0
  3  4  1  0
  4  5  1  0
  5  6  1  0
  6  7  1  0
  7  8  2  0
  8  9  1  0
  9 10  1  0
 10 11  1  0
 10 12  1  0
 12 13  1  0
 13 14  1  0
 14 15  1  0
 15 16  1  0
 16 17  2  0
 17 18  1  0
 18 19  1  0
 19 20  1  0
 20 21  1  0
 21 22  2  0
 21 23  1  0
 13 24  1  0
  6 25  1  0
 14  9  1  0
  1 26  1  0
  1 27  1  0
  1 28  1  0
  2 29  1  0
  2 30  1  0
  3 31  1  0
  3 32  1  0
  4 33  1  0
  4 34  1  0
  5 35  1  0
  5 36  1  0
  6 37  1  6
  7 38  1  0
  8 39  1  0
  9 40  1  1
 10 41  1  6
 11 42  1  0
 12 43  1  0
 12 44  1  0
 13 45  1  1
 14 46  1  6
 15 47  1  0
 15 48  1  0
 16 49  1  0
 17 50  1  0
 18 51  1  0
 18 52  1  0
 19 53  1  0
 19 54  1  0
 20 55  1  0
 20 56  1  0
 23 57  1  0
 24 58  1  0
 25 59  1  0
M  END
>  <Ligand ID>  (1) 
LIG0000591

>  <Ligand>  (1) 
PGF2alpha;

>  <SMILES>  (1) 
CCCCC[C@@H](/C=C/[C@H]1[C@H](O)C[C@@H]([C@@H]1C/C=C\CCCC(=O)O)O)O

>  <CID>  (1) 
5280363.0

>  <ChEMBL ID>  (1) 
nan

>  <InChiKey>  (1) 
PXGPLTODNUVGFL-YNNPMVKQSA-N

>  <InChi>  (1) 
InChI=1S/C20H34O5/c1-2-3-6-9-15(21)12-13-17-16(18(22)14-19(17)23)10-7-4-5-8-11-20(24)25/h4,7,12-13,15-19,21-23H,2-3,5-6,8-11,14H2,1H3,(H,24,25)/b7-4-,13-12+/t15-,16+,17+,18-,19+/m0/s1

>  <IUPAC Name>  (1) 
(Z)-7-[(1R,2R,3R,5S)-3,5-dihydroxy-2-[(E,3S)-3-hydroxyoct-1-enyl]cyclopentyl]hept-5-enoic acid

$$$$
