
     RDKit          3D

143147  0  0  0  0  0  0  0  0999 V2000
   10.7133    0.4685    0.7519 C   0  0  0  0  0  0  0  0  0  0  0  0
    9.2194    0.6899    0.9978 C   0  0  0  0  0  0  0  0  0  0  0  0
    8.3930    0.0949   -0.0989 C   0  0  0  0  0  0  0  0  0  0  0  0
    6.9119    0.2012    0.0430 C   0  0  0  0  0  0  0  0  0  0  0  0
    6.4055    1.5791    0.1246 C   0  0  0  0  0  0  0  0  0  0  0  0
    4.8753    1.5642    0.2344 C   0  0  0  0  0  0  0  0  0  0  0  0
    4.4556    1.8665    1.3731 O   0  0  0  0  0  0  0  0  0  0  0  0
    4.0893    1.2351   -0.8812 N   0  0  0  0  0  0  0  0  0  0  0  0
    2.7039    1.1604   -1.0130 C   0  0  1  0  0  0  0  0  0  0  0  0
    1.9132    2.1603   -1.7641 C   0  0  0  0  0  0  0  0  0  0  0  0
    1.9378    3.4792   -1.0968 C   0  0  0  0  0  0  0  0  0  0  0  0
    2.6479    3.7467   -0.1131 O   0  0  0  0  0  0  0  0  0  0  0  0
    1.1254    4.6097   -1.5180 N   0  0  0  0  0  0  0  0  0  0  0  0
    1.2430    5.8228   -0.7519 C   0  0  0  0  0  0  0  0  0  0  0  0
    0.8139    5.7994    0.6620 C   0  0  0  0  0  0  0  0  0  0  0  0
   -0.6150    5.8351    1.0032 C   0  0  0  0  0  0  0  0  0  0  0  0
   -1.5933    4.8639    0.4962 C   0  0  0  0  0  0  0  0  0  0  0  0
   -1.3294    3.4599    0.8720 C   0  0  2  0  0  0  0  0  0  0  0  0
   -2.3900    2.5538    0.3432 N   0  0  0  0  0  0  0  0  0  0  0  0
   -2.4372    2.2408   -1.0423 C   0  0  0  0  0  0  0  0  0  0  0  0
   -1.6083    2.8852   -1.7311 O   0  0  0  0  0  0  0  0  0  0  0  0
   -3.3087    1.3000   -1.7191 C   0  0  1  0  0  0  0  0  0  0  0  0
   -4.0803    0.4196   -0.8134 N   0  0  0  0  0  0  0  0  0  0  0  0
   -3.3770   -0.6718   -0.2660 C   0  0  0  0  0  0  0  0  0  0  0  0
   -2.1498   -0.6855   -0.4577 O   0  0  0  0  0  0  0  0  0  0  0  0
   -4.0149   -1.7931    0.5317 C   0  0  1  0  0  0  0  0  0  0  0  0
   -2.8260   -2.4304    1.1274 N   0  0  0  0  0  0  0  0  0  0  0  0
   -1.8927   -3.1394    0.3199 C   0  0  0  0  0  0  0  0  0  0  0  0
   -2.1692   -3.2251   -0.8800 O   0  0  0  0  0  0  0  0  0  0  0  0
   -0.6290   -3.7373    0.9188 C   0  0  2  0  0  0  0  0  0  0  0  0
    0.3232   -3.8751   -0.2124 N   0  0  0  0  0  0  0  0  0  0  0  0
    1.2641   -2.8368   -0.3179 C   0  0  0  0  0  0  0  0  0  0  0  0
    1.2754   -1.9699    0.5621 O   0  0  0  0  0  0  0  0  0  0  0  0
    2.2848   -2.6648   -1.4230 C   0  0  1  0  0  0  0  0  0  0  0  0
    2.9885   -1.3967   -1.1387 N   0  0  0  0  0  0  0  0  0  0  0  0
    2.2166   -0.2009   -1.2578 C   0  0  0  0  0  0  0  0  0  0  0  0
    1.0331   -0.3656   -1.5930 O   0  0  0  0  0  0  0  0  0  0  0  0
    3.1460   -3.8304   -1.6079 C   0  0  0  0  0  0  0  0  0  0  0  0
    4.1177   -3.6012   -2.6974 C   0  0  0  0  0  0  0  0  0  0  0  0
    3.8915   -3.9006   -3.9969 N   0  0  0  0  0  0  0  0  0  0  0  0
    4.9802   -3.5660   -4.7040 C   0  0  0  0  0  0  0  0  0  0  0  0
    5.9120   -3.0548   -3.8957 N   0  0  0  0  0  0  0  0  0  0  0  0
    5.4005   -3.0654   -2.6399 C   0  0  0  0  0  0  0  0  0  0  0  0
   -0.8919   -5.0734    1.5106 C   0  0  0  0  0  0  0  0  0  0  0  0
   -1.3895   -6.0633    0.5527 C   0  0  0  0  0  0  0  0  0  0  0  0
   -0.4644   -6.8635   -0.0901 C   0  0  0  0  0  0  0  0  0  0  0  0
   -0.8710   -7.8222   -0.9976 C   0  0  0  0  0  0  0  0  0  0  0  0
   -2.2118   -7.9738   -1.2572 C   0  0  0  0  0  0  0  0  0  0  0  0
   -3.1118   -7.1615   -0.6024 C   0  0  0  0  0  0  0  0  0  0  0  0
   -2.7355   -6.1975    0.3075 C   0  0  0  0  0  0  0  0  0  0  0  0
   -5.0591   -1.4149    1.4661 C   0  0  0  0  0  0  0  0  0  0  0  0
   -5.6252   -2.6451    2.2034 C   0  0  0  0  0  0  0  0  0  0  0  0
   -6.2161   -3.6135    1.2378 C   0  0  0  0  0  0  0  0  0  0  0  0
   -6.7916   -4.7949    1.8086 N   0  0  0  0  0  0  0  0  0  0  0  0
   -6.7122   -5.2537    2.9766 C   0  0  0  0  0  0  0  0  0  0  0  0
   -5.9996   -4.6869    4.0643 N   0  0  0  0  0  0  0  0  0  0  0  0
   -7.4108   -6.4825    3.2557 N   0  0  0  0  0  0  0  0  0  0  0  0
   -4.3419    1.8944   -2.6340 C   0  0  0  0  0  0  0  0  0  0  0  0
   -5.2972    2.7760   -1.9641 C   0  0  0  0  0  0  0  0  0  0  0  0
   -6.5590    2.3347   -1.5353 C   0  0  0  0  0  0  0  0  0  0  0  0
   -7.1886    3.3464   -0.9136 N   0  0  0  0  0  0  0  0  0  0  0  0
   -6.4245    4.4353   -0.9026 C   0  0  0  0  0  0  0  0  0  0  0  0
   -5.2464    4.0825   -1.5573 C   0  0  0  0  0  0  0  0  0  0  0  0
   -4.2882    5.0393   -1.6847 C   0  0  0  0  0  0  0  0  0  0  0  0
   -4.4743    6.3047   -1.1830 C   0  0  0  0  0  0  0  0  0  0  0  0
   -5.6423    6.6196   -0.5427 C   0  0  0  0  0  0  0  0  0  0  0  0
   -6.6414    5.6945   -0.3890 C   0  0  0  0  0  0  0  0  0  0  0  0
   -1.1078    3.2517    2.2807 C   0  0  0  0  0  0  0  0  0  0  0  0
   -0.3035    3.8708    3.0252 O   0  0  0  0  0  0  0  0  0  0  0  0
   -1.8726    2.2273    2.9430 N   0  0  0  0  0  0  0  0  0  0  0  0
    6.7922    2.1798    1.4011 N   0  0  0  0  0  0  0  0  0  0  0  0
    7.0576    3.6041    1.3277 C   0  0  0  0  0  0  0  0  0  0  0  0
    6.9463    4.2119    0.2230 O   0  0  0  0  0  0  0  0  0  0  0  0
    7.4614    4.3772    2.5262 C   0  0  0  0  0  0  0  0  0  0  0  0
   11.0237   -0.2539    1.5463 H   0  0  0  0  0  0  0  0  0  0  0  0
   10.8085   -0.0158   -0.2402 H   0  0  0  0  0  0  0  0  0  0  0  0
   11.3091    1.3770    0.8795 H   0  0  0  0  0  0  0  0  0  0  0  0
    8.9051    0.4222    2.0157 H   0  0  0  0  0  0  0  0  0  0  0  0
    9.1105    1.8095    0.8824 H   0  0  0  0  0  0  0  0  0  0  0  0
    8.7659    0.5569   -1.0527 H   0  0  0  0  0  0  0  0  0  0  0  0
    8.7026   -0.9903   -0.1508 H   0  0  0  0  0  0  0  0  0  0  0  0
    6.6500   -0.4102    0.9613 H   0  0  0  0  0  0  0  0  0  0  0  0
    6.4366   -0.2904   -0.8480 H   0  0  0  0  0  0  0  0  0  0  0  0
    6.6751    2.2239   -0.6959 H   0  0  0  0  0  0  0  0  0  0  0  0
    4.6705    1.0083   -1.7712 H   0  0  0  0  0  0  0  0  0  0  0  0
    2.3235    1.3524    0.0926 H   0  0  0  0  0  0  0  0  0  0  0  0
    0.8609    1.8058   -1.7312 H   0  0  0  0  0  0  0  0  0  0  0  0
    2.1362    2.2251   -2.8466 H   0  0  0  0  0  0  0  0  0  0  0  0
    0.5501    4.4263   -2.3261 H   0  0  0  0  0  0  0  0  0  0  0  0
    0.6404    6.5984   -1.3244 H   0  0  0  0  0  0  0  0  0  0  0  0
    2.2986    6.2324   -0.7940 H   0  0  0  0  0  0  0  0  0  0  0  0
    1.3678    5.0150    1.2275 H   0  0  0  0  0  0  0  0  0  0  0  0
    1.2617    6.7581    1.1220 H   0  0  0  0  0  0  0  0  0  0  0  0
   -0.9708    6.8899    0.6655 H   0  0  0  0  0  0  0  0  0  0  0  0
   -0.7130    5.9434    2.1292 H   0  0  0  0  0  0  0  0  0  0  0  0
   -2.6008    5.2087    0.9097 H   0  0  0  0  0  0  0  0  0  0  0  0
   -1.6168    4.9827   -0.6280 H   0  0  0  0  0  0  0  0  0  0  0  0
   -0.4461    3.1452    0.2541 H   0  0  0  0  0  0  0  0  0  0  0  0
   -3.1058    2.1322    0.9219 H   0  0  0  0  0  0  0  0  0  0  0  0
   -2.6198    0.6583   -2.3334 H   0  0  0  0  0  0  0  0  0  0  0  0
   -5.0452    0.5413   -0.5574 H   0  0  0  0  0  0  0  0  0  0  0  0
   -4.3778   -2.4877   -0.2876 H   0  0  0  0  0  0  0  0  0  0  0  0
   -2.6117   -2.4010    2.1230 H   0  0  0  0  0  0  0  0  0  0  0  0
   -0.2363   -3.0065    1.6576 H   0  0  0  0  0  0  0  0  0  0  0  0
    0.3442   -4.6223   -0.8737 H   0  0  0  0  0  0  0  0  0  0  0  0
    1.6099   -2.4025   -2.2903 H   0  0  0  0  0  0  0  0  0  0  0  0
    3.9488   -1.2973   -0.8725 H   0  0  0  0  0  0  0  0  0  0  0  0
    2.4936   -4.7087   -1.8419 H   0  0  0  0  0  0  0  0  0  0  0  0
    3.6900   -4.0491   -0.6585 H   0  0  0  0  0  0  0  0  0  0  0  0
    3.0256   -4.3177   -4.3949 H   0  0  0  0  0  0  0  0  0  0  0  0
    5.0558   -3.7083   -5.7912 H   0  0  0  0  0  0  0  0  0  0  0  0
    5.8844   -2.7235   -1.7400 H   0  0  0  0  0  0  0  0  0  0  0  0
    0.0642   -5.4601    1.9821 H   0  0  0  0  0  0  0  0  0  0  0  0
   -1.6147   -5.0116    2.3567 H   0  0  0  0  0  0  0  0  0  0  0  0
    0.6071   -6.7902    0.0766 H   0  0  0  0  0  0  0  0  0  0  0  0
   -0.1476   -8.4366   -1.4854 H   0  0  0  0  0  0  0  0  0  0  0  0
   -2.5612   -8.7265   -1.9708 H   0  0  0  0  0  0  0  0  0  0  0  0
   -4.1598   -7.2744   -0.7988 H   0  0  0  0  0  0  0  0  0  0  0  0
   -3.4908   -5.5729    0.8021 H   0  0  0  0  0  0  0  0  0  0  0  0
   -5.9571   -1.0096    0.9251 H   0  0  0  0  0  0  0  0  0  0  0  0
   -4.7907   -0.6739    2.2348 H   0  0  0  0  0  0  0  0  0  0  0  0
   -4.8000   -3.1418    2.7658 H   0  0  0  0  0  0  0  0  0  0  0  0
   -6.4138   -2.3105    2.9006 H   0  0  0  0  0  0  0  0  0  0  0  0
   -5.4410   -3.9903    0.5028 H   0  0  0  0  0  0  0  0  0  0  0  0
   -6.9911   -3.1503    0.5807 H   0  0  0  0  0  0  0  0  0  0  0  0
   -6.3885   -3.9497    4.6661 H   0  0  0  0  0  0  0  0  0  0  0  0
   -5.0229   -5.0833    4.2166 H   0  0  0  0  0  0  0  0  0  0  0  0
   -7.2241   -7.3354    2.6598 H   0  0  0  0  0  0  0  0  0  0  0  0
   -8.1029   -6.5587    4.0357 H   0  0  0  0  0  0  0  0  0  0  0  0
   -4.8889    1.0473   -3.1103 H   0  0  0  0  0  0  0  0  0  0  0  0
   -3.8317    2.4224   -3.4984 H   0  0  0  0  0  0  0  0  0  0  0  0
   -6.9971    1.3555   -1.6637 H   0  0  0  0  0  0  0  0  0  0  0  0
   -8.1477    3.2899   -0.4942 H   0  0  0  0  0  0  0  0  0  0  0  0
   -3.3874    4.8032   -2.1986 H   0  0  0  0  0  0  0  0  0  0  0  0
   -3.7201    7.0784   -1.2753 H   0  0  0  0  0  0  0  0  0  0  0  0
   -5.8192    7.6111   -0.1306 H   0  0  0  0  0  0  0  0  0  0  0  0
   -7.5894    5.9013    0.1158 H   0  0  0  0  0  0  0  0  0  0  0  0
   -2.6509    2.4240    3.5921 H   0  0  0  0  0  0  0  0  0  0  0  0
   -1.5524    1.2428    2.6938 H   0  0  0  0  0  0  0  0  0  0  0  0
    6.8730    1.6509    2.2887 H   0  0  0  0  0  0  0  0  0  0  0  0
    8.3673    4.9694    2.2162 H   0  0  0  0  0  0  0  0  0  0  0  0
    6.6592    5.1135    2.7168 H   0  0  0  0  0  0  0  0  0  0  0  0
    7.6753    3.7089    3.3731 H   0  0  0  0  0  0  0  0  0  0  0  0
  1  2  1  0
  2  3  1  0
  3  4  1  0
  4  5  1  0
  5  6  1  0
  6  7  2  0
  6  8  1  0
  8  9  1  0
  9 10  1  0
 10 11  1  0
 11 12  2  0
 11 13  1  0
 13 14  1  0
 14 15  1  0
 15 16  1  0
 16 17  1  0
 17 18  1  0
 18 19  1  0
 19 20  1  0
 20 21  2  0
 20 22  1  0
 22 23  1  0
 23 24  1  0
 24 25  2  0
 24 26  1  0
 26 27  1  0
 27 28  1  0
 28 29  2  0
 28 30  1  0
 30 31  1  0
 31 32  1  0
 32 33  2  0
 32 34  1  0
 34 35  1  0
 35 36  1  0
 36 37  2  0
 34 38  1  0
 38 39  1  0
 39 40  1  0
 40 41  1  0
 41 42  2  0
 42 43  1  0
 30 44  1  0
 44 45  1  0
 45 46  2  0
 46 47  1  0
 47 48  2  0
 48 49  1  0
 49 50  2  0
 26 51  1  0
 51 52  1  0
 52 53  1  0
 53 54  1  0
 54 55  2  3
 55 56  1  0
 55 57  1  0
 22 58  1  0
 58 59  1  0
 59 60  2  0
 60 61  1  0
 61 62  1  0
 62 63  2  0
 63 64  1  0
 64 65  2  0
 65 66  1  0
 66 67  2  0
 18 68  1  0
 68 69  2  0
 68 70  1  0
  5 71  1  0
 71 72  1  0
 72 73  2  0
 72 74  1  0
 36  9  1  0
 43 39  2  0
 50 45  1  0
 63 59  1  0
 67 62  1  0
  1 75  1  0
  1 76  1  0
  1 77  1  0
  2 78  1  0
  2 79  1  0
  3 80  1  0
  3 81  1  0
  4 82  1  0
  4 83  1  0
  5 84  1  0
  8 85  1  0
  9 86  1  1
 10 87  1  0
 10 88  1  0
 13 89  1  0
 14 90  1  0
 14 91  1  0
 15 92  1  0
 15 93  1  0
 16 94  1  0
 16 95  1  0
 17 96  1  0
 17 97  1  0
 18 98  1  6
 19 99  1  0
 22100  1  6
 23101  1  0
 26102  1  6
 27103  1  0
 30104  1  1
 31105  1  0
 34106  1  6
 35107  1  0
 38108  1  0
 38109  1  0
 40110  1  0
 41111  1  0
 43112  1  0
 44113  1  0
 44114  1  0
 46115  1  0
 47116  1  0
 48117  1  0
 49118  1  0
 50119  1  0
 51120  1  0
 51121  1  0
 52122  1  0
 52123  1  0
 53124  1  0
 53125  1  0
 56126  1  0
 56127  1  0
 57128  1  0
 57129  1  0
 58130  1  0
 58131  1  0
 60132  1  0
 61133  1  0
 64134  1  0
 65135  1  0
 66136  1  0
 67137  1  0
 70138  1  0
 70139  1  0
 71140  1  0
 74141  1  0
 74142  1  0
 74143  1  0
M  END
>  <Ligand ID>  (1) 
LIG0001856

>  <Ligand>  (1) 
CHEMBL3735690

>  <SMILES>  (1) 
CCCCC(C(=O)N[C@H]1CC(=O)NCCCC[C@H](NC(=O)[C@@H](NC(=O)[C@@H](NC(=O)[C@H](NC(=O)[C@@H](NC1=O)Cc1[nH]cnc1)Cc1ccccc1)CCCN=C(N)N)Cc1c[nH]c2c1cccc2)C(=O)N)NC(=O)C

>  <CID>  (1) 
127036484.0

>  <ChEMBL ID>  (1) 
nan

>  <InChiKey>  (1) 
JDKLPDJLXHXHNV-XMWYYVGNSA-N

>  <InChi>  (1) 
InChI=1S/C50H69N15O9/c1-3-4-16-36(59-29(2)66)44(69)65-41-25-42(67)55-20-11-10-18-35(43(51)68)60-47(72)39(23-31-26-57-34-17-9-8-15-33(31)34)63-45(70)37(19-12-21-56-50(52)53)61-46(71)38(22-30-13-6-5-7-14-30)62-48(73)40(64-49(41)74)24-32-27-54-28-58-32/h5-9,13-15,17,26-28,35-41,57H,3-4,10-12,16,18-25H2,1-2H3,(H2,51,68)(H,54,58)(H,55,67)(H,59,66)(H,60,72)(H,61,71)(H,62,73)(H,63,70)(H,64,74)(H,65,69)(H4,52,53,56)/t35-,36?,37-,38+,39-,40-,41-/m0/s1

>  <IUPAC Name>  (1) 
(3S,6S,9R,12S,15S,23S)-15-(2-acetamidohexanoylamino)-9-benzyl-6-[3-(diaminomethylideneamino)propyl]-12-(1H-imidazol-5-ylmethyl)-3-(1H-indol-3-ylmethyl)-2,5,8,11,14,17-hexaoxo-1,4,7,10,13,18-hexazacyclotricosane-23-carboxamide

$$$$
