
     RDKit          3D

 45 46  0  0  0  0  0  0  0  0999 V2000
   -6.8513    2.1214    1.5731 O   0  0  0  0  0  0  0  0  0  0  0  0
   -5.9221    1.5172    0.7195 C   0  0  0  0  0  0  0  0  0  0  0  0
   -6.3861    0.7981   -0.1887 O   0  0  0  0  0  0  0  0  0  0  0  0
   -4.5011    1.7885    0.9768 C   0  0  0  0  0  0  0  0  0  0  0  0
   -3.5682    1.0570    0.0291 C   0  0  0  0  0  0  0  0  0  0  0  0
   -3.6774   -0.4305    0.1045 C   0  0  0  0  0  0  0  0  0  0  0  0
   -2.7714   -1.0259   -0.7693 O   0  0  0  0  0  0  0  0  0  0  0  0
   -1.4011   -0.9193   -0.7607 C   0  0  0  0  0  0  0  0  0  0  0  0
   -0.6606    0.0067   -1.4471 C   0  0  0  0  0  0  0  0  0  0  0  0
   -1.3187    1.0160   -2.3118 C   0  0  0  0  0  0  0  0  0  0  0  0
    0.7290    0.0565   -1.3897 C   0  0  0  0  0  0  0  0  0  0  0  0
    1.4367   -0.8556   -0.6136 C   0  0  0  0  0  0  0  0  0  0  0  0
    0.7067   -1.7871    0.0774 C   0  0  0  0  0  0  0  0  0  0  0  0
   -0.6755   -1.8309    0.0159 C   0  0  0  0  0  0  0  0  0  0  0  0
   -1.3857   -2.8670    0.7913 C   0  0  0  0  0  0  0  0  0  0  0  0
    2.8709   -0.7556   -0.5933 C   0  0  0  0  0  0  0  0  0  0  0  0
    3.5681    0.4304   -0.4584 C   0  0  0  0  0  0  0  0  0  0  0  0
    4.9460    0.4517   -0.4473 C   0  0  0  0  0  0  0  0  0  0  0  0
    5.6808   -0.7270   -0.5723 C   0  0  0  0  0  0  0  0  0  0  0  0
    4.9810   -1.9159   -0.7076 C   0  0  0  0  0  0  0  0  0  0  0  0
    3.6011   -1.9328   -0.7182 C   0  0  0  0  0  0  0  0  0  0  0  0
    2.9469   -3.1195   -0.8525 F   0  0  0  0  0  0  0  0  0  0  0  0
    5.6354    1.6504   -0.3111 O   0  0  0  0  0  0  0  0  0  0  0  0
    5.9974    2.1614    0.9598 C   0  0  0  0  0  0  0  0  0  0  0  0
    6.6758    3.3630    0.8719 F   0  0  0  0  0  0  0  0  0  0  0  0
    4.8948    2.2352    1.8098 F   0  0  0  0  0  0  0  0  0  0  0  0
    6.8789    1.2877    1.5864 F   0  0  0  0  0  0  0  0  0  0  0  0
   -7.8541    2.1355    1.3420 H   0  0  0  0  0  0  0  0  0  0  0  0
   -4.1948    1.4881    2.0170 H   0  0  0  0  0  0  0  0  0  0  0  0
   -4.2728    2.8871    0.8721 H   0  0  0  0  0  0  0  0  0  0  0  0
   -2.5426    1.3460    0.3137 H   0  0  0  0  0  0  0  0  0  0  0  0
   -3.8300    1.3285   -1.0273 H   0  0  0  0  0  0  0  0  0  0  0  0
   -4.6955   -0.7341   -0.2599 H   0  0  0  0  0  0  0  0  0  0  0  0
   -3.5383   -0.8082    1.1637 H   0  0  0  0  0  0  0  0  0  0  0  0
   -2.2599    0.5924   -2.7700 H   0  0  0  0  0  0  0  0  0  0  0  0
   -1.5187    1.9705   -1.8156 H   0  0  0  0  0  0  0  0  0  0  0  0
   -0.6756    1.2455   -3.2052 H   0  0  0  0  0  0  0  0  0  0  0  0
    1.2773    0.8050   -1.9478 H   0  0  0  0  0  0  0  0  0  0  0  0
    1.2182   -2.5014    0.6818 H   0  0  0  0  0  0  0  0  0  0  0  0
   -2.2879   -3.2577    0.2418 H   0  0  0  0  0  0  0  0  0  0  0  0
   -0.7323   -3.7167    1.0382 H   0  0  0  0  0  0  0  0  0  0  0  0
   -1.7990   -2.3747    1.7101 H   0  0  0  0  0  0  0  0  0  0  0  0
    3.0200    1.3334   -0.3622 H   0  0  0  0  0  0  0  0  0  0  0  0
    6.7480   -0.6818   -0.5605 H   0  0  0  0  0  0  0  0  0  0  0  0
    5.5076   -2.8316   -0.8052 H   0  0  0  0  0  0  0  0  0  0  0  0
  1  2  1  0
  2  3  2  0
  2  4  1  0
  4  5  1  0
  5  6  1  0
  6  7  1  0
  7  8  1  0
  8  9  2  0
  9 10  1  0
  9 11  1  0
 11 12  2  0
 12 13  1  0
 13 14  2  0
 14 15  1  0
 12 16  1  0
 16 17  2  0
 17 18  1  0
 18 19  2  0
 19 20  1  0
 20 21  2  0
 21 22  1  0
 18 23  1  0
 23 24  1  0
 24 25  1  0
 24 26  1  0
 24 27  1  0
 14  8  1  0
 21 16  1  0
  1 28  1  0
  4 29  1  0
  4 30  1  0
  5 31  1  0
  5 32  1  0
  6 33  1  0
  6 34  1  0
 10 35  1  0
 10 36  1  0
 10 37  1  0
 11 38  1  0
 13 39  1  0
 15 40  1  0
 15 41  1  0
 15 42  1  0
 17 43  1  0
 19 44  1  0
 20 45  1  0
M  END
>  <Ligand ID>  (1) 
LIG0003772

>  <Ligand>  (1) 
CHEMBL3985939

>  <SMILES>  (1) 
OC(=O)CCCOc1c(C)cc(cc1C)c1cc(ccc1F)OC(F)(F)F

>  <CID>  (1) 
134157207.0

>  <ChEMBL ID>  (1) 
nan

>  <InChiKey>  (1) 
KYUYDTXVIDZOHQ-UHFFFAOYSA-N

>  <InChi>  (1) 
InChI=1S/C19H18F4O4/c1-11-8-13(9-12(2)18(11)26-7-3-4-17(24)25)15-10-14(5-6-16(15)20)27-19(21,22)23/h5-6,8-10H,3-4,7H2,1-2H3,(H,24,25)

>  <IUPAC Name>  (1) 
4-[4-[2-fluoro-5-(trifluoromethoxy)phenyl]-2,6-dimethylphenoxy]butanoic acid

$$$$
