
     RDKit          3D

138140  0  0  0  0  0  0  0  0999 V2000
   -7.9906   -2.9896   -0.7049 C   0  0  0  0  0  0  0  0  0  0  0  0
   -6.8642   -2.6081   -1.6472 C   0  0  0  0  0  0  0  0  0  0  0  0
   -6.2915   -1.2564   -1.3731 C   0  0  1  0  0  0  0  0  0  0  0  0
   -5.7610   -1.1890    0.0329 C   0  0  2  0  0  0  0  0  0  0  0  0
   -5.1974    0.1579    0.2649 N   0  0  0  0  0  0  0  0  0  0  0  0
   -5.8707    1.2774    0.7686 C   0  0  0  0  0  0  0  0  0  0  0  0
   -7.0758    1.1424    1.0174 O   0  0  0  0  0  0  0  0  0  0  0  0
   -5.1103    2.5571    0.9733 C   0  0  1  0  0  0  0  0  0  0  0  0
   -3.7152    2.3590    0.7162 N   0  0  0  0  0  0  0  0  0  0  0  0
   -3.0848    2.2652   -0.5576 C   0  0  0  0  0  0  0  0  0  0  0  0
   -3.8147    2.4077   -1.5425 O   0  0  0  0  0  0  0  0  0  0  0  0
   -1.5899    1.9998   -0.6714 C   0  0  0  0  0  0  0  0  0  0  0  0
   -1.3001    1.7997   -2.1173 C   0  0  0  0  0  0  0  0  0  0  0  0
    0.3642    1.4837   -2.6195 S   0  0  0  0  0  0  0  0  0  0  0  0
    1.0963   -0.0695   -2.1305 C   0  0  0  0  0  0  0  0  0  0  0  0
    1.4416   -0.0986   -0.6878 C   0  0  0  0  0  0  0  0  0  0  0  0
    1.9786   -1.5122   -0.2845 C   0  0  2  0  0  0  0  0  0  0  0  0
    0.8189   -2.3620   -0.6520 N   0  0  0  0  0  0  0  0  0  0  0  0
    0.9052   -3.3173   -1.6964 C   0  0  0  0  0  0  0  0  0  0  0  0
    1.9813   -3.3644   -2.2964 O   0  0  0  0  0  0  0  0  0  0  0  0
   -0.2239   -4.2433   -2.1028 C   0  0  1  0  0  0  0  0  0  0  0  0
   -1.1238   -4.1239   -0.9999 N   0  0  0  0  0  0  0  0  0  0  0  0
   -2.4976   -4.1211   -0.8428 C   0  0  0  0  0  0  0  0  0  0  0  0
   -3.2588   -4.2445   -1.7569 O   0  0  0  0  0  0  0  0  0  0  0  0
   -3.1068   -3.9319    0.5891 C   0  0  1  0  0  0  0  0  0  0  0  0
   -4.4836   -3.4626    0.3063 N   0  0  0  0  0  0  0  0  0  0  0  0
   -4.6286   -2.0607    0.3049 C   0  0  0  0  0  0  0  0  0  0  0  0
   -3.5478   -1.4388    0.6046 O   0  0  0  0  0  0  0  0  0  0  0  0
   -3.1341   -5.2170    1.3185 C   0  0  0  0  0  0  0  0  0  0  0  0
   -3.5778   -5.2709    2.7150 C   0  0  0  0  0  0  0  0  0  0  0  0
   -4.8921   -4.9215    3.1635 C   0  0  0  0  0  0  0  0  0  0  0  0
   -5.8955   -4.5576    2.5000 O   0  0  0  0  0  0  0  0  0  0  0  0
   -5.1505   -4.9847    4.5986 N   0  0  0  0  0  0  0  0  0  0  0  0
   -0.8021   -3.5429   -3.3671 C   0  0  0  0  0  0  0  0  0  0  0  0
   -1.8179   -4.3945   -3.9704 C   0  0  0  0  0  0  0  0  0  0  0  0
   -2.7730   -3.8916   -4.6642 O   0  0  0  0  0  0  0  0  0  0  0  0
   -1.8426   -5.8336   -3.8563 N   0  0  0  0  0  0  0  0  0  0  0  0
    2.1338   -1.4360    1.1624 C   0  0  0  0  0  0  0  0  0  0  0  0
    1.0962   -1.6953    1.8743 O   0  0  0  0  0  0  0  0  0  0  0  0
    3.2992   -1.1156    1.8900 N   0  0  0  0  0  0  0  0  0  0  0  0
    3.1452   -1.0272    3.3418 C   0  0  0  0  0  0  0  0  0  0  0  0
    3.3601   -2.2526    4.0596 C   0  0  0  0  0  0  0  0  0  0  0  0
    4.4455   -2.8170    4.6385 C   0  0  0  0  0  0  0  0  0  0  0  0
    4.3447   -4.0022    5.2466 C   0  0  0  0  0  0  0  0  0  0  0  0
    3.1171   -4.6153    5.2598 C   0  0  0  0  0  0  0  0  0  0  0  0
    1.9940   -3.4278    4.3388 S   0  0  0  0  0  0  0  0  0  0  0  0
    4.5895   -0.9042    1.3432 C   0  0  0  0  0  0  0  0  0  0  0  0
    4.9703    0.4989    1.0665 C   0  0  0  0  0  0  0  0  0  0  0  0
    4.2560    1.4924    1.2957 O   0  0  0  0  0  0  0  0  0  0  0  0
    6.2637    0.6693    0.5006 N   0  0  0  0  0  0  0  0  0  0  0  0
    6.8382    2.0024    0.1847 C   0  0  2  0  0  0  0  0  0  0  0  0
    6.7266    2.2360   -1.2618 C   0  0  0  0  0  0  0  0  0  0  0  0
    6.4520    1.2113   -1.9764 O   0  0  0  0  0  0  0  0  0  0  0  0
    6.8841    3.4653   -1.9230 N   0  0  0  0  0  0  0  0  0  0  0  0
    6.7759    3.6915   -3.3354 C   0  0  0  0  0  0  0  0  0  0  0  0
    7.0130    5.1321   -3.6536 C   0  0  0  0  0  0  0  0  0  0  0  0
    7.2509    5.8749   -2.6430 O   0  0  0  0  0  0  0  0  0  0  0  0
    6.9710    5.6272   -4.9779 N   0  0  0  0  0  0  0  0  0  0  0  0
    8.2530    1.9198    0.6354 C   0  0  0  0  0  0  0  0  0  0  0  0
    9.1708    3.0749    0.4636 C   0  0  0  0  0  0  0  0  0  0  0  0
    8.6098    4.2859    1.1601 C   0  0  0  0  0  0  0  0  0  0  0  0
    9.7270    3.3119   -0.8922 C   0  0  0  0  0  0  0  0  0  0  0  0
   -5.7638    3.7049    0.2715 C   0  0  0  0  0  0  0  0  0  0  0  0
   -5.0941    5.0089    0.4465 C   0  0  0  0  0  0  0  0  0  0  0  0
   -5.4153    5.7302    1.5873 C   0  0  0  0  0  0  0  0  0  0  0  0
   -4.8238    6.9562    1.8049 C   0  0  0  0  0  0  0  0  0  0  0  0
   -3.9178    7.5417    0.9632 C   0  0  0  0  0  0  0  0  0  0  0  0
   -3.5944    6.8128   -0.1895 C   0  0  0  0  0  0  0  0  0  0  0  0
   -4.1939    5.5691   -0.4100 C   0  0  0  0  0  0  0  0  0  0  0  0
   -3.3162    8.7680    1.1622 O   0  0  0  0  0  0  0  0  0  0  0  0
   -5.2654   -0.9591   -2.4375 C   0  0  0  0  0  0  0  0  0  0  0  0
   -8.6467   -2.1137   -0.6126 H   0  0  0  0  0  0  0  0  0  0  0  0
   -7.5286   -3.2668    0.2600 H   0  0  0  0  0  0  0  0  0  0  0  0
   -8.5649   -3.8373   -1.1233 H   0  0  0  0  0  0  0  0  0  0  0  0
   -6.1415   -3.3970   -1.8573 H   0  0  0  0  0  0  0  0  0  0  0  0
   -7.4166   -2.4822   -2.6611 H   0  0  0  0  0  0  0  0  0  0  0  0
   -7.1581   -0.5528   -1.4220 H   0  0  0  0  0  0  0  0  0  0  0  0
   -6.6115   -1.4161    0.6857 H   0  0  0  0  0  0  0  0  0  0  0  0
   -4.2121    0.2665    0.0347 H   0  0  0  0  0  0  0  0  0  0  0  0
   -5.2159    2.7941    2.0744 H   0  0  0  0  0  0  0  0  0  0  0  0
   -3.0656    2.2729    1.5140 H   0  0  0  0  0  0  0  0  0  0  0  0
   -1.5155    0.9818   -0.1720 H   0  0  0  0  0  0  0  0  0  0  0  0
   -0.9958    2.7623   -0.1687 H   0  0  0  0  0  0  0  0  0  0  0  0
   -1.9169    0.8931   -2.4385 H   0  0  0  0  0  0  0  0  0  0  0  0
   -1.7746    2.6432   -2.6874 H   0  0  0  0  0  0  0  0  0  0  0  0
    2.0784   -0.1645   -2.6959 H   0  0  0  0  0  0  0  0  0  0  0  0
    0.4612   -0.9511   -2.4189 H   0  0  0  0  0  0  0  0  0  0  0  0
    0.6335    0.2248   -0.0691 H   0  0  0  0  0  0  0  0  0  0  0  0
    2.2769    0.6336   -0.5382 H   0  0  0  0  0  0  0  0  0  0  0  0
    2.8544   -1.6915   -0.8681 H   0  0  0  0  0  0  0  0  0  0  0  0
   -0.0595   -2.2587   -0.1757 H   0  0  0  0  0  0  0  0  0  0  0  0
    0.0713   -5.2157   -2.4162 H   0  0  0  0  0  0  0  0  0  0  0  0
   -0.6211   -4.0614   -0.0358 H   0  0  0  0  0  0  0  0  0  0  0  0
   -2.4670   -3.1941    1.0445 H   0  0  0  0  0  0  0  0  0  0  0  0
   -5.2686   -4.0368    0.1125 H   0  0  0  0  0  0  0  0  0  0  0  0
   -2.1102   -5.7264    1.2987 H   0  0  0  0  0  0  0  0  0  0  0  0
   -3.7381   -6.0024    0.7159 H   0  0  0  0  0  0  0  0  0  0  0  0
   -2.7906   -4.6984    3.3268 H   0  0  0  0  0  0  0  0  0  0  0  0
   -3.3639   -6.3386    3.0738 H   0  0  0  0  0  0  0  0  0  0  0  0
   -6.0419   -5.3919    4.9650 H   0  0  0  0  0  0  0  0  0  0  0  0
   -4.4787   -4.6413    5.2905 H   0  0  0  0  0  0  0  0  0  0  0  0
   -1.2067   -2.5713   -3.0128 H   0  0  0  0  0  0  0  0  0  0  0  0
    0.0282   -3.3862   -4.0532 H   0  0  0  0  0  0  0  0  0  0  0  0
   -2.6171   -6.3464   -3.3946 H   0  0  0  0  0  0  0  0  0  0  0  0
   -1.0114   -6.3254   -4.2812 H   0  0  0  0  0  0  0  0  0  0  0  0
    2.1136   -0.6338    3.5262 H   0  0  0  0  0  0  0  0  0  0  0  0
    3.8175   -0.2319    3.7259 H   0  0  0  0  0  0  0  0  0  0  0  0
    5.4299   -2.2704    4.5955 H   0  0  0  0  0  0  0  0  0  0  0  0
    5.2047   -4.5037    5.7371 H   0  0  0  0  0  0  0  0  0  0  0  0
    2.7336   -5.5396    5.6578 H   0  0  0  0  0  0  0  0  0  0  0  0
    5.3232   -1.3723    2.0715 H   0  0  0  0  0  0  0  0  0  0  0  0
    4.7311   -1.4524    0.3653 H   0  0  0  0  0  0  0  0  0  0  0  0
    6.8888   -0.1573    0.2750 H   0  0  0  0  0  0  0  0  0  0  0  0
    6.2030    2.7576    0.6787 H   0  0  0  0  0  0  0  0  0  0  0  0
    7.0912    4.3105   -1.3106 H   0  0  0  0  0  0  0  0  0  0  0  0
    5.7140    3.4846   -3.6450 H   0  0  0  0  0  0  0  0  0  0  0  0
    7.4938    3.0758   -3.9175 H   0  0  0  0  0  0  0  0  0  0  0  0
    6.2848    5.3617   -5.7004 H   0  0  0  0  0  0  0  0  0  0  0  0
    7.7086    6.3291   -5.2421 H   0  0  0  0  0  0  0  0  0  0  0  0
    8.3182    1.6388    1.7388 H   0  0  0  0  0  0  0  0  0  0  0  0
    8.7082    1.0235    0.1197 H   0  0  0  0  0  0  0  0  0  0  0  0
   10.1050    2.8143    1.1025 H   0  0  0  0  0  0  0  0  0  0  0  0
    8.9676    4.3797    2.2178 H   0  0  0  0  0  0  0  0  0  0  0  0
    8.9487    5.1838    0.5695 H   0  0  0  0  0  0  0  0  0  0  0  0
    7.5143    4.2077    1.2231 H   0  0  0  0  0  0  0  0  0  0  0  0
   10.8447    3.2127   -0.8610 H   0  0  0  0  0  0  0  0  0  0  0  0
    9.4597    4.2576   -1.3760 H   0  0  0  0  0  0  0  0  0  0  0  0
    9.3960    2.4823   -1.5671 H   0  0  0  0  0  0  0  0  0  0  0  0
   -5.9001    3.5270   -0.8207 H   0  0  0  0  0  0  0  0  0  0  0  0
   -6.8125    3.7679    0.6836 H   0  0  0  0  0  0  0  0  0  0  0  0
   -6.1187    5.3702    2.3288 H   0  0  0  0  0  0  0  0  0  0  0  0
   -5.0958    7.5077    2.7118 H   0  0  0  0  0  0  0  0  0  0  0  0
   -2.8817    7.2533   -0.8654 H   0  0  0  0  0  0  0  0  0  0  0  0
   -3.9043    5.0725   -1.3176 H   0  0  0  0  0  0  0  0  0  0  0  0
   -3.5897    9.6005    0.6364 H   0  0  0  0  0  0  0  0  0  0  0  0
   -5.6776   -0.2223   -3.1891 H   0  0  0  0  0  0  0  0  0  0  0  0
   -5.0223   -1.8524   -3.0486 H   0  0  0  0  0  0  0  0  0  0  0  0
   -4.3289   -0.5620   -2.0427 H   0  0  0  0  0  0  0  0  0  0  0  0
  1  2  1  0
  2  3  1  0
  3  4  1  0
  4  5  1  0
  5  6  1  0
  6  7  2  0
  6  8  1  0
  8  9  1  0
  9 10  1  0
 10 11  2  0
 10 12  1  0
 12 13  1  0
 13 14  1  0
 14 15  1  0
 15 16  1  0
 16 17  1  0
 17 18  1  0
 18 19  1  0
 19 20  2  0
 19 21  1  0
 21 22  1  0
 22 23  1  0
 23 24  2  0
 23 25  1  0
 25 26  1  0
 26 27  1  0
 27 28  2  0
 25 29  1  0
 29 30  1  0
 30 31  1  0
 31 32  2  0
 31 33  1  0
 21 34  1  0
 34 35  1  0
 35 36  2  0
 35 37  1  0
 17 38  1  0
 38 39  2  0
 38 40  1  0
 40 41  1  0
 41 42  1  0
 42 43  2  0
 43 44  1  0
 44 45  2  0
 45 46  1  0
 40 47  1  0
 47 48  1  0
 48 49  2  0
 48 50  1  0
 50 51  1  0
 51 52  1  0
 52 53  2  0
 52 54  1  0
 54 55  1  0
 55 56  1  0
 56 57  2  0
 56 58  1  0
 51 59  1  0
 59 60  1  0
 60 61  1  0
 60 62  1  0
  8 63  1  0
 63 64  1  0
 64 65  2  0
 65 66  1  0
 66 67  2  0
 67 68  1  0
 68 69  2  0
 67 70  1  0
  3 71  1  0
 27  4  1  0
 46 42  1  0
 69 64  1  0
  1 72  1  0
  1 73  1  0
  1 74  1  0
  2 75  1  0
  2 76  1  0
  3 77  1  1
  4 78  1  1
  5 79  1  0
  8 80  1  1
  9 81  1  0
 12 82  1  0
 12 83  1  0
 13 84  1  0
 13 85  1  0
 15 86  1  0
 15 87  1  0
 16 88  1  0
 16 89  1  0
 17 90  1  6
 18 91  1  0
 21 92  1  6
 22 93  1  0
 25 94  1  1
 26 95  1  0
 29 96  1  0
 29 97  1  0
 30 98  1  0
 30 99  1  0
 33100  1  0
 33101  1  0
 34102  1  0
 34103  1  0
 37104  1  0
 37105  1  0
 41106  1  0
 41107  1  0
 43108  1  0
 44109  1  0
 45110  1  0
 47111  1  0
 47112  1  0
 50113  1  0
 51114  1  1
 54115  1  0
 55116  1  0
 55117  1  0
 58118  1  0
 58119  1  0
 59120  1  0
 59121  1  0
 60122  1  0
 61123  1  0
 61124  1  0
 61125  1  0
 62126  1  0
 62127  1  0
 62128  1  0
 63129  1  0
 63130  1  0
 65131  1  0
 66132  1  0
 68133  1  0
 69134  1  0
 70135  1  0
 71136  1  0
 71137  1  0
 71138  1  0
M  END
>  <Ligand ID>  (1) 
LIG0001557

>  <Ligand>  (1) 
CHEMBL3354601

>  <SMILES>  (1) 
CC[C@@H]([C@@H]1NC(=O)[C@@H](NC(=O)CCSCC[C@H](NC(=O)[C@@H](NC(=O)[C@@H](NC1=O)CCC(=O)N)CC(=O)N)C(=O)N(Cc1cccs1)CC(=O)N[C@H](C(=O)NCC(=O)N)CC(C)C)Cc1ccc(cc1)O)C

>  <CID>  (1) 
118720289.0

>  <ChEMBL ID>  (1) 
nan

>  <InChiKey>  (1) 
GWVWQDNOLXCQAG-LZNUSVCISA-N

>  <InChi>  (1) 
InChI=1S/C46H67N11O12S2/c1-5-26(4)40-45(68)53-30(12-13-35(47)59)42(65)55-34(21-36(48)60)43(66)54-31(14-17-70-18-15-38(62)51-33(44(67)56-40)20-27-8-10-28(58)11-9-27)46(69)57(23-29-7-6-16-71-29)24-39(63)52-32(19-25(2)3)41(64)50-22-37(49)61/h6-11,16,25-26,30-34,40,58H,5,12-15,17-24H2,1-4H3,(H2,47,59)(H2,48,60)(H2,49,61)(H,50,64)(H,51,62)(H,52,63)(H,53,68)(H,54,66)(H,55,65)(H,56,67)/t26-,30-,31-,32-,33-,34-,40-/m0/s1

>  <IUPAC Name>  (1) 
(4S,7S,10S,13S,16S)-7-(2-amino-2-oxoethyl)-N-[2-[[(2S)-1-[(2-amino-2-oxoethyl)amino]-4-methyl-1-oxopentan-2-yl]amino]-2-oxoethyl]-10-(3-amino-3-oxopropyl)-13-[(2S)-butan-2-yl]-16-[(4-hydroxyphenyl)methyl]-6,9,12,15,18-pentaoxo-N-(thiophen-2-ylmethyl)-1-thia-5,8,11,14,17-pentazacycloicosane-4-carboxamide

$$$$
