
     RDKit          3D

 55 58  0  0  0  0  0  0  0  0999 V2000
   -8.1672   -1.1442   -0.3866 C   0  0  0  0  0  0  0  0  0  0  0  0
   -7.4285    0.0579    0.1725 C   0  0  0  0  0  0  0  0  0  0  0  0
   -6.0248   -0.1266   -0.0473 O   0  0  0  0  0  0  0  0  0  0  0  0
   -5.1093    0.8284    0.3680 C   0  0  0  0  0  0  0  0  0  0  0  0
   -5.5871    1.8497    0.9407 O   0  0  0  0  0  0  0  0  0  0  0  0
   -3.7117    0.6663    0.1604 N   0  0  0  0  0  0  0  0  0  0  0  0
   -3.1400   -0.4992   -0.4956 C   0  0  0  0  0  0  0  0  0  0  0  0
   -2.1780   -1.0867    0.4842 C   0  0  0  0  0  0  0  0  0  0  0  0
   -1.0869   -0.1258    0.9179 C   0  0  0  0  0  0  0  0  0  0  0  0
   -1.5757    1.2017    1.3036 C   0  0  0  0  0  0  0  0  0  0  0  0
   -2.8301    1.6870    0.6131 C   0  0  0  0  0  0  0  0  0  0  0  0
   -0.0499   -0.2339   -0.0025 N   0  0  0  0  0  0  0  0  0  0  0  0
    0.5585   -1.4891   -0.1461 C   0  0  0  0  0  0  0  0  0  0  0  0
    2.0808   -1.4051    0.0441 C   0  0  0  0  0  0  0  0  0  0  0  0
    2.5693   -0.3308   -0.8576 C   0  0  0  0  0  0  0  0  0  0  0  0
    1.9099    0.9747   -0.4891 C   0  0  0  0  0  0  0  0  0  0  0  0
    0.4237    0.7563   -0.8298 C   0  0  0  0  0  0  0  0  0  0  0  0
    3.9910   -0.2442   -1.0102 N   0  0  0  0  0  0  0  0  0  0  0  0
    4.7466   -0.4399   -2.1329 C   0  0  0  0  0  0  0  0  0  0  0  0
    4.2898   -0.7423   -3.2671 O   0  0  0  0  0  0  0  0  0  0  0  0
    6.0382   -0.2655   -1.8594 N   0  0  0  0  0  0  0  0  0  0  0  0
    6.1724    0.0454   -0.5698 C   0  0  0  0  0  0  0  0  0  0  0  0
    4.8909    0.0600   -0.0325 C   0  0  0  0  0  0  0  0  0  0  0  0
    4.7976    0.3632    1.3081 C   0  0  0  0  0  0  0  0  0  0  0  0
    5.8895    0.6413    2.1021 C   0  0  0  0  0  0  0  0  0  0  0  0
    7.1521    0.6209    1.5473 C   0  0  0  0  0  0  0  0  0  0  0  0
    7.2791    0.3227    0.2154 C   0  0  0  0  0  0  0  0  0  0  0  0
   -9.2337   -0.9603   -0.5246 H   0  0  0  0  0  0  0  0  0  0  0  0
   -7.6502   -1.4493   -1.3306 H   0  0  0  0  0  0  0  0  0  0  0  0
   -8.0533   -1.9924    0.3182 H   0  0  0  0  0  0  0  0  0  0  0  0
   -7.7733    0.9789   -0.3402 H   0  0  0  0  0  0  0  0  0  0  0  0
   -7.6701    0.1594    1.2489 H   0  0  0  0  0  0  0  0  0  0  0  0
   -2.6563   -0.1483   -1.4126 H   0  0  0  0  0  0  0  0  0  0  0  0
   -3.9388   -1.2470   -0.6426 H   0  0  0  0  0  0  0  0  0  0  0  0
   -1.7128   -1.9767   -0.0033 H   0  0  0  0  0  0  0  0  0  0  0  0
   -2.7345   -1.4968    1.3502 H   0  0  0  0  0  0  0  0  0  0  0  0
   -0.7009   -0.6215    1.8623 H   0  0  0  0  0  0  0  0  0  0  0  0
   -1.8214    1.2587    2.4022 H   0  0  0  0  0  0  0  0  0  0  0  0
   -0.8416    2.0323    1.1876 H   0  0  0  0  0  0  0  0  0  0  0  0
   -3.3304    2.4633    1.2383 H   0  0  0  0  0  0  0  0  0  0  0  0
   -2.5222    2.2574   -0.3134 H   0  0  0  0  0  0  0  0  0  0  0  0
    0.3691   -1.8775   -1.1588 H   0  0  0  0  0  0  0  0  0  0  0  0
    0.2020   -2.1738    0.6701 H   0  0  0  0  0  0  0  0  0  0  0  0
    2.4920   -2.3984   -0.2377 H   0  0  0  0  0  0  0  0  0  0  0  0
    2.2153   -1.2610    1.1128 H   0  0  0  0  0  0  0  0  0  0  0  0
    2.1515   -0.5749   -1.8777 H   0  0  0  0  0  0  0  0  0  0  0  0
    2.3305    1.7680   -1.1606 H   0  0  0  0  0  0  0  0  0  0  0  0
    1.9355    1.2337    0.5663 H   0  0  0  0  0  0  0  0  0  0  0  0
   -0.1298    1.6764   -0.9519 H   0  0  0  0  0  0  0  0  0  0  0  0
    0.4799    0.3398   -1.8786 H   0  0  0  0  0  0  0  0  0  0  0  0
    6.8634   -0.3458   -2.5110 H   0  0  0  0  0  0  0  0  0  0  0  0
    3.8373    0.3853    1.7588 H   0  0  0  0  0  0  0  0  0  0  0  0
    5.7369    0.8704    3.1457 H   0  0  0  0  0  0  0  0  0  0  0  0
    7.9741    0.8443    2.2055 H   0  0  0  0  0  0  0  0  0  0  0  0
    8.2817    0.3140   -0.1927 H   0  0  0  0  0  0  0  0  0  0  0  0
  1  2  1  0
  2  3  1  0
  3  4  1  0
  4  5  2  0
  4  6  1  0
  6  7  1  0
  7  8  1  0
  8  9  1  0
  9 10  1  0
 10 11  1  0
  9 12  1  0
 12 13  1  0
 13 14  1  0
 14 15  1  0
 15 16  1  0
 16 17  1  0
 15 18  1  0
 18 19  1  0
 19 20  2  0
 19 21  1  0
 21 22  1  0
 22 23  2  0
 23 24  1  0
 24 25  2  0
 25 26  1  0
 26 27  2  0
 11  6  1  0
 17 12  1  0
 23 18  1  0
 27 22  1  0
  1 28  1  0
  1 29  1  0
  1 30  1  0
  2 31  1  0
  2 32  1  0
  7 33  1  0
  7 34  1  0
  8 35  1  0
  8 36  1  0
  9 37  1  0
 10 38  1  0
 10 39  1  0
 11 40  1  0
 11 41  1  0
 13 42  1  0
 13 43  1  0
 14 44  1  0
 14 45  1  0
 15 46  1  0
 16 47  1  0
 16 48  1  0
 17 49  1  0
 17 50  1  0
 21 51  1  0
 24 52  1  0
 25 53  1  0
 26 54  1  0
 27 55  1  0
M  END
>  <Ligand ID>  (1) 
LIG0000986

>  <Ligand>  (1) 
CHEMBL491209

>  <SMILES>  (1) 
CCOC(=O)N1CCC(CC1)N1CCC(CC1)n1c(=O)[nH]c2c1cccc2

>  <CID>  (1) 
22745278.0

>  <ChEMBL ID>  (1) 
nan

>  <InChiKey>  (1) 
VBYGBDXPFRYDEZ-UHFFFAOYSA-N

>  <InChi>  (1) 
InChI=1S/C20H28N4O3/c1-2-27-20(26)23-13-7-15(8-14-23)22-11-9-16(10-12-22)24-18-6-4-3-5-17(18)21-19(24)25/h3-6,15-16H,2,7-14H2,1H3,(H,21,25)

>  <IUPAC Name>  (1) 
ethyl 4-[4-(2-oxo-3H-benzimidazol-1-yl)piperidin-1-yl]piperidine-1-carboxylate

$$$$
