
     RDKit          3D

139141  0  0  0  0  0  0  0  0999 V2000
   13.5920    1.7225   -1.1657 C   0  0  0  0  0  0  0  0  0  0  0  0
   13.0411    1.1469    0.0983 C   0  0  0  0  0  0  0  0  0  0  0  0
   11.9232    0.1825   -0.0981 C   0  0  0  0  0  0  0  0  0  0  0  0
   10.7649    0.7640   -0.7668 N   0  0  0  0  0  0  0  0  0  0  0  0
    9.7189   -0.1993   -0.9230 C   0  0  0  0  0  0  0  0  0  0  0  0
    8.4599    0.3245   -1.5584 C   0  0  0  0  0  0  0  0  0  0  0  0
    7.8169    1.4559   -0.8011 C   0  0  0  0  0  0  0  0  0  0  0  0
    7.4625    0.9971    0.6189 C   0  0  1  0  0  0  0  0  0  0  0  0
    6.8418    2.1275    1.3132 C   0  0  0  0  0  0  0  0  0  0  0  0
    7.5081    3.2157    1.3626 O   0  0  0  0  0  0  0  0  0  0  0  0
    5.5708    2.1258    1.9340 N   0  0  0  0  0  0  0  0  0  0  0  0
    5.1302    3.3504    2.5616 C   0  0  0  0  0  0  0  0  0  0  0  0
    6.0451    3.7957    3.6535 C   0  0  0  0  0  0  0  0  0  0  0  0
    5.7933    4.8672    4.2978 O   0  0  0  0  0  0  0  0  0  0  0  0
    7.2144    3.0740    4.0235 N   0  0  0  0  0  0  0  0  0  0  0  0
    6.6975   -0.2159    0.6047 N   0  0  0  0  0  0  0  0  0  0  0  0
    5.6219   -0.5137   -0.2956 C   0  0  0  0  0  0  0  0  0  0  0  0
    5.2458    0.3316   -1.1645 O   0  0  0  0  0  0  0  0  0  0  0  0
    5.0058   -1.8479   -0.1354 C   0  0  2  0  0  0  0  0  0  0  0  0
    5.9353   -2.9299   -0.7131 C   0  0  0  0  0  0  0  0  0  0  0  0
    5.7274   -2.7704   -2.1834 C   0  0  0  0  0  0  0  0  0  0  0  0
    4.4070   -2.0275   -2.3835 C   0  0  0  0  0  0  0  0  0  0  0  0
    3.8867   -2.0018   -1.0280 N   0  0  0  0  0  0  0  0  0  0  0  0
    2.5564   -2.1259   -0.5575 C   0  0  0  0  0  0  0  0  0  0  0  0
    2.2811   -2.1040    0.7049 O   0  0  0  0  0  0  0  0  0  0  0  0
    1.3559   -2.2984   -1.4155 C   0  0  2  0  0  0  0  0  0  0  0  0
    1.1647   -1.1486   -2.3718 C   0  0  0  0  0  0  0  0  0  0  0  0
    1.2565    0.4777   -1.7560 S   0  0  0  0  0  0  0  0  0  0  0  0
   -0.0104    1.2917   -0.4488 S   0  0  0  0  0  0  0  0  0  0  0  0
   -1.4388    2.2026   -0.8336 C   0  0  0  0  0  0  0  0  0  0  0  0
   -2.6337    1.5516   -1.4456 C   0  0  2  0  0  0  0  0  0  0  0  0
   -2.5566    1.0870   -2.7700 N   0  0  0  0  0  0  0  0  0  0  0  0
   -3.8219    2.3082   -1.0309 C   0  0  0  0  0  0  0  0  0  0  0  0
   -3.7240    3.0006    0.0148 O   0  0  0  0  0  0  0  0  0  0  0  0
   -5.1057    2.3776   -1.6427 N   0  0  0  0  0  0  0  0  0  0  0  0
   -6.1328    3.2258   -0.9927 C   0  0  1  0  0  0  0  0  0  0  0  0
   -7.0637    3.8743   -1.9256 C   0  0  0  0  0  0  0  0  0  0  0  0
   -8.0780    4.7386   -1.2886 C   0  0  0  0  0  0  0  0  0  0  0  0
   -7.8981    6.0935   -1.0928 C   0  0  0  0  0  0  0  0  0  0  0  0
   -8.8306    6.9064   -0.4840 C   0  0  0  0  0  0  0  0  0  0  0  0
  -10.0190    6.3290   -0.0429 C   0  0  0  0  0  0  0  0  0  0  0  0
  -10.1975    4.9844   -0.2376 C   0  0  0  0  0  0  0  0  0  0  0  0
   -9.2417    4.1757   -0.8564 C   0  0  0  0  0  0  0  0  0  0  0  0
   -6.8314    2.2312   -0.0595 C   0  0  0  0  0  0  0  0  0  0  0  0
   -7.5211    2.6056    0.8981 O   0  0  0  0  0  0  0  0  0  0  0  0
   -6.7265    0.8488   -0.2667 N   0  0  0  0  0  0  0  0  0  0  0  0
   -7.1382   -0.1735    0.7938 C   0  0  2  0  0  0  0  0  0  0  0  0
   -5.8426   -0.8054    1.0706 C   0  0  0  0  0  0  0  0  0  0  0  0
   -4.9849   -0.3485    0.1701 O   0  0  0  0  0  0  0  0  0  0  0  0
   -5.2326   -1.6996    1.9392 N   0  0  0  0  0  0  0  0  0  0  0  0
   -3.7829   -1.8555    1.7418 C   0  0  2  0  0  0  0  0  0  0  0  0
   -3.3469   -3.2149    1.4517 C   0  0  0  0  0  0  0  0  0  0  0  0
   -3.7216   -4.2896    1.9001 O   0  0  0  0  0  0  0  0  0  0  0  0
   -2.3049   -3.3068    0.4430 N   0  0  0  0  0  0  0  0  0  0  0  0
   -1.5697   -4.4428    0.0265 C   0  0  2  0  0  0  0  0  0  0  0  0
   -0.2772   -4.0193   -0.6104 C   0  0  0  0  0  0  0  0  0  0  0  0
    0.5037   -4.8214   -1.1407 O   0  0  0  0  0  0  0  0  0  0  0  0
    0.1707   -2.6465   -0.6563 N   0  0  0  0  0  0  0  0  0  0  0  0
   -2.3385   -5.2261   -1.0749 C   0  0  0  0  0  0  0  0  0  0  0  0
   -2.5544   -4.3690   -2.2473 C   0  0  0  0  0  0  0  0  0  0  0  0
   -2.1855   -3.1692   -2.2736 O   0  0  0  0  0  0  0  0  0  0  0  0
   -3.2136   -4.9621   -3.3781 N   0  0  0  0  0  0  0  0  0  0  0  0
   -3.0554   -1.3382    2.9993 C   0  0  0  0  0  0  0  0  0  0  0  0
   -3.4849   -2.1074    4.1715 C   0  0  0  0  0  0  0  0  0  0  0  0
   -4.2685   -3.0875    4.1510 O   0  0  0  0  0  0  0  0  0  0  0  0
   -2.9566   -1.6911    5.4438 N   0  0  0  0  0  0  0  0  0  0  0  0
   -8.2735   -0.9814    0.3615 C   0  0  2  0  0  0  0  0  0  0  0  0
   -8.7021   -2.0010    1.3632 C   0  0  0  0  0  0  0  0  0  0  0  0
   -9.8895   -2.8207    0.8933 C   0  0  0  0  0  0  0  0  0  0  0  0
   -8.1637   -1.6473   -0.9878 C   0  0  0  0  0  0  0  0  0  0  0  0
   13.0809    1.3006   -2.0279 H   0  0  0  0  0  0  0  0  0  0  0  0
   13.3909    2.8301   -1.2048 H   0  0  0  0  0  0  0  0  0  0  0  0
   14.6908    1.5759   -1.2329 H   0  0  0  0  0  0  0  0  0  0  0  0
   12.7017    1.9686    0.7689 H   0  0  0  0  0  0  0  0  0  0  0  0
   13.8563    0.6070    0.6400 H   0  0  0  0  0  0  0  0  0  0  0  0
   11.6357   -0.1915    0.9074 H   0  0  0  0  0  0  0  0  0  0  0  0
   12.2546   -0.6923   -0.6932 H   0  0  0  0  0  0  0  0  0  0  0  0
   11.0359    1.2397   -1.6542 H   0  0  0  0  0  0  0  0  0  0  0  0
   10.0887   -1.0111   -1.5948 H   0  0  0  0  0  0  0  0  0  0  0  0
    9.4655   -0.6688    0.0343 H   0  0  0  0  0  0  0  0  0  0  0  0
    8.6293    0.6433   -2.6217 H   0  0  0  0  0  0  0  0  0  0  0  0
    7.7481   -0.5396   -1.5412 H   0  0  0  0  0  0  0  0  0  0  0  0
    6.9656    1.8569   -1.3539 H   0  0  0  0  0  0  0  0  0  0  0  0
    8.5339    2.3086   -0.6704 H   0  0  0  0  0  0  0  0  0  0  0  0
    8.5018    0.7591    1.0280 H   0  0  0  0  0  0  0  0  0  0  0  0
    5.0237    1.2528    1.9016 H   0  0  0  0  0  0  0  0  0  0  0  0
    4.0953    3.2782    2.9364 H   0  0  0  0  0  0  0  0  0  0  0  0
    5.1851    4.1687    1.7853 H   0  0  0  0  0  0  0  0  0  0  0  0
    7.0483    2.0483    4.2541 H   0  0  0  0  0  0  0  0  0  0  0  0
    8.1639    3.4897    4.0705 H   0  0  0  0  0  0  0  0  0  0  0  0
    6.9601   -0.9415    1.3325 H   0  0  0  0  0  0  0  0  0  0  0  0
    4.7722   -2.0072    0.9176 H   0  0  0  0  0  0  0  0  0  0  0  0
    6.9767   -2.7839   -0.3817 H   0  0  0  0  0  0  0  0  0  0  0  0
    5.5334   -3.8953   -0.3825 H   0  0  0  0  0  0  0  0  0  0  0  0
    6.5302   -2.2090   -2.6994 H   0  0  0  0  0  0  0  0  0  0  0  0
    5.6646   -3.7553   -2.6633 H   0  0  0  0  0  0  0  0  0  0  0  0
    3.7854   -2.6554   -3.0608 H   0  0  0  0  0  0  0  0  0  0  0  0
    4.5396   -1.0499   -2.8453 H   0  0  0  0  0  0  0  0  0  0  0  0
    1.6262   -3.1880   -2.0834 H   0  0  0  0  0  0  0  0  0  0  0  0
    1.8954   -1.2714   -3.2028 H   0  0  0  0  0  0  0  0  0  0  0  0
    0.1641   -1.2752   -2.9083 H   0  0  0  0  0  0  0  0  0  0  0  0
   -1.1276    3.1369   -1.4187 H   0  0  0  0  0  0  0  0  0  0  0  0
   -1.7765    2.7022    0.1530 H   0  0  0  0  0  0  0  0  0  0  0  0
   -2.7316    0.5827   -0.7551 H   0  0  0  0  0  0  0  0  0  0  0  0
   -2.1335    1.8266   -3.3809 H   0  0  0  0  0  0  0  0  0  0  0  0
   -3.5195    0.9162   -3.1416 H   0  0  0  0  0  0  0  0  0  0  0  0
   -5.2398    1.8435   -2.4851 H   0  0  0  0  0  0  0  0  0  0  0  0
   -5.6406    3.9384   -0.3171 H   0  0  0  0  0  0  0  0  0  0  0  0
   -7.6116    3.1809   -2.5933 H   0  0  0  0  0  0  0  0  0  0  0  0
   -6.4742    4.5295   -2.6002 H   0  0  0  0  0  0  0  0  0  0  0  0
   -6.9659    6.5327   -1.4458 H   0  0  0  0  0  0  0  0  0  0  0  0
   -8.6520    7.9674   -0.3439 H   0  0  0  0  0  0  0  0  0  0  0  0
  -10.7476    6.9722    0.4358 H   0  0  0  0  0  0  0  0  0  0  0  0
  -11.0943    4.5238    0.0920 H   0  0  0  0  0  0  0  0  0  0  0  0
   -9.4243    3.1373   -0.9893 H   0  0  0  0  0  0  0  0  0  0  0  0
   -6.3721    0.5307   -1.1643 H   0  0  0  0  0  0  0  0  0  0  0  0
   -7.4199    0.4711    1.6391 H   0  0  0  0  0  0  0  0  0  0  0  0
   -5.7821   -2.1812    2.6329 H   0  0  0  0  0  0  0  0  0  0  0  0
   -3.4459   -1.1635    0.8969 H   0  0  0  0  0  0  0  0  0  0  0  0
   -2.1382   -2.4058   -0.0336 H   0  0  0  0  0  0  0  0  0  0  0  0
   -1.4140   -5.1858    0.8119 H   0  0  0  0  0  0  0  0  0  0  0  0
   -0.3582   -1.9796   -0.1358 H   0  0  0  0  0  0  0  0  0  0  0  0
   -3.3145   -5.4695   -0.6218 H   0  0  0  0  0  0  0  0  0  0  0  0
   -1.7717   -6.1360   -1.2241 H   0  0  0  0  0  0  0  0  0  0  0  0
   -2.8022   -5.8169   -3.8287 H   0  0  0  0  0  0  0  0  0  0  0  0
   -4.1063   -4.5282   -3.7396 H   0  0  0  0  0  0  0  0  0  0  0  0
   -3.3436   -0.2578    3.0971 H   0  0  0  0  0  0  0  0  0  0  0  0
   -1.9710   -1.4567    2.7806 H   0  0  0  0  0  0  0  0  0  0  0  0
   -2.6131   -0.7011    5.5714 H   0  0  0  0  0  0  0  0  0  0  0  0
   -2.8893   -2.3143    6.2620 H   0  0  0  0  0  0  0  0  0  0  0  0
   -9.1592   -0.2678    0.2550 H   0  0  0  0  0  0  0  0  0  0  0  0
   -8.9872   -1.5039    2.2988 H   0  0  0  0  0  0  0  0  0  0  0  0
   -7.8430   -2.6774    1.5610 H   0  0  0  0  0  0  0  0  0  0  0  0
   -9.5955   -3.6110    0.1954 H   0  0  0  0  0  0  0  0  0  0  0  0
  -10.3318   -3.2846    1.7996 H   0  0  0  0  0  0  0  0  0  0  0  0
  -10.6688   -2.1298    0.4957 H   0  0  0  0  0  0  0  0  0  0  0  0
   -7.6518   -2.6436   -0.9612 H   0  0  0  0  0  0  0  0  0  0  0  0
   -9.2217   -1.8686   -1.3063 H   0  0  0  0  0  0  0  0  0  0  0  0
   -7.7841   -0.9841   -1.7893 H   0  0  0  0  0  0  0  0  0  0  0  0
  1  2  1  0
  2  3  1  0
  3  4  1  0
  4  5  1  0
  5  6  1  0
  6  7  1  0
  7  8  1  0
  8  9  1  0
  9 10  2  0
  9 11  1  0
 11 12  1  0
 12 13  1  0
 13 14  2  0
 13 15  1  0
  8 16  1  0
 16 17  1  0
 17 18  2  0
 17 19  1  0
 19 20  1  0
 20 21  1  0
 21 22  1  0
 22 23  1  0
 23 24  1  0
 24 25  2  0
 24 26  1  0
 26 27  1  0
 27 28  1  0
 28 29  1  0
 29 30  1  0
 30 31  1  0
 31 32  1  0
 31 33  1  0
 33 34  2  0
 33 35  1  0
 35 36  1  0
 36 37  1  0
 37 38  1  0
 38 39  2  0
 39 40  1  0
 40 41  2  0
 41 42  1  0
 42 43  2  0
 36 44  1  0
 44 45  2  0
 44 46  1  0
 46 47  1  0
 47 48  1  0
 48 49  2  0
 48 50  1  0
 50 51  1  0
 51 52  1  0
 52 53  2  0
 52 54  1  0
 54 55  1  0
 55 56  1  0
 56 57  2  0
 56 58  1  0
 55 59  1  0
 59 60  1  0
 60 61  2  0
 60 62  1  0
 51 63  1  0
 63 64  1  0
 64 65  2  0
 64 66  1  0
 47 67  1  0
 67 68  1  0
 68 69  1  0
 67 70  1  0
 23 19  1  0
 58 26  1  0
 43 38  1  0
  1 71  1  0
  1 72  1  0
  1 73  1  0
  2 74  1  0
  2 75  1  0
  3 76  1  0
  3 77  1  0
  4 78  1  0
  5 79  1  0
  5 80  1  0
  6 81  1  0
  6 82  1  0
  7 83  1  0
  7 84  1  0
  8 85  1  1
 11 86  1  0
 12 87  1  0
 12 88  1  0
 15 89  1  0
 15 90  1  0
 16 91  1  0
 19 92  1  1
 20 93  1  0
 20 94  1  0
 21 95  1  0
 21 96  1  0
 22 97  1  0
 22 98  1  0
 26 99  1  6
 27100  1  0
 27101  1  0
 30102  1  0
 30103  1  0
 31104  1  1
 32105  1  0
 32106  1  0
 35107  1  0
 36108  1  1
 37109  1  0
 37110  1  0
 39111  1  0
 40112  1  0
 41113  1  0
 42114  1  0
 43115  1  0
 46116  1  0
 47117  1  1
 50118  1  0
 51119  1  6
 54120  1  0
 55121  1  1
 58122  1  0
 59123  1  0
 59124  1  0
 62125  1  0
 62126  1  0
 63127  1  0
 63128  1  0
 66129  1  0
 66130  1  0
 67131  1  6
 68132  1  0
 68133  1  0
 69134  1  0
 69135  1  0
 69136  1  0
 70137  1  0
 70138  1  0
 70139  1  0
M  END
>  <Ligand ID>  (1) 
LIG0001908

>  <Ligand>  (1) 
CHEMBL1817755

>  <SMILES>  (1) 
CCCNCCC[C@@H](C(=O)NCC(=O)N)NC(=O)[C@@H]1CCCN1C(=O)[C@@H]1CSSC[C@H](N)C(=O)N[C@@H](Cc2ccccc2)C(=O)N[C@H](C(=O)N[C@H](C(=O)N[C@H](C(=O)N1)CC(=O)N)CC(=O)N)[C@H](CC)C

>  <CID>  (1) 
53362670.0

>  <ChEMBL ID>  (1) 
nan

>  <InChiKey>  (1) 
POXRMCHOCLKQPT-PFCVTPPASA-N

>  <InChi>  (1) 
InChI=1S/C44H69N13O11S2/c1-4-15-49-16-9-13-27(38(62)50-21-35(48)60)51-42(66)32-14-10-17-57(32)44(68)31-23-70-69-22-26(45)37(61)52-28(18-25-11-7-6-8-12-25)41(65)56-36(24(3)5-2)43(67)54-30(20-34(47)59)39(63)53-29(19-33(46)58)40(64)55-31/h6-8,11-12,24,26-32,36,49H,4-5,9-10,13-23,45H2,1-3H3,(H2,46,58)(H2,47,59)(H2,48,60)(H,50,62)(H,51,66)(H,52,61)(H,53,63)(H,54,67)(H,55,64)(H,56,65)/t24-,26-,27-,28-,29-,30-,31-,32-,36-/m0/s1

>  <IUPAC Name>  (1) 
(2S)-1-[(4R,7S,10S,13S,16S,19R)-19-amino-7,10-bis(2-amino-2-oxoethyl)-16-benzyl-13-[(2S)-butan-2-yl]-6,9,12,15,18-pentaoxo-1,2-dithia-5,8,11,14,17-pentazacycloicosane-4-carbonyl]-N-[(2S)-1-[(2-amino-2-oxoethyl)amino]-1-oxo-5-(propylamino)pentan-2-yl]pyrrolidine-2-carboxamide

$$$$
