
     RDKit          3D

  8  8  0  0  0  0  0  0  0  0999 V2000
    1.4413   -0.1260   -0.1443 C   0  0  0  0  0  0  0  0  0  0  0  0
    0.6498   -0.8403    0.2829 N   0  0  0  0  0  0  0  0  0  0  0  0
   -0.6371   -0.6405    0.3995 C   0  0  0  0  0  0  0  0  0  0  0  0
   -1.0809    0.5598   -0.0407 C   0  0  0  0  0  0  0  0  0  0  0  0
    0.4275    1.4109   -0.6382 S   0  0  0  0  0  0  0  0  0  0  0  0
    2.5829    0.0128   -0.3820 H   0  0  0  0  0  0  0  0  0  0  0  0
   -1.3238   -1.3964    0.8281 H   0  0  0  0  0  0  0  0  0  0  0  0
   -2.0597    1.0198   -0.0828 H   0  0  0  0  0  0  0  0  0  0  0  0
  1  2  2  0
  2  3  1  0
  3  4  2  0
  4  5  1  0
  5  1  1  0
  1  6  1  0
  3  7  1  0
  4  8  1  0
M  END
>  <Ligand ID>  (1) 
LIG0004988

>  <Ligand>  (1) 
thiazol

>  <SMILES>  (1) 
c1nccs1

>  <CID>  (1) 
9256.0

>  <ChEMBL ID>  (1) 
nan

>  <InChiKey>  (1) 
FZWLAAWBMGSTSO-UHFFFAOYSA-N

>  <InChi>  (1) 
InChI=1S/C3H3NS/c1-2-5-3-4-1/h1-3H

>  <IUPAC Name>  (1) 
1,3-thiazole

$$$$
