
     RDKit          3D

 26 27  0  0  0  0  0  0  0  0999 V2000
    4.2259   -1.2348   -1.9068 C   0  0  0  0  0  0  0  0  0  0  0  0
    3.9998   -0.8446   -0.7887 C   0  0  0  0  0  0  0  0  0  0  0  0
    3.7289   -0.3842    0.5909 C   0  0  0  0  0  0  0  0  0  0  0  0
    2.4431    0.2344    0.6396 O   0  0  0  0  0  0  0  0  0  0  0  0
    1.3028   -0.4399    0.3127 C   0  0  0  0  0  0  0  0  0  0  0  0
    1.1818   -1.7177   -0.0870 N   0  0  0  0  0  0  0  0  0  0  0  0
   -0.0525   -2.0164   -0.3103 O   0  0  0  0  0  0  0  0  0  0  0  0
   -0.8316   -0.9715   -0.0781 C   0  0  0  0  0  0  0  0  0  0  0  0
    0.0025    0.0504    0.3210 C   0  0  0  0  0  0  0  0  0  0  0  0
   -0.2953    1.4519    0.7130 C   0  0  0  0  0  0  0  0  0  0  0  0
   -1.6955    1.4679    1.1042 N   0  0  0  0  0  0  0  0  0  0  0  0
   -2.4328    1.5400   -0.1370 C   0  0  0  0  0  0  0  0  0  0  0  0
   -2.9218    0.2654   -0.6837 C   0  0  0  0  0  0  0  0  0  0  0  0
   -2.2861   -0.9914   -0.2408 C   0  0  0  0  0  0  0  0  0  0  0  0
    4.4229   -1.5824   -2.8870 H   0  0  0  0  0  0  0  0  0  0  0  0
    4.5282    0.3118    0.8561 H   0  0  0  0  0  0  0  0  0  0  0  0
    3.7343   -1.2358    1.2930 H   0  0  0  0  0  0  0  0  0  0  0  0
   -0.1433    2.0641   -0.2219 H   0  0  0  0  0  0  0  0  0  0  0  0
    0.3704    1.7982    1.5146 H   0  0  0  0  0  0  0  0  0  0  0  0
   -1.9242    0.6153    1.6574 H   0  0  0  0  0  0  0  0  0  0  0  0
   -1.8317    2.0981   -0.9134 H   0  0  0  0  0  0  0  0  0  0  0  0
   -3.2986    2.2136    0.0745 H   0  0  0  0  0  0  0  0  0  0  0  0
   -4.0277    0.1564   -0.4909 H   0  0  0  0  0  0  0  0  0  0  0  0
   -2.8670    0.3071   -1.8093 H   0  0  0  0  0  0  0  0  0  0  0  0
   -2.8082   -1.3774    0.6810 H   0  0  0  0  0  0  0  0  0  0  0  0
   -2.5244   -1.7784   -1.0157 H   0  0  0  0  0  0  0  0  0  0  0  0
  1  2  3  0
  2  3  1  0
  3  4  1  0
  4  5  1  0
  5  6  2  0
  6  7  1  0
  7  8  1  0
  8  9  2  0
  9 10  1  0
 10 11  1  0
 11 12  1  0
 12 13  1  0
 13 14  1  0
  9  5  1  0
 14  8  1  0
  1 15  1  0
  3 16  1  0
  3 17  1  0
 10 18  1  0
 10 19  1  0
 11 20  1  0
 12 21  1  0
 12 22  1  0
 13 23  1  0
 13 24  1  0
 14 25  1  0
 14 26  1  0
M  END
>  <Ligand ID>  (1) 
LIG0000812

>  <Ligand>  (1) 
CHEMBL69306

>  <SMILES>  (1) 
C#CCOc1noc2c1CNCCC2

>  <CID>  (1) 
10261985.0

>  <ChEMBL ID>  (1) 
nan

>  <InChiKey>  (1) 
VBFXRCFWGDRJKA-UHFFFAOYSA-N

>  <InChi>  (1) 
InChI=1S/C10H12N2O2/c1-2-6-13-10-8-7-11-5-3-4-9(8)14-12-10/h1,11H,3-7H2

>  <IUPAC Name>  (1) 
3-prop-2-ynoxy-5,6,7,8-tetrahydro-4H-[1,2]oxazolo[4,5-c]azepine

$$$$
