
     RDKit          3D

 16 15  0  0  0  0  0  0  0  0999 V2000
    0.9536    0.8660   -1.3867 O   0  0  0  0  0  0  0  0  0  0  0  0
    1.7665    0.1067   -0.5258 C   0  0  0  0  0  0  0  0  0  0  0  0
    3.0119    0.1065   -0.7151 O   0  0  0  0  0  0  0  0  0  0  0  0
    1.0865   -0.6382    0.5440 C   0  0  0  0  0  0  0  0  0  0  0  0
   -0.4118   -0.4499    0.5280 C   0  0  1  0  0  0  0  0  0  0  0  0
   -0.6784    1.0057    0.7076 C   0  0  0  0  0  0  0  0  0  0  0  0
   -0.2418    1.6530    1.7047 O   0  0  0  0  0  0  0  0  0  0  0  0
   -1.4223    1.7092   -0.2219 O   0  0  0  0  0  0  0  0  0  0  0  0
   -1.0140   -0.9503   -0.6801 N   0  0  0  0  0  0  0  0  0  0  0  0
    1.3749   -1.6956    0.5101 H   0  0  0  0  0  0  0  0  0  0  0  0
    1.4513   -0.2248    1.5180 H   0  0  0  0  0  0  0  0  0  0  0  0
   -0.8331   -1.0500    1.3602 H   0  0  0  0  0  0  0  0  0  0  0  0
   -1.4382    2.7044   -0.3301 H   0  0  0  0  0  0  0  0  0  0  0  0
   -1.7499   -1.6724   -0.5085 H   0  0  0  0  0  0  0  0  0  0  0  0
   -0.3378   -1.3201   -1.3600 H   0  0  0  0  0  0  0  0  0  0  0  0
   -1.5173   -0.1500   -1.1443 H   0  0  0  0  0  0  0  0  0  0  0  0
  1  2  1  0
  2  3  2  0
  2  4  1  0
  4  5  1  0
  5  6  1  0
  6  7  2  0
  6  8  1  0
  5  9  1  0
  4 10  1  0
  4 11  1  0
  5 12  1  1
  8 13  1  0
  9 14  1  0
  9 15  1  0
  9 16  1  0
M  CHG  2   1  -1   9   1
M  END
>  <Ligand ID>  (1) 
LIG0002113

>  <Ligand>  (1) 
[3H]-L-aspartate

>  <SMILES>  (1) 
[O-]C(=O)C[C@@H](C(=O)O)[NH3+]

>  <CID>  (1) 
44367445.0

>  <ChEMBL ID>  (1) 
nan

>  <InChiKey>  (1) 
CKLJMWTZIZZHCS-REOHCLBHSA-N

>  <InChi>  (1) 
InChI=1S/C4H7NO4/c5-2(4(8)9)1-3(6)7/h2H,1,5H2,(H,6,7)(H,8,9)/t2-/m0/s1

>  <IUPAC Name>  (1) 
(3S)-3-azaniumyl-4-hydroxy-4-oxobutanoate

$$$$
