
     RDKit          3D

103107  0  0  0  0  0  0  0  0999 V2000
   -9.1225    1.4613    4.5025 F   0  0  0  0  0  0  0  0  0  0  0  0
   -8.1452    1.2906    3.5815 C   0  0  0  0  0  0  0  0  0  0  0  0
   -8.1289    2.0184    2.4166 C   0  0  0  0  0  0  0  0  0  0  0  0
   -7.1287    1.8457    1.4710 C   0  0  0  0  0  0  0  0  0  0  0  0
   -6.0880    0.9292    1.6445 C   0  0  0  0  0  0  0  0  0  0  0  0
   -6.1230    0.2107    2.8194 C   0  0  0  0  0  0  0  0  0  0  0  0
   -7.1332    0.3844    3.7747 C   0  0  0  0  0  0  0  0  0  0  0  0
   -5.1765   -0.6981    3.1619 F   0  0  0  0  0  0  0  0  0  0  0  0
   -5.0847    0.7723    0.5861 C   0  0  2  0  0  0  0  0  0  0  0  0
   -5.7327    1.0602   -0.8035 C   0  0  0  0  0  0  0  0  0  0  0  0
   -6.7274    0.0473   -0.8319 N   0  0  0  0  0  0  0  0  0  0  0  0
   -6.1061   -1.1445   -0.3542 C   0  0  0  0  0  0  0  0  0  0  0  0
   -4.7875   -0.7080    0.3037 C   0  0  1  0  0  0  0  0  0  0  0  0
   -3.6807   -0.8961   -0.6608 C   0  0  0  0  0  0  0  0  0  0  0  0
   -4.0000   -1.2611   -1.8491 O   0  0  0  0  0  0  0  0  0  0  0  0
   -2.3018   -0.6984   -0.3356 N   0  0  0  0  0  0  0  0  0  0  0  0
   -1.8110   -0.3366    0.9521 C   0  0  0  0  0  0  0  0  0  0  0  0
   -0.6839    0.6461    0.8310 C   0  0  0  0  0  0  0  0  0  0  0  0
    0.2678    0.2204   -0.1032 N   0  0  0  0  0  0  0  0  0  0  0  0
   -0.2309    0.1156   -1.4213 C   0  0  0  0  0  0  0  0  0  0  0  0
   -1.3564   -0.9059   -1.4207 C   0  0  0  0  0  0  0  0  0  0  0  0
    1.6449    0.3033    0.1271 C   0  0  0  0  0  0  0  0  0  0  0  0
    2.1586   -0.7703    0.9980 C   0  0  0  0  0  0  0  0  0  0  0  0
    1.8462   -2.1607    0.4744 C   0  0  0  0  0  0  0  0  0  0  0  0
    2.6542   -3.1611    1.2945 C   0  0  0  0  0  0  0  0  0  0  0  0
    2.3177   -3.0277    2.7679 C   0  0  0  0  0  0  0  0  0  0  0  0
    2.4892   -1.6440    3.3009 C   0  0  0  0  0  0  0  0  0  0  0  0
    1.6757   -0.6911    2.4139 C   0  0  0  0  0  0  0  0  0  0  0  0
    2.5262    0.7662   -0.9983 C   0  0  0  0  0  0  0  0  0  0  0  0
    3.9493    0.8385   -0.6553 N   0  0  0  0  0  0  0  0  0  0  0  0
    4.8094   -0.2545   -0.9123 C   0  0  0  0  0  0  0  0  0  0  0  0
    4.2896   -1.2843   -1.4676 O   0  0  0  0  0  0  0  0  0  0  0  0
    6.2095   -0.3341   -0.6199 C   0  0  0  0  0  0  0  0  0  0  0  0
    6.9172   -0.4899    0.5465 C   0  0  0  0  0  0  0  0  0  0  0  0
    8.2379   -0.5171    0.2615 N   0  0  0  0  0  0  0  0  0  0  0  0
    8.4110   -0.3839   -1.0487 N   0  0  0  0  0  0  0  0  0  0  0  0
    7.1961   -0.2707   -1.6133 C   0  0  0  0  0  0  0  0  0  0  0  0
    9.6421   -0.3592   -1.8121 C   0  0  0  0  0  0  0  0  0  0  0  0
   10.6915   -1.1821   -1.1179 C   0  0  0  0  0  0  0  0  0  0  0  0
   10.1799    1.0405   -1.9816 C   0  0  0  0  0  0  0  0  0  0  0  0
    4.4061    2.0884   -0.0542 C   0  0  0  0  0  0  0  0  0  0  0  0
    4.9649    1.9095    1.3258 C   0  0  0  0  0  0  0  0  0  0  0  0
    5.4432    2.7928   -0.9240 C   0  0  0  0  0  0  0  0  0  0  0  0
   -7.5104   -0.0686   -2.0096 C   0  0  0  0  0  0  0  0  0  0  0  0
   -8.4467   -1.2414   -1.8340 C   0  0  0  0  0  0  0  0  0  0  0  0
   -6.7263   -0.1402   -3.2899 C   0  0  0  0  0  0  0  0  0  0  0  0
   -8.4197    1.1641   -2.0974 C   0  0  0  0  0  0  0  0  0  0  0  0
   -8.9397    2.7335    2.2743 H   0  0  0  0  0  0  0  0  0  0  0  0
   -7.2157    2.4746    0.5968 H   0  0  0  0  0  0  0  0  0  0  0  0
   -7.1491   -0.1897    4.6973 H   0  0  0  0  0  0  0  0  0  0  0  0
   -4.2208    1.4122    0.6147 H   0  0  0  0  0  0  0  0  0  0  0  0
   -4.9028    0.8186   -1.5203 H   0  0  0  0  0  0  0  0  0  0  0  0
   -6.0401    2.0899   -0.9139 H   0  0  0  0  0  0  0  0  0  0  0  0
   -5.9763   -1.9469   -1.0785 H   0  0  0  0  0  0  0  0  0  0  0  0
   -6.7618   -1.5611    0.4615 H   0  0  0  0  0  0  0  0  0  0  0  0
   -4.6372   -1.3077    1.2041 H   0  0  0  0  0  0  0  0  0  0  0  0
   -2.6086    0.0212    1.6457 H   0  0  0  0  0  0  0  0  0  0  0  0
   -1.4071   -1.2668    1.4606 H   0  0  0  0  0  0  0  0  0  0  0  0
   -1.1797    1.5775    0.3581 H   0  0  0  0  0  0  0  0  0  0  0  0
   -0.3068    0.9814    1.8239 H   0  0  0  0  0  0  0  0  0  0  0  0
    0.5265   -0.3262   -2.1186 H   0  0  0  0  0  0  0  0  0  0  0  0
   -0.6423    1.0781   -1.8204 H   0  0  0  0  0  0  0  0  0  0  0  0
   -1.8399   -1.0365   -2.3940 H   0  0  0  0  0  0  0  0  0  0  0  0
   -0.8510   -1.8835   -1.1676 H   0  0  0  0  0  0  0  0  0  0  0  0
    1.7127    1.2507    0.8487 H   0  0  0  0  0  0  0  0  0  0  0  0
    3.3126   -0.7550    1.0078 H   0  0  0  0  0  0  0  0  0  0  0  0
    0.7679   -2.4256    0.7252 H   0  0  0  0  0  0  0  0  0  0  0  0
    2.0585   -2.3345   -0.5774 H   0  0  0  0  0  0  0  0  0  0  0  0
    2.3573   -4.1800    0.9823 H   0  0  0  0  0  0  0  0  0  0  0  0
    3.7200   -3.0075    1.1234 H   0  0  0  0  0  0  0  0  0  0  0  0
    3.0401   -3.6944    3.3077 H   0  0  0  0  0  0  0  0  0  0  0  0
    1.2875   -3.3890    2.9679 H   0  0  0  0  0  0  0  0  0  0  0  0
    2.0027   -1.5993    4.2867 H   0  0  0  0  0  0  0  0  0  0  0  0
    3.5248   -1.3350    3.4213 H   0  0  0  0  0  0  0  0  0  0  0  0
    0.6477   -1.0654    2.4811 H   0  0  0  0  0  0  0  0  0  0  0  0
    1.7039    0.3343    2.8343 H   0  0  0  0  0  0  0  0  0  0  0  0
    2.4102    0.1402   -1.9326 H   0  0  0  0  0  0  0  0  0  0  0  0
    2.2497    1.7836   -1.3409 H   0  0  0  0  0  0  0  0  0  0  0  0
    6.4532   -0.5753    1.5156 H   0  0  0  0  0  0  0  0  0  0  0  0
    7.0082   -0.1477   -2.6743 H   0  0  0  0  0  0  0  0  0  0  0  0
    9.4872   -0.7538   -2.8435 H   0  0  0  0  0  0  0  0  0  0  0  0
   11.6848   -0.8254   -1.4709 H   0  0  0  0  0  0  0  0  0  0  0  0
   10.6331   -0.9726   -0.0296 H   0  0  0  0  0  0  0  0  0  0  0  0
   10.5516   -2.2650   -1.2881 H   0  0  0  0  0  0  0  0  0  0  0  0
    9.5232    1.6319   -2.6810 H   0  0  0  0  0  0  0  0  0  0  0  0
   11.1678    1.0256   -2.4669 H   0  0  0  0  0  0  0  0  0  0  0  0
   10.2840    1.5529   -0.9899 H   0  0  0  0  0  0  0  0  0  0  0  0
    3.5403    2.8173    0.0217 H   0  0  0  0  0  0  0  0  0  0  0  0
    6.0628    2.1262    1.3064 H   0  0  0  0  0  0  0  0  0  0  0  0
    4.5591    2.7415    1.9866 H   0  0  0  0  0  0  0  0  0  0  0  0
    4.6830    0.9949    1.8394 H   0  0  0  0  0  0  0  0  0  0  0  0
    5.2266    2.6223   -1.9779 H   0  0  0  0  0  0  0  0  0  0  0  0
    6.4942    2.5131   -0.6222 H   0  0  0  0  0  0  0  0  0  0  0  0
    5.3968    3.9036   -0.7440 H   0  0  0  0  0  0  0  0  0  0  0  0
   -8.8792   -1.1529   -0.8109 H   0  0  0  0  0  0  0  0  0  0  0  0
   -7.9140   -2.2165   -1.8715 H   0  0  0  0  0  0  0  0  0  0  0  0
   -9.2361   -1.1555   -2.6081 H   0  0  0  0  0  0  0  0  0  0  0  0
   -6.3061   -1.1702   -3.3437 H   0  0  0  0  0  0  0  0  0  0  0  0
   -5.9369    0.6031   -3.3656 H   0  0  0  0  0  0  0  0  0  0  0  0
   -7.3690   -0.0263   -4.1854 H   0  0  0  0  0  0  0  0  0  0  0  0
   -8.9186    1.2168   -3.0876 H   0  0  0  0  0  0  0  0  0  0  0  0
   -7.8496    2.0752   -1.8528 H   0  0  0  0  0  0  0  0  0  0  0  0
   -9.2658    1.0583   -1.3542 H   0  0  0  0  0  0  0  0  0  0  0  0
  1  2  1  0
  2  3  2  0
  3  4  1  0
  4  5  2  0
  5  6  1  0
  6  7  2  0
  6  8  1  0
  5  9  1  0
  9 10  1  0
 10 11  1  0
 11 12  1  0
 12 13  1  0
 13 14  1  0
 14 15  2  0
 14 16  1  0
 16 17  1  0
 17 18  1  0
 18 19  1  0
 19 20  1  0
 20 21  1  0
 19 22  1  0
 22 23  1  0
 23 24  1  0
 24 25  1  0
 25 26  1  0
 26 27  1  0
 27 28  1  0
 22 29  1  0
 29 30  1  0
 30 31  1  0
 31 32  2  0
 31 33  1  0
 33 34  1  0
 34 35  2  0
 35 36  1  0
 36 37  1  0
 36 38  1  0
 38 39  1  0
 38 40  1  0
 30 41  1  0
 41 42  1  0
 41 43  1  0
 11 44  1  0
 44 45  1  0
 44 46  1  0
 44 47  1  0
  7  2  1  0
 13  9  1  0
 21 16  1  0
 28 23  1  0
 37 33  2  0
  3 48  1  0
  4 49  1  0
  7 50  1  0
  9 51  1  1
 10 52  1  0
 10 53  1  0
 12 54  1  0
 12 55  1  0
 13 56  1  1
 17 57  1  0
 17 58  1  0
 18 59  1  0
 18 60  1  0
 20 61  1  0
 20 62  1  0
 21 63  1  0
 21 64  1  0
 22 65  1  0
 23 66  1  0
 24 67  1  0
 24 68  1  0
 25 69  1  0
 25 70  1  0
 26 71  1  0
 26 72  1  0
 27 73  1  0
 27 74  1  0
 28 75  1  0
 28 76  1  0
 29 77  1  0
 29 78  1  0
 34 79  1  0
 37 80  1  0
 38 81  1  0
 39 82  1  0
 39 83  1  0
 39 84  1  0
 40 85  1  0
 40 86  1  0
 40 87  1  0
 41 88  1  0
 42 89  1  0
 42 90  1  0
 42 91  1  0
 43 92  1  0
 43 93  1  0
 43 94  1  0
 45 95  1  0
 45 96  1  0
 45 97  1  0
 46 98  1  0
 46 99  1  0
 46100  1  0
 47101  1  0
 47102  1  0
 47103  1  0
M  END
>  <Ligand ID>  (1) 
LIG0001520

>  <Ligand>  (1) 
CHEMBL1209320

>  <SMILES>  (1) 
Fc1ccc(c(c1)F)[C@@H]1CN(C[C@H]1C(=O)N1CCN(CC1)C(C1CCCCC1)CN(C(=O)c1cnn(c1)C(C)C)C(C)C)C(C)(C)C

>  <CID>  (1) 
49862377.0

>  <ChEMBL ID>  (1) 
nan

>  <InChiKey>  (1) 
HLKCUDXXFULFRD-MCYVLLSASA-N

>  <InChi>  (1) 
InChI=1S/C37H56F2N6O2/c1-25(2)44(35(46)28-20-40-45(21-28)26(3)4)24-34(27-11-9-8-10-12-27)41-15-17-42(18-16-41)36(47)32-23-43(37(5,6)7)22-31(32)30-14-13-29(38)19-33(30)39/h13-14,19-21,25-27,31-32,34H,8-12,15-18,22-24H2,1-7H3/t31-,32+,34?/m0/s1

>  <IUPAC Name>  (1) 
N-[2-[4-[(3S,4R)-1-tert-butyl-4-(2,4-difluorophenyl)pyrrolidine-3-carbonyl]piperazin-1-yl]-2-cyclohexylethyl]-N,1-di(propan-2-yl)pyrazole-4-carboxamide

$$$$
