
     RDKit          3D

 63 62  0  0  0  0  0  0  0  0999 V2000
    6.6967    2.3352   -2.5216 C   0  0  0  0  0  0  0  0  0  0  0  0
    7.7451    2.0394   -1.4918 C   0  0  0  0  0  0  0  0  0  0  0  0
    7.2236    1.3363   -0.2667 C   0  0  0  0  0  0  0  0  0  0  0  0
    6.5980   -0.0013   -0.6821 C   0  0  0  0  0  0  0  0  0  0  0  0
    6.0886   -0.6943    0.5841 C   0  0  0  0  0  0  0  0  0  0  0  0
    5.4602   -2.0085    0.2869 C   0  0  0  0  0  0  0  0  0  0  0  0
    4.2920   -1.8325   -0.6494 C   0  0  0  0  0  0  0  0  0  0  0  0
    3.2765   -0.9489    0.0010 C   0  0  0  0  0  0  0  0  0  0  0  0
    2.0356   -0.6931   -0.8444 C   0  0  0  0  0  0  0  0  0  0  0  0
    1.3754   -2.0149   -1.1133 C   0  0  0  0  0  0  0  0  0  0  0  0
    0.1506   -1.7857   -1.9429 C   0  0  0  0  0  0  0  0  0  0  0  0
   -0.8011   -0.8816   -1.2159 C   0  0  0  0  0  0  0  0  0  0  0  0
   -1.1965   -1.4974    0.0862 C   0  0  0  0  0  0  0  0  0  0  0  0
   -2.1760   -0.5862    0.8279 C   0  0  0  0  0  0  0  0  0  0  0  0
   -3.2860   -0.4196    0.0327 O   0  0  0  0  0  0  0  0  0  0  0  0
   -4.1947    0.4196    0.5759 N   0  0  0  0  0  0  0  0  0  0  0  0
   -5.2435   -0.0053    1.4355 C   0  0  0  0  0  0  0  0  0  0  0  0
   -5.4138   -1.2155    1.7665 O   0  0  0  0  0  0  0  0  0  0  0  0
   -6.1916    1.0212    1.9759 C   0  0  2  0  0  0  0  0  0  0  0  0
   -7.5770    0.6504    1.4728 C   0  0  0  0  0  0  0  0  0  0  0  0
   -8.5091    1.5762    1.9274 O   0  0  0  0  0  0  0  0  0  0  0  0
  -10.0563    1.2093    1.4021 P   0  0  0  0  0  0  0  0  0  0  0  0
  -10.1777    1.7089   -0.0291 O   0  0  0  0  0  0  0  0  0  0  0  0
  -11.1713    2.0462    2.3607 O   0  0  0  0  0  0  0  0  0  0  0  0
  -10.3536   -0.4588    1.4189 O   0  0  0  0  0  0  0  0  0  0  0  0
   -5.8560    2.3426    1.4747 N   0  0  0  0  0  0  0  0  0  0  0  0
    5.7036    2.5270   -2.0704 H   0  0  0  0  0  0  0  0  0  0  0  0
    6.6044    1.5011   -3.2750 H   0  0  0  0  0  0  0  0  0  0  0  0
    7.0470    3.2367   -3.0886 H   0  0  0  0  0  0  0  0  0  0  0  0
    8.5454    1.4049   -1.9194 H   0  0  0  0  0  0  0  0  0  0  0  0
    8.2619    2.9698   -1.1413 H   0  0  0  0  0  0  0  0  0  0  0  0
    6.4817    1.9506    0.2835 H   0  0  0  0  0  0  0  0  0  0  0  0
    8.0807    1.1753    0.4162 H   0  0  0  0  0  0  0  0  0  0  0  0
    5.7517    0.2590   -1.3481 H   0  0  0  0  0  0  0  0  0  0  0  0
    7.3179   -0.5950   -1.2419 H   0  0  0  0  0  0  0  0  0  0  0  0
    6.9815   -0.8769    1.2701 H   0  0  0  0  0  0  0  0  0  0  0  0
    5.4790    0.0194    1.1272 H   0  0  0  0  0  0  0  0  0  0  0  0
    5.0345   -2.4053    1.2407 H   0  0  0  0  0  0  0  0  0  0  0  0
    6.2267   -2.6988   -0.1219 H   0  0  0  0  0  0  0  0  0  0  0  0
    4.5897   -1.3846   -1.6210 H   0  0  0  0  0  0  0  0  0  0  0  0
    3.8962   -2.8375   -0.9014 H   0  0  0  0  0  0  0  0  0  0  0  0
    2.8817   -1.4379    0.9403 H   0  0  0  0  0  0  0  0  0  0  0  0
    3.7254    0.0524    0.2336 H   0  0  0  0  0  0  0  0  0  0  0  0
    2.2374   -0.1061   -1.7487 H   0  0  0  0  0  0  0  0  0  0  0  0
    1.3932   -0.0466   -0.1726 H   0  0  0  0  0  0  0  0  0  0  0  0
    2.0645   -2.7267   -1.6345 H   0  0  0  0  0  0  0  0  0  0  0  0
    1.1800   -2.5133   -0.1358 H   0  0  0  0  0  0  0  0  0  0  0  0
   -0.3272   -2.7282   -2.2829 H   0  0  0  0  0  0  0  0  0  0  0  0
    0.4847   -1.2281   -2.8484 H   0  0  0  0  0  0  0  0  0  0  0  0
   -1.7342   -0.8098   -1.8357 H   0  0  0  0  0  0  0  0  0  0  0  0
   -0.3454    0.1249   -1.1233 H   0  0  0  0  0  0  0  0  0  0  0  0
   -0.3787   -1.6793    0.7947 H   0  0  0  0  0  0  0  0  0  0  0  0
   -1.6558   -2.4858   -0.1557 H   0  0  0  0  0  0  0  0  0  0  0  0
   -1.6384    0.3214    1.1003 H   0  0  0  0  0  0  0  0  0  0  0  0
   -2.5081   -1.0657    1.7760 H   0  0  0  0  0  0  0  0  0  0  0  0
   -4.0850    1.4374    0.3229 H   0  0  0  0  0  0  0  0  0  0  0  0
   -6.2050    1.0532    3.0795 H   0  0  0  0  0  0  0  0  0  0  0  0
   -7.8273   -0.3312    1.9535 H   0  0  0  0  0  0  0  0  0  0  0  0
   -7.5952    0.4975    0.3925 H   0  0  0  0  0  0  0  0  0  0  0  0
  -10.8700    2.9693    2.4483 H   0  0  0  0  0  0  0  0  0  0  0  0
  -10.9853   -0.6880    2.1476 H   0  0  0  0  0  0  0  0  0  0  0  0
   -6.4094    3.0581    1.9917 H   0  0  0  0  0  0  0  0  0  0  0  0
   -6.1420    2.4448    0.4556 H   0  0  0  0  0  0  0  0  0  0  0  0
  1  2  1  0
  2  3  1  0
  3  4  1  0
  4  5  1  0
  5  6  1  0
  6  7  1  0
  7  8  1  0
  8  9  1  0
  9 10  1  0
 10 11  1  0
 11 12  1  0
 12 13  1  0
 13 14  1  0
 14 15  1  0
 15 16  1  0
 16 17  1  0
 17 18  2  0
 17 19  1  0
 19 20  1  0
 20 21  1  0
 21 22  1  0
 22 23  2  0
 22 24  1  0
 22 25  1  0
 19 26  1  0
  1 27  1  0
  1 28  1  0
  1 29  1  0
  2 30  1  0
  2 31  1  0
  3 32  1  0
  3 33  1  0
  4 34  1  0
  4 35  1  0
  5 36  1  0
  5 37  1  0
  6 38  1  0
  6 39  1  0
  7 40  1  0
  7 41  1  0
  8 42  1  0
  8 43  1  0
  9 44  1  0
  9 45  1  0
 10 46  1  0
 10 47  1  0
 11 48  1  0
 11 49  1  0
 12 50  1  0
 12 51  1  0
 13 52  1  0
 13 53  1  0
 14 54  1  0
 14 55  1  0
 16 56  1  0
 19 57  1  1
 20 58  1  0
 20 59  1  0
 24 60  1  0
 25 61  1  0
 26 62  1  0
 26 63  1  0
M  END
>  <Ligand ID>  (1) 
LIG0004276

>  <Ligand>  (1) 
CHEMBL115505

>  <SMILES>  (1) 
CCCCCCCCCCCCCCONC(=O)[C@H](COP(=O)(O)O)N

>  <CID>  (1) 
44342246.0

>  <ChEMBL ID>  (1) 
nan

>  <InChiKey>  (1) 
DBSAALJIWXWPJI-INIZCTEOSA-N

>  <InChi>  (1) 
InChI=1S/C17H37N2O6P/c1-2-3-4-5-6-7-8-9-10-11-12-13-14-24-19-17(20)16(18)15-25-26(21,22)23/h16H,2-15,18H2,1H3,(H,19,20)(H2,21,22,23)/t16-/m0/s1

>  <IUPAC Name>  (1) 
[(2S)-2-amino-3-oxo-3-(tetradecoxyamino)propyl] dihydrogen phosphate

$$$$
