
     RDKit          3D

106110  0  0  0  0  0  0  0  0999 V2000
   -7.1267   -0.8608    2.2716 C   0  0  0  0  0  0  0  0  0  0  0  0
   -6.2718    0.0729    1.5340 N   0  0  0  0  0  0  0  0  0  0  0  0
   -4.9568   -0.3343    1.1385 C   0  0  0  0  0  0  0  0  0  0  0  0
   -4.6192   -1.4968    1.4713 O   0  0  0  0  0  0  0  0  0  0  0  0
   -4.0989    0.6052    0.3902 C   0  0  1  0  0  0  0  0  0  0  0  0
   -2.6847    0.2798    0.5369 N   0  0  0  0  0  0  0  0  0  0  0  0
   -1.8114    1.3373    1.0596 C   0  0  0  0  0  0  0  0  0  0  0  0
   -0.6533    0.7273    1.8153 C   0  0  0  0  0  0  0  0  0  0  0  0
    0.0619   -0.2330    0.9505 N   0  0  0  0  0  0  0  0  0  0  0  0
   -0.7105   -1.3724    0.5194 C   0  0  2  0  0  0  0  0  0  0  0  0
   -2.0913   -0.9432    0.2190 C   0  0  0  0  0  0  0  0  0  0  0  0
   -2.8204   -1.7931   -0.4020 O   0  0  0  0  0  0  0  0  0  0  0  0
   -0.7505   -2.3393    1.6860 C   0  0  0  0  0  0  0  0  0  0  0  0
   -1.5334   -3.6049    1.4011 C   0  0  0  0  0  0  0  0  0  0  0  0
   -0.9592   -4.3615    0.2543 C   0  0  0  0  0  0  0  0  0  0  0  0
   -1.6347   -5.5634   -0.0333 N   0  0  0  0  0  0  0  0  0  0  0  0
   -2.8559   -5.8252    0.0127 C   0  0  0  0  0  0  0  0  0  0  0  0
   -3.9298   -4.9761    0.3709 N   0  0  0  0  0  0  0  0  0  0  0  0
   -3.2425   -7.1745   -0.3405 N   0  0  0  0  0  0  0  0  0  0  0  0
    1.3940    0.0595    0.6777 C   0  0  0  0  0  0  0  0  0  0  0  0
    1.8441    1.1433    1.2351 O   0  0  0  0  0  0  0  0  0  0  0  0
    2.3883   -0.6564   -0.1363 C   0  0  1  0  0  0  0  0  0  0  0  0
    2.1592   -0.5317   -1.6173 C   0  0  0  0  0  0  0  0  0  0  0  0
    2.2017    0.8844   -2.0811 C   0  0  0  0  0  0  0  0  0  0  0  0
    3.3383    1.4997   -2.5422 C   0  0  0  0  0  0  0  0  0  0  0  0
    3.2991    2.8118   -2.9489 C   0  0  0  0  0  0  0  0  0  0  0  0
    2.1217    3.5548   -2.9090 C   0  0  0  0  0  0  0  0  0  0  0  0
    0.9908    2.9218   -2.4436 C   0  0  0  0  0  0  0  0  0  0  0  0
    1.0349    1.6043   -2.0364 C   0  0  0  0  0  0  0  0  0  0  0  0
    2.0592    4.8458   -3.3030 F   0  0  0  0  0  0  0  0  0  0  0  0
    3.7171   -0.0204    0.0802 N   0  0  0  0  0  0  0  0  0  0  0  0
    4.7539   -0.7410    0.7554 C   0  0  0  0  0  0  0  0  0  0  0  0
    4.5898   -1.9226    1.1797 O   0  0  0  0  0  0  0  0  0  0  0  0
    6.0691   -0.0662    0.9644 C   0  0  2  0  0  0  0  0  0  0  0  0
    6.6730    0.4183   -0.3038 C   0  0  0  0  0  0  0  0  0  0  0  0
    7.9820    1.0945   -0.0517 C   0  0  0  0  0  0  0  0  0  0  0  0
    9.1749    0.3807   -0.0700 C   0  0  0  0  0  0  0  0  0  0  0  0
   10.3623    1.0440    0.1688 C   0  0  0  0  0  0  0  0  0  0  0  0
   10.3385    2.4156    0.4235 C   0  0  0  0  0  0  0  0  0  0  0  0
    9.1614    3.1249    0.4425 C   0  0  0  0  0  0  0  0  0  0  0  0
    7.9732    2.4547    0.2023 C   0  0  0  0  0  0  0  0  0  0  0  0
   11.5683    3.0102    0.6542 O   0  0  0  0  0  0  0  0  0  0  0  0
    6.9028   -0.9927    1.6986 N   0  0  0  0  0  0  0  0  0  0  0  0
    7.2139   -0.6510    3.0582 C   0  0  0  0  0  0  0  0  0  0  0  0
    6.7741    0.3977    3.5512 O   0  0  0  0  0  0  0  0  0  0  0  0
    8.0580   -1.5278    3.9011 C   0  0  0  0  0  0  0  0  0  0  0  0
   -4.4864    0.5476   -1.0736 C   0  0  0  0  0  0  0  0  0  0  0  0
   -5.9046    0.9244   -1.2178 C   0  0  0  0  0  0  0  0  0  0  0  0
   -6.9411   -0.0061   -1.2530 C   0  0  0  0  0  0  0  0  0  0  0  0
   -8.2279    0.5047   -1.3905 C   0  0  0  0  0  0  0  0  0  0  0  0
   -8.4898    1.8523   -1.4884 C   0  0  0  0  0  0  0  0  0  0  0  0
   -7.4631    2.7617   -1.4529 C   0  0  0  0  0  0  0  0  0  0  0  0
   -6.1737    2.2941   -1.3177 C   0  0  0  0  0  0  0  0  0  0  0  0
   -7.6570    4.1179   -1.5456 C   0  0  0  0  0  0  0  0  0  0  0  0
   -8.9337    4.6410   -1.6832 C   0  0  0  0  0  0  0  0  0  0  0  0
   -9.9922    3.7361   -1.7217 C   0  0  0  0  0  0  0  0  0  0  0  0
   -9.7710    2.3619   -1.6255 C   0  0  0  0  0  0  0  0  0  0  0  0
   -6.5985   -1.8213    2.4031 H   0  0  0  0  0  0  0  0  0  0  0  0
   -7.4382   -0.4172    3.2261 H   0  0  0  0  0  0  0  0  0  0  0  0
   -8.0365   -1.1034    1.6668 H   0  0  0  0  0  0  0  0  0  0  0  0
   -6.6751    1.0016    1.3502 H   0  0  0  0  0  0  0  0  0  0  0  0
   -4.2990    1.6261    0.7208 H   0  0  0  0  0  0  0  0  0  0  0  0
   -1.4695    1.9231    0.2059 H   0  0  0  0  0  0  0  0  0  0  0  0
   -2.3695    1.9672    1.7783 H   0  0  0  0  0  0  0  0  0  0  0  0
   -1.0331    0.1445    2.6695 H   0  0  0  0  0  0  0  0  0  0  0  0
    0.0188    1.5241    2.1146 H   0  0  0  0  0  0  0  0  0  0  0  0
   -0.2663   -1.8524   -0.3751 H   0  0  0  0  0  0  0  0  0  0  0  0
   -1.2602   -1.8654    2.5495 H   0  0  0  0  0  0  0  0  0  0  0  0
    0.2563   -2.6349    1.9887 H   0  0  0  0  0  0  0  0  0  0  0  0
   -1.3711   -4.2541    2.3121 H   0  0  0  0  0  0  0  0  0  0  0  0
   -2.6023   -3.4298    1.3603 H   0  0  0  0  0  0  0  0  0  0  0  0
   -0.9306   -3.7109   -0.6619 H   0  0  0  0  0  0  0  0  0  0  0  0
    0.1549   -4.5677    0.4302 H   0  0  0  0  0  0  0  0  0  0  0  0
   -4.4221   -5.1933    1.2672 H   0  0  0  0  0  0  0  0  0  0  0  0
   -4.1876   -4.1837   -0.2556 H   0  0  0  0  0  0  0  0  0  0  0  0
   -4.0574   -7.6458    0.1051 H   0  0  0  0  0  0  0  0  0  0  0  0
   -2.7240   -7.7266   -1.0524 H   0  0  0  0  0  0  0  0  0  0  0  0
    2.4855   -1.6725    0.2424 H   0  0  0  0  0  0  0  0  0  0  0  0
    2.9861   -1.1164   -2.1041 H   0  0  0  0  0  0  0  0  0  0  0  0
    1.2073   -0.9864   -1.8906 H   0  0  0  0  0  0  0  0  0  0  0  0
    4.2677    0.9547   -2.5907 H   0  0  0  0  0  0  0  0  0  0  0  0
    4.1820    3.3314   -3.3222 H   0  0  0  0  0  0  0  0  0  0  0  0
    0.0277    3.4499   -2.3854 H   0  0  0  0  0  0  0  0  0  0  0  0
    0.1133    1.1574   -1.6800 H   0  0  0  0  0  0  0  0  0  0  0  0
    3.9277    0.9270   -0.2337 H   0  0  0  0  0  0  0  0  0  0  0  0
    5.8420    0.8072    1.6102 H   0  0  0  0  0  0  0  0  0  0  0  0
    6.0066    1.1767   -0.7584 H   0  0  0  0  0  0  0  0  0  0  0  0
    6.7929   -0.3863   -1.0709 H   0  0  0  0  0  0  0  0  0  0  0  0
    9.1956   -0.6821   -0.2682 H   0  0  0  0  0  0  0  0  0  0  0  0
   11.3202    0.5038    0.1601 H   0  0  0  0  0  0  0  0  0  0  0  0
    9.1599    4.1883    0.6413 H   0  0  0  0  0  0  0  0  0  0  0  0
    7.0596    3.0342    0.2234 H   0  0  0  0  0  0  0  0  0  0  0  0
   11.9070    3.2526    1.5734 H   0  0  0  0  0  0  0  0  0  0  0  0
    7.2759   -1.8746    1.2857 H   0  0  0  0  0  0  0  0  0  0  0  0
    7.5850   -1.7628    4.8743 H   0  0  0  0  0  0  0  0  0  0  0  0
    8.9871   -0.9615    4.1698 H   0  0  0  0  0  0  0  0  0  0  0  0
    8.3682   -2.3968    3.3087 H   0  0  0  0  0  0  0  0  0  0  0  0
   -3.8442    1.2182   -1.6831 H   0  0  0  0  0  0  0  0  0  0  0  0
   -4.3677   -0.4721   -1.5124 H   0  0  0  0  0  0  0  0  0  0  0  0
   -6.7175   -1.0471   -1.1750 H   0  0  0  0  0  0  0  0  0  0  0  0
   -9.0635   -0.1712   -1.4229 H   0  0  0  0  0  0  0  0  0  0  0  0
   -5.3513    3.0126   -1.2888 H   0  0  0  0  0  0  0  0  0  0  0  0
   -6.8066    4.7848   -1.5117 H   0  0  0  0  0  0  0  0  0  0  0  0
   -9.0384    5.6952   -1.7508 H   0  0  0  0  0  0  0  0  0  0  0  0
  -10.9912    4.1515   -1.8292 H   0  0  0  0  0  0  0  0  0  0  0  0
  -10.6201    1.6681   -1.6574 H   0  0  0  0  0  0  0  0  0  0  0  0
  1  2  1  0
  2  3  1  0
  3  4  2  0
  3  5  1  0
  5  6  1  0
  6  7  1  0
  7  8  1  0
  8  9  1  0
  9 10  1  0
 10 11  1  0
 11 12  2  0
 10 13  1  0
 13 14  1  0
 14 15  1  0
 15 16  1  0
 16 17  2  3
 17 18  1  0
 17 19  1  0
  9 20  1  0
 20 21  2  0
 20 22  1  0
 22 23  1  0
 23 24  1  0
 24 25  2  0
 25 26  1  0
 26 27  2  0
 27 28  1  0
 28 29  2  0
 27 30  1  0
 22 31  1  0
 31 32  1  0
 32 33  2  0
 32 34  1  0
 34 35  1  0
 35 36  1  0
 36 37  2  0
 37 38  1  0
 38 39  2  0
 39 40  1  0
 40 41  2  0
 39 42  1  0
 34 43  1  0
 43 44  1  0
 44 45  2  0
 44 46  1  0
  5 47  1  0
 47 48  1  0
 48 49  2  0
 49 50  1  0
 50 51  2  0
 51 52  1  0
 52 53  2  0
 52 54  1  0
 54 55  2  0
 55 56  1  0
 56 57  2  0
 11  6  1  0
 29 24  1  0
 41 36  1  0
 53 48  1  0
 57 51  1  0
  1 58  1  0
  1 59  1  0
  1 60  1  0
  2 61  1  0
  5 62  1  1
  7 63  1  0
  7 64  1  0
  8 65  1  0
  8 66  1  0
 10 67  1  6
 13 68  1  0
 13 69  1  0
 14 70  1  0
 14 71  1  0
 15 72  1  0
 15 73  1  0
 18 74  1  0
 18 75  1  0
 19 76  1  0
 19 77  1  0
 22 78  1  1
 23 79  1  0
 23 80  1  0
 25 81  1  0
 26 82  1  0
 28 83  1  0
 29 84  1  0
 31 85  1  0
 34 86  1  1
 35 87  1  0
 35 88  1  0
 37 89  1  0
 38 90  1  0
 40 91  1  0
 41 92  1  0
 42 93  1  0
 43 94  1  0
 46 95  1  0
 46 96  1  0
 46 97  1  0
 47 98  1  0
 47 99  1  0
 49100  1  0
 50101  1  0
 53102  1  0
 54103  1  0
 55104  1  0
 56105  1  0
 57106  1  0
M  END
>  <Ligand ID>  (1) 
LIG0003283

>  <Ligand>  (1) 
CHEMBL385000

>  <SMILES>  (1) 
CNC(=O)[C@@H](N1CCN([C@H](C1=O)CCCN=C(N)N)C(=O)[C@@H](Cc1ccc(cc1)F)NC(=O)[C@H](Cc1ccc(cc1)O)NC(=O)C)Cc1ccc2c(c1)cccc2

>  <CID>  (1) 
44415919.0

>  <ChEMBL ID>  (1) 
nan

>  <InChiKey>  (1) 
CBZNNNCTDMTAGU-NBRFXYHLSA-N

>  <InChi>  (1) 
InChI=1S/C42H49FN8O6/c1-26(52)48-34(23-28-12-17-33(53)18-13-28)38(54)49-35(24-27-10-15-32(43)16-11-27)40(56)50-20-21-51(41(57)36(50)8-5-19-47-42(44)45)37(39(55)46-2)25-29-9-14-30-6-3-4-7-31(30)22-29/h3-4,6-7,9-18,22,34-37,53H,5,8,19-21,23-25H2,1-2H3,(H,46,55)(H,48,52)(H,49,54)(H4,44,45,47)/t34-,35+,36-,37-/m0/s1

>  <IUPAC Name>  (1) 
(2S)-2-acetamido-N-[(2R)-1-[(2S)-2-[3-(diaminomethylideneamino)propyl]-4-[(2S)-1-(methylamino)-3-naphthalen-2-yl-1-oxopropan-2-yl]-3-oxopiperazin-1-yl]-3-(4-fluorophenyl)-1-oxopropan-2-yl]-3-(4-hydroxyphenyl)propanamide

$$$$
