
     RDKit          3D

 55 58  0  0  0  0  0  0  0  0999 V2000
    4.5277   -0.5266   -1.9897 C   0  0  0  0  0  0  0  0  0  0  0  0
    3.5909    0.0898   -0.9857 C   0  0  2  0  0  0  0  0  0  0  0  0
    4.4436    0.6201    0.1680 C   0  0  0  0  0  0  0  0  0  0  0  0
    5.2481   -0.5240    0.5711 N   0  0  0  0  0  0  0  0  0  0  0  0
    4.6532   -1.7831    0.8636 C   0  0  0  0  0  0  0  0  0  0  0  0
    3.3337   -2.0580    0.2069 C   0  0  0  0  0  0  0  0  0  0  0  0
    2.7147   -0.8941   -0.3621 N   0  0  0  0  0  0  0  0  0  0  0  0
    1.3023   -0.6582   -0.3448 C   0  0  0  0  0  0  0  0  0  0  0  0
    0.8036    0.4521   -0.9280 N   0  0  0  0  0  0  0  0  0  0  0  0
   -0.5006    0.7451   -0.9544 C   0  0  0  0  0  0  0  0  0  0  0  0
   -1.4001   -0.1230   -0.3575 C   0  0  0  0  0  0  0  0  0  0  0  0
   -0.8962   -1.2460    0.2323 C   0  0  0  0  0  0  0  0  0  0  0  0
    0.4461   -1.4916    0.2270 N   0  0  0  0  0  0  0  0  0  0  0  0
   -2.7322    0.2225   -0.4102 O   0  0  0  0  0  0  0  0  0  0  0  0
   -3.6895   -0.6077    0.1719 C   0  0  0  0  0  0  0  0  0  0  0  0
   -5.0799   -0.0486    0.0019 C   0  0  0  0  0  0  0  0  0  0  0  0
   -5.9249   -0.6046   -0.9461 C   0  0  0  0  0  0  0  0  0  0  0  0
   -7.2149   -0.1007   -1.1208 C   0  0  0  0  0  0  0  0  0  0  0  0
   -7.6340    0.9546   -0.3389 C   0  0  0  0  0  0  0  0  0  0  0  0
   -6.7695    1.5004    0.6099 C   0  0  0  0  0  0  0  0  0  0  0  0
   -5.4931    1.0094    0.7899 C   0  0  0  0  0  0  0  0  0  0  0  0
   -4.6605    1.5572    1.7238 F   0  0  0  0  0  0  0  0  0  0  0  0
   -9.2601    1.6152   -0.5371 S   0  0  0  0  0  0  0  0  0  0  0  0
   -9.6724    1.4943   -1.9687 O   0  0  0  0  0  0  0  0  0  0  0  0
   -9.2512    3.0622   -0.1041 O   0  0  0  0  0  0  0  0  0  0  0  0
  -10.3216    0.7146    0.5670 C   0  0  0  0  0  0  0  0  0  0  0  0
    6.6664   -0.3683    0.6707 C   0  0  0  0  0  0  0  0  0  0  0  0
    7.5735   -1.2972    1.0205 N   0  0  0  0  0  0  0  0  0  0  0  0
    8.8044   -0.7856    1.0028 N   0  0  0  0  0  0  0  0  0  0  0  0
    8.6454    0.4961    0.6303 C   0  0  0  0  0  0  0  0  0  0  0  0
    7.3546    0.7210    0.4376 O   0  0  0  0  0  0  0  0  0  0  0  0
    9.7258    1.5119    0.4569 C   0  0  0  0  0  0  0  0  0  0  0  0
   10.3694    1.3919   -0.7590 F   0  0  0  0  0  0  0  0  0  0  0  0
    9.1730    2.7959    0.5141 F   0  0  0  0  0  0  0  0  0  0  0  0
   10.6635    1.4244    1.4600 F   0  0  0  0  0  0  0  0  0  0  0  0
    3.9477   -1.2743   -2.5833 H   0  0  0  0  0  0  0  0  0  0  0  0
    4.9082    0.3151   -2.6112 H   0  0  0  0  0  0  0  0  0  0  0  0
    5.3915   -1.0200   -1.4697 H   0  0  0  0  0  0  0  0  0  0  0  0
    3.0179    0.8859   -1.4913 H   0  0  0  0  0  0  0  0  0  0  0  0
    5.0526    1.4759   -0.1314 H   0  0  0  0  0  0  0  0  0  0  0  0
    3.7344    0.8373    0.9950 H   0  0  0  0  0  0  0  0  0  0  0  0
    5.3871   -2.5773    0.5977 H   0  0  0  0  0  0  0  0  0  0  0  0
    4.5643   -1.8351    1.9884 H   0  0  0  0  0  0  0  0  0  0  0  0
    3.4872   -2.7915   -0.6244 H   0  0  0  0  0  0  0  0  0  0  0  0
    2.6828   -2.5689    0.9460 H   0  0  0  0  0  0  0  0  0  0  0  0
   -0.8570    1.6472   -1.4336 H   0  0  0  0  0  0  0  0  0  0  0  0
   -1.5975   -1.9377    0.7065 H   0  0  0  0  0  0  0  0  0  0  0  0
   -3.4493   -0.6385    1.2732 H   0  0  0  0  0  0  0  0  0  0  0  0
   -3.7131   -1.6407   -0.1735 H   0  0  0  0  0  0  0  0  0  0  0  0
   -5.5998   -1.4284   -1.5568 H   0  0  0  0  0  0  0  0  0  0  0  0
   -7.9031   -0.5008   -1.8429 H   0  0  0  0  0  0  0  0  0  0  0  0
   -7.0714    2.3349    1.2441 H   0  0  0  0  0  0  0  0  0  0  0  0
  -10.4184   -0.3178    0.1408 H   0  0  0  0  0  0  0  0  0  0  0  0
   -9.7792    0.6103    1.5285 H   0  0  0  0  0  0  0  0  0  0  0  0
  -11.3240    1.1633    0.6699 H   0  0  0  0  0  0  0  0  0  0  0  0
  1  2  1  0
  2  3  1  0
  3  4  1  0
  4  5  1  0
  5  6  1  0
  6  7  1  0
  7  8  1  0
  8  9  2  0
  9 10  1  0
 10 11  2  0
 11 12  1  0
 12 13  2  0
 11 14  1  0
 14 15  1  0
 15 16  1  0
 16 17  2  0
 17 18  1  0
 18 19  2  0
 19 20  1  0
 20 21  2  0
 21 22  1  0
 19 23  1  0
 23 24  2  0
 23 25  2  0
 23 26  1  0
  4 27  1  0
 27 28  2  0
 28 29  1  0
 29 30  2  0
 30 31  1  0
 30 32  1  0
 32 33  1  0
 32 34  1  0
 32 35  1  0
  7  2  1  0
 13  8  1  0
 21 16  1  0
 31 27  1  0
  1 36  1  0
  1 37  1  0
  1 38  1  0
  2 39  1  6
  3 40  1  0
  3 41  1  0
  5 42  1  0
  5 43  1  0
  6 44  1  0
  6 45  1  0
 10 46  1  0
 12 47  1  0
 15 48  1  0
 15 49  1  0
 17 50  1  0
 18 51  1  0
 20 52  1  0
 26 53  1  0
 26 54  1  0
 26 55  1  0
M  END
>  <Ligand ID>  (1) 
LIG0005287

>  <Ligand>  (1) 
CHEMBL3357994

>  <SMILES>  (1) 
C[C@@H]1CN(CCN1c1ncc(cn1)OCc1ccc(cc1F)S(=O)(=O)C)c1nnc(o1)C(F)(F)F

>  <CID>  (1) 
118722570.0

>  <ChEMBL ID>  (1) 
nan

>  <InChiKey>  (1) 
NXGHLOHFUASLGZ-GFCCVEGCSA-N

>  <InChi>  (1) 
InChI=1S/C20H20F4N6O4S/c1-12-10-29(19-28-27-17(34-19)20(22,23)24)5-6-30(12)18-25-8-14(9-26-18)33-11-13-3-4-15(7-16(13)21)35(2,31)32/h3-4,7-9,12H,5-6,10-11H2,1-2H3/t12-/m1/s1

>  <IUPAC Name>  (1) 
2-[(3R)-4-[5-[(2-fluoro-4-methylsulfonylphenyl)methoxy]pyrimidin-2-yl]-3-methylpiperazin-1-yl]-5-(trifluoromethyl)-1,3,4-oxadiazole

$$$$
