
     RDKit          3D

 55 57  0  0  0  0  0  0  0  0999 V2000
   -8.0579    1.0075    1.7846 O   0  0  0  0  0  0  0  0  0  0  0  0
   -8.7747    1.2051    0.6187 C   0  0  0  0  0  0  0  0  0  0  0  0
   -9.3153    2.3466    0.4833 O   0  0  0  0  0  0  0  0  0  0  0  0
   -8.9411    0.1935   -0.4433 C   0  0  0  0  0  0  0  0  0  0  0  0
   -8.2907   -1.0160   -0.2041 O   0  0  0  0  0  0  0  0  0  0  0  0
   -6.9540   -1.2330   -0.0321 C   0  0  0  0  0  0  0  0  0  0  0  0
   -5.9769   -0.2623   -0.0706 C   0  0  0  0  0  0  0  0  0  0  0  0
   -4.6296   -0.5790    0.1180 C   0  0  0  0  0  0  0  0  0  0  0  0
   -4.2256   -1.8768    0.3499 C   0  0  0  0  0  0  0  0  0  0  0  0
   -5.1998   -2.8486    0.3886 C   0  0  0  0  0  0  0  0  0  0  0  0
   -6.5340   -2.5331    0.2019 C   0  0  0  0  0  0  0  0  0  0  0  0
   -2.9210   -2.2592    0.5439 O   0  0  0  0  0  0  0  0  0  0  0  0
   -1.8393   -1.3841    0.5389 C   0  0  0  0  0  0  0  0  0  0  0  0
   -1.4298   -0.7990    1.7192 C   0  0  0  0  0  0  0  0  0  0  0  0
   -0.3528    0.0794    1.7452 C   0  0  0  0  0  0  0  0  0  0  0  0
    0.3485    0.3966    0.5772 C   0  0  0  0  0  0  0  0  0  0  0  0
   -0.0692   -0.1942   -0.5989 C   0  0  0  0  0  0  0  0  0  0  0  0
   -1.1456   -1.0711   -0.6210 C   0  0  0  0  0  0  0  0  0  0  0  0
    1.4946    1.3409    0.6495 C   0  0  0  0  0  0  0  0  0  0  0  0
    2.7551    0.5716    0.9020 C   0  0  0  0  0  0  0  0  0  0  0  0
    3.9279    1.3616    0.9944 N   0  0  0  0  0  0  0  0  0  0  0  0
    4.3911    2.0104   -0.1721 C   0  0  0  0  0  0  0  0  0  0  0  0
    4.9163    1.1052   -1.2518 C   0  0  0  0  0  0  0  0  0  0  0  0
    6.0760    0.3485   -0.6855 C   0  0  0  0  0  0  0  0  0  0  0  0
    7.2584    1.0493   -0.5221 C   0  0  0  0  0  0  0  0  0  0  0  0
    8.4049    0.4721   -0.0107 C   0  0  0  0  0  0  0  0  0  0  0  0
    8.3252   -0.8737    0.3434 C   0  0  0  0  0  0  0  0  0  0  0  0
    7.1347   -1.5906    0.1820 C   0  0  0  0  0  0  0  0  0  0  0  0
    5.9958   -0.9806   -0.3364 C   0  0  0  0  0  0  0  0  0  0  0  0
    7.0678   -3.2919    0.6407 Cl  0  0  0  0  0  0  0  0  0  0  0  0
    5.3348    1.8714   -2.3390 O   0  0  0  0  0  0  0  0  0  0  0  0
   -7.5228    1.7256    2.2559 H   0  0  0  0  0  0  0  0  0  0  0  0
   -8.6508    0.5952   -1.4527 H   0  0  0  0  0  0  0  0  0  0  0  0
  -10.0334   -0.0624   -0.5692 H   0  0  0  0  0  0  0  0  0  0  0  0
   -6.2597    0.7660   -0.2540 H   0  0  0  0  0  0  0  0  0  0  0  0
   -3.8788    0.2109    0.0835 H   0  0  0  0  0  0  0  0  0  0  0  0
   -4.9564   -3.8978    0.5685 H   0  0  0  0  0  0  0  0  0  0  0  0
   -7.2678   -3.3338    0.2414 H   0  0  0  0  0  0  0  0  0  0  0  0
   -1.9541   -1.0299    2.6185 H   0  0  0  0  0  0  0  0  0  0  0  0
   -0.0751    0.5064    2.6853 H   0  0  0  0  0  0  0  0  0  0  0  0
    0.4572    0.0322   -1.5307 H   0  0  0  0  0  0  0  0  0  0  0  0
   -1.4587   -1.5223   -1.5471 H   0  0  0  0  0  0  0  0  0  0  0  0
    1.5025    1.8865   -0.3119 H   0  0  0  0  0  0  0  0  0  0  0  0
    1.3192    1.9905    1.5250 H   0  0  0  0  0  0  0  0  0  0  0  0
    2.9351   -0.2337    0.1584 H   0  0  0  0  0  0  0  0  0  0  0  0
    2.6249    0.0463    1.8730 H   0  0  0  0  0  0  0  0  0  0  0  0
    4.6750    1.0279    1.6192 H   0  0  0  0  0  0  0  0  0  0  0  0
    3.6987    2.7250   -0.6326 H   0  0  0  0  0  0  0  0  0  0  0  0
    5.2778    2.6377    0.1396 H   0  0  0  0  0  0  0  0  0  0  0  0
    4.1894    0.3655   -1.6083 H   0  0  0  0  0  0  0  0  0  0  0  0
    7.3202    2.0926   -0.7962 H   0  0  0  0  0  0  0  0  0  0  0  0
    9.3307    1.0148    0.1188 H   0  0  0  0  0  0  0  0  0  0  0  0
    9.2188   -1.3615    0.7535 H   0  0  0  0  0  0  0  0  0  0  0  0
    5.0732   -1.5204   -0.4656 H   0  0  0  0  0  0  0  0  0  0  0  0
    5.6610    2.7718   -2.0756 H   0  0  0  0  0  0  0  0  0  0  0  0
  1  2  1  0
  2  3  2  0
  2  4  1  0
  4  5  1  0
  5  6  1  0
  6  7  2  0
  7  8  1  0
  8  9  2  0
  9 10  1  0
 10 11  2  0
  9 12  1  0
 12 13  1  0
 13 14  2  0
 14 15  1  0
 15 16  2  0
 16 17  1  0
 17 18  2  0
 16 19  1  0
 19 20  1  0
 20 21  1  0
 21 22  1  0
 22 23  1  0
 23 24  1  0
 24 25  2  0
 25 26  1  0
 26 27  2  0
 27 28  1  0
 28 29  2  0
 28 30  1  0
 23 31  1  0
 11  6  1  0
 18 13  1  0
 29 24  1  0
  1 32  1  0
  4 33  1  0
  4 34  1  0
  7 35  1  0
  8 36  1  0
 10 37  1  0
 11 38  1  0
 14 39  1  0
 15 40  1  0
 17 41  1  0
 18 42  1  0
 19 43  1  0
 19 44  1  0
 20 45  1  0
 20 46  1  0
 21 47  1  0
 22 48  1  0
 22 49  1  0
 23 50  1  0
 25 51  1  0
 26 52  1  0
 27 53  1  0
 29 54  1  0
 31 55  1  0
M  END
>  <Ligand ID>  (1) 
LIG0005837

>  <Ligand>  (1) 
CHEMBL537693

>  <SMILES>  (1) 
OC(=O)COc1ccc(cc1)Oc1ccc(cc1)CCNCC(c1cccc(c1)Cl)O

>  <CID>  (1) 
22171637.0

>  <ChEMBL ID>  (1) 
nan

>  <InChiKey>  (1) 
SMYWBRTXSHUZCE-UHFFFAOYSA-N

>  <InChi>  (1) 
InChI=1S/C24H24ClNO5/c25-19-3-1-2-18(14-19)23(27)15-26-13-12-17-4-6-21(7-5-17)31-22-10-8-20(9-11-22)30-16-24(28)29/h1-11,14,23,26-27H,12-13,15-16H2,(H,28,29)

>  <IUPAC Name>  (1) 
2-[4-[4-[2-[[2-(3-chlorophenyl)-2-hydroxyethyl]amino]ethyl]phenoxy]phenoxy]acetic acid

$$$$
