
     RDKit          3D

 45 46  0  0  0  0  0  0  0  0999 V2000
    4.5293    1.0413    0.9125 C   0  0  0  0  0  0  0  0  0  0  0  0
    3.9967    0.0037    0.2731 C   0  0  0  0  0  0  0  0  0  0  0  0
    2.7113   -0.6013    0.6600 C   0  0  0  0  0  0  0  0  0  0  0  0
    1.6913   -0.5904   -0.3273 N   0  0  0  0  0  0  0  0  0  0  0  0
    1.8862   -1.4073   -1.4753 C   0  0  0  0  0  0  0  0  0  0  0  0
    0.7038   -2.3309   -1.6257 C   0  0  0  0  0  0  0  0  0  0  0  0
   -0.4493   -1.9041   -0.7996 C   0  0  0  0  0  0  0  0  0  0  0  0
   -0.8241   -0.6159   -0.5112 C   0  0  0  0  0  0  0  0  0  0  0  0
   -0.2170    0.6774   -0.9220 C   0  0  2  0  0  0  0  0  0  0  0  0
    1.2764    0.7225   -0.7219 C   0  0  0  0  0  0  0  0  0  0  0  0
   -0.9150    1.8044   -0.2511 C   0  0  0  0  0  0  0  0  0  0  0  0
   -0.5264    2.2055    1.0094 C   0  0  0  0  0  0  0  0  0  0  0  0
   -1.1383    3.2501    1.6828 C   0  0  0  0  0  0  0  0  0  0  0  0
   -2.1791    3.9225    1.0763 C   0  0  0  0  0  0  0  0  0  0  0  0
   -2.5912    3.5420   -0.1901 C   0  0  0  0  0  0  0  0  0  0  0  0
   -1.9634    2.4950   -0.8411 C   0  0  0  0  0  0  0  0  0  0  0  0
   -1.9516   -0.4671    0.2940 C   0  0  0  0  0  0  0  0  0  0  0  0
   -2.6579   -1.5492    0.7785 C   0  0  0  0  0  0  0  0  0  0  0  0
   -2.2631   -2.8362    0.4762 C   0  0  0  0  0  0  0  0  0  0  0  0
   -1.1474   -2.9934   -0.3209 C   0  0  0  0  0  0  0  0  0  0  0  0
   -0.5519   -4.7568   -0.7755 Br  0  0  0  0  0  0  0  0  0  0  0  0
   -2.9715   -3.9278    0.9624 O   0  0  0  0  0  0  0  0  0  0  0  0
   -3.7855   -1.3217    1.5843 O   0  0  0  0  0  0  0  0  0  0  0  0
    0.7664    0.0000    0.0000 Br  0  0  0  0  0  0  0  0  0  0  0  0
    3.9922    1.4643    1.7609 H   0  0  0  0  0  0  0  0  0  0  0  0
    5.4691    1.4478    0.5946 H   0  0  0  0  0  0  0  0  0  0  0  0
    4.5182   -0.4361   -0.5804 H   0  0  0  0  0  0  0  0  0  0  0  0
    2.9024   -1.6484    0.9864 H   0  0  0  0  0  0  0  0  0  0  0  0
    2.2863   -0.0902    1.5689 H   0  0  0  0  0  0  0  0  0  0  0  0
    2.7998   -1.9945   -1.5233 H   0  0  0  0  0  0  0  0  0  0  0  0
    1.8847   -0.7771   -2.4121 H   0  0  0  0  0  0  0  0  0  0  0  0
    1.0176   -3.3296   -1.2270 H   0  0  0  0  0  0  0  0  0  0  0  0
    0.3993   -2.4952   -2.6765 H   0  0  0  0  0  0  0  0  0  0  0  0
   -0.3895    0.8605   -2.0252 H   0  0  0  0  0  0  0  0  0  0  0  0
    1.8293    0.9651   -1.6628 H   0  0  0  0  0  0  0  0  0  0  0  0
    1.5921    1.5296   -0.0125 H   0  0  0  0  0  0  0  0  0  0  0  0
    0.2829    1.7159    1.5358 H   0  0  0  0  0  0  0  0  0  0  0  0
   -0.8249    3.5625    2.6790 H   0  0  0  0  0  0  0  0  0  0  0  0
   -2.6771    4.7375    1.5707 H   0  0  0  0  0  0  0  0  0  0  0  0
   -3.4096    4.0722   -0.6649 H   0  0  0  0  0  0  0  0  0  0  0  0
   -2.3024    2.2137   -1.8303 H   0  0  0  0  0  0  0  0  0  0  0  0
   -2.3055    0.5102    0.5641 H   0  0  0  0  0  0  0  0  0  0  0  0
   -3.5040   -4.5661    0.3682 H   0  0  0  0  0  0  0  0  0  0  0  0
   -4.2235   -2.1046    2.0386 H   0  0  0  0  0  0  0  0  0  0  0  0
   -0.7664    0.0000    0.0000 H   0  0  0  0  0  0  0  0  0  0  0  0
  1  2  2  0
  2  3  1  0
  3  4  1  0
  4  5  1  0
  5  6  1  0
  6  7  1  0
  7  8  2  0
  8  9  1  0
  9 10  1  0
  9 11  1  0
 11 12  2  0
 12 13  1  0
 13 14  2  0
 14 15  1  0
 15 16  2  0
  8 17  1  0
 17 18  2  0
 18 19  1  0
 19 20  2  0
 20 21  1  0
 19 22  1  0
 18 23  1  0
 10  4  1  0
 16 11  1  0
 20  7  1  0
  1 25  1  0
  1 26  1  0
  2 27  1  0
  3 28  1  0
  3 29  1  0
  5 30  1  0
  5 31  1  0
  6 32  1  0
  6 33  1  0
  9 34  1  6
 10 35  1  0
 10 36  1  0
 12 37  1  0
 13 38  1  0
 14 39  1  0
 15 40  1  0
 16 41  1  0
 17 42  1  0
 22 43  1  0
 23 44  1  0
 24 45  1  0
M  END
>  <Ligand ID>  (1) 
LIG0005629

>  <Ligand>  (1) 
R(+)-6-Bromo-APB hydrobromide

>  <SMILES>  (1) 
C=CCN1CCc2c([C@H](C1)c1ccccc1)cc(c(c2Br)O)O.Br

>  <CID>  (1) 
11957483.0

>  <ChEMBL ID>  (1) 
nan

>  <InChiKey>  (1) 
CTAUBYSSTAODOD-PKLMIRHRSA-N

>  <InChi>  (1) 
InChI=1S/C19H20BrNO2.BrH/c1-2-9-21-10-8-14-15(11-17(22)19(23)18(14)20)16(12-21)13-6-4-3-5-7-13;/h2-7,11,16,22-23H,1,8-10,12H2;1H/t16-;/m1./s1

>  <IUPAC Name>  (1) 
(5R)-9-bromo-5-phenyl-3-prop-2-enyl-1,2,4,5-tetrahydro-3-benzazepine-7,8-diol;hydrobromide

$$$$
