
     RDKit          3D

 56 58  0  0  0  0  0  0  0  0999 V2000
    7.5634    1.7422   -0.3888 C   0  0  0  0  0  0  0  0  0  0  0  0
    6.7476    2.3857    0.7234 C   0  0  0  0  0  0  0  0  0  0  0  0
    5.3423    1.8552    0.6849 C   0  0  0  0  0  0  0  0  0  0  0  0
    4.4065    2.5112   -0.0835 C   0  0  0  0  0  0  0  0  0  0  0  0
    3.1086    1.9978   -0.1052 C   0  0  0  0  0  0  0  0  0  0  0  0
    2.8108    0.8773    0.6251 C   0  0  0  0  0  0  0  0  0  0  0  0
    3.7451    0.2095    1.4015 C   0  0  0  0  0  0  0  0  0  0  0  0
    5.0313    0.7270    1.4169 C   0  0  0  0  0  0  0  0  0  0  0  0
    1.4731    0.3702    0.5819 N   0  0  0  0  0  0  0  0  0  0  0  0
    1.1907   -0.5827   -0.4301 C   0  0  0  0  0  0  0  0  0  0  0  0
    2.1241   -0.9076   -1.2038 O   0  0  0  0  0  0  0  0  0  0  0  0
   -0.0851   -1.1841   -0.6119 N   0  0  0  0  0  0  0  0  0  0  0  0
   -0.2131   -2.1396   -1.6923 C   0  0  0  0  0  0  0  0  0  0  0  0
    0.0977   -3.5194   -1.2405 C   0  0  0  0  0  0  0  0  0  0  0  0
   -0.7349   -4.4481   -0.7325 C   0  0  0  0  0  0  0  0  0  0  0  0
   -0.2757   -5.6524   -0.3819 C   0  0  0  0  0  0  0  0  0  0  0  0
    1.1024   -5.8478   -0.5864 C   0  0  0  0  0  0  0  0  0  0  0  0
    1.7110   -4.2696   -1.2879 S   0  0  0  0  0  0  0  0  0  0  0  0
   -1.2369   -0.9085    0.1892 C   0  0  0  0  0  0  0  0  0  0  0  0
   -2.0599    0.2483   -0.3938 C   0  0  0  0  0  0  0  0  0  0  0  0
   -3.2316    0.4445    0.5127 C   0  0  0  0  0  0  0  0  0  0  0  0
   -4.1157    1.5051    0.0972 N   0  0  0  0  0  0  0  0  0  0  0  0
   -4.8207    1.2058   -1.1250 C   0  0  0  0  0  0  0  0  0  0  0  0
   -6.0987    2.0189   -1.1274 C   0  0  0  0  0  0  0  0  0  0  0  0
   -6.9931    1.5913   -0.1523 O   0  0  0  0  0  0  0  0  0  0  0  0
   -6.3553    1.1932    1.0078 C   0  0  0  0  0  0  0  0  0  0  0  0
   -5.0214    1.8962    1.1648 C   0  0  0  0  0  0  0  0  0  0  0  0
    8.4899    2.3150   -0.5184 H   0  0  0  0  0  0  0  0  0  0  0  0
    6.9318    1.8249   -1.3179 H   0  0  0  0  0  0  0  0  0  0  0  0
    7.7314    0.6825   -0.1454 H   0  0  0  0  0  0  0  0  0  0  0  0
    6.7497    3.4925    0.6596 H   0  0  0  0  0  0  0  0  0  0  0  0
    7.1809    2.0980    1.6913 H   0  0  0  0  0  0  0  0  0  0  0  0
    4.6263    3.3948   -0.6653 H   0  0  0  0  0  0  0  0  0  0  0  0
    2.3317    2.4815   -0.7011 H   0  0  0  0  0  0  0  0  0  0  0  0
    3.5125   -0.6747    1.9765 H   0  0  0  0  0  0  0  0  0  0  0  0
    5.8377    0.2765    1.9946 H   0  0  0  0  0  0  0  0  0  0  0  0
    0.7287    0.6612    1.2394 H   0  0  0  0  0  0  0  0  0  0  0  0
   -1.2344   -2.1202   -2.0684 H   0  0  0  0  0  0  0  0  0  0  0  0
    0.4842   -1.9134   -2.5293 H   0  0  0  0  0  0  0  0  0  0  0  0
   -1.8289   -4.1987   -0.6047 H   0  0  0  0  0  0  0  0  0  0  0  0
   -0.8608   -6.4767    0.0380 H   0  0  0  0  0  0  0  0  0  0  0  0
    1.7460   -6.7363   -0.3901 H   0  0  0  0  0  0  0  0  0  0  0  0
   -1.9096   -1.7951    0.3092 H   0  0  0  0  0  0  0  0  0  0  0  0
   -0.8992   -0.6660    1.2247 H   0  0  0  0  0  0  0  0  0  0  0  0
   -1.4058    1.1521   -0.4149 H   0  0  0  0  0  0  0  0  0  0  0  0
   -2.2916   -0.0609   -1.4173 H   0  0  0  0  0  0  0  0  0  0  0  0
   -3.7384   -0.5419    0.6407 H   0  0  0  0  0  0  0  0  0  0  0  0
   -2.8277    0.7241    1.5132 H   0  0  0  0  0  0  0  0  0  0  0  0
   -4.2120    1.5340   -1.9784 H   0  0  0  0  0  0  0  0  0  0  0  0
   -5.1229    0.1455   -1.2000 H   0  0  0  0  0  0  0  0  0  0  0  0
   -5.8420    3.1040   -0.9579 H   0  0  0  0  0  0  0  0  0  0  0  0
   -6.5711    1.9220   -2.1184 H   0  0  0  0  0  0  0  0  0  0  0  0
   -6.1382    0.1102    0.8976 H   0  0  0  0  0  0  0  0  0  0  0  0
   -6.9617    1.3476    1.8978 H   0  0  0  0  0  0  0  0  0  0  0  0
   -4.5961    1.6038    2.1376 H   0  0  0  0  0  0  0  0  0  0  0  0
   -5.1227    2.9940    1.1213 H   0  0  0  0  0  0  0  0  0  0  0  0
  1  2  1  0
  2  3  1  0
  3  4  2  0
  4  5  1  0
  5  6  2  0
  6  7  1  0
  7  8  2  0
  6  9  1  0
  9 10  1  0
 10 11  2  0
 10 12  1  0
 12 13  1  0
 13 14  1  0
 14 15  2  0
 15 16  1  0
 16 17  2  0
 17 18  1  0
 12 19  1  0
 19 20  1  0
 20 21  1  0
 21 22  1  0
 22 23  1  0
 23 24  1  0
 24 25  1  0
 25 26  1  0
 26 27  1  0
  8  3  1  0
 18 14  1  0
 27 22  1  0
  1 28  1  0
  1 29  1  0
  1 30  1  0
  2 31  1  0
  2 32  1  0
  4 33  1  0
  5 34  1  0
  7 35  1  0
  8 36  1  0
  9 37  1  0
 13 38  1  0
 13 39  1  0
 15 40  1  0
 16 41  1  0
 17 42  1  0
 19 43  1  0
 19 44  1  0
 20 45  1  0
 20 46  1  0
 21 47  1  0
 21 48  1  0
 23 49  1  0
 23 50  1  0
 24 51  1  0
 24 52  1  0
 26 53  1  0
 26 54  1  0
 27 55  1  0
 27 56  1  0
M  END
>  <Ligand ID>  (1) 
LIG0004112

>  <Ligand>  (1) 
MLS000522814

>  <SMILES>  (1) 
CCc1ccc(cc1)NC(=O)N(Cc1cccs1)CCCN1CCOCC1

>  <CID>  (1) 
4247296.0

>  <ChEMBL ID>  (1) 
nan

>  <InChiKey>  (1) 
HEDRUNDAXJRNDL-UHFFFAOYSA-N

>  <InChi>  (1) 
InChI=1S/C21H29N3O2S/c1-2-18-6-8-19(9-7-18)22-21(25)24(17-20-5-3-16-27-20)11-4-10-23-12-14-26-15-13-23/h3,5-9,16H,2,4,10-15,17H2,1H3,(H,22,25)

>  <IUPAC Name>  (1) 
3-(4-ethylphenyl)-1-(3-morpholin-4-ylpropyl)-1-(thiophen-2-ylmethyl)urea

$$$$
