
     RDKit          3D

 29 31  0  0  0  0  0  0  0  0999 V2000
    4.9804   -0.4892    2.9283 Br  0  0  0  0  0  0  0  0  0  0  0  0
    3.7100   -0.2476    1.5264 C   0  0  0  0  0  0  0  0  0  0  0  0
    3.5801   -1.1855    0.5113 C   0  0  0  0  0  0  0  0  0  0  0  0
    2.6662   -1.0278   -0.5117 C   0  0  0  0  0  0  0  0  0  0  0  0
    1.8518    0.0820   -0.5454 C   0  0  0  0  0  0  0  0  0  0  0  0
    1.9815    1.0256    0.4748 C   0  0  0  0  0  0  0  0  0  0  0  0
    2.8980    0.8672    1.5004 C   0  0  0  0  0  0  0  0  0  0  0  0
    0.8420    0.3017   -1.6347 C   0  0  0  0  0  0  0  0  0  0  0  0
   -0.4393   -0.2876   -1.2740 N   0  0  0  0  0  0  0  0  0  0  0  0
   -1.5300    0.3053   -0.5775 C   0  0  0  0  0  0  0  0  0  0  0  0
   -1.6817    1.5921   -0.0523 C   0  0  0  0  0  0  0  0  0  0  0  0
   -2.8704    1.8867    0.5817 C   0  0  0  0  0  0  0  0  0  0  0  0
   -3.8675    0.9337    0.6866 C   0  0  0  0  0  0  0  0  0  0  0  0
   -3.7274   -0.3444    0.1696 C   0  0  0  0  0  0  0  0  0  0  0  0
   -2.5291   -0.6305   -0.4656 C   0  0  0  0  0  0  0  0  0  0  0  0
   -2.1341   -1.8906   -1.0896 C   0  0  0  0  0  0  0  0  0  0  0  0
   -2.7954   -2.9633   -1.1768 O   0  0  0  0  0  0  0  0  0  0  0  0
   -0.7805   -1.6432   -1.6043 C   0  0  0  0  0  0  0  0  0  0  0  0
   -0.0893   -2.4931   -2.2142 O   0  0  0  0  0  0  0  0  0  0  0  0
    4.1939   -2.0610    0.5013 H   0  0  0  0  0  0  0  0  0  0  0  0
    2.5966   -1.7768   -1.2790 H   0  0  0  0  0  0  0  0  0  0  0  0
    1.3769    1.9206    0.5141 H   0  0  0  0  0  0  0  0  0  0  0  0
    3.0032    1.5898    2.2891 H   0  0  0  0  0  0  0  0  0  0  0  0
    1.1910   -0.1511   -2.5866 H   0  0  0  0  0  0  0  0  0  0  0  0
    0.7558    1.3956   -1.8868 H   0  0  0  0  0  0  0  0  0  0  0  0
   -0.8958    2.3299   -0.1397 H   0  0  0  0  0  0  0  0  0  0  0  0
   -2.9811    2.8840    0.9857 H   0  0  0  0  0  0  0  0  0  0  0  0
   -4.7992    1.1680    1.1847 H   0  0  0  0  0  0  0  0  0  0  0  0
   -4.5066   -1.0904    0.2511 H   0  0  0  0  0  0  0  0  0  0  0  0
  1  2  1  0
  2  3  2  0
  3  4  1  0
  4  5  2  0
  5  6  1  0
  6  7  2  0
  5  8  1  0
  8  9  1  0
  9 10  1  0
 10 11  2  0
 11 12  1  0
 12 13  2  0
 13 14  1  0
 14 15  2  0
 15 16  1  0
 16 17  2  0
 16 18  1  0
 18 19  2  0
  7  2  1  0
 18  9  1  0
 15 10  1  0
  3 20  1  0
  4 21  1  0
  6 22  1  0
  7 23  1  0
  8 24  1  0
  8 25  1  0
 11 26  1  0
 12 27  1  0
 13 28  1  0
 14 29  1  0
M  END
>  <Ligand ID>  (1) 
LIG0000587

>  <Ligand>  (1) 
1-(4-Bromobenzyl)indole-2,3-dione

>  <SMILES>  (1) 
Brc1ccc(cc1)CN1c2ccccc2C(=O)C1=O

>  <CID>  (1) 
3008304.0

>  <ChEMBL ID>  (1) 
nan

>  <InChiKey>  (1) 
DELLOEULSHGYCG-UHFFFAOYSA-N

>  <InChi>  (1) 
InChI=1S/C15H10BrNO2/c16-11-7-5-10(6-8-11)9-17-13-4-2-1-3-12(13)14(18)15(17)19/h1-8H,9H2

>  <IUPAC Name>  (1) 
1-[(4-bromophenyl)methyl]indole-2,3-dione

$$$$
