
     RDKit          3D

 32 33  0  0  0  0  0  0  0  0999 V2000
    4.7333   -0.8283    1.2329 C   0  0  0  0  0  0  0  0  0  0  0  0
    3.8446   -0.8702    0.4185 C   0  0  0  0  0  0  0  0  0  0  0  0
    2.7369   -0.9299   -0.5632 C   0  0  0  0  0  0  0  0  0  0  0  0
    1.3834   -0.8260    0.1157 C   0  0  0  0  0  0  0  0  0  0  0  0
    1.2958    0.3203    0.7686 O   0  0  0  0  0  0  0  0  0  0  0  0
    0.1671    1.0522    0.8195 C   0  0  1  0  0  0  0  0  0  0  0  0
    0.4260    2.3483    0.0356 C   0  0  0  0  0  0  0  0  0  0  0  0
    1.5272    3.0785    0.6363 N   0  0  0  0  0  0  0  0  0  0  0  0
   -1.0649    0.4110    0.3725 C   0  0  0  0  0  0  0  0  0  0  0  0
   -0.9992   -0.6925   -0.4781 C   0  0  0  0  0  0  0  0  0  0  0  0
    0.3421   -1.1708   -0.8959 C   0  0  0  0  0  0  0  0  0  0  0  0
   -2.1616   -1.3059   -0.9063 C   0  0  0  0  0  0  0  0  0  0  0  0
   -2.0644   -2.4111   -1.7594 O   0  0  0  0  0  0  0  0  0  0  0  0
   -3.3954   -0.8367   -0.4996 C   0  0  0  0  0  0  0  0  0  0  0  0
   -3.4553    0.2558    0.3423 C   0  0  0  0  0  0  0  0  0  0  0  0
   -2.3008    0.8939    0.7898 C   0  0  0  0  0  0  0  0  0  0  0  0
   -4.5286   -1.4969   -0.9648 O   0  0  0  0  0  0  0  0  0  0  0  0
    5.5091   -0.7987    1.9667 H   0  0  0  0  0  0  0  0  0  0  0  0
    2.8127   -1.8419   -1.1903 H   0  0  0  0  0  0  0  0  0  0  0  0
    2.9047   -0.0793   -1.2631 H   0  0  0  0  0  0  0  0  0  0  0  0
    1.3656   -1.6648    0.8738 H   0  0  0  0  0  0  0  0  0  0  0  0
    0.0170    1.3880    1.8755 H   0  0  0  0  0  0  0  0  0  0  0  0
   -0.4898    2.9398   -0.0969 H   0  0  0  0  0  0  0  0  0  0  0  0
    0.7756    2.0653   -0.9974 H   0  0  0  0  0  0  0  0  0  0  0  0
    1.4848    4.0903    0.4357 H   0  0  0  0  0  0  0  0  0  0  0  0
    1.5182    2.8993    1.6844 H   0  0  0  0  0  0  0  0  0  0  0  0
    0.5904   -0.6809   -1.8597 H   0  0  0  0  0  0  0  0  0  0  0  0
    0.2702   -2.2591   -1.0711 H   0  0  0  0  0  0  0  0  0  0  0  0
   -1.4798   -3.1985   -1.5408 H   0  0  0  0  0  0  0  0  0  0  0  0
   -4.4086    0.6290    0.6647 H   0  0  0  0  0  0  0  0  0  0  0  0
   -2.3824    1.7528    1.4530 H   0  0  0  0  0  0  0  0  0  0  0  0
   -4.9738   -2.2331   -0.3988 H   0  0  0  0  0  0  0  0  0  0  0  0
  1  2  3  0
  2  3  1  0
  3  4  1  0
  4  5  1  0
  5  6  1  0
  6  7  1  0
  7  8  1  0
  6  9  1  0
  9 10  2  0
 10 11  1  0
 10 12  1  0
 12 13  1  0
 12 14  2  0
 14 15  1  0
 15 16  2  0
 14 17  1  0
 11  4  1  0
 16  9  1  0
  1 18  1  0
  3 19  1  0
  3 20  1  0
  4 21  1  0
  6 22  1  1
  7 23  1  0
  7 24  1  0
  8 25  1  0
  8 26  1  0
 11 27  1  0
 11 28  1  0
 13 29  1  0
 15 30  1  0
 16 31  1  0
 17 32  1  0
M  END
>  <Ligand ID>  (1) 
LIG0005598

>  <Ligand>  (1) 
CHEMBL315849

>  <SMILES>  (1) 
C#CCC1O[C@@H](CN)c2c(C1)c(O)c(cc2)O

>  <CID>  (1) 
44320123.0

>  <ChEMBL ID>  (1) 
nan

>  <InChiKey>  (1) 
LWUHQVZWIKZZFZ-MYIOLCAUSA-N

>  <InChi>  (1) 
InChI=1S/C13H15NO3/c1-2-3-8-6-10-9(12(7-14)17-8)4-5-11(15)13(10)16/h1,4-5,8,12,15-16H,3,6-7,14H2/t8?,12-/m0/s1

>  <IUPAC Name>  (1) 
(1R)-1-(aminomethyl)-3-prop-2-ynyl-3,4-dihydro-1H-isochromene-5,6-diol

$$$$
