
     RDKit          3D

 39 42  0  0  0  0  0  0  0  0999 V2000
   -5.4043    2.9178    0.1014 C   0  0  0  0  0  0  0  0  0  0  0  0
   -4.3639    1.8531    0.0832 C   0  0  0  0  0  0  0  0  0  0  0  0
   -3.2781    1.9095    0.9462 C   0  0  0  0  0  0  0  0  0  0  0  0
   -2.2976    0.9119    0.9334 C   0  0  0  0  0  0  0  0  0  0  0  0
   -2.4123   -0.1408    0.0515 C   0  0  0  0  0  0  0  0  0  0  0  0
   -3.5056   -0.2008   -0.8198 C   0  0  0  0  0  0  0  0  0  0  0  0
   -4.4707    0.7848   -0.8044 C   0  0  0  0  0  0  0  0  0  0  0  0
   -1.4559   -1.2252   -0.0492 C   0  0  0  0  0  0  0  0  0  0  0  0
   -1.9319   -2.4856   -0.1144 N   0  0  0  0  0  0  0  0  0  0  0  0
   -1.1636   -3.5510   -0.2090 N   0  0  0  0  0  0  0  0  0  0  0  0
    0.1844   -3.4303   -0.2467 C   0  0  0  0  0  0  0  0  0  0  0  0
    0.7127   -2.1599   -0.1827 C   0  0  0  0  0  0  0  0  0  0  0  0
   -0.0903   -1.0521   -0.0842 C   0  0  0  0  0  0  0  0  0  0  0  0
    0.6831    0.0691   -0.0396 C   0  0  0  0  0  0  0  0  0  0  0  0
    1.9606   -0.3616   -0.1111 N   0  0  0  0  0  0  0  0  0  0  0  0
    1.9739   -1.6933   -0.1965 N   0  0  0  0  0  0  0  0  0  0  0  0
    3.1534    0.4114   -0.1030 C   0  0  0  0  0  0  0  0  0  0  0  0
    4.2809   -0.1092    0.5371 C   0  0  0  0  0  0  0  0  0  0  0  0
    5.4730    0.5540    0.6004 C   0  0  0  0  0  0  0  0  0  0  0  0
    5.5773    1.7792    0.0160 C   0  0  0  0  0  0  0  0  0  0  0  0
    4.4782    2.3247   -0.6272 C   0  0  0  0  0  0  0  0  0  0  0  0
    3.2583    1.6526   -0.6954 C   0  0  0  0  0  0  0  0  0  0  0  0
    1.0472   -4.6425   -0.3539 C   0  0  0  0  0  0  0  0  0  0  0  0
   -6.1527    2.6979   -0.6702 H   0  0  0  0  0  0  0  0  0  0  0  0
   -5.8353    2.9447    1.1286 H   0  0  0  0  0  0  0  0  0  0  0  0
   -4.9898    3.9307   -0.0912 H   0  0  0  0  0  0  0  0  0  0  0  0
   -3.2019    2.7481    1.6371 H   0  0  0  0  0  0  0  0  0  0  0  0
   -1.4516    0.9520    1.6058 H   0  0  0  0  0  0  0  0  0  0  0  0
   -3.6285   -1.0118   -1.5251 H   0  0  0  0  0  0  0  0  0  0  0  0
   -5.3202    0.7299   -1.4876 H   0  0  0  0  0  0  0  0  0  0  0  0
    0.3439    1.0744    0.0351 H   0  0  0  0  0  0  0  0  0  0  0  0
    4.2399   -1.0971    1.0227 H   0  0  0  0  0  0  0  0  0  0  0  0
    6.3242    0.1016    1.1137 H   0  0  0  0  0  0  0  0  0  0  0  0
    6.5367    2.2916    0.0778 H   0  0  0  0  0  0  0  0  0  0  0  0
    4.6054    3.3008   -1.0781 H   0  0  0  0  0  0  0  0  0  0  0  0
    2.4089    2.0788   -1.1948 H   0  0  0  0  0  0  0  0  0  0  0  0
    0.6772   -5.3255    0.4524 H   0  0  0  0  0  0  0  0  0  0  0  0
    0.9405   -5.1830   -1.2939 H   0  0  0  0  0  0  0  0  0  0  0  0
    2.0947   -4.3490   -0.1650 H   0  0  0  0  0  0  0  0  0  0  0  0
  1  2  1  0
  2  3  2  0
  3  4  1  0
  4  5  2  0
  5  6  1  0
  6  7  2  0
  5  8  1  0
  8  9  2  0
  9 10  1  0
 10 11  2  0
 11 12  1  0
 12 13  1  0
 13 14  2  0
 14 15  1  0
 15 16  1  0
 15 17  1  0
 17 18  2  0
 18 19  1  0
 19 20  2  0
 20 21  1  0
 21 22  2  0
 11 23  1  0
  7  2  1  0
 13  8  1  0
 22 17  1  0
 16 12  2  0
  1 24  1  0
  1 25  1  0
  1 26  1  0
  3 27  1  0
  4 28  1  0
  6 29  1  0
  7 30  1  0
 14 31  1  0
 18 32  1  0
 19 33  1  0
 20 34  1  0
 21 35  1  0
 22 36  1  0
 23 37  1  0
 23 38  1  0
 23 39  1  0
M  END
>  <Ligand ID>  (1) 
LIG0003812

>  <Ligand>  (1) 
MLS-0437172.0001

>  <SMILES>  (1) 
Cc1ccc(cc1)c1nnc(c2c1cn(n2)c1ccccc1)C

>  <CID>  (1) 
45917985.0

>  <ChEMBL ID>  (1) 
nan

>  <InChiKey>  (1) 
LQOOUNTWEGUOHW-UHFFFAOYSA-N

>  <InChi>  (1) 
InChI=1S/C19H16N4/c1-13-8-10-15(11-9-13)19-17-12-23(16-6-4-3-5-7-16)22-18(17)14(2)20-21-19/h3-12H,1-2H3

>  <IUPAC Name>  (1) 
7-methyl-4-(4-methylphenyl)-2-phenylpyrazolo[3,4-d]pyridazine

$$$$
