
     RDKit          3D

 27 28  0  0  0  0  0  0  0  0999 V2000
   -2.5563    1.8399   -1.2266 O   0  0  0  0  0  0  0  0  0  0  0  0
   -2.2914    0.4455   -1.1798 C   0  0  0  0  0  0  0  0  0  0  0  0
   -2.9483   -0.3201   -2.0214 O   0  0  0  0  0  0  0  0  0  0  0  0
   -1.3204   -0.1409   -0.2077 C   0  0  2  0  0  0  0  0  0  0  0  0
   -1.4694   -1.5444   -0.1576 N   0  0  0  0  0  0  0  0  0  0  0  0
   -1.5248    0.4982    1.1387 C   0  0  0  0  0  0  0  0  0  0  0  0
   -0.1657    0.2140    1.8081 C   0  0  0  0  0  0  0  0  0  0  0  0
    0.7407    0.6681    0.7149 C   0  0  2  0  0  0  0  0  0  0  0  0
    0.0587    0.3103   -0.6222 C   0  0  1  0  0  0  0  0  0  0  0  0
    1.3097   -0.2937   -0.3148 C   0  0  2  0  0  0  0  0  0  0  0  0
    1.6386   -1.6615    0.2359 C   0  0  0  0  0  0  0  0  0  0  0  0
    2.4882    0.3040   -0.9712 C   0  0  0  0  0  0  0  0  0  0  0  0
    2.3113    0.4702   -2.2786 O   0  0  0  0  0  0  0  0  0  0  0  0
    3.6655    0.6954   -0.3757 O   0  0  0  0  0  0  0  0  0  0  0  0
   -2.6532    2.2484   -2.1798 H   0  0  0  0  0  0  0  0  0  0  0  0
   -1.4062   -1.8991    0.8255 H   0  0  0  0  0  0  0  0  0  0  0  0
   -2.3529   -1.9055   -0.5294 H   0  0  0  0  0  0  0  0  0  0  0  0
   -1.5495    1.6051    1.0284 H   0  0  0  0  0  0  0  0  0  0  0  0
   -2.3771    0.0713    1.7167 H   0  0  0  0  0  0  0  0  0  0  0  0
   -0.0902    0.8831    2.6993 H   0  0  0  0  0  0  0  0  0  0  0  0
   -0.0603   -0.8100    2.1467 H   0  0  0  0  0  0  0  0  0  0  0  0
    1.1712    1.6571    0.8404 H   0  0  0  0  0  0  0  0  0  0  0  0
    0.0315    1.2004   -1.3269 H   0  0  0  0  0  0  0  0  0  0  0  0
    1.1144   -1.9615    1.1373 H   0  0  0  0  0  0  0  0  0  0  0  0
    2.7117   -1.7932    0.4009 H   0  0  0  0  0  0  0  0  0  0  0  0
    1.4071   -2.3729   -0.6180 H   0  0  0  0  0  0  0  0  0  0  0  0
    4.1171    1.5917   -0.6827 H   0  0  0  0  0  0  0  0  0  0  0  0
  1  2  1  0
  2  3  2  0
  2  4  1  0
  4  5  1  1
  4  6  1  0
  6  7  1  0
  7  8  1  0
  8  9  1  0
  9 10  1  0
 10 11  1  1
 10 12  1  0
 12 13  2  0
 12 14  1  0
  9  4  1  0
 10  8  1  0
  1 15  1  0
  5 16  1  0
  5 17  1  0
  6 18  1  0
  6 19  1  0
  7 20  1  0
  7 21  1  0
  8 22  1  6
  9 23  1  6
 11 24  1  0
 11 25  1  0
 11 26  1  0
 14 27  1  0
M  END
>  <Ligand ID>  (1) 
LIG0005136

>  <Ligand>  (1) 
CHEMBL356502

>  <SMILES>  (1) 
OC(=O)[C@]1(N)CC[C@@H]2[C@H]1[C@@]2(C)C(=O)O

>  <CID>  (1) 
10655601.0

>  <ChEMBL ID>  (1) 
nan

>  <InChiKey>  (1) 
WXRKAQKFVNVVIZ-QLKUOXBQSA-N

>  <InChi>  (1) 
InChI=1S/C9H13NO4/c1-8(6(11)12)4-2-3-9(10,5(4)8)7(13)14/h4-5H,2-3,10H2,1H3,(H,11,12)(H,13,14)/t4-,5+,8+,9+/m1/s1

>  <IUPAC Name>  (1) 
(1S,2S,5R,6S)-2-amino-6-methylbicyclo[3.1.0]hexane-2,6-dicarboxylic acid

$$$$
