
     RDKit          3D

 67 70  0  0  0  0  0  0  0  0999 V2000
   10.3993   -1.1405    1.6987 C   0  0  0  0  0  0  0  0  0  0  0  0
    9.0303   -1.4770    1.8334 O   0  0  0  0  0  0  0  0  0  0  0  0
    8.0799   -1.1145    0.9042 C   0  0  0  0  0  0  0  0  0  0  0  0
    8.3511   -0.3968   -0.2403 C   0  0  0  0  0  0  0  0  0  0  0  0
    7.3263   -0.0865   -1.1034 C   0  0  0  0  0  0  0  0  0  0  0  0
    6.0145   -0.4537   -0.8965 C   0  0  0  0  0  0  0  0  0  0  0  0
    5.7657   -1.1801    0.2702 C   0  0  0  0  0  0  0  0  0  0  0  0
    6.7728   -1.5047    1.1521 C   0  0  0  0  0  0  0  0  0  0  0  0
    4.9304   -0.1108   -1.8368 C   0  0  0  0  0  0  0  0  0  0  0  0
    4.3224    1.2272   -1.4754 C   0  0  0  0  0  0  0  0  0  0  0  0
    3.7928    1.1557   -0.1482 N   0  0  0  0  0  0  0  0  0  0  0  0
    3.1798    2.3895    0.2941 C   0  0  0  0  0  0  0  0  0  0  0  0
    1.9171    2.7364   -0.4336 C   0  0  0  0  0  0  0  0  0  0  0  0
    0.9092    1.6272   -0.1373 C   0  0  0  0  0  0  0  0  0  0  0  0
   -0.3058    2.0432   -0.7339 O   0  0  0  0  0  0  0  0  0  0  0  0
   -1.4105    1.2301   -0.6289 C   0  0  0  0  0  0  0  0  0  0  0  0
   -2.5871    1.6373   -1.2056 C   0  0  0  0  0  0  0  0  0  0  0  0
   -3.7570    0.9014   -1.1616 C   0  0  0  0  0  0  0  0  0  0  0  0
   -3.7242   -0.3031   -0.4999 C   0  0  0  0  0  0  0  0  0  0  0  0
   -2.5537   -0.7353    0.0881 C   0  0  0  0  0  0  0  0  0  0  0  0
   -1.4001    0.0129    0.0327 C   0  0  0  0  0  0  0  0  0  0  0  0
   -2.6025   -2.0517    0.7834 C   0  0  0  0  0  0  0  0  0  0  0  0
   -3.9255   -2.2662    1.4758 C   0  0  0  0  0  0  0  0  0  0  0  0
   -5.1136   -2.0836    0.5990 C   0  0  0  0  0  0  0  0  0  0  0  0
   -4.9205   -1.0686   -0.4433 N   0  0  0  0  0  0  0  0  0  0  0  0
   -6.0145   -0.9114   -1.3810 C   0  0  0  0  0  0  0  0  0  0  0  0
   -7.2699   -0.5000   -0.6709 C   0  0  0  0  0  0  0  0  0  0  0  0
   -8.1703   -1.4234   -0.1760 C   0  0  0  0  0  0  0  0  0  0  0  0
   -9.3343   -1.0420    0.4838 C   0  0  0  0  0  0  0  0  0  0  0  0
   -9.5880    0.3214    0.6437 C   0  0  0  0  0  0  0  0  0  0  0  0
   -8.7083    1.2723    0.1608 C   0  0  0  0  0  0  0  0  0  0  0  0
   -7.5541    0.8500   -0.4939 C   0  0  0  0  0  0  0  0  0  0  0  0
    1.4573    3.9517    0.1179 O   0  0  0  0  0  0  0  0  0  0  0  0
   10.8693   -1.6028    0.8288 H   0  0  0  0  0  0  0  0  0  0  0  0
   10.9285   -1.4684    2.6220 H   0  0  0  0  0  0  0  0  0  0  0  0
   10.4340   -0.0224    1.5629 H   0  0  0  0  0  0  0  0  0  0  0  0
    9.3857   -0.1075   -0.4030 H   0  0  0  0  0  0  0  0  0  0  0  0
    7.5758    0.4828   -2.0000 H   0  0  0  0  0  0  0  0  0  0  0  0
    4.7290   -1.4613    0.4185 H   0  0  0  0  0  0  0  0  0  0  0  0
    6.4908   -2.0719    2.0342 H   0  0  0  0  0  0  0  0  0  0  0  0
    5.3042   -0.0333   -2.8896 H   0  0  0  0  0  0  0  0  0  0  0  0
    4.0995   -0.8733   -1.8020 H   0  0  0  0  0  0  0  0  0  0  0  0
    3.5163    1.4024   -2.2187 H   0  0  0  0  0  0  0  0  0  0  0  0
    5.1469    1.9733   -1.5919 H   0  0  0  0  0  0  0  0  0  0  0  0
    4.5844    0.9579    0.5069 H   0  0  0  0  0  0  0  0  0  0  0  0
    2.9189    2.2826    1.3663 H   0  0  0  0  0  0  0  0  0  0  0  0
    3.8997    3.2418    0.2088 H   0  0  0  0  0  0  0  0  0  0  0  0
    2.0076    2.8861   -1.5073 H   0  0  0  0  0  0  0  0  0  0  0  0
    0.7256    1.5206    0.9370 H   0  0  0  0  0  0  0  0  0  0  0  0
    1.2194    0.6741   -0.5844 H   0  0  0  0  0  0  0  0  0  0  0  0
   -2.6151    2.5974   -1.7340 H   0  0  0  0  0  0  0  0  0  0  0  0
   -4.6706    1.2447   -1.6230 H   0  0  0  0  0  0  0  0  0  0  0  0
   -0.4744   -0.3371    0.5024 H   0  0  0  0  0  0  0  0  0  0  0  0
   -2.3960   -2.8410    0.0338 H   0  0  0  0  0  0  0  0  0  0  0  0
   -1.8094   -2.0909    1.5465 H   0  0  0  0  0  0  0  0  0  0  0  0
   -3.9784   -1.6722    2.4095 H   0  0  0  0  0  0  0  0  0  0  0  0
   -3.9332   -3.3319    1.8117 H   0  0  0  0  0  0  0  0  0  0  0  0
   -5.9547   -1.7079    1.2288 H   0  0  0  0  0  0  0  0  0  0  0  0
   -5.4770   -3.0415    0.1531 H   0  0  0  0  0  0  0  0  0  0  0  0
   -5.7896   -0.3174   -2.2635 H   0  0  0  0  0  0  0  0  0  0  0  0
   -6.2634   -1.9380   -1.7873 H   0  0  0  0  0  0  0  0  0  0  0  0
   -7.9551   -2.4862   -0.3105 H   0  0  0  0  0  0  0  0  0  0  0  0
   -9.9795   -1.8102    0.8372 H   0  0  0  0  0  0  0  0  0  0  0  0
  -10.5041    0.6197    1.1633 H   0  0  0  0  0  0  0  0  0  0  0  0
   -8.8958    2.3452    0.2797 H   0  0  0  0  0  0  0  0  0  0  0  0
   -6.9026    1.6347   -0.8504 H   0  0  0  0  0  0  0  0  0  0  0  0
    0.4543    3.8457    0.1785 H   0  0  0  0  0  0  0  0  0  0  0  0
  1  2  1  0
  2  3  1  0
  3  4  2  0
  4  5  1  0
  5  6  2  0
  6  7  1  0
  7  8  2  0
  6  9  1  0
  9 10  1  0
 10 11  1  0
 11 12  1  0
 12 13  1  0
 13 14  1  0
 14 15  1  0
 15 16  1  0
 16 17  2  0
 17 18  1  0
 18 19  2  0
 19 20  1  0
 20 21  2  0
 20 22  1  0
 22 23  1  0
 23 24  1  0
 24 25  1  0
 25 26  1  0
 26 27  1  0
 27 28  2  0
 28 29  1  0
 29 30  2  0
 30 31  1  0
 31 32  2  0
 13 33  1  0
  8  3  1  0
 21 16  1  0
 32 27  1  0
 25 19  1  0
  1 34  1  0
  1 35  1  0
  1 36  1  0
  4 37  1  0
  5 38  1  0
  7 39  1  0
  8 40  1  0
  9 41  1  0
  9 42  1  0
 10 43  1  0
 10 44  1  0
 11 45  1  0
 12 46  1  0
 12 47  1  0
 13 48  1  0
 14 49  1  0
 14 50  1  0
 17 51  1  0
 18 52  1  0
 21 53  1  0
 22 54  1  0
 22 55  1  0
 23 56  1  0
 23 57  1  0
 24 58  1  0
 24 59  1  0
 26 60  1  0
 26 61  1  0
 28 62  1  0
 29 63  1  0
 30 64  1  0
 31 65  1  0
 32 66  1  0
 33 67  1  0
M  END
>  <Ligand ID>  (1) 
LIG0004814

>  <Ligand>  (1) 
CHEMBL530556

>  <SMILES>  (1) 
COc1ccc(cc1)CCNCC(COc1ccc2c(c1)CCCN2Cc1ccccc1)O

>  <CID>  (1) 
44589400.0

>  <ChEMBL ID>  (1) 
nan

>  <InChiKey>  (1) 
PGFSLUFAZXXCPT-UHFFFAOYSA-N

>  <InChi>  (1) 
InChI=1S/C28H34N2O3/c1-32-26-11-9-22(10-12-26)15-16-29-19-25(31)21-33-27-13-14-28-24(18-27)8-5-17-30(28)20-23-6-3-2-4-7-23/h2-4,6-7,9-14,18,25,29,31H,5,8,15-17,19-21H2,1H3

>  <IUPAC Name>  (1) 
1-[(1-benzyl-3,4-dihydro-2H-quinolin-6-yl)oxy]-3-[2-(4-methoxyphenyl)ethylamino]propan-2-ol

$$$$
