
     RDKit          3D

 66 68  0  0  0  0  0  0  0  0999 V2000
    4.7013    2.3017    3.6850 O   0  0  0  0  0  0  0  0  0  0  0  0
    3.9882    2.4688    2.5066 C   0  0  0  0  0  0  0  0  0  0  0  0
    4.4132    1.3777    1.5421 C   0  0  1  0  0  0  0  0  0  0  0  0
    3.6834    1.5668    0.3663 O   0  0  0  0  0  0  0  0  0  0  0  0
    3.7877    0.3644   -0.3312 C   0  0  2  0  0  0  0  0  0  0  0  0
    3.1725   -0.5952    0.4649 O   0  0  0  0  0  0  0  0  0  0  0  0
    1.7512   -1.1949   -0.1811 P   0  0  0  0  0  0  0  0  0  0  0  0
    1.7179   -0.8694   -1.6456 O   0  0  0  0  0  0  0  0  0  0  0  0
    0.3659   -0.6720    0.6181 O   0  0  0  0  0  0  0  0  0  0  0  0
   -0.1848    0.8102    0.0839 P   0  0  0  0  0  0  0  0  0  0  0  0
    0.1913    1.9459    1.0221 O   0  0  0  0  0  0  0  0  0  0  0  0
   -1.8792    0.8433   -0.1279 O   0  0  0  0  0  0  0  0  0  0  0  0
   -2.2547    0.0657   -1.1934 C   0  0  0  0  0  0  0  0  0  0  0  0
   -3.7465    0.0584   -1.4277 C   0  0  1  0  0  0  0  0  0  0  0  0
   -4.4483   -0.4294   -0.3257 O   0  0  0  0  0  0  0  0  0  0  0  0
   -5.7597   -0.2377   -0.7592 C   0  0  2  0  0  0  0  0  0  0  0  0
   -5.7679    1.2038   -1.1768 C   0  0  1  0  0  0  0  0  0  0  0  0
   -4.3164    1.4251   -1.6105 C   0  0  2  0  0  0  0  0  0  0  0  0
   -4.3158    1.7600   -2.9487 O   0  0  0  0  0  0  0  0  0  0  0  0
   -6.6407    1.3826   -2.2489 O   0  0  0  0  0  0  0  0  0  0  0  0
   -6.7581   -0.6053    0.1899 N   0  0  0  0  0  0  0  0  0  0  0  0
   -7.8074   -1.3606   -0.2408 C   0  0  0  0  0  0  0  0  0  0  0  0
   -8.8182   -1.7618    0.6076 C   0  0  0  0  0  0  0  0  0  0  0  0
   -8.7093   -1.3527    1.9326 C   0  0  0  0  0  0  0  0  0  0  0  0
   -9.6134   -1.6966    2.7494 O   0  0  0  0  0  0  0  0  0  0  0  0
   -7.6529   -0.6010    2.3324 N   0  0  0  0  0  0  0  0  0  0  0  0
   -6.6785   -0.2257    1.4701 C   0  0  0  0  0  0  0  0  0  0  0  0
   -5.7267    0.4717    1.9083 O   0  0  0  0  0  0  0  0  0  0  0  0
    0.4760    1.1529   -1.4438 O   0  0  0  0  0  0  0  0  0  0  0  0
    1.8373   -2.8982   -0.0408 O   0  0  0  0  0  0  0  0  0  0  0  0
    5.1934    0.0163   -0.6911 C   0  0  1  0  0  0  0  0  0  0  0  0
    6.2346    0.9278   -0.1253 C   0  0  2  0  0  0  0  0  0  0  0  0
    5.8658    1.5404    1.1957 C   0  0  2  0  0  0  0  0  0  0  0  0
    6.6703    0.9436    2.1786 O   0  0  0  0  0  0  0  0  0  0  0  0
    6.5462    1.9819   -0.9881 O   0  0  0  0  0  0  0  0  0  0  0  0
    5.4278   -1.3821   -0.3975 N   0  0  0  0  0  0  0  0  0  0  0  0
    5.6997   -2.3264   -1.4359 C   0  0  0  0  0  0  0  0  0  0  0  0
    5.7454   -1.9789   -2.6401 O   0  0  0  0  0  0  0  0  0  0  0  0
    5.9417   -3.7748   -1.1214 C   0  0  0  0  0  0  0  0  0  0  0  0
    4.9252    1.3552    3.8432 H   0  0  0  0  0  0  0  0  0  0  0  0
    4.2504    3.4484    2.0293 H   0  0  0  0  0  0  0  0  0  0  0  0
    2.8865    2.3708    2.6329 H   0  0  0  0  0  0  0  0  0  0  0  0
    4.1813    0.4131    2.0186 H   0  0  0  0  0  0  0  0  0  0  0  0
    3.1334    0.4744   -1.2218 H   0  0  0  0  0  0  0  0  0  0  0  0
   -1.7983    0.5202   -2.1039 H   0  0  0  0  0  0  0  0  0  0  0  0
   -1.8827   -0.9715   -1.1612 H   0  0  0  0  0  0  0  0  0  0  0  0
   -4.0113   -0.5785   -2.2710 H   0  0  0  0  0  0  0  0  0  0  0  0
   -5.8518   -0.8350   -1.6996 H   0  0  0  0  0  0  0  0  0  0  0  0
   -6.0333    1.9201   -0.4010 H   0  0  0  0  0  0  0  0  0  0  0  0
   -3.8625    2.1862   -0.9532 H   0  0  0  0  0  0  0  0  0  0  0  0
   -3.4378    2.1767   -3.1527 H   0  0  0  0  0  0  0  0  0  0  0  0
   -6.4859    0.6627   -2.9252 H   0  0  0  0  0  0  0  0  0  0  0  0
   -7.8513   -1.6566   -1.2823 H   0  0  0  0  0  0  0  0  0  0  0  0
   -9.6345   -2.3562    0.2463 H   0  0  0  0  0  0  0  0  0  0  0  0
   -7.6222   -0.3224    3.3381 H   0  0  0  0  0  0  0  0  0  0  0  0
   -0.0797    1.8699   -1.8324 H   0  0  0  0  0  0  0  0  0  0  0  0
    1.4469   -3.3363   -0.8146 H   0  0  0  0  0  0  0  0  0  0  0  0
    5.2801    0.0980   -1.8015 H   0  0  0  0  0  0  0  0  0  0  0  0
    7.1777    0.3431   -0.0528 H   0  0  0  0  0  0  0  0  0  0  0  0
    6.0882    2.6303    1.2447 H   0  0  0  0  0  0  0  0  0  0  0  0
    7.5438    0.7707    1.7413 H   0  0  0  0  0  0  0  0  0  0  0  0
    5.7300    2.2558   -1.4806 H   0  0  0  0  0  0  0  0  0  0  0  0
    5.3968   -1.7125    0.6133 H   0  0  0  0  0  0  0  0  0  0  0  0
    5.3687   -4.4412   -1.7762 H   0  0  0  0  0  0  0  0  0  0  0  0
    5.7989   -3.9649   -0.0460 H   0  0  0  0  0  0  0  0  0  0  0  0
    7.0111   -3.9670   -1.3335 H   0  0  0  0  0  0  0  0  0  0  0  0
  1  2  1  0
  2  3  1  0
  3  4  1  0
  4  5  1  0
  5  6  1  0
  6  7  1  0
  7  8  2  0
  7  9  1  0
  9 10  1  0
 10 11  2  0
 10 12  1  0
 12 13  1  0
 13 14  1  0
 14 15  1  0
 15 16  1  0
 16 17  1  0
 17 18  1  0
 18 19  1  0
 17 20  1  0
 16 21  1  0
 21 22  1  0
 22 23  2  0
 23 24  1  0
 24 25  2  0
 24 26  1  0
 26 27  1  0
 27 28  2  0
 10 29  1  0
  7 30  1  0
  5 31  1  0
 31 32  1  0
 32 33  1  0
 33 34  1  0
 32 35  1  0
 31 36  1  0
 36 37  1  0
 37 38  2  0
 37 39  1  0
 33  3  1  0
 18 14  1  0
 27 21  1  0
  1 40  1  0
  2 41  1  0
  2 42  1  0
  3 43  1  1
  5 44  1  6
 13 45  1  0
 13 46  1  0
 14 47  1  6
 16 48  1  6
 17 49  1  1
 18 50  1  1
 19 51  1  0
 20 52  1  0
 22 53  1  0
 23 54  1  0
 26 55  1  0
 29 56  1  0
 30 57  1  0
 31 58  1  6
 32 59  1  1
 33 60  1  6
 34 61  1  0
 35 62  1  0
 36 63  1  0
 39 64  1  0
 39 65  1  0
 39 66  1  0
M  END
>  <Ligand ID>  (1) 
LIG0003313

>  <Ligand>  (1) 
UDP N-acetyl-glucosamine

>  <SMILES>  (1) 
OC[C@H]1O[C@H](OP(=O)(OP(=O)(OC[C@H]2O[C@H]([C@@H]([C@@H]2O)O)n2ccc(=O)[nH]c2=O)O)O)[C@@H]([C@H]([C@@H]1O)O)NC(=O)C

>  <CID>  (1) 
445675.0

>  <ChEMBL ID>  (1) 
nan

>  <InChiKey>  (1) 
LFTYTUAZOPRMMI-CFRASDGPSA-N

>  <InChi>  (1) 
InChI=1S/C17H27N3O17P2/c1-6(22)18-10-13(26)11(24)7(4-21)35-16(10)36-39(31,32)37-38(29,30)33-5-8-12(25)14(27)15(34-8)20-3-2-9(23)19-17(20)28/h2-3,7-8,10-16,21,24-27H,4-5H2,1H3,(H,18,22)(H,29,30)(H,31,32)(H,19,23,28)/t7-,8-,10-,11-,12-,13-,14-,15-,16-/m1/s1

>  <IUPAC Name>  (1) 
[(2R,3R,4R,5S,6R)-3-acetamido-4,5-dihydroxy-6-(hydroxymethyl)oxan-2-yl] [[(2R,3S,4R,5R)-5-(2,4-dioxopyrimidin-1-yl)-3,4-dihydroxyoxolan-2-yl]methoxy-hydroxyphosphoryl] hydrogen phosphate

$$$$
