
     RDKit          3D

 23 23  0  0  0  0  0  0  0  0999 V2000
   -1.6127   -0.1096    1.6402 O   0  0  0  0  0  0  0  0  0  0  0  0
   -2.1228    0.0694    0.3472 C   0  0  0  0  0  0  0  0  0  0  0  0
   -3.3304    0.4810    0.2730 O   0  0  0  0  0  0  0  0  0  0  0  0
   -1.3211   -0.1990   -0.8707 C   0  0  2  0  0  0  0  0  0  0  0  0
   -0.0836    0.6337   -0.9529 C   0  0  0  0  0  0  0  0  0  0  0  0
    0.8699    0.4610    0.1556 C   0  0  0  0  0  0  0  0  0  0  0  0
    1.7742   -0.5450    0.4075 C   0  0  0  0  0  0  0  0  0  0  0  0
    2.0153   -1.7468   -0.4241 C   0  0  0  0  0  0  0  0  0  0  0  0
    2.4253   -0.2867    1.5334 O   0  0  0  0  0  0  0  0  0  0  0  0
    1.9889    0.8515    2.0388 N   0  0  0  0  0  0  0  0  0  0  0  0
    1.0227    1.3498    1.2153 C   0  0  0  0  0  0  0  0  0  0  0  0
    0.4105    2.4310    1.4286 O   0  0  0  0  0  0  0  0  0  0  0  0
   -2.1888    0.0949   -2.0242 N   0  0  0  0  0  0  0  0  0  0  0  0
   -2.1895   -0.5339    2.3739 H   0  0  0  0  0  0  0  0  0  0  0  0
   -1.0999   -1.2695   -0.9521 H   0  0  0  0  0  0  0  0  0  0  0  0
   -0.4086    1.7087   -1.0388 H   0  0  0  0  0  0  0  0  0  0  0  0
    0.3985    0.4300   -1.9511 H   0  0  0  0  0  0  0  0  0  0  0  0
    1.1277   -2.0946   -0.9629 H   0  0  0  0  0  0  0  0  0  0  0  0
    2.5003   -2.5520    0.1765 H   0  0  0  0  0  0  0  0  0  0  0  0
    2.7703   -1.4722   -1.2180 H   0  0  0  0  0  0  0  0  0  0  0  0
    2.3148    1.3200    2.9275 H   0  0  0  0  0  0  0  0  0  0  0  0
   -3.1944   -0.1174   -1.8159 H   0  0  0  0  0  0  0  0  0  0  0  0
   -2.0668    1.0958   -2.3065 H   0  0  0  0  0  0  0  0  0  0  0  0
  1  2  1  0
  2  3  2  0
  2  4  1  0
  4  5  1  0
  5  6  1  0
  6  7  2  0
  7  8  1  0
  7  9  1  0
  9 10  1  0
 10 11  1  0
 11 12  2  0
  4 13  1  0
 11  6  1  0
  1 14  1  0
  4 15  1  6
  5 16  1  0
  5 17  1  0
  8 18  1  0
  8 19  1  0
  8 20  1  0
 10 21  1  0
 13 22  1  0
 13 23  1  0
M  END
>  <Ligand ID>  (1) 
LIG0001673

>  <Ligand>  (1) 
(S)-AMPA

>  <SMILES>  (1) 
OC(=O)[C@H](Cc1c(C)o[nH]c1=O)N

>  <CID>  (1) 
158397.0

>  <ChEMBL ID>  (1) 
nan

>  <InChiKey>  (1) 
UUDAMDVQRQNNHZ-YFKPBYRVSA-N

>  <InChi>  (1) 
InChI=1S/C7H10N2O4/c1-3-4(6(10)9-13-3)2-5(8)7(11)12/h5H,2,8H2,1H3,(H,9,10)(H,11,12)/t5-/m0/s1

>  <IUPAC Name>  (1) 
(2S)-2-amino-3-(5-methyl-3-oxo-1,2-oxazol-4-yl)propanoic acid

$$$$
