
     RDKit          3D

 80 80  0  0  0  0  0  0  0  0999 V2000
   -1.0065   -0.0621    0.0261 C   0  0  0  0  0  0  0  0  0  0  0  0
    0.4554    0.2728   -0.0928 C   0  0  0  0  0  0  0  0  0  0  0  0
    0.7974    1.4727    0.0068 O   0  0  0  0  0  0  0  0  0  0  0  0
    1.4158   -0.7045   -0.3068 O   0  0  0  0  0  0  0  0  0  0  0  0
  -10.2526    0.7302    0.9414 O   0  0  0  0  0  0  0  0  0  0  0  0
   -9.3113    1.2005    0.0338 C   0  0  0  0  0  0  0  0  0  0  0  0
   -8.0127    1.3247    0.7421 C   0  0  0  0  0  0  0  0  0  0  0  0
   -7.0416    0.3701    0.5180 C   0  0  0  0  0  0  0  0  0  0  0  0
   -5.8035    0.4194    1.1464 C   0  0  0  0  0  0  0  0  0  0  0  0
   -5.4976    1.4305    2.0225 C   0  0  0  0  0  0  0  0  0  0  0  0
   -6.4749    2.3965    2.2518 C   0  0  0  0  0  0  0  0  0  0  0  0
   -7.7149    2.3349    1.6138 C   0  0  0  0  0  0  0  0  0  0  0  0
   -8.6527    3.3150    1.8728 O   0  0  0  0  0  0  0  0  0  0  0  0
   -4.8603   -0.6875    0.8055 C   0  0  2  0  0  0  0  0  0  0  0  0
   -4.3436   -0.4845   -0.5813 C   0  0  0  0  0  0  0  0  0  0  0  0
   -3.4718   -1.6013   -0.9192 N   0  0  0  0  0  0  0  0  0  0  0  0
   -2.2492   -1.5447   -0.1128 C   0  0  0  0  0  0  0  0  0  0  0  0
   -1.4450   -2.7887   -0.4765 C   0  0  0  0  0  0  0  0  0  0  0  0
   -1.0282   -2.8203   -1.9000 C   0  0  0  0  0  0  0  0  0  0  0  0
   -0.0494   -1.7475   -2.2364 C   0  0  0  0  0  0  0  0  0  0  0  0
    1.2560   -1.9341   -1.5632 C   0  0  0  0  0  0  0  0  0  0  0  0
    1.4165   -1.9085   -0.2402 O   0  0  0  0  0  0  0  0  0  0  0  0
    1.2825   -0.7728    0.4811 C   0  0  0  0  0  0  0  0  0  0  0  0
    2.2795    0.3270    0.1604 C   0  0  0  0  0  0  0  0  0  0  0  0
    3.6976   -0.0192    0.4398 C   0  0  0  0  0  0  0  0  0  0  0  0
    4.2714   -1.1879   -0.2740 C   0  0  0  0  0  0  0  0  0  0  0  0
    5.7383   -1.4195    0.1344 C   0  0  0  0  0  0  0  0  0  0  0  0
    6.5126   -0.2089   -0.2252 C   0  0  0  0  0  0  0  0  0  0  0  0
    7.0703   -0.1960   -1.5052 C   0  0  0  0  0  0  0  0  0  0  0  0
    7.8178    0.8683   -1.9671 C   0  0  0  0  0  0  0  0  0  0  0  0
    7.9963    1.9444   -1.0936 C   0  0  0  0  0  0  0  0  0  0  0  0
    7.4555    1.9555    0.1757 C   0  0  0  0  0  0  0  0  0  0  0  0
    6.7032    0.8635    0.6158 C   0  0  0  0  0  0  0  0  0  0  0  0
    7.6755    3.3018    1.2722 S   0  0  0  0  0  0  0  0  0  0  0  0
    6.4986    3.3486    2.1907 O   0  0  0  0  0  0  0  0  0  0  0  0
    7.8055    4.5565    0.4577 O   0  0  0  0  0  0  0  0  0  0  0  0
    9.0949    3.0571    2.2202 N   0  0  0  0  0  0  0  0  0  0  0  0
   -5.5542   -1.9141    0.8136 O   0  0  0  0  0  0  0  0  0  0  0  0
   -1.2820    0.2301    1.0514 H   0  0  0  0  0  0  0  0  0  0  0  0
   -1.5232    0.5362   -0.7485 H   0  0  0  0  0  0  0  0  0  0  0  0
   -1.1865   -1.1330   -0.0990 H   0  0  0  0  0  0  0  0  0  0  0  0
    2.3295   -0.6123    0.1627 H   0  0  0  0  0  0  0  0  0  0  0  0
  -11.1471    0.9107    0.6109 H   0  0  0  0  0  0  0  0  0  0  0  0
   -9.5902    2.1866   -0.3524 H   0  0  0  0  0  0  0  0  0  0  0  0
   -9.2106    0.4863   -0.8156 H   0  0  0  0  0  0  0  0  0  0  0  0
   -7.2795   -0.4426   -0.1831 H   0  0  0  0  0  0  0  0  0  0  0  0
   -4.5296    1.4520    2.5002 H   0  0  0  0  0  0  0  0  0  0  0  0
   -6.2702    3.2128    2.9385 H   0  0  0  0  0  0  0  0  0  0  0  0
   -9.3550    3.5108    1.1734 H   0  0  0  0  0  0  0  0  0  0  0  0
   -4.1220   -0.7137    1.6021 H   0  0  0  0  0  0  0  0  0  0  0  0
   -5.2192   -0.5710   -1.2689 H   0  0  0  0  0  0  0  0  0  0  0  0
   -3.7911    0.4539   -0.7204 H   0  0  0  0  0  0  0  0  0  0  0  0
   -3.1862   -1.4144   -1.9120 H   0  0  0  0  0  0  0  0  0  0  0  0
   -2.4539   -1.6159    0.9630 H   0  0  0  0  0  0  0  0  0  0  0  0
   -1.7182   -0.6000   -0.3177 H   0  0  0  0  0  0  0  0  0  0  0  0
   -2.1728   -3.6338   -0.3351 H   0  0  0  0  0  0  0  0  0  0  0  0
   -0.5968   -2.9545    0.2213 H   0  0  0  0  0  0  0  0  0  0  0  0
   -0.5748   -3.8495   -2.0691 H   0  0  0  0  0  0  0  0  0  0  0  0
   -1.9335   -2.7970   -2.5566 H   0  0  0  0  0  0  0  0  0  0  0  0
   -0.4678   -0.7296   -2.0915 H   0  0  0  0  0  0  0  0  0  0  0  0
    0.1570   -1.7908   -3.3484 H   0  0  0  0  0  0  0  0  0  0  0  0
    1.6626   -2.9530   -1.9140 H   0  0  0  0  0  0  0  0  0  0  0  0
    2.0124   -1.2441   -2.0729 H   0  0  0  0  0  0  0  0  0  0  0  0
    1.5784   -1.0693    1.5543 H   0  0  0  0  0  0  0  0  0  0  0  0
    0.2751   -0.3648    0.6234 H   0  0  0  0  0  0  0  0  0  0  0  0
    2.1850    0.6878   -0.8797 H   0  0  0  0  0  0  0  0  0  0  0  0
    2.0166    1.1844    0.8228 H   0  0  0  0  0  0  0  0  0  0  0  0
    3.8397   -0.1493    1.5564 H   0  0  0  0  0  0  0  0  0  0  0  0
    4.2881    0.9257    0.2387 H   0  0  0  0  0  0  0  0  0  0  0  0
    4.2413   -0.9494   -1.3756 H   0  0  0  0  0  0  0  0  0  0  0  0
    3.7388   -2.1244   -0.1337 H   0  0  0  0  0  0  0  0  0  0  0  0
    5.7576   -1.6663    1.2092 H   0  0  0  0  0  0  0  0  0  0  0  0
    6.1052   -2.3223   -0.3981 H   0  0  0  0  0  0  0  0  0  0  0  0
    6.9387   -1.0238   -2.1888 H   0  0  0  0  0  0  0  0  0  0  0  0
    8.2618    0.9043   -2.9538 H   0  0  0  0  0  0  0  0  0  0  0  0
    8.5696    2.8006   -1.4018 H   0  0  0  0  0  0  0  0  0  0  0  0
    6.2619    0.8390    1.6097 H   0  0  0  0  0  0  0  0  0  0  0  0
    8.9011    2.1943    2.8055 H   0  0  0  0  0  0  0  0  0  0  0  0
    9.9251    2.7922    1.6439 H   0  0  0  0  0  0  0  0  0  0  0  0
   -5.9057   -2.0707   -0.0912 H   0  0  0  0  0  0  0  0  0  0  0  0
  1  2  1  0
  2  3  2  0
  2  4  1  0
  5  6  1  0
  6  7  1  0
  7  8  2  0
  8  9  1  0
  9 10  2  0
 10 11  1  0
 11 12  2  0
 12 13  1  0
  9 14  1  0
 14 15  1  0
 15 16  1  0
 16 17  1  0
 17 18  1  0
 18 19  1  0
 19 20  1  0
 20 21  1  0
 21 22  1  0
 22 23  1  0
 23 24  1  0
 24 25  1  0
 25 26  1  0
 26 27  1  0
 27 28  1  0
 28 29  2  0
 29 30  1  0
 30 31  2  0
 31 32  1  0
 32 33  2  0
 32 34  1  0
 34 35  2  0
 34 36  2  0
 34 37  1  0
 14 38  1  0
 12  7  1  0
 33 28  1  0
  1 39  1  0
  1 40  1  0
  1 41  1  0
  4 42  1  0
  5 43  1  0
  6 44  1  0
  6 45  1  0
  8 46  1  0
 10 47  1  0
 11 48  1  0
 13 49  1  0
 14 50  1  1
 15 51  1  0
 15 52  1  0
 16 53  1  0
 17 54  1  0
 17 55  1  0
 18 56  1  0
 18 57  1  0
 19 58  1  0
 19 59  1  0
 20 60  1  0
 20 61  1  0
 21 62  1  0
 21 63  1  0
 23 64  1  0
 23 65  1  0
 24 66  1  0
 24 67  1  0
 25 68  1  0
 25 69  1  0
 26 70  1  0
 26 71  1  0
 27 72  1  0
 27 73  1  0
 29 74  1  0
 30 75  1  0
 31 76  1  0
 33 77  1  0
 37 78  1  0
 37 79  1  0
 38 80  1  0
M  END
>  <Ligand ID>  (1) 
LIG0003342

>  <Ligand>  (1) 
CHEMBL483202

>  <SMILES>  (1) 
CC(=O)O.OCc1cc(ccc1O)[C@H](CNCCCCCOCCCCCc1cccc(c1)S(=O)(=O)N)O

>  <CID>  (1) 
42625740.0

>  <ChEMBL ID>  (1) 
nan

>  <InChiKey>  (1) 
JPNFPRCTENJMGY-UQIIZPHYSA-N

>  <InChi>  (1) 
InChI=1S/C25H38N2O6S.C2H4O2/c26-34(31,32)23-10-7-9-20(16-23)8-3-1-5-14-33-15-6-2-4-13-27-18-25(30)21-11-12-24(29)22(17-21)19-28;1-2(3)4/h7,9-12,16-17,25,27-30H,1-6,8,13-15,18-19H2,(H2,26,31,32);1H3,(H,3,4)/t25-;/m0./s1

>  <IUPAC Name>  (1) 
acetic acid;3-[5-[5-[[(2R)-2-hydroxy-2-[4-hydroxy-3-(hydroxymethyl)phenyl]ethyl]amino]pentoxy]pentyl]benzenesulfonamide

$$$$
