
     RDKit          3D

160166  0  0  0  0  0  0  0  0999 V2000
   11.7545   -1.7434    1.0108 C   0  0  0  0  0  0  0  0  0  0  0  0
   10.9282   -1.0270   -0.0152 C   0  0  0  0  0  0  0  0  0  0  0  0
    9.6215   -0.4663    0.5746 C   0  0  0  0  0  0  0  0  0  0  0  0
    8.7314   -1.5285    1.1234 C   0  0  0  0  0  0  0  0  0  0  0  0
    7.4513   -0.9615    1.7938 C   0  0  1  0  0  0  0  0  0  0  0  0
    6.6815   -0.1885    0.8312 C   0  0  0  0  0  0  0  0  0  0  0  0
    7.2716    0.8709    0.3680 O   0  0  0  0  0  0  0  0  0  0  0  0
    5.3983   -0.4121    0.3221 N   0  0  0  0  0  0  0  0  0  0  0  0
    4.9157    0.5275   -0.6830 C   0  0  1  0  0  0  0  0  0  0  0  0
    3.9968   -0.0630   -1.6801 C   0  0  0  0  0  0  0  0  0  0  0  0
    4.4777   -1.4041   -2.0896 C   0  0  0  0  0  0  0  0  0  0  0  0
    5.2538   -2.0962   -1.4081 O   0  0  0  0  0  0  0  0  0  0  0  0
    4.0803   -2.0303   -3.3287 N   0  0  0  0  0  0  0  0  0  0  0  0
    4.5342   -3.3914   -3.6607 C   0  0  0  0  0  0  0  0  0  0  0  0
    3.8547   -4.3464   -2.6426 C   0  0  0  0  0  0  0  0  0  0  0  0
    2.3784   -4.1812   -3.0063 C   0  0  0  0  0  0  0  0  0  0  0  0
    1.4248   -4.8731   -2.0881 C   0  0  0  0  0  0  0  0  0  0  0  0
    0.0325   -4.6490   -2.5986 C   0  0  2  0  0  0  0  0  0  0  0  0
   -0.9817   -5.0249   -1.5964 N   0  0  0  0  0  0  0  0  0  0  0  0
   -2.1307   -4.1858   -1.4645 C   0  0  0  0  0  0  0  0  0  0  0  0
   -2.1926   -3.2602   -2.2938 O   0  0  0  0  0  0  0  0  0  0  0  0
   -3.1916   -4.3345   -0.4730 C   0  0  1  0  0  0  0  0  0  0  0  0
   -4.2303   -3.3097   -0.6291 N   0  0  0  0  0  0  0  0  0  0  0  0
   -3.9319   -1.9606   -0.2782 C   0  0  0  0  0  0  0  0  0  0  0  0
   -2.7434   -1.7642    0.0417 O   0  0  0  0  0  0  0  0  0  0  0  0
   -4.8523   -0.8257   -0.2647 C   0  0  1  0  0  0  0  0  0  0  0  0
   -4.1469    0.4444   -0.1263 N   0  0  0  0  0  0  0  0  0  0  0  0
   -3.8425    1.3067   -1.2214 C   0  0  0  0  0  0  0  0  0  0  0  0
   -4.1772    0.9216   -2.3393 O   0  0  0  0  0  0  0  0  0  0  0  0
   -3.1552    2.6159   -1.0965 C   0  0  2  0  0  0  0  0  0  0  0  0
   -2.6568    2.8410    0.2421 N   0  0  0  0  0  0  0  0  0  0  0  0
   -1.3044    3.3260    0.3654 C   0  0  0  0  0  0  0  0  0  0  0  0
   -0.7507    3.6017   -0.7012 O   0  0  0  0  0  0  0  0  0  0  0  0
   -0.6395    3.4755    1.7108 C   0  0  1  0  0  0  0  0  0  0  0  0
    0.6975    4.0717    1.4890 N   0  0  0  0  0  0  0  0  0  0  0  0
    1.5985    3.3698    0.6528 C   0  0  0  0  0  0  0  0  0  0  0  0
    1.1783    2.2776    0.2395 O   0  0  0  0  0  0  0  0  0  0  0  0
    2.9481    3.8035    0.2465 C   0  0  1  0  0  0  0  0  0  0  0  0
    3.5869    2.7421   -0.5650 N   0  0  0  0  0  0  0  0  0  0  0  0
    4.2271    1.6695    0.0584 C   0  0  0  0  0  0  0  0  0  0  0  0
    4.2228    1.6659    1.2959 O   0  0  0  0  0  0  0  0  0  0  0  0
    3.3680    3.0945   -1.9077 C   0  0  0  0  0  0  0  0  0  0  0  0
    2.9701    4.5414   -2.0110 C   0  0  0  0  0  0  0  0  0  0  0  0
    3.0102    5.0295   -0.6013 C   0  0  0  0  0  0  0  0  0  0  0  0
    0.8668    5.2836    2.2091 C   0  0  0  0  0  0  0  0  0  0  0  0
   -0.5730    5.8417    2.1152 C   0  0  0  0  0  0  0  0  0  0  0  0
   -1.3509    4.5626    2.4646 C   0  0  0  0  0  0  0  0  0  0  0  0
   -4.2572    3.6496   -1.3484 C   0  0  0  0  0  0  0  0  0  0  0  0
   -3.7436    5.0475   -1.2724 C   0  0  0  0  0  0  0  0  0  0  0  0
   -3.2066    5.6077   -2.4420 C   0  0  0  0  0  0  0  0  0  0  0  0
   -2.7005    6.8967   -2.4373 C   0  0  0  0  0  0  0  0  0  0  0  0
   -2.7495    7.5868   -1.2515 C   0  0  0  0  0  0  0  0  0  0  0  0
   -3.2616    7.0902   -0.0836 C   0  0  0  0  0  0  0  0  0  0  0  0
   -3.7644    5.7960   -0.1098 C   0  0  0  0  0  0  0  0  0  0  0  0
   -3.2727    7.8548    1.0826 C   0  0  0  0  0  0  0  0  0  0  0  0
   -2.7515    9.1421    1.0492 C   0  0  0  0  0  0  0  0  0  0  0  0
   -2.2292    9.6604   -0.1186 C   0  0  0  0  0  0  0  0  0  0  0  0
   -2.2363    8.8807   -1.2435 C   0  0  0  0  0  0  0  0  0  0  0  0
   -5.8340   -0.9133   -1.3593 C   0  0  0  0  0  0  0  0  0  0  0  0
   -6.8872    0.1186   -1.5120 C   0  0  0  0  0  0  0  0  0  0  0  0
   -7.7722    0.1688   -0.2839 C   0  0  0  0  0  0  0  0  0  0  0  0
   -6.9661    0.5644    0.8368 N   0  0  0  0  0  0  0  0  0  0  0  0
   -7.4538    1.0458    1.9297 C   0  0  0  0  0  0  0  0  0  0  0  0
   -8.8472    1.2250    2.1107 N   0  0  0  0  0  0  0  0  0  0  0  0
   -6.5694    1.3992    2.9619 N   0  0  0  0  0  0  0  0  0  0  0  0
   -3.6617   -5.7162   -0.3549 C   0  0  0  0  0  0  0  0  0  0  0  0
   -4.7598   -5.7745    0.6642 C   0  0  0  0  0  0  0  0  0  0  0  0
   -6.1161   -5.8595    0.3537 C   0  0  0  0  0  0  0  0  0  0  0  0
   -6.8332   -5.8761    1.5124 N   0  0  0  0  0  0  0  0  0  0  0  0
   -5.9495   -5.8047    2.5501 C   0  0  0  0  0  0  0  0  0  0  0  0
   -4.6805   -5.7415    2.0335 C   0  0  0  0  0  0  0  0  0  0  0  0
   -3.5964   -5.6642    2.9118 C   0  0  0  0  0  0  0  0  0  0  0  0
   -3.8071   -5.6519    4.2846 C   0  0  0  0  0  0  0  0  0  0  0  0
   -5.0938   -5.7160    4.7850 C   0  0  0  0  0  0  0  0  0  0  0  0
   -6.1558   -5.7921    3.9060 C   0  0  0  0  0  0  0  0  0  0  0  0
   -0.2866   -5.4795   -3.8227 C   0  0  0  0  0  0  0  0  0  0  0  0
    0.3436   -5.3832   -4.8990 O   0  0  0  0  0  0  0  0  0  0  0  0
   -1.3523   -6.4366   -3.8051 N   0  0  0  0  0  0  0  0  0  0  0  0
    6.7452   -2.1564    2.2264 N   0  0  0  0  0  0  0  0  0  0  0  0
    7.1205   -2.7932    3.4905 C   0  0  0  0  0  0  0  0  0  0  0  0
    8.0568   -2.2915    4.1889 O   0  0  0  0  0  0  0  0  0  0  0  0
    6.3844   -4.0303    3.9206 C   0  0  0  0  0  0  0  0  0  0  0  0
   11.4271   -1.4335    2.0307 H   0  0  0  0  0  0  0  0  0  0  0  0
   11.6781   -2.8245    0.8827 H   0  0  0  0  0  0  0  0  0  0  0  0
   12.8388   -1.4393    0.9534 H   0  0  0  0  0  0  0  0  0  0  0  0
   10.7162   -1.7050   -0.8785 H   0  0  0  0  0  0  0  0  0  0  0  0
   11.4753   -0.1489   -0.3908 H   0  0  0  0  0  0  0  0  0  0  0  0
    9.8599    0.3572    1.2437 H   0  0  0  0  0  0  0  0  0  0  0  0
    9.1243   -0.0331   -0.3571 H   0  0  0  0  0  0  0  0  0  0  0  0
    9.3000   -2.1355    1.8600 H   0  0  0  0  0  0  0  0  0  0  0  0
    8.4261   -2.2081    0.2945 H   0  0  0  0  0  0  0  0  0  0  0  0
    7.8726   -0.4018    2.6606 H   0  0  0  0  0  0  0  0  0  0  0  0
    4.8630   -1.2175    0.6863 H   0  0  0  0  0  0  0  0  0  0  0  0
    5.7853    0.9884   -1.1707 H   0  0  0  0  0  0  0  0  0  0  0  0
    2.9504   -0.1895   -1.3370 H   0  0  0  0  0  0  0  0  0  0  0  0
    3.9939    0.6292   -2.5720 H   0  0  0  0  0  0  0  0  0  0  0  0
    3.4823   -1.4590   -3.9164 H   0  0  0  0  0  0  0  0  0  0  0  0
    4.3173   -3.6685   -4.6864 H   0  0  0  0  0  0  0  0  0  0  0  0
    5.6164   -3.4672   -3.4531 H   0  0  0  0  0  0  0  0  0  0  0  0
    3.9738   -3.9505   -1.6304 H   0  0  0  0  0  0  0  0  0  0  0  0
    4.2040   -5.3616   -2.7229 H   0  0  0  0  0  0  0  0  0  0  0  0
    2.1185   -3.0830   -3.0114 H   0  0  0  0  0  0  0  0  0  0  0  0
    2.2043   -4.5277   -4.0433 H   0  0  0  0  0  0  0  0  0  0  0  0
    1.5970   -5.9783   -2.1489 H   0  0  0  0  0  0  0  0  0  0  0  0
    1.5441   -4.6179   -1.0329 H   0  0  0  0  0  0  0  0  0  0  0  0
   -0.1174   -3.6228   -2.9234 H   0  0  0  0  0  0  0  0  0  0  0  0
   -0.9431   -5.8257   -0.9840 H   0  0  0  0  0  0  0  0  0  0  0  0
   -2.7180   -4.0271    0.5297 H   0  0  0  0  0  0  0  0  0  0  0  0
   -5.1679   -3.4813   -0.9772 H   0  0  0  0  0  0  0  0  0  0  0  0
   -5.4232   -0.9234    0.7049 H   0  0  0  0  0  0  0  0  0  0  0  0
   -3.8213    0.7961    0.7827 H   0  0  0  0  0  0  0  0  0  0  0  0
   -2.3590    2.7217   -1.8610 H   0  0  0  0  0  0  0  0  0  0  0  0
   -3.1436    2.7023    1.1143 H   0  0  0  0  0  0  0  0  0  0  0  0
   -0.5751    2.5163    2.2365 H   0  0  0  0  0  0  0  0  0  0  0  0
    3.6050    3.9831    1.1542 H   0  0  0  0  0  0  0  0  0  0  0  0
    4.2988    2.9994   -2.5459 H   0  0  0  0  0  0  0  0  0  0  0  0
    2.6042    2.4470   -2.4198 H   0  0  0  0  0  0  0  0  0  0  0  0
    1.9482    4.6196   -2.4663 H   0  0  0  0  0  0  0  0  0  0  0  0
    3.7104    5.0990   -2.6508 H   0  0  0  0  0  0  0  0  0  0  0  0
    2.1690    5.7451   -0.4037 H   0  0  0  0  0  0  0  0  0  0  0  0
    3.9544    5.5779   -0.4283 H   0  0  0  0  0  0  0  0  0  0  0  0
    0.9927    5.1128    3.3130 H   0  0  0  0  0  0  0  0  0  0  0  0
    1.5858    6.0025    1.8471 H   0  0  0  0  0  0  0  0  0  0  0  0
   -0.7342    6.1586    1.0784 H   0  0  0  0  0  0  0  0  0  0  0  0
   -0.7310    6.6483    2.8190 H   0  0  0  0  0  0  0  0  0  0  0  0
   -1.3202    4.4337    3.5745 H   0  0  0  0  0  0  0  0  0  0  0  0
   -2.4024    4.7336    2.1840 H   0  0  0  0  0  0  0  0  0  0  0  0
   -5.0804    3.4854   -0.6039 H   0  0  0  0  0  0  0  0  0  0  0  0
   -4.7485    3.4782   -2.3332 H   0  0  0  0  0  0  0  0  0  0  0  0
   -3.1808    5.0281   -3.3679 H   0  0  0  0  0  0  0  0  0  0  0  0
   -2.2745    7.3603   -3.3388 H   0  0  0  0  0  0  0  0  0  0  0  0
   -4.1860    5.3442    0.7756 H   0  0  0  0  0  0  0  0  0  0  0  0
   -3.6913    7.4409    1.9976 H   0  0  0  0  0  0  0  0  0  0  0  0
   -2.7575    9.7583    1.9542 H   0  0  0  0  0  0  0  0  0  0  0  0
   -1.8108   10.6619   -0.1873 H   0  0  0  0  0  0  0  0  0  0  0  0
   -1.8248    9.3094   -2.1494 H   0  0  0  0  0  0  0  0  0  0  0  0
   -6.3228   -1.9393   -1.2340 H   0  0  0  0  0  0  0  0  0  0  0  0
   -5.3247   -1.0719   -2.3715 H   0  0  0  0  0  0  0  0  0  0  0  0
   -6.5819    1.1575   -1.6697 H   0  0  0  0  0  0  0  0  0  0  0  0
   -7.5563   -0.1977   -2.3757 H   0  0  0  0  0  0  0  0  0  0  0  0
   -8.6637    0.8041   -0.4333 H   0  0  0  0  0  0  0  0  0  0  0  0
   -8.0578   -0.9004   -0.0963 H   0  0  0  0  0  0  0  0  0  0  0  0
   -9.3555    0.4580    2.6109 H   0  0  0  0  0  0  0  0  0  0  0  0
   -9.3233    2.0856    1.7558 H   0  0  0  0  0  0  0  0  0  0  0  0
   -5.8824    0.7110    3.3846 H   0  0  0  0  0  0  0  0  0  0  0  0
   -6.5097    2.3626    3.3969 H   0  0  0  0  0  0  0  0  0  0  0  0
   -4.0804   -6.1154   -1.3181 H   0  0  0  0  0  0  0  0  0  0  0  0
   -2.8599   -6.3951   -0.0557 H   0  0  0  0  0  0  0  0  0  0  0  0
   -6.4836   -5.9054   -0.6589 H   0  0  0  0  0  0  0  0  0  0  0  0
   -7.8708   -5.9282    1.5504 H   0  0  0  0  0  0  0  0  0  0  0  0
   -2.6133   -5.6151    2.5067 H   0  0  0  0  0  0  0  0  0  0  0  0
   -2.9879   -5.5911    4.9873 H   0  0  0  0  0  0  0  0  0  0  0  0
   -5.3271   -5.7161    5.8409 H   0  0  0  0  0  0  0  0  0  0  0  0
   -7.1498   -5.8425    4.3039 H   0  0  0  0  0  0  0  0  0  0  0  0
   -1.4248   -7.0768   -2.9930 H   0  0  0  0  0  0  0  0  0  0  0  0
   -2.0507   -6.4954   -4.6036 H   0  0  0  0  0  0  0  0  0  0  0  0
    5.9713   -2.5615    1.6365 H   0  0  0  0  0  0  0  0  0  0  0  0
    7.1315   -4.8685    4.0016 H   0  0  0  0  0  0  0  0  0  0  0  0
    5.7022   -4.3321    3.1049 H   0  0  0  0  0  0  0  0  0  0  0  0
    5.9309   -3.9449    4.9122 H   0  0  0  0  0  0  0  0  0  0  0  0
  1  2  1  0
  2  3  1  0
  3  4  1  0
  4  5  1  0
  5  6  1  0
  6  7  2  0
  6  8  1  0
  8  9  1  0
  9 10  1  0
 10 11  1  0
 11 12  2  0
 11 13  1  0
 13 14  1  0
 14 15  1  0
 15 16  1  0
 16 17  1  0
 17 18  1  0
 18 19  1  0
 19 20  1  0
 20 21  2  0
 20 22  1  0
 22 23  1  0
 23 24  1  0
 24 25  2  0
 24 26  1  0
 26 27  1  0
 27 28  1  0
 28 29  2  0
 28 30  1  0
 30 31  1  0
 31 32  1  0
 32 33  2  0
 32 34  1  0
 34 35  1  0
 35 36  1  0
 36 37  2  0
 36 38  1  0
 38 39  1  0
 39 40  1  0
 40 41  2  0
 39 42  1  0
 42 43  1  0
 43 44  1  0
 35 45  1  0
 45 46  1  0
 46 47  1  0
 30 48  1  0
 48 49  1  0
 49 50  2  0
 50 51  1  0
 51 52  2  0
 52 53  1  0
 53 54  2  0
 53 55  1  0
 55 56  2  0
 56 57  1  0
 57 58  2  0
 26 59  1  0
 59 60  1  0
 60 61  1  0
 61 62  1  0
 62 63  2  3
 63 64  1  0
 63 65  1  0
 22 66  1  0
 66 67  1  0
 67 68  2  0
 68 69  1  0
 69 70  1  0
 70 71  2  0
 71 72  1  0
 72 73  2  0
 73 74  1  0
 74 75  2  0
 18 76  1  0
 76 77  2  0
 76 78  1  0
  5 79  1  0
 79 80  1  0
 80 81  2  0
 80 82  1  0
 40  9  1  0
 54 49  1  0
 71 67  1  0
 47 34  1  0
 58 52  1  0
 75 70  1  0
 44 38  1  0
  1 83  1  0
  1 84  1  0
  1 85  1  0
  2 86  1  0
  2 87  1  0
  3 88  1  0
  3 89  1  0
  4 90  1  0
  4 91  1  0
  5 92  1  1
  8 93  1  0
  9 94  1  6
 10 95  1  0
 10 96  1  0
 13 97  1  0
 14 98  1  0
 14 99  1  0
 15100  1  0
 15101  1  0
 16102  1  0
 16103  1  0
 17104  1  0
 17105  1  0
 18106  1  6
 19107  1  0
 22108  1  1
 23109  1  0
 26110  1  1
 27111  1  0
 30112  1  6
 31113  1  0
 34114  1  1
 38115  1  1
 42116  1  0
 42117  1  0
 43118  1  0
 43119  1  0
 44120  1  0
 44121  1  0
 45122  1  0
 45123  1  0
 46124  1  0
 46125  1  0
 47126  1  0
 47127  1  0
 48128  1  0
 48129  1  0
 50130  1  0
 51131  1  0
 54132  1  0
 55133  1  0
 56134  1  0
 57135  1  0
 58136  1  0
 59137  1  0
 59138  1  0
 60139  1  0
 60140  1  0
 61141  1  0
 61142  1  0
 64143  1  0
 64144  1  0
 65145  1  0
 65146  1  0
 66147  1  0
 66148  1  0
 68149  1  0
 69150  1  0
 72151  1  0
 73152  1  0
 74153  1  0
 75154  1  0
 78155  1  0
 78156  1  0
 79157  1  0
 82158  1  0
 82159  1  0
 82160  1  0
M  END
>  <Ligand ID>  (1) 
LIG0001780

>  <Ligand>  (1) 
CHEMBL3752534

>  <SMILES>  (1) 
CCCC[C@@H](C(=O)N[C@H]1CC(=O)NCCCC[C@H](NC(=O)[C@@H](NC(=O)[C@@H](NC(=O)[C@H](NC(=O)[C@H]2N(C(=O)[C@H]3N(C1=O)CCC3)CCC2)Cc1ccc2c(c1)cccc2)CCCN=C(N)N)Cc1c[nH]c2c1cccc2)C(=O)N)NC(=O)C

>  <CID>  (1) 
101043843.0

>  <ChEMBL ID>  (1) 
nan

>  <InChiKey>  (1) 
OMSSRUBSGSKAFS-IPIAHOSKSA-N

>  <InChi>  (1) 
InChI=1S/C58H78N14O10/c1-3-4-17-42(65-34(2)73)51(76)70-46-32-49(74)62-25-10-9-19-41(50(59)75)66-54(79)45(31-38-33-64-40-18-8-7-16-39(38)40)68-52(77)43(20-11-26-63-58(60)61)67-53(78)44(30-35-23-24-36-14-5-6-15-37(36)29-35)69-55(80)47-21-12-27-71(47)57(82)48-22-13-28-72(48)56(46)81/h5-8,14-16,18,23-24,29,33,41-48,64H,3-4,9-13,17,19-22,25-28,30-32H2,1-2H3,(H2,59,75)(H,62,74)(H,65,73)(H,66,79)(H,67,78)(H,68,77)(H,69,80)(H,70,76)(H4,60,61,63)/t41-,42-,43-,44+,45-,46-,47-,48-/m0/s1

>  <IUPAC Name>  (1) 
(3S,9S,17S,20S,23S,26R,29S)-9-[[(2S)-2-acetamidohexanoyl]amino]-23-[3-(diaminomethylideneamino)propyl]-20-(1H-indol-3-ylmethyl)-26-(naphthalen-2-ylmethyl)-2,8,11,19,22,25,28-heptaoxo-1,7,12,18,21,24,27-heptazatricyclo[27.3.0.03,7]dotriacontane-17-carboxamide

$$$$
