
     RDKit          3D

 58 61  0  0  0  0  0  0  0  0999 V2000
   -1.0901   -2.9156    1.7973 C   0  0  0  0  0  0  0  0  0  0  0  0
   -1.7000   -1.6448    1.3871 N   0  0  0  0  0  0  0  0  0  0  0  0
   -3.0292   -1.3509    1.4147 C   0  0  0  0  0  0  0  0  0  0  0  0
   -3.8788   -2.1678    1.8065 O   0  0  0  0  0  0  0  0  0  0  0  0
   -3.2120   -0.0814    0.9608 N   0  0  0  0  0  0  0  0  0  0  0  0
   -1.9790    0.3899    0.6582 C   0  0  0  0  0  0  0  0  0  0  0  0
   -1.0218   -0.5686    0.9164 C   0  0  0  0  0  0  0  0  0  0  0  0
    0.2919   -0.3832    0.7120 N   0  0  0  0  0  0  0  0  0  0  0  0
    0.7631    0.7854    0.2284 C   0  0  0  0  0  0  0  0  0  0  0  0
   -0.1723    1.7613   -0.0385 C   0  0  0  0  0  0  0  0  0  0  0  0
   -1.5274    1.5964    0.1625 C   0  0  0  0  0  0  0  0  0  0  0  0
    2.1704    0.9892    0.0051 N   0  0  0  0  0  0  0  0  0  0  0  0
    2.5688    2.2869   -0.4609 C   0  0  0  0  0  0  0  0  0  0  0  0
    4.0302    2.5752   -0.4145 C   0  0  0  0  0  0  0  0  0  0  0  0
    4.8308    1.3175   -0.6733 C   0  0  0  0  0  0  0  0  0  0  0  0
    4.4241    0.3528    0.4409 C   0  0  0  0  0  0  0  0  0  0  0  0
    3.0376   -0.1288    0.2672 C   0  0  0  0  0  0  0  0  0  0  0  0
    2.8762   -1.2256   -0.7487 C   0  0  0  0  0  0  0  0  0  0  0  0
    3.9955   -2.2187   -0.7254 C   0  0  0  0  0  0  0  0  0  0  0  0
    5.3500   -1.5318   -0.7965 C   0  0  0  0  0  0  0  0  0  0  0  0
    5.4673   -0.7305    0.4833 C   0  0  0  0  0  0  0  0  0  0  0  0
   -4.4730    0.6088    0.8340 C   0  0  0  0  0  0  0  0  0  0  0  0
   -5.1062    0.3943   -0.5211 C   0  0  0  0  0  0  0  0  0  0  0  0
   -5.3511   -1.0867   -0.7235 C   0  0  0  0  0  0  0  0  0  0  0  0
   -6.4507    1.0808   -0.5452 C   0  0  0  0  0  0  0  0  0  0  0  0
   -4.2410    0.8603   -1.6457 C   0  0  0  0  0  0  0  0  0  0  0  0
   -1.8618   -3.4970    2.3366 H   0  0  0  0  0  0  0  0  0  0  0  0
   -0.1967   -2.7182    2.4060 H   0  0  0  0  0  0  0  0  0  0  0  0
   -0.8323   -3.5389    0.9092 H   0  0  0  0  0  0  0  0  0  0  0  0
    0.1321    2.7290   -0.4317 H   0  0  0  0  0  0  0  0  0  0  0  0
   -2.2192    2.3809   -0.0581 H   0  0  0  0  0  0  0  0  0  0  0  0
    2.1834    2.5228   -1.4745 H   0  0  0  0  0  0  0  0  0  0  0  0
    2.0320    3.0392    0.1971 H   0  0  0  0  0  0  0  0  0  0  0  0
    4.3069    2.9267    0.6217 H   0  0  0  0  0  0  0  0  0  0  0  0
    4.3389    3.3891   -1.1022 H   0  0  0  0  0  0  0  0  0  0  0  0
    4.5707    0.9140   -1.6840 H   0  0  0  0  0  0  0  0  0  0  0  0
    5.9123    1.4881   -0.5740 H   0  0  0  0  0  0  0  0  0  0  0  0
    4.5023    0.9260    1.3872 H   0  0  0  0  0  0  0  0  0  0  0  0
    2.7072   -0.5448    1.2641 H   0  0  0  0  0  0  0  0  0  0  0  0
    1.9470   -1.7941   -0.4692 H   0  0  0  0  0  0  0  0  0  0  0  0
    2.7217   -0.8563   -1.7648 H   0  0  0  0  0  0  0  0  0  0  0  0
    3.8400   -2.9298   -1.5516 H   0  0  0  0  0  0  0  0  0  0  0  0
    3.9929   -2.7859    0.2504 H   0  0  0  0  0  0  0  0  0  0  0  0
    5.4304   -0.9317   -1.7054 H   0  0  0  0  0  0  0  0  0  0  0  0
    6.1499   -2.2990   -0.7427 H   0  0  0  0  0  0  0  0  0  0  0  0
    6.4574   -0.2291    0.4607 H   0  0  0  0  0  0  0  0  0  0  0  0
    5.3409   -1.4081    1.3317 H   0  0  0  0  0  0  0  0  0  0  0  0
   -4.3190    1.6992    1.0101 H   0  0  0  0  0  0  0  0  0  0  0  0
   -5.1923    0.2885    1.6148 H   0  0  0  0  0  0  0  0  0  0  0  0
   -5.9450   -1.5054    0.1176 H   0  0  0  0  0  0  0  0  0  0  0  0
   -5.8657   -1.2271   -1.7015 H   0  0  0  0  0  0  0  0  0  0  0  0
   -4.3534   -1.5700   -0.8352 H   0  0  0  0  0  0  0  0  0  0  0  0
   -7.0324    0.6993    0.3202 H   0  0  0  0  0  0  0  0  0  0  0  0
   -6.9706    0.8949   -1.5134 H   0  0  0  0  0  0  0  0  0  0  0  0
   -6.3020    2.1831   -0.4947 H   0  0  0  0  0  0  0  0  0  0  0  0
   -3.9762    1.9243   -1.6269 H   0  0  0  0  0  0  0  0  0  0  0  0
   -3.3214    0.2159   -1.6489 H   0  0  0  0  0  0  0  0  0  0  0  0
   -4.7511    0.6500   -2.5988 H   0  0  0  0  0  0  0  0  0  0  0  0
  1  2  1  0
  2  3  1  0
  3  4  2  0
  3  5  1  0
  5  6  1  0
  6  7  2  0
  7  8  1  0
  8  9  2  0
  9 10  1  0
 10 11  2  0
  9 12  1  0
 12 13  1  0
 13 14  1  0
 14 15  1  0
 15 16  1  0
 16 17  1  0
 17 18  1  0
 18 19  1  0
 19 20  1  0
 20 21  1  0
  5 22  1  0
 22 23  1  0
 23 24  1  0
 23 25  1  0
 23 26  1  0
  7  2  1  0
 17 12  1  0
 11  6  1  0
 21 16  1  0
  1 27  1  0
  1 28  1  0
  1 29  1  0
 10 30  1  0
 11 31  1  0
 13 32  1  0
 13 33  1  0
 14 34  1  0
 14 35  1  0
 15 36  1  0
 15 37  1  0
 16 38  1  0
 17 39  1  0
 18 40  1  0
 18 41  1  0
 19 42  1  0
 19 43  1  0
 20 44  1  0
 20 45  1  0
 21 46  1  0
 21 47  1  0
 22 48  1  0
 22 49  1  0
 24 50  1  0
 24 51  1  0
 24 52  1  0
 25 53  1  0
 25 54  1  0
 25 55  1  0
 26 56  1  0
 26 57  1  0
 26 58  1  0
M  END
>  <Ligand ID>  (1) 
LIG0000905

>  <Ligand>  (1) 
CHEMBL3805883

>  <SMILES>  (1) 
Cn1c(=O)n(c2c1nc(cc2)N1CCCC2C1CCCC2)CC(C)(C)C

>  <CID>  (1) 
51037131.0

>  <ChEMBL ID>  (1) 
nan

>  <InChiKey>  (1) 
OHQZQEGFDROPEO-UHFFFAOYSA-N

>  <InChi>  (1) 
InChI=1S/C21H32N4O/c1-21(2,3)14-25-17-11-12-18(22-19(17)23(4)20(25)26)24-13-7-9-15-8-5-6-10-16(15)24/h11-12,15-16H,5-10,13-14H2,1-4H3

>  <IUPAC Name>  (1) 
5-(3,4,4a,5,6,7,8,8a-octahydro-2H-quinolin-1-yl)-1-(2,2-dimethylpropyl)-3-methylimidazo[4,5-b]pyridin-2-one

$$$$
