
     RDKit          3D

 14 14  0  0  0  0  0  0  0  0999 V2000
   -2.5336    0.1815    0.0548 C   0  0  0  0  0  0  0  0  0  0  0  0
   -1.5405   -0.8324    0.1911 O   0  0  0  0  0  0  0  0  0  0  0  0
   -0.2073   -0.4636    0.0823 C   0  0  0  0  0  0  0  0  0  0  0  0
    0.7889   -1.4104    0.2071 C   0  0  0  0  0  0  0  0  0  0  0  0
    2.0838   -1.0869    0.1074 N   0  0  0  0  0  0  0  0  0  0  0  0
    2.4389    0.1891   -0.1202 C   0  0  0  0  0  0  0  0  0  0  0  0
    1.4525    1.1450   -0.2469 C   0  0  0  0  0  0  0  0  0  0  0  0
    0.1556    0.8104   -0.1452 N   0  0  0  0  0  0  0  0  0  0  0  0
   -3.3517   -0.2566   -0.5396 H   0  0  0  0  0  0  0  0  0  0  0  0
   -2.9128    0.3943    1.0865 H   0  0  0  0  0  0  0  0  0  0  0  0
   -2.1039    1.0915   -0.4277 H   0  0  0  0  0  0  0  0  0  0  0  0
    0.4909   -2.4408    0.3913 H   0  0  0  0  0  0  0  0  0  0  0  0
    3.4909    0.4964   -0.2087 H   0  0  0  0  0  0  0  0  0  0  0  0
    1.7483    2.1825   -0.4322 H   0  0  0  0  0  0  0  0  0  0  0  0
  1  2  1  0
  2  3  1  0
  3  4  2  0
  4  5  1  0
  5  6  2  0
  6  7  1  0
  7  8  2  0
  8  3  1  0
  1  9  1  0
  1 10  1  0
  1 11  1  0
  4 12  1  0
  6 13  1  0
  7 14  1  0
M  END
>  <Ligand ID>  (1) 
LIG0000152

>  <Ligand>  (1) 
2-Methoxypyrazine

>  <SMILES>  (1) 
COc1cnccn1

>  <CID>  (1) 
18467.0

>  <ChEMBL ID>  (1) 
nan

>  <InChiKey>  (1) 
WKSXRWSOSLGSTN-UHFFFAOYSA-N

>  <InChi>  (1) 
InChI=1S/C5H6N2O/c1-8-5-4-6-2-3-7-5/h2-4H,1H3

>  <IUPAC Name>  (1) 
2-methoxypyrazine

$$$$
