
     RDKit          3D

141147  0  0  0  0  0  0  0  0999 V2000
   -1.3301   -6.4787   -3.9836 N   0  0  0  0  0  0  0  0  0  0  0  0
   -1.0160   -6.0375   -2.6456 C   0  0  0  0  0  0  0  0  0  0  0  0
   -1.7134   -6.3812   -1.6610 O   0  0  0  0  0  0  0  0  0  0  0  0
    0.1867   -5.1524   -2.5305 C   0  0  0  0  0  0  0  0  0  0  0  0
    0.3511   -4.7972   -1.1305 C   0  0  2  0  0  0  0  0  0  0  0  0
   -0.8243   -4.0726   -0.5694 N   0  0  0  0  0  0  0  0  0  0  0  0
   -1.3217   -4.4249    0.7057 C   0  0  0  0  0  0  0  0  0  0  0  0
   -0.7937   -5.4259    1.2345 O   0  0  0  0  0  0  0  0  0  0  0  0
   -2.3856   -3.7355    1.4591 C   0  0  2  0  0  0  0  0  0  0  0  0
   -3.3564   -4.6498    2.1350 C   0  0  0  0  0  0  0  0  0  0  0  0
   -4.3989   -3.8481    2.8651 C   0  0  0  0  0  0  0  0  0  0  0  0
   -4.2240   -3.4163    4.1568 C   0  0  0  0  0  0  0  0  0  0  0  0
   -5.2187   -2.6683    4.8031 C   0  0  0  0  0  0  0  0  0  0  0  0
   -6.4067   -2.3468    4.1591 C   0  0  0  0  0  0  0  0  0  0  0  0
   -6.5769   -2.7834    2.8636 C   0  0  0  0  0  0  0  0  0  0  0  0
   -5.5711   -3.5232    2.2413 C   0  0  0  0  0  0  0  0  0  0  0  0
   -2.9679   -2.5745    0.8358 N   0  0  0  0  0  0  0  0  0  0  0  0
   -2.4326   -1.2676    0.9698 C   0  0  0  0  0  0  0  0  0  0  0  0
   -1.3372   -1.2309    1.5947 O   0  0  0  0  0  0  0  0  0  0  0  0
   -2.9811   -0.0019    0.4826 C   0  0  0  0  0  0  0  0  0  0  0  0
   -3.3445    0.1681   -0.9259 C   0  0  0  0  0  0  0  0  0  0  0  0
   -4.3451   -0.6653   -1.5546 C   0  0  0  0  0  0  0  0  0  0  0  0
   -4.0885   -1.8073   -2.3241 C   0  0  0  0  0  0  0  0  0  0  0  0
   -5.1378   -2.4981   -2.8770 C   0  0  0  0  0  0  0  0  0  0  0  0
   -6.4413   -2.1349   -2.7204 C   0  0  0  0  0  0  0  0  0  0  0  0
   -6.7172   -1.0178   -1.9671 C   0  0  0  0  0  0  0  0  0  0  0  0
   -5.6822   -0.3049   -1.4013 C   0  0  0  0  0  0  0  0  0  0  0  0
   -8.0289   -0.5896   -1.7603 C   0  0  0  0  0  0  0  0  0  0  0  0
   -9.0740   -1.2984   -2.3261 C   0  0  0  0  0  0  0  0  0  0  0  0
   -8.8241   -2.4355   -3.0976 C   0  0  0  0  0  0  0  0  0  0  0  0
   -7.5022   -2.8318   -3.2794 C   0  0  0  0  0  0  0  0  0  0  0  0
   -2.0759    1.1184    0.8728 N   0  0  0  0  0  0  0  0  0  0  0  0
   -2.1399    1.7224    2.1589 C   0  0  0  0  0  0  0  0  0  0  0  0
   -2.9313    1.2235    2.9564 O   0  0  0  0  0  0  0  0  0  0  0  0
   -1.2496    2.9189    2.5029 C   0  0  2  0  0  0  0  0  0  0  0  0
   -1.9058    3.7469    3.5077 C   0  0  0  0  0  0  0  0  0  0  0  0
   -1.3104    4.9582    4.0678 C   0  0  0  0  0  0  0  0  0  0  0  0
   -0.9859    6.0218    3.0460 C   0  0  0  0  0  0  0  0  0  0  0  0
   -2.1750    6.4280    2.3220 N   0  0  0  0  0  0  0  0  0  0  0  0
   -3.0899    7.2191    2.8039 C   0  0  0  0  0  0  0  0  0  0  0  0
   -4.2505    7.6022    2.0635 N   0  0  0  0  0  0  0  0  0  0  0  0
   -2.9121    7.7213    4.1426 N   0  0  0  0  0  0  0  0  0  0  0  0
   -0.6758    3.4848    1.3432 N   0  0  0  0  0  0  0  0  0  0  0  0
    0.6175    3.1756    0.7846 C   0  0  0  0  0  0  0  0  0  0  0  0
    1.2450    2.3141    1.4172 O   0  0  0  0  0  0  0  0  0  0  0  0
    1.1319    3.8427   -0.4383 C   0  0  1  0  0  0  0  0  0  0  0  0
    2.1579    3.1306   -1.1346 N   0  0  0  0  0  0  0  0  0  0  0  0
    3.5733    3.3777   -1.0233 C   0  0  0  0  0  0  0  0  0  0  0  0
    3.8124    4.2905   -0.2116 O   0  0  0  0  0  0  0  0  0  0  0  0
    4.4853    2.5990   -1.8075 C   0  0  2  0  0  0  0  0  0  0  0  0
    4.9945    1.3528   -1.1964 N   0  0  0  0  0  0  0  0  0  0  0  0
    4.8083    1.0179    0.1511 C   0  0  0  0  0  0  0  0  0  0  0  0
    4.3264    1.9504    0.8438 O   0  0  0  0  0  0  0  0  0  0  0  0
    5.1104   -0.2413    0.8285 C   0  0  1  0  0  0  0  0  0  0  0  0
    5.2614   -1.3945   -0.0006 N   0  0  0  0  0  0  0  0  0  0  0  0
    4.0528   -2.2297   -0.1535 C   0  0  0  0  0  0  0  0  0  0  0  0
    3.0765   -1.7133    0.4017 O   0  0  0  0  0  0  0  0  0  0  0  0
    4.0965   -3.5068   -0.9007 C   0  0  1  0  0  0  0  0  0  0  0  0
    2.8594   -4.1538   -1.1989 N   0  0  0  0  0  0  0  0  0  0  0  0
    1.5546   -3.9132   -0.7948 C   0  0  0  0  0  0  0  0  0  0  0  0
    1.2787   -2.9304   -0.1216 O   0  0  0  0  0  0  0  0  0  0  0  0
    5.0643   -3.4486   -2.0340 C   0  0  0  0  0  0  0  0  0  0  0  0
    6.3736   -0.0752    1.6389 C   0  0  0  0  0  0  0  0  0  0  0  0
    7.5523    0.2881    0.8086 C   0  0  0  0  0  0  0  0  0  0  0  0
    7.8655    1.6317    0.5537 C   0  0  0  0  0  0  0  0  0  0  0  0
    8.9560    1.9866   -0.2168 C   0  0  0  0  0  0  0  0  0  0  0  0
    9.7567    1.0119   -0.7484 C   0  0  0  0  0  0  0  0  0  0  0  0
    9.4739   -0.3247   -0.5130 C   0  0  0  0  0  0  0  0  0  0  0  0
    8.3841   -0.6890    0.2566 C   0  0  0  0  0  0  0  0  0  0  0  0
    5.7289    0.7376   -2.2467 C   0  0  0  0  0  0  0  0  0  0  0  0
    6.3690    1.9375   -2.9584 C   0  0  0  0  0  0  0  0  0  0  0  0
    5.7420    3.2013   -2.3320 C   0  0  0  0  0  0  0  0  0  0  0  0
    1.4872    2.1770   -1.9599 C   0  0  0  0  0  0  0  0  0  0  0  0
    0.3194    2.9854   -2.5250 C   0  0  0  0  0  0  0  0  0  0  0  0
    0.0049    3.9525   -1.4369 C   0  0  0  0  0  0  0  0  0  0  0  0
   -2.3172   -6.4014   -4.3646 H   0  0  0  0  0  0  0  0  0  0  0  0
   -0.5438   -6.8781   -4.5830 H   0  0  0  0  0  0  0  0  0  0  0  0
    0.0381   -4.2792   -3.2060 H   0  0  0  0  0  0  0  0  0  0  0  0
    1.0588   -5.7594   -2.8663 H   0  0  0  0  0  0  0  0  0  0  0  0
    0.5055   -5.7076   -0.4884 H   0  0  0  0  0  0  0  0  0  0  0  0
   -1.3094   -3.3304   -1.0588 H   0  0  0  0  0  0  0  0  0  0  0  0
   -1.7731   -3.2596    2.3264 H   0  0  0  0  0  0  0  0  0  0  0  0
   -2.8295   -5.3397    2.8299 H   0  0  0  0  0  0  0  0  0  0  0  0
   -3.8911   -5.2446    1.3739 H   0  0  0  0  0  0  0  0  0  0  0  0
   -3.3205   -3.6520    4.6938 H   0  0  0  0  0  0  0  0  0  0  0  0
   -5.0992   -2.3201    5.8189 H   0  0  0  0  0  0  0  0  0  0  0  0
   -7.1626   -1.7706    4.6846 H   0  0  0  0  0  0  0  0  0  0  0  0
   -7.4991   -2.5629    2.3015 H   0  0  0  0  0  0  0  0  0  0  0  0
   -5.7224   -3.8522    1.2326 H   0  0  0  0  0  0  0  0  0  0  0  0
   -3.8043   -2.6727    0.2775 H   0  0  0  0  0  0  0  0  0  0  0  0
   -3.9320    0.1150    1.1177 H   0  0  0  0  0  0  0  0  0  0  0  0
   -2.3972    0.1080   -1.5362 H   0  0  0  0  0  0  0  0  0  0  0  0
   -3.6206    1.2765   -1.0809 H   0  0  0  0  0  0  0  0  0  0  0  0
   -3.0409   -2.1084   -2.4548 H   0  0  0  0  0  0  0  0  0  0  0  0
   -4.8690   -3.3745   -3.4663 H   0  0  0  0  0  0  0  0  0  0  0  0
   -5.9410    0.5785   -0.8122 H   0  0  0  0  0  0  0  0  0  0  0  0
   -8.2125    0.2997   -1.1594 H   0  0  0  0  0  0  0  0  0  0  0  0
  -10.1150   -1.0132   -2.2141 H   0  0  0  0  0  0  0  0  0  0  0  0
   -9.5977   -3.0166   -3.5565 H   0  0  0  0  0  0  0  0  0  0  0  0
   -7.2654   -3.7071   -3.8704 H   0  0  0  0  0  0  0  0  0  0  0  0
   -1.3734    1.4939    0.2400 H   0  0  0  0  0  0  0  0  0  0  0  0
   -0.3707    2.3902    2.9975 H   0  0  0  0  0  0  0  0  0  0  0  0
   -2.9150    4.0609    3.0681 H   0  0  0  0  0  0  0  0  0  0  0  0
   -2.2782    3.1212    4.3930 H   0  0  0  0  0  0  0  0  0  0  0  0
   -0.4631    4.7884    4.7729 H   0  0  0  0  0  0  0  0  0  0  0  0
   -2.0680    5.4745    4.7444 H   0  0  0  0  0  0  0  0  0  0  0  0
   -0.5184    6.9142    3.5512 H   0  0  0  0  0  0  0  0  0  0  0  0
   -0.2492    5.6359    2.3277 H   0  0  0  0  0  0  0  0  0  0  0  0
   -4.1739    8.3324    1.3182 H   0  0  0  0  0  0  0  0  0  0  0  0
   -5.1960    7.1983    2.2002 H   0  0  0  0  0  0  0  0  0  0  0  0
   -2.2147    8.4316    4.3957 H   0  0  0  0  0  0  0  0  0  0  0  0
   -3.5252    7.3646    4.9415 H   0  0  0  0  0  0  0  0  0  0  0  0
   -1.1984    4.1836    0.8092 H   0  0  0  0  0  0  0  0  0  0  0  0
    1.4587    4.8971   -0.1946 H   0  0  0  0  0  0  0  0  0  0  0  0
    3.9608    2.1781   -2.7497 H   0  0  0  0  0  0  0  0  0  0  0  0
    4.2656   -0.4242    1.5795 H   0  0  0  0  0  0  0  0  0  0  0  0
    6.0474   -1.7430   -0.5090 H   0  0  0  0  0  0  0  0  0  0  0  0
    4.5420   -4.2190   -0.0681 H   0  0  0  0  0  0  0  0  0  0  0  0
    2.9474   -5.0034   -1.8548 H   0  0  0  0  0  0  0  0  0  0  0  0
    6.1099   -3.4670   -1.6194 H   0  0  0  0  0  0  0  0  0  0  0  0
    4.9447   -2.5135   -2.6186 H   0  0  0  0  0  0  0  0  0  0  0  0
    4.9907   -4.2973   -2.7336 H   0  0  0  0  0  0  0  0  0  0  0  0
    6.6411   -1.0188    2.1764 H   0  0  0  0  0  0  0  0  0  0  0  0
    6.2440    0.7447    2.4010 H   0  0  0  0  0  0  0  0  0  0  0  0
    7.2217    2.3668    0.9825 H   0  0  0  0  0  0  0  0  0  0  0  0
    9.2192    3.0107   -0.4283 H   0  0  0  0  0  0  0  0  0  0  0  0
   10.5974    1.2554   -1.3471 H   0  0  0  0  0  0  0  0  0  0  0  0
   10.1062   -1.0806   -0.9362 H   0  0  0  0  0  0  0  0  0  0  0  0
    8.2319   -1.7355    0.3967 H   0  0  0  0  0  0  0  0  0  0  0  0
    5.0643    0.1602   -2.9424 H   0  0  0  0  0  0  0  0  0  0  0  0
    6.5648    0.0969   -1.9144 H   0  0  0  0  0  0  0  0  0  0  0  0
    6.1440    1.9235   -4.0478 H   0  0  0  0  0  0  0  0  0  0  0  0
    7.4258    1.9676   -2.7050 H   0  0  0  0  0  0  0  0  0  0  0  0
    5.5134    3.9092   -3.1394 H   0  0  0  0  0  0  0  0  0  0  0  0
    6.4064    3.6103   -1.5588 H   0  0  0  0  0  0  0  0  0  0  0  0
    2.0364    1.7334   -2.7718 H   0  0  0  0  0  0  0  0  0  0  0  0
    1.0557    1.3367   -1.3574 H   0  0  0  0  0  0  0  0  0  0  0  0
    0.7510    3.5937   -3.3770 H   0  0  0  0  0  0  0  0  0  0  0  0
   -0.4954    2.3346   -2.8540 H   0  0  0  0  0  0  0  0  0  0  0  0
   -0.9573    3.5952   -0.9746 H   0  0  0  0  0  0  0  0  0  0  0  0
   -0.1473    4.9976   -1.8039 H   0  0  0  0  0  0  0  0  0  0  0  0
  1  2  1  0
  2  3  2  0
  2  4  1  0
  4  5  1  0
  5  6  1  0
  6  7  1  0
  7  8  2  0
  7  9  1  0
  9 10  1  0
 10 11  1  0
 11 12  2  0
 12 13  1  0
 13 14  2  0
 14 15  1  0
 15 16  2  0
  9 17  1  0
 17 18  1  0
 18 19  2  0
 18 20  1  0
 20 21  1  0
 21 22  1  0
 22 23  2  0
 23 24  1  0
 24 25  2  0
 25 26  1  0
 26 27  2  0
 26 28  1  0
 28 29  2  0
 29 30  1  0
 30 31  2  0
 20 32  1  0
 32 33  1  0
 33 34  2  0
 33 35  1  0
 35 36  1  0
 36 37  1  0
 37 38  1  0
 38 39  1  0
 39 40  2  3
 40 41  1  0
 40 42  1  0
 35 43  1  0
 43 44  1  0
 44 45  2  0
 44 46  1  0
 46 47  1  0
 47 48  1  0
 48 49  2  0
 48 50  1  0
 50 51  1  0
 51 52  1  0
 52 53  2  0
 52 54  1  0
 54 55  1  0
 55 56  1  0
 56 57  2  0
 56 58  1  0
 58 59  1  0
 59 60  1  0
 60 61  2  0
 58 62  1  0
 54 63  1  0
 63 64  1  0
 64 65  2  0
 65 66  1  0
 66 67  2  0
 67 68  1  0
 68 69  2  0
 51 70  1  0
 70 71  1  0
 71 72  1  0
 47 73  1  0
 73 74  1  0
 74 75  1  0
 60  5  1  0
 69 64  1  0
 16 11  1  0
 27 22  1  0
 75 46  1  0
 31 25  1  0
 72 50  1  0
  1 76  1  0
  1 77  1  0
  4 78  1  0
  4 79  1  0
  5 80  1  1
  6 81  1  0
  9 82  1  1
 10 83  1  0
 10 84  1  0
 12 85  1  0
 13 86  1  0
 14 87  1  0
 15 88  1  0
 16 89  1  0
 17 90  1  0
 20 91  1  0
 21 92  1  0
 21 93  1  0
 23 94  1  0
 24 95  1  0
 27 96  1  0
 28 97  1  0
 29 98  1  0
 30 99  1  0
 31100  1  0
 32101  1  0
 35102  1  1
 36103  1  0
 36104  1  0
 37105  1  0
 37106  1  0
 38107  1  0
 38108  1  0
 41109  1  0
 41110  1  0
 42111  1  0
 42112  1  0
 43113  1  0
 46114  1  1
 50115  1  6
 54116  1  1
 55117  1  0
 58118  1  1
 59119  1  0
 62120  1  0
 62121  1  0
 62122  1  0
 63123  1  0
 63124  1  0
 65125  1  0
 66126  1  0
 67127  1  0
 68128  1  0
 69129  1  0
 70130  1  0
 70131  1  0
 71132  1  0
 71133  1  0
 72134  1  0
 72135  1  0
 73136  1  0
 73137  1  0
 74138  1  0
 74139  1  0
 75140  1  0
 75141  1  0
M  END
>  <Ligand ID>  (1) 
LIG0005511

>  <Ligand>  (1) 
CHEMBL3577987

>  <SMILES>  (1) 
NC(=O)C[C@@H]1NC(=O)[C@H](Cc2ccccc2)NC(=O)C(Cc2ccc3c(c2)cccc3)NC(=O)[C@H](CCCN=C(N)N)NC(=O)[C@H]2N(C(=O)[C@@H]3N(C(=O)[C@@H](NC(=O)[C@@H](NC1=O)C)Cc1ccccc1)CCC3)CCC2

>  <CID>  (1) 
122178158.0

>  <ChEMBL ID>  (1) 
nan

>  <InChiKey>  (1) 
MCWLVPXLYJOXFN-JHQNEBCVSA-N

>  <InChi>  (1) 
InChI=1S/C54H66N12O9/c1-32-46(68)64-42(29-34-15-6-3-7-16-34)52(74)66-26-12-21-44(66)53(75)65-25-11-20-43(65)51(73)60-38(19-10-24-58-54(56)57)47(69)61-40(30-35-22-23-36-17-8-9-18-37(36)27-35)50(72)62-39(28-33-13-4-2-5-14-33)49(71)63-41(31-45(55)67)48(70)59-32/h2-9,13-18,22-23,27,32,38-44H,10-12,19-21,24-26,28-31H2,1H3,(H2,55,67)(H,59,70)(H,60,73)(H,61,69)(H,62,72)(H,63,71)(H,64,68)(H4,56,57,58)/t32-,38-,39-,40?,41-,42-,43-,44+/m0/s1

>  <IUPAC Name>  (1) 
2-[(3R,9S,12S,15S,18S,24S,27S)-9,18-dibenzyl-24-[3-(diaminomethylideneamino)propyl]-12-methyl-21-(naphthalen-2-ylmethyl)-2,8,11,14,17,20,23,26-octaoxo-1,7,10,13,16,19,22,25-octazatricyclo[25.3.0.03,7]triacontan-15-yl]acetamide

$$$$
