
     RDKit          3D

 47 50  0  0  0  0  0  0  0  0999 V2000
   -6.4805   -2.0885   -1.7294 C   0  0  0  0  0  0  0  0  0  0  0  0
   -5.2943   -1.7295   -0.9457 N   0  0  0  0  0  0  0  0  0  0  0  0
   -5.3624   -0.6488   -0.0052 C   0  0  0  0  0  0  0  0  0  0  0  0
   -6.4824   -0.0699    0.0761 O   0  0  0  0  0  0  0  0  0  0  0  0
   -4.2423   -0.2102    0.8240 C   0  0  1  0  0  0  0  0  0  0  0  0
   -3.0698   -0.9365    0.6313 O   0  0  0  0  0  0  0  0  0  0  0  0
   -2.0309   -0.0973    1.0610 C   0  0  2  0  0  0  0  0  0  0  0  0
   -2.4221    1.1948    0.3669 C   0  0  1  0  0  0  0  0  0  0  0  0
   -3.9026    1.2374    0.6878 C   0  0  2  0  0  0  0  0  0  0  0  0
   -4.0037    1.9139    1.9213 O   0  0  0  0  0  0  0  0  0  0  0  0
   -1.7533    2.3054    0.8679 O   0  0  0  0  0  0  0  0  0  0  0  0
   -0.7620   -0.6067    0.6490 N   0  0  0  0  0  0  0  0  0  0  0  0
   -0.4773   -1.7948    0.1345 C   0  0  0  0  0  0  0  0  0  0  0  0
    0.8536   -1.8704   -0.1173 N   0  0  0  0  0  0  0  0  0  0  0  0
    1.4285   -0.7087    0.2433 C   0  0  0  0  0  0  0  0  0  0  0  0
    0.3976    0.0758    0.7238 C   0  0  0  0  0  0  0  0  0  0  0  0
    0.7268    1.3101    1.1540 N   0  0  0  0  0  0  0  0  0  0  0  0
    1.9938    1.7490    1.1151 C   0  0  0  0  0  0  0  0  0  0  0  0
    2.2534    3.0652    1.5891 N   0  0  0  0  0  0  0  0  0  0  0  0
    2.9681    0.9784    0.6495 N   0  0  0  0  0  0  0  0  0  0  0  0
    2.7426   -0.2709    0.1961 C   0  0  0  0  0  0  0  0  0  0  0  0
    3.8010   -1.0817   -0.2992 N   0  0  0  0  0  0  0  0  0  0  0  0
    5.1351   -0.5574   -0.3158 C   0  0  0  0  0  0  0  0  0  0  0  0
    5.3715    0.6849   -1.1265 C   0  0  0  0  0  0  0  0  0  0  0  0
    6.7477    0.0959   -1.4618 C   0  0  0  0  0  0  0  0  0  0  0  0
    6.1144   -1.2719   -1.2231 C   0  0  0  0  0  0  0  0  0  0  0  0
   -6.8977   -3.0035   -1.2809 H   0  0  0  0  0  0  0  0  0  0  0  0
   -6.2538   -2.1680   -2.8115 H   0  0  0  0  0  0  0  0  0  0  0  0
   -7.2266   -1.2670   -1.6331 H   0  0  0  0  0  0  0  0  0  0  0  0
   -4.3976   -2.2441   -1.0564 H   0  0  0  0  0  0  0  0  0  0  0  0
   -4.5222   -0.3970    1.9015 H   0  0  0  0  0  0  0  0  0  0  0  0
   -2.1252    0.0351    2.1558 H   0  0  0  0  0  0  0  0  0  0  0  0
   -2.3100    1.0789   -0.7285 H   0  0  0  0  0  0  0  0  0  0  0  0
   -4.4850    1.7673   -0.0875 H   0  0  0  0  0  0  0  0  0  0  0  0
   -4.3811    1.2556    2.5808 H   0  0  0  0  0  0  0  0  0  0  0  0
   -1.5506    2.8946    0.0859 H   0  0  0  0  0  0  0  0  0  0  0  0
   -1.1704   -2.5976   -0.0654 H   0  0  0  0  0  0  0  0  0  0  0  0
    2.1582    3.8894    0.9280 H   0  0  0  0  0  0  0  0  0  0  0  0
    2.5409    3.2272    2.5968 H   0  0  0  0  0  0  0  0  0  0  0  0
    3.5411   -2.0456   -0.6348 H   0  0  0  0  0  0  0  0  0  0  0  0
    5.5287   -0.4191    0.7122 H   0  0  0  0  0  0  0  0  0  0  0  0
    5.4694    1.5869   -0.5132 H   0  0  0  0  0  0  0  0  0  0  0  0
    4.8148    0.7638   -2.0829 H   0  0  0  0  0  0  0  0  0  0  0  0
    7.5124    0.3244   -0.6732 H   0  0  0  0  0  0  0  0  0  0  0  0
    7.0757    0.2712   -2.5075 H   0  0  0  0  0  0  0  0  0  0  0  0
    5.6472   -1.6186   -2.1542 H   0  0  0  0  0  0  0  0  0  0  0  0
    6.7808   -2.0016   -0.7181 H   0  0  0  0  0  0  0  0  0  0  0  0
  1  2  1  0
  2  3  1  0
  3  4  2  0
  3  5  1  0
  5  6  1  0
  6  7  1  0
  7  8  1  0
  8  9  1  0
  9 10  1  0
  8 11  1  0
  7 12  1  0
 12 13  1  0
 13 14  2  0
 14 15  1  0
 15 16  2  0
 16 17  1  0
 17 18  2  0
 18 19  1  0
 18 20  1  0
 20 21  2  0
 21 22  1  0
 22 23  1  0
 23 24  1  0
 24 25  1  0
 25 26  1  0
  9  5  1  0
 16 12  1  0
 26 23  1  0
 21 15  1  0
  1 27  1  0
  1 28  1  0
  1 29  1  0
  2 30  1  0
  5 31  1  1
  7 32  1  1
  8 33  1  6
  9 34  1  6
 10 35  1  0
 11 36  1  0
 13 37  1  0
 19 38  1  0
 19 39  1  0
 22 40  1  0
 23 41  1  0
 24 42  1  0
 24 43  1  0
 25 44  1  0
 25 45  1  0
 26 46  1  0
 26 47  1  0
M  END
>  <Ligand ID>  (1) 
LIG0001976

>  <Ligand>  (1) 
CHEMBL3133157

>  <SMILES>  (1) 
CNC(=O)[C@H]1O[C@H]([C@@H]([C@@H]1O)O)n1cnc2c1nc(N)nc2NC1CCC1

>  <CID>  (1) 
76318403.0

>  <ChEMBL ID>  (1) 
nan

>  <InChiKey>  (1) 
NPUPFMDILXTXOB-AEISUSGSSA-N

>  <InChi>  (1) 
InChI=1S/C15H21N7O4/c1-17-13(25)10-8(23)9(24)14(26-10)22-5-18-7-11(19-6-3-2-4-6)20-15(16)21-12(7)22/h5-6,8-10,14,23-24H,2-4H2,1H3,(H,17,25)(H3,16,19,20,21)/t8-,9+,10-,14+/m0/s1

>  <IUPAC Name>  (1) 
(2S,3S,4R,5R)-5-[2-amino-6-(cyclobutylamino)purin-9-yl]-3,4-dihydroxy-N-methyloxolane-2-carboxamide

$$$$
