
     RDKit          3D

 39 41  0  0  0  0  0  0  0  0999 V2000
   -2.3075    3.0592    1.9171 F   0  0  0  0  0  0  0  0  0  0  0  0
   -2.7766    2.0135    1.1736 C   0  0  0  0  0  0  0  0  0  0  0  0
   -2.0290    1.8821   -0.1685 C   0  0  0  0  0  0  0  0  0  0  0  0
   -2.6425    0.7470   -0.8141 N   0  0  0  0  0  0  0  0  0  0  0  0
   -3.7452    0.8993   -1.5691 N   0  0  0  0  0  0  0  0  0  0  0  0
   -4.1608   -0.2910   -2.0274 C   0  0  0  0  0  0  0  0  0  0  0  0
   -3.2702   -1.2110   -1.5295 C   0  0  0  0  0  0  0  0  0  0  0  0
   -2.3120   -0.5310   -0.7617 C   0  0  0  0  0  0  0  0  0  0  0  0
   -1.2570   -1.2516   -0.0754 C   0  0  0  0  0  0  0  0  0  0  0  0
   -1.6836   -2.2605    0.8004 C   0  0  0  0  0  0  0  0  0  0  0  0
   -0.7927   -3.0415    1.5034 C   0  0  0  0  0  0  0  0  0  0  0  0
    0.5566   -2.8169    1.3340 C   0  0  0  0  0  0  0  0  0  0  0  0
    0.9810   -1.8267    0.4732 C   0  0  0  0  0  0  0  0  0  0  0  0
    0.0872   -1.0300   -0.2446 C   0  0  0  0  0  0  0  0  0  0  0  0
    0.5742   -0.0799   -1.1489 N   0  0  0  0  0  0  0  0  0  0  0  0
    1.9756    0.1436   -1.2955 C   0  0  0  0  0  0  0  0  0  0  0  0
    2.6341    0.6683   -0.0534 C   0  0  0  0  0  0  0  0  0  0  0  0
    2.1457    0.9790    1.0731 N   0  0  0  0  0  0  0  0  0  0  0  0
    3.1052    1.4489    2.0214 C   0  0  0  0  0  0  0  0  0  0  0  0
    4.4148    1.1183    1.3744 C   0  0  0  0  0  0  0  0  0  0  0  0
    4.0437    0.9049   -0.0098 N   0  0  0  0  0  0  0  0  0  0  0  0
   -4.1307    2.1145    0.8926 F   0  0  0  0  0  0  0  0  0  0  0  0
   -2.6012    0.8141    1.8284 F   0  0  0  0  0  0  0  0  0  0  0  0
   -2.1898    2.8123   -0.7724 H   0  0  0  0  0  0  0  0  0  0  0  0
   -0.9682    1.8204    0.0242 H   0  0  0  0  0  0  0  0  0  0  0  0
   -5.0334   -0.4289   -2.6603 H   0  0  0  0  0  0  0  0  0  0  0  0
   -3.3352   -2.2720   -1.7226 H   0  0  0  0  0  0  0  0  0  0  0  0
   -2.7409   -2.4621    0.9555 H   0  0  0  0  0  0  0  0  0  0  0  0
   -1.1770   -3.8192    2.1774 H   0  0  0  0  0  0  0  0  0  0  0  0
    1.2687   -3.4351    1.8916 H   0  0  0  0  0  0  0  0  0  0  0  0
    2.0584   -1.7073    0.3846 H   0  0  0  0  0  0  0  0  0  0  0  0
   -0.1034    0.4629   -1.7280 H   0  0  0  0  0  0  0  0  0  0  0  0
    2.4695   -0.8175   -1.5625 H   0  0  0  0  0  0  0  0  0  0  0  0
    2.1385    0.8538   -2.1245 H   0  0  0  0  0  0  0  0  0  0  0  0
    3.0398    2.5256    2.2652 H   0  0  0  0  0  0  0  0  0  0  0  0
    2.9989    0.9314    3.0187 H   0  0  0  0  0  0  0  0  0  0  0  0
    5.1499    1.9651    1.4451 H   0  0  0  0  0  0  0  0  0  0  0  0
    4.8935    0.1882    1.7848 H   0  0  0  0  0  0  0  0  0  0  0  0
    4.7214    0.9299   -0.7950 H   0  0  0  0  0  0  0  0  0  0  0  0
  1  2  1  0
  2  3  1  0
  3  4  1  0
  4  5  1  0
  5  6  2  0
  6  7  1  0
  7  8  2  0
  8  9  1  0
  9 10  2  0
 10 11  1  0
 11 12  2  0
 12 13  1  0
 13 14  2  0
 14 15  1  0
 15 16  1  0
 16 17  1  0
 17 18  2  0
 18 19  1  0
 19 20  1  0
 20 21  1  0
  2 22  1  0
  2 23  1  0
  8  4  1  0
 14  9  1  0
 21 17  1  0
  3 24  1  0
  3 25  1  0
  6 26  1  0
  7 27  1  0
 10 28  1  0
 11 29  1  0
 12 30  1  0
 13 31  1  0
 15 32  1  0
 16 33  1  0
 16 34  1  0
 19 35  1  0
 19 36  1  0
 20 37  1  0
 20 38  1  0
 21 39  1  0
M  END
>  <Ligand ID>  (1) 
LIG0003176

>  <Ligand>  (1) 
CHEMBL277361

>  <SMILES>  (1) 
FC(Cn1nccc1c1ccccc1NCC1=NCCN1)(F)F

>  <CID>  (1) 
22493344.0

>  <ChEMBL ID>  (1) 
nan

>  <InChiKey>  (1) 
ZWAHQJYEXSYDNK-UHFFFAOYSA-N

>  <InChi>  (1) 
InChI=1S/C15H16F3N5/c16-15(17,18)10-23-13(5-6-22-23)11-3-1-2-4-12(11)21-9-14-19-7-8-20-14/h1-6,21H,7-10H2,(H,19,20)

>  <IUPAC Name>  (1) 
N-(4,5-dihydro-1H-imidazol-2-ylmethyl)-2-[2-(2,2,2-trifluoroethyl)pyrazol-3-yl]aniline

$$$$
