
     RDKit          3D

 81 83  0  0  0  0  0  0  0  0999 V2000
   -1.9167    1.5403    2.3845 O   0  0  0  0  0  0  0  0  0  0  0  0
   -2.7460    1.4751    1.4145 C   0  0  0  0  0  0  0  0  0  0  0  0
   -2.5494    0.3816    0.5248 N   0  0  0  0  0  0  0  0  0  0  0  0
   -1.4909   -0.5963    0.6919 C   0  0  2  0  0  0  0  0  0  0  0  0
   -0.6620   -0.6646   -0.5370 C   0  0  0  0  0  0  0  0  0  0  0  0
   -0.8890    0.0349   -1.5637 O   0  0  0  0  0  0  0  0  0  0  0  0
    0.4488   -1.5867   -0.5189 N   0  0  0  0  0  0  0  0  0  0  0  0
    1.3320   -1.7460   -1.6514 C   0  0  1  0  0  0  0  0  0  0  0  0
    2.7259   -1.2667   -1.3277 C   0  0  0  0  0  0  0  0  0  0  0  0
    3.5460   -1.3646   -2.2719 O   0  0  0  0  0  0  0  0  0  0  0  0
    2.9888   -0.7666   -0.0416 N   0  0  0  0  0  0  0  0  0  0  0  0
    4.1968   -0.2474    0.4943 C   0  0  1  0  0  0  0  0  0  0  0  0
    4.8294   -1.1063    1.5150 C   0  0  0  0  0  0  0  0  0  0  0  0
    4.3495   -2.2153    1.8877 O   0  0  0  0  0  0  0  0  0  0  0  0
    6.0423   -0.6698    2.1150 N   0  0  0  0  0  0  0  0  0  0  0  0
    5.1711    0.2584   -0.5230 C   0  0  0  0  0  0  0  0  0  0  0  0
    4.7588    1.3971   -1.3841 C   0  0  0  0  0  0  0  0  0  0  0  0
    4.4528    2.6937   -0.6934 C   0  0  0  0  0  0  0  0  0  0  0  0
    3.3626    2.6772    0.2282 N   0  0  0  0  0  0  0  0  0  0  0  0
    3.3227    3.5389    1.1998 C   0  0  0  0  0  0  0  0  0  0  0  0
    2.2566    3.5509    2.1316 N   0  0  0  0  0  0  0  0  0  0  0  0
    4.3505    4.5146    1.3756 N   0  0  0  0  0  0  0  0  0  0  0  0
    1.3476   -3.1355   -2.2040 C   0  0  0  0  0  0  0  0  0  0  0  0
    1.7805   -4.1597   -1.2454 C   0  0  0  0  0  0  0  0  0  0  0  0
    0.9135   -4.8361   -0.4072 C   0  0  0  0  0  0  0  0  0  0  0  0
    1.3278   -5.7971    0.4915 C   0  0  0  0  0  0  0  0  0  0  0  0
    2.6606   -6.1247    0.5866 C   0  0  0  0  0  0  0  0  0  0  0  0
    3.5348   -5.4583   -0.2429 C   0  0  0  0  0  0  0  0  0  0  0  0
    3.1145   -4.4884   -1.1495 C   0  0  0  0  0  0  0  0  0  0  0  0
   -2.1349   -1.9528    0.9199 C   0  0  0  0  0  0  0  0  0  0  0  0
   -2.9700   -2.2968   -0.2363 C   0  0  0  0  0  0  0  0  0  0  0  0
   -4.3225   -1.9483   -0.3169 C   0  0  0  0  0  0  0  0  0  0  0  0
   -4.8088   -2.3974   -1.4830 N   0  0  0  0  0  0  0  0  0  0  0  0
   -3.8097   -3.0188   -2.1437 C   0  0  0  0  0  0  0  0  0  0  0  0
   -2.7054   -2.9480   -1.3743 N   0  0  0  0  0  0  0  0  0  0  0  0
   -3.8104    2.4586    1.2470 C   0  0  0  0  0  0  0  0  0  0  0  0
   -4.6886    2.4511    0.2825 C   0  0  0  0  0  0  0  0  0  0  0  0
   -5.7525    3.4280    0.1088 C   0  0  0  0  0  0  0  0  0  0  0  0
   -5.9444    4.4945    0.9732 C   0  0  0  0  0  0  0  0  0  0  0  0
   -6.9660    5.4044    0.7791 C   0  0  0  0  0  0  0  0  0  0  0  0
   -7.8414    5.2983   -0.2780 C   0  0  0  0  0  0  0  0  0  0  0  0
   -7.6628    4.2298   -1.1587 C   0  0  0  0  0  0  0  0  0  0  0  0
   -6.6371    3.3344   -0.9456 C   0  0  0  0  0  0  0  0  0  0  0  0
   -8.4886    4.0319   -2.2542 O   0  0  0  0  0  0  0  0  0  0  0  0
   -3.1772    0.2465   -0.2964 H   0  0  0  0  0  0  0  0  0  0  0  0
   -0.8987   -0.3422    1.5951 H   0  0  0  0  0  0  0  0  0  0  0  0
    0.6460   -2.1723    0.3284 H   0  0  0  0  0  0  0  0  0  0  0  0
    0.9734   -1.0735   -2.4576 H   0  0  0  0  0  0  0  0  0  0  0  0
    2.1510   -0.7805    0.6332 H   0  0  0  0  0  0  0  0  0  0  0  0
    3.9247    0.7113    1.0695 H   0  0  0  0  0  0  0  0  0  0  0  0
    6.7392   -1.3948    2.4422 H   0  0  0  0  0  0  0  0  0  0  0  0
    6.2993    0.3268    2.2583 H   0  0  0  0  0  0  0  0  0  0  0  0
    6.1312    0.5602   -0.0265 H   0  0  0  0  0  0  0  0  0  0  0  0
    5.4622   -0.5916   -1.2175 H   0  0  0  0  0  0  0  0  0  0  0  0
    3.8470    1.1702   -1.9880 H   0  0  0  0  0  0  0  0  0  0  0  0
    5.5599    1.5905   -2.1727 H   0  0  0  0  0  0  0  0  0  0  0  0
    5.3779    3.0896   -0.2000 H   0  0  0  0  0  0  0  0  0  0  0  0
    4.1995    3.4393   -1.4978 H   0  0  0  0  0  0  0  0  0  0  0  0
    2.0221    2.7717    2.7664 H   0  0  0  0  0  0  0  0  0  0  0  0
    1.6500    4.4067    2.1952 H   0  0  0  0  0  0  0  0  0  0  0  0
    4.2160    5.5194    1.1437 H   0  0  0  0  0  0  0  0  0  0  0  0
    5.2940    4.2458    1.7515 H   0  0  0  0  0  0  0  0  0  0  0  0
    0.3790   -3.3559   -2.6470 H   0  0  0  0  0  0  0  0  0  0  0  0
    2.0969   -3.1222   -3.0448 H   0  0  0  0  0  0  0  0  0  0  0  0
   -0.1456   -4.6211   -0.4364 H   0  0  0  0  0  0  0  0  0  0  0  0
    0.6504   -6.3296    1.1511 H   0  0  0  0  0  0  0  0  0  0  0  0
    3.0157   -6.8738    1.2819 H   0  0  0  0  0  0  0  0  0  0  0  0
    4.5787   -5.7227   -0.1602 H   0  0  0  0  0  0  0  0  0  0  0  0
    3.8926   -4.0385   -1.7429 H   0  0  0  0  0  0  0  0  0  0  0  0
   -1.3345   -2.7184    1.0665 H   0  0  0  0  0  0  0  0  0  0  0  0
   -2.6915   -1.9114    1.8634 H   0  0  0  0  0  0  0  0  0  0  0  0
   -4.8862   -1.4100    0.4278 H   0  0  0  0  0  0  0  0  0  0  0  0
   -3.8807   -3.4832   -3.1037 H   0  0  0  0  0  0  0  0  0  0  0  0
   -1.7842   -3.3378   -1.6215 H   0  0  0  0  0  0  0  0  0  0  0  0
   -3.8603    3.2437    1.9854 H   0  0  0  0  0  0  0  0  0  0  0  0
   -4.6220    1.6537   -0.4482 H   0  0  0  0  0  0  0  0  0  0  0  0
   -5.3041    4.6458    1.8210 H   0  0  0  0  0  0  0  0  0  0  0  0
   -7.1229    6.2449    1.4539 H   0  0  0  0  0  0  0  0  0  0  0  0
   -8.6407    5.9996   -0.4408 H   0  0  0  0  0  0  0  0  0  0  0  0
   -6.5117    2.5138   -1.6354 H   0  0  0  0  0  0  0  0  0  0  0  0
   -8.2626    4.4988   -3.1211 H   0  0  0  0  0  0  0  0  0  0  0  0
  1  2  2  0
  2  3  1  0
  3  4  1  0
  4  5  1  0
  5  6  2  0
  5  7  1  0
  7  8  1  0
  8  9  1  0
  9 10  2  0
  9 11  1  0
 11 12  1  0
 12 13  1  0
 13 14  2  0
 13 15  1  0
 12 16  1  0
 16 17  1  0
 17 18  1  0
 18 19  1  0
 19 20  2  3
 20 21  1  0
 20 22  1  0
  8 23  1  0
 23 24  1  0
 24 25  2  0
 25 26  1  0
 26 27  2  0
 27 28  1  0
 28 29  2  0
  4 30  1  0
 30 31  1  0
 31 32  2  0
 32 33  1  0
 33 34  2  0
 34 35  1  0
  2 36  1  0
 36 37  2  0
 37 38  1  0
 38 39  2  0
 39 40  1  0
 40 41  2  0
 41 42  1  0
 42 43  2  0
 42 44  1  0
 29 24  1  0
 35 31  1  0
 43 38  1  0
  3 45  1  0
  4 46  1  1
  7 47  1  0
  8 48  1  6
 11 49  1  0
 12 50  1  1
 15 51  1  0
 15 52  1  0
 16 53  1  0
 16 54  1  0
 17 55  1  0
 17 56  1  0
 18 57  1  0
 18 58  1  0
 21 59  1  0
 21 60  1  0
 22 61  1  0
 22 62  1  0
 23 63  1  0
 23 64  1  0
 25 65  1  0
 26 66  1  0
 27 67  1  0
 28 68  1  0
 29 69  1  0
 30 70  1  0
 30 71  1  0
 32 72  1  0
 34 73  1  0
 35 74  1  0
 36 75  1  0
 37 76  1  0
 39 77  1  0
 40 78  1  0
 41 79  1  0
 43 80  1  0
 44 81  1  0
M  END
>  <Ligand ID>  (1) 
LIG0002652

>  <Ligand>  (1) 
CHEMBL567240

>  <SMILES>  (1) 
O=C(N[C@H](C(=O)N[C@@H](C(=O)N[C@@H](C(=O)N)CCCN=C(N)N)Cc1ccccc1)Cc1cnc[nH]1)/C=C/c1cccc(c1)O

>  <CID>  (1) 
45487411.0

>  <ChEMBL ID>  (1) 
nan

>  <InChiKey>  (1) 
UXZKJVKZYBANRZ-ZUQJSNLJSA-N

>  <InChi>  (1) 
InChI=1S/C30H37N9O5/c31-27(42)23(10-5-13-35-30(32)33)38-28(43)24(15-19-6-2-1-3-7-19)39-29(44)25(16-21-17-34-18-36-21)37-26(41)12-11-20-8-4-9-22(40)14-20/h1-4,6-9,11-12,14,17-18,23-25,40H,5,10,13,15-16H2,(H2,31,42)(H,34,36)(H,37,41)(H,38,43)(H,39,44)(H4,32,33,35)/b12-11+/t23-,24-,25+/m1/s1

>  <IUPAC Name>  (1) 
(2R)-5-(diaminomethylideneamino)-2-[[(2R)-2-[[(2S)-2-[[(E)-3-(3-hydroxyphenyl)prop-2-enoyl]amino]-3-(1H-imidazol-5-yl)propanoyl]amino]-3-phenylpropanoyl]amino]pentanamide

$$$$
