
     RDKit          3D

 69 75  0  0  0  0  0  0  0  0999 V2000
    1.5283    1.3304   -2.0443 C   0  0  0  0  0  0  0  0  0  0  0  0
    1.3088    1.3570   -0.6908 O   0  0  0  0  0  0  0  0  0  0  0  0
    0.4311    0.4402   -0.1885 C   0  0  2  0  0  0  0  0  0  0  0  0
    0.2021    0.8184    1.2839 C   0  0  0  0  0  0  0  0  0  0  0  0
   -0.7749   -0.1010    1.9252 C   0  0  0  0  0  0  0  0  0  0  0  0
   -1.2895   -1.0996    0.9120 C   0  0  2  0  0  0  0  0  0  0  0  0
   -0.1792   -1.8922    0.3569 C   0  0  0  0  0  0  0  0  0  0  0  0
    0.9599   -0.9854   -0.1082 C   0  0  2  0  0  0  0  0  0  0  0  0
    2.0427   -1.1063    0.8958 C   0  0  0  0  0  0  0  0  0  0  0  0
    3.1995   -0.3839    0.7215 O   0  0  0  0  0  0  0  0  0  0  0  0
    3.9236   -0.8370   -0.3459 C   0  0  0  0  0  0  0  0  0  0  0  0
    5.1864   -0.0600   -0.5363 C   0  0  0  0  0  0  0  0  0  0  0  0
    6.3520   -0.4718    0.1209 C   0  0  0  0  0  0  0  0  0  0  0  0
    7.5375    0.2041   -0.0211 C   0  0  0  0  0  0  0  0  0  0  0  0
    7.6215    1.3308   -0.8298 C   0  0  0  0  0  0  0  0  0  0  0  0
    6.4825    1.7331   -1.4719 C   0  0  0  0  0  0  0  0  0  0  0  0
    5.2944    1.0470   -1.3232 C   0  0  0  0  0  0  0  0  0  0  0  0
   -1.8984   -0.3141   -0.2377 C   0  0  2  0  0  0  0  0  0  0  0  0
   -0.8504    0.5369   -0.9130 C   0  0  1  0  0  0  0  0  0  0  0  0
   -1.4449    1.8126   -0.8801 O   0  0  0  0  0  0  0  0  0  0  0  0
   -2.4991    1.8970    0.0141 C   0  0  0  0  0  0  0  0  0  0  0  0
   -2.7643    0.6530    0.4534 C   0  0  0  0  0  0  0  0  0  0  0  0
   -3.6941    0.2281    1.3467 C   0  0  0  0  0  0  0  0  0  0  0  0
   -3.7036   -1.1902    1.7273 C   0  0  0  0  0  0  0  0  0  0  0  0
   -2.4225   -1.9453    1.4225 C   0  0  1  0  0  0  0  0  0  0  0  0
   -2.6755   -2.8953    0.3479 N   0  0  0  0  0  0  0  0  0  0  0  0
   -3.3528   -2.3140   -0.7534 C   0  0  0  0  0  0  0  0  0  0  0  0
   -2.6410   -1.0911   -1.2394 C   0  0  0  0  0  0  0  0  0  0  0  0
   -3.2173   -4.1305    0.8109 C   0  0  0  0  0  0  0  0  0  0  0  0
   -4.4998    1.2197    1.8845 C   0  0  0  0  0  0  0  0  0  0  0  0
   -4.3021    2.5492    1.4833 C   0  0  0  0  0  0  0  0  0  0  0  0
   -3.3117    2.9005    0.5557 C   0  0  0  0  0  0  0  0  0  0  0  0
   -3.0989    4.2758    0.1356 C   0  0  0  0  0  0  0  0  0  0  0  0
   -3.8395    5.1537    0.6355 O   0  0  0  0  0  0  0  0  0  0  0  0
   -2.0941    4.5957   -0.7994 N   0  0  0  0  0  0  0  0  0  0  0  0
    0.5909    1.5362   -2.6312 H   0  0  0  0  0  0  0  0  0  0  0  0
    2.2410    2.1062   -2.3868 H   0  0  0  0  0  0  0  0  0  0  0  0
    1.8733    0.3626   -2.4422 H   0  0  0  0  0  0  0  0  0  0  0  0
    1.1453    0.9609    1.8338 H   0  0  0  0  0  0  0  0  0  0  0  0
   -0.2235    1.8714    1.2170 H   0  0  0  0  0  0  0  0  0  0  0  0
   -0.3809   -0.6778    2.7867 H   0  0  0  0  0  0  0  0  0  0  0  0
   -1.5720    0.5369    2.3701 H   0  0  0  0  0  0  0  0  0  0  0  0
   -0.5368   -2.4347   -0.5371 H   0  0  0  0  0  0  0  0  0  0  0  0
    0.2016   -2.6808    1.0445 H   0  0  0  0  0  0  0  0  0  0  0  0
    1.3294   -1.3187   -1.0931 H   0  0  0  0  0  0  0  0  0  0  0  0
    2.3092   -2.2325    0.9277 H   0  0  0  0  0  0  0  0  0  0  0  0
    1.7407   -0.9379    1.9575 H   0  0  0  0  0  0  0  0  0  0  0  0
    3.3014   -0.9074   -1.2400 H   0  0  0  0  0  0  0  0  0  0  0  0
    4.2776   -1.9115   -0.1641 H   0  0  0  0  0  0  0  0  0  0  0  0
    6.3249   -1.3397    0.7551 H   0  0  0  0  0  0  0  0  0  0  0  0
    8.4324   -0.1348    0.5003 H   0  0  0  0  0  0  0  0  0  0  0  0
    8.5696    1.8483   -0.9262 H   0  0  0  0  0  0  0  0  0  0  0  0
    6.5494    2.6118   -2.1021 H   0  0  0  0  0  0  0  0  0  0  0  0
    4.4386    1.4096   -1.8523 H   0  0  0  0  0  0  0  0  0  0  0  0
   -0.7922    0.2251   -1.9805 H   0  0  0  0  0  0  0  0  0  0  0  0
   -3.8117   -1.2509    2.8614 H   0  0  0  0  0  0  0  0  0  0  0  0
   -4.5733   -1.7696    1.3673 H   0  0  0  0  0  0  0  0  0  0  0  0
   -2.0675   -2.5144    2.2989 H   0  0  0  0  0  0  0  0  0  0  0  0
   -4.4355   -2.0876   -0.5738 H   0  0  0  0  0  0  0  0  0  0  0  0
   -3.3660   -3.0980   -1.5652 H   0  0  0  0  0  0  0  0  0  0  0  0
   -3.4430   -0.4070   -1.6662 H   0  0  0  0  0  0  0  0  0  0  0  0
   -2.0329   -1.3487   -2.1502 H   0  0  0  0  0  0  0  0  0  0  0  0
   -2.4443   -4.6348    1.4235 H   0  0  0  0  0  0  0  0  0  0  0  0
   -3.3699   -4.7714   -0.0819 H   0  0  0  0  0  0  0  0  0  0  0  0
   -4.1937   -4.0681    1.3075 H   0  0  0  0  0  0  0  0  0  0  0  0
   -5.2563    0.9371    2.5974 H   0  0  0  0  0  0  0  0  0  0  0  0
   -4.9438    3.3370    1.9102 H   0  0  0  0  0  0  0  0  0  0  0  0
   -1.5905    5.5029   -0.6676 H   0  0  0  0  0  0  0  0  0  0  0  0
   -1.8081    4.0143   -1.6061 H   0  0  0  0  0  0  0  0  0  0  0  0
  1  2  1  0
  3  2  1  6
  3  4  1  0
  4  5  1  0
  6  5  1  1
  6  7  1  0
  7  8  1  0
  8  9  1  0
  9 10  1  0
 10 11  1  0
 11 12  1  0
 12 13  2  0
 13 14  1  0
 14 15  2  0
 15 16  1  0
 16 17  2  0
  6 18  1  0
 18 19  1  0
 19 20  1  0
 20 21  1  0
 21 22  2  0
 22 23  1  0
 23 24  1  0
 24 25  1  0
 25 26  1  0
 26 27  1  0
 27 28  1  0
 26 29  1  0
 23 30  2  0
 30 31  1  0
 31 32  2  0
 32 33  1  0
 33 34  2  0
 33 35  1  0
  8  3  1  0
 17 12  1  0
 18 28  1  6
 19  3  1  0
 32 21  1  0
 25  6  1  0
 22 18  1  0
  1 36  1  0
  1 37  1  0
  1 38  1  0
  4 39  1  0
  4 40  1  0
  5 41  1  0
  5 42  1  0
  7 43  1  0
  7 44  1  0
  8 45  1  6
  9 46  1  0
  9 47  1  0
 11 48  1  0
 11 49  1  0
 13 50  1  0
 14 51  1  0
 15 52  1  0
 16 53  1  0
 17 54  1  0
 19 55  1  6
 24 56  1  0
 24 57  1  0
 25 58  1  1
 27 59  1  0
 27 60  1  0
 28 61  1  0
 28 62  1  0
 29 63  1  0
 29 64  1  0
 29 65  1  0
 30 66  1  0
 31 67  1  0
 35 68  1  0
 35 69  1  0
M  END
>  <Ligand ID>  (1) 
LIG0004586

>  <Ligand>  (1) 
SCHEMBL15486306

>  <SMILES>  (1) 
CO[C@]12CC[C@]3(C[C@@H]1COCc1ccccc1)[C@@]14[C@H]2Oc2c4c(C[C@H]3N(CC1)C)ccc2C(=O)N

>  <CID>  (1) 
86711645.0

>  <ChEMBL ID>  (1) 
nan

>  <InChiKey>  (1) 
YWZUTHYBZDSTKA-IPRXQQHWSA-N

>  <InChi>  (1) 
InChI=1S/C29H34N2O4/c1-31-13-12-28-23-19-8-9-21(25(30)32)24(23)35-26(28)29(33-2)11-10-27(28,22(31)14-19)15-20(29)17-34-16-18-6-4-3-5-7-18/h3-9,20,22,26H,10-17H2,1-2H3,(H2,30,32)/t20-,22-,26-,27-,28+,29-/m1/s1

>  <IUPAC Name>  (1) 
(1S,2S,6R,14R,15R,16R)-15-methoxy-5-methyl-16-(phenylmethoxymethyl)-13-oxa-5-azahexacyclo[13.2.2.12,8.01,6.02,14.012,20]icosa-8(20),9,11-triene-11-carboxamide

$$$$
