
     RDKit          3D

 69 72  0  0  0  0  0  0  0  0999 V2000
    4.6638   -6.2617   -0.9868 C   0  0  0  0  0  0  0  0  0  0  0  0
    3.5748   -5.4046   -1.2218 O   0  0  0  0  0  0  0  0  0  0  0  0
    3.7264   -4.0169   -1.0283 C   0  0  0  0  0  0  0  0  0  0  0  0
    4.8525   -3.6466   -0.6510 O   0  0  0  0  0  0  0  0  0  0  0  0
    2.6024   -3.2059   -1.2795 N   0  0  0  0  0  0  0  0  0  0  0  0
    1.3149   -3.7986   -1.6508 C   0  0  0  0  0  0  0  0  0  0  0  0
    0.3401   -3.3109   -0.5986 C   0  0  0  0  0  0  0  0  0  0  0  0
    0.1147   -1.8009   -0.7284 C   0  0  2  0  0  0  0  0  0  0  0  0
    1.4097   -1.1525   -0.9049 C   0  0  0  0  0  0  0  0  0  0  0  0
    2.6024   -1.7817   -1.1795 C   0  0  0  0  0  0  0  0  0  0  0  0
    3.7975   -1.1216   -1.3542 C   0  0  0  0  0  0  0  0  0  0  0  0
    3.8312    0.2542   -1.2517 C   0  0  0  0  0  0  0  0  0  0  0  0
    2.6494    0.9308   -0.9742 C   0  0  0  0  0  0  0  0  0  0  0  0
    1.4684    0.2435   -0.8054 C   0  0  0  0  0  0  0  0  0  0  0  0
    2.7541    2.4129   -0.8762 C   0  0  0  0  0  0  0  0  0  0  0  0
    3.1035    2.8764    0.4899 C   0  0  0  0  0  0  0  0  0  0  0  0
    2.1643    3.1687    1.4564 C   0  0  0  0  0  0  0  0  0  0  0  0
    2.6303    3.5948    2.7010 C   0  0  0  0  0  0  0  0  0  0  0  0
    3.9924    3.7202    2.9568 C   0  0  0  0  0  0  0  0  0  0  0  0
    4.9313    3.4281    1.9910 C   0  0  0  0  0  0  0  0  0  0  0  0
    4.4693    3.0060    0.7586 C   0  0  0  0  0  0  0  0  0  0  0  0
   -0.5955   -1.4274    0.4853 N   0  0  0  0  0  0  0  0  0  0  0  0
   -1.9851   -1.0330    0.4328 C   0  0  0  0  0  0  0  0  0  0  0  0
   -2.4779   -1.0557   -0.7489 O   0  0  0  0  0  0  0  0  0  0  0  0
   -2.7498   -0.6492    1.6008 C   0  0  2  0  0  0  0  0  0  0  0  0
   -3.1612    0.7748    1.7473 C   0  0  0  0  0  0  0  0  0  0  0  0
   -3.9833    1.3608    0.6986 C   0  0  0  0  0  0  0  0  0  0  0  0
   -3.5021    1.9121   -0.4752 C   0  0  0  0  0  0  0  0  0  0  0  0
   -2.0560    2.0618   -0.7708 C   0  0  0  0  0  0  0  0  0  0  0  0
   -4.3700    2.4134   -1.4534 C   0  0  0  0  0  0  0  0  0  0  0  0
   -5.7368    2.3866   -1.3011 C   0  0  0  0  0  0  0  0  0  0  0  0
   -6.2206    1.8383   -0.1295 C   0  0  0  0  0  0  0  0  0  0  0  0
   -5.3747    1.3426    0.8372 C   0  0  0  0  0  0  0  0  0  0  0  0
   -5.9752    0.7724    2.0745 C   0  0  0  0  0  0  0  0  0  0  0  0
   -6.5702    2.8901   -2.2868 O   0  0  0  0  0  0  0  0  0  0  0  0
   -2.0342   -0.9695    2.8528 N   0  0  0  0  0  0  0  0  0  0  0  0
    4.2349   -7.2659   -0.7730 H   0  0  0  0  0  0  0  0  0  0  0  0
    5.2547   -6.3518   -1.9183 H   0  0  0  0  0  0  0  0  0  0  0  0
    5.3036   -5.9313   -0.1649 H   0  0  0  0  0  0  0  0  0  0  0  0
    1.0029   -3.5776   -2.6691 H   0  0  0  0  0  0  0  0  0  0  0  0
    1.4074   -4.8897   -1.4878 H   0  0  0  0  0  0  0  0  0  0  0  0
    0.7936   -3.4714    0.3974 H   0  0  0  0  0  0  0  0  0  0  0  0
   -0.6098   -3.8580   -0.6352 H   0  0  0  0  0  0  0  0  0  0  0  0
   -0.5563   -1.6744   -1.6267 H   0  0  0  0  0  0  0  0  0  0  0  0
    4.7073   -1.6459   -1.5768 H   0  0  0  0  0  0  0  0  0  0  0  0
    4.7525    0.7678   -1.3856 H   0  0  0  0  0  0  0  0  0  0  0  0
    0.5907    0.8264   -0.5931 H   0  0  0  0  0  0  0  0  0  0  0  0
    1.7646    2.8089   -1.1894 H   0  0  0  0  0  0  0  0  0  0  0  0
    3.4985    2.7671   -1.6290 H   0  0  0  0  0  0  0  0  0  0  0  0
    1.1156    3.0636    1.2321 H   0  0  0  0  0  0  0  0  0  0  0  0
    1.9162    3.8369    3.4957 H   0  0  0  0  0  0  0  0  0  0  0  0
    4.3646    4.0544    3.9327 H   0  0  0  0  0  0  0  0  0  0  0  0
    5.9937    3.5154    2.1586 H   0  0  0  0  0  0  0  0  0  0  0  0
    5.2083    2.7710   -0.0150 H   0  0  0  0  0  0  0  0  0  0  0  0
   -0.0926   -1.4461    1.3962 H   0  0  0  0  0  0  0  0  0  0  0  0
   -3.6584   -1.2842    1.6518 H   0  0  0  0  0  0  0  0  0  0  0  0
   -2.2493    1.4190    1.9450 H   0  0  0  0  0  0  0  0  0  0  0  0
   -3.7444    0.9148    2.7135 H   0  0  0  0  0  0  0  0  0  0  0  0
   -1.6976    1.4166   -1.5989 H   0  0  0  0  0  0  0  0  0  0  0  0
   -1.4837    1.7841    0.1315 H   0  0  0  0  0  0  0  0  0  0  0  0
   -1.8105    3.1330   -0.9470 H   0  0  0  0  0  0  0  0  0  0  0  0
   -3.9949    2.8461   -2.3774 H   0  0  0  0  0  0  0  0  0  0  0  0
   -7.3060    1.8089    0.0083 H   0  0  0  0  0  0  0  0  0  0  0  0
   -5.7523   -0.2910    2.2340 H   0  0  0  0  0  0  0  0  0  0  0  0
   -5.7035    1.3989    2.9744 H   0  0  0  0  0  0  0  0  0  0  0  0
   -7.0824    0.8411    2.0364 H   0  0  0  0  0  0  0  0  0  0  0  0
   -7.5274    3.1306   -2.1521 H   0  0  0  0  0  0  0  0  0  0  0  0
   -1.5953   -1.9036    2.6951 H   0  0  0  0  0  0  0  0  0  0  0  0
   -1.2463   -0.2658    2.9104 H   0  0  0  0  0  0  0  0  0  0  0  0
  1  2  1  0
  2  3  1  0
  3  4  2  0
  3  5  1  0
  5  6  1  0
  6  7  1  0
  7  8  1  0
  8  9  1  0
  9 10  2  0
 10 11  1  0
 11 12  2  0
 12 13  1  0
 13 14  2  0
 13 15  1  0
 15 16  1  0
 16 17  2  0
 17 18  1  0
 18 19  2  0
 19 20  1  0
 20 21  2  0
  8 22  1  0
 22 23  1  0
 23 24  2  0
 23 25  1  0
 25 26  1  0
 26 27  1  0
 27 28  2  0
 28 29  1  0
 28 30  1  0
 30 31  2  0
 31 32  1  0
 32 33  2  0
 33 34  1  0
 31 35  1  0
 25 36  1  0
 10  5  1  0
 21 16  1  0
 33 27  1  0
 14  9  1  0
  1 37  1  0
  1 38  1  0
  1 39  1  0
  6 40  1  0
  6 41  1  0
  7 42  1  0
  7 43  1  0
  8 44  1  6
 11 45  1  0
 12 46  1  0
 14 47  1  0
 15 48  1  0
 15 49  1  0
 17 50  1  0
 18 51  1  0
 19 52  1  0
 20 53  1  0
 21 54  1  0
 22 55  1  0
 25 56  1  1
 26 57  1  0
 26 58  1  0
 29 59  1  0
 29 60  1  0
 29 61  1  0
 30 62  1  0
 32 63  1  0
 34 64  1  0
 34 65  1  0
 34 66  1  0
 35 67  1  0
 36 68  1  0
 36 69  1  0
M  END
>  <Ligand ID>  (1) 
LIG0003758

>  <Ligand>  (1) 
CHEMBL3823830

>  <SMILES>  (1) 
COC(=O)N1CC[C@H](c2c1ccc(c2)Cc1ccccc1)NC(=O)[C@H](Cc1c(C)cc(cc1C)O)N

>  <CID>  (1) 
127049274.0

>  <ChEMBL ID>  (1) 
nan

>  <InChiKey>  (1) 
KHDNPBDGNXJORP-IZZNHLLZSA-N

>  <InChi>  (1) 
InChI=1S/C29H33N3O4/c1-18-13-22(33)14-19(2)23(18)17-25(30)28(34)31-26-11-12-32(29(35)36-3)27-10-9-21(16-24(26)27)15-20-7-5-4-6-8-20/h4-10,13-14,16,25-26,33H,11-12,15,17,30H2,1-3H3,(H,31,34)/t25-,26+/m0/s1

>  <IUPAC Name>  (1) 
methyl (4R)-4-[[(2S)-2-amino-3-(4-hydroxy-2,6-dimethylphenyl)propanoyl]amino]-6-benzyl-3,4-dihydro-2H-quinoline-1-carboxylate

$$$$
