
     RDKit          3D

 24 25  0  0  0  0  0  0  0  0999 V2000
    3.9120   -0.2891   -0.1537 N   0  0  0  0  0  0  0  0  0  0  0  0
    2.8365   -0.3515    0.8487 C   0  0  0  0  0  0  0  0  0  0  0  0
    1.5669    0.1643    0.2336 C   0  0  1  0  0  0  0  0  0  0  0  0
    1.1136   -0.6169   -0.9669 C   0  0  0  0  0  0  0  0  0  0  0  0
    0.3322   -0.6123    0.3559 C   0  0  2  0  0  0  0  0  0  0  0  0
   -1.0067   -0.0346    0.2127 C   0  0  0  0  0  0  0  0  0  0  0  0
   -1.2667    1.3204    0.3889 C   0  0  0  0  0  0  0  0  0  0  0  0
   -2.5621    1.8173    0.2401 C   0  0  0  0  0  0  0  0  0  0  0  0
   -3.5876    0.9380   -0.0865 C   0  0  0  0  0  0  0  0  0  0  0  0
   -3.3451   -0.3998   -0.2630 C   0  0  0  0  0  0  0  0  0  0  0  0
   -2.0542   -0.8771   -0.1119 C   0  0  0  0  0  0  0  0  0  0  0  0
   -1.7754   -2.7646   -0.3721 Br  0  0  0  0  0  0  0  0  0  0  0  0
    3.9647    0.7068   -0.4533 H   0  0  0  0  0  0  0  0  0  0  0  0
    3.7562   -0.9508   -0.9224 H   0  0  0  0  0  0  0  0  0  0  0  0
    3.1524    0.1742    1.7619 H   0  0  0  0  0  0  0  0  0  0  0  0
    2.7586   -1.4499    1.0858 H   0  0  0  0  0  0  0  0  0  0  0  0
    1.5102    1.2654    0.2334 H   0  0  0  0  0  0  0  0  0  0  0  0
    1.6168   -1.5520   -1.2268 H   0  0  0  0  0  0  0  0  0  0  0  0
    0.7180   -0.0566   -1.8300 H   0  0  0  0  0  0  0  0  0  0  0  0
    0.3377   -1.5815    0.9262 H   0  0  0  0  0  0  0  0  0  0  0  0
   -0.4697    1.9982    0.6418 H   0  0  0  0  0  0  0  0  0  0  0  0
   -2.7716    2.8876    0.3786 H   0  0  0  0  0  0  0  0  0  0  0  0
   -4.5941    1.3511   -0.1977 H   0  0  0  0  0  0  0  0  0  0  0  0
   -4.1427   -1.0864   -0.5175 H   0  0  0  0  0  0  0  0  0  0  0  0
  1  2  1  0
  2  3  1  0
  3  4  1  0
  4  5  1  0
  5  6  1  0
  6  7  2  0
  7  8  1  0
  8  9  2  0
  9 10  1  0
 10 11  2  0
 11 12  1  0
  5  3  1  0
 11  6  1  0
  1 13  1  0
  1 14  1  0
  2 15  1  0
  2 16  1  0
  3 17  1  6
  4 18  1  0
  4 19  1  0
  5 20  1  1
  7 21  1  0
  8 22  1  0
  9 23  1  0
 10 24  1  0
M  END
>  <Ligand ID>  (1) 
LIG0002388

>  <Ligand>  (1) 
CHEMBL467736

>  <SMILES>  (1) 
NC[C@H]1C[C@@H]1c1ccccc1Br

>  <CID>  (1) 
44572751.0

>  <ChEMBL ID>  (1) 
nan

>  <InChiKey>  (1) 
WYOKWGHFWKWDEZ-APPZFPTMSA-N

>  <InChi>  (1) 
InChI=1S/C10H12BrN/c11-10-4-2-1-3-8(10)9-5-7(9)6-12/h1-4,7,9H,5-6,12H2/t7-,9+/m1/s1

>  <IUPAC Name>  (1) 
[(1S,2S)-2-(2-bromophenyl)cyclopropyl]methanamine

$$$$
