
     RDKit          3D

 35 37  0  0  0  0  0  0  0  0999 V2000
    4.2533   -0.9297    0.2454 C   0  0  0  0  0  0  0  0  0  0  0  0
    4.1335    0.4839    0.7097 C   0  0  0  0  0  0  0  0  0  0  0  0
    2.8610    1.0595    0.4186 O   0  0  0  0  0  0  0  0  0  0  0  0
    1.8600    0.3704   -0.2288 C   0  0  0  0  0  0  0  0  0  0  0  0
    1.8456   -0.9362   -0.3266 N   0  0  0  0  0  0  0  0  0  0  0  0
    2.9378   -1.6738    0.2784 C   0  0  0  0  0  0  0  0  0  0  0  0
    0.7669    1.0437   -0.8387 N   0  0  0  0  0  0  0  0  0  0  0  0
   -0.5345    0.4887   -1.0368 C   0  0  0  0  0  0  0  0  0  0  0  0
   -1.3928    1.4840   -1.8097 C   0  0  0  0  0  0  0  0  0  0  0  0
   -2.8456    1.1586   -1.8133 C   0  0  0  0  0  0  0  0  0  0  0  0
   -3.0666   -0.2686   -1.3810 C   0  0  0  0  0  0  0  0  0  0  0  0
   -2.5659   -0.3354    0.0312 C   0  0  0  0  0  0  0  0  0  0  0  0
   -1.2359    0.0704    0.1967 C   0  0  0  0  0  0  0  0  0  0  0  0
   -0.6869    0.0531    1.4514 C   0  0  0  0  0  0  0  0  0  0  0  0
   -1.4396   -0.3630    2.5514 C   0  0  0  0  0  0  0  0  0  0  0  0
   -2.7496   -0.7556    2.3407 C   0  0  0  0  0  0  0  0  0  0  0  0
   -3.3271   -0.7466    1.0815 C   0  0  0  0  0  0  0  0  0  0  0  0
    4.9398   -1.4518    0.9379 H   0  0  0  0  0  0  0  0  0  0  0  0
    4.6790   -1.0097   -0.7880 H   0  0  0  0  0  0  0  0  0  0  0  0
    4.8662    1.0860    0.0974 H   0  0  0  0  0  0  0  0  0  0  0  0
    4.4023    0.6488    1.7703 H   0  0  0  0  0  0  0  0  0  0  0  0
    2.6820   -1.8670    1.3548 H   0  0  0  0  0  0  0  0  0  0  0  0
    3.0144   -2.6254   -0.2824 H   0  0  0  0  0  0  0  0  0  0  0  0
    0.9769    2.0376   -1.1580 H   0  0  0  0  0  0  0  0  0  0  0  0
   -0.4968   -0.4406   -1.6790 H   0  0  0  0  0  0  0  0  0  0  0  0
   -0.9497    1.5452   -2.8260 H   0  0  0  0  0  0  0  0  0  0  0  0
   -1.2406    2.4621   -1.3342 H   0  0  0  0  0  0  0  0  0  0  0  0
   -3.3378    1.3041   -2.7928 H   0  0  0  0  0  0  0  0  0  0  0  0
   -3.3706    1.7859   -1.0343 H   0  0  0  0  0  0  0  0  0  0  0  0
   -4.1344   -0.5644   -1.4338 H   0  0  0  0  0  0  0  0  0  0  0  0
   -2.4297   -0.9491   -1.9740 H   0  0  0  0  0  0  0  0  0  0  0  0
    0.3163    0.3560    1.6245 H   0  0  0  0  0  0  0  0  0  0  0  0
   -1.0209   -0.3827    3.5492 H   0  0  0  0  0  0  0  0  0  0  0  0
   -3.3616   -1.0866    3.1873 H   0  0  0  0  0  0  0  0  0  0  0  0
   -4.3484   -1.0516    0.9110 H   0  0  0  0  0  0  0  0  0  0  0  0
  1  2  1  0
  2  3  1  0
  3  4  1  0
  4  5  2  0
  5  6  1  0
  4  7  1  0
  7  8  1  0
  8  9  1  0
  9 10  1  0
 10 11  1  0
 11 12  1  0
 12 13  2  0
 13 14  1  0
 14 15  2  0
 15 16  1  0
 16 17  2  0
  6  1  1  0
 13  8  1  0
 17 12  1  0
  1 18  1  0
  1 19  1  0
  2 20  1  0
  2 21  1  0
  6 22  1  0
  6 23  1  0
  7 24  1  0
  8 25  1  0
  9 26  1  0
  9 27  1  0
 10 28  1  0
 10 29  1  0
 11 30  1  0
 11 31  1  0
 14 32  1  0
 15 33  1  0
 16 34  1  0
 17 35  1  0
M  END
>  <Ligand ID>  (1) 
LIG0002936

>  <Ligand>  (1) 
CHEMBL306377

>  <SMILES>  (1) 
C1COC(=NC1)NC1CCCc2c1cccc2

>  <CID>  (1) 
44314200.0

>  <ChEMBL ID>  (1) 
nan

>  <InChiKey>  (1) 
LAMFPOWZDAOQTK-UHFFFAOYSA-N

>  <InChi>  (1) 
InChI=1S/C14H18N2O/c1-2-7-12-11(5-1)6-3-8-13(12)16-14-15-9-4-10-17-14/h1-2,5,7,13H,3-4,6,8-10H2,(H,15,16)

>  <IUPAC Name>  (1) 
N-(1,2,3,4-tetrahydronaphthalen-1-yl)-5,6-dihydro-4H-1,3-oxazin-2-amine

$$$$
