
     RDKit          3D

127133  0  0  0  0  0  0  0  0999 V2000
    0.0305    7.1822    3.9357 N   0  0  0  0  0  0  0  0  0  0  0  0
    0.5753    5.9211    3.6159 C   0  0  0  0  0  0  0  0  0  0  0  0
    0.5878    5.3659    2.4783 N   0  0  0  0  0  0  0  0  0  0  0  0
    0.0674    5.8614    1.2463 C   0  0  0  0  0  0  0  0  0  0  0  0
    1.2108    6.1107    0.3034 C   0  0  0  0  0  0  0  0  0  0  0  0
    2.0556    4.9267    0.0074 C   0  0  0  0  0  0  0  0  0  0  0  0
    1.4676    3.7414   -0.6541 C   0  0  2  0  0  0  0  0  0  0  0  0
    0.3930    3.0632    0.0057 N   0  0  0  0  0  0  0  0  0  0  0  0
   -0.6675    2.3737   -0.6517 C   0  0  0  0  0  0  0  0  0  0  0  0
   -0.5858    2.3274   -1.8775 O   0  0  0  0  0  0  0  0  0  0  0  0
   -1.8172    1.7331    0.1205 C   0  0  1  0  0  0  0  0  0  0  0  0
   -2.5847    2.8910    0.6503 C   0  0  0  0  0  0  0  0  0  0  0  0
   -3.8232    2.6535    1.4108 C   0  0  0  0  0  0  0  0  0  0  0  0
   -3.9368    2.3600    2.7233 C   0  0  0  0  0  0  0  0  0  0  0  0
   -5.1804    2.2369    3.3353 C   0  0  0  0  0  0  0  0  0  0  0  0
   -6.3687    2.4024    2.6519 C   0  0  0  0  0  0  0  0  0  0  0  0
   -6.2461    2.7055    1.2959 C   0  0  0  0  0  0  0  0  0  0  0  0
   -5.0161    2.8296    0.6853 C   0  0  0  0  0  0  0  0  0  0  0  0
   -7.4161    2.8924    0.5464 C   0  0  0  0  0  0  0  0  0  0  0  0
   -8.6468    2.7720    1.1778 C   0  0  0  0  0  0  0  0  0  0  0  0
   -8.7871    2.4760    2.5109 C   0  0  0  0  0  0  0  0  0  0  0  0
   -7.6117    2.2866    3.2649 C   0  0  0  0  0  0  0  0  0  0  0  0
   -2.6018    0.8989   -0.7510 N   0  0  0  0  0  0  0  0  0  0  0  0
   -2.7056   -0.5125   -0.4692 C   0  0  0  0  0  0  0  0  0  0  0  0
   -2.1201   -0.8072    0.6345 O   0  0  0  0  0  0  0  0  0  0  0  0
   -3.3245   -1.5600   -1.1956 C   0  0  2  0  0  0  0  0  0  0  0  0
   -4.7473   -1.5154   -1.6130 C   0  0  0  0  0  0  0  0  0  0  0  0
   -5.1914   -0.4150   -2.4669 C   0  0  0  0  0  0  0  0  0  0  0  0
   -5.8715    0.7087   -2.0051 C   0  0  0  0  0  0  0  0  0  0  0  0
   -6.2113    1.4813   -3.0424 N   0  0  0  0  0  0  0  0  0  0  0  0
   -5.7705    0.8891   -4.1643 C   0  0  0  0  0  0  0  0  0  0  0  0
   -5.1647   -0.2425   -3.8030 N   0  0  0  0  0  0  0  0  0  0  0  0
   -3.1087   -2.8894   -0.5019 N   0  0  0  0  0  0  0  0  0  0  0  0
   -2.8639   -4.0584   -1.2452 C   0  0  0  0  0  0  0  0  0  0  0  0
   -2.8275   -3.9222   -2.4751 O   0  0  0  0  0  0  0  0  0  0  0  0
   -2.6593   -5.3966   -0.7406 C   0  0  0  0  0  0  0  0  0  0  0  0
   -3.7683   -6.2434   -1.0099 C   0  0  0  0  0  0  0  0  0  0  0  0
   -3.8040   -7.5613   -0.6609 C   0  0  0  0  0  0  0  0  0  0  0  0
   -2.7257   -8.1200   -0.0173 C   0  0  0  0  0  0  0  0  0  0  0  0
   -1.6552   -7.3220    0.2459 C   0  0  0  0  0  0  0  0  0  0  0  0
   -1.6218   -5.9474   -0.1201 C   0  0  0  0  0  0  0  0  0  0  0  0
   -0.3245   -5.3686    0.2223 C   0  0  0  0  0  0  0  0  0  0  0  0
    0.5370   -5.4576   -0.6415 O   0  0  0  0  0  0  0  0  0  0  0  0
    0.0365   -4.7386    1.4244 N   0  0  0  0  0  0  0  0  0  0  0  0
    1.4615   -4.2599    1.4447 C   0  0  0  0  0  0  0  0  0  0  0  0
    1.7957   -3.6774    2.7628 C   0  0  0  0  0  0  0  0  0  0  0  0
    3.2382   -3.3732    2.9780 C   0  0  0  0  0  0  0  0  0  0  0  0
    3.8474   -2.3752    2.1193 C   0  0  0  0  0  0  0  0  0  0  0  0
    4.1584   -2.7726    0.6919 C   0  0  1  0  0  0  0  0  0  0  0  0
    4.6182   -1.5263    0.0010 N   0  0  0  0  0  0  0  0  0  0  0  0
    3.5732   -0.6711   -0.4267 C   0  0  0  0  0  0  0  0  0  0  0  0
    2.4172   -1.0268   -0.1034 O   0  0  0  0  0  0  0  0  0  0  0  0
    3.6934    0.5778   -1.1896 C   0  0  2  0  0  0  0  0  0  0  0  0
    2.4584    1.3651   -0.9639 N   0  0  0  0  0  0  0  0  0  0  0  0
    2.5885    2.7599   -0.9857 C   0  0  0  0  0  0  0  0  0  0  0  0
    3.6867    3.2306   -1.3047 O   0  0  0  0  0  0  0  0  0  0  0  0
    3.7505    0.2153   -2.6737 C   0  0  0  0  0  0  0  0  0  0  0  0
    4.9178   -0.6265   -2.9100 C   0  0  0  0  0  0  0  0  0  0  0  0
    4.9690   -2.0072   -3.1233 C   0  0  0  0  0  0  0  0  0  0  0  0
    6.2649   -2.3498   -3.3067 N   0  0  0  0  0  0  0  0  0  0  0  0
    7.0553   -1.2484   -3.2211 C   0  0  0  0  0  0  0  0  0  0  0  0
    6.2373   -0.1686   -2.9751 C   0  0  0  0  0  0  0  0  0  0  0  0
    6.7456    1.1245   -2.8338 C   0  0  0  0  0  0  0  0  0  0  0  0
    8.1113    1.3566   -2.9399 C   0  0  0  0  0  0  0  0  0  0  0  0
    8.9131    0.2615   -3.1873 C   0  0  0  0  0  0  0  0  0  0  0  0
    8.4247   -1.0244   -3.3297 C   0  0  0  0  0  0  0  0  0  0  0  0
    5.2923   -3.7228    0.6860 C   0  0  0  0  0  0  0  0  0  0  0  0
    5.1456   -4.9078    1.1520 O   0  0  0  0  0  0  0  0  0  0  0  0
    6.5890   -3.4264    0.1892 N   0  0  0  0  0  0  0  0  0  0  0  0
    1.1857    5.1815    4.7005 N   0  0  0  0  0  0  0  0  0  0  0  0
    0.5949    7.9274    4.4284 H   0  0  0  0  0  0  0  0  0  0  0  0
   -0.9621    7.3583    3.6646 H   0  0  0  0  0  0  0  0  0  0  0  0
   -0.3759    6.8866    1.4451 H   0  0  0  0  0  0  0  0  0  0  0  0
   -0.6535    5.2031    0.7739 H   0  0  0  0  0  0  0  0  0  0  0  0
    1.8357    6.9038    0.7876 H   0  0  0  0  0  0  0  0  0  0  0  0
    0.7610    6.5661   -0.6260 H   0  0  0  0  0  0  0  0  0  0  0  0
    2.5412    4.5750    0.9772 H   0  0  0  0  0  0  0  0  0  0  0  0
    2.9241    5.2588   -0.6601 H   0  0  0  0  0  0  0  0  0  0  0  0
    1.1524    4.0468   -1.7125 H   0  0  0  0  0  0  0  0  0  0  0  0
    0.3462    3.0398    1.0259 H   0  0  0  0  0  0  0  0  0  0  0  0
   -1.3827    1.1884    0.9924 H   0  0  0  0  0  0  0  0  0  0  0  0
   -2.7488    3.6930   -0.1094 H   0  0  0  0  0  0  0  0  0  0  0  0
   -1.9272    3.4435    1.4325 H   0  0  0  0  0  0  0  0  0  0  0  0
   -3.0136    2.2226    3.2963 H   0  0  0  0  0  0  0  0  0  0  0  0
   -5.2327    2.0026    4.3799 H   0  0  0  0  0  0  0  0  0  0  0  0
   -4.9968    3.0685   -0.3781 H   0  0  0  0  0  0  0  0  0  0  0  0
   -7.3430    3.1316   -0.5039 H   0  0  0  0  0  0  0  0  0  0  0  0
   -9.5402    2.9261    0.5768 H   0  0  0  0  0  0  0  0  0  0  0  0
   -9.7274    2.3829    3.0145 H   0  0  0  0  0  0  0  0  0  0  0  0
   -7.6822    2.0484    4.3204 H   0  0  0  0  0  0  0  0  0  0  0  0
   -3.1090    1.1987   -1.5755 H   0  0  0  0  0  0  0  0  0  0  0  0
   -2.7597   -1.7569   -2.1712 H   0  0  0  0  0  0  0  0  0  0  0  0
   -5.4590   -1.6520   -0.7572 H   0  0  0  0  0  0  0  0  0  0  0  0
   -4.9279   -2.4568   -2.2328 H   0  0  0  0  0  0  0  0  0  0  0  0
   -6.0792    0.8683   -0.9761 H   0  0  0  0  0  0  0  0  0  0  0  0
   -5.8931    1.2810   -5.1593 H   0  0  0  0  0  0  0  0  0  0  0  0
   -4.7236   -0.9199   -4.4613 H   0  0  0  0  0  0  0  0  0  0  0  0
   -3.1363   -2.9687    0.5045 H   0  0  0  0  0  0  0  0  0  0  0  0
   -4.6059   -5.7645   -1.5471 H   0  0  0  0  0  0  0  0  0  0  0  0
   -4.6417   -8.2007   -0.8661 H   0  0  0  0  0  0  0  0  0  0  0  0
   -2.6996   -9.1799    0.2915 H   0  0  0  0  0  0  0  0  0  0  0  0
   -0.7273   -7.6460    0.7228 H   0  0  0  0  0  0  0  0  0  0  0  0
   -0.6137   -4.6383    2.1694 H   0  0  0  0  0  0  0  0  0  0  0  0
    1.4263   -3.4381    0.6394 H   0  0  0  0  0  0  0  0  0  0  0  0
    2.1682   -4.9877    1.1291 H   0  0  0  0  0  0  0  0  0  0  0  0
    1.1606   -2.7648    2.9863 H   0  0  0  0  0  0  0  0  0  0  0  0
    1.5049   -4.3713    3.6145 H   0  0  0  0  0  0  0  0  0  0  0  0
    3.4010   -3.0305    4.0567 H   0  0  0  0  0  0  0  0  0  0  0  0
    3.8487   -4.3441    2.9737 H   0  0  0  0  0  0  0  0  0  0  0  0
    3.2017   -1.4390    1.9999 H   0  0  0  0  0  0  0  0  0  0  0  0
    4.8197   -1.9636    2.5335 H   0  0  0  0  0  0  0  0  0  0  0  0
    3.3075   -3.1426    0.1574 H   0  0  0  0  0  0  0  0  0  0  0  0
    5.5592   -1.2697   -0.1702 H   0  0  0  0  0  0  0  0  0  0  0  0
    4.5871    1.1255   -0.9586 H   0  0  0  0  0  0  0  0  0  0  0  0
    1.5453    0.9673   -0.8027 H   0  0  0  0  0  0  0  0  0  0  0  0
    3.6536    1.0757   -3.3252 H   0  0  0  0  0  0  0  0  0  0  0  0
    2.8063   -0.4100   -2.8149 H   0  0  0  0  0  0  0  0  0  0  0  0
    4.1214   -2.6870   -3.1409 H   0  0  0  0  0  0  0  0  0  0  0  0
    6.5935   -3.3392   -3.4928 H   0  0  0  0  0  0  0  0  0  0  0  0
    6.1260    1.9791   -2.6410 H   0  0  0  0  0  0  0  0  0  0  0  0
    8.4858    2.3606   -2.8289 H   0  0  0  0  0  0  0  0  0  0  0  0
    9.9879    0.4160   -3.2767 H   0  0  0  0  0  0  0  0  0  0  0  0
    9.0329   -1.8821   -3.5198 H   0  0  0  0  0  0  0  0  0  0  0  0
    6.7945   -2.7991   -0.6101 H   0  0  0  0  0  0  0  0  0  0  0  0
    7.4307   -3.8633    0.6395 H   0  0  0  0  0  0  0  0  0  0  0  0
    2.2470    5.1446    4.7136 H   0  0  0  0  0  0  0  0  0  0  0  0
    0.6529    4.7048    5.4335 H   0  0  0  0  0  0  0  0  0  0  0  0
  1  2  1  0
  2  3  2  3
  3  4  1  0
  4  5  1  0
  5  6  1  0
  6  7  1  0
  7  8  1  0
  8  9  1  0
  9 10  2  0
  9 11  1  0
 11 12  1  0
 12 13  1  0
 13 14  2  0
 14 15  1  0
 15 16  2  0
 16 17  1  0
 17 18  2  0
 17 19  1  0
 19 20  2  0
 20 21  1  0
 21 22  2  0
 11 23  1  0
 23 24  1  0
 24 25  2  0
 24 26  1  0
 26 27  1  0
 27 28  1  0
 28 29  2  0
 29 30  1  0
 30 31  2  0
 31 32  1  0
 26 33  1  0
 33 34  1  0
 34 35  2  0
 34 36  1  0
 36 37  2  0
 37 38  1  0
 38 39  2  0
 39 40  1  0
 40 41  2  0
 41 42  1  0
 42 43  2  0
 42 44  1  0
 44 45  1  0
 45 46  1  0
 46 47  1  0
 47 48  1  0
 48 49  1  0
 49 50  1  0
 50 51  1  0
 51 52  2  0
 51 53  1  0
 53 54  1  0
 54 55  1  0
 55 56  2  0
 53 57  1  0
 57 58  1  0
 58 59  2  0
 59 60  1  0
 60 61  1  0
 61 62  2  0
 62 63  1  0
 63 64  2  0
 64 65  1  0
 65 66  2  0
 49 67  1  0
 67 68  2  0
 67 69  1  0
  2 70  1  0
 55  7  1  0
 62 58  1  0
 18 13  1  0
 32 28  1  0
 41 36  1  0
 66 61  1  0
 22 16  1  0
  1 71  1  0
  1 72  1  0
  4 73  1  0
  4 74  1  0
  5 75  1  0
  5 76  1  0
  6 77  1  0
  6 78  1  0
  7 79  1  6
  8 80  1  0
 11 81  1  1
 12 82  1  0
 12 83  1  0
 14 84  1  0
 15 85  1  0
 18 86  1  0
 19 87  1  0
 20 88  1  0
 21 89  1  0
 22 90  1  0
 23 91  1  0
 26 92  1  6
 27 93  1  0
 27 94  1  0
 29 95  1  0
 31 96  1  0
 32 97  1  0
 33 98  1  0
 37 99  1  0
 38100  1  0
 39101  1  0
 40102  1  0
 44103  1  0
 45104  1  0
 45105  1  0
 46106  1  0
 46107  1  0
 47108  1  0
 47109  1  0
 48110  1  0
 48111  1  0
 49112  1  6
 50113  1  0
 53114  1  1
 54115  1  0
 57116  1  0
 57117  1  0
 59118  1  0
 60119  1  0
 63120  1  0
 64121  1  0
 65122  1  0
 66123  1  0
 69124  1  0
 69125  1  0
 70126  1  0
 70127  1  0
M  END
>  <Ligand ID>  (1) 
LIG0003108

>  <Ligand>  (1) 
CHEMBL439188

>  <SMILES>  (1) 
NC(=NCCC[C@@H]1NC(=O)[C@@H](Cc2ccc3c(c2)cccc3)NC(=O)[C@H](Cc2cnc[nH]2)NC(=O)c2ccccc2C(=O)NCCCC[C@@H](NC(=O)[C@H](NC1=O)Cc1c[nH]c2c1cccc2)C(=O)N)N

>  <CID>  (1) 
44323020.0

>  <ChEMBL ID>  (1) 
nan

>  <InChiKey>  (1) 
SQKAQIVUMGJDFA-FIBZEHAKSA-N

>  <InChi>  (1) 
InChI=1S/C50H57N13O7/c51-43(64)38-16-7-8-20-55-44(65)35-13-3-4-14-36(35)45(66)61-42(25-33-27-54-28-58-33)49(70)62-40(23-29-18-19-30-10-1-2-11-31(30)22-29)47(68)60-39(17-9-21-56-50(52)53)46(67)63-41(48(69)59-38)24-32-26-57-37-15-6-5-12-34(32)37/h1-6,10-15,18-19,22,26-28,38-42,57H,7-9,16-17,20-21,23-25H2,(H2,51,64)(H,54,58)(H,55,65)(H,59,69)(H,60,68)(H,61,66)(H,62,70)(H,63,67)(H4,52,53,56)/t38-,39+,40-,41-,42+/m1/s1

>  <IUPAC Name>  (1) 
(4S,7R,10S,13R,16R)-10-[3-(diaminomethylideneamino)propyl]-4-(1H-imidazol-5-ylmethyl)-13-(1H-indol-3-ylmethyl)-7-(naphthalen-2-ylmethyl)-2,5,8,11,14,22-hexaoxo-3,6,9,12,15,21-hexazabicyclo[21.4.0]heptacosa-1(27),23,25-triene-16-carboxamide

$$$$
