
     RDKit          3D

 28 27  0  0  0  0  0  0  0  0999 V2000
    3.8394    0.4108   -0.6965 C   0  0  0  0  0  0  0  0  0  0  0  0
    2.6812    0.0152    0.2093 C   0  0  0  0  0  0  0  0  0  0  0  0
    1.6607   -0.8045   -0.4934 C   0  0  0  0  0  0  0  0  0  0  0  0
    0.5019   -1.1999    0.3998 C   0  0  0  0  0  0  0  0  0  0  0  0
   -0.2266   -0.0304    0.9549 C   0  0  0  0  0  0  0  0  0  0  0  0
   -0.8232    0.8816   -0.0826 C   0  0  0  0  0  0  0  0  0  0  0  0
   -1.7908    0.2007   -0.9861 C   0  0  0  0  0  0  0  0  0  0  0  0
   -2.9308   -0.4202   -0.2418 C   0  0  0  0  0  0  0  0  0  0  0  0
   -3.0868   -1.6370   -0.1722 O   0  0  0  0  0  0  0  0  0  0  0  0
   -3.8754    0.5399    0.4193 C   0  0  0  0  0  0  0  0  0  0  0  0
    4.6042   -0.3891   -0.7660 H   0  0  0  0  0  0  0  0  0  0  0  0
    3.4700    0.7620   -1.6691 H   0  0  0  0  0  0  0  0  0  0  0  0
    4.3268    1.2761   -0.1671 H   0  0  0  0  0  0  0  0  0  0  0  0
    3.1406   -0.5094    1.0657 H   0  0  0  0  0  0  0  0  0  0  0  0
    2.1987    0.9262    0.6439 H   0  0  0  0  0  0  0  0  0  0  0  0
    2.1537   -1.7789   -0.8009 H   0  0  0  0  0  0  0  0  0  0  0  0
    1.3046   -0.3461   -1.4219 H   0  0  0  0  0  0  0  0  0  0  0  0
   -0.1787   -1.8787   -0.1426 H   0  0  0  0  0  0  0  0  0  0  0  0
    0.9515   -1.7644    1.2693 H   0  0  0  0  0  0  0  0  0  0  0  0
   -1.0898   -0.4199    1.5680 H   0  0  0  0  0  0  0  0  0  0  0  0
    0.4429    0.5156    1.6474 H   0  0  0  0  0  0  0  0  0  0  0  0
   -1.3362    1.7244    0.4312 H   0  0  0  0  0  0  0  0  0  0  0  0
   -0.0278    1.3345   -0.7075 H   0  0  0  0  0  0  0  0  0  0  0  0
   -1.2814   -0.5806   -1.6088 H   0  0  0  0  0  0  0  0  0  0  0  0
   -2.2620    0.9255   -1.6783 H   0  0  0  0  0  0  0  0  0  0  0  0
   -4.8997    0.1806    0.2675 H   0  0  0  0  0  0  0  0  0  0  0  0
   -3.6649    0.5144    1.5225 H   0  0  0  0  0  0  0  0  0  0  0  0
   -3.8021    1.5516    0.0188 H   0  0  0  0  0  0  0  0  0  0  0  0
  1  2  1  0
  2  3  1  0
  3  4  1  0
  4  5  1  0
  5  6  1  0
  6  7  1  0
  7  8  1  0
  8  9  2  0
  8 10  1  0
  1 11  1  0
  1 12  1  0
  1 13  1  0
  2 14  1  0
  2 15  1  0
  3 16  1  0
  3 17  1  0
  4 18  1  0
  4 19  1  0
  5 20  1  0
  5 21  1  0
  6 22  1  0
  6 23  1  0
  7 24  1  0
  7 25  1  0
 10 26  1  0
 10 27  1  0
 10 28  1  0
M  END
>  <Ligand ID>  (1) 
LIG0000093

>  <Ligand>  (1) 
2-Nonanone

>  <SMILES>  (1) 
CCCCCCCC(=O)C

>  <CID>  (1) 
13187.0

>  <ChEMBL ID>  (1) 
nan

>  <InChiKey>  (1) 
VKCYHJWLYTUGCC-UHFFFAOYSA-N

>  <InChi>  (1) 
InChI=1S/C9H18O/c1-3-4-5-6-7-8-9(2)10/h3-8H2,1-2H3

>  <IUPAC Name>  (1) 
nonan-2-one

$$$$
