
     RDKit          3D

 40 41  0  0  0  0  0  0  0  0999 V2000
   -0.7696   -0.7557   -2.0965 O   0  0  0  0  0  0  0  0  0  0  0  0
   -1.0288   -0.4855   -0.7377 C   0  0  0  0  0  0  0  0  0  0  0  0
   -0.3986    0.7900   -0.2947 C   0  0  0  0  0  0  0  0  0  0  0  0
    0.9737    0.8370   -0.4217 O   0  0  0  0  0  0  0  0  0  0  0  0
    1.9607    0.1086    0.1593 C   0  0  0  0  0  0  0  0  0  0  0  0
    1.8315   -0.8935    1.0758 C   0  0  0  0  0  0  0  0  0  0  0  0
    2.9194   -1.5670    1.6018 C   0  0  0  0  0  0  0  0  0  0  0  0
    4.1818   -1.2419    1.2120 C   0  0  0  0  0  0  0  0  0  0  0  0
    4.3637   -0.2354    0.2883 C   0  0  0  0  0  0  0  0  0  0  0  0
    3.2738    0.4211   -0.2226 C   0  0  0  0  0  0  0  0  0  0  0  0
    3.5184    1.4221   -1.1460 C   0  0  0  0  0  0  0  0  0  0  0  0
    4.7857    1.7631   -1.5502 C   0  0  0  0  0  0  0  0  0  0  0  0
    5.8651    1.0969   -1.0297 C   0  0  0  0  0  0  0  0  0  0  0  0
    5.6504    0.0862   -0.0999 C   0  0  0  0  0  0  0  0  0  0  0  0
   -2.5637   -0.4056   -0.6591 C   0  0  0  0  0  0  0  0  0  0  0  0
   -2.9275   -0.1326    0.6906 N   0  0  0  0  0  0  0  0  0  0  0  0
   -4.3279   -0.0252    0.9434 C   0  0  0  0  0  0  0  0  0  0  0  0
   -5.1157   -1.2689    0.6119 C   0  0  0  0  0  0  0  0  0  0  0  0
   -4.9867    1.1729    0.3486 C   0  0  0  0  0  0  0  0  0  0  0  0
   -0.1062   -0.1148   -2.4255 H   0  0  0  0  0  0  0  0  0  0  0  0
   -0.7226   -1.3863   -0.1985 H   0  0  0  0  0  0  0  0  0  0  0  0
   -0.6085    0.8645    0.8213 H   0  0  0  0  0  0  0  0  0  0  0  0
   -0.9069    1.6915   -0.7172 H   0  0  0  0  0  0  0  0  0  0  0  0
    0.8682   -1.1868    1.4341 H   0  0  0  0  0  0  0  0  0  0  0  0
    2.7676   -2.3550    2.3257 H   0  0  0  0  0  0  0  0  0  0  0  0
    5.0417   -1.7528    1.6083 H   0  0  0  0  0  0  0  0  0  0  0  0
    2.6833    1.9527   -1.5624 H   0  0  0  0  0  0  0  0  0  0  0  0
    4.8958    2.5563   -2.2756 H   0  0  0  0  0  0  0  0  0  0  0  0
    6.8487    1.3858   -1.3654 H   0  0  0  0  0  0  0  0  0  0  0  0
    6.5125   -0.4326    0.3038 H   0  0  0  0  0  0  0  0  0  0  0  0
   -2.9305   -1.3501   -1.0789 H   0  0  0  0  0  0  0  0  0  0  0  0
   -2.8576    0.4765   -1.2872 H   0  0  0  0  0  0  0  0  0  0  0  0
   -2.5787   -0.9346    1.2896 H   0  0  0  0  0  0  0  0  0  0  0  0
   -4.4315    0.0896    2.0620 H   0  0  0  0  0  0  0  0  0  0  0  0
   -4.8207   -1.7069   -0.3669 H   0  0  0  0  0  0  0  0  0  0  0  0
   -6.1934   -0.9458    0.5565 H   0  0  0  0  0  0  0  0  0  0  0  0
   -4.9955   -2.0052    1.4449 H   0  0  0  0  0  0  0  0  0  0  0  0
   -4.4070    2.0959    0.5341 H   0  0  0  0  0  0  0  0  0  0  0  0
   -5.3166    1.0613   -0.7011 H   0  0  0  0  0  0  0  0  0  0  0  0
   -5.9479    1.3105    0.9246 H   0  0  0  0  0  0  0  0  0  0  0  0
  1  2  1  0
  2  3  1  0
  3  4  1  0
  4  5  1  0
  5  6  2  0
  6  7  1  0
  7  8  2  0
  8  9  1  0
  9 10  2  0
 10 11  1  0
 11 12  2  0
 12 13  1  0
 13 14  2  0
  2 15  1  0
 15 16  1  0
 16 17  1  0
 17 18  1  0
 17 19  1  0
 10  5  1  0
 14  9  1  0
  1 20  1  0
  2 21  1  0
  3 22  1  0
  3 23  1  0
  6 24  1  0
  7 25  1  0
  8 26  1  0
 11 27  1  0
 12 28  1  0
 13 29  1  0
 14 30  1  0
 15 31  1  0
 15 32  1  0
 16 33  1  0
 17 34  1  0
 18 35  1  0
 18 36  1  0
 18 37  1  0
 19 38  1  0
 19 39  1  0
 19 40  1  0
M  END
>  <Ligand ID>  (1) 
LIG0000243

>  <Ligand>  (1) 
PROPRANOLOL

>  <SMILES>  (1) 
OC(COc1cccc2c1cccc2)CNC(C)C

>  <CID>  (1) 
4946.0

>  <ChEMBL ID>  (1) 
nan

>  <InChiKey>  (1) 
AQHHHDLHHXJYJD-UHFFFAOYSA-N

>  <InChi>  (1) 
InChI=1S/C16H21NO2/c1-12(2)17-10-14(18)11-19-16-9-5-7-13-6-3-4-8-15(13)16/h3-9,12,14,17-18H,10-11H2,1-2H3

>  <IUPAC Name>  (1) 
1-naphthalen-1-yloxy-3-(propan-2-ylamino)propan-2-ol

$$$$
