
     RDKit          3D

 58 61  0  0  0  0  0  0  0  0999 V2000
    6.8310    2.0726   -1.5378 C   0  0  0  0  0  0  0  0  0  0  0  0
    5.4811    1.7504   -1.5581 O   0  0  0  0  0  0  0  0  0  0  0  0
    4.8075    1.3360   -0.4248 C   0  0  0  0  0  0  0  0  0  0  0  0
    5.3863    1.1997    0.8159 C   0  0  0  0  0  0  0  0  0  0  0  0
    4.6182    0.7717    1.9057 C   0  0  0  0  0  0  0  0  0  0  0  0
    3.2839    0.4987    1.6835 C   0  0  0  0  0  0  0  0  0  0  0  0
    2.6635    0.6198    0.4670 C   0  0  0  0  0  0  0  0  0  0  0  0
    3.4495    1.0464   -0.5964 C   0  0  0  0  0  0  0  0  0  0  0  0
    1.2255    0.3263    0.2327 C   0  0  0  0  0  0  0  0  0  0  0  0
    0.9466   -1.0893   -0.1666 C   0  0  0  0  0  0  0  0  0  0  0  0
    1.7376   -1.3334   -1.4764 C   0  0  0  0  0  0  0  0  0  0  0  0
    1.5485   -2.6258   -1.9413 O   0  0  0  0  0  0  0  0  0  0  0  0
    1.4112   -2.1403    0.7748 C   0  0  0  0  0  0  0  0  0  0  0  0
    0.5697   -2.1541    2.0045 C   0  0  0  0  0  0  0  0  0  0  0  0
   -0.7818   -1.5629    1.8808 C   0  0  0  0  0  0  0  0  0  0  0  0
   -1.3773   -1.6389    0.5548 N   0  0  0  0  0  0  0  0  0  0  0  0
   -0.4946   -1.2685   -0.5005 C   0  0  0  0  0  0  0  0  0  0  0  0
   -2.4538   -0.6476    0.6121 C   0  0  0  0  0  0  0  0  0  0  0  0
   -3.3802   -0.6607   -0.5092 C   0  0  0  0  0  0  0  0  0  0  0  0
   -3.4401   -1.6162   -1.4954 C   0  0  0  0  0  0  0  0  0  0  0  0
   -4.3261   -1.6013   -2.5437 C   0  0  0  0  0  0  0  0  0  0  0  0
   -5.2366   -0.5728   -2.6486 C   0  0  0  0  0  0  0  0  0  0  0  0
   -5.2031    0.3947   -1.6791 C   0  0  0  0  0  0  0  0  0  0  0  0
   -4.3050    0.3804   -0.6167 C   0  0  0  0  0  0  0  0  0  0  0  0
   -4.3959    1.4566    0.3602 C   0  0  0  0  0  0  0  0  0  0  0  0
   -5.2841    2.5319    0.2968 C   0  0  0  0  0  0  0  0  0  0  0  0
   -5.0609    3.3321    1.4040 C   0  0  0  0  0  0  0  0  0  0  0  0
   -4.0558    2.7264    2.0979 C   0  0  0  0  0  0  0  0  0  0  0  0
   -3.6898    1.6309    1.4591 O   0  0  0  0  0  0  0  0  0  0  0  0
    6.9963    2.8120   -2.3608 H   0  0  0  0  0  0  0  0  0  0  0  0
    7.1109    2.5565   -0.5904 H   0  0  0  0  0  0  0  0  0  0  0  0
    7.4836    1.1801   -1.6927 H   0  0  0  0  0  0  0  0  0  0  0  0
    6.4337    1.4236    0.9417 H   0  0  0  0  0  0  0  0  0  0  0  0
    5.0950    0.6755    2.8499 H   0  0  0  0  0  0  0  0  0  0  0  0
    2.7140    0.1714    2.5391 H   0  0  0  0  0  0  0  0  0  0  0  0
    2.9911    1.1506   -1.5622 H   0  0  0  0  0  0  0  0  0  0  0  0
    0.6945    0.6774    1.1366 H   0  0  0  0  0  0  0  0  0  0  0  0
    0.9152    1.0043   -0.6193 H   0  0  0  0  0  0  0  0  0  0  0  0
    2.8180   -1.2353   -1.2242 H   0  0  0  0  0  0  0  0  0  0  0  0
    1.4917   -0.5937   -2.2398 H   0  0  0  0  0  0  0  0  0  0  0  0
    2.1805   -3.2892   -1.5951 H   0  0  0  0  0  0  0  0  0  0  0  0
    2.4889   -2.0993    1.0418 H   0  0  0  0  0  0  0  0  0  0  0  0
    1.2630   -3.1237    0.2321 H   0  0  0  0  0  0  0  0  0  0  0  0
    0.5216   -3.2022    2.4038 H   0  0  0  0  0  0  0  0  0  0  0  0
    1.1145   -1.5694    2.8057 H   0  0  0  0  0  0  0  0  0  0  0  0
   -1.4726   -2.2057    2.5178 H   0  0  0  0  0  0  0  0  0  0  0  0
   -0.9186   -0.5542    2.3176 H   0  0  0  0  0  0  0  0  0  0  0  0
   -0.5140   -2.0012   -1.3604 H   0  0  0  0  0  0  0  0  0  0  0  0
   -0.8241   -0.2951   -0.9743 H   0  0  0  0  0  0  0  0  0  0  0  0
   -1.9651    0.3698    0.7417 H   0  0  0  0  0  0  0  0  0  0  0  0
   -3.0037   -0.8345    1.5530 H   0  0  0  0  0  0  0  0  0  0  0  0
   -2.7600   -2.4572   -1.4569 H   0  0  0  0  0  0  0  0  0  0  0  0
   -4.3412   -2.3672   -3.2981 H   0  0  0  0  0  0  0  0  0  0  0  0
   -5.9403   -0.5532   -3.4753 H   0  0  0  0  0  0  0  0  0  0  0  0
   -5.9144    1.1999   -1.7620 H   0  0  0  0  0  0  0  0  0  0  0  0
   -6.0256    2.7555   -0.4439 H   0  0  0  0  0  0  0  0  0  0  0  0
   -5.5469    4.2358    1.6901 H   0  0  0  0  0  0  0  0  0  0  0  0
   -3.5612    3.0058    3.0294 H   0  0  0  0  0  0  0  0  0  0  0  0
  1  2  1  0
  2  3  1  0
  3  4  2  0
  4  5  1  0
  5  6  2  0
  6  7  1  0
  7  8  2  0
  7  9  1  0
  9 10  1  0
 10 11  1  0
 11 12  1  0
 10 13  1  0
 13 14  1  0
 14 15  1  0
 15 16  1  0
 16 17  1  0
 16 18  1  0
 18 19  1  0
 19 20  2  0
 20 21  1  0
 21 22  2  0
 22 23  1  0
 23 24  2  0
 24 25  1  0
 25 26  2  0
 26 27  1  0
 27 28  2  0
 28 29  1  0
  8  3  1  0
 17 10  1  0
 24 19  1  0
 29 25  1  0
  1 30  1  0
  1 31  1  0
  1 32  1  0
  4 33  1  0
  5 34  1  0
  6 35  1  0
  8 36  1  0
  9 37  1  0
  9 38  1  0
 11 39  1  0
 11 40  1  0
 12 41  1  0
 13 42  1  0
 13 43  1  0
 14 44  1  0
 14 45  1  0
 15 46  1  0
 15 47  1  0
 17 48  1  0
 17 49  1  0
 18 50  1  0
 18 51  1  0
 20 52  1  0
 21 53  1  0
 22 54  1  0
 23 55  1  0
 26 56  1  0
 27 57  1  0
 28 58  1  0
M  END
>  <Ligand ID>  (1) 
LIG0004839

>  <Ligand>  (1) 
MLS000733666

>  <SMILES>  (1) 
COc1cccc(c1)CC1(CO)CCCN(C1)Cc1ccccc1c1ccco1

>  <CID>  (1) 
16191320.0

>  <ChEMBL ID>  (1) 
nan

>  <InChiKey>  (1) 
BIYPQECYHGGIJC-UHFFFAOYSA-N

>  <InChi>  (1) 
InChI=1S/C25H29NO3/c1-28-22-9-4-7-20(15-22)16-25(19-27)12-6-13-26(18-25)17-21-8-2-3-10-23(21)24-11-5-14-29-24/h2-5,7-11,14-15,27H,6,12-13,16-19H2,1H3

>  <IUPAC Name>  (1) 
[1-[[2-(furan-2-yl)phenyl]methyl]-3-[(3-methoxyphenyl)methyl]piperidin-3-yl]methanol

$$$$
