
     RDKit          3D

 45 46  0  0  0  0  0  0  0  0999 V2000
   -1.9206   -2.8519   -0.1131 C   0  0  0  0  0  0  0  0  0  0  0  0
   -1.5066   -2.1556    1.1698 C   0  0  0  0  0  0  0  0  0  0  0  0
   -1.5369   -0.6531    1.0210 C   0  0  0  0  0  0  0  0  0  0  0  0
   -0.7189   -0.1782   -0.1614 C   0  0  0  0  0  0  0  0  0  0  0  0
   -1.1875   -0.9128   -1.3674 C   0  0  0  0  0  0  0  0  0  0  0  0
   -0.9294   -2.4062   -1.1694 C   0  0  0  0  0  0  0  0  0  0  0  0
    0.6527   -0.4199    0.1728 N   0  0  0  0  0  0  0  0  0  0  0  0
    1.1142    0.2606    1.3307 C   0  0  0  0  0  0  0  0  0  0  0  0
    2.6005    0.5322    1.3237 C   0  0  0  0  0  0  0  0  0  0  0  0
    3.4333   -0.5479    0.7213 C   0  0  0  0  0  0  0  0  0  0  0  0
    2.7543   -1.2926   -0.4110 C   0  0  0  0  0  0  0  0  0  0  0  0
    1.6059   -0.3754   -0.8653 C   0  0  0  0  0  0  0  0  0  0  0  0
   -0.9664    1.2769   -0.3167 C   0  0  0  0  0  0  0  0  0  0  0  0
   -1.7534    2.0108    0.5464 C   0  0  0  0  0  0  0  0  0  0  0  0
   -1.9875    3.3625    0.3967 C   0  0  0  0  0  0  0  0  0  0  0  0
   -1.4245    4.0544   -0.6568 C   0  0  0  0  0  0  0  0  0  0  0  0
   -0.6328    3.3494   -1.5368 C   0  0  0  0  0  0  0  0  0  0  0  0
   -0.4035    1.9809   -1.3745 C   0  0  0  0  0  0  0  0  0  0  0  0
    0.6917    0.0000    0.0000 Cl  0  0  0  0  0  0  0  0  0  0  0  0
   -1.7665   -3.9422    0.0458 H   0  0  0  0  0  0  0  0  0  0  0  0
   -2.9339   -2.5994   -0.4434 H   0  0  0  0  0  0  0  0  0  0  0  0
   -2.2696   -2.4218    1.9304 H   0  0  0  0  0  0  0  0  0  0  0  0
   -0.5297   -2.5448    1.4590 H   0  0  0  0  0  0  0  0  0  0  0  0
   -2.6018   -0.3862    0.9085 H   0  0  0  0  0  0  0  0  0  0  0  0
   -1.1173   -0.2081    1.9369 H   0  0  0  0  0  0  0  0  0  0  0  0
   -2.3052   -0.8098   -1.3993 H   0  0  0  0  0  0  0  0  0  0  0  0
   -0.8258   -0.5325   -2.3264 H   0  0  0  0  0  0  0  0  0  0  0  0
   -1.0510   -2.9671   -2.1156 H   0  0  0  0  0  0  0  0  0  0  0  0
    0.0678   -2.6066   -0.7259 H   0  0  0  0  0  0  0  0  0  0  0  0
    0.8933   -0.4087    2.2132 H   0  0  0  0  0  0  0  0  0  0  0  0
    0.6127    1.2170    1.5600 H   0  0  0  0  0  0  0  0  0  0  0  0
    2.9082    0.6575    2.3877 H   0  0  0  0  0  0  0  0  0  0  0  0
    2.8266    1.5355    0.8668 H   0  0  0  0  0  0  0  0  0  0  0  0
    3.8903   -1.2332    1.4650 H   0  0  0  0  0  0  0  0  0  0  0  0
    4.3119   -0.0392    0.2264 H   0  0  0  0  0  0  0  0  0  0  0  0
    3.4407   -1.5349   -1.2455 H   0  0  0  0  0  0  0  0  0  0  0  0
    2.3016   -2.1961    0.0425 H   0  0  0  0  0  0  0  0  0  0  0  0
    2.0791    0.6509   -0.8861 H   0  0  0  0  0  0  0  0  0  0  0  0
    1.2997   -0.6036   -1.8793 H   0  0  0  0  0  0  0  0  0  0  0  0
   -2.2249    1.5355    1.3953 H   0  0  0  0  0  0  0  0  0  0  0  0
   -2.6157    3.9001    1.1029 H   0  0  0  0  0  0  0  0  0  0  0  0
   -1.6078    5.1050   -0.7710 H   0  0  0  0  0  0  0  0  0  0  0  0
   -0.1958    3.8758   -2.3507 H   0  0  0  0  0  0  0  0  0  0  0  0
    0.2206    1.5227   -2.1071 H   0  0  0  0  0  0  0  0  0  0  0  0
   -0.6917    0.0000    0.0000 H   0  0  0  0  0  0  0  0  0  0  0  0
  1  2  1  0
  2  3  1  0
  3  4  1  0
  4  5  1  0
  5  6  1  0
  4  7  1  0
  7  8  1  0
  8  9  1  0
  9 10  1  0
 10 11  1  0
 11 12  1  0
  4 13  1  0
 13 14  2  0
 14 15  1  0
 15 16  2  0
 16 17  1  0
 17 18  2  0
  6  1  1  0
 12  7  1  0
 18 13  1  0
  1 20  1  0
  1 21  1  0
  2 22  1  0
  2 23  1  0
  3 24  1  0
  3 25  1  0
  5 26  1  0
  5 27  1  0
  6 28  1  0
  6 29  1  0
  8 30  1  0
  8 31  1  0
  9 32  1  0
  9 33  1  0
 10 34  1  0
 10 35  1  0
 11 36  1  0
 11 37  1  0
 12 38  1  0
 12 39  1  0
 14 40  1  0
 15 41  1  0
 16 42  1  0
 17 43  1  0
 18 44  1  0
 19 45  1  0
M  END
>  <Ligand ID>  (1) 
LIG0003046

>  <Ligand>  (1) 
Phencyclidine hydrochloride

>  <SMILES>  (1) 
C1CCC(CC1)(N1CCCCC1)c1ccccc1.Cl

>  <CID>  (1) 
9795678.0

>  <ChEMBL ID>  (1) 
nan

>  <InChiKey>  (1) 
BUAJNGPDPGKBGV-UHFFFAOYSA-N

>  <InChi>  (1) 
InChI=1S/C17H25N.ClH/c1-4-10-16(11-5-1)17(12-6-2-7-13-17)18-14-8-3-9-15-18;/h1,4-5,10-11H,2-3,6-9,12-15H2;1H

>  <IUPAC Name>  (1) 
1-(1-phenylcyclohexyl)piperidine;hydrochloride

$$$$
