
     RDKit          3D

 43 46  0  0  0  0  0  0  0  0999 V2000
   -3.8504   -1.7692    0.4985 C   0  0  0  0  0  0  0  0  0  0  0  0
   -3.4715   -0.3984    1.0077 C   0  0  2  0  0  0  0  0  0  0  0  0
   -4.7126    0.4447    1.2008 C   0  0  0  0  0  0  0  0  0  0  0  0
   -4.3736    1.7186    0.4672 C   0  0  0  0  0  0  0  0  0  0  0  0
   -3.4981    1.1990   -0.6572 C   0  0  1  0  0  0  0  0  0  0  0  0
   -2.6200    0.3139    0.0965 N   0  0  0  0  0  0  0  0  0  0  0  0
   -1.2092    0.1837   -0.0432 C   0  0  0  0  0  0  0  0  0  0  0  0
   -0.4532   -0.6847    0.7171 C   0  0  0  0  0  0  0  0  0  0  0  0
    0.9379   -0.7442    0.5074 C   0  0  0  0  0  0  0  0  0  0  0  0
    1.5674    0.0339   -0.4260 C   0  0  0  0  0  0  0  0  0  0  0  0
    0.7517    0.8709   -1.1436 N   0  0  0  0  0  0  0  0  0  0  0  0
   -0.5391    0.9211   -0.9453 N   0  0  0  0  0  0  0  0  0  0  0  0
    2.9487    0.0199   -0.7993 C   0  0  0  0  0  0  0  0  0  0  0  0
    3.2257    0.2026   -2.1671 C   0  0  0  0  0  0  0  0  0  0  0  0
    4.5049    0.2275   -2.6632 C   0  0  0  0  0  0  0  0  0  0  0  0
    5.5927    0.0740   -1.8389 C   0  0  0  0  0  0  0  0  0  0  0  0
    5.3348   -0.1032   -0.4931 C   0  0  0  0  0  0  0  0  0  0  0  0
    4.0405   -0.1271    0.0068 C   0  0  0  0  0  0  0  0  0  0  0  0
    3.8913   -0.2638    1.3480 C   0  0  0  0  0  0  0  0  0  0  0  0
    5.0061   -0.3777    2.1437 C   0  0  0  0  0  0  0  0  0  0  0  0
    6.2675   -0.3589    1.6548 N   0  0  0  0  0  0  0  0  0  0  0  0
    6.4481   -0.2203    0.3253 C   0  0  0  0  0  0  0  0  0  0  0  0
   -4.3328    0.4703   -1.6739 C   0  0  0  0  0  0  0  0  0  0  0  0
   -3.3100   -2.5930    1.0440 H   0  0  0  0  0  0  0  0  0  0  0  0
   -4.9307   -1.9707    0.6749 H   0  0  0  0  0  0  0  0  0  0  0  0
   -3.5874   -1.9198   -0.5766 H   0  0  0  0  0  0  0  0  0  0  0  0
   -3.0202   -0.5434    2.0165 H   0  0  0  0  0  0  0  0  0  0  0  0
   -5.5989   -0.0176    0.7191 H   0  0  0  0  0  0  0  0  0  0  0  0
   -4.8855    0.7171    2.2657 H   0  0  0  0  0  0  0  0  0  0  0  0
   -3.7254    2.3197    1.1496 H   0  0  0  0  0  0  0  0  0  0  0  0
   -5.2547    2.2728    0.1143 H   0  0  0  0  0  0  0  0  0  0  0  0
   -2.9585    2.0036   -1.1635 H   0  0  0  0  0  0  0  0  0  0  0  0
   -0.9324   -1.3060    1.4605 H   0  0  0  0  0  0  0  0  0  0  0  0
    1.4301   -1.4865    1.1127 H   0  0  0  0  0  0  0  0  0  0  0  0
    2.4166    0.3312   -2.8789 H   0  0  0  0  0  0  0  0  0  0  0  0
    4.6648    0.3702   -3.7214 H   0  0  0  0  0  0  0  0  0  0  0  0
    6.5717    0.0986   -2.2720 H   0  0  0  0  0  0  0  0  0  0  0  0
    2.9472   -0.2475    1.8161 H   0  0  0  0  0  0  0  0  0  0  0  0
    4.8890   -0.4889    3.2182 H   0  0  0  0  0  0  0  0  0  0  0  0
    7.4600   -0.2018   -0.0907 H   0  0  0  0  0  0  0  0  0  0  0  0
   -4.8353    1.2630   -2.2735 H   0  0  0  0  0  0  0  0  0  0  0  0
   -5.1191   -0.1672   -1.2594 H   0  0  0  0  0  0  0  0  0  0  0  0
   -3.6783   -0.0663   -2.3832 H   0  0  0  0  0  0  0  0  0  0  0  0
  1  2  1  0
  2  3  1  0
  3  4  1  0
  4  5  1  0
  5  6  1  0
  6  7  1  0
  7  8  2  0
  8  9  1  0
  9 10  2  0
 10 11  1  0
 11 12  2  0
 10 13  1  0
 13 14  2  0
 14 15  1  0
 15 16  2  0
 16 17  1  0
 17 18  2  0
 18 19  1  0
 19 20  2  0
 20 21  1  0
 21 22  2  0
  5 23  1  0
  6  2  1  0
 12  7  1  0
 18 13  1  0
 22 17  1  0
  1 24  1  0
  1 25  1  0
  1 26  1  0
  2 27  1  1
  3 28  1  0
  3 29  1  0
  4 30  1  0
  4 31  1  0
  5 32  1  6
  8 33  1  0
  9 34  1  0
 14 35  1  0
 15 36  1  0
 16 37  1  0
 19 38  1  0
 20 39  1  0
 22 40  1  0
 23 41  1  0
 23 42  1  0
 23 43  1  0
M  END
>  <Ligand ID>  (1) 
LIG0005236

>  <Ligand>  (1) 
CHEMBL610914

>  <SMILES>  (1) 
C[C@@H]1CC[C@@H](N1c1ccc(nn1)c1cccc2c1ccnc2)C

>  <CID>  (1) 
46226149.0

>  <ChEMBL ID>  (1) 
nan

>  <InChiKey>  (1) 
DEKJKPYCMPFESZ-OKILXGFUSA-N

>  <InChi>  (1) 
InChI=1S/C19H20N4/c1-13-6-7-14(2)23(13)19-9-8-18(21-22-19)17-5-3-4-15-12-20-11-10-16(15)17/h3-5,8-14H,6-7H2,1-2H3/t13-,14+

>  <IUPAC Name>  (1) 
5-[6-[(2S,5R)-2,5-dimethylpyrrolidin-1-yl]pyridazin-3-yl]isoquinoline

$$$$
