
     RDKit          3D

 39 40  0  0  0  0  0  0  0  0999 V2000
   -6.6453   -1.4604   -0.7901 O   0  0  0  0  0  0  0  0  0  0  0  0
   -6.0087   -0.3071   -0.3041 C   0  0  0  0  0  0  0  0  0  0  0  0
   -6.5702    0.2629    0.6529 O   0  0  0  0  0  0  0  0  0  0  0  0
   -4.7657    0.0950   -0.9697 C   0  0  0  0  0  0  0  0  0  0  0  0
   -4.1562    1.2841   -0.2739 C   0  0  0  0  0  0  0  0  0  0  0  0
   -3.7717    0.9843    1.1378 C   0  0  0  0  0  0  0  0  0  0  0  0
   -2.8575   -0.0405    1.2107 O   0  0  0  0  0  0  0  0  0  0  0  0
   -1.5906   -0.0643    0.7584 C   0  0  0  0  0  0  0  0  0  0  0  0
   -0.8894   -1.2745    0.9335 C   0  0  0  0  0  0  0  0  0  0  0  0
    0.4093   -1.4329    0.5213 C   0  0  0  0  0  0  0  0  0  0  0  0
    1.1036   -0.4154   -0.0888 C   0  0  0  0  0  0  0  0  0  0  0  0
    0.4442    0.7771   -0.2720 C   0  0  0  0  0  0  0  0  0  0  0  0
   -0.8804    0.9355    0.1502 C   0  0  0  0  0  0  0  0  0  0  0  0
    2.4822   -0.5636   -0.5345 C   0  0  0  0  0  0  0  0  0  0  0  0
    3.3590    0.4443   -0.2393 C   0  0  0  0  0  0  0  0  0  0  0  0
    4.6695    0.3468   -0.6376 C   0  0  0  0  0  0  0  0  0  0  0  0
    5.1381   -0.7592   -1.3406 C   0  0  0  0  0  0  0  0  0  0  0  0
    4.2392   -1.7761   -1.6346 C   0  0  0  0  0  0  0  0  0  0  0  0
    2.9162   -1.6753   -1.2313 C   0  0  0  0  0  0  0  0  0  0  0  0
    1.8072   -2.9697   -1.6157 Cl  0  0  0  0  0  0  0  0  0  0  0  0
    5.5886    1.3565   -0.3525 O   0  0  0  0  0  0  0  0  0  0  0  0
    6.3167    1.2648    0.8772 C   0  0  0  0  0  0  0  0  0  0  0  0
    5.3613    1.2759    1.8822 F   0  0  0  0  0  0  0  0  0  0  0  0
    7.0456    0.0939    0.8451 F   0  0  0  0  0  0  0  0  0  0  0  0
    7.1047    2.3841    1.0551 F   0  0  0  0  0  0  0  0  0  0  0  0
   -7.5938   -1.7153   -0.5416 H   0  0  0  0  0  0  0  0  0  0  0  0
   -4.0632   -0.7832   -0.9517 H   0  0  0  0  0  0  0  0  0  0  0  0
   -4.9577    0.3644   -2.0514 H   0  0  0  0  0  0  0  0  0  0  0  0
   -3.3263    1.6852   -0.8503 H   0  0  0  0  0  0  0  0  0  0  0  0
   -4.9329    2.1228   -0.2278 H   0  0  0  0  0  0  0  0  0  0  0  0
   -4.6893    0.7611    1.7394 H   0  0  0  0  0  0  0  0  0  0  0  0
   -3.3478    1.9337    1.6121 H   0  0  0  0  0  0  0  0  0  0  0  0
   -1.3804   -2.1279    1.4124 H   0  0  0  0  0  0  0  0  0  0  0  0
    0.8907   -2.4051    0.6913 H   0  0  0  0  0  0  0  0  0  0  0  0
    0.9783    1.5999   -0.7554 H   0  0  0  0  0  0  0  0  0  0  0  0
   -1.2905    1.9152   -0.0176 H   0  0  0  0  0  0  0  0  0  0  0  0
    3.0864    1.3460    0.3046 H   0  0  0  0  0  0  0  0  0  0  0  0
    6.1685   -0.8231   -1.6473 H   0  0  0  0  0  0  0  0  0  0  0  0
    4.6088   -2.6400   -2.1845 H   0  0  0  0  0  0  0  0  0  0  0  0
  1  2  1  0
  2  3  2  0
  2  4  1  0
  4  5  1  0
  5  6  1  0
  6  7  1  0
  7  8  1  0
  8  9  2  0
  9 10  1  0
 10 11  2  0
 11 12  1  0
 12 13  2  0
 11 14  1  0
 14 15  2  0
 15 16  1  0
 16 17  2  0
 17 18  1  0
 18 19  2  0
 19 20  1  0
 16 21  1  0
 21 22  1  0
 22 23  1  0
 22 24  1  0
 22 25  1  0
 13  8  1  0
 19 14  1  0
  1 26  1  0
  4 27  1  0
  4 28  1  0
  5 29  1  0
  5 30  1  0
  6 31  1  0
  6 32  1  0
  9 33  1  0
 10 34  1  0
 12 35  1  0
 13 36  1  0
 15 37  1  0
 17 38  1  0
 18 39  1  0
M  END
>  <Ligand ID>  (1) 
LIG0002542

>  <Ligand>  (1) 
CHEMBL3968947

>  <SMILES>  (1) 
OC(=O)CCCOc1ccc(cc1)c1cc(ccc1Cl)OC(F)(F)F

>  <CID>  (1) 
134150245.0

>  <ChEMBL ID>  (1) 
nan

>  <InChiKey>  (1) 
FGXVJHYCASUBMZ-UHFFFAOYSA-N

>  <InChi>  (1) 
InChI=1S/C17H14ClF3O4/c18-15-8-7-13(25-17(19,20)21)10-14(15)11-3-5-12(6-4-11)24-9-1-2-16(22)23/h3-8,10H,1-2,9H2,(H,22,23)

>  <IUPAC Name>  (1) 
4-[4-[2-chloro-5-(trifluoromethoxy)phenyl]phenoxy]butanoic acid

$$$$
