
     RDKit          3D

 45 47  0  0  0  0  0  0  0  0999 V2000
    1.4315    1.5391    2.0388 C   0  0  0  0  0  0  0  0  0  0  0  0
    1.1864    0.2078    1.4017 C   0  0  2  0  0  0  0  0  0  0  0  0
    2.3837   -0.5271    0.9505 C   0  0  0  0  0  0  0  0  0  0  0  0
    2.8536   -1.6860    1.5518 C   0  0  0  0  0  0  0  0  0  0  0  0
    3.9536   -2.3802    1.1028 C   0  0  0  0  0  0  0  0  0  0  0  0
    4.6630   -1.9484    0.0046 C   0  0  0  0  0  0  0  0  0  0  0  0
    4.2227   -0.8004   -0.6146 C   0  0  0  0  0  0  0  0  0  0  0  0
    3.1119   -0.1012   -0.1591 C   0  0  0  0  0  0  0  0  0  0  0  0
    2.7841    1.0370   -0.8603 C   0  0  0  0  0  0  0  0  0  0  0  0
    3.4939    1.4839   -1.9557 C   0  0  0  0  0  0  0  0  0  0  0  0
    4.5923    0.7711   -2.3891 C   0  0  0  0  0  0  0  0  0  0  0  0
    4.9571   -0.3755   -1.7147 C   0  0  0  0  0  0  0  0  0  0  0  0
    0.0151    0.0818    0.6030 N   0  0  0  0  0  0  0  0  0  0  0  0
   -1.1335    0.3453    1.4930 C   0  0  0  0  0  0  0  0  0  0  0  0
   -2.4087    0.2337    0.7343 C   0  0  0  0  0  0  0  0  0  0  0  0
   -2.9916    1.3266    0.0874 C   0  0  0  0  0  0  0  0  0  0  0  0
   -4.1406    0.9006   -0.5109 C   0  0  0  0  0  0  0  0  0  0  0  0
   -4.2527   -0.4516   -0.2255 C   0  0  0  0  0  0  0  0  0  0  0  0
   -3.1918   -0.8417    0.5324 N   0  0  0  0  0  0  0  0  0  0  0  0
   -5.3427   -1.1352   -0.7199 C   0  0  0  0  0  0  0  0  0  0  0  0
   -6.2922   -0.4703   -1.4810 C   0  0  0  0  0  0  0  0  0  0  0  0
   -6.1639    0.8781   -1.7553 C   0  0  0  0  0  0  0  0  0  0  0  0
   -5.0713    1.5845   -1.2654 C   0  0  0  0  0  0  0  0  0  0  0  0
    0.6901    0.0000    0.0000 Cl  0  0  0  0  0  0  0  0  0  0  0  0
    2.5146    1.7836    2.1324 H   0  0  0  0  0  0  0  0  0  0  0  0
    1.0197    1.6579    3.0633 H   0  0  0  0  0  0  0  0  0  0  0  0
    0.8931    2.3583    1.4731 H   0  0  0  0  0  0  0  0  0  0  0  0
    0.8825   -0.4301    2.3175 H   0  0  0  0  0  0  0  0  0  0  0  0
    2.3367   -2.0732    2.4189 H   0  0  0  0  0  0  0  0  0  0  0  0
    4.2821   -3.2779    1.6034 H   0  0  0  0  0  0  0  0  0  0  0  0
    5.5198   -2.5221   -0.3156 H   0  0  0  0  0  0  0  0  0  0  0  0
    1.9546    1.6043   -0.5385 H   0  0  0  0  0  0  0  0  0  0  0  0
    3.2224    2.3895   -2.5039 H   0  0  0  0  0  0  0  0  0  0  0  0
    5.1859    1.0771   -3.2450 H   0  0  0  0  0  0  0  0  0  0  0  0
    5.8245   -0.9379   -2.0569 H   0  0  0  0  0  0  0  0  0  0  0  0
   -0.1320    0.6832   -0.1924 H   0  0  0  0  0  0  0  0  0  0  0  0
   -0.9917    1.3856    1.8525 H   0  0  0  0  0  0  0  0  0  0  0  0
   -1.1303   -0.3329    2.3696 H   0  0  0  0  0  0  0  0  0  0  0  0
   -2.6059    2.3499    0.0575 H   0  0  0  0  0  0  0  0  0  0  0  0
   -2.9827   -1.7973    0.9122 H   0  0  0  0  0  0  0  0  0  0  0  0
   -5.4413   -2.1845   -0.5057 H   0  0  0  0  0  0  0  0  0  0  0  0
   -7.1446   -1.0263   -1.8620 H   0  0  0  0  0  0  0  0  0  0  0  0
   -6.8995    1.4184   -2.3517 H   0  0  0  0  0  0  0  0  0  0  0  0
   -4.9675    2.6370   -1.4773 H   0  0  0  0  0  0  0  0  0  0  0  0
   -0.6901    0.0000    0.0000 H   0  0  0  0  0  0  0  0  0  0  0  0
  1  2  1  0
  2  3  1  0
  3  4  2  0
  4  5  1  0
  5  6  2  0
  6  7  1  0
  7  8  2  0
  8  9  1  0
  9 10  2  0
 10 11  1  0
 11 12  2  0
  2 13  1  0
 13 14  1  0
 14 15  1  0
 15 16  2  0
 16 17  1  0
 17 18  2  0
 18 19  1  0
 18 20  1  0
 20 21  2  0
 21 22  1  0
 22 23  2  0
  8  3  1  0
 19 15  1  0
 12  7  1  0
 23 17  1  0
  1 25  1  0
  1 26  1  0
  1 27  1  0
  2 28  1  1
  4 29  1  0
  5 30  1  0
  6 31  1  0
  9 32  1  0
 10 33  1  0
 11 34  1  0
 12 35  1  0
 13 36  1  0
 14 37  1  0
 14 38  1  0
 16 39  1  0
 19 40  1  0
 20 41  1  0
 21 42  1  0
 22 43  1  0
 23 44  1  0
 24 45  1  0
M  END
>  <Ligand ID>  (1) 
LIG0005444

>  <Ligand>  (1) 
Calindol Hydrochloride

>  <SMILES>  (1) 
C[C@H](c1cccc2c1cccc2)NCc1cc2c([nH]1)cccc2.Cl

>  <CID>  (1) 
23544608.0

>  <ChEMBL ID>  (1) 
nan

>  <InChiKey>  (1) 
KFILKQPBQZIRST-XFULWGLBSA-N

>  <InChi>  (1) 
InChI=1S/C21H20N2.ClH/c1-15(19-11-6-9-16-7-2-4-10-20(16)19)22-14-18-13-17-8-3-5-12-21(17)23-18;/h2-13,15,22-23H,14H2,1H3;1H/t15-;/m1./s1

>  <IUPAC Name>  (1) 
(1R)-N-(1H-indol-2-ylmethyl)-1-naphthalen-1-ylethanamine;hydrochloride

$$$$
