
     RDKit          3D

 73 71  0  0  0  0  0  0  0  0999 V2000
    9.2792   -2.0488   -1.5567 C   0  0  0  0  0  0  0  0  0  0  0  0
    9.1157   -1.9558   -0.0634 C   0  0  0  0  0  0  0  0  0  0  0  0
    8.0407   -2.9021    0.4530 C   0  0  0  0  0  0  0  0  0  0  0  0
    6.7038   -2.5996   -0.1572 C   0  0  0  0  0  0  0  0  0  0  0  0
    6.2141   -1.1982    0.1384 C   0  0  0  0  0  0  0  0  0  0  0  0
    4.8488   -1.0988   -0.5689 C   0  0  0  0  0  0  0  0  0  0  0  0
    4.3434    0.2730   -0.2871 C   0  0  0  0  0  0  0  0  0  0  0  0
    2.9660    0.5514   -0.9523 C   0  0  0  0  0  0  0  0  0  0  0  0
    1.9676   -0.4041   -0.4455 C   0  0  0  0  0  0  0  0  0  0  0  0
    0.6154   -0.4133   -0.9874 C   0  0  0  0  0  0  0  0  0  0  0  0
   -0.3229    0.7394   -0.9345 C   0  0  0  0  0  0  0  0  0  0  0  0
   -0.0153    1.9585   -1.6547 C   0  0  0  0  0  0  0  0  0  0  0  0
   -0.9279    3.1018   -1.7308 C   0  0  0  0  0  0  0  0  0  0  0  0
   -1.4265    3.8642   -0.6036 C   0  0  0  0  0  0  0  0  0  0  0  0
   -2.2838    3.1589    0.3994 C   0  0  0  0  0  0  0  0  0  0  0  0
   -3.5024    2.5941   -0.3539 C   0  0  0  0  0  0  0  0  0  0  0  0
   -4.3538    1.8811    0.6977 C   0  0  0  0  0  0  0  0  0  0  0  0
   -5.4866    1.3249    0.1137 O   0  0  0  0  0  0  0  0  0  0  0  0
   -6.3091    0.6566    1.0217 C   0  0  0  0  0  0  0  0  0  0  0  0
   -6.3758   -0.8258    0.7219 C   0  0  0  0  0  0  0  0  0  0  0  0
   -5.1158   -1.4183    0.7891 O   0  0  0  0  0  0  0  0  0  0  0  0
   -5.1266   -3.0354    0.3798 P   0  0  0  0  0  0  0  0  0  0  0  0
   -4.8627   -3.2259   -1.3393 S   0  0  0  0  0  0  0  0  0  0  0  0
   -6.5269   -3.8519    0.7880 O   0  0  0  0  0  0  0  0  0  0  0  0
   -3.7881   -3.7721    1.1431 O   0  0  0  0  0  0  0  0  0  0  0  0
   -7.6863    1.2117    1.0792 C   0  0  0  0  0  0  0  0  0  0  0  0
   -8.5241    0.5550    1.9664 O   0  0  0  0  0  0  0  0  0  0  0  0
   -8.0870    0.5827    3.2833 C   0  0  0  0  0  0  0  0  0  0  0  0
    0.0000    0.0000    0.0000 Na  0  0  0  0  0 15  0  0  0  0  0  0
    9.0175   -3.0563   -1.9278 H   0  0  0  0  0  0  0  0  0  0  0  0
   10.3093   -1.8231   -1.8892 H   0  0  0  0  0  0  0  0  0  0  0  0
    8.6150   -1.3061   -2.0843 H   0  0  0  0  0  0  0  0  0  0  0  0
    8.9199   -0.9088    0.2730 H   0  0  0  0  0  0  0  0  0  0  0  0
   10.0653   -2.2668    0.4161 H   0  0  0  0  0  0  0  0  0  0  0  0
    8.0194   -2.8205    1.5417 H   0  0  0  0  0  0  0  0  0  0  0  0
    8.3252   -3.9271    0.1569 H   0  0  0  0  0  0  0  0  0  0  0  0
    6.6976   -2.8186   -1.2425 H   0  0  0  0  0  0  0  0  0  0  0  0
    5.9616   -3.2924    0.2916 H   0  0  0  0  0  0  0  0  0  0  0  0
    6.8606   -0.4019   -0.2294 H   0  0  0  0  0  0  0  0  0  0  0  0
    6.0163   -1.0463    1.2122 H   0  0  0  0  0  0  0  0  0  0  0  0
    4.9700   -1.3079   -1.6485 H   0  0  0  0  0  0  0  0  0  0  0  0
    4.2472   -1.9231   -0.1362 H   0  0  0  0  0  0  0  0  0  0  0  0
    4.2586    0.5126    0.7737 H   0  0  0  0  0  0  0  0  0  0  0  0
    5.0118    1.0064   -0.7664 H   0  0  0  0  0  0  0  0  0  0  0  0
    2.7751    1.5856   -0.5402 H   0  0  0  0  0  0  0  0  0  0  0  0
    3.0972    0.6277   -2.0223 H   0  0  0  0  0  0  0  0  0  0  0  0
    1.9218   -0.2527    0.6852 H   0  0  0  0  0  0  0  0  0  0  0  0
    2.3643   -1.4705   -0.5882 H   0  0  0  0  0  0  0  0  0  0  0  0
    0.0936   -1.3584   -0.6062 H   0  0  0  0  0  0  0  0  0  0  0  0
    0.7385   -0.6360   -2.1156 H   0  0  0  0  0  0  0  0  0  0  0  0
   -1.3428    0.3166   -1.1051 H   0  0  0  0  0  0  0  0  0  0  0  0
   -0.3694    0.9659    0.1996 H   0  0  0  0  0  0  0  0  0  0  0  0
    0.1708    1.6535   -2.7493 H   0  0  0  0  0  0  0  0  0  0  0  0
    1.0169    2.3302   -1.3769 H   0  0  0  0  0  0  0  0  0  0  0  0
   -1.8521    2.8063   -2.3548 H   0  0  0  0  0  0  0  0  0  0  0  0
   -0.4360    3.8267   -2.4785 H   0  0  0  0  0  0  0  0  0  0  0  0
   -2.1209    4.6694   -1.0308 H   0  0  0  0  0  0  0  0  0  0  0  0
   -0.6548    4.5158   -0.0977 H   0  0  0  0  0  0  0  0  0  0  0  0
   -2.6921    3.9828    1.0864 H   0  0  0  0  0  0  0  0  0  0  0  0
   -1.8699    2.3575    0.9770 H   0  0  0  0  0  0  0  0  0  0  0  0
   -4.0573    3.3887   -0.8722 H   0  0  0  0  0  0  0  0  0  0  0  0
   -3.1702    1.8660   -1.1191 H   0  0  0  0  0  0  0  0  0  0  0  0
   -3.7185    1.0402    1.0714 H   0  0  0  0  0  0  0  0  0  0  0  0
   -4.5639    2.6020    1.4878 H   0  0  0  0  0  0  0  0  0  0  0  0
   -5.8161    0.7639    2.0063 H   0  0  0  0  0  0  0  0  0  0  0  0
   -7.0199   -1.3044    1.4696 H   0  0  0  0  0  0  0  0  0  0  0  0
   -6.7759   -1.0501   -0.2794 H   0  0  0  0  0  0  0  0  0  0  0  0
   -6.6265   -3.8569    1.7669 H   0  0  0  0  0  0  0  0  0  0  0  0
   -8.1647    1.1249    0.0712 H   0  0  0  0  0  0  0  0  0  0  0  0
   -7.7014    2.2897    1.4072 H   0  0  0  0  0  0  0  0  0  0  0  0
   -8.7928    0.0571    3.9669 H   0  0  0  0  0  0  0  0  0  0  0  0
   -8.0248    1.6325    3.6376 H   0  0  0  0  0  0  0  0  0  0  0  0
   -7.0766    0.1075    3.4229 H   0  0  0  0  0  0  0  0  0  0  0  0
  1  2  1  0
  2  3  1  0
  3  4  1  0
  4  5  1  0
  5  6  1  0
  6  7  1  0
  7  8  1  0
  8  9  1  0
  9 10  1  0
 10 11  1  0
 11 12  1  0
 12 13  1  0
 13 14  1  0
 14 15  1  0
 15 16  1  0
 16 17  1  0
 17 18  1  0
 18 19  1  0
 19 20  1  0
 20 21  1  0
 21 22  1  0
 22 23  2  0
 22 24  1  0
 22 25  1  0
 19 26  1  0
 26 27  1  0
 27 28  1  0
  1 30  1  0
  1 31  1  0
  1 32  1  0
  2 33  1  0
  2 34  1  0
  3 35  1  0
  3 36  1  0
  4 37  1  0
  4 38  1  0
  5 39  1  0
  5 40  1  0
  6 41  1  0
  6 42  1  0
  7 43  1  0
  7 44  1  0
  8 45  1  0
  8 46  1  0
  9 47  1  0
  9 48  1  0
 10 49  1  0
 10 50  1  0
 11 51  1  0
 11 52  1  0
 12 53  1  0
 12 54  1  0
 13 55  1  0
 13 56  1  0
 14 57  1  0
 14 58  1  0
 15 59  1  0
 15 60  1  0
 16 61  1  0
 16 62  1  0
 17 63  1  0
 17 64  1  0
 19 65  1  0
 20 66  1  0
 20 67  1  0
 24 68  1  0
 26 69  1  0
 26 70  1  0
 28 71  1  0
 28 72  1  0
 28 73  1  0
M  CHG  2  25  -1  29   1
M  END
>  <Ligand ID>  (1) 
LIG0000703

>  <Ligand>  (1) 
CHEMBL2335050

>  <SMILES>  (1) 
CCCCCCCCCCCCCCCCCOC(COP(=S)(O)[O-])COC.[Na+]

>  <CID>  (1) 
71718248.0

>  <ChEMBL ID>  (1) 
nan

>  <InChiKey>  (1) 
JZDLPGVYJPWQNT-UHFFFAOYSA-M

>  <InChi>  (1) 
InChI=1S/C21H45O5PS.Na/c1-3-4-5-6-7-8-9-10-11-12-13-14-15-16-17-18-25-21(19-24-2)20-26-27(22,23)28;/h21H,3-20H2,1-2H3,(H2,22,23,28);/q;+1/p-1

>  <IUPAC Name>  (1) 
sodium;(2-heptadecoxy-3-methoxypropoxy)-hydroxy-oxido-sulfanylidene-lambda5-phosphane

$$$$
