
     RDKit          3D

 54 58  0  0  0  0  0  0  0  0999 V2000
   -3.7703    5.4114    1.2720 Cl  0  0  0  0  0  0  0  0  0  0  0  0
   -3.4312    3.7663    0.8591 C   0  0  0  0  0  0  0  0  0  0  0  0
   -3.0233    3.4469   -0.4173 C   0  0  0  0  0  0  0  0  0  0  0  0
   -2.7462    2.1522   -0.7790 C   0  0  0  0  0  0  0  0  0  0  0  0
   -2.8573    1.0797    0.1127 C   0  0  0  0  0  0  0  0  0  0  0  0
   -3.2687    1.4257    1.3904 C   0  0  0  0  0  0  0  0  0  0  0  0
   -3.5487    2.7296    1.7569 C   0  0  0  0  0  0  0  0  0  0  0  0
   -2.5380   -0.3128   -0.2858 C   0  0  0  0  0  0  0  0  0  0  0  0
   -1.5122   -0.9671    0.5422 C   0  0  0  0  0  0  0  0  0  0  0  0
   -1.7607   -1.9189    1.5032 C   0  0  0  0  0  0  0  0  0  0  0  0
   -0.7706   -2.5063    2.2691 C   0  0  0  0  0  0  0  0  0  0  0  0
    0.5271   -2.1047    2.0437 C   0  0  0  0  0  0  0  0  0  0  0  0
    0.8491   -1.1487    1.0892 C   0  0  0  0  0  0  0  0  0  0  0  0
   -0.1697   -0.6113    0.3714 C   0  0  0  0  0  0  0  0  0  0  0  0
    2.1937   -0.7895    0.9137 C   0  0  0  0  0  0  0  0  0  0  0  0
    3.0595   -1.4272    1.7116 N   0  0  0  0  0  0  0  0  0  0  0  0
    2.7595   -2.3489    2.6334 C   0  0  0  0  0  0  0  0  0  0  0  0
    1.4755   -2.6997    2.8094 N   0  0  0  0  0  0  0  0  0  0  0  0
    2.5447    0.1896   -0.0376 N   0  0  0  0  0  0  0  0  0  0  0  0
    3.8727    0.5902   -0.3543 C   0  0  0  0  0  0  0  0  0  0  0  0
    4.0925    1.7618   -1.0829 C   0  0  0  0  0  0  0  0  0  0  0  0
    5.3346    2.2092   -1.4368 C   0  0  0  0  0  0  0  0  0  0  0  0
    6.4393    1.4941   -1.0729 C   0  0  0  0  0  0  0  0  0  0  0  0
    6.2627    0.3413   -0.3587 C   0  0  0  0  0  0  0  0  0  0  0  0
    4.9956   -0.1139    0.0013 C   0  0  0  0  0  0  0  0  0  0  0  0
    7.8241    1.9167   -1.4211 C   0  0  0  0  0  0  0  0  0  0  0  0
    8.6130    1.7028   -0.2980 F   0  0  0  0  0  0  0  0  0  0  0  0
    7.8236    3.2814   -1.6524 F   0  0  0  0  0  0  0  0  0  0  0  0
    8.2712    1.2086   -2.5065 F   0  0  0  0  0  0  0  0  0  0  0  0
   -3.6939   -1.1626   -0.5677 C   0  0  0  0  0  0  0  0  0  0  0  0
   -4.7090   -1.4483    0.3217 C   0  0  0  0  0  0  0  0  0  0  0  0
   -5.7791   -2.2741    0.0048 C   0  0  0  0  0  0  0  0  0  0  0  0
   -5.8789   -2.8581   -1.2380 C   0  0  0  0  0  0  0  0  0  0  0  0
   -4.8817   -2.5891   -2.1410 C   0  0  0  0  0  0  0  0  0  0  0  0
   -3.8291   -1.7751   -1.8248 C   0  0  0  0  0  0  0  0  0  0  0  0
   -7.2080   -3.8931   -1.6559 Cl  0  0  0  0  0  0  0  0  0  0  0  0
   -2.9260    4.2534   -1.1361 H   0  0  0  0  0  0  0  0  0  0  0  0
   -2.4277    1.9625   -1.8037 H   0  0  0  0  0  0  0  0  0  0  0  0
   -3.3793    0.6827    2.1651 H   0  0  0  0  0  0  0  0  0  0  0  0
   -3.8724    2.9944    2.7642 H   0  0  0  0  0  0  0  0  0  0  0  0
   -2.0083   -0.1826   -1.3028 H   0  0  0  0  0  0  0  0  0  0  0  0
   -2.7680   -2.2527    1.6943 H   0  0  0  0  0  0  0  0  0  0  0  0
   -1.0323   -3.2575    3.0180 H   0  0  0  0  0  0  0  0  0  0  0  0
    0.0202    0.1243   -0.3754 H   0  0  0  0  0  0  0  0  0  0  0  0
    3.5211   -2.8266    3.2481 H   0  0  0  0  0  0  0  0  0  0  0  0
    1.7961    0.6828   -0.5716 H   0  0  0  0  0  0  0  0  0  0  0  0
    3.2442    2.3689   -1.3978 H   0  0  0  0  0  0  0  0  0  0  0  0
    5.4823    3.1213   -2.0025 H   0  0  0  0  0  0  0  0  0  0  0  0
    7.1401   -0.2244   -0.0706 H   0  0  0  0  0  0  0  0  0  0  0  0
    4.9722   -1.0331    0.5549 H   0  0  0  0  0  0  0  0  0  0  0  0
   -4.7188   -1.0282    1.3113 H   0  0  0  0  0  0  0  0  0  0  0  0
   -6.5737   -2.4871    0.7278 H   0  0  0  0  0  0  0  0  0  0  0  0
   -4.9608   -3.0477   -3.1161 H   0  0  0  0  0  0  0  0  0  0  0  0
   -3.0706   -1.6087   -2.6029 H   0  0  0  0  0  0  0  0  0  0  0  0
  1  2  1  0
  2  3  2  0
  3  4  1  0
  4  5  2  0
  5  6  1  0
  6  7  2  0
  5  8  1  0
  8  9  1  0
  9 10  2  0
 10 11  1  0
 11 12  2  0
 12 13  1  0
 13 14  2  0
 13 15  1  0
 15 16  2  0
 16 17  1  0
 17 18  2  0
 15 19  1  0
 19 20  1  0
 20 21  2  0
 21 22  1  0
 22 23  2  0
 23 24  1  0
 24 25  2  0
 23 26  1  0
 26 27  1  0
 26 28  1  0
 26 29  1  0
  8 30  1  0
 30 31  2  0
 31 32  1  0
 32 33  2  0
 33 34  1  0
 34 35  2  0
 33 36  1  0
  7  2  1  0
 14  9  1  0
 25 20  1  0
 35 30  1  0
 18 12  1  0
  3 37  1  0
  4 38  1  0
  6 39  1  0
  7 40  1  0
  8 41  1  0
 10 42  1  0
 11 43  1  0
 14 44  1  0
 17 45  1  0
 19 46  1  0
 21 47  1  0
 22 48  1  0
 24 49  1  0
 25 50  1  0
 31 51  1  0
 32 52  1  0
 34 53  1  0
 35 54  1  0
M  END
>  <Ligand ID>  (1) 
LIG0005886

>  <Ligand>  (1) 
SCHEMBL17557635

>  <SMILES>  (1) 
Clc1ccc(cc1)C(c1ccc2c(c1)c(ncn2)Nc1ccc(cc1)C(F)(F)F)c1ccc(cc1)Cl

>  <CID>  (1) 
118916119.0

>  <ChEMBL ID>  (1) 
nan

>  <InChiKey>  (1) 
OVXTUYCWDXBHEO-UHFFFAOYSA-N

>  <InChi>  (1) 
InChI=1S/C28H18Cl2F3N3/c29-21-8-1-17(2-9-21)26(18-3-10-22(30)11-4-18)19-5-14-25-24(15-19)27(35-16-34-25)36-23-12-6-20(7-13-23)28(31,32)33/h1-16,26H,(H,34,35,36)

>  <IUPAC Name>  (1) 
6-[bis(4-chlorophenyl)methyl]-N-[4-(trifluoromethyl)phenyl]quinazolin-4-amine

$$$$
