
     RDKit          3D

 70 77  0  0  0  0  0  0  0  0999 V2000
    2.2148    1.3210    0.4279 O   0  0  0  0  0  0  0  0  0  0  0  0
    2.1256    0.0509    0.5991 C   0  0  0  0  0  0  0  0  0  0  0  0
    0.8176   -0.5181    0.4414 C   0  0  0  0  0  0  0  0  0  0  0  0
   -0.1722    0.3082    0.1291 N   0  0  0  0  0  0  0  0  0  0  0  0
   -1.3174   -0.4046   -0.3971 C   0  0  1  0  0  0  0  0  0  0  0  0
   -0.7715   -1.3263   -1.4510 C   0  0  0  0  0  0  0  0  0  0  0  0
    0.0768   -2.4116   -0.8174 C   0  0  0  0  0  0  0  0  0  0  0  0
    0.4334   -1.9511    0.5878 C   0  0  1  0  0  0  0  0  0  0  0  0
    1.3765   -2.7488    1.1752 O   0  0  0  0  0  0  0  0  0  0  0  0
   -0.8150   -2.0313    1.4301 C   0  0  0  0  0  0  0  0  0  0  0  0
   -1.8818   -1.1815    0.7621 C   0  0  0  0  0  0  0  0  0  0  0  0
   -2.7067   -0.4472    1.7289 C   0  0  0  0  0  0  0  0  0  0  0  0
   -3.4005    0.7523    1.2177 C   0  0  0  0  0  0  0  0  0  0  0  0
   -2.8299    1.4109    0.0854 N   0  0  0  0  0  0  0  0  0  0  0  0
   -2.4365    0.4283   -0.9362 C   0  0  0  0  0  0  0  0  0  0  0  0
   -3.6252   -0.4243   -1.2699 C   0  0  0  0  0  0  0  0  0  0  0  0
   -3.5572   -1.8449   -0.8771 C   0  0  0  0  0  0  0  0  0  0  0  0
   -2.6724   -2.2277    0.0642 C   0  0  0  0  0  0  0  0  0  0  0  0
   -2.3957   -3.4741    0.5274 C   0  0  0  0  0  0  0  0  0  0  0  0
   -1.3983   -3.3286    1.4763 O   0  0  0  0  0  0  0  0  0  0  0  0
   -3.1401   -4.4950   -0.0507 C   0  0  0  0  0  0  0  0  0  0  0  0
   -2.9124   -5.7908    0.3769 O   0  0  0  0  0  0  0  0  0  0  0  0
   -4.0855   -4.1833   -1.0354 C   0  0  0  0  0  0  0  0  0  0  0  0
   -4.3045   -2.8645   -1.4593 C   0  0  0  0  0  0  0  0  0  0  0  0
   -3.7493    2.3238   -0.4838 C   0  0  0  0  0  0  0  0  0  0  0  0
   -4.0255    3.5252    0.4224 C   0  0  0  0  0  0  0  0  0  0  0  0
   -5.0252    4.5116   -0.2058 C   0  0  0  0  0  0  0  0  0  0  0  0
   -3.6086    4.8864    0.0431 C   0  0  0  0  0  0  0  0  0  0  0  0
    3.3220   -0.6086    0.9165 N   0  0  0  0  0  0  0  0  0  0  0  0
    4.6148    0.0218    1.0543 C   0  0  0  0  0  0  0  0  0  0  0  0
    5.0017    0.6478   -0.2411 C   0  0  0  0  0  0  0  0  0  0  0  0
    6.3417    1.3198   -0.1916 C   0  0  0  0  0  0  0  0  0  0  0  0
    7.4337    0.5150   -0.5238 C   0  0  0  0  0  0  0  0  0  0  0  0
    8.7215    1.0318   -0.5142 C   0  0  0  0  0  0  0  0  0  0  0  0
    8.8723    2.3526   -0.1680 C   0  0  0  0  0  0  0  0  0  0  0  0
    7.7815    3.1422    0.1600 C   0  0  0  0  0  0  0  0  0  0  0  0
    6.4887    2.6461    0.1565 C   0  0  0  0  0  0  0  0  0  0  0  0
   -0.1240   -0.6655   -2.1063 H   0  0  0  0  0  0  0  0  0  0  0  0
   -1.4828   -1.7906   -2.1178 H   0  0  0  0  0  0  0  0  0  0  0  0
   -0.3823   -3.4058   -0.8075 H   0  0  0  0  0  0  0  0  0  0  0  0
    0.9911   -2.5004   -1.4439 H   0  0  0  0  0  0  0  0  0  0  0  0
    1.3371   -3.6759    0.7965 H   0  0  0  0  0  0  0  0  0  0  0  0
   -0.6114   -1.6311    2.4274 H   0  0  0  0  0  0  0  0  0  0  0  0
   -3.5314   -1.1652    2.0571 H   0  0  0  0  0  0  0  0  0  0  0  0
   -2.1806   -0.2487    2.7063 H   0  0  0  0  0  0  0  0  0  0  0  0
   -3.4051    1.5207    2.0504 H   0  0  0  0  0  0  0  0  0  0  0  0
   -4.5036    0.5587    1.0685 H   0  0  0  0  0  0  0  0  0  0  0  0
   -2.1354    1.0038   -1.8217 H   0  0  0  0  0  0  0  0  0  0  0  0
   -4.5910   -0.0518   -0.8494 H   0  0  0  0  0  0  0  0  0  0  0  0
   -3.8117   -0.3352   -2.3920 H   0  0  0  0  0  0  0  0  0  0  0  0
   -3.6002   -6.4883    0.0919 H   0  0  0  0  0  0  0  0  0  0  0  0
   -4.6712   -4.9983   -1.4871 H   0  0  0  0  0  0  0  0  0  0  0  0
   -5.0268   -2.6125   -2.2154 H   0  0  0  0  0  0  0  0  0  0  0  0
   -3.2797    2.7887   -1.3979 H   0  0  0  0  0  0  0  0  0  0  0  0
   -4.7588    1.9299   -0.7157 H   0  0  0  0  0  0  0  0  0  0  0  0
   -4.2988    3.2557    1.4604 H   0  0  0  0  0  0  0  0  0  0  0  0
   -5.3641    4.3319   -1.2480 H   0  0  0  0  0  0  0  0  0  0  0  0
   -5.7994    4.9628    0.4330 H   0  0  0  0  0  0  0  0  0  0  0  0
   -3.4353    5.6063    0.8592 H   0  0  0  0  0  0  0  0  0  0  0  0
   -2.9620    4.9801   -0.8624 H   0  0  0  0  0  0  0  0  0  0  0  0
    3.2846   -1.6375    1.0627 H   0  0  0  0  0  0  0  0  0  0  0  0
    4.6230    0.7511    1.9043 H   0  0  0  0  0  0  0  0  0  0  0  0
    5.3571   -0.7552    1.3261 H   0  0  0  0  0  0  0  0  0  0  0  0
    5.0058   -0.1360   -1.0307 H   0  0  0  0  0  0  0  0  0  0  0  0
    4.2720    1.4204   -0.5144 H   0  0  0  0  0  0  0  0  0  0  0  0
    7.3193   -0.5269   -0.7974 H   0  0  0  0  0  0  0  0  0  0  0  0
    9.5435    0.3905   -0.7739 H   0  0  0  0  0  0  0  0  0  0  0  0
    9.8774    2.7542   -0.1612 H   0  0  0  0  0  0  0  0  0  0  0  0
    7.9261    4.1956    0.4335 H   0  0  0  0  0  0  0  0  0  0  0  0
    5.6271    3.2410    0.4079 H   0  0  0  0  0  0  0  0  0  0  0  0
  1  2  2  0
  2  3  1  0
  3  4  2  0
  4  5  1  0
  5  6  1  6
  6  7  1  0
  7  8  1  0
  8  9  1  1
  8 10  1  0
 10 11  1  0
 11 12  1  0
 12 13  1  0
 13 14  1  0
 14 15  1  0
 15 16  1  0
 16 17  1  0
 17 18  1  0
 18 19  2  0
 19 20  1  0
 19 21  1  0
 21 22  1  0
 21 23  2  0
 23 24  1  0
 14 25  1  0
 25 26  1  0
 26 27  1  0
 27 28  1  0
  2 29  1  0
 29 30  1  0
 30 31  1  0
 31 32  1  0
 32 33  2  0
 33 34  1  0
 34 35  2  0
 35 36  1  0
 36 37  2  0
  8  3  1  0
 20 10  1  0
 28 26  1  0
 37 32  1  0
 15  5  1  0
 24 17  2  0
 11  5  1  0
 18 11  1  0
  6 38  1  0
  6 39  1  0
  7 40  1  0
  7 41  1  0
  9 42  1  0
 10 43  1  0
 12 44  1  0
 12 45  1  0
 13 46  1  0
 13 47  1  0
 15 48  1  0
 16 49  1  0
 16 50  1  0
 22 51  1  0
 23 52  1  0
 24 53  1  0
 25 54  1  0
 25 55  1  0
 26 56  1  0
 27 57  1  0
 27 58  1  0
 28 59  1  0
 28 60  1  0
 29 61  1  0
 30 62  1  0
 30 63  1  0
 31 64  1  0
 31 65  1  0
 33 66  1  0
 34 67  1  0
 35 68  1  0
 36 69  1  0
 37 70  1  0
M  END
>  <Ligand ID>  (1) 
LIG0002964

>  <Ligand>  (1) 
CHEMBL3339379

>  <SMILES>  (1) 
O=C(C1=N[C@]23CC[C@]1(O)C1C43CCN(C2Cc2c4c(O1)c(O)cc2)CC1CC1)NCCc1ccccc1

>  <CID>  (1) 
118716010.0

>  <ChEMBL ID>  (1) 
nan

>  <InChiKey>  (1) 
HKIHGXVMQLQUIN-LBWTYPISSA-N

>  <InChi>  (1) 
InChI=1S/C30H33N3O4/c34-21-9-8-20-16-22-30-12-11-29(36,25(32-30)26(35)31-14-10-18-4-2-1-3-5-18)27-28(30,23(20)24(21)37-27)13-15-33(22)17-19-6-7-19/h1-5,8-9,19,22,27,34,36H,6-7,10-17H2,(H,31,35)/t22?,27?,28?,29-,30-/m1/s1

>  <IUPAC Name>  (1) 
(1S,15R)-5-(cyclopropylmethyl)-11,15-dihydroxy-N-(2-phenylethyl)-13-oxa-5,17-diazahexacyclo[13.2.2.12,8.01,6.02,14.012,20]icosa-8(20),9,11,16-tetraene-16-carboxamide

$$$$
