
     RDKit          3D

 17 17  0  0  0  0  0  0  0  0999 V2000
    3.6064   -0.7811   -0.6241 O   0  0  0  0  0  0  0  0  0  0  0  0
    2.4619   -0.7286   -0.1330 C   0  0  0  0  0  0  0  0  0  0  0  0
    1.7289    0.5551    0.0900 C   0  0  0  0  0  0  0  0  0  0  0  0
    0.2782    0.3350    0.0201 C   0  0  0  0  0  0  0  0  0  0  0  0
   -0.4815    0.7831   -1.0366 C   0  0  0  0  0  0  0  0  0  0  0  0
   -1.8146    0.5165   -1.0186 C   0  0  0  0  0  0  0  0  0  0  0  0
   -2.3782   -0.1902    0.0498 C   0  0  0  0  0  0  0  0  0  0  0  0
   -1.6238   -0.6416    1.1076 C   0  0  0  0  0  0  0  0  0  0  0  0
   -0.2738   -0.3764    1.0938 C   0  0  0  0  0  0  0  0  0  0  0  0
    1.9964   -1.6916    0.1355 H   0  0  0  0  0  0  0  0  0  0  0  0
    2.0006    1.2384   -0.7877 H   0  0  0  0  0  0  0  0  0  0  0  0
    2.0892    1.0338    0.9996 H   0  0  0  0  0  0  0  0  0  0  0  0
   -0.0268    1.3432   -1.8852 H   0  0  0  0  0  0  0  0  0  0  0  0
   -2.4150    0.8821   -1.8537 H   0  0  0  0  0  0  0  0  0  0  0  0
   -3.4645   -0.3626   -0.0174 H   0  0  0  0  0  0  0  0  0  0  0  0
   -2.0585   -1.1960    1.9395 H   0  0  0  0  0  0  0  0  0  0  0  0
    0.3752   -0.7190    1.9203 H   0  0  0  0  0  0  0  0  0  0  0  0
  1  2  2  0
  2  3  1  0
  3  4  1  0
  4  5  2  0
  5  6  1  0
  6  7  2  0
  7  8  1  0
  8  9  2  0
  9  4  1  0
  2 10  1  0
  3 11  1  0
  3 12  1  0
  5 13  1  0
  6 14  1  0
  7 15  1  0
  8 16  1  0
  9 17  1  0
M  END
>  <Ligand ID>  (1) 
LIG0000039

>  <Ligand>  (1) 
phenyl acetaldehyde

>  <SMILES>  (1) 
O=CCc1ccccc1

>  <CID>  (1) 
998.0

>  <ChEMBL ID>  (1) 
nan

>  <InChiKey>  (1) 
DTUQWGWMVIHBKE-UHFFFAOYSA-N

>  <InChi>  (1) 
InChI=1S/C8H8O/c9-7-6-8-4-2-1-3-5-8/h1-5,7H,6H2

>  <IUPAC Name>  (1) 
2-phenylacetaldehyde

$$$$
