
     RDKit          3D

 42 41  0  0  0  0  0  0  0  0999 V2000
   -5.3280    1.5127    0.3595 C   0  0  0  0  0  0  0  0  0  0  0  0
   -4.0190    1.5018    0.5941 C   0  0  0  0  0  0  0  0  0  0  0  0
   -3.0764    1.3408   -0.5733 C   0  0  0  0  0  0  0  0  0  0  0  0
   -1.6693    1.1604   -0.0937 C   0  0  0  0  0  0  0  0  0  0  0  0
   -1.5859   -0.0643    0.7693 C   0  0  0  0  0  0  0  0  0  0  0  0
   -0.2211   -0.3101    1.2833 C   0  0  0  0  0  0  0  0  0  0  0  0
    0.4813   -1.4111    1.0367 C   0  0  0  0  0  0  0  0  0  0  0  0
    1.8711   -1.6099    1.5871 C   0  0  0  0  0  0  0  0  0  0  0  0
    2.7788   -1.7756    0.3692 C   0  0  0  0  0  0  0  0  0  0  0  0
    2.6657   -0.5159   -0.4522 C   0  0  0  0  0  0  0  0  0  0  0  0
    3.7202    0.2448   -0.7055 C   0  0  0  0  0  0  0  0  0  0  0  0
    3.5532    1.4688   -1.5160 C   0  0  0  0  0  0  0  0  0  0  0  0
    5.0400   -0.1341   -0.1803 C   0  0  0  0  0  0  0  0  0  0  0  0
   -0.1448   -2.4639    0.1892 C   0  0  0  0  0  0  0  0  0  0  0  0
   -3.1965    2.4937   -1.3578 O   0  0  0  0  0  0  0  0  0  0  0  0
   -3.5610    0.1416   -1.3518 C   0  0  0  0  0  0  0  0  0  0  0  0
   -6.0322    1.6284    1.1915 H   0  0  0  0  0  0  0  0  0  0  0  0
   -5.7165    1.4095   -0.6386 H   0  0  0  0  0  0  0  0  0  0  0  0
   -3.6559    1.6079    1.6112 H   0  0  0  0  0  0  0  0  0  0  0  0
   -0.9883    1.1575   -0.9419 H   0  0  0  0  0  0  0  0  0  0  0  0
   -1.4386    2.0427    0.5453 H   0  0  0  0  0  0  0  0  0  0  0  0
   -1.9752   -0.9656    0.2241 H   0  0  0  0  0  0  0  0  0  0  0  0
   -2.2708    0.0949    1.6316 H   0  0  0  0  0  0  0  0  0  0  0  0
    0.2316    0.4588    1.9001 H   0  0  0  0  0  0  0  0  0  0  0  0
    2.1333   -0.6733    2.1193 H   0  0  0  0  0  0  0  0  0  0  0  0
    1.9320   -2.4825    2.2385 H   0  0  0  0  0  0  0  0  0  0  0  0
    2.4112   -2.5863   -0.2920 H   0  0  0  0  0  0  0  0  0  0  0  0
    3.8258   -1.9390    0.6380 H   0  0  0  0  0  0  0  0  0  0  0  0
    1.6721   -0.2791   -0.8169 H   0  0  0  0  0  0  0  0  0  0  0  0
    2.6181    2.0303   -1.2541 H   0  0  0  0  0  0  0  0  0  0  0  0
    4.4260    2.1373   -1.3248 H   0  0  0  0  0  0  0  0  0  0  0  0
    3.5190    1.1793   -2.5951 H   0  0  0  0  0  0  0  0  0  0  0  0
    5.4266   -1.0809   -0.6029 H   0  0  0  0  0  0  0  0  0  0  0  0
    4.9622   -0.2542    0.9235 H   0  0  0  0  0  0  0  0  0  0  0  0
    5.8008    0.6511   -0.3855 H   0  0  0  0  0  0  0  0  0  0  0  0
    0.5060   -3.3868    0.1971 H   0  0  0  0  0  0  0  0  0  0  0  0
   -0.1552   -2.1040   -0.8699 H   0  0  0  0  0  0  0  0  0  0  0  0
   -1.1242   -2.8005    0.5486 H   0  0  0  0  0  0  0  0  0  0  0  0
   -2.3919    3.0489   -1.1926 H   0  0  0  0  0  0  0  0  0  0  0  0
   -4.2567    0.4828   -2.1504 H   0  0  0  0  0  0  0  0  0  0  0  0
   -2.6945   -0.3646   -1.8267 H   0  0  0  0  0  0  0  0  0  0  0  0
   -4.0729   -0.5926   -0.6959 H   0  0  0  0  0  0  0  0  0  0  0  0
  1  2  2  0
  2  3  1  0
  3  4  1  0
  4  5  1  0
  5  6  1  0
  6  7  2  0
  7  8  1  0
  8  9  1  0
  9 10  1  0
 10 11  2  3
 11 12  1  0
 11 13  1  0
  7 14  1  0
  3 15  1  0
  3 16  1  0
  1 17  1  0
  1 18  1  0
  2 19  1  0
  4 20  1  0
  4 21  1  0
  5 22  1  0
  5 23  1  0
  6 24  1  0
  8 25  1  0
  8 26  1  0
  9 27  1  0
  9 28  1  0
 10 29  1  0
 12 30  1  0
 12 31  1  0
 12 32  1  0
 13 33  1  0
 13 34  1  0
 13 35  1  0
 14 36  1  0
 14 37  1  0
 14 38  1  0
 15 39  1  0
 16 40  1  0
 16 41  1  0
 16 42  1  0
M  END
>  <Ligand ID>  (1) 
LIG0000254

>  <Ligand>  (1) 
nerolidol trans-form

>  <SMILES>  (1) 
C=CC(CC/C=C(/CCC=C(C)C)\C)(O)C

>  <CID>  (1) 
5284507.0

>  <ChEMBL ID>  (1) 
nan

>  <InChiKey>  (1) 
FQTLCLSUCSAZDY-SDNWHVSQSA-N

>  <InChi>  (1) 
InChI=1S/C15H26O/c1-6-15(5,16)12-8-11-14(4)10-7-9-13(2)3/h6,9,11,16H,1,7-8,10,12H2,2-5H3/b14-11+

>  <IUPAC Name>  (1) 
(6E)-3,7,11-trimethyldodeca-1,6,10-trien-3-ol

$$$$
