
     RDKit          3D

 84 88  0  0  0  0  0  0  0  0999 V2000
   -1.4201   -3.6701    4.9994 C   0  0  0  0  0  0  0  0  0  0  0  0
   -1.0748   -3.1047    3.5744 C   0  0  0  0  0  0  0  0  0  0  0  0
   -0.8247   -1.6652    3.7749 C   0  0  0  0  0  0  0  0  0  0  0  0
   -0.3903   -0.7467    2.7677 C   0  0  2  0  0  0  0  0  0  0  0  0
   -1.0651   -0.4325    1.5465 N   0  0  0  0  0  0  0  0  0  0  0  0
   -0.9572    1.0213    1.1822 C   0  0  0  0  0  0  0  0  0  0  0  0
    0.4646    1.4744    1.5094 C   0  0  0  0  0  0  0  0  0  0  0  0
    1.4179    0.3850    1.5640 N   0  0  0  0  0  0  0  0  0  0  0  0
    1.0677   -0.7824    2.3599 C   0  0  0  0  0  0  0  0  0  0  0  0
    1.8566   -1.6734    2.6567 O   0  0  0  0  0  0  0  0  0  0  0  0
    2.7039    0.4114    0.8625 C   0  0  2  0  0  0  0  0  0  0  0  0
    3.5624    1.4989    1.3749 C   0  0  0  0  0  0  0  0  0  0  0  0
    3.0509    2.4276    2.0690 O   0  0  0  0  0  0  0  0  0  0  0  0
    4.9598    1.5850    1.1461 N   0  0  0  0  0  0  0  0  0  0  0  0
    5.6501    2.7309    1.7254 C   0  0  0  0  0  0  0  0  0  0  0  0
    2.4987    0.4574   -0.6213 C   0  0  0  0  0  0  0  0  0  0  0  0
    3.7403    0.4986   -1.4145 C   0  0  0  0  0  0  0  0  0  0  0  0
    4.2466    1.7412   -1.7957 C   0  0  0  0  0  0  0  0  0  0  0  0
    5.4168    1.7586   -2.5415 C   0  0  0  0  0  0  0  0  0  0  0  0
    6.0779    0.5973   -2.9076 C   0  0  0  0  0  0  0  0  0  0  0  0
    5.5496   -0.6223   -2.5134 C   0  0  0  0  0  0  0  0  0  0  0  0
    4.3771   -0.6810   -1.7639 C   0  0  0  0  0  0  0  0  0  0  0  0
    6.2311   -1.7557   -2.8938 C   0  0  0  0  0  0  0  0  0  0  0  0
    7.3925   -1.7379   -3.6345 C   0  0  0  0  0  0  0  0  0  0  0  0
    7.9150   -0.5270   -4.0245 C   0  0  0  0  0  0  0  0  0  0  0  0
    7.2531    0.6289   -3.6572 C   0  0  0  0  0  0  0  0  0  0  0  0
   -1.6562   -1.2947    0.6202 C   0  0  0  0  0  0  0  0  0  0  0  0
   -1.4203   -2.5555    0.7950 O   0  0  0  0  0  0  0  0  0  0  0  0
   -2.5090   -1.0053   -0.5272 C   0  0  2  0  0  0  0  0  0  0  0  0
   -3.0156    0.3061   -0.7017 N   0  0  0  0  0  0  0  0  0  0  0  0
   -3.9589    0.7945    0.2620 C   0  0  0  0  0  0  0  0  0  0  0  0
   -4.2633    0.0191    1.1876 O   0  0  0  0  0  0  0  0  0  0  0  0
   -4.5535    2.1200    0.1996 C   0  0  0  0  0  0  0  0  0  0  0  0
   -5.4615    2.4229    1.2240 C   0  0  0  0  0  0  0  0  0  0  0  0
   -6.0783    3.6813    1.2355 C   0  0  0  0  0  0  0  0  0  0  0  0
   -5.7845    4.5552    0.2719 N   0  0  0  0  0  0  0  0  0  0  0  0
   -4.9236    4.2663   -0.6981 C   0  0  0  0  0  0  0  0  0  0  0  0
   -4.2638    3.0385   -0.7869 C   0  0  0  0  0  0  0  0  0  0  0  0
   -3.5857   -2.1009   -0.6961 C   0  0  0  0  0  0  0  0  0  0  0  0
   -4.4524   -1.8483   -1.8404 C   0  0  0  0  0  0  0  0  0  0  0  0
   -5.6517   -1.1795   -1.8211 C   0  0  0  0  0  0  0  0  0  0  0  0
   -6.3992   -0.9798   -2.9612 C   0  0  0  0  0  0  0  0  0  0  0  0
   -5.9638   -1.4541   -4.1927 C   0  0  0  0  0  0  0  0  0  0  0  0
   -4.7711   -2.1238   -4.2329 C   0  0  0  0  0  0  0  0  0  0  0  0
   -4.0299   -2.3185   -3.0872 C   0  0  0  0  0  0  0  0  0  0  0  0
   -6.7220   -1.2409   -5.2939 F   0  0  0  0  0  0  0  0  0  0  0  0
   -0.5265   -3.5891    5.6449 H   0  0  0  0  0  0  0  0  0  0  0  0
   -1.8001   -4.7050    4.8970 H   0  0  0  0  0  0  0  0  0  0  0  0
   -2.2042   -3.0221    5.4326 H   0  0  0  0  0  0  0  0  0  0  0  0
   -0.2724   -3.7079    3.1587 H   0  0  0  0  0  0  0  0  0  0  0  0
   -2.0216   -3.3701    3.0421 H   0  0  0  0  0  0  0  0  0  0  0  0
   -1.6934   -1.1824    4.3409 H   0  0  0  0  0  0  0  0  0  0  0  0
   -0.0281   -1.6283    4.6135 H   0  0  0  0  0  0  0  0  0  0  0  0
   -0.4063    0.3076    3.3386 H   0  0  0  0  0  0  0  0  0  0  0  0
   -1.1125    1.2062    0.1408 H   0  0  0  0  0  0  0  0  0  0  0  0
   -1.6611    1.5678    1.8116 H   0  0  0  0  0  0  0  0  0  0  0  0
    0.7413    2.2368    0.7691 H   0  0  0  0  0  0  0  0  0  0  0  0
    0.4304    1.9456    2.5191 H   0  0  0  0  0  0  0  0  0  0  0  0
    3.2299   -0.5465    1.0808 H   0  0  0  0  0  0  0  0  0  0  0  0
    5.4552    0.8495    0.5978 H   0  0  0  0  0  0  0  0  0  0  0  0
    5.3693    2.8853    2.8028 H   0  0  0  0  0  0  0  0  0  0  0  0
    5.3940    3.6652    1.1823 H   0  0  0  0  0  0  0  0  0  0  0  0
    6.7323    2.5755    1.7002 H   0  0  0  0  0  0  0  0  0  0  0  0
    1.8599    1.3283   -0.8884 H   0  0  0  0  0  0  0  0  0  0  0  0
    1.9377   -0.4418   -0.9873 H   0  0  0  0  0  0  0  0  0  0  0  0
    3.7286    2.6493   -1.5095 H   0  0  0  0  0  0  0  0  0  0  0  0
    5.8542    2.6885   -2.8646 H   0  0  0  0  0  0  0  0  0  0  0  0
    3.9743   -1.6481   -1.4628 H   0  0  0  0  0  0  0  0  0  0  0  0
    5.8581   -2.7326   -2.6105 H   0  0  0  0  0  0  0  0  0  0  0  0
    7.9216   -2.6478   -3.9279 H   0  0  0  0  0  0  0  0  0  0  0  0
    8.8281   -0.5288   -4.6069 H   0  0  0  0  0  0  0  0  0  0  0  0
    7.6717    1.5762   -3.9695 H   0  0  0  0  0  0  0  0  0  0  0  0
   -1.8684   -1.2035   -1.4560 H   0  0  0  0  0  0  0  0  0  0  0  0
   -2.7539    0.9545   -1.5059 H   0  0  0  0  0  0  0  0  0  0  0  0
   -5.7035    1.7214    2.0058 H   0  0  0  0  0  0  0  0  0  0  0  0
   -6.7709    3.8692    2.0451 H   0  0  0  0  0  0  0  0  0  0  0  0
   -4.7213    5.0174   -1.4590 H   0  0  0  0  0  0  0  0  0  0  0  0
   -3.5691    2.8040   -1.5679 H   0  0  0  0  0  0  0  0  0  0  0  0
   -3.0210   -3.0546   -0.7733 H   0  0  0  0  0  0  0  0  0  0  0  0
   -4.1908   -2.1628    0.2149 H   0  0  0  0  0  0  0  0  0  0  0  0
   -6.0309   -0.8016   -0.8900 H   0  0  0  0  0  0  0  0  0  0  0  0
   -7.3462   -0.4457   -2.9131 H   0  0  0  0  0  0  0  0  0  0  0  0
   -4.4413   -2.4899   -5.1972 H   0  0  0  0  0  0  0  0  0  0  0  0
   -3.0791   -2.8599   -3.1561 H   0  0  0  0  0  0  0  0  0  0  0  0
  1  2  1  0
  2  3  1  0
  3  4  1  0
  4  5  1  0
  5  6  1  0
  6  7  1  0
  7  8  1  0
  8  9  1  0
  9 10  2  0
  8 11  1  0
 11 12  1  0
 12 13  2  0
 12 14  1  0
 14 15  1  0
 11 16  1  0
 16 17  1  0
 17 18  2  0
 18 19  1  0
 19 20  2  0
 20 21  1  0
 21 22  2  0
 21 23  1  0
 23 24  2  0
 24 25  1  0
 25 26  2  0
  5 27  1  0
 27 28  2  0
 27 29  1  0
 29 30  1  0
 30 31  1  0
 31 32  2  0
 31 33  1  0
 33 34  2  0
 34 35  1  0
 35 36  2  0
 36 37  1  0
 37 38  2  0
 29 39  1  0
 39 40  1  0
 40 41  2  0
 41 42  1  0
 42 43  2  0
 43 44  1  0
 44 45  2  0
 43 46  1  0
  9  4  1  0
 22 17  1  0
 38 33  1  0
 45 40  1  0
 26 20  1  0
  1 47  1  0
  1 48  1  0
  1 49  1  0
  2 50  1  0
  2 51  1  0
  3 52  1  0
  3 53  1  0
  4 54  1  1
  6 55  1  0
  6 56  1  0
  7 57  1  0
  7 58  1  0
 11 59  1  6
 14 60  1  0
 15 61  1  0
 15 62  1  0
 15 63  1  0
 16 64  1  0
 16 65  1  0
 18 66  1  0
 19 67  1  0
 22 68  1  0
 23 69  1  0
 24 70  1  0
 25 71  1  0
 26 72  1  0
 29 73  1  6
 30 74  1  0
 34 75  1  0
 35 76  1  0
 37 77  1  0
 38 78  1  0
 39 79  1  0
 39 80  1  0
 41 81  1  0
 42 82  1  0
 44 83  1  0
 45 84  1  0
M  END
>  <Ligand ID>  (1) 
LIG0004080

>  <Ligand>  (1) 
CHEMBL449131

>  <SMILES>  (1) 
CCC[C@@H]1N(CCN(C1=O)[C@H](C(=O)NC)Cc1ccc2c(c1)cccc2)C(=O)[C@H](NC(=O)c1ccncc1)Cc1ccc(cc1)F

>  <CID>  (1) 
25132866.0

>  <ChEMBL ID>  (1) 
nan

>  <InChiKey>  (1) 
BKDGLTMSFYSIAO-RTOKGZNSSA-N

>  <InChi>  (1) 
InChI=1S/C36H38FN5O4/c1-3-6-31-36(46)42(32(34(44)38-2)23-25-9-12-26-7-4-5-8-28(26)21-25)20-19-41(31)35(45)30(22-24-10-13-29(37)14-11-24)40-33(43)27-15-17-39-18-16-27/h4-5,7-18,21,30-32H,3,6,19-20,22-23H2,1-2H3,(H,38,44)(H,40,43)/t30-,31+,32+/m1/s1

>  <IUPAC Name>  (1) 
N-[(2R)-3-(4-fluorophenyl)-1-[(2S)-4-[(2S)-1-(methylamino)-3-naphthalen-2-yl-1-oxopropan-2-yl]-3-oxo-2-propylpiperazin-1-yl]-1-oxopropan-2-yl]pyridine-4-carboxamide

$$$$
