
     RDKit          3D

 74 79  0  0  0  0  0  0  0  0999 V2000
   -6.3557    5.3815    1.2790 C   0  0  0  0  0  0  0  0  0  0  0  0
   -7.0071    4.2602    0.5176 C   0  0  0  0  0  0  0  0  0  0  0  0
   -6.1727    3.3128   -0.0292 O   0  0  0  0  0  0  0  0  0  0  0  0
   -5.3039    2.4263    0.5360 C   0  0  0  0  0  0  0  0  0  0  0  0
   -5.0530    2.2476    1.8678 C   0  0  0  0  0  0  0  0  0  0  0  0
   -4.1587    1.3331    2.3860 C   0  0  0  0  0  0  0  0  0  0  0  0
   -3.4692    0.5436    1.4972 C   0  0  0  0  0  0  0  0  0  0  0  0
   -3.6844    0.6842    0.1475 C   0  0  0  0  0  0  0  0  0  0  0  0
   -4.5933    1.6132   -0.3729 C   0  0  0  0  0  0  0  0  0  0  0  0
   -2.8990   -0.1097   -0.7209 N   0  0  0  0  0  0  0  0  0  0  0  0
   -1.8288    0.4694   -1.3655 C   0  0  0  0  0  0  0  0  0  0  0  0
   -1.2151   -0.5164   -2.1047 C   0  0  0  0  0  0  0  0  0  0  0  0
   -1.9183   -1.6190   -1.8859 N   0  0  0  0  0  0  0  0  0  0  0  0
   -2.9637   -1.4070   -1.0395 C   0  0  0  0  0  0  0  0  0  0  0  0
   -3.8356   -2.4735   -0.6163 C   0  0  0  0  0  0  0  0  0  0  0  0
   -3.3738   -3.7731   -0.8162 C   0  0  0  0  0  0  0  0  0  0  0  0
   -4.1020   -4.8884   -0.4781 C   0  0  0  0  0  0  0  0  0  0  0  0
   -5.3797   -4.7596    0.0996 C   0  0  0  0  0  0  0  0  0  0  0  0
   -5.8024   -3.4748    0.2800 C   0  0  0  0  0  0  0  0  0  0  0  0
   -5.0752   -2.3504   -0.0571 C   0  0  0  0  0  0  0  0  0  0  0  0
   -5.6519   -1.1646    0.1627 F   0  0  0  0  0  0  0  0  0  0  0  0
   -6.1409   -5.9651    0.4653 C   0  0  0  0  0  0  0  0  0  0  0  0
   -0.0259   -0.2480   -2.9041 C   0  0  0  0  0  0  0  0  0  0  0  0
   -0.0190   -0.1488   -4.1504 O   0  0  0  0  0  0  0  0  0  0  0  0
    1.1975   -0.0941   -2.1451 N   0  0  0  0  0  0  0  0  0  0  0  0
    2.4236    0.2076   -2.8337 C   0  0  0  0  0  0  0  0  0  0  0  0
    3.2230    1.1842   -1.9770 C   0  0  0  0  0  0  0  0  0  0  0  0
    3.5876    0.4383   -0.7903 N   0  0  0  0  0  0  0  0  0  0  0  0
    2.5651   -0.3449   -0.1049 C   0  0  0  0  0  0  0  0  0  0  0  0
    1.2116   -0.2443   -0.7167 C   0  0  0  0  0  0  0  0  0  0  0  0
    4.8818    0.4248   -0.2212 C   0  0  0  0  0  0  0  0  0  0  0  0
    5.4313    1.6239    0.2676 C   0  0  0  0  0  0  0  0  0  0  0  0
    6.7019    1.5051    0.7792 C   0  0  0  0  0  0  0  0  0  0  0  0
    7.2658    2.6926    1.2711 C   0  0  0  0  0  0  0  0  0  0  0  0
    8.5358    2.6765    1.8040 C   0  0  0  0  0  0  0  0  0  0  0  0
    9.2317    1.4913    1.8453 C   0  0  0  0  0  0  0  0  0  0  0  0
    8.6600    0.3529    1.3609 C   0  0  0  0  0  0  0  0  0  0  0  0
    7.4017    0.3223    0.8227 C   0  0  0  0  0  0  0  0  0  0  0  0
    6.8650   -0.8695    0.3404 C   0  0  0  0  0  0  0  0  0  0  0  0
    5.5723   -0.7402   -0.1777 C   0  0  0  0  0  0  0  0  0  0  0  0
    7.5296   -2.1350    0.3478 C   0  0  0  0  0  0  0  0  0  0  0  0
    6.8571   -3.1255   -0.1464 O   0  0  0  0  0  0  0  0  0  0  0  0
    8.7720   -2.4825    0.7934 O   0  0  0  0  0  0  0  0  0  0  0  0
   -6.9837    6.3077    1.2598 H   0  0  0  0  0  0  0  0  0  0  0  0
   -5.3643    5.5828    0.7869 H   0  0  0  0  0  0  0  0  0  0  0  0
   -6.1552    5.0525    2.3069 H   0  0  0  0  0  0  0  0  0  0  0  0
   -7.7696    4.6504   -0.1991 H   0  0  0  0  0  0  0  0  0  0  0  0
   -7.6460    3.7218    1.2888 H   0  0  0  0  0  0  0  0  0  0  0  0
   -5.5870    2.8459    2.5850 H   0  0  0  0  0  0  0  0  0  0  0  0
   -3.9664    1.1959    3.4254 H   0  0  0  0  0  0  0  0  0  0  0  0
   -2.7584   -0.1832    1.8859 H   0  0  0  0  0  0  0  0  0  0  0  0
   -4.7482    1.7108   -1.4388 H   0  0  0  0  0  0  0  0  0  0  0  0
   -1.5250    1.5205   -1.3002 H   0  0  0  0  0  0  0  0  0  0  0  0
   -2.3938   -3.9711   -1.2577 H   0  0  0  0  0  0  0  0  0  0  0  0
   -3.7084   -5.8651   -0.6473 H   0  0  0  0  0  0  0  0  0  0  0  0
   -6.7913   -3.3454    0.7243 H   0  0  0  0  0  0  0  0  0  0  0  0
   -7.2015   -5.7380    0.5699 H   0  0  0  0  0  0  0  0  0  0  0  0
   -6.0269   -6.7642   -0.2868 H   0  0  0  0  0  0  0  0  0  0  0  0
   -5.7676   -6.2621    1.4860 H   0  0  0  0  0  0  0  0  0  0  0  0
    2.2255    0.7230   -3.8088 H   0  0  0  0  0  0  0  0  0  0  0  0
    3.0261   -0.7063   -2.9914 H   0  0  0  0  0  0  0  0  0  0  0  0
    2.5016    1.9780   -1.6529 H   0  0  0  0  0  0  0  0  0  0  0  0
    4.0786    1.5778   -2.5355 H   0  0  0  0  0  0  0  0  0  0  0  0
    2.4758    0.1163    0.9277 H   0  0  0  0  0  0  0  0  0  0  0  0
    2.9119   -1.3799    0.1148 H   0  0  0  0  0  0  0  0  0  0  0  0
    0.6442   -1.2018   -0.5159 H   0  0  0  0  0  0  0  0  0  0  0  0
    0.5678    0.5517   -0.2727 H   0  0  0  0  0  0  0  0  0  0  0  0
    4.8544    2.5099    0.2130 H   0  0  0  0  0  0  0  0  0  0  0  0
    6.7200    3.6124    1.2383 H   0  0  0  0  0  0  0  0  0  0  0  0
    8.9266    3.6211    2.1690 H   0  0  0  0  0  0  0  0  0  0  0  0
   10.2254    1.5282    2.2713 H   0  0  0  0  0  0  0  0  0  0  0  0
    9.2388   -0.5509    1.4124 H   0  0  0  0  0  0  0  0  0  0  0  0
    5.0869   -1.6304   -0.5737 H   0  0  0  0  0  0  0  0  0  0  0  0
    9.0244   -3.4654    0.9924 H   0  0  0  0  0  0  0  0  0  0  0  0
  1  2  1  0
  2  3  1  0
  3  4  1  0
  4  5  2  0
  5  6  1  0
  6  7  2  0
  7  8  1  0
  8  9  2  0
  8 10  1  0
 10 11  1  0
 11 12  2  0
 12 13  1  0
 13 14  2  0
 14 15  1  0
 15 16  2  0
 16 17  1  0
 17 18  2  0
 18 19  1  0
 19 20  2  0
 20 21  1  0
 18 22  1  0
 12 23  1  0
 23 24  2  0
 23 25  1  0
 25 26  1  0
 26 27  1  0
 27 28  1  0
 28 29  1  0
 29 30  1  0
 28 31  1  0
 31 32  2  0
 32 33  1  0
 33 34  2  0
 34 35  1  0
 35 36  2  0
 36 37  1  0
 37 38  2  0
 38 39  1  0
 39 40  2  0
 39 41  1  0
 41 42  2  0
 41 43  1  0
  9  4  1  0
 14 10  1  0
 20 15  1  0
 30 25  1  0
 40 31  1  0
 38 33  1  0
  1 44  1  0
  1 45  1  0
  1 46  1  0
  2 47  1  0
  2 48  1  0
  5 49  1  0
  6 50  1  0
  7 51  1  0
  9 52  1  0
 11 53  1  0
 16 54  1  0
 17 55  1  0
 19 56  1  0
 22 57  1  0
 22 58  1  0
 22 59  1  0
 26 60  1  0
 26 61  1  0
 27 62  1  0
 27 63  1  0
 29 64  1  0
 29 65  1  0
 30 66  1  0
 30 67  1  0
 32 68  1  0
 34 69  1  0
 35 70  1  0
 36 71  1  0
 37 72  1  0
 40 73  1  0
 43 74  1  0
M  END
>  <Ligand ID>  (1) 
LIG0004486

>  <Ligand>  (1) 
CHEMBL504861

>  <SMILES>  (1) 
CCOc1cccc(c1)n1cc(nc1c1ccc(cc1F)C)C(=O)N1CCN(CC1)c1cc2ccccc2c(c1)C(=O)O

>  <CID>  (1) 
24861060.0

>  <ChEMBL ID>  (1) 
nan

>  <InChiKey>  (1) 
AACZCKZTUMTPKO-UHFFFAOYSA-N

>  <InChi>  (1) 
InChI=1S/C34H31FN4O4/c1-3-43-26-9-6-8-24(19-26)39-21-31(36-32(39)28-12-11-22(2)17-30(28)35)33(40)38-15-13-37(14-16-38)25-18-23-7-4-5-10-27(23)29(20-25)34(41)42/h4-12,17-21H,3,13-16H2,1-2H3,(H,41,42)

>  <IUPAC Name>  (1) 
3-[4-[1-(3-ethoxyphenyl)-2-(2-fluoro-4-methylphenyl)imidazole-4-carbonyl]piperazin-1-yl]naphthalene-1-carboxylic acid

$$$$
