
     RDKit          3D

 49 51  0  0  0  0  0  0  0  0999 V2000
    0.5413   -3.4905   -1.5689 O   0  0  0  0  0  0  0  0  0  0  0  0
    0.6123   -2.0953   -1.6058 C   0  0  2  0  0  0  0  0  0  0  0  0
    0.8238   -1.5249   -0.2182 C   0  0  1  0  0  0  0  0  0  0  0  0
    1.7215   -0.2942   -0.4006 C   0  0  0  0  0  0  0  0  0  0  0  0
    1.8936    0.4073    0.7681 O   0  0  0  0  0  0  0  0  0  0  0  0
    2.8918    1.7749    0.5629 P   0  0  0  0  0  0  0  0  0  0  0  0
    2.0498    2.9746    0.2310 O   0  0  0  0  0  0  0  0  0  0  0  0
    3.7091    2.0088    2.0266 O   0  0  0  0  0  0  0  0  0  0  0  0
    4.9350    0.8525    2.1692 P   0  0  0  0  0  0  0  0  0  0  0  0
    4.6374   -0.2710    1.2336 O   0  0  0  0  0  0  0  0  0  0  0  0
    6.4028    1.6172    1.8489 O   0  0  0  0  0  0  0  0  0  0  0  0
    7.5054    0.6000    1.0755 P   0  0  0  0  0  0  0  0  0  0  0  0
    8.7515    0.5864    1.9327 O   0  0  0  0  0  0  0  0  0  0  0  0
    6.8791   -0.9444    0.9086 O   0  0  0  0  0  0  0  0  0  0  0  0
    7.8246    1.2767   -0.4517 O   0  0  0  0  0  0  0  0  0  0  0  0
    4.9016    0.3300    3.7968 O   0  0  0  0  0  0  0  0  0  0  0  0
    4.0397    1.4903   -0.6460 O   0  0  0  0  0  0  0  0  0  0  0  0
   -0.4013   -1.0566    0.2254 O   0  0  0  0  0  0  0  0  0  0  0  0
   -1.3852   -1.6233   -0.5361 C   0  0  2  0  0  0  0  0  0  0  0  0
   -0.7527   -1.5222   -1.9321 C   0  0  2  0  0  0  0  0  0  0  0  0
   -1.4547   -2.2345   -2.8718 O   0  0  0  0  0  0  0  0  0  0  0  0
   -2.6631   -0.9536   -0.4572 C   0  0  0  0  0  0  0  0  0  0  0  0
   -3.4249   -0.4794    0.3217 N   0  0  0  0  0  0  0  0  0  0  0  0
   -4.5804    0.1064    0.1839 C   0  0  0  0  0  0  0  0  0  0  0  0
   -5.0157    0.1970   -1.1537 C   0  0  0  0  0  0  0  0  0  0  0  0
   -3.6346   -0.6149   -2.0924 S   0  0  0  0  0  0  0  0  0  0  0  0
   -6.1761    0.7561   -1.5798 C   0  0  0  0  0  0  0  0  0  0  0  0
   -7.0267    1.2934   -0.6326 C   0  0  0  0  0  0  0  0  0  0  0  0
   -6.6263    1.2189    0.6839 C   0  0  0  0  0  0  0  0  0  0  0  0
   -5.4493    0.6509    1.1075 C   0  0  0  0  0  0  0  0  0  0  0  0
   -7.5362    1.7955    1.7154 C   0  0  0  0  0  0  0  0  0  0  0  0
   -6.7059    2.5246    2.5775 F   0  0  0  0  0  0  0  0  0  0  0  0
   -8.3762    2.7095    1.1386 F   0  0  0  0  0  0  0  0  0  0  0  0
   -8.1635    0.8353    2.4640 F   0  0  0  0  0  0  0  0  0  0  0  0
    1.2145   -3.8933   -0.9703 H   0  0  0  0  0  0  0  0  0  0  0  0
    1.3912   -1.7432   -2.3106 H   0  0  0  0  0  0  0  0  0  0  0  0
    1.2723   -2.2367    0.4736 H   0  0  0  0  0  0  0  0  0  0  0  0
    2.7427   -0.6062   -0.7359 H   0  0  0  0  0  0  0  0  0  0  0  0
    1.3238    0.3519   -1.1863 H   0  0  0  0  0  0  0  0  0  0  0  0
    7.1125   -1.3197    0.0123 H   0  0  0  0  0  0  0  0  0  0  0  0
    7.8066    0.5888   -1.1592 H   0  0  0  0  0  0  0  0  0  0  0  0
    4.8679   -0.6585    3.8582 H   0  0  0  0  0  0  0  0  0  0  0  0
    4.3164    2.3241   -1.0881 H   0  0  0  0  0  0  0  0  0  0  0  0
   -1.4546   -2.7164   -0.3061 H   0  0  0  0  0  0  0  0  0  0  0  0
   -0.5938   -0.4666   -2.1905 H   0  0  0  0  0  0  0  0  0  0  0  0
   -1.1912   -1.8665   -3.7662 H   0  0  0  0  0  0  0  0  0  0  0  0
   -6.3967    0.7627   -2.6449 H   0  0  0  0  0  0  0  0  0  0  0  0
   -7.9378    1.7316   -0.9755 H   0  0  0  0  0  0  0  0  0  0  0  0
   -5.2216    0.6397    2.1643 H   0  0  0  0  0  0  0  0  0  0  0  0
  1  2  1  0
  2  3  1  0
  3  4  1  0
  4  5  1  0
  5  6  1  0
  6  7  2  0
  6  8  1  0
  8  9  1  0
  9 10  2  0
  9 11  1  0
 11 12  1  0
 12 13  2  0
 12 14  1  0
 12 15  1  0
  9 16  1  0
  6 17  1  0
  3 18  1  0
 18 19  1  0
 19 20  1  0
 20 21  1  0
 19 22  1  0
 22 23  2  0
 23 24  1  0
 24 25  2  0
 25 26  1  0
 25 27  1  0
 27 28  2  0
 28 29  1  0
 29 30  2  0
 29 31  1  0
 31 32  1  0
 31 33  1  0
 31 34  1  0
 20  2  1  0
 26 22  1  0
 30 24  1  0
  1 35  1  0
  2 36  1  6
  3 37  1  1
  4 38  1  0
  4 39  1  0
 14 40  1  0
 15 41  1  0
 16 42  1  0
 17 43  1  0
 19 44  1  1
 20 45  1  6
 21 46  1  0
 27 47  1  0
 28 48  1  0
 30 49  1  0
M  END
>  <Ligand ID>  (1) 
LIG0002788

>  <Ligand>  (1) 
CHEMBL391317

>  <SMILES>  (1) 
O[C@@H]1[C@@H](COP(=O)(OP(=O)(OP(=O)(O)O)O)O)O[C@H]([C@@H]1O)c1nc2c(s1)ccc(c2)C(F)(F)F

>  <CID>  (1) 
10168108.0

>  <ChEMBL ID>  (1) 
nan

>  <InChiKey>  (1) 
JWOOVSDBHPDOSN-QCNRFFRDSA-N

>  <InChi>  (1) 
InChI=1S/C13H15F3NO13P3S/c14-13(15,16)5-1-2-8-6(3-5)17-12(34-8)11-10(19)9(18)7(28-11)4-27-32(23,24)30-33(25,26)29-31(20,21)22/h1-3,7,9-11,18-19H,4H2,(H,23,24)(H,25,26)(H2,20,21,22)/t7-,9-,10-,11-/m1/s1

>  <IUPAC Name>  (1) 
[[(2R,3S,4R,5R)-3,4-dihydroxy-5-[5-(trifluoromethyl)-1,3-benzothiazol-2-yl]oxolan-2-yl]methoxy-hydroxyphosphoryl] phosphono hydrogen phosphate

$$$$
