
     RDKit          3D

 41 40  0  0  0  0  0  0  0  0999 V2000
    0.7707   -0.4495   -2.0861 O   0  0  0  0  0  0  0  0  0  0  0  0
   -0.4271    0.2020   -1.9189 C   0  0  0  0  0  0  0  0  0  0  0  0
   -0.9433    0.7127   -2.9716 O   0  0  0  0  0  0  0  0  0  0  0  0
   -1.1694    0.3673   -0.6548 C   0  0  1  0  0  0  0  0  0  0  0  0
   -2.5506   -0.1966   -0.8189 C   0  0  0  0  0  0  0  0  0  0  0  0
   -2.8370   -0.8177    0.5251 C   0  0  2  0  0  0  0  0  0  0  0  0
   -1.4543   -1.2116    1.0066 C   0  0  0  0  0  0  0  0  0  0  0  0
   -0.5943   -0.1117    0.5243 N   0  0  0  0  0  0  0  0  0  0  0  0
    0.7213   -0.6306    0.5364 C   0  0  0  0  0  0  0  0  0  0  0  0
    1.8245    0.3086    0.2923 C   0  0  0  0  0  0  0  0  0  0  0  0
    1.7073    1.6693    0.1888 C   0  0  0  0  0  0  0  0  0  0  0  0
    2.7799    2.5177   -0.0404 C   0  0  0  0  0  0  0  0  0  0  0  0
    4.0395    1.9963   -0.1751 C   0  0  0  0  0  0  0  0  0  0  0  0
    4.1802    0.6335   -0.0742 C   0  0  0  0  0  0  0  0  0  0  0  0
    3.0968   -0.2183    0.1569 C   0  0  0  0  0  0  0  0  0  0  0  0
    3.3977   -1.5983    0.2396 N   0  0  0  0  0  0  0  0  0  0  0  0
    4.3951   -2.0629   -0.3782 O   0  0  0  0  0  0  0  0  0  0  0  0
    2.6694   -2.5083    0.9601 O   0  0  0  0  0  0  0  0  0  0  0  0
   -3.7129   -1.9353    0.3406 N   0  0  0  0  0  0  0  0  0  0  0  0
   -3.4462    0.1470    1.4588 C   0  0  0  0  0  0  0  0  0  0  0  0
   -4.5844   -0.1452    1.9298 O   0  0  0  0  0  0  0  0  0  0  0  0
   -2.8728    1.3340    1.8535 O   0  0  0  0  0  0  0  0  0  0  0  0
    0.6853    0.0000    0.0000 Cl  0  0  0  0  0  0  0  0  0  0  0  0
    0.6851    0.0000    0.0000 Cl  0  0  0  0  0  0  0  0  0  0  0  0
    1.5033   -0.0845   -2.6551 H   0  0  0  0  0  0  0  0  0  0  0  0
   -1.3360    1.4867   -0.5097 H   0  0  0  0  0  0  0  0  0  0  0  0
   -2.5056   -0.9711   -1.6206 H   0  0  0  0  0  0  0  0  0  0  0  0
   -3.2581    0.6091   -1.0738 H   0  0  0  0  0  0  0  0  0  0  0  0
   -1.4207   -1.1666    2.1072 H   0  0  0  0  0  0  0  0  0  0  0  0
   -1.1563   -2.1819    0.6031 H   0  0  0  0  0  0  0  0  0  0  0  0
    0.8278   -1.5759   -0.0646 H   0  0  0  0  0  0  0  0  0  0  0  0
    0.8942   -1.0107    1.5931 H   0  0  0  0  0  0  0  0  0  0  0  0
    0.7470    2.1408    0.2929 H   0  0  0  0  0  0  0  0  0  0  0  0
    2.6316    3.5859   -0.1139 H   0  0  0  0  0  0  0  0  0  0  0  0
    4.8732    2.6659   -0.3542 H   0  0  0  0  0  0  0  0  0  0  0  0
    5.1928    0.2460   -0.1850 H   0  0  0  0  0  0  0  0  0  0  0  0
   -4.0186   -2.3430    1.2319 H   0  0  0  0  0  0  0  0  0  0  0  0
   -4.5515   -1.5655   -0.1789 H   0  0  0  0  0  0  0  0  0  0  0  0
   -3.4130    2.1624    2.1052 H   0  0  0  0  0  0  0  0  0  0  0  0
   -0.6853    0.0000    0.0000 H   0  0  0  0  0  0  0  0  0  0  0  0
   -0.6851    0.0000    0.0000 H   0  0  0  0  0  0  0  0  0  0  0  0
  1  2  1  0
  2  3  2  0
  2  4  1  0
  4  5  1  0
  5  6  1  0
  6  7  1  0
  7  8  1  0
  8  9  1  0
  9 10  1  0
 10 11  2  0
 11 12  1  0
 12 13  2  0
 13 14  1  0
 14 15  2  0
 15 16  1  0
 16 17  2  0
 16 18  1  0
  6 19  1  6
  6 20  1  0
 20 21  2  0
 20 22  1  0
  8  4  1  0
 15 10  1  0
  1 25  1  0
  4 26  1  1
  5 27  1  0
  5 28  1  0
  7 29  1  0
  7 30  1  0
  9 31  1  0
  9 32  1  0
 11 33  1  0
 12 34  1  0
 13 35  1  0
 14 36  1  0
 19 37  1  0
 19 38  1  0
 22 39  1  0
 23 40  1  0
 24 41  1  0
M  CHG  2  16   1  18  -1
M  END
>  <Ligand ID>  (1) 
LIG0002410

>  <Ligand>  (1) 
CHEMBL544508

>  <SMILES>  (1) 
OC(=O)[C@H]1C[C@](CN1Cc1ccccc1[N+](=O)[O-])(N)C(=O)O.Cl.Cl

>  <CID>  (1) 
10474977.0

>  <ChEMBL ID>  (1) 
nan

>  <InChiKey>  (1) 
NASQFQUPWFWNSL-OWVUFADGSA-N

>  <InChi>  (1) 
InChI=1S/C13H15N3O6.2ClH/c14-13(12(19)20)5-10(11(17)18)15(7-13)6-8-3-1-2-4-9(8)16(21)22;;/h1-4,10H,5-7,14H2,(H,17,18)(H,19,20);2*1H/t10-,13-;;/m1../s1

>  <IUPAC Name>  (1) 
(2R,4R)-4-amino-1-[(2-nitrophenyl)methyl]pyrrolidine-2,4-dicarboxylic acid;dihydrochloride

$$$$
