
     RDKit          3D

 61 65  0  0  0  0  0  0  0  0999 V2000
    7.5391   -1.0340    2.1461 O   0  0  0  0  0  0  0  0  0  0  0  0
    8.3794   -0.6114    1.1502 C   0  0  0  0  0  0  0  0  0  0  0  0
    9.6123   -0.8294    1.2915 O   0  0  0  0  0  0  0  0  0  0  0  0
    7.9542    0.0864   -0.0863 C   0  0  0  0  0  0  0  0  0  0  0  0
    6.5742    0.2289   -0.1332 O   0  0  0  0  0  0  0  0  0  0  0  0
    5.6276   -0.7766   -0.1464 C   0  0  0  0  0  0  0  0  0  0  0  0
    5.9241   -2.1213   -0.1207 C   0  0  0  0  0  0  0  0  0  0  0  0
    4.9027   -3.0645   -0.1376 C   0  0  0  0  0  0  0  0  0  0  0  0
    3.5700   -2.6425   -0.1810 C   0  0  0  0  0  0  0  0  0  0  0  0
    3.2565   -1.2991   -0.2073 C   0  0  0  0  0  0  0  0  0  0  0  0
    4.3014   -0.3974   -0.1891 C   0  0  0  0  0  0  0  0  0  0  0  0
    3.8988    1.0566   -0.2213 C   0  0  0  0  0  0  0  0  0  0  0  0
    2.8043    1.0627   -1.3009 C   0  0  0  0  0  0  0  0  0  0  0  0
    1.5777    0.5203   -0.5839 C   0  0  0  0  0  0  0  0  0  0  0  0
    1.8352   -0.9258   -0.2528 C   0  0  0  0  0  0  0  0  0  0  0  0
    0.4696    0.6354   -1.5669 C   0  0  0  0  0  0  0  0  0  0  0  0
   -0.8225    0.2017   -1.1810 N   0  0  0  0  0  0  0  0  0  0  0  0
   -1.2835   -1.0515   -1.3528 N   0  0  0  0  0  0  0  0  0  0  0  0
   -2.5283   -1.4217   -0.9678 C   0  0  0  0  0  0  0  0  0  0  0  0
   -3.4008   -0.5196   -0.3710 C   0  0  0  0  0  0  0  0  0  0  0  0
   -2.9235    0.7631   -0.1972 C   0  0  0  0  0  0  0  0  0  0  0  0
   -1.6559    1.1015   -0.6000 C   0  0  0  0  0  0  0  0  0  0  0  0
   -1.2723    2.2691   -0.4219 O   0  0  0  0  0  0  0  0  0  0  0  0
   -3.7718    1.7795    0.4224 C   0  0  0  0  0  0  0  0  0  0  0  0
   -4.1097    2.9354   -0.2537 C   0  0  0  0  0  0  0  0  0  0  0  0
   -4.9045    3.9236    0.2825 C   0  0  0  0  0  0  0  0  0  0  0  0
   -5.3858    3.7415    1.5661 C   0  0  0  0  0  0  0  0  0  0  0  0
   -5.0641    2.5943    2.2671 C   0  0  0  0  0  0  0  0  0  0  0  0
   -4.2711    1.6199    1.7180 C   0  0  0  0  0  0  0  0  0  0  0  0
   -4.7329   -0.9353    0.0332 C   0  0  0  0  0  0  0  0  0  0  0  0
   -4.8304   -1.9044    1.0254 C   0  0  0  0  0  0  0  0  0  0  0  0
   -6.0813   -2.3270    1.4346 C   0  0  0  0  0  0  0  0  0  0  0  0
   -7.2257   -1.7985    0.8701 C   0  0  0  0  0  0  0  0  0  0  0  0
   -7.1426   -0.8386   -0.1130 C   0  0  0  0  0  0  0  0  0  0  0  0
   -5.8840   -0.4069   -0.5315 C   0  0  0  0  0  0  0  0  0  0  0  0
   -5.8033    0.5282   -1.4924 F   0  0  0  0  0  0  0  0  0  0  0  0
   -8.2538   -0.3076   -0.6789 F   0  0  0  0  0  0  0  0  0  0  0  0
    7.7205   -1.8274    2.7463 H   0  0  0  0  0  0  0  0  0  0  0  0
    8.3742   -0.4679   -0.9607 H   0  0  0  0  0  0  0  0  0  0  0  0
    8.4001    1.1144   -0.0298 H   0  0  0  0  0  0  0  0  0  0  0  0
    6.9518   -2.4532   -0.0932 H   0  0  0  0  0  0  0  0  0  0  0  0
    5.0923   -4.1310   -0.1185 H   0  0  0  0  0  0  0  0  0  0  0  0
    2.7792   -3.3740   -0.1939 H   0  0  0  0  0  0  0  0  0  0  0  0
    4.7269    1.7267   -0.4556 H   0  0  0  0  0  0  0  0  0  0  0  0
    3.4847    1.3639    0.7606 H   0  0  0  0  0  0  0  0  0  0  0  0
    2.6202    2.0900   -1.6672 H   0  0  0  0  0  0  0  0  0  0  0  0
    3.0472    0.3613   -2.1025 H   0  0  0  0  0  0  0  0  0  0  0  0
    1.4923    1.1602    0.3047 H   0  0  0  0  0  0  0  0  0  0  0  0
    1.2901   -1.6152   -0.9418 H   0  0  0  0  0  0  0  0  0  0  0  0
    1.4230   -1.0994    0.7710 H   0  0  0  0  0  0  0  0  0  0  0  0
    0.7587    0.0672   -2.4755 H   0  0  0  0  0  0  0  0  0  0  0  0
    0.4392    1.7097   -1.8949 H   0  0  0  0  0  0  0  0  0  0  0  0
   -2.8378   -2.4489   -1.1350 H   0  0  0  0  0  0  0  0  0  0  0  0
   -3.7204    3.0660   -1.2721 H   0  0  0  0  0  0  0  0  0  0  0  0
   -5.1455    4.8235   -0.2922 H   0  0  0  0  0  0  0  0  0  0  0  0
   -6.0109    4.4909    2.0222 H   0  0  0  0  0  0  0  0  0  0  0  0
   -5.4435    2.4552    3.2726 H   0  0  0  0  0  0  0  0  0  0  0  0
   -3.9932    0.7142    2.2188 H   0  0  0  0  0  0  0  0  0  0  0  0
   -3.9396   -2.3410    1.4918 H   0  0  0  0  0  0  0  0  0  0  0  0
   -6.1871   -3.0875    2.2123 H   0  0  0  0  0  0  0  0  0  0  0  0
   -8.2015   -2.1328    1.1938 H   0  0  0  0  0  0  0  0  0  0  0  0
  1  2  1  0
  2  3  2  0
  2  4  1  0
  4  5  1  0
  5  6  1  0
  6  7  2  0
  7  8  1  0
  8  9  2  0
  9 10  1  0
 10 11  2  0
 11 12  1  0
 12 13  1  0
 13 14  1  0
 14 15  1  0
 14 16  1  0
 16 17  1  0
 17 18  1  0
 18 19  2  0
 19 20  1  0
 20 21  2  0
 21 22  1  0
 22 23  2  0
 21 24  1  0
 24 25  2  0
 25 26  1  0
 26 27  2  0
 27 28  1  0
 28 29  2  0
 20 30  1  0
 30 31  2  0
 31 32  1  0
 32 33  2  0
 33 34  1  0
 34 35  2  0
 35 36  1  0
 34 37  1  0
 11  6  1  0
 22 17  1  0
 29 24  1  0
 35 30  1  0
 15 10  1  0
  1 38  1  0
  4 39  1  0
  4 40  1  0
  7 41  1  0
  8 42  1  0
  9 43  1  0
 12 44  1  0
 12 45  1  0
 13 46  1  0
 13 47  1  0
 14 48  1  0
 15 49  1  0
 15 50  1  0
 16 51  1  0
 16 52  1  0
 19 53  1  0
 25 54  1  0
 26 55  1  0
 27 56  1  0
 28 57  1  0
 29 58  1  0
 31 59  1  0
 32 60  1  0
 33 61  1  0
M  END
>  <Ligand ID>  (1) 
LIG0003012

>  <Ligand>  (1) 
CHEMBL3398228

>  <SMILES>  (1) 
OC(=O)COc1cccc2c1CCC(C2)Cn1ncc(c(c1=O)c1ccccc1)c1cccc(c1F)F

>  <CID>  (1) 
118727307.0

>  <ChEMBL ID>  (1) 
nan

>  <InChiKey>  (1) 
CQMKTKJCIXXKCC-UHFFFAOYSA-N

>  <InChi>  (1) 
InChI=1S/C29H24F2N2O4/c30-24-10-5-9-22(28(24)31)23-15-32-33(29(36)27(23)19-6-2-1-3-7-19)16-18-12-13-21-20(14-18)8-4-11-25(21)37-17-26(34)35/h1-11,15,18H,12-14,16-17H2,(H,34,35)

>  <IUPAC Name>  (1) 
2-[[6-[[4-(2,3-difluorophenyl)-6-oxo-5-phenylpyridazin-1-yl]methyl]-5,6,7,8-tetrahydronaphthalen-1-yl]oxy]acetic acid

$$$$
