
     RDKit          3D

 30 29  0  0  0  0  0  0  0  0999 V2000
   -3.8253   -0.4853   -0.4690 C   0  0  0  0  0  0  0  0  0  0  0  0
   -2.5535    0.3638   -0.5103 C   0  0  0  0  0  0  0  0  0  0  0  0
   -1.4024   -0.5385   -0.1048 C   0  0  0  0  0  0  0  0  0  0  0  0
   -0.0957    0.2347   -0.1210 C   0  0  0  0  0  0  0  0  0  0  0  0
    1.0716   -0.6249    0.2756 C   0  0  0  0  0  0  0  0  0  0  0  0
    2.3697    0.1554    0.2562 C   0  0  0  0  0  0  0  0  0  0  0  0
    2.3384    1.2262    1.1271 O   0  0  0  0  0  0  0  0  0  0  0  0
    2.6074    0.7215   -1.1373 C   0  0  0  0  0  0  0  0  0  0  0  0
    3.5530   -0.6915    0.5992 C   0  0  0  0  0  0  0  0  0  0  0  0
   -2.6561    1.4689    0.5107 C   0  0  0  0  0  0  0  0  0  0  0  0
   -3.9614   -0.7735    0.6060 H   0  0  0  0  0  0  0  0  0  0  0  0
   -4.6949    0.0197   -0.8894 H   0  0  0  0  0  0  0  0  0  0  0  0
   -3.5990   -1.4055   -1.0280 H   0  0  0  0  0  0  0  0  0  0  0  0
   -2.4189    0.7706   -1.5269 H   0  0  0  0  0  0  0  0  0  0  0  0
   -1.6259   -0.9858    0.8677 H   0  0  0  0  0  0  0  0  0  0  0  0
   -1.3286   -1.3502   -0.8745 H   0  0  0  0  0  0  0  0  0  0  0  0
   -0.1865    1.1047    0.5568 H   0  0  0  0  0  0  0  0  0  0  0  0
   -0.0053    0.6287   -1.1559 H   0  0  0  0  0  0  0  0  0  0  0  0
    1.1250   -1.5397   -0.3151 H   0  0  0  0  0  0  0  0  0  0  0  0
    0.8866   -0.9417    1.3286 H   0  0  0  0  0  0  0  0  0  0  0  0
    2.5845    0.9911    2.0523 H   0  0  0  0  0  0  0  0  0  0  0  0
    2.1366    1.7047   -1.1947 H   0  0  0  0  0  0  0  0  0  0  0  0
    3.7100    0.8784   -1.2358 H   0  0  0  0  0  0  0  0  0  0  0  0
    2.3368    0.0120   -1.9262 H   0  0  0  0  0  0  0  0  0  0  0  0
    3.7082   -0.8093    1.6906 H   0  0  0  0  0  0  0  0  0  0  0  0
    3.5261   -1.6832    0.1304 H   0  0  0  0  0  0  0  0  0  0  0  0
    4.4594   -0.1164    0.2550 H   0  0  0  0  0  0  0  0  0  0  0  0
   -1.8789    2.2145    0.3015 H   0  0  0  0  0  0  0  0  0  0  0  0
   -2.5332    1.0159    1.5223 H   0  0  0  0  0  0  0  0  0  0  0  0
   -3.6475    1.9553    0.4090 H   0  0  0  0  0  0  0  0  0  0  0  0
  1  2  1  0
  2  3  1  0
  3  4  1  0
  4  5  1  0
  5  6  1  0
  6  7  1  0
  6  8  1  0
  6  9  1  0
  2 10  1  0
  1 11  1  0
  1 12  1  0
  1 13  1  0
  2 14  1  0
  3 15  1  0
  3 16  1  0
  4 17  1  0
  4 18  1  0
  5 19  1  0
  5 20  1  0
  7 21  1  0
  8 22  1  0
  8 23  1  0
  8 24  1  0
  9 25  1  0
  9 26  1  0
  9 27  1  0
 10 28  1  0
 10 29  1  0
 10 30  1  0
M  END
>  <Ligand ID>  (1) 
LIG0000369

>  <Ligand>  (1) 
dimetol

>  <SMILES>  (1) 
CC(CCCC(O)(C)C)C

>  <CID>  (1) 
83268.0

>  <ChEMBL ID>  (1) 
nan

>  <InChiKey>  (1) 
HGDVHRITTGWMJK-UHFFFAOYSA-N

>  <InChi>  (1) 
InChI=1S/C9H20O/c1-8(2)6-5-7-9(3,4)10/h8,10H,5-7H2,1-4H3

>  <IUPAC Name>  (1) 
2,6-dimethylheptan-2-ol

$$$$
