
     RDKit          3D

 26 25  0  0  0  0  0  0  0  0999 V2000
   -4.2436   -0.0845   -1.3539 N   0  0  0  0  0  0  0  0  0  0  0  0
   -3.5136   -0.6072   -0.6186 C   0  0  0  0  0  0  0  0  0  0  0  0
   -2.5871   -1.2563    0.3091 C   0  0  0  0  0  0  0  0  0  0  0  0
   -1.1478   -1.0465   -0.0663 C   0  0  0  0  0  0  0  0  0  0  0  0
   -0.7551    0.4126   -0.0929 C   0  0  1  0  0  0  0  0  0  0  0  0
   -0.9163    1.1124    1.1819 C   0  0  0  0  0  0  0  0  0  0  0  0
   -0.0040    1.6860    1.8260 O   0  0  0  0  0  0  0  0  0  0  0  0
   -2.1911    1.1554    1.7455 O   0  0  0  0  0  0  0  0  0  0  0  0
    0.5457    0.5617   -0.7835 C   0  0  0  0  0  0  0  0  0  0  0  0
    1.7136   -0.1495   -0.2160 C   0  0  1  0  0  0  0  0  0  0  0  0
    2.9290    0.1325   -1.0609 C   0  0  0  0  0  0  0  0  0  0  0  0
    2.8865    0.0329   -2.3017 O   0  0  0  0  0  0  0  0  0  0  0  0
    4.1290    0.5140   -0.4348 O   0  0  0  0  0  0  0  0  0  0  0  0
    1.9559    0.0168    1.1753 N   0  0  0  0  0  0  0  0  0  0  0  0
   -2.8413   -1.0544    1.3485 H   0  0  0  0  0  0  0  0  0  0  0  0
   -2.7731   -2.3604    0.1682 H   0  0  0  0  0  0  0  0  0  0  0  0
   -1.0516   -1.3886   -1.1300 H   0  0  0  0  0  0  0  0  0  0  0  0
   -0.5182   -1.6824    0.5530 H   0  0  0  0  0  0  0  0  0  0  0  0
   -1.5228    0.8830   -0.7848 H   0  0  0  0  0  0  0  0  0  0  0  0
   -2.4432    1.7862    2.4925 H   0  0  0  0  0  0  0  0  0  0  0  0
    0.3773    0.2779   -1.8515 H   0  0  0  0  0  0  0  0  0  0  0  0
    0.7725    1.6590   -0.8345 H   0  0  0  0  0  0  0  0  0  0  0  0
    1.5464   -1.2558   -0.3778 H   0  0  0  0  0  0  0  0  0  0  0  0
    4.7841    1.1009   -0.9156 H   0  0  0  0  0  0  0  0  0  0  0  0
    2.9150    0.4221    1.2966 H   0  0  0  0  0  0  0  0  0  0  0  0
    1.9539   -0.8679    1.7297 H   0  0  0  0  0  0  0  0  0  0  0  0
  1  2  3  0
  2  3  1  0
  3  4  1  0
  4  5  1  0
  5  6  1  0
  6  7  2  0
  6  8  1  0
  5  9  1  0
  9 10  1  0
 10 11  1  0
 11 12  2  0
 11 13  1  0
 10 14  1  0
  3 15  1  0
  3 16  1  0
  4 17  1  0
  4 18  1  0
  5 19  1  6
  8 20  1  0
  9 21  1  0
  9 22  1  0
 10 23  1  1
 13 24  1  0
 14 25  1  0
 14 26  1  0
M  END
>  <Ligand ID>  (1) 
LIG0000576

>  <Ligand>  (1) 
CHEMBL2312682

>  <SMILES>  (1) 
N#CCC[C@@H](C(=O)O)C[C@@H](C(=O)O)N

>  <CID>  (1) 
71574837.0

>  <ChEMBL ID>  (1) 
nan

>  <InChiKey>  (1) 
LBUMBNGDQWIQCM-RITPCOANSA-N

>  <InChi>  (1) 
InChI=1S/C8H12N2O4/c9-3-1-2-5(7(11)12)4-6(10)8(13)14/h5-6H,1-2,4,10H2,(H,11,12)(H,13,14)/t5-,6+/m1/s1

>  <IUPAC Name>  (1) 
(2S,4R)-2-amino-4-(2-cyanoethyl)pentanedioic acid

$$$$
