
     RDKit          3D

 13 12  0  0  0  0  0  0  0  0999 V2000
   -2.2835   -0.2708   -0.5586 C   0  0  0  0  0  0  0  0  0  0  0  0
   -1.3082    0.8037    0.5158 S   0  0  0  0  0  0  0  0  0  0  0  0
    0.2720    0.0455    0.9737 C   0  0  0  0  0  0  0  0  0  0  0  0
    1.1907   -0.1105   -0.1962 C   0  0  0  0  0  0  0  0  0  0  0  0
    2.3765    0.4834   -0.1953 C   0  0  0  0  0  0  0  0  0  0  0  0
   -2.5473   -1.2444   -0.1115 H   0  0  0  0  0  0  0  0  0  0  0  0
   -1.7237   -0.3919   -1.5041 H   0  0  0  0  0  0  0  0  0  0  0  0
   -3.2464    0.2510   -0.7658 H   0  0  0  0  0  0  0  0  0  0  0  0
    0.0334   -0.9484    1.4204 H   0  0  0  0  0  0  0  0  0  0  0  0
    0.7218    0.6545    1.7765 H   0  0  0  0  0  0  0  0  0  0  0  0
    0.8317   -0.7224   -1.0175 H   0  0  0  0  0  0  0  0  0  0  0  0
    2.6252    1.0747    0.6940 H   0  0  0  0  0  0  0  0  0  0  0  0
    3.0577    0.3757   -1.0316 H   0  0  0  0  0  0  0  0  0  0  0  0
  1  2  1  0
  2  3  1  0
  3  4  1  0
  4  5  2  0
  1  6  1  0
  1  7  1  0
  1  8  1  0
  3  9  1  0
  3 10  1  0
  4 11  1  0
  5 12  1  0
  5 13  1  0
M  END
>  <Ligand ID>  (1) 
LIG0000636

>  <Ligand>  (1) 
Allyl methyl sulfide

>  <SMILES>  (1) 
CSCC=C

>  <CID>  (1) 
66282.0

>  <ChEMBL ID>  (1) 
nan

>  <InChiKey>  (1) 
NVLPQIPTCCLBEU-UHFFFAOYSA-N

>  <InChi>  (1) 
InChI=1S/C4H8S/c1-3-4-5-2/h3H,1,4H2,2H3

>  <IUPAC Name>  (1) 
3-methylsulfanylprop-1-ene

$$$$
