
     RDKit          3D

 82 87  0  0  0  0  0  0  0  0999 V2000
   12.4646   -2.4288   -1.5746 C   0  0  0  0  0  0  0  0  0  0  0  0
   12.0403   -1.3697   -0.7470 O   0  0  0  0  0  0  0  0  0  0  0  0
   10.6731   -1.1765   -0.5779 C   0  0  0  0  0  0  0  0  0  0  0  0
    9.7933   -2.0200   -1.2199 C   0  0  0  0  0  0  0  0  0  0  0  0
    8.4457   -1.8318   -1.0550 C   0  0  0  0  0  0  0  0  0  0  0  0
    7.9598   -0.8043   -0.2509 C   0  0  0  0  0  0  0  0  0  0  0  0
    8.8359    0.0311    0.3850 C   0  0  0  0  0  0  0  0  0  0  0  0
   10.1858   -0.1520    0.2240 C   0  0  0  0  0  0  0  0  0  0  0  0
   11.1347    0.6535    0.8358 O   0  0  0  0  0  0  0  0  0  0  0  0
   10.7018    1.7133    1.6643 C   0  0  0  0  0  0  0  0  0  0  0  0
    6.5051   -0.6942   -0.1441 C   0  0  0  0  0  0  0  0  0  0  0  0
    5.9784   -0.2094    1.0383 C   0  0  0  0  0  0  0  0  0  0  0  0
    4.6184   -0.0829    1.2029 C   0  0  0  0  0  0  0  0  0  0  0  0
    3.7985   -0.4518    0.1597 C   0  0  0  0  0  0  0  0  0  0  0  0
    4.3306   -0.9363   -1.0213 C   0  0  0  0  0  0  0  0  0  0  0  0
    5.6952   -1.0678   -1.1984 C   0  0  0  0  0  0  0  0  0  0  0  0
    2.3119   -0.3576    0.2292 C   0  0  0  0  0  0  0  0  0  0  0  0
    1.7881    0.9783   -0.2506 C   0  0  0  0  0  0  0  0  0  0  0  0
    0.3420    1.0117   -0.1625 N   0  0  0  0  0  0  0  0  0  0  0  0
   -0.3877    0.8563    1.0304 C   0  0  0  0  0  0  0  0  0  0  0  0
    0.2278    0.6719    2.1349 O   0  0  0  0  0  0  0  0  0  0  0  0
   -1.8413    0.8879    1.1236 C   0  0  0  0  0  0  0  0  0  0  0  0
   -2.4324    0.7283    2.3504 C   0  0  0  0  0  0  0  0  0  0  0  0
   -3.8216    0.7457    2.5233 C   0  0  0  0  0  0  0  0  0  0  0  0
   -4.5975    0.9326    1.3953 C   0  0  0  0  0  0  0  0  0  0  0  0
   -4.0524    1.0977    0.1396 C   0  0  0  0  0  0  0  0  0  0  0  0
   -2.6717    1.0702    0.0394 C   0  0  0  0  0  0  0  0  0  0  0  0
   -4.8827    1.2995   -1.0819 C   0  0  0  0  0  0  0  0  0  0  0  0
   -4.2504    2.3058   -1.9974 C   0  0  0  0  0  0  0  0  0  0  0  0
   -5.0139   -0.0266   -1.7977 C   0  0  0  0  0  0  0  0  0  0  0  0
   -5.6202   -1.0006   -0.8411 C   0  0  0  0  0  0  0  0  0  0  0  0
   -6.8177   -0.5508   -0.2180 N   0  0  0  0  0  0  0  0  0  0  0  0
   -6.8202    0.7475    0.3414 C   0  0  0  0  0  0  0  0  0  0  0  0
   -6.0820    0.9458    1.6167 C   0  0  0  0  0  0  0  0  0  0  0  0
   -6.2563    1.7272   -0.6646 C   0  0  0  0  0  0  0  0  0  0  0  0
   -7.2217    1.8194   -1.8033 C   0  0  0  0  0  0  0  0  0  0  0  0
   -7.3823   -1.5771    0.6062 C   0  0  0  0  0  0  0  0  0  0  0  0
   -8.6590   -1.1422    1.2901 C   0  0  0  0  0  0  0  0  0  0  0  0
   -9.8335   -0.7220    0.4903 C   0  0  0  0  0  0  0  0  0  0  0  0
   -9.8715   -2.0816    1.1092 C   0  0  0  0  0  0  0  0  0  0  0  0
   12.2128   -3.4095   -1.1580 H   0  0  0  0  0  0  0  0  0  0  0  0
   13.5860   -2.3724   -1.6871 H   0  0  0  0  0  0  0  0  0  0  0  0
   11.9783   -2.3227   -2.5696 H   0  0  0  0  0  0  0  0  0  0  0  0
   10.1153   -2.8324   -1.8546 H   0  0  0  0  0  0  0  0  0  0  0  0
    7.7487   -2.5007   -1.5640 H   0  0  0  0  0  0  0  0  0  0  0  0
    8.4590    0.8177    1.0004 H   0  0  0  0  0  0  0  0  0  0  0  0
   11.5108    2.4513    1.8449 H   0  0  0  0  0  0  0  0  0  0  0  0
   10.3057    1.2801    2.6208 H   0  0  0  0  0  0  0  0  0  0  0  0
    9.8610    2.2847    1.2268 H   0  0  0  0  0  0  0  0  0  0  0  0
    6.6057    0.0853    1.8692 H   0  0  0  0  0  0  0  0  0  0  0  0
    4.1684    0.2939    2.1172 H   0  0  0  0  0  0  0  0  0  0  0  0
    3.6731   -1.2298   -1.8523 H   0  0  0  0  0  0  0  0  0  0  0  0
    6.0975   -1.4495   -2.1316 H   0  0  0  0  0  0  0  0  0  0  0  0
    1.8197   -1.1841   -0.3078 H   0  0  0  0  0  0  0  0  0  0  0  0
    2.0595   -0.4883    1.3006 H   0  0  0  0  0  0  0  0  0  0  0  0
    2.0729    1.0867   -1.3199 H   0  0  0  0  0  0  0  0  0  0  0  0
    2.2231    1.7930    0.3719 H   0  0  0  0  0  0  0  0  0  0  0  0
   -0.2349    1.1626   -1.0442 H   0  0  0  0  0  0  0  0  0  0  0  0
   -1.8702    0.5777    3.2714 H   0  0  0  0  0  0  0  0  0  0  0  0
   -4.2623    0.6157    3.5139 H   0  0  0  0  0  0  0  0  0  0  0  0
   -2.2569    1.2007   -0.9495 H   0  0  0  0  0  0  0  0  0  0  0  0
   -4.9957    2.7212   -2.6840 H   0  0  0  0  0  0  0  0  0  0  0  0
   -3.7148    3.0861   -1.3967 H   0  0  0  0  0  0  0  0  0  0  0  0
   -3.4724    1.8313   -2.6340 H   0  0  0  0  0  0  0  0  0  0  0  0
   -5.5688    0.0890   -2.7280 H   0  0  0  0  0  0  0  0  0  0  0  0
   -4.0106   -0.4301   -2.0926 H   0  0  0  0  0  0  0  0  0  0  0  0
   -4.8758   -1.3890   -0.1196 H   0  0  0  0  0  0  0  0  0  0  0  0
   -5.9023   -1.9003   -1.4632 H   0  0  0  0  0  0  0  0  0  0  0  0
   -7.8821    1.0481    0.5012 H   0  0  0  0  0  0  0  0  0  0  0  0
   -6.2937    2.0033    1.9369 H   0  0  0  0  0  0  0  0  0  0  0  0
   -6.3726    0.3256    2.4615 H   0  0  0  0  0  0  0  0  0  0  0  0
   -6.2069    2.6993   -0.1711 H   0  0  0  0  0  0  0  0  0  0  0  0
   -7.0253    2.6582   -2.4994 H   0  0  0  0  0  0  0  0  0  0  0  0
   -7.4138    0.8535   -2.3127 H   0  0  0  0  0  0  0  0  0  0  0  0
   -8.2165    2.0776   -1.3346 H   0  0  0  0  0  0  0  0  0  0  0  0
   -7.6137   -2.4748   -0.0407 H   0  0  0  0  0  0  0  0  0  0  0  0
   -6.7057   -1.9626    1.3759 H   0  0  0  0  0  0  0  0  0  0  0  0
   -8.5067   -0.7609    2.3190 H   0  0  0  0  0  0  0  0  0  0  0  0
  -10.5063    0.0244    0.9883 H   0  0  0  0  0  0  0  0  0  0  0  0
   -9.7312   -0.6091   -0.5933 H   0  0  0  0  0  0  0  0  0  0  0  0
   -9.7019   -2.9735    0.4427 H   0  0  0  0  0  0  0  0  0  0  0  0
  -10.4716   -2.3173    1.9941 H   0  0  0  0  0  0  0  0  0  0  0  0
  1  2  1  0
  2  3  1  0
  3  4  2  0
  4  5  1  0
  5  6  2  0
  6  7  1  0
  7  8  2  0
  8  9  1  0
  9 10  1  0
  6 11  1  0
 11 12  2  0
 12 13  1  0
 13 14  2  0
 14 15  1  0
 15 16  2  0
 14 17  1  0
 17 18  1  0
 18 19  1  0
 19 20  1  0
 20 21  2  0
 20 22  1  0
 22 23  2  0
 23 24  1  0
 24 25  2  0
 25 26  1  0
 26 27  2  0
 26 28  1  0
 28 29  1  0
 28 30  1  0
 30 31  1  0
 31 32  1  0
 32 33  1  0
 33 34  1  0
 33 35  1  0
 35 36  1  0
 32 37  1  0
 37 38  1  0
 38 39  1  0
 39 40  1  0
  8  3  1  0
 16 11  1  0
 27 22  1  0
 35 28  1  0
 40 38  1  0
 34 25  1  0
  1 41  1  0
  1 42  1  0
  1 43  1  0
  4 44  1  0
  5 45  1  0
  7 46  1  0
 10 47  1  0
 10 48  1  0
 10 49  1  0
 12 50  1  0
 13 51  1  0
 15 52  1  0
 16 53  1  0
 17 54  1  0
 17 55  1  0
 18 56  1  0
 18 57  1  0
 19 58  1  0
 23 59  1  0
 24 60  1  0
 27 61  1  0
 29 62  1  0
 29 63  1  0
 29 64  1  0
 30 65  1  0
 30 66  1  0
 31 67  1  0
 31 68  1  0
 33 69  1  0
 34 70  1  0
 34 71  1  0
 35 72  1  0
 36 73  1  0
 36 74  1  0
 36 75  1  0
 37 76  1  0
 37 77  1  0
 38 78  1  0
 39 79  1  0
 39 80  1  0
 40 81  1  0
 40 82  1  0
M  END
>  <Ligand ID>  (1) 
LIG0003994

>  <Ligand>  (1) 
CHEMBL2208350

>  <SMILES>  (1) 
COc1ccc(cc1OC)c1ccc(cc1)CCNC(=O)c1ccc2c(c1)C1(C)CCN(C(C2)C1C)CC1CC1

>  <CID>  (1) 
71454362.0

>  <ChEMBL ID>  (1) 
nan

>  <InChiKey>  (1) 
PWHGDVUYVPECPZ-UHFFFAOYSA-N

>  <InChi>  (1) 
InChI=1S/C35H42N2O3/c1-23-31-20-28-11-12-29(19-30(28)35(23,2)16-18-37(31)22-25-5-6-25)34(38)36-17-15-24-7-9-26(10-8-24)27-13-14-32(39-3)33(21-27)40-4/h7-14,19,21,23,25,31H,5-6,15-18,20,22H2,1-4H3,(H,36,38)

>  <IUPAC Name>  (1) 
10-(cyclopropylmethyl)-N-[2-[4-(3,4-dimethoxyphenyl)phenyl]ethyl]-1,13-dimethyl-10-azatricyclo[7.3.1.02,7]trideca-2(7),3,5-triene-4-carboxamide

$$$$
