
     RDKit          3D

 52 55  0  0  0  0  0  0  0  0999 V2000
    0.2614   -2.7393   -0.2926 O   0  0  0  0  0  0  0  0  0  0  0  0
    0.4998   -1.4850   -0.1462 C   0  0  0  0  0  0  0  0  0  0  0  0
   -0.5701   -0.5802    0.0565 N   0  0  0  0  0  0  0  0  0  0  0  0
   -0.4693    0.8287    0.2325 C   0  0  0  0  0  0  0  0  0  0  0  0
   -1.2425    1.5959   -0.8509 C   0  0  0  0  0  0  0  0  0  0  0  0
   -0.6629    2.9966   -0.8226 C   0  0  0  0  0  0  0  0  0  0  0  0
   -0.0458    3.3703    0.4841 C   0  0  0  0  0  0  0  0  0  0  0  0
   -0.7173    2.7675    1.6866 C   0  0  0  0  0  0  0  0  0  0  0  0
   -1.0680    1.3145    1.5359 C   0  0  0  0  0  0  0  0  0  0  0  0
   -1.9169   -1.1630    0.0885 C   0  0  0  0  0  0  0  0  0  0  0  0
   -2.1114   -2.1154    1.2328 C   0  0  0  0  0  0  0  0  0  0  0  0
   -2.6716   -3.4437    0.8745 C   0  0  0  0  0  0  0  0  0  0  0  0
   -3.6881   -3.4654   -0.2107 C   0  0  0  0  0  0  0  0  0  0  0  0
   -3.7618   -2.2095   -1.0395 C   0  0  0  0  0  0  0  0  0  0  0  0
   -2.3002   -1.7789   -1.2434 C   0  0  0  0  0  0  0  0  0  0  0  0
    1.9034   -1.1161   -0.2076 C   0  0  0  0  0  0  0  0  0  0  0  0
    2.9436   -2.0370   -0.3203 C   0  0  0  0  0  0  0  0  0  0  0  0
    4.1387   -1.3432   -0.3510 C   0  0  0  0  0  0  0  0  0  0  0  0
    3.7822   -0.0153   -0.2553 C   0  0  0  0  0  0  0  0  0  0  0  0
    2.4969    0.0463   -0.1768 O   0  0  0  0  0  0  0  0  0  0  0  0
    4.7556    1.1003   -0.2490 C   0  0  0  0  0  0  0  0  0  0  0  0
    4.5054    2.0961    0.8934 C   0  0  0  0  0  0  0  0  0  0  0  0
    4.3650    2.4941   -0.5434 C   0  0  0  0  0  0  0  0  0  0  0  0
    0.5712    1.1780    0.1963 H   0  0  0  0  0  0  0  0  0  0  0  0
   -1.1175    1.1132   -1.8391 H   0  0  0  0  0  0  0  0  0  0  0  0
   -2.2886    1.6251   -0.5266 H   0  0  0  0  0  0  0  0  0  0  0  0
   -1.4193    3.7279   -1.1937 H   0  0  0  0  0  0  0  0  0  0  0  0
    0.1736    2.9886   -1.5768 H   0  0  0  0  0  0  0  0  0  0  0  0
   -0.1408    4.4863    0.5887 H   0  0  0  0  0  0  0  0  0  0  0  0
    1.0595    3.1863    0.5364 H   0  0  0  0  0  0  0  0  0  0  0  0
    0.0020    2.8514    2.5252 H   0  0  0  0  0  0  0  0  0  0  0  0
   -1.5813    3.4060    1.9475 H   0  0  0  0  0  0  0  0  0  0  0  0
   -0.7105    0.7094    2.3881 H   0  0  0  0  0  0  0  0  0  0  0  0
   -2.1849    1.2763    1.4364 H   0  0  0  0  0  0  0  0  0  0  0  0
   -2.6802   -0.3574    0.2469 H   0  0  0  0  0  0  0  0  0  0  0  0
   -2.7401   -1.6826    2.0635 H   0  0  0  0  0  0  0  0  0  0  0  0
   -1.1265   -2.3094    1.7488 H   0  0  0  0  0  0  0  0  0  0  0  0
   -1.8439   -4.1723    0.7095 H   0  0  0  0  0  0  0  0  0  0  0  0
   -3.1897   -3.8548    1.7937 H   0  0  0  0  0  0  0  0  0  0  0  0
   -3.3758   -4.2758   -0.9340 H   0  0  0  0  0  0  0  0  0  0  0  0
   -4.7026   -3.7954    0.1298 H   0  0  0  0  0  0  0  0  0  0  0  0
   -4.2134   -2.3588   -2.0182 H   0  0  0  0  0  0  0  0  0  0  0  0
   -4.3168   -1.4214   -0.4722 H   0  0  0  0  0  0  0  0  0  0  0  0
   -2.2824   -0.9777   -2.0118 H   0  0  0  0  0  0  0  0  0  0  0  0
   -1.7235   -2.6643   -1.5184 H   0  0  0  0  0  0  0  0  0  0  0  0
    2.9051   -3.1112   -0.3790 H   0  0  0  0  0  0  0  0  0  0  0  0
    5.1221   -1.7656   -0.4325 H   0  0  0  0  0  0  0  0  0  0  0  0
    5.8350    0.7940   -0.3146 H   0  0  0  0  0  0  0  0  0  0  0  0
    3.5763    2.0024    1.4857 H   0  0  0  0  0  0  0  0  0  0  0  0
    5.3792    2.4382    1.4935 H   0  0  0  0  0  0  0  0  0  0  0  0
    3.3734    2.7044   -0.9727 H   0  0  0  0  0  0  0  0  0  0  0  0
    5.2143    3.1413   -0.9108 H   0  0  0  0  0  0  0  0  0  0  0  0
  1  2  2  0
  2  3  1  0
  3  4  1  0
  4  5  1  0
  5  6  1  0
  6  7  1  0
  7  8  1  0
  8  9  1  0
  3 10  1  0
 10 11  1  0
 11 12  1  0
 12 13  1  0
 13 14  1  0
 14 15  1  0
  2 16  1  0
 16 17  2  0
 17 18  1  0
 18 19  2  0
 19 20  1  0
 19 21  1  0
 21 22  1  0
 22 23  1  0
  9  4  1  0
 15 10  1  0
 20 16  1  0
 23 21  1  0
  4 24  1  0
  5 25  1  0
  5 26  1  0
  6 27  1  0
  6 28  1  0
  7 29  1  0
  7 30  1  0
  8 31  1  0
  8 32  1  0
  9 33  1  0
  9 34  1  0
 10 35  1  0
 11 36  1  0
 11 37  1  0
 12 38  1  0
 12 39  1  0
 13 40  1  0
 13 41  1  0
 14 42  1  0
 14 43  1  0
 15 44  1  0
 15 45  1  0
 17 46  1  0
 18 47  1  0
 21 48  1  0
 22 49  1  0
 22 50  1  0
 23 51  1  0
 23 52  1  0
M  END
>  <Ligand ID>  (1) 
LIG0001361

>  <Ligand>  (1) 
CHEMBL1979472

>  <SMILES>  (1) 
O=C(N(C1CCCCC1)C1CCCCC1)c1ccc(o1)C1CC1

>  <CID>  (1) 
25110522.0

>  <ChEMBL ID>  (1) 
nan

>  <InChiKey>  (1) 
QJWORZFKJNDXOV-UHFFFAOYSA-N

>  <InChi>  (1) 
InChI=1S/C20H29NO2/c22-20(19-14-13-18(23-19)15-11-12-15)21(16-7-3-1-4-8-16)17-9-5-2-6-10-17/h13-17H,1-12H2

>  <IUPAC Name>  (1) 
N,N-dicyclohexyl-5-cyclopropylfuran-2-carboxamide

$$$$
