
     RDKit          3D

138140  0  0  0  0  0  0  0  0999 V2000
   -7.0017    1.7802   -2.4686 C   0  0  0  0  0  0  0  0  0  0  0  0
   -5.5309    1.8104   -2.2828 C   0  0  0  0  0  0  0  0  0  0  0  0
   -4.8942    0.4342   -2.1453 C   0  0  1  0  0  0  0  0  0  0  0  0
   -5.4598   -0.2554   -0.9676 C   0  0  2  0  0  0  0  0  0  0  0  0
   -5.2305    0.5038    0.2780 N   0  0  0  0  0  0  0  0  0  0  0  0
   -6.1791    1.0874    1.1495 C   0  0  0  0  0  0  0  0  0  0  0  0
   -7.3342    1.1129    0.7995 O   0  0  0  0  0  0  0  0  0  0  0  0
   -5.6120    1.6375    2.4451 C   0  0  1  0  0  0  0  0  0  0  0  0
   -4.3904    1.0053    2.7406 N   0  0  0  0  0  0  0  0  0  0  0  0
   -3.4072    1.2527    3.7983 C   0  0  0  0  0  0  0  0  0  0  0  0
   -3.6419    2.2034    4.4883 O   0  0  0  0  0  0  0  0  0  0  0  0
   -2.3291    0.2680    3.7641 C   0  0  0  0  0  0  0  0  0  0  0  0
   -1.0138    0.7205    4.3360 C   0  0  0  0  0  0  0  0  0  0  0  0
    0.1301   -0.7434    3.8414 S   0  0  0  0  0  0  0  0  0  0  0  0
   -0.1681   -0.8624    1.7052 S   0  0  0  0  0  0  0  0  0  0  0  0
    1.0817    0.0571    0.8629 C   0  0  0  0  0  0  0  0  0  0  0  0
    2.3259   -0.9204    0.6127 C   0  0  2  0  0  0  0  0  0  0  0  0
    1.6681   -2.1108    0.0249 N   0  0  0  0  0  0  0  0  0  0  0  0
    0.5570   -2.1449   -0.8104 C   0  0  0  0  0  0  0  0  0  0  0  0
   -0.0046   -1.0756   -1.0946 O   0  0  0  0  0  0  0  0  0  0  0  0
   -0.0746   -3.3620   -1.4207 C   0  0  1  0  0  0  0  0  0  0  0  0
   -1.5024   -3.1043   -1.6410 N   0  0  0  0  0  0  0  0  0  0  0  0
   -2.4340   -3.9506   -1.0140 C   0  0  0  0  0  0  0  0  0  0  0  0
   -1.9515   -4.9293   -0.4062 O   0  0  0  0  0  0  0  0  0  0  0  0
   -3.9205   -3.8326   -0.9880 C   0  0  1  0  0  0  0  0  0  0  0  0
   -4.3800   -2.5865   -1.5381 N   0  0  0  0  0  0  0  0  0  0  0  0
   -4.8570   -1.5888   -0.6606 C   0  0  0  0  0  0  0  0  0  0  0  0
   -4.7446   -1.8662    0.5596 O   0  0  0  0  0  0  0  0  0  0  0  0
   -4.4625   -5.0966   -1.5549 C   0  0  0  0  0  0  0  0  0  0  0  0
   -5.9427   -5.1883   -1.5331 C   0  0  0  0  0  0  0  0  0  0  0  0
   -6.6283   -4.2709   -2.4218 C   0  0  0  0  0  0  0  0  0  0  0  0
   -6.1855   -3.7389   -3.4693 O   0  0  0  0  0  0  0  0  0  0  0  0
   -7.9910   -3.9081   -2.0919 N   0  0  0  0  0  0  0  0  0  0  0  0
    0.5811   -3.4799   -2.7739 C   0  0  0  0  0  0  0  0  0  0  0  0
    0.0935   -4.6362   -3.5180 C   0  0  0  0  0  0  0  0  0  0  0  0
   -0.7056   -5.5131   -3.1158 O   0  0  0  0  0  0  0  0  0  0  0  0
    0.5763   -4.8020   -4.8685 N   0  0  0  0  0  0  0  0  0  0  0  0
    2.9143   -1.2255    1.8981 C   0  0  0  0  0  0  0  0  0  0  0  0
    2.4864   -2.3236    2.4499 O   0  0  0  0  0  0  0  0  0  0  0  0
    3.8740   -0.5192    2.6369 N   0  0  0  0  0  0  0  0  0  0  0  0
    4.2319   -0.9560    3.9655 C   0  0  0  0  0  0  0  0  0  0  0  0
    5.2257   -2.0152    4.0923 C   0  0  0  0  0  0  0  0  0  0  0  0
    6.5931   -1.8288    4.0962 C   0  0  0  0  0  0  0  0  0  0  0  0
    7.4986   -2.8596    4.2541 C   0  0  0  0  0  0  0  0  0  0  0  0
    7.0415   -4.1512    4.4177 C   0  0  0  0  0  0  0  0  0  0  0  0
    5.7225   -4.3464    4.4142 N   0  0  0  0  0  0  0  0  0  0  0  0
    4.8185   -3.3465    4.2611 C   0  0  0  0  0  0  0  0  0  0  0  0
    4.4708    0.6392    2.0064 C   0  0  0  0  0  0  0  0  0  0  0  0
    5.6912    0.3398    1.2102 C   0  0  0  0  0  0  0  0  0  0  0  0
    6.2278   -0.7774    1.1088 O   0  0  0  0  0  0  0  0  0  0  0  0
    6.2486    1.4761    0.5180 N   0  0  0  0  0  0  0  0  0  0  0  0
    7.4531    1.3272   -0.2991 C   0  0  2  0  0  0  0  0  0  0  0  0
    8.2528    2.5281   -0.2948 C   0  0  0  0  0  0  0  0  0  0  0  0
    7.8611    3.5803    0.3245 O   0  0  0  0  0  0  0  0  0  0  0  0
    9.5217    2.6765   -0.9506 N   0  0  0  0  0  0  0  0  0  0  0  0
   10.1583    3.9780   -0.8117 C   0  0  0  0  0  0  0  0  0  0  0  0
   11.4504    4.0668   -1.5245 C   0  0  0  0  0  0  0  0  0  0  0  0
   11.9316    3.1196   -2.1802 O   0  0  0  0  0  0  0  0  0  0  0  0
   12.1478    5.3218   -1.4271 N   0  0  0  0  0  0  0  0  0  0  0  0
    7.1134    0.8081   -1.6520 C   0  0  0  0  0  0  0  0  0  0  0  0
    6.1625    1.6148   -2.4407 C   0  0  0  0  0  0  0  0  0  0  0  0
    6.6254    3.0004   -2.7326 C   0  0  0  0  0  0  0  0  0  0  0  0
    5.8198    0.8202   -3.7086 C   0  0  0  0  0  0  0  0  0  0  0  0
   -5.3345    3.1487    2.2431 C   0  0  0  0  0  0  0  0  0  0  0  0
   -6.5872    3.8643    1.9449 C   0  0  0  0  0  0  0  0  0  0  0  0
   -7.1293    4.0830    0.7110 C   0  0  0  0  0  0  0  0  0  0  0  0
   -8.3186    4.7623    0.5002 C   0  0  0  0  0  0  0  0  0  0  0  0
   -9.0216    5.2602    1.5779 C   0  0  0  0  0  0  0  0  0  0  0  0
   -8.4942    5.0520    2.8467 C   0  0  0  0  0  0  0  0  0  0  0  0
   -7.2995    4.3680    3.0406 C   0  0  0  0  0  0  0  0  0  0  0  0
  -10.2085    5.9371    1.3592 O   0  0  0  0  0  0  0  0  0  0  0  0
   -5.2898   -0.2932   -3.4203 C   0  0  0  0  0  0  0  0  0  0  0  0
   -7.2296    2.0770   -3.5327 H   0  0  0  0  0  0  0  0  0  0  0  0
   -7.4315    0.7568   -2.3408 H   0  0  0  0  0  0  0  0  0  0  0  0
   -7.6054    2.4390   -1.8476 H   0  0  0  0  0  0  0  0  0  0  0  0
   -5.0718    2.2141   -3.2427 H   0  0  0  0  0  0  0  0  0  0  0  0
   -5.1861    2.4991   -1.5131 H   0  0  0  0  0  0  0  0  0  0  0  0
   -3.8052    0.5537   -2.1380 H   0  0  0  0  0  0  0  0  0  0  0  0
   -6.5378   -0.3880   -1.0590 H   0  0  0  0  0  0  0  0  0  0  0  0
   -4.2408    0.6537    0.4867 H   0  0  0  0  0  0  0  0  0  0  0  0
   -6.3894    1.6043    3.2270 H   0  0  0  0  0  0  0  0  0  0  0  0
   -4.0928    0.1921    2.1640 H   0  0  0  0  0  0  0  0  0  0  0  0
   -2.6902   -0.6327    4.3537 H   0  0  0  0  0  0  0  0  0  0  0  0
   -2.1680   -0.0709    2.6926 H   0  0  0  0  0  0  0  0  0  0  0  0
   -1.0234    0.7486    5.4187 H   0  0  0  0  0  0  0  0  0  0  0  0
   -0.5386    1.5569    3.8423 H   0  0  0  0  0  0  0  0  0  0  0  0
    1.4573    0.9307    1.4534 H   0  0  0  0  0  0  0  0  0  0  0  0
    0.8243    0.4342   -0.0933 H   0  0  0  0  0  0  0  0  0  0  0  0
    2.9162   -0.3418   -0.0607 H   0  0  0  0  0  0  0  0  0  0  0  0
    2.0970   -3.0128    0.2639 H   0  0  0  0  0  0  0  0  0  0  0  0
    0.0973   -4.2221   -0.8205 H   0  0  0  0  0  0  0  0  0  0  0  0
   -1.8750   -2.3579   -2.2242 H   0  0  0  0  0  0  0  0  0  0  0  0
   -4.1532   -3.8911    0.1202 H   0  0  0  0  0  0  0  0  0  0  0  0
   -4.3336   -2.3849   -2.5108 H   0  0  0  0  0  0  0  0  0  0  0  0
   -4.0787   -5.2237   -2.6171 H   0  0  0  0  0  0  0  0  0  0  0  0
   -4.0136   -5.9407   -0.9575 H   0  0  0  0  0  0  0  0  0  0  0  0
   -6.2787   -6.2711   -1.7006 H   0  0  0  0  0  0  0  0  0  0  0  0
   -6.3210   -5.0414   -0.4475 H   0  0  0  0  0  0  0  0  0  0  0  0
   -8.5322   -4.4395   -1.3639 H   0  0  0  0  0  0  0  0  0  0  0  0
   -8.4894   -3.1259   -2.5434 H   0  0  0  0  0  0  0  0  0  0  0  0
    1.7138   -3.4937   -2.6901 H   0  0  0  0  0  0  0  0  0  0  0  0
    0.3954   -2.5175   -3.3463 H   0  0  0  0  0  0  0  0  0  0  0  0
   -0.0497   -4.9800   -5.6745 H   0  0  0  0  0  0  0  0  0  0  0  0
    1.6081   -4.7370   -5.0470 H   0  0  0  0  0  0  0  0  0  0  0  0
    3.2730   -1.3376    4.4479 H   0  0  0  0  0  0  0  0  0  0  0  0
    4.4816   -0.0696    4.6226 H   0  0  0  0  0  0  0  0  0  0  0  0
    6.9960   -0.8272    3.9676 H   0  0  0  0  0  0  0  0  0  0  0  0
    8.5785   -2.7016    4.2564 H   0  0  0  0  0  0  0  0  0  0  0  0
    7.7360   -4.9852    4.5501 H   0  0  0  0  0  0  0  0  0  0  0  0
    3.7902   -3.6464    4.3000 H   0  0  0  0  0  0  0  0  0  0  0  0
    4.8220    1.3815    2.7771 H   0  0  0  0  0  0  0  0  0  0  0  0
    3.6996    1.1485    1.4134 H   0  0  0  0  0  0  0  0  0  0  0  0
    5.8341    2.4252    0.5633 H   0  0  0  0  0  0  0  0  0  0  0  0
    8.0455    0.4874    0.1957 H   0  0  0  0  0  0  0  0  0  0  0  0
    9.9269    1.8782   -1.4761 H   0  0  0  0  0  0  0  0  0  0  0  0
    9.4786    4.8032   -1.1695 H   0  0  0  0  0  0  0  0  0  0  0  0
   10.3210    4.1255    0.2881 H   0  0  0  0  0  0  0  0  0  0  0  0
   11.6200    6.2344   -1.2862 H   0  0  0  0  0  0  0  0  0  0  0  0
   13.1830    5.2790   -1.5057 H   0  0  0  0  0  0  0  0  0  0  0  0
    8.0888    0.7599   -2.2221 H   0  0  0  0  0  0  0  0  0  0  0  0
    6.8254   -0.2892   -1.6165 H   0  0  0  0  0  0  0  0  0  0  0  0
    5.1617    1.7402   -1.9075 H   0  0  0  0  0  0  0  0  0  0  0  0
    6.3649    3.7293   -1.9351 H   0  0  0  0  0  0  0  0  0  0  0  0
    6.1251    3.3735   -3.6753 H   0  0  0  0  0  0  0  0  0  0  0  0
    7.7073    3.0857   -2.9303 H   0  0  0  0  0  0  0  0  0  0  0  0
    6.1983   -0.2162   -3.6780 H   0  0  0  0  0  0  0  0  0  0  0  0
    6.3479    1.3430   -4.5458 H   0  0  0  0  0  0  0  0  0  0  0  0
    4.7375    0.8281   -3.9242 H   0  0  0  0  0  0  0  0  0  0  0  0
   -4.8849    3.5882    3.1526 H   0  0  0  0  0  0  0  0  0  0  0  0
   -4.6147    3.3045    1.4122 H   0  0  0  0  0  0  0  0  0  0  0  0
   -6.6124    3.7085   -0.1432 H   0  0  0  0  0  0  0  0  0  0  0  0
   -8.6504    4.8744   -0.5305 H   0  0  0  0  0  0  0  0  0  0  0  0
   -9.0723    5.4592    3.6772 H   0  0  0  0  0  0  0  0  0  0  0  0
   -6.9245    4.2387    4.0647 H   0  0  0  0  0  0  0  0  0  0  0  0
  -10.2174    6.8582    0.9511 H   0  0  0  0  0  0  0  0  0  0  0  0
   -5.7732    0.4426   -4.1582 H   0  0  0  0  0  0  0  0  0  0  0  0
   -4.3919   -0.6190   -3.9811 H   0  0  0  0  0  0  0  0  0  0  0  0
   -6.0706   -1.0285   -3.2623 H   0  0  0  0  0  0  0  0  0  0  0  0
  1  2  1  0
  2  3  1  0
  3  4  1  0
  4  5  1  0
  5  6  1  0
  6  7  2  0
  6  8  1  0
  8  9  1  0
  9 10  1  0
 10 11  2  0
 10 12  1  0
 12 13  1  0
 13 14  1  0
 14 15  1  0
 15 16  1  0
 16 17  1  0
 17 18  1  0
 18 19  1  0
 19 20  2  0
 19 21  1  0
 21 22  1  0
 22 23  1  0
 23 24  2  0
 23 25  1  0
 25 26  1  0
 26 27  1  0
 27 28  2  0
 25 29  1  0
 29 30  1  0
 30 31  1  0
 31 32  2  0
 31 33  1  0
 21 34  1  0
 34 35  1  0
 35 36  2  0
 35 37  1  0
 17 38  1  0
 38 39  2  0
 38 40  1  0
 40 41  1  0
 41 42  1  0
 42 43  2  0
 43 44  1  0
 44 45  2  0
 45 46  1  0
 46 47  2  0
 40 48  1  0
 48 49  1  0
 49 50  2  0
 49 51  1  0
 51 52  1  0
 52 53  1  0
 53 54  2  0
 53 55  1  0
 55 56  1  0
 56 57  1  0
 57 58  2  0
 57 59  1  0
 52 60  1  0
 60 61  1  0
 61 62  1  0
 61 63  1  0
  8 64  1  0
 64 65  1  0
 65 66  2  0
 66 67  1  0
 67 68  2  0
 68 69  1  0
 69 70  2  0
 68 71  1  0
  3 72  1  0
 27  4  1  0
 47 42  1  0
 70 65  1  0
  1 73  1  0
  1 74  1  0
  1 75  1  0
  2 76  1  0
  2 77  1  0
  3 78  1  1
  4 79  1  6
  5 80  1  0
  8 81  1  1
  9 82  1  0
 12 83  1  0
 12 84  1  0
 13 85  1  0
 13 86  1  0
 16 87  1  0
 16 88  1  0
 17 89  1  6
 18 90  1  0
 21 91  1  1
 22 92  1  0
 25 93  1  1
 26 94  1  0
 29 95  1  0
 29 96  1  0
 30 97  1  0
 30 98  1  0
 33 99  1  0
 33100  1  0
 34101  1  0
 34102  1  0
 37103  1  0
 37104  1  0
 41105  1  0
 41106  1  0
 43107  1  0
 44108  1  0
 45109  1  0
 47110  1  0
 48111  1  0
 48112  1  0
 51113  1  0
 52114  1  1
 55115  1  0
 56116  1  0
 56117  1  0
 59118  1  0
 59119  1  0
 60120  1  0
 60121  1  0
 61122  1  0
 62123  1  0
 62124  1  0
 62125  1  0
 63126  1  0
 63127  1  0
 63128  1  0
 64129  1  0
 64130  1  0
 66131  1  0
 67132  1  0
 69133  1  0
 70134  1  0
 71135  1  0
 72136  1  0
 72137  1  0
 72138  1  0
M  END
>  <Ligand ID>  (1) 
LIG0001641

>  <Ligand>  (1) 
CHEMBL3353951

>  <SMILES>  (1) 
CC[C@@H]([C@@H]1NC(=O)[C@@H](NC(=O)CCSSC[C@H](NC(=O)[C@@H](NC(=O)[C@@H](NC1=O)CCC(=O)N)CC(=O)N)C(=O)N(Cc1cccnc1)CC(=O)N[C@H](C(=O)NCC(=O)N)CC(C)C)Cc1ccc(cc1)O)C

>  <CID>  (1) 
118719840.0

>  <ChEMBL ID>  (1) 
nan

>  <InChiKey>  (1) 
HYBOKYCZQCAMNF-LZNUSVCISA-N

>  <InChi>  (1) 
InChI=1S/C46H66N12O12S2/c1-5-26(4)40-45(69)54-30(12-13-35(47)60)42(66)55-33(19-36(48)61)43(67)56-34(24-72-71-16-14-38(63)52-32(44(68)57-40)18-27-8-10-29(59)11-9-27)46(70)58(22-28-7-6-15-50-20-28)23-39(64)53-31(17-25(2)3)41(65)51-21-37(49)62/h6-11,15,20,25-26,30-34,40,59H,5,12-14,16-19,21-24H2,1-4H3,(H2,47,60)(H2,48,61)(H2,49,62)(H,51,65)(H,52,63)(H,53,64)(H,54,69)(H,55,66)(H,56,67)(H,57,68)/t26-,30-,31-,32-,33-,34-,40-/m0/s1

>  <IUPAC Name>  (1) 
(4R,7S,10S,13S,16S)-7-(2-amino-2-oxoethyl)-N-[2-[[(2S)-1-[(2-amino-2-oxoethyl)amino]-4-methyl-1-oxopentan-2-yl]amino]-2-oxoethyl]-10-(3-amino-3-oxopropyl)-13-[(2S)-butan-2-yl]-16-[(4-hydroxyphenyl)methyl]-6,9,12,15,18-pentaoxo-N-(pyridin-3-ylmethyl)-1,2-dithia-5,8,11,14,17-pentazacycloicosane-4-carboxamide

$$$$
