
     RDKit          3D

102108  0  0  0  0  0  0  0  0999 V2000
   -5.9008   -4.3002    3.7959 O   0  0  0  0  0  0  0  0  0  0  0  0
   -5.0182   -3.2282    3.9549 C   0  0  0  0  0  0  0  0  0  0  0  0
   -5.2118   -2.1735    2.9139 C   0  0  0  0  0  0  0  0  0  0  0  0
   -4.9979   -2.6815    1.5514 N   0  0  0  0  0  0  0  0  0  0  0  0
   -3.6719   -2.5600    1.0618 C   0  0  0  0  0  0  0  0  0  0  0  0
   -2.8184   -2.1030    1.8662 O   0  0  0  0  0  0  0  0  0  0  0  0
   -3.2382   -2.9275   -0.3061 C   0  0  0  0  0  0  0  0  0  0  0  0
   -1.7460   -2.8306   -0.3419 C   0  0  1  0  0  0  0  0  0  0  0  0
   -1.0697   -3.1323   -1.6339 C   0  0  0  0  0  0  0  0  0  0  0  0
   -1.2211   -2.1506   -2.7118 C   0  0  0  0  0  0  0  0  0  0  0  0
   -0.1845   -1.4813   -3.2687 C   0  0  0  0  0  0  0  0  0  0  0  0
    1.2217   -1.6411   -2.8717 C   0  0  0  0  0  0  0  0  0  0  0  0
    1.8314   -0.3647   -2.4117 C   0  0  2  0  0  0  0  0  0  0  0  0
    3.1275   -0.5840   -1.7819 N   0  0  0  0  0  0  0  0  0  0  0  0
    4.1635    0.3799   -1.7400 C   0  0  0  0  0  0  0  0  0  0  0  0
    4.0699    1.5332   -2.2354 O   0  0  0  0  0  0  0  0  0  0  0  0
    5.3428   -0.0444   -1.0832 O   0  0  0  0  0  0  0  0  0  0  0  0
    6.4646    0.8056   -0.9184 C   0  0  0  0  0  0  0  0  0  0  0  0
    7.5217   -0.0507   -0.2425 C   0  0  0  0  0  0  0  0  0  0  0  0
    7.1196   -0.6039    1.0484 C   0  0  0  0  0  0  0  0  0  0  0  0
    6.0642   -1.4327    1.3712 C   0  0  0  0  0  0  0  0  0  0  0  0
    5.8242   -1.8956    2.6462 C   0  0  0  0  0  0  0  0  0  0  0  0
    6.6735   -1.5195    3.6623 C   0  0  0  0  0  0  0  0  0  0  0  0
    7.7456   -0.6839    3.3701 C   0  0  0  0  0  0  0  0  0  0  0  0
    7.9677   -0.2276    2.0675 C   0  0  0  0  0  0  0  0  0  0  0  0
    8.9736    0.6433    1.4566 C   0  0  0  0  0  0  0  0  0  0  0  0
    8.7188    0.7731    0.1031 C   0  0  0  0  0  0  0  0  0  0  0  0
    9.5438    1.5764   -0.6878 C   0  0  0  0  0  0  0  0  0  0  0  0
   10.5952    2.2122   -0.0553 C   0  0  0  0  0  0  0  0  0  0  0  0
   10.8343    2.0665    1.3117 C   0  0  0  0  0  0  0  0  0  0  0  0
   10.0255    1.2772    2.0941 C   0  0  0  0  0  0  0  0  0  0  0  0
    1.0076    0.4767   -1.5110 C   0  0  0  0  0  0  0  0  0  0  0  0
    1.3971    0.8392   -0.3621 O   0  0  0  0  0  0  0  0  0  0  0  0
   -0.2152    0.8778   -1.9492 O   0  0  0  0  0  0  0  0  0  0  0  0
   -1.1655    1.6929   -1.2995 C   0  0  0  0  0  0  0  0  0  0  0  0
   -1.5465    1.0636    0.0216 C   0  0  2  0  0  0  0  0  0  0  0  0
   -2.0071   -0.2846   -0.3993 N   0  0  0  0  0  0  0  0  0  0  0  0
   -1.3694   -1.4608    0.1446 C   0  0  0  0  0  0  0  0  0  0  0  0
   -0.5264   -1.2277    1.0113 O   0  0  0  0  0  0  0  0  0  0  0  0
   -2.6444    1.8046    0.7021 C   0  0  0  0  0  0  0  0  0  0  0  0
   -2.2412    3.2062    0.9409 C   0  0  0  0  0  0  0  0  0  0  0  0
   -1.5987    3.7024    2.0889 C   0  0  0  0  0  0  0  0  0  0  0  0
   -1.3491    5.0132    1.8995 N   0  0  0  0  0  0  0  0  0  0  0  0
   -1.7947    5.4101    0.6852 C   0  0  0  0  0  0  0  0  0  0  0  0
   -2.3476    4.2845    0.0960 C   0  0  0  0  0  0  0  0  0  0  0  0
   -2.8909    4.4882   -1.1730 C   0  0  0  0  0  0  0  0  0  0  0  0
   -2.8977    5.6820   -1.8216 C   0  0  0  0  0  0  0  0  0  0  0  0
   -2.3400    6.7701   -1.2076 C   0  0  0  0  0  0  0  0  0  0  0  0
   -1.7855    6.6402    0.0504 C   0  0  0  0  0  0  0  0  0  0  0  0
   -6.0861   -3.2947    0.8362 C   0  0  0  0  0  0  0  0  0  0  0  0
   -6.8973   -2.4206    0.0003 C   0  0  0  0  0  0  0  0  0  0  0  0
   -6.6636   -2.1823   -1.3553 C   0  0  0  0  0  0  0  0  0  0  0  0
   -7.5390   -1.3372   -2.0255 C   0  0  0  0  0  0  0  0  0  0  0  0
   -8.6118   -0.7259   -1.4441 C   0  0  0  0  0  0  0  0  0  0  0  0
   -8.8426   -0.9628   -0.0992 C   0  0  0  0  0  0  0  0  0  0  0  0
   -7.9950   -1.7941    0.5927 C   0  0  0  0  0  0  0  0  0  0  0  0
   -6.3565   -4.5194    4.6628 H   0  0  0  0  0  0  0  0  0  0  0  0
   -4.9873   -2.8270    4.9778 H   0  0  0  0  0  0  0  0  0  0  0  0
   -3.9959   -3.6903    3.8024 H   0  0  0  0  0  0  0  0  0  0  0  0
   -4.4925   -1.3583    3.0919 H   0  0  0  0  0  0  0  0  0  0  0  0
   -6.2660   -1.8329    2.9597 H   0  0  0  0  0  0  0  0  0  0  0  0
   -3.5996   -3.9581   -0.5531 H   0  0  0  0  0  0  0  0  0  0  0  0
   -3.6946   -2.1735   -0.9792 H   0  0  0  0  0  0  0  0  0  0  0  0
   -1.3190   -3.5504    0.4110 H   0  0  0  0  0  0  0  0  0  0  0  0
   -1.5589   -4.0860   -2.0647 H   0  0  0  0  0  0  0  0  0  0  0  0
   -0.0492   -3.4407   -1.4492 H   0  0  0  0  0  0  0  0  0  0  0  0
   -2.2117   -1.9287   -3.1071 H   0  0  0  0  0  0  0  0  0  0  0  0
   -0.4087   -0.7762   -4.0627 H   0  0  0  0  0  0  0  0  0  0  0  0
    1.3628   -2.4510   -2.1388 H   0  0  0  0  0  0  0  0  0  0  0  0
    1.7551   -2.0365   -3.7929 H   0  0  0  0  0  0  0  0  0  0  0  0
    2.0771    0.3185   -3.3024 H   0  0  0  0  0  0  0  0  0  0  0  0
    3.2434   -1.5462   -1.3449 H   0  0  0  0  0  0  0  0  0  0  0  0
    6.1697    1.6360   -0.2099 H   0  0  0  0  0  0  0  0  0  0  0  0
    6.8768    1.2043   -1.8434 H   0  0  0  0  0  0  0  0  0  0  0  0
    7.8497   -0.8608   -0.9469 H   0  0  0  0  0  0  0  0  0  0  0  0
    5.3727   -1.7520    0.6036 H   0  0  0  0  0  0  0  0  0  0  0  0
    4.9872   -2.5441    2.8536 H   0  0  0  0  0  0  0  0  0  0  0  0
    6.5209   -1.8664    4.6903 H   0  0  0  0  0  0  0  0  0  0  0  0
    8.4049   -0.3965    4.1823 H   0  0  0  0  0  0  0  0  0  0  0  0
    9.3756    1.7001   -1.7443 H   0  0  0  0  0  0  0  0  0  0  0  0
   11.2208    2.8339   -0.6879 H   0  0  0  0  0  0  0  0  0  0  0  0
   11.6596    2.5794    1.7421 H   0  0  0  0  0  0  0  0  0  0  0  0
   10.2514    1.1961    3.1300 H   0  0  0  0  0  0  0  0  0  0  0  0
   -2.0582    1.7060   -1.9442 H   0  0  0  0  0  0  0  0  0  0  0  0
   -0.7596    2.7200   -1.1553 H   0  0  0  0  0  0  0  0  0  0  0  0
   -0.6681    1.0038    0.6549 H   0  0  0  0  0  0  0  0  0  0  0  0
   -2.7498   -0.4503   -1.0522 H   0  0  0  0  0  0  0  0  0  0  0  0
   -3.5301    1.7874    0.0334 H   0  0  0  0  0  0  0  0  0  0  0  0
   -2.8683    1.3704    1.7000 H   0  0  0  0  0  0  0  0  0  0  0  0
   -1.3374    3.1390    2.9852 H   0  0  0  0  0  0  0  0  0  0  0  0
   -0.8708    5.6003    2.6209 H   0  0  0  0  0  0  0  0  0  0  0  0
   -3.3418    3.6396   -1.6608 H   0  0  0  0  0  0  0  0  0  0  0  0
   -3.3419    5.7438   -2.8026 H   0  0  0  0  0  0  0  0  0  0  0  0
   -2.3394    7.7284   -1.7160 H   0  0  0  0  0  0  0  0  0  0  0  0
   -1.3355    7.5130    0.5461 H   0  0  0  0  0  0  0  0  0  0  0  0
   -6.7145   -3.8483    1.6050 H   0  0  0  0  0  0  0  0  0  0  0  0
   -5.6595   -4.1366    0.2111 H   0  0  0  0  0  0  0  0  0  0  0  0
   -5.8377   -2.6497   -1.8413 H   0  0  0  0  0  0  0  0  0  0  0  0
   -7.3363   -1.1756   -3.0691 H   0  0  0  0  0  0  0  0  0  0  0  0
   -9.3014   -0.0671   -1.9678 H   0  0  0  0  0  0  0  0  0  0  0  0
   -9.7015   -0.4698    0.3614 H   0  0  0  0  0  0  0  0  0  0  0  0
   -8.2357   -1.9394    1.6489 H   0  0  0  0  0  0  0  0  0  0  0  0
  1  2  1  0
  2  3  1  0
  3  4  1  0
  4  5  1  0
  5  6  2  0
  5  7  1  0
  7  8  1  0
  8  9  1  0
  9 10  1  0
 10 11  2  3
 11 12  1  0
 12 13  1  0
 13 14  1  0
 14 15  1  0
 15 16  2  0
 15 17  1  0
 17 18  1  0
 18 19  1  0
 19 20  1  0
 20 21  2  0
 21 22  1  0
 22 23  2  0
 23 24  1  0
 24 25  2  0
 25 26  1  0
 26 27  2  0
 27 28  1  0
 28 29  2  0
 29 30  1  0
 30 31  2  0
 13 32  1  0
 32 33  2  0
 32 34  1  0
 34 35  1  0
 35 36  1  0
 36 37  1  0
 37 38  1  0
 38 39  2  0
 36 40  1  0
 40 41  1  0
 41 42  2  0
 42 43  1  0
 43 44  1  0
 44 45  2  0
 45 46  1  0
 46 47  2  0
 47 48  1  0
 48 49  2  0
  4 50  1  0
 50 51  1  0
 51 52  2  0
 52 53  1  0
 53 54  2  0
 54 55  1  0
 55 56  2  0
 38  8  1  0
 45 41  1  0
 56 51  1  0
 27 19  1  0
 49 44  1  0
 25 20  1  0
 31 26  1  0
  1 57  1  0
  2 58  1  0
  2 59  1  0
  3 60  1  0
  3 61  1  0
  7 62  1  0
  7 63  1  0
  8 64  1  1
  9 65  1  0
  9 66  1  0
 10 67  1  0
 11 68  1  0
 12 69  1  0
 12 70  1  0
 13 71  1  6
 14 72  1  0
 18 73  1  0
 18 74  1  0
 19 75  1  0
 21 76  1  0
 22 77  1  0
 23 78  1  0
 24 79  1  0
 28 80  1  0
 29 81  1  0
 30 82  1  0
 31 83  1  0
 35 84  1  0
 35 85  1  0
 36 86  1  1
 37 87  1  0
 40 88  1  0
 40 89  1  0
 42 90  1  0
 43 91  1  0
 46 92  1  0
 47 93  1  0
 48 94  1  0
 49 95  1  0
 50 96  1  0
 50 97  1  0
 52 98  1  0
 53 99  1  0
 54100  1  0
 55101  1  0
 56102  1  0
M  END
>  <Ligand ID>  (1) 
LIG0002447

>  <Ligand>  (1) 
MLS002320446

>  <SMILES>  (1) 
OCCN(C(=O)C[C@H]1CC=CC[C@H](NC(=O)OCC2c3ccccc3c3c2cccc3)C(=O)OC[C@H](NC1=O)Cc1c[nH]c2c1cccc2)Cc1ccccc1

>  <CID>  (1) 
44201929.0

>  <ChEMBL ID>  (1) 
nan

>  <InChiKey>  (1) 
HRLWGJCFIVNEJR-UEPPOXAYSA-N

>  <InChi>  (1) 
InChI=1S/C45H46N4O7/c50-23-22-49(27-30-12-2-1-3-13-30)42(51)25-31-14-4-10-21-41(44(53)55-28-33(47-43(31)52)24-32-26-46-40-20-11-9-15-34(32)40)48-45(54)56-29-39-37-18-7-5-16-35(37)36-17-6-8-19-38(36)39/h1-13,15-20,26,31,33,39,41,46,50H,14,21-25,27-29H2,(H,47,52)(H,48,54)/b10-4-/t31-,33-,41+/m1/s1

>  <IUPAC Name>  (1) 
9H-fluoren-9-ylmethyl N-[(3R,6R,8Z,11S)-6-[2-[benzyl(2-hydroxyethyl)amino]-2-oxoethyl]-3-(1H-indol-3-ylmethyl)-5,12-dioxo-1-oxa-4-azacyclododec-8-en-11-yl]carbamate

$$$$
