
     RDKit          3D

 26 26  0  0  0  0  0  0  0  0999 V2000
    3.1338   -0.6661    1.1817 N   0  0  0  0  0  0  0  0  0  0  0  0
    2.1087    0.3595    0.9116 C   0  0  0  0  0  0  0  0  0  0  0  0
    1.8153    0.2460   -0.5354 C   0  0  1  0  0  0  0  0  0  0  0  0
    1.2917   -1.1125   -0.9856 C   0  0  0  0  0  0  0  0  0  0  0  0
    0.5196    0.1889   -1.1865 C   0  0  1  0  0  0  0  0  0  0  0  0
   -0.7977    0.2222   -0.5682 C   0  0  0  0  0  0  0  0  0  0  0  0
   -1.7689    1.0639   -1.1250 C   0  0  0  0  0  0  0  0  0  0  0  0
   -3.0525    1.1284   -0.5809 C   0  0  0  0  0  0  0  0  0  0  0  0
   -3.4189    0.3738    0.5185 C   0  0  0  0  0  0  0  0  0  0  0  0
   -2.4713   -0.4470    1.0609 C   0  0  0  0  0  0  0  0  0  0  0  0
   -1.2039   -0.5109    0.5237 C   0  0  0  0  0  0  0  0  0  0  0  0
    0.6862    0.0000    0.0000 Cl  0  0  0  0  0  0  0  0  0  0  0  0
    2.9510   -1.4989    0.5668 H   0  0  0  0  0  0  0  0  0  0  0  0
    4.0828   -0.3208    0.9131 H   0  0  0  0  0  0  0  0  0  0  0  0
    1.2968    0.1815    1.6119 H   0  0  0  0  0  0  0  0  0  0  0  0
    2.6589    1.3242    1.1451 H   0  0  0  0  0  0  0  0  0  0  0  0
    2.6842    0.5948   -1.1671 H   0  0  0  0  0  0  0  0  0  0  0  0
    0.9698   -1.8336   -0.2297 H   0  0  0  0  0  0  0  0  0  0  0  0
    1.7125   -1.5654   -1.9090 H   0  0  0  0  0  0  0  0  0  0  0  0
    0.5036    0.6116   -2.2353 H   0  0  0  0  0  0  0  0  0  0  0  0
   -1.5442    1.6865   -1.9945 H   0  0  0  0  0  0  0  0  0  0  0  0
   -3.8040    1.7860   -1.0194 H   0  0  0  0  0  0  0  0  0  0  0  0
   -4.4001    0.4241    0.9335 H   0  0  0  0  0  0  0  0  0  0  0  0
   -2.7558   -1.0498    1.9352 H   0  0  0  0  0  0  0  0  0  0  0  0
   -0.5114   -1.1865    0.9989 H   0  0  0  0  0  0  0  0  0  0  0  0
   -0.6862    0.0000    0.0000 H   0  0  0  0  0  0  0  0  0  0  0  0
  1  2  1  0
  2  3  1  0
  3  4  1  0
  4  5  1  0
  5  6  1  0
  6  7  2  0
  7  8  1  0
  8  9  2  0
  9 10  1  0
 10 11  2  0
  5  3  1  0
 11  6  1  0
  1 13  1  0
  1 14  1  0
  2 15  1  0
  2 16  1  0
  3 17  1  6
  4 18  1  0
  4 19  1  0
  5 20  1  6
  7 21  1  0
  8 22  1  0
  9 23  1  0
 10 24  1  0
 11 25  1  0
 12 26  1  0
M  END
>  <Ligand ID>  (1) 
LIG0005663

>  <Ligand>  (1) 
CHEMBL442657

>  <SMILES>  (1) 
NC[C@H]1C[C@H]1c1ccccc1.Cl

>  <CID>  (1) 
44572693.0

>  <ChEMBL ID>  (1) 
nan

>  <InChiKey>  (1) 
IQFBVCYZPKNMIN-UXQCFNEQSA-N

>  <InChi>  (1) 
InChI=1S/C10H13N.ClH/c11-7-9-6-10(9)8-4-2-1-3-5-8;/h1-5,9-10H,6-7,11H2;1H/t9-,10+;/m1./s1

>  <IUPAC Name>  (1) 
[(1S,2R)-2-phenylcyclopropyl]methanamine;hydrochloride

$$$$
