
     RDKit          3D

 28 27  0  0  0  0  0  0  0  0999 V2000
   -0.1234    1.1464   -0.6578 O   0  0  0  0  0  0  0  0  0  0  0  0
   -0.0680    0.1148   -0.0287 C   0  0  0  0  0  0  0  0  0  0  0  0
   -1.1637   -0.8212    0.2428 C   0  0  0  0  0  0  0  0  0  0  0  0
   -2.4548   -0.2852   -0.3089 C   0  0  0  0  0  0  0  0  0  0  0  0
   -2.7943    1.0102    0.3776 C   0  0  0  0  0  0  0  0  0  0  0  0
   -4.0788    1.5225   -0.1866 C   0  0  0  0  0  0  0  0  0  0  0  0
   -4.0366    2.0806   -1.3143 O   0  0  0  0  0  0  0  0  0  0  0  0
   -5.2914    1.4010    0.4864 O   0  0  0  0  0  0  0  0  0  0  0  0
    1.2884   -0.2375    0.5356 C   0  0  0  0  0  0  0  0  0  0  0  0
    2.0840   -0.8602   -0.5619 C   0  0  0  0  0  0  0  0  0  0  0  0
    3.4710   -1.2758   -0.1649 C   0  0  0  0  0  0  0  0  0  0  0  0
    4.3259   -0.1806    0.3140 C   0  0  0  0  0  0  0  0  0  0  0  0
    5.5058   -0.4727    0.6601 O   0  0  0  0  0  0  0  0  0  0  0  0
    3.9508    1.1393    0.4173 O   0  0  0  0  0  0  0  0  0  0  0  0
   -1.3193   -0.9124    1.3422 H   0  0  0  0  0  0  0  0  0  0  0  0
   -1.0193   -1.8183   -0.2267 H   0  0  0  0  0  0  0  0  0  0  0  0
   -3.2990   -1.0043   -0.1433 H   0  0  0  0  0  0  0  0  0  0  0  0
   -2.3206   -0.1334   -1.4221 H   0  0  0  0  0  0  0  0  0  0  0  0
   -2.9866    0.7532    1.4498 H   0  0  0  0  0  0  0  0  0  0  0  0
   -2.0240    1.7677    0.3870 H   0  0  0  0  0  0  0  0  0  0  0  0
   -6.1421    1.2320   -0.0589 H   0  0  0  0  0  0  0  0  0  0  0  0
    1.7106    0.6988    0.9284 H   0  0  0  0  0  0  0  0  0  0  0  0
    1.1699   -0.9134    1.4122 H   0  0  0  0  0  0  0  0  0  0  0  0
    1.5517   -1.7936   -0.8688 H   0  0  0  0  0  0  0  0  0  0  0  0
    2.0681   -0.1987   -1.4433 H   0  0  0  0  0  0  0  0  0  0  0  0
    3.9537   -1.7039   -1.0676 H   0  0  0  0  0  0  0  0  0  0  0  0
    3.3778   -2.0945    0.5816 H   0  0  0  0  0  0  0  0  0  0  0  0
    4.6641    1.8393    0.1571 H   0  0  0  0  0  0  0  0  0  0  0  0
  1  2  2  0
  2  3  1  0
  3  4  1  0
  4  5  1  0
  5  6  1  0
  6  7  2  0
  6  8  1  0
  2  9  1  0
  9 10  1  0
 10 11  1  0
 11 12  1  0
 12 13  2  0
 12 14  1  0
  3 15  1  0
  3 16  1  0
  4 17  1  0
  4 18  1  0
  5 19  1  0
  5 20  1  0
  8 21  1  0
  9 22  1  0
  9 23  1  0
 10 24  1  0
 10 25  1  0
 11 26  1  0
 11 27  1  0
 14 28  1  0
M  END
>  <Ligand ID>  (1) 
LIG0005047

>  <Ligand>  (1) 
5-Oxoazelaic Acid

>  <SMILES>  (1) 
O=C(CCCC(=O)O)CCCC(=O)O

>  <CID>  (1) 
269945.0

>  <ChEMBL ID>  (1) 
nan

>  <InChiKey>  (1) 
GTCHZEFRDKAINX-UHFFFAOYSA-N

>  <InChi>  (1) 
InChI=1S/C9H14O5/c10-7(3-1-5-8(11)12)4-2-6-9(13)14/h1-6H2,(H,11,12)(H,13,14)

>  <IUPAC Name>  (1) 
5-oxononanedioic acid

$$$$
