
     RDKit          3D

 45 47  0  0  0  0  0  0  0  0999 V2000
    2.0252   -2.1582    0.9020 O   0  0  0  0  0  0  0  0  0  0  0  0
    1.1106   -1.4563    0.3466 C   0  0  0  0  0  0  0  0  0  0  0  0
   -0.1927   -2.0434    0.2306 C   0  0  0  0  0  0  0  0  0  0  0  0
   -0.3873   -3.3298    0.7282 C   0  0  0  0  0  0  0  0  0  0  0  0
   -1.5893   -3.9913    0.6752 C   0  0  0  0  0  0  0  0  0  0  0  0
   -2.6872   -3.3869    0.1078 C   0  0  0  0  0  0  0  0  0  0  0  0
   -2.5095   -2.1133   -0.3892 C   0  0  0  0  0  0  0  0  0  0  0  0
   -1.2957   -1.4421   -0.3367 C   0  0  0  0  0  0  0  0  0  0  0  0
   -1.2027   -0.1367   -0.8878 N   0  0  0  0  0  0  0  0  0  0  0  0
   -2.3999    0.4623   -1.4621 C   0  0  0  0  0  0  0  0  0  0  0  0
   -3.4548    0.7323   -0.4534 C   0  0  0  0  0  0  0  0  0  0  0  0
   -3.4571    0.5584    0.8202 N   0  0  0  0  0  0  0  0  0  0  0  0
   -4.6902    0.9523    1.4291 C   0  0  0  0  0  0  0  0  0  0  0  0
   -5.3659    1.7686    0.3735 C   0  0  0  0  0  0  0  0  0  0  0  0
   -4.7316    1.2857   -0.8338 N   0  0  0  0  0  0  0  0  0  0  0  0
    1.5112   -0.2109   -0.0707 O   0  0  0  0  0  0  0  0  0  0  0  0
    2.8315    0.1975    0.1263 C   0  0  0  0  0  0  0  0  0  0  0  0
    3.5466    0.4504   -1.2070 C   0  0  0  0  0  0  0  0  0  0  0  0
    5.0248    0.4908   -0.8523 C   0  0  0  0  0  0  0  0  0  0  0  0
    5.3091    1.6256    0.1080 C   0  0  0  0  0  0  0  0  0  0  0  0
    4.0482    2.3814    0.4685 C   0  0  0  0  0  0  0  0  0  0  0  0
    2.9361    1.4734    0.9326 C   0  0  0  0  0  0  0  0  0  0  0  0
    0.4351   -3.8889    1.1987 H   0  0  0  0  0  0  0  0  0  0  0  0
   -1.7079   -4.9830    1.0678 H   0  0  0  0  0  0  0  0  0  0  0  0
   -3.6303   -3.8993    0.0635 H   0  0  0  0  0  0  0  0  0  0  0  0
   -3.4031   -1.6659   -0.8413 H   0  0  0  0  0  0  0  0  0  0  0  0
   -0.3590    0.4455   -0.9268 H   0  0  0  0  0  0  0  0  0  0  0  0
   -2.1949    1.3760   -2.0445 H   0  0  0  0  0  0  0  0  0  0  0  0
   -2.8543   -0.2508   -2.2074 H   0  0  0  0  0  0  0  0  0  0  0  0
   -4.5393    1.5792    2.3335 H   0  0  0  0  0  0  0  0  0  0  0  0
   -5.3257    0.0731    1.6474 H   0  0  0  0  0  0  0  0  0  0  0  0
   -5.0912    2.8156    0.5307 H   0  0  0  0  0  0  0  0  0  0  0  0
   -6.4468    1.5890    0.2936 H   0  0  0  0  0  0  0  0  0  0  0  0
   -5.1479    1.3425   -1.7879 H   0  0  0  0  0  0  0  0  0  0  0  0
    3.4351   -0.5800    0.6265 H   0  0  0  0  0  0  0  0  0  0  0  0
    3.4056   -0.4404   -1.8515 H   0  0  0  0  0  0  0  0  0  0  0  0
    3.1747    1.3701   -1.6627 H   0  0  0  0  0  0  0  0  0  0  0  0
    5.6800    0.4696   -1.7280 H   0  0  0  0  0  0  0  0  0  0  0  0
    5.2195   -0.4556   -0.2738 H   0  0  0  0  0  0  0  0  0  0  0  0
    5.9664    2.3302   -0.4423 H   0  0  0  0  0  0  0  0  0  0  0  0
    5.8737    1.3073    1.0098 H   0  0  0  0  0  0  0  0  0  0  0  0
    3.7441    3.0290   -0.3764 H   0  0  0  0  0  0  0  0  0  0  0  0
    4.2945    3.0597    1.3130 H   0  0  0  0  0  0  0  0  0  0  0  0
    2.0086    2.0776    0.8943 H   0  0  0  0  0  0  0  0  0  0  0  0
    3.0836    1.1895    1.9934 H   0  0  0  0  0  0  0  0  0  0  0  0
  1  2  2  0
  2  3  1  0
  3  4  2  0
  4  5  1  0
  5  6  2  0
  6  7  1  0
  7  8  2  0
  8  9  1  0
  9 10  1  0
 10 11  1  0
 11 12  2  0
 12 13  1  0
 13 14  1  0
 14 15  1  0
  2 16  1  0
 16 17  1  0
 17 18  1  0
 18 19  1  0
 19 20  1  0
 20 21  1  0
 21 22  1  0
  8  3  1  0
 15 11  1  0
 22 17  1  0
  4 23  1  0
  5 24  1  0
  6 25  1  0
  7 26  1  0
  9 27  1  0
 10 28  1  0
 10 29  1  0
 13 30  1  0
 13 31  1  0
 14 32  1  0
 14 33  1  0
 15 34  1  0
 17 35  1  0
 18 36  1  0
 18 37  1  0
 19 38  1  0
 19 39  1  0
 20 40  1  0
 20 41  1  0
 21 42  1  0
 21 43  1  0
 22 44  1  0
 22 45  1  0
M  END
>  <Ligand ID>  (1) 
LIG0003068

>  <Ligand>  (1) 
CHEMBL98921

>  <SMILES>  (1) 
O=C(c1ccccc1NCC1=NCCN1)OC1CCCCC1

>  <CID>  (1) 
44329738.0

>  <ChEMBL ID>  (1) 
nan

>  <InChiKey>  (1) 
JGDIYDHZAMLQDC-UHFFFAOYSA-N

>  <InChi>  (1) 
InChI=1S/C17H23N3O2/c21-17(22-13-6-2-1-3-7-13)14-8-4-5-9-15(14)20-12-16-18-10-11-19-16/h4-5,8-9,13,20H,1-3,6-7,10-12H2,(H,18,19)

>  <IUPAC Name>  (1) 
cyclohexyl 2-(4,5-dihydro-1H-imidazol-2-ylmethylamino)benzoate

$$$$
