
     RDKit          3D

 31 32  0  0  0  0  0  0  0  0999 V2000
    1.5490   -2.2933    1.2977 O   0  0  0  0  0  0  0  0  0  0  0  0
    0.7374   -1.5487    0.6981 C   0  0  0  0  0  0  0  0  0  0  0  0
   -0.6587   -1.9134    0.5471 N   0  0  0  0  0  0  0  0  0  0  0  0
   -1.5785   -0.7990    0.6075 C   0  0  2  0  0  0  0  0  0  0  0  0
   -3.0041   -1.0940    0.3451 C   0  0  0  0  0  0  0  0  0  0  0  0
   -3.4933    0.2486   -0.0196 N   0  0  0  0  0  0  0  0  0  0  0  0
   -2.3816    0.9003   -0.7351 C   0  0  0  0  0  0  0  0  0  0  0  0
   -1.2539    0.0009   -0.6681 C   0  0  1  0  0  0  0  0  0  0  0  0
    0.1096    0.4549   -0.5390 C   0  0  0  0  0  0  0  0  0  0  0  0
    1.1056   -0.2644    0.0999 C   0  0  0  0  0  0  0  0  0  0  0  0
    2.4091    0.1716    0.1996 C   0  0  0  0  0  0  0  0  0  0  0  0
    2.6882    1.4012   -0.3874 C   0  0  0  0  0  0  0  0  0  0  0  0
    1.7424    2.1592   -1.0340 C   0  0  0  0  0  0  0  0  0  0  0  0
    0.4502    1.6880   -1.1113 C   0  0  0  0  0  0  0  0  0  0  0  0
    3.4737   -0.5790    0.9054 C   0  0  0  0  0  0  0  0  0  0  0  0
    3.2548   -0.7572    2.2512 F   0  0  0  0  0  0  0  0  0  0  0  0
    4.6212    0.1916    0.8574 F   0  0  0  0  0  0  0  0  0  0  0  0
    3.8336   -1.7329    0.2386 F   0  0  0  0  0  0  0  0  0  0  0  0
    0.6902    0.0000    0.0000 Cl  0  0  0  0  0  0  0  0  0  0  0  0
   -0.9085   -2.8982    0.4149 H   0  0  0  0  0  0  0  0  0  0  0  0
   -1.4952   -0.1753    1.4957 H   0  0  0  0  0  0  0  0  0  0  0  0
   -3.1907   -1.7956   -0.4938 H   0  0  0  0  0  0  0  0  0  0  0  0
   -3.5317   -1.4010    1.2727 H   0  0  0  0  0  0  0  0  0  0  0  0
   -3.5355    0.7446    0.9185 H   0  0  0  0  0  0  0  0  0  0  0  0
   -2.7563    0.9390   -1.7980 H   0  0  0  0  0  0  0  0  0  0  0  0
   -2.2928    1.9285   -0.4160 H   0  0  0  0  0  0  0  0  0  0  0  0
   -1.2724   -0.7601   -1.5065 H   0  0  0  0  0  0  0  0  0  0  0  0
    3.6976    1.8078   -0.3479 H   0  0  0  0  0  0  0  0  0  0  0  0
    1.9878    3.1113   -1.4807 H   0  0  0  0  0  0  0  0  0  0  0  0
   -0.3070    2.2645   -1.6122 H   0  0  0  0  0  0  0  0  0  0  0  0
   -0.6902    0.0000    0.0000 H   0  0  0  0  0  0  0  0  0  0  0  0
  1  2  2  0
  2  3  1  0
  3  4  1  0
  4  5  1  0
  5  6  1  0
  6  7  1  0
  7  8  1  0
  8  9  1  0
  9 10  2  0
 10 11  1  0
 11 12  2  0
 12 13  1  0
 13 14  2  0
 11 15  1  0
 15 16  1  0
 15 17  1  0
 15 18  1  0
 10  2  1  0
  8  4  1  0
 14  9  1  0
  3 20  1  0
  4 21  1  1
  5 22  1  0
  5 23  1  0
  6 24  1  0
  7 25  1  0
  7 26  1  0
  8 27  1  6
 12 28  1  0
 13 29  1  0
 14 30  1  0
 19 31  1  0
M  END
>  <Ligand ID>  (1) 
LIG0005711

>  <Ligand>  (1) 
CHEMBL2337491

>  <SMILES>  (1) 
O=C1N[C@@H]2CNC[C@H]2c2c1c(ccc2)C(F)(F)F.Cl

>  <CID>  (1) 
71518890.0

>  <ChEMBL ID>  (1) 
nan

>  <InChiKey>  (1) 
UTJBWKFHAQHTJG-DKXTVVGFSA-N

>  <InChi>  (1) 
InChI=1S/C12H11F3N2O.ClH/c13-12(14,15)8-3-1-2-6-7-4-16-5-9(7)17-11(18)10(6)8;/h1-3,7,9,16H,4-5H2,(H,17,18);1H/t7-,9+;/m0./s1

>  <IUPAC Name>  (1) 
(3aS,9bR)-6-(trifluoromethyl)-1,2,3,3a,4,9b-hexahydropyrrolo[3,4-c]isoquinolin-5-one;hydrochloride

$$$$
