
     RDKit          3D

 42 43  0  0  0  0  0  0  0  0999 V2000
   -7.3027   -1.0989   -0.0981 C   0  0  0  0  0  0  0  0  0  0  0  0
   -6.6300   -0.4787   -1.2941 C   0  0  0  0  0  0  0  0  0  0  0  0
   -5.2310   -0.4634   -1.2288 O   0  0  0  0  0  0  0  0  0  0  0  0
   -4.4670    0.1519   -0.2732 C   0  0  0  0  0  0  0  0  0  0  0  0
   -5.0322    0.8526    0.7717 C   0  0  0  0  0  0  0  0  0  0  0  0
   -4.2475    1.4669    1.7262 C   0  0  0  0  0  0  0  0  0  0  0  0
   -2.8626    1.3655    1.6139 C   0  0  0  0  0  0  0  0  0  0  0  0
   -2.2676    0.6650    0.5697 C   0  0  0  0  0  0  0  0  0  0  0  0
   -3.0929    0.0532   -0.3820 C   0  0  0  0  0  0  0  0  0  0  0  0
   -0.8111    0.5811    0.4812 C   0  0  0  0  0  0  0  0  0  0  0  0
   -0.1488   -0.6038    0.2236 C   0  0  0  0  0  0  0  0  0  0  0  0
    1.2317   -0.6879    0.1368 C   0  0  0  0  0  0  0  0  0  0  0  0
    1.9881    0.4518    0.3130 C   0  0  0  0  0  0  0  0  0  0  0  0
    1.3673    1.6501    0.5709 C   0  0  0  0  0  0  0  0  0  0  0  0
   -0.0104    1.7032    0.6516 C   0  0  0  0  0  0  0  0  0  0  0  0
    3.3761    0.4639    0.2440 O   0  0  0  0  0  0  0  0  0  0  0  0
    4.1748   -0.6667   -0.0100 C   0  0  0  0  0  0  0  0  0  0  0  0
    5.6130   -0.1784    0.0091 C   0  0  0  0  0  0  0  0  0  0  0  0
    6.6123   -1.2717   -0.2476 C   0  0  0  0  0  0  0  0  0  0  0  0
    7.9542   -0.6332   -0.1951 C   0  0  0  0  0  0  0  0  0  0  0  0
    8.4456   -0.3615    0.9404 O   0  0  0  0  0  0  0  0  0  0  0  0
    8.6851   -0.3254   -1.3436 O   0  0  0  0  0  0  0  0  0  0  0  0
   -1.9224    2.1631    2.8560 Cl  0  0  0  0  0  0  0  0  0  0  0  0
   -7.8443   -2.0394   -0.4118 H   0  0  0  0  0  0  0  0  0  0  0  0
   -6.5941   -1.4179    0.6958 H   0  0  0  0  0  0  0  0  0  0  0  0
   -8.0256   -0.3823    0.3437 H   0  0  0  0  0  0  0  0  0  0  0  0
   -6.8924   -1.0765   -2.2138 H   0  0  0  0  0  0  0  0  0  0  0  0
   -7.0678    0.5235   -1.4816 H   0  0  0  0  0  0  0  0  0  0  0  0
   -6.1044    0.9484    0.8848 H   0  0  0  0  0  0  0  0  0  0  0  0
   -4.6963    2.0175    2.5477 H   0  0  0  0  0  0  0  0  0  0  0  0
   -2.6361   -0.5051   -1.2143 H   0  0  0  0  0  0  0  0  0  0  0  0
   -0.7249   -1.5306    0.0781 H   0  0  0  0  0  0  0  0  0  0  0  0
    1.7635   -1.6023   -0.0631 H   0  0  0  0  0  0  0  0  0  0  0  0
    1.9541    2.5498    0.7105 H   0  0  0  0  0  0  0  0  0  0  0  0
   -0.4399    2.6752    0.8554 H   0  0  0  0  0  0  0  0  0  0  0  0
    3.9000   -1.0585   -1.0091 H   0  0  0  0  0  0  0  0  0  0  0  0
    4.0012   -1.4503    0.7383 H   0  0  0  0  0  0  0  0  0  0  0  0
    5.7150    0.5744   -0.7933 H   0  0  0  0  0  0  0  0  0  0  0  0
    5.8009    0.3015    0.9726 H   0  0  0  0  0  0  0  0  0  0  0  0
    6.4832   -1.6974   -1.2509 H   0  0  0  0  0  0  0  0  0  0  0  0
    6.6072   -2.0390    0.5607 H   0  0  0  0  0  0  0  0  0  0  0  0
    9.3786    0.4101   -1.3463 H   0  0  0  0  0  0  0  0  0  0  0  0
  1  2  1  0
  2  3  1  0
  3  4  1  0
  4  5  2  0
  5  6  1  0
  6  7  2  0
  7  8  1  0
  8  9  2  0
  8 10  1  0
 10 11  2  0
 11 12  1  0
 12 13  2  0
 13 14  1  0
 14 15  2  0
 13 16  1  0
 16 17  1  0
 17 18  1  0
 18 19  1  0
 19 20  1  0
 20 21  2  0
 20 22  1  0
  7 23  1  0
  9  4  1  0
 15 10  1  0
  1 24  1  0
  1 25  1  0
  1 26  1  0
  2 27  1  0
  2 28  1  0
  5 29  1  0
  6 30  1  0
  9 31  1  0
 11 32  1  0
 12 33  1  0
 14 34  1  0
 15 35  1  0
 17 36  1  0
 17 37  1  0
 18 38  1  0
 18 39  1  0
 19 40  1  0
 19 41  1  0
 22 42  1  0
M  END
>  <Ligand ID>  (1) 
LIG0004477

>  <Ligand>  (1) 
CHEMBL3924759

>  <SMILES>  (1) 
CCOc1ccc(c(c1)c1ccc(cc1)OCCCC(=O)O)Cl

>  <CID>  (1) 
134141270.0

>  <ChEMBL ID>  (1) 
nan

>  <InChiKey>  (1) 
BTXCQOPYCPPCNL-UHFFFAOYSA-N

>  <InChi>  (1) 
InChI=1S/C18H19ClO4/c1-2-22-15-9-10-17(19)16(12-15)13-5-7-14(8-6-13)23-11-3-4-18(20)21/h5-10,12H,2-4,11H2,1H3,(H,20,21)

>  <IUPAC Name>  (1) 
4-[4-(2-chloro-5-ethoxyphenyl)phenoxy]butanoic acid

$$$$
