
     RDKit          3D

 58 60  0  0  0  0  0  0  0  0999 V2000
    5.9049    1.3480    1.9682 O   0  0  0  0  0  0  0  0  0  0  0  0
    5.8801    1.5888    0.5904 C   0  0  0  0  0  0  0  0  0  0  0  0
    5.2528    2.6028    0.1276 O   0  0  0  0  0  0  0  0  0  0  0  0
    6.5803    0.6767   -0.3274 C   0  0  0  0  0  0  0  0  0  0  0  0
    6.5635   -0.7600   -0.0727 C   0  0  0  0  0  0  0  0  0  0  0  0
    5.3627   -1.6001   -0.1414 C   0  0  0  0  0  0  0  0  0  0  0  0
    4.2052   -1.2673    0.7398 C   0  0  2  0  0  0  0  0  0  0  0  0
    3.1052   -2.3099    0.5655 C   0  0  0  0  0  0  0  0  0  0  0  0
    1.9766   -1.8829   -0.2975 C   0  0  0  0  0  0  0  0  0  0  0  0
    1.4197   -0.6057    0.2917 C   0  0  1  0  0  0  0  0  0  0  0  0
    2.4951    0.3589    0.6718 C   0  0  1  0  0  0  0  0  0  0  0  0
    3.7641   -0.0198    0.4085 O   0  0  0  0  0  0  0  0  0  0  0  0
    2.1982    1.5962   -0.1494 C   0  0  0  0  0  0  0  0  0  0  0  0
    0.7314    1.5731   -0.4819 C   0  0  2  0  0  0  0  0  0  0  0  0
    0.4908    0.0977   -0.6657 C   0  0  2  0  0  0  0  0  0  0  0  0
   -0.9090   -0.3110   -0.5336 C   0  0  0  0  0  0  0  0  0  0  0  0
   -1.9216    0.4865   -0.2302 C   0  0  0  0  0  0  0  0  0  0  0  0
   -3.3253   -0.0036   -0.1128 C   0  0  2  0  0  0  0  0  0  0  0  0
   -3.9822    0.4885    1.1437 C   0  0  0  0  0  0  0  0  0  0  0  0
   -5.2699    0.0699    1.3728 O   0  0  0  0  0  0  0  0  0  0  0  0
   -6.4452    0.2197    0.7388 C   0  0  0  0  0  0  0  0  0  0  0  0
   -7.5665   -0.4024    1.3140 C   0  0  0  0  0  0  0  0  0  0  0  0
   -8.8126   -0.3268    0.7730 C   0  0  0  0  0  0  0  0  0  0  0  0
   -9.0261    0.3747   -0.3794 C   0  0  0  0  0  0  0  0  0  0  0  0
   -7.9645    1.0021   -0.9825 C   0  0  0  0  0  0  0  0  0  0  0  0
   -6.6987    0.9152   -0.4167 C   0  0  0  0  0  0  0  0  0  0  0  0
   -3.3087   -1.4042   -0.0347 O   0  0  0  0  0  0  0  0  0  0  0  0
    0.5604    2.3005   -1.6519 O   0  0  0  0  0  0  0  0  0  0  0  0
    5.0831    1.6394    2.5116 H   0  0  0  0  0  0  0  0  0  0  0  0
    7.6684    1.0287   -0.2939 H   0  0  0  0  0  0  0  0  0  0  0  0
    6.2581    0.8589   -1.3944 H   0  0  0  0  0  0  0  0  0  0  0  0
    7.0926   -1.0062    0.9148 H   0  0  0  0  0  0  0  0  0  0  0  0
    7.3134   -1.2123   -0.8304 H   0  0  0  0  0  0  0  0  0  0  0  0
    4.9829   -1.5032   -1.2255 H   0  0  0  0  0  0  0  0  0  0  0  0
    5.6480   -2.6931   -0.0394 H   0  0  0  0  0  0  0  0  0  0  0  0
    4.5192   -1.2986    1.7837 H   0  0  0  0  0  0  0  0  0  0  0  0
    3.5867   -3.2015    0.1183 H   0  0  0  0  0  0  0  0  0  0  0  0
    2.7084   -2.6420    1.5499 H   0  0  0  0  0  0  0  0  0  0  0  0
    2.2907   -1.7653   -1.3348 H   0  0  0  0  0  0  0  0  0  0  0  0
    1.1688   -2.6331   -0.2325 H   0  0  0  0  0  0  0  0  0  0  0  0
    0.8239   -0.8876    1.1834 H   0  0  0  0  0  0  0  0  0  0  0  0
    2.3826    0.6432    1.7305 H   0  0  0  0  0  0  0  0  0  0  0  0
    2.7832    1.5323   -1.0773 H   0  0  0  0  0  0  0  0  0  0  0  0
    2.4982    2.5245    0.3832 H   0  0  0  0  0  0  0  0  0  0  0  0
    0.2083    2.0279    0.3686 H   0  0  0  0  0  0  0  0  0  0  0  0
    0.8499   -0.1546   -1.6947 H   0  0  0  0  0  0  0  0  0  0  0  0
   -1.1522   -1.3588   -0.6965 H   0  0  0  0  0  0  0  0  0  0  0  0
   -1.7182    1.5344   -0.0621 H   0  0  0  0  0  0  0  0  0  0  0  0
   -3.8872    0.3266   -0.9852 H   0  0  0  0  0  0  0  0  0  0  0  0
   -3.3536    0.2331    2.0546 H   0  0  0  0  0  0  0  0  0  0  0  0
   -4.0027    1.6184    1.1263 H   0  0  0  0  0  0  0  0  0  0  0  0
   -7.4524   -0.9738    2.2323 H   0  0  0  0  0  0  0  0  0  0  0  0
   -9.6413   -0.8228    1.2538 H   0  0  0  0  0  0  0  0  0  0  0  0
  -10.0279    0.4083   -0.7731 H   0  0  0  0  0  0  0  0  0  0  0  0
   -8.1568    1.5472   -1.8867 H   0  0  0  0  0  0  0  0  0  0  0  0
   -5.9156    1.4306   -0.9228 H   0  0  0  0  0  0  0  0  0  0  0  0
   -4.1301   -1.7116   -0.4765 H   0  0  0  0  0  0  0  0  0  0  0  0
    0.3107    1.7058   -2.4024 H   0  0  0  0  0  0  0  0  0  0  0  0
  1  2  1  0
  2  3  2  0
  2  4  1  0
  4  5  1  0
  5  6  1  0
  6  7  1  0
  7  8  1  0
  8  9  1  0
  9 10  1  0
 10 11  1  0
 11 12  1  0
 11 13  1  0
 13 14  1  0
 14 15  1  0
 15 16  1  0
 16 17  2  0
 17 18  1  0
 18 19  1  0
 19 20  1  0
 20 21  1  0
 21 22  2  0
 22 23  1  0
 23 24  2  0
 24 25  1  0
 25 26  2  0
 18 27  1  0
 14 28  1  0
 12  7  1  0
 26 21  1  0
 15 10  1  0
  1 29  1  0
  4 30  1  0
  4 31  1  0
  5 32  1  0
  5 33  1  0
  6 34  1  0
  6 35  1  0
  7 36  1  1
  8 37  1  0
  8 38  1  0
  9 39  1  0
  9 40  1  0
 10 41  1  1
 11 42  1  1
 13 43  1  0
 13 44  1  0
 14 45  1  1
 15 46  1  6
 16 47  1  0
 17 48  1  0
 18 49  1  6
 19 50  1  0
 19 51  1  0
 22 52  1  0
 23 53  1  0
 24 54  1  0
 25 55  1  0
 26 56  1  0
 27 57  1  0
 28 58  1  0
M  END
>  <Ligand ID>  (1) 
LIG0002903

>  <Ligand>  (1) 
CHEMBL3982726

>  <SMILES>  (1) 
OC(=O)CCC[C@@H]1CC[C@H]2[C@@H](O1)C[C@H]([C@@H]2/C=C/[C@H](COc1ccccc1)O)O

>  <CID>  (1) 
6443852.0

>  <ChEMBL ID>  (1) 
nan

>  <InChiKey>  (1) 
FTBNLUSUCXCIGD-OVCPVMRKSA-N

>  <InChi>  (1) 
InChI=1S/C22H30O6/c23-15(14-27-16-5-2-1-3-6-16)9-11-18-19-12-10-17(7-4-8-22(25)26)28-21(19)13-20(18)24/h1-3,5-6,9,11,15,17-21,23-24H,4,7-8,10,12-14H2,(H,25,26)/b11-9+/t15-,17-,18-,19-,20-,21+/m1/s1

>  <IUPAC Name>  (1) 
4-[(2R,4aR,5R,6R,7aS)-6-hydroxy-5-[(E,3R)-3-hydroxy-4-phenoxybut-1-enyl]-2,3,4,4a,5,6,7,7a-octahydrocyclopenta[b]pyran-2-yl]butanoic acid

$$$$
