
     RDKit          3D

 53 54  0  0  0  0  0  0  0  0999 V2000
   -0.3378   -1.3268    0.9581 O   0  0  0  0  0  0  0  0  0  0  0  0
   -1.4642   -1.1343    0.1636 C   0  0  2  0  0  0  0  0  0  0  0  0
   -1.5916    0.3429   -0.0819 C   0  0  1  0  0  0  0  0  0  0  0  0
   -0.8296    0.7984   -1.2983 C   0  0  0  0  0  0  0  0  0  0  0  0
    0.5362    0.6214   -1.0379 O   0  0  0  0  0  0  0  0  0  0  0  0
    1.5067    1.0911   -2.3158 P   0  0  0  0  0  0  0  0  0  0  0  0
    2.3582   -0.0691   -2.8282 O   0  0  0  0  0  0  0  0  0  0  0  0
    2.5847    2.2768   -1.7741 O   0  0  0  0  0  0  0  0  0  0  0  0
    4.1877    1.8472   -2.0353 P   0  0  0  0  0  0  0  0  0  0  0  0
    4.4628    1.9608   -3.5267 O   0  0  0  0  0  0  0  0  0  0  0  0
    4.3983    0.2317   -1.5153 O   0  0  0  0  0  0  0  0  0  0  0  0
    5.1902   -0.1056   -0.4327 C   0  0  0  0  0  0  0  0  0  0  0  0
    5.0987    0.6223    0.7514 C   0  0  0  0  0  0  0  0  0  0  0  0
    5.8846    0.2936    1.8373 C   0  0  0  0  0  0  0  0  0  0  0  0
    6.7532   -0.7732    1.7005 C   0  0  0  0  0  0  0  0  0  0  0  0
    6.8425   -1.4926    0.5277 C   0  0  0  0  0  0  0  0  0  0  0  0
    6.0576   -1.1708   -0.5690 C   0  0  0  0  0  0  0  0  0  0  0  0
    7.9386   -2.8413    0.3501 Cl  0  0  0  0  0  0  0  0  0  0  0  0
    5.1849    2.9243   -1.2248 O   0  0  0  0  0  0  0  0  0  0  0  0
    0.5846    1.6351   -3.6239 O   0  0  0  0  0  0  0  0  0  0  0  0
   -2.9764    0.4811   -0.2454 O   0  0  0  0  0  0  0  0  0  0  0  0
   -3.4192   -0.0981    0.9432 C   0  0  2  0  0  0  0  0  0  0  0  0
   -2.7386   -1.4394    0.9269 C   0  0  2  0  0  0  0  0  0  0  0  0
   -2.4130   -1.8003    2.2252 O   0  0  0  0  0  0  0  0  0  0  0  0
   -4.8574   -0.1978    1.0050 N   0  0  0  0  0  0  0  0  0  0  0  0
   -5.4725   -0.8981    0.0392 C   0  0  0  0  0  0  0  0  0  0  0  0
   -6.8575   -1.0595    0.0000 C   0  0  0  0  0  0  0  0  0  0  0  0
   -7.5919   -0.4643    1.0066 C   0  0  0  0  0  0  0  0  0  0  0  0
   -8.8429   -0.6010    0.9850 O   0  0  0  0  0  0  0  0  0  0  0  0
   -6.9421    0.2317    1.9609 N   0  0  0  0  0  0  0  0  0  0  0  0
   -5.5986    0.3711    1.9729 C   0  0  0  0  0  0  0  0  0  0  0  0
   -5.0145    1.0218    2.8686 O   0  0  0  0  0  0  0  0  0  0  0  0
    0.0115   -0.0133    0.2553 N   0  0  0  0  0  0  0  0  0  0  0  0
    0.3347   -1.7889    0.4155 H   0  0  0  0  0  0  0  0  0  0  0  0
   -1.4404   -1.7230   -0.7670 H   0  0  0  0  0  0  0  0  0  0  0  0
   -1.3421    0.9012    0.8222 H   0  0  0  0  0  0  0  0  0  0  0  0
   -1.1616    0.2709   -2.2125 H   0  0  0  0  0  0  0  0  0  0  0  0
   -0.9626    1.8885   -1.4467 H   0  0  0  0  0  0  0  0  0  0  0  0
    4.4165    1.4597    0.8582 H   0  0  0  0  0  0  0  0  0  0  0  0
    5.8481    0.8311    2.7794 H   0  0  0  0  0  0  0  0  0  0  0  0
    7.3920   -1.0698    2.5271 H   0  0  0  0  0  0  0  0  0  0  0  0
    6.1035   -1.7130   -1.4998 H   0  0  0  0  0  0  0  0  0  0  0  0
    4.6865    3.4557   -0.5386 H   0  0  0  0  0  0  0  0  0  0  0  0
    1.0861    1.6178   -4.4696 H   0  0  0  0  0  0  0  0  0  0  0  0
   -2.9950    0.4992    1.7733 H   0  0  0  0  0  0  0  0  0  0  0  0
   -3.3449   -2.2184    0.4187 H   0  0  0  0  0  0  0  0  0  0  0  0
   -1.5458   -1.3730    2.4562 H   0  0  0  0  0  0  0  0  0  0  0  0
   -4.8995   -1.3643   -0.7490 H   0  0  0  0  0  0  0  0  0  0  0  0
   -7.2960   -1.6345   -0.8029 H   0  0  0  0  0  0  0  0  0  0  0  0
   -7.5013    0.6817    2.7225 H   0  0  0  0  0  0  0  0  0  0  0  0
   -0.0798    0.9780   -0.0817 H   0  0  0  0  0  0  0  0  0  0  0  0
    0.8960   -0.4411   -0.0921 H   0  0  0  0  0  0  0  0  0  0  0  0
   -0.8277   -0.5235   -0.0815 H   0  0  0  0  0  0  0  0  0  0  0  0
  1  2  1  0
  2  3  1  0
  3  4  1  0
  4  5  1  0
  5  6  1  0
  6  7  2  0
  6  8  1  0
  8  9  1  0
  9 10  2  0
  9 11  1  0
 11 12  1  0
 12 13  2  0
 13 14  1  0
 14 15  2  0
 15 16  1  0
 16 17  2  0
 16 18  1  0
  9 19  1  0
  6 20  1  0
  3 21  1  0
 21 22  1  0
 22 23  1  0
 23 24  1  0
 22 25  1  0
 25 26  1  0
 26 27  2  0
 27 28  1  0
 28 29  2  0
 28 30  1  0
 30 31  1  0
 31 32  2  0
 23  2  1  0
 31 25  1  0
 17 12  1  0
  1 34  1  0
  2 35  1  6
  3 36  1  1
  4 37  1  0
  4 38  1  0
 13 39  1  0
 14 40  1  0
 15 41  1  0
 17 42  1  0
 19 43  1  0
 20 44  1  0
 22 45  1  1
 23 46  1  6
 24 47  1  0
 26 48  1  0
 27 49  1  0
 30 50  1  0
 33 51  1  0
 33 52  1  0
 33 53  1  0
M  END
>  <Ligand ID>  (1) 
LIG0005850

>  <Ligand>  (1) 
CHEMBL1162561

>  <SMILES>  (1) 
O[C@@H]1[C@@H](COP(=O)(OP(=O)(Oc2cccc(c2)Cl)O)O)O[C@H]([C@@H]1O)n1ccc(=O)[nH]c1=O.N

>  <CID>  (1) 
44627803.0

>  <ChEMBL ID>  (1) 
nan

>  <InChiKey>  (1) 
ZLLHGJGRCMMBKG-VNQMUNOFSA-N

>  <InChi>  (1) 
InChI=1S/C15H17ClN2O12P2.H3N/c16-8-2-1-3-9(6-8)29-32(25,26)30-31(23,24)27-7-10-12(20)13(21)14(28-10)18-5-4-11(19)17-15(18)22;/h1-6,10,12-14,20-21H,7H2,(H,23,24)(H,25,26)(H,17,19,22);1H3/t10-,12-,13-,14-;/m1./s1

>  <IUPAC Name>  (1) 
azane;[(3-chlorophenoxy)-hydroxyphosphoryl] [(2R,3S,4R,5R)-5-(2,4-dioxopyrimidin-1-yl)-3,4-dihydroxyoxolan-2-yl]methyl hydrogen phosphate

$$$$
