
     RDKit          3D

 23 22  0  0  0  0  0  0  0  0999 V2000
   -2.8825    0.7865   -0.4639 C   0  0  0  0  0  0  0  0  0  0  0  0
   -2.6645   -0.6578   -0.1425 C   0  0  0  0  0  0  0  0  0  0  0  0
   -1.2338   -1.0970   -0.3902 C   0  0  0  0  0  0  0  0  0  0  0  0
   -0.2429   -0.3203    0.4437 C   0  0  0  0  0  0  0  0  0  0  0  0
    1.1977   -0.7381    0.2175 C   0  0  0  0  0  0  0  0  0  0  0  0
    2.0692    0.0814    1.0778 C   0  0  0  0  0  0  0  0  0  0  0  0
    3.0209    0.8845    0.6701 C   0  0  0  0  0  0  0  0  0  0  0  0
    3.4042    1.1266   -0.7023 C   0  0  0  0  0  0  0  0  0  0  0  0
    2.8886    0.6110   -1.7167 O   0  0  0  0  0  0  0  0  0  0  0  0
   -3.7950    0.9924   -1.0542 H   0  0  0  0  0  0  0  0  0  0  0  0
   -2.0262    1.1638   -1.0622 H   0  0  0  0  0  0  0  0  0  0  0  0
   -2.9204    1.4144    0.4564 H   0  0  0  0  0  0  0  0  0  0  0  0
   -2.9981   -0.8814    0.8927 H   0  0  0  0  0  0  0  0  0  0  0  0
   -3.3040   -1.2496   -0.8253 H   0  0  0  0  0  0  0  0  0  0  0  0
   -1.0092   -0.8644   -1.4521 H   0  0  0  0  0  0  0  0  0  0  0  0
   -1.1463   -2.1829   -0.2588 H   0  0  0  0  0  0  0  0  0  0  0  0
   -0.4219   -0.4178    1.5343 H   0  0  0  0  0  0  0  0  0  0  0  0
   -0.2931    0.7603    0.2035 H   0  0  0  0  0  0  0  0  0  0  0  0
    1.4665   -0.8358   -0.8189 H   0  0  0  0  0  0  0  0  0  0  0  0
    1.2321   -1.7984    0.6339 H   0  0  0  0  0  0  0  0  0  0  0  0
    1.8795   -0.0104    2.1643 H   0  0  0  0  0  0  0  0  0  0  0  0
    3.5666    1.4147    1.4712 H   0  0  0  0  0  0  0  0  0  0  0  0
    4.2128    1.8181   -0.8782 H   0  0  0  0  0  0  0  0  0  0  0  0
  1  2  1  0
  2  3  1  0
  3  4  1  0
  4  5  1  0
  5  6  1  0
  6  7  2  0
  7  8  1  0
  8  9  2  0
  1 10  1  0
  1 11  1  0
  1 12  1  0
  2 13  1  0
  2 14  1  0
  3 15  1  0
  3 16  1  0
  4 17  1  0
  4 18  1  0
  5 19  1  0
  5 20  1  0
  6 21  1  0
  7 22  1  0
  8 23  1  0
M  END
>  <Ligand ID>  (1) 
LIG0000544

>  <Ligand>  (1) 
(Z)-2-Octenal

>  <SMILES>  (1) 
CCCCC/C=C\C=O

>  <CID>  (1) 
6427080.0

>  <ChEMBL ID>  (1) 
nan

>  <InChiKey>  (1) 
LVBXEMGDVWVTGY-SREVYHEPSA-N

>  <InChi>  (1) 
InChI=1S/C8H14O/c1-2-3-4-5-6-7-8-9/h6-8H,2-5H2,1H3/b7-6-

>  <IUPAC Name>  (1) 
(Z)-oct-2-enal

$$$$
