
     RDKit          3D

 34 34  0  0  0  0  0  0  0  0999 V2000
    4.1892   -1.9610   -0.4867 C   0  0  0  0  0  0  0  0  0  0  0  0
    3.5775   -0.7596   -0.4961 C   0  0  0  0  0  0  0  0  0  0  0  0
    2.3790   -0.6111   -1.3534 C   0  0  0  0  0  0  0  0  0  0  0  0
    1.2164   -0.2667   -0.6590 O   0  0  0  0  0  0  0  0  0  0  0  0
    0.9445    0.8473    0.0754 C   0  0  0  0  0  0  0  0  0  0  0  0
    1.7626    1.9125    0.2947 C   0  0  0  0  0  0  0  0  0  0  0  0
    1.4329    3.0199    1.0500 C   0  0  0  0  0  0  0  0  0  0  0  0
    0.2092    3.0796    1.6289 C   0  0  0  0  0  0  0  0  0  0  0  0
   -0.6706    2.0130    1.4358 C   0  0  0  0  0  0  0  0  0  0  0  0
   -0.3268    0.9095    0.6765 C   0  0  0  0  0  0  0  0  0  0  0  0
   -1.2489   -0.2119    0.4775 C   0  0  0  0  0  0  0  0  0  0  0  0
   -2.0832   -0.1071   -0.7953 C   0  0  0  0  0  0  0  0  0  0  0  0
   -2.7027   -0.1576    0.5953 C   0  0  0  0  0  0  0  0  0  0  0  0
   -3.4651   -1.4437    0.8548 C   0  0  0  0  0  0  0  0  0  0  0  0
   -3.2554   -2.4195   -0.2019 N   0  0  0  0  0  0  0  0  0  0  0  0
   -1.8728    2.1302    2.0416 F   0  0  0  0  0  0  0  0  0  0  0  0
   -0.2568    4.4671    2.5988 Cl  0  0  0  0  0  0  0  0  0  0  0  0
    0.6849    0.0000    0.0000 Cl  0  0  0  0  0  0  0  0  0  0  0  0
    3.7945   -2.7830   -1.1004 H   0  0  0  0  0  0  0  0  0  0  0  0
    5.0612   -2.1753    0.0966 H   0  0  0  0  0  0  0  0  0  0  0  0
    4.0174   -0.0084    0.1250 H   0  0  0  0  0  0  0  0  0  0  0  0
    2.6590    0.1749   -2.1142 H   0  0  0  0  0  0  0  0  0  0  0  0
    2.2015   -1.5186   -1.9701 H   0  0  0  0  0  0  0  0  0  0  0  0
    2.7455    1.9198   -0.1533 H   0  0  0  0  0  0  0  0  0  0  0  0
    2.1424    3.8350    1.1809 H   0  0  0  0  0  0  0  0  0  0  0  0
   -0.8099   -1.2492    0.5986 H   0  0  0  0  0  0  0  0  0  0  0  0
   -2.1722   -0.9905   -1.4575 H   0  0  0  0  0  0  0  0  0  0  0  0
   -2.0745    0.8419   -1.3369 H   0  0  0  0  0  0  0  0  0  0  0  0
   -3.2681    0.7384    0.9402 H   0  0  0  0  0  0  0  0  0  0  0  0
   -4.5502   -1.2233    0.9109 H   0  0  0  0  0  0  0  0  0  0  0  0
   -3.1686   -1.9375    1.8090 H   0  0  0  0  0  0  0  0  0  0  0  0
   -4.0422   -3.1051   -0.1899 H   0  0  0  0  0  0  0  0  0  0  0  0
   -2.3647   -2.9600   -0.0612 H   0  0  0  0  0  0  0  0  0  0  0  0
   -0.6849    0.0000    0.0000 H   0  0  0  0  0  0  0  0  0  0  0  0
  1  2  2  0
  2  3  1  0
  3  4  1  0
  4  5  1  0
  5  6  2  0
  6  7  1  0
  7  8  2  0
  8  9  1  0
  9 10  2  0
 10 11  1  0
 11 12  1  0
 12 13  1  0
 13 14  1  0
 14 15  1  0
  9 16  1  0
  8 17  1  0
 10  5  1  0
 13 11  1  0
  1 19  1  0
  1 20  1  0
  2 21  1  0
  3 22  1  0
  3 23  1  0
  6 24  1  0
  7 25  1  0
 11 26  1  0
 12 27  1  0
 12 28  1  0
 13 29  1  0
 14 30  1  0
 14 31  1  0
 15 32  1  0
 15 33  1  0
 18 34  1  0
M  END
>  <Ligand ID>  (1) 
LIG0005648

>  <Ligand>  (1) 
CHEMBL3769633

>  <SMILES>  (1) 
C=CCOc1ccc(c(c1C1CC1CN)F)Cl.Cl

>  <CID>  (1) 
127027463.0

>  <ChEMBL ID>  (1) 
nan

>  <InChiKey>  (1) 
KWYHQYUBTBWOBL-UHFFFAOYSA-N

>  <InChi>  (1) 
InChI=1S/C13H15ClFNO.ClH/c1-2-5-17-11-4-3-10(14)13(15)12(11)9-6-8(9)7-16;/h2-4,8-9H,1,5-7,16H2;1H

>  <IUPAC Name>  (1) 
[2-(3-chloro-2-fluoro-6-prop-2-enoxyphenyl)cyclopropyl]methanamine;hydrochloride

$$$$
