
     RDKit          3D

 57 60  0  0  0  0  0  0  0  0999 V2000
    3.8444    0.6983   -2.2896 O   0  0  0  0  0  0  0  0  0  0  0  0
    3.4843    0.9463   -1.0371 C   0  0  0  0  0  0  0  0  0  0  0  0
    4.2208    0.3767   -0.2018 O   0  0  0  0  0  0  0  0  0  0  0  0
    5.0270   -0.2446    0.5926 C   0  0  0  0  0  0  0  0  0  0  0  0
    4.6808   -1.4977    1.1010 C   0  0  0  0  0  0  0  0  0  0  0  0
    5.5518   -2.1424    1.9264 C   0  0  0  0  0  0  0  0  0  0  0  0
    6.7388   -1.5197    2.2192 C   0  0  0  0  0  0  0  0  0  0  0  0
    7.1258   -0.2921    1.7495 C   0  0  0  0  0  0  0  0  0  0  0  0
    6.2569    0.3620    0.9203 C   0  0  0  0  0  0  0  0  0  0  0  0
    6.8192    1.5727    0.5556 C   0  0  0  0  0  0  0  0  0  0  0  0
    8.0492    1.6172    1.1939 C   0  0  0  0  0  0  0  0  0  0  0  0
    8.2095    0.4735    1.9115 N   0  0  0  0  0  0  0  0  0  0  0  0
    2.3576    1.7929   -0.9349 N   0  0  0  0  0  0  0  0  0  0  0  0
    1.6318    2.3539   -2.0398 C   0  0  0  0  0  0  0  0  0  0  0  0
    1.0364    1.2863   -2.8923 C   0  0  0  0  0  0  0  0  0  0  0  0
    0.0547    0.4098   -2.1001 C   0  0  0  0  0  0  0  0  0  0  0  0
   -1.0710    1.2511   -1.5641 C   0  0  0  0  0  0  0  0  0  0  0  0
   -2.0542    0.5528   -0.8068 N   0  0  0  0  0  0  0  0  0  0  0  0
   -3.1015    1.4101   -0.3217 C   0  0  0  0  0  0  0  0  0  0  0  0
   -3.7911    0.7124    0.8122 C   0  0  0  0  0  0  0  0  0  0  0  0
   -4.1743   -0.6451    0.4727 N   0  0  0  0  0  0  0  0  0  0  0  0
   -3.2295   -1.4377   -0.2707 C   0  0  0  0  0  0  0  0  0  0  0  0
   -2.5545   -0.6572   -1.3751 C   0  0  0  0  0  0  0  0  0  0  0  0
   -5.4361   -1.1764    0.8601 C   0  0  0  0  0  0  0  0  0  0  0  0
   -5.4623   -2.3225    1.6586 C   0  0  0  0  0  0  0  0  0  0  0  0
   -6.6854   -2.8463    2.0380 C   0  0  0  0  0  0  0  0  0  0  0  0
   -7.8796   -2.2787    1.6567 C   0  0  0  0  0  0  0  0  0  0  0  0
   -7.8646   -1.1340    0.8589 C   0  0  0  0  0  0  0  0  0  0  0  0
   -6.6405   -0.6256    0.4905 C   0  0  0  0  0  0  0  0  0  0  0  0
   -6.6250    0.8191   -0.5150 Cl  0  0  0  0  0  0  0  0  0  0  0  0
   -9.3443   -0.3580    0.3368 Cl  0  0  0  0  0  0  0  0  0  0  0  0
    3.7323   -1.9531    0.8455 H   0  0  0  0  0  0  0  0  0  0  0  0
    5.3297   -3.1153    2.3435 H   0  0  0  0  0  0  0  0  0  0  0  0
    7.4204   -2.0379    2.8642 H   0  0  0  0  0  0  0  0  0  0  0  0
    6.4061    2.3330   -0.0876 H   0  0  0  0  0  0  0  0  0  0  0  0
    8.7575    2.4544    1.1120 H   0  0  0  0  0  0  0  0  0  0  0  0
    9.0588    0.2662    2.4851 H   0  0  0  0  0  0  0  0  0  0  0  0
    1.9980    2.0525    0.0331 H   0  0  0  0  0  0  0  0  0  0  0  0
    0.8932    3.1100   -1.7057 H   0  0  0  0  0  0  0  0  0  0  0  0
    2.3643    2.8991   -2.6804 H   0  0  0  0  0  0  0  0  0  0  0  0
    0.4335    1.6903   -3.7366 H   0  0  0  0  0  0  0  0  0  0  0  0
    1.8057    0.6265   -3.2931 H   0  0  0  0  0  0  0  0  0  0  0  0
    0.6582   -0.0292   -1.2722 H   0  0  0  0  0  0  0  0  0  0  0  0
   -0.2617   -0.3600   -2.8039 H   0  0  0  0  0  0  0  0  0  0  0  0
   -1.6063    1.6464   -2.4755 H   0  0  0  0  0  0  0  0  0  0  0  0
   -0.6705    2.0628   -0.9303 H   0  0  0  0  0  0  0  0  0  0  0  0
   -3.8234    1.7132   -1.0902 H   0  0  0  0  0  0  0  0  0  0  0  0
   -2.6032    2.3305    0.0820 H   0  0  0  0  0  0  0  0  0  0  0  0
   -3.1665    0.6587    1.7235 H   0  0  0  0  0  0  0  0  0  0  0  0
   -4.7194    1.2418    1.1113 H   0  0  0  0  0  0  0  0  0  0  0  0
   -2.4327   -1.7630    0.4523 H   0  0  0  0  0  0  0  0  0  0  0  0
   -3.6642   -2.3686   -0.6779 H   0  0  0  0  0  0  0  0  0  0  0  0
   -3.3266   -0.4567   -2.1315 H   0  0  0  0  0  0  0  0  0  0  0  0
   -1.7241   -1.2842   -1.7305 H   0  0  0  0  0  0  0  0  0  0  0  0
   -4.5100   -2.7827    1.9645 H   0  0  0  0  0  0  0  0  0  0  0  0
   -6.6746   -3.7266    2.6530 H   0  0  0  0  0  0  0  0  0  0  0  0
   -8.8501   -2.6654    1.9401 H   0  0  0  0  0  0  0  0  0  0  0  0
  1  2  2  0
  2  3  1  0
  3  4  1  0
  4  5  2  0
  5  6  1  0
  6  7  2  0
  7  8  1  0
  8  9  2  0
  9 10  1  0
 10 11  2  0
 11 12  1  0
  2 13  1  0
 13 14  1  0
 14 15  1  0
 15 16  1  0
 16 17  1  0
 17 18  1  0
 18 19  1  0
 19 20  1  0
 20 21  1  0
 21 22  1  0
 22 23  1  0
 21 24  1  0
 24 25  2  0
 25 26  1  0
 26 27  2  0
 27 28  1  0
 28 29  2  0
 29 30  1  0
 28 31  1  0
  9  4  1  0
 23 18  1  0
 29 24  1  0
 12  8  1  0
  5 32  1  0
  6 33  1  0
  7 34  1  0
 10 35  1  0
 11 36  1  0
 12 37  1  0
 13 38  1  0
 14 39  1  0
 14 40  1  0
 15 41  1  0
 15 42  1  0
 16 43  1  0
 16 44  1  0
 17 45  1  0
 17 46  1  0
 19 47  1  0
 19 48  1  0
 20 49  1  0
 20 50  1  0
 22 51  1  0
 22 52  1  0
 23 53  1  0
 23 54  1  0
 25 55  1  0
 26 56  1  0
 27 57  1  0
M  END
>  <Ligand ID>  (1) 
LIG0003165

>  <Ligand>  (1) 
CHEMBL3800421

>  <SMILES>  (1) 
O=C(Oc1cccc2c1cc[nH]2)NCCCCN1CCN(CC1)c1cccc(c1Cl)Cl

>  <CID>  (1) 
127047640.0

>  <ChEMBL ID>  (1) 
nan

>  <InChiKey>  (1) 
QRRARQIWJKGPKE-UHFFFAOYSA-N

>  <InChi>  (1) 
InChI=1S/C23H26Cl2N4O2/c24-18-5-3-7-20(22(18)25)29-15-13-28(14-16-29)12-2-1-10-27-23(30)31-21-8-4-6-19-17(21)9-11-26-19/h3-9,11,26H,1-2,10,12-16H2,(H,27,30)

>  <IUPAC Name>  (1) 
1H-indol-4-yl N-[4-[4-(2,3-dichlorophenyl)piperazin-1-yl]butyl]carbamate

$$$$
