
     RDKit          3D

 19 18  0  0  0  0  0  0  0  0999 V2000
   -2.3620   -0.6676   -0.9952 O   0  0  0  0  0  0  0  0  0  0  0  0
   -2.5468   -0.1530    0.2842 C   0  0  0  0  0  0  0  0  0  0  0  0
   -1.1624    0.0220    0.8920 C   0  0  0  0  0  0  0  0  0  0  0  0
   -0.4155    0.9596    0.0273 C   0  0  0  0  0  0  0  0  0  0  0  0
    0.7065    0.7071   -0.6078 C   0  0  0  0  0  0  0  0  0  0  0  0
    1.4524   -0.5721   -0.5860 C   0  0  0  0  0  0  0  0  0  0  0  0
    2.8338   -0.2244   -0.0138 C   0  0  0  0  0  0  0  0  0  0  0  0
   -2.7823   -0.1241   -1.6977 H   0  0  0  0  0  0  0  0  0  0  0  0
   -3.0897    0.7970    0.1835 H   0  0  0  0  0  0  0  0  0  0  0  0
   -3.1315   -0.9021    0.8807 H   0  0  0  0  0  0  0  0  0  0  0  0
   -1.2178    0.4621    1.9071 H   0  0  0  0  0  0  0  0  0  0  0  0
   -0.7064   -0.9791    0.9674 H   0  0  0  0  0  0  0  0  0  0  0  0
   -0.8563    1.9649   -0.0853 H   0  0  0  0  0  0  0  0  0  0  0  0
    1.1503    1.5089   -1.2194 H   0  0  0  0  0  0  0  0  0  0  0  0
    1.6225   -0.9757   -1.6088 H   0  0  0  0  0  0  0  0  0  0  0  0
    1.0091   -1.3714    0.0022 H   0  0  0  0  0  0  0  0  0  0  0  0
    2.7553    0.4694    0.8469 H   0  0  0  0  0  0  0  0  0  0  0  0
    3.3257   -1.1433    0.3762 H   0  0  0  0  0  0  0  0  0  0  0  0
    3.4151    0.2217   -0.8441 H   0  0  0  0  0  0  0  0  0  0  0  0
  1  2  1  0
  2  3  1  0
  3  4  1  0
  4  5  2  0
  5  6  1  0
  6  7  1  0
  1  8  1  0
  2  9  1  0
  2 10  1  0
  3 11  1  0
  3 12  1  0
  4 13  1  0
  5 14  1  0
  6 15  1  0
  6 16  1  0
  7 17  1  0
  7 18  1  0
  7 19  1  0
M  END
>  <Ligand ID>  (1) 
LIG0000002

>  <Ligand>  (1) 
3-Hexenol

>  <SMILES>  (1) 
OCC/C=C\CC

>  <CID>  (1) 
5281167.0

>  <ChEMBL ID>  (1) 
nan

>  <InChiKey>  (1) 
UFLHIIWVXFIJGU-ARJAWSKDSA-N

>  <InChi>  (1) 
InChI=1S/C6H12O/c1-2-3-4-5-6-7/h3-4,7H,2,5-6H2,1H3/b4-3-

>  <IUPAC Name>  (1) 
(Z)-hex-3-en-1-ol

$$$$
