
     RDKit          3D

 65 67  0  0  0  0  0  0  0  0999 V2000
    7.9222    1.2951    1.8477 O   0  0  0  0  0  0  0  0  0  0  0  0
    8.3533    0.9819    0.7150 C   0  0  0  0  0  0  0  0  0  0  0  0
    7.5565    0.3881   -0.2954 N   0  0  0  0  0  0  0  0  0  0  0  0
    6.1924    0.0653   -0.1862 C   0  0  0  0  0  0  0  0  0  0  0  0
    5.4082    0.2584    0.9238 C   0  0  0  0  0  0  0  0  0  0  0  0
    4.0598   -0.0828    0.9569 C   0  0  0  0  0  0  0  0  0  0  0  0
    3.4268   -0.6482   -0.1553 C   0  0  0  0  0  0  0  0  0  0  0  0
    4.2209   -0.8359   -1.2564 C   0  0  0  0  0  0  0  0  0  0  0  0
    5.5731   -0.4919   -1.2855 C   0  0  0  0  0  0  0  0  0  0  0  0
    2.0620   -0.9854   -0.1104 N   0  0  0  0  0  0  0  0  0  0  0  0
    1.3141   -1.5188   -1.2571 C   0  0  0  0  0  0  0  0  0  0  0  0
    0.1631   -0.5799   -1.5910 C   0  0  0  0  0  0  0  0  0  0  0  0
   -0.6346   -0.3433   -0.3370 C   0  0  0  0  0  0  0  0  0  0  0  0
    0.2379    0.2773    0.6959 C   0  0  0  0  0  0  0  0  0  0  0  0
    1.2322   -0.8267    1.0936 C   0  0  0  0  0  0  0  0  0  0  0  0
   -1.7838    0.4467   -0.6900 N   0  0  0  0  0  0  0  0  0  0  0  0
   -2.5870    0.8453    0.4095 C   0  0  0  0  0  0  0  0  0  0  0  0
   -3.3323   -0.2242    1.1278 C   0  0  1  0  0  0  0  0  0  0  0  0
   -4.4814   -0.7682    0.3409 C   0  0  0  0  0  0  0  0  0  0  0  0
   -4.3851   -1.9079   -0.4285 C   0  0  0  0  0  0  0  0  0  0  0  0
   -5.4928   -2.3460   -1.1389 C   0  0  0  0  0  0  0  0  0  0  0  0
   -6.6924   -1.6379   -1.0745 C   0  0  0  0  0  0  0  0  0  0  0  0
   -6.8083   -0.4829   -0.3026 C   0  0  0  0  0  0  0  0  0  0  0  0
   -5.6809   -0.1000    0.3771 C   0  0  0  0  0  0  0  0  0  0  0  0
   -8.0511    0.1969   -0.2669 N   0  0  0  0  0  0  0  0  0  0  0  0
   -8.2320    1.9032   -0.1714 S   0  0  0  0  0  0  0  0  0  0  0  0
   -9.7106    2.2126   -0.2302 O   0  0  0  0  0  0  0  0  0  0  0  0
   -7.5563    2.4841   -1.4102 O   0  0  0  0  0  0  0  0  0  0  0  0
   -7.5394    2.5708    1.2982 C   0  0  0  0  0  0  0  0  0  0  0  0
   -7.8266   -2.0452   -1.7724 O   0  0  0  0  0  0  0  0  0  0  0  0
   -2.5876   -1.2269    1.6919 O   0  0  0  0  0  0  0  0  0  0  0  0
    9.7944    1.2672    0.4541 C   0  0  0  0  0  0  0  0  0  0  0  0
   10.1576    0.8381   -0.9201 C   0  0  0  0  0  0  0  0  0  0  0  0
   10.3444   -0.3890   -1.1877 O   0  0  0  0  0  0  0  0  0  0  0  0
   10.2911    1.8079   -1.9164 O   0  0  0  0  0  0  0  0  0  0  0  0
    8.0663    0.1818   -1.2035 H   0  0  0  0  0  0  0  0  0  0  0  0
    5.8140    0.6820    1.8101 H   0  0  0  0  0  0  0  0  0  0  0  0
    3.5418    0.1167    1.8809 H   0  0  0  0  0  0  0  0  0  0  0  0
    3.8321   -1.2596   -2.1558 H   0  0  0  0  0  0  0  0  0  0  0  0
    6.1462   -0.6722   -2.2068 H   0  0  0  0  0  0  0  0  0  0  0  0
    1.9248   -1.7735   -2.1109 H   0  0  0  0  0  0  0  0  0  0  0  0
    0.8296   -2.4786   -0.9183 H   0  0  0  0  0  0  0  0  0  0  0  0
   -0.4432   -1.0830   -2.3627 H   0  0  0  0  0  0  0  0  0  0  0  0
    0.5534    0.3817   -2.0078 H   0  0  0  0  0  0  0  0  0  0  0  0
   -0.9199   -1.3536    0.0494 H   0  0  0  0  0  0  0  0  0  0  0  0
   -0.2792    0.6245    1.6003 H   0  0  0  0  0  0  0  0  0  0  0  0
    0.8847    1.0788    0.2368 H   0  0  0  0  0  0  0  0  0  0  0  0
    1.7594   -0.6525    2.0059 H   0  0  0  0  0  0  0  0  0  0  0  0
    0.5906   -1.7515    1.1995 H   0  0  0  0  0  0  0  0  0  0  0  0
   -1.4420    1.2828   -1.1854 H   0  0  0  0  0  0  0  0  0  0  0  0
   -3.3781    1.5312   -0.0175 H   0  0  0  0  0  0  0  0  0  0  0  0
   -2.0471    1.5300    1.1272 H   0  0  0  0  0  0  0  0  0  0  0  0
   -3.8120    0.3069    2.0233 H   0  0  0  0  0  0  0  0  0  0  0  0
   -3.4654   -2.4568   -0.4816 H   0  0  0  0  0  0  0  0  0  0  0  0
   -5.4624   -3.2482   -1.7631 H   0  0  0  0  0  0  0  0  0  0  0  0
   -5.7361    0.7797    0.9819 H   0  0  0  0  0  0  0  0  0  0  0  0
   -8.9106   -0.4353   -0.3001 H   0  0  0  0  0  0  0  0  0  0  0  0
   -7.5219    1.8581    2.1393 H   0  0  0  0  0  0  0  0  0  0  0  0
   -6.5164    2.9795    1.1593 H   0  0  0  0  0  0  0  0  0  0  0  0
   -8.2023    3.4086    1.6331 H   0  0  0  0  0  0  0  0  0  0  0  0
   -8.5856   -2.4190   -1.2270 H   0  0  0  0  0  0  0  0  0  0  0  0
   -2.9381   -2.1168    1.5014 H   0  0  0  0  0  0  0  0  0  0  0  0
   10.0454    2.3448    0.5560 H   0  0  0  0  0  0  0  0  0  0  0  0
   10.3720    0.7469    1.2405 H   0  0  0  0  0  0  0  0  0  0  0  0
   10.3724    1.4687   -2.8668 H   0  0  0  0  0  0  0  0  0  0  0  0
  1  2  2  0
  2  3  1  0
  3  4  1  0
  4  5  2  0
  5  6  1  0
  6  7  2  0
  7  8  1  0
  8  9  2  0
  7 10  1  0
 10 11  1  0
 11 12  1  0
 12 13  1  0
 13 14  1  0
 14 15  1  0
 13 16  1  0
 16 17  1  0
 17 18  1  0
 18 19  1  0
 19 20  2  0
 20 21  1  0
 21 22  2  0
 22 23  1  0
 23 24  2  0
 23 25  1  0
 25 26  1  0
 26 27  2  0
 26 28  2  0
 26 29  1  0
 22 30  1  0
 18 31  1  0
  2 32  1  0
 32 33  1  0
 33 34  2  0
 33 35  1  0
  9  4  1  0
 15 10  1  0
 24 19  1  0
  3 36  1  0
  5 37  1  0
  6 38  1  0
  8 39  1  0
  9 40  1  0
 11 41  1  0
 11 42  1  0
 12 43  1  0
 12 44  1  0
 13 45  1  0
 14 46  1  0
 14 47  1  0
 15 48  1  0
 15 49  1  0
 16 50  1  0
 17 51  1  0
 17 52  1  0
 18 53  1  1
 20 54  1  0
 21 55  1  0
 24 56  1  0
 25 57  1  0
 29 58  1  0
 29 59  1  0
 29 60  1  0
 30 61  1  0
 31 62  1  0
 32 63  1  0
 32 64  1  0
 35 65  1  0
M  END
>  <Ligand ID>  (1) 
LIG0004941

>  <Ligand>  (1) 
CHEMBL284612

>  <SMILES>  (1) 
O=C(Nc1ccc(cc1)N1CCC(CC1)NC[C@@H](c1ccc(c(c1)NS(=O)(=O)C)O)O)CC(=O)O

>  <CID>  (1) 
10553603.0

>  <ChEMBL ID>  (1) 
nan

>  <InChiKey>  (1) 
BFMYNBIXRFYVEZ-NRFANRHFSA-N

>  <InChi>  (1) 
InChI=1S/C23H30N4O7S/c1-35(33,34)26-19-12-15(2-7-20(19)28)21(29)14-24-16-8-10-27(11-9-16)18-5-3-17(4-6-18)25-22(30)13-23(31)32/h2-7,12,16,21,24,26,28-29H,8-11,13-14H2,1H3,(H,25,30)(H,31,32)/t21-/m0/s1

>  <IUPAC Name>  (1) 
3-[4-[4-[[(2R)-2-hydroxy-2-[4-hydroxy-3-(methanesulfonamido)phenyl]ethyl]amino]piperidin-1-yl]anilino]-3-oxopropanoic acid

$$$$
