
     RDKit          3D

 28 29  0  0  0  0  0  0  0  0999 V2000
    3.6276    1.7018    1.7211 C   0  0  0  0  0  0  0  0  0  0  0  0
    3.3636    0.3304    1.1601 C   0  0  0  0  0  0  0  0  0  0  0  0
    2.2225    0.2890    0.3237 O   0  0  0  0  0  0  0  0  0  0  0  0
    1.8130   -0.9060   -0.2947 C   0  0  0  0  0  0  0  0  0  0  0  0
    2.4491   -2.1002   -0.1567 N   0  0  0  0  0  0  0  0  0  0  0  0
    1.7716   -2.9467   -0.8750 O   0  0  0  0  0  0  0  0  0  0  0  0
    0.7683   -2.4050   -1.4545 N   0  0  0  0  0  0  0  0  0  0  0  0
    0.7300   -1.1018   -1.1307 C   0  0  0  0  0  0  0  0  0  0  0  0
   -0.4198    0.0997   -1.6382 S   0  0  0  0  0  0  0  0  0  0  0  0
   -0.9217   -0.2544   -3.0072 O   0  0  0  0  0  0  0  0  0  0  0  0
    0.3204    1.4246   -1.6675 O   0  0  0  0  0  0  0  0  0  0  0  0
   -1.7775    0.2268   -0.5757 C   0  0  0  0  0  0  0  0  0  0  0  0
   -2.8963   -0.5721   -0.8256 C   0  0  0  0  0  0  0  0  0  0  0  0
   -4.0098   -0.5169   -0.0153 C   0  0  0  0  0  0  0  0  0  0  0  0
   -4.0712    0.3341    1.0857 C   0  0  0  0  0  0  0  0  0  0  0  0
   -2.9520    1.1233    1.3233 C   0  0  0  0  0  0  0  0  0  0  0  0
   -1.8370    1.0708    0.5152 C   0  0  0  0  0  0  0  0  0  0  0  0
   -0.1668   -2.9941   -2.2895 O   0  0  0  0  0  0  0  0  0  0  0  0
    4.5935    2.1337    1.3326 H   0  0  0  0  0  0  0  0  0  0  0  0
    3.7326    1.5839    2.8344 H   0  0  0  0  0  0  0  0  0  0  0  0
    2.8382    2.4353    1.5114 H   0  0  0  0  0  0  0  0  0  0  0  0
    3.2503   -0.4411    1.9318 H   0  0  0  0  0  0  0  0  0  0  0  0
    4.2369    0.0656    0.4977 H   0  0  0  0  0  0  0  0  0  0  0  0
   -2.8656   -1.2512   -1.6920 H   0  0  0  0  0  0  0  0  0  0  0  0
   -4.8397   -1.1646   -0.2693 H   0  0  0  0  0  0  0  0  0  0  0  0
   -4.9527    0.3533    1.6967 H   0  0  0  0  0  0  0  0  0  0  0  0
   -3.0241    1.7826    2.1925 H   0  0  0  0  0  0  0  0  0  0  0  0
   -0.9836    1.6994    0.7299 H   0  0  0  0  0  0  0  0  0  0  0  0
  1  2  1  0
  2  3  1  0
  3  4  1  0
  4  5  2  0
  5  6  1  0
  6  7  1  0
  7  8  2  0
  8  9  1  0
  9 10  2  0
  9 11  2  0
  9 12  1  0
 12 13  2  0
 13 14  1  0
 14 15  2  0
 15 16  1  0
 16 17  2  0
  7 18  1  0
  8  4  1  0
 17 12  1  0
  1 19  1  0
  1 20  1  0
  1 21  1  0
  2 22  1  0
  2 23  1  0
 13 24  1  0
 14 25  1  0
 15 26  1  0
 16 27  1  0
 17 28  1  0
M  CHG  2   7   1  18  -1
M  END
>  <Ligand ID>  (1) 
LIG0004492

>  <Ligand>  (1) 
CHEMBL363325

>  <SMILES>  (1) 
CCOc1no[n+](c1S(=O)(=O)c1ccccc1)[O-]

>  <CID>  (1) 
10221081.0

>  <ChEMBL ID>  (1) 
nan

>  <InChiKey>  (1) 
HWPOZMMTECRYLB-UHFFFAOYSA-N

>  <InChi>  (1) 
InChI=1S/C10H10N2O5S/c1-2-16-9-10(12(13)17-11-9)18(14,15)8-6-4-3-5-7-8/h3-7H,2H2,1H3

>  <IUPAC Name>  (1) 
3-(benzenesulfonyl)-4-ethoxy-2-oxido-1,2,5-oxadiazol-2-ium

$$$$
