
     RDKit          3D

 29 29  0  0  0  0  0  0  0  0999 V2000
    3.8091    0.3814   -0.1718 C   0  0  0  0  0  0  0  0  0  0  0  0
    2.3085    0.2460   -0.0822 C   0  0  0  0  0  0  0  0  0  0  0  0
    1.5666    1.2686   -0.4389 C   0  0  0  0  0  0  0  0  0  0  0  0
    0.0822    1.2928   -0.4084 C   0  0  0  0  0  0  0  0  0  0  0  0
   -0.4138   -0.0839   -0.1268 C   0  0  0  0  0  0  0  0  0  0  0  0
    0.3742   -0.6486    1.0213 C   0  0  0  0  0  0  0  0  0  0  0  0
    1.7228   -1.0463    0.4088 C   0  0  0  0  0  0  0  0  0  0  0  0
   -1.9022   -0.1402    0.1030 C   0  0  0  0  0  0  0  0  0  0  0  0
   -2.5221    0.3317   -1.0542 O   0  0  0  0  0  0  0  0  0  0  0  0
   -2.3560   -1.5356    0.3514 C   0  0  0  0  0  0  0  0  0  0  0  0
   -2.3200    0.7853    1.2319 C   0  0  0  0  0  0  0  0  0  0  0  0
    4.2067    0.5652    0.8662 H   0  0  0  0  0  0  0  0  0  0  0  0
    4.0574    1.2029   -0.8522 H   0  0  0  0  0  0  0  0  0  0  0  0
    4.1934   -0.6116   -0.4751 H   0  0  0  0  0  0  0  0  0  0  0  0
    2.0591    2.1810   -0.7877 H   0  0  0  0  0  0  0  0  0  0  0  0
   -0.3101    1.9697    0.3821 H   0  0  0  0  0  0  0  0  0  0  0  0
   -0.3262    1.6929   -1.3607 H   0  0  0  0  0  0  0  0  0  0  0  0
   -0.2135   -0.7165   -1.0226 H   0  0  0  0  0  0  0  0  0  0  0  0
    0.6213    0.1399    1.7627 H   0  0  0  0  0  0  0  0  0  0  0  0
   -0.1109   -1.5076    1.5088 H   0  0  0  0  0  0  0  0  0  0  0  0
    1.4374   -1.6251   -0.5131 H   0  0  0  0  0  0  0  0  0  0  0  0
    2.3643   -1.5872    1.0998 H   0  0  0  0  0  0  0  0  0  0  0  0
   -3.4800    0.1414   -1.0820 H   0  0  0  0  0  0  0  0  0  0  0  0
   -1.9638   -2.2099   -0.4184 H   0  0  0  0  0  0  0  0  0  0  0  0
   -2.1943   -1.8866    1.3938 H   0  0  0  0  0  0  0  0  0  0  0  0
   -3.4791   -1.5612    0.2339 H   0  0  0  0  0  0  0  0  0  0  0  0
   -2.3163    1.8085    0.8243 H   0  0  0  0  0  0  0  0  0  0  0  0
   -1.5575    0.6657    2.0332 H   0  0  0  0  0  0  0  0  0  0  0  0
   -3.3370    0.4873    1.5256 H   0  0  0  0  0  0  0  0  0  0  0  0
  1  2  1  0
  2  3  2  0
  3  4  1  0
  4  5  1  0
  5  6  1  0
  6  7  1  0
  5  8  1  0
  8  9  1  0
  8 10  1  0
  8 11  1  0
  7  2  1  0
  1 12  1  0
  1 13  1  0
  1 14  1  0
  3 15  1  0
  4 16  1  0
  4 17  1  0
  5 18  1  0
  6 19  1  0
  6 20  1  0
  7 21  1  0
  7 22  1  0
  9 23  1  0
 10 24  1  0
 10 25  1  0
 10 26  1  0
 11 27  1  0
 11 28  1  0
 11 29  1  0
M  END
>  <Ligand ID>  (1) 
LIG0000610

>  <Ligand>  (1) 
Alpha-Terpineol

>  <SMILES>  (1) 
CC1=CCC(CC1)C(O)(C)C

>  <CID>  (1) 
17100.0

>  <ChEMBL ID>  (1) 
nan

>  <InChiKey>  (1) 
WUOACPNHFRMFPN-UHFFFAOYSA-N

>  <InChi>  (1) 
InChI=1S/C10H18O/c1-8-4-6-9(7-5-8)10(2,3)11/h4,9,11H,5-7H2,1-3H3

>  <IUPAC Name>  (1) 
2-(4-methylcyclohex-3-en-1-yl)propan-2-ol

$$$$
