
     RDKit          3D

132133  0  0  0  0  0  0  0  0999 V2000
   11.7575   -1.7687    0.0299 N   0  0  0  0  0  0  0  0  0  0  0  0
   10.3640   -1.6481   -0.2891 C   0  0  0  0  0  0  0  0  0  0  0  0
   10.0760   -0.7076   -1.4378 C   0  0  0  0  0  0  0  0  0  0  0  0
   10.5195    0.6830   -1.2429 C   0  0  0  0  0  0  0  0  0  0  0  0
   10.0582    1.4940   -0.1273 C   0  0  0  0  0  0  0  0  0  0  0  0
    8.6309    1.8555    0.0771 C   0  0  1  0  0  0  0  0  0  0  0  0
    7.6443    0.8230    0.2788 C   0  0  0  0  0  0  0  0  0  0  0  0
    7.3802    0.4986    1.4986 O   0  0  0  0  0  0  0  0  0  0  0  0
    6.8903    0.0948   -0.6911 N   0  0  0  0  0  0  0  0  0  0  0  0
    5.9536   -0.8507   -0.1654 C   0  0  2  0  0  0  0  0  0  0  0  0
    5.0399   -0.2624    0.8775 C   0  0  0  0  0  0  0  0  0  0  0  0
    4.4958   -1.1208    1.6284 O   0  0  0  0  0  0  0  0  0  0  0  0
    4.8569    1.1155    0.9475 N   0  0  0  0  0  0  0  0  0  0  0  0
    4.0570    1.8779    1.8633 C   0  0  2  0  0  0  0  0  0  0  0  0
    2.7358    2.1632    1.1833 C   0  0  0  0  0  0  0  0  0  0  0  0
    2.0845    3.1393    1.6983 O   0  0  0  0  0  0  0  0  0  0  0  0
    2.2714    1.4122    0.0917 N   0  0  0  0  0  0  0  0  0  0  0  0
    1.0427    1.5858   -0.6236 C   0  0  2  0  0  0  0  0  0  0  0  0
   -0.1211    0.8698   -0.0038 C   0  0  0  0  0  0  0  0  0  0  0  0
   -1.0739    0.5823   -0.7371 O   0  0  0  0  0  0  0  0  0  0  0  0
   -0.1303    0.5483    1.3653 N   0  0  0  0  0  0  0  0  0  0  0  0
   -1.1464   -0.1183    2.1023 C   0  0  2  0  0  0  0  0  0  0  0  0
   -2.5033    0.5586    1.9821 C   0  0  0  0  0  0  0  0  0  0  0  0
   -2.8063    1.2967    1.0333 O   0  0  0  0  0  0  0  0  0  0  0  0
   -3.4959    0.3559    2.9891 N   0  0  0  0  0  0  0  0  0  0  0  0
   -4.8423    0.9572    2.8517 C   0  0  0  0  0  0  0  0  0  0  0  0
   -5.3914    0.1563    1.6675 C   0  0  0  0  0  0  0  0  0  0  0  0
   -4.5480   -0.6792    1.2194 O   0  0  0  0  0  0  0  0  0  0  0  0
   -6.6883    0.3431    1.1777 N   0  0  0  0  0  0  0  0  0  0  0  0
   -7.0961   -0.5650    0.0447 C   0  0  2  0  0  0  0  0  0  0  0  0
   -7.8117    0.0947   -0.9974 C   0  0  0  0  0  0  0  0  0  0  0  0
   -8.0432   -0.5479   -2.0861 O   0  0  0  0  0  0  0  0  0  0  0  0
   -8.3306    1.4263   -0.9994 N   0  0  0  0  0  0  0  0  0  0  0  0
   -9.0348    1.8444   -2.1942 C   0  0  2  0  0  0  0  0  0  0  0  0
   -8.3237    3.0445   -2.7701 C   0  0  0  0  0  0  0  0  0  0  0  0
   -8.7581    3.6086   -3.8149 O   0  0  0  0  0  0  0  0  0  0  0  0
   -7.1599    3.5871   -2.1836 N   0  0  0  0  0  0  0  0  0  0  0  0
  -10.3916    2.3632   -1.7010 C   0  0  0  0  0  0  0  0  0  0  0  0
  -11.1599    1.3076   -0.9510 C   0  0  0  0  0  0  0  0  0  0  0  0
  -12.7445    2.0226   -0.4381 S   0  0  0  0  0  0  0  0  0  0  0  0
  -13.7193    2.3455   -1.9426 C   0  0  0  0  0  0  0  0  0  0  0  0
   -7.6271   -1.7805    0.7112 C   0  0  0  0  0  0  0  0  0  0  0  0
   -8.1861   -2.9244   -0.0034 C   0  0  0  0  0  0  0  0  0  0  0  0
   -9.4224   -2.6825   -0.8041 C   0  0  0  0  0  0  0  0  0  0  0  0
   -7.1788   -3.6016   -0.9412 C   0  0  0  0  0  0  0  0  0  0  0  0
   -0.8543   -0.5705    3.4558 C   0  0  0  0  0  0  0  0  0  0  0  0
    0.2719   -1.5299    3.4966 C   0  0  0  0  0  0  0  0  0  0  0  0
    0.0293   -2.8905    3.2726 C   0  0  0  0  0  0  0  0  0  0  0  0
    1.0473   -3.8088    3.3575 C   0  0  0  0  0  0  0  0  0  0  0  0
    2.3379   -3.3862    3.6704 C   0  0  0  0  0  0  0  0  0  0  0  0
    2.5269   -2.0502    3.8801 C   0  0  0  0  0  0  0  0  0  0  0  0
    1.5405   -1.0941    3.8056 C   0  0  0  0  0  0  0  0  0  0  0  0
    1.1943    1.4648   -2.0751 C   0  0  0  0  0  0  0  0  0  0  0  0
    1.7037    0.1849   -2.5986 C   0  0  0  0  0  0  0  0  0  0  0  0
    3.0780   -0.0333   -2.7582 C   0  0  0  0  0  0  0  0  0  0  0  0
    3.5008   -1.2350   -3.2806 C   0  0  0  0  0  0  0  0  0  0  0  0
    2.6670   -2.2540   -3.6645 C   0  0  0  0  0  0  0  0  0  0  0  0
    1.3125   -2.0428   -3.5088 C   0  0  0  0  0  0  0  0  0  0  0  0
    0.8632   -0.8319   -2.9810 C   0  0  0  0  0  0  0  0  0  0  0  0
    4.6312    3.1435    2.3615 C   0  0  0  0  0  0  0  0  0  0  0  0
    3.6712    3.7132    3.2369 O   0  0  0  0  0  0  0  0  0  0  0  0
    6.4470   -2.1907    0.2173 C   0  0  0  0  0  0  0  0  0  0  0  0
    7.0091   -2.8964   -0.9881 C   0  0  0  0  0  0  0  0  0  0  0  0
    7.6240   -3.9972   -0.8733 O   0  0  0  0  0  0  0  0  0  0  0  0
    6.8788   -2.3783   -2.2652 O   0  0  0  0  0  0  0  0  0  0  0  0
    8.6424    2.7382    1.3068 N   0  0  0  0  0  0  0  0  0  0  0  0
   11.9176   -1.3533    0.9662 H   0  0  0  0  0  0  0  0  0  0  0  0
   12.2960   -1.2738   -0.7048 H   0  0  0  0  0  0  0  0  0  0  0  0
    9.7085   -1.4457    0.6086 H   0  0  0  0  0  0  0  0  0  0  0  0
   10.0080   -2.6494   -0.6375 H   0  0  0  0  0  0  0  0  0  0  0  0
   10.7737   -1.1183   -2.2693 H   0  0  0  0  0  0  0  0  0  0  0  0
    9.0949   -0.9078   -1.8298 H   0  0  0  0  0  0  0  0  0  0  0  0
   10.2526    1.2255   -2.2212 H   0  0  0  0  0  0  0  0  0  0  0  0
   11.6604    0.7497   -1.2840 H   0  0  0  0  0  0  0  0  0  0  0  0
   10.5967    2.5185   -0.1599 H   0  0  0  0  0  0  0  0  0  0  0  0
   10.4146    1.1211    0.8809 H   0  0  0  0  0  0  0  0  0  0  0  0
    8.3132    2.5772   -0.7355 H   0  0  0  0  0  0  0  0  0  0  0  0
    7.0728    0.3056   -1.6879 H   0  0  0  0  0  0  0  0  0  0  0  0
    5.2140   -1.0430   -1.0393 H   0  0  0  0  0  0  0  0  0  0  0  0
    5.3700    1.7039    0.2105 H   0  0  0  0  0  0  0  0  0  0  0  0
    3.7903    1.2210    2.7577 H   0  0  0  0  0  0  0  0  0  0  0  0
    2.8997    0.6278   -0.2415 H   0  0  0  0  0  0  0  0  0  0  0  0
    0.6994    2.6988   -0.4415 H   0  0  0  0  0  0  0  0  0  0  0  0
    0.7343    0.8408    1.9163 H   0  0  0  0  0  0  0  0  0  0  0  0
   -1.3814   -1.0526    1.4463 H   0  0  0  0  0  0  0  0  0  0  0  0
   -3.3556   -0.1954    3.8488 H   0  0  0  0  0  0  0  0  0  0  0  0
   -5.4385    0.7445    3.7257 H   0  0  0  0  0  0  0  0  0  0  0  0
   -4.6734    2.0016    2.5798 H   0  0  0  0  0  0  0  0  0  0  0  0
   -7.3514    1.0477    1.5445 H   0  0  0  0  0  0  0  0  0  0  0  0
   -6.0729   -0.8867   -0.3673 H   0  0  0  0  0  0  0  0  0  0  0  0
   -8.1716    1.9985   -0.1616 H   0  0  0  0  0  0  0  0  0  0  0  0
   -9.1423    1.0570   -2.9290 H   0  0  0  0  0  0  0  0  0  0  0  0
   -7.2214    4.0008   -1.2197 H   0  0  0  0  0  0  0  0  0  0  0  0
   -6.2753    3.5617   -2.7238 H   0  0  0  0  0  0  0  0  0  0  0  0
  -10.2068    3.2146   -1.0274 H   0  0  0  0  0  0  0  0  0  0  0  0
  -10.9765    2.7719   -2.5594 H   0  0  0  0  0  0  0  0  0  0  0  0
  -10.6175    0.9905   -0.0273 H   0  0  0  0  0  0  0  0  0  0  0  0
  -11.3889    0.3988   -1.5323 H   0  0  0  0  0  0  0  0  0  0  0  0
  -14.0949    3.4033   -1.8315 H   0  0  0  0  0  0  0  0  0  0  0  0
  -14.5704    1.6318   -2.0202 H   0  0  0  0  0  0  0  0  0  0  0  0
  -13.0453    2.3487   -2.8193 H   0  0  0  0  0  0  0  0  0  0  0  0
   -8.3103   -1.5341    1.5740 H   0  0  0  0  0  0  0  0  0  0  0  0
   -6.7165   -2.2038    1.2905 H   0  0  0  0  0  0  0  0  0  0  0  0
   -8.4316   -3.7759    0.7253 H   0  0  0  0  0  0  0  0  0  0  0  0
  -10.2128   -3.4331   -0.4494 H   0  0  0  0  0  0  0  0  0  0  0  0
   -9.2669   -2.8660   -1.8696 H   0  0  0  0  0  0  0  0  0  0  0  0
   -9.8784   -1.7002   -0.6396 H   0  0  0  0  0  0  0  0  0  0  0  0
   -6.3034   -3.9875   -0.3702 H   0  0  0  0  0  0  0  0  0  0  0  0
   -6.9407   -3.0219   -1.8249 H   0  0  0  0  0  0  0  0  0  0  0  0
   -7.7161   -4.5279   -1.2806 H   0  0  0  0  0  0  0  0  0  0  0  0
   -0.6724    0.2717    4.1803 H   0  0  0  0  0  0  0  0  0  0  0  0
   -1.7379   -1.1816    3.8245 H   0  0  0  0  0  0  0  0  0  0  0  0
   -0.9515   -3.2701    3.0280 H   0  0  0  0  0  0  0  0  0  0  0  0
    0.8664   -4.8589    3.1873 H   0  0  0  0  0  0  0  0  0  0  0  0
    3.1305   -4.1102    3.7368 H   0  0  0  0  0  0  0  0  0  0  0  0
    3.5227   -1.6835    4.1260 H   0  0  0  0  0  0  0  0  0  0  0  0
    1.7687   -0.0495    3.9848 H   0  0  0  0  0  0  0  0  0  0  0  0
    0.2483    1.7687   -2.6277 H   0  0  0  0  0  0  0  0  0  0  0  0
    1.9236    2.2719   -2.4018 H   0  0  0  0  0  0  0  0  0  0  0  0
    3.8122    0.7214   -2.4794 H   0  0  0  0  0  0  0  0  0  0  0  0
    4.5590   -1.3750   -3.3902 H   0  0  0  0  0  0  0  0  0  0  0  0
    3.0983   -3.1549   -4.0625 H   0  0  0  0  0  0  0  0  0  0  0  0
    0.6140   -2.8281   -3.8039 H   0  0  0  0  0  0  0  0  0  0  0  0
   -0.2257   -0.7635   -2.9058 H   0  0  0  0  0  0  0  0  0  0  0  0
    4.7985    3.9049    1.5778 H   0  0  0  0  0  0  0  0  0  0  0  0
    5.6115    3.0194    2.8762 H   0  0  0  0  0  0  0  0  0  0  0  0
    4.0084    3.7164    4.1714 H   0  0  0  0  0  0  0  0  0  0  0  0
    5.7008   -2.8204    0.7263 H   0  0  0  0  0  0  0  0  0  0  0  0
    7.3108   -2.1245    0.9239 H   0  0  0  0  0  0  0  0  0  0  0  0
    7.4618   -2.5627   -3.0512 H   0  0  0  0  0  0  0  0  0  0  0  0
    9.6150    2.8209    1.6289 H   0  0  0  0  0  0  0  0  0  0  0  0
    8.2349    3.6502    1.0923 H   0  0  0  0  0  0  0  0  0  0  0  0
  1  2  1  0
  2  3  1  0
  3  4  1  0
  4  5  1  0
  5  6  1  0
  6  7  1  0
  7  8  2  0
  7  9  1  0
  9 10  1  0
 10 11  1  0
 11 12  2  0
 11 13  1  0
 13 14  1  0
 14 15  1  0
 15 16  2  0
 15 17  1  0
 17 18  1  0
 18 19  1  0
 19 20  2  0
 19 21  1  0
 21 22  1  0
 22 23  1  0
 23 24  2  0
 23 25  1  0
 25 26  1  0
 26 27  1  0
 27 28  2  0
 27 29  1  0
 29 30  1  0
 30 31  1  0
 31 32  2  0
 31 33  1  0
 33 34  1  0
 34 35  1  0
 35 36  2  0
 35 37  1  0
 34 38  1  0
 38 39  1  0
 39 40  1  0
 40 41  1  0
 30 42  1  0
 42 43  1  0
 43 44  1  0
 43 45  1  0
 22 46  1  0
 46 47  1  0
 47 48  2  0
 48 49  1  0
 49 50  2  0
 50 51  1  0
 51 52  2  0
 18 53  1  0
 53 54  1  0
 54 55  2  0
 55 56  1  0
 56 57  2  0
 57 58  1  0
 58 59  2  0
 14 60  1  0
 60 61  1  0
 10 62  1  0
 62 63  1  0
 63 64  2  0
 63 65  1  0
  6 66  1  0
 52 47  1  0
 59 54  1  0
  1 67  1  0
  1 68  1  0
  2 69  1  0
  2 70  1  0
  3 71  1  0
  3 72  1  0
  4 73  1  0
  4 74  1  0
  5 75  1  0
  5 76  1  0
  6 77  1  6
  9 78  1  0
 10 79  1  6
 13 80  1  0
 14 81  1  1
 17 82  1  0
 18 83  1  6
 21 84  1  0
 22 85  1  6
 25 86  1  0
 26 87  1  0
 26 88  1  0
 29 89  1  0
 30 90  1  6
 33 91  1  0
 34 92  1  6
 37 93  1  0
 37 94  1  0
 38 95  1  0
 38 96  1  0
 39 97  1  0
 39 98  1  0
 41 99  1  0
 41100  1  0
 41101  1  0
 42102  1  0
 42103  1  0
 43104  1  0
 44105  1  0
 44106  1  0
 44107  1  0
 45108  1  0
 45109  1  0
 45110  1  0
 46111  1  0
 46112  1  0
 48113  1  0
 49114  1  0
 50115  1  0
 51116  1  0
 52117  1  0
 53118  1  0
 53119  1  0
 55120  1  0
 56121  1  0
 57122  1  0
 58123  1  0
 59124  1  0
 60125  1  0
 60126  1  0
 61127  1  0
 62128  1  0
 62129  1  0
 65130  1  0
 66131  1  0
 66132  1  0
M  END
>  <Ligand ID>  (1) 
LIG0003444

>  <Ligand>  (1) 
CHEMBL134481

>  <SMILES>  (1) 
NCCCC[C@@H](C(=O)N[C@H](C(=O)N[C@H](C(=O)N[C@H](C(=O)N[C@H](C(=O)NCC(=O)N[C@H](C(=O)N[C@H](C(=O)N)CCSC)CC(C)C)Cc1ccccc1)Cc1ccccc1)CO)CC(=O)O)N

>  <CID>  (1) 
10102362.0

>  <ChEMBL ID>  (1) 
nan

>  <InChiKey>  (1) 
NQIPNEISCKYLGD-POFDKVPJSA-N

>  <InChi>  (1) 
InChI=1S/C44H66N10O11S/c1-26(2)20-31(41(62)50-30(38(47)59)17-19-66-3)49-36(56)24-48-40(61)32(21-27-12-6-4-7-13-27)52-42(63)33(22-28-14-8-5-9-15-28)53-44(65)35(25-55)54-43(64)34(23-37(57)58)51-39(60)29(46)16-10-11-18-45/h4-9,12-15,26,29-35,55H,10-11,16-25,45-46H2,1-3H3,(H2,47,59)(H,48,61)(H,49,56)(H,50,62)(H,51,60)(H,52,63)(H,53,65)(H,54,64)(H,57,58)/t29-,30-,31-,32-,33-,34-,35-/m0/s1

>  <IUPAC Name>  (1) 
(3S)-4-[[(2S)-1-[[(2S)-1-[[(2S)-1-[[2-[[(2S)-1-[[(2S)-1-amino-4-methylsulfanyl-1-oxobutan-2-yl]amino]-4-methyl-1-oxopentan-2-yl]amino]-2-oxoethyl]amino]-1-oxo-3-phenylpropan-2-yl]amino]-1-oxo-3-phenylpropan-2-yl]amino]-3-hydroxy-1-oxopropan-2-yl]amino]-3-[[(2S)-2,6-diaminohexanoyl]amino]-4-oxobutanoic acid

$$$$
