
     RDKit          3D

 60 64  0  0  0  0  0  0  0  0999 V2000
    7.5199    3.8932   -0.2418 Cl  0  0  0  0  0  0  0  0  0  0  0  0
    6.2152    2.7515   -0.2915 C   0  0  0  0  0  0  0  0  0  0  0  0
    6.2868    1.5211    0.3206 C   0  0  0  0  0  0  0  0  0  0  0  0
    5.2601    0.5995    0.2924 C   0  0  0  0  0  0  0  0  0  0  0  0
    4.1119    0.9469   -0.3884 C   0  0  0  0  0  0  0  0  0  0  0  0
    4.0345    2.1862   -1.0072 C   0  0  0  0  0  0  0  0  0  0  0  0
    5.0589    3.1044   -0.9785 C   0  0  0  0  0  0  0  0  0  0  0  0
    2.9383    0.0388   -0.4890 C   0  0  0  0  0  0  0  0  0  0  0  0
    1.9760    0.2250    0.5917 C   0  0  0  0  0  0  0  0  0  0  0  0
    2.3861    0.1225    1.9089 C   0  0  0  0  0  0  0  0  0  0  0  0
    1.5141    0.2772    2.9757 C   0  0  0  0  0  0  0  0  0  0  0  0
    0.1983    0.5424    2.6759 C   0  0  0  0  0  0  0  0  0  0  0  0
   -0.2800    0.6584    1.3899 C   0  0  0  0  0  0  0  0  0  0  0  0
    0.6237    0.4964    0.3666 C   0  0  0  0  0  0  0  0  0  0  0  0
   -1.6264    0.9286    1.1313 C   0  0  0  0  0  0  0  0  0  0  0  0
   -2.4086    1.0647    2.2122 N   0  0  0  0  0  0  0  0  0  0  0  0
   -1.9424    0.9517    3.4616 C   0  0  0  0  0  0  0  0  0  0  0  0
   -0.6463    0.6917    3.7109 N   0  0  0  0  0  0  0  0  0  0  0  0
   -2.1228    1.0867   -0.1931 N   0  0  0  0  0  0  0  0  0  0  0  0
   -3.5011    1.3436   -0.5173 C   0  0  1  0  0  0  0  0  0  0  0  0
   -4.3931    0.1814   -0.5372 C   0  0  0  0  0  0  0  0  0  0  0  0
   -4.3544   -0.9021    0.2927 C   0  0  0  0  0  0  0  0  0  0  0  0
   -5.2763   -1.9501    0.1847 C   0  0  0  0  0  0  0  0  0  0  0  0
   -6.2716   -1.9388   -0.7690 C   0  0  0  0  0  0  0  0  0  0  0  0
   -6.3157   -0.8478   -1.6103 C   0  0  0  0  0  0  0  0  0  0  0  0
   -5.4070    0.1784   -1.4985 C   0  0  0  0  0  0  0  0  0  0  0  0
   -7.3694   -0.7544   -2.6801 C   0  0  0  0  0  0  0  0  0  0  0  0
   -8.1760    0.3197   -2.3145 F   0  0  0  0  0  0  0  0  0  0  0  0
   -6.8480   -0.4983   -3.9159 F   0  0  0  0  0  0  0  0  0  0  0  0
   -8.1582   -1.8668   -2.6209 F   0  0  0  0  0  0  0  0  0  0  0  0
   -4.0470    2.2804    0.5730 C   0  0  0  0  0  0  0  0  0  0  0  0
    3.4217   -1.3337   -0.7021 C   0  0  0  0  0  0  0  0  0  0  0  0
    3.9133   -1.6607   -1.9702 C   0  0  0  0  0  0  0  0  0  0  0  0
    4.3808   -2.9231   -2.2689 C   0  0  0  0  0  0  0  0  0  0  0  0
    4.3881   -3.9366   -1.3256 C   0  0  0  0  0  0  0  0  0  0  0  0
    3.9017   -3.6100   -0.0742 C   0  0  0  0  0  0  0  0  0  0  0  0
    3.4304   -2.3368    0.2259 C   0  0  0  0  0  0  0  0  0  0  0  0
    4.9806   -5.5179   -1.7209 Cl  0  0  0  0  0  0  0  0  0  0  0  0
    7.1745    1.2465    0.8497 H   0  0  0  0  0  0  0  0  0  0  0  0
    5.3427   -0.3543    0.7788 H   0  0  0  0  0  0  0  0  0  0  0  0
    3.1198    2.4464   -1.5417 H   0  0  0  0  0  0  0  0  0  0  0  0
    4.9913    4.0754   -1.4663 H   0  0  0  0  0  0  0  0  0  0  0  0
    2.3773    0.2973   -1.4452 H   0  0  0  0  0  0  0  0  0  0  0  0
    3.4237   -0.0761    2.1914 H   0  0  0  0  0  0  0  0  0  0  0  0
    1.8580    0.1922    3.9973 H   0  0  0  0  0  0  0  0  0  0  0  0
    0.3444    0.5677   -0.6728 H   0  0  0  0  0  0  0  0  0  0  0  0
   -2.6460    1.0766    4.2851 H   0  0  0  0  0  0  0  0  0  0  0  0
   -1.4758    1.0213   -1.0290 H   0  0  0  0  0  0  0  0  0  0  0  0
   -3.5931    1.8998   -1.4868 H   0  0  0  0  0  0  0  0  0  0  0  0
   -3.6193   -1.0062    1.0510 H   0  0  0  0  0  0  0  0  0  0  0  0
   -5.2299   -2.7957    0.8484 H   0  0  0  0  0  0  0  0  0  0  0  0
   -6.9796   -2.7461   -0.8500 H   0  0  0  0  0  0  0  0  0  0  0  0
   -5.4926    1.0227   -2.1984 H   0  0  0  0  0  0  0  0  0  0  0  0
   -3.2617    2.9154    0.9964 H   0  0  0  0  0  0  0  0  0  0  0  0
   -4.8546    2.8779    0.0981 H   0  0  0  0  0  0  0  0  0  0  0  0
   -4.5371    1.6638    1.3552 H   0  0  0  0  0  0  0  0  0  0  0  0
    3.9340   -0.8996   -2.7631 H   0  0  0  0  0  0  0  0  0  0  0  0
    4.7582   -3.1709   -3.2458 H   0  0  0  0  0  0  0  0  0  0  0  0
    3.8991   -4.3937    0.6820 H   0  0  0  0  0  0  0  0  0  0  0  0
    3.0706   -2.1733    1.2060 H   0  0  0  0  0  0  0  0  0  0  0  0
  1  2  1  0
  2  3  2  0
  3  4  1  0
  4  5  2  0
  5  6  1  0
  6  7  2  0
  5  8  1  0
  8  9  1  0
  9 10  2  0
 10 11  1  0
 11 12  2  0
 12 13  1  0
 13 14  2  0
 13 15  1  0
 15 16  2  0
 16 17  1  0
 17 18  2  0
 15 19  1  0
 19 20  1  0
 20 21  1  0
 21 22  2  0
 22 23  1  0
 23 24  2  0
 24 25  1  0
 25 26  2  0
 25 27  1  0
 27 28  1  0
 27 29  1  0
 27 30  1  0
 20 31  1  0
  8 32  1  0
 32 33  2  0
 33 34  1  0
 34 35  2  0
 35 36  1  0
 36 37  2  0
 35 38  1  0
  7  2  1  0
 14  9  1  0
 26 21  1  0
 37 32  1  0
 18 12  1  0
  3 39  1  0
  4 40  1  0
  6 41  1  0
  7 42  1  0
  8 43  1  0
 10 44  1  0
 11 45  1  0
 14 46  1  0
 17 47  1  0
 19 48  1  0
 20 49  1  6
 22 50  1  0
 23 51  1  0
 24 52  1  0
 26 53  1  0
 31 54  1  0
 31 55  1  0
 31 56  1  0
 33 57  1  0
 34 58  1  0
 36 59  1  0
 37 60  1  0
M  END
>  <Ligand ID>  (1) 
LIG0005402

>  <Ligand>  (1) 
SCHEMBL17557657

>  <SMILES>  (1) 
Clc1ccc(cc1)C(c1ccc2c(c1)c(ncn2)N[C@@H](c1cccc(c1)C(F)(F)F)C)c1ccc(cc1)Cl

>  <CID>  (1) 
118916140.0

>  <ChEMBL ID>  (1) 
nan

>  <InChiKey>  (1) 
NHOYNTKXPWSTFS-GOSISDBHSA-N

>  <InChi>  (1) 
InChI=1S/C30H22Cl2F3N3/c1-18(21-3-2-4-23(15-21)30(33,34)35)38-29-26-16-22(9-14-27(26)36-17-37-29)28(19-5-10-24(31)11-6-19)20-7-12-25(32)13-8-20/h2-18,28H,1H3,(H,36,37,38)/t18-/m1/s1

>  <IUPAC Name>  (1) 
6-[bis(4-chlorophenyl)methyl]-N-[(1R)-1-[3-(trifluoromethyl)phenyl]ethyl]quinazolin-4-amine

$$$$
