
     RDKit          3D

118121  0  0  0  0  0  0  0  0999 V2000
   -5.4809   -2.8982   -1.8790 C   0  0  0  0  0  0  0  0  0  0  0  0
   -4.2437   -3.5684   -1.3277 C   0  0  0  0  0  0  0  0  0  0  0  0
   -3.1456   -3.6488   -2.3034 C   0  0  0  0  0  0  0  0  0  0  0  0
   -2.4899   -2.4498   -2.8280 C   0  0  0  0  0  0  0  0  0  0  0  0
   -1.7498   -1.5553   -1.8803 C   0  0  1  0  0  0  0  0  0  0  0  0
   -2.4602   -0.8666   -0.8348 C   0  0  0  0  0  0  0  0  0  0  0  0
   -2.3500   -0.9766    0.4031 O   0  0  0  0  0  0  0  0  0  0  0  0
   -3.4562    0.1212   -1.2539 N   0  0  0  0  0  0  0  0  0  0  0  0
   -4.2010    0.8790   -0.2421 C   0  0  2  0  0  0  0  0  0  0  0  0
   -5.6394    0.7564   -0.5539 C   0  0  0  0  0  0  0  0  0  0  0  0
   -6.1278    0.1593   -1.5259 O   0  0  0  0  0  0  0  0  0  0  0  0
   -6.6015    1.3795    0.3423 N   0  0  0  0  0  0  0  0  0  0  0  0
   -8.0087    1.2131    0.0106 C   0  0  2  0  0  0  0  0  0  0  0  0
   -8.5563    2.4566   -0.6113 C   0  0  0  0  0  0  0  0  0  0  0  0
   -7.8962    3.4968   -0.7801 O   0  0  0  0  0  0  0  0  0  0  0  0
   -9.9032    2.4375   -1.0290 N   0  0  0  0  0  0  0  0  0  0  0  0
   -8.7510    0.8453    1.2577 C   0  0  0  0  0  0  0  0  0  0  0  0
   -8.7026    1.8249    2.3411 C   0  0  0  0  0  0  0  0  0  0  0  0
   -7.6987    1.7662    3.2788 C   0  0  0  0  0  0  0  0  0  0  0  0
   -7.6227    2.6918    4.3495 C   0  0  0  0  0  0  0  0  0  0  0  0
   -8.6103    3.6351    4.3811 C   0  0  0  0  0  0  0  0  0  0  0  0
   -9.6341    3.7513    3.4855 C   0  0  0  0  0  0  0  0  0  0  0  0
   -9.6518    2.8111    2.4563 C   0  0  0  0  0  0  0  0  0  0  0  0
   -3.7641    2.3415   -0.2675 C   0  0  0  0  0  0  0  0  0  0  0  0
   -3.9997    2.9857   -1.5583 C   0  0  0  0  0  0  0  0  0  0  0  0
   -4.5130    2.4404   -2.5666 O   0  0  0  0  0  0  0  0  0  0  0  0
   -3.6210    4.3357   -1.6896 O   0  0  0  0  0  0  0  0  0  0  0  0
   -0.6644   -2.4399   -1.3546 N   0  0  0  0  0  0  0  0  0  0  0  0
    0.6775   -2.0541   -1.2395 C   0  0  0  0  0  0  0  0  0  0  0  0
    0.9102   -0.8290   -1.5817 O   0  0  0  0  0  0  0  0  0  0  0  0
    1.8056   -2.8278   -0.8162 C   0  0  2  0  0  0  0  0  0  0  0  0
    1.8016   -3.5038    0.4914 C   0  0  0  0  0  0  0  0  0  0  0  0
    0.8026   -4.5348    0.7874 C   0  0  0  0  0  0  0  0  0  0  0  0
    0.9975   -5.8707    0.4224 C   0  0  0  0  0  0  0  0  0  0  0  0
   -0.0913   -6.5976    0.7583 N   0  0  0  0  0  0  0  0  0  0  0  0
   -0.9983   -5.7817    1.3343 C   0  0  0  0  0  0  0  0  0  0  0  0
   -0.4448   -4.5190    1.3500 C   0  0  0  0  0  0  0  0  0  0  0  0
   -1.1541   -3.4912    1.8973 C   0  0  0  0  0  0  0  0  0  0  0  0
   -2.4305   -3.7455    2.4279 C   0  0  0  0  0  0  0  0  0  0  0  0
   -2.9556   -5.0320    2.3920 C   0  0  0  0  0  0  0  0  0  0  0  0
   -2.2319   -6.0950    1.8323 C   0  0  0  0  0  0  0  0  0  0  0  0
    3.1017   -2.0913   -0.8902 N   0  0  0  0  0  0  0  0  0  0  0  0
    4.0638   -2.4137   -1.8720 C   0  0  0  0  0  0  0  0  0  0  0  0
    3.7196   -3.3451   -2.6931 O   0  0  0  0  0  0  0  0  0  0  0  0
    5.3844   -1.8513   -2.0844 C   0  0  0  0  0  0  0  0  0  0  0  0
    5.8741   -0.8601   -1.1917 N   0  0  0  0  0  0  0  0  0  0  0  0
    5.9906   -1.2184    0.1976 C   0  0  0  0  0  0  0  0  0  0  0  0
    5.6419   -2.3808    0.6021 O   0  0  0  0  0  0  0  0  0  0  0  0
    6.5066   -0.2988    1.2334 C   0  0  2  0  0  0  0  0  0  0  0  0
    7.1186    0.8332    0.5872 N   0  0  0  0  0  0  0  0  0  0  0  0
    6.7233    2.1820    0.7011 C   0  0  0  0  0  0  0  0  0  0  0  0
    5.7625    2.5873    1.3882 O   0  0  0  0  0  0  0  0  0  0  0  0
    7.5591    3.1732   -0.0848 C   0  0  2  0  0  0  0  0  0  0  0  0
    8.9748    3.1248    0.4835 C   0  0  0  0  0  0  0  0  0  0  0  0
    9.8125    4.0764   -0.2710 C   0  0  0  0  0  0  0  0  0  0  0  0
    9.9958    5.3953    0.0487 C   0  0  0  0  0  0  0  0  0  0  0  0
   10.7950    6.2512   -0.6764 C   0  0  0  0  0  0  0  0  0  0  0  0
   11.4647    5.7620   -1.8069 C   0  0  0  0  0  0  0  0  0  0  0  0
   11.2903    4.4383   -2.1411 C   0  0  0  0  0  0  0  0  0  0  0  0
   10.4796    3.5937   -1.3951 C   0  0  0  0  0  0  0  0  0  0  0  0
   12.2756    6.5845   -2.5618 O   0  0  0  0  0  0  0  0  0  0  0  0
    7.0078    4.4840    0.1869 N   0  0  0  0  0  0  0  0  0  0  0  0
    7.5161   -1.0284    2.1252 C   0  0  0  0  0  0  0  0  0  0  0  0
   -5.2484   -2.1671   -2.6619 H   0  0  0  0  0  0  0  0  0  0  0  0
   -6.1237   -3.7311   -2.3080 H   0  0  0  0  0  0  0  0  0  0  0  0
   -6.1032   -2.5142   -1.0413 H   0  0  0  0  0  0  0  0  0  0  0  0
   -3.9913   -2.9518   -0.4104 H   0  0  0  0  0  0  0  0  0  0  0  0
   -4.5746   -4.5898   -0.9588 H   0  0  0  0  0  0  0  0  0  0  0  0
   -2.3842   -4.4669   -2.0199 H   0  0  0  0  0  0  0  0  0  0  0  0
   -3.5990   -4.1605   -3.2263 H   0  0  0  0  0  0  0  0  0  0  0  0
   -3.2638   -1.8938   -3.4403 H   0  0  0  0  0  0  0  0  0  0  0  0
   -1.7511   -2.7829   -3.6114 H   0  0  0  0  0  0  0  0  0  0  0  0
   -1.2070   -0.7943   -2.4715 H   0  0  0  0  0  0  0  0  0  0  0  0
   -3.6263    0.2722   -2.2889 H   0  0  0  0  0  0  0  0  0  0  0  0
   -3.9512    0.5024    0.7416 H   0  0  0  0  0  0  0  0  0  0  0  0
   -6.2740    1.9132    1.1675 H   0  0  0  0  0  0  0  0  0  0  0  0
   -8.0942    0.4414   -0.7770 H   0  0  0  0  0  0  0  0  0  0  0  0
  -10.2047    2.8950   -1.9411 H   0  0  0  0  0  0  0  0  0  0  0  0
  -10.6799    1.9883   -0.5016 H   0  0  0  0  0  0  0  0  0  0  0  0
   -9.8262    0.6576    0.9701 H   0  0  0  0  0  0  0  0  0  0  0  0
   -8.4027   -0.1553    1.6516 H   0  0  0  0  0  0  0  0  0  0  0  0
   -6.9067    1.0314    3.2851 H   0  0  0  0  0  0  0  0  0  0  0  0
   -6.8159    2.6100    5.0641 H   0  0  0  0  0  0  0  0  0  0  0  0
   -8.5932    4.3760    5.1957 H   0  0  0  0  0  0  0  0  0  0  0  0
  -10.4128    4.4706    3.4802 H   0  0  0  0  0  0  0  0  0  0  0  0
  -10.4293    2.8381    1.7111 H   0  0  0  0  0  0  0  0  0  0  0  0
   -4.3112    2.8109    0.5769 H   0  0  0  0  0  0  0  0  0  0  0  0
   -2.6839    2.4147   -0.0178 H   0  0  0  0  0  0  0  0  0  0  0  0
   -4.1806    4.9409   -2.3131 H   0  0  0  0  0  0  0  0  0  0  0  0
   -0.9371   -3.3986   -1.0839 H   0  0  0  0  0  0  0  0  0  0  0  0
    1.9592   -3.7143   -1.5715 H   0  0  0  0  0  0  0  0  0  0  0  0
    2.8273   -3.9192    0.7511 H   0  0  0  0  0  0  0  0  0  0  0  0
    1.6569   -2.7297    1.3385 H   0  0  0  0  0  0  0  0  0  0  0  0
    1.8797   -6.3034   -0.0598 H   0  0  0  0  0  0  0  0  0  0  0  0
   -0.1486   -7.6319    0.5694 H   0  0  0  0  0  0  0  0  0  0  0  0
   -0.7146   -2.5076    1.9156 H   0  0  0  0  0  0  0  0  0  0  0  0
   -3.0077   -2.9221    2.8701 H   0  0  0  0  0  0  0  0  0  0  0  0
   -3.9549   -5.2222    2.8064 H   0  0  0  0  0  0  0  0  0  0  0  0
   -2.6069   -7.0951    1.7874 H   0  0  0  0  0  0  0  0  0  0  0  0
    3.3233   -1.3262   -0.2325 H   0  0  0  0  0  0  0  0  0  0  0  0
    5.5443   -1.5119   -3.1457 H   0  0  0  0  0  0  0  0  0  0  0  0
    6.1202   -2.7211   -2.0009 H   0  0  0  0  0  0  0  0  0  0  0  0
    6.1620    0.1105   -1.4271 H   0  0  0  0  0  0  0  0  0  0  0  0
    5.6304    0.0548    1.8343 H   0  0  0  0  0  0  0  0  0  0  0  0
    7.9500    0.6054   -0.0341 H   0  0  0  0  0  0  0  0  0  0  0  0
    7.5294    2.9852   -1.1622 H   0  0  0  0  0  0  0  0  0  0  0  0
    9.3614    2.0745    0.3885 H   0  0  0  0  0  0  0  0  0  0  0  0
    8.9239    3.4045    1.5620 H   0  0  0  0  0  0  0  0  0  0  0  0
    9.4882    5.7759    0.9146 H   0  0  0  0  0  0  0  0  0  0  0  0
   10.9266    7.3055   -0.4037 H   0  0  0  0  0  0  0  0  0  0  0  0
   11.8308    4.0963   -3.0229 H   0  0  0  0  0  0  0  0  0  0  0  0
   10.4053    2.5775   -1.7351 H   0  0  0  0  0  0  0  0  0  0  0  0
   13.2730    6.4485   -2.6979 H   0  0  0  0  0  0  0  0  0  0  0  0
    6.3058    4.7546   -0.5408 H   0  0  0  0  0  0  0  0  0  0  0  0
    6.5199    4.5150    1.1047 H   0  0  0  0  0  0  0  0  0  0  0  0
    8.5228   -0.5865    2.0828 H   0  0  0  0  0  0  0  0  0  0  0  0
    7.0917   -1.0186    3.1592 H   0  0  0  0  0  0  0  0  0  0  0  0
    7.5738   -2.0952    1.8359 H   0  0  0  0  0  0  0  0  0  0  0  0
  1  2  1  0
  2  3  1  0
  3  4  1  0
  4  5  1  0
  5  6  1  0
  6  7  2  0
  6  8  1  0
  8  9  1  0
  9 10  1  0
 10 11  2  0
 10 12  1  0
 12 13  1  0
 13 14  1  0
 14 15  2  0
 14 16  1  0
 13 17  1  0
 17 18  1  0
 18 19  2  0
 19 20  1  0
 20 21  2  0
 21 22  1  0
 22 23  2  0
  9 24  1  0
 24 25  1  0
 25 26  2  0
 25 27  1  0
  5 28  1  0
 28 29  1  0
 29 30  2  0
 29 31  1  0
 31 32  1  0
 32 33  1  0
 33 34  2  0
 34 35  1  0
 35 36  1  0
 36 37  2  0
 37 38  1  0
 38 39  2  0
 39 40  1  0
 40 41  2  0
 31 42  1  0
 42 43  1  0
 43 44  2  0
 43 45  1  0
 45 46  1  0
 46 47  1  0
 47 48  2  0
 47 49  1  0
 49 50  1  0
 50 51  1  0
 51 52  2  0
 51 53  1  0
 53 54  1  0
 54 55  1  0
 55 56  2  0
 56 57  1  0
 57 58  2  0
 58 59  1  0
 59 60  2  0
 58 61  1  0
 53 62  1  0
 49 63  1  0
 23 18  1  0
 37 33  1  0
 60 55  1  0
 41 36  1  0
  1 64  1  0
  1 65  1  0
  1 66  1  0
  2 67  1  0
  2 68  1  0
  3 69  1  0
  3 70  1  0
  4 71  1  0
  4 72  1  0
  5 73  1  6
  8 74  1  0
  9 75  1  1
 12 76  1  0
 13 77  1  6
 16 78  1  0
 16 79  1  0
 17 80  1  0
 17 81  1  0
 19 82  1  0
 20 83  1  0
 21 84  1  0
 22 85  1  0
 23 86  1  0
 24 87  1  0
 24 88  1  0
 27 89  1  0
 28 90  1  0
 31 91  1  6
 32 92  1  0
 32 93  1  0
 34 94  1  0
 35 95  1  0
 38 96  1  0
 39 97  1  0
 40 98  1  0
 41 99  1  0
 42100  1  0
 45101  1  0
 45102  1  0
 46103  1  0
 49104  1  1
 50105  1  0
 53106  1  6
 54107  1  0
 54108  1  0
 56109  1  0
 57110  1  0
 59111  1  0
 60112  1  0
 61113  1  0
 62114  1  0
 62115  1  0
 63116  1  0
 63117  1  0
 63118  1  0
M  END
>  <Ligand ID>  (1) 
LIG0004152

>  <Ligand>  (1) 
Tyr-D-Ala-Gly-Trp-Nle-Asp-Phe-NH2

>  <SMILES>  (1) 
CCCC[C@@H](C(=O)N[C@H](C(=O)N[C@H](C(=O)N)Cc1ccccc1)CC(=O)O)NC(=O)[C@H](Cc1c[nH]c2c1cccc2)NC(=O)CNC(=O)[C@H](NC(=O)[C@H](Cc1ccc(cc1)O)N)C

>  <CID>  (1) 
10909103.0

>  <ChEMBL ID>  (1) 
nan

>  <InChiKey>  (1) 
LTNSZIYAGMZDDY-QMXRFRSXSA-N

>  <InChi>  (1) 
InChI=1S/C44H55N9O10/c1-3-4-13-33(42(61)53-36(22-38(56)57)44(63)52-34(39(46)58)20-26-10-6-5-7-11-26)51-43(62)35(21-28-23-47-32-14-9-8-12-30(28)32)50-37(55)24-48-40(59)25(2)49-41(60)31(45)19-27-15-17-29(54)18-16-27/h5-12,14-18,23,25,31,33-36,47,54H,3-4,13,19-22,24,45H2,1-2H3,(H2,46,58)(H,48,59)(H,49,60)(H,50,55)(H,51,62)(H,52,63)(H,53,61)(H,56,57)/t25-,31+,33+,34+,35+,36+/m1/s1

>  <IUPAC Name>  (1) 
(3S)-3-[[(2S)-2-[[(2S)-2-[[2-[[(2R)-2-[[(2S)-2-amino-3-(4-hydroxyphenyl)propanoyl]amino]propanoyl]amino]acetyl]amino]-3-(1H-indol-3-yl)propanoyl]amino]hexanoyl]amino]-4-[[(2S)-1-amino-1-oxo-3-phenylpropan-2-yl]amino]-4-oxobutanoic acid

$$$$
