
     RDKit          3D

 55 57  0  0  0  0  0  0  0  0999 V2000
   -1.9199   -2.1283    0.5302 C   0  0  0  0  0  0  0  0  0  0  0  0
   -2.2272   -1.9426   -0.8947 C   0  0  2  0  0  0  0  0  0  0  0  0
   -1.0359   -2.2359   -1.8173 C   0  0  0  0  0  0  0  0  0  0  0  0
    0.1171   -1.4503   -1.6237 N   0  0  0  0  0  0  0  0  0  0  0  0
    1.1936   -1.6641   -0.7354 C   0  0  0  0  0  0  0  0  0  0  0  0
    1.3386   -2.7552    0.0861 C   0  0  0  0  0  0  0  0  0  0  0  0
    2.3850   -2.9507    0.9533 C   0  0  0  0  0  0  0  0  0  0  0  0
    3.3854   -1.9764    1.0165 C   0  0  0  0  0  0  0  0  0  0  0  0
    3.2862   -0.8607    0.2103 C   0  0  0  0  0  0  0  0  0  0  0  0
    2.2166   -0.7080   -0.6446 C   0  0  0  0  0  0  0  0  0  0  0  0
    4.3088    0.1892    0.2318 C   0  0  0  0  0  0  0  0  0  0  0  0
    3.9333    1.4952   -0.0256 C   0  0  0  0  0  0  0  0  0  0  0  0
    4.8670    2.5105   -0.0191 C   0  0  0  0  0  0  0  0  0  0  0  0
    6.1947    2.2137    0.2493 C   0  0  0  0  0  0  0  0  0  0  0  0
    6.6122    0.9139    0.5130 C   0  0  0  0  0  0  0  0  0  0  0  0
    5.6365   -0.0625    0.4933 C   0  0  0  0  0  0  0  0  0  0  0  0
    7.1345    3.3270    0.2425 C   0  0  0  0  0  0  0  0  0  0  0  0
    6.7140    4.4867    0.0011 O   0  0  0  0  0  0  0  0  0  0  0  0
    8.4939    3.1702    0.4931 O   0  0  0  0  0  0  0  0  0  0  0  0
   -2.9824   -0.8625   -1.3560 N   0  0  0  0  0  0  0  0  0  0  0  0
   -2.7313    0.4744   -1.1704 C   0  0  0  0  0  0  0  0  0  0  0  0
   -2.9695    1.1456    0.1511 C   0  0  1  0  0  0  0  0  0  0  0  0
   -4.4467    1.2900    0.4227 C   0  0  0  0  0  0  0  0  0  0  0  0
   -5.1985    0.2847    0.9710 C   0  0  0  0  0  0  0  0  0  0  0  0
   -6.5650    0.4084    1.2238 C   0  0  0  0  0  0  0  0  0  0  0  0
   -7.1375    1.6112    0.8913 C   0  0  0  0  0  0  0  0  0  0  0  0
   -6.4278    2.6539    0.3383 C   0  0  0  0  0  0  0  0  0  0  0  0
   -5.0614    2.5082    0.0935 C   0  0  0  0  0  0  0  0  0  0  0  0
   -7.2445    4.1676   -0.0565 Cl  0  0  0  0  0  0  0  0  0  0  0  0
   -2.2942    0.6343    1.2269 O   0  0  0  0  0  0  0  0  0  0  0  0
   -1.0518   -1.6336    0.9515 H   0  0  0  0  0  0  0  0  0  0  0  0
   -2.8549   -2.0373    1.1430 H   0  0  0  0  0  0  0  0  0  0  0  0
   -1.6828   -3.2414    0.6593 H   0  0  0  0  0  0  0  0  0  0  0  0
   -2.8993   -2.8711   -1.1475 H   0  0  0  0  0  0  0  0  0  0  0  0
   -0.7358   -3.3181   -1.6995 H   0  0  0  0  0  0  0  0  0  0  0  0
   -1.4596   -2.1889   -2.8457 H   0  0  0  0  0  0  0  0  0  0  0  0
    0.1971   -0.5664   -2.2307 H   0  0  0  0  0  0  0  0  0  0  0  0
    0.5836   -3.5222    0.0491 H   0  0  0  0  0  0  0  0  0  0  0  0
    2.4367   -3.8414    1.5764 H   0  0  0  0  0  0  0  0  0  0  0  0
    4.2212   -2.1013    1.6894 H   0  0  0  0  0  0  0  0  0  0  0  0
    2.1819    0.1741   -1.2514 H   0  0  0  0  0  0  0  0  0  0  0  0
    2.9083    1.7862   -0.2415 H   0  0  0  0  0  0  0  0  0  0  0  0
    4.5451    3.5353   -0.2261 H   0  0  0  0  0  0  0  0  0  0  0  0
    7.6585    0.6927    0.7231 H   0  0  0  0  0  0  0  0  0  0  0  0
    5.9143   -1.0781    0.6919 H   0  0  0  0  0  0  0  0  0  0  0  0
    9.1678    3.9016    0.2185 H   0  0  0  0  0  0  0  0  0  0  0  0
   -3.5478   -1.1276   -2.1939 H   0  0  0  0  0  0  0  0  0  0  0  0
   -3.3692    1.0476   -1.9362 H   0  0  0  0  0  0  0  0  0  0  0  0
   -1.6972    0.8193   -1.4719 H   0  0  0  0  0  0  0  0  0  0  0  0
   -2.5533    2.2187    0.0590 H   0  0  0  0  0  0  0  0  0  0  0  0
   -4.7671   -0.6656    1.2384 H   0  0  0  0  0  0  0  0  0  0  0  0
   -7.1386   -0.4139    1.6622 H   0  0  0  0  0  0  0  0  0  0  0  0
   -8.2058    1.7591    1.0674 H   0  0  0  0  0  0  0  0  0  0  0  0
   -4.4903    3.3191   -0.3405 H   0  0  0  0  0  0  0  0  0  0  0  0
   -2.9363    0.2388    1.8595 H   0  0  0  0  0  0  0  0  0  0  0  0
  1  2  1  0
  2  3  1  0
  3  4  1  0
  4  5  1  0
  5  6  2  0
  6  7  1  0
  7  8  2  0
  8  9  1  0
  9 10  2  0
  9 11  1  0
 11 12  2  0
 12 13  1  0
 13 14  2  0
 14 15  1  0
 15 16  2  0
 14 17  1  0
 17 18  2  0
 17 19  1  0
  2 20  1  0
 20 21  1  0
 21 22  1  0
 22 23  1  0
 23 24  2  0
 24 25  1  0
 25 26  2  0
 26 27  1  0
 27 28  2  0
 27 29  1  0
 22 30  1  0
 10  5  1  0
 16 11  1  0
 28 23  1  0
  1 31  1  0
  1 32  1  0
  1 33  1  0
  2 34  1  6
  3 35  1  0
  3 36  1  0
  4 37  1  0
  6 38  1  0
  7 39  1  0
  8 40  1  0
 10 41  1  0
 12 42  1  0
 13 43  1  0
 15 44  1  0
 16 45  1  0
 19 46  1  0
 20 47  1  0
 21 48  1  0
 21 49  1  0
 22 50  1  6
 24 51  1  0
 25 52  1  0
 26 53  1  0
 28 54  1  0
 30 55  1  0
M  END
>  <Ligand ID>  (1) 
LIG0002256

>  <Ligand>  (1) 
CHEMBL383511

>  <SMILES>  (1) 
C[C@H](CNc1cccc(c1)c1ccc(cc1)C(=O)O)NC[C@@H](c1cccc(c1)Cl)O

>  <CID>  (1) 
11546349.0

>  <ChEMBL ID>  (1) 
nan

>  <InChiKey>  (1) 
BGFUXHUMITWARX-MWTRTKDXSA-N

>  <InChi>  (1) 
InChI=1S/C24H25ClN2O3/c1-16(26-15-23(28)20-5-2-6-21(25)12-20)14-27-22-7-3-4-19(13-22)17-8-10-18(11-9-17)24(29)30/h2-13,16,23,26-28H,14-15H2,1H3,(H,29,30)/t16-,23+/m1/s1

>  <IUPAC Name>  (1) 
4-[3-[[(2R)-2-[[(2R)-2-(3-chlorophenyl)-2-hydroxyethyl]amino]propyl]amino]phenyl]benzoic acid

$$$$
