
     RDKit          3D

 76 79  0  0  0  0  0  0  0  0999 V2000
    4.2903   -0.4562    1.0704 O   0  0  0  0  0  0  0  0  0  0  0  0
    3.6377   -0.5943   -0.0215 C   0  0  0  0  0  0  0  0  0  0  0  0
    2.5505    0.3045   -0.3391 N   0  0  0  0  0  0  0  0  0  0  0  0
    2.2016    1.3416    0.5573 C   0  0  2  0  0  0  0  0  0  0  0  0
    0.7978    1.3670    1.0260 C   0  0  0  0  0  0  0  0  0  0  0  0
    0.5193    2.3236    1.8386 O   0  0  0  0  0  0  0  0  0  0  0  0
   -0.2138    0.4571    0.6663 N   0  0  0  0  0  0  0  0  0  0  0  0
   -1.5228    0.6383    1.2451 C   0  0  2  0  0  0  0  0  0  0  0  0
   -1.7775   -0.4661    2.2332 C   0  0  0  0  0  0  0  0  0  0  0  0
   -0.9607   -1.4057    2.4112 O   0  0  0  0  0  0  0  0  0  0  0  0
   -3.0162   -0.3748    2.9583 N   0  0  0  0  0  0  0  0  0  0  0  0
   -3.4011   -1.3545    3.9225 C   0  0  0  0  0  0  0  0  0  0  0  0
   -3.5576   -2.7445    3.3285 C   0  0  0  0  0  0  0  0  0  0  0  0
   -4.6117   -2.7264    2.2668 C   0  0  0  0  0  0  0  0  0  0  0  0
   -4.3274   -2.4938    0.9381 C   0  0  0  0  0  0  0  0  0  0  0  0
   -5.3321   -2.4721   -0.0328 C   0  0  0  0  0  0  0  0  0  0  0  0
   -6.6368   -2.6853    0.3236 C   0  0  0  0  0  0  0  0  0  0  0  0
   -6.9384   -2.9207    1.6575 C   0  0  0  0  0  0  0  0  0  0  0  0
   -5.9325   -2.9366    2.5932 C   0  0  0  0  0  0  0  0  0  0  0  0
   -2.6527    0.7844    0.2946 C   0  0  0  0  0  0  0  0  0  0  0  0
   -2.5445    1.9288   -0.6254 C   0  0  0  0  0  0  0  0  0  0  0  0
   -3.1877    3.1562   -0.4070 C   0  0  0  0  0  0  0  0  0  0  0  0
   -2.8830    3.9954   -1.4107 N   0  0  0  0  0  0  0  0  0  0  0  0
   -2.0621    3.3715   -2.2877 C   0  0  0  0  0  0  0  0  0  0  0  0
   -1.8604    2.1039   -1.7963 C   0  0  0  0  0  0  0  0  0  0  0  0
   -1.0625    1.1990   -2.4858 C   0  0  0  0  0  0  0  0  0  0  0  0
   -0.5057    1.6531   -3.6627 C   0  0  0  0  0  0  0  0  0  0  0  0
   -0.7096    2.9252   -4.1536 C   0  0  0  0  0  0  0  0  0  0  0  0
   -1.4960    3.8212   -3.4765 C   0  0  0  0  0  0  0  0  0  0  0  0
    2.7049    2.7148    0.2851 C   0  0  0  0  0  0  0  0  0  0  0  0
    2.3550    3.3528   -0.9944 C   0  0  0  0  0  0  0  0  0  0  0  0
    2.9496    2.6777   -2.1609 C   0  0  0  0  0  0  0  0  0  0  0  0
    3.8772    1.8243   -2.0994 O   0  0  0  0  0  0  0  0  0  0  0  0
    2.4996    2.9603   -3.5074 N   0  0  0  0  0  0  0  0  0  0  0  0
    4.0268   -1.6935   -0.9445 C   0  0  0  0  0  0  0  0  0  0  0  0
    5.1896   -2.4108   -0.3604 C   0  0  0  0  0  0  0  0  0  0  0  0
    5.0825   -3.4614    0.5133 C   0  0  0  0  0  0  0  0  0  0  0  0
    6.2337   -4.0766    1.0076 C   0  0  0  0  0  0  0  0  0  0  0  0
    7.4942   -3.6493    0.6346 C   0  0  0  0  0  0  0  0  0  0  0  0
    7.5789   -2.5786   -0.2556 C   0  0  0  0  0  0  0  0  0  0  0  0
    6.4444   -1.9618   -0.7516 C   0  0  0  0  0  0  0  0  0  0  0  0
    8.9459   -4.4127    1.2468 Cl  0  0  0  0  0  0  0  0  0  0  0  0
    2.0304    0.1360   -1.2471 H   0  0  0  0  0  0  0  0  0  0  0  0
    2.7700    1.0639    1.5519 H   0  0  0  0  0  0  0  0  0  0  0  0
    0.0360   -0.3048    0.0013 H   0  0  0  0  0  0  0  0  0  0  0  0
   -1.4998    1.5504    1.8864 H   0  0  0  0  0  0  0  0  0  0  0  0
   -3.6562    0.4346    2.7766 H   0  0  0  0  0  0  0  0  0  0  0  0
   -2.6837   -1.4740    4.7587 H   0  0  0  0  0  0  0  0  0  0  0  0
   -4.3583   -1.0675    4.3978 H   0  0  0  0  0  0  0  0  0  0  0  0
   -2.5916   -3.0675    2.9419 H   0  0  0  0  0  0  0  0  0  0  0  0
   -3.8773   -3.4136    4.1291 H   0  0  0  0  0  0  0  0  0  0  0  0
   -3.2879   -2.3204    0.6177 H   0  0  0  0  0  0  0  0  0  0  0  0
   -5.0873   -2.2852   -1.0888 H   0  0  0  0  0  0  0  0  0  0  0  0
   -7.3997   -2.6641   -0.4454 H   0  0  0  0  0  0  0  0  0  0  0  0
   -7.9931   -3.0870    1.9094 H   0  0  0  0  0  0  0  0  0  0  0  0
   -6.1865   -3.1211    3.6266 H   0  0  0  0  0  0  0  0  0  0  0  0
   -3.6450    0.8431    0.7895 H   0  0  0  0  0  0  0  0  0  0  0  0
   -2.6561   -0.1495   -0.3562 H   0  0  0  0  0  0  0  0  0  0  0  0
   -3.8344    3.4217    0.4265 H   0  0  0  0  0  0  0  0  0  0  0  0
   -3.2191    4.9784   -1.5117 H   0  0  0  0  0  0  0  0  0  0  0  0
   -0.8845    0.1961   -2.1335 H   0  0  0  0  0  0  0  0  0  0  0  0
    0.1284    0.9624   -4.2312 H   0  0  0  0  0  0  0  0  0  0  0  0
   -0.2538    3.2475   -5.0860 H   0  0  0  0  0  0  0  0  0  0  0  0
   -1.7011    4.8269   -3.7946 H   0  0  0  0  0  0  0  0  0  0  0  0
    2.3807    3.3749    1.1282 H   0  0  0  0  0  0  0  0  0  0  0  0
    3.8230    2.6924    0.3601 H   0  0  0  0  0  0  0  0  0  0  0  0
    2.7889    4.3903   -0.9844 H   0  0  0  0  0  0  0  0  0  0  0  0
    1.2438    3.4370   -1.1485 H   0  0  0  0  0  0  0  0  0  0  0  0
    2.3591    2.1791   -4.1837 H   0  0  0  0  0  0  0  0  0  0  0  0
    2.3120    3.9385   -3.8140 H   0  0  0  0  0  0  0  0  0  0  0  0
    3.1835   -2.4375   -1.0454 H   0  0  0  0  0  0  0  0  0  0  0  0
    4.2492   -1.2778   -1.9459 H   0  0  0  0  0  0  0  0  0  0  0  0
    4.0928   -3.8045    0.8115 H   0  0  0  0  0  0  0  0  0  0  0  0
    6.1047   -4.9013    1.6945 H   0  0  0  0  0  0  0  0  0  0  0  0
    8.5517   -2.1938   -0.5912 H   0  0  0  0  0  0  0  0  0  0  0  0
    6.5744   -1.1286   -1.4454 H   0  0  0  0  0  0  0  0  0  0  0  0
  1  2  2  0
  2  3  1  0
  3  4  1  0
  4  5  1  0
  5  6  2  0
  5  7  1  0
  7  8  1  0
  8  9  1  0
  9 10  2  0
  9 11  1  0
 11 12  1  0
 12 13  1  0
 13 14  1  0
 14 15  2  0
 15 16  1  0
 16 17  2  0
 17 18  1  0
 18 19  2  0
  8 20  1  0
 20 21  1  0
 21 22  2  0
 22 23  1  0
 23 24  1  0
 24 25  2  0
 25 26  1  0
 26 27  2  0
 27 28  1  0
 28 29  2  0
  4 30  1  0
 30 31  1  0
 31 32  1  0
 32 33  2  0
 32 34  1  0
  2 35  1  0
 35 36  1  0
 36 37  2  0
 37 38  1  0
 38 39  2  0
 39 40  1  0
 40 41  2  0
 39 42  1  0
 19 14  1  0
 25 21  1  0
 41 36  1  0
 29 24  1  0
  3 43  1  0
  4 44  1  1
  7 45  1  0
  8 46  1  1
 11 47  1  0
 12 48  1  0
 12 49  1  0
 13 50  1  0
 13 51  1  0
 15 52  1  0
 16 53  1  0
 17 54  1  0
 18 55  1  0
 19 56  1  0
 20 57  1  0
 20 58  1  0
 22 59  1  0
 23 60  1  0
 26 61  1  0
 27 62  1  0
 28 63  1  0
 29 64  1  0
 30 65  1  0
 30 66  1  0
 31 67  1  0
 31 68  1  0
 34 69  1  0
 34 70  1  0
 35 71  1  0
 35 72  1  0
 37 73  1  0
 38 74  1  0
 40 75  1  0
 41 76  1  0
M  END
>  <Ligand ID>  (1) 
LIG0002681

>  <Ligand>  (1) 
CHEMBL3144498

>  <SMILES>  (1) 
O=C(N[C@H](C(=O)N[C@H](C(=O)NCCc1ccccc1)Cc1c[nH]c2c1cccc2)CCC(=O)N)Cc1ccc(cc1)Cl

>  <CID>  (1) 
90663965.0

>  <ChEMBL ID>  (1) 
nan

>  <InChiKey>  (1) 
QXYSJPMGIVOYKS-NSOVKSMOSA-N

>  <InChi>  (1) 
InChI=1S/C32H34ClN5O4/c33-24-12-10-22(11-13-24)18-30(40)37-27(14-15-29(34)39)32(42)38-28(19-23-20-36-26-9-5-4-8-25(23)26)31(41)35-17-16-21-6-2-1-3-7-21/h1-13,20,27-28,36H,14-19H2,(H2,34,39)(H,35,41)(H,37,40)(H,38,42)/t27-,28-/m0/s1

>  <IUPAC Name>  (1) 
(2S)-2-[[2-(4-chlorophenyl)acetyl]amino]-N-[(2S)-3-(1H-indol-3-yl)-1-oxo-1-(2-phenylethylamino)propan-2-yl]pentanediamide

$$$$
