
     RDKit          3D

 61 62  0  0  0  0  0  0  0  0999 V2000
    8.3673   -0.4588    0.6473 C   0  0  0  0  0  0  0  0  0  0  0  0
    8.3473   -1.0187   -0.7660 C   0  0  0  0  0  0  0  0  0  0  0  0
    6.8996   -1.3154   -1.1011 C   0  0  0  0  0  0  0  0  0  0  0  0
    6.1448    0.0071   -0.9994 C   0  0  0  0  0  0  0  0  0  0  0  0
    4.6889   -0.2731   -1.3329 C   0  0  0  0  0  0  0  0  0  0  0  0
    3.8956    0.9881   -1.2540 C   0  0  0  0  0  0  0  0  0  0  0  0
    3.9109    1.6124    0.0962 C   0  0  0  0  0  0  0  0  0  0  0  0
    3.3003    0.7198    1.1169 C   0  0  0  0  0  0  0  0  0  0  0  0
    1.8765    0.4050    0.8833 C   0  0  0  0  0  0  0  0  0  0  0  0
    0.9200    1.2720    1.4241 C   0  0  0  0  0  0  0  0  0  0  0  0
   -0.4327    1.0570    1.2624 C   0  0  0  0  0  0  0  0  0  0  0  0
   -0.9000   -0.0312    0.5546 C   0  0  0  0  0  0  0  0  0  0  0  0
    0.0292   -0.8964    0.0146 C   0  0  0  0  0  0  0  0  0  0  0  0
    1.3965   -0.6677    0.1855 C   0  0  0  0  0  0  0  0  0  0  0  0
   -2.3357   -0.2347    0.3987 C   0  0  0  0  0  0  0  0  0  0  0  0
   -2.9407   -1.2723   -0.2792 C   0  0  0  0  0  0  0  0  0  0  0  0
   -4.2597   -1.0523   -0.1607 N   0  0  0  0  0  0  0  0  0  0  0  0
   -4.4803    0.0815    0.5646 C   0  0  0  0  0  0  0  0  0  0  0  0
   -3.2744    0.5698    0.8998 N   0  0  0  0  0  0  0  0  0  0  0  0
   -5.8132    0.6447    0.9036 C   0  0  0  0  0  0  0  0  0  0  0  0
   -6.8652   -0.2567    0.3053 C   0  0  0  0  0  0  0  0  0  0  0  0
   -6.7497   -0.4098   -1.0631 O   0  0  0  0  0  0  0  0  0  0  0  0
   -7.9843   -1.4428   -1.6235 P   0  0  0  0  0  0  0  0  0  0  0  0
   -9.3179   -0.7768   -1.4047 O   0  0  0  0  0  0  0  0  0  0  0  0
   -7.9596   -2.8962   -0.7640 O   0  0  0  0  0  0  0  0  0  0  0  0
   -7.6861   -1.7217   -3.2601 O   0  0  0  0  0  0  0  0  0  0  0  0
   -5.9117    2.0563    0.3545 C   0  0  0  0  0  0  0  0  0  0  0  0
   -4.9266    2.8142    0.9924 O   0  0  0  0  0  0  0  0  0  0  0  0
   -6.0381    0.7238    2.3227 N   0  0  0  0  0  0  0  0  0  0  0  0
    8.1692    0.6291    0.6798 H   0  0  0  0  0  0  0  0  0  0  0  0
    7.6515   -1.0198    1.2859 H   0  0  0  0  0  0  0  0  0  0  0  0
    9.3890   -0.7056    1.0523 H   0  0  0  0  0  0  0  0  0  0  0  0
    8.7866   -0.2466   -1.4432 H   0  0  0  0  0  0  0  0  0  0  0  0
    8.9335   -1.9590   -0.7754 H   0  0  0  0  0  0  0  0  0  0  0  0
    6.5371   -2.0578   -0.3883 H   0  0  0  0  0  0  0  0  0  0  0  0
    6.7883   -1.7281   -2.1179 H   0  0  0  0  0  0  0  0  0  0  0  0
    6.6065    0.7140   -1.7188 H   0  0  0  0  0  0  0  0  0  0  0  0
    6.2403    0.4055    0.0157 H   0  0  0  0  0  0  0  0  0  0  0  0
    4.6224   -0.6846   -2.3616 H   0  0  0  0  0  0  0  0  0  0  0  0
    4.3238   -1.0418   -0.6515 H   0  0  0  0  0  0  0  0  0  0  0  0
    4.2545    1.7520   -1.9777 H   0  0  0  0  0  0  0  0  0  0  0  0
    2.8210    0.7231   -1.4708 H   0  0  0  0  0  0  0  0  0  0  0  0
    4.9262    1.8805    0.4653 H   0  0  0  0  0  0  0  0  0  0  0  0
    3.3495    2.5750    0.1127 H   0  0  0  0  0  0  0  0  0  0  0  0
    3.3751    1.2568    2.1022 H   0  0  0  0  0  0  0  0  0  0  0  0
    3.8433   -0.2394    1.2483 H   0  0  0  0  0  0  0  0  0  0  0  0
    1.2530    2.1216    1.9761 H   0  0  0  0  0  0  0  0  0  0  0  0
   -1.1074    1.7739    1.7115 H   0  0  0  0  0  0  0  0  0  0  0  0
   -0.3015   -1.7680   -0.5515 H   0  0  0  0  0  0  0  0  0  0  0  0
    2.0504   -1.3801   -0.2571 H   0  0  0  0  0  0  0  0  0  0  0  0
   -2.4450   -2.0981   -0.8016 H   0  0  0  0  0  0  0  0  0  0  0  0
   -3.1016    1.4291    1.4554 H   0  0  0  0  0  0  0  0  0  0  0  0
   -7.8912    0.0342    0.6094 H   0  0  0  0  0  0  0  0  0  0  0  0
   -6.7032   -1.2622    0.7691 H   0  0  0  0  0  0  0  0  0  0  0  0
   -8.4314   -2.8240    0.1012 H   0  0  0  0  0  0  0  0  0  0  0  0
   -7.3855   -0.9125   -3.7317 H   0  0  0  0  0  0  0  0  0  0  0  0
   -5.7170    2.0964   -0.7275 H   0  0  0  0  0  0  0  0  0  0  0  0
   -6.8776    2.5153    0.6415 H   0  0  0  0  0  0  0  0  0  0  0  0
   -4.4425    3.3918    0.3234 H   0  0  0  0  0  0  0  0  0  0  0  0
   -5.3736    1.4123    2.7228 H   0  0  0  0  0  0  0  0  0  0  0  0
   -6.0445   -0.2057    2.7844 H   0  0  0  0  0  0  0  0  0  0  0  0
  1  2  1  0
  2  3  1  0
  3  4  1  0
  4  5  1  0
  5  6  1  0
  6  7  1  0
  7  8  1  0
  8  9  1  0
  9 10  2  0
 10 11  1  0
 11 12  2  0
 12 13  1  0
 13 14  2  0
 12 15  1  0
 15 16  2  0
 16 17  1  0
 17 18  2  0
 18 19  1  0
 18 20  1  0
 20 21  1  0
 21 22  1  0
 22 23  1  0
 23 24  2  0
 23 25  1  0
 23 26  1  0
 20 27  1  0
 27 28  1  0
 20 29  1  0
 14  9  1  0
 19 15  1  0
  1 30  1  0
  1 31  1  0
  1 32  1  0
  2 33  1  0
  2 34  1  0
  3 35  1  0
  3 36  1  0
  4 37  1  0
  4 38  1  0
  5 39  1  0
  5 40  1  0
  6 41  1  0
  6 42  1  0
  7 43  1  0
  7 44  1  0
  8 45  1  0
  8 46  1  0
 10 47  1  0
 11 48  1  0
 13 49  1  0
 14 50  1  0
 16 51  1  0
 19 52  1  0
 21 53  1  0
 21 54  1  0
 25 55  1  0
 26 56  1  0
 27 57  1  0
 27 58  1  0
 28 59  1  0
 29 60  1  0
 29 61  1  0
M  END
>  <Ligand ID>  (1) 
LIG0001881

>  <Ligand>  (1) 
CHEMBL537849

>  <SMILES>  (1) 
CCCCCCCCc1ccc(cc1)c1cnc([nH]1)C(COP(=O)(O)O)(CO)N

>  <CID>  (1) 
44398076.0

>  <ChEMBL ID>  (1) 
nan

>  <InChiKey>  (1) 
VGOZVXOZNXFWTL-UHFFFAOYSA-N

>  <InChi>  (1) 
InChI=1S/C20H32N3O5P/c1-2-3-4-5-6-7-8-16-9-11-17(12-10-16)18-13-22-19(23-18)20(21,14-24)15-28-29(25,26)27/h9-13,24H,2-8,14-15,21H2,1H3,(H,22,23)(H2,25,26,27)

>  <IUPAC Name>  (1) 
[2-amino-3-hydroxy-2-[5-(4-octylphenyl)-1H-imidazol-2-yl]propyl] dihydrogen phosphate

$$$$
