
     RDKit          3D

 97 99  0  0  0  0  0  0  0  0999 V2000
    0.6877    2.3083    0.3652 C   0  0  0  0  0  0  0  0  0  0  0  0
   -0.0448    1.2809   -0.4591 C   0  0  0  0  0  0  0  0  0  0  0  0
   -0.0024   -0.0553    0.1085 N   0  0  0  0  0  0  0  0  0  0  0  0
    1.2700   -0.6406   -0.1607 C   0  0  0  0  0  0  0  0  0  0  0  0
    1.6042   -1.8631    0.6526 C   0  0  0  0  0  0  0  0  0  0  0  0
   -1.1156   -0.7767   -0.4270 C   0  0  0  0  0  0  0  0  0  0  0  0
   -2.4322   -0.3445    0.1536 C   0  0  0  0  0  0  0  0  0  0  0  0
   10.4932    4.4049   -0.2253 C   0  0  0  0  0  0  0  0  0  0  0  0
   10.9325    3.0909   -0.4637 O   0  0  0  0  0  0  0  0  0  0  0  0
   10.3679    2.2824    0.4650 N   0  0  0  0  0  0  0  0  0  0  0  0
    9.3058    1.3825    0.1698 C   0  0  0  0  0  0  0  0  0  0  0  0
    8.7271    0.5579    1.1085 C   0  0  0  0  0  0  0  0  0  0  0  0
    7.7019   -0.2688    0.6855 C   0  0  0  0  0  0  0  0  0  0  0  0
    7.2544   -0.3028   -0.5742 N   0  0  0  0  0  0  0  0  0  0  0  0
    7.8681    0.5358   -1.4519 C   0  0  0  0  0  0  0  0  0  0  0  0
    7.4887    0.5514   -2.6662 O   0  0  0  0  0  0  0  0  0  0  0  0
    8.8638    1.3552   -1.0953 N   0  0  0  0  0  0  0  0  0  0  0  0
    6.2049   -1.1310   -1.0669 C   0  0  2  0  0  0  0  0  0  0  0  0
    4.9607   -0.5178   -1.0341 O   0  0  0  0  0  0  0  0  0  0  0  0
    4.0025   -1.5033   -1.0951 C   0  0  1  0  0  0  0  0  0  0  0  0
    4.6365   -2.8317   -0.8493 C   0  0  2  0  0  0  0  0  0  0  0  0
    6.0321   -2.4502   -0.3959 C   0  0  1  0  0  0  0  0  0  0  0  0
    6.9173   -3.4194   -0.8626 O   0  0  0  0  0  0  0  0  0  0  0  0
    4.6274   -3.5298   -2.0551 O   0  0  0  0  0  0  0  0  0  0  0  0
    2.9088   -1.2381   -0.0764 C   0  0  0  0  0  0  0  0  0  0  0  0
    2.2999   -0.0147   -0.3236 O   0  0  0  0  0  0  0  0  0  0  0  0
    1.0725    0.2648    0.8329 P   0  0  0  0  0  0  0  0  0  0  0  0
    1.7443    0.5711    2.1546 O   0  0  0  0  0  0  0  0  0  0  0  0
    0.1555    1.6055    0.3658 O   0  0  0  0  0  0  0  0  0  0  0  0
   -1.4795    1.2517    0.5863 P   0  0  0  0  0  0  0  0  0  0  0  0
   -2.2983    2.2665   -0.1918 O   0  0  0  0  0  0  0  0  0  0  0  0
   -1.8854   -0.2742    0.0368 O   0  0  0  0  0  0  0  0  0  0  0  0
   -3.1011   -1.0194    0.9386 P   0  0  0  0  0  0  0  0  0  0  0  0
   -2.7761   -2.5008    1.0167 O   0  0  0  0  0  0  0  0  0  0  0  0
   -4.6333   -0.8355    0.2247 O   0  0  0  0  0  0  0  0  0  0  0  0
   -5.2382   -2.0813    0.0931 C   0  0  0  0  0  0  0  0  0  0  0  0
   -6.6009   -1.9086   -0.5427 C   0  0  1  0  0  0  0  0  0  0  0  0
   -7.4406   -1.1133    0.1888 O   0  0  0  0  0  0  0  0  0  0  0  0
   -8.0963   -0.2502   -0.6579 C   0  0  2  0  0  0  0  0  0  0  0  0
   -6.9895    0.1349   -1.6249 C   0  0  1  0  0  0  0  0  0  0  0  0
   -6.3965   -1.2483   -1.8889 C   0  0  2  0  0  0  0  0  0  0  0  0
   -7.2388   -1.8338   -2.8353 O   0  0  0  0  0  0  0  0  0  0  0  0
   -7.4950    0.6960   -2.7903 O   0  0  0  0  0  0  0  0  0  0  0  0
   -8.5824    0.9300    0.0168 N   0  0  0  0  0  0  0  0  0  0  0  0
   -9.2741    1.8280   -0.7122 C   0  0  0  0  0  0  0  0  0  0  0  0
   -9.7319    2.9480   -0.0580 C   0  0  0  0  0  0  0  0  0  0  0  0
   -9.4538    3.0756    1.2913 C   0  0  0  0  0  0  0  0  0  0  0  0
   -9.8840    4.1131    1.8731 O   0  0  0  0  0  0  0  0  0  0  0  0
   -8.7594    2.1504    1.9717 N   0  0  0  0  0  0  0  0  0  0  0  0
   -8.3207    1.0634    1.3155 C   0  0  0  0  0  0  0  0  0  0  0  0
   -7.6741    0.2188    1.9858 O   0  0  0  0  0  0  0  0  0  0  0  0
   -3.0655   -0.3819    2.4988 O   0  0  0  0  0  0  0  0  0  0  0  0
   -1.8407    1.3897    2.2339 O   0  0  0  0  0  0  0  0  0  0  0  0
    0.0720   -1.0825    0.9044 O   0  0  0  0  0  0  0  0  0  0  0  0
    0.4050    2.1552    1.4364 H   0  0  0  0  0  0  0  0  0  0  0  0
    0.3078    3.3034    0.0042 H   0  0  0  0  0  0  0  0  0  0  0  0
    1.7581    2.2884    0.1784 H   0  0  0  0  0  0  0  0  0  0  0  0
   -1.0412    1.6205   -0.7457 H   0  0  0  0  0  0  0  0  0  0  0  0
    0.5201    1.1990   -1.4411 H   0  0  0  0  0  0  0  0  0  0  0  0
    1.3711   -0.9026   -1.2683 H   0  0  0  0  0  0  0  0  0  0  0  0
    2.0524    0.1212   -0.0069 H   0  0  0  0  0  0  0  0  0  0  0  0
    0.7525   -2.4766    0.9514 H   0  0  0  0  0  0  0  0  0  0  0  0
    2.3131   -2.4849    0.0720 H   0  0  0  0  0  0  0  0  0  0  0  0
    2.2139   -1.5420    1.5506 H   0  0  0  0  0  0  0  0  0  0  0  0
   -1.0372   -1.8607   -0.3521 H   0  0  0  0  0  0  0  0  0  0  0  0
   -1.1465   -0.5147   -1.5119 H   0  0  0  0  0  0  0  0  0  0  0  0
   -2.5435   -0.6744    1.2174 H   0  0  0  0  0  0  0  0  0  0  0  0
   -2.6528    0.7222    0.0989 H   0  0  0  0  0  0  0  0  0  0  0  0
   -3.2398   -0.8629   -0.4164 H   0  0  0  0  0  0  0  0  0  0  0  0
    9.4794    4.4442    0.1952 H   0  0  0  0  0  0  0  0  0  0  0  0
   11.2061    4.8862    0.4566 H   0  0  0  0  0  0  0  0  0  0  0  0
   10.5472    4.9535   -1.1890 H   0  0  0  0  0  0  0  0  0  0  0  0
   10.7639    2.3529    1.4470 H   0  0  0  0  0  0  0  0  0  0  0  0
    9.0867    0.5823    2.1306 H   0  0  0  0  0  0  0  0  0  0  0  0
    7.2393   -0.9190    1.4065 H   0  0  0  0  0  0  0  0  0  0  0  0
    6.4018   -1.3585   -2.1547 H   0  0  0  0  0  0  0  0  0  0  0  0
    3.5082   -1.4271   -2.0866 H   0  0  0  0  0  0  0  0  0  0  0  0
    4.0745   -3.3586   -0.0509 H   0  0  0  0  0  0  0  0  0  0  0  0
    5.9968   -2.3878    0.7134 H   0  0  0  0  0  0  0  0  0  0  0  0
    7.7075   -3.4516   -0.2691 H   0  0  0  0  0  0  0  0  0  0  0  0
    5.4850   -3.4946   -2.5480 H   0  0  0  0  0  0  0  0  0  0  0  0
    3.4037   -1.2499    0.9357 H   0  0  0  0  0  0  0  0  0  0  0  0
    2.1794   -2.0551   -0.0443 H   0  0  0  0  0  0  0  0  0  0  0  0
   -4.6342   -2.7276   -0.5881 H   0  0  0  0  0  0  0  0  0  0  0  0
   -5.2964   -2.6080    1.0664 H   0  0  0  0  0  0  0  0  0  0  0  0
   -7.0456   -2.9149   -0.6912 H   0  0  0  0  0  0  0  0  0  0  0  0
   -8.8672   -0.7655   -1.2337 H   0  0  0  0  0  0  0  0  0  0  0  0
   -6.2089    0.7335   -1.1494 H   0  0  0  0  0  0  0  0  0  0  0  0
   -5.3408   -1.2064   -2.1922 H   0  0  0  0  0  0  0  0  0  0  0  0
   -7.5155   -2.7578   -2.5628 H   0  0  0  0  0  0  0  0  0  0  0  0
   -7.0242    1.5702   -2.8995 H   0  0  0  0  0  0  0  0  0  0  0  0
   -9.4682    1.6869   -1.7665 H   0  0  0  0  0  0  0  0  0  0  0  0
  -10.2985    3.7106   -0.5968 H   0  0  0  0  0  0  0  0  0  0  0  0
   -8.5526    2.2591    3.0048 H   0  0  0  0  0  0  0  0  0  0  0  0
   -2.3710   -0.8785    3.0063 H   0  0  0  0  0  0  0  0  0  0  0  0
   -1.0126    1.1419    2.7345 H   0  0  0  0  0  0  0  0  0  0  0  0
    0.1741   -1.6913    0.1514 H   0  0  0  0  0  0  0  0  0  0  0  0
  1  2  1  0
  2  3  1  0
  3  4  1  0
  4  5  1  0
  3  6  1  0
  6  7  1  0
  8  9  1  0
  9 10  1  0
 10 11  1  0
 11 12  1  0
 12 13  2  0
 13 14  1  0
 14 15  1  0
 15 16  2  0
 15 17  1  0
 14 18  1  0
 18 19  1  0
 19 20  1  0
 20 21  1  0
 21 22  1  0
 22 23  1  0
 21 24  1  0
 20 25  1  0
 25 26  1  0
 26 27  1  0
 27 28  2  0
 27 29  1  0
 29 30  1  0
 30 31  2  0
 30 32  1  0
 32 33  1  0
 33 34  2  0
 33 35  1  0
 35 36  1  0
 36 37  1  0
 37 38  1  0
 38 39  1  0
 39 40  1  0
 40 41  1  0
 41 42  1  0
 40 43  1  0
 39 44  1  0
 44 45  1  0
 45 46  2  0
 46 47  1  0
 47 48  2  0
 47 49  1  0
 49 50  1  0
 50 51  2  0
 33 52  1  0
 30 53  1  0
 27 54  1  0
 17 11  2  0
 22 18  1  0
 41 37  1  0
 50 44  1  0
  1 55  1  0
  1 56  1  0
  1 57  1  0
  2 58  1  0
  2 59  1  0
  4 60  1  0
  4 61  1  0
  5 62  1  0
  5 63  1  0
  5 64  1  0
  6 65  1  0
  6 66  1  0
  7 67  1  0
  7 68  1  0
  7 69  1  0
  8 70  1  0
  8 71  1  0
  8 72  1  0
 10 73  1  0
 12 74  1  0
 13 75  1  0
 18 76  1  6
 20 77  1  6
 21 78  1  1
 22 79  1  1
 23 80  1  0
 24 81  1  0
 25 82  1  0
 25 83  1  0
 36 84  1  0
 36 85  1  0
 37 86  1  6
 39 87  1  6
 40 88  1  1
 41 89  1  6
 42 90  1  0
 43 91  1  0
 45 92  1  0
 46 93  1  0
 49 94  1  0
 52 95  1  0
 53 96  1  0
 54 97  1  0
M  END
>  <Ligand ID>  (1) 
LIG0004379

>  <Ligand>  (1) 
CHEMBL1083256

>  <SMILES>  (1) 
CCN(CC)CC.CONc1ccn(c(=O)n1)[C@@H]1O[C@@H]([C@H]([C@H]1O)O)COP(=O)(OP(=O)(OP(=O)(OC[C@H]1O[C@H]([C@@H]([C@@H]1O)O)n1ccc(=O)[nH]c1=O)O)O)O

>  <CID>  (1) 
46890112.0

>  <ChEMBL ID>  (1) 
nan

>  <InChiKey>  (1) 
CSFOGBZJBHSYFU-CNAMJEKYSA-N

>  <InChi>  (1) 
InChI=1S/C19H28N5O20P3.C6H15N/c1-38-22-10-2-4-23(18(30)20-10)16-14(28)12(26)8(41-16)6-39-45(32,33)43-47(36,37)44-46(34,35)40-7-9-13(27)15(29)17(42-9)24-5-3-11(25)21-19(24)31;1-4-7(5-2)6-3/h2-5,8-9,12-17,26-29H,6-7H2,1H3,(H,32,33)(H,34,35)(H,36,37)(H,20,22,30)(H,21,25,31);4-6H2,1-3H3/t8-,9-,12-,13-,14-,15-,16-,17-;/m1./s1

>  <IUPAC Name>  (1) 
N,N-diethylethanamine;[[(2R,3S,4R,5R)-3,4-dihydroxy-5-[4-(methoxyamino)-2-oxopyrimidin-1-yl]oxolan-2-yl]methoxy-hydroxyphosphoryl] [[(2R,3S,4R,5R)-5-(2,4-dioxopyrimidin-1-yl)-3,4-dihydroxyoxolan-2-yl]methoxy-hydroxyphosphoryl] hydrogen phosphate

$$$$
