
     RDKit          3D

204211  0  0  0  0  0  0  0  0999 V2000
   14.0230    4.4520    0.3538 N   0  0  0  0  0  0  0  0  0  0  0  0
   13.7939    3.9846    1.6895 C   0  0  0  0  0  0  0  0  0  0  0  0
   12.4432    3.4429    1.9694 C   0  0  0  0  0  0  0  0  0  0  0  0
   12.0306    2.2482    1.1903 C   0  0  0  0  0  0  0  0  0  0  0  0
   11.9897    2.4974   -0.2685 C   0  0  0  0  0  0  0  0  0  0  0  0
   11.5265    1.2278   -1.0233 C   0  0  1  0  0  0  0  0  0  0  0  0
   12.5325    0.1428   -0.6844 C   0  0  0  0  0  0  0  0  0  0  0  0
   12.0970   -0.7716   -0.0374 O   0  0  0  0  0  0  0  0  0  0  0  0
   13.8936    0.3443   -1.1842 C   0  0  0  0  0  0  0  0  0  0  0  0
   14.8980   -0.5779   -0.7742 N   0  0  0  0  0  0  0  0  0  0  0  0
   14.7182   -1.8854   -1.3023 C   0  0  2  0  0  0  0  0  0  0  0  0
   14.3092   -2.7662   -0.1348 C   0  0  0  0  0  0  0  0  0  0  0  0
   14.2979   -2.3838    1.0401 O   0  0  0  0  0  0  0  0  0  0  0  0
   13.9098   -4.1264   -0.3876 N   0  0  0  0  0  0  0  0  0  0  0  0
   16.0193   -2.4766   -1.8391 C   0  0  0  0  0  0  0  0  0  0  0  0
   16.5451   -1.6325   -2.9136 C   0  0  0  0  0  0  0  0  0  0  0  0
   16.0216   -0.6083   -3.3840 O   0  0  0  0  0  0  0  0  0  0  0  0
   17.7721   -2.0106   -3.4787 O   0  0  0  0  0  0  0  0  0  0  0  0
   10.2201    0.8751   -0.5495 N   0  0  0  0  0  0  0  0  0  0  0  0
    9.6035   -0.1724   -1.3063 C   0  0  0  0  0  0  0  0  0  0  0  0
    8.2375   -0.4303   -0.7207 C   0  0  0  0  0  0  0  0  0  0  0  0
    7.4617   -1.2288   -1.1909 O   0  0  0  0  0  0  0  0  0  0  0  0
    7.7822    0.3196    0.5076 C   0  0  2  0  0  0  0  0  0  0  0  0
    8.6911   -0.1552    1.6338 C   0  0  0  0  0  0  0  0  0  0  0  0
    7.8676   -1.2603    2.2938 C   0  0  0  0  0  0  0  0  0  0  0  0
    6.4839   -0.7407    2.0748 C   0  0  0  0  0  0  0  0  0  0  0  0
    6.4523   -0.0214    0.8350 N   0  0  0  0  0  0  0  0  0  0  0  0
    5.6242    1.2006    0.9955 C   0  0  0  0  0  0  0  0  0  0  0  0
    4.2194    0.7983    1.1861 C   0  0  0  0  0  0  0  0  0  0  0  0
    3.9529   -0.3831    0.9093 O   0  0  0  0  0  0  0  0  0  0  0  0
    3.1026    1.6386    1.6705 C   0  0  2  0  0  0  0  0  0  0  0  0
    3.4024    2.2167    3.0409 C   0  0  0  0  0  0  0  0  0  0  0  0
    2.7843    1.2586    3.9928 C   0  0  0  0  0  0  0  0  0  0  0  0
    2.3416    0.0997    3.1825 C   0  0  0  0  0  0  0  0  0  0  0  0
    1.9999    0.7385    1.8915 N   0  0  0  0  0  0  0  0  0  0  0  0
    0.8429    0.3702    1.2186 C   0  0  0  0  0  0  0  0  0  0  0  0
    0.1610   -0.5733    1.7875 O   0  0  0  0  0  0  0  0  0  0  0  0
    0.2323    0.8577   -0.0403 C   0  0  1  0  0  0  0  0  0  0  0  0
    1.0981    0.9712   -1.2139 C   0  0  0  0  0  0  0  0  0  0  0  0
    0.3705    1.9861   -2.5105 S   0  0  0  0  0  0  0  0  0  0  0  0
   -1.3754    1.2519   -3.3364 S   0  0  0  0  0  0  0  0  0  0  0  0
   -2.8417    1.8752   -2.5341 C   0  0  0  0  0  0  0  0  0  0  0  0
   -3.0769    3.3816   -2.7504 C   0  0  2  0  0  0  0  0  0  0  0  0
   -1.9871    4.2208   -2.2523 C   0  0  0  0  0  0  0  0  0  0  0  0
   -1.2968    4.9557   -2.9648 O   0  0  0  0  0  0  0  0  0  0  0  0
   -1.6692    4.2080   -0.8008 C   0  0  0  0  0  0  0  0  0  0  0  0
   -4.3506    3.6177   -1.9799 C   0  0  0  0  0  0  0  0  0  0  0  0
   -4.8207    2.6568   -1.3739 O   0  0  0  0  0  0  0  0  0  0  0  0
   -5.0302    4.8494   -1.9046 N   0  0  0  0  0  0  0  0  0  0  0  0
   -6.2897    4.8357   -1.0674 C   0  0  2  0  0  0  0  0  0  0  0  0
   -5.9093    4.7368    0.3564 C   0  0  0  0  0  0  0  0  0  0  0  0
   -6.9858    4.7184    1.3903 C   0  0  0  0  0  0  0  0  0  0  0  0
   -7.8662    5.8936    1.3424 C   0  0  0  0  0  0  0  0  0  0  0  0
   -7.7517    6.8700    0.5714 O   0  0  0  0  0  0  0  0  0  0  0  0
   -8.9370    5.9332    2.2421 O   0  0  0  0  0  0  0  0  0  0  0  0
   -7.1720    3.8208   -1.6606 C   0  0  0  0  0  0  0  0  0  0  0  0
   -6.7916    3.3924   -2.8056 O   0  0  0  0  0  0  0  0  0  0  0  0
   -8.3467    3.2405   -1.1939 N   0  0  0  0  0  0  0  0  0  0  0  0
   -9.1701    2.2347   -1.8792 C   0  0  2  0  0  0  0  0  0  0  0  0
   -8.7179    0.9217   -1.2741 C   0  0  0  0  0  0  0  0  0  0  0  0
   -9.0712   -0.1930   -1.6392 O   0  0  0  0  0  0  0  0  0  0  0  0
   -7.7875    0.9050   -0.1635 N   0  0  0  0  0  0  0  0  0  0  0  0
   -7.2386   -0.3278    0.3798 C   0  0  2  0  0  0  0  0  0  0  0  0
   -6.4579   -0.9965   -0.7451 C   0  0  0  0  0  0  0  0  0  0  0  0
   -6.4722   -0.4689   -1.8568 O   0  0  0  0  0  0  0  0  0  0  0  0
   -5.7120   -2.1805   -0.5789 N   0  0  0  0  0  0  0  0  0  0  0  0
   -5.0462   -2.9294   -1.5995 C   0  0  2  0  0  0  0  0  0  0  0  0
   -3.6023   -3.0335   -1.5698 C   0  0  0  0  0  0  0  0  0  0  0  0
   -3.0159   -3.6629   -2.4720 O   0  0  0  0  0  0  0  0  0  0  0  0
   -2.7139   -2.4714   -0.5772 N   0  0  0  0  0  0  0  0  0  0  0  0
   -1.2970   -2.7074   -0.7041 C   0  0  1  0  0  0  0  0  0  0  0  0
   -0.4256   -1.5463   -0.4760 C   0  0  0  0  0  0  0  0  0  0  0  0
    0.8033   -1.7487   -0.4065 O   0  0  0  0  0  0  0  0  0  0  0  0
   -0.8284   -0.1870   -0.3267 N   0  0  0  0  0  0  0  0  0  0  0  0
   -0.9348   -3.9254    0.1091 C   0  0  0  0  0  0  0  0  0  0  0  0
   -1.1806   -3.8604    1.5472 C   0  0  0  0  0  0  0  0  0  0  0  0
   -0.1367   -3.6370    2.4667 C   0  0  0  0  0  0  0  0  0  0  0  0
   -0.6332   -3.6289    3.7142 N   0  0  0  0  0  0  0  0  0  0  0  0
   -1.9530   -3.8359    3.6637 C   0  0  0  0  0  0  0  0  0  0  0  0
   -2.2930   -3.9798    2.3301 C   0  0  0  0  0  0  0  0  0  0  0  0
   -3.6005   -4.2085    2.0177 C   0  0  0  0  0  0  0  0  0  0  0  0
   -4.5190   -4.2831    3.0441 C   0  0  0  0  0  0  0  0  0  0  0  0
   -4.1822   -4.1388    4.3761 C   0  0  0  0  0  0  0  0  0  0  0  0
   -2.8600   -3.9093    4.6941 C   0  0  0  0  0  0  0  0  0  0  0  0
   -5.5731   -2.7225   -3.0139 C   0  0  0  0  0  0  0  0  0  0  0  0
   -6.9817   -3.1385   -3.2137 C   0  0  0  0  0  0  0  0  0  0  0  0
   -7.2039   -4.6191   -2.9439 C   0  0  0  0  0  0  0  0  0  0  0  0
   -6.4159   -5.4744   -3.7974 N   0  0  0  0  0  0  0  0  0  0  0  0
   -5.9887   -6.5779   -3.2307 C   0  0  0  0  0  0  0  0  0  0  0  0
   -6.3514   -6.7894   -1.8637 N   0  0  0  0  0  0  0  0  0  0  0  0
   -5.2016   -7.5313   -3.9282 N   0  0  0  0  0  0  0  0  0  0  0  0
   -8.2415   -1.2726    0.9368 C   0  0  0  0  0  0  0  0  0  0  0  0
   -9.0771   -0.7780    2.0251 C   0  0  0  0  0  0  0  0  0  0  0  0
   -8.7953   -0.8503    3.3682 C   0  0  0  0  0  0  0  0  0  0  0  0
   -9.6484   -0.3663    4.3367 C   0  0  0  0  0  0  0  0  0  0  0  0
  -10.8387    0.2211    4.0005 C   0  0  0  0  0  0  0  0  0  0  0  0
  -11.1604    0.3122    2.6418 C   0  0  0  0  0  0  0  0  0  0  0  0
  -10.2958   -0.1769    1.6848 C   0  0  0  0  0  0  0  0  0  0  0  0
  -12.3626    0.8983    2.2506 C   0  0  0  0  0  0  0  0  0  0  0  0
  -13.2289    1.3876    3.2041 C   0  0  0  0  0  0  0  0  0  0  0  0
  -12.9309    1.3095    4.5532 C   0  0  0  0  0  0  0  0  0  0  0  0
  -11.7468    0.7281    4.8984 C   0  0  0  0  0  0  0  0  0  0  0  0
   -8.8346    2.1289   -3.3642 C   0  0  0  0  0  0  0  0  0  0  0  0
   -9.8069    1.1856   -3.9783 C   0  0  0  0  0  0  0  0  0  0  0  0
  -10.8599    0.5455   -3.5199 N   0  0  0  0  0  0  0  0  0  0  0  0
  -11.3936   -0.2505   -4.4975 C   0  0  0  0  0  0  0  0  0  0  0  0
  -10.6451   -0.0969   -5.6020 N   0  0  0  0  0  0  0  0  0  0  0  0
   -9.6702    0.7762   -5.3093 C   0  0  0  0  0  0  0  0  0  0  0  0
   13.2479    5.0693    0.0411 H   0  0  0  0  0  0  0  0  0  0  0  0
   14.9082    4.9865    0.2861 H   0  0  0  0  0  0  0  0  0  0  0  0
   14.5575    3.2001    1.9521 H   0  0  0  0  0  0  0  0  0  0  0  0
   13.9747    4.8526    2.3868 H   0  0  0  0  0  0  0  0  0  0  0  0
   11.6491    4.2387    1.8019 H   0  0  0  0  0  0  0  0  0  0  0  0
   12.3688    3.2246    3.0799 H   0  0  0  0  0  0  0  0  0  0  0  0
   12.7224    1.4060    1.4535 H   0  0  0  0  0  0  0  0  0  0  0  0
   11.0158    1.9315    1.5676 H   0  0  0  0  0  0  0  0  0  0  0  0
   11.1822    3.2433   -0.4717 H   0  0  0  0  0  0  0  0  0  0  0  0
   12.9247    2.8096   -0.7192 H   0  0  0  0  0  0  0  0  0  0  0  0
   11.5996    1.4578   -2.0896 H   0  0  0  0  0  0  0  0  0  0  0  0
   13.8028    0.3971   -2.3202 H   0  0  0  0  0  0  0  0  0  0  0  0
   14.2740    1.3697   -0.9036 H   0  0  0  0  0  0  0  0  0  0  0  0
   15.8663   -0.2491   -0.9255 H   0  0  0  0  0  0  0  0  0  0  0  0
   13.9125   -1.8835   -2.0491 H   0  0  0  0  0  0  0  0  0  0  0  0
   14.3917   -4.8382    0.2039 H   0  0  0  0  0  0  0  0  0  0  0  0
   13.1966   -4.3458   -1.1059 H   0  0  0  0  0  0  0  0  0  0  0  0
   16.7458   -2.5451   -0.9951 H   0  0  0  0  0  0  0  0  0  0  0  0
   15.8437   -3.5197   -2.1709 H   0  0  0  0  0  0  0  0  0  0  0  0
   18.1226   -1.5260   -4.2929 H   0  0  0  0  0  0  0  0  0  0  0  0
    9.6270    1.7249   -0.6279 H   0  0  0  0  0  0  0  0  0  0  0  0
   10.2240   -1.0789   -1.3270 H   0  0  0  0  0  0  0  0  0  0  0  0
    9.4841    0.2134   -2.3568 H   0  0  0  0  0  0  0  0  0  0  0  0
    7.8653    1.3956    0.3699 H   0  0  0  0  0  0  0  0  0  0  0  0
    9.6407   -0.5507    1.2551 H   0  0  0  0  0  0  0  0  0  0  0  0
    8.8414    0.6330    2.3801 H   0  0  0  0  0  0  0  0  0  0  0  0
    8.1211   -1.3828    3.3632 H   0  0  0  0  0  0  0  0  0  0  0  0
    8.0232   -2.1879    1.7400 H   0  0  0  0  0  0  0  0  0  0  0  0
    5.7610   -1.5906    2.1185 H   0  0  0  0  0  0  0  0  0  0  0  0
    6.1968   -0.0341    2.9127 H   0  0  0  0  0  0  0  0  0  0  0  0
    6.0270    1.8399    1.7903 H   0  0  0  0  0  0  0  0  0  0  0  0
    5.7192    1.7586    0.0378 H   0  0  0  0  0  0  0  0  0  0  0  0
    2.8463    2.4605    0.9700 H   0  0  0  0  0  0  0  0  0  0  0  0
    4.4906    2.3337    3.1849 H   0  0  0  0  0  0  0  0  0  0  0  0
    2.8741    3.1999    3.0933 H   0  0  0  0  0  0  0  0  0  0  0  0
    3.6059    0.8882    4.6725 H   0  0  0  0  0  0  0  0  0  0  0  0
    1.9655    1.7121    4.6065 H   0  0  0  0  0  0  0  0  0  0  0  0
    3.1419   -0.6147    3.0407 H   0  0  0  0  0  0  0  0  0  0  0  0
    1.4675   -0.4334    3.6157 H   0  0  0  0  0  0  0  0  0  0  0  0
   -0.3401    1.7813    0.1534 H   0  0  0  0  0  0  0  0  0  0  0  0
    1.3015   -0.0258   -1.6971 H   0  0  0  0  0  0  0  0  0  0  0  0
    2.0926    1.4359   -0.9772 H   0  0  0  0  0  0  0  0  0  0  0  0
   -3.7226    1.4039   -3.0872 H   0  0  0  0  0  0  0  0  0  0  0  0
   -3.0031    1.6023   -1.4982 H   0  0  0  0  0  0  0  0  0  0  0  0
   -3.2530    3.5125   -3.8201 H   0  0  0  0  0  0  0  0  0  0  0  0
   -2.1207    3.3857   -0.2477 H   0  0  0  0  0  0  0  0  0  0  0  0
   -0.5676    4.1508   -0.6798 H   0  0  0  0  0  0  0  0  0  0  0  0
   -2.0549    5.1714   -0.3864 H   0  0  0  0  0  0  0  0  0  0  0  0
   -4.6819    5.6441   -2.3786 H   0  0  0  0  0  0  0  0  0  0  0  0
   -6.7592    5.8490   -1.2409 H   0  0  0  0  0  0  0  0  0  0  0  0
   -5.2776    3.8289    0.5759 H   0  0  0  0  0  0  0  0  0  0  0  0
   -5.2045    5.5903    0.6045 H   0  0  0  0  0  0  0  0  0  0  0  0
   -7.4969    3.7644    1.5455 H   0  0  0  0  0  0  0  0  0  0  0  0
   -6.4062    4.8348    2.4040 H   0  0  0  0  0  0  0  0  0  0  0  0
   -9.3221    6.8431    2.5274 H   0  0  0  0  0  0  0  0  0  0  0  0
   -8.7036    3.5477   -0.2893 H   0  0  0  0  0  0  0  0  0  0  0  0
  -10.2238    2.3788   -1.8320 H   0  0  0  0  0  0  0  0  0  0  0  0
   -7.5568    1.8280    0.2009 H   0  0  0  0  0  0  0  0  0  0  0  0
   -6.4352   -0.0360    1.0878 H   0  0  0  0  0  0  0  0  0  0  0  0
   -5.6554   -2.5207    0.3921 H   0  0  0  0  0  0  0  0  0  0  0  0
   -5.4287   -4.0214   -1.3820 H   0  0  0  0  0  0  0  0  0  0  0  0
   -3.1891   -1.9395    0.1462 H   0  0  0  0  0  0  0  0  0  0  0  0
   -1.0764   -3.0660   -1.7790 H   0  0  0  0  0  0  0  0  0  0  0  0
   -1.7965    0.0153   -0.4088 H   0  0  0  0  0  0  0  0  0  0  0  0
    0.1479   -4.1295   -0.1285 H   0  0  0  0  0  0  0  0  0  0  0  0
   -1.4768   -4.7756   -0.3794 H   0  0  0  0  0  0  0  0  0  0  0  0
    0.9237   -3.4863    2.2193 H   0  0  0  0  0  0  0  0  0  0  0  0
   -0.0096   -3.4704    4.5602 H   0  0  0  0  0  0  0  0  0  0  0  0
   -3.8749   -4.3320    0.9837 H   0  0  0  0  0  0  0  0  0  0  0  0
   -5.5668   -4.4575    2.8117 H   0  0  0  0  0  0  0  0  0  0  0  0
   -4.8893   -4.1936    5.1879 H   0  0  0  0  0  0  0  0  0  0  0  0
   -2.5234   -3.7902    5.7221 H   0  0  0  0  0  0  0  0  0  0  0  0
   -5.3466   -1.7238   -3.3868 H   0  0  0  0  0  0  0  0  0  0  0  0
   -4.9151   -3.4068   -3.6394 H   0  0  0  0  0  0  0  0  0  0  0  0
   -7.3502   -2.9712   -4.2530 H   0  0  0  0  0  0  0  0  0  0  0  0
   -7.6870   -2.6182   -2.5475 H   0  0  0  0  0  0  0  0  0  0  0  0
   -7.1774   -4.8991   -1.8956 H   0  0  0  0  0  0  0  0  0  0  0  0
   -8.2740   -4.7966   -3.2690 H   0  0  0  0  0  0  0  0  0  0  0  0
   -7.1681   -7.3622   -1.5711 H   0  0  0  0  0  0  0  0  0  0  0  0
   -5.7963   -6.3690   -1.0651 H   0  0  0  0  0  0  0  0  0  0  0  0
   -4.4479   -8.0819   -3.4275 H   0  0  0  0  0  0  0  0  0  0  0  0
   -5.3853   -7.6737   -4.9466 H   0  0  0  0  0  0  0  0  0  0  0  0
   -8.8656   -1.6673    0.0921 H   0  0  0  0  0  0  0  0  0  0  0  0
   -7.6614   -2.2043    1.2471 H   0  0  0  0  0  0  0  0  0  0  0  0
   -7.8629   -1.3094    3.6458 H   0  0  0  0  0  0  0  0  0  0  0  0
   -9.4079   -0.4353    5.4091 H   0  0  0  0  0  0  0  0  0  0  0  0
  -10.6123   -0.0712    0.6555 H   0  0  0  0  0  0  0  0  0  0  0  0
  -12.6322    0.9780    1.2269 H   0  0  0  0  0  0  0  0  0  0  0  0
  -14.1697    1.8411    2.8543 H   0  0  0  0  0  0  0  0  0  0  0  0
  -13.6162    1.6965    5.2728 H   0  0  0  0  0  0  0  0  0  0  0  0
  -11.5068    0.6619    5.9479 H   0  0  0  0  0  0  0  0  0  0  0  0
   -8.8397    3.1050   -3.8188 H   0  0  0  0  0  0  0  0  0  0  0  0
   -7.8408    1.6295   -3.5306 H   0  0  0  0  0  0  0  0  0  0  0  0
  -11.2950    0.5998   -2.5889 H   0  0  0  0  0  0  0  0  0  0  0  0
  -12.2740   -0.8874   -4.3800 H   0  0  0  0  0  0  0  0  0  0  0  0
   -8.9010    1.1022   -6.0193 H   0  0  0  0  0  0  0  0  0  0  0  0
  1  2  1  0
  2  3  1  0
  3  4  1  0
  4  5  1  0
  5  6  1  0
  6  7  1  0
  7  8  2  0
  7  9  1  0
  9 10  1  0
 10 11  1  0
 11 12  1  0
 12 13  2  0
 12 14  1  0
 11 15  1  0
 15 16  1  0
 16 17  2  0
 16 18  1  0
  6 19  1  0
 19 20  1  0
 20 21  1  0
 21 22  2  0
 21 23  1  0
 23 24  1  0
 24 25  1  0
 25 26  1  0
 26 27  1  0
 27 28  1  0
 28 29  1  0
 29 30  2  0
 29 31  1  0
 31 32  1  0
 32 33  1  0
 33 34  1  0
 34 35  1  0
 35 36  1  0
 36 37  2  0
 36 38  1  0
 38 39  1  0
 39 40  1  0
 40 41  1  0
 41 42  1  0
 42 43  1  0
 43 44  1  0
 44 45  2  0
 44 46  1  0
 43 47  1  0
 47 48  2  0
 47 49  1  0
 49 50  1  0
 50 51  1  0
 51 52  1  0
 52 53  1  0
 53 54  2  0
 53 55  1  0
 50 56  1  0
 56 57  2  0
 56 58  1  0
 58 59  1  0
 59 60  1  0
 60 61  2  0
 60 62  1  0
 62 63  1  0
 63 64  1  0
 64 65  2  0
 64 66  1  0
 66 67  1  0
 67 68  1  0
 68 69  2  0
 68 70  1  0
 70 71  1  0
 71 72  1  0
 72 73  2  0
 72 74  1  0
 71 75  1  0
 75 76  1  0
 76 77  2  0
 77 78  1  0
 78 79  1  0
 79 80  2  0
 80 81  1  0
 81 82  2  0
 82 83  1  0
 83 84  2  0
 67 85  1  0
 85 86  1  0
 86 87  1  0
 87 88  1  0
 88 89  2  3
 89 90  1  0
 89 91  1  0
 63 92  1  0
 92 93  1  0
 93 94  2  0
 94 95  1  0
 95 96  2  0
 96 97  1  0
 97 98  2  0
 97 99  1  0
 99100  2  0
100101  1  0
101102  2  0
 59103  1  0
103104  1  0
104105  1  0
105106  1  0
106107  2  0
107108  1  0
 27 23  1  0
 35 31  1  0
 74 38  1  0
 80 76  1  0
 98 93  1  0
108104  2  0
 84 79  1  0
102 96  1  0
  1109  1  0
  1110  1  0
  2111  1  0
  2112  1  0
  3113  1  0
  3114  1  0
  4115  1  0
  4116  1  0
  5117  1  0
  5118  1  0
  6119  1  6
  9120  1  0
  9121  1  0
 10122  1  0
 11123  1  6
 14124  1  0
 14125  1  0
 15126  1  0
 15127  1  0
 18128  1  0
 19129  1  0
 20130  1  0
 20131  1  0
 23132  1  6
 24133  1  0
 24134  1  0
 25135  1  0
 25136  1  0
 26137  1  0
 26138  1  0
 28139  1  0
 28140  1  0
 31141  1  6
 32142  1  0
 32143  1  0
 33144  1  0
 33145  1  0
 34146  1  0
 34147  1  0
 38148  1  1
 39149  1  0
 39150  1  0
 42151  1  0
 42152  1  0
 43153  1  6
 46154  1  0
 46155  1  0
 46156  1  0
 49157  1  0
 50158  1  1
 51159  1  0
 51160  1  0
 52161  1  0
 52162  1  0
 55163  1  0
 58164  1  0
 59165  1  6
 62166  1  0
 63167  1  1
 66168  1  0
 67169  1  1
 70170  1  0
 71171  1  6
 74172  1  0
 75173  1  0
 75174  1  0
 77175  1  0
 78176  1  0
 81177  1  0
 82178  1  0
 83179  1  0
 84180  1  0
 85181  1  0
 85182  1  0
 86183  1  0
 86184  1  0
 87185  1  0
 87186  1  0
 90187  1  0
 90188  1  0
 91189  1  0
 91190  1  0
 92191  1  0
 92192  1  0
 94193  1  0
 95194  1  0
 98195  1  0
 99196  1  0
100197  1  0
101198  1  0
102199  1  0
103200  1  0
103201  1  0
105202  1  0
106203  1  0
108204  1  0
M  END
>  <Ligand ID>  (1) 
LIG0003270

>  <Ligand>  (1) 
CHEMBL2112603

>  <SMILES>  (1) 
NCCCC[C@@H](C(=O)CN[C@H](C(=O)N)CC(=O)O)NCC(=O)[C@@H]1CCCN1CC(=O)[C@@H]1CCCN1C(=O)[C@H]1CSSC[C@H](C(=O)C)C(=O)N[C@H](CCC(=O)O)C(=O)N[C@H](C(=O)N[C@H](C(=O)N[C@H](C(=O)N[C@@H](C(=O)N1)Cc1c[nH]c2c1cccc2)CCCN=C(N)N)Cc1ccc2c(c1)cccc2)Cc1[nH]cnc1

>  <CID>  (1) 
71456219.0

>  <ChEMBL ID>  (1) 
nan

>  <InChiKey>  (1) 
TUEXZDIGHDGDGO-BXPNTNNBSA-N

>  <InChi>  (1) 
InChI=1S/C72H96N18O16S2/c1-40(91)47-37-107-108-38-56(71(106)90-26-10-18-58(90)61(94)36-89-25-9-17-57(89)60(93)35-80-49(15-6-7-23-73)59(92)34-81-52(64(74)99)31-63(97)98)88-69(104)54(29-44-32-79-48-14-5-4-13-46(44)48)86-66(101)50(16-8-24-78-72(75)76)84-68(103)53(28-41-19-20-42-11-2-3-12-43(42)27-41)85-70(105)55(30-45-33-77-39-82-45)87-67(102)51(83-65(47)100)21-22-62(95)96/h2-5,11-14,19-20,27,32-33,39,47,49-58,79-81H,6-10,15-18,21-26,28-31,34-38,73H2,1H3,(H2,74,99)(H,77,82)(H,83,100)(H,84,103)(H,85,105)(H,86,101)(H,87,102)(H,88,104)(H,95,96)(H,97,98)(H4,75,76,78)/t47-,49+,50+,51-,52+,53+,54-,55+,56-,57+,58+/m1/s1

>  <IUPAC Name>  (1) 
(3S)-3-[[(3S)-3-[[2-[(2S)-1-[2-[(2S)-1-[(4S,7R,10S,13S,16S,19R,22R)-22-acetyl-19-(2-carboxyethyl)-10-[3-(diaminomethylideneamino)propyl]-16-(1H-imidazol-5-ylmethyl)-7-(1H-indol-3-ylmethyl)-13-(naphthalen-2-ylmethyl)-6,9,12,15,18,21-hexaoxo-1,2-dithia-5,8,11,14,17,20-hexazacyclotricosane-4-carbonyl]pyrrolidin-2-yl]-2-oxoethyl]pyrrolidin-2-yl]-2-oxoethyl]amino]-7-amino-2-oxoheptyl]amino]-4-amino-4-oxobutanoic acid

$$$$
