
     RDKit          3D

 17 16  0  0  0  0  0  0  0  0999 V2000
   -0.2569    1.3487   -0.3772 C   0  0  0  0  0  0  0  0  0  0  0  0
   -0.1504    0.0555    0.4138 C   0  0  0  0  0  0  0  0  0  0  0  0
    1.0736   -1.0023   -0.3507 S   0  0  0  0  0  0  0  0  0  0  0  0
    2.7506   -0.3385   -0.2131 C   0  0  0  0  0  0  0  0  0  0  0  0
   -1.5065   -0.5457    0.5401 C   0  0  0  0  0  0  0  0  0  0  0  0
   -2.1696   -0.8735   -0.7493 C   0  0  0  0  0  0  0  0  0  0  0  0
   -1.6689   -0.6842   -1.8429 O   0  0  0  0  0  0  0  0  0  0  0  0
    0.1029    1.2279   -1.4292 H   0  0  0  0  0  0  0  0  0  0  0  0
    0.3889    2.1135    0.0959 H   0  0  0  0  0  0  0  0  0  0  0  0
   -1.3166    1.6901   -0.4838 H   0  0  0  0  0  0  0  0  0  0  0  0
    0.1867    0.2766    1.4712 H   0  0  0  0  0  0  0  0  0  0  0  0
    3.3767   -0.8746   -0.9737 H   0  0  0  0  0  0  0  0  0  0  0  0
    3.1748   -0.5977    0.7997 H   0  0  0  0  0  0  0  0  0  0  0  0
    2.8296    0.7382   -0.4501 H   0  0  0  0  0  0  0  0  0  0  0  0
   -1.4862   -1.4397    1.2077 H   0  0  0  0  0  0  0  0  0  0  0  0
   -2.1607    0.2163    1.0509 H   0  0  0  0  0  0  0  0  0  0  0  0
   -3.1679   -1.3106   -0.6770 H   0  0  0  0  0  0  0  0  0  0  0  0
  1  2  1  0
  2  3  1  0
  3  4  1  0
  2  5  1  0
  5  6  1  0
  6  7  2  0
  1  8  1  0
  1  9  1  0
  1 10  1  0
  2 11  1  0
  4 12  1  0
  4 13  1  0
  4 14  1  0
  5 15  1  0
  5 16  1  0
  6 17  1  0
M  END
>  <Ligand ID>  (1) 
LIG0000529

>  <Ligand>  (1) 
3-(Methylthio)butanal

>  <SMILES>  (1) 
CC(SC)CC=O

>  <CID>  (1) 
61845.0

>  <ChEMBL ID>  (1) 
nan

>  <InChiKey>  (1) 
NCBDFIPMWRKPDU-UHFFFAOYSA-N

>  <InChi>  (1) 
InChI=1S/C5H10OS/c1-5(7-2)3-4-6/h4-5H,3H2,1-2H3

>  <IUPAC Name>  (1) 
3-methylsulfanylbutanal

$$$$
