
     RDKit          3D

 43 46  0  0  0  0  0  0  0  0999 V2000
    2.3674   -2.9964   -0.2744 F   0  0  0  0  0  0  0  0  0  0  0  0
    1.2127   -2.2583   -0.3125 C   0  0  0  0  0  0  0  0  0  0  0  0
    0.0950   -2.8992    0.2003 C   0  0  0  0  0  0  0  0  0  0  0  0
   -1.1278   -2.2690    0.2173 C   0  0  0  0  0  0  0  0  0  0  0  0
   -1.1832   -0.9910   -0.2930 C   0  0  0  0  0  0  0  0  0  0  0  0
   -0.0632   -0.3418   -0.8101 C   0  0  0  0  0  0  0  0  0  0  0  0
    1.1747   -0.9788   -0.8268 C   0  0  0  0  0  0  0  0  0  0  0  0
    2.3961   -0.3363   -1.3725 C   0  0  0  0  0  0  0  0  0  0  0  0
    3.3647    0.1009   -0.3519 C   0  0  0  0  0  0  0  0  0  0  0  0
    3.2791    1.2930    0.3403 C   0  0  0  0  0  0  0  0  0  0  0  0
    4.2105    1.6826    1.2887 C   0  0  0  0  0  0  0  0  0  0  0  0
    5.2897    0.8817    1.5926 C   0  0  0  0  0  0  0  0  0  0  0  0
    5.3968   -0.3109    0.9161 C   0  0  0  0  0  0  0  0  0  0  0  0
    4.4710   -0.6936   -0.0238 C   0  0  0  0  0  0  0  0  0  0  0  0
   -0.2654    1.0110   -1.3389 C   0  0  0  0  0  0  0  0  0  0  0  0
   -1.2955    1.8013   -0.5694 C   0  0  0  0  0  0  0  0  0  0  0  0
   -2.6060    1.0827   -0.4439 C   0  0  0  0  0  0  0  0  0  0  0  0
   -2.4495   -0.3455   -0.2711 N   0  0  0  0  0  0  0  0  0  0  0  0
   -3.6939   -1.1031   -0.0667 C   0  0  0  0  0  0  0  0  0  0  0  0
   -4.8528   -0.1326    0.1141 C   0  0  0  0  0  0  0  0  0  0  0  0
   -4.5699    0.9389    1.0183 N   0  0  0  0  0  0  0  0  0  0  0  0
   -3.2875    1.5780    0.8175 C   0  0  0  0  0  0  0  0  0  0  0  0
    0.1560   -3.9076    0.5985 H   0  0  0  0  0  0  0  0  0  0  0  0
   -1.9719   -2.7997    0.6238 H   0  0  0  0  0  0  0  0  0  0  0  0
    2.1620    0.4698   -2.0913 H   0  0  0  0  0  0  0  0  0  0  0  0
    2.9451   -1.1019   -2.0059 H   0  0  0  0  0  0  0  0  0  0  0  0
    2.4683    1.9844    0.1675 H   0  0  0  0  0  0  0  0  0  0  0  0
    4.1030    2.6324    1.8113 H   0  0  0  0  0  0  0  0  0  0  0  0
    5.9909    1.2256    2.3386 H   0  0  0  0  0  0  0  0  0  0  0  0
    6.2580   -0.9311    1.1703 H   0  0  0  0  0  0  0  0  0  0  0  0
    4.6484   -1.6512   -0.5075 H   0  0  0  0  0  0  0  0  0  0  0  0
   -0.5174    0.9928   -2.4401 H   0  0  0  0  0  0  0  0  0  0  0  0
    0.6832    1.5649   -1.2886 H   0  0  0  0  0  0  0  0  0  0  0  0
   -1.4760    2.7415   -1.1471 H   0  0  0  0  0  0  0  0  0  0  0  0
   -0.8782    2.0941    0.4086 H   0  0  0  0  0  0  0  0  0  0  0  0
   -3.2390    1.2477   -1.3356 H   0  0  0  0  0  0  0  0  0  0  0  0
   -3.9133   -1.7218   -0.9388 H   0  0  0  0  0  0  0  0  0  0  0  0
   -3.6400   -1.6603    0.8915 H   0  0  0  0  0  0  0  0  0  0  0  0
   -5.6846   -0.7146    0.5634 H   0  0  0  0  0  0  0  0  0  0  0  0
   -5.2342    0.2240   -0.8644 H   0  0  0  0  0  0  0  0  0  0  0  0
   -4.6713    0.6477    2.0161 H   0  0  0  0  0  0  0  0  0  0  0  0
   -3.4243    2.6642    0.8027 H   0  0  0  0  0  0  0  0  0  0  0  0
   -2.6273    1.2854    1.6766 H   0  0  0  0  0  0  0  0  0  0  0  0
  1  2  1  0
  2  3  2  0
  3  4  1  0
  4  5  2  0
  5  6  1  0
  6  7  2  0
  7  8  1  0
  8  9  1  0
  9 10  2  0
 10 11  1  0
 11 12  2  0
 12 13  1  0
 13 14  2  0
  6 15  1  0
 15 16  1  0
 16 17  1  0
 17 18  1  0
 18 19  1  0
 19 20  1  0
 20 21  1  0
 21 22  1  0
  7  2  1  0
 14  9  1  0
 22 17  1  0
 18  5  1  0
  3 23  1  0
  4 24  1  0
  8 25  1  0
  8 26  1  0
 10 27  1  0
 11 28  1  0
 12 29  1  0
 13 30  1  0
 14 31  1  0
 15 32  1  0
 15 33  1  0
 16 34  1  0
 16 35  1  0
 17 36  1  0
 19 37  1  0
 19 38  1  0
 20 39  1  0
 20 40  1  0
 21 41  1  0
 22 42  1  0
 22 43  1  0
M  END
>  <Ligand ID>  (1) 
LIG0002999

>  <Ligand>  (1) 
CHEMBL3956394

>  <SMILES>  (1) 
Fc1ccc2c(c1Cc1ccccc1)CCC1N2CCNC1

>  <CID>  (1) 
134143977.0

>  <ChEMBL ID>  (1) 
nan

>  <InChiKey>  (1) 
SYDFROBMNFAPBV-UHFFFAOYSA-N

>  <InChi>  (1) 
InChI=1S/C19H21FN2/c20-18-8-9-19-16(7-6-15-13-21-10-11-22(15)19)17(18)12-14-4-2-1-3-5-14/h1-5,8-9,15,21H,6-7,10-13H2

>  <IUPAC Name>  (1) 
7-benzyl-8-fluoro-2,3,4,4a,5,6-hexahydro-1H-pyrazino[1,2-a]quinoline

$$$$
