
     RDKit          3D

 18 19  0  0  0  0  0  0  0  0999 V2000
   -1.4906    1.4080   -0.7148 N   0  0  0  0  0  0  0  0  0  0  0  0
   -1.5667   -0.0355   -0.6993 C   0  0  2  0  0  0  0  0  0  0  0  0
   -1.6098   -0.7109    0.6252 C   0  0  0  0  0  0  0  0  0  0  0  0
   -0.4359   -0.8933   -0.3510 C   0  0  2  0  0  0  0  0  0  0  0  0
    0.8737   -0.4019    0.0996 C   0  0  0  0  0  0  0  0  0  0  0  0
    2.0497   -1.1186    0.0117 C   0  0  0  0  0  0  0  0  0  0  0  0
    3.0589   -0.3765    0.5135 N   0  0  0  0  0  0  0  0  0  0  0  0
    2.5225    0.7997    0.9148 C   0  0  0  0  0  0  0  0  0  0  0  0
    1.1943    0.7962    0.6683 N   0  0  0  0  0  0  0  0  0  0  0  0
   -2.3220    1.7505   -0.1456 H   0  0  0  0  0  0  0  0  0  0  0  0
   -1.6618    1.7649   -1.6810 H   0  0  0  0  0  0  0  0  0  0  0  0
   -2.2785   -0.4268   -1.4765 H   0  0  0  0  0  0  0  0  0  0  0  0
   -2.3301   -1.5448    0.7439 H   0  0  0  0  0  0  0  0  0  0  0  0
   -1.3617   -0.1761    1.5485 H   0  0  0  0  0  0  0  0  0  0  0  0
   -0.3931   -1.9134   -0.7767 H   0  0  0  0  0  0  0  0  0  0  0  0
    2.2047   -2.1298   -0.3898 H   0  0  0  0  0  0  0  0  0  0  0  0
    3.0261    1.6433    1.3664 H   0  0  0  0  0  0  0  0  0  0  0  0
    0.5201    1.5649    0.8708 H   0  0  0  0  0  0  0  0  0  0  0  0
  1  2  1  0
  2  3  1  0
  3  4  1  0
  4  5  1  0
  5  6  2  0
  6  7  1  0
  7  8  2  0
  8  9  1  0
  4  2  1  0
  9  5  1  0
  1 10  1  0
  1 11  1  0
  2 12  1  6
  3 13  1  0
  3 14  1  0
  4 15  1  6
  6 16  1  0
  8 17  1  0
  9 18  1  0
M  END
>  <Ligand ID>  (1) 
LIG0001185

>  <Ligand>  (1) 
CHEMBL59389

>  <SMILES>  (1) 
N[C@@H]1C[C@@H]1c1cnc[nH]1

>  <CID>  (1) 
10986211.0

>  <ChEMBL ID>  (1) 
nan

>  <InChiKey>  (1) 
OWWNABDDYQLERE-CRCLSJGQSA-N

>  <InChi>  (1) 
InChI=1S/C6H9N3/c7-5-1-4(5)6-2-8-3-9-6/h2-5H,1,7H2,(H,8,9)/t4-,5+/m0/s1

>  <IUPAC Name>  (1) 
(1R,2S)-2-(1H-imidazol-5-yl)cyclopropan-1-amine

$$$$
