
     RDKit          3D

 65 68  0  0  0  0  0  0  0  0999 V2000
   -6.7113    5.9245   -0.6663 N   0  0  0  0  0  0  0  0  0  0  0  0
   -5.9797    4.6905   -0.4134 C   0  0  0  0  0  0  0  0  0  0  0  0
   -4.5068    4.8449   -0.7197 C   0  0  0  0  0  0  0  0  0  0  0  0
   -3.8569    3.4898   -0.4141 C   0  0  0  0  0  0  0  0  0  0  0  0
   -2.3878    3.5159   -0.6816 C   0  0  0  0  0  0  0  0  0  0  0  0
   -1.8100    2.2218   -0.3802 N   0  0  0  0  0  0  0  0  0  0  0  0
   -2.1998    1.0239   -1.0296 C   0  0  0  0  0  0  0  0  0  0  0  0
   -3.0848    1.0067   -1.9222 O   0  0  0  0  0  0  0  0  0  0  0  0
   -1.5819   -0.3091   -0.6962 C   0  0  2  0  0  0  0  0  0  0  0  0
   -2.6121   -1.2460   -0.1273 C   0  0  0  0  0  0  0  0  0  0  0  0
   -2.1099   -2.5752    0.2317 C   0  0  0  0  0  0  0  0  0  0  0  0
   -1.8308   -3.0789    1.4965 C   0  0  0  0  0  0  0  0  0  0  0  0
   -1.3892   -4.3344    1.4138 N   0  0  0  0  0  0  0  0  0  0  0  0
   -1.3560   -4.7132    0.1172 C   0  0  0  0  0  0  0  0  0  0  0  0
   -1.8007   -3.6322   -0.6328 C   0  0  0  0  0  0  0  0  0  0  0  0
   -1.8793   -3.7167   -2.0129 C   0  0  0  0  0  0  0  0  0  0  0  0
   -1.5133   -4.8864   -2.6623 C   0  0  0  0  0  0  0  0  0  0  0  0
   -1.0711   -5.9631   -1.9242 C   0  0  0  0  0  0  0  0  0  0  0  0
   -0.9936   -5.8745   -0.5408 C   0  0  0  0  0  0  0  0  0  0  0  0
   -0.6014   -0.0502    0.3394 N   0  0  0  0  0  0  0  0  0  0  0  0
    0.7641   -0.2351    0.0323 C   0  0  0  0  0  0  0  0  0  0  0  0
    1.1453   -0.6137   -1.1070 O   0  0  0  0  0  0  0  0  0  0  0  0
    1.7451    0.0101    1.0285 N   0  0  0  0  0  0  0  0  0  0  0  0
    3.0826   -0.1864    0.6670 N   0  0  0  0  0  0  0  0  0  0  0  0
    3.4297   -1.5456    0.9427 C   0  0  0  0  0  0  0  0  0  0  0  0
    4.9062   -1.8180    0.8508 C   0  0  0  0  0  0  0  0  0  0  0  0
    5.7476   -0.6184    0.8008 C   0  0  0  0  0  0  0  0  0  0  0  0
    5.2813    0.6630    1.1120 C   0  0  0  0  0  0  0  0  0  0  0  0
    3.8510    0.7486    1.5056 C   0  0  0  0  0  0  0  0  0  0  0  0
    6.1064    1.7706    1.0533 C   0  0  0  0  0  0  0  0  0  0  0  0
    7.4359    1.6557    0.6819 C   0  0  0  0  0  0  0  0  0  0  0  0
    7.8782    0.3822    0.3782 C   0  0  0  0  0  0  0  0  0  0  0  0
    7.0569   -0.7265    0.4357 C   0  0  0  0  0  0  0  0  0  0  0  0
   -6.4470    6.2294   -1.6474 H   0  0  0  0  0  0  0  0  0  0  0  0
   -6.3566    6.6514   -0.0098 H   0  0  0  0  0  0  0  0  0  0  0  0
   -6.0867    4.3375    0.6194 H   0  0  0  0  0  0  0  0  0  0  0  0
   -6.3532    3.8910   -1.1133 H   0  0  0  0  0  0  0  0  0  0  0  0
   -4.3340    5.1775   -1.7501 H   0  0  0  0  0  0  0  0  0  0  0  0
   -4.1144    5.6023   -0.0112 H   0  0  0  0  0  0  0  0  0  0  0  0
   -4.3503    2.7201   -1.0047 H   0  0  0  0  0  0  0  0  0  0  0  0
   -4.0835    3.2903    0.6442 H   0  0  0  0  0  0  0  0  0  0  0  0
   -1.9569    4.3178   -0.0591 H   0  0  0  0  0  0  0  0  0  0  0  0
   -2.1797    3.8133   -1.7323 H   0  0  0  0  0  0  0  0  0  0  0  0
   -1.0592    2.1685    0.3624 H   0  0  0  0  0  0  0  0  0  0  0  0
   -1.1413   -0.6595   -1.6311 H   0  0  0  0  0  0  0  0  0  0  0  0
   -3.1883   -0.7918    0.7023 H   0  0  0  0  0  0  0  0  0  0  0  0
   -3.3787   -1.3997   -0.9410 H   0  0  0  0  0  0  0  0  0  0  0  0
   -1.9441   -2.5527    2.4424 H   0  0  0  0  0  0  0  0  0  0  0  0
   -1.1095   -4.9352    2.2442 H   0  0  0  0  0  0  0  0  0  0  0  0
   -2.2345   -2.8467   -2.5770 H   0  0  0  0  0  0  0  0  0  0  0  0
   -1.5678   -4.9747   -3.7547 H   0  0  0  0  0  0  0  0  0  0  0  0
   -0.7681   -6.9075   -2.3527 H   0  0  0  0  0  0  0  0  0  0  0  0
   -0.6457   -6.7220    0.0371 H   0  0  0  0  0  0  0  0  0  0  0  0
   -0.9645    0.2632    1.2678 H   0  0  0  0  0  0  0  0  0  0  0  0
    1.4552    0.3253    1.9913 H   0  0  0  0  0  0  0  0  0  0  0  0
    2.8860   -2.1774    0.2170 H   0  0  0  0  0  0  0  0  0  0  0  0
    3.0491   -1.7993    1.9665 H   0  0  0  0  0  0  0  0  0  0  0  0
    5.2106   -2.4029    1.7463 H   0  0  0  0  0  0  0  0  0  0  0  0
    5.1229   -2.4793   -0.0204 H   0  0  0  0  0  0  0  0  0  0  0  0
    3.6847    0.4120    2.5363 H   0  0  0  0  0  0  0  0  0  0  0  0
    3.4787    1.7561    1.2632 H   0  0  0  0  0  0  0  0  0  0  0  0
    5.6800    2.7329    1.3073 H   0  0  0  0  0  0  0  0  0  0  0  0
    8.0856    2.5061    0.6327 H   0  0  0  0  0  0  0  0  0  0  0  0
    8.9327    0.3037    0.0851 H   0  0  0  0  0  0  0  0  0  0  0  0
    7.5248   -1.6745    0.1724 H   0  0  0  0  0  0  0  0  0  0  0  0
  1  2  1  0
  2  3  1  0
  3  4  1  0
  4  5  1  0
  5  6  1  0
  6  7  1  0
  7  8  2  0
  7  9  1  0
  9 10  1  0
 10 11  1  0
 11 12  2  0
 12 13  1  0
 13 14  1  0
 14 15  2  0
 15 16  1  0
 16 17  2  0
 17 18  1  0
 18 19  2  0
  9 20  1  0
 20 21  1  0
 21 22  2  0
 21 23  1  0
 23 24  1  0
 24 25  1  0
 25 26  1  0
 26 27  1  0
 27 28  2  0
 28 29  1  0
 28 30  1  0
 30 31  2  0
 31 32  1  0
 32 33  2  0
 15 11  1  0
 29 24  1  0
 19 14  1  0
 33 27  1  0
  1 34  1  0
  1 35  1  0
  2 36  1  0
  2 37  1  0
  3 38  1  0
  3 39  1  0
  4 40  1  0
  4 41  1  0
  5 42  1  0
  5 43  1  0
  6 44  1  0
  9 45  1  6
 10 46  1  0
 10 47  1  0
 12 48  1  0
 13 49  1  0
 16 50  1  0
 17 51  1  0
 18 52  1  0
 19 53  1  0
 20 54  1  0
 23 55  1  0
 25 56  1  0
 25 57  1  0
 26 58  1  0
 26 59  1  0
 29 60  1  0
 29 61  1  0
 30 62  1  0
 31 63  1  0
 32 64  1  0
 33 65  1  0
M  END
>  <Ligand ID>  (1) 
LIG0001380

>  <Ligand>  (1) 
CHEMBL62228

>  <SMILES>  (1) 
NCCCCNC(=O)[C@H](Cc1c[nH]c2c1cccc2)NC(=O)NN1CCc2c(C1)cccc2

>  <CID>  (1) 
44305770.0

>  <ChEMBL ID>  (1) 
nan

>  <InChiKey>  (1) 
BLQZIVNHYRDWGF-QHCPKHFHSA-N

>  <InChi>  (1) 
InChI=1S/C25H32N6O2/c26-12-5-6-13-27-24(32)23(15-20-16-28-22-10-4-3-9-21(20)22)29-25(33)30-31-14-11-18-7-1-2-8-19(18)17-31/h1-4,7-10,16,23,28H,5-6,11-15,17,26H2,(H,27,32)(H2,29,30,33)/t23-/m0/s1

>  <IUPAC Name>  (1) 
(2S)-N-(4-aminobutyl)-2-(3,4-dihydro-1H-isoquinolin-2-ylcarbamoylamino)-3-(1H-indol-3-yl)propanamide

$$$$
