
     RDKit          3D

 46 48  0  0  0  0  0  0  0  0999 V2000
   -2.3331    0.4841   -1.3501 C   0  0  0  0  0  0  0  0  0  0  0  0
   -2.1458   -0.5466   -0.3109 C   0  0  0  0  0  0  0  0  0  0  0  0
   -3.2385   -0.9327    0.3690 C   0  0  0  0  0  0  0  0  0  0  0  0
   -4.5722   -0.4253    0.1734 C   0  0  0  0  0  0  0  0  0  0  0  0
   -4.9229    0.9003    0.0781 C   0  0  0  0  0  0  0  0  0  0  0  0
   -6.2458    1.2596   -0.1314 C   0  0  0  0  0  0  0  0  0  0  0  0
   -7.2280    0.2929   -0.2468 C   0  0  0  0  0  0  0  0  0  0  0  0
   -6.9026   -1.0381   -0.1552 C   0  0  0  0  0  0  0  0  0  0  0  0
   -5.5896   -1.3807    0.0523 C   0  0  0  0  0  0  0  0  0  0  0  0
   -0.8886   -1.1997    0.0313 C   0  0  0  0  0  0  0  0  0  0  0  0
    0.1852   -0.4300    0.5363 N   0  0  0  0  0  0  0  0  0  0  0  0
    1.2370   -1.3610    0.8892 C   0  0  0  0  0  0  0  0  0  0  0  0
    2.4338   -0.6859    1.4774 C   0  0  0  0  0  0  0  0  0  0  0  0
    2.9713    0.1746    0.4436 N   0  0  0  0  0  0  0  0  0  0  0  0
    2.0779    0.8245   -0.4542 C   0  0  0  0  0  0  0  0  0  0  0  0
    0.6166    0.7038   -0.1732 C   0  0  0  0  0  0  0  0  0  0  0  0
    4.3683    0.4025    0.2836 C   0  0  0  0  0  0  0  0  0  0  0  0
    5.3025   -0.1416    1.1665 C   0  0  0  0  0  0  0  0  0  0  0  0
    6.6569    0.0938    0.9789 C   0  0  0  0  0  0  0  0  0  0  0  0
    7.1269    0.8509   -0.0528 C   0  0  0  0  0  0  0  0  0  0  0  0
    6.2124    1.4027   -0.9436 C   0  0  0  0  0  0  0  0  0  0  0  0
    4.8497    1.1699   -0.7615 C   0  0  0  0  0  0  0  0  0  0  0  0
   -3.4090    0.4682   -1.7148 H   0  0  0  0  0  0  0  0  0  0  0  0
   -2.1441    1.5190   -1.0266 H   0  0  0  0  0  0  0  0  0  0  0  0
   -1.7982    0.2173   -2.3182 H   0  0  0  0  0  0  0  0  0  0  0  0
   -3.1391   -1.7071    1.1548 H   0  0  0  0  0  0  0  0  0  0  0  0
   -4.1836    1.6531    0.1771 H   0  0  0  0  0  0  0  0  0  0  0  0
   -6.4966    2.3175   -0.2042 H   0  0  0  0  0  0  0  0  0  0  0  0
   -8.2619    0.6010   -0.4096 H   0  0  0  0  0  0  0  0  0  0  0  0
   -7.6615   -1.8077   -0.2444 H   0  0  0  0  0  0  0  0  0  0  0  0
   -5.3346   -2.4507    0.1281 H   0  0  0  0  0  0  0  0  0  0  0  0
   -1.0863   -2.0206    0.7695 H   0  0  0  0  0  0  0  0  0  0  0  0
   -0.5930   -1.7791   -0.9070 H   0  0  0  0  0  0  0  0  0  0  0  0
    0.7984   -2.0384    1.6487 H   0  0  0  0  0  0  0  0  0  0  0  0
    1.5315   -1.9912    0.0252 H   0  0  0  0  0  0  0  0  0  0  0  0
    3.1805   -1.5027    1.6765 H   0  0  0  0  0  0  0  0  0  0  0  0
    2.1560   -0.1327    2.3977 H   0  0  0  0  0  0  0  0  0  0  0  0
    2.2891    0.3776   -1.4753 H   0  0  0  0  0  0  0  0  0  0  0  0
    2.4097    1.8826   -0.5375 H   0  0  0  0  0  0  0  0  0  0  0  0
    0.0968    0.7603   -1.1462 H   0  0  0  0  0  0  0  0  0  0  0  0
    0.3123    1.6249    0.3936 H   0  0  0  0  0  0  0  0  0  0  0  0
    5.0216   -0.7393    1.9955 H   0  0  0  0  0  0  0  0  0  0  0  0
    7.3831   -0.3277    1.6589 H   0  0  0  0  0  0  0  0  0  0  0  0
    8.2105    1.0156   -0.1723 H   0  0  0  0  0  0  0  0  0  0  0  0
    6.5454    2.0143   -1.7856 H   0  0  0  0  0  0  0  0  0  0  0  0
    4.2015    1.6283   -1.4884 H   0  0  0  0  0  0  0  0  0  0  0  0
  1  2  1  0
  2  3  2  0
  3  4  1  0
  4  5  2  0
  5  6  1  0
  6  7  2  0
  7  8  1  0
  8  9  2  0
  2 10  1  0
 10 11  1  0
 11 12  1  0
 12 13  1  0
 13 14  1  0
 14 15  1  0
 15 16  1  0
 14 17  1  0
 17 18  2  0
 18 19  1  0
 19 20  2  0
 20 21  1  0
 21 22  2  0
  9  4  1  0
 16 11  1  0
 22 17  1  0
  1 23  1  0
  1 24  1  0
  1 25  1  0
  3 26  1  0
  5 27  1  0
  6 28  1  0
  7 29  1  0
  8 30  1  0
  9 31  1  0
 10 32  1  0
 10 33  1  0
 12 34  1  0
 12 35  1  0
 13 36  1  0
 13 37  1  0
 15 38  1  0
 15 39  1  0
 16 40  1  0
 16 41  1  0
 18 42  1  0
 19 43  1  0
 20 44  1  0
 21 45  1  0
 22 46  1  0
M  END
>  <Ligand ID>  (1) 
LIG0005565

>  <Ligand>  (1) 
MLS000106549

>  <SMILES>  (1) 
C/C(=C\c1ccccc1)/CN1CCN(CC1)c1ccccc1

>  <CID>  (1) 
2056866.0

>  <ChEMBL ID>  (1) 
nan

>  <InChiKey>  (1) 
KOXGXYYTDWHSTG-FBMGVBCBSA-N

>  <InChi>  (1) 
InChI=1S/C20H24N2/c1-18(16-19-8-4-2-5-9-19)17-21-12-14-22(15-13-21)20-10-6-3-7-11-20/h2-11,16H,12-15,17H2,1H3/b18-16+

>  <IUPAC Name>  (1) 
1-[(E)-2-methyl-3-phenylprop-2-enyl]-4-phenylpiperazine

$$$$
