
     RDKit          3D

 69 70  0  0  0  0  0  0  0  0999 V2000
   -5.4976    3.5392   -0.1713 O   0  0  0  0  0  0  0  0  0  0  0  0
   -4.7745    2.6015   -0.9331 C   0  0  0  0  0  0  0  0  0  0  0  0
   -5.0363    2.4532   -2.2775 C   0  0  0  0  0  0  0  0  0  0  0  0
   -4.3116    1.5294   -2.9882 C   0  0  0  0  0  0  0  0  0  0  0  0
   -3.3294    0.7557   -2.3624 C   0  0  0  0  0  0  0  0  0  0  0  0
   -3.0527    0.8908   -1.0140 C   0  0  0  0  0  0  0  0  0  0  0  0
   -3.7911    1.8240   -0.3162 C   0  0  0  0  0  0  0  0  0  0  0  0
   -2.0126    0.0667   -0.3384 C   0  0  2  0  0  0  0  0  0  0  0  0
   -1.4144   -0.9046   -1.3342 C   0  0  0  0  0  0  0  0  0  0  0  0
   -0.4128   -1.7218   -0.5504 C   0  0  2  0  0  0  0  0  0  0  0  0
   -1.0684   -2.4900    0.5658 C   0  0  0  0  0  0  0  0  0  0  0  0
   -1.8384   -1.5840    1.5048 C   0  0  1  0  0  0  0  0  0  0  0  0
   -2.7637   -0.7531    0.6855 C   0  0  0  0  0  0  0  0  0  0  0  0
   -2.5920   -2.4383    2.3963 N   0  0  0  0  0  0  0  0  0  0  0  0
   -1.6332   -3.2644    3.1116 C   0  0  0  0  0  0  0  0  0  0  0  0
   -3.3645   -1.6863    3.3591 C   0  0  0  0  0  0  0  0  0  0  0  0
    0.6524   -0.8946   -0.1589 N   0  0  0  0  0  0  0  0  0  0  0  0
    0.4365    0.4638    0.1111 C   0  0  0  0  0  0  0  0  0  0  0  0
   -0.9666    0.9454    0.2876 C   0  0  1  0  0  0  0  0  0  0  0  0
   -1.1115    2.3643   -0.2365 C   0  0  0  0  0  0  0  0  0  0  0  0
    1.9202   -1.1726   -0.7482 C   0  0  0  0  0  0  0  0  0  0  0  0
    2.9892   -0.2505   -0.2598 C   0  0  0  0  0  0  0  0  0  0  0  0
    4.2865   -0.6500   -0.9580 C   0  0  0  0  0  0  0  0  0  0  0  0
    5.4074    0.2419   -0.5093 C   0  0  0  0  0  0  0  0  0  0  0  0
    6.1750   -0.1184    0.6039 C   0  0  0  0  0  0  0  0  0  0  0  0
    7.2065    0.6817    1.0344 C   0  0  0  0  0  0  0  0  0  0  0  0
    7.4926    1.8454    0.3722 C   0  0  0  0  0  0  0  0  0  0  0  0
    6.7410    2.1878   -0.7092 C   0  0  0  0  0  0  0  0  0  0  0  0
    5.6842    1.4186   -1.1922 C   0  0  0  0  0  0  0  0  0  0  0  0
    0.6866    0.0000    0.0000 Cl  0  0  0  0  0  0  0  0  0  0  0  0
    0.6921    0.0000    0.0000 Cl  0  0  0  0  0  0  0  0  0  0  0  0
   -5.5511    3.4082    0.8508 H   0  0  0  0  0  0  0  0  0  0  0  0
   -5.8021    3.0762   -2.6998 H   0  0  0  0  0  0  0  0  0  0  0  0
   -4.5182    1.4154   -4.0387 H   0  0  0  0  0  0  0  0  0  0  0  0
   -2.7809    0.0397   -2.9565 H   0  0  0  0  0  0  0  0  0  0  0  0
   -3.6462    1.9975    0.7412 H   0  0  0  0  0  0  0  0  0  0  0  0
   -2.2026   -1.5797   -1.6925 H   0  0  0  0  0  0  0  0  0  0  0  0
   -0.8525   -0.3951   -2.1282 H   0  0  0  0  0  0  0  0  0  0  0  0
   -0.0164   -2.5053   -1.2546 H   0  0  0  0  0  0  0  0  0  0  0  0
   -0.3047   -3.0723    1.0772 H   0  0  0  0  0  0  0  0  0  0  0  0
   -1.8182   -3.1663    0.1051 H   0  0  0  0  0  0  0  0  0  0  0  0
   -1.1622   -0.9787    2.1319 H   0  0  0  0  0  0  0  0  0  0  0  0
   -3.3884   -1.4746    0.0827 H   0  0  0  0  0  0  0  0  0  0  0  0
   -3.4825   -0.1557    1.2797 H   0  0  0  0  0  0  0  0  0  0  0  0
   -0.6382   -2.7435    3.1883 H   0  0  0  0  0  0  0  0  0  0  0  0
   -1.9684   -3.4695    4.1535 H   0  0  0  0  0  0  0  0  0  0  0  0
   -1.5230   -4.2554    2.5988 H   0  0  0  0  0  0  0  0  0  0  0  0
   -4.4390   -1.8339    3.1057 H   0  0  0  0  0  0  0  0  0  0  0  0
   -3.0587   -0.6391    3.4401 H   0  0  0  0  0  0  0  0  0  0  0  0
   -3.2448   -2.1251    4.3778 H   0  0  0  0  0  0  0  0  0  0  0  0
    0.8331    1.0288   -0.7881 H   0  0  0  0  0  0  0  0  0  0  0  0
    1.0972    0.7877    0.9435 H   0  0  0  0  0  0  0  0  0  0  0  0
   -1.1822    0.9773    1.3745 H   0  0  0  0  0  0  0  0  0  0  0  0
   -0.0684    2.7592   -0.4293 H   0  0  0  0  0  0  0  0  0  0  0  0
   -1.5251    3.0719    0.5024 H   0  0  0  0  0  0  0  0  0  0  0  0
   -1.5911    2.4161   -1.2352 H   0  0  0  0  0  0  0  0  0  0  0  0
    2.2500   -2.2154   -0.6523 H   0  0  0  0  0  0  0  0  0  0  0  0
    1.8215   -0.9731   -1.8547 H   0  0  0  0  0  0  0  0  0  0  0  0
    3.1623   -0.3151    0.8338 H   0  0  0  0  0  0  0  0  0  0  0  0
    2.8283    0.8088   -0.4949 H   0  0  0  0  0  0  0  0  0  0  0  0
    4.1644   -0.6679   -2.0484 H   0  0  0  0  0  0  0  0  0  0  0  0
    4.5266   -1.6877   -0.6227 H   0  0  0  0  0  0  0  0  0  0  0  0
    5.9290   -1.0560    1.1210 H   0  0  0  0  0  0  0  0  0  0  0  0
    7.7600    0.3421    1.9034 H   0  0  0  0  0  0  0  0  0  0  0  0
    8.3081    2.4858    0.7059 H   0  0  0  0  0  0  0  0  0  0  0  0
    6.9687    3.1191   -1.2405 H   0  0  0  0  0  0  0  0  0  0  0  0
    5.0957    1.6948   -2.0457 H   0  0  0  0  0  0  0  0  0  0  0  0
   -0.6866    0.0000    0.0000 H   0  0  0  0  0  0  0  0  0  0  0  0
   -0.6921    0.0000    0.0000 H   0  0  0  0  0  0  0  0  0  0  0  0
  1  2  1  0
  2  3  2  0
  3  4  1  0
  4  5  2  0
  5  6  1  0
  6  7  2  0
  8  6  1  6
  8  9  1  0
  9 10  1  0
 10 11  1  0
 11 12  1  0
 12 13  1  0
 12 14  1  0
 14 15  1  0
 14 16  1  0
 10 17  1  0
 17 18  1  0
 18 19  1  0
 19 20  1  0
 17 21  1  0
 21 22  1  0
 22 23  1  0
 23 24  1  0
 24 25  2  0
 25 26  1  0
 26 27  2  0
 27 28  1  0
 28 29  2  0
  7  2  1  0
 13  8  1  0
 29 24  1  0
 19  8  1  0
  1 32  1  0
  3 33  1  0
  4 34  1  0
  5 35  1  0
  7 36  1  0
  9 37  1  0
  9 38  1  0
 10 39  1  6
 11 40  1  0
 11 41  1  0
 12 42  1  1
 13 43  1  0
 13 44  1  0
 15 45  1  0
 15 46  1  0
 15 47  1  0
 16 48  1  0
 16 49  1  0
 16 50  1  0
 18 51  1  0
 18 52  1  0
 19 53  1  1
 20 54  1  0
 20 55  1  0
 20 56  1  0
 21 57  1  0
 21 58  1  0
 22 59  1  0
 22 60  1  0
 23 61  1  0
 23 62  1  0
 25 63  1  0
 26 64  1  0
 27 65  1  0
 28 66  1  0
 29 67  1  0
 30 68  1  0
 31 69  1  0
M  END
>  <Ligand ID>  (1) 
LIG0005253

>  <Ligand>  (1) 
CHEMBL3216613

>  <SMILES>  (1) 
Oc1cccc(c1)[C@]12C[C@H](C[C@@H](C1)N(C)C)N(C[C@H]2C)CCCc1ccccc1.Cl.Cl

>  <CID>  (1) 
72713102.0

>  <ChEMBL ID>  (1) 
nan

>  <InChiKey>  (1) 
QHTQDWDQNYDZCZ-ZYQPZWKOSA-N

>  <InChi>  (1) 
InChI=1S/C26H36N2O.2ClH/c1-20-19-28(14-8-11-21-9-5-4-6-10-21)24-16-23(27(2)3)17-26(20,18-24)22-12-7-13-25(29)15-22;;/h4-7,9-10,12-13,15,20,23-24,29H,8,11,14,16-19H2,1-3H3;2*1H/t20-,23+,24+,26+;;/m1../s1

>  <IUPAC Name>  (1) 
3-[(1R,4S,5S,7R)-7-(dimethylamino)-4-methyl-2-(3-phenylpropyl)-2-azabicyclo[3.3.1]nonan-5-yl]phenol;dihydrochloride

$$$$
