
     RDKit          3D

 52 54  0  0  0  0  0  0  0  0999 V2000
    1.6313    2.0129    1.0451 C   0  0  0  0  0  0  0  0  0  0  0  0
    1.8528    1.6273   -0.3886 C   0  0  2  0  0  0  0  0  0  0  0  0
    0.7988    2.1991   -1.3082 C   0  0  0  0  0  0  0  0  0  0  0  0
   -0.5275    1.7070   -0.9203 C   0  0  0  0  0  0  0  0  0  0  0  0
   -1.0023    0.5413   -1.5373 C   0  0  0  0  0  0  0  0  0  0  0  0
   -2.2472    0.0359   -1.1960 C   0  0  0  0  0  0  0  0  0  0  0  0
   -3.0636    0.6367   -0.2576 C   0  0  0  0  0  0  0  0  0  0  0  0
   -2.5922    1.7769    0.3411 C   0  0  0  0  0  0  0  0  0  0  0  0
   -1.3453    2.3059    0.0178 C   0  0  0  0  0  0  0  0  0  0  0  0
   -4.3549    0.0322    0.0385 C   0  0  0  0  0  0  0  0  0  0  0  0
   -4.9402    0.1220    1.2971 C   0  0  0  0  0  0  0  0  0  0  0  0
   -6.1747   -0.5006    1.4614 C   0  0  0  0  0  0  0  0  0  0  0  0
   -6.8015   -1.1776    0.4377 C   0  0  0  0  0  0  0  0  0  0  0  0
   -6.2141   -1.2601   -0.8029 C   0  0  0  0  0  0  0  0  0  0  0  0
   -4.9917   -0.6508   -0.9873 C   0  0  0  0  0  0  0  0  0  0  0  0
   -8.0933   -1.8093    0.6741 C   0  0  0  0  0  0  0  0  0  0  0  0
   -8.6675   -1.7655    1.7779 O   0  0  0  0  0  0  0  0  0  0  0  0
   -8.7341   -2.4949   -0.3530 O   0  0  0  0  0  0  0  0  0  0  0  0
    1.9510    0.2213   -0.5944 N   0  0  0  0  0  0  0  0  0  0  0  0
    3.0446   -0.4485    0.0368 C   0  0  0  0  0  0  0  0  0  0  0  0
    4.3323   -0.0222   -0.6210 C   0  0  1  0  0  0  0  0  0  0  0  0
    5.4540   -0.7610    0.0383 C   0  0  0  0  0  0  0  0  0  0  0  0
    6.3328   -0.1623    0.9112 C   0  0  0  0  0  0  0  0  0  0  0  0
    7.3540   -0.8818    1.4910 C   0  0  0  0  0  0  0  0  0  0  0  0
    7.4956   -2.2268    1.1889 C   0  0  0  0  0  0  0  0  0  0  0  0
    6.6173   -2.8034    0.3230 N   0  0  0  0  0  0  0  0  0  0  0  0
    5.6159   -2.1088   -0.2482 C   0  0  0  0  0  0  0  0  0  0  0  0
    4.2752   -0.3383   -1.9796 O   0  0  0  0  0  0  0  0  0  0  0  0
    1.6411    3.1185    1.1845 H   0  0  0  0  0  0  0  0  0  0  0  0
    0.6651    1.6436    1.4451 H   0  0  0  0  0  0  0  0  0  0  0  0
    2.4840    1.6435    1.6450 H   0  0  0  0  0  0  0  0  0  0  0  0
    2.8192    2.1092   -0.6887 H   0  0  0  0  0  0  0  0  0  0  0  0
    0.8488    3.3202   -1.3217 H   0  0  0  0  0  0  0  0  0  0  0  0
    0.9792    1.9038   -2.3692 H   0  0  0  0  0  0  0  0  0  0  0  0
   -0.4172    0.0201   -2.2903 H   0  0  0  0  0  0  0  0  0  0  0  0
   -2.5559   -0.8692   -1.7062 H   0  0  0  0  0  0  0  0  0  0  0  0
   -3.2298    2.2589    1.0842 H   0  0  0  0  0  0  0  0  0  0  0  0
   -0.9844    3.2180    0.5067 H   0  0  0  0  0  0  0  0  0  0  0  0
   -4.4495    0.6459    2.0803 H   0  0  0  0  0  0  0  0  0  0  0  0
   -6.6864   -0.4678    2.4188 H   0  0  0  0  0  0  0  0  0  0  0  0
   -6.6944   -1.7919   -1.6220 H   0  0  0  0  0  0  0  0  0  0  0  0
   -4.5635   -0.7402   -1.9856 H   0  0  0  0  0  0  0  0  0  0  0  0
   -9.7523   -2.6094   -0.4090 H   0  0  0  0  0  0  0  0  0  0  0  0
    1.0387   -0.2819   -0.4518 H   0  0  0  0  0  0  0  0  0  0  0  0
    3.1559   -0.2025    1.1268 H   0  0  0  0  0  0  0  0  0  0  0  0
    2.8863   -1.5446   -0.0377 H   0  0  0  0  0  0  0  0  0  0  0  0
    4.4881    1.0463   -0.4331 H   0  0  0  0  0  0  0  0  0  0  0  0
    6.2125    0.8951    1.1417 H   0  0  0  0  0  0  0  0  0  0  0  0
    8.0714   -0.4597    2.1820 H   0  0  0  0  0  0  0  0  0  0  0  0
    8.2772   -2.8149    1.6222 H   0  0  0  0  0  0  0  0  0  0  0  0
    4.9199   -2.6006   -0.9451 H   0  0  0  0  0  0  0  0  0  0  0  0
    3.8407   -1.2470   -2.0525 H   0  0  0  0  0  0  0  0  0  0  0  0
  1  2  1  0
  2  3  1  0
  3  4  1  0
  4  5  2  0
  5  6  1  0
  6  7  2  0
  7  8  1  0
  8  9  2  0
  7 10  1  0
 10 11  2  0
 11 12  1  0
 12 13  2  0
 13 14  1  0
 14 15  2  0
 13 16  1  0
 16 17  2  0
 16 18  1  0
  2 19  1  0
 19 20  1  0
 20 21  1  0
 21 22  1  0
 22 23  2  0
 23 24  1  0
 24 25  2  0
 25 26  1  0
 26 27  2  0
 21 28  1  0
  9  4  1  0
 15 10  1  0
 27 22  1  0
  1 29  1  0
  1 30  1  0
  1 31  1  0
  2 32  1  6
  3 33  1  0
  3 34  1  0
  5 35  1  0
  6 36  1  0
  8 37  1  0
  9 38  1  0
 11 39  1  0
 12 40  1  0
 14 41  1  0
 15 42  1  0
 18 43  1  0
 19 44  1  0
 20 45  1  0
 20 46  1  0
 21 47  1  6
 23 48  1  0
 24 49  1  0
 25 50  1  0
 27 51  1  0
 28 52  1  0
M  END
>  <Ligand ID>  (1) 
LIG0002205

>  <Ligand>  (1) 
CHEMBL510102

>  <SMILES>  (1) 
C[C@H](Cc1ccc(cc1)c1ccc(cc1)C(=O)O)NC[C@@H](c1cccnc1)O

>  <CID>  (1) 
44560791.0

>  <ChEMBL ID>  (1) 
nan

>  <InChiKey>  (1) 
OTLVQMFMIFVEFP-ZHRRBRCNSA-N

>  <InChi>  (1) 
InChI=1S/C23H24N2O3/c1-16(25-15-22(26)21-3-2-12-24-14-21)13-17-4-6-18(7-5-17)19-8-10-20(11-9-19)23(27)28/h2-12,14,16,22,25-26H,13,15H2,1H3,(H,27,28)/t16-,22+/m1/s1

>  <IUPAC Name>  (1) 
4-[4-[(2R)-2-[[(2R)-2-hydroxy-2-pyridin-3-ylethyl]amino]propyl]phenyl]benzoic acid

$$$$
