
     RDKit          3D

 40 42  0  0  0  0  0  0  0  0999 V2000
   -1.9610    0.5867    1.3717 O   0  0  0  0  0  0  0  0  0  0  0  0
   -1.5574   -0.1726    0.4381 C   0  0  0  0  0  0  0  0  0  0  0  0
   -2.5370   -0.6711   -0.4890 N   0  0  0  0  0  0  0  0  0  0  0  0
   -3.9087   -0.3023   -0.3324 C   0  0  0  0  0  0  0  0  0  0  0  0
   -4.4122    0.8238   -0.9470 C   0  0  0  0  0  0  0  0  0  0  0  0
   -5.7254    1.1754   -0.7960 C   0  0  0  0  0  0  0  0  0  0  0  0
   -6.5474    0.3682   -0.0046 C   0  0  0  0  0  0  0  0  0  0  0  0
   -6.0430   -0.7706    0.6184 C   0  0  0  0  0  0  0  0  0  0  0  0
   -4.7009   -1.1230    0.4594 C   0  0  0  0  0  0  0  0  0  0  0  0
   -7.9808    0.6770    0.2111 C   0  0  0  0  0  0  0  0  0  0  0  0
   -8.1913    1.2544    1.4543 F   0  0  0  0  0  0  0  0  0  0  0  0
   -8.3739    1.6132   -0.7286 F   0  0  0  0  0  0  0  0  0  0  0  0
   -8.7232   -0.4715    0.1634 F   0  0  0  0  0  0  0  0  0  0  0  0
   -0.1216   -0.5363    0.3046 C   0  0  0  0  0  0  0  0  0  0  0  0
    0.6472    0.1285    1.4053 C   0  0  0  0  0  0  0  0  0  0  0  0
    2.0843   -0.2393    1.2666 C   0  0  0  0  0  0  0  0  0  0  0  0
    2.5872   -1.3049    1.8580 O   0  0  0  0  0  0  0  0  0  0  0  0
    3.8667   -1.3926    1.5707 N   0  0  0  0  0  0  0  0  0  0  0  0
    4.1743   -0.3657    0.7858 C   0  0  0  0  0  0  0  0  0  0  0  0
    3.0578    0.3861    0.5752 N   0  0  0  0  0  0  0  0  0  0  0  0
    5.5207   -0.1006    0.2394 C   0  0  0  0  0  0  0  0  0  0  0  0
    6.5172   -0.9838    0.5722 C   0  0  0  0  0  0  0  0  0  0  0  0
    7.7958   -0.7480    0.0642 C   0  0  0  0  0  0  0  0  0  0  0  0
    8.0344    0.3577   -0.7558 C   0  0  0  0  0  0  0  0  0  0  0  0
    7.0012    1.2298   -1.0711 C   0  0  0  0  0  0  0  0  0  0  0  0
    5.7303    1.0075   -0.5745 C   0  0  0  0  0  0  0  0  0  0  0  0
    4.4244    2.1138   -0.9758 Cl  0  0  0  0  0  0  0  0  0  0  0  0
    9.2766    0.5963   -1.2559 F   0  0  0  0  0  0  0  0  0  0  0  0
   -2.2659   -1.3016   -1.2803 H   0  0  0  0  0  0  0  0  0  0  0  0
   -3.7951    1.4662   -1.5658 H   0  0  0  0  0  0  0  0  0  0  0  0
   -6.1478    2.0674   -1.2759 H   0  0  0  0  0  0  0  0  0  0  0  0
   -6.7019   -1.3936    1.2365 H   0  0  0  0  0  0  0  0  0  0  0  0
   -4.2833   -2.0086    0.9363 H   0  0  0  0  0  0  0  0  0  0  0  0
   -0.0098   -1.6484    0.4204 H   0  0  0  0  0  0  0  0  0  0  0  0
    0.3160   -0.2827   -0.6598 H   0  0  0  0  0  0  0  0  0  0  0  0
    0.2512   -0.0862    2.4085 H   0  0  0  0  0  0  0  0  0  0  0  0
    0.5566    1.2408    1.2516 H   0  0  0  0  0  0  0  0  0  0  0  0
    6.3766   -1.8524    1.2037 H   0  0  0  0  0  0  0  0  0  0  0  0
    8.5950   -1.4428    0.3219 H   0  0  0  0  0  0  0  0  0  0  0  0
    7.1742    2.1056   -1.7164 H   0  0  0  0  0  0  0  0  0  0  0  0
  1  2  2  0
  2  3  1  0
  3  4  1  0
  4  5  2  0
  5  6  1  0
  6  7  2  0
  7  8  1  0
  8  9  2  0
  7 10  1  0
 10 11  1  0
 10 12  1  0
 10 13  1  0
  2 14  1  0
 14 15  1  0
 15 16  1  0
 16 17  1  0
 17 18  1  0
 18 19  2  0
 19 20  1  0
 19 21  1  0
 21 22  2  0
 22 23  1  0
 23 24  2  0
 24 25  1  0
 25 26  2  0
 26 27  1  0
 24 28  1  0
  9  4  1  0
 20 16  2  0
 26 21  1  0
  3 29  1  0
  5 30  1  0
  6 31  1  0
  8 32  1  0
  9 33  1  0
 14 34  1  0
 14 35  1  0
 15 36  1  0
 15 37  1  0
 22 38  1  0
 23 39  1  0
 25 40  1  0
M  END
>  <Ligand ID>  (1) 
LIG0001233

>  <Ligand>  (1) 
CHEMBL500133

>  <SMILES>  (1) 
O=C(Nc1ccc(cc1)C(F)(F)F)CCc1onc(n1)c1ccc(cc1Cl)F

>  <CID>  (1) 
25034205.0

>  <ChEMBL ID>  (1) 
nan

>  <InChiKey>  (1) 
JQBYRVOBEAOVDD-UHFFFAOYSA-N

>  <InChi>  (1) 
InChI=1S/C18H12ClF4N3O2/c19-14-9-11(20)3-6-13(14)17-25-16(28-26-17)8-7-15(27)24-12-4-1-10(2-5-12)18(21,22)23/h1-6,9H,7-8H2,(H,24,27)

>  <IUPAC Name>  (1) 
3-[3-(2-chloro-4-fluorophenyl)-1,2,4-oxadiazol-5-yl]-N-[4-(trifluoromethyl)phenyl]propanamide

$$$$
