
     RDKit          3D

 67 68  0  0  0  0  0  0  0  0999 V2000
    8.1192   -2.3151    2.3571 O   0  0  0  0  0  0  0  0  0  0  0  0
    7.0304   -2.4373    1.4724 C   0  0  0  0  0  0  0  0  0  0  0  0
    6.8737   -1.1365    0.7827 C   0  0  0  0  0  0  0  0  0  0  0  0
    5.8803   -0.2218    1.0987 C   0  0  0  0  0  0  0  0  0  0  0  0
    5.7629    0.9977    0.4369 C   0  0  0  0  0  0  0  0  0  0  0  0
    6.6993    1.2360   -0.5541 C   0  0  0  0  0  0  0  0  0  0  0  0
    7.6908    0.3406   -0.8810 C   0  0  0  0  0  0  0  0  0  0  0  0
    7.8025   -0.8630   -0.2236 C   0  0  0  0  0  0  0  0  0  0  0  0
    8.7981   -1.7757   -0.5435 O   0  0  0  0  0  0  0  0  0  0  0  0
    4.7406    1.9980    0.7369 C   0  0  0  0  0  0  0  0  0  0  0  0
    3.4139    1.7624    0.0065 C   0  0  0  0  0  0  0  0  0  0  0  0
    3.5718    1.5523   -1.3663 N   0  0  0  0  0  0  0  0  0  0  0  0
    2.5312    1.4983   -2.2765 C   0  0  0  0  0  0  0  0  0  0  0  0
    1.5388    0.4132   -2.3341 C   0  0  0  0  0  0  0  0  0  0  0  0
    0.6583    0.1773   -1.1547 C   0  0  0  0  0  0  0  0  0  0  0  0
   -0.3375   -0.9498   -1.4363 C   0  0  0  0  0  0  0  0  0  0  0  0
   -1.2165   -1.2077   -0.2485 C   0  0  0  0  0  0  0  0  0  0  0  0
   -1.9744    0.0615    0.0721 C   0  0  0  0  0  0  0  0  0  0  0  0
   -2.7314    0.3908   -1.0472 O   0  0  0  0  0  0  0  0  0  0  0  0
   -3.4503    1.5488   -0.9207 C   0  0  0  0  0  0  0  0  0  0  0  0
   -4.4160    1.4739    0.2149 C   0  0  0  0  0  0  0  0  0  0  0  0
   -5.4456    0.3683    0.0748 C   0  0  0  0  0  0  0  0  0  0  0  0
   -6.3180    0.4454    1.3155 C   0  0  0  0  0  0  0  0  0  0  0  0
   -7.3509   -0.6090    1.2055 C   0  0  0  0  0  0  0  0  0  0  0  0
   -8.5449   -0.2554    0.5660 C   0  0  0  0  0  0  0  0  0  0  0  0
   -9.5803   -1.1490    0.4033 C   0  0  0  0  0  0  0  0  0  0  0  0
   -9.4444   -2.4513    0.8885 C   0  0  0  0  0  0  0  0  0  0  0  0
   -8.2624   -2.7870    1.5173 C   0  0  0  0  0  0  0  0  0  0  0  0
   -7.2189   -1.8863    1.6812 C   0  0  0  0  0  0  0  0  0  0  0  0
    4.4957    2.1845    2.0741 O   0  0  0  0  0  0  0  0  0  0  0  0
    8.8183   -1.7938    1.8536 H   0  0  0  0  0  0  0  0  0  0  0  0
    7.2973   -3.2127    0.7223 H   0  0  0  0  0  0  0  0  0  0  0  0
    6.1526   -2.7318    2.0797 H   0  0  0  0  0  0  0  0  0  0  0  0
    5.1745   -0.4603    1.8822 H   0  0  0  0  0  0  0  0  0  0  0  0
    6.6281    2.1944   -1.0930 H   0  0  0  0  0  0  0  0  0  0  0  0
    8.3924    0.6090   -1.6807 H   0  0  0  0  0  0  0  0  0  0  0  0
    9.6584   -1.3780   -0.9522 H   0  0  0  0  0  0  0  0  0  0  0  0
    5.1136    2.9913    0.3251 H   0  0  0  0  0  0  0  0  0  0  0  0
    2.9949    0.8640    0.5404 H   0  0  0  0  0  0  0  0  0  0  0  0
    2.7778    2.6409    0.2264 H   0  0  0  0  0  0  0  0  0  0  0  0
    4.4700    1.1440   -1.6614 H   0  0  0  0  0  0  0  0  0  0  0  0
    3.0104    1.5145   -3.3280 H   0  0  0  0  0  0  0  0  0  0  0  0
    1.9283    2.4677   -2.2261 H   0  0  0  0  0  0  0  0  0  0  0  0
    2.0152   -0.5937   -2.5581 H   0  0  0  0  0  0  0  0  0  0  0  0
    0.8325    0.5297   -3.2170 H   0  0  0  0  0  0  0  0  0  0  0  0
    1.1735   -0.1495   -0.2359 H   0  0  0  0  0  0  0  0  0  0  0  0
    0.0799    1.1029   -0.9702 H   0  0  0  0  0  0  0  0  0  0  0  0
    0.1685   -1.8589   -1.8014 H   0  0  0  0  0  0  0  0  0  0  0  0
   -1.0066   -0.6064   -2.2551 H   0  0  0  0  0  0  0  0  0  0  0  0
   -1.9970   -1.9551   -0.5431 H   0  0  0  0  0  0  0  0  0  0  0  0
   -0.6575   -1.5991    0.6259 H   0  0  0  0  0  0  0  0  0  0  0  0
   -2.6281   -0.1801    0.9481 H   0  0  0  0  0  0  0  0  0  0  0  0
   -1.3291    0.8863    0.4308 H   0  0  0  0  0  0  0  0  0  0  0  0
   -2.8206    2.4615   -0.8996 H   0  0  0  0  0  0  0  0  0  0  0  0
   -4.0602    1.6415   -1.8667 H   0  0  0  0  0  0  0  0  0  0  0  0
   -4.9660    2.4653    0.2996 H   0  0  0  0  0  0  0  0  0  0  0  0
   -3.8485    1.4120    1.1619 H   0  0  0  0  0  0  0  0  0  0  0  0
   -6.0300    0.5743   -0.8441 H   0  0  0  0  0  0  0  0  0  0  0  0
   -4.9927   -0.6296   -0.0461 H   0  0  0  0  0  0  0  0  0  0  0  0
   -5.7257    0.3562    2.2393 H   0  0  0  0  0  0  0  0  0  0  0  0
   -6.8378    1.4219    1.3759 H   0  0  0  0  0  0  0  0  0  0  0  0
   -8.6852    0.7427    0.1787 H   0  0  0  0  0  0  0  0  0  0  0  0
  -10.4992   -0.8459   -0.0996 H   0  0  0  0  0  0  0  0  0  0  0  0
  -10.2705   -3.1180    0.7427 H   0  0  0  0  0  0  0  0  0  0  0  0
   -8.2015   -3.8202    1.8812 H   0  0  0  0  0  0  0  0  0  0  0  0
   -6.3152   -2.1772    2.1726 H   0  0  0  0  0  0  0  0  0  0  0  0
    4.8691    1.5020    2.6740 H   0  0  0  0  0  0  0  0  0  0  0  0
  1  2  1  0
  2  3  1  0
  3  4  2  0
  4  5  1  0
  5  6  2  0
  6  7  1  0
  7  8  2  0
  8  9  1  0
  5 10  1  0
 10 11  1  0
 11 12  1  0
 12 13  1  0
 13 14  1  0
 14 15  1  0
 15 16  1  0
 16 17  1  0
 17 18  1  0
 18 19  1  0
 19 20  1  0
 20 21  1  0
 21 22  1  0
 22 23  1  0
 23 24  1  0
 24 25  2  0
 25 26  1  0
 26 27  2  0
 27 28  1  0
 28 29  2  0
 10 30  1  0
  8  3  1  0
 29 24  1  0
  1 31  1  0
  2 32  1  0
  2 33  1  0
  4 34  1  0
  6 35  1  0
  7 36  1  0
  9 37  1  0
 10 38  1  0
 11 39  1  0
 11 40  1  0
 12 41  1  0
 13 42  1  0
 13 43  1  0
 14 44  1  0
 14 45  1  0
 15 46  1  0
 15 47  1  0
 16 48  1  0
 16 49  1  0
 17 50  1  0
 17 51  1  0
 18 52  1  0
 18 53  1  0
 20 54  1  0
 20 55  1  0
 21 56  1  0
 21 57  1  0
 22 58  1  0
 22 59  1  0
 23 60  1  0
 23 61  1  0
 25 62  1  0
 26 63  1  0
 27 64  1  0
 28 65  1  0
 29 66  1  0
 30 67  1  0
M  END
>  <Ligand ID>  (1) 
LIG0001261

>  <Ligand>  (1) 
Salmeterol

>  <SMILES>  (1) 
OCc1cc(ccc1O)C(CNCCCCCCOCCCCc1ccccc1)O

>  <CID>  (1) 
5152.0

>  <ChEMBL ID>  (1) 
nan

>  <InChiKey>  (1) 
GIIZNNXWQWCKIB-UHFFFAOYSA-N

>  <InChi>  (1) 
InChI=1S/C25H37NO4/c27-20-23-18-22(13-14-24(23)28)25(29)19-26-15-7-1-2-8-16-30-17-9-6-12-21-10-4-3-5-11-21/h3-5,10-11,13-14,18,25-29H,1-2,6-9,12,15-17,19-20H2

>  <IUPAC Name>  (1) 
2-(hydroxymethyl)-4-[1-hydroxy-2-[6-(4-phenylbutoxy)hexylamino]ethyl]phenol

$$$$
