
     RDKit          3D

135137  0  0  0  0  0  0  0  0999 V2000
   -7.1690   -3.7602   -0.1607 C   0  0  0  0  0  0  0  0  0  0  0  0
   -7.8712   -3.6126   -1.8459 S   0  0  0  0  0  0  0  0  0  0  0  0
   -6.7642   -4.3231   -3.0641 C   0  0  0  0  0  0  0  0  0  0  0  0
   -5.4819   -3.5752   -3.1866 C   0  0  0  0  0  0  0  0  0  0  0  0
   -5.6513   -2.1129   -3.6025 C   0  0  1  0  0  0  0  0  0  0  0  0
   -6.3140   -1.9540   -4.8891 C   0  0  0  0  0  0  0  0  0  0  0  0
   -7.2697   -1.1296   -5.1132 O   0  0  0  0  0  0  0  0  0  0  0  0
   -5.8662   -2.7780   -5.9772 N   0  0  0  0  0  0  0  0  0  0  0  0
   -6.1170   -1.2908   -2.5277 N   0  0  0  0  0  0  0  0  0  0  0  0
   -5.2820   -0.3377   -1.8621 C   0  0  0  0  0  0  0  0  0  0  0  0
   -4.0678   -0.1537   -2.2148 O   0  0  0  0  0  0  0  0  0  0  0  0
   -5.8460    0.4735   -0.7020 C   0  0  1  0  0  0  0  0  0  0  0  0
   -4.8451    1.3527   -0.1830 N   0  0  0  0  0  0  0  0  0  0  0  0
   -3.8030    0.9086    0.6589 C   0  0  0  0  0  0  0  0  0  0  0  0
   -3.6207   -0.2740    1.0264 O   0  0  0  0  0  0  0  0  0  0  0  0
   -2.8541    2.0255    1.1152 C   0  0  0  0  0  0  0  0  0  0  0  0
   -1.7918    1.4170    1.8225 N   0  0  0  0  0  0  0  0  0  0  0  0
   -2.0059    1.0968    3.2205 C   0  0  0  0  0  0  0  0  0  0  0  0
   -1.5177    2.0188    4.2573 C   0  0  0  0  0  0  0  0  0  0  0  0
   -0.0150    2.0722    4.4587 C   0  0  0  0  0  0  0  0  0  0  0  0
    0.4892    0.7739    4.8683 N   0  0  0  0  0  0  0  0  0  0  0  0
    1.8510    0.4393    5.1088 C   0  0  0  0  0  0  0  0  0  0  0  0
    2.6667    1.3446    4.9680 O   0  0  0  0  0  0  0  0  0  0  0  0
    2.1373   -0.9675    5.4897 C   0  0  0  0  0  0  0  0  0  0  0  0
    3.6244   -1.2540    5.1016 C   0  0  0  0  0  0  0  0  0  0  0  0
    3.8389   -2.7080    5.1048 C   0  0  0  0  0  0  0  0  0  0  0  0
    5.0895   -3.2955    4.4906 C   0  0  0  0  0  0  0  0  0  0  0  0
    5.2114   -2.7737    3.1153 C   0  0  0  0  0  0  0  0  0  0  0  0
    5.2843   -1.5433    2.9614 O   0  0  0  0  0  0  0  0  0  0  0  0
    5.2552   -3.5341    1.9005 N   0  0  0  0  0  0  0  0  0  0  0  0
    5.2237   -2.8319    0.6076 C   0  0  1  0  0  0  0  0  0  0  0  0
    4.2157   -1.7299    0.9677 C   0  0  0  0  0  0  0  0  0  0  0  0
    3.3966   -1.8819    1.8533 O   0  0  0  0  0  0  0  0  0  0  0  0
    4.1880   -0.4743    0.2759 N   0  0  0  0  0  0  0  0  0  0  0  0
    3.5027    0.5971    0.9271 C   0  0  2  0  0  0  0  0  0  0  0  0
    2.1732    1.0464    0.6337 C   0  0  0  0  0  0  0  0  0  0  0  0
    1.8102    2.1007    1.2988 O   0  0  0  0  0  0  0  0  0  0  0  0
    1.1809    0.5660   -0.2354 N   0  0  0  0  0  0  0  0  0  0  0  0
   -0.1958    1.2455   -0.2810 C   0  0  1  0  0  0  0  0  0  0  0  0
   -0.6336    1.0785    1.0749 C   0  0  0  0  0  0  0  0  0  0  0  0
    0.1665    0.4671    1.8645 O   0  0  0  0  0  0  0  0  0  0  0  0
    0.1491    2.5098   -0.9307 C   0  0  0  0  0  0  0  0  0  0  0  0
   -0.8220    3.5532   -1.2082 C   0  0  0  0  0  0  0  0  0  0  0  0
   -1.6448    3.4624   -2.3077 C   0  0  0  0  0  0  0  0  0  0  0  0
   -2.5668    4.4440   -2.6341 C   0  0  0  0  0  0  0  0  0  0  0  0
   -2.6411    5.5553   -1.7998 C   0  0  0  0  0  0  0  0  0  0  0  0
   -1.8350    5.6969   -0.6815 C   0  0  0  0  0  0  0  0  0  0  0  0
   -0.9399    4.6899   -0.4078 C   0  0  0  0  0  0  0  0  0  0  0  0
    4.4711    1.7814    0.9574 C   0  0  0  0  0  0  0  0  0  0  0  0
    4.8448    2.1332   -0.4219 C   0  0  0  0  0  0  0  0  0  0  0  0
    4.1347    3.0462   -1.1680 C   0  0  0  0  0  0  0  0  0  0  0  0
    4.4589    3.3964   -2.4614 C   0  0  0  0  0  0  0  0  0  0  0  0
    5.5697    2.7982   -3.0589 C   0  0  0  0  0  0  0  0  0  0  0  0
    6.3155    1.8717   -2.3412 C   0  0  0  0  0  0  0  0  0  0  0  0
    5.9404    1.5538   -1.0312 C   0  0  0  0  0  0  0  0  0  0  0  0
    6.4316   -2.1672    0.1737 C   0  0  0  0  0  0  0  0  0  0  0  0
    7.6833   -2.9504   -0.0317 C   0  0  0  0  0  0  0  0  0  0  0  0
    7.5920   -4.0125   -1.0695 C   0  0  0  0  0  0  0  0  0  0  0  0
    7.2556   -3.4639   -2.3615 N   0  0  0  0  0  0  0  0  0  0  0  0
    7.9556   -2.6421   -3.0487 C   0  0  0  0  0  0  0  0  0  0  0  0
    9.2338   -2.1350   -2.5988 N   0  0  0  0  0  0  0  0  0  0  0  0
    7.4591   -2.2084   -4.3011 N   0  0  0  0  0  0  0  0  0  0  0  0
   -7.0417    1.2041   -1.2045 C   0  0  0  0  0  0  0  0  0  0  0  0
   -7.7220    2.0745   -0.1741 C   0  0  0  0  0  0  0  0  0  0  0  0
   -8.9271    2.7711   -0.8283 C   0  0  0  0  0  0  0  0  0  0  0  0
   -8.2602    1.3302    1.0022 C   0  0  0  0  0  0  0  0  0  0  0  0
   -7.5150   -2.8885    0.4186 H   0  0  0  0  0  0  0  0  0  0  0  0
   -7.4813   -4.6921    0.3128 H   0  0  0  0  0  0  0  0  0  0  0  0
   -6.0481   -3.6869   -0.2409 H   0  0  0  0  0  0  0  0  0  0  0  0
   -7.3163   -4.4314   -4.0225 H   0  0  0  0  0  0  0  0  0  0  0  0
   -6.5372   -5.3778   -2.7305 H   0  0  0  0  0  0  0  0  0  0  0  0
   -4.8977   -3.6032   -2.2446 H   0  0  0  0  0  0  0  0  0  0  0  0
   -4.8381   -4.0653   -3.9684 H   0  0  0  0  0  0  0  0  0  0  0  0
   -4.5736   -1.7780   -3.7794 H   0  0  0  0  0  0  0  0  0  0  0  0
   -5.8715   -3.8285   -5.8869 H   0  0  0  0  0  0  0  0  0  0  0  0
   -5.5215   -2.4075   -6.8749 H   0  0  0  0  0  0  0  0  0  0  0  0
   -7.1133   -1.3167   -2.1564 H   0  0  0  0  0  0  0  0  0  0  0  0
   -6.1022   -0.3466    0.0190 H   0  0  0  0  0  0  0  0  0  0  0  0
   -4.8271    2.3935   -0.4125 H   0  0  0  0  0  0  0  0  0  0  0  0
   -3.4171    2.6229    1.9139 H   0  0  0  0  0  0  0  0  0  0  0  0
   -2.7142    2.7017    0.3159 H   0  0  0  0  0  0  0  0  0  0  0  0
   -3.0925    0.9170    3.4307 H   0  0  0  0  0  0  0  0  0  0  0  0
   -1.5480    0.0772    3.4513 H   0  0  0  0  0  0  0  0  0  0  0  0
   -1.9704    1.7098    5.2244 H   0  0  0  0  0  0  0  0  0  0  0  0
   -1.8441    3.0594    4.0146 H   0  0  0  0  0  0  0  0  0  0  0  0
    0.1338    2.7318    5.3698 H   0  0  0  0  0  0  0  0  0  0  0  0
    0.5485    2.5185    3.6563 H   0  0  0  0  0  0  0  0  0  0  0  0
   -0.1925    0.0233    5.0013 H   0  0  0  0  0  0  0  0  0  0  0  0
    2.1019   -1.0891    6.5801 H   0  0  0  0  0  0  0  0  0  0  0  0
    1.4930   -1.7074    4.9973 H   0  0  0  0  0  0  0  0  0  0  0  0
    3.7602   -0.7074    4.1795 H   0  0  0  0  0  0  0  0  0  0  0  0
    4.2112   -0.7629    5.9119 H   0  0  0  0  0  0  0  0  0  0  0  0
    3.7038   -3.1614    6.1398 H   0  0  0  0  0  0  0  0  0  0  0  0
    2.9436   -3.1601    4.5550 H   0  0  0  0  0  0  0  0  0  0  0  0
    4.9580   -4.3890    4.5034 H   0  0  0  0  0  0  0  0  0  0  0  0
    5.9337   -2.9650    5.1363 H   0  0  0  0  0  0  0  0  0  0  0  0
    5.3137   -4.5383    2.0175 H   0  0  0  0  0  0  0  0  0  0  0  0
    4.6395   -3.3645   -0.1627 H   0  0  0  0  0  0  0  0  0  0  0  0
    4.6499   -0.4806   -0.6309 H   0  0  0  0  0  0  0  0  0  0  0  0
    3.3804    0.2750    2.0609 H   0  0  0  0  0  0  0  0  0  0  0  0
    1.3847   -0.2205   -0.8228 H   0  0  0  0  0  0  0  0  0  0  0  0
   -0.7993    0.5644   -0.9894 H   0  0  0  0  0  0  0  0  0  0  0  0
    0.6521    2.1821   -1.9374 H   0  0  0  0  0  0  0  0  0  0  0  0
    1.0721    2.9500   -0.4281 H   0  0  0  0  0  0  0  0  0  0  0  0
   -1.5615    2.5750   -2.9461 H   0  0  0  0  0  0  0  0  0  0  0  0
   -3.1892    4.3213   -3.5064 H   0  0  0  0  0  0  0  0  0  0  0  0
   -3.3646    6.3144   -2.0606 H   0  0  0  0  0  0  0  0  0  0  0  0
   -1.9441    6.5922   -0.0699 H   0  0  0  0  0  0  0  0  0  0  0  0
   -0.2848    4.7497    0.4528 H   0  0  0  0  0  0  0  0  0  0  0  0
    5.3837    1.4743    1.5087 H   0  0  0  0  0  0  0  0  0  0  0  0
    3.9845    2.6607    1.4293 H   0  0  0  0  0  0  0  0  0  0  0  0
    3.2828    3.5361   -0.7320 H   0  0  0  0  0  0  0  0  0  0  0  0
    3.8821    4.1263   -3.0483 H   0  0  0  0  0  0  0  0  0  0  0  0
    5.8883    3.0106   -4.0583 H   0  0  0  0  0  0  0  0  0  0  0  0
    7.1729    1.4052   -2.7961 H   0  0  0  0  0  0  0  0  0  0  0  0
    6.5875    0.8294   -0.5417 H   0  0  0  0  0  0  0  0  0  0  0  0
    6.6119   -1.2413    0.7999 H   0  0  0  0  0  0  0  0  0  0  0  0
    6.2130   -1.7225   -0.8470 H   0  0  0  0  0  0  0  0  0  0  0  0
    7.9539   -3.4393    0.9437 H   0  0  0  0  0  0  0  0  0  0  0  0
    8.5610   -2.3176   -0.2577 H   0  0  0  0  0  0  0  0  0  0  0  0
    8.6024   -4.5076   -1.1938 H   0  0  0  0  0  0  0  0  0  0  0  0
    6.9034   -4.8440   -0.8678 H   0  0  0  0  0  0  0  0  0  0  0  0
    9.9285   -2.7779   -2.1614 H   0  0  0  0  0  0  0  0  0  0  0  0
    9.3771   -1.1165   -2.7496 H   0  0  0  0  0  0  0  0  0  0  0  0
    7.6321   -1.2209   -4.5909 H   0  0  0  0  0  0  0  0  0  0  0  0
    6.9235   -2.7961   -4.9717 H   0  0  0  0  0  0  0  0  0  0  0  0
   -6.7518    1.8377   -2.0944 H   0  0  0  0  0  0  0  0  0  0  0  0
   -7.8109    0.5126   -1.6149 H   0  0  0  0  0  0  0  0  0  0  0  0
   -7.0193    2.8660    0.1469 H   0  0  0  0  0  0  0  0  0  0  0  0
   -9.7972    2.0952   -0.7122 H   0  0  0  0  0  0  0  0  0  0  0  0
   -9.0883    3.7557   -0.3370 H   0  0  0  0  0  0  0  0  0  0  0  0
   -8.7538    2.9615   -1.9078 H   0  0  0  0  0  0  0  0  0  0  0  0
   -7.5139    1.0640    1.7622 H   0  0  0  0  0  0  0  0  0  0  0  0
   -8.9786    2.0258    1.5298 H   0  0  0  0  0  0  0  0  0  0  0  0
   -8.9070    0.4907    0.6670 H   0  0  0  0  0  0  0  0  0  0  0  0
  1  2  1  0
  2  3  1  0
  3  4  1  0
  4  5  1  0
  5  6  1  0
  6  7  2  0
  6  8  1  0
  5  9  1  0
  9 10  1  0
 10 11  2  0
 10 12  1  0
 12 13  1  0
 13 14  1  0
 14 15  2  0
 14 16  1  0
 16 17  1  0
 17 18  1  0
 18 19  1  0
 19 20  1  0
 20 21  1  0
 21 22  1  0
 22 23  2  0
 22 24  1  0
 24 25  1  0
 25 26  1  0
 26 27  1  0
 27 28  1  0
 28 29  2  0
 28 30  1  0
 30 31  1  0
 31 32  1  0
 32 33  2  0
 32 34  1  0
 34 35  1  0
 35 36  1  0
 36 37  2  0
 36 38  1  0
 38 39  1  0
 39 40  1  0
 40 41  2  0
 39 42  1  0
 42 43  1  0
 43 44  2  0
 44 45  1  0
 45 46  2  0
 46 47  1  0
 47 48  2  0
 35 49  1  0
 49 50  1  0
 50 51  2  0
 51 52  1  0
 52 53  2  0
 53 54  1  0
 54 55  2  0
 31 56  1  0
 56 57  1  0
 57 58  1  0
 58 59  1  0
 59 60  2  3
 60 61  1  0
 60 62  1  0
 12 63  1  0
 63 64  1  0
 64 65  1  0
 64 66  1  0
 40 17  1  0
 48 43  1  0
 55 50  1  0
  1 67  1  0
  1 68  1  0
  1 69  1  0
  3 70  1  0
  3 71  1  0
  4 72  1  0
  4 73  1  0
  5 74  1  6
  8 75  1  0
  8 76  1  0
  9 77  1  0
 12 78  1  1
 13 79  1  0
 16 80  1  0
 16 81  1  0
 18 82  1  0
 18 83  1  0
 19 84  1  0
 19 85  1  0
 20 86  1  0
 20 87  1  0
 21 88  1  0
 24 89  1  0
 24 90  1  0
 25 91  1  0
 25 92  1  0
 26 93  1  0
 26 94  1  0
 27 95  1  0
 27 96  1  0
 30 97  1  0
 31 98  1  6
 34 99  1  0
 35100  1  1
 38101  1  0
 39102  1  6
 42103  1  0
 42104  1  0
 44105  1  0
 45106  1  0
 46107  1  0
 47108  1  0
 48109  1  0
 49110  1  0
 49111  1  0
 51112  1  0
 52113  1  0
 53114  1  0
 54115  1  0
 55116  1  0
 56117  1  0
 56118  1  0
 57119  1  0
 57120  1  0
 58121  1  0
 58122  1  0
 61123  1  0
 61124  1  0
 62125  1  0
 62126  1  0
 63127  1  0
 63128  1  0
 64129  1  0
 65130  1  0
 65131  1  0
 65132  1  0
 66133  1  0
 66134  1  0
 66135  1  0
M  END
>  <Ligand ID>  (1) 
LIG0003438

>  <Ligand>  (1) 
CHEMBL302349

>  <SMILES>  (1) 
CSCC[C@@H](C(=O)N)NC(=O)[C@@H](NC(=O)CN1CCCNC(=O)CCCCC(=O)N[C@@H](C(=O)N[C@H](C(=O)N[C@@H](C1=O)Cc1ccccc1)Cc1ccccc1)CCCN=C(N)N)CC(C)C

>  <CID>  (1) 
44308550.0

>  <ChEMBL ID>  (1) 
nan

>  <InChiKey>  (1) 
MHGTZHZAQAFNNE-DUQWPARQSA-N

>  <InChi>  (1) 
InChI=1S/C46H69N11O8S/c1-30(2)26-35(43(63)54-33(41(47)61)21-25-66-3)53-40(60)29-57-24-13-23-50-38(58)19-10-11-20-39(59)52-34(18-12-22-51-46(48)49)42(62)55-36(27-31-14-6-4-7-15-31)44(64)56-37(45(57)65)28-32-16-8-5-9-17-32/h4-9,14-17,30,33-37H,10-13,18-29H2,1-3H3,(H2,47,61)(H,50,58)(H,52,59)(H,53,60)(H,54,63)(H,55,62)(H,56,64)(H4,48,49,51)/t33-,34+,35-,36-,37+/m0/s1

>  <IUPAC Name>  (1) 
(2S)-N-[(2S)-1-amino-4-methylsulfanyl-1-oxobutan-2-yl]-2-[[2-[(2R,5S,8R)-5,8-dibenzyl-2-[3-(diaminomethylideneamino)propyl]-3,6,9,15,20-pentaoxo-1,4,7,10,14-pentazacycloicos-10-yl]acetyl]amino]-4-methylpentanamide

$$$$
