
     RDKit          3D

 29 31  0  0  0  0  0  0  0  0999 V2000
   -1.7691    2.4569    0.4420 O   0  0  0  0  0  0  0  0  0  0  0  0
   -0.8417    1.6529    0.2876 C   0  0  0  0  0  0  0  0  0  0  0  0
    0.4740    2.0467   -0.1811 N   0  0  0  0  0  0  0  0  0  0  0  0
    1.1530    1.0995   -1.0037 C   0  0  1  0  0  0  0  0  0  0  0  0
    2.5547    1.3849   -1.3866 C   0  0  0  0  0  0  0  0  0  0  0  0
    2.9811    0.0469   -1.8403 N   0  0  0  0  0  0  0  0  0  0  0  0
    2.2688   -0.9078   -0.9717 C   0  0  0  0  0  0  0  0  0  0  0  0
    1.4271   -0.0924   -0.0678 C   0  0  2  0  0  0  0  0  0  0  0  0
    0.1461   -0.6228    0.3589 C   0  0  0  0  0  0  0  0  0  0  0  0
   -0.9677    0.2031    0.5630 C   0  0  0  0  0  0  0  0  0  0  0  0
   -2.1803   -0.2921    0.9900 C   0  0  0  0  0  0  0  0  0  0  0  0
   -2.2211   -1.6770    1.2045 C   0  0  0  0  0  0  0  0  0  0  0  0
   -1.1567   -2.4967    1.0131 C   0  0  0  0  0  0  0  0  0  0  0  0
    0.0259   -1.9770    0.5916 C   0  0  0  0  0  0  0  0  0  0  0  0
   -3.3582    0.5747    1.2077 C   0  0  0  0  0  0  0  0  0  0  0  0
   -4.3880   -0.2889    1.6354 F   0  0  0  0  0  0  0  0  0  0  0  0
   -3.2522    1.4449    2.2548 F   0  0  0  0  0  0  0  0  0  0  0  0
   -3.8972    1.1037    0.0548 F   0  0  0  0  0  0  0  0  0  0  0  0
    0.8277    2.9825    0.1085 H   0  0  0  0  0  0  0  0  0  0  0  0
    0.5498    0.7406   -1.8664 H   0  0  0  0  0  0  0  0  0  0  0  0
    2.6672    2.1045   -2.2010 H   0  0  0  0  0  0  0  0  0  0  0  0
    3.1322    1.5889   -0.4751 H   0  0  0  0  0  0  0  0  0  0  0  0
    2.4742   -0.0545   -2.7696 H   0  0  0  0  0  0  0  0  0  0  0  0
    1.7637   -1.7008   -1.5306 H   0  0  0  0  0  0  0  0  0  0  0  0
    3.0875   -1.3567   -0.3454 H   0  0  0  0  0  0  0  0  0  0  0  0
    2.0411    0.3422    0.7477 H   0  0  0  0  0  0  0  0  0  0  0  0
   -3.1534   -2.1136    1.5410 H   0  0  0  0  0  0  0  0  0  0  0  0
   -1.2456   -3.5585    1.1940 H   0  0  0  0  0  0  0  0  0  0  0  0
    0.8572   -2.6343    0.4447 H   0  0  0  0  0  0  0  0  0  0  0  0
  1  2  2  0
  2  3  1  0
  3  4  1  0
  4  5  1  0
  5  6  1  0
  6  7  1  0
  7  8  1  0
  8  9  1  0
  9 10  2  0
 10 11  1  0
 11 12  2  0
 12 13  1  0
 13 14  2  0
 11 15  1  0
 15 16  1  0
 15 17  1  0
 15 18  1  0
 10  2  1  0
  8  4  1  0
 14  9  1  0
  3 19  1  0
  4 20  1  6
  5 21  1  0
  5 22  1  0
  6 23  1  0
  7 24  1  0
  7 25  1  0
  8 26  1  1
 12 27  1  0
 13 28  1  0
 14 29  1  0
M  END
>  <Ligand ID>  (1) 
LIG0002441

>  <Ligand>  (1) 
CHEMBL2337490

>  <SMILES>  (1) 
O=C1N[C@H]2CNC[C@@H]2c2c1c(ccc2)C(F)(F)F

>  <CID>  (1) 
11695000.0

>  <ChEMBL ID>  (1) 
nan

>  <InChiKey>  (1) 
PKCRBWNXYKXDQR-APPZFPTMSA-N

>  <InChi>  (1) 
InChI=1S/C12H11F3N2O/c13-12(14,15)8-3-1-2-6-7-4-16-5-9(7)17-11(18)10(6)8/h1-3,7,9,16H,4-5H2,(H,17,18)/t7-,9+/m1/s1

>  <IUPAC Name>  (1) 
(3aR,9bS)-6-(trifluoromethyl)-1,2,3,3a,4,9b-hexahydropyrrolo[3,4-c]isoquinolin-5-one

$$$$
