
     RDKit          3D

 48 52  0  0  0  0  0  0  0  0999 V2000
    3.7642   -0.4381    2.7404 O   0  0  0  0  0  0  0  0  0  0  0  0
    3.9049   -1.3407    1.7016 C   0  0  0  0  0  0  0  0  0  0  0  0
    3.3450   -0.8564    0.4246 C   0  0  2  0  0  0  0  0  0  0  0  0
    4.1020    0.2774   -0.1652 C   0  0  0  0  0  0  0  0  0  0  0  0
    5.2514    0.7945    0.3714 C   0  0  0  0  0  0  0  0  0  0  0  0
    5.9277    1.8607   -0.2197 C   0  0  0  0  0  0  0  0  0  0  0  0
    5.4430    2.4244   -1.3762 C   0  0  0  0  0  0  0  0  0  0  0  0
    4.2724    1.9139   -1.9419 C   0  0  0  0  0  0  0  0  0  0  0  0
    3.6136    0.8439   -1.3289 C   0  0  0  0  0  0  0  0  0  0  0  0
    1.9482   -0.5575    0.4315 N   0  0  0  0  0  0  0  0  0  0  0  0
    1.0097   -1.2402   -0.3753 C   0  0  0  0  0  0  0  0  0  0  0  0
    1.4085   -2.1523   -1.1365 O   0  0  0  0  0  0  0  0  0  0  0  0
   -0.4075   -0.8691   -0.3059 C   0  0  0  0  0  0  0  0  0  0  0  0
   -0.9819    0.0795    0.4552 N   0  0  0  0  0  0  0  0  0  0  0  0
   -2.2893    0.1379    0.2584 N   0  0  0  0  0  0  0  0  0  0  0  0
   -2.5985   -0.8010   -0.6631 C   0  0  0  0  0  0  0  0  0  0  0  0
   -1.4338   -1.4443   -1.0308 C   0  0  0  0  0  0  0  0  0  0  0  0
   -1.7139   -2.4931   -2.0477 C   0  0  0  0  0  0  0  0  0  0  0  0
   -3.1902   -2.3242   -2.3397 C   0  0  2  0  0  0  0  0  0  0  0  0
   -3.7610   -1.3550   -1.3946 C   0  0  1  0  0  0  0  0  0  0  0  0
   -4.1041   -2.8034   -1.2599 C   0  0  0  0  0  0  0  0  0  0  0  0
   -3.1764    1.0445    0.9212 C   0  0  0  0  0  0  0  0  0  0  0  0
   -3.9821    1.8665    0.1605 C   0  0  0  0  0  0  0  0  0  0  0  0
   -4.8546    2.7580    0.7445 C   0  0  0  0  0  0  0  0  0  0  0  0
   -4.9509    2.8579    2.1076 C   0  0  0  0  0  0  0  0  0  0  0  0
   -4.1381    2.0287    2.8854 C   0  0  0  0  0  0  0  0  0  0  0  0
   -3.2595    1.1308    2.2925 C   0  0  0  0  0  0  0  0  0  0  0  0
   -2.4639    0.3192    3.0387 F   0  0  0  0  0  0  0  0  0  0  0  0
   -5.8153    3.7411    2.6593 F   0  0  0  0  0  0  0  0  0  0  0  0
    3.6376   -0.8418    3.6194 H   0  0  0  0  0  0  0  0  0  0  0  0
    3.4954   -2.3430    1.9393 H   0  0  0  0  0  0  0  0  0  0  0  0
    4.9912   -1.5190    1.5584 H   0  0  0  0  0  0  0  0  0  0  0  0
    3.4704   -1.6953   -0.3216 H   0  0  0  0  0  0  0  0  0  0  0  0
    5.6515    0.3842    1.2611 H   0  0  0  0  0  0  0  0  0  0  0  0
    6.8344    2.2736    0.1977 H   0  0  0  0  0  0  0  0  0  0  0  0
    5.9738    3.2531   -1.8305 H   0  0  0  0  0  0  0  0  0  0  0  0
    3.9227    2.3758   -2.8422 H   0  0  0  0  0  0  0  0  0  0  0  0
    2.7142    0.5036   -1.8253 H   0  0  0  0  0  0  0  0  0  0  0  0
    1.6205    0.2116    1.0752 H   0  0  0  0  0  0  0  0  0  0  0  0
   -1.1862   -2.3316   -3.0050 H   0  0  0  0  0  0  0  0  0  0  0  0
   -1.5086   -3.4838   -1.6006 H   0  0  0  0  0  0  0  0  0  0  0  0
   -3.5422   -2.2659   -3.3882 H   0  0  0  0  0  0  0  0  0  0  0  0
   -4.5745   -0.6686   -1.6345 H   0  0  0  0  0  0  0  0  0  0  0  0
   -5.1535   -3.0841   -1.4685 H   0  0  0  0  0  0  0  0  0  0  0  0
   -3.6646   -3.4137   -0.4261 H   0  0  0  0  0  0  0  0  0  0  0  0
   -3.9123    1.7940   -0.9302 H   0  0  0  0  0  0  0  0  0  0  0  0
   -5.4475    3.3628    0.0587 H   0  0  0  0  0  0  0  0  0  0  0  0
   -4.1918    2.0847    3.9557 H   0  0  0  0  0  0  0  0  0  0  0  0
  1  2  1  0
  2  3  1  0
  3  4  1  0
  4  5  2  0
  5  6  1  0
  6  7  2  0
  7  8  1  0
  8  9  2  0
  3 10  1  0
 10 11  1  0
 11 12  2  0
 11 13  1  0
 13 14  2  0
 14 15  1  0
 15 16  1  0
 16 17  2  0
 17 18  1  0
 18 19  1  0
 19 20  1  0
 20 21  1  0
 15 22  1  0
 22 23  2  0
 23 24  1  0
 24 25  2  0
 25 26  1  0
 26 27  2  0
 27 28  1  0
 25 29  1  0
  9  4  1  0
 17 13  1  0
 21 19  1  0
 27 22  1  0
 20 16  1  0
  1 30  1  0
  2 31  1  0
  2 32  1  0
  3 33  1  6
  5 34  1  0
  6 35  1  0
  7 36  1  0
  8 37  1  0
  9 38  1  0
 10 39  1  0
 18 40  1  0
 18 41  1  0
 19 42  1  6
 20 43  1  6
 21 44  1  0
 21 45  1  0
 23 46  1  0
 24 47  1  0
 26 48  1  0
M  END
>  <Ligand ID>  (1) 
LIG0001208

>  <Ligand>  (1) 
CHEMBL3354956

>  <SMILES>  (1) 
OC[C@H](c1ccccc1)NC(=O)c1nn(c2c1C[C@@H]1[C@H]2C1)c1ccc(cc1F)F

>  <CID>  (1) 
118720566.0

>  <ChEMBL ID>  (1) 
nan

>  <InChiKey>  (1) 
XBBRBQCGGXLGGN-DDUZABMNSA-N

>  <InChi>  (1) 
InChI=1S/C22H19F2N3O2/c23-14-6-7-19(17(24)10-14)27-21-15-8-13(15)9-16(21)20(26-27)22(29)25-18(11-28)12-4-2-1-3-5-12/h1-7,10,13,15,18,28H,8-9,11H2,(H,25,29)/t13-,15-,18-/m1/s1

>  <IUPAC Name>  (1) 
(2R,4R)-9-(2,4-difluorophenyl)-N-[(1S)-2-hydroxy-1-phenylethyl]-8,9-diazatricyclo[4.3.0.02,4]nona-1(6),7-diene-7-carboxamide

$$$$
