
     RDKit          3D

 63 63  0  0  0  0  0  0  0  0999 V2000
    7.4871    0.7633    0.8580 C   0  0  0  0  0  0  0  0  0  0  0  0
    6.0905    0.7728    1.4465 C   0  0  0  0  0  0  0  0  0  0  0  0
    5.3872    1.9887    0.9088 C   0  0  0  0  0  0  0  0  0  0  0  0
    3.9893    2.1317    1.4057 C   0  0  0  0  0  0  0  0  0  0  0  0
    3.1882    0.8981    0.9904 C   0  0  0  0  0  0  0  0  0  0  0  0
    3.1590    0.7509   -0.5001 C   0  0  1  0  0  0  0  0  0  0  0  0
    2.3822   -0.4590   -0.8892 C   0  0  0  0  0  0  0  0  0  0  0  0
    0.9587   -0.3905   -0.4166 C   0  0  0  0  0  0  0  0  0  0  0  0
    0.2556   -1.6497   -0.8911 C   0  0  1  0  0  0  0  0  0  0  0  0
    0.8445   -2.9175   -0.3841 C   0  0  2  0  0  0  0  0  0  0  0  0
    1.9426   -3.3573   -1.1209 O   0  0  0  0  0  0  0  0  0  0  0  0
   -0.3002   -3.9053   -0.4635 C   0  0  0  0  0  0  0  0  0  0  0  0
   -1.5571   -3.1046   -0.7490 C   0  0  1  0  0  0  0  0  0  0  0  0
   -1.1553   -1.7154   -0.2850 C   0  0  2  0  0  0  0  0  0  0  0  0
   -2.0426   -0.6492   -0.8562 C   0  0  0  0  0  0  0  0  0  0  0  0
   -3.4481   -0.6738   -0.2868 C   0  0  0  0  0  0  0  0  0  0  0  0
   -4.1865    0.4598   -0.9746 C   0  0  0  0  0  0  0  0  0  0  0  0
   -5.6124    0.5305   -0.4939 C   0  0  0  0  0  0  0  0  0  0  0  0
   -5.6704    0.7566    0.9792 C   0  0  0  0  0  0  0  0  0  0  0  0
   -4.9867    2.0369    1.3615 C   0  0  0  0  0  0  0  0  0  0  0  0
   -5.6619    3.1759    0.7188 C   0  0  0  0  0  0  0  0  0  0  0  0
   -5.0880    4.3050    0.8003 O   0  0  0  0  0  0  0  0  0  0  0  0
   -6.8564    3.1367    0.0393 O   0  0  0  0  0  0  0  0  0  0  0  0
   -1.7617   -3.0088   -2.1318 O   0  0  0  0  0  0  0  0  0  0  0  0
    2.4711    1.8620   -1.0224 O   0  0  0  0  0  0  0  0  0  0  0  0
    8.1542    1.4518    1.4168 H   0  0  0  0  0  0  0  0  0  0  0  0
    7.8470   -0.2790    0.8461 H   0  0  0  0  0  0  0  0  0  0  0  0
    7.3711    1.0870   -0.2154 H   0  0  0  0  0  0  0  0  0  0  0  0
    6.1098    0.8205    2.5595 H   0  0  0  0  0  0  0  0  0  0  0  0
    5.6129   -0.1829    1.1612 H   0  0  0  0  0  0  0  0  0  0  0  0
    5.9655    2.8675    1.3326 H   0  0  0  0  0  0  0  0  0  0  0  0
    5.4670    2.0783   -0.1724 H   0  0  0  0  0  0  0  0  0  0  0  0
    3.4783    2.9862    0.9480 H   0  0  0  0  0  0  0  0  0  0  0  0
    3.9386    2.1471    2.5112 H   0  0  0  0  0  0  0  0  0  0  0  0
    3.5615   -0.0138    1.5039 H   0  0  0  0  0  0  0  0  0  0  0  0
    2.1302    1.0361    1.3543 H   0  0  0  0  0  0  0  0  0  0  0  0
    4.1870    0.7263   -0.9430 H   0  0  0  0  0  0  0  0  0  0  0  0
    2.8367   -1.3647   -0.3909 H   0  0  0  0  0  0  0  0  0  0  0  0
    2.3629   -0.5983   -1.9946 H   0  0  0  0  0  0  0  0  0  0  0  0
    0.4663    0.4524   -0.9494 H   0  0  0  0  0  0  0  0  0  0  0  0
    0.8395   -0.2903    0.6806 H   0  0  0  0  0  0  0  0  0  0  0  0
    0.1504   -1.6098   -1.9867 H   0  0  0  0  0  0  0  0  0  0  0  0
    1.1698   -2.7687    0.6551 H   0  0  0  0  0  0  0  0  0  0  0  0
    2.5241   -3.9521   -0.5735 H   0  0  0  0  0  0  0  0  0  0  0  0
   -0.3928   -4.4128    0.5133 H   0  0  0  0  0  0  0  0  0  0  0  0
   -0.0634   -4.6068   -1.2900 H   0  0  0  0  0  0  0  0  0  0  0  0
   -2.4428   -3.4832   -0.2116 H   0  0  0  0  0  0  0  0  0  0  0  0
   -1.1153   -1.7271    0.8075 H   0  0  0  0  0  0  0  0  0  0  0  0
   -2.0721   -0.7728   -1.9566 H   0  0  0  0  0  0  0  0  0  0  0  0
   -1.6028    0.3338   -0.6098 H   0  0  0  0  0  0  0  0  0  0  0  0
   -3.9687   -1.6220   -0.3940 H   0  0  0  0  0  0  0  0  0  0  0  0
   -3.3899   -0.4110    0.8033 H   0  0  0  0  0  0  0  0  0  0  0  0
   -4.2396    0.2733   -2.0828 H   0  0  0  0  0  0  0  0  0  0  0  0
   -3.6954    1.4239   -0.8442 H   0  0  0  0  0  0  0  0  0  0  0  0
   -6.1557    1.2894   -1.0602 H   0  0  0  0  0  0  0  0  0  0  0  0
   -6.1136   -0.4569   -0.7148 H   0  0  0  0  0  0  0  0  0  0  0  0
   -6.7487    0.8082    1.2839 H   0  0  0  0  0  0  0  0  0  0  0  0
   -5.2179   -0.0747    1.5606 H   0  0  0  0  0  0  0  0  0  0  0  0
   -3.9062    1.9778    1.0648 H   0  0  0  0  0  0  0  0  0  0  0  0
   -5.0257    2.1357    2.4792 H   0  0  0  0  0  0  0  0  0  0  0  0
   -7.0796    3.7407   -0.7585 H   0  0  0  0  0  0  0  0  0  0  0  0
   -2.7499   -3.0810   -2.2726 H   0  0  0  0  0  0  0  0  0  0  0  0
    1.9790    2.3348   -0.3064 H   0  0  0  0  0  0  0  0  0  0  0  0
  1  2  1  0
  2  3  1  0
  3  4  1  0
  4  5  1  0
  5  6  1  0
  6  7  1  0
  7  8  1  0
  8  9  1  0
  9 10  1  0
 10 11  1  0
 10 12  1  0
 12 13  1  0
 13 14  1  0
 14 15  1  0
 15 16  1  0
 16 17  1  0
 17 18  1  0
 18 19  1  0
 19 20  1  0
 20 21  1  0
 21 22  2  0
 21 23  1  0
 13 24  1  0
  6 25  1  0
 14  9  1  0
  1 26  1  0
  1 27  1  0
  1 28  1  0
  2 29  1  0
  2 30  1  0
  3 31  1  0
  3 32  1  0
  4 33  1  0
  4 34  1  0
  5 35  1  0
  5 36  1  0
  6 37  1  6
  7 38  1  0
  7 39  1  0
  8 40  1  0
  8 41  1  0
  9 42  1  6
 10 43  1  1
 11 44  1  0
 12 45  1  0
 12 46  1  0
 13 47  1  1
 14 48  1  1
 15 49  1  0
 15 50  1  0
 16 51  1  0
 16 52  1  0
 17 53  1  0
 17 54  1  0
 18 55  1  0
 18 56  1  0
 19 57  1  0
 19 58  1  0
 20 59  1  0
 20 60  1  0
 23 61  1  0
 24 62  1  0
 25 63  1  0
M  END
>  <Ligand ID>  (1) 
LIG0001861

>  <Ligand>  (1) 
13,14-Dihydro PGF-1alpha

>  <SMILES>  (1) 
CCCCC[C@@H](CC[C@H]1[C@H](O)C[C@@H]([C@@H]1CCCCCCC(=O)O)O)O

>  <CID>  (1) 
5311239.0

>  <ChEMBL ID>  (1) 
nan

>  <InChiKey>  (1) 
WMHAOJIJVNDMKA-BRIYLRKRSA-N

>  <InChi>  (1) 
InChI=1S/C20H38O5/c1-2-3-6-9-15(21)12-13-17-16(18(22)14-19(17)23)10-7-4-5-8-11-20(24)25/h15-19,21-23H,2-14H2,1H3,(H,24,25)/t15-,16+,17+,18-,19+/m0/s1

>  <IUPAC Name>  (1) 
7-[(1R,2R,3R,5S)-3,5-dihydroxy-2-[(3S)-3-hydroxyoctyl]cyclopentyl]heptanoic acid

$$$$
