
     RDKit          3D

 61 64  0  0  0  0  0  0  0  0999 V2000
   -1.9995    0.6066    1.4940 C   0  0  0  0  0  0  0  0  0  0  0  0
   -2.5524    0.4305    0.0980 C   0  0  2  0  0  0  0  0  0  0  0  0
   -3.9072   -0.2589    0.2196 C   0  0  0  0  0  0  0  0  0  0  0  0
   -4.4331   -0.2907   -1.1421 N   0  0  0  0  0  0  0  0  0  0  0  0
   -3.6121   -0.6852   -2.2550 C   0  0  0  0  0  0  0  0  0  0  0  0
   -2.3309   -1.2993   -1.6991 C   0  0  0  0  0  0  0  0  0  0  0  0
   -1.7180   -0.4143   -0.7259 N   0  0  0  0  0  0  0  0  0  0  0  0
   -0.3014   -0.3925   -0.5985 C   0  0  0  0  0  0  0  0  0  0  0  0
    0.4493   -1.2088   -1.3683 N   0  0  0  0  0  0  0  0  0  0  0  0
    1.8103   -1.2057   -1.2664 C   0  0  0  0  0  0  0  0  0  0  0  0
    2.4636   -0.3703   -0.3755 C   0  0  0  0  0  0  0  0  0  0  0  0
    1.6698    0.4518    0.3972 C   0  0  0  0  0  0  0  0  0  0  0  0
    0.3149    0.4218    0.2686 N   0  0  0  0  0  0  0  0  0  0  0  0
    3.8527   -0.3542   -0.2582 O   0  0  0  0  0  0  0  0  0  0  0  0
    4.4612    0.5150    0.6605 C   0  0  0  0  0  0  0  0  0  0  0  0
    5.9342    0.3136    0.5684 C   0  0  0  0  0  0  0  0  0  0  0  0
    6.7423    1.2160   -0.0909 C   0  0  0  0  0  0  0  0  0  0  0  0
    8.0940    0.9604   -0.1341 C   0  0  0  0  0  0  0  0  0  0  0  0
    8.6683   -0.1567    0.4529 C   0  0  0  0  0  0  0  0  0  0  0  0
    7.8124   -1.0371    1.1057 C   0  0  0  0  0  0  0  0  0  0  0  0
    6.4501   -0.8278    1.1782 C   0  0  0  0  0  0  0  0  0  0  0  0
    5.6842   -1.7239    1.8276 F   0  0  0  0  0  0  0  0  0  0  0  0
   10.3909   -0.4276    0.3628 S   0  0  0  0  0  0  0  0  0  0  0  0
   10.9170    0.1330   -0.9080 O   0  0  0  0  0  0  0  0  0  0  0  0
   10.5940   -1.9114    0.4862 O   0  0  0  0  0  0  0  0  0  0  0  0
   11.1469    0.3793    1.7500 C   0  0  0  0  0  0  0  0  0  0  0  0
   -5.8047    0.0793   -1.3915 C   0  0  0  0  0  0  0  0  0  0  0  0
   -6.4184    0.1057   -2.5579 O   0  0  0  0  0  0  0  0  0  0  0  0
   -7.6559    0.4881   -2.4137 N   0  0  0  0  0  0  0  0  0  0  0  0
   -7.8991    0.7326   -1.1019 C   0  0  0  0  0  0  0  0  0  0  0  0
   -6.7169    0.4670   -0.4826 N   0  0  0  0  0  0  0  0  0  0  0  0
   -9.1751    1.1929   -0.4731 C   0  0  0  0  0  0  0  0  0  0  0  0
   -9.7044    0.1031    0.4704 C   0  0  0  0  0  0  0  0  0  0  0  0
   -8.9279    2.4155    0.3821 C   0  0  0  0  0  0  0  0  0  0  0  0
   -1.4229    1.5628    1.5414 H   0  0  0  0  0  0  0  0  0  0  0  0
   -2.8895    0.7634    2.1695 H   0  0  0  0  0  0  0  0  0  0  0  0
   -1.3942   -0.2711    1.8087 H   0  0  0  0  0  0  0  0  0  0  0  0
   -2.7540    1.4111   -0.3642 H   0  0  0  0  0  0  0  0  0  0  0  0
   -3.7678   -1.2699    0.6063 H   0  0  0  0  0  0  0  0  0  0  0  0
   -4.5544    0.3709    0.8770 H   0  0  0  0  0  0  0  0  0  0  0  0
   -3.3360    0.1324   -2.9218 H   0  0  0  0  0  0  0  0  0  0  0  0
   -4.1133   -1.5101   -2.8282 H   0  0  0  0  0  0  0  0  0  0  0  0
   -1.5895   -1.4511   -2.5225 H   0  0  0  0  0  0  0  0  0  0  0  0
   -2.5618   -2.2728   -1.2522 H   0  0  0  0  0  0  0  0  0  0  0  0
    2.3888   -1.8774   -1.9025 H   0  0  0  0  0  0  0  0  0  0  0  0
    2.0911    1.1363    1.1199 H   0  0  0  0  0  0  0  0  0  0  0  0
    4.2341    1.5596    0.4207 H   0  0  0  0  0  0  0  0  0  0  0  0
    4.0959    0.3640    1.7008 H   0  0  0  0  0  0  0  0  0  0  0  0
    6.3110    2.1055   -0.5624 H   0  0  0  0  0  0  0  0  0  0  0  0
    8.7717    1.6509   -0.6470 H   0  0  0  0  0  0  0  0  0  0  0  0
    8.2806   -1.9080    1.5612 H   0  0  0  0  0  0  0  0  0  0  0  0
   11.5305    1.3807    1.4406 H   0  0  0  0  0  0  0  0  0  0  0  0
   10.3993    0.4419    2.5582 H   0  0  0  0  0  0  0  0  0  0  0  0
   11.9669   -0.2781    2.1018 H   0  0  0  0  0  0  0  0  0  0  0  0
   -9.8939    1.3530   -1.2889 H   0  0  0  0  0  0  0  0  0  0  0  0
  -10.8136    0.1328    0.5330 H   0  0  0  0  0  0  0  0  0  0  0  0
   -9.4534   -0.8700   -0.0171 H   0  0  0  0  0  0  0  0  0  0  0  0
   -9.1963    0.1146    1.4445 H   0  0  0  0  0  0  0  0  0  0  0  0
   -8.8275    3.3524   -0.1861 H   0  0  0  0  0  0  0  0  0  0  0  0
   -9.7763    2.4436    1.1270 H   0  0  0  0  0  0  0  0  0  0  0  0
   -8.0246    2.1950    1.0030 H   0  0  0  0  0  0  0  0  0  0  0  0
  1  2  1  0
  2  3  1  0
  3  4  1  0
  4  5  1  0
  5  6  1  0
  6  7  1  0
  7  8  1  0
  8  9  2  0
  9 10  1  0
 10 11  2  0
 11 12  1  0
 12 13  2  0
 11 14  1  0
 14 15  1  0
 15 16  1  0
 16 17  2  0
 17 18  1  0
 18 19  2  0
 19 20  1  0
 20 21  2  0
 21 22  1  0
 19 23  1  0
 23 24  2  0
 23 25  2  0
 23 26  1  0
  4 27  1  0
 27 28  1  0
 28 29  1  0
 29 30  2  0
 30 31  1  0
 30 32  1  0
 32 33  1  0
 32 34  1  0
  7  2  1  0
 13  8  1  0
 21 16  1  0
 31 27  2  0
  1 35  1  0
  1 36  1  0
  1 37  1  0
  2 38  1  6
  3 39  1  0
  3 40  1  0
  5 41  1  0
  5 42  1  0
  6 43  1  0
  6 44  1  0
 10 45  1  0
 12 46  1  0
 15 47  1  0
 15 48  1  0
 17 49  1  0
 18 50  1  0
 20 51  1  0
 26 52  1  0
 26 53  1  0
 26 54  1  0
 32 55  1  0
 33 56  1  0
 33 57  1  0
 33 58  1  0
 34 59  1  0
 34 60  1  0
 34 61  1  0
M  END
>  <Ligand ID>  (1) 
LIG0005285

>  <Ligand>  (1) 
CHEMBL3358014

>  <SMILES>  (1) 
C[C@@H]1CN(CCN1c1ncc(cn1)OCc1ccc(cc1F)S(=O)(=O)C)c1onc(n1)C(C)C

>  <CID>  (1) 
118722587.0

>  <ChEMBL ID>  (1) 
nan

>  <InChiKey>  (1) 
HCOCJWJTYDDBRV-OAHLLOKOSA-N

>  <InChi>  (1) 
InChI=1S/C22H27FN6O4S/c1-14(2)20-26-22(33-27-20)28-7-8-29(15(3)12-28)21-24-10-17(11-25-21)32-13-16-5-6-18(9-19(16)23)34(4,30)31/h5-6,9-11,14-15H,7-8,12-13H2,1-4H3/t15-/m1/s1

>  <IUPAC Name>  (1) 
5-[(3R)-4-[5-[(2-fluoro-4-methylsulfonylphenyl)methoxy]pyrimidin-2-yl]-3-methylpiperazin-1-yl]-3-propan-2-yl-1,2,4-oxadiazole

$$$$
