
     RDKit          3D

 51 53  0  0  0  0  0  0  0  0999 V2000
   -1.3049    0.2915   -1.0789 O   0  0  0  0  0  0  0  0  0  0  0  0
   -1.4533   -0.4909   -0.1056 C   0  0  0  0  0  0  0  0  0  0  0  0
   -0.2829   -1.0884    0.6162 C   0  0  0  0  0  0  0  0  0  0  0  0
   -0.3726   -2.5756    0.5053 C   0  0  0  0  0  0  0  0  0  0  0  0
    0.9653   -3.2605    0.7142 C   0  0  0  0  0  0  0  0  0  0  0  0
    1.8508   -2.7654   -0.4132 C   0  0  0  0  0  0  0  0  0  0  0  0
    2.0419   -1.3352   -0.1769 N   0  0  0  0  0  0  0  0  0  0  0  0
    0.9492   -0.4559    0.0852 C   0  0  0  0  0  0  0  0  0  0  0  0
    3.4185   -0.8954   -0.2310 C   0  0  0  0  0  0  0  0  0  0  0  0
    4.2546   -1.7876   -0.4652 O   0  0  0  0  0  0  0  0  0  0  0  0
    3.7927    0.4484   -0.0333 N   0  0  0  0  0  0  0  0  0  0  0  0
    5.0921    0.9775   -0.0641 C   0  0  0  0  0  0  0  0  0  0  0  0
    6.2449    0.2707   -0.2952 C   0  0  0  0  0  0  0  0  0  0  0  0
    7.5076    0.8738   -0.3097 C   0  0  0  0  0  0  0  0  0  0  0  0
    7.6427    2.2275   -0.0877 C   0  0  0  0  0  0  0  0  0  0  0  0
    6.4874    2.9397    0.1446 C   0  0  0  0  0  0  0  0  0  0  0  0
    5.2477    2.3398    0.1574 C   0  0  0  0  0  0  0  0  0  0  0  0
   -2.7432   -0.8725    0.3895 N   0  0  0  0  0  0  0  0  0  0  0  0
   -3.9535   -0.3991   -0.1776 C   0  0  0  0  0  0  0  0  0  0  0  0
   -4.5864   -1.0755   -1.2090 C   0  0  0  0  0  0  0  0  0  0  0  0
   -5.7626   -0.6045   -1.7513 C   0  0  0  0  0  0  0  0  0  0  0  0
   -6.3212    0.5629   -1.2581 C   0  0  0  0  0  0  0  0  0  0  0  0
   -5.7077    1.2522   -0.2316 C   0  0  0  0  0  0  0  0  0  0  0  0
   -4.5303    0.7721    0.3044 C   0  0  0  0  0  0  0  0  0  0  0  0
   -3.9001    1.5355    1.4029 C   0  0  0  0  0  0  0  0  0  0  0  0
   -6.3644    2.5022    0.2507 C   0  0  0  0  0  0  0  0  0  0  0  0
   -0.4549   -0.8256    1.6986 H   0  0  0  0  0  0  0  0  0  0  0  0
   -1.1249   -2.9272    1.2417 H   0  0  0  0  0  0  0  0  0  0  0  0
   -0.7491   -2.9358   -0.4802 H   0  0  0  0  0  0  0  0  0  0  0  0
    0.7917   -4.3469    0.6293 H   0  0  0  0  0  0  0  0  0  0  0  0
    1.4310   -3.0096    1.6877 H   0  0  0  0  0  0  0  0  0  0  0  0
    2.7816   -3.3191   -0.5026 H   0  0  0  0  0  0  0  0  0  0  0  0
    1.2340   -2.8002   -1.3560 H   0  0  0  0  0  0  0  0  0  0  0  0
    0.7332    0.0713   -0.8903 H   0  0  0  0  0  0  0  0  0  0  0  0
    1.2515    0.3331    0.8083 H   0  0  0  0  0  0  0  0  0  0  0  0
    2.9910    1.1197    0.1570 H   0  0  0  0  0  0  0  0  0  0  0  0
    6.2323   -0.7794   -0.4761 H   0  0  0  0  0  0  0  0  0  0  0  0
    8.3912    0.2808   -0.4957 H   0  0  0  0  0  0  0  0  0  0  0  0
    8.6313    2.6615   -0.1056 H   0  0  0  0  0  0  0  0  0  0  0  0
    6.5655    3.9842    0.3183 H   0  0  0  0  0  0  0  0  0  0  0  0
    4.3837    2.9928    0.3520 H   0  0  0  0  0  0  0  0  0  0  0  0
   -2.8423   -1.5317    1.2090 H   0  0  0  0  0  0  0  0  0  0  0  0
   -4.0995   -1.9840   -1.5521 H   0  0  0  0  0  0  0  0  0  0  0  0
   -6.2367   -1.1540   -2.5579 H   0  0  0  0  0  0  0  0  0  0  0  0
   -7.2550    0.9516   -1.6769 H   0  0  0  0  0  0  0  0  0  0  0  0
   -3.7484    2.6134    1.1244 H   0  0  0  0  0  0  0  0  0  0  0  0
   -4.5798    1.5611    2.2800 H   0  0  0  0  0  0  0  0  0  0  0  0
   -2.9450    1.1305    1.7315 H   0  0  0  0  0  0  0  0  0  0  0  0
   -7.3427    2.2976    0.7195 H   0  0  0  0  0  0  0  0  0  0  0  0
   -6.5321    3.1334   -0.6600 H   0  0  0  0  0  0  0  0  0  0  0  0
   -5.7200    3.0949    0.9086 H   0  0  0  0  0  0  0  0  0  0  0  0
  1  2  2  0
  2  3  1  0
  3  4  1  0
  4  5  1  0
  5  6  1  0
  6  7  1  0
  7  8  1  0
  7  9  1  0
  9 10  2  0
  9 11  1  0
 11 12  1  0
 12 13  2  0
 13 14  1  0
 14 15  2  0
 15 16  1  0
 16 17  2  0
  2 18  1  0
 18 19  1  0
 19 20  2  0
 20 21  1  0
 21 22  2  0
 22 23  1  0
 23 24  2  0
 24 25  1  0
 23 26  1  0
  8  3  1  0
 17 12  1  0
 24 19  1  0
  3 27  1  0
  4 28  1  0
  4 29  1  0
  5 30  1  0
  5 31  1  0
  6 32  1  0
  6 33  1  0
  8 34  1  0
  8 35  1  0
 11 36  1  0
 13 37  1  0
 14 38  1  0
 15 39  1  0
 16 40  1  0
 17 41  1  0
 18 42  1  0
 20 43  1  0
 21 44  1  0
 22 45  1  0
 25 46  1  0
 25 47  1  0
 25 48  1  0
 26 49  1  0
 26 50  1  0
 26 51  1  0
M  END
>  <Ligand ID>  (1) 
LIG0003590

>  <Ligand>  (1) 
MLS000074109

>  <SMILES>  (1) 
O=C(C1CCCN(C1)C(=O)Nc1ccccc1)Nc1cccc(c1C)C

>  <CID>  (1) 
654890.0

>  <ChEMBL ID>  (1) 
nan

>  <InChiKey>  (1) 
NXQNGJCHNZULJU-UHFFFAOYSA-N

>  <InChi>  (1) 
InChI=1S/C21H25N3O2/c1-15-8-6-12-19(16(15)2)23-20(25)17-9-7-13-24(14-17)21(26)22-18-10-4-3-5-11-18/h3-6,8,10-12,17H,7,9,13-14H2,1-2H3,(H,22,26)(H,23,25)

>  <IUPAC Name>  (1) 
3-N-(2,3-dimethylphenyl)-1-N-phenylpiperidine-1,3-dicarboxamide

$$$$
