
     RDKit          3D

 34 36  0  0  0  0  0  0  0  0999 V2000
   -4.0615   -2.7046    2.2688 Cl  0  0  0  0  0  0  0  0  0  0  0  0
   -3.0120   -1.5926    1.4058 C   0  0  0  0  0  0  0  0  0  0  0  0
   -2.1939   -0.6874    2.0788 C   0  0  0  0  0  0  0  0  0  0  0  0
   -1.3660    0.1895    1.3866 C   0  0  0  0  0  0  0  0  0  0  0  0
   -1.3873    0.1271    0.0082 C   0  0  0  0  0  0  0  0  0  0  0  0
   -2.2094   -0.7823   -0.6637 C   0  0  0  0  0  0  0  0  0  0  0  0
   -3.0272   -1.6483    0.0262 C   0  0  0  0  0  0  0  0  0  0  0  0
   -0.5694    0.9871   -0.8423 C   0  0  0  0  0  0  0  0  0  0  0  0
   -1.0355    1.9260   -1.7520 C   0  0  0  0  0  0  0  0  0  0  0  0
   -2.4778    2.2057   -2.0033 C   0  0  0  0  0  0  0  0  0  0  0  0
    0.0348    2.5239   -2.3512 N   0  0  0  0  0  0  0  0  0  0  0  0
    1.1558    1.9875   -1.8440 N   0  0  0  0  0  0  0  0  0  0  0  0
    0.8114    1.0515   -0.9252 C   0  0  0  0  0  0  0  0  0  0  0  0
    1.7395    0.2324   -0.1379 C   0  0  0  0  0  0  0  0  0  0  0  0
    2.6141    0.9222    0.6903 C   0  0  0  0  0  0  0  0  0  0  0  0
    3.5359    0.2374    1.4811 C   0  0  0  0  0  0  0  0  0  0  0  0
    3.5477   -1.1314    1.4121 C   0  0  0  0  0  0  0  0  0  0  0  0
    2.6772   -1.8030    0.5887 C   0  0  0  0  0  0  0  0  0  0  0  0
    1.7584   -1.1427   -0.2008 C   0  0  0  0  0  0  0  0  0  0  0  0
    0.8725   -1.7837   -1.0364 O   0  0  0  0  0  0  0  0  0  0  0  0
    4.4750   -1.8198    2.2077 O   0  0  0  0  0  0  0  0  0  0  0  0
   -2.2103   -0.6741    3.1649 H   0  0  0  0  0  0  0  0  0  0  0  0
   -0.7210    0.9019    1.8800 H   0  0  0  0  0  0  0  0  0  0  0  0
   -2.2199   -0.8247   -1.7497 H   0  0  0  0  0  0  0  0  0  0  0  0
   -3.6516   -2.3402   -0.5256 H   0  0  0  0  0  0  0  0  0  0  0  0
   -2.7907    1.5642   -2.8256 H   0  0  0  0  0  0  0  0  0  0  0  0
   -3.0755    1.9491   -1.1073 H   0  0  0  0  0  0  0  0  0  0  0  0
   -2.6648    3.2840   -2.2188 H   0  0  0  0  0  0  0  0  0  0  0  0
   -0.0681    3.2574   -3.0655 H   0  0  0  0  0  0  0  0  0  0  0  0
    2.6272    2.0027    0.7648 H   0  0  0  0  0  0  0  0  0  0  0  0
    4.2280    0.7559    2.1349 H   0  0  0  0  0  0  0  0  0  0  0  0
    2.6747   -2.8833    0.5238 H   0  0  0  0  0  0  0  0  0  0  0  0
    0.5262   -2.7130   -0.8851 H   0  0  0  0  0  0  0  0  0  0  0  0
    5.4635   -1.5744    2.1117 H   0  0  0  0  0  0  0  0  0  0  0  0
  1  2  1  0
  2  3  2  0
  3  4  1  0
  4  5  2  0
  5  6  1  0
  6  7  2  0
  5  8  1  0
  8  9  2  0
  9 10  1  0
  9 11  1  0
 11 12  1  0
 12 13  2  0
 13 14  1  0
 14 15  2  0
 15 16  1  0
 16 17  2  0
 17 18  1  0
 18 19  2  0
 19 20  1  0
 17 21  1  0
  7  2  1  0
 13  8  1  0
 19 14  1  0
  3 22  1  0
  4 23  1  0
  6 24  1  0
  7 25  1  0
 10 26  1  0
 10 27  1  0
 10 28  1  0
 11 29  1  0
 15 30  1  0
 16 31  1  0
 18 32  1  0
 20 33  1  0
 21 34  1  0
M  END
>  <Ligand ID>  (1) 
LIG0003593

>  <Ligand>  (1) 
MLS000037069

>  <SMILES>  (1) 
Clc1ccc(cc1)c1c(C)[nH]nc1c1ccc(cc1O)O

>  <CID>  (1) 
662991.0

>  <ChEMBL ID>  (1) 
nan

>  <InChiKey>  (1) 
UUKHMCQBTJVIKW-UHFFFAOYSA-N

>  <InChi>  (1) 
InChI=1S/C16H13ClN2O2/c1-9-15(10-2-4-11(17)5-3-10)16(19-18-9)13-7-6-12(20)8-14(13)21/h2-8,20-21H,1H3,(H,18,19)

>  <IUPAC Name>  (1) 
4-[4-(4-chlorophenyl)-5-methyl-1H-pyrazol-3-yl]benzene-1,3-diol

$$$$
