
     RDKit          3D

 32 31  0  0  0  0  0  0  0  0999 V2000
    4.5984    1.1962   -0.3276 C   0  0  0  0  0  0  0  0  0  0  0  0
    4.0555   -0.0854    0.3091 C   0  0  0  0  0  0  0  0  0  0  0  0
    2.5210   -0.0402    0.2631 C   0  0  0  0  0  0  0  0  0  0  0  0
    1.9441   -1.2855    0.8811 C   0  0  0  0  0  0  0  0  0  0  0  0
    0.4240   -1.1981    0.8152 C   0  0  0  0  0  0  0  0  0  0  0  0
   -0.0840   -1.0879   -0.5781 C   0  0  0  0  0  0  0  0  0  0  0  0
   -1.4870   -1.0127   -0.6078 O   0  0  0  0  0  0  0  0  0  0  0  0
   -2.1272    0.0381    0.0077 C   0  0  0  0  0  0  0  0  0  0  0  0
   -1.5672    0.9780    0.6163 O   0  0  0  0  0  0  0  0  0  0  0  0
   -3.6205    0.0573   -0.0573 C   0  0  0  0  0  0  0  0  0  0  0  0
   -4.2081    1.2406    0.6430 C   0  0  0  0  0  0  0  0  0  0  0  0
   -3.9514    0.0958   -1.5551 C   0  0  0  0  0  0  0  0  0  0  0  0
    3.9962    2.0453    0.0016 H   0  0  0  0  0  0  0  0  0  0  0  0
    4.5347    1.0755   -1.4397 H   0  0  0  0  0  0  0  0  0  0  0  0
    5.6521    1.3380   -0.0190 H   0  0  0  0  0  0  0  0  0  0  0  0
    4.4322   -0.9722   -0.2274 H   0  0  0  0  0  0  0  0  0  0  0  0
    4.4047   -0.1656    1.3663 H   0  0  0  0  0  0  0  0  0  0  0  0
    2.1513    0.8558    0.7989 H   0  0  0  0  0  0  0  0  0  0  0  0
    2.2790    0.0724   -0.8003 H   0  0  0  0  0  0  0  0  0  0  0  0
    2.2849   -2.2062    0.4057 H   0  0  0  0  0  0  0  0  0  0  0  0
    2.2148   -1.3021    1.9566 H   0  0  0  0  0  0  0  0  0  0  0  0
    0.0837   -0.3807    1.4406 H   0  0  0  0  0  0  0  0  0  0  0  0
    0.0646   -2.1736    1.2162 H   0  0  0  0  0  0  0  0  0  0  0  0
    0.2952   -1.9745   -1.1387 H   0  0  0  0  0  0  0  0  0  0  0  0
    0.2770   -0.1529   -1.0985 H   0  0  0  0  0  0  0  0  0  0  0  0
   -4.0563   -0.8970    0.3188 H   0  0  0  0  0  0  0  0  0  0  0  0
   -3.5211    2.0979    0.7320 H   0  0  0  0  0  0  0  0  0  0  0  0
   -4.5463    0.9357    1.6738 H   0  0  0  0  0  0  0  0  0  0  0  0
   -5.0873    1.5914    0.0447 H   0  0  0  0  0  0  0  0  0  0  0  0
   -3.5327    1.0263   -1.9803 H   0  0  0  0  0  0  0  0  0  0  0  0
   -3.3919   -0.7545   -2.0182 H   0  0  0  0  0  0  0  0  0  0  0  0
   -5.0328   -0.0146   -1.6429 H   0  0  0  0  0  0  0  0  0  0  0  0
  1  2  1  0
  2  3  1  0
  3  4  1  0
  4  5  1  0
  5  6  1  0
  6  7  1  0
  7  8  1  0
  8  9  2  0
  8 10  1  0
 10 11  1  0
 10 12  1  0
  1 13  1  0
  1 14  1  0
  1 15  1  0
  2 16  1  0
  2 17  1  0
  3 18  1  0
  3 19  1  0
  4 20  1  0
  4 21  1  0
  5 22  1  0
  5 23  1  0
  6 24  1  0
  6 25  1  0
 10 26  1  0
 11 27  1  0
 11 28  1  0
 11 29  1  0
 12 30  1  0
 12 31  1  0
 12 32  1  0
M  END
>  <Ligand ID>  (1) 
LIG0001057

>  <Ligand>  (1) 
Hexyl isobutyrate

>  <SMILES>  (1) 
CCCCCCOC(=O)C(C)C

>  <CID>  (1) 
16872.0

>  <ChEMBL ID>  (1) 
nan

>  <InChiKey>  (1) 
CYHBDKTZDLSRMY-UHFFFAOYSA-N

>  <InChi>  (1) 
InChI=1S/C10H20O2/c1-4-5-6-7-8-12-10(11)9(2)3/h9H,4-8H2,1-3H3

>  <IUPAC Name>  (1) 
hexyl 2-methylpropanoate

$$$$
