
     RDKit          3D

 32 34  0  0  0  0  0  0  0  0999 V2000
    4.2070    0.6524    0.3168 C   0  0  0  0  0  0  0  0  0  0  0  0
    3.1407    1.6408    0.7413 C   0  0  0  0  0  0  0  0  0  0  0  0
    1.9021    0.8907    0.7243 N   0  0  0  0  0  0  0  0  0  0  0  0
    2.1441   -0.3955    0.7250 C   0  0  0  0  0  0  0  0  0  0  0  0
    3.5683   -0.6009    0.7428 N   0  0  0  0  0  0  0  0  0  0  0  0
    1.1899   -1.5232    0.7171 C   0  0  0  0  0  0  0  0  0  0  0  0
   -0.2010   -1.1007    0.6412 N   0  0  0  0  0  0  0  0  0  0  0  0
   -0.6640   -0.4436   -0.5236 C   0  0  0  0  0  0  0  0  0  0  0  0
    0.2033   -0.2364   -1.5776 C   0  0  0  0  0  0  0  0  0  0  0  0
   -0.1637    0.3842   -2.7543 C   0  0  0  0  0  0  0  0  0  0  0  0
   -1.4681    0.8078   -2.8544 C   0  0  0  0  0  0  0  0  0  0  0  0
   -2.3325    0.6013   -1.8047 C   0  0  0  0  0  0  0  0  0  0  0  0
   -1.9692   -0.0209   -0.6212 C   0  0  0  0  0  0  0  0  0  0  0  0
   -2.9613   -0.1869    0.4242 C   0  0  0  0  0  0  0  0  0  0  0  0
   -4.2837    0.2463    0.3093 C   0  0  0  0  0  0  0  0  0  0  0  0
   -4.9335   -0.0600    1.4496 N   0  0  0  0  0  0  0  0  0  0  0  0
   -4.0379   -0.6609    2.2364 C   0  0  0  0  0  0  0  0  0  0  0  0
   -2.9069   -0.7177    1.6116 O   0  0  0  0  0  0  0  0  0  0  0  0
    4.3337    0.6790   -0.7753 H   0  0  0  0  0  0  0  0  0  0  0  0
    5.1425    0.7338    0.8813 H   0  0  0  0  0  0  0  0  0  0  0  0
    3.3149    1.9964    1.7787 H   0  0  0  0  0  0  0  0  0  0  0  0
    3.1217    2.5280    0.0738 H   0  0  0  0  0  0  0  0  0  0  0  0
    4.0487   -1.4914    1.0136 H   0  0  0  0  0  0  0  0  0  0  0  0
    1.3379   -2.1998   -0.1495 H   0  0  0  0  0  0  0  0  0  0  0  0
    1.3709   -2.1277    1.6077 H   0  0  0  0  0  0  0  0  0  0  0  0
   -0.7801   -1.3178    1.4760 H   0  0  0  0  0  0  0  0  0  0  0  0
    1.2552   -0.5655   -1.5451 H   0  0  0  0  0  0  0  0  0  0  0  0
    0.5315    0.5365   -3.5671 H   0  0  0  0  0  0  0  0  0  0  0  0
   -1.8075    1.3043   -3.7655 H   0  0  0  0  0  0  0  0  0  0  0  0
   -3.3460    0.9557   -1.9406 H   0  0  0  0  0  0  0  0  0  0  0  0
   -4.7691    0.7441   -0.5140 H   0  0  0  0  0  0  0  0  0  0  0  0
   -4.1879   -1.0523    3.2387 H   0  0  0  0  0  0  0  0  0  0  0  0
  1  2  1  0
  2  3  1  0
  3  4  2  0
  4  5  1  0
  4  6  1  0
  6  7  1  0
  7  8  1  0
  8  9  2  0
  9 10  1  0
 10 11  2  0
 11 12  1  0
 12 13  2  0
 13 14  1  0
 14 15  2  0
 15 16  1  0
 16 17  2  0
 17 18  1  0
  5  1  1  0
 13  8  1  0
 18 14  1  0
  1 19  1  0
  1 20  1  0
  2 21  1  0
  2 22  1  0
  5 23  1  0
  6 24  1  0
  6 25  1  0
  7 26  1  0
  9 27  1  0
 10 28  1  0
 11 29  1  0
 12 30  1  0
 15 31  1  0
 17 32  1  0
M  END
>  <Ligand ID>  (1) 
LIG0003178

>  <Ligand>  (1) 
CHEMBL117381

>  <SMILES>  (1) 
C1CN=C(N1)CNc1ccccc1c1cnco1

>  <CID>  (1) 
9794803.0

>  <ChEMBL ID>  (1) 
nan

>  <InChiKey>  (1) 
HKSACLQULUKEGB-UHFFFAOYSA-N

>  <InChi>  (1) 
InChI=1S/C13H14N4O/c1-2-4-11(17-8-13-15-5-6-16-13)10(3-1)12-7-14-9-18-12/h1-4,7,9,17H,5-6,8H2,(H,15,16)

>  <IUPAC Name>  (1) 
N-(4,5-dihydro-1H-imidazol-2-ylmethyl)-2-(1,3-oxazol-5-yl)aniline

$$$$
