
     RDKit          3D

 41 41  0  0  0  0  0  0  0  0999 V2000
    6.7140    2.2437   -0.5490 O   0  0  0  0  0  0  0  0  0  0  0  0
    6.5839    1.5166    0.6207 C   0  0  0  0  0  0  0  0  0  0  0  0
    7.4756    1.6130    1.5127 O   0  0  0  0  0  0  0  0  0  0  0  0
    5.4165    0.6146    0.8671 C   0  0  0  0  0  0  0  0  0  0  0  0
    4.5632    0.6638   -0.2445 O   0  0  0  0  0  0  0  0  0  0  0  0
    3.3863   -0.0324   -0.3844 C   0  0  0  0  0  0  0  0  0  0  0  0
    3.3215   -1.3057   -0.9494 C   0  0  0  0  0  0  0  0  0  0  0  0
    4.4965   -1.8379   -1.3636 F   0  0  0  0  0  0  0  0  0  0  0  0
    2.1388   -1.9948   -1.0853 C   0  0  0  0  0  0  0  0  0  0  0  0
    0.9626   -1.4133   -0.6488 C   0  0  0  0  0  0  0  0  0  0  0  0
    0.9991   -0.1613   -0.0892 C   0  0  0  0  0  0  0  0  0  0  0  0
    2.1926    0.5463    0.0534 C   0  0  0  0  0  0  0  0  0  0  0  0
    2.1658    1.7850    0.6164 F   0  0  0  0  0  0  0  0  0  0  0  0
   -0.2814   -2.1745   -0.8081 C   0  0  0  0  0  0  0  0  0  0  0  0
   -1.7193   -1.5555   -0.0460 P   0  0  0  0  0  0  0  0  0  0  0  0
   -2.7518   -2.6826    0.0321 O   0  0  0  0  0  0  0  0  0  0  0  0
   -2.5396   -0.1740   -0.8033 C   0  0  0  0  0  0  0  0  0  0  0  0
   -3.7855    0.1371    0.0390 C   0  0  0  0  0  0  0  0  0  0  0  0
   -4.5245    1.3195   -0.5735 C   0  0  1  0  0  0  0  0  0  0  0  0
   -5.7299    1.6228    0.2388 C   0  0  0  0  0  0  0  0  0  0  0  0
   -5.9105    2.7392    0.7868 O   0  0  0  0  0  0  0  0  0  0  0  0
   -6.6786    0.6215    0.3844 O   0  0  0  0  0  0  0  0  0  0  0  0
   -3.6235    2.4416   -0.6436 N   0  0  0  0  0  0  0  0  0  0  0  0
   -1.3808   -1.1745    1.5795 O   0  0  0  0  0  0  0  0  0  0  0  0
   -0.0391   -3.4857   -0.3965 O   0  0  0  0  0  0  0  0  0  0  0  0
    7.2490    3.0956   -0.4955 H   0  0  0  0  0  0  0  0  0  0  0  0
    5.7841   -0.4246    1.0805 H   0  0  0  0  0  0  0  0  0  0  0  0
    4.9224    0.9963    1.7850 H   0  0  0  0  0  0  0  0  0  0  0  0
    2.1707   -2.9820   -1.5356 H   0  0  0  0  0  0  0  0  0  0  0  0
    0.0755    0.2921    0.2522 H   0  0  0  0  0  0  0  0  0  0  0  0
   -0.4488   -2.2508   -1.9197 H   0  0  0  0  0  0  0  0  0  0  0  0
   -2.9631   -0.4686   -1.8081 H   0  0  0  0  0  0  0  0  0  0  0  0
   -1.9570    0.7233   -0.9867 H   0  0  0  0  0  0  0  0  0  0  0  0
   -4.4554   -0.7310    0.0883 H   0  0  0  0  0  0  0  0  0  0  0  0
   -3.5068    0.4125    1.0722 H   0  0  0  0  0  0  0  0  0  0  0  0
   -4.8622    0.9780   -1.5782 H   0  0  0  0  0  0  0  0  0  0  0  0
   -7.5627    0.7683    0.8643 H   0  0  0  0  0  0  0  0  0  0  0  0
   -3.1341    2.4500   -1.5720 H   0  0  0  0  0  0  0  0  0  0  0  0
   -2.8640    2.3221    0.0885 H   0  0  0  0  0  0  0  0  0  0  0  0
   -0.5582   -1.6062    1.8893 H   0  0  0  0  0  0  0  0  0  0  0  0
    0.6586   -3.4474    0.3095 H   0  0  0  0  0  0  0  0  0  0  0  0
  1  2  1  0
  2  3  2  0
  2  4  1  0
  4  5  1  0
  5  6  1  0
  6  7  2  0
  7  8  1  0
  7  9  1  0
  9 10  2  0
 10 11  1  0
 11 12  2  0
 12 13  1  0
 10 14  1  0
 14 15  1  0
 15 16  2  0
 15 17  1  0
 17 18  1  0
 18 19  1  0
 19 20  1  0
 20 21  2  0
 20 22  1  0
 19 23  1  0
 15 24  1  0
 14 25  1  0
 12  6  1  0
  1 26  1  0
  4 27  1  0
  4 28  1  0
  9 29  1  0
 11 30  1  0
 14 31  1  0
 17 32  1  0
 17 33  1  0
 18 34  1  0
 18 35  1  0
 19 36  1  6
 22 37  1  0
 23 38  1  0
 23 39  1  0
 24 40  1  0
 25 41  1  0
M  END
>  <Ligand ID>  (1) 
LIG0001210

>  <Ligand>  (1) 
CHEMBL3896442

>  <SMILES>  (1) 
OC(=O)COc1c(F)cc(cc1F)C(P(=O)(CC[C@@H](C(=O)O)N)O)O

>  <CID>  (1) 
71042045.0

>  <ChEMBL ID>  (1) 
nan

>  <InChiKey>  (1) 
ILIGGRZKVRBOPK-LLTODGECSA-N

>  <InChi>  (1) 
InChI=1S/C13H16F2NO8P/c14-7-3-6(4-8(15)11(7)24-5-10(17)18)13(21)25(22,23)2-1-9(16)12(19)20/h3-4,9,13,21H,1-2,5,16H2,(H,17,18)(H,19,20)(H,22,23)/t9-,13?/m0/s1

>  <IUPAC Name>  (1) 
(2S)-2-amino-4-[[[4-(carboxymethoxy)-3,5-difluorophenyl]-hydroxymethyl]-hydroxyphosphoryl]butanoic acid

$$$$
