
     RDKit          3D

 60 63  0  0  0  0  0  0  0  0999 V2000
    0.9334   -1.5306   -0.0784 O   0  0  0  0  0  0  0  0  0  0  0  0
    0.9614   -0.2709    0.0269 C   0  0  0  0  0  0  0  0  0  0  0  0
   -0.2945    0.5107   -0.3112 C   0  0  0  0  0  0  0  0  0  0  0  0
   -0.5444    1.4605    0.7982 C   0  0  0  0  0  0  0  0  0  0  0  0
   -1.4442    2.6327    0.4111 C   0  0  0  0  0  0  0  0  0  0  0  0
   -0.7078    3.4798   -0.5668 C   0  0  0  0  0  0  0  0  0  0  0  0
    0.2776    2.7114   -1.3691 C   0  0  0  0  0  0  0  0  0  0  0  0
   -0.0700    1.2589   -1.5935 C   0  0  0  0  0  0  0  0  0  0  0  0
   -1.2969   -0.5140   -0.5055 N   0  0  0  0  0  0  0  0  0  0  0  0
   -1.5040   -1.3833    0.6166 C   0  0  0  0  0  0  0  0  0  0  0  0
   -0.8422   -1.2313    1.7081 O   0  0  0  0  0  0  0  0  0  0  0  0
   -2.4452   -2.4896    0.6467 C   0  0  0  0  0  0  0  0  0  0  0  0
   -2.2613   -3.6590   -0.0814 C   0  0  0  0  0  0  0  0  0  0  0  0
   -3.1624   -4.6816   -0.0136 N   0  0  0  0  0  0  0  0  0  0  0  0
   -4.2274   -4.5038    0.7856 C   0  0  0  0  0  0  0  0  0  0  0  0
   -4.4255   -3.3423    1.5197 C   0  0  0  0  0  0  0  0  0  0  0  0
   -3.5260   -2.3458    1.4393 N   0  0  0  0  0  0  0  0  0  0  0  0
   -2.0672   -0.7631   -1.6773 C   0  0  0  0  0  0  0  0  0  0  0  0
   -3.3852   -0.0869   -1.7593 C   0  0  0  0  0  0  0  0  0  0  0  0
   -4.6407   -0.5066   -1.3379 C   0  0  0  0  0  0  0  0  0  0  0  0
   -5.6855    0.2715   -1.5331 C   0  0  0  0  0  0  0  0  0  0  0  0
   -5.5201    1.5037   -2.1591 C   0  0  0  0  0  0  0  0  0  0  0  0
   -3.7394    1.5385   -2.4862 S   0  0  0  0  0  0  0  0  0  0  0  0
    2.1480    0.3225    0.4473 N   0  0  0  0  0  0  0  0  0  0  0  0
    3.3090   -0.4490    0.7569 C   0  0  0  0  0  0  0  0  0  0  0  0
    3.9016   -0.3117    2.0912 C   0  0  0  0  0  0  0  0  0  0  0  0
    4.9145    0.8250    2.1987 C   0  0  0  0  0  0  0  0  0  0  0  0
    6.1197    0.4185    1.3715 C   0  0  0  0  0  0  0  0  0  0  0  0
    5.7498   -0.3720    0.1590 C   0  0  0  0  0  0  0  0  0  0  0  0
    4.3415   -0.1310   -0.3005 C   0  0  0  0  0  0  0  0  0  0  0  0
    0.4128    1.9648    1.1342 H   0  0  0  0  0  0  0  0  0  0  0  0
   -0.9145    0.9814    1.7244 H   0  0  0  0  0  0  0  0  0  0  0  0
   -1.6423    3.1985    1.3506 H   0  0  0  0  0  0  0  0  0  0  0  0
   -2.4078    2.2726    0.0516 H   0  0  0  0  0  0  0  0  0  0  0  0
   -1.4269    4.0484   -1.2113 H   0  0  0  0  0  0  0  0  0  0  0  0
   -0.1742    4.2953    0.0004 H   0  0  0  0  0  0  0  0  0  0  0  0
    1.3220    2.8796   -1.0396 H   0  0  0  0  0  0  0  0  0  0  0  0
    0.2618    3.1642   -2.4084 H   0  0  0  0  0  0  0  0  0  0  0  0
    0.7621    0.8478   -2.2044 H   0  0  0  0  0  0  0  0  0  0  0  0
   -0.9587    1.2365   -2.2100 H   0  0  0  0  0  0  0  0  0  0  0  0
   -1.4100   -3.7980   -0.7073 H   0  0  0  0  0  0  0  0  0  0  0  0
   -4.9490   -5.3284    0.8383 H   0  0  0  0  0  0  0  0  0  0  0  0
   -5.3085   -3.2280    2.1648 H   0  0  0  0  0  0  0  0  0  0  0  0
   -2.2624   -1.8953   -1.7919 H   0  0  0  0  0  0  0  0  0  0  0  0
   -1.4769   -0.5819   -2.6241 H   0  0  0  0  0  0  0  0  0  0  0  0
   -4.7113   -1.5102   -0.8545 H   0  0  0  0  0  0  0  0  0  0  0  0
   -6.7236   -0.0009   -1.2209 H   0  0  0  0  0  0  0  0  0  0  0  0
   -6.2035    2.2450   -2.3987 H   0  0  0  0  0  0  0  0  0  0  0  0
    2.2338    1.3729    0.5539 H   0  0  0  0  0  0  0  0  0  0  0  0
    3.0311   -1.5290    0.5907 H   0  0  0  0  0  0  0  0  0  0  0  0
    4.5506   -1.2253    2.2551 H   0  0  0  0  0  0  0  0  0  0  0  0
    3.2091   -0.3351    2.9438 H   0  0  0  0  0  0  0  0  0  0  0  0
    5.2359    0.9333    3.2559 H   0  0  0  0  0  0  0  0  0  0  0  0
    4.5349    1.7559    1.7423 H   0  0  0  0  0  0  0  0  0  0  0  0
    6.6586    1.3513    1.0492 H   0  0  0  0  0  0  0  0  0  0  0  0
    6.8095   -0.1805    2.0015 H   0  0  0  0  0  0  0  0  0  0  0  0
    6.4012   -0.0562   -0.6989 H   0  0  0  0  0  0  0  0  0  0  0  0
    5.9189   -1.4590    0.2785 H   0  0  0  0  0  0  0  0  0  0  0  0
    4.2170    0.9540   -0.5670 H   0  0  0  0  0  0  0  0  0  0  0  0
    4.1439   -0.7351   -1.2019 H   0  0  0  0  0  0  0  0  0  0  0  0
  1  2  2  0
  2  3  1  0
  3  4  1  0
  4  5  1  0
  5  6  1  0
  6  7  1  0
  7  8  1  0
  3  9  1  0
  9 10  1  0
 10 11  2  0
 10 12  1  0
 12 13  2  0
 13 14  1  0
 14 15  2  0
 15 16  1  0
 16 17  2  0
  9 18  1  0
 18 19  1  0
 19 20  2  0
 20 21  1  0
 21 22  2  0
 22 23  1  0
  2 24  1  0
 24 25  1  0
 25 26  1  0
 26 27  1  0
 27 28  1  0
 28 29  1  0
 29 30  1  0
  8  3  1  0
 17 12  1  0
 23 19  1  0
 30 25  1  0
  4 31  1  0
  4 32  1  0
  5 33  1  0
  5 34  1  0
  6 35  1  0
  6 36  1  0
  7 37  1  0
  7 38  1  0
  8 39  1  0
  8 40  1  0
 13 41  1  0
 15 42  1  0
 16 43  1  0
 18 44  1  0
 18 45  1  0
 20 46  1  0
 21 47  1  0
 22 48  1  0
 24 49  1  0
 25 50  1  0
 26 51  1  0
 26 52  1  0
 27 53  1  0
 27 54  1  0
 28 55  1  0
 28 56  1  0
 29 57  1  0
 29 58  1  0
 30 59  1  0
 30 60  1  0
M  END
>  <Ligand ID>  (1) 
LIG0003061

>  <Ligand>  (1) 
SMR000204704

>  <SMILES>  (1) 
O=C(C1(CCCCC1)N(C(=O)c1cnccn1)Cc1cccs1)NC1CCCCC1

>  <CID>  (1) 
4014737.0

>  <ChEMBL ID>  (1) 
nan

>  <InChiKey>  (1) 
ORCCIKBWWBFJKS-UHFFFAOYSA-N

>  <InChi>  (1) 
InChI=1S/C23H30N4O2S/c28-21(20-16-24-13-14-25-20)27(17-19-10-7-15-30-19)23(11-5-2-6-12-23)22(29)26-18-8-3-1-4-9-18/h7,10,13-16,18H,1-6,8-9,11-12,17H2,(H,26,29)

>  <IUPAC Name>  (1) 
N-[1-(cyclohexylcarbamoyl)cyclohexyl]-N-(thiophen-2-ylmethyl)pyrazine-2-carboxamide

$$$$
