
     RDKit          3D

 60 65  0  0  0  0  0  0  0  0999 V2000
   -5.9861   -0.7928    0.7420 C   0  0  0  0  0  0  0  0  0  0  0  0
   -4.9605    0.2492    0.2935 C   0  0  0  0  0  0  0  0  0  0  0  0
   -3.7598   -0.3370   -0.0400 O   0  0  0  0  0  0  0  0  0  0  0  0
   -2.7903    0.6211   -0.4611 C   0  0  1  0  0  0  0  0  0  0  0  0
   -1.6232    0.6828    0.4109 C   0  0  2  0  0  0  0  0  0  0  0  0
   -0.5051    1.6552    0.1096 C   0  0  0  0  0  0  0  0  0  0  0  0
    0.7852    1.0680    0.6846 C   0  0  1  0  0  0  0  0  0  0  0  0
    0.4420    0.7333    2.0898 C   0  0  0  0  0  0  0  0  0  0  0  0
   -0.5921   -0.1002    2.2491 C   0  0  0  0  0  0  0  0  0  0  0  0
   -1.0650   -0.6805    0.8755 C   0  0  1  0  0  0  0  0  0  0  0  0
   -2.1541   -1.4929    1.1346 O   0  0  0  0  0  0  0  0  0  0  0  0
   -1.7294   -2.7511    1.5622 C   0  0  0  0  0  0  0  0  0  0  0  0
    0.1249   -1.1919    0.3615 C   0  0  2  0  0  0  0  0  0  0  0  0
    0.9564   -0.0907   -0.2060 C   0  0  0  0  0  0  0  0  0  0  0  0
    0.9766    0.1451   -1.6490 C   0  0  0  0  0  0  0  0  0  0  0  0
    1.9888    1.2394   -1.8849 C   0  0  0  0  0  0  0  0  0  0  0  0
    1.8124    2.3321   -0.9561 N   0  0  0  0  0  0  0  0  0  0  0  0
    1.9915    1.8665    0.4315 C   0  0  2  0  0  0  0  0  0  0  0  0
    3.3357    1.2224    0.5855 C   0  0  0  0  0  0  0  0  0  0  0  0
    3.3795   -0.2181    0.2226 C   0  0  0  0  0  0  0  0  0  0  0  0
    2.2166   -0.8146   -0.0446 C   0  0  0  0  0  0  0  0  0  0  0  0
    1.9678   -2.1275   -0.3376 C   0  0  0  0  0  0  0  0  0  0  0  0
    0.5825   -2.1950   -0.5019 O   0  0  0  0  0  0  0  0  0  0  0  0
    3.0957   -2.9372   -0.3687 C   0  0  0  0  0  0  0  0  0  0  0  0
    2.9061   -4.2588   -0.6624 O   0  0  0  0  0  0  0  0  0  0  0  0
    4.3716   -2.3858   -0.1026 C   0  0  0  0  0  0  0  0  0  0  0  0
    4.5086   -1.0099    0.1976 C   0  0  0  0  0  0  0  0  0  0  0  0
    2.5497    3.4945   -1.2819 C   0  0  0  0  0  0  0  0  0  0  0  0
   -2.6493    0.3658   -1.9131 C   0  0  0  0  0  0  0  0  0  0  0  0
   -5.9348   -0.9886    1.8229 H   0  0  0  0  0  0  0  0  0  0  0  0
   -5.8416   -1.7466    0.2161 H   0  0  0  0  0  0  0  0  0  0  0  0
   -7.0184   -0.4190    0.5129 H   0  0  0  0  0  0  0  0  0  0  0  0
   -5.3813    0.6994   -0.6321 H   0  0  0  0  0  0  0  0  0  0  0  0
   -4.8735    1.0542    1.0381 H   0  0  0  0  0  0  0  0  0  0  0  0
   -3.3688    1.5899   -0.3732 H   0  0  0  0  0  0  0  0  0  0  0  0
   -2.1070    1.1497    1.3485 H   0  0  0  0  0  0  0  0  0  0  0  0
   -0.5916    2.6314    0.6612 H   0  0  0  0  0  0  0  0  0  0  0  0
   -0.4246    1.9605   -0.9360 H   0  0  0  0  0  0  0  0  0  0  0  0
    0.9668    1.1156    2.9515 H   0  0  0  0  0  0  0  0  0  0  0  0
   -1.0672   -0.3695    3.1458 H   0  0  0  0  0  0  0  0  0  0  0  0
   -2.6148   -3.3822    1.7630 H   0  0  0  0  0  0  0  0  0  0  0  0
   -1.1816   -3.2153    0.7187 H   0  0  0  0  0  0  0  0  0  0  0  0
   -1.0530   -2.6662    2.4290 H   0  0  0  0  0  0  0  0  0  0  0  0
    0.6832   -1.5797    1.2934 H   0  0  0  0  0  0  0  0  0  0  0  0
    1.2977   -0.8085   -2.1669 H   0  0  0  0  0  0  0  0  0  0  0  0
    0.0966    0.4548   -2.1922 H   0  0  0  0  0  0  0  0  0  0  0  0
    1.7934    1.6981   -2.8911 H   0  0  0  0  0  0  0  0  0  0  0  0
    3.0049    0.8250   -1.9145 H   0  0  0  0  0  0  0  0  0  0  0  0
    1.9811    2.7847    1.0482 H   0  0  0  0  0  0  0  0  0  0  0  0
    4.0260    1.7265   -0.1503 H   0  0  0  0  0  0  0  0  0  0  0  0
    3.7929    1.4121    1.5842 H   0  0  0  0  0  0  0  0  0  0  0  0
    2.8368   -5.0199   -0.0122 H   0  0  0  0  0  0  0  0  0  0  0  0
    5.2398   -3.0261   -0.1309 H   0  0  0  0  0  0  0  0  0  0  0  0
    5.4549   -0.5656    0.4050 H   0  0  0  0  0  0  0  0  0  0  0  0
    3.2211    3.3623   -2.1637 H   0  0  0  0  0  0  0  0  0  0  0  0
    1.8417    4.3058   -1.5685 H   0  0  0  0  0  0  0  0  0  0  0  0
    3.1051    3.8365   -0.3850 H   0  0  0  0  0  0  0  0  0  0  0  0
   -3.6768    0.3205   -2.3336 H   0  0  0  0  0  0  0  0  0  0  0  0
   -2.2159   -0.6337   -2.1577 H   0  0  0  0  0  0  0  0  0  0  0  0
   -2.1677    1.2026   -2.4715 H   0  0  0  0  0  0  0  0  0  0  0  0
  1  2  1  0
  2  3  1  0
  3  4  1  0
  4  5  1  0
  5  6  1  0
  7  6  1  6
  7  8  1  0
  8  9  2  0
  9 10  1  0
 10 11  1  1
 11 12  1  0
 10 13  1  0
 13 14  1  0
 14 15  1  0
 15 16  1  0
 16 17  1  0
 17 18  1  0
 18 19  1  0
 19 20  1  0
 20 21  1  0
 21 22  2  0
 22 23  1  0
 22 24  1  0
 24 25  1  0
 24 26  2  0
 26 27  1  0
 17 28  1  0
  4 29  1  0
 10  5  1  0
 23 13  1  0
 18  7  1  0
 27 20  2  0
 14  7  1  0
 21 14  1  0
  1 30  1  0
  1 31  1  0
  1 32  1  0
  2 33  1  0
  2 34  1  0
  4 35  1  6
  5 36  1  1
  6 37  1  0
  6 38  1  0
  8 39  1  0
  9 40  1  0
 12 41  1  0
 12 42  1  0
 12 43  1  0
 13 44  1  1
 15 45  1  0
 15 46  1  0
 16 47  1  0
 16 48  1  0
 18 49  1  1
 19 50  1  0
 19 51  1  0
 25 52  1  0
 26 53  1  0
 27 54  1  0
 28 55  1  0
 28 56  1  0
 28 57  1  0
 29 58  1  0
 29 59  1  0
 29 60  1  0
M  END
>  <Ligand ID>  (1) 
LIG0004425

>  <Ligand>  (1) 
CHEMBL2113670

>  <SMILES>  (1) 
CCO[C@@H]([C@@H]1C[C@]23C=C[C@]1(OC)[C@@H]1C43CCN([C@@H]2Cc2c4c(O1)c(O)cc2)C)C

>  <CID>  (1) 
71461673.0

>  <ChEMBL ID>  (1) 
nan

>  <InChiKey>  (1) 
YLGFGFSODXCCQV-LJAXJJGUSA-N

>  <InChi>  (1) 
InChI=1S/C24H31NO4/c1-5-28-14(2)16-13-22-8-9-24(16,27-4)21-23(22)10-11-25(3)18(22)12-15-6-7-17(26)20(29-21)19(15)23/h6-9,14,16,18,21,26H,5,10-13H2,1-4H3/t14-,16+,18-,21+,22-,23?,24-/m1/s1

>  <IUPAC Name>  (1) 
(1R,6R,14S,15R,19S)-19-[(1R)-1-ethoxyethyl]-15-methoxy-5-methyl-13-oxa-5-azahexacyclo[13.2.2.12,8.01,6.02,14.012,20]icosa-8(20),9,11,16-tetraen-11-ol

$$$$
