
     RDKit          3D

 70 72  0  0  0  0  0  0  0  0999 V2000
   -7.7474   -0.3438   -0.0048 C   0  0  0  0  0  0  0  0  0  0  0  0
   -6.9469   -1.5941    0.0219 C   0  0  0  0  0  0  0  0  0  0  0  0
   -5.6951   -1.6333   -0.7505 C   0  0  0  0  0  0  0  0  0  0  0  0
   -4.6181   -0.6438   -0.3854 C   0  0  0  0  0  0  0  0  0  0  0  0
   -5.0318    0.7753   -0.5497 C   0  0  0  0  0  0  0  0  0  0  0  0
   -3.7399    1.0241   -1.3475 C   0  0  0  0  0  0  0  0  0  0  0  0
   -3.6969   -0.4544   -1.5767 C   0  0  0  0  0  0  0  0  0  0  0  0
   -3.8981   -0.9855    0.9007 C   0  0  0  0  0  0  0  0  0  0  0  0
   -2.8373   -0.0635    1.3046 C   0  0  0  0  0  0  0  0  0  0  0  0
   -3.0224    1.0801    2.0539 C   0  0  0  0  0  0  0  0  0  0  0  0
   -1.9829    1.9126    2.4065 C   0  0  0  0  0  0  0  0  0  0  0  0
   -0.6892    1.6470    2.0273 C   0  0  0  0  0  0  0  0  0  0  0  0
   -0.4747    0.5100    1.2777 C   0  0  0  0  0  0  0  0  0  0  0  0
   -1.5208   -0.3271    0.9234 C   0  0  0  0  0  0  0  0  0  0  0  0
    0.8773    0.1020    0.7922 C   0  0  1  0  0  0  0  0  0  0  0  0
    1.2152   -1.1830    1.5142 C   0  0  2  0  0  0  0  0  0  0  0  0
    2.4714   -1.0968    2.1153 O   0  0  0  0  0  0  0  0  0  0  0  0
    1.1299   -2.2983    0.5180 C   0  0  0  0  0  0  0  0  0  0  0  0
    0.8527   -1.6642   -0.7941 C   0  0  0  0  0  0  0  0  0  0  0  0
    0.6293   -2.2895   -1.8072 O   0  0  0  0  0  0  0  0  0  0  0  0
    0.8911   -0.1744   -0.6733 C   0  0  2  0  0  0  0  0  0  0  0  0
    2.1702    0.3522   -1.2893 C   0  0  0  0  0  0  0  0  0  0  0  0
    3.3710   -0.2674   -0.7117 C   0  0  0  0  0  0  0  0  0  0  0  0
    4.3437    0.3878   -0.0859 C   0  0  0  0  0  0  0  0  0  0  0  0
    4.4252    1.8090    0.1540 C   0  0  0  0  0  0  0  0  0  0  0  0
    5.5698    2.4864   -0.5085 C   0  0  0  0  0  0  0  0  0  0  0  0
    6.9454    2.0178   -0.2538 C   0  0  0  0  0  0  0  0  0  0  0  0
    7.3134    0.6963   -0.7820 C   0  0  0  0  0  0  0  0  0  0  0  0
    6.6859    0.0313   -1.6325 O   0  0  0  0  0  0  0  0  0  0  0  0
    8.4883    0.1171   -0.2846 O   0  0  0  0  0  0  0  0  0  0  0  0
    8.8335   -1.1572   -0.8014 C   0  0  0  0  0  0  0  0  0  0  0  0
   -4.7503   -1.2194    1.9513 O   0  0  0  0  0  0  0  0  0  0  0  0
   -8.7621   -0.4947    0.4870 H   0  0  0  0  0  0  0  0  0  0  0  0
   -8.0176    0.0280   -1.0150 H   0  0  0  0  0  0  0  0  0  0  0  0
   -7.3087    0.4886    0.5723 H   0  0  0  0  0  0  0  0  0  0  0  0
   -6.8431   -1.9009    1.0856 H   0  0  0  0  0  0  0  0  0  0  0  0
   -7.6174   -2.3998   -0.4132 H   0  0  0  0  0  0  0  0  0  0  0  0
   -5.2176   -2.6419   -0.7302 H   0  0  0  0  0  0  0  0  0  0  0  0
   -5.9246   -1.4599   -1.8465 H   0  0  0  0  0  0  0  0  0  0  0  0
   -5.8768    0.9624   -1.2479 H   0  0  0  0  0  0  0  0  0  0  0  0
   -5.1314    1.4239    0.3124 H   0  0  0  0  0  0  0  0  0  0  0  0
   -3.9291    1.6374   -2.2789 H   0  0  0  0  0  0  0  0  0  0  0  0
   -2.9269    1.4954   -0.8012 H   0  0  0  0  0  0  0  0  0  0  0  0
   -2.7352   -0.9584   -1.5574 H   0  0  0  0  0  0  0  0  0  0  0  0
   -4.1859   -0.6716   -2.5590 H   0  0  0  0  0  0  0  0  0  0  0  0
   -3.4173   -1.9890    0.6852 H   0  0  0  0  0  0  0  0  0  0  0  0
   -4.0131    1.3453    2.3911 H   0  0  0  0  0  0  0  0  0  0  0  0
   -2.1328    2.8166    2.9993 H   0  0  0  0  0  0  0  0  0  0  0  0
    0.1461    2.2749    2.2848 H   0  0  0  0  0  0  0  0  0  0  0  0
   -1.3293   -1.2151    0.3395 H   0  0  0  0  0  0  0  0  0  0  0  0
    1.6010    0.8660    1.1020 H   0  0  0  0  0  0  0  0  0  0  0  0
    0.5021   -1.4052    2.3515 H   0  0  0  0  0  0  0  0  0  0  0  0
    2.6137   -0.1241    2.3440 H   0  0  0  0  0  0  0  0  0  0  0  0
    0.3063   -3.0066    0.7785 H   0  0  0  0  0  0  0  0  0  0  0  0
    2.0967   -2.8418    0.5232 H   0  0  0  0  0  0  0  0  0  0  0  0
   -0.0016    0.2064   -1.1853 H   0  0  0  0  0  0  0  0  0  0  0  0
    2.1432    1.4354   -1.3278 H   0  0  0  0  0  0  0  0  0  0  0  0
    2.1466    0.0170   -2.3705 H   0  0  0  0  0  0  0  0  0  0  0  0
    3.4484   -1.3663   -0.8193 H   0  0  0  0  0  0  0  0  0  0  0  0
    5.1398   -0.2580    0.3282 H   0  0  0  0  0  0  0  0  0  0  0  0
    3.5113    2.3749   -0.1775 H   0  0  0  0  0  0  0  0  0  0  0  0
    4.5511    2.0024    1.2792 H   0  0  0  0  0  0  0  0  0  0  0  0
    5.4708    3.5975   -0.3367 H   0  0  0  0  0  0  0  0  0  0  0  0
    5.3714    2.3964   -1.6238 H   0  0  0  0  0  0  0  0  0  0  0  0
    7.2627    2.1396    0.8169 H   0  0  0  0  0  0  0  0  0  0  0  0
    7.6306    2.7465   -0.7968 H   0  0  0  0  0  0  0  0  0  0  0  0
    9.6106   -1.6345   -0.1610 H   0  0  0  0  0  0  0  0  0  0  0  0
    7.9539   -1.8388   -0.8075 H   0  0  0  0  0  0  0  0  0  0  0  0
    9.1974   -1.1161   -1.8412 H   0  0  0  0  0  0  0  0  0  0  0  0
   -4.8944   -0.4849    2.5686 H   0  0  0  0  0  0  0  0  0  0  0  0
  1  2  1  0
  2  3  1  0
  3  4  1  0
  4  5  1  0
  5  6  1  0
  6  7  1  0
  4  8  1  0
  8  9  1  0
  9 10  2  0
 10 11  1  0
 11 12  2  0
 12 13  1  0
 13 14  2  0
 13 15  1  0
 15 16  1  0
 16 17  1  0
 16 18  1  0
 18 19  1  0
 19 20  2  0
 19 21  1  0
 21 22  1  0
 22 23  1  0
 23 24  2  0
 24 25  1  0
 25 26  1  0
 26 27  1  0
 27 28  1  0
 28 29  2  0
 28 30  1  0
 30 31  1  0
  8 32  1  0
  7  4  1  0
 14  9  1  0
 21 15  1  0
  1 33  1  0
  1 34  1  0
  1 35  1  0
  2 36  1  0
  2 37  1  0
  3 38  1  0
  3 39  1  0
  5 40  1  0
  5 41  1  0
  6 42  1  0
  6 43  1  0
  7 44  1  0
  7 45  1  0
  8 46  1  0
 10 47  1  0
 11 48  1  0
 12 49  1  0
 14 50  1  0
 15 51  1  6
 16 52  1  1
 17 53  1  0
 18 54  1  0
 18 55  1  0
 21 56  1  6
 22 57  1  0
 22 58  1  0
 23 59  1  0
 24 60  1  0
 25 61  1  0
 25 62  1  0
 26 63  1  0
 26 64  1  0
 27 65  1  0
 27 66  1  0
 31 67  1  0
 31 68  1  0
 31 69  1  0
 32 70  1  0
M  END
>  <Ligand ID>  (1) 
LIG0001850

>  <Ligand>  (1) 
SCHEMBL5205977

>  <SMILES>  (1) 
CCCC1(CCC1)C(c1cccc(c1)[C@H]1[C@H](O)CC(=O)[C@@H]1C/C=C\CCCC(=O)OC)O

>  <CID>  (1) 
11955407.0

>  <ChEMBL ID>  (1) 
nan

>  <InChiKey>  (1) 
HAOFKXXCXDQHEZ-TZTOVLLNSA-N

>  <InChi>  (1) 
InChI=1S/C27H38O5/c1-3-14-27(15-9-16-27)26(31)20-11-8-10-19(17-20)25-21(22(28)18-23(25)29)12-6-4-5-7-13-24(30)32-2/h4,6,8,10-11,17,21,23,25-26,29,31H,3,5,7,9,12-16,18H2,1-2H3/b6-4-/t21-,23+,25+,26?/m0/s1

>  <IUPAC Name>  (1) 
methyl (Z)-7-[(1R,2S,3R)-3-hydroxy-2-[3-[hydroxy-(1-propylcyclobutyl)methyl]phenyl]-5-oxocyclopentyl]hept-5-enoate

$$$$
