
     RDKit          3D

 25 24  0  0  0  0  0  0  0  0999 V2000
   -3.6029   -0.0296    0.5158 C   0  0  0  0  0  0  0  0  0  0  0  0
   -2.4523    0.5386   -0.2805 C   0  0  0  0  0  0  0  0  0  0  0  0
   -1.2600   -0.4216   -0.2969 C   0  0  0  0  0  0  0  0  0  0  0  0
   -0.1836    0.2474   -1.1135 C   0  0  0  0  0  0  0  0  0  0  0  0
    1.0623   -0.6021   -1.2123 C   0  0  0  0  0  0  0  0  0  0  0  0
    1.6678   -0.8996    0.1273 C   0  0  0  0  0  0  0  0  0  0  0  0
    2.0637    0.3246    0.8610 C   0  0  0  0  0  0  0  0  0  0  0  0
    1.2276    0.9862    1.4822 O   0  0  0  0  0  0  0  0  0  0  0  0
    3.5152    0.7413    0.8294 C   0  0  0  0  0  0  0  0  0  0  0  0
   -3.5586    0.3165    1.5799 H   0  0  0  0  0  0  0  0  0  0  0  0
   -3.5843   -1.1447    0.4664 H   0  0  0  0  0  0  0  0  0  0  0  0
   -4.5872    0.3277    0.1383 H   0  0  0  0  0  0  0  0  0  0  0  0
   -2.1439    1.5420    0.0615 H   0  0  0  0  0  0  0  0  0  0  0  0
   -2.8357    0.6935   -1.3238 H   0  0  0  0  0  0  0  0  0  0  0  0
   -0.9414   -0.5708    0.7505 H   0  0  0  0  0  0  0  0  0  0  0  0
   -1.6035   -1.3312   -0.7925 H   0  0  0  0  0  0  0  0  0  0  0  0
   -0.5801    0.3402   -2.1507 H   0  0  0  0  0  0  0  0  0  0  0  0
   -0.0036    1.2344   -0.6967 H   0  0  0  0  0  0  0  0  0  0  0  0
    0.8650   -1.5517   -1.7392 H   0  0  0  0  0  0  0  0  0  0  0  0
    1.8445   -0.0887   -1.8084 H   0  0  0  0  0  0  0  0  0  0  0  0
    2.5612   -1.5328   -0.0389 H   0  0  0  0  0  0  0  0  0  0  0  0
    0.9666   -1.5440    0.7060 H   0  0  0  0  0  0  0  0  0  0  0  0
    4.1050    0.0459    1.4667 H   0  0  0  0  0  0  0  0  0  0  0  0
    3.6429    1.7735    1.1605 H   0  0  0  0  0  0  0  0  0  0  0  0
    3.8153    0.6050   -0.2336 H   0  0  0  0  0  0  0  0  0  0  0  0
  1  2  1  0
  2  3  1  0
  3  4  1  0
  4  5  1  0
  5  6  1  0
  6  7  1  0
  7  8  2  0
  7  9  1  0
  1 10  1  0
  1 11  1  0
  1 12  1  0
  2 13  1  0
  2 14  1  0
  3 15  1  0
  3 16  1  0
  4 17  1  0
  4 18  1  0
  5 19  1  0
  5 20  1  0
  6 21  1  0
  6 22  1  0
  9 23  1  0
  9 24  1  0
  9 25  1  0
M  END
>  <Ligand ID>  (1) 
LIG0000109

>  <Ligand>  (1) 
2-Octanone

>  <SMILES>  (1) 
CCCCCCC(=O)C

>  <CID>  (1) 
8093.0

>  <ChEMBL ID>  (1) 
nan

>  <InChiKey>  (1) 
ZPVFWPFBNIEHGJ-UHFFFAOYSA-N

>  <InChi>  (1) 
InChI=1S/C8H16O/c1-3-4-5-6-7-8(2)9/h3-7H2,1-2H3

>  <IUPAC Name>  (1) 
octan-2-one

$$$$
