
     RDKit          3D

 29 30  0  0  0  0  0  0  0  0999 V2000
    3.2594   -0.0936   -1.1492 C   0  0  0  0  0  0  0  0  0  0  0  0
    2.2887    0.3960   -0.1308 C   0  0  0  0  0  0  0  0  0  0  0  0
    2.7707    0.8552    1.0200 C   0  0  0  0  0  0  0  0  0  0  0  0
    0.8332    0.3492   -0.4457 C   0  0  0  0  0  0  0  0  0  0  0  0
    0.0698    1.0148    0.6573 C   0  0  0  0  0  0  0  0  0  0  0  0
   -1.3582    1.3168    0.3140 C   0  0  0  0  0  0  0  0  0  0  0  0
   -2.2365    0.1108    0.2389 C   0  0  0  0  0  0  0  0  0  0  0  0
   -1.9018   -0.7106   -0.8301 O   0  0  0  0  0  0  0  0  0  0  0  0
   -0.8941   -1.4873   -0.2784 C   0  0  0  0  0  0  0  0  0  0  0  0
    0.4794   -1.0739   -0.6965 C   0  0  0  0  0  0  0  0  0  0  0  0
   -1.0799   -1.4936    1.0865 O   0  0  0  0  0  0  0  0  0  0  0  0
   -2.0676   -0.6791    1.3559 O   0  0  0  0  0  0  0  0  0  0  0  0
   -3.6835    0.5382    0.2107 C   0  0  0  0  0  0  0  0  0  0  0  0
    2.7762   -0.3248   -2.1061 H   0  0  0  0  0  0  0  0  0  0  0  0
    4.0494    0.6668   -1.2169 H   0  0  0  0  0  0  0  0  0  0  0  0
    3.7652   -1.0041   -0.7391 H   0  0  0  0  0  0  0  0  0  0  0  0
    3.8293    0.8474    1.1505 H   0  0  0  0  0  0  0  0  0  0  0  0
    2.1473    1.2315    1.8199 H   0  0  0  0  0  0  0  0  0  0  0  0
    0.6109    0.9098   -1.3958 H   0  0  0  0  0  0  0  0  0  0  0  0
    0.1875    0.4953    1.6116 H   0  0  0  0  0  0  0  0  0  0  0  0
    0.5609    2.0180    0.8068 H   0  0  0  0  0  0  0  0  0  0  0  0
   -1.7469    1.9577    1.1518 H   0  0  0  0  0  0  0  0  0  0  0  0
   -1.4035    1.9254   -0.5932 H   0  0  0  0  0  0  0  0  0  0  0  0
   -1.0025   -2.5552   -0.6036 H   0  0  0  0  0  0  0  0  0  0  0  0
    0.6098   -1.3416   -1.7672 H   0  0  0  0  0  0  0  0  0  0  0  0
    1.1885   -1.7485   -0.1517 H   0  0  0  0  0  0  0  0  0  0  0  0
   -3.9239    0.8454    1.2669 H   0  0  0  0  0  0  0  0  0  0  0  0
   -4.3639   -0.2783   -0.0997 H   0  0  0  0  0  0  0  0  0  0  0  0
   -3.7639    1.3870   -0.4870 H   0  0  0  0  0  0  0  0  0  0  0  0
  1  2  1  0
  2  3  2  0
  2  4  1  0
  4  5  1  0
  5  6  1  0
  6  7  1  0
  7  8  1  0
  8  9  1  0
  9 10  1  0
  9 11  1  0
 11 12  1  0
  7 13  1  0
 10  4  1  0
 12  7  1  0
  1 14  1  0
  1 15  1  0
  1 16  1  0
  3 17  1  0
  3 18  1  0
  4 19  1  0
  5 20  1  0
  5 21  1  0
  6 22  1  0
  6 23  1  0
  9 24  1  0
 10 25  1  0
 10 26  1  0
 13 27  1  0
 13 28  1  0
 13 29  1  0
M  END
>  <Ligand ID>  (1) 
LIG0002048

>  <Ligand>  (1) 
r-Limonene

>  <SMILES>  (1) 
CC(=C)C1CCC2(OC(C1)OO2)C

>  <CID>  (1) 
91691547.0

>  <ChEMBL ID>  (1) 
nan

>  <InChiKey>  (1) 
JRFITZGBELIFQM-UHFFFAOYSA-N

>  <InChi>  (1) 
InChI=1S/C10H16O3/c1-7(2)8-4-5-10(3)11-9(6-8)12-13-10/h8-9H,1,4-6H2,2-3H3

>  <IUPAC Name>  (1) 
1-methyl-4-prop-1-en-2-yl-7,8,9-trioxabicyclo[4.2.1]nonane

$$$$
