
     RDKit          3D

111116  0  0  0  0  0  0  0  0999 V2000
   -4.1011   -7.7422    0.4568 N   0  0  0  0  0  0  0  0  0  0  0  0
   -4.7595   -6.4993    0.2434 C   0  0  0  0  0  0  0  0  0  0  0  0
   -4.4718   -5.5062    1.0363 N   0  0  0  0  0  0  0  0  0  0  0  0
   -5.1529   -4.2332    0.8097 C   0  0  0  0  0  0  0  0  0  0  0  0
   -4.2135   -3.2936    0.0336 C   0  0  0  0  0  0  0  0  0  0  0  0
   -3.0066   -3.1188    0.8937 C   0  0  0  0  0  0  0  0  0  0  0  0
   -2.0098   -2.2389    0.2578 C   0  0  2  0  0  0  0  0  0  0  0  0
   -0.7911   -2.0231    1.0529 N   0  0  0  0  0  0  0  0  0  0  0  0
    0.4701   -1.9868    0.3821 C   0  0  0  0  0  0  0  0  0  0  0  0
    0.4312   -2.1403   -0.8430 O   0  0  0  0  0  0  0  0  0  0  0  0
    1.7664   -1.7668    1.1266 C   0  0  1  0  0  0  0  0  0  0  0  0
    2.0470   -2.7668    2.1639 C   0  0  0  0  0  0  0  0  0  0  0  0
    2.1668   -4.1578    1.7765 C   0  0  0  0  0  0  0  0  0  0  0  0
    1.0751   -5.0047    1.7516 C   0  0  0  0  0  0  0  0  0  0  0  0
    1.1926   -6.3417    1.3800 C   0  0  0  0  0  0  0  0  0  0  0  0
    2.4076   -6.8561    1.0258 C   0  0  0  0  0  0  0  0  0  0  0  0
    3.5105   -6.0232    1.0449 C   0  0  0  0  0  0  0  0  0  0  0  0
    3.3826   -4.6926    1.4168 C   0  0  0  0  0  0  0  0  0  0  0  0
    2.8428   -1.5477    0.1573 N   0  0  0  0  0  0  0  0  0  0  0  0
    3.1182   -0.2002   -0.1924 C   0  0  0  0  0  0  0  0  0  0  0  0
    2.4029    0.6521    0.3471 O   0  0  0  0  0  0  0  0  0  0  0  0
    4.1662    0.2657   -1.1315 C   0  0  2  0  0  0  0  0  0  0  0  0
    5.5088   -0.2410   -0.6978 C   0  0  0  0  0  0  0  0  0  0  0  0
    6.5961    0.2137   -1.6273 C   0  0  0  0  0  0  0  0  0  0  0  0
    7.3382    1.3326   -1.5589 N   0  0  0  0  0  0  0  0  0  0  0  0
    8.1878    1.3213   -2.6032 C   0  0  0  0  0  0  0  0  0  0  0  0
    8.0114    0.2144   -3.3501 N   0  0  0  0  0  0  0  0  0  0  0  0
    7.0285   -0.4665   -2.7447 C   0  0  0  0  0  0  0  0  0  0  0  0
    4.1258    1.7461   -1.1981 N   0  0  0  0  0  0  0  0  0  0  0  0
    4.2550    2.5362   -0.0213 C   0  0  0  0  0  0  0  0  0  0  0  0
    4.4193    1.8817    1.0272 O   0  0  0  0  0  0  0  0  0  0  0  0
    4.2129    3.9767    0.0669 C   0  0  0  0  0  0  0  0  0  0  0  0
    3.6076    4.8425   -0.7964 C   0  0  0  0  0  0  0  0  0  0  0  0
    2.7456    4.4576   -2.2818 S   0  0  0  0  0  0  0  0  0  0  0  0
    1.2665    3.5324   -2.0231 C   0  0  0  0  0  0  0  0  0  0  0  0
    0.2402    4.3346   -1.2254 C   0  0  2  0  0  0  0  0  0  0  0  0
   -1.0164    3.5575   -1.1652 N   0  0  0  0  0  0  0  0  0  0  0  0
   -1.1762    2.4301   -0.3160 C   0  0  0  0  0  0  0  0  0  0  0  0
   -0.1866    2.1149    0.3460 O   0  0  0  0  0  0  0  0  0  0  0  0
   -2.4111    1.6314   -0.1900 C   0  0  1  0  0  0  0  0  0  0  0  0
   -1.9610    0.3345    0.3531 N   0  0  0  0  0  0  0  0  0  0  0  0
   -2.5260   -0.8942   -0.1657 C   0  0  0  0  0  0  0  0  0  0  0  0
   -3.4522   -0.7226   -0.9646 O   0  0  0  0  0  0  0  0  0  0  0  0
   -3.2989    2.3178    0.8426 C   0  0  0  0  0  0  0  0  0  0  0  0
   -4.5703    1.6292    1.0721 C   0  0  0  0  0  0  0  0  0  0  0  0
   -4.9636    0.8254    2.1383 C   0  0  0  0  0  0  0  0  0  0  0  0
   -6.2249    0.3919    1.9451 N   0  0  0  0  0  0  0  0  0  0  0  0
   -6.6787    0.8958    0.7635 C   0  0  0  0  0  0  0  0  0  0  0  0
   -5.6543    1.6676    0.2134 C   0  0  0  0  0  0  0  0  0  0  0  0
   -5.8199    2.3194   -1.0053 C   0  0  0  0  0  0  0  0  0  0  0  0
   -7.0087    2.2128   -1.6955 C   0  0  0  0  0  0  0  0  0  0  0  0
   -8.0318    1.4518   -1.1628 C   0  0  0  0  0  0  0  0  0  0  0  0
   -7.8471    0.8091    0.0545 C   0  0  0  0  0  0  0  0  0  0  0  0
   -0.0400    5.5819   -1.9113 C   0  0  0  0  0  0  0  0  0  0  0  0
    0.8029    6.4944   -2.1597 O   0  0  0  0  0  0  0  0  0  0  0  0
   -1.3767    5.8829   -2.3835 N   0  0  0  0  0  0  0  0  0  0  0  0
    3.6982    6.2185   -0.4945 C   0  0  0  0  0  0  0  0  0  0  0  0
    4.3467    6.7188    0.5944 C   0  0  0  0  0  0  0  0  0  0  0  0
    4.9529    5.8491    1.4580 C   0  0  0  0  0  0  0  0  0  0  0  0
    4.8776    4.5131    1.1849 C   0  0  0  0  0  0  0  0  0  0  0  0
    5.6407    6.3338    2.6051 N   0  0  0  0  0  0  0  0  0  0  0  0
    6.1926    5.5299    3.3879 O   0  0  0  0  0  0  0  0  0  0  0  0
    5.7128    7.6725    2.8742 O   0  0  0  0  0  0  0  0  0  0  0  0
   -5.6951   -6.3944   -0.8158 N   0  0  0  0  0  0  0  0  0  0  0  0
   -4.2040   -8.5317   -0.2198 H   0  0  0  0  0  0  0  0  0  0  0  0
   -3.4935   -7.9060    1.2965 H   0  0  0  0  0  0  0  0  0  0  0  0
   -6.0913   -4.3695    0.2634 H   0  0  0  0  0  0  0  0  0  0  0  0
   -5.2641   -3.7710    1.8146 H   0  0  0  0  0  0  0  0  0  0  0  0
   -4.8232   -2.3787   -0.1162 H   0  0  0  0  0  0  0  0  0  0  0  0
   -3.9852   -3.7783   -0.9323 H   0  0  0  0  0  0  0  0  0  0  0  0
   -2.5373   -4.1428    0.9698 H   0  0  0  0  0  0  0  0  0  0  0  0
   -3.3613   -2.7706    1.8816 H   0  0  0  0  0  0  0  0  0  0  0  0
   -1.6685   -2.6881   -0.7134 H   0  0  0  0  0  0  0  0  0  0  0  0
   -0.7605   -1.8948    2.0559 H   0  0  0  0  0  0  0  0  0  0  0  0
    1.5342   -0.7997    1.6529 H   0  0  0  0  0  0  0  0  0  0  0  0
    1.2778   -2.6225    2.9717 H   0  0  0  0  0  0  0  0  0  0  0  0
    3.0002   -2.4723    2.6597 H   0  0  0  0  0  0  0  0  0  0  0  0
    0.1123   -4.5797    2.0369 H   0  0  0  0  0  0  0  0  0  0  0  0
    0.2967   -6.9508    1.3820 H   0  0  0  0  0  0  0  0  0  0  0  0
    2.4832   -7.9019    0.7381 H   0  0  0  0  0  0  0  0  0  0  0  0
    4.4655   -6.4420    0.7628 H   0  0  0  0  0  0  0  0  0  0  0  0
    4.2816   -4.1060    1.4084 H   0  0  0  0  0  0  0  0  0  0  0  0
    3.4053   -2.2581   -0.2850 H   0  0  0  0  0  0  0  0  0  0  0  0
    3.9127   -0.0546   -2.1784 H   0  0  0  0  0  0  0  0  0  0  0  0
    5.4441   -1.3493   -0.6810 H   0  0  0  0  0  0  0  0  0  0  0  0
    5.7169    0.0984    0.3296 H   0  0  0  0  0  0  0  0  0  0  0  0
    7.2453    2.0602   -0.8136 H   0  0  0  0  0  0  0  0  0  0  0  0
    8.9168    2.0944   -2.8189 H   0  0  0  0  0  0  0  0  0  0  0  0
    6.6473   -1.4229   -3.1110 H   0  0  0  0  0  0  0  0  0  0  0  0
    4.0088    2.2680   -2.0637 H   0  0  0  0  0  0  0  0  0  0  0  0
    0.8125    3.2343   -3.0013 H   0  0  0  0  0  0  0  0  0  0  0  0
    1.5116    2.5839   -1.4565 H   0  0  0  0  0  0  0  0  0  0  0  0
    0.6816    4.4441   -0.2263 H   0  0  0  0  0  0  0  0  0  0  0  0
   -1.8394    3.7878   -1.7316 H   0  0  0  0  0  0  0  0  0  0  0  0
   -2.9657    1.4280   -1.0941 H   0  0  0  0  0  0  0  0  0  0  0  0
   -1.2744    0.2115    1.0808 H   0  0  0  0  0  0  0  0  0  0  0  0
   -3.4019    3.3832    0.5772 H   0  0  0  0  0  0  0  0  0  0  0  0
   -2.7069    2.3146    1.8006 H   0  0  0  0  0  0  0  0  0  0  0  0
   -4.3245    0.5960    2.9935 H   0  0  0  0  0  0  0  0  0  0  0  0
   -6.7845   -0.2189    2.5639 H   0  0  0  0  0  0  0  0  0  0  0  0
   -5.0082    2.9094   -1.4047 H   0  0  0  0  0  0  0  0  0  0  0  0
   -7.0898    2.7342   -2.6329 H   0  0  0  0  0  0  0  0  0  0  0  0
   -8.9584    1.3722   -1.7068 H   0  0  0  0  0  0  0  0  0  0  0  0
   -8.6542    0.2246    0.4483 H   0  0  0  0  0  0  0  0  0  0  0  0
   -1.9264    6.6783   -2.0059 H   0  0  0  0  0  0  0  0  0  0  0  0
   -1.7932    5.2712   -3.1314 H   0  0  0  0  0  0  0  0  0  0  0  0
    3.2397    6.9586   -1.1559 H   0  0  0  0  0  0  0  0  0  0  0  0
    4.3884    7.7842    0.7835 H   0  0  0  0  0  0  0  0  0  0  0  0
    5.3791    3.8502    1.9032 H   0  0  0  0  0  0  0  0  0  0  0  0
   -6.7243   -6.5127   -0.6442 H   0  0  0  0  0  0  0  0  0  0  0  0
   -5.4233   -6.1976   -1.8093 H   0  0  0  0  0  0  0  0  0  0  0  0
  1  2  1  0
  2  3  2  3
  3  4  1  0
  4  5  1  0
  5  6  1  0
  6  7  1  0
  7  8  1  0
  8  9  1  0
  9 10  2  0
  9 11  1  0
 11 12  1  0
 12 13  1  0
 13 14  2  0
 14 15  1  0
 15 16  2  0
 16 17  1  0
 17 18  2  0
 11 19  1  0
 19 20  1  0
 20 21  2  0
 20 22  1  0
 22 23  1  0
 23 24  1  0
 24 25  1  0
 25 26  1  0
 26 27  2  0
 27 28  1  0
 22 29  1  0
 29 30  1  0
 30 31  2  0
 30 32  1  0
 32 33  2  0
 33 34  1  0
 34 35  1  0
 35 36  1  0
 36 37  1  0
 37 38  1  0
 38 39  2  0
 38 40  1  0
 40 41  1  0
 41 42  1  0
 42 43  2  0
 40 44  1  0
 44 45  1  0
 45 46  2  0
 46 47  1  0
 47 48  1  0
 48 49  2  0
 49 50  1  0
 50 51  2  0
 51 52  1  0
 52 53  2  0
 36 54  1  0
 54 55  2  0
 54 56  1  0
 33 57  1  0
 57 58  2  0
 58 59  1  0
 59 60  2  0
 59 61  1  0
 61 62  2  0
 61 63  1  0
  2 64  1  0
 42  7  1  0
 49 45  1  0
 18 13  1  0
 28 24  2  0
 60 32  1  0
 53 48  1  0
  1 65  1  0
  1 66  1  0
  4 67  1  0
  4 68  1  0
  5 69  1  0
  5 70  1  0
  6 71  1  0
  6 72  1  0
  7 73  1  6
  8 74  1  0
 11 75  1  1
 12 76  1  0
 12 77  1  0
 14 78  1  0
 15 79  1  0
 16 80  1  0
 17 81  1  0
 18 82  1  0
 19 83  1  0
 22 84  1  6
 23 85  1  0
 23 86  1  0
 25 87  1  0
 26 88  1  0
 28 89  1  0
 29 90  1  0
 35 91  1  0
 35 92  1  0
 36 93  1  1
 37 94  1  0
 40 95  1  6
 41 96  1  0
 44 97  1  0
 44 98  1  0
 46 99  1  0
 47100  1  0
 50101  1  0
 51102  1  0
 52103  1  0
 53104  1  0
 56105  1  0
 56106  1  0
 57107  1  0
 58108  1  0
 60109  1  0
 64110  1  0
 64111  1  0
M  CHG  2  61   1  63  -1
M  END
>  <Ligand ID>  (1) 
LIG0001203

>  <Ligand>  (1) 
CHEMBL504986

>  <SMILES>  (1) 
NC(=NCCC[C@@H]1NC(=O)[C@@H](Cc2ccccc2)NC(=O)[C@H](Cc2[nH]cnc2)NC(=O)c2c(SC[C@H](NC(=O)[C@@H](NC1=O)Cc1c[nH]c3c1cccc3)C(=O)N)ccc(c2)[N+](=O)[O-])N

>  <CID>  (1) 
44577510.0

>  <ChEMBL ID>  (1) 
nan

>  <InChiKey>  (1) 
ROTHBSFMHAHRTG-VLGXOXMCSA-N

>  <InChi>  (1) 
InChI=1S/C42H47N13O8S/c43-36(56)34-21-64-35-13-12-26(55(62)63)18-28(35)37(57)51-33(17-25-20-46-22-49-25)41(61)52-31(15-23-7-2-1-3-8-23)39(59)50-30(11-6-14-47-42(44)45)38(58)53-32(40(60)54-34)16-24-19-48-29-10-5-4-9-27(24)29/h1-5,7-10,12-13,18-20,22,30-34,48H,6,11,14-17,21H2,(H2,43,56)(H,46,49)(H,50,59)(H,51,57)(H,52,61)(H,53,58)(H,54,60)(H4,44,45,47)/t30-,31+,32-,33-,34-/m0/s1

>  <IUPAC Name>  (1) 
(4R,7S,10S,13R,16S)-13-benzyl-10-[3-(diaminomethylideneamino)propyl]-16-(1H-imidazol-5-ylmethyl)-7-(1H-indol-3-ylmethyl)-21-nitro-6,9,12,15,18-pentaoxo-2-thia-5,8,11,14,17-pentazabicyclo[17.4.0]tricosa-1(19),20,22-triene-4-carboxamide

$$$$
