
     RDKit          3D

 79 80  0  0  0  0  0  0  0  0999 V2000
   -5.7382    5.1354    0.8416 C   0  0  0  0  0  0  0  0  0  0  0  0
   -4.9646    3.9221    1.2332 C   0  0  0  0  0  0  0  0  0  0  0  0
   -4.3420    3.9023    2.3309 O   0  0  0  0  0  0  0  0  0  0  0  0
   -4.9248    2.7716    0.3637 N   0  0  0  0  0  0  0  0  0  0  0  0
   -4.1673    1.6281    0.7854 C   0  0  2  0  0  0  0  0  0  0  0  0
   -3.1740    1.1417   -0.1909 C   0  0  0  0  0  0  0  0  0  0  0  0
   -3.1433    1.7167   -1.3153 O   0  0  0  0  0  0  0  0  0  0  0  0
   -2.2924    0.0874    0.1090 N   0  0  0  0  0  0  0  0  0  0  0  0
   -1.2926   -0.3942   -0.8609 C   0  0  1  0  0  0  0  0  0  0  0  0
    0.0380    0.0710   -0.4906 C   0  0  0  0  0  0  0  0  0  0  0  0
    0.1122    0.8316    0.5441 O   0  0  0  0  0  0  0  0  0  0  0  0
    1.2475   -0.2094   -1.1343 N   0  0  0  0  0  0  0  0  0  0  0  0
    2.5472    0.2999   -0.7465 C   0  0  2  0  0  0  0  0  0  0  0  0
    3.1278    0.9529   -1.9477 C   0  0  0  0  0  0  0  0  0  0  0  0
    2.4180    0.9229   -3.0033 O   0  0  0  0  0  0  0  0  0  0  0  0
    4.3881    1.5844   -1.9760 N   0  0  0  0  0  0  0  0  0  0  0  0
    4.8579    2.1900   -3.2069 C   0  0  2  0  0  0  0  0  0  0  0  0
    6.1055    1.5725   -3.6898 C   0  0  0  0  0  0  0  0  0  0  0  0
    6.6926    0.6177   -3.0839 O   0  0  0  0  0  0  0  0  0  0  0  0
    6.6709    2.0779   -4.8950 N   0  0  0  0  0  0  0  0  0  0  0  0
    5.0856    3.6688   -3.0726 C   0  0  0  0  0  0  0  0  0  0  0  0
    3.4598   -0.7541   -0.1518 C   0  0  0  0  0  0  0  0  0  0  0  0
    2.7669   -1.2674    1.0911 C   0  0  0  0  0  0  0  0  0  0  0  0
    3.5277   -2.3363    1.8038 C   0  0  0  0  0  0  0  0  0  0  0  0
    4.8317   -1.9276    2.2565 N   0  0  0  0  0  0  0  0  0  0  0  0
    5.0780   -1.6605    3.5089 C   0  0  0  0  0  0  0  0  0  0  0  0
    6.3572   -1.2569    3.9685 N   0  0  0  0  0  0  0  0  0  0  0  0
    4.0009   -1.7860    4.4444 N   0  0  0  0  0  0  0  0  0  0  0  0
   -1.5559   -1.8039   -1.1208 C   0  0  0  0  0  0  0  0  0  0  0  0
   -1.5004   -2.7150    0.0417 C   0  0  0  0  0  0  0  0  0  0  0  0
   -2.6314   -2.9146    0.8319 C   0  0  0  0  0  0  0  0  0  0  0  0
   -2.6402   -3.7640    1.9155 C   0  0  0  0  0  0  0  0  0  0  0  0
   -1.5057   -4.4600    2.2610 C   0  0  0  0  0  0  0  0  0  0  0  0
   -0.3746   -4.2853    1.5019 C   0  0  0  0  0  0  0  0  0  0  0  0
   -0.3817   -3.4262    0.4136 C   0  0  0  0  0  0  0  0  0  0  0  0
   -5.0887    0.4547    1.1226 C   0  0  0  0  0  0  0  0  0  0  0  0
   -5.9248    0.0362   -0.0155 C   0  0  0  0  0  0  0  0  0  0  0  0
   -5.7443   -0.8504   -0.9944 N   0  0  0  0  0  0  0  0  0  0  0  0
   -6.8238   -0.8541   -1.7903 C   0  0  0  0  0  0  0  0  0  0  0  0
   -7.7275    0.0283   -1.3474 N   0  0  0  0  0  0  0  0  0  0  0  0
   -7.1891    0.5892   -0.2499 C   0  0  0  0  0  0  0  0  0  0  0  0
   -6.5623    4.7522    0.1844 H   0  0  0  0  0  0  0  0  0  0  0  0
   -6.2363    5.5747    1.7179 H   0  0  0  0  0  0  0  0  0  0  0  0
   -5.1372    5.8550    0.2685 H   0  0  0  0  0  0  0  0  0  0  0  0
   -5.4235    2.7555   -0.5454 H   0  0  0  0  0  0  0  0  0  0  0  0
   -3.6944    1.8794    1.7738 H   0  0  0  0  0  0  0  0  0  0  0  0
   -2.2967   -0.4067    1.0298 H   0  0  0  0  0  0  0  0  0  0  0  0
   -1.4980    0.1548   -1.8550 H   0  0  0  0  0  0  0  0  0  0  0  0
    1.2243   -0.8396   -1.9680 H   0  0  0  0  0  0  0  0  0  0  0  0
    2.4470    1.0656    0.0689 H   0  0  0  0  0  0  0  0  0  0  0  0
    4.9526    1.5924   -1.0835 H   0  0  0  0  0  0  0  0  0  0  0  0
    4.0751    2.0106   -3.9712 H   0  0  0  0  0  0  0  0  0  0  0  0
    7.7094    2.2876   -4.9372 H   0  0  0  0  0  0  0  0  0  0  0  0
    6.0700    2.2464   -5.7441 H   0  0  0  0  0  0  0  0  0  0  0  0
    4.2098    4.2081   -3.5225 H   0  0  0  0  0  0  0  0  0  0  0  0
    5.1810    4.0265   -2.0291 H   0  0  0  0  0  0  0  0  0  0  0  0
    5.9514    3.9723   -3.7022 H   0  0  0  0  0  0  0  0  0  0  0  0
    4.4245   -0.2716    0.0797 H   0  0  0  0  0  0  0  0  0  0  0  0
    3.5707   -1.6242   -0.8248 H   0  0  0  0  0  0  0  0  0  0  0  0
    1.7439   -1.5932    0.9077 H   0  0  0  0  0  0  0  0  0  0  0  0
    2.6603   -0.4192    1.8413 H   0  0  0  0  0  0  0  0  0  0  0  0
    2.9463   -2.6009    2.7179 H   0  0  0  0  0  0  0  0  0  0  0  0
    3.5699   -3.2964    1.2224 H   0  0  0  0  0  0  0  0  0  0  0  0
    7.1039   -2.0069    4.0000 H   0  0  0  0  0  0  0  0  0  0  0  0
    6.5265   -0.2797    4.2512 H   0  0  0  0  0  0  0  0  0  0  0  0
    3.5058   -0.9525    4.8040 H   0  0  0  0  0  0  0  0  0  0  0  0
    3.7174   -2.7368    4.7610 H   0  0  0  0  0  0  0  0  0  0  0  0
   -0.9495   -2.2675   -1.9319 H   0  0  0  0  0  0  0  0  0  0  0  0
   -2.6111   -1.9114   -1.5189 H   0  0  0  0  0  0  0  0  0  0  0  0
   -3.5566   -2.4005    0.6148 H   0  0  0  0  0  0  0  0  0  0  0  0
   -3.5465   -3.8851    2.4980 H   0  0  0  0  0  0  0  0  0  0  0  0
   -1.5734   -5.1100    3.1194 H   0  0  0  0  0  0  0  0  0  0  0  0
    0.5045   -4.8426    1.7930 H   0  0  0  0  0  0  0  0  0  0  0  0
    0.5014   -3.2984   -0.1751 H   0  0  0  0  0  0  0  0  0  0  0  0
   -5.7091    0.7133    2.0227 H   0  0  0  0  0  0  0  0  0  0  0  0
   -4.4110   -0.3462    1.4852 H   0  0  0  0  0  0  0  0  0  0  0  0
   -4.8971   -1.4396   -1.1111 H   0  0  0  0  0  0  0  0  0  0  0  0
   -7.0015   -1.4653   -2.6886 H   0  0  0  0  0  0  0  0  0  0  0  0
   -7.6773    1.3627    0.3619 H   0  0  0  0  0  0  0  0  0  0  0  0
  1  2  1  0
  2  3  2  0
  2  4  1  0
  4  5  1  0
  5  6  1  0
  6  7  2  0
  6  8  1  0
  8  9  1  0
  9 10  1  0
 10 11  2  0
 10 12  1  0
 12 13  1  0
 13 14  1  0
 14 15  2  0
 14 16  1  0
 16 17  1  0
 17 18  1  0
 18 19  2  0
 18 20  1  0
 17 21  1  0
 13 22  1  0
 22 23  1  0
 23 24  1  0
 24 25  1  0
 25 26  2  3
 26 27  1  0
 26 28  1  0
  9 29  1  0
 29 30  1  0
 30 31  2  0
 31 32  1  0
 32 33  2  0
 33 34  1  0
 34 35  2  0
  5 36  1  0
 36 37  1  0
 37 38  1  0
 38 39  1  0
 39 40  2  0
 40 41  1  0
 35 30  1  0
 41 37  2  0
  1 42  1  0
  1 43  1  0
  1 44  1  0
  4 45  1  0
  5 46  1  1
  8 47  1  0
  9 48  1  6
 12 49  1  0
 13 50  1  1
 16 51  1  0
 17 52  1  6
 20 53  1  0
 20 54  1  0
 21 55  1  0
 21 56  1  0
 21 57  1  0
 22 58  1  0
 22 59  1  0
 23 60  1  0
 23 61  1  0
 24 62  1  0
 24 63  1  0
 27 64  1  0
 27 65  1  0
 28 66  1  0
 28 67  1  0
 29 68  1  0
 29 69  1  0
 31 70  1  0
 32 71  1  0
 33 72  1  0
 34 73  1  0
 35 74  1  0
 36 75  1  0
 36 76  1  0
 38 77  1  0
 39 78  1  0
 41 79  1  0
M  END
>  <Ligand ID>  (1) 
LIG0001090

>  <Ligand>  (1) 
CHEMBL2371150

>  <SMILES>  (1) 
CC(=O)N[C@H](C(=O)N[C@@H](C(=O)N[C@H](C(=O)N[C@H](C(=O)N)C)CCCN=C(N)N)Cc1ccccc1)Cc1[nH]cnc1

>  <CID>  (1) 
11135555.0

>  <ChEMBL ID>  (1) 
nan

>  <InChiKey>  (1) 
QSPZOBJUSPJZKO-KQLYMOGASA-N

>  <InChi>  (1) 
InChI=1S/C26H38N10O5/c1-15(22(27)38)33-23(39)19(9-6-10-31-26(28)29)35-24(40)20(11-17-7-4-3-5-8-17)36-25(41)21(34-16(2)37)12-18-13-30-14-32-18/h3-5,7-8,13-15,19-21H,6,9-12H2,1-2H3,(H2,27,38)(H,30,32)(H,33,39)(H,34,37)(H,35,40)(H,36,41)(H4,28,29,31)/t15-,19-,20+,21-/m0/s1

>  <IUPAC Name>  (1) 
(2S)-2-[[(2R)-2-[[(2S)-2-acetamido-3-(1H-imidazol-5-yl)propanoyl]amino]-3-phenylpropanoyl]amino]-N-[(2S)-1-amino-1-oxopropan-2-yl]-5-(diaminomethylideneamino)pentanamide

$$$$
