
     RDKit          3D

 44 45  0  0  0  0  0  0  0  0999 V2000
   -0.8361   -1.3300    1.4796 C   0  0  0  0  0  0  0  0  0  0  0  0
   -0.9020   -0.0151    0.7270 C   0  0  0  0  0  0  0  0  0  0  0  0
   -0.3308   -0.0282   -0.5792 N   0  0  0  0  0  0  0  0  0  0  0  0
    1.0135    0.5571   -0.6813 C   0  0  0  0  0  0  0  0  0  0  0  0
    1.5615    1.0063    0.3881 O   0  0  0  0  0  0  0  0  0  0  0  0
    1.7202    0.6348   -1.9690 C   0  0  0  0  0  0  0  0  0  0  0  0
    3.1368   -0.4642   -2.1267 S   0  0  0  0  0  0  0  0  0  0  0  0
    4.4339    0.0248   -1.0065 C   0  0  0  0  0  0  0  0  0  0  0  0
    5.5811   -0.6427   -0.9928 N   0  0  0  0  0  0  0  0  0  0  0  0
    6.6194   -0.3773   -0.1998 C   0  0  0  0  0  0  0  0  0  0  0  0
    7.7732   -1.1611   -0.3012 N   0  0  0  0  0  0  0  0  0  0  0  0
    6.4779    0.6865    0.6832 C   0  0  0  0  0  0  0  0  0  0  0  0
    5.3060    1.3920    0.6911 C   0  0  0  0  0  0  0  0  0  0  0  0
    4.3053    1.0635   -0.1395 N   0  0  0  0  0  0  0  0  0  0  0  0
    5.1513    2.4895    1.5853 N   0  0  0  0  0  0  0  0  0  0  0  0
   -2.3681    0.3451    0.6583 C   0  0  0  0  0  0  0  0  0  0  0  0
   -3.1296   -0.7553   -0.0315 C   0  0  0  0  0  0  0  0  0  0  0  0
   -4.5624   -0.5371   -0.1552 C   0  0  0  0  0  0  0  0  0  0  0  0
   -5.4001   -0.9175    0.8736 C   0  0  0  0  0  0  0  0  0  0  0  0
   -6.7785   -0.7626    0.7444 C   0  0  0  0  0  0  0  0  0  0  0  0
   -7.3278   -0.2415   -0.3777 C   0  0  0  0  0  0  0  0  0  0  0  0
   -6.4765    0.1334   -1.3906 C   0  0  0  0  0  0  0  0  0  0  0  0
   -5.0929   -0.0047   -1.3032 C   0  0  0  0  0  0  0  0  0  0  0  0
    0.0687   -1.2858    2.1294 H   0  0  0  0  0  0  0  0  0  0  0  0
   -1.7016   -1.4053    2.2001 H   0  0  0  0  0  0  0  0  0  0  0  0
   -0.8982   -2.2246    0.8589 H   0  0  0  0  0  0  0  0  0  0  0  0
   -0.3373    0.7547    1.3421 H   0  0  0  0  0  0  0  0  0  0  0  0
   -0.7756   -0.4027   -1.4513 H   0  0  0  0  0  0  0  0  0  0  0  0
    0.9939    0.3523   -2.7813 H   0  0  0  0  0  0  0  0  0  0  0  0
    1.9942    1.6975   -2.2203 H   0  0  0  0  0  0  0  0  0  0  0  0
    8.7100   -0.7264   -0.5255 H   0  0  0  0  0  0  0  0  0  0  0  0
    7.7361   -2.2189   -0.1535 H   0  0  0  0  0  0  0  0  0  0  0  0
    7.2887    0.9449    1.3452 H   0  0  0  0  0  0  0  0  0  0  0  0
    5.1577    2.4006    2.6226 H   0  0  0  0  0  0  0  0  0  0  0  0
    5.0233    3.4852    1.2343 H   0  0  0  0  0  0  0  0  0  0  0  0
   -2.7994    0.4683    1.6726 H   0  0  0  0  0  0  0  0  0  0  0  0
   -2.4404    1.3296    0.1438 H   0  0  0  0  0  0  0  0  0  0  0  0
   -2.7071   -0.9081   -1.0553 H   0  0  0  0  0  0  0  0  0  0  0  0
   -2.9362   -1.6763    0.6095 H   0  0  0  0  0  0  0  0  0  0  0  0
   -5.0562   -1.3244    1.7948 H   0  0  0  0  0  0  0  0  0  0  0  0
   -7.4232   -1.0724    1.5885 H   0  0  0  0  0  0  0  0  0  0  0  0
   -8.3956   -0.1363   -0.4286 H   0  0  0  0  0  0  0  0  0  0  0  0
   -6.8891    0.5381   -2.2823 H   0  0  0  0  0  0  0  0  0  0  0  0
   -4.4881    0.3145   -2.1371 H   0  0  0  0  0  0  0  0  0  0  0  0
  1  2  1  0
  2  3  1  0
  3  4  1  0
  4  5  2  0
  4  6  1  0
  6  7  1  0
  7  8  1  0
  8  9  2  0
  9 10  1  0
 10 11  1  0
 10 12  2  0
 12 13  1  0
 13 14  2  0
 13 15  1  0
  2 16  1  0
 16 17  1  0
 17 18  1  0
 18 19  2  0
 19 20  1  0
 20 21  2  0
 21 22  1  0
 22 23  2  0
 14  8  1  0
 23 18  1  0
  1 24  1  0
  1 25  1  0
  1 26  1  0
  2 27  1  0
  3 28  1  0
  6 29  1  0
  6 30  1  0
 11 31  1  0
 11 32  1  0
 12 33  1  0
 15 34  1  0
 15 35  1  0
 16 36  1  0
 16 37  1  0
 17 38  1  0
 17 39  1  0
 19 40  1  0
 20 41  1  0
 21 42  1  0
 22 43  1  0
 23 44  1  0
M  END
>  <Ligand ID>  (1) 
LIG0003530

>  <Ligand>  (1) 
SMR000068242

>  <SMILES>  (1) 
CC(NC(=O)CSc1nc(N)cc(n1)N)CCc1ccccc1

>  <CID>  (1) 
3000091.0

>  <ChEMBL ID>  (1) 
nan

>  <InChiKey>  (1) 
RKDJUVNFVJUQJY-UHFFFAOYSA-N

>  <InChi>  (1) 
InChI=1S/C16H21N5OS/c1-11(7-8-12-5-3-2-4-6-12)19-15(22)10-23-16-20-13(17)9-14(18)21-16/h2-6,9,11H,7-8,10H2,1H3,(H,19,22)(H4,17,18,20,21)

>  <IUPAC Name>  (1) 
2-(4,6-diaminopyrimidin-2-yl)sulfanyl-N-(4-phenylbutan-2-yl)acetamide

$$$$
