
     RDKit          3D

 30 32  0  0  0  0  0  0  0  0999 V2000
    4.9661    0.8663    0.1963 C   0  0  0  0  0  0  0  0  0  0  0  0
    4.2194   -0.1912   -0.3553 O   0  0  0  0  0  0  0  0  0  0  0  0
    2.8582   -0.3167   -0.1837 C   0  0  0  0  0  0  0  0  0  0  0  0
    2.0702    0.5413    0.5234 C   0  0  0  0  0  0  0  0  0  0  0  0
    0.7084    0.3645    0.6616 C   0  0  0  0  0  0  0  0  0  0  0  0
   -0.3207    1.1385    1.3477 C   0  0  0  0  0  0  0  0  0  0  0  0
   -0.1805    2.2024    2.0142 O   0  0  0  0  0  0  0  0  0  0  0  0
   -1.5393    0.4462    1.1147 N   0  0  0  0  0  0  0  0  0  0  0  0
   -1.3015   -0.7461    0.3241 C   0  0  2  0  0  0  0  0  0  0  0  0
    0.1532   -0.7407    0.0437 C   0  0  0  0  0  0  0  0  0  0  0  0
    0.8920   -1.6475   -0.6863 C   0  0  0  0  0  0  0  0  0  0  0  0
    2.2508   -1.4134   -0.7867 C   0  0  0  0  0  0  0  0  0  0  0  0
    3.2002   -2.5617   -1.7138 Cl  0  0  0  0  0  0  0  0  0  0  0  0
   -2.1523   -0.7783   -0.9161 C   0  0  0  0  0  0  0  0  0  0  0  0
   -3.4743   -0.2787   -0.7277 N   0  0  0  0  0  0  0  0  0  0  0  0
   -3.6743    0.7879    0.1668 C   0  0  0  0  0  0  0  0  0  0  0  0
   -2.9375    0.6851    1.4921 C   0  0  0  0  0  0  0  0  0  0  0  0
    5.0583    1.6839   -0.5494 H   0  0  0  0  0  0  0  0  0  0  0  0
    4.5530    1.2098    1.1653 H   0  0  0  0  0  0  0  0  0  0  0  0
    5.9762    0.4405    0.4518 H   0  0  0  0  0  0  0  0  0  0  0  0
    2.5282    1.3991    0.9983 H   0  0  0  0  0  0  0  0  0  0  0  0
   -1.5140   -1.6278    0.9742 H   0  0  0  0  0  0  0  0  0  0  0  0
    0.4311   -2.5037   -1.1596 H   0  0  0  0  0  0  0  0  0  0  0  0
   -2.2323   -1.8440   -1.2273 H   0  0  0  0  0  0  0  0  0  0  0  0
   -1.6487   -0.2492   -1.7515 H   0  0  0  0  0  0  0  0  0  0  0  0
   -4.2521   -0.9210   -0.9046 H   0  0  0  0  0  0  0  0  0  0  0  0
   -3.5165    1.8018   -0.2308 H   0  0  0  0  0  0  0  0  0  0  0  0
   -4.7651    0.7754    0.4624 H   0  0  0  0  0  0  0  0  0  0  0  0
   -3.0217    1.6350    2.0190 H   0  0  0  0  0  0  0  0  0  0  0  0
   -3.3346   -0.1576    2.0804 H   0  0  0  0  0  0  0  0  0  0  0  0
  1  2  1  0
  2  3  1  0
  3  4  2  0
  4  5  1  0
  5  6  1  0
  6  7  2  0
  6  8  1  0
  8  9  1  0
  9 10  1  0
 10 11  1  0
 11 12  2  0
 12 13  1  0
  9 14  1  0
 14 15  1  0
 15 16  1  0
 16 17  1  0
 12  3  1  0
 10  5  2  0
 17  8  1  0
  1 18  1  0
  1 19  1  0
  1 20  1  0
  4 21  1  0
  9 22  1  1
 11 23  1  0
 14 24  1  0
 14 25  1  0
 15 26  1  0
 16 27  1  0
 16 28  1  0
 17 29  1  0
 17 30  1  0
M  END
>  <Ligand ID>  (1) 
LIG0004743

>  <Ligand>  (1) 
CHEMBL222466

>  <SMILES>  (1) 
COc1cc2C(=O)N3[C@H](c2cc1Cl)CNCC3

>  <CID>  (1) 
16115521.0

>  <ChEMBL ID>  (1) 
nan

>  <InChiKey>  (1) 
NBIPHDGFUDLWID-JTQLQIEISA-N

>  <InChi>  (1) 
InChI=1S/C12H13ClN2O2/c1-17-11-5-8-7(4-9(11)13)10-6-14-2-3-15(10)12(8)16/h4-5,10,14H,2-3,6H2,1H3/t10-/m0/s1

>  <IUPAC Name>  (1) 
(10bR)-9-chloro-8-methoxy-2,3,4,10b-tetrahydro-1H-pyrazino[1,2-b]isoindol-6-one

$$$$
