
     RDKit          3D

 17 17  0  0  0  0  0  0  0  0999 V2000
   -0.5839    2.2567   -0.8602 O   0  0  0  0  0  0  0  0  0  0  0  0
   -1.4767    1.5284   -0.0574 C   0  0  0  0  0  0  0  0  0  0  0  0
   -2.5721    2.0301    0.3231 O   0  0  0  0  0  0  0  0  0  0  0  0
   -1.1197    0.1241    0.3563 C   0  0  2  0  0  0  0  0  0  0  0  0
    0.3492   -0.0732    0.1089 C   0  0  0  0  0  0  0  0  0  0  0  0
    0.9542   -0.1818   -1.0339 O   0  0  0  0  0  0  0  0  0  0  0  0
    2.2373   -0.3448   -0.8939 N   0  0  0  0  0  0  0  0  0  0  0  0
    2.5490   -0.3504    0.4324 C   0  0  0  0  0  0  0  0  0  0  0  0
    3.7010   -0.4864    0.9503 O   0  0  0  0  0  0  0  0  0  0  0  0
    1.3387   -0.1759    1.0901 C   0  0  0  0  0  0  0  0  0  0  0  0
   -1.9067   -0.7496   -0.4663 N   0  0  0  0  0  0  0  0  0  0  0  0
   -1.3260   -0.0481    1.4345 H   0  0  0  0  0  0  0  0  0  0  0  0
    2.9828   -0.4605   -1.6126 H   0  0  0  0  0  0  0  0  0  0  0  0
    1.2194   -0.1323    2.1614 H   0  0  0  0  0  0  0  0  0  0  0  0
   -1.4881   -1.6999   -0.4855 H   0  0  0  0  0  0  0  0  0  0  0  0
   -2.0032   -0.4043   -1.4372 H   0  0  0  0  0  0  0  0  0  0  0  0
   -2.8551   -0.8319   -0.0100 H   0  0  0  0  0  0  0  0  0  0  0  0
  1  2  1  0
  2  3  2  0
  2  4  1  0
  4  5  1  0
  5  6  1  0
  6  7  1  0
  7  8  1  0
  8  9  2  0
  8 10  1  0
  4 11  1  0
 10  5  2  0
  4 12  1  1
  7 13  1  0
 10 14  1  0
 11 15  1  0
 11 16  1  0
 11 17  1  0
M  CHG  2   1  -1  11   1
M  END
>  <Ligand ID>  (1) 
LIG0000494

>  <Ligand>  (1) 
AC1ODZEZ

>  <SMILES>  (1) 
[O-]C(=O)[C@H](c1o[nH]c(=O)c1)[NH3+]

>  <CID>  (1) 
6971208.0

>  <ChEMBL ID>  (1) 
nan

>  <InChiKey>  (1) 
IRJCBFDCFXCWGO-BYPYZUCNSA-N

>  <InChi>  (1) 
InChI=1S/C5H6N2O4/c6-4(5(9)10)2-1-3(8)7-11-2/h1,4H,6H2,(H,7,8)(H,9,10)/t4-/m0/s1

>  <IUPAC Name>  (1) 
(2S)-2-azaniumyl-2-(3-oxo-1,2-oxazol-5-yl)acetate

$$$$
