
     RDKit          3D

 51 54  0  0  0  0  0  0  0  0999 V2000
   -7.2824    3.3410   -1.3297 I   0  0  0  0  0  0  0  0  0  0  0  0
   -5.4503    2.3812   -0.9427 C   0  0  0  0  0  0  0  0  0  0  0  0
   -5.2378    1.7190    0.2282 C   0  0  0  0  0  0  0  0  0  0  0  0
   -4.0434    1.0807    0.5063 C   0  0  0  0  0  0  0  0  0  0  0  0
   -2.9919    1.0900   -0.4162 C   0  0  0  0  0  0  0  0  0  0  0  0
   -3.2289    1.7629   -1.5886 C   0  0  0  0  0  0  0  0  0  0  0  0
   -4.4286    2.4043   -1.8682 C   0  0  0  0  0  0  0  0  0  0  0  0
   -1.7489    0.4044   -0.1024 C   0  0  0  0  0  0  0  0  0  0  0  0
   -0.4407    0.8164   -0.2278 C   0  0  0  0  0  0  0  0  0  0  0  0
   -0.0098    2.1425   -0.7182 C   0  0  0  0  0  0  0  0  0  0  0  0
    0.3786   -0.1979    0.1905 C   0  0  0  0  0  0  0  0  0  0  0  0
   -0.4691   -1.1949    0.5579 N   0  0  0  0  0  0  0  0  0  0  0  0
   -1.7128   -0.8468    0.3882 N   0  0  0  0  0  0  0  0  0  0  0  0
   -2.8155   -1.7143    0.6980 C   0  0  0  0  0  0  0  0  0  0  0  0
   -3.0688   -2.1146    2.0107 C   0  0  0  0  0  0  0  0  0  0  0  0
   -4.1403   -2.9572    2.3101 C   0  0  0  0  0  0  0  0  0  0  0  0
   -4.9648   -3.4044    1.2978 C   0  0  0  0  0  0  0  0  0  0  0  0
   -4.7183   -3.0098   -0.0110 C   0  0  0  0  0  0  0  0  0  0  0  0
   -3.6490   -2.1675   -0.3182 C   0  0  0  0  0  0  0  0  0  0  0  0
   -3.3970   -1.7102   -1.9889 Cl  0  0  0  0  0  0  0  0  0  0  0  0
   -6.3241   -4.4619    1.6072 Cl  0  0  0  0  0  0  0  0  0  0  0  0
    1.8129   -0.3293    0.2668 C   0  0  0  0  0  0  0  0  0  0  0  0
    2.3068   -1.4016    0.7709 O   0  0  0  0  0  0  0  0  0  0  0  0
    2.7609    0.6185   -0.1651 N   0  0  0  0  0  0  0  0  0  0  0  0
    4.1120    0.3749   -0.0361 N   0  0  0  0  0  0  0  0  0  0  0  0
    4.7053    0.8072    1.1920 C   0  0  0  0  0  0  0  0  0  0  0  0
    6.1995    0.7885    1.0291 C   0  0  0  0  0  0  0  0  0  0  0  0
    6.6816    0.3150   -0.3026 C   0  0  0  0  0  0  0  0  0  0  0  0
    5.9480   -0.8868   -0.8468 C   0  0  0  0  0  0  0  0  0  0  0  0
    4.5314   -0.9662   -0.3137 C   0  0  0  0  0  0  0  0  0  0  0  0
   -6.0472    1.7012    0.9600 H   0  0  0  0  0  0  0  0  0  0  0  0
   -3.9734    0.5852    1.4590 H   0  0  0  0  0  0  0  0  0  0  0  0
   -2.4756    1.8106   -2.3459 H   0  0  0  0  0  0  0  0  0  0  0  0
   -4.5872    2.9250   -2.7962 H   0  0  0  0  0  0  0  0  0  0  0  0
    0.4864    2.1467   -1.6894 H   0  0  0  0  0  0  0  0  0  0  0  0
    0.5601    2.6637    0.0843 H   0  0  0  0  0  0  0  0  0  0  0  0
   -0.9160    2.8134   -0.8667 H   0  0  0  0  0  0  0  0  0  0  0  0
   -2.4066   -1.7527    2.8072 H   0  0  0  0  0  0  0  0  0  0  0  0
   -4.3213   -3.2597    3.3495 H   0  0  0  0  0  0  0  0  0  0  0  0
   -5.3552   -3.3475   -0.8414 H   0  0  0  0  0  0  0  0  0  0  0  0
    2.4601    1.5119   -0.5902 H   0  0  0  0  0  0  0  0  0  0  0  0
    4.4306    0.0316    1.9638 H   0  0  0  0  0  0  0  0  0  0  0  0
    4.3109    1.7970    1.4864 H   0  0  0  0  0  0  0  0  0  0  0  0
    6.6713    0.2701    1.8829 H   0  0  0  0  0  0  0  0  0  0  0  0
    6.5339    1.8642    1.1160 H   0  0  0  0  0  0  0  0  0  0  0  0
    7.7498    0.0255   -0.1912 H   0  0  0  0  0  0  0  0  0  0  0  0
    6.6703    1.1512   -1.0533 H   0  0  0  0  0  0  0  0  0  0  0  0
    6.5185   -1.8174   -0.6350 H   0  0  0  0  0  0  0  0  0  0  0  0
    5.8698   -0.7572   -1.9460 H   0  0  0  0  0  0  0  0  0  0  0  0
    4.6363   -1.4940    0.6797 H   0  0  0  0  0  0  0  0  0  0  0  0
    3.8698   -1.5521   -0.9574 H   0  0  0  0  0  0  0  0  0  0  0  0
  1  2  1  0
  2  3  2  0
  3  4  1  0
  4  5  2  0
  5  6  1  0
  6  7  2  0
  5  8  1  0
  8  9  2  0
  9 10  1  0
  9 11  1  0
 11 12  2  0
 12 13  1  0
 13 14  1  0
 14 15  2  0
 15 16  1  0
 16 17  2  0
 17 18  1  0
 18 19  2  0
 19 20  1  0
 17 21  1  0
 11 22  1  0
 22 23  2  0
 22 24  1  0
 24 25  1  0
 25 26  1  0
 26 27  1  0
 27 28  1  0
 28 29  1  0
 29 30  1  0
  7  2  1  0
 13  8  1  0
 19 14  1  0
 30 25  1  0
  3 31  1  0
  4 32  1  0
  6 33  1  0
  7 34  1  0
 10 35  1  0
 10 36  1  0
 10 37  1  0
 15 38  1  0
 16 39  1  0
 18 40  1  0
 24 41  1  0
 26 42  1  0
 26 43  1  0
 27 44  1  0
 27 45  1  0
 28 46  1  0
 28 47  1  0
 29 48  1  0
 29 49  1  0
 30 50  1  0
 30 51  1  0
M  END
>  <Ligand ID>  (1) 
LIG0003671

>  <Ligand>  (1) 
AM251

>  <SMILES>  (1) 
Ic1ccc(cc1)c1c(C)c(nn1c1ccc(cc1Cl)Cl)C(=O)NN1CCCCC1

>  <CID>  (1) 
2125.0

>  <ChEMBL ID>  (1) 
nan

>  <InChiKey>  (1) 
BUZAJRPLUGXRAB-UHFFFAOYSA-N

>  <InChi>  (1) 
InChI=1S/C22H21Cl2IN4O/c1-14-20(22(30)27-28-11-3-2-4-12-28)26-29(19-10-7-16(23)13-18(19)24)21(14)15-5-8-17(25)9-6-15/h5-10,13H,2-4,11-12H2,1H3,(H,27,30)

>  <IUPAC Name>  (1) 
1-(2,4-dichlorophenyl)-5-(4-iodophenyl)-4-methyl-N-piperidin-1-ylpyrazole-3-carboxamide

$$$$
