
     RDKit          3D

 75 78  0  0  0  0  0  0  0  0999 V2000
   11.3354    0.6070    2.2746 N   0  0  0  0  0  0  0  0  0  0  0  0
   10.3391    0.6341    1.2616 C   0  0  0  0  0  0  0  0  0  0  0  0
    9.0208    0.9413    1.4912 C   0  0  0  0  0  0  0  0  0  0  0  0
    8.0664    0.9595    0.4762 C   0  0  0  0  0  0  0  0  0  0  0  0
    8.4966    0.6585   -0.7594 N   0  0  0  0  0  0  0  0  0  0  0  0
    9.8019    0.3504   -1.0092 C   0  0  0  0  0  0  0  0  0  0  0  0
   10.1939    0.0688   -2.1778 O   0  0  0  0  0  0  0  0  0  0  0  0
   10.7190    0.3363   -0.0147 N   0  0  0  0  0  0  0  0  0  0  0  0
    7.6212    0.6352   -1.9227 C   0  0  2  0  0  0  0  0  0  0  0  0
    6.3502    1.0251   -1.6006 O   0  0  0  0  0  0  0  0  0  0  0  0
    5.4594    0.1226   -2.1579 C   0  0  1  0  0  0  0  0  0  0  0  0
    6.1985   -1.1869   -2.3034 C   0  0  2  0  0  0  0  0  0  0  0  0
    7.6023   -0.6973   -2.5881 C   0  0  0  0  0  0  0  0  0  0  0  0
    5.6766   -1.8899   -3.4130 O   0  0  0  0  0  0  0  0  0  0  0  0
    4.2546   -0.0992   -1.2717 C   0  0  0  0  0  0  0  0  0  0  0  0
    3.3720   -1.0132   -1.8569 O   0  0  0  0  0  0  0  0  0  0  0  0
    2.0121   -1.2877   -0.9216 P   0  0  0  0  0  0  0  0  0  0  0  0
    0.7898   -1.1897   -1.8041 O   0  0  0  0  0  0  0  0  0  0  0  0
    1.9749   -0.2018    0.3518 O   0  0  0  0  0  0  0  0  0  0  0  0
    0.5713    0.7300    0.3500 P   0  0  0  0  0  0  0  0  0  0  0  0
    0.8219    2.0670   -0.2957 O   0  0  0  0  0  0  0  0  0  0  0  0
   -0.0500    0.8769    1.9168 O   0  0  0  0  0  0  0  0  0  0  0  0
   -1.3534    1.9198    1.9761 P   0  0  0  0  0  0  0  0  0  0  0  0
   -0.9150    3.3645    2.1839 O   0  0  0  0  0  0  0  0  0  0  0  0
   -2.4421    1.5776    3.2198 O   0  0  0  0  0  0  0  0  0  0  0  0
   -2.7674   -0.0828    3.2089 P   0  0  0  0  0  0  0  0  0  0  0  0
   -3.5388   -0.4790    4.4569 O   0  0  0  0  0  0  0  0  0  0  0  0
   -3.6106   -0.4588    1.8150 O   0  0  0  0  0  0  0  0  0  0  0  0
   -4.9641   -0.7331    2.0739 C   0  0  0  0  0  0  0  0  0  0  0  0
   -5.6422   -1.0628    0.7700 C   0  0  1  0  0  0  0  0  0  0  0  0
   -6.9917   -1.3539    0.8978 O   0  0  0  0  0  0  0  0  0  0  0  0
   -7.6435   -0.9629   -0.2373 C   0  0  2  0  0  0  0  0  0  0  0  0
   -6.6579   -0.3615   -1.2015 C   0  0  1  0  0  0  0  0  0  0  0  0
   -5.5372    0.0498   -0.2457 C   0  0  2  0  0  0  0  0  0  0  0  0
   -4.3036    0.0728   -0.8819 O   0  0  0  0  0  0  0  0  0  0  0  0
   -6.2165   -1.3765   -2.0498 O   0  0  0  0  0  0  0  0  0  0  0  0
   -8.6275    0.0702    0.0960 N   0  0  0  0  0  0  0  0  0  0  0  0
   -8.5858    0.7220    1.2869 C   0  0  0  0  0  0  0  0  0  0  0  0
   -9.5529    1.6906    1.5339 C   0  0  0  0  0  0  0  0  0  0  0  0
  -10.5293    1.9829    0.5949 C   0  0  0  0  0  0  0  0  0  0  0  0
  -11.4216    2.8705    0.8121 O   0  0  0  0  0  0  0  0  0  0  0  0
  -10.5304    1.3128   -0.5679 N   0  0  0  0  0  0  0  0  0  0  0  0
   -9.5910    0.3628   -0.8234 C   0  0  0  0  0  0  0  0  0  0  0  0
   -9.5957   -0.2699   -1.9266 O   0  0  0  0  0  0  0  0  0  0  0  0
   -1.2738   -0.8878    3.3082 O   0  0  0  0  0  0  0  0  0  0  0  0
   -2.1352    1.8662    0.4592 O   0  0  0  0  0  0  0  0  0  0  0  0
   -0.5955   -0.0635   -0.5773 O   0  0  0  0  0  0  0  0  0  0  0  0
    2.0761   -2.8770   -0.3464 O   0  0  0  0  0  0  0  0  0  0  0  0
   11.3737   -0.0983    3.0385 H   0  0  0  0  0  0  0  0  0  0  0  0
   12.0911    1.3392    2.2678 H   0  0  0  0  0  0  0  0  0  0  0  0
    8.7147    1.1768    2.4941 H   0  0  0  0  0  0  0  0  0  0  0  0
    7.0377    1.1959    0.6364 H   0  0  0  0  0  0  0  0  0  0  0  0
    8.0001    1.3809   -2.6810 H   0  0  0  0  0  0  0  0  0  0  0  0
    5.1437    0.5201   -3.1392 H   0  0  0  0  0  0  0  0  0  0  0  0
    6.1765   -1.7865   -1.3791 H   0  0  0  0  0  0  0  0  0  0  0  0
    7.7940   -0.6239   -3.6974 H   0  0  0  0  0  0  0  0  0  0  0  0
    8.3185   -1.3945   -2.1078 H   0  0  0  0  0  0  0  0  0  0  0  0
    6.1583   -2.7520   -3.4181 H   0  0  0  0  0  0  0  0  0  0  0  0
    4.5902   -0.5443   -0.3179 H   0  0  0  0  0  0  0  0  0  0  0  0
    3.7216    0.8491   -1.0596 H   0  0  0  0  0  0  0  0  0  0  0  0
   -5.0560   -1.6228    2.7109 H   0  0  0  0  0  0  0  0  0  0  0  0
   -5.4930    0.1065    2.5324 H   0  0  0  0  0  0  0  0  0  0  0  0
   -5.1272   -1.9586    0.3510 H   0  0  0  0  0  0  0  0  0  0  0  0
   -8.2379   -1.7884   -0.7136 H   0  0  0  0  0  0  0  0  0  0  0  0
   -7.0589    0.5117   -1.7435 H   0  0  0  0  0  0  0  0  0  0  0  0
   -5.8217    0.9857    0.2325 H   0  0  0  0  0  0  0  0  0  0  0  0
   -4.1846    1.0289   -1.1814 H   0  0  0  0  0  0  0  0  0  0  0  0
   -6.3769   -2.2712   -1.6496 H   0  0  0  0  0  0  0  0  0  0  0  0
   -7.8114    0.4857    2.0234 H   0  0  0  0  0  0  0  0  0  0  0  0
   -9.5605    2.2426    2.4794 H   0  0  0  0  0  0  0  0  0  0  0  0
  -11.2732    1.5270   -1.2962 H   0  0  0  0  0  0  0  0  0  0  0  0
   -1.2787   -1.7283    2.7860 H   0  0  0  0  0  0  0  0  0  0  0  0
   -1.5027    2.2795   -0.1801 H   0  0  0  0  0  0  0  0  0  0  0  0
   -0.8614   -0.9001   -0.1314 H   0  0  0  0  0  0  0  0  0  0  0  0
    2.8431   -3.3691   -0.7174 H   0  0  0  0  0  0  0  0  0  0  0  0
  1  2  1  0
  2  3  1  0
  3  4  2  0
  4  5  1  0
  5  6  1  0
  6  7  2  0
  6  8  1  0
  5  9  1  0
  9 10  1  0
 10 11  1  0
 11 12  1  0
 12 13  1  0
 12 14  1  0
 11 15  1  0
 15 16  1  0
 16 17  1  0
 17 18  2  0
 17 19  1  0
 19 20  1  0
 20 21  2  0
 20 22  1  0
 22 23  1  0
 23 24  2  0
 23 25  1  0
 25 26  1  0
 26 27  2  0
 26 28  1  0
 28 29  1  0
 29 30  1  0
 30 31  1  0
 31 32  1  0
 32 33  1  0
 33 34  1  0
 34 35  1  0
 33 36  1  0
 32 37  1  0
 37 38  1  0
 38 39  2  0
 39 40  1  0
 40 41  2  0
 40 42  1  0
 42 43  1  0
 43 44  2  0
 26 45  1  0
 23 46  1  0
 20 47  1  0
 17 48  1  0
  8  2  2  0
 13  9  1  0
 34 30  1  0
 43 37  1  0
  1 49  1  0
  1 50  1  0
  3 51  1  0
  4 52  1  0
  9 53  1  6
 11 54  1  6
 12 55  1  1
 13 56  1  0
 13 57  1  0
 14 58  1  0
 15 59  1  0
 15 60  1  0
 29 61  1  0
 29 62  1  0
 30 63  1  6
 32 64  1  6
 33 65  1  6
 34 66  1  1
 35 67  1  0
 36 68  1  0
 38 69  1  0
 39 70  1  0
 42 71  1  0
 45 72  1  0
 46 73  1  0
 47 74  1  0
 48 75  1  0
M  END
>  <Ligand ID>  (1) 
LIG0002348

>  <Ligand>  (1) 
denufosol

>  <SMILES>  (1) 
Nc1ccn(c(=O)n1)[C@@H]1O[C@@H]([C@H](C1)O)COP(=O)(OP(=O)(OP(=O)(OP(=O)(OC[C@H]1O[C@H]([C@@H]([C@@H]1O)O)n1ccc(=O)[nH]c1=O)O)O)O)O

>  <CID>  (1) 
9875516.0

>  <ChEMBL ID>  (1) 
nan

>  <InChiKey>  (1) 
FPNPSEMJLALQSA-MIYUEGBISA-N

>  <InChi>  (1) 
InChI=1S/C18H27N5O21P4/c19-11-1-3-22(17(28)20-11)13-5-8(24)9(40-13)6-38-45(30,31)42-47(34,35)44-48(36,37)43-46(32,33)39-7-10-14(26)15(27)16(41-10)23-4-2-12(25)21-18(23)29/h1-4,8-10,13-16,24,26-27H,5-7H2,(H,30,31)(H,32,33)(H,34,35)(H,36,37)(H2,19,20,28)(H,21,25,29)/t8-,9+,10+,13+,14+,15+,16+/m0/s1

>  <IUPAC Name>  (1) 
[[(2R,3S,5R)-5-(4-amino-2-oxopyrimidin-1-yl)-3-hydroxyoxolan-2-yl]methoxy-hydroxyphosphoryl] [[[(2R,3S,4R,5R)-5-(2,4-dioxopyrimidin-1-yl)-3,4-dihydroxyoxolan-2-yl]methoxy-hydroxyphosphoryl]oxy-hydroxyphosphoryl] hydrogen phosphate

$$$$
