
     RDKit          3D

 57 60  0  0  0  0  0  0  0  0999 V2000
   -6.3492    1.9783   -0.1060 O   0  0  0  0  0  0  0  0  0  0  0  0
   -7.6985    1.7251    0.0008 C   0  0  0  0  0  0  0  0  0  0  0  0
   -8.0266    0.2939    0.3031 C   0  0  0  0  0  0  0  0  0  0  0  0
   -7.3844   -0.7371   -0.9651 S   0  0  0  0  0  0  0  0  0  0  0  0
   -7.8370   -2.1522   -0.7149 O   0  0  0  0  0  0  0  0  0  0  0  0
   -7.9581   -0.3658   -2.3232 O   0  0  0  0  0  0  0  0  0  0  0  0
   -5.6735   -0.6317   -1.0322 N   0  0  0  0  0  0  0  0  0  0  0  0
   -5.1260   -1.1019    0.2127 C   0  0  1  0  0  0  0  0  0  0  0  0
   -4.2898   -2.3892   -0.0696 C   0  0  0  0  0  0  0  0  0  0  0  0
   -3.0085   -1.7491   -0.6294 C   0  0  0  0  0  0  0  0  0  0  0  0
   -2.8473   -0.6223    0.3233 C   0  0  0  0  0  0  0  0  0  0  0  0
   -4.1002   -0.2382    0.8281 C   0  0  0  0  0  0  0  0  0  0  0  0
   -4.0659    0.7995    1.7377 C   0  0  0  0  0  0  0  0  0  0  0  0
   -2.9154    1.4327    2.1420 C   0  0  0  0  0  0  0  0  0  0  0  0
   -1.7076    1.0407    1.6355 C   0  0  0  0  0  0  0  0  0  0  0  0
   -1.6843    0.0023    0.7180 C   0  0  0  0  0  0  0  0  0  0  0  0
   -0.3779   -0.4121    0.1754 C   0  0  0  0  0  0  0  0  0  0  0  0
   -0.0936   -1.3685   -0.7102 N   0  0  0  0  0  0  0  0  0  0  0  0
    1.1857   -1.4020   -0.9119 O   0  0  0  0  0  0  0  0  0  0  0  0
    1.7933   -0.4915   -0.1869 C   0  0  0  0  0  0  0  0  0  0  0  0
    0.8202    0.1346    0.4987 N   0  0  0  0  0  0  0  0  0  0  0  0
    3.2251   -0.2180   -0.1371 C   0  0  0  0  0  0  0  0  0  0  0  0
    4.0817   -0.9654   -0.9145 C   0  0  0  0  0  0  0  0  0  0  0  0
    5.4497   -0.6789   -0.8453 C   0  0  0  0  0  0  0  0  0  0  0  0
    5.9459    0.3140   -0.0327 C   0  0  0  0  0  0  0  0  0  0  0  0
    5.0432    1.0390    0.7312 C   0  0  0  0  0  0  0  0  0  0  0  0
    3.6855    0.7857    0.6898 C   0  0  0  0  0  0  0  0  0  0  0  0
    5.4958    2.0872    1.5986 C   0  0  0  0  0  0  0  0  0  0  0  0
    5.8627    2.9184    2.3119 N   0  0  0  0  0  0  0  0  0  0  0  0
    7.2748    0.6474    0.0833 O   0  0  0  0  0  0  0  0  0  0  0  0
    8.3694    0.0924   -0.5566 C   0  0  0  0  0  0  0  0  0  0  0  0
    9.3626   -0.5445    0.3931 C   0  0  0  0  0  0  0  0  0  0  0  0
    9.0871    1.0826   -1.4658 C   0  0  0  0  0  0  0  0  0  0  0  0
   -6.1251    2.8754    0.2499 H   0  0  0  0  0  0  0  0  0  0  0  0
   -8.0933    2.3899    0.8053 H   0  0  0  0  0  0  0  0  0  0  0  0
   -8.1641    2.0352   -0.9757 H   0  0  0  0  0  0  0  0  0  0  0  0
   -7.4795    0.0311    1.2388 H   0  0  0  0  0  0  0  0  0  0  0  0
   -9.1249    0.1496    0.4237 H   0  0  0  0  0  0  0  0  0  0  0  0
   -5.2764   -1.0921   -1.8650 H   0  0  0  0  0  0  0  0  0  0  0  0
   -5.8746   -1.3886    0.9677 H   0  0  0  0  0  0  0  0  0  0  0  0
   -4.7791   -3.0284   -0.8060 H   0  0  0  0  0  0  0  0  0  0  0  0
   -4.0159   -2.8804    0.8811 H   0  0  0  0  0  0  0  0  0  0  0  0
   -2.1775   -2.4750   -0.6115 H   0  0  0  0  0  0  0  0  0  0  0  0
   -3.2724   -1.3904   -1.6446 H   0  0  0  0  0  0  0  0  0  0  0  0
   -5.0149    1.1252    2.1512 H   0  0  0  0  0  0  0  0  0  0  0  0
   -2.9397    2.2372    2.8541 H   0  0  0  0  0  0  0  0  0  0  0  0
   -0.7721    1.5034    1.9182 H   0  0  0  0  0  0  0  0  0  0  0  0
    3.7295   -1.7678   -1.5777 H   0  0  0  0  0  0  0  0  0  0  0  0
    6.1029   -1.2586   -1.4468 H   0  0  0  0  0  0  0  0  0  0  0  0
    2.9743    1.3611    1.2954 H   0  0  0  0  0  0  0  0  0  0  0  0
    8.0348   -0.7199   -1.2296 H   0  0  0  0  0  0  0  0  0  0  0  0
    9.7188   -1.5265    0.0328 H   0  0  0  0  0  0  0  0  0  0  0  0
   10.2508    0.1273    0.4269 H   0  0  0  0  0  0  0  0  0  0  0  0
    8.9602   -0.5820    1.4268 H   0  0  0  0  0  0  0  0  0  0  0  0
    9.7037    0.5512   -2.2190 H   0  0  0  0  0  0  0  0  0  0  0  0
    8.3201    1.7445   -1.9444 H   0  0  0  0  0  0  0  0  0  0  0  0
    9.7754    1.6733   -0.8276 H   0  0  0  0  0  0  0  0  0  0  0  0
  1  2  1  0
  2  3  1  0
  3  4  1  0
  4  5  2  0
  4  6  2  0
  4  7  1  0
  7  8  1  0
  8  9  1  0
  9 10  1  0
 10 11  1  0
 11 12  2  0
 12 13  1  0
 13 14  2  0
 14 15  1  0
 15 16  2  0
 16 17  1  0
 17 18  2  0
 18 19  1  0
 19 20  1  0
 20 21  2  0
 20 22  1  0
 22 23  2  0
 23 24  1  0
 24 25  2  0
 25 26  1  0
 26 27  2  0
 26 28  1  0
 28 29  3  0
 25 30  1  0
 30 31  1  0
 31 32  1  0
 31 33  1  0
 12  8  1  0
 21 17  1  0
 27 22  1  0
 16 11  1  0
  1 34  1  0
  2 35  1  0
  2 36  1  0
  3 37  1  0
  3 38  1  0
  7 39  1  0
  8 40  1  1
  9 41  1  0
  9 42  1  0
 10 43  1  0
 10 44  1  0
 13 45  1  0
 14 46  1  0
 15 47  1  0
 23 48  1  0
 24 49  1  0
 27 50  1  0
 31 51  1  0
 32 52  1  0
 32 53  1  0
 32 54  1  0
 33 55  1  0
 33 56  1  0
 33 57  1  0
M  END
>  <Ligand ID>  (1) 
LIG0001527

>  <Ligand>  (1) 
SCHEMBL1873975

>  <SMILES>  (1) 
OCCS(=O)(=O)N[C@H]1CCc2c1cccc2c1noc(n1)c1ccc(c(c1)C#N)OC(C)C

>  <CID>  (1) 
58344715.0

>  <ChEMBL ID>  (1) 
nan

>  <InChiKey>  (1) 
LKTZGXNAMSPVAG-FQEVSTJZSA-N

>  <InChi>  (1) 
InChI=1S/C23H24N4O5S/c1-14(2)31-21-9-6-15(12-16(21)13-24)23-25-22(26-32-23)19-5-3-4-18-17(19)7-8-20(18)27-33(29,30)11-10-28/h3-6,9,12,14,20,27-28H,7-8,10-11H2,1-2H3/t20-/m0/s1

>  <IUPAC Name>  (1) 
N-[(1S)-4-[5-(3-cyano-4-propan-2-yloxyphenyl)-1,2,4-oxadiazol-3-yl]-2,3-dihydro-1H-inden-1-yl]-2-hydroxyethanesulfonamide

$$$$
