
     RDKit          3D

 64 66  0  0  0  0  0  0  0  0999 V2000
   11.0663   -1.6430    2.1605 O   0  0  0  0  0  0  0  0  0  0  0  0
   10.0816   -1.2100    1.2904 C   0  0  0  0  0  0  0  0  0  0  0  0
   10.4103   -0.5433    0.2553 O   0  0  0  0  0  0  0  0  0  0  0  0
    8.6346   -1.4799    1.4925 C   0  0  0  0  0  0  0  0  0  0  0  0
    7.9068   -0.8318    0.3139 C   0  0  0  0  0  0  0  0  0  0  0  0
    8.2205    0.5802    0.3744 N   0  0  0  0  0  0  0  0  0  0  0  0
    7.5732    1.2694   -0.7065 C   0  0  0  0  0  0  0  0  0  0  0  0
    6.1135    1.0949   -0.6097 C   0  0  0  0  0  0  0  0  0  0  0  0
    5.4188    0.0606   -1.2040 C   0  0  0  0  0  0  0  0  0  0  0  0
    4.0509    0.0180   -1.0318 C   0  0  0  0  0  0  0  0  0  0  0  0
    3.3822    0.9689   -0.2935 C   0  0  0  0  0  0  0  0  0  0  0  0
    4.0796    1.9584    0.2702 N   0  0  0  0  0  0  0  0  0  0  0  0
    5.4032    2.0299    0.1241 C   0  0  0  0  0  0  0  0  0  0  0  0
    1.9340    0.8900   -0.1341 C   0  0  0  0  0  0  0  0  0  0  0  0
    1.2730   -0.0722   -0.6850 N   0  0  0  0  0  0  0  0  0  0  0  0
   -0.0886   -0.1190   -0.5167 O   0  0  0  0  0  0  0  0  0  0  0  0
   -0.7271   -1.0371    0.3525 C   0  0  0  0  0  0  0  0  0  0  0  0
   -2.2024   -0.8488    0.3240 C   0  0  0  0  0  0  0  0  0  0  0  0
   -2.9903   -1.5373   -0.5719 C   0  0  0  0  0  0  0  0  0  0  0  0
   -4.3691   -1.3000   -0.5304 C   0  0  0  0  0  0  0  0  0  0  0  0
   -4.9396   -0.4230    0.3560 C   0  0  0  0  0  0  0  0  0  0  0  0
   -4.1470    0.2721    1.2604 C   0  0  0  0  0  0  0  0  0  0  0  0
   -2.7907    0.0274    1.2068 C   0  0  0  0  0  0  0  0  0  0  0  0
   -4.7313    1.2192    2.2318 C   0  0  0  0  0  0  0  0  0  0  0  0
   -5.4157    2.2617    1.6984 F   0  0  0  0  0  0  0  0  0  0  0  0
   -3.6506    1.8146    2.9059 F   0  0  0  0  0  0  0  0  0  0  0  0
   -5.4147    0.5719    3.2708 F   0  0  0  0  0  0  0  0  0  0  0  0
   -6.4007   -0.1635    0.3958 C   0  0  0  0  0  0  0  0  0  0  0  0
   -6.7874    0.8905   -0.6164 C   0  0  0  0  0  0  0  0  0  0  0  0
   -7.3516    0.2464   -1.8642 C   0  0  0  0  0  0  0  0  0  0  0  0
   -8.7603   -0.2075   -1.4635 C   0  0  0  0  0  0  0  0  0  0  0  0
   -8.6702   -1.0397   -0.2126 C   0  0  0  0  0  0  0  0  0  0  0  0
   -7.2466   -1.3702    0.1587 C   0  0  0  0  0  0  0  0  0  0  0  0
    1.2278    1.9242    0.6659 C   0  0  0  0  0  0  0  0  0  0  0  0
   11.9257   -1.1164    2.2653 H   0  0  0  0  0  0  0  0  0  0  0  0
    8.2900   -1.0979    2.4695 H   0  0  0  0  0  0  0  0  0  0  0  0
    8.4643   -2.5781    1.3924 H   0  0  0  0  0  0  0  0  0  0  0  0
    6.8374   -1.0538    0.4737 H   0  0  0  0  0  0  0  0  0  0  0  0
    8.3060   -1.2829   -0.6010 H   0  0  0  0  0  0  0  0  0  0  0  0
    7.9703    1.0050    1.2754 H   0  0  0  0  0  0  0  0  0  0  0  0
    7.8744    2.3340   -0.6496 H   0  0  0  0  0  0  0  0  0  0  0  0
    7.9173    0.7922   -1.6461 H   0  0  0  0  0  0  0  0  0  0  0  0
    5.9746   -0.6699   -1.7774 H   0  0  0  0  0  0  0  0  0  0  0  0
    3.5407   -0.8204   -1.5214 H   0  0  0  0  0  0  0  0  0  0  0  0
    5.9187    2.8519    0.6018 H   0  0  0  0  0  0  0  0  0  0  0  0
   -0.3841   -0.8011    1.3856 H   0  0  0  0  0  0  0  0  0  0  0  0
   -0.4332   -2.0687    0.0711 H   0  0  0  0  0  0  0  0  0  0  0  0
   -2.5433   -2.2253   -1.2673 H   0  0  0  0  0  0  0  0  0  0  0  0
   -4.9490   -1.8527   -1.2443 H   0  0  0  0  0  0  0  0  0  0  0  0
   -2.1394    0.5551    1.9012 H   0  0  0  0  0  0  0  0  0  0  0  0
   -6.6928    0.2756    1.3992 H   0  0  0  0  0  0  0  0  0  0  0  0
   -5.9654    1.5965   -0.8490 H   0  0  0  0  0  0  0  0  0  0  0  0
   -7.6003    1.5077   -0.1848 H   0  0  0  0  0  0  0  0  0  0  0  0
   -7.4723    0.9941   -2.6521 H   0  0  0  0  0  0  0  0  0  0  0  0
   -6.8062   -0.6615   -2.1832 H   0  0  0  0  0  0  0  0  0  0  0  0
   -9.2857   -0.7290   -2.2784 H   0  0  0  0  0  0  0  0  0  0  0  0
   -9.3796    0.6831   -1.1958 H   0  0  0  0  0  0  0  0  0  0  0  0
   -9.2686   -0.6338    0.6406 H   0  0  0  0  0  0  0  0  0  0  0  0
   -9.1501   -2.0190   -0.4348 H   0  0  0  0  0  0  0  0  0  0  0  0
   -7.3377   -1.9463    1.1260 H   0  0  0  0  0  0  0  0  0  0  0  0
   -6.8649   -2.0071   -0.6540 H   0  0  0  0  0  0  0  0  0  0  0  0
    0.2681    2.2487    0.1947 H   0  0  0  0  0  0  0  0  0  0  0  0
    1.0391    1.6192    1.7135 H   0  0  0  0  0  0  0  0  0  0  0  0
    1.8537    2.8283    0.6988 H   0  0  0  0  0  0  0  0  0  0  0  0
  1  2  1  0
  2  3  2  0
  2  4  1  0
  4  5  1  0
  5  6  1  0
  6  7  1  0
  7  8  1  0
  8  9  2  0
  9 10  1  0
 10 11  2  0
 11 12  1  0
 12 13  2  0
 11 14  1  0
 14 15  2  0
 15 16  1  0
 16 17  1  0
 17 18  1  0
 18 19  2  0
 19 20  1  0
 20 21  2  0
 21 22  1  0
 22 23  2  0
 22 24  1  0
 24 25  1  0
 24 26  1  0
 24 27  1  0
 21 28  1  0
 28 29  1  0
 29 30  1  0
 30 31  1  0
 31 32  1  0
 32 33  1  0
 14 34  1  0
 13  8  1  0
 23 18  1  0
 33 28  1  0
  1 35  1  0
  4 36  1  0
  4 37  1  0
  5 38  1  0
  5 39  1  0
  6 40  1  0
  7 41  1  0
  7 42  1  0
  9 43  1  0
 10 44  1  0
 13 45  1  0
 17 46  1  0
 17 47  1  0
 19 48  1  0
 20 49  1  0
 23 50  1  0
 28 51  1  0
 29 52  1  0
 29 53  1  0
 30 54  1  0
 30 55  1  0
 31 56  1  0
 31 57  1  0
 32 58  1  0
 32 59  1  0
 33 60  1  0
 33 61  1  0
 34 62  1  0
 34 63  1  0
 34 64  1  0
M  END
>  <Ligand ID>  (1) 
LIG0005579

>  <Ligand>  (1) 
CHEMBL2336061

>  <SMILES>  (1) 
OC(=O)CCNCc1ccc(nc1)/C(=N/OCc1ccc(c(c1)C(F)(F)F)C1CCCCC1)/C

>  <CID>  (1) 
44625753.0

>  <ChEMBL ID>  (1) 
nan

>  <InChiKey>  (1) 
PAZFHMRKUCGGMT-KBVAKVRCSA-N

>  <InChi>  (1) 
InChI=1S/C25H30F3N3O3/c1-17(23-10-8-19(15-30-23)14-29-12-11-24(32)33)31-34-16-18-7-9-21(20-5-3-2-4-6-20)22(13-18)25(26,27)28/h7-10,13,15,20,29H,2-6,11-12,14,16H2,1H3,(H,32,33)/b31-17+

>  <IUPAC Name>  (1) 
3-[[6-[(E)-N-[[4-cyclohexyl-3-(trifluoromethyl)phenyl]methoxy]-C-methylcarbonimidoyl]pyridin-3-yl]methylamino]propanoic acid

$$$$
