
     RDKit          3D

 78 82  0  0  0  0  0  0  0  0999 V2000
  -10.6625    0.9045    0.1869 C   0  0  0  0  0  0  0  0  0  0  0  0
  -10.1904    0.9817    1.6026 C   0  0  0  0  0  0  0  0  0  0  0  0
   -8.9564    0.3100    1.8749 N   0  0  0  0  0  0  0  0  0  0  0  0
   -8.9682   -1.1038    1.7949 C   0  0  0  0  0  0  0  0  0  0  0  0
   -8.2922   -1.7231    0.6247 C   0  0  0  0  0  0  0  0  0  0  0  0
   -7.0749   -1.1021    0.2060 N   0  0  0  0  0  0  0  0  0  0  0  0
   -7.2823    0.3040    0.0773 C   0  0  0  0  0  0  0  0  0  0  0  0
   -7.8008    0.9485    1.3160 C   0  0  0  0  0  0  0  0  0  0  0  0
   -5.8974   -1.4999    0.9099 C   0  0  0  0  0  0  0  0  0  0  0  0
   -4.6723   -0.7981    0.4009 C   0  0  0  0  0  0  0  0  0  0  0  0
   -4.1091    0.2367    1.1245 C   0  0  0  0  0  0  0  0  0  0  0  0
   -2.9809    0.9186    0.7038 C   0  0  0  0  0  0  0  0  0  0  0  0
   -2.4029    0.5477   -0.4801 C   0  0  0  0  0  0  0  0  0  0  0  0
   -2.9655   -0.4952   -1.2152 C   0  0  0  0  0  0  0  0  0  0  0  0
   -4.0899   -1.1722   -0.7922 C   0  0  0  0  0  0  0  0  0  0  0  0
   -4.6542   -2.2841   -1.6165 C   0  0  0  0  0  0  0  0  0  0  0  0
   -4.6840   -3.4788   -0.9604 F   0  0  0  0  0  0  0  0  0  0  0  0
   -3.8930   -2.4217   -2.7584 F   0  0  0  0  0  0  0  0  0  0  0  0
   -5.9297   -1.9213   -2.0663 F   0  0  0  0  0  0  0  0  0  0  0  0
   -1.2483    1.1516   -1.0356 N   0  0  0  0  0  0  0  0  0  0  0  0
    0.0612    0.6657   -0.7374 C   0  0  0  0  0  0  0  0  0  0  0  0
    0.1019   -0.3335    0.0516 O   0  0  0  0  0  0  0  0  0  0  0  0
    1.2659    1.2677   -1.2945 C   0  0  0  0  0  0  0  0  0  0  0  0
    1.2495    2.3555   -2.1420 C   0  0  0  0  0  0  0  0  0  0  0  0
    2.4413    2.8642   -2.6268 C   0  0  0  0  0  0  0  0  0  0  0  0
    3.6539    2.3050   -2.2801 C   0  0  0  0  0  0  0  0  0  0  0  0
    3.6658    1.2166   -1.4319 C   0  0  0  0  0  0  0  0  0  0  0  0
    2.4766    0.7054   -0.9453 C   0  0  0  0  0  0  0  0  0  0  0  0
    4.9177    0.6130   -1.0541 N   0  0  0  0  0  0  0  0  0  0  0  0
    5.6458    1.0208    0.0872 C   0  0  0  0  0  0  0  0  0  0  0  0
    5.1096    1.9676    0.7627 O   0  0  0  0  0  0  0  0  0  0  0  0
    6.9006    0.4715    0.5328 C   0  0  0  0  0  0  0  0  0  0  0  0
    7.4751    1.0038    1.6946 C   0  0  0  0  0  0  0  0  0  0  0  0
    8.6454    0.5254    2.1544 N   0  0  0  0  0  0  0  0  0  0  0  0
    9.3312   -0.4609    1.5626 C   0  0  0  0  0  0  0  0  0  0  0  0
    8.8186   -1.0151    0.4293 C   0  0  0  0  0  0  0  0  0  0  0  0
    7.6076   -0.5360   -0.0663 C   0  0  0  0  0  0  0  0  0  0  0  0
    7.1848   -1.0802   -1.1075 O   0  0  0  0  0  0  0  0  0  0  0  0
    9.4820   -2.0381   -0.2274 C   0  0  0  0  0  0  0  0  0  0  0  0
   10.6720   -2.5303    0.2333 C   0  0  0  0  0  0  0  0  0  0  0  0
   11.1930   -1.9697    1.3819 C   0  0  0  0  0  0  0  0  0  0  0  0
   10.5310   -0.9444    2.0424 C   0  0  0  0  0  0  0  0  0  0  0  0
   12.4901   -2.5203    1.8677 C   0  0  0  0  0  0  0  0  0  0  0  0
   13.5436   -2.1295    1.0634 F   0  0  0  0  0  0  0  0  0  0  0  0
   12.6473   -2.1173    3.1828 F   0  0  0  0  0  0  0  0  0  0  0  0
   12.4173   -3.8889    1.8266 F   0  0  0  0  0  0  0  0  0  0  0  0
    4.9495    2.8291   -2.7847 C   0  0  0  0  0  0  0  0  0  0  0  0
  -10.1630    1.6627   -0.4706 H   0  0  0  0  0  0  0  0  0  0  0  0
  -11.7423    1.2323    0.1958 H   0  0  0  0  0  0  0  0  0  0  0  0
  -10.6581   -0.1116   -0.2221 H   0  0  0  0  0  0  0  0  0  0  0  0
  -10.9619    0.6244    2.3114 H   0  0  0  0  0  0  0  0  0  0  0  0
   -9.9990    2.0706    1.8063 H   0  0  0  0  0  0  0  0  0  0  0  0
  -10.0468   -1.4329    1.7517 H   0  0  0  0  0  0  0  0  0  0  0  0
   -8.5963   -1.5262    2.7649 H   0  0  0  0  0  0  0  0  0  0  0  0
   -8.0877   -2.7992    0.8985 H   0  0  0  0  0  0  0  0  0  0  0  0
   -8.9522   -1.7952   -0.2751 H   0  0  0  0  0  0  0  0  0  0  0  0
   -6.2753    0.7553   -0.1380 H   0  0  0  0  0  0  0  0  0  0  0  0
   -7.8750    0.5058   -0.8360 H   0  0  0  0  0  0  0  0  0  0  0  0
   -6.9885    1.0998    2.0492 H   0  0  0  0  0  0  0  0  0  0  0  0
   -8.1368    1.9846    1.0184 H   0  0  0  0  0  0  0  0  0  0  0  0
   -5.9467   -1.2938    2.0061 H   0  0  0  0  0  0  0  0  0  0  0  0
   -5.8004   -2.6024    0.8387 H   0  0  0  0  0  0  0  0  0  0  0  0
   -4.5826    0.5150    2.0595 H   0  0  0  0  0  0  0  0  0  0  0  0
   -2.5298    1.7245    1.2526 H   0  0  0  0  0  0  0  0  0  0  0  0
   -2.5261   -0.8079   -2.1559 H   0  0  0  0  0  0  0  0  0  0  0  0
   -1.3805    1.9556   -1.6643 H   0  0  0  0  0  0  0  0  0  0  0  0
    0.3074    2.8025   -2.4221 H   0  0  0  0  0  0  0  0  0  0  0  0
    2.4827    3.7214   -3.2988 H   0  0  0  0  0  0  0  0  0  0  0  0
    2.5030   -0.1485   -0.2812 H   0  0  0  0  0  0  0  0  0  0  0  0
    5.2522   -0.1427   -1.6745 H   0  0  0  0  0  0  0  0  0  0  0  0
    6.9779    1.8132    2.2382 H   0  0  0  0  0  0  0  0  0  0  0  0
    9.0210    0.9643    3.0245 H   0  0  0  0  0  0  0  0  0  0  0  0
    9.0576   -2.4679   -1.1300 H   0  0  0  0  0  0  0  0  0  0  0  0
   11.1553   -3.3304   -0.3120 H   0  0  0  0  0  0  0  0  0  0  0  0
   10.9439   -0.5220    2.9245 H   0  0  0  0  0  0  0  0  0  0  0  0
    5.4711    3.4660   -2.0483 H   0  0  0  0  0  0  0  0  0  0  0  0
    4.7066    3.4906   -3.6350 H   0  0  0  0  0  0  0  0  0  0  0  0
    5.6467    2.0420   -3.1038 H   0  0  0  0  0  0  0  0  0  0  0  0
  1  2  1  0
  2  3  1  0
  3  4  1  0
  4  5  1  0
  5  6  1  0
  6  7  1  0
  7  8  1  0
  6  9  1  0
  9 10  1  0
 10 11  2  0
 11 12  1  0
 12 13  2  0
 13 14  1  0
 14 15  2  0
 15 16  1  0
 16 17  1  0
 16 18  1  0
 16 19  1  0
 13 20  1  0
 20 21  1  0
 21 22  2  0
 21 23  1  0
 23 24  2  0
 24 25  1  0
 25 26  2  0
 26 27  1  0
 27 28  2  0
 27 29  1  0
 29 30  1  0
 30 31  2  0
 30 32  1  0
 32 33  2  0
 33 34  1  0
 34 35  1  0
 35 36  2  0
 36 37  1  0
 37 38  2  0
 36 39  1  0
 39 40  2  0
 40 41  1  0
 41 42  2  0
 41 43  1  0
 43 44  1  0
 43 45  1  0
 43 46  1  0
 26 47  1  0
  8  3  1  0
 15 10  1  0
 28 23  1  0
 37 32  1  0
 42 35  1  0
  1 48  1  0
  1 49  1  0
  1 50  1  0
  2 51  1  0
  2 52  1  0
  4 53  1  0
  4 54  1  0
  5 55  1  0
  5 56  1  0
  7 57  1  0
  7 58  1  0
  8 59  1  0
  8 60  1  0
  9 61  1  0
  9 62  1  0
 11 63  1  0
 12 64  1  0
 14 65  1  0
 20 66  1  0
 24 67  1  0
 25 68  1  0
 28 69  1  0
 29 70  1  0
 33 71  1  0
 34 72  1  0
 39 73  1  0
 40 74  1  0
 42 75  1  0
 47 76  1  0
 47 77  1  0
 47 78  1  0
M  END
>  <Ligand ID>  (1) 
LIG0004406

>  <Ligand>  (1) 
MLS000911561

>  <SMILES>  (1) 
CCN1CCN(CC1)Cc1ccc(cc1C(F)(F)F)NC(=O)c1ccc(c(c1)NC(=O)c1c[nH]c2c(c1=O)ccc(c2)C(F)(F)F)C

>  <CID>  (1) 
16746145.0

>  <ChEMBL ID>  (1) 
nan

>  <InChiKey>  (1) 
WYUZMROWCYDDMT-UHFFFAOYSA-N

>  <InChi>  (1) 
InChI=1S/C33H31F6N5O3/c1-3-43-10-12-44(13-11-43)18-21-6-8-23(16-26(21)33(37,38)39)41-30(46)20-5-4-19(2)27(14-20)42-31(47)25-17-40-28-15-22(32(34,35)36)7-9-24(28)29(25)45/h4-9,14-17H,3,10-13,18H2,1-2H3,(H,40,45)(H,41,46)(H,42,47)

>  <IUPAC Name>  (1) 
N-[5-[[4-[(4-ethylpiperazin-1-yl)methyl]-3-(trifluoromethyl)phenyl]carbamoyl]-2-methylphenyl]-4-oxo-7-(trifluoromethyl)-1H-quinoline-3-carboxamide

$$$$
