
     RDKit          3D

135140  0  0  0  0  0  0  0  0999 V2000
   -5.3009    0.3961   -2.6995 C   0  0  0  0  0  0  0  0  0  0  0  0
   -3.8856    0.6618   -3.0559 C   0  0  0  0  0  0  0  0  0  0  0  0
   -3.1175    1.5618   -2.1630 C   0  0  0  0  0  0  0  0  0  0  0  0
   -2.9607    1.1459   -0.7458 C   0  0  1  0  0  0  0  0  0  0  0  0
   -4.2273    0.9979    0.0204 C   0  0  0  0  0  0  0  0  0  0  0  0
   -4.5765   -0.1966    0.2684 O   0  0  0  0  0  0  0  0  0  0  0  0
   -5.0146    2.1077    0.4653 N   0  0  0  0  0  0  0  0  0  0  0  0
   -6.2077    1.8139    1.1889 C   0  0  2  0  0  0  0  0  0  0  0  0
   -7.3524    2.5303    0.6704 C   0  0  0  0  0  0  0  0  0  0  0  0
   -8.4948    2.1941    1.2202 O   0  0  0  0  0  0  0  0  0  0  0  0
   -7.4881    3.5212   -0.3079 N   0  0  0  0  0  0  0  0  0  0  0  0
   -8.8668    3.9898   -0.5640 C   0  0  0  0  0  0  0  0  0  0  0  0
   -9.4464    3.2686   -1.7159 C   0  0  0  0  0  0  0  0  0  0  0  0
  -10.1192    2.0826   -1.6469 C   0  0  0  0  0  0  0  0  0  0  0  0
  -10.6650    1.4428   -2.7599 C   0  0  0  0  0  0  0  0  0  0  0  0
  -10.5406    1.9971   -3.9882 C   0  0  0  0  0  0  0  0  0  0  0  0
   -9.8678    3.1995   -4.1118 C   0  0  0  0  0  0  0  0  0  0  0  0
   -9.3281    3.8292   -2.9978 C   0  0  0  0  0  0  0  0  0  0  0  0
   -6.4580    4.1505   -1.0830 C   0  0  0  0  0  0  0  0  0  0  0  0
   -6.1142    1.9732    2.6578 C   0  0  0  0  0  0  0  0  0  0  0  0
   -7.3850    1.6362    3.3124 C   0  0  0  0  0  0  0  0  0  0  0  0
   -8.3141    2.5034    3.8977 C   0  0  0  0  0  0  0  0  0  0  0  0
   -9.3343    1.7812    4.4207 N   0  0  0  0  0  0  0  0  0  0  0  0
   -9.1146    0.4911    4.2044 C   0  0  0  0  0  0  0  0  0  0  0  0
   -7.9374    0.3643    3.5324 C   0  0  0  0  0  0  0  0  0  0  0  0
   -7.4868   -0.9208    3.1944 C   0  0  0  0  0  0  0  0  0  0  0  0
   -8.2094   -2.0278    3.5285 C   0  0  0  0  0  0  0  0  0  0  0  0
   -9.3821   -1.9188    4.1966 C   0  0  0  0  0  0  0  0  0  0  0  0
   -9.8487   -0.6420    4.5437 C   0  0  0  0  0  0  0  0  0  0  0  0
   -2.4408   -0.2474   -0.7877 N   0  0  0  0  0  0  0  0  0  0  0  0
   -1.1543   -0.5399   -0.1939 C   0  0  0  0  0  0  0  0  0  0  0  0
   -0.5103    0.3995    0.3095 O   0  0  0  0  0  0  0  0  0  0  0  0
   -0.7450   -1.9597   -0.2490 C   0  0  2  0  0  0  0  0  0  0  0  0
   -1.5153   -2.7395    0.8411 C   0  0  0  0  0  0  0  0  0  0  0  0
   -1.0606   -1.9103    2.0346 C   0  0  0  0  0  0  0  0  0  0  0  0
    0.4314   -1.6593    1.7771 C   0  0  0  0  0  0  0  0  0  0  0  0
    0.5806   -2.0660    0.3986 N   0  0  0  0  0  0  0  0  0  0  0  0
    1.7063   -2.5324   -0.3226 C   0  0  0  0  0  0  0  0  0  0  0  0
    1.5134   -2.8749   -1.5640 O   0  0  0  0  0  0  0  0  0  0  0  0
    3.0756   -2.6951    0.1437 C   0  0  2  0  0  0  0  0  0  0  0  0
    3.2643   -4.1903    0.5956 C   0  0  0  0  0  0  0  0  0  0  0  0
    2.9989   -5.0098   -0.5958 C   0  0  0  0  0  0  0  0  0  0  0  0
    4.0325   -5.3456   -1.4784 C   0  0  0  0  0  0  0  0  0  0  0  0
    3.8251   -6.1131   -2.5986 C   0  0  0  0  0  0  0  0  0  0  0  0
    2.5674   -6.5897   -2.9013 C   0  0  0  0  0  0  0  0  0  0  0  0
    1.5275   -6.2756   -2.0513 C   0  0  0  0  0  0  0  0  0  0  0  0
    1.7386   -5.5056   -0.9273 C   0  0  0  0  0  0  0  0  0  0  0  0
    3.5287   -1.8750    1.2264 N   0  0  0  0  0  0  0  0  0  0  0  0
    4.9553   -1.7702    1.3736 C   0  0  0  0  0  0  0  0  0  0  0  0
    5.7088   -2.4088    0.5589 O   0  0  0  0  0  0  0  0  0  0  0  0
    5.5813   -0.9440    2.4476 C   0  0  0  0  0  0  0  0  0  0  0  0
    7.0096   -1.1364    2.3334 N   0  0  0  0  0  0  0  0  0  0  0  0
    7.8084   -0.8517    1.2295 C   0  0  0  0  0  0  0  0  0  0  0  0
    7.3484   -0.3656    0.1771 O   0  0  0  0  0  0  0  0  0  0  0  0
    9.2704   -1.1510    1.3266 C   0  0  2  0  0  0  0  0  0  0  0  0
    9.9957   -0.8249    0.1298 N   0  0  0  0  0  0  0  0  0  0  0  0
   11.3744   -0.3970    0.2285 C   0  0  0  0  0  0  0  0  0  0  0  0
   11.8199   -0.3488    1.4101 O   0  0  0  0  0  0  0  0  0  0  0  0
   12.1674   -0.0586   -0.9674 C   0  0  2  0  0  0  0  0  0  0  0  0
   12.9025    1.2254   -0.7667 C   0  0  0  0  0  0  0  0  0  0  0  0
   11.9762    2.3404   -0.5333 C   0  0  0  0  0  0  0  0  0  0  0  0
   11.4782    3.0107   -1.6423 C   0  0  0  0  0  0  0  0  0  0  0  0
   10.6337    4.0690   -1.4931 C   0  0  0  0  0  0  0  0  0  0  0  0
   10.2203    4.5410   -0.2574 C   0  0  0  0  0  0  0  0  0  0  0  0
   10.7069    3.8855    0.8511 C   0  0  0  0  0  0  0  0  0  0  0  0
   11.5706    2.8033    0.6920 C   0  0  0  0  0  0  0  0  0  0  0  0
    9.3481    5.6345   -0.1641 O   0  0  0  0  0  0  0  0  0  0  0  0
   11.2491   -0.0400   -2.1019 N   0  0  0  0  0  0  0  0  0  0  0  0
    9.3014   -2.7077    1.3805 C   0  0  0  0  0  0  0  0  0  0  0  0
   -3.8581    1.3109   -4.4504 C   0  0  0  0  0  0  0  0  0  0  0  0
   -5.7900    1.1603   -2.0780 H   0  0  0  0  0  0  0  0  0  0  0  0
   -5.4850   -0.6011   -2.2529 H   0  0  0  0  0  0  0  0  0  0  0  0
   -5.9057    0.3963   -3.6593 H   0  0  0  0  0  0  0  0  0  0  0  0
   -3.3995   -0.3279   -3.2160 H   0  0  0  0  0  0  0  0  0  0  0  0
   -3.5560    2.5883   -2.2613 H   0  0  0  0  0  0  0  0  0  0  0  0
   -2.0935    1.6620   -2.5921 H   0  0  0  0  0  0  0  0  0  0  0  0
   -2.2611    1.7387   -0.1624 H   0  0  0  0  0  0  0  0  0  0  0  0
   -4.6272    3.0429    0.2414 H   0  0  0  0  0  0  0  0  0  0  0  0
   -6.4045    0.7038    1.0301 H   0  0  0  0  0  0  0  0  0  0  0  0
   -9.5235    3.7846    0.3178 H   0  0  0  0  0  0  0  0  0  0  0  0
   -8.8676    5.0868   -0.7544 H   0  0  0  0  0  0  0  0  0  0  0  0
  -10.2675    1.5827   -0.7077 H   0  0  0  0  0  0  0  0  0  0  0  0
  -11.1974    0.4929   -2.6645 H   0  0  0  0  0  0  0  0  0  0  0  0
  -10.9682    1.4943   -4.8510 H   0  0  0  0  0  0  0  0  0  0  0  0
   -9.7821    3.6284   -5.1139 H   0  0  0  0  0  0  0  0  0  0  0  0
   -8.8296    4.7623   -3.1819 H   0  0  0  0  0  0  0  0  0  0  0  0
   -6.9072    4.8536   -1.8587 H   0  0  0  0  0  0  0  0  0  0  0  0
   -5.8968    4.8487   -0.3931 H   0  0  0  0  0  0  0  0  0  0  0  0
   -5.8168    3.4958   -1.6672 H   0  0  0  0  0  0  0  0  0  0  0  0
   -5.3695    1.3192    3.1568 H   0  0  0  0  0  0  0  0  0  0  0  0
   -5.8857    3.0319    2.9033 H   0  0  0  0  0  0  0  0  0  0  0  0
   -8.2113    3.5855    3.9166 H   0  0  0  0  0  0  0  0  0  0  0  0
  -10.1297    2.2486    4.9063 H   0  0  0  0  0  0  0  0  0  0  0  0
   -6.5512   -1.0481    2.6582 H   0  0  0  0  0  0  0  0  0  0  0  0
   -7.8768   -3.0484    3.2711 H   0  0  0  0  0  0  0  0  0  0  0  0
   -9.9321   -2.7974    4.4488 H   0  0  0  0  0  0  0  0  0  0  0  0
  -10.7736   -0.4972    5.0766 H   0  0  0  0  0  0  0  0  0  0  0  0
   -3.0082   -1.0000   -1.2466 H   0  0  0  0  0  0  0  0  0  0  0  0
   -0.7923   -2.4281   -1.2219 H   0  0  0  0  0  0  0  0  0  0  0  0
   -2.5808   -2.7544    0.6820 H   0  0  0  0  0  0  0  0  0  0  0  0
   -1.0943   -3.7399    0.8642 H   0  0  0  0  0  0  0  0  0  0  0  0
   -1.6331   -0.9788    2.1321 H   0  0  0  0  0  0  0  0  0  0  0  0
   -1.1518   -2.5516    2.9327 H   0  0  0  0  0  0  0  0  0  0  0  0
    1.0256   -2.3065    2.4680 H   0  0  0  0  0  0  0  0  0  0  0  0
    0.7354   -0.6315    1.9228 H   0  0  0  0  0  0  0  0  0  0  0  0
    3.8068   -2.6436   -0.6782 H   0  0  0  0  0  0  0  0  0  0  0  0
    2.5359   -4.4306    1.3696 H   0  0  0  0  0  0  0  0  0  0  0  0
    4.3132   -4.3144    0.8932 H   0  0  0  0  0  0  0  0  0  0  0  0
    4.9989   -4.9624   -1.2170 H   0  0  0  0  0  0  0  0  0  0  0  0
    4.6319   -6.3774   -3.2890 H   0  0  0  0  0  0  0  0  0  0  0  0
    2.4366   -7.1954   -3.8015 H   0  0  0  0  0  0  0  0  0  0  0  0
    0.5263   -6.6322   -2.2586 H   0  0  0  0  0  0  0  0  0  0  0  0
    0.9064   -5.2579   -0.2547 H   0  0  0  0  0  0  0  0  0  0  0  0
    2.9786   -1.3414    1.9077 H   0  0  0  0  0  0  0  0  0  0  0  0
    5.3164    0.1469    2.3008 H   0  0  0  0  0  0  0  0  0  0  0  0
    5.2238   -1.1972    3.4409 H   0  0  0  0  0  0  0  0  0  0  0  0
    7.4875   -1.5460    3.1954 H   0  0  0  0  0  0  0  0  0  0  0  0
    9.7331   -0.8420    2.2622 H   0  0  0  0  0  0  0  0  0  0  0  0
    9.5084   -0.9047   -0.7829 H   0  0  0  0  0  0  0  0  0  0  0  0
   12.9001   -0.9158   -1.1405 H   0  0  0  0  0  0  0  0  0  0  0  0
   13.6278    1.4349   -1.5886 H   0  0  0  0  0  0  0  0  0  0  0  0
   13.4648    1.0987    0.2110 H   0  0  0  0  0  0  0  0  0  0  0  0
   11.7676    2.6869   -2.6484 H   0  0  0  0  0  0  0  0  0  0  0  0
   10.2764    4.5511   -2.4024 H   0  0  0  0  0  0  0  0  0  0  0  0
   10.4183    4.2132    1.8507 H   0  0  0  0  0  0  0  0  0  0  0  0
   11.9161    2.3443    1.5988 H   0  0  0  0  0  0  0  0  0  0  0  0
    9.6722    6.5620   -0.4761 H   0  0  0  0  0  0  0  0  0  0  0  0
   10.3949    0.5237   -1.9087 H   0  0  0  0  0  0  0  0  0  0  0  0
   10.9346   -1.0386   -2.2164 H   0  0  0  0  0  0  0  0  0  0  0  0
    8.6967   -2.9797    2.2794 H   0  0  0  0  0  0  0  0  0  0  0  0
   10.3132   -3.0934    1.4446 H   0  0  0  0  0  0  0  0  0  0  0  0
    8.7230   -3.0774    0.5002 H   0  0  0  0  0  0  0  0  0  0  0  0
   -4.5782    2.1434   -4.5100 H   0  0  0  0  0  0  0  0  0  0  0  0
   -2.8269    1.6481   -4.7176 H   0  0  0  0  0  0  0  0  0  0  0  0
   -4.1840    0.5800   -5.2225 H   0  0  0  0  0  0  0  0  0  0  0  0
  1  2  1  0
  2  3  1  0
  3  4  1  0
  4  5  1  0
  5  6  2  0
  5  7  1  0
  7  8  1  0
  8  9  1  0
  9 10  2  0
  9 11  1  0
 11 12  1  0
 12 13  1  0
 13 14  2  0
 14 15  1  0
 15 16  2  0
 16 17  1  0
 17 18  2  0
 11 19  1  0
  8 20  1  0
 20 21  1  0
 21 22  2  0
 22 23  1  0
 23 24  1  0
 24 25  2  0
 25 26  1  0
 26 27  2  0
 27 28  1  0
 28 29  2  0
  4 30  1  0
 30 31  1  0
 31 32  2  0
 31 33  1  0
 33 34  1  0
 34 35  1  0
 35 36  1  0
 36 37  1  0
 37 38  1  0
 38 39  2  0
 38 40  1  0
 40 41  1  0
 41 42  1  0
 42 43  2  0
 43 44  1  0
 44 45  2  0
 45 46  1  0
 46 47  2  0
 40 48  1  0
 48 49  1  0
 49 50  2  0
 49 51  1  0
 51 52  1  0
 52 53  1  0
 53 54  2  0
 53 55  1  0
 55 56  1  0
 56 57  1  0
 57 58  2  0
 57 59  1  0
 59 60  1  0
 60 61  1  0
 61 62  2  0
 62 63  1  0
 63 64  2  0
 64 65  1  0
 65 66  2  0
 64 67  1  0
 59 68  1  0
 55 69  1  0
  2 70  1  0
 18 13  1  0
 25 21  1  0
 37 33  1  0
 47 42  1  0
 66 61  1  0
 29 24  1  0
  1 71  1  0
  1 72  1  0
  1 73  1  0
  2 74  1  0
  3 75  1  0
  3 76  1  0
  4 77  1  1
  7 78  1  0
  8 79  1  1
 12 80  1  0
 12 81  1  0
 14 82  1  0
 15 83  1  0
 16 84  1  0
 17 85  1  0
 18 86  1  0
 19 87  1  0
 19 88  1  0
 19 89  1  0
 20 90  1  0
 20 91  1  0
 22 92  1  0
 23 93  1  0
 26 94  1  0
 27 95  1  0
 28 96  1  0
 29 97  1  0
 30 98  1  0
 33 99  1  6
 34100  1  0
 34101  1  0
 35102  1  0
 35103  1  0
 36104  1  0
 36105  1  0
 40106  1  6
 41107  1  0
 41108  1  0
 43109  1  0
 44110  1  0
 45111  1  0
 46112  1  0
 47113  1  0
 48114  1  0
 51115  1  0
 51116  1  0
 52117  1  0
 55118  1  1
 56119  1  0
 59120  1  6
 60121  1  0
 60122  1  0
 62123  1  0
 63124  1  0
 65125  1  0
 66126  1  0
 67127  1  0
 68128  1  0
 68129  1  0
 69130  1  0
 69131  1  0
 69132  1  0
 70133  1  0
 70134  1  0
 70135  1  0
M  END
>  <Ligand ID>  (1) 
LIG0005385

>  <Ligand>  (1) 
H-Tyr-D-Ala-Gly-Phe-Pro-Leu-Trp-NMe-Bzl

>  <SMILES>  (1) 
CC(C[C@@H](C(=O)N[C@H](C(=O)N(Cc1ccccc1)C)Cc1c[nH]c2c1cccc2)NC(=O)[C@@H]1CCCN1C(=O)[C@H](Cc1ccccc1)NC(=O)CNC(=O)[C@H](NC(=O)[C@H](Cc1ccc(cc1)O)N)C)C

>  <CID>  (1) 
24768354.0

>  <ChEMBL ID>  (1) 
nan

>  <InChiKey>  (1) 
GYOWORZEZSLHIN-NATPVWCTSA-N

>  <InChi>  (1) 
InChI=1S/C53H65N9O8/c1-33(2)26-43(50(67)60-45(29-38-30-55-42-19-12-11-18-40(38)42)52(69)61(4)32-37-16-9-6-10-17-37)59-51(68)46-20-13-25-62(46)53(70)44(28-35-14-7-5-8-15-35)58-47(64)31-56-48(65)34(3)57-49(66)41(54)27-36-21-23-39(63)24-22-36/h5-12,14-19,21-24,30,33-34,41,43-46,55,63H,13,20,25-29,31-32,54H2,1-4H3,(H,56,65)(H,57,66)(H,58,64)(H,59,68)(H,60,67)/t34-,41+,43+,44+,45+,46+/m1/s1

>  <IUPAC Name>  (1) 
(2S)-1-[(2S)-2-[[2-[[(2R)-2-[[(2S)-2-amino-3-(4-hydroxyphenyl)propanoyl]amino]propanoyl]amino]acetyl]amino]-3-phenylpropanoyl]-N-[(2S)-1-[[(2S)-1-[benzyl(methyl)amino]-3-(1H-indol-3-yl)-1-oxopropan-2-yl]amino]-4-methyl-1-oxopentan-2-yl]pyrrolidine-2-carboxamide

$$$$
