
     RDKit          3D

 74 74  0  0  0  0  0  0  0  0999 V2000
   -0.9686   -0.1336    0.0096 C   0  0  0  0  0  0  0  0  0  0  0  0
    0.4482    0.3131   -0.0652 C   0  0  0  0  0  0  0  0  0  0  0  0
    0.7541    1.5488   -0.0238 O   0  0  0  0  0  0  0  0  0  0  0  0
    1.4695   -0.6302   -0.1831 O   0  0  0  0  0  0  0  0  0  0  0  0
    9.1542   -1.3413   -1.4036 O   0  0  0  0  0  0  0  0  0  0  0  0
    8.1510   -1.2370   -2.3475 C   0  0  0  0  0  0  0  0  0  0  0  0
    7.2199   -0.1361   -1.9896 C   0  0  0  0  0  0  0  0  0  0  0  0
    6.0038   -0.5050   -1.4298 C   0  0  0  0  0  0  0  0  0  0  0  0
    5.0868    0.4849   -1.0668 C   0  0  0  0  0  0  0  0  0  0  0  0
    5.3766    1.8259   -1.2592 C   0  0  0  0  0  0  0  0  0  0  0  0
    6.6043    2.1460   -1.8216 C   0  0  0  0  0  0  0  0  0  0  0  0
    7.5282    1.1873   -2.1887 C   0  0  0  0  0  0  0  0  0  0  0  0
    8.7609    1.5508   -2.7555 O   0  0  0  0  0  0  0  0  0  0  0  0
    3.7658    0.0658   -0.4362 C   0  0  2  0  0  0  0  0  0  0  0  0
    4.0875   -0.3562    0.9576 C   0  0  0  0  0  0  0  0  0  0  0  0
    2.9266   -0.8353    1.6420 N   0  0  0  0  0  0  0  0  0  0  0  0
    2.0102    0.2551    1.8726 C   0  0  0  0  0  0  0  0  0  0  0  0
    0.8858   -0.2767    2.7101 C   0  0  0  0  0  0  0  0  0  0  0  0
    0.1194   -1.4091    2.0835 C   0  0  0  0  0  0  0  0  0  0  0  0
   -0.5176   -1.0208    0.7944 C   0  0  0  0  0  0  0  0  0  0  0  0
   -1.4633    0.1189    0.9963 C   0  0  0  0  0  0  0  0  0  0  0  0
   -2.5476   -0.2588    1.9500 C   0  0  0  0  0  0  0  0  0  0  0  0
   -3.4456    0.8006    2.1377 O   0  0  0  0  0  0  0  0  0  0  0  0
   -4.4734    0.5427    2.9927 C   0  0  0  0  0  0  0  0  0  0  0  0
   -5.4240   -0.5392    2.6352 C   0  0  0  0  0  0  0  0  0  0  0  0
   -6.1280   -0.4136    1.4770 O   0  0  0  0  0  0  0  0  0  0  0  0
   -5.4472   -0.3258    0.3058 C   0  0  0  0  0  0  0  0  0  0  0  0
   -6.3792   -0.2100   -0.8811 C   0  0  0  0  0  0  0  0  0  0  0  0
   -6.8168   -1.3679   -1.5072 C   0  0  0  0  0  0  0  0  0  0  0  0
   -7.6738   -1.3296   -2.6024 C   0  0  0  0  0  0  0  0  0  0  0  0
   -8.0781   -0.0832   -3.0495 C   0  0  0  0  0  0  0  0  0  0  0  0
   -7.6335    1.0503   -2.4159 C   0  0  0  0  0  0  0  0  0  0  0  0
   -6.7866    1.0494   -1.3313 C   0  0  0  0  0  0  0  0  0  0  0  0
   -8.0902    2.2703   -2.9313 O   0  0  0  0  0  0  0  0  0  0  0  0
    3.2553   -1.0271   -1.1322 O   0  0  0  0  0  0  0  0  0  0  0  0
   -1.1641   -0.9258   -0.7535 H   0  0  0  0  0  0  0  0  0  0  0  0
   -1.6581    0.7013   -0.2033 H   0  0  0  0  0  0  0  0  0  0  0  0
   -1.2510   -0.5210    1.0188 H   0  0  0  0  0  0  0  0  0  0  0  0
    2.3698   -0.3526    0.2004 H   0  0  0  0  0  0  0  0  0  0  0  0
    9.9705   -1.6669   -1.8618 H   0  0  0  0  0  0  0  0  0  0  0  0
    8.6243   -0.9486   -3.3341 H   0  0  0  0  0  0  0  0  0  0  0  0
    7.5908   -2.1474   -2.5524 H   0  0  0  0  0  0  0  0  0  0  0  0
    5.7732   -1.5523   -1.2783 H   0  0  0  0  0  0  0  0  0  0  0  0
    4.6579    2.6055   -0.9750 H   0  0  0  0  0  0  0  0  0  0  0  0
    6.8853    3.1759   -1.9948 H   0  0  0  0  0  0  0  0  0  0  0  0
    9.5302    1.6225   -2.0706 H   0  0  0  0  0  0  0  0  0  0  0  0
    3.0400    0.8849   -0.5360 H   0  0  0  0  0  0  0  0  0  0  0  0
    4.4894    0.5711    1.4708 H   0  0  0  0  0  0  0  0  0  0  0  0
    4.9038   -1.1188    0.9155 H   0  0  0  0  0  0  0  0  0  0  0  0
    2.4730   -1.5920    1.0912 H   0  0  0  0  0  0  0  0  0  0  0  0
    2.4539    1.0964    2.4008 H   0  0  0  0  0  0  0  0  0  0  0  0
    1.6601    0.6487    0.8950 H   0  0  0  0  0  0  0  0  0  0  0  0
    1.3779   -0.7222    3.6248 H   0  0  0  0  0  0  0  0  0  0  0  0
    0.2249    0.5062    3.1025 H   0  0  0  0  0  0  0  0  0  0  0  0
    0.7835   -2.3164    1.9616 H   0  0  0  0  0  0  0  0  0  0  0  0
   -0.6570   -1.7334    2.7960 H   0  0  0  0  0  0  0  0  0  0  0  0
    0.2260   -0.8338   -0.0098 H   0  0  0  0  0  0  0  0  0  0  0  0
   -1.0761   -1.9324    0.4326 H   0  0  0  0  0  0  0  0  0  0  0  0
   -0.9488    1.0128    1.4468 H   0  0  0  0  0  0  0  0  0  0  0  0
   -1.9476    0.3932    0.0304 H   0  0  0  0  0  0  0  0  0  0  0  0
   -3.0659   -1.1962    1.6767 H   0  0  0  0  0  0  0  0  0  0  0  0
   -2.1586   -0.4622    2.9951 H   0  0  0  0  0  0  0  0  0  0  0  0
   -4.0220    0.2591    3.9935 H   0  0  0  0  0  0  0  0  0  0  0  0
   -5.0257    1.4990    3.2518 H   0  0  0  0  0  0  0  0  0  0  0  0
   -4.8323   -1.5033    2.6002 H   0  0  0  0  0  0  0  0  0  0  0  0
   -6.1097   -0.6605    3.5268 H   0  0  0  0  0  0  0  0  0  0  0  0
   -4.8748   -1.2360    0.1202 H   0  0  0  0  0  0  0  0  0  0  0  0
   -4.7840    0.5822    0.3092 H   0  0  0  0  0  0  0  0  0  0  0  0
   -6.4848   -2.3320   -1.1356 H   0  0  0  0  0  0  0  0  0  0  0  0
   -8.0245   -2.2088   -3.1007 H   0  0  0  0  0  0  0  0  0  0  0  0
   -8.7397   -0.0470   -3.8944 H   0  0  0  0  0  0  0  0  0  0  0  0
   -6.4378    1.9411   -0.8333 H   0  0  0  0  0  0  0  0  0  0  0  0
   -9.0789    2.4784   -2.9861 H   0  0  0  0  0  0  0  0  0  0  0  0
    3.5725   -1.0477   -2.0836 H   0  0  0  0  0  0  0  0  0  0  0  0
  1  2  1  0
  2  3  2  0
  2  4  1  0
  5  6  1  0
  6  7  1  0
  7  8  2  0
  8  9  1  0
  9 10  2  0
 10 11  1  0
 11 12  2  0
 12 13  1  0
  9 14  1  0
 14 15  1  0
 15 16  1  0
 16 17  1  0
 17 18  1  0
 18 19  1  0
 19 20  1  0
 20 21  1  0
 21 22  1  0
 22 23  1  0
 23 24  1  0
 24 25  1  0
 25 26  1  0
 26 27  1  0
 27 28  1  0
 28 29  2  0
 29 30  1  0
 30 31  2  0
 31 32  1  0
 32 33  2  0
 32 34  1  0
 14 35  1  0
 12  7  1  0
 33 28  1  0
  1 36  1  0
  1 37  1  0
  1 38  1  0
  4 39  1  0
  5 40  1  0
  6 41  1  0
  6 42  1  0
  8 43  1  0
 10 44  1  0
 11 45  1  0
 13 46  1  0
 14 47  1  1
 15 48  1  0
 15 49  1  0
 16 50  1  0
 17 51  1  0
 17 52  1  0
 18 53  1  0
 18 54  1  0
 19 55  1  0
 19 56  1  0
 20 57  1  0
 20 58  1  0
 21 59  1  0
 21 60  1  0
 22 61  1  0
 22 62  1  0
 24 63  1  0
 24 64  1  0
 25 65  1  0
 25 66  1  0
 27 67  1  0
 27 68  1  0
 29 69  1  0
 30 70  1  0
 31 71  1  0
 33 72  1  0
 34 73  1  0
 35 74  1  0
M  END
>  <Ligand ID>  (1) 
LIG0003340

>  <Ligand>  (1) 
CHEMBL1086536

>  <SMILES>  (1) 
CC(=O)O.OCc1cc(ccc1O)[C@H](CNCCCCCCOCCOCc1cccc(c1)O)O

>  <CID>  (1) 
46833104.0

>  <ChEMBL ID>  (1) 
nan

>  <InChiKey>  (1) 
ZJNBWZIOKMHZKH-JIDHJSLPSA-N

>  <InChi>  (1) 
InChI=1S/C24H35NO6.C2H4O2/c26-17-21-15-20(8-9-23(21)28)24(29)16-25-10-3-1-2-4-11-30-12-13-31-18-19-6-5-7-22(27)14-19;1-2(3)4/h5-9,14-15,24-29H,1-4,10-13,16-18H2;1H3,(H,3,4)/t24-;/m0./s1

>  <IUPAC Name>  (1) 
acetic acid;4-[(1R)-1-hydroxy-2-[6-[2-[(3-hydroxyphenyl)methoxy]ethoxy]hexylamino]ethyl]-2-(hydroxymethyl)phenol

$$$$
