
     RDKit          3D

 59 60  0  0  0  0  0  0  0  0999 V2000
    7.8040   -0.4082    0.4790 O   0  0  0  0  0  0  0  0  0  0  0  0
    7.0188    0.6606    0.0331 C   0  0  0  0  0  0  0  0  0  0  0  0
    7.2008    1.7572    0.6204 O   0  0  0  0  0  0  0  0  0  0  0  0
    6.0573    0.4463   -1.0613 C   0  0  0  0  0  0  0  0  0  0  0  0
    4.6353    0.2153   -0.5080 C   0  0  0  0  0  0  0  0  0  0  0  0
    4.1935    1.3957    0.2790 C   0  0  0  0  0  0  0  0  0  0  0  0
    2.8614    1.4056    0.9169 C   0  0  0  0  0  0  0  0  0  0  0  0
    1.6244    1.3294    0.1638 C   0  0  0  0  0  0  0  0  0  0  0  0
    1.1708    0.2424   -0.6904 C   0  0  0  0  0  0  0  0  0  0  0  0
    0.9196   -1.1155   -0.1887 C   0  0  1  0  0  0  0  0  0  0  0  0
    2.0270   -1.9051    0.4160 C   0  0  2  0  0  0  0  0  0  0  0  0
    2.9397   -2.8204   -0.8244 Cl  0  0  0  0  0  0  0  0  0  0  0  0
    1.3464   -2.9186    1.3684 C   0  0  0  0  0  0  0  0  0  0  0  0
   -0.1359   -2.6233    1.2665 C   0  0  2  0  0  0  0  0  0  0  0  0
   -0.1185   -1.1406    0.9301 C   0  0  2  0  0  0  0  0  0  0  0  0
   -1.4321   -0.6340    0.5339 C   0  0  0  0  0  0  0  0  0  0  0  0
   -2.1694   -1.1529   -0.5165 C   0  0  0  0  0  0  0  0  0  0  0  0
   -3.4049   -0.6188   -0.8259 C   0  0  0  0  0  0  0  0  0  0  0  0
   -3.9317    0.4378   -0.1013 C   0  0  0  0  0  0  0  0  0  0  0  0
   -3.1909    0.9507    0.9451 C   0  0  0  0  0  0  0  0  0  0  0  0
   -1.9523    0.4358    1.2765 C   0  0  0  0  0  0  0  0  0  0  0  0
   -5.2641    0.9792   -0.4684 C   0  0  0  0  0  0  0  0  0  0  0  0
   -6.3729    0.2510    0.3019 C   0  0  0  0  0  0  0  0  0  0  0  0
   -5.5866    0.7707   -1.9281 C   0  0  0  0  0  0  0  0  0  0  0  0
   -5.4086    2.4485   -0.1383 C   0  0  0  0  0  0  0  0  0  0  0  0
   -0.8218   -2.8768    2.4363 O   0  0  0  0  0  0  0  0  0  0  0  0
    8.5127   -0.3177    1.1809 H   0  0  0  0  0  0  0  0  0  0  0  0
    6.0397    1.3004   -1.7425 H   0  0  0  0  0  0  0  0  0  0  0  0
    6.3579   -0.4506   -1.6257 H   0  0  0  0  0  0  0  0  0  0  0  0
    4.7759   -0.6775    0.1741 H   0  0  0  0  0  0  0  0  0  0  0  0
    4.0174   -0.1062   -1.3373 H   0  0  0  0  0  0  0  0  0  0  0  0
    4.9417    1.5413    1.1331 H   0  0  0  0  0  0  0  0  0  0  0  0
    4.3810    2.3272   -0.3359 H   0  0  0  0  0  0  0  0  0  0  0  0
    2.9296    0.7269    1.8156 H   0  0  0  0  0  0  0  0  0  0  0  0
    2.7657    2.4289    1.5031 H   0  0  0  0  0  0  0  0  0  0  0  0
    1.6298    2.2770   -0.5190 H   0  0  0  0  0  0  0  0  0  0  0  0
    0.7878    1.6652    0.8858 H   0  0  0  0  0  0  0  0  0  0  0  0
    0.1753    0.5311   -1.2103 H   0  0  0  0  0  0  0  0  0  0  0  0
    1.8311    0.1700   -1.6055 H   0  0  0  0  0  0  0  0  0  0  0  0
    0.4852   -1.7008   -1.0555 H   0  0  0  0  0  0  0  0  0  0  0  0
    2.7249   -1.3743    1.0481 H   0  0  0  0  0  0  0  0  0  0  0  0
    1.6403   -2.7837    2.4059 H   0  0  0  0  0  0  0  0  0  0  0  0
    1.5791   -3.9519    1.0206 H   0  0  0  0  0  0  0  0  0  0  0  0
   -0.5134   -3.2309    0.4113 H   0  0  0  0  0  0  0  0  0  0  0  0
    0.3524   -0.6297    1.7887 H   0  0  0  0  0  0  0  0  0  0  0  0
   -1.7727   -1.9743   -1.0888 H   0  0  0  0  0  0  0  0  0  0  0  0
   -3.9742   -1.0303   -1.6484 H   0  0  0  0  0  0  0  0  0  0  0  0
   -3.5740    1.7848    1.5394 H   0  0  0  0  0  0  0  0  0  0  0  0
   -1.3659    0.8459    2.1088 H   0  0  0  0  0  0  0  0  0  0  0  0
   -7.2451    0.9049    0.3224 H   0  0  0  0  0  0  0  0  0  0  0  0
   -6.5439   -0.7650   -0.0970 H   0  0  0  0  0  0  0  0  0  0  0  0
   -5.9144    0.0767    1.3180 H   0  0  0  0  0  0  0  0  0  0  0  0
   -6.1402    1.6559   -2.3232 H   0  0  0  0  0  0  0  0  0  0  0  0
   -4.6910    0.6561   -2.5475 H   0  0  0  0  0  0  0  0  0  0  0  0
   -6.2925   -0.0902   -2.0928 H   0  0  0  0  0  0  0  0  0  0  0  0
   -5.4029    2.5162    0.9832 H   0  0  0  0  0  0  0  0  0  0  0  0
   -4.6235    3.0641   -0.6012 H   0  0  0  0  0  0  0  0  0  0  0  0
   -6.4331    2.7419   -0.4355 H   0  0  0  0  0  0  0  0  0  0  0  0
   -1.4499   -3.6434    2.2758 H   0  0  0  0  0  0  0  0  0  0  0  0
  1  2  1  0
  2  3  2  0
  2  4  1  0
  4  5  1  0
  5  6  1  0
  6  7  1  0
  7  8  1  0
  8  9  1  0
  9 10  1  0
 10 11  1  0
 11 12  1  0
 11 13  1  0
 13 14  1  0
 14 15  1  0
 15 16  1  0
 16 17  2  0
 17 18  1  0
 18 19  2  0
 19 20  1  0
 20 21  2  0
 19 22  1  0
 22 23  1  0
 22 24  1  0
 22 25  1  0
 14 26  1  0
 15 10  1  0
 21 16  1  0
  1 27  1  0
  4 28  1  0
  4 29  1  0
  5 30  1  0
  5 31  1  0
  6 32  1  0
  6 33  1  0
  7 34  1  0
  7 35  1  0
  8 36  1  0
  8 37  1  0
  9 38  1  0
  9 39  1  0
 10 40  1  6
 11 41  1  1
 13 42  1  0
 13 43  1  0
 14 44  1  6
 15 45  1  1
 17 46  1  0
 18 47  1  0
 20 48  1  0
 21 49  1  0
 23 50  1  0
 23 51  1  0
 23 52  1  0
 24 53  1  0
 24 54  1  0
 24 55  1  0
 25 56  1  0
 25 57  1  0
 25 58  1  0
 26 59  1  0
M  END
>  <Ligand ID>  (1) 
LIG0000897

>  <Ligand>  (1) 
SCHEMBL5325776

>  <SMILES>  (1) 
OC(=O)CCCCCC[C@H]1[C@H](Cl)C[C@H]([C@@H]1c1ccc(cc1)C(C)(C)C)O

>  <CID>  (1) 
11955194.0

>  <ChEMBL ID>  (1) 
nan

>  <InChiKey>  (1) 
VUABBZYGIWUQLU-QEUVDIPISA-N

>  <InChi>  (1) 
InChI=1S/C22H33ClO3/c1-22(2,3)16-12-10-15(11-13-16)21-17(18(23)14-19(21)24)8-6-4-5-7-9-20(25)26/h10-13,17-19,21,24H,4-9,14H2,1-3H3,(H,25,26)/t17-,18+,19+,21+/m0/s1

>  <IUPAC Name>  (1) 
7-[(1R,2S,3R,5R)-2-(4-tert-butylphenyl)-5-chloro-3-hydroxycyclopentyl]heptanoic acid

$$$$
