
     RDKit          3D

 65 68  0  0  0  0  0  0  0  0999 V2000
    5.8749   -0.7756   -3.8907 O   0  0  0  0  0  0  0  0  0  0  0  0
    5.9104    0.4545   -3.2583 C   0  0  2  0  0  0  0  0  0  0  0  0
    6.8843    0.5396   -2.1216 C   0  0  0  0  0  0  0  0  0  0  0  0
    6.6658   -0.3562   -1.0785 O   0  0  0  0  0  0  0  0  0  0  0  0
    7.4196   -0.4489    0.0610 C   0  0  0  0  0  0  0  0  0  0  0  0
    7.1250   -1.3801    1.0656 C   0  0  0  0  0  0  0  0  0  0  0  0
    7.9549   -1.3909    2.1856 C   0  0  0  0  0  0  0  0  0  0  0  0
    9.0227   -0.5429    2.3345 C   0  0  0  0  0  0  0  0  0  0  0  0
    9.3150    0.3780    1.3446 C   0  0  0  0  0  0  0  0  0  0  0  0
    8.4888    0.3780    0.2455 C   0  0  0  0  0  0  0  0  0  0  0  0
    4.5361    0.8627   -2.8544 C   0  0  0  0  0  0  0  0  0  0  0  0
    3.9223   -0.1212   -2.0242 N   0  0  0  0  0  0  0  0  0  0  0  0
    2.6051    0.3475   -1.6129 C   0  0  0  0  0  0  0  0  0  0  0  0
    1.8451   -0.7052   -0.8351 C   0  0  0  0  0  0  0  0  0  0  0  0
    0.5386   -0.0886   -0.4593 C   0  0  0  0  0  0  0  0  0  0  0  0
    0.3569    0.5231    0.7659 C   0  0  0  0  0  0  0  0  0  0  0  0
   -0.8173    1.1003    1.1258 C   0  0  0  0  0  0  0  0  0  0  0  0
   -1.8606    1.0590    0.2030 C   0  0  0  0  0  0  0  0  0  0  0  0
   -1.6752    0.4414   -1.0356 C   0  0  0  0  0  0  0  0  0  0  0  0
   -0.4779   -0.1438   -1.3920 C   0  0  0  0  0  0  0  0  0  0  0  0
   -3.1364    1.6077    0.4539 N   0  0  0  0  0  0  0  0  0  0  0  0
   -4.2557    0.9012    0.9322 C   0  0  0  0  0  0  0  0  0  0  0  0
   -4.1167   -0.3327    1.1499 O   0  0  0  0  0  0  0  0  0  0  0  0
   -5.5300    1.6302    1.1527 C   0  0  0  0  0  0  0  0  0  0  0  0
   -6.5402    1.1744    0.1798 C   0  0  0  0  0  0  0  0  0  0  0  0
   -6.6597    1.7734   -1.0494 N   0  0  0  0  0  0  0  0  0  0  0  0
   -7.6432    1.1963   -1.7537 C   0  0  0  0  0  0  0  0  0  0  0  0
   -8.1712    0.1915   -0.9457 C   0  0  0  0  0  0  0  0  0  0  0  0
   -7.4667    0.2186    0.2190 N   0  0  0  0  0  0  0  0  0  0  0  0
   -7.6800   -0.6476    1.3372 C   0  0  0  0  0  0  0  0  0  0  0  0
   -8.1345   -0.2100    2.5534 C   0  0  0  0  0  0  0  0  0  0  0  0
   -8.3330   -1.1110    3.6072 C   0  0  0  0  0  0  0  0  0  0  0  0
   -8.0576   -2.4500    3.3843 C   0  0  0  0  0  0  0  0  0  0  0  0
   -7.5988   -2.9162    2.1694 C   0  0  0  0  0  0  0  0  0  0  0  0
   -7.4068   -2.0011    1.1288 C   0  0  0  0  0  0  0  0  0  0  0  0
    5.3469   -1.4652   -3.3846 H   0  0  0  0  0  0  0  0  0  0  0  0
    6.2861    1.1609   -4.0929 H   0  0  0  0  0  0  0  0  0  0  0  0
    6.8423    1.5881   -1.7266 H   0  0  0  0  0  0  0  0  0  0  0  0
    7.9124    0.3412   -2.5285 H   0  0  0  0  0  0  0  0  0  0  0  0
    6.2867   -2.0436    0.9469 H   0  0  0  0  0  0  0  0  0  0  0  0
    7.7248   -2.1087    2.9586 H   0  0  0  0  0  0  0  0  0  0  0  0
    9.6836   -0.5354    3.1978 H   0  0  0  0  0  0  0  0  0  0  0  0
   10.1586    1.0543    1.4493 H   0  0  0  0  0  0  0  0  0  0  0  0
    8.7164    1.1017   -0.5417 H   0  0  0  0  0  0  0  0  0  0  0  0
    4.5215    1.8374   -2.3035 H   0  0  0  0  0  0  0  0  0  0  0  0
    3.9453    1.0245   -3.8000 H   0  0  0  0  0  0  0  0  0  0  0  0
    4.4544   -0.5149   -1.2586 H   0  0  0  0  0  0  0  0  0  0  0  0
    2.7938    1.2018   -0.9401 H   0  0  0  0  0  0  0  0  0  0  0  0
    2.0103    0.6598   -2.4726 H   0  0  0  0  0  0  0  0  0  0  0  0
    2.3985   -1.0318    0.0497 H   0  0  0  0  0  0  0  0  0  0  0  0
    1.6456   -1.5975   -1.4679 H   0  0  0  0  0  0  0  0  0  0  0  0
    1.1719    0.5534    1.4839 H   0  0  0  0  0  0  0  0  0  0  0  0
   -0.9679    1.5777    2.0790 H   0  0  0  0  0  0  0  0  0  0  0  0
   -2.4651    0.3964   -1.7701 H   0  0  0  0  0  0  0  0  0  0  0  0
   -0.3539   -0.6176   -2.3548 H   0  0  0  0  0  0  0  0  0  0  0  0
   -3.2408    2.6448    0.2587 H   0  0  0  0  0  0  0  0  0  0  0  0
   -5.8320    1.4163    2.2048 H   0  0  0  0  0  0  0  0  0  0  0  0
   -5.3424    2.7024    1.0722 H   0  0  0  0  0  0  0  0  0  0  0  0
   -7.9380    1.4838   -2.7514 H   0  0  0  0  0  0  0  0  0  0  0  0
   -8.9974   -0.4854   -1.2074 H   0  0  0  0  0  0  0  0  0  0  0  0
   -8.3409    0.8606    2.6821 H   0  0  0  0  0  0  0  0  0  0  0  0
   -8.6896   -0.7657    4.5614 H   0  0  0  0  0  0  0  0  0  0  0  0
   -8.1934   -3.1953    4.1694 H   0  0  0  0  0  0  0  0  0  0  0  0
   -7.3975   -3.9684    2.0431 H   0  0  0  0  0  0  0  0  0  0  0  0
   -7.0447   -2.3315    0.1563 H   0  0  0  0  0  0  0  0  0  0  0  0
  1  2  1  0
  2  3  1  0
  3  4  1  0
  4  5  1  0
  5  6  2  0
  6  7  1  0
  7  8  2  0
  8  9  1  0
  9 10  2  0
  2 11  1  0
 11 12  1  0
 12 13  1  0
 13 14  1  0
 14 15  1  0
 15 16  2  0
 16 17  1  0
 17 18  2  0
 18 19  1  0
 19 20  2  0
 18 21  1  0
 21 22  1  0
 22 23  2  0
 22 24  1  0
 24 25  1  0
 25 26  2  0
 26 27  1  0
 27 28  2  0
 28 29  1  0
 29 30  1  0
 30 31  2  0
 31 32  1  0
 32 33  2  0
 33 34  1  0
 34 35  2  0
 10  5  1  0
 20 15  1  0
 29 25  1  0
 35 30  1  0
  1 36  1  0
  2 37  1  6
  3 38  1  0
  3 39  1  0
  6 40  1  0
  7 41  1  0
  8 42  1  0
  9 43  1  0
 10 44  1  0
 11 45  1  0
 11 46  1  0
 12 47  1  0
 13 48  1  0
 13 49  1  0
 14 50  1  0
 14 51  1  0
 16 52  1  0
 17 53  1  0
 19 54  1  0
 20 55  1  0
 21 56  1  0
 24 57  1  0
 24 58  1  0
 27 59  1  0
 28 60  1  0
 31 61  1  0
 32 62  1  0
 33 63  1  0
 34 64  1  0
 35 65  1  0
M  END
>  <Ligand ID>  (1) 
LIG0002716

>  <Ligand>  (1) 
CHEMBL467082

>  <SMILES>  (1) 
O[C@H](COc1ccccc1)CNCCc1ccc(cc1)NC(=O)Cc1nccn1c1ccccc1

>  <CID>  (1) 
44574759.0

>  <ChEMBL ID>  (1) 
nan

>  <InChiKey>  (1) 
CVVCQJIRZFNQJV-VWLOTQADSA-N

>  <InChi>  (1) 
InChI=1S/C28H30N4O3/c33-25(21-35-26-9-5-2-6-10-26)20-29-16-15-22-11-13-23(14-12-22)31-28(34)19-27-30-17-18-32(27)24-7-3-1-4-8-24/h1-14,17-18,25,29,33H,15-16,19-21H2,(H,31,34)/t25-/m0/s1

>  <IUPAC Name>  (1) 
N-[4-[2-[[(2S)-2-hydroxy-3-phenoxypropyl]amino]ethyl]phenyl]-2-(1-phenylimidazol-2-yl)acetamide

$$$$
