
     RDKit          3D

 53 55  0  0  0  0  0  0  0  0999 V2000
   -2.0473    1.6761   -1.5712 O   0  0  0  0  0  0  0  0  0  0  0  0
   -2.1374    0.7216   -0.5369 C   0  0  1  0  0  0  0  0  0  0  0  0
   -3.5949    0.3952   -0.4002 C   0  0  0  0  0  0  0  0  0  0  0  0
   -4.3036   -0.1725   -1.5813 C   0  0  0  0  0  0  0  0  0  0  0  0
   -4.3088   -1.5119   -0.9038 C   0  0  0  0  0  0  0  0  0  0  0  0
   -3.9622   -0.8245    0.3872 C   0  0  0  0  0  0  0  0  0  0  0  0
   -4.3408    1.6070    0.1509 C   0  0  0  0  0  0  0  0  0  0  0  0
   -5.7734    1.2553    0.2739 C   0  0  0  0  0  0  0  0  0  0  0  0
   -6.9350    0.9527    0.3697 C   0  0  0  0  0  0  0  0  0  0  0  0
   -8.3362    0.5768    0.4922 C   0  0  0  0  0  0  0  0  0  0  0  0
   -1.2310   -0.4011   -0.7182 C   0  0  0  0  0  0  0  0  0  0  0  0
   -0.0041   -0.3153   -0.1636 C   0  0  0  0  0  0  0  0  0  0  0  0
    0.9733   -1.4189   -0.3062 C   0  0  1  0  0  0  0  0  0  0  0  0
    1.1415   -1.8455   -1.7511 C   0  0  0  0  0  0  0  0  0  0  0  0
    1.9280   -0.7919   -2.2663 O   0  0  0  0  0  0  0  0  0  0  0  0
    2.7795   -0.3828   -1.2483 C   0  0  0  0  0  0  0  0  0  0  0  0
    3.7880    0.3569   -1.3593 O   0  0  0  0  0  0  0  0  0  0  0  0
    2.3285   -0.9412   -0.0258 N   0  0  0  0  0  0  0  0  0  0  0  0
    2.9505   -1.0716    1.2571 C   0  0  0  0  0  0  0  0  0  0  0  0
    2.7278    0.0685    2.1934 C   0  0  0  0  0  0  0  0  0  0  0  0
    3.3962    1.5835    1.4825 S   0  0  0  0  0  0  0  0  0  0  0  0
    5.1513    1.4960    1.3875 C   0  0  0  0  0  0  0  0  0  0  0  0
    6.1672    2.1207    2.8997 S   0  0  0  0  0  0  0  0  0  0  0  0
    7.7677    1.7098    2.0449 C   0  0  0  0  0  0  0  0  0  0  0  0
    7.3417    1.1945    0.8229 C   0  0  0  0  0  0  0  0  0  0  0  0
    6.0687    1.1463    0.6326 N   0  0  0  0  0  0  0  0  0  0  0  0
    8.3503    0.7423   -0.1645 C   0  0  0  0  0  0  0  0  0  0  0  0
    9.5556    0.8497    0.1577 O   0  0  0  0  0  0  0  0  0  0  0  0
    7.9775    0.2224   -1.3927 O   0  0  0  0  0  0  0  0  0  0  0  0
   -1.7710    1.1533   -2.3785 H   0  0  0  0  0  0  0  0  0  0  0  0
   -1.8568    1.2850    0.3913 H   0  0  0  0  0  0  0  0  0  0  0  0
   -3.6920   -0.2458   -2.5089 H   0  0  0  0  0  0  0  0  0  0  0  0
   -5.3015    0.2686   -1.8034 H   0  0  0  0  0  0  0  0  0  0  0  0
   -5.3702   -1.8778   -0.8703 H   0  0  0  0  0  0  0  0  0  0  0  0
   -3.5931   -2.2734   -1.2762 H   0  0  0  0  0  0  0  0  0  0  0  0
   -3.1130   -1.3574    0.8689 H   0  0  0  0  0  0  0  0  0  0  0  0
   -4.8339   -0.6578    1.0556 H   0  0  0  0  0  0  0  0  0  0  0  0
   -3.9491    1.9013    1.1432 H   0  0  0  0  0  0  0  0  0  0  0  0
   -4.2419    2.4623   -0.5234 H   0  0  0  0  0  0  0  0  0  0  0  0
   -8.9406    1.4975    0.4144 H   0  0  0  0  0  0  0  0  0  0  0  0
   -8.5641    0.0335    1.4395 H   0  0  0  0  0  0  0  0  0  0  0  0
   -8.5869   -0.1072   -0.3591 H   0  0  0  0  0  0  0  0  0  0  0  0
   -1.4209   -1.3196   -1.2578 H   0  0  0  0  0  0  0  0  0  0  0  0
    0.2635    0.5860    0.3973 H   0  0  0  0  0  0  0  0  0  0  0  0
    0.7177   -2.3048    0.2834 H   0  0  0  0  0  0  0  0  0  0  0  0
    0.2029   -1.9941   -2.2890 H   0  0  0  0  0  0  0  0  0  0  0  0
    1.6670   -2.8203   -1.7512 H   0  0  0  0  0  0  0  0  0  0  0  0
    2.5838   -2.0214    1.7419 H   0  0  0  0  0  0  0  0  0  0  0  0
    4.0551   -1.2229    1.1906 H   0  0  0  0  0  0  0  0  0  0  0  0
    3.2996   -0.1549    3.1253 H   0  0  0  0  0  0  0  0  0  0  0  0
    1.6658    0.1969    2.4865 H   0  0  0  0  0  0  0  0  0  0  0  0
    8.7194    1.8760    2.4894 H   0  0  0  0  0  0  0  0  0  0  0  0
    8.6417    0.1685   -2.1722 H   0  0  0  0  0  0  0  0  0  0  0  0
  1  2  1  0
  2  3  1  0
  3  4  1  0
  4  5  1  0
  5  6  1  0
  3  7  1  0
  7  8  1  0
  8  9  3  0
  9 10  1  0
  2 11  1  0
 11 12  2  0
 12 13  1  0
 13 14  1  0
 14 15  1  0
 15 16  1  0
 16 17  2  0
 16 18  1  0
 18 19  1  0
 19 20  1  0
 20 21  1  0
 21 22  1  0
 22 23  1  0
 23 24  1  0
 24 25  2  0
 25 26  1  0
 25 27  1  0
 27 28  2  0
 27 29  1  0
  6  3  1  0
 18 13  1  0
 26 22  2  0
  1 30  1  0
  2 31  1  1
  4 32  1  0
  4 33  1  0
  5 34  1  0
  5 35  1  0
  6 36  1  0
  6 37  1  0
  7 38  1  0
  7 39  1  0
 10 40  1  0
 10 41  1  0
 10 42  1  0
 11 43  1  0
 12 44  1  0
 13 45  1  1
 14 46  1  0
 14 47  1  0
 19 48  1  0
 19 49  1  0
 20 50  1  0
 20 51  1  0
 24 52  1  0
 29 53  1  0
M  END
>  <Ligand ID>  (1) 
LIG0003553

>  <Ligand>  (1) 
CHEMBL3753268

>  <SMILES>  (1) 
O[C@@H](C1(CCC1)CC#CC)/C=C/[C@H]1COC(=O)N1CCSc1scc(n1)C(=O)O

>  <CID>  (1) 
66857670.0

>  <ChEMBL ID>  (1) 
nan

>  <InChiKey>  (1) 
NTMLORZSAFILHZ-HMRWBYCRSA-N

>  <InChi>  (1) 
InChI=1S/C20H24N2O5S2/c1-2-3-7-20(8-4-9-20)16(23)6-5-14-12-27-19(26)22(14)10-11-28-18-21-15(13-29-18)17(24)25/h5-6,13-14,16,23H,4,7-12H2,1H3,(H,24,25)/b6-5+/t14-,16+/m0/s1

>  <IUPAC Name>  (1) 
2-[2-[(4S)-4-[(E,3R)-3-(1-but-2-ynylcyclobutyl)-3-hydroxyprop-1-enyl]-2-oxo-1,3-oxazolidin-3-yl]ethylsulfanyl]-1,3-thiazole-4-carboxylic acid

$$$$
