
     RDKit          3D

 75 77  0  0  0  0  0  0  0  0999 V2000
   11.6942    0.6402   -0.4342 O   0  0  0  0  0  0  0  0  0  0  0  0
   11.4683    1.9870   -0.1903 C   0  0  0  0  0  0  0  0  0  0  0  0
    9.9972    2.2593   -0.2146 C   0  0  0  0  0  0  0  0  0  0  0  0
    9.5924    3.4343   -0.0130 O   0  0  0  0  0  0  0  0  0  0  0  0
    9.0816    1.2056   -0.4612 N   0  0  0  0  0  0  0  0  0  0  0  0
    7.6586    1.3481   -0.5073 C   0  0  0  0  0  0  0  0  0  0  0  0
    7.1384    1.8715    0.8223 C   0  0  1  0  0  0  0  0  0  0  0  0
    5.6059    1.7801    0.7802 C   0  0  0  0  0  0  0  0  0  0  0  0
    5.3142    0.4713    0.4065 O   0  0  0  0  0  0  0  0  0  0  0  0
    4.0610   -0.0871    0.2341 C   0  0  0  0  0  0  0  0  0  0  0  0
    3.4485   -0.6879    1.3281 C   0  0  0  0  0  0  0  0  0  0  0  0
    4.1581   -0.7085    2.6454 C   0  0  0  0  0  0  0  0  0  0  0  0
    2.1996   -1.2536    1.1845 C   0  0  0  0  0  0  0  0  0  0  0  0
    1.5501   -1.2315   -0.0309 C   0  0  0  0  0  0  0  0  0  0  0  0
    2.1574   -0.6314   -1.1305 C   0  0  0  0  0  0  0  0  0  0  0  0
    3.4116   -0.0577   -1.0057 C   0  0  0  0  0  0  0  0  0  0  0  0
    4.0768    0.5904   -2.1594 C   0  0  0  0  0  0  0  0  0  0  0  0
    5.1565   -0.3741   -2.6408 C   0  0  0  0  0  0  0  0  0  0  0  0
    0.2410   -1.8574   -0.1032 C   0  0  0  0  0  0  0  0  0  0  0  0
    0.0015   -3.1376   -0.4962 N   0  0  0  0  0  0  0  0  0  0  0  0
   -1.2944   -3.3480   -0.4351 O   0  0  0  0  0  0  0  0  0  0  0  0
   -1.9122   -2.2973   -0.0310 C   0  0  0  0  0  0  0  0  0  0  0  0
   -0.9809   -1.3560    0.1822 N   0  0  0  0  0  0  0  0  0  0  0  0
   -3.3628   -2.1286    0.1681 C   0  0  0  0  0  0  0  0  0  0  0  0
   -4.1908   -0.6767    0.7297 S   0  0  0  0  0  0  0  0  0  0  0  0
   -5.8489   -1.4207    0.6478 C   0  0  0  0  0  0  0  0  0  0  0  0
   -5.6164   -2.6800    0.2096 C   0  0  0  0  0  0  0  0  0  0  0  0
   -4.3655   -3.0652   -0.0416 C   0  0  0  0  0  0  0  0  0  0  0  0
   -6.7925   -3.6479    0.0198 C   0  0  0  0  0  0  0  0  0  0  0  0
   -7.0967   -0.7248    0.9907 C   0  0  0  0  0  0  0  0  0  0  0  0
   -7.8828   -0.2563   -0.0823 N   0  0  0  0  0  0  0  0  0  0  0  0
   -9.1080    0.3930    0.2172 C   0  0  0  0  0  0  0  0  0  0  0  0
   -8.9505    1.7329    0.8966 C   0  0  0  0  0  0  0  0  0  0  0  0
   -8.1707    2.7089    0.0484 C   0  0  0  0  0  0  0  0  0  0  0  0
  -10.3545    2.2988    1.0895 C   0  0  0  0  0  0  0  0  0  0  0  0
   -7.8459   -0.9583   -1.3111 C   0  0  0  0  0  0  0  0  0  0  0  0
    7.5212    0.9254    1.7814 O   0  0  0  0  0  0  0  0  0  0  0  0
   11.8169    0.0985    0.3642 H   0  0  0  0  0  0  0  0  0  0  0  0
   11.9475    2.2758    0.7530 H   0  0  0  0  0  0  0  0  0  0  0  0
   11.9421    2.5270   -1.0598 H   0  0  0  0  0  0  0  0  0  0  0  0
    9.5182    0.2515   -0.6201 H   0  0  0  0  0  0  0  0  0  0  0  0
    7.3463    2.0879   -1.2821 H   0  0  0  0  0  0  0  0  0  0  0  0
    7.1906    0.3653   -0.6530 H   0  0  0  0  0  0  0  0  0  0  0  0
    7.4966    2.8794    1.0357 H   0  0  0  0  0  0  0  0  0  0  0  0
    5.2651    2.0000    1.8291 H   0  0  0  0  0  0  0  0  0  0  0  0
    5.1600    2.5583    0.1443 H   0  0  0  0  0  0  0  0  0  0  0  0
    4.1712    0.2786    3.1234 H   0  0  0  0  0  0  0  0  0  0  0  0
    3.6544   -1.4212    3.3109 H   0  0  0  0  0  0  0  0  0  0  0  0
    5.1896   -1.0709    2.4607 H   0  0  0  0  0  0  0  0  0  0  0  0
    1.7298   -1.7166    2.0370 H   0  0  0  0  0  0  0  0  0  0  0  0
    1.6293   -0.6193   -2.0936 H   0  0  0  0  0  0  0  0  0  0  0  0
    4.5059    1.5724   -1.9426 H   0  0  0  0  0  0  0  0  0  0  0  0
    3.3161    0.7628   -2.9575 H   0  0  0  0  0  0  0  0  0  0  0  0
    6.0994    0.1644   -2.8837 H   0  0  0  0  0  0  0  0  0  0  0  0
    4.7522   -0.9309   -3.4888 H   0  0  0  0  0  0  0  0  0  0  0  0
    5.4101   -1.1057   -1.8413 H   0  0  0  0  0  0  0  0  0  0  0  0
   -4.0753   -4.0727   -0.4036 H   0  0  0  0  0  0  0  0  0  0  0  0
   -6.4803   -4.6662    0.3453 H   0  0  0  0  0  0  0  0  0  0  0  0
   -7.6342   -3.3575    0.6448 H   0  0  0  0  0  0  0  0  0  0  0  0
   -7.0282   -3.7138   -1.0563 H   0  0  0  0  0  0  0  0  0  0  0  0
   -6.8206    0.1568    1.6278 H   0  0  0  0  0  0  0  0  0  0  0  0
   -7.7471   -1.3476    1.6737 H   0  0  0  0  0  0  0  0  0  0  0  0
   -9.6187    0.5942   -0.7646 H   0  0  0  0  0  0  0  0  0  0  0  0
   -9.8040   -0.2308    0.8069 H   0  0  0  0  0  0  0  0  0  0  0  0
   -8.4704    1.6733    1.8773 H   0  0  0  0  0  0  0  0  0  0  0  0
   -8.7378    3.1199   -0.7955 H   0  0  0  0  0  0  0  0  0  0  0  0
   -7.2102    2.2426   -0.2433 H   0  0  0  0  0  0  0  0  0  0  0  0
   -7.9236    3.5623    0.7239 H   0  0  0  0  0  0  0  0  0  0  0  0
  -10.8832    1.6878    1.8541 H   0  0  0  0  0  0  0  0  0  0  0  0
  -10.8758    2.2803    0.1131 H   0  0  0  0  0  0  0  0  0  0  0  0
  -10.2203    3.3152    1.5148 H   0  0  0  0  0  0  0  0  0  0  0  0
   -8.5447   -1.8126   -1.3623 H   0  0  0  0  0  0  0  0  0  0  0  0
   -6.8265   -1.2556   -1.6188 H   0  0  0  0  0  0  0  0  0  0  0  0
   -8.1993   -0.2324   -2.1037 H   0  0  0  0  0  0  0  0  0  0  0  0
    7.1982    0.0394    1.4837 H   0  0  0  0  0  0  0  0  0  0  0  0
  1  2  1  0
  2  3  1  0
  3  4  2  0
  3  5  1  0
  5  6  1  0
  6  7  1  0
  7  8  1  0
  8  9  1  0
  9 10  1  0
 10 11  2  0
 11 12  1  0
 11 13  1  0
 13 14  2  0
 14 15  1  0
 15 16  2  0
 16 17  1  0
 17 18  1  0
 14 19  1  0
 19 20  2  0
 20 21  1  0
 21 22  1  0
 22 23  2  0
 22 24  1  0
 24 25  1  0
 25 26  1  0
 26 27  2  0
 27 28  1  0
 27 29  1  0
 26 30  1  0
 30 31  1  0
 31 32  1  0
 32 33  1  0
 33 34  1  0
 33 35  1  0
 31 36  1  0
  7 37  1  0
 16 10  1  0
 23 19  1  0
 28 24  2  0
  1 38  1  0
  2 39  1  0
  2 40  1  0
  5 41  1  0
  6 42  1  0
  6 43  1  0
  7 44  1  1
  8 45  1  0
  8 46  1  0
 12 47  1  0
 12 48  1  0
 12 49  1  0
 13 50  1  0
 15 51  1  0
 17 52  1  0
 17 53  1  0
 18 54  1  0
 18 55  1  0
 18 56  1  0
 28 57  1  0
 29 58  1  0
 29 59  1  0
 29 60  1  0
 30 61  1  0
 30 62  1  0
 32 63  1  0
 32 64  1  0
 33 65  1  0
 34 66  1  0
 34 67  1  0
 34 68  1  0
 35 69  1  0
 35 70  1  0
 35 71  1  0
 36 72  1  0
 36 73  1  0
 36 74  1  0
 37 75  1  0
M  END
>  <Ligand ID>  (1) 
LIG0001754

>  <Ligand>  (1) 
CHEMBL3798837

>  <SMILES>  (1) 
OCC(=O)NC[C@@H](COc1c(C)cc(cc1CC)c1noc(n1)c1sc(c(c1)C)CN(CC(C)C)C)O

>  <CID>  (1) 
66829311.0

>  <ChEMBL ID>  (1) 
nan

>  <InChiKey>  (1) 
GHEKPOPATTZHPU-NRFANRHFSA-N

>  <InChi>  (1) 
InChI=1S/C27H38N4O5S/c1-7-19-10-20(8-18(5)25(19)35-15-21(33)11-28-24(34)14-32)26-29-27(36-30-26)22-9-17(4)23(37-22)13-31(6)12-16(2)3/h8-10,16,21,32-33H,7,11-15H2,1-6H3,(H,28,34)/t21-/m0/s1

>  <IUPAC Name>  (1) 
N-[(2S)-3-[2-ethyl-6-methyl-4-[5-[4-methyl-5-[[methyl(2-methylpropyl)amino]methyl]thiophen-2-yl]-1,2,4-oxadiazol-3-yl]phenoxy]-2-hydroxypropyl]-2-hydroxyacetamide

$$$$
