
     RDKit          3D

 49 52  0  0  0  0  0  0  0  0999 V2000
   -0.7698   -4.1903    0.7889 Cl  0  0  0  0  0  0  0  0  0  0  0  0
    0.5957   -3.2218    0.2936 C   0  0  0  0  0  0  0  0  0  0  0  0
    1.8542   -3.7634    0.4482 C   0  0  0  0  0  0  0  0  0  0  0  0
    2.9722   -3.0390    0.0717 C   0  0  0  0  0  0  0  0  0  0  0  0
    2.8089   -1.7648   -0.4615 C   0  0  0  0  0  0  0  0  0  0  0  0
    1.5462   -1.2002   -0.6257 C   0  0  0  0  0  0  0  0  0  0  0  0
    0.4439   -1.9499   -0.2393 C   0  0  0  0  0  0  0  0  0  0  0  0
   -0.8811   -1.4632   -0.3662 N   0  0  0  0  0  0  0  0  0  0  0  0
   -1.4834   -0.7377    0.6952 C   0  0  0  0  0  0  0  0  0  0  0  0
   -0.8846   -0.4958    1.7773 O   0  0  0  0  0  0  0  0  0  0  0  0
   -2.8363   -0.2681    0.5055 C   0  0  0  0  0  0  0  0  0  0  0  0
   -3.7222   -0.3585   -0.5014 C   0  0  0  0  0  0  0  0  0  0  0  0
   -4.9364    0.2032   -0.3603 C   0  0  0  0  0  0  0  0  0  0  0  0
   -5.2114    0.8431    0.8097 C   0  0  0  0  0  0  0  0  0  0  0  0
   -3.7235    0.6697    1.7788 S   0  0  0  0  0  0  0  0  0  0  0  0
   -6.4797    1.5133    1.1475 C   0  0  0  0  0  0  0  0  0  0  0  0
   -7.2091    1.9305   -0.0751 C   0  0  0  0  0  0  0  0  0  0  0  0
   -6.5101    1.6977   -1.3715 C   0  0  0  0  0  0  0  0  0  0  0  0
   -6.0832    0.2229   -1.3660 C   0  0  0  0  0  0  0  0  0  0  0  0
    4.2058   -0.8742   -0.9259 S   0  0  0  0  0  0  0  0  0  0  0  0
    3.8503   -0.0051   -2.1242 O   0  0  0  0  0  0  0  0  0  0  0  0
    5.2335   -1.8545   -1.4351 O   0  0  0  0  0  0  0  0  0  0  0  0
    4.9142    0.1044    0.2263 N   0  0  0  0  0  0  0  0  0  0  0  0
    4.1706    1.1646    0.7755 C   0  0  0  0  0  0  0  0  0  0  0  0
    5.1233    2.3537    0.9405 C   0  0  0  0  0  0  0  0  0  0  0  0
    6.0068    2.4242   -0.1316 O   0  0  0  0  0  0  0  0  0  0  0  0
    6.9009    1.3601   -0.1470 C   0  0  0  0  0  0  0  0  0  0  0  0
    6.3104    0.0787    0.4047 C   0  0  0  0  0  0  0  0  0  0  0  0
    2.0233   -4.7606    0.8630 H   0  0  0  0  0  0  0  0  0  0  0  0
    3.9489   -3.4881    0.2040 H   0  0  0  0  0  0  0  0  0  0  0  0
    1.4215   -0.2090   -1.0406 H   0  0  0  0  0  0  0  0  0  0  0  0
   -1.4094   -1.6481   -1.2587 H   0  0  0  0  0  0  0  0  0  0  0  0
   -3.4375   -0.9010   -1.4435 H   0  0  0  0  0  0  0  0  0  0  0  0
   -6.2100    2.4253    1.7533 H   0  0  0  0  0  0  0  0  0  0  0  0
   -7.1455    0.9335    1.8134 H   0  0  0  0  0  0  0  0  0  0  0  0
   -7.4562    3.0309   -0.0244 H   0  0  0  0  0  0  0  0  0  0  0  0
   -8.2054    1.4393   -0.1149 H   0  0  0  0  0  0  0  0  0  0  0  0
   -5.5683    2.2860   -1.3836 H   0  0  0  0  0  0  0  0  0  0  0  0
   -7.1895    1.9419   -2.1890 H   0  0  0  0  0  0  0  0  0  0  0  0
   -6.9256   -0.3469   -0.9633 H   0  0  0  0  0  0  0  0  0  0  0  0
   -5.7692   -0.0676   -2.3640 H   0  0  0  0  0  0  0  0  0  0  0  0
    3.3467    1.4274    0.0969 H   0  0  0  0  0  0  0  0  0  0  0  0
    3.7799    0.9386    1.7955 H   0  0  0  0  0  0  0  0  0  0  0  0
    4.5084    3.2810    0.8787 H   0  0  0  0  0  0  0  0  0  0  0  0
    5.7298    2.2757    1.8484 H   0  0  0  0  0  0  0  0  0  0  0  0
    7.1620    1.1839   -1.2106 H   0  0  0  0  0  0  0  0  0  0  0  0
    7.7865    1.6930    0.4214 H   0  0  0  0  0  0  0  0  0  0  0  0
    6.6899   -0.0129    1.4364 H   0  0  0  0  0  0  0  0  0  0  0  0
    6.7134   -0.8019   -0.1354 H   0  0  0  0  0  0  0  0  0  0  0  0
  1  2  1  0
  2  3  2  0
  3  4  1  0
  4  5  2  0
  5  6  1  0
  6  7  2  0
  7  8  1  0
  8  9  1  0
  9 10  2  0
  9 11  1  0
 11 12  2  0
 12 13  1  0
 13 14  2  0
 14 15  1  0
 14 16  1  0
 16 17  1  0
 17 18  1  0
 18 19  1  0
  5 20  1  0
 20 21  2  0
 20 22  2  0
 20 23  1  0
 23 24  1  0
 24 25  1  0
 25 26  1  0
 26 27  1  0
 27 28  1  0
  7  2  1  0
 15 11  1  0
 28 23  1  0
 19 13  1  0
  3 29  1  0
  4 30  1  0
  6 31  1  0
  8 32  1  0
 12 33  1  0
 16 34  1  0
 16 35  1  0
 17 36  1  0
 17 37  1  0
 18 38  1  0
 18 39  1  0
 19 40  1  0
 19 41  1  0
 24 42  1  0
 24 43  1  0
 25 44  1  0
 25 45  1  0
 27 46  1  0
 27 47  1  0
 28 48  1  0
 28 49  1  0
M  END
>  <Ligand ID>  (1) 
LIG0001369

>  <Ligand>  (1) 
MLS-0435525.0001

>  <SMILES>  (1) 
Clc1ccc(cc1NC(=O)c1cc2c(s1)CCCC2)S(=O)(=O)N1CCOCC1

>  <CID>  (1) 
3886815.0

>  <ChEMBL ID>  (1) 
nan

>  <InChiKey>  (1) 
YSWPLEPAAGQXAS-UHFFFAOYSA-N

>  <InChi>  (1) 
InChI=1S/C19H21ClN2O4S2/c20-15-6-5-14(28(24,25)22-7-9-26-10-8-22)12-16(15)21-19(23)18-11-13-3-1-2-4-17(13)27-18/h5-6,11-12H,1-4,7-10H2,(H,21,23)

>  <IUPAC Name>  (1) 
N-(2-chloro-5-morpholin-4-ylsulfonylphenyl)-4,5,6,7-tetrahydro-1-benzothiophene-2-carboxamide

$$$$
