
     RDKit          3D

 54 54  0  0  0  0  0  0  0  0999 V2000
    7.9817    0.1351   -0.8195 C   0  0  0  0  0  0  0  0  0  0  0  0
    7.0446    0.2589   -2.0024 C   0  0  0  0  0  0  0  0  0  0  0  0
    5.7959   -0.5289   -1.6706 C   0  0  0  0  0  0  0  0  0  0  0  0
    5.1291    0.0339   -0.4058 C   0  0  0  0  0  0  0  0  0  0  0  0
    3.9006   -0.8596   -0.2104 C   0  0  0  0  0  0  0  0  0  0  0  0
    3.1097   -0.4741    0.9894 C   0  0  0  0  0  0  0  0  0  0  0  0
    2.5961    0.9361    0.9026 C   0  0  0  0  0  0  0  0  0  0  0  0
    1.6696    1.1470   -0.2455 C   0  0  0  0  0  0  0  0  0  0  0  0
    0.4419    0.3450   -0.2221 C   0  0  0  0  0  0  0  0  0  0  0  0
    0.2754   -0.8906   -0.7953 C   0  0  0  0  0  0  0  0  0  0  0  0
   -0.9161   -1.6017   -0.7325 C   0  0  0  0  0  0  0  0  0  0  0  0
   -2.0008   -1.0551   -0.0638 C   0  0  0  0  0  0  0  0  0  0  0  0
   -1.8506    0.1872    0.5186 C   0  0  0  0  0  0  0  0  0  0  0  0
   -0.6703    0.8646    0.4426 C   0  0  0  0  0  0  0  0  0  0  0  0
   -2.9916    0.7146    1.1975 N   0  0  0  0  0  0  0  0  0  0  0  0
   -3.9190    1.5100    0.4661 C   0  0  0  0  0  0  0  0  0  0  0  0
   -3.6943    1.7209   -0.7691 O   0  0  0  0  0  0  0  0  0  0  0  0
   -5.1377    2.0998    1.0987 C   0  0  1  0  0  0  0  0  0  0  0  0
   -6.3128    1.3649    0.4437 C   0  0  0  0  0  0  0  0  0  0  0  0
   -6.1271    0.0166    0.6794 O   0  0  0  0  0  0  0  0  0  0  0  0
   -7.3650   -0.9217    0.0034 P   0  0  0  0  0  0  0  0  0  0  0  0
   -7.2672   -0.9647   -1.4953 O   0  0  0  0  0  0  0  0  0  0  0  0
   -7.3253   -2.4812    0.6466 O   0  0  0  0  0  0  0  0  0  0  0  0
   -8.8515   -0.2511    0.4262 O   0  0  0  0  0  0  0  0  0  0  0  0
   -5.2288    1.7528    2.5145 N   0  0  0  0  0  0  0  0  0  0  0  0
    7.7724    0.9663   -0.1153 H   0  0  0  0  0  0  0  0  0  0  0  0
    9.0394    0.1981   -1.1972 H   0  0  0  0  0  0  0  0  0  0  0  0
    7.8160   -0.8686   -0.3731 H   0  0  0  0  0  0  0  0  0  0  0  0
    7.5424   -0.2584   -2.8404 H   0  0  0  0  0  0  0  0  0  0  0  0
    6.8070    1.2827   -2.2848 H   0  0  0  0  0  0  0  0  0  0  0  0
    5.0510   -0.3919   -2.4834 H   0  0  0  0  0  0  0  0  0  0  0  0
    5.9832   -1.5996   -1.5653 H   0  0  0  0  0  0  0  0  0  0  0  0
    4.8036    1.0756   -0.6561 H   0  0  0  0  0  0  0  0  0  0  0  0
    5.8104    0.0018    0.4682 H   0  0  0  0  0  0  0  0  0  0  0  0
    3.3421   -0.7695   -1.1570 H   0  0  0  0  0  0  0  0  0  0  0  0
    4.3202   -1.8790   -0.0654 H   0  0  0  0  0  0  0  0  0  0  0  0
    2.1857   -1.1207    1.0461 H   0  0  0  0  0  0  0  0  0  0  0  0
    3.6842   -0.6147    1.9291 H   0  0  0  0  0  0  0  0  0  0  0  0
    2.1604    1.2582    1.8766 H   0  0  0  0  0  0  0  0  0  0  0  0
    3.4841    1.6133    0.7739 H   0  0  0  0  0  0  0  0  0  0  0  0
    2.1941    0.8920   -1.1974 H   0  0  0  0  0  0  0  0  0  0  0  0
    1.3470    2.2303   -0.2626 H   0  0  0  0  0  0  0  0  0  0  0  0
    1.0820   -1.3616   -1.3292 H   0  0  0  0  0  0  0  0  0  0  0  0
   -0.9803   -2.5850   -1.2132 H   0  0  0  0  0  0  0  0  0  0  0  0
   -2.9289   -1.5853   -0.0028 H   0  0  0  0  0  0  0  0  0  0  0  0
   -0.6017    1.8353    0.9152 H   0  0  0  0  0  0  0  0  0  0  0  0
   -3.1736    0.5403    2.2106 H   0  0  0  0  0  0  0  0  0  0  0  0
   -5.1616    3.1813    0.9183 H   0  0  0  0  0  0  0  0  0  0  0  0
   -6.2161    1.5243   -0.6423 H   0  0  0  0  0  0  0  0  0  0  0  0
   -7.2558    1.7091    0.8693 H   0  0  0  0  0  0  0  0  0  0  0  0
   -7.6797   -3.1571    0.0118 H   0  0  0  0  0  0  0  0  0  0  0  0
   -9.0298    0.5132   -0.1464 H   0  0  0  0  0  0  0  0  0  0  0  0
   -4.3889    2.0523    3.0609 H   0  0  0  0  0  0  0  0  0  0  0  0
   -5.2950    0.7141    2.5548 H   0  0  0  0  0  0  0  0  0  0  0  0
  1  2  1  0
  2  3  1  0
  3  4  1  0
  4  5  1  0
  5  6  1  0
  6  7  1  0
  7  8  1  0
  8  9  1  0
  9 10  2  0
 10 11  1  0
 11 12  2  0
 12 13  1  0
 13 14  2  0
 13 15  1  0
 15 16  1  0
 16 17  2  0
 16 18  1  0
 18 19  1  0
 19 20  1  0
 20 21  1  0
 21 22  2  0
 21 23  1  0
 21 24  1  0
 18 25  1  0
 14  9  1  0
  1 26  1  0
  1 27  1  0
  1 28  1  0
  2 29  1  0
  2 30  1  0
  3 31  1  0
  3 32  1  0
  4 33  1  0
  4 34  1  0
  5 35  1  0
  5 36  1  0
  6 37  1  0
  6 38  1  0
  7 39  1  0
  7 40  1  0
  8 41  1  0
  8 42  1  0
 10 43  1  0
 11 44  1  0
 12 45  1  0
 14 46  1  0
 15 47  1  0
 18 48  1  1
 19 49  1  0
 19 50  1  0
 23 51  1  0
 24 52  1  0
 25 53  1  0
 25 54  1  0
M  END
>  <Ligand ID>  (1) 
LIG0004230

>  <Ligand>  (1) 
VPC23019

>  <SMILES>  (1) 
CCCCCCCCc1cccc(c1)NC(=O)[C@@H](COP(=O)(O)O)N

>  <CID>  (1) 
11588811.0

>  <ChEMBL ID>  (1) 
nan

>  <InChiKey>  (1) 
MRUSUGVVWGNKFE-MRXNPFEDSA-N

>  <InChi>  (1) 
InChI=1S/C17H29N2O5P/c1-2-3-4-5-6-7-9-14-10-8-11-15(12-14)19-17(20)16(18)13-24-25(21,22)23/h8,10-12,16H,2-7,9,13,18H2,1H3,(H,19,20)(H2,21,22,23)/t16-/m1/s1

>  <IUPAC Name>  (1) 
[(2R)-2-amino-3-(3-octylanilino)-3-oxopropyl] dihydrogen phosphate

$$$$
