
     RDKit          3D

 36 37  0  0  0  0  0  0  0  0999 V2000
   -5.8859   -0.3322    0.7950 N   0  0  0  0  0  0  0  0  0  0  0  0
   -4.9610    0.5689    0.1398 C   0  0  0  0  0  0  0  0  0  0  0  0
   -3.5480    0.1636    0.5668 C   0  0  1  0  0  0  0  0  0  0  0  0
   -3.2104   -1.2585    0.1782 C   0  0  0  0  0  0  0  0  0  0  0  0
   -2.6073   -0.0366   -0.5208 C   0  0  2  0  0  0  0  0  0  0  0  0
   -1.1208    0.0179   -0.3366 C   0  0  0  0  0  0  0  0  0  0  0  0
   -0.2960    0.2819   -1.4153 C   0  0  0  0  0  0  0  0  0  0  0  0
    1.0863    0.3373   -1.2692 C   0  0  0  0  0  0  0  0  0  0  0  0
    1.6607    0.1266   -0.0282 C   0  0  0  0  0  0  0  0  0  0  0  0
    0.8089   -0.1339    1.0245 C   0  0  0  0  0  0  0  0  0  0  0  0
   -0.5541   -0.1937    0.9065 C   0  0  0  0  0  0  0  0  0  0  0  0
    3.1171    0.1849    0.1266 C   0  0  0  0  0  0  0  0  0  0  0  0
    3.7197   -0.6100    1.0892 C   0  0  0  0  0  0  0  0  0  0  0  0
    5.0901   -0.5217    1.1984 C   0  0  0  0  0  0  0  0  0  0  0  0
    5.8674    0.2995    0.4144 C   0  0  0  0  0  0  0  0  0  0  0  0
    5.2387    1.0903   -0.5476 C   0  0  0  0  0  0  0  0  0  0  0  0
    3.8666    1.0201   -0.6769 C   0  0  0  0  0  0  0  0  0  0  0  0
    7.2237    0.3745    0.5364 F   0  0  0  0  0  0  0  0  0  0  0  0
    0.6902    0.0000    0.0000 Cl  0  0  0  0  0  0  0  0  0  0  0  0
   -6.0657   -1.1733    0.2069 H   0  0  0  0  0  0  0  0  0  0  0  0
   -5.4918   -0.6256    1.7138 H   0  0  0  0  0  0  0  0  0  0  0  0
   -5.1648    1.6003    0.4903 H   0  0  0  0  0  0  0  0  0  0  0  0
   -5.0898    0.5393   -0.9593 H   0  0  0  0  0  0  0  0  0  0  0  0
   -3.2389    0.5345    1.5547 H   0  0  0  0  0  0  0  0  0  0  0  0
   -2.6013   -1.8383    0.8891 H   0  0  0  0  0  0  0  0  0  0  0  0
   -3.8606   -1.8484   -0.4649 H   0  0  0  0  0  0  0  0  0  0  0  0
   -2.8859    0.1527   -1.5715 H   0  0  0  0  0  0  0  0  0  0  0  0
   -0.7134    0.4552   -2.4189 H   0  0  0  0  0  0  0  0  0  0  0  0
    1.7440    0.5459   -2.1197 H   0  0  0  0  0  0  0  0  0  0  0  0
    1.2224   -0.3076    2.0283 H   0  0  0  0  0  0  0  0  0  0  0  0
   -1.2211   -0.3972    1.7279 H   0  0  0  0  0  0  0  0  0  0  0  0
    3.1119   -1.2635    1.7149 H   0  0  0  0  0  0  0  0  0  0  0  0
    5.6017   -1.1303    1.9430 H   0  0  0  0  0  0  0  0  0  0  0  0
    5.8213    1.7598   -1.1943 H   0  0  0  0  0  0  0  0  0  0  0  0
    3.3361    1.6178   -1.4124 H   0  0  0  0  0  0  0  0  0  0  0  0
   -0.6902    0.0000    0.0000 H   0  0  0  0  0  0  0  0  0  0  0  0
  1  2  1  0
  2  3  1  0
  3  4  1  0
  4  5  1  0
  5  6  1  0
  6  7  2  0
  7  8  1  0
  8  9  2  0
  9 10  1  0
 10 11  2  0
  9 12  1  0
 12 13  2  0
 13 14  1  0
 14 15  2  0
 15 16  1  0
 16 17  2  0
 15 18  1  0
  5  3  1  0
 11  6  1  0
 17 12  1  0
  1 20  1  0
  1 21  1  0
  2 22  1  0
  2 23  1  0
  3 24  1  1
  4 25  1  0
  4 26  1  0
  5 27  1  6
  7 28  1  0
  8 29  1  0
 10 30  1  0
 11 31  1  0
 13 32  1  0
 14 33  1  0
 16 34  1  0
 17 35  1  0
 19 36  1  0
M  END
>  <Ligand ID>  (1) 
LIG0005671

>  <Ligand>  (1) 
CHEMBL474205

>  <SMILES>  (1) 
NC[C@H]1C[C@@H]1c1ccc(cc1)c1ccc(cc1)F.Cl

>  <CID>  (1) 
44572303.0

>  <ChEMBL ID>  (1) 
nan

>  <InChiKey>  (1) 
HPKOLCIULZGXQQ-VNYZMKMESA-N

>  <InChi>  (1) 
InChI=1S/C16H16FN.ClH/c17-15-7-5-12(6-8-15)11-1-3-13(4-2-11)16-9-14(16)10-18;/h1-8,14,16H,9-10,18H2;1H/t14-,16-;/m1./s1

>  <IUPAC Name>  (1) 
[(1S,2S)-2-[4-(4-fluorophenyl)phenyl]cyclopropyl]methanamine;hydrochloride

$$$$
