
     RDKit          3D

 17 16  0  0  0  0  0  0  0  0999 V2000
   -2.6333    0.7472    1.0470 O   0  0  0  0  0  0  0  0  0  0  0  0
   -2.5465   -0.1278   -0.0310 C   0  0  0  0  0  0  0  0  0  0  0  0
   -3.6478   -0.5309   -0.5083 O   0  0  0  0  0  0  0  0  0  0  0  0
   -1.2300   -0.5541   -0.5780 C   0  0  0  0  0  0  0  0  0  0  0  0
   -0.1025    0.1026    0.2098 C   0  0  0  0  0  0  0  0  0  0  0  0
    1.2143   -0.3835   -0.4108 C   0  0  0  0  0  0  0  0  0  0  0  0
    2.3546    0.2443    0.3412 C   0  0  0  0  0  0  0  0  0  0  0  0
    2.1317    1.0290    1.3097 O   0  0  0  0  0  0  0  0  0  0  0  0
    3.6404   -0.0725   -0.0706 O   0  0  0  0  0  0  0  0  0  0  0  0
   -3.3662    1.4713    1.1059 H   0  0  0  0  0  0  0  0  0  0  0  0
   -1.1349   -1.6484   -0.4300 H   0  0  0  0  0  0  0  0  0  0  0  0
   -1.1620   -0.3092   -1.6442 H   0  0  0  0  0  0  0  0  0  0  0  0
   -0.1925    1.2018    0.0840 H   0  0  0  0  0  0  0  0  0  0  0  0
   -0.1659   -0.1720    1.2610 H   0  0  0  0  0  0  0  0  0  0  0  0
    1.2326   -1.4917   -0.3323 H   0  0  0  0  0  0  0  0  0  0  0  0
    1.2460   -0.1348   -1.4898 H   0  0  0  0  0  0  0  0  0  0  0  0
    4.3621    0.6287    0.1363 H   0  0  0  0  0  0  0  0  0  0  0  0
  1  2  1  0
  2  3  2  0
  2  4  1  0
  4  5  1  0
  5  6  1  0
  6  7  1  0
  7  8  2  0
  7  9  1  0
  1 10  1  0
  4 11  1  0
  4 12  1  0
  5 13  1  0
  5 14  1  0
  6 15  1  0
  6 16  1  0
  9 17  1  0
M  END
>  <Ligand ID>  (1) 
LIG0005058

>  <Ligand>  (1) 
Glutaric acid

>  <SMILES>  (1) 
OC(=O)CCCC(=O)O

>  <CID>  (1) 
743.0

>  <ChEMBL ID>  (1) 
nan

>  <InChiKey>  (1) 
JFCQEDHGNNZCLN-UHFFFAOYSA-N

>  <InChi>  (1) 
InChI=1S/C5H8O4/c6-4(7)2-1-3-5(8)9/h1-3H2,(H,6,7)(H,8,9)

>  <IUPAC Name>  (1) 
pentanedioic acid

$$$$
