
     RDKit          3D

 13 13  0  0  0  0  0  0  0  0999 V2000
   -2.3506    0.4700    0.1677 C   0  0  0  0  0  0  0  0  0  0  0  0
   -1.4020   -0.6381    0.1378 C   0  0  0  0  0  0  0  0  0  0  0  0
   -1.7128   -1.8408    0.2141 O   0  0  0  0  0  0  0  0  0  0  0  0
    0.0500   -0.2261    0.0025 C   0  0  0  0  0  0  0  0  0  0  0  0
    0.7892    0.6216   -0.0934 N   0  0  0  0  0  0  0  0  0  0  0  0
    2.1007    0.6732   -0.2020 C   0  0  0  0  0  0  0  0  0  0  0  0
    2.6643   -0.5074   -0.1976 C   0  0  0  0  0  0  0  0  0  0  0  0
    1.2821   -1.7170   -0.0341 S   0  0  0  0  0  0  0  0  0  0  0  0
   -1.8855    1.4127    0.5488 H   0  0  0  0  0  0  0  0  0  0  0  0
   -3.2110    0.2874    0.8723 H   0  0  0  0  0  0  0  0  0  0  0  0
   -2.7384    0.7376   -0.8590 H   0  0  0  0  0  0  0  0  0  0  0  0
    2.6461    1.6350   -0.2871 H   0  0  0  0  0  0  0  0  0  0  0  0
    3.7680   -0.9080   -0.2702 H   0  0  0  0  0  0  0  0  0  0  0  0
  1  2  1  0
  2  3  2  0
  2  4  1  0
  4  5  2  0
  5  6  1  0
  6  7  2  0
  7  8  1  0
  8  4  1  0
  1  9  1  0
  1 10  1  0
  1 11  1  0
  6 12  1  0
  7 13  1  0
M  END
>  <Ligand ID>  (1) 
LIG0000727

>  <Ligand>  (1) 
2-Acetylthiazole

>  <SMILES>  (1) 
CC(=O)c1nccs1

>  <CID>  (1) 
520108.0

>  <ChEMBL ID>  (1) 
nan

>  <InChiKey>  (1) 
MOMFXATYAINJML-UHFFFAOYSA-N

>  <InChi>  (1) 
InChI=1S/C5H5NOS/c1-4(7)5-6-2-3-8-5/h2-3H,1H3

>  <IUPAC Name>  (1) 
1-(1,3-thiazol-2-yl)ethanone

$$$$
