
     RDKit          3D

142143  0  0  0  0  0  0  0  0999 V2000
    4.5913   -6.4050   -1.9008 C   0  0  0  0  0  0  0  0  0  0  0  0
    4.4998   -6.1354   -0.4108 C   0  0  0  0  0  0  0  0  0  0  0  0
    4.9590   -4.7010   -0.0737 C   0  0  0  0  0  0  0  0  0  0  0  0
    4.1065   -3.6988   -0.7789 C   0  0  0  0  0  0  0  0  0  0  0  0
    4.4870   -2.2788   -0.5350 C   0  0  0  0  0  0  0  0  0  0  0  0
    4.4396   -1.8160    0.8095 N   0  0  0  0  0  0  0  0  0  0  0  0
    3.2991   -1.2641    1.4657 C   0  0  0  0  0  0  0  0  0  0  0  0
    3.4044   -0.8873    2.6915 O   0  0  0  0  0  0  0  0  0  0  0  0
    1.9728   -1.0881    0.8720 C   0  0  2  0  0  0  0  0  0  0  0  0
    1.9399    0.1285   -0.0246 C   0  0  0  0  0  0  0  0  0  0  0  0
    0.5490    0.2221   -0.6620 C   0  0  0  0  0  0  0  0  0  0  0  0
   -0.6700    0.6729    0.5712 S   0  0  0  0  0  0  0  0  0  0  0  0
   -0.6597    2.4340    1.0020 C   0  0  0  0  0  0  0  0  0  0  0  0
   -1.3540    3.2285   -0.1280 C   0  0  0  0  0  0  0  0  0  0  0  0
   -2.7763    2.8375    0.0163 C   0  0  0  0  0  0  0  0  0  0  0  0
   -3.0850    2.2474    1.0775 O   0  0  0  0  0  0  0  0  0  0  0  0
   -3.8408    3.0361   -0.8970 N   0  0  0  0  0  0  0  0  0  0  0  0
   -5.1756    2.6822   -0.4760 C   0  0  1  0  0  0  0  0  0  0  0  0
   -6.1762    3.7611   -0.8507 C   0  0  0  0  0  0  0  0  0  0  0  0
   -5.7779    5.0290   -0.1951 C   0  0  0  0  0  0  0  0  0  0  0  0
   -6.1918    5.4013    1.0714 C   0  0  0  0  0  0  0  0  0  0  0  0
   -5.7788    6.6183    1.5692 C   0  0  0  0  0  0  0  0  0  0  0  0
   -4.9617    7.4653    0.8252 C   0  0  0  0  0  0  0  0  0  0  0  0
   -4.5402    7.1091   -0.4362 C   0  0  0  0  0  0  0  0  0  0  0  0
   -4.9611    5.8909   -0.9202 C   0  0  0  0  0  0  0  0  0  0  0  0
   -5.6252    1.3523   -0.9566 C   0  0  0  0  0  0  0  0  0  0  0  0
   -5.0901    0.6249   -1.7750 O   0  0  0  0  0  0  0  0  0  0  0  0
   -6.8609    0.8450   -0.3819 N   0  0  0  0  0  0  0  0  0  0  0  0
   -7.4487   -0.4157   -0.6693 C   0  0  2  0  0  0  0  0  0  0  0  0
   -6.6226   -1.6003   -0.2176 C   0  0  0  0  0  0  0  0  0  0  0  0
   -7.0066   -2.7769   -0.3458 O   0  0  0  0  0  0  0  0  0  0  0  0
   -5.3551   -1.4336    0.3786 N   0  0  0  0  0  0  0  0  0  0  0  0
   -4.4896   -2.5960    0.7862 C   0  0  2  0  0  0  0  0  0  0  0  0
   -3.3964   -2.0632    1.5833 C   0  0  0  0  0  0  0  0  0  0  0  0
   -3.3599   -0.7899    1.6895 O   0  0  0  0  0  0  0  0  0  0  0  0
   -2.3542   -2.7150    2.2799 N   0  0  0  0  0  0  0  0  0  0  0  0
   -1.2907   -1.8475    2.8630 C   0  0  2  0  0  0  0  0  0  0  0  0
   -0.1551   -1.8165    1.8993 C   0  0  0  0  0  0  0  0  0  0  0  0
   -0.1652   -2.6301    0.9656 O   0  0  0  0  0  0  0  0  0  0  0  0
    0.9506   -0.9329    1.9373 N   0  0  0  0  0  0  0  0  0  0  0  0
   -0.9624   -2.3875    4.2115 C   0  0  0  0  0  0  0  0  0  0  0  0
   -0.4551   -3.7542    4.2748 C   0  0  0  0  0  0  0  0  0  0  0  0
   -0.2480   -4.2313    5.4488 O   0  0  0  0  0  0  0  0  0  0  0  0
   -0.1602   -4.6247    3.2098 N   0  0  0  0  0  0  0  0  0  0  0  0
   -4.0542   -3.2374   -0.5401 C   0  0  0  0  0  0  0  0  0  0  0  0
   -3.1970   -4.4211   -0.2811 C   0  0  0  0  0  0  0  0  0  0  0  0
   -2.8082   -5.0819   -1.5836 C   0  0  0  0  0  0  0  0  0  0  0  0
   -3.2229   -4.6656   -2.6916 O   0  0  0  0  0  0  0  0  0  0  0  0
   -1.9337   -6.2090   -1.4483 N   0  0  0  0  0  0  0  0  0  0  0  0
   -7.9794   -0.6351   -2.0371 C   0  0  2  0  0  0  0  0  0  0  0  0
   -9.0880    0.3126   -2.4130 C   0  0  0  0  0  0  0  0  0  0  0  0
   -8.7292    1.7551   -2.3925 C   0  0  0  0  0  0  0  0  0  0  0  0
   -8.4930   -2.0411   -2.2567 C   0  0  0  0  0  0  0  0  0  0  0  0
    5.6570   -1.8923    1.6050 C   0  0  0  0  0  0  0  0  0  0  0  0
    6.5504   -0.7310    1.4534 C   0  0  0  0  0  0  0  0  0  0  0  0
    7.6122   -0.7509    2.1656 O   0  0  0  0  0  0  0  0  0  0  0  0
    6.3560    0.3701    0.6157 N   0  0  0  0  0  0  0  0  0  0  0  0
    7.3636    1.4151    0.5976 C   0  0  2  0  0  0  0  0  0  0  0  0
    6.8635    2.7646    0.5563 C   0  0  0  0  0  0  0  0  0  0  0  0
    5.6467    3.1213    0.4839 O   0  0  0  0  0  0  0  0  0  0  0  0
    7.8031    3.8552    0.6046 N   0  0  0  0  0  0  0  0  0  0  0  0
    7.3786    5.2299    0.5617 C   0  0  0  0  0  0  0  0  0  0  0  0
    6.4835    5.6494    1.6446 C   0  0  0  0  0  0  0  0  0  0  0  0
    6.0945    4.8667    2.5781 O   0  0  0  0  0  0  0  0  0  0  0  0
    6.0436    7.0262    1.6155 N   0  0  0  0  0  0  0  0  0  0  0  0
    8.4472    1.0909   -0.3978 C   0  0  0  0  0  0  0  0  0  0  0  0
    7.9346    0.9030   -1.7805 C   0  0  0  0  0  0  0  0  0  0  0  0
    7.2743    2.1447   -2.3058 C   0  0  0  0  0  0  0  0  0  0  0  0
    9.0794    0.4647   -2.7130 C   0  0  0  0  0  0  0  0  0  0  0  0
    3.6896   -6.0811   -2.4460 H   0  0  0  0  0  0  0  0  0  0  0  0
    4.7210   -7.4882   -2.0535 H   0  0  0  0  0  0  0  0  0  0  0  0
    5.4882   -5.8556   -2.2951 H   0  0  0  0  0  0  0  0  0  0  0  0
    5.2080   -6.8196    0.1126 H   0  0  0  0  0  0  0  0  0  0  0  0
    3.4929   -6.2771    0.0073 H   0  0  0  0  0  0  0  0  0  0  0  0
    4.7770   -4.6303    1.0221 H   0  0  0  0  0  0  0  0  0  0  0  0
    6.0172   -4.5653   -0.3640 H   0  0  0  0  0  0  0  0  0  0  0  0
    3.0112   -3.8669   -0.5854 H   0  0  0  0  0  0  0  0  0  0  0  0
    4.2130   -3.9107   -1.8791 H   0  0  0  0  0  0  0  0  0  0  0  0
    5.5519   -2.1445   -0.9162 H   0  0  0  0  0  0  0  0  0  0  0  0
    3.9026   -1.6540   -1.2473 H   0  0  0  0  0  0  0  0  0  0  0  0
    1.7531   -1.9455    0.2190 H   0  0  0  0  0  0  0  0  0  0  0  0
    2.1126    1.0106    0.6428 H   0  0  0  0  0  0  0  0  0  0  0  0
    2.6797    0.1630   -0.8029 H   0  0  0  0  0  0  0  0  0  0  0  0
    0.5718    0.9151   -1.5247 H   0  0  0  0  0  0  0  0  0  0  0  0
    0.3190   -0.7861   -1.0459 H   0  0  0  0  0  0  0  0  0  0  0  0
   -1.2077    2.5212    1.9523 H   0  0  0  0  0  0  0  0  0  0  0  0
    0.3770    2.7570    1.1338 H   0  0  0  0  0  0  0  0  0  0  0  0
   -0.9148    3.0478   -1.1032 H   0  0  0  0  0  0  0  0  0  0  0  0
   -1.2500    4.2841    0.1588 H   0  0  0  0  0  0  0  0  0  0  0  0
   -3.5695    3.4161   -1.8064 H   0  0  0  0  0  0  0  0  0  0  0  0
   -5.1473    2.5813    0.6490 H   0  0  0  0  0  0  0  0  0  0  0  0
   -7.1930    3.5113   -0.4873 H   0  0  0  0  0  0  0  0  0  0  0  0
   -6.1153    3.8678   -1.9603 H   0  0  0  0  0  0  0  0  0  0  0  0
   -6.8218    4.7228    1.6249 H   0  0  0  0  0  0  0  0  0  0  0  0
   -6.0858    6.9472    2.5616 H   0  0  0  0  0  0  0  0  0  0  0  0
   -4.6346    8.4274    1.2219 H   0  0  0  0  0  0  0  0  0  0  0  0
   -3.9088    7.7166   -1.0662 H   0  0  0  0  0  0  0  0  0  0  0  0
   -4.6396    5.5879   -1.9158 H   0  0  0  0  0  0  0  0  0  0  0  0
   -7.2949    1.4927    0.2793 H   0  0  0  0  0  0  0  0  0  0  0  0
   -8.3638   -0.4731    0.0190 H   0  0  0  0  0  0  0  0  0  0  0  0
   -5.0398   -0.4904    0.5641 H   0  0  0  0  0  0  0  0  0  0  0  0
   -5.1274   -3.3178    1.2480 H   0  0  0  0  0  0  0  0  0  0  0  0
   -2.3867   -3.7126    2.3796 H   0  0  0  0  0  0  0  0  0  0  0  0
   -1.6479   -0.8007    2.9737 H   0  0  0  0  0  0  0  0  0  0  0  0
    0.9846   -0.2530    2.6717 H   0  0  0  0  0  0  0  0  0  0  0  0
   -1.9281   -2.3238    4.8080 H   0  0  0  0  0  0  0  0  0  0  0  0
   -0.1966   -1.7295    4.6981 H   0  0  0  0  0  0  0  0  0  0  0  0
   -0.8247   -5.4049    2.9064 H   0  0  0  0  0  0  0  0  0  0  0  0
    0.7188   -4.5878    2.6410 H   0  0  0  0  0  0  0  0  0  0  0  0
   -4.9469   -3.4815   -1.1100 H   0  0  0  0  0  0  0  0  0  0  0  0
   -3.4512   -2.4688   -1.1192 H   0  0  0  0  0  0  0  0  0  0  0  0
   -3.6980   -5.1034    0.4104 H   0  0  0  0  0  0  0  0  0  0  0  0
   -2.2333   -4.1012    0.2188 H   0  0  0  0  0  0  0  0  0  0  0  0
   -2.3176   -7.0394   -0.9569 H   0  0  0  0  0  0  0  0  0  0  0  0
   -0.9901   -6.1094   -1.8466 H   0  0  0  0  0  0  0  0  0  0  0  0
   -7.1856   -0.4848   -2.8231 H   0  0  0  0  0  0  0  0  0  0  0  0
   -9.5472    0.0523   -3.3915 H   0  0  0  0  0  0  0  0  0  0  0  0
   -9.8972    0.1258   -1.6417 H   0  0  0  0  0  0  0  0  0  0  0  0
   -8.8932    2.1519   -1.3665 H   0  0  0  0  0  0  0  0  0  0  0  0
   -9.4975    2.2756   -3.0363 H   0  0  0  0  0  0  0  0  0  0  0  0
   -7.7596    1.9700   -2.8347 H   0  0  0  0  0  0  0  0  0  0  0  0
   -9.1849   -1.9859   -3.1429 H   0  0  0  0  0  0  0  0  0  0  0  0
   -9.0868   -2.4244   -1.4147 H   0  0  0  0  0  0  0  0  0  0  0  0
   -7.6982   -2.7393   -2.5793 H   0  0  0  0  0  0  0  0  0  0  0  0
    5.4181   -2.0053    2.6568 H   0  0  0  0  0  0  0  0  0  0  0  0
    6.2392   -2.8109    1.3126 H   0  0  0  0  0  0  0  0  0  0  0  0
    5.5001    0.4086    0.0338 H   0  0  0  0  0  0  0  0  0  0  0  0
    7.9213    1.3193    1.5977 H   0  0  0  0  0  0  0  0  0  0  0  0
    8.8413    3.6236    0.6799 H   0  0  0  0  0  0  0  0  0  0  0  0
    6.9269    5.4833   -0.4375 H   0  0  0  0  0  0  0  0  0  0  0  0
    8.3005    5.8724    0.6113 H   0  0  0  0  0  0  0  0  0  0  0  0
    5.0307    7.2782    1.5731 H   0  0  0  0  0  0  0  0  0  0  0  0
    6.8067    7.7612    1.6382 H   0  0  0  0  0  0  0  0  0  0  0  0
    9.0178    0.2021   -0.0302 H   0  0  0  0  0  0  0  0  0  0  0  0
    9.2016    1.9278   -0.3458 H   0  0  0  0  0  0  0  0  0  0  0  0
    7.2186    0.0223   -1.8441 H   0  0  0  0  0  0  0  0  0  0  0  0
    7.2995    2.0359   -3.4313 H   0  0  0  0  0  0  0  0  0  0  0  0
    7.8344    3.0515   -2.0137 H   0  0  0  0  0  0  0  0  0  0  0  0
    6.2274    2.2644   -1.9711 H   0  0  0  0  0  0  0  0  0  0  0  0
    8.8027    0.6744   -3.7654 H   0  0  0  0  0  0  0  0  0  0  0  0
    9.2257   -0.6372   -2.6350 H   0  0  0  0  0  0  0  0  0  0  0  0
    9.9971    1.0389   -2.4959 H   0  0  0  0  0  0  0  0  0  0  0  0
  1  2  1  0
  2  3  1  0
  3  4  1  0
  4  5  1  0
  5  6  1  0
  6  7  1  0
  7  8  2  0
  7  9  1  0
  9 10  1  0
 10 11  1  0
 11 12  1  0
 12 13  1  0
 13 14  1  0
 14 15  1  0
 15 16  2  0
 15 17  1  0
 17 18  1  0
 18 19  1  0
 19 20  1  0
 20 21  2  0
 21 22  1  0
 22 23  2  0
 23 24  1  0
 24 25  2  0
 18 26  1  0
 26 27  2  0
 26 28  1  0
 28 29  1  0
 29 30  1  0
 30 31  2  0
 30 32  1  0
 32 33  1  0
 33 34  1  0
 34 35  2  0
 34 36  1  0
 36 37  1  0
 37 38  1  0
 38 39  2  0
 38 40  1  0
 37 41  1  0
 41 42  1  0
 42 43  2  0
 42 44  1  0
 33 45  1  0
 45 46  1  0
 46 47  1  0
 47 48  2  0
 47 49  1  0
 29 50  1  0
 50 51  1  0
 51 52  1  0
 50 53  1  0
  6 54  1  0
 54 55  1  0
 55 56  2  0
 55 57  1  0
 57 58  1  0
 58 59  1  0
 59 60  2  0
 59 61  1  0
 61 62  1  0
 62 63  1  0
 63 64  2  0
 63 65  1  0
 58 66  1  0
 66 67  1  0
 67 68  1  0
 67 69  1  0
 40  9  1  0
 25 20  1  0
  1 70  1  0
  1 71  1  0
  1 72  1  0
  2 73  1  0
  2 74  1  0
  3 75  1  0
  3 76  1  0
  4 77  1  0
  4 78  1  0
  5 79  1  0
  5 80  1  0
  9 81  1  6
 10 82  1  0
 10 83  1  0
 11 84  1  0
 11 85  1  0
 13 86  1  0
 13 87  1  0
 14 88  1  0
 14 89  1  0
 17 90  1  0
 18 91  1  1
 19 92  1  0
 19 93  1  0
 21 94  1  0
 22 95  1  0
 23 96  1  0
 24 97  1  0
 25 98  1  0
 28 99  1  0
 29100  1  1
 32101  1  0
 33102  1  1
 36103  1  0
 37104  1  1
 40105  1  0
 41106  1  0
 41107  1  0
 44108  1  0
 44109  1  0
 45110  1  0
 45111  1  0
 46112  1  0
 46113  1  0
 49114  1  0
 49115  1  0
 50116  1  6
 51117  1  0
 51118  1  0
 52119  1  0
 52120  1  0
 52121  1  0
 53122  1  0
 53123  1  0
 53124  1  0
 54125  1  0
 54126  1  0
 57127  1  0
 58128  1  1
 61129  1  0
 62130  1  0
 62131  1  0
 65132  1  0
 65133  1  0
 66134  1  0
 66135  1  0
 67136  1  0
 68137  1  0
 68138  1  0
 68139  1  0
 69140  1  0
 69141  1  0
 69142  1  0
M  END
>  <Ligand ID>  (1) 
LIG0001896

>  <Ligand>  (1) 
CHEMBL3354587

>  <SMILES>  (1) 
CCCCCN(C(=O)[C@@H]1CCSCCC(=O)N[C@@H](Cc2ccccc2)C(=O)N[C@H](C(=O)N[C@H](C(=O)N[C@H](C(=O)N1)CC(=O)N)CCC(=O)N)[C@H](CC)C)CC(=O)N[C@H](C(=O)NCC(=O)N)CC(C)C

>  <CID>  (1) 
118720277.0

>  <ChEMBL ID>  (1) 
nan

>  <InChiKey>  (1) 
SJGYCSALVFNJQY-FWMOCXAOSA-N

>  <InChi>  (1) 
InChI=1S/C46H73N11O11S/c1-6-8-12-19-57(26-39(62)52-32(22-27(3)4)41(63)50-25-37(49)60)46(68)31-17-20-69-21-18-38(61)51-33(23-29-13-10-9-11-14-29)44(66)56-40(28(5)7-2)45(67)53-30(15-16-35(47)58)42(64)55-34(24-36(48)59)43(65)54-31/h9-11,13-14,27-28,30-34,40H,6-8,12,15-26H2,1-5H3,(H2,47,58)(H2,48,59)(H2,49,60)(H,50,63)(H,51,61)(H,52,62)(H,53,67)(H,54,65)(H,55,64)(H,56,66)/t28-,30-,31-,32-,33-,34-,40-/m0/s1

>  <IUPAC Name>  (1) 
(4S,7S,10S,13S,16S)-7-(2-amino-2-oxoethyl)-N-[2-[[(2S)-1-[(2-amino-2-oxoethyl)amino]-4-methyl-1-oxopentan-2-yl]amino]-2-oxoethyl]-10-(3-amino-3-oxopropyl)-16-benzyl-13-[(2S)-butan-2-yl]-6,9,12,15,18-pentaoxo-N-pentyl-1-thia-5,8,11,14,17-pentazacycloicosane-4-carboxamide

$$$$
