
     RDKit          3D

 46 49  0  0  0  0  0  0  0  0999 V2000
    1.2599    1.0607    1.2293 O   0  0  0  0  0  0  0  0  0  0  0  0
    1.4467    0.6837    0.0151 C   0  0  0  0  0  0  0  0  0  0  0  0
    0.7743    1.3942   -1.1038 C   0  0  0  0  0  0  0  0  0  0  0  0
    1.7040    2.0145   -2.0656 C   0  0  0  0  0  0  0  0  0  0  0  0
    2.3800    1.3283   -3.0496 C   0  0  0  0  0  0  0  0  0  0  0  0
    3.2544    1.9322   -3.9345 C   0  0  0  0  0  0  0  0  0  0  0  0
    3.4676    3.2976   -3.8338 C   0  0  0  0  0  0  0  0  0  0  0  0
    2.8074    4.0289   -2.8573 C   0  0  0  0  0  0  0  0  0  0  0  0
    1.9568    3.3891   -2.0099 C   0  0  0  0  0  0  0  0  0  0  0  0
   -0.3906    0.3650   -2.0161 S   0  0  0  0  0  0  0  0  0  0  0  0
   -1.7747   -0.0787   -0.9714 C   0  0  0  0  0  0  0  0  0  0  0  0
   -1.9547    0.2850    0.3101 N   0  0  0  0  0  0  0  0  0  0  0  0
   -3.1141   -0.2372    0.7747 C   0  0  0  0  0  0  0  0  0  0  0  0
   -3.6800   -0.9545   -0.2555 C   0  0  0  0  0  0  0  0  0  0  0  0
   -2.8454   -0.8487   -1.3242 N   0  0  0  0  0  0  0  0  0  0  0  0
   -4.8898   -1.6111   -0.0745 C   0  0  0  0  0  0  0  0  0  0  0  0
   -5.5608   -1.5653    1.1403 C   0  0  0  0  0  0  0  0  0  0  0  0
   -4.9877   -0.8445    2.1685 C   0  0  0  0  0  0  0  0  0  0  0  0
   -3.7787   -0.1890    1.9856 C   0  0  0  0  0  0  0  0  0  0  0  0
   -6.8567   -2.2700    1.3328 C   0  0  0  0  0  0  0  0  0  0  0  0
    2.3100   -0.4178   -0.1479 N   0  0  0  0  0  0  0  0  0  0  0  0
    2.8773   -0.9873    1.0427 C   0  0  0  0  0  0  0  0  0  0  0  0
    4.0988   -0.4312    1.4359 C   0  0  0  0  0  0  0  0  0  0  0  0
    4.7393   -0.9079    2.5771 C   0  0  0  0  0  0  0  0  0  0  0  0
    4.1327   -1.9207    3.2782 C   0  0  0  0  0  0  0  0  0  0  0  0
    2.9243   -2.4636    2.8805 C   0  0  0  0  0  0  0  0  0  0  0  0
    2.2827   -1.9946    1.7476 C   0  0  0  0  0  0  0  0  0  0  0  0
    4.7240   -2.4150    4.3971 F   0  0  0  0  0  0  0  0  0  0  0  0
    0.1793    2.2343   -0.6345 H   0  0  0  0  0  0  0  0  0  0  0  0
    2.2399    0.2655   -3.1692 H   0  0  0  0  0  0  0  0  0  0  0  0
    3.7666    1.3555   -4.6949 H   0  0  0  0  0  0  0  0  0  0  0  0
    4.1468    3.8022   -4.5116 H   0  0  0  0  0  0  0  0  0  0  0  0
    2.9600    5.0957   -2.7619 H   0  0  0  0  0  0  0  0  0  0  0  0
    1.4505    3.9591   -1.2582 H   0  0  0  0  0  0  0  0  0  0  0  0
   -2.9722   -1.2690   -2.2617 H   0  0  0  0  0  0  0  0  0  0  0  0
   -5.3421   -2.1768   -0.8765 H   0  0  0  0  0  0  0  0  0  0  0  0
   -5.5005   -0.7940    3.1370 H   0  0  0  0  0  0  0  0  0  0  0  0
   -3.3314    0.3691    2.7759 H   0  0  0  0  0  0  0  0  0  0  0  0
   -7.0972   -2.8127    0.3863 H   0  0  0  0  0  0  0  0  0  0  0  0
   -7.6918   -1.5662    1.5229 H   0  0  0  0  0  0  0  0  0  0  0  0
   -6.7154   -3.0182    2.1498 H   0  0  0  0  0  0  0  0  0  0  0  0
    2.5251   -0.8012   -1.0871 H   0  0  0  0  0  0  0  0  0  0  0  0
    4.5556    0.3565    0.8766 H   0  0  0  0  0  0  0  0  0  0  0  0
    5.6961   -0.4696    2.8810 H   0  0  0  0  0  0  0  0  0  0  0  0
    2.4867   -3.2551    3.4601 H   0  0  0  0  0  0  0  0  0  0  0  0
    1.3372   -2.3846    1.3944 H   0  0  0  0  0  0  0  0  0  0  0  0
  1  2  2  0
  2  3  1  0
  3  4  1  0
  4  5  2  0
  5  6  1  0
  6  7  2  0
  7  8  1  0
  8  9  2  0
  3 10  1  0
 10 11  1  0
 11 12  2  0
 12 13  1  0
 13 14  2  0
 14 15  1  0
 14 16  1  0
 16 17  2  0
 17 18  1  0
 18 19  2  0
 17 20  1  0
  2 21  1  0
 21 22  1  0
 22 23  2  0
 23 24  1  0
 24 25  2  0
 25 26  1  0
 26 27  2  0
 25 28  1  0
  9  4  1  0
 15 11  1  0
 27 22  1  0
 19 13  1  0
  3 29  1  0
  5 30  1  0
  6 31  1  0
  7 32  1  0
  8 33  1  0
  9 34  1  0
 15 35  1  0
 16 36  1  0
 18 37  1  0
 19 38  1  0
 20 39  1  0
 20 40  1  0
 20 41  1  0
 21 42  1  0
 23 43  1  0
 24 44  1  0
 26 45  1  0
 27 46  1  0
M  END
>  <Ligand ID>  (1) 
LIG0003897

>  <Ligand>  (1) 
MLS000389417

>  <SMILES>  (1) 
O=C(C(c1ccccc1)Sc1nc2c([nH]1)cc(cc2)C)Nc1ccc(cc1)F

>  <CID>  (1) 
5211364.0

>  <ChEMBL ID>  (1) 
nan

>  <InChiKey>  (1) 
FZUUMOITZDSEMQ-UHFFFAOYSA-N

>  <InChi>  (1) 
InChI=1S/C22H18FN3OS/c1-14-7-12-18-19(13-14)26-22(25-18)28-20(15-5-3-2-4-6-15)21(27)24-17-10-8-16(23)9-11-17/h2-13,20H,1H3,(H,24,27)(H,25,26)

>  <IUPAC Name>  (1) 
N-(4-fluorophenyl)-2-[(6-methyl-1H-benzimidazol-2-yl)sulfanyl]-2-phenylacetamide

$$$$
