
     RDKit          3D

 59 61  0  0  0  0  0  0  0  0999 V2000
    4.2993   -0.6121   -1.0017 C   0  0  0  0  0  0  0  0  0  0  0  0
    3.6149    0.2737    0.0295 C   0  0  2  0  0  0  0  0  0  0  0  0
    2.1773    0.5475   -0.3794 C   0  0  1  0  0  0  0  0  0  0  0  0
    1.4154   -0.7272   -0.4876 C   0  0  0  0  0  0  0  0  0  0  0  0
    0.1093   -0.6344   -0.7200 C   0  0  0  0  0  0  0  0  0  0  0  0
   -0.6712   -1.8702   -0.8322 C   0  0  1  0  0  0  0  0  0  0  0  0
   -0.4337   -2.8650    0.2763 C   0  0  0  0  0  0  0  0  0  0  0  0
   -1.5426   -3.8817   -0.0123 C   0  0  0  0  0  0  0  0  0  0  0  0
   -2.6367   -3.0007   -0.5565 C   0  0  0  0  0  0  0  0  0  0  0  0
   -3.8177   -3.3656   -0.7944 O   0  0  0  0  0  0  0  0  0  0  0  0
   -2.0923   -1.6794   -0.7532 N   0  0  0  0  0  0  0  0  0  0  0  0
   -2.8716   -0.4406   -0.8451 C   0  0  0  0  0  0  0  0  0  0  0  0
   -3.0120    0.1087    0.5250 C   0  0  0  0  0  0  0  0  0  0  0  0
   -3.7638    1.3688    0.6931 C   0  0  0  0  0  0  0  0  0  0  0  0
   -5.1860    1.2565    0.2710 C   0  0  0  0  0  0  0  0  0  0  0  0
   -6.1317    2.2641    0.2972 C   0  0  0  0  0  0  0  0  0  0  0  0
   -7.3613    1.9448   -0.1306 C   0  0  0  0  0  0  0  0  0  0  0  0
   -7.6161    0.7002   -0.5532 C   0  0  0  0  0  0  0  0  0  0  0  0
   -6.0361   -0.1548   -0.3622 S   0  0  0  0  0  0  0  0  0  0  0  0
   -8.8058    0.0532   -1.0629 C   0  0  0  0  0  0  0  0  0  0  0  0
   -8.7892   -1.1490   -1.3991 O   0  0  0  0  0  0  0  0  0  0  0  0
   -9.9571    0.7998   -1.1671 O   0  0  0  0  0  0  0  0  0  0  0  0
   -2.0212   -4.4179    1.1612 F   0  0  0  0  0  0  0  0  0  0  0  0
   -1.1454   -4.8184   -0.9186 F   0  0  0  0  0  0  0  0  0  0  0  0
    1.5767    1.4809    0.4325 O   0  0  0  0  0  0  0  0  0  0  0  0
    4.3715    1.5679    0.2014 C   0  0  0  0  0  0  0  0  0  0  0  0
    5.7543    1.3576    0.6540 C   0  0  0  0  0  0  0  0  0  0  0  0
    6.8130    1.1948   -0.2425 C   0  0  0  0  0  0  0  0  0  0  0  0
    8.0949    0.9994    0.2705 C   0  0  0  0  0  0  0  0  0  0  0  0
    8.3416    0.9630    1.6306 C   0  0  0  0  0  0  0  0  0  0  0  0
    7.2980    1.1235    2.5146 C   0  0  0  0  0  0  0  0  0  0  0  0
    6.0347    1.3161    2.0038 C   0  0  0  0  0  0  0  0  0  0  0  0
    4.2062   -0.1704   -2.0241 H   0  0  0  0  0  0  0  0  0  0  0  0
    3.8500   -1.6253   -1.0151 H   0  0  0  0  0  0  0  0  0  0  0  0
    5.3716   -0.7411   -0.7701 H   0  0  0  0  0  0  0  0  0  0  0  0
    3.6192   -0.2699    0.9942 H   0  0  0  0  0  0  0  0  0  0  0  0
    2.2337    0.9654   -1.4074 H   0  0  0  0  0  0  0  0  0  0  0  0
    1.8914   -1.7108   -0.3834 H   0  0  0  0  0  0  0  0  0  0  0  0
   -0.3568    0.3522   -0.8225 H   0  0  0  0  0  0  0  0  0  0  0  0
   -0.3903   -2.3778   -1.7933 H   0  0  0  0  0  0  0  0  0  0  0  0
    0.5622   -3.3064    0.2987 H   0  0  0  0  0  0  0  0  0  0  0  0
   -0.7067   -2.3687    1.2370 H   0  0  0  0  0  0  0  0  0  0  0  0
   -3.8235   -0.6857   -1.3314 H   0  0  0  0  0  0  0  0  0  0  0  0
   -2.3083    0.2408   -1.5367 H   0  0  0  0  0  0  0  0  0  0  0  0
   -3.4869   -0.6810    1.1511 H   0  0  0  0  0  0  0  0  0  0  0  0
   -1.9830    0.2659    0.9408 H   0  0  0  0  0  0  0  0  0  0  0  0
   -3.3610    2.2214    0.1058 H   0  0  0  0  0  0  0  0  0  0  0  0
   -3.7123    1.6280    1.7937 H   0  0  0  0  0  0  0  0  0  0  0  0
   -5.8423    3.2699    0.6617 H   0  0  0  0  0  0  0  0  0  0  0  0
   -8.1810    2.7188   -0.1360 H   0  0  0  0  0  0  0  0  0  0  0  0
  -10.8779    0.3832   -1.3560 H   0  0  0  0  0  0  0  0  0  0  0  0
    1.4004    2.3396   -0.0531 H   0  0  0  0  0  0  0  0  0  0  0  0
    4.3726    2.0614   -0.7996 H   0  0  0  0  0  0  0  0  0  0  0  0
    3.8608    2.2525    0.8974 H   0  0  0  0  0  0  0  0  0  0  0  0
    6.6402    1.2206   -1.3083 H   0  0  0  0  0  0  0  0  0  0  0  0
    8.9383    0.8698   -0.3921 H   0  0  0  0  0  0  0  0  0  0  0  0
    9.3391    0.8110    2.0363 H   0  0  0  0  0  0  0  0  0  0  0  0
    7.5168    1.0911    3.5738 H   0  0  0  0  0  0  0  0  0  0  0  0
    5.2179    1.4417    2.6965 H   0  0  0  0  0  0  0  0  0  0  0  0
  1  2  1  0
  2  3  1  0
  3  4  1  0
  4  5  2  0
  5  6  1  0
  6  7  1  0
  7  8  1  0
  8  9  1  0
  9 10  2  0
  9 11  1  0
 11 12  1  0
 12 13  1  0
 13 14  1  0
 14 15  1  0
 15 16  2  0
 16 17  1  0
 17 18  2  0
 18 19  1  0
 18 20  1  0
 20 21  2  0
 20 22  1  0
  8 23  1  0
  8 24  1  0
  3 25  1  0
  2 26  1  0
 26 27  1  0
 27 28  2  0
 28 29  1  0
 29 30  2  0
 30 31  1  0
 31 32  2  0
 11  6  1  0
 19 15  1  0
 32 27  1  0
  1 33  1  0
  1 34  1  0
  1 35  1  0
  2 36  1  1
  3 37  1  6
  4 38  1  0
  5 39  1  0
  6 40  1  6
  7 41  1  0
  7 42  1  0
 12 43  1  0
 12 44  1  0
 13 45  1  0
 13 46  1  0
 14 47  1  0
 14 48  1  0
 16 49  1  0
 17 50  1  0
 22 51  1  0
 25 52  1  0
 26 53  1  0
 26 54  1  0
 28 55  1  0
 29 56  1  0
 30 57  1  0
 31 58  1  0
 32 59  1  0
M  END
>  <Ligand ID>  (1) 
LIG0005209

>  <Ligand>  (1) 
CHEMBL3902065

>  <SMILES>  (1) 
C[C@H]([C@@H](/C=C/[C@H]1CC(C(=O)N1CCCc1ccc(s1)C(=O)O)(F)F)O)Cc1ccccc1

>  <CID>  (1) 
90054482.0

>  <ChEMBL ID>  (1) 
nan

>  <InChiKey>  (1) 
JMHMEEBPWHFLBX-KRPHMAJBSA-N

>  <InChi>  (1) 
InChI=1S/C24H27F2NO4S/c1-16(14-17-6-3-2-4-7-17)20(28)11-9-18-15-24(25,26)23(31)27(18)13-5-8-19-10-12-21(32-19)22(29)30/h2-4,6-7,9-12,16,18,20,28H,5,8,13-15H2,1H3,(H,29,30)/b11-9+/t16-,18-,20+/m0/s1

>  <IUPAC Name>  (1) 
5-[3-[(5R)-3,3-difluoro-5-[(E,3S,4S)-3-hydroxy-4-methyl-5-phenylpent-1-enyl]-2-oxopyrrolidin-1-yl]propyl]thiophene-2-carboxylic acid

$$$$
