
     RDKit          3D

149154  0  0  0  0  0  0  0  0999 V2000
   10.6271   -1.0611   -0.4423 C   0  0  0  0  0  0  0  0  0  0  0  0
   10.5376   -2.4627    0.0327 C   0  0  0  0  0  0  0  0  0  0  0  0
    9.9244   -2.7106    1.3310 C   0  0  0  0  0  0  0  0  0  0  0  0
    8.5098   -2.5010    1.6271 C   0  0  0  0  0  0  0  0  0  0  0  0
    7.9121   -1.1709    1.4937 C   0  0  2  0  0  0  0  0  0  0  0  0
    6.4231   -1.2924    1.9526 C   0  0  0  0  0  0  0  0  0  0  0  0
    6.2889   -1.7560    3.0916 O   0  0  0  0  0  0  0  0  0  0  0  0
    5.3896   -0.8904    1.0869 N   0  0  0  0  0  0  0  0  0  0  0  0
    3.9900   -0.9349    1.3401 C   0  0  2  0  0  0  0  0  0  0  0  0
    3.1886   -1.8610    0.5029 C   0  0  0  0  0  0  0  0  0  0  0  0
    3.7863   -3.2283    0.5833 C   0  0  0  0  0  0  0  0  0  0  0  0
    4.9439   -3.4950    0.8815 O   0  0  0  0  0  0  0  0  0  0  0  0
    2.9524   -4.3766    0.2906 N   0  0  0  0  0  0  0  0  0  0  0  0
    3.4217   -5.7384    0.2996 C   0  0  0  0  0  0  0  0  0  0  0  0
    2.1593   -6.5857    0.0214 C   0  0  0  0  0  0  0  0  0  0  0  0
    1.5201   -5.9889   -1.2219 C   0  0  0  0  0  0  0  0  0  0  0  0
    0.0689   -5.6774   -0.9569 C   0  0  0  0  0  0  0  0  0  0  0  0
   -0.4924   -4.8157   -2.0446 C   0  0  2  0  0  0  0  0  0  0  0  0
   -1.8725   -4.4085   -1.6864 N   0  0  0  0  0  0  0  0  0  0  0  0
   -2.0787   -3.1383   -1.0709 C   0  0  0  0  0  0  0  0  0  0  0  0
   -1.0457   -2.4763   -0.8693 O   0  0  0  0  0  0  0  0  0  0  0  0
   -3.3847   -2.5867   -0.6726 C   0  0  1  0  0  0  0  0  0  0  0  0
   -3.2623   -1.3198    0.0348 N   0  0  0  0  0  0  0  0  0  0  0  0
   -3.9687   -1.0923    1.2883 C   0  0  0  0  0  0  0  0  0  0  0  0
   -4.6555   -2.0676    1.6411 O   0  0  0  0  0  0  0  0  0  0  0  0
   -3.8779    0.1580    2.0490 C   0  0  1  0  0  0  0  0  0  0  0  0
   -2.9301    1.1026    1.5355 N   0  0  0  0  0  0  0  0  0  0  0  0
   -3.1785    2.1033    0.5671 C   0  0  0  0  0  0  0  0  0  0  0  0
   -4.3076    2.1519    0.0816 O   0  0  0  0  0  0  0  0  0  0  0  0
   -2.1387    3.0874    0.1052 C   0  0  2  0  0  0  0  0  0  0  0  0
   -0.9116    3.0284    0.8635 N   0  0  0  0  0  0  0  0  0  0  0  0
    0.1047    2.0271    0.6073 C   0  0  0  0  0  0  0  0  0  0  0  0
   -0.2484    1.1647   -0.2102 O   0  0  0  0  0  0  0  0  0  0  0  0
    1.4145    2.0066    1.2396 C   0  0  1  0  0  0  0  0  0  0  0  0
    2.0631    0.7498    1.0623 N   0  0  0  0  0  0  0  0  0  0  0  0
    3.4015    0.4443    1.4451 C   0  0  0  0  0  0  0  0  0  0  0  0
    4.0591    1.4052    1.8594 O   0  0  0  0  0  0  0  0  0  0  0  0
    2.2103    3.1474    0.5524 C   0  0  0  0  0  0  0  0  0  0  0  0
    2.3362    2.9323   -0.9050 C   0  0  0  0  0  0  0  0  0  0  0  0
    3.3354    2.2628   -1.5175 N   0  0  0  0  0  0  0  0  0  0  0  0
    3.1224    2.2629   -2.8524 C   0  0  0  0  0  0  0  0  0  0  0  0
    1.9857    2.9311   -3.1148 N   0  0  0  0  0  0  0  0  0  0  0  0
    1.5071    3.3379   -1.9376 C   0  0  0  0  0  0  0  0  0  0  0  0
   -2.7817    4.4131    0.0014 C   0  0  0  0  0  0  0  0  0  0  0  0
   -1.9375    5.5331   -0.4218 C   0  0  0  0  0  0  0  0  0  0  0  0
   -1.2900    6.2468    0.6005 C   0  0  0  0  0  0  0  0  0  0  0  0
   -0.4787    7.3174    0.3071 C   0  0  0  0  0  0  0  0  0  0  0  0
   -0.2727    7.7257   -0.9774 C   0  0  0  0  0  0  0  0  0  0  0  0
   -0.9044    7.0303   -1.9841 C   0  0  0  0  0  0  0  0  0  0  0  0
   -1.7345    5.9375   -1.7222 C   0  0  0  0  0  0  0  0  0  0  0  0
   -0.6762    7.4699   -3.2791 C   0  0  0  0  0  0  0  0  0  0  0  0
    0.1478    8.5542   -3.5191 C   0  0  0  0  0  0  0  0  0  0  0  0
    0.7610    9.2241   -2.4943 C   0  0  0  0  0  0  0  0  0  0  0  0
    0.5532    8.8083   -1.1834 C   0  0  0  0  0  0  0  0  0  0  0  0
   -5.2984    0.7331    2.0610 C   0  0  0  0  0  0  0  0  0  0  0  0
   -5.4188    2.0105    2.8299 C   0  0  0  0  0  0  0  0  0  0  0  0
   -6.8796    2.4485    2.7097 C   0  0  0  0  0  0  0  0  0  0  0  0
   -7.7840    1.4575    3.2436 N   0  0  0  0  0  0  0  0  0  0  0  0
   -8.9674    1.3257    2.7072 C   0  0  0  0  0  0  0  0  0  0  0  0
   -9.8478    0.3424    3.2466 N   0  0  0  0  0  0  0  0  0  0  0  0
   -9.4072    2.1163    1.6124 N   0  0  0  0  0  0  0  0  0  0  0  0
   -4.3054   -2.4210   -1.8919 C   0  0  0  0  0  0  0  0  0  0  0  0
   -5.6169   -1.8567   -1.4814 C   0  0  0  0  0  0  0  0  0  0  0  0
   -6.0184   -0.5371   -1.6762 C   0  0  0  0  0  0  0  0  0  0  0  0
   -7.2455   -0.3344   -1.2010 N   0  0  0  0  0  0  0  0  0  0  0  0
   -7.6508   -1.5318   -0.6900 C   0  0  0  0  0  0  0  0  0  0  0  0
   -6.6698   -2.4752   -0.8513 C   0  0  0  0  0  0  0  0  0  0  0  0
   -6.8169   -3.7851   -0.4179 C   0  0  0  0  0  0  0  0  0  0  0  0
   -8.0105   -4.1301    0.1991 C   0  0  0  0  0  0  0  0  0  0  0  0
   -8.9907   -3.1649    0.3547 C   0  0  0  0  0  0  0  0  0  0  0  0
   -8.8374   -1.8679   -0.0774 C   0  0  0  0  0  0  0  0  0  0  0  0
   -0.4324   -5.4478   -3.3591 C   0  0  0  0  0  0  0  0  0  0  0  0
   -1.5408   -5.6018   -3.9805 O   0  0  0  0  0  0  0  0  0  0  0  0
    0.7186   -5.9093   -4.0241 N   0  0  0  0  0  0  0  0  0  0  0  0
    7.8272   -0.6204    0.1619 N   0  0  0  0  0  0  0  0  0  0  0  0
    7.8936    0.8160    0.0280 C   0  0  0  0  0  0  0  0  0  0  0  0
    8.0197    1.4987    1.0769 O   0  0  0  0  0  0  0  0  0  0  0  0
    7.8213    1.5035   -1.2695 C   0  0  0  0  0  0  0  0  0  0  0  0
    9.9992   -0.8170   -1.3082 H   0  0  0  0  0  0  0  0  0  0  0  0
   10.4880   -0.3041    0.3550 H   0  0  0  0  0  0  0  0  0  0  0  0
   11.7003   -0.8746   -0.8525 H   0  0  0  0  0  0  0  0  0  0  0  0
   11.5670   -2.9589    0.0023 H   0  0  0  0  0  0  0  0  0  0  0  0
    9.9812   -3.0601   -0.7523 H   0  0  0  0  0  0  0  0  0  0  0  0
   10.5050   -2.1550    2.1683 H   0  0  0  0  0  0  0  0  0  0  0  0
   10.1719   -3.7975    1.6251 H   0  0  0  0  0  0  0  0  0  0  0  0
    8.3314   -2.8171    2.7228 H   0  0  0  0  0  0  0  0  0  0  0  0
    7.8526   -3.2543    1.0354 H   0  0  0  0  0  0  0  0  0  0  0  0
    8.2989   -0.4552    2.2202 H   0  0  0  0  0  0  0  0  0  0  0  0
    5.6737   -0.5058    0.1301 H   0  0  0  0  0  0  0  0  0  0  0  0
    3.8967   -1.3733    2.4109 H   0  0  0  0  0  0  0  0  0  0  0  0
    2.1238   -1.8912    0.8406 H   0  0  0  0  0  0  0  0  0  0  0  0
    3.1727   -1.4919   -0.5540 H   0  0  0  0  0  0  0  0  0  0  0  0
    1.9854   -4.1108    0.0840 H   0  0  0  0  0  0  0  0  0  0  0  0
    4.2150   -5.9879   -0.3882 H   0  0  0  0  0  0  0  0  0  0  0  0
    3.7038   -5.9987    1.3554 H   0  0  0  0  0  0  0  0  0  0  0  0
    1.4305   -6.5338    0.8365 H   0  0  0  0  0  0  0  0  0  0  0  0
    2.4696   -7.6293   -0.1998 H   0  0  0  0  0  0  0  0  0  0  0  0
    2.0796   -5.1397   -1.5747 H   0  0  0  0  0  0  0  0  0  0  0  0
    1.5179   -6.7719   -2.0319 H   0  0  0  0  0  0  0  0  0  0  0  0
   -0.0649   -5.1973    0.0293 H   0  0  0  0  0  0  0  0  0  0  0  0
   -0.4765   -6.6581   -0.8843 H   0  0  0  0  0  0  0  0  0  0  0  0
    0.1576   -3.8876   -2.0552 H   0  0  0  0  0  0  0  0  0  0  0  0
   -2.6970   -4.9680   -1.8444 H   0  0  0  0  0  0  0  0  0  0  0  0
   -3.9153   -3.3385   -0.0583 H   0  0  0  0  0  0  0  0  0  0  0  0
   -2.7041   -0.5224   -0.2618 H   0  0  0  0  0  0  0  0  0  0  0  0
   -3.6664   -0.0084    3.1111 H   0  0  0  0  0  0  0  0  0  0  0  0
   -1.9659    1.0720    1.8905 H   0  0  0  0  0  0  0  0  0  0  0  0
   -1.9021    2.7035   -0.9640 H   0  0  0  0  0  0  0  0  0  0  0  0
   -0.6608    3.6614    1.6293 H   0  0  0  0  0  0  0  0  0  0  0  0
    1.4232    2.3050    2.2745 H   0  0  0  0  0  0  0  0  0  0  0  0
    1.5528   -0.0205    0.6212 H   0  0  0  0  0  0  0  0  0  0  0  0
    1.5450    4.0280    0.6812 H   0  0  0  0  0  0  0  0  0  0  0  0
    3.1310    3.3731    1.0811 H   0  0  0  0  0  0  0  0  0  0  0  0
    4.1521    1.8127   -1.0008 H   0  0  0  0  0  0  0  0  0  0  0  0
    3.8083    1.7765   -3.5536 H   0  0  0  0  0  0  0  0  0  0  0  0
    0.6042    3.9061   -1.7691 H   0  0  0  0  0  0  0  0  0  0  0  0
   -3.2560    4.6785    0.9947 H   0  0  0  0  0  0  0  0  0  0  0  0
   -3.6855    4.2837   -0.6609 H   0  0  0  0  0  0  0  0  0  0  0  0
   -1.4151    5.9714    1.6443 H   0  0  0  0  0  0  0  0  0  0  0  0
   -0.0005    7.8411    1.1372 H   0  0  0  0  0  0  0  0  0  0  0  0
   -2.2273    5.3970   -2.5089 H   0  0  0  0  0  0  0  0  0  0  0  0
   -1.1555    6.9470   -4.0772 H   0  0  0  0  0  0  0  0  0  0  0  0
    0.3402    8.9172   -4.5315 H   0  0  0  0  0  0  0  0  0  0  0  0
    1.4163   10.0733   -2.6155 H   0  0  0  0  0  0  0  0  0  0  0  0
    1.0357    9.3336   -0.3405 H   0  0  0  0  0  0  0  0  0  0  0  0
   -5.7888    0.7069    1.0822 H   0  0  0  0  0  0  0  0  0  0  0  0
   -5.8675   -0.0322    2.6700 H   0  0  0  0  0  0  0  0  0  0  0  0
   -5.2982    1.7934    3.9405 H   0  0  0  0  0  0  0  0  0  0  0  0
   -4.7065    2.7940    2.6254 H   0  0  0  0  0  0  0  0  0  0  0  0
   -7.1715    2.6275    1.6441 H   0  0  0  0  0  0  0  0  0  0  0  0
   -7.0353    3.4295    3.2268 H   0  0  0  0  0  0  0  0  0  0  0  0
   -9.4759   -0.3638    3.9287 H   0  0  0  0  0  0  0  0  0  0  0  0
  -10.8494    0.2974    2.9855 H   0  0  0  0  0  0  0  0  0  0  0  0
   -9.4841    3.1420    1.7501 H   0  0  0  0  0  0  0  0  0  0  0  0
   -9.6434    1.6562    0.6924 H   0  0  0  0  0  0  0  0  0  0  0  0
   -4.4669   -3.4328   -2.2851 H   0  0  0  0  0  0  0  0  0  0  0  0
   -3.8648   -1.7344   -2.6387 H   0  0  0  0  0  0  0  0  0  0  0  0
   -5.4241    0.2197   -2.1486 H   0  0  0  0  0  0  0  0  0  0  0  0
   -7.8131    0.5514   -1.2016 H   0  0  0  0  0  0  0  0  0  0  0  0
   -6.0273   -4.5021   -0.5628 H   0  0  0  0  0  0  0  0  0  0  0  0
   -8.1866   -5.1552    0.5637 H   0  0  0  0  0  0  0  0  0  0  0  0
   -9.9035   -3.4786    0.8420 H   0  0  0  0  0  0  0  0  0  0  0  0
   -9.6474   -1.1818    0.0823 H   0  0  0  0  0  0  0  0  0  0  0  0
    1.5998   -5.3639   -4.1570 H   0  0  0  0  0  0  0  0  0  0  0  0
    0.7134   -6.8869   -4.4326 H   0  0  0  0  0  0  0  0  0  0  0  0
    7.7228   -1.2144   -0.6802 H   0  0  0  0  0  0  0  0  0  0  0  0
    7.2743    2.4587   -1.1164 H   0  0  0  0  0  0  0  0  0  0  0  0
    8.8384    1.7167   -1.6605 H   0  0  0  0  0  0  0  0  0  0  0  0
    7.2088    0.9041   -1.9749 H   0  0  0  0  0  0  0  0  0  0  0  0
  1  2  1  0
  2  3  1  0
  3  4  1  0
  4  5  1  0
  5  6  1  0
  6  7  2  0
  6  8  1  0
  8  9  1  0
  9 10  1  0
 10 11  1  0
 11 12  2  0
 11 13  1  0
 13 14  1  0
 14 15  1  0
 15 16  1  0
 16 17  1  0
 17 18  1  0
 18 19  1  0
 19 20  1  0
 20 21  2  0
 20 22  1  0
 22 23  1  0
 23 24  1  0
 24 25  2  0
 24 26  1  0
 26 27  1  0
 27 28  1  0
 28 29  2  0
 28 30  1  0
 30 31  1  0
 31 32  1  0
 32 33  2  0
 32 34  1  0
 34 35  1  0
 35 36  1  0
 36 37  2  0
 34 38  1  0
 38 39  1  0
 39 40  1  0
 40 41  1  0
 41 42  2  0
 42 43  1  0
 30 44  1  0
 44 45  1  0
 45 46  2  0
 46 47  1  0
 47 48  2  0
 48 49  1  0
 49 50  2  0
 49 51  1  0
 51 52  2  0
 52 53  1  0
 53 54  2  0
 26 55  1  0
 55 56  1  0
 56 57  1  0
 57 58  1  0
 58 59  2  3
 59 60  1  0
 59 61  1  0
 22 62  1  0
 62 63  1  0
 63 64  2  0
 64 65  1  0
 65 66  1  0
 66 67  2  0
 67 68  1  0
 68 69  2  0
 69 70  1  0
 70 71  2  0
 18 72  1  0
 72 73  2  0
 72 74  1  0
  5 75  1  0
 75 76  1  0
 76 77  2  0
 76 78  1  0
 36  9  1  0
 43 39  2  0
 50 45  1  0
 67 63  1  0
 54 48  1  0
 71 66  1  0
  1 79  1  0
  1 80  1  0
  1 81  1  0
  2 82  1  0
  2 83  1  0
  3 84  1  0
  3 85  1  0
  4 86  1  0
  4 87  1  0
  5 88  1  1
  8 89  1  0
  9 90  1  1
 10 91  1  0
 10 92  1  0
 13 93  1  0
 14 94  1  0
 14 95  1  0
 15 96  1  0
 15 97  1  0
 16 98  1  0
 16 99  1  0
 17100  1  0
 17101  1  0
 18102  1  6
 19103  1  0
 22104  1  1
 23105  1  0
 26106  1  1
 27107  1  0
 30108  1  6
 31109  1  0
 34110  1  1
 35111  1  0
 38112  1  0
 38113  1  0
 40114  1  0
 41115  1  0
 43116  1  0
 44117  1  0
 44118  1  0
 46119  1  0
 47120  1  0
 50121  1  0
 51122  1  0
 52123  1  0
 53124  1  0
 54125  1  0
 55126  1  0
 55127  1  0
 56128  1  0
 56129  1  0
 57130  1  0
 57131  1  0
 60132  1  0
 60133  1  0
 61134  1  0
 61135  1  0
 62136  1  0
 62137  1  0
 64138  1  0
 65139  1  0
 68140  1  0
 69141  1  0
 70142  1  0
 71143  1  0
 74144  1  0
 74145  1  0
 75146  1  0
 78147  1  0
 78148  1  0
 78149  1  0
M  END
>  <Ligand ID>  (1) 
LIG0000691

>  <Ligand>  (1) 
CHEMBL2096742

>  <SMILES>  (1) 
CCCC[C@H](C(=O)N[C@@H]1CC(=O)NCCCC[C@H](NC(=O)[C@@H](NC(=O)[C@@H](NC(=O)[C@H](NC(=O)[C@@H](NC1=O)Cc1[nH]cnc1)Cc1ccc2c(c1)cccc2)CCCN=C(N)N)Cc1c[nH]c2c1cccc2)C(=O)N)NC(=O)C

>  <CID>  (1) 
70691332.0

>  <ChEMBL ID>  (1) 
nan

>  <InChiKey>  (1) 
GGYWLZFXFKFWKL-GLWNXGLNSA-N

>  <InChi>  (1) 
InChI=1S/C54H71N15O9/c1-3-4-15-40(63-31(2)70)48(73)69-45-27-46(71)59-21-10-9-17-39(47(55)72)64-51(76)43(25-35-28-61-38-16-8-7-14-37(35)38)67-49(74)41(18-11-22-60-54(56)57)65-50(75)42(24-32-19-20-33-12-5-6-13-34(33)23-32)66-52(77)44(68-53(45)78)26-36-29-58-30-62-36/h5-8,12-14,16,19-20,23,28-30,39-45,61H,3-4,9-11,15,17-18,21-22,24-27H2,1-2H3,(H2,55,72)(H,58,62)(H,59,71)(H,63,70)(H,64,76)(H,65,75)(H,66,77)(H,67,74)(H,68,78)(H,69,73)(H4,56,57,60)/t39-,40+,41-,42+,43-,44-,45+/m0/s1

>  <IUPAC Name>  (1) 
(3S,6S,9R,12S,15R,23S)-15-[[(2R)-2-acetamidohexanoyl]amino]-6-[3-(diaminomethylideneamino)propyl]-12-(1H-imidazol-5-ylmethyl)-3-(1H-indol-3-ylmethyl)-9-(naphthalen-2-ylmethyl)-2,5,8,11,14,17-hexaoxo-1,4,7,10,13,18-hexazacyclotricosane-23-carboxamide

$$$$
