
     RDKit          3D

 59 63  0  0  0  0  0  0  0  0999 V2000
   -1.3658    5.8406    1.2485 C   0  0  0  0  0  0  0  0  0  0  0  0
   -0.9154    4.4783    1.2266 N   0  0  0  0  0  0  0  0  0  0  0  0
    0.4004    4.3869    0.6294 C   0  0  0  0  0  0  0  0  0  0  0  0
    0.9882    2.9926    0.8283 C   0  0  0  0  0  0  0  0  0  0  0  0
    0.0182    1.9623    0.6253 N   0  0  0  0  0  0  0  0  0  0  0  0
   -1.0517    2.4611   -0.1930 C   0  0  0  0  0  0  0  0  0  0  0  0
   -1.7776    3.6182    0.4783 C   0  0  0  0  0  0  0  0  0  0  0  0
    0.6070    0.7622    0.0550 C   0  0  0  0  0  0  0  0  0  0  0  0
    1.6601    0.2141    0.9443 C   0  0  0  0  0  0  0  0  0  0  0  0
    1.3937   -0.0834    2.2512 N   0  0  0  0  0  0  0  0  0  0  0  0
    2.4634   -0.5302    2.8412 N   0  0  0  0  0  0  0  0  0  0  0  0
    3.4049   -0.5183    1.9211 N   0  0  0  0  0  0  0  0  0  0  0  0
    2.9332   -0.0654    0.7514 N   0  0  0  0  0  0  0  0  0  0  0  0
    3.7495    0.0549   -0.4153 C   0  0  0  0  0  0  0  0  0  0  0  0
    3.7113   -1.2232   -1.1647 C   0  0  0  0  0  0  0  0  0  0  0  0
    2.9646   -1.4218   -2.3067 C   0  0  0  0  0  0  0  0  0  0  0  0
    2.9884   -2.6455   -2.9260 C   0  0  0  0  0  0  0  0  0  0  0  0
    3.7457   -3.6700   -2.4210 C   0  0  0  0  0  0  0  0  0  0  0  0
    4.5118   -3.5109   -1.2719 C   0  0  0  0  0  0  0  0  0  0  0  0
    4.4824   -2.2682   -0.6498 C   0  0  0  0  0  0  0  0  0  0  0  0
   -0.5063   -0.2510   -0.0211 C   0  0  0  0  0  0  0  0  0  0  0  0
   -1.1908   -0.5658    1.1290 C   0  0  0  0  0  0  0  0  0  0  0  0
   -2.2211   -1.4952    1.1276 C   0  0  0  0  0  0  0  0  0  0  0  0
   -2.9065   -1.8063    2.2956 C   0  0  0  0  0  0  0  0  0  0  0  0
   -3.9365   -2.7287    2.3194 C   0  0  0  0  0  0  0  0  0  0  0  0
   -4.2770   -3.3538    1.1111 C   0  0  0  0  0  0  0  0  0  0  0  0
   -3.5810   -3.0282   -0.0354 C   0  0  0  0  0  0  0  0  0  0  0  0
   -2.5552   -2.1089   -0.0569 C   0  0  0  0  0  0  0  0  0  0  0  0
   -1.8718   -1.7813   -1.1587 N   0  0  0  0  0  0  0  0  0  0  0  0
   -0.8670   -0.8801   -1.1824 C   0  0  0  0  0  0  0  0  0  0  0  0
   -0.2792   -0.6300   -2.2616 O   0  0  0  0  0  0  0  0  0  0  0  0
   -3.9469   -3.7009   -1.3086 C   0  0  0  0  0  0  0  0  0  0  0  0
   -2.1521    6.0455    0.4950 H   0  0  0  0  0  0  0  0  0  0  0  0
   -1.7548    6.1346    2.2525 H   0  0  0  0  0  0  0  0  0  0  0  0
   -0.5164    6.5418    1.0523 H   0  0  0  0  0  0  0  0  0  0  0  0
    1.0606    5.0903    1.1565 H   0  0  0  0  0  0  0  0  0  0  0  0
    0.3938    4.6251   -0.4533 H   0  0  0  0  0  0  0  0  0  0  0  0
    1.7818    2.8728    0.0675 H   0  0  0  0  0  0  0  0  0  0  0  0
    1.3683    2.9802    1.8775 H   0  0  0  0  0  0  0  0  0  0  0  0
   -0.7317    2.8183   -1.1911 H   0  0  0  0  0  0  0  0  0  0  0  0
   -1.8470    1.7029   -0.3769 H   0  0  0  0  0  0  0  0  0  0  0  0
   -2.2849    4.1858   -0.3239 H   0  0  0  0  0  0  0  0  0  0  0  0
   -2.5837    3.1901    1.1346 H   0  0  0  0  0  0  0  0  0  0  0  0
    1.0282    0.9207   -0.9332 H   0  0  0  0  0  0  0  0  0  0  0  0
    4.7924    0.2995   -0.0804 H   0  0  0  0  0  0  0  0  0  0  0  0
    3.3781    0.8277   -1.1277 H   0  0  0  0  0  0  0  0  0  0  0  0
    2.3953   -0.5758   -2.6636 H   0  0  0  0  0  0  0  0  0  0  0  0
    2.3866   -2.7558   -3.8170 H   0  0  0  0  0  0  0  0  0  0  0  0
    3.7373   -4.6304   -2.9465 H   0  0  0  0  0  0  0  0  0  0  0  0
    5.1026   -4.3304   -0.8851 H   0  0  0  0  0  0  0  0  0  0  0  0
    5.0713   -2.1160    0.2493 H   0  0  0  0  0  0  0  0  0  0  0  0
   -0.9702   -0.1107    2.0859 H   0  0  0  0  0  0  0  0  0  0  0  0
   -2.6560   -1.3348    3.2326 H   0  0  0  0  0  0  0  0  0  0  0  0
   -4.4823   -2.9854    3.2183 H   0  0  0  0  0  0  0  0  0  0  0  0
   -5.0771   -4.0796    1.0935 H   0  0  0  0  0  0  0  0  0  0  0  0
   -2.1074   -2.2295   -2.0618 H   0  0  0  0  0  0  0  0  0  0  0  0
   -3.1538   -4.4522   -1.5748 H   0  0  0  0  0  0  0  0  0  0  0  0
   -4.0262   -2.9209   -2.0906 H   0  0  0  0  0  0  0  0  0  0  0  0
   -4.9254   -4.2179   -1.2352 H   0  0  0  0  0  0  0  0  0  0  0  0
  1  2  1  0
  2  3  1  0
  3  4  1  0
  4  5  1  0
  5  6  1  0
  6  7  1  0
  5  8  1  0
  8  9  1  0
  9 10  2  0
 10 11  1  0
 11 12  2  0
 12 13  1  0
 13 14  1  0
 14 15  1  0
 15 16  2  0
 16 17  1  0
 17 18  2  0
 18 19  1  0
 19 20  2  0
  8 21  1  0
 21 22  2  0
 22 23  1  0
 23 24  2  0
 24 25  1  0
 25 26  2  0
 26 27  1  0
 27 28  2  0
 28 29  1  0
 29 30  1  0
 30 31  2  0
 27 32  1  0
  7  2  1  0
 13  9  1  0
 20 15  1  0
 30 21  1  0
 28 23  1  0
  1 33  1  0
  1 34  1  0
  1 35  1  0
  3 36  1  0
  3 37  1  0
  4 38  1  0
  4 39  1  0
  6 40  1  0
  6 41  1  0
  7 42  1  0
  7 43  1  0
  8 44  1  0
 14 45  1  0
 14 46  1  0
 16 47  1  0
 17 48  1  0
 18 49  1  0
 19 50  1  0
 20 51  1  0
 22 52  1  0
 24 53  1  0
 25 54  1  0
 26 55  1  0
 29 56  1  0
 32 57  1  0
 32 58  1  0
 32 59  1  0
M  END
>  <Ligand ID>  (1) 
LIG0003886

>  <Ligand>  (1) 
MLS000029946

>  <SMILES>  (1) 
CN1CCN(CC1)C(c1nnnn1Cc1ccccc1)c1cc2cccc(c2[nH]c1=O)C

>  <CID>  (1) 
647547.0

>  <ChEMBL ID>  (1) 
nan

>  <InChiKey>  (1) 
RMYLYRWYGPEVCL-UHFFFAOYSA-N

>  <InChi>  (1) 
InChI=1S/C24H27N7O/c1-17-7-6-10-19-15-20(24(32)25-21(17)19)22(30-13-11-29(2)12-14-30)23-26-27-28-31(23)16-18-8-4-3-5-9-18/h3-10,15,22H,11-14,16H2,1-2H3,(H,25,32)

>  <IUPAC Name>  (1) 
3-[(1-benzyltetrazol-5-yl)-(4-methylpiperazin-1-yl)methyl]-8-methyl-1H-quinolin-2-one

$$$$
