
     RDKit          3D

142144  0  0  0  0  0  0  0  0999 V2000
   -8.5357    1.0294   -3.6824 C   0  0  0  0  0  0  0  0  0  0  0  0
   -9.0596    0.4332   -2.3914 C   0  0  0  0  0  0  0  0  0  0  0  0
   -8.2105    0.9286   -1.2082 C   0  0  1  0  0  0  0  0  0  0  0  0
   -6.8238    0.4674   -1.4742 C   0  0  2  0  0  0  0  0  0  0  0  0
   -6.6182   -0.9492   -1.5596 N   0  0  0  0  0  0  0  0  0  0  0  0
   -6.2486   -1.8249   -0.4775 C   0  0  0  0  0  0  0  0  0  0  0  0
   -6.2389   -1.3039    0.6421 O   0  0  0  0  0  0  0  0  0  0  0  0
   -5.8983   -3.2731   -0.7250 C   0  0  1  0  0  0  0  0  0  0  0  0
   -5.2189   -3.7838    0.5121 N   0  0  0  0  0  0  0  0  0  0  0  0
   -3.9025   -3.4270    0.8625 C   0  0  0  0  0  0  0  0  0  0  0  0
   -3.3640   -2.5610    0.1549 O   0  0  0  0  0  0  0  0  0  0  0  0
   -3.1470   -4.0036    2.0116 C   0  0  0  0  0  0  0  0  0  0  0  0
   -2.3779   -2.9491    2.7507 C   0  0  0  0  0  0  0  0  0  0  0  0
   -1.3397   -1.8968    1.8274 S   0  0  0  0  0  0  0  0  0  0  0  0
    0.4298   -2.5598    1.0205 S   0  0  0  0  0  0  0  0  0  0  0  0
    1.8979   -2.3364    2.1138 C   0  0  0  0  0  0  0  0  0  0  0  0
    1.9169   -0.8312    2.4113 C   0  0  2  0  0  0  0  0  0  0  0  0
    1.8299   -0.0728    1.1912 N   0  0  0  0  0  0  0  0  0  0  0  0
    0.7146    0.8031    1.0757 C   0  0  0  0  0  0  0  0  0  0  0  0
    0.0197    0.9525    2.0912 O   0  0  0  0  0  0  0  0  0  0  0  0
    0.2878    1.5656   -0.1307 C   0  0  1  0  0  0  0  0  0  0  0  0
   -1.0241    2.1717    0.2483 N   0  0  0  0  0  0  0  0  0  0  0  0
   -2.2327    1.4897   -0.0285 C   0  0  0  0  0  0  0  0  0  0  0  0
   -2.0737    0.4170   -0.6787 O   0  0  0  0  0  0  0  0  0  0  0  0
   -3.5972    1.8579    0.3253 C   0  0  1  0  0  0  0  0  0  0  0  0
   -4.5273    0.8694   -0.3263 N   0  0  0  0  0  0  0  0  0  0  0  0
   -5.7859    1.2778   -0.8100 C   0  0  0  0  0  0  0  0  0  0  0  0
   -6.0213    2.5002   -0.6420 O   0  0  0  0  0  0  0  0  0  0  0  0
   -3.9259    1.8587    1.7990 C   0  0  0  0  0  0  0  0  0  0  0  0
   -3.1317    2.7924    2.6226 C   0  0  0  0  0  0  0  0  0  0  0  0
   -3.2373    4.2186    2.2309 C   0  0  0  0  0  0  0  0  0  0  0  0
   -3.9076    4.6539    1.2740 O   0  0  0  0  0  0  0  0  0  0  0  0
   -2.5042    5.1544    3.0260 N   0  0  0  0  0  0  0  0  0  0  0  0
    1.2515    2.5565   -0.6458 C   0  0  0  0  0  0  0  0  0  0  0  0
    0.7589    3.2848   -1.8489 C   0  0  0  0  0  0  0  0  0  0  0  0
   -0.3740    3.0632   -2.3539 O   0  0  0  0  0  0  0  0  0  0  0  0
    1.5922    4.2648   -2.4538 N   0  0  0  0  0  0  0  0  0  0  0  0
    2.9476   -0.4100    3.3417 C   0  0  0  0  0  0  0  0  0  0  0  0
    2.9474   -1.0846    4.4537 O   0  0  0  0  0  0  0  0  0  0  0  0
    3.9458    0.5844    3.2840 N   0  0  0  0  0  0  0  0  0  0  0  0
    4.7554    0.7519    4.4761 C   0  0  0  0  0  0  0  0  0  0  0  0
    5.9909    0.0115    4.6437 C   0  0  0  0  0  0  0  0  0  0  0  0
    5.9552   -1.1652    5.4027 C   0  0  0  0  0  0  0  0  0  0  0  0
    7.0875   -1.9409    5.6097 C   0  0  0  0  0  0  0  0  0  0  0  0
    8.2925   -1.6044    5.0902 C   0  0  0  0  0  0  0  0  0  0  0  0
    8.3662   -0.4485    4.3368 C   0  0  0  0  0  0  0  0  0  0  0  0
    7.2204    0.3414    4.1248 C   0  0  0  0  0  0  0  0  0  0  0  0
    7.4862    1.5901    3.3570 C   0  0  0  0  0  0  0  0  0  0  0  0
    4.1687    1.4491    2.1343 C   0  0  0  0  0  0  0  0  0  0  0  0
    5.0877    0.8079    1.1831 C   0  0  0  0  0  0  0  0  0  0  0  0
    5.5311   -0.3470    1.4377 O   0  0  0  0  0  0  0  0  0  0  0  0
    5.5147    1.4238   -0.0238 N   0  0  0  0  0  0  0  0  0  0  0  0
    6.4533    0.6822   -0.9106 C   0  0  2  0  0  0  0  0  0  0  0  0
    7.7363    1.4176   -0.8453 C   0  0  0  0  0  0  0  0  0  0  0  0
    7.7027    2.5468   -0.2664 O   0  0  0  0  0  0  0  0  0  0  0  0
    8.9681    0.9701   -1.3614 N   0  0  0  0  0  0  0  0  0  0  0  0
   10.1202    1.8316   -1.2057 C   0  0  0  0  0  0  0  0  0  0  0  0
   11.2890    1.1205   -1.8348 C   0  0  0  0  0  0  0  0  0  0  0  0
   12.4351    1.6258   -1.8473 O   0  0  0  0  0  0  0  0  0  0  0  0
   11.1278   -0.1619   -2.4409 N   0  0  0  0  0  0  0  0  0  0  0  0
    5.8490    0.6009   -2.2781 C   0  0  0  0  0  0  0  0  0  0  0  0
    6.6373   -0.1009   -3.3225 C   0  0  0  0  0  0  0  0  0  0  0  0
    5.7979   -0.0569   -4.6140 C   0  0  0  0  0  0  0  0  0  0  0  0
    6.9447   -1.5242   -3.0229 C   0  0  0  0  0  0  0  0  0  0  0  0
   -7.0106   -4.1905   -1.0143 C   0  0  0  0  0  0  0  0  0  0  0  0
   -7.9122   -3.9958   -2.1325 C   0  0  0  0  0  0  0  0  0  0  0  0
   -9.1443   -3.3795   -1.8670 C   0  0  0  0  0  0  0  0  0  0  0  0
  -10.0922   -3.1956   -2.8444 C   0  0  0  0  0  0  0  0  0  0  0  0
   -9.8558   -3.6151   -4.1261 C   0  0  0  0  0  0  0  0  0  0  0  0
   -8.6558   -4.2174   -4.3996 C   0  0  0  0  0  0  0  0  0  0  0  0
   -7.6710   -4.4216   -3.4390 C   0  0  0  0  0  0  0  0  0  0  0  0
  -10.8537   -3.4027   -5.0762 O   0  0  0  0  0  0  0  0  0  0  0  0
   -8.3868    2.4009   -1.0274 C   0  0  0  0  0  0  0  0  0  0  0  0
   -7.8478    0.3319   -4.2026 H   0  0  0  0  0  0  0  0  0  0  0  0
   -9.4215    1.1609   -4.3369 H   0  0  0  0  0  0  0  0  0  0  0  0
   -8.0078    1.9915   -3.5384 H   0  0  0  0  0  0  0  0  0  0  0  0
   -8.8512   -0.6491   -2.4453 H   0  0  0  0  0  0  0  0  0  0  0  0
  -10.1067    0.6390   -2.1858 H   0  0  0  0  0  0  0  0  0  0  0  0
   -8.6227    0.4322   -0.3196 H   0  0  0  0  0  0  0  0  0  0  0  0
   -6.5954    0.7952   -2.6055 H   0  0  0  0  0  0  0  0  0  0  0  0
   -6.7417   -1.4584   -2.4507 H   0  0  0  0  0  0  0  0  0  0  0  0
   -5.1135   -3.3105   -1.5031 H   0  0  0  0  0  0  0  0  0  0  0  0
   -5.7025   -4.4138    1.1541 H   0  0  0  0  0  0  0  0  0  0  0  0
   -3.8063   -4.5508    2.6813 H   0  0  0  0  0  0  0  0  0  0  0  0
   -2.3820   -4.7225    1.6055 H   0  0  0  0  0  0  0  0  0  0  0  0
   -3.0713   -2.4129    3.4680 H   0  0  0  0  0  0  0  0  0  0  0  0
   -1.7318   -3.5454    3.4843 H   0  0  0  0  0  0  0  0  0  0  0  0
    2.7897   -2.5722    1.5336 H   0  0  0  0  0  0  0  0  0  0  0  0
    1.7362   -2.9560    2.9872 H   0  0  0  0  0  0  0  0  0  0  0  0
    0.9317   -0.6972    3.0021 H   0  0  0  0  0  0  0  0  0  0  0  0
    2.4625   -0.0863    0.3979 H   0  0  0  0  0  0  0  0  0  0  0  0
    0.0211    0.8408   -0.9498 H   0  0  0  0  0  0  0  0  0  0  0  0
   -1.0894    3.0805    0.6828 H   0  0  0  0  0  0  0  0  0  0  0  0
   -3.9059    2.8109   -0.1313 H   0  0  0  0  0  0  0  0  0  0  0  0
   -4.2415   -0.0828   -0.4440 H   0  0  0  0  0  0  0  0  0  0  0  0
   -3.8341    0.8417    2.2427 H   0  0  0  0  0  0  0  0  0  0  0  0
   -5.0078    2.1650    1.8589 H   0  0  0  0  0  0  0  0  0  0  0  0
   -2.0853    2.4559    2.6821 H   0  0  0  0  0  0  0  0  0  0  0  0
   -3.5615    2.6906    3.6875 H   0  0  0  0  0  0  0  0  0  0  0  0
   -2.6094    5.2016    4.0690 H   0  0  0  0  0  0  0  0  0  0  0  0
   -1.8327    5.8190    2.5304 H   0  0  0  0  0  0  0  0  0  0  0  0
    2.2630    2.1431   -0.8131 H   0  0  0  0  0  0  0  0  0  0  0  0
    1.3941    3.3337    0.1605 H   0  0  0  0  0  0  0  0  0  0  0  0
    2.1708    4.9557   -1.9358 H   0  0  0  0  0  0  0  0  0  0  0  0
    1.6117    4.2755   -3.5181 H   0  0  0  0  0  0  0  0  0  0  0  0
    5.0410    1.8441    4.4778 H   0  0  0  0  0  0  0  0  0  0  0  0
    4.1308    0.6589    5.3989 H   0  0  0  0  0  0  0  0  0  0  0  0
    5.0623   -1.5296    5.8843 H   0  0  0  0  0  0  0  0  0  0  0  0
    7.0237   -2.8566    6.2107 H   0  0  0  0  0  0  0  0  0  0  0  0
    9.1433   -2.2450    5.2896 H   0  0  0  0  0  0  0  0  0  0  0  0
    9.3285   -0.1720    3.9189 H   0  0  0  0  0  0  0  0  0  0  0  0
    8.5033    1.9704    3.6711 H   0  0  0  0  0  0  0  0  0  0  0  0
    7.6102    1.3946    2.2747 H   0  0  0  0  0  0  0  0  0  0  0  0
    6.7940    2.3858    3.6215 H   0  0  0  0  0  0  0  0  0  0  0  0
    3.2511    1.7722    1.6248 H   0  0  0  0  0  0  0  0  0  0  0  0
    4.7213    2.3476    2.5338 H   0  0  0  0  0  0  0  0  0  0  0  0
    5.1800    2.3773   -0.2825 H   0  0  0  0  0  0  0  0  0  0  0  0
    6.5513   -0.3378   -0.5026 H   0  0  0  0  0  0  0  0  0  0  0  0
    9.0458    0.0438   -1.8223 H   0  0  0  0  0  0  0  0  0  0  0  0
   10.3210    2.0411   -0.1526 H   0  0  0  0  0  0  0  0  0  0  0  0
    9.9052    2.7473   -1.7925 H   0  0  0  0  0  0  0  0  0  0  0  0
   11.2703   -0.3085   -3.4808 H   0  0  0  0  0  0  0  0  0  0  0  0
   10.8609   -0.9583   -1.8120 H   0  0  0  0  0  0  0  0  0  0  0  0
    5.7277    1.6671   -2.6219 H   0  0  0  0  0  0  0  0  0  0  0  0
    4.8099    0.2207   -2.1855 H   0  0  0  0  0  0  0  0  0  0  0  0
    7.5653    0.4825   -3.5238 H   0  0  0  0  0  0  0  0  0  0  0  0
    5.0970    0.8159   -4.6100 H   0  0  0  0  0  0  0  0  0  0  0  0
    5.1689   -0.9602   -4.7294 H   0  0  0  0  0  0  0  0  0  0  0  0
    6.4890    0.0716   -5.4739 H   0  0  0  0  0  0  0  0  0  0  0  0
    6.8302   -1.7850   -1.9475 H   0  0  0  0  0  0  0  0  0  0  0  0
    6.3899   -2.1818   -3.6998 H   0  0  0  0  0  0  0  0  0  0  0  0
    8.0448   -1.6902   -3.2398 H   0  0  0  0  0  0  0  0  0  0  0  0
   -7.6450   -4.3781   -0.0861 H   0  0  0  0  0  0  0  0  0  0  0  0
   -6.5207   -5.2200   -1.2268 H   0  0  0  0  0  0  0  0  0  0  0  0
   -9.3512   -3.0403   -0.8656 H   0  0  0  0  0  0  0  0  0  0  0  0
  -11.0277   -2.7036   -2.5461 H   0  0  0  0  0  0  0  0  0  0  0  0
   -8.5023   -4.5378   -5.4338 H   0  0  0  0  0  0  0  0  0  0  0  0
   -6.7339   -4.8907   -3.6582 H   0  0  0  0  0  0  0  0  0  0  0  0
  -11.8346   -3.6044   -4.8305 H   0  0  0  0  0  0  0  0  0  0  0  0
   -8.2135    2.6780    0.0111 H   0  0  0  0  0  0  0  0  0  0  0  0
   -7.9003    3.0362   -1.7876 H   0  0  0  0  0  0  0  0  0  0  0  0
   -9.4973    2.6060   -1.1831 H   0  0  0  0  0  0  0  0  0  0  0  0
  1  2  1  0
  2  3  1  0
  3  4  1  0
  4  5  1  0
  5  6  1  0
  6  7  2  0
  6  8  1  0
  8  9  1  0
  9 10  1  0
 10 11  2  0
 10 12  1  0
 12 13  1  0
 13 14  1  0
 14 15  1  0
 15 16  1  0
 16 17  1  0
 17 18  1  0
 18 19  1  0
 19 20  2  0
 19 21  1  0
 21 22  1  0
 22 23  1  0
 23 24  2  0
 23 25  1  0
 25 26  1  0
 26 27  1  0
 27 28  2  0
 25 29  1  0
 29 30  1  0
 30 31  1  0
 31 32  2  0
 31 33  1  0
 21 34  1  0
 34 35  1  0
 35 36  2  0
 35 37  1  0
 17 38  1  0
 38 39  2  0
 38 40  1  0
 40 41  1  0
 41 42  1  0
 42 43  2  0
 43 44  1  0
 44 45  2  0
 45 46  1  0
 46 47  2  0
 47 48  1  0
 40 49  1  0
 49 50  1  0
 50 51  2  0
 50 52  1  0
 52 53  1  0
 53 54  1  0
 54 55  2  0
 54 56  1  0
 56 57  1  0
 57 58  1  0
 58 59  2  0
 58 60  1  0
 53 61  1  0
 61 62  1  0
 62 63  1  0
 62 64  1  0
  8 65  1  0
 65 66  1  0
 66 67  2  0
 67 68  1  0
 68 69  2  0
 69 70  1  0
 70 71  2  0
 69 72  1  0
  3 73  1  0
 27  4  1  0
 47 42  1  0
 71 66  1  0
  1 74  1  0
  1 75  1  0
  1 76  1  0
  2 77  1  0
  2 78  1  0
  3 79  1  1
  4 80  1  6
  5 81  1  0
  8 82  1  6
  9 83  1  0
 12 84  1  0
 12 85  1  0
 13 86  1  0
 13 87  1  0
 16 88  1  0
 16 89  1  0
 17 90  1  1
 18 91  1  0
 21 92  1  6
 22 93  1  0
 25 94  1  6
 26 95  1  0
 29 96  1  0
 29 97  1  0
 30 98  1  0
 30 99  1  0
 33100  1  0
 33101  1  0
 34102  1  0
 34103  1  0
 37104  1  0
 37105  1  0
 41106  1  0
 41107  1  0
 43108  1  0
 44109  1  0
 45110  1  0
 46111  1  0
 48112  1  0
 48113  1  0
 48114  1  0
 49115  1  0
 49116  1  0
 52117  1  0
 53118  1  1
 56119  1  0
 57120  1  0
 57121  1  0
 60122  1  0
 60123  1  0
 61124  1  0
 61125  1  0
 62126  1  0
 63127  1  0
 63128  1  0
 63129  1  0
 64130  1  0
 64131  1  0
 64132  1  0
 65133  1  0
 65134  1  0
 67135  1  0
 68136  1  0
 70137  1  0
 71138  1  0
 72139  1  0
 73140  1  0
 73141  1  0
 73142  1  0
M  END
>  <Ligand ID>  (1) 
LIG0001636

>  <Ligand>  (1) 
CHEMBL3353945

>  <SMILES>  (1) 
CC[C@@H]([C@@H]1NC(=O)[C@@H](NC(=O)CCSSC[C@H](NC(=O)[C@@H](NC(=O)[C@@H](NC1=O)CCC(=O)N)CC(=O)N)C(=O)N(Cc1ccccc1C)CC(=O)N[C@H](C(=O)NCC(=O)N)CC(C)C)Cc1ccc(cc1)O)C

>  <CID>  (1) 
118719834.0

>  <ChEMBL ID>  (1) 
nan

>  <InChiKey>  (1) 
ZHUJORNLGMGOIX-NIFJBHDKSA-N

>  <InChi>  (1) 
InChI=1S/C48H69N11O12S2/c1-6-27(4)42-47(70)55-32(15-16-37(49)61)44(67)56-35(21-38(50)62)45(68)57-36(25-73-72-18-17-40(64)53-34(46(69)58-42)20-29-11-13-31(60)14-12-29)48(71)59(23-30-10-8-7-9-28(30)5)24-41(65)54-33(19-26(2)3)43(66)52-22-39(51)63/h7-14,26-27,32-36,42,60H,6,15-25H2,1-5H3,(H2,49,61)(H2,50,62)(H2,51,63)(H,52,66)(H,53,64)(H,54,65)(H,55,70)(H,56,67)(H,57,68)(H,58,69)/t27-,32-,33-,34-,35-,36-,42-/m0/s1

>  <IUPAC Name>  (1) 
(4R,7S,10S,13S,16S)-7-(2-amino-2-oxoethyl)-N-[2-[[(2S)-1-[(2-amino-2-oxoethyl)amino]-4-methyl-1-oxopentan-2-yl]amino]-2-oxoethyl]-10-(3-amino-3-oxopropyl)-13-[(2S)-butan-2-yl]-16-[(4-hydroxyphenyl)methyl]-N-[(2-methylphenyl)methyl]-6,9,12,15,18-pentaoxo-1,2-dithia-5,8,11,14,17-pentazacycloicosane-4-carboxamide

$$$$
