
     RDKit          3D

 59 63  0  0  0  0  0  0  0  0999 V2000
   10.0399   -0.0780   -1.4896 Cl  0  0  0  0  0  0  0  0  0  0  0  0
    8.3176   -0.0797   -1.1884 C   0  0  0  0  0  0  0  0  0  0  0  0
    7.4049    0.0378   -2.2204 C   0  0  0  0  0  0  0  0  0  0  0  0
    6.0513    0.0298   -1.9161 C   0  0  0  0  0  0  0  0  0  0  0  0
    5.6620   -0.0958   -0.5874 C   0  0  0  0  0  0  0  0  0  0  0  0
    6.5672   -0.2131    0.4442 C   0  0  0  0  0  0  0  0  0  0  0  0
    7.9109   -0.2045    0.1358 C   0  0  0  0  0  0  0  0  0  0  0  0
    5.8242   -0.3117    1.5601 N   0  0  0  0  0  0  0  0  0  0  0  0
    4.5257   -0.2579    1.2336 C   0  0  0  0  0  0  0  0  0  0  0  0
    3.6041   -0.3288    2.0993 O   0  0  0  0  0  0  0  0  0  0  0  0
    4.4067   -0.1236   -0.0996 N   0  0  0  0  0  0  0  0  0  0  0  0
    3.1636   -0.0324   -0.8127 C   0  0  0  0  0  0  0  0  0  0  0  0
    2.2396    1.0417   -0.2506 C   0  0  0  0  0  0  0  0  0  0  0  0
    0.9406    0.9069   -1.0389 C   0  0  0  0  0  0  0  0  0  0  0  0
    0.2160   -0.1927   -0.4797 N   0  0  0  0  0  0  0  0  0  0  0  0
    1.0724   -1.3011   -0.1873 C   0  0  0  0  0  0  0  0  0  0  0  0
    2.3869   -1.3032   -0.8996 C   0  0  0  0  0  0  0  0  0  0  0  0
   -0.6157    0.1864    0.6479 C   0  0  0  0  0  0  0  0  0  0  0  0
   -1.3708   -0.9822    1.2240 C   0  0  0  0  0  0  0  0  0  0  0  0
   -2.8363   -0.9251    0.7697 C   0  0  0  0  0  0  0  0  0  0  0  0
   -3.3746    0.2361    1.3752 N   0  0  0  0  0  0  0  0  0  0  0  0
   -2.7201    1.4640    1.1576 C   0  0  0  0  0  0  0  0  0  0  0  0
   -1.4992    1.3334    0.2770 C   0  0  0  0  0  0  0  0  0  0  0  0
   -4.9691    0.2156    1.8466 S   0  0  0  0  0  0  0  0  0  0  0  0
   -5.1517   -0.9075    2.8530 O   0  0  0  0  0  0  0  0  0  0  0  0
   -5.2856    1.4916    2.5791 O   0  0  0  0  0  0  0  0  0  0  0  0
   -6.1602   -0.0166    0.6200 C   0  0  0  0  0  0  0  0  0  0  0  0
   -6.6320   -1.2713    0.2290 C   0  0  0  0  0  0  0  0  0  0  0  0
   -7.5781   -1.4296   -0.7474 C   0  0  0  0  0  0  0  0  0  0  0  0
   -8.0880   -0.3127   -1.3716 C   0  0  0  0  0  0  0  0  0  0  0  0
   -7.6555    0.9514   -1.0226 C   0  0  0  0  0  0  0  0  0  0  0  0
   -6.6989    1.0623   -0.0313 C   0  0  0  0  0  0  0  0  0  0  0  0
    7.7311    0.1333   -3.2365 H   0  0  0  0  0  0  0  0  0  0  0  0
    5.3142    0.1200   -2.7035 H   0  0  0  0  0  0  0  0  0  0  0  0
    8.6371   -0.2972    0.9497 H   0  0  0  0  0  0  0  0  0  0  0  0
    6.2253   -0.4132    2.5169 H   0  0  0  0  0  0  0  0  0  0  0  0
    3.3518    0.3023   -1.8750 H   0  0  0  0  0  0  0  0  0  0  0  0
    2.6319    2.0539   -0.4609 H   0  0  0  0  0  0  0  0  0  0  0  0
    2.0394    0.8795    0.8161 H   0  0  0  0  0  0  0  0  0  0  0  0
    1.2099    0.6134   -2.0920 H   0  0  0  0  0  0  0  0  0  0  0  0
    0.4127    1.8585   -1.0361 H   0  0  0  0  0  0  0  0  0  0  0  0
    0.5401   -2.2363   -0.5243 H   0  0  0  0  0  0  0  0  0  0  0  0
    1.2821   -1.3141    0.9006 H   0  0  0  0  0  0  0  0  0  0  0  0
    2.2115   -1.6422   -1.9451 H   0  0  0  0  0  0  0  0  0  0  0  0
    2.9970   -2.1156   -0.4198 H   0  0  0  0  0  0  0  0  0  0  0  0
    0.0988    0.5648    1.4217 H   0  0  0  0  0  0  0  0  0  0  0  0
   -1.4194   -0.8320    2.3319 H   0  0  0  0  0  0  0  0  0  0  0  0
   -0.9439   -1.9629    1.0423 H   0  0  0  0  0  0  0  0  0  0  0  0
   -3.3697   -1.8087    1.1465 H   0  0  0  0  0  0  0  0  0  0  0  0
   -2.8266   -0.8805   -0.3484 H   0  0  0  0  0  0  0  0  0  0  0  0
   -3.3095    2.3022    0.7879 H   0  0  0  0  0  0  0  0  0  0  0  0
   -2.3164    1.8044    2.1565 H   0  0  0  0  0  0  0  0  0  0  0  0
   -1.8056    1.3071   -0.7823 H   0  0  0  0  0  0  0  0  0  0  0  0
   -0.9563    2.3153    0.4065 H   0  0  0  0  0  0  0  0  0  0  0  0
   -6.1998   -2.1168    0.7501 H   0  0  0  0  0  0  0  0  0  0  0  0
   -7.9422   -2.4043   -1.0485 H   0  0  0  0  0  0  0  0  0  0  0  0
   -8.8433   -0.3728   -2.1566 H   0  0  0  0  0  0  0  0  0  0  0  0
   -8.0651    1.8194   -1.5218 H   0  0  0  0  0  0  0  0  0  0  0  0
   -6.3829    2.0871    0.2154 H   0  0  0  0  0  0  0  0  0  0  0  0
  1  2  1  0
  2  3  2  0
  3  4  1  0
  4  5  2  0
  5  6  1  0
  6  7  2  0
  6  8  1  0
  8  9  1  0
  9 10  2  0
  9 11  1  0
 11 12  1  0
 12 13  1  0
 13 14  1  0
 14 15  1  0
 15 16  1  0
 16 17  1  0
 15 18  1  0
 18 19  1  0
 19 20  1  0
 20 21  1  0
 21 22  1  0
 22 23  1  0
 21 24  1  0
 24 25  2  0
 24 26  2  0
 24 27  1  0
 27 28  2  0
 28 29  1  0
 29 30  2  0
 30 31  1  0
 31 32  2  0
  7  2  1  0
 17 12  1  0
 23 18  1  0
 32 27  1  0
 11  5  1  0
  3 33  1  0
  4 34  1  0
  7 35  1  0
  8 36  1  0
 12 37  1  0
 13 38  1  0
 13 39  1  0
 14 40  1  0
 14 41  1  0
 16 42  1  0
 16 43  1  0
 17 44  1  0
 17 45  1  0
 18 46  1  0
 19 47  1  0
 19 48  1  0
 20 49  1  0
 20 50  1  0
 22 51  1  0
 22 52  1  0
 23 53  1  0
 23 54  1  0
 28 55  1  0
 29 56  1  0
 30 57  1  0
 31 58  1  0
 32 59  1  0
M  END
>  <Ligand ID>  (1) 
LIG0000857

>  <Ligand>  (1) 
CHEMBL521030

>  <SMILES>  (1) 
Clc1ccc2c(c1)[nH]c(=O)n2C1CCN(CC1)C1CCN(CC1)S(=O)(=O)c1ccccc1

>  <CID>  (1) 
44589596.0

>  <ChEMBL ID>  (1) 
nan

>  <InChiKey>  (1) 
FNIWYWIHLOTVQU-UHFFFAOYSA-N

>  <InChi>  (1) 
InChI=1S/C23H27ClN4O3S/c24-17-6-7-22-21(16-17)25-23(29)28(22)19-8-12-26(13-9-19)18-10-14-27(15-11-18)32(30,31)20-4-2-1-3-5-20/h1-7,16,18-19H,8-15H2,(H,25,29)

>  <IUPAC Name>  (1) 
3-[1-[1-(benzenesulfonyl)piperidin-4-yl]piperidin-4-yl]-6-chloro-1H-benzimidazol-2-one

$$$$
