
     RDKit          3D

148154  0  0  0  0  0  0  0  0999 V2000
    7.3531   -3.4537    1.7000 C   0  0  0  0  0  0  0  0  0  0  0  0
    7.9473   -2.3615    0.7725 C   0  0  0  0  0  0  0  0  0  0  0  0
    7.9779   -2.9929   -0.5877 C   0  0  0  0  0  0  0  0  0  0  0  0
    8.5380   -2.1423   -1.6463 C   0  0  0  0  0  0  0  0  0  0  0  0
    7.7833   -0.8901   -1.9098 C   0  0  1  0  0  0  0  0  0  0  0  0
    6.3978   -1.0514   -2.3676 C   0  0  0  0  0  0  0  0  0  0  0  0
    6.2484   -1.4254   -3.5973 O   0  0  0  0  0  0  0  0  0  0  0  0
    5.2157   -0.8439   -1.6315 N   0  0  0  0  0  0  0  0  0  0  0  0
    3.8936   -0.9942   -2.2067 C   0  0  1  0  0  0  0  0  0  0  0  0
    3.0632   -2.1013   -1.6492 C   0  0  0  0  0  0  0  0  0  0  0  0
    3.6570   -3.4521   -1.6217 C   0  0  0  0  0  0  0  0  0  0  0  0
    4.7246   -3.8271   -2.0422 O   0  0  0  0  0  0  0  0  0  0  0  0
    2.8401   -4.4578   -0.9737 N   0  0  0  0  0  0  0  0  0  0  0  0
    3.2527   -5.8062   -0.7423 C   0  0  0  0  0  0  0  0  0  0  0  0
    2.3081   -6.6691    0.0157 C   0  0  0  0  0  0  0  0  0  0  0  0
    1.9414   -6.2320    1.3947 C   0  0  0  0  0  0  0  0  0  0  0  0
    1.1249   -4.9589    1.4820 C   0  0  0  0  0  0  0  0  0  0  0  0
   -0.1982   -5.0478    0.8767 C   0  0  2  0  0  0  0  0  0  0  0  0
   -0.8428   -3.7910    0.5178 N   0  0  0  0  0  0  0  0  0  0  0  0
   -2.1299   -3.9557   -0.1236 C   0  0  0  0  0  0  0  0  0  0  0  0
   -2.4807   -5.1568   -0.1827 O   0  0  0  0  0  0  0  0  0  0  0  0
   -3.0061   -2.9435   -0.6615 C   0  0  1  0  0  0  0  0  0  0  0  0
   -2.5528   -1.5817   -0.8182 N   0  0  0  0  0  0  0  0  0  0  0  0
   -3.2514   -0.5242   -0.2065 C   0  0  0  0  0  0  0  0  0  0  0  0
   -4.2498   -0.9590    0.5191 O   0  0  0  0  0  0  0  0  0  0  0  0
   -3.1440    0.9088   -0.1778 C   0  0  1  0  0  0  0  0  0  0  0  0
   -2.1714    1.7216   -0.7511 N   0  0  0  0  0  0  0  0  0  0  0  0
   -1.1066    2.4058   -0.0382 C   0  0  0  0  0  0  0  0  0  0  0  0
   -0.8105    1.9202    1.0416 O   0  0  0  0  0  0  0  0  0  0  0  0
   -0.4472    3.6180   -0.6588 C   0  0  2  0  0  0  0  0  0  0  0  0
    0.9105    3.8045   -0.4095 N   0  0  0  0  0  0  0  0  0  0  0  0
    1.9836    2.9813   -1.0455 C   0  0  0  0  0  0  0  0  0  0  0  0
    1.6833    2.8547   -2.2255 O   0  0  0  0  0  0  0  0  0  0  0  0
    3.1798    2.4301   -0.4064 C   0  0  0  0  0  0  0  0  0  0  0  0
    3.7957    1.3002   -1.0154 N   0  0  0  0  0  0  0  0  0  0  0  0
    3.1751    0.2698   -1.7376 C   0  0  0  0  0  0  0  0  0  0  0  0
    1.9954    0.3552   -2.0224 O   0  0  0  0  0  0  0  0  0  0  0  0
    4.1786    3.5588   -0.2384 C   0  0  0  0  0  0  0  0  0  0  0  0
    3.6837    4.8669   -0.7700 C   0  0  0  0  0  0  0  0  0  0  0  0
    4.5313    5.4856   -1.6430 C   0  0  0  0  0  0  0  0  0  0  0  0
    4.1367    6.7019   -2.1894 C   0  0  0  0  0  0  0  0  0  0  0  0
    2.9473    7.3244   -1.9035 C   0  0  0  0  0  0  0  0  0  0  0  0
    2.1014    6.6843   -1.0138 C   0  0  0  0  0  0  0  0  0  0  0  0
    2.4767    5.5063   -0.4835 C   0  0  0  0  0  0  0  0  0  0  0  0
    1.4212    4.8647    0.4293 C   0  0  0  0  0  0  0  0  0  0  0  0
   -1.4007    4.7807   -0.4597 C   0  0  0  0  0  0  0  0  0  0  0  0
   -1.7619    5.1717    0.8976 C   0  0  0  0  0  0  0  0  0  0  0  0
   -2.5403    4.3488    1.7190 C   0  0  0  0  0  0  0  0  0  0  0  0
   -2.9184    4.7436    3.0145 C   0  0  0  0  0  0  0  0  0  0  0  0
   -2.5496    5.9552    3.5347 C   0  0  0  0  0  0  0  0  0  0  0  0
   -1.7947    6.7757    2.7460 C   0  0  0  0  0  0  0  0  0  0  0  0
   -1.4183    6.4014    1.4876 C   0  0  0  0  0  0  0  0  0  0  0  0
   -1.4011    7.9812    3.2599 C   0  0  0  0  0  0  0  0  0  0  0  0
   -1.7574    8.3532    4.5351 C   0  0  0  0  0  0  0  0  0  0  0  0
   -2.5160    7.5419    5.3482 C   0  0  0  0  0  0  0  0  0  0  0  0
   -2.9264    6.3033    4.8351 C   0  0  0  0  0  0  0  0  0  0  0  0
   -4.4753    1.3441   -0.9211 C   0  0  0  0  0  0  0  0  0  0  0  0
   -4.6087    2.7914   -1.0917 C   0  0  0  0  0  0  0  0  0  0  0  0
   -5.9725    3.0869   -1.7504 C   0  0  0  0  0  0  0  0  0  0  0  0
   -6.9932    2.4996   -0.9359 N   0  0  0  0  0  0  0  0  0  0  0  0
   -7.0847    2.4588    0.3152 C   0  0  0  0  0  0  0  0  0  0  0  0
   -6.1541    3.0160    1.2540 N   0  0  0  0  0  0  0  0  0  0  0  0
   -8.2208    1.8122    0.8939 N   0  0  0  0  0  0  0  0  0  0  0  0
   -3.7845   -3.4616   -1.8784 C   0  0  0  0  0  0  0  0  0  0  0  0
   -4.6579   -4.5765   -1.5436 C   0  0  0  0  0  0  0  0  0  0  0  0
   -4.5646   -5.9347   -1.6695 C   0  0  0  0  0  0  0  0  0  0  0  0
   -5.5897   -6.6054   -1.1795 N   0  0  0  0  0  0  0  0  0  0  0  0
   -6.4495   -5.6699   -0.6922 C   0  0  0  0  0  0  0  0  0  0  0  0
   -5.9007   -4.3944   -0.9036 C   0  0  0  0  0  0  0  0  0  0  0  0
   -6.5876   -3.2516   -0.4995 C   0  0  0  0  0  0  0  0  0  0  0  0
   -7.8322   -3.3337    0.1368 C   0  0  0  0  0  0  0  0  0  0  0  0
   -8.3003   -4.6321    0.3090 C   0  0  0  0  0  0  0  0  0  0  0  0
   -7.6995   -5.7593   -0.0584 C   0  0  0  0  0  0  0  0  0  0  0  0
   -1.1372   -5.4717    2.0760 C   0  0  0  0  0  0  0  0  0  0  0  0
   -2.0158   -4.6711    2.3323 O   0  0  0  0  0  0  0  0  0  0  0  0
   -0.8017   -6.7023    2.6400 N   0  0  0  0  0  0  0  0  0  0  0  0
    7.8208   -0.0976   -0.6928 N   0  0  0  0  0  0  0  0  0  0  0  0
    8.1846   -4.1521    1.9519 H   0  0  0  0  0  0  0  0  0  0  0  0
    6.9644   -2.9270    2.5856 H   0  0  0  0  0  0  0  0  0  0  0  0
    6.5363   -3.9190    1.0999 H   0  0  0  0  0  0  0  0  0  0  0  0
    8.9343   -2.0549    1.1514 H   0  0  0  0  0  0  0  0  0  0  0  0
    7.2417   -1.5226    0.8836 H   0  0  0  0  0  0  0  0  0  0  0  0
    8.5685   -3.9582   -0.5307 H   0  0  0  0  0  0  0  0  0  0  0  0
    6.9149   -3.3028   -0.7726 H   0  0  0  0  0  0  0  0  0  0  0  0
    9.5805   -1.8106   -1.3519 H   0  0  0  0  0  0  0  0  0  0  0  0
    8.6682   -2.7096   -2.6148 H   0  0  0  0  0  0  0  0  0  0  0  0
    8.2925   -0.2925   -2.7420 H   0  0  0  0  0  0  0  0  0  0  0  0
    5.3614   -0.5728   -0.6075 H   0  0  0  0  0  0  0  0  0  0  0  0
    3.8705   -1.0419   -3.2773 H   0  0  0  0  0  0  0  0  0  0  0  0
    2.7126   -1.8333   -0.5852 H   0  0  0  0  0  0  0  0  0  0  0  0
    2.0906   -2.1506   -2.2015 H   0  0  0  0  0  0  0  0  0  0  0  0
    1.9091   -4.1489   -0.7378 H   0  0  0  0  0  0  0  0  0  0  0  0
    3.4757   -6.3560   -1.7041 H   0  0  0  0  0  0  0  0  0  0  0  0
    4.2435   -5.8256   -0.1765 H   0  0  0  0  0  0  0  0  0  0  0  0
    1.4472   -6.9054   -0.6268 H   0  0  0  0  0  0  0  0  0  0  0  0
    2.8478   -7.6498    0.1480 H   0  0  0  0  0  0  0  0  0  0  0  0
    2.8922   -6.0467    1.9576 H   0  0  0  0  0  0  0  0  0  0  0  0
    1.3992   -7.0192    1.9589 H   0  0  0  0  0  0  0  0  0  0  0  0
    1.6519   -4.0299    1.3303 H   0  0  0  0  0  0  0  0  0  0  0  0
    0.9545   -4.9021    2.6431 H   0  0  0  0  0  0  0  0  0  0  0  0
   -0.4311   -5.8757    0.1897 H   0  0  0  0  0  0  0  0  0  0  0  0
   -0.5305   -2.8567    0.6415 H   0  0  0  0  0  0  0  0  0  0  0  0
   -3.9060   -2.9159    0.1062 H   0  0  0  0  0  0  0  0  0  0  0  0
   -1.7347   -1.3427   -1.3660 H   0  0  0  0  0  0  0  0  0  0  0  0
   -3.3083    1.2348    0.9401 H   0  0  0  0  0  0  0  0  0  0  0  0
   -2.1286    1.8772   -1.7659 H   0  0  0  0  0  0  0  0  0  0  0  0
   -0.5905    3.3989   -1.7802 H   0  0  0  0  0  0  0  0  0  0  0  0
    2.9379    2.0881    0.6584 H   0  0  0  0  0  0  0  0  0  0  0  0
    4.8258    1.2247   -0.9475 H   0  0  0  0  0  0  0  0  0  0  0  0
    4.2574    3.7444    0.8748 H   0  0  0  0  0  0  0  0  0  0  0  0
    5.1838    3.2963   -0.5606 H   0  0  0  0  0  0  0  0  0  0  0  0
    5.4967    5.0293   -1.9038 H   0  0  0  0  0  0  0  0  0  0  0  0
    4.7828    7.2386   -2.8988 H   0  0  0  0  0  0  0  0  0  0  0  0
    2.6691    8.2949   -2.3493 H   0  0  0  0  0  0  0  0  0  0  0  0
    1.1419    7.0949   -0.7357 H   0  0  0  0  0  0  0  0  0  0  0  0
    2.0501    4.4319    1.2660 H   0  0  0  0  0  0  0  0  0  0  0  0
    0.7981    5.5681    0.8473 H   0  0  0  0  0  0  0  0  0  0  0  0
   -2.3198    4.5563   -1.0095 H   0  0  0  0  0  0  0  0  0  0  0  0
   -0.9293    5.6439   -0.9852 H   0  0  0  0  0  0  0  0  0  0  0  0
   -2.9005    3.4007    1.4217 H   0  0  0  0  0  0  0  0  0  0  0  0
   -3.5192    4.1000    3.6488 H   0  0  0  0  0  0  0  0  0  0  0  0
   -0.8393    7.1136    0.9142 H   0  0  0  0  0  0  0  0  0  0  0  0
   -0.8197    8.6395    2.6644 H   0  0  0  0  0  0  0  0  0  0  0  0
   -1.4430    9.2984    4.9352 H   0  0  0  0  0  0  0  0  0  0  0  0
   -2.8101    7.8013    6.3602 H   0  0  0  0  0  0  0  0  0  0  0  0
   -3.5316    5.6360    5.4489 H   0  0  0  0  0  0  0  0  0  0  0  0
   -4.4805    0.8229   -1.8943 H   0  0  0  0  0  0  0  0  0  0  0  0
   -5.3238    0.8944   -0.3489 H   0  0  0  0  0  0  0  0  0  0  0  0
   -4.4634    3.4489   -0.2417 H   0  0  0  0  0  0  0  0  0  0  0  0
   -3.8817    3.0819   -1.9347 H   0  0  0  0  0  0  0  0  0  0  0  0
   -6.0974    4.2077   -1.8133 H   0  0  0  0  0  0  0  0  0  0  0  0
   -5.9469    2.5987   -2.7409 H   0  0  0  0  0  0  0  0  0  0  0  0
   -5.4429    2.2768    1.5927 H   0  0  0  0  0  0  0  0  0  0  0  0
   -6.1299    3.9980    1.5663 H   0  0  0  0  0  0  0  0  0  0  0  0
   -9.0933    2.3625    0.9511 H   0  0  0  0  0  0  0  0  0  0  0  0
   -8.0943    0.8266    1.2208 H   0  0  0  0  0  0  0  0  0  0  0  0
   -4.3025   -2.5912   -2.3205 H   0  0  0  0  0  0  0  0  0  0  0  0
   -2.9807   -3.7532   -2.6053 H   0  0  0  0  0  0  0  0  0  0  0  0
   -3.7033   -6.4524   -2.1480 H   0  0  0  0  0  0  0  0  0  0  0  0
   -5.7985   -7.6110   -1.1120 H   0  0  0  0  0  0  0  0  0  0  0  0
   -6.2018   -2.2823   -0.6760 H   0  0  0  0  0  0  0  0  0  0  0  0
   -8.3536   -2.4564    0.4448 H   0  0  0  0  0  0  0  0  0  0  0  0
   -9.2918   -4.6687    0.8118 H   0  0  0  0  0  0  0  0  0  0  0  0
   -8.1588   -6.7451    0.1366 H   0  0  0  0  0  0  0  0  0  0  0  0
   -0.9747   -7.6466    2.2627 H   0  0  0  0  0  0  0  0  0  0  0  0
   -0.3023   -6.6690    3.5824 H   0  0  0  0  0  0  0  0  0  0  0  0
    8.7326    0.4232   -0.6061 H   0  0  0  0  0  0  0  0  0  0  0  0
    7.0640    0.5976   -0.6337 H   0  0  0  0  0  0  0  0  0  0  0  0
  1  2  1  0
  2  3  1  0
  3  4  1  0
  4  5  1  0
  5  6  1  0
  6  7  2  0
  6  8  1  0
  8  9  1  0
  9 10  1  0
 10 11  1  0
 11 12  2  0
 11 13  1  0
 13 14  1  0
 14 15  1  0
 15 16  1  0
 16 17  1  0
 17 18  1  0
 18 19  1  0
 19 20  1  0
 20 21  2  0
 20 22  1  0
 22 23  1  0
 23 24  1  0
 24 25  2  0
 24 26  1  0
 26 27  1  0
 27 28  1  0
 28 29  2  0
 28 30  1  0
 30 31  1  0
 31 32  1  0
 32 33  2  0
 32 34  1  0
 34 35  1  0
 35 36  1  0
 36 37  2  0
 34 38  1  0
 38 39  1  0
 39 40  2  0
 40 41  1  0
 41 42  2  0
 42 43  1  0
 43 44  2  0
 44 45  1  0
 30 46  1  0
 46 47  1  0
 47 48  2  0
 48 49  1  0
 49 50  2  0
 50 51  1  0
 51 52  2  0
 51 53  1  0
 53 54  2  0
 54 55  1  0
 55 56  2  0
 26 57  1  0
 57 58  1  0
 58 59  1  0
 59 60  1  0
 60 61  2  3
 61 62  1  0
 61 63  1  0
 22 64  1  0
 64 65  1  0
 65 66  2  0
 66 67  1  0
 67 68  1  0
 68 69  2  0
 69 70  1  0
 70 71  2  0
 71 72  1  0
 72 73  2  0
 18 74  1  0
 74 75  2  0
 74 76  1  0
  5 77  1  0
 36  9  1  0
 44 39  1  0
 52 47  1  0
 69 65  1  0
 45 31  1  0
 56 50  1  0
 73 68  1  0
  1 78  1  0
  1 79  1  0
  1 80  1  0
  2 81  1  0
  2 82  1  0
  3 83  1  0
  3 84  1  0
  4 85  1  0
  4 86  1  0
  5 87  1  6
  8 88  1  0
  9 89  1  6
 10 90  1  0
 10 91  1  0
 13 92  1  0
 14 93  1  0
 14 94  1  0
 15 95  1  0
 15 96  1  0
 16 97  1  0
 16 98  1  0
 17 99  1  0
 17100  1  0
 18101  1  6
 19102  1  0
 22103  1  1
 23104  1  0
 26105  1  1
 27106  1  0
 30107  1  6
 34108  1  0
 35109  1  0
 38110  1  0
 38111  1  0
 40112  1  0
 41113  1  0
 42114  1  0
 43115  1  0
 45116  1  0
 45117  1  0
 46118  1  0
 46119  1  0
 48120  1  0
 49121  1  0
 52122  1  0
 53123  1  0
 54124  1  0
 55125  1  0
 56126  1  0
 57127  1  0
 57128  1  0
 58129  1  0
 58130  1  0
 59131  1  0
 59132  1  0
 62133  1  0
 62134  1  0
 63135  1  0
 63136  1  0
 64137  1  0
 64138  1  0
 66139  1  0
 67140  1  0
 70141  1  0
 71142  1  0
 72143  1  0
 73144  1  0
 76145  1  0
 76146  1  0
 77147  1  0
 77148  1  0
M  END
>  <Ligand ID>  (1) 
LIG0001771

>  <Ligand>  (1) 
CHEMBL391704

>  <SMILES>  (1) 
CCCC[C@@H](C(=O)N[C@H]1CC(=O)NCCCC[C@H](NC(=O)[C@@H](NC(=O)[C@@H](NC(=O)[C@H](N2C(=O)C(NC1=O)Cc1ccccc1C2)Cc1ccc2c(c1)cccc2)CCCN=C(N)N)Cc1c[nH]c2c1cccc2)C(=O)N)N

>  <CID>  (1) 
44431513.0

>  <ChEMBL ID>  (1) 
nan

>  <InChiKey>  (1) 
QUNJOVXJJGQTDV-JREFWSLKSA-N

>  <InChi>  (1) 
InChI=1S/C56H71N13O8/c1-2-3-18-40(57)50(72)66-45-30-48(70)61-24-11-10-20-42(49(58)71)64-52(74)44(29-38-31-63-41-19-9-8-17-39(38)41)67-51(73)43(21-12-25-62-56(59)60)65-54(76)47(27-33-22-23-34-13-4-5-14-35(34)26-33)69-32-37-16-7-6-15-36(37)28-46(55(69)77)68-53(45)75/h4-9,13-17,19,22-23,26,31,40,42-47,63H,2-3,10-12,18,20-21,24-25,27-30,32,57H2,1H3,(H2,58,71)(H,61,70)(H,64,74)(H,65,76)(H,66,72)(H,67,73)(H,68,75)(H4,59,60,62)/t40-,42-,43-,44-,45-,46?,47+/m0/s1

>  <IUPAC Name>  (1) 
(2R,5S,8S,11S,19S)-19-[[(2S)-2-aminohexanoyl]amino]-5-[3-(diaminomethylideneamino)propyl]-8-(1H-indol-3-ylmethyl)-2-(naphthalen-2-ylmethyl)-3,6,9,17,20,31-hexaoxo-1,4,7,10,16,21-hexazatricyclo[20.8.1.024,29]hentriaconta-24,26,28-triene-11-carboxamide

$$$$
