
     RDKit          3D

201209  0  0  0  0  0  0  0  0999 V2000
  -13.1535    0.3261    1.7417 O   0  0  0  0  0  0  0  0  0  0  0  0
  -11.7763    0.1902    1.7924 C   0  0  0  0  0  0  0  0  0  0  0  0
  -11.2267   -0.5642    2.8144 C   0  0  0  0  0  0  0  0  0  0  0  0
   -9.8393   -0.6614    2.8044 C   0  0  0  0  0  0  0  0  0  0  0  0
   -9.0433   -0.0701    1.8711 C   0  0  0  0  0  0  0  0  0  0  0  0
   -9.6469    0.6886    0.8505 C   0  0  0  0  0  0  0  0  0  0  0  0
  -11.0335    0.8133    0.8192 C   0  0  0  0  0  0  0  0  0  0  0  0
   -7.5247   -0.1789    1.9043 C   0  0  0  0  0  0  0  0  0  0  0  0
   -7.0030   -1.3337    1.2224 C   0  0  2  0  0  0  0  0  0  0  0  0
   -5.4883   -1.4944    1.2045 N   0  0  0  0  0  0  0  0  0  0  0  0
   -4.8550   -0.4567    0.5052 C   0  0  0  0  0  0  0  0  0  0  0  0
   -5.7852    0.4430    0.2692 O   0  0  0  0  0  0  0  0  0  0  0  0
   -3.5997    0.0088   -0.0411 C   0  0  0  0  0  0  0  0  0  0  0  0
   -3.6053    1.4824   -0.3562 C   0  0  2  0  0  0  0  0  0  0  0  0
   -4.3853    2.1344   -1.2935 N   0  0  0  0  0  0  0  0  0  0  0  0
   -5.3021    1.7350   -2.2887 C   0  0  0  0  0  0  0  0  0  0  0  0
   -5.6326    0.5655   -2.5660 O   0  0  0  0  0  0  0  0  0  0  0  0
   -5.9629    2.7839   -3.1193 C   0  0  2  0  0  0  0  0  0  0  0  0
   -6.3990    4.0110   -2.4655 C   0  0  0  0  0  0  0  0  0  0  0  0
   -7.3828    3.9720   -1.4023 C   0  0  0  0  0  0  0  0  0  0  0  0
   -7.1272    3.8363   -0.0539 C   0  0  0  0  0  0  0  0  0  0  0  0
   -8.1152    3.8434    0.8945 C   0  0  0  0  0  0  0  0  0  0  0  0
   -9.4602    3.9881    0.5550 C   0  0  0  0  0  0  0  0  0  0  0  0
   -9.7344    4.1254   -0.8084 C   0  0  0  0  0  0  0  0  0  0  0  0
   -8.7338    4.1190   -1.7600 C   0  0  0  0  0  0  0  0  0  0  0  0
  -10.4540    3.9891    1.5120 O   0  0  0  0  0  0  0  0  0  0  0  0
   -6.9359    2.1319   -3.9907 N   0  0  0  0  0  0  0  0  0  0  0  0
   -2.2138    2.0081   -0.3207 C   0  0  0  0  0  0  0  0  0  0  0  0
   -1.2794    1.2957    0.0455 O   0  0  0  0  0  0  0  0  0  0  0  0
   -1.8841    3.3370   -0.6789 N   0  0  0  0  0  0  0  0  0  0  0  0
   -0.5524    3.8757   -0.8370 C   0  0  1  0  0  0  0  0  0  0  0  0
   -0.5241    5.1942   -1.4913 C   0  0  0  0  0  0  0  0  0  0  0  0
   -1.3045    6.2366   -0.8156 C   0  0  0  0  0  0  0  0  0  0  0  0
   -1.0134    7.1690    0.1376 C   0  0  0  0  0  0  0  0  0  0  0  0
   -2.0783    7.9232    0.4420 N   0  0  0  0  0  0  0  0  0  0  0  0
   -3.0737    7.4657   -0.3296 C   0  0  0  0  0  0  0  0  0  0  0  0
   -2.6303    6.4501   -1.0959 N   0  0  0  0  0  0  0  0  0  0  0  0
    0.3924    3.6085    0.2578 C   0  0  0  0  0  0  0  0  0  0  0  0
    0.1531    3.0110    1.3176 O   0  0  0  0  0  0  0  0  0  0  0  0
    1.7290    4.0695    0.1184 N   0  0  0  0  0  0  0  0  0  0  0  0
    2.8325    3.6347    1.0003 C   0  0  2  0  0  0  0  0  0  0  0  0
    3.3582    4.6088    1.9407 C   0  0  0  0  0  0  0  0  0  0  0  0
    3.9242    5.8628    1.4606 C   0  0  0  0  0  0  0  0  0  0  0  0
    3.0252    6.9183    1.2410 C   0  0  0  0  0  0  0  0  0  0  0  0
    3.4259    8.1493    0.8067 C   0  0  0  0  0  0  0  0  0  0  0  0
    4.7383    8.3737    0.5761 C   0  0  0  0  0  0  0  0  0  0  0  0
    5.6832    7.3560    0.7772 C   0  0  0  0  0  0  0  0  0  0  0  0
    5.2563    6.1109    1.2195 C   0  0  0  0  0  0  0  0  0  0  0  0
    6.9892    7.6503    0.5259 C   0  0  0  0  0  0  0  0  0  0  0  0
    7.4442    8.8750    0.0896 C   0  0  0  0  0  0  0  0  0  0  0  0
    6.5158    9.8665   -0.1074 C   0  0  0  0  0  0  0  0  0  0  0  0
    5.1981    9.5996    0.1364 C   0  0  0  0  0  0  0  0  0  0  0  0
    3.7609    2.8388    0.1628 C   0  0  0  0  0  0  0  0  0  0  0  0
    3.4126    2.6935   -1.0342 O   0  0  0  0  0  0  0  0  0  0  0  0
    4.9746    2.2299    0.5311 N   0  0  0  0  0  0  0  0  0  0  0  0
    5.6232    1.3723   -0.4244 C   0  0  1  0  0  0  0  0  0  0  0  0
    6.9201    1.6643   -0.9986 C   0  0  0  0  0  0  0  0  0  0  0  0
    8.1394    1.8464   -0.1798 C   0  0  0  0  0  0  0  0  0  0  0  0
    8.1790    3.0472    0.7073 C   0  0  0  0  0  0  0  0  0  0  0  0
    8.0359    4.2605   -0.1131 N   0  0  0  0  0  0  0  0  0  0  0  0
    8.9232    4.6326   -0.9679 C   0  0  0  0  0  0  0  0  0  0  0  0
    8.7243    5.8269   -1.7362 N   0  0  0  0  0  0  0  0  0  0  0  0
   10.1361    3.9026   -1.1908 N   0  0  0  0  0  0  0  0  0  0  0  0
    5.5488   -0.0408    0.0732 C   0  0  0  0  0  0  0  0  0  0  0  0
    4.9924   -0.2239    1.1544 O   0  0  0  0  0  0  0  0  0  0  0  0
    6.0597   -1.1605   -0.6050 N   0  0  0  0  0  0  0  0  0  0  0  0
    5.9996   -2.5331   -0.1731 C   0  0  2  0  0  0  0  0  0  0  0  0
    5.2513   -3.3090   -1.1335 C   0  0  0  0  0  0  0  0  0  0  0  0
    5.0382   -2.8410   -2.2672 O   0  0  0  0  0  0  0  0  0  0  0  0
    4.6801   -4.6281   -0.9235 N   0  0  0  0  0  0  0  0  0  0  0  0
    4.1808   -5.2870   -2.0820 C   0  0  2  0  0  0  0  0  0  0  0  0
    2.8097   -5.6602   -2.2832 C   0  0  0  0  0  0  0  0  0  0  0  0
    2.5368   -6.1250   -3.4587 O   0  0  0  0  0  0  0  0  0  0  0  0
    1.6583   -5.6333   -1.4419 N   0  0  0  0  0  0  0  0  0  0  0  0
    0.4274   -6.0583   -2.0352 C   0  0  2  0  0  0  0  0  0  0  0  0
   -0.8647   -5.7940   -1.5516 C   0  0  0  0  0  0  0  0  0  0  0  0
   -1.8538   -6.1470   -2.3265 O   0  0  0  0  0  0  0  0  0  0  0  0
   -1.3741   -5.2060   -0.3572 N   0  0  0  0  0  0  0  0  0  0  0  0
   -2.8023   -5.0816   -0.0980 C   0  0  2  0  0  0  0  0  0  0  0  0
   -3.2128   -3.9137    0.6571 C   0  0  0  0  0  0  0  0  0  0  0  0
   -2.4272   -2.9997    0.9507 O   0  0  0  0  0  0  0  0  0  0  0  0
   -4.5480   -3.7317    1.1304 N   0  0  0  0  0  0  0  0  0  0  0  0
   -4.9916   -2.5934    1.9148 C   0  0  1  0  0  0  0  0  0  0  0  0
   -4.0584   -2.3128    3.0816 C   0  0  0  0  0  0  0  0  0  0  0  0
   -6.1633   -3.2304    2.6856 C   0  0  0  0  0  0  0  0  0  0  0  0
   -6.6498   -2.6467    3.6893 O   0  0  0  0  0  0  0  0  0  0  0  0
   -6.6979   -4.4497    2.2846 O   0  0  0  0  0  0  0  0  0  0  0  0
   -3.3442   -6.2966    0.6466 C   0  0  0  0  0  0  0  0  0  0  0  0
   -3.1738   -7.5698   -0.0952 C   0  0  0  0  0  0  0  0  0  0  0  0
   -4.1907   -7.9215   -1.0029 C   0  0  0  0  0  0  0  0  0  0  0  0
   -4.0922   -9.1236   -1.7197 C   0  0  0  0  0  0  0  0  0  0  0  0
   -3.0105   -9.9696   -1.5477 C   0  0  0  0  0  0  0  0  0  0  0  0
   -2.0056   -9.5989   -0.6363 C   0  0  0  0  0  0  0  0  0  0  0  0
   -2.0988   -8.4072    0.0741 C   0  0  0  0  0  0  0  0  0  0  0  0
    0.4927   -7.6226   -2.1945 C   0  0  0  0  0  0  0  0  0  0  0  0
    4.9715   -6.6462   -2.1422 C   0  0  0  0  0  0  0  0  0  0  0  0
    4.6915   -7.4067   -0.9013 C   0  0  0  0  0  0  0  0  0  0  0  0
    3.8996   -7.0760   -0.0052 O   0  0  0  0  0  0  0  0  0  0  0  0
    5.4045   -8.6345   -0.7307 N   0  0  0  0  0  0  0  0  0  0  0  0
    5.8998   -2.8458    1.2664 C   0  0  0  0  0  0  0  0  0  0  0  0
    7.1617   -2.3680    1.9189 C   0  0  0  0  0  0  0  0  0  0  0  0
    7.4650   -1.3198    2.7070 C   0  0  0  0  0  0  0  0  0  0  0  0
    8.7851   -1.3401    3.0302 N   0  0  0  0  0  0  0  0  0  0  0  0
    9.3713   -2.4022    2.4621 C   0  0  0  0  0  0  0  0  0  0  0  0
    8.3720   -3.0654    1.7559 C   0  0  0  0  0  0  0  0  0  0  0  0
    8.7421   -4.2040    1.0822 C   0  0  0  0  0  0  0  0  0  0  0  0
   10.0616   -4.6706    1.1033 C   0  0  0  0  0  0  0  0  0  0  0  0
   11.0324   -3.9910    1.8115 C   0  0  0  0  0  0  0  0  0  0  0  0
   10.6743   -2.8453    2.4962 C   0  0  0  0  0  0  0  0  0  0  0  0
   -7.5000   -1.5455   -0.1376 C   0  0  0  0  0  0  0  0  0  0  0  0
   -8.7019   -1.4045   -0.5219 O   0  0  0  0  0  0  0  0  0  0  0  0
   -6.6004   -1.9629   -1.1914 N   0  0  0  0  0  0  0  0  0  0  0  0
  -13.7370   -0.1709    2.3969 H   0  0  0  0  0  0  0  0  0  0  0  0
  -11.8192   -1.0546    3.5793 H   0  0  0  0  0  0  0  0  0  0  0  0
   -9.3582   -1.2501    3.5924 H   0  0  0  0  0  0  0  0  0  0  0  0
   -9.0403    1.1853    0.0952 H   0  0  0  0  0  0  0  0  0  0  0  0
  -11.4836    1.3974    0.0141 H   0  0  0  0  0  0  0  0  0  0  0  0
   -7.3388   -0.1355    3.0167 H   0  0  0  0  0  0  0  0  0  0  0  0
   -7.2111    0.8077    1.5436 H   0  0  0  0  0  0  0  0  0  0  0  0
   -7.4285   -2.2427    1.7727 H   0  0  0  0  0  0  0  0  0  0  0  0
   -2.7983   -0.0505    0.7292 H   0  0  0  0  0  0  0  0  0  0  0  0
   -3.2080   -0.5995   -0.8729 H   0  0  0  0  0  0  0  0  0  0  0  0
   -4.0604    1.8527    0.6806 H   0  0  0  0  0  0  0  0  0  0  0  0
   -4.3031    3.2311   -1.2595 H   0  0  0  0  0  0  0  0  0  0  0  0
   -5.1356    3.0776   -3.8554 H   0  0  0  0  0  0  0  0  0  0  0  0
   -6.7272    4.7203   -3.2981 H   0  0  0  0  0  0  0  0  0  0  0  0
   -5.4976    4.5498   -2.0538 H   0  0  0  0  0  0  0  0  0  0  0  0
   -6.0972    3.7219    0.2617 H   0  0  0  0  0  0  0  0  0  0  0  0
   -7.9313    3.7340    1.9615 H   0  0  0  0  0  0  0  0  0  0  0  0
  -10.7878    4.2398   -1.0434 H   0  0  0  0  0  0  0  0  0  0  0  0
   -9.0015    4.2366   -2.8308 H   0  0  0  0  0  0  0  0  0  0  0  0
  -10.2088    4.3955    2.4150 H   0  0  0  0  0  0  0  0  0  0  0  0
   -7.3428    2.7595   -4.6879 H   0  0  0  0  0  0  0  0  0  0  0  0
   -7.6273    1.5792   -3.4396 H   0  0  0  0  0  0  0  0  0  0  0  0
   -2.6651    3.9759   -0.8329 H   0  0  0  0  0  0  0  0  0  0  0  0
   -0.1188    3.0947   -1.6328 H   0  0  0  0  0  0  0  0  0  0  0  0
   -0.9716    5.0712   -2.5392 H   0  0  0  0  0  0  0  0  0  0  0  0
    0.5143    5.5003   -1.7099 H   0  0  0  0  0  0  0  0  0  0  0  0
   -0.0524    7.3016    0.5927 H   0  0  0  0  0  0  0  0  0  0  0  0
   -2.1681    8.7135    1.1313 H   0  0  0  0  0  0  0  0  0  0  0  0
   -4.0734    7.8808   -0.3075 H   0  0  0  0  0  0  0  0  0  0  0  0
    1.9352    4.7266   -0.6098 H   0  0  0  0  0  0  0  0  0  0  0  0
    2.3060    2.8123    1.6268 H   0  0  0  0  0  0  0  0  0  0  0  0
    2.5080    4.8944    2.6437 H   0  0  0  0  0  0  0  0  0  0  0  0
    4.1425    4.1237    2.5949 H   0  0  0  0  0  0  0  0  0  0  0  0
    1.9978    6.7014    1.4536 H   0  0  0  0  0  0  0  0  0  0  0  0
    2.7289    8.9727    0.6337 H   0  0  0  0  0  0  0  0  0  0  0  0
    5.9580    5.3169    1.3930 H   0  0  0  0  0  0  0  0  0  0  0  0
    7.7381    6.8790    0.6801 H   0  0  0  0  0  0  0  0  0  0  0  0
    8.5008    9.0353   -0.1009 H   0  0  0  0  0  0  0  0  0  0  0  0
    6.8309   10.8419   -0.4492 H   0  0  0  0  0  0  0  0  0  0  0  0
    4.4452   10.3607   -0.0045 H   0  0  0  0  0  0  0  0  0  0  0  0
    5.3074    2.4441    1.4683 H   0  0  0  0  0  0  0  0  0  0  0  0
    4.9173    1.2922   -1.3574 H   0  0  0  0  0  0  0  0  0  0  0  0
    6.8827    2.6208   -1.6569 H   0  0  0  0  0  0  0  0  0  0  0  0
    7.1970    0.9072   -1.8046 H   0  0  0  0  0  0  0  0  0  0  0  0
    9.0404    1.8663   -0.8482 H   0  0  0  0  0  0  0  0  0  0  0  0
    8.3490    0.9216    0.4597 H   0  0  0  0  0  0  0  0  0  0  0  0
    7.5067    3.0874    1.5442 H   0  0  0  0  0  0  0  0  0  0  0  0
    9.2203    3.1346    1.1325 H   0  0  0  0  0  0  0  0  0  0  0  0
    9.5465    6.3414   -2.1622 H   0  0  0  0  0  0  0  0  0  0  0  0
    7.7309    6.1510   -1.8474 H   0  0  0  0  0  0  0  0  0  0  0  0
   10.7777    3.8508   -0.3532 H   0  0  0  0  0  0  0  0  0  0  0  0
   10.3685    3.4511   -2.0977 H   0  0  0  0  0  0  0  0  0  0  0  0
    6.5152   -0.9545   -1.5027 H   0  0  0  0  0  0  0  0  0  0  0  0
    7.1450   -2.8924   -0.4251 H   0  0  0  0  0  0  0  0  0  0  0  0
    4.7121   -4.9287    0.0435 H   0  0  0  0  0  0  0  0  0  0  0  0
    4.5518   -4.7628   -3.0308 H   0  0  0  0  0  0  0  0  0  0  0  0
    1.8174   -5.3173   -0.4892 H   0  0  0  0  0  0  0  0  0  0  0  0
    0.4822   -5.7773   -3.1439 H   0  0  0  0  0  0  0  0  0  0  0  0
   -0.6623   -4.8840    0.2978 H   0  0  0  0  0  0  0  0  0  0  0  0
   -3.3079   -5.1359   -1.0845 H   0  0  0  0  0  0  0  0  0  0  0  0
   -5.2024   -4.4611    0.8561 H   0  0  0  0  0  0  0  0  0  0  0  0
   -3.3535   -3.1522    3.0776 H   0  0  0  0  0  0  0  0  0  0  0  0
   -4.5829   -2.3415    4.0483 H   0  0  0  0  0  0  0  0  0  0  0  0
   -3.4376   -1.4100    2.9502 H   0  0  0  0  0  0  0  0  0  0  0  0
   -7.6267   -4.7406    2.6245 H   0  0  0  0  0  0  0  0  0  0  0  0
   -4.4266   -6.1718    0.7577 H   0  0  0  0  0  0  0  0  0  0  0  0
   -2.9466   -6.3557    1.6863 H   0  0  0  0  0  0  0  0  0  0  0  0
   -5.0516   -7.2818   -1.1599 H   0  0  0  0  0  0  0  0  0  0  0  0
   -4.8793   -9.4093   -2.4392 H   0  0  0  0  0  0  0  0  0  0  0  0
   -2.9181  -10.9133   -2.1023 H   0  0  0  0  0  0  0  0  0  0  0  0
   -1.1845  -10.2847   -0.5350 H   0  0  0  0  0  0  0  0  0  0  0  0
   -1.3039   -8.1386    0.7791 H   0  0  0  0  0  0  0  0  0  0  0  0
   -0.3741   -7.9714   -2.7532 H   0  0  0  0  0  0  0  0  0  0  0  0
    0.4470   -7.9916   -1.1663 H   0  0  0  0  0  0  0  0  0  0  0  0
    1.4306   -7.9376   -2.6366 H   0  0  0  0  0  0  0  0  0  0  0  0
    6.0404   -6.4278   -2.2000 H   0  0  0  0  0  0  0  0  0  0  0  0
    4.5532   -7.1675   -3.0262 H   0  0  0  0  0  0  0  0  0  0  0  0
    5.2801   -9.4602   -1.3663 H   0  0  0  0  0  0  0  0  0  0  0  0
    6.0695   -8.6726    0.0824 H   0  0  0  0  0  0  0  0  0  0  0  0
    5.0398   -2.4416    1.7991 H   0  0  0  0  0  0  0  0  0  0  0  0
    5.8942   -3.9556    1.3974 H   0  0  0  0  0  0  0  0  0  0  0  0
    6.7995   -0.5541    3.0564 H   0  0  0  0  0  0  0  0  0  0  0  0
    9.2429   -0.6179    3.6399 H   0  0  0  0  0  0  0  0  0  0  0  0
    8.0566   -4.8186    0.5087 H   0  0  0  0  0  0  0  0  0  0  0  0
   10.3716   -5.5549    0.5787 H   0  0  0  0  0  0  0  0  0  0  0  0
   12.0527   -4.3760    1.8171 H   0  0  0  0  0  0  0  0  0  0  0  0
   11.4621   -2.3162    3.0599 H   0  0  0  0  0  0  0  0  0  0  0  0
   -6.8799   -1.8804   -2.2103 H   0  0  0  0  0  0  0  0  0  0  0  0
   -5.6647   -2.3460   -1.0026 H   0  0  0  0  0  0  0  0  0  0  0  0
  1  2  1  0
  2  3  2  0
  3  4  1  0
  4  5  2  0
  5  6  1  0
  6  7  2  0
  5  8  1  0
  8  9  1  0
  9 10  1  0
 10 11  1  0
 11 12  2  0
 11 13  1  0
 13 14  1  0
 14 15  1  0
 15 16  1  0
 16 17  2  0
 16 18  1  0
 18 19  1  0
 19 20  1  0
 20 21  2  0
 21 22  1  0
 22 23  2  0
 23 24  1  0
 24 25  2  0
 23 26  1  0
 18 27  1  0
 14 28  1  0
 28 29  2  0
 28 30  1  0
 30 31  1  0
 31 32  1  0
 32 33  1  0
 33 34  2  0
 34 35  1  0
 35 36  1  0
 36 37  2  0
 31 38  1  0
 38 39  2  0
 38 40  1  0
 40 41  1  0
 41 42  1  0
 42 43  1  0
 43 44  2  0
 44 45  1  0
 45 46  2  0
 46 47  1  0
 47 48  2  0
 47 49  1  0
 49 50  2  0
 50 51  1  0
 51 52  2  0
 41 53  1  0
 53 54  2  0
 53 55  1  0
 55 56  1  0
 56 57  1  0
 57 58  1  0
 58 59  1  0
 59 60  1  0
 60 61  2  3
 61 62  1  0
 61 63  1  0
 56 64  1  0
 64 65  2  0
 64 66  1  0
 66 67  1  0
 67 68  1  0
 68 69  2  0
 68 70  1  0
 70 71  1  0
 71 72  1  0
 72 73  2  0
 72 74  1  0
 74 75  1  0
 75 76  1  0
 76 77  2  0
 76 78  1  0
 78 79  1  0
 79 80  1  0
 80 81  2  0
 80 82  1  0
 82 83  1  0
 83 84  1  1
 83 85  1  0
 85 86  2  0
 85 87  1  0
 79 88  1  0
 88 89  1  0
 89 90  2  0
 90 91  1  0
 91 92  2  0
 92 93  1  0
 93 94  2  0
 75 95  1  0
 71 96  1  0
 96 97  1  0
 97 98  2  0
 97 99  1  0
 67100  1  0
100101  1  0
101102  2  0
102103  1  0
103104  1  0
104105  2  0
105106  1  0
106107  2  0
107108  1  0
108109  2  0
  9110  1  0
110111  2  0
110112  1  0
  7  2  1  0
 83 10  1  0
 94 89  1  0
105101  1  0
 25 20  1  0
 37 33  1  0
 48 43  1  0
109104  1  0
 52 46  1  0
  1113  1  0
  3114  1  0
  4115  1  0
  6116  1  0
  7117  1  0
  8118  1  0
  8119  1  0
  9120  1  1
 13121  1  0
 13122  1  0
 14123  1  1
 15124  1  0
 18125  1  6
 19126  1  0
 19127  1  0
 21128  1  0
 22129  1  0
 24130  1  0
 25131  1  0
 26132  1  0
 27133  1  0
 27134  1  0
 30135  1  0
 31136  1  6
 32137  1  0
 32138  1  0
 34139  1  0
 35140  1  0
 36141  1  0
 40142  1  0
 41143  1  1
 42144  1  0
 42145  1  0
 44146  1  0
 45147  1  0
 48148  1  0
 49149  1  0
 50150  1  0
 51151  1  0
 52152  1  0
 55153  1  0
 56154  1  6
 57155  1  0
 57156  1  0
 58157  1  0
 58158  1  0
 59159  1  0
 59160  1  0
 62161  1  0
 62162  1  0
 63163  1  0
 63164  1  0
 66165  1  0
 67166  1  6
 70167  1  0
 71168  1  6
 74169  1  0
 75170  1  6
 78171  1  0
 79172  1  6
 82173  1  0
 84174  1  0
 84175  1  0
 84176  1  0
 87177  1  0
 88178  1  0
 88179  1  0
 90180  1  0
 91181  1  0
 92182  1  0
 93183  1  0
 94184  1  0
 95185  1  0
 95186  1  0
 95187  1  0
 96188  1  0
 96189  1  0
 99190  1  0
 99191  1  0
100192  1  0
100193  1  0
102194  1  0
103195  1  0
106196  1  0
107197  1  0
108198  1  0
109199  1  0
112200  1  0
112201  1  0
M  END
>  <Ligand ID>  (1) 
LIG0005491

>  <Ligand>  (1) 
CHEMBL2369974

>  <SMILES>  (1) 
Oc1ccc(cc1)C[C@H](N1C(=O)C[C@H](NC(=O)[C@H](Cc2ccc(cc2)O)N)C(=O)N[C@@H](Cc2c[nH]cn2)C(=O)N[C@H](Cc2ccc3c(c2)cccc3)C(=O)N[C@@H](CCCN=C(N)N)C(=O)N[C@H](C(=O)N[C@H](C(=O)N[C@H](C(=O)N[C@H](C(=O)N[C@]1(C)C(=O)O)Cc1ccccc1)C)CC(=O)N)Cc1c[nH]c2c1cccc2)C(=O)N

>  <CID>  (1) 
73352993.0

>  <ChEMBL ID>  (1) 
nan

>  <InChiKey>  (1) 
FMLOYHHQNWSDOJ-HUIDGCBDSA-N

>  <InChi>  (1) 
InChI=1S/C77H89N19O16/c1-41-66(102)89-57(31-42-11-4-3-5-12-42)74(110)95-77(2,75(111)112)96(62(65(80)101)33-44-21-26-51(98)27-22-44)64(100)37-61(90-67(103)53(78)30-43-19-24-50(97)25-20-43)73(109)93-59(35-49-39-83-40-86-49)72(108)91-56(32-45-18-23-46-13-6-7-14-47(46)29-45)70(106)88-55(17-10-28-84-76(81)82)68(104)92-58(34-48-38-85-54-16-9-8-15-52(48)54)71(107)94-60(36-63(79)99)69(105)87-41/h3-9,11-16,18-27,29,38-41,53,55-62,85,97-98H,10,17,28,30-37,78H2,1-2H3,(H2,79,99)(H2,80,101)(H,83,86)(H,87,105)(H,88,106)(H,89,102)(H,90,103)(H,91,108)(H,92,104)(H,93,109)(H,94,107)(H,95,110)(H,111,112)(H4,81,82,84)/t41-,53-,55-,56+,57-,58-,59-,60-,61-,62-,77-/m0/s1

>  <IUPAC Name>  (1) 
(2S,5S,8S,11S,14S,17S,20R,23S,26S)-1-[(2S)-1-amino-3-(4-hydroxyphenyl)-1-oxopropan-2-yl]-26-[[(2S)-2-amino-3-(4-hydroxyphenyl)propanoyl]amino]-11-(2-amino-2-oxoethyl)-5-benzyl-17-[3-(diaminomethylideneamino)propyl]-23-(1H-imidazol-4-ylmethyl)-14-(1H-indol-3-ylmethyl)-2,8-dimethyl-20-(naphthalen-2-ylmethyl)-4,7,10,13,16,19,22,25,28-nonaoxo-1,3,6,9,12,15,18,21,24-nonazacyclooctacosane-2-carboxylic acid

$$$$
