
     RDKit          3D

 30 30  0  0  0  0  0  0  0  0999 V2000
   -2.5400   -1.0519   -2.2096 C   0  0  0  0  0  0  0  0  0  0  0  0
   -1.4560   -0.7378   -1.3594 O   0  0  0  0  0  0  0  0  0  0  0  0
   -1.5840    0.0779   -0.2433 C   0  0  0  0  0  0  0  0  0  0  0  0
   -2.7770    0.6569    0.1398 C   0  0  0  0  0  0  0  0  0  0  0  0
   -2.8923    1.4697    1.2564 C   0  0  0  0  0  0  0  0  0  0  0  0
   -4.0776    2.0229    1.6054 F   0  0  0  0  0  0  0  0  0  0  0  0
   -1.7470    1.6953    2.0032 C   0  0  0  0  0  0  0  0  0  0  0  0
   -0.5534    1.1226    1.6294 C   0  0  0  0  0  0  0  0  0  0  0  0
   -0.4307    0.3059    0.5100 C   0  0  0  0  0  0  0  0  0  0  0  0
    0.8386   -0.3057    0.1088 C   0  0  0  0  0  0  0  0  0  0  0  0
    1.7267    0.5064   -0.8541 C   0  0  0  0  0  0  0  0  0  0  0  0
    2.1560    0.1717    0.5254 C   0  0  0  0  0  0  0  0  0  0  0  0
    3.2145   -0.8880    0.7524 C   0  0  0  0  0  0  0  0  0  0  0  0
    3.4738   -1.6625   -0.4441 N   0  0  0  0  0  0  0  0  0  0  0  0
   -1.8400    2.4917    3.1047 F   0  0  0  0  0  0  0  0  0  0  0  0
    0.6877    0.0000    0.0000 Cl  0  0  0  0  0  0  0  0  0  0  0  0
   -2.3898   -2.0363   -2.7170 H   0  0  0  0  0  0  0  0  0  0  0  0
   -2.6654   -0.2490   -2.9560 H   0  0  0  0  0  0  0  0  0  0  0  0
   -3.4669   -1.1965   -1.5844 H   0  0  0  0  0  0  0  0  0  0  0  0
   -3.6708    0.4807   -0.4435 H   0  0  0  0  0  0  0  0  0  0  0  0
    0.3201    1.3091    2.2197 H   0  0  0  0  0  0  0  0  0  0  0  0
    0.7435   -1.3889   -0.1876 H   0  0  0  0  0  0  0  0  0  0  0  0
    2.1383   -0.0211   -1.7282 H   0  0  0  0  0  0  0  0  0  0  0  0
    1.3612    1.5153   -1.0640 H   0  0  0  0  0  0  0  0  0  0  0  0
    2.2132    1.0051    1.2356 H   0  0  0  0  0  0  0  0  0  0  0  0
    2.8462   -1.6134    1.5224 H   0  0  0  0  0  0  0  0  0  0  0  0
    4.1674   -0.4821    1.1400 H   0  0  0  0  0  0  0  0  0  0  0  0
    2.6136   -1.8540   -0.9673 H   0  0  0  0  0  0  0  0  0  0  0  0
    4.2775   -1.3442   -0.9944 H   0  0  0  0  0  0  0  0  0  0  0  0
   -0.6877    0.0000    0.0000 H   0  0  0  0  0  0  0  0  0  0  0  0
  1  2  1  0
  2  3  1  0
  3  4  2  0
  4  5  1  0
  5  6  1  0
  5  7  2  0
  7  8  1  0
  8  9  2  0
  9 10  1  0
 10 11  1  0
 11 12  1  0
 12 13  1  0
 13 14  1  0
  7 15  1  0
  9  3  1  0
 12 10  1  0
  1 17  1  0
  1 18  1  0
  1 19  1  0
  4 20  1  0
  8 21  1  0
 10 22  1  0
 11 23  1  0
 11 24  1  0
 12 25  1  0
 13 26  1  0
 13 27  1  0
 14 28  1  0
 14 29  1  0
 16 30  1  0
M  END
>  <Ligand ID>  (1) 
LIG0004788

>  <Ligand>  (1) 
CHEMBL3770753

>  <SMILES>  (1) 
COc1cc(F)c(cc1C1CC1CN)F.Cl

>  <CID>  (1) 
127028406.0

>  <ChEMBL ID>  (1) 
nan

>  <InChiKey>  (1) 
ZAESISZTRUXGRX-UHFFFAOYSA-N

>  <InChi>  (1) 
InChI=1S/C11H13F2NO.ClH/c1-15-11-4-10(13)9(12)3-8(11)7-2-6(7)5-14;/h3-4,6-7H,2,5,14H2,1H3;1H

>  <IUPAC Name>  (1) 
[2-(4,5-difluoro-2-methoxyphenyl)cyclopropyl]methanamine;hydrochloride

$$$$
