
     RDKit          3D

 41 44  0  0  0  0  0  0  0  0999 V2000
    3.6870   -0.0336    0.0149 C   0  0  0  0  0  0  0  0  0  0  0  0
    3.3629    0.9667    1.1115 C   0  0  0  0  0  0  0  0  0  0  0  0
    2.0258    0.7214    1.7057 C   0  0  0  0  0  0  0  0  0  0  0  0
    1.2302   -0.1300    0.7848 N   0  0  0  0  0  0  0  0  0  0  0  0
    1.7910   -1.4692    0.6276 C   0  0  0  0  0  0  0  0  0  0  0  0
    3.3354   -1.4016    0.5272 C   0  0  0  0  0  0  0  0  0  0  0  0
    0.1068    0.3993    0.1370 C   0  0  0  0  0  0  0  0  0  0  0  0
   -0.9857   -0.2903   -0.3344 C   0  0  0  0  0  0  0  0  0  0  0  0
   -0.9749   -1.7227    0.0592 C   0  0  0  0  0  0  0  0  0  0  0  0
   -2.4447   -2.1373    0.3937 C   0  0  0  0  0  0  0  0  0  0  0  0
   -3.2136   -2.3271   -0.7919 N   0  0  0  0  0  0  0  0  0  0  0  0
   -4.0606   -1.1267   -0.8986 C   0  0  0  0  0  0  0  0  0  0  0  0
   -3.2513   -0.1426   -1.6785 C   0  0  0  0  0  0  0  0  0  0  0  0
   -2.0176    0.3117   -1.0461 C   0  0  0  0  0  0  0  0  0  0  0  0
   -1.8996    1.6584   -1.2608 N   0  0  0  0  0  0  0  0  0  0  0  0
   -0.8558    2.3493   -0.8137 C   0  0  0  0  0  0  0  0  0  0  0  0
    0.1395    1.7507   -0.1256 N   0  0  0  0  0  0  0  0  0  0  0  0
    0.9821    2.7176    0.1503 N   0  0  0  0  0  0  0  0  0  0  0  0
    0.6060    3.8945   -0.3072 C   0  0  0  0  0  0  0  0  0  0  0  0
   -0.5973    3.7064   -0.9493 C   0  0  0  0  0  0  0  0  0  0  0  0
    3.1106    0.1405   -0.9152 H   0  0  0  0  0  0  0  0  0  0  0  0
    4.7548    0.0424   -0.2332 H   0  0  0  0  0  0  0  0  0  0  0  0
    3.4925    1.9440    0.6590 H   0  0  0  0  0  0  0  0  0  0  0  0
    4.1204    0.8375    1.9282 H   0  0  0  0  0  0  0  0  0  0  0  0
    1.4920    1.5808    2.0797 H   0  0  0  0  0  0  0  0  0  0  0  0
    2.1527    0.0664    2.6364 H   0  0  0  0  0  0  0  0  0  0  0  0
    1.4611   -1.9471   -0.3110 H   0  0  0  0  0  0  0  0  0  0  0  0
    1.6689   -2.1055    1.5363 H   0  0  0  0  0  0  0  0  0  0  0  0
    3.6421   -2.1562   -0.2121 H   0  0  0  0  0  0  0  0  0  0  0  0
    3.8237   -1.6445    1.4835 H   0  0  0  0  0  0  0  0  0  0  0  0
   -0.7284   -2.3696   -0.7762 H   0  0  0  0  0  0  0  0  0  0  0  0
   -0.4954   -1.8980    1.0234 H   0  0  0  0  0  0  0  0  0  0  0  0
   -2.8183   -1.3448    1.0609 H   0  0  0  0  0  0  0  0  0  0  0  0
   -2.3944   -3.0865    0.9727 H   0  0  0  0  0  0  0  0  0  0  0  0
   -3.8042   -3.1560   -0.7000 H   0  0  0  0  0  0  0  0  0  0  0  0
   -4.9936   -1.3234   -1.4511 H   0  0  0  0  0  0  0  0  0  0  0  0
   -4.2866   -0.7598    0.1416 H   0  0  0  0  0  0  0  0  0  0  0  0
   -3.0920   -0.5679   -2.6962 H   0  0  0  0  0  0  0  0  0  0  0  0
   -3.9342    0.7436   -1.8390 H   0  0  0  0  0  0  0  0  0  0  0  0
    1.0775    4.8658   -0.2410 H   0  0  0  0  0  0  0  0  0  0  0  0
   -1.2150    4.4432   -1.4522 H   0  0  0  0  0  0  0  0  0  0  0  0
  1  2  1  0
  2  3  1  0
  3  4  1  0
  4  5  1  0
  5  6  1  0
  4  7  1  0
  7  8  2  0
  8  9  1  0
  9 10  1  0
 10 11  1  0
 11 12  1  0
 12 13  1  0
 13 14  1  0
 14 15  2  0
 15 16  1  0
 16 17  1  0
 17 18  1  0
 18 19  2  0
 19 20  1  0
  6  1  1  0
 17  7  1  0
 14  8  1  0
 20 16  2  0
  1 21  1  0
  1 22  1  0
  2 23  1  0
  2 24  1  0
  3 25  1  0
  3 26  1  0
  5 27  1  0
  5 28  1  0
  6 29  1  0
  6 30  1  0
  9 31  1  0
  9 32  1  0
 10 33  1  0
 10 34  1  0
 11 35  1  0
 12 36  1  0
 12 37  1  0
 13 38  1  0
 13 39  1  0
 19 40  1  0
 20 41  1  0
M  END
>  <Ligand ID>  (1) 
LIG0003096

>  <Ligand>  (1) 
CHEMBL1643672

>  <SMILES>  (1) 
C1CCN(CC1)c1c2CCNCCc2nc2n1ncc2

>  <CID>  (1) 
53324629.0

>  <ChEMBL ID>  (1) 
nan

>  <InChiKey>  (1) 
UROKAICMVLKJBW-UHFFFAOYSA-N

>  <InChi>  (1) 
InChI=1S/C15H21N5/c1-2-10-19(11-3-1)15-12-4-7-16-8-5-13(12)18-14-6-9-17-20(14)15/h6,9,16H,1-5,7-8,10-11H2

>  <IUPAC Name>  (1) 
8-piperidin-1-yl-2,6,7,12-tetrazatricyclo[7.5.0.03,7]tetradeca-1,3,5,8-tetraene

$$$$
