
     RDKit          3D

 55 57  0  0  0  0  0  0  0  0999 V2000
   -3.3784    2.3249    2.0701 O   0  0  0  0  0  0  0  0  0  0  0  0
   -3.0085    1.0666    1.5803 C   0  0  2  0  0  0  0  0  0  0  0  0
   -2.9770    1.1049    0.0700 C   0  0  1  0  0  0  0  0  0  0  0  0
   -1.7280    0.3610   -0.3587 C   0  0  0  0  0  0  0  0  0  0  0  0
   -1.5904    0.2941   -1.7411 O   0  0  0  0  0  0  0  0  0  0  0  0
   -0.2028   -0.5328   -2.2248 P   0  0  0  0  0  0  0  0  0  0  0  0
   -0.6870   -1.7692   -2.9835 O   0  0  0  0  0  0  0  0  0  0  0  0
    0.7156   -1.0674   -0.9380 O   0  0  0  0  0  0  0  0  0  0  0  0
    2.3346   -0.6282   -1.0208 P   0  0  0  0  0  0  0  0  0  0  0  0
    2.6131    0.3465    0.1081 O   0  0  0  0  0  0  0  0  0  0  0  0
    3.3404   -1.9583   -0.7511 O   0  0  0  0  0  0  0  0  0  0  0  0
    4.9581   -1.5739   -0.8736 P   0  0  0  0  0  0  0  0  0  0  0  0
    5.7537   -2.8553   -0.7718 O   0  0  0  0  0  0  0  0  0  0  0  0
    5.4710   -0.4938    0.4231 N   0  0  0  0  0  0  0  0  0  0  0  0
    6.7869    0.0022    0.4382 C   0  0  0  0  0  0  0  0  0  0  0  0
    7.2026    0.8479    1.4457 C   0  0  0  0  0  0  0  0  0  0  0  0
    8.4752    1.3705    1.5228 C   0  0  0  0  0  0  0  0  0  0  0  0
    9.3942    1.0403    0.5489 C   0  0  0  0  0  0  0  0  0  0  0  0
    8.9794    0.1963   -0.4565 C   0  0  0  0  0  0  0  0  0  0  0  0
    7.7026   -0.3269   -0.5324 C   0  0  0  0  0  0  0  0  0  0  0  0
    5.3456   -0.8515   -2.3515 O   0  0  0  0  0  0  0  0  0  0  0  0
    2.7596    0.1448   -2.4451 O   0  0  0  0  0  0  0  0  0  0  0  0
    0.7634    0.3313   -3.2746 O   0  0  0  0  0  0  0  0  0  0  0  0
   -4.1280    0.5270   -0.3945 O   0  0  0  0  0  0  0  0  0  0  0  0
   -5.0511    0.6191    0.6325 C   0  0  2  0  0  0  0  0  0  0  0  0
   -4.2189    0.1793    1.8214 C   0  0  2  0  0  0  0  0  0  0  0  0
   -4.8337    0.4941    3.0263 O   0  0  0  0  0  0  0  0  0  0  0  0
   -6.2297   -0.1522    0.4271 N   0  0  0  0  0  0  0  0  0  0  0  0
   -6.1276   -1.4829    0.3151 C   0  0  0  0  0  0  0  0  0  0  0  0
   -7.3132   -2.1931    0.1145 C   0  0  0  0  0  0  0  0  0  0  0  0
   -7.3089   -4.0858   -0.0608 Br  0  0  0  0  0  0  0  0  0  0  0  0
   -8.5393   -1.5528    0.0349 C   0  0  0  0  0  0  0  0  0  0  0  0
   -9.6078   -2.1929   -0.1458 O   0  0  0  0  0  0  0  0  0  0  0  0
   -8.5819   -0.2053    0.1552 N   0  0  0  0  0  0  0  0  0  0  0  0
   -7.4347    0.4679    0.3480 C   0  0  0  0  0  0  0  0  0  0  0  0
   -7.4923    1.7326    0.4589 O   0  0  0  0  0  0  0  0  0  0  0  0
   -2.8488    3.0311    1.5837 H   0  0  0  0  0  0  0  0  0  0  0  0
   -2.0871    0.6703    2.0202 H   0  0  0  0  0  0  0  0  0  0  0  0
   -2.9209    2.1287   -0.3281 H   0  0  0  0  0  0  0  0  0  0  0  0
   -1.7009   -0.6694    0.0520 H   0  0  0  0  0  0  0  0  0  0  0  0
   -0.8163    0.8752    0.0067 H   0  0  0  0  0  0  0  0  0  0  0  0
    4.7977   -0.2305    1.1680 H   0  0  0  0  0  0  0  0  0  0  0  0
    6.4610    1.1032    2.2155 H   0  0  0  0  0  0  0  0  0  0  0  0
    8.7278    2.0288    2.3452 H   0  0  0  0  0  0  0  0  0  0  0  0
   10.4167    1.4397    0.5810 H   0  0  0  0  0  0  0  0  0  0  0  0
    9.6938   -0.0809   -1.2437 H   0  0  0  0  0  0  0  0  0  0  0  0
    7.4543   -0.9813   -1.3515 H   0  0  0  0  0  0  0  0  0  0  0  0
    5.3732    0.1346   -2.2665 H   0  0  0  0  0  0  0  0  0  0  0  0
    2.9710   -0.4542   -3.1797 H   0  0  0  0  0  0  0  0  0  0  0  0
    0.4742    1.2802   -3.3146 H   0  0  0  0  0  0  0  0  0  0  0  0
   -5.2969    1.7012    0.8178 H   0  0  0  0  0  0  0  0  0  0  0  0
   -3.9452   -0.9032    1.7378 H   0  0  0  0  0  0  0  0  0  0  0  0
   -4.2256    1.1094    3.5278 H   0  0  0  0  0  0  0  0  0  0  0  0
   -5.1768   -2.0032    0.3746 H   0  0  0  0  0  0  0  0  0  0  0  0
   -9.5081    0.2914    0.0963 H   0  0  0  0  0  0  0  0  0  0  0  0
  1  2  1  0
  2  3  1  0
  3  4  1  0
  4  5  1  0
  5  6  1  0
  6  7  2  0
  6  8  1  0
  8  9  1  0
  9 10  2  0
  9 11  1  0
 11 12  1  0
 12 13  2  0
 12 14  1  0
 14 15  1  0
 15 16  2  0
 16 17  1  0
 17 18  2  0
 18 19  1  0
 19 20  2  0
 12 21  1  0
  9 22  1  0
  6 23  1  0
  3 24  1  0
 24 25  1  0
 25 26  1  0
 26 27  1  0
 25 28  1  0
 28 29  1  0
 29 30  2  0
 30 31  1  0
 30 32  1  0
 32 33  2  0
 32 34  1  0
 34 35  1  0
 35 36  2  0
 26  2  1  0
 35 28  1  0
 20 15  1  0
  1 37  1  0
  2 38  1  1
  3 39  1  1
  4 40  1  0
  4 41  1  0
 14 42  1  0
 16 43  1  0
 17 44  1  0
 18 45  1  0
 19 46  1  0
 20 47  1  0
 21 48  1  0
 22 49  1  0
 23 50  1  0
 25 51  1  1
 26 52  1  6
 27 53  1  0
 29 54  1  0
 34 55  1  0
M  END
>  <Ligand ID>  (1) 
LIG0002722

>  <Ligand>  (1) 
CHEMBL1765120

>  <SMILES>  (1) 
O[C@@H]1[C@@H](COP(=O)(OP(=O)(OP(=O)(Nc2ccccc2)O)O)O)O[C@H]([C@@H]1O)n1cc(Br)c(=O)[nH]c1=O

>  <CID>  (1) 
52952183.0

>  <ChEMBL ID>  (1) 
nan

>  <InChiKey>  (1) 
BECOTGWWMSOOEA-HKUMRIAESA-N

>  <InChi>  (1) 
InChI=1S/C15H19BrN3O14P3/c16-9-6-19(15(23)17-13(9)22)14-12(21)11(20)10(31-14)7-30-35(26,27)33-36(28,29)32-34(24,25)18-8-4-2-1-3-5-8/h1-6,10-12,14,20-21H,7H2,(H,26,27)(H,28,29)(H,17,22,23)(H2,18,24,25)/t10-,11-,12-,14-/m1/s1

>  <IUPAC Name>  (1) 
[[[(2R,3S,4R,5R)-5-(5-bromo-2,4-dioxopyrimidin-1-yl)-3,4-dihydroxyoxolan-2-yl]methoxy-hydroxyphosphoryl]oxy-hydroxyphosphoryl]oxy-N-phenylphosphonamidic acid

$$$$
