
     RDKit          3D

 76 78  0  0  0  0  0  0  0  0999 V2000
   -3.8459   -4.7222   -1.4566 O   0  0  0  0  0  0  0  0  0  0  0  0
   -3.2214   -4.0465   -0.4177 C   0  0  0  0  0  0  0  0  0  0  0  0
   -3.3054   -4.5174    0.8630 C   0  0  0  0  0  0  0  0  0  0  0  0
   -2.6517   -3.7810    1.8432 C   0  0  0  0  0  0  0  0  0  0  0  0
   -1.9466   -2.6210    1.5350 C   0  0  0  0  0  0  0  0  0  0  0  0
   -1.8692   -2.1622    0.2634 C   0  0  0  0  0  0  0  0  0  0  0  0
   -2.5168   -2.8801   -0.7500 C   0  0  0  0  0  0  0  0  0  0  0  0
   -1.1442   -0.9130   -0.1361 C   0  0  2  0  0  0  0  0  0  0  0  0
   -0.7020   -0.1787    1.1110 C   0  0  0  0  0  0  0  0  0  0  0  0
    0.1769    0.9397    0.5677 C   0  0  2  0  0  0  0  0  0  0  0  0
   -0.3738    1.6100   -0.6474 C   0  0  0  0  0  0  0  0  0  0  0  0
   -1.8667    1.4134   -0.8166 C   0  0  1  0  0  0  0  0  0  0  0  0
   -2.2045   -0.0570   -0.7992 C   0  0  0  0  0  0  0  0  0  0  0  0
   -2.6294    2.1829    0.1420 N   0  0  0  0  0  0  0  0  0  0  0  0
   -4.0492    2.0720   -0.1079 C   0  0  0  0  0  0  0  0  0  0  0  0
   -4.9123    2.5407    1.0203 C   0  0  0  0  0  0  0  0  0  0  0  0
   -4.9686    3.8591    1.6212 C   0  0  0  0  0  0  0  0  0  0  0  0
   -6.1002    3.4492    0.7056 C   0  0  0  0  0  0  0  0  0  0  0  0
   -2.3277    3.6132   -0.1254 C   0  0  0  0  0  0  0  0  0  0  0  0
    1.4169    0.3160    0.2267 N   0  0  0  0  0  0  0  0  0  0  0  0
    1.3210   -0.7185   -0.7343 C   0  0  0  0  0  0  0  0  0  0  0  0
   -0.0102   -1.3184   -1.0054 C   0  0  1  0  0  0  0  0  0  0  0  0
    0.1559   -2.8493   -1.0368 C   0  0  0  0  0  0  0  0  0  0  0  0
    2.3215    1.3619   -0.2062 C   0  0  0  0  0  0  0  0  0  0  0  0
    3.7263    0.8550   -0.4792 C   0  0  0  0  0  0  0  0  0  0  0  0
    4.3334    0.2481    0.7677 C   0  0  0  0  0  0  0  0  0  0  0  0
    5.7021   -0.2330    0.4541 C   0  0  0  0  0  0  0  0  0  0  0  0
    6.7347    0.6826    0.6236 C   0  0  0  0  0  0  0  0  0  0  0  0
    8.0504    0.3682    0.3763 C   0  0  0  0  0  0  0  0  0  0  0  0
    8.3458   -0.9254   -0.0612 C   0  0  0  0  0  0  0  0  0  0  0  0
    7.3148   -1.8361   -0.2289 C   0  0  0  0  0  0  0  0  0  0  0  0
    5.9874   -1.5001    0.0261 C   0  0  0  0  0  0  0  0  0  0  0  0
    0.6850    0.0000    0.0000 Cl  0  0  0  0  0  0  0  0  0  0  0  0
    0.6845    0.0000    0.0000 Cl  0  0  0  0  0  0  0  0  0  0  0  0
   -3.9611   -5.7256   -1.4612 H   0  0  0  0  0  0  0  0  0  0  0  0
   -3.8524   -5.4111    1.0739 H   0  0  0  0  0  0  0  0  0  0  0  0
   -2.7199   -4.1587    2.8533 H   0  0  0  0  0  0  0  0  0  0  0  0
   -1.4710   -2.1092    2.3352 H   0  0  0  0  0  0  0  0  0  0  0  0
   -2.5018   -2.5683   -1.7794 H   0  0  0  0  0  0  0  0  0  0  0  0
   -1.6062    0.2162    1.6028 H   0  0  0  0  0  0  0  0  0  0  0  0
   -0.0549   -0.7851    1.7564 H   0  0  0  0  0  0  0  0  0  0  0  0
    0.3510    1.6207    1.4248 H   0  0  0  0  0  0  0  0  0  0  0  0
   -0.1150    2.6729   -0.5609 H   0  0  0  0  0  0  0  0  0  0  0  0
    0.1178    1.2707   -1.5844 H   0  0  0  0  0  0  0  0  0  0  0  0
   -2.1332    1.7944   -1.8141 H   0  0  0  0  0  0  0  0  0  0  0  0
   -3.1288   -0.1982   -0.2048 H   0  0  0  0  0  0  0  0  0  0  0  0
   -2.3788   -0.4888   -1.8040 H   0  0  0  0  0  0  0  0  0  0  0  0
   -4.3312    2.7662   -0.9804 H   0  0  0  0  0  0  0  0  0  0  0  0
   -4.4042    1.0982   -0.4687 H   0  0  0  0  0  0  0  0  0  0  0  0
   -5.2538    1.6767    1.6563 H   0  0  0  0  0  0  0  0  0  0  0  0
   -5.1973    3.8733    2.7363 H   0  0  0  0  0  0  0  0  0  0  0  0
   -4.4818    4.7747    1.3167 H   0  0  0  0  0  0  0  0  0  0  0  0
   -6.1609    3.8861   -0.2924 H   0  0  0  0  0  0  0  0  0  0  0  0
   -7.0620    3.2979    1.2131 H   0  0  0  0  0  0  0  0  0  0  0  0
   -1.6453    3.7080   -1.0099 H   0  0  0  0  0  0  0  0  0  0  0  0
   -2.0159    4.1505    0.7647 H   0  0  0  0  0  0  0  0  0  0  0  0
   -3.2642    4.0845   -0.5008 H   0  0  0  0  0  0  0  0  0  0  0  0
    2.0199   -1.5354   -0.3666 H   0  0  0  0  0  0  0  0  0  0  0  0
    1.8199   -0.4210   -1.7022 H   0  0  0  0  0  0  0  0  0  0  0  0
   -0.3057   -1.0414   -2.0529 H   0  0  0  0  0  0  0  0  0  0  0  0
   -0.2534   -3.2813   -1.9711 H   0  0  0  0  0  0  0  0  0  0  0  0
   -0.2005   -3.3328   -0.1237 H   0  0  0  0  0  0  0  0  0  0  0  0
    1.2645   -3.0592   -1.1105 H   0  0  0  0  0  0  0  0  0  0  0  0
    2.0036    1.8451   -1.1551 H   0  0  0  0  0  0  0  0  0  0  0  0
    2.3937    2.1703    0.5825 H   0  0  0  0  0  0  0  0  0  0  0  0
    3.6959    0.1839   -1.3441 H   0  0  0  0  0  0  0  0  0  0  0  0
    4.3126    1.7563   -0.7969 H   0  0  0  0  0  0  0  0  0  0  0  0
    3.6753   -0.5839    1.0720 H   0  0  0  0  0  0  0  0  0  0  0  0
    4.3854    1.0493    1.5358 H   0  0  0  0  0  0  0  0  0  0  0  0
    6.5118    1.6920    0.9656 H   0  0  0  0  0  0  0  0  0  0  0  0
    8.8340    1.1163    0.5221 H   0  0  0  0  0  0  0  0  0  0  0  0
    9.3634   -1.2145   -0.2661 H   0  0  0  0  0  0  0  0  0  0  0  0
    7.6075   -2.8251   -0.5715 H   0  0  0  0  0  0  0  0  0  0  0  0
    5.2016   -2.2168   -0.1089 H   0  0  0  0  0  0  0  0  0  0  0  0
   -0.6850    0.0000    0.0000 H   0  0  0  0  0  0  0  0  0  0  0  0
   -0.6845    0.0000    0.0000 H   0  0  0  0  0  0  0  0  0  0  0  0
  1  2  1  0
  2  3  2  0
  3  4  1  0
  4  5  2  0
  5  6  1  0
  6  7  2  0
  8  6  1  1
  8  9  1  0
  9 10  1  0
 10 11  1  0
 11 12  1  0
 12 13  1  0
 12 14  1  0
 14 15  1  0
 15 16  1  0
 16 17  1  0
 17 18  1  0
 14 19  1  0
 10 20  1  0
 20 21  1  0
 21 22  1  0
 22 23  1  0
 20 24  1  0
 24 25  1  0
 25 26  1  0
 26 27  1  0
 27 28  2  0
 28 29  1  0
 29 30  2  0
 30 31  1  0
 31 32  2  0
  7  2  1  0
 13  8  1  0
 18 16  1  0
 32 27  1  0
 22  8  1  0
  1 35  1  0
  3 36  1  0
  4 37  1  0
  5 38  1  0
  7 39  1  0
  9 40  1  0
  9 41  1  0
 10 42  1  1
 11 43  1  0
 11 44  1  0
 12 45  1  6
 13 46  1  0
 13 47  1  0
 15 48  1  0
 15 49  1  0
 16 50  1  0
 17 51  1  0
 17 52  1  0
 18 53  1  0
 18 54  1  0
 19 55  1  0
 19 56  1  0
 19 57  1  0
 21 58  1  0
 21 59  1  0
 22 60  1  6
 23 61  1  0
 23 62  1  0
 23 63  1  0
 24 64  1  0
 24 65  1  0
 25 66  1  0
 25 67  1  0
 26 68  1  0
 26 69  1  0
 28 70  1  0
 29 71  1  0
 30 72  1  0
 31 73  1  0
 32 74  1  0
 33 75  1  0
 34 76  1  0
M  END
>  <Ligand ID>  (1) 
LIG0002172

>  <Ligand>  (1) 
CHEMBL3217271

>  <SMILES>  (1) 
Oc1cccc(c1)[C@]12C[C@H](C[C@@H](C1)N(CC1CC1)C)N(C[C@H]2C)CCCc1ccccc1.Cl.Cl

>  <CID>  (1) 
72713104.0

>  <ChEMBL ID>  (1) 
nan

>  <InChiKey>  (1) 
DJOXPWCORVJOEF-UZHKHKMISA-N

>  <InChi>  (1) 
InChI=1S/C29H40N2O.2ClH/c1-22-20-31(15-7-10-23-8-4-3-5-9-23)27-17-26(30(2)21-24-13-14-24)18-29(22,19-27)25-11-6-12-28(32)16-25;;/h3-6,8-9,11-12,16,22,24,26-27,32H,7,10,13-15,17-21H2,1-2H3;2*1H/t22-,26+,27+,29+;;/m1../s1

>  <IUPAC Name>  (1) 
3-[(1R,4S,5S,7R)-7-[cyclopropylmethyl(methyl)amino]-4-methyl-2-(3-phenylpropyl)-2-azabicyclo[3.3.1]nonan-5-yl]phenol;dihydrochloride

$$$$
