
     RDKit          3D

 53 56  0  0  0  0  0  0  0  0999 V2000
    4.3390    2.4210   -0.4314 C   0  0  0  0  0  0  0  0  0  0  0  0
    4.8694    1.0395   -0.1624 C   0  0  0  0  0  0  0  0  0  0  0  0
    3.7354    0.0713   -0.2207 C   0  0  0  0  0  0  0  0  0  0  0  0
    2.4366    0.4800   -0.4936 C   0  0  0  0  0  0  0  0  0  0  0  0
    1.4122   -0.4531   -0.5370 C   0  0  0  0  0  0  0  0  0  0  0  0
    1.6900   -1.7840   -0.3084 C   0  0  0  0  0  0  0  0  0  0  0  0
    2.9904   -2.1698   -0.0384 C   0  0  0  0  0  0  0  0  0  0  0  0
    4.0263   -1.2600    0.0101 C   0  0  0  0  0  0  0  0  0  0  0  0
    0.5952   -2.7880   -0.3535 C   0  0  0  0  0  0  0  0  0  0  0  0
   -0.1678   -3.0027    1.2774 S   0  0  0  0  0  0  0  0  0  0  0  0
   -0.9892   -1.4737    1.6967 C   0  0  0  0  0  0  0  0  0  0  0  0
   -0.3348   -0.4699    2.3514 N   0  0  0  0  0  0  0  0  0  0  0  0
   -1.2242    0.5146    2.5149 N   0  0  0  0  0  0  0  0  0  0  0  0
   -2.4083    0.1128    1.9648 C   0  0  0  0  0  0  0  0  0  0  0  0
   -2.2573   -1.1195    1.4594 N   0  0  0  0  0  0  0  0  0  0  0  0
   -3.2822   -1.8722    0.8116 C   0  0  0  0  0  0  0  0  0  0  0  0
   -3.3925   -1.6821   -0.6351 C   0  0  0  0  0  0  0  0  0  0  0  0
   -4.1814   -0.6834   -1.2119 C   0  0  0  0  0  0  0  0  0  0  0  0
   -4.0553   -0.7894   -2.5882 C   0  0  0  0  0  0  0  0  0  0  0  0
   -3.2015   -1.8397   -2.7946 C   0  0  0  0  0  0  0  0  0  0  0  0
   -2.8495   -2.3180   -1.6461 O   0  0  0  0  0  0  0  0  0  0  0  0
   -3.5786    0.9830    1.9891 C   0  0  0  0  0  0  0  0  0  0  0  0
   -3.7502    2.0407    1.1176 C   0  0  0  0  0  0  0  0  0  0  0  0
   -4.8800    2.8169    1.2032 C   0  0  0  0  0  0  0  0  0  0  0  0
   -5.8168    2.5119    2.1669 C   0  0  0  0  0  0  0  0  0  0  0  0
   -5.6574    1.4570    3.0444 C   0  0  0  0  0  0  0  0  0  0  0  0
   -4.5406    0.7280    2.9238 N   0  0  0  0  0  0  0  0  0  0  0  0
    5.9213    0.7660   -1.2171 C   0  0  0  0  0  0  0  0  0  0  0  0
    5.4367    0.9674    1.2275 C   0  0  0  0  0  0  0  0  0  0  0  0
    3.9131    2.4704   -1.4384 H   0  0  0  0  0  0  0  0  0  0  0  0
    5.2386    3.1011   -0.3901 H   0  0  0  0  0  0  0  0  0  0  0  0
    3.6000    2.6985    0.3507 H   0  0  0  0  0  0  0  0  0  0  0  0
    2.2663    1.5344   -0.6664 H   0  0  0  0  0  0  0  0  0  0  0  0
    0.3842   -0.1224   -0.7541 H   0  0  0  0  0  0  0  0  0  0  0  0
    3.1647   -3.2241    0.1351 H   0  0  0  0  0  0  0  0  0  0  0  0
    5.0472   -1.5822    0.2249 H   0  0  0  0  0  0  0  0  0  0  0  0
   -0.1862   -2.4714   -1.0579 H   0  0  0  0  0  0  0  0  0  0  0  0
    0.9829   -3.7781   -0.6968 H   0  0  0  0  0  0  0  0  0  0  0  0
   -4.2605   -1.6376    1.3213 H   0  0  0  0  0  0  0  0  0  0  0  0
   -3.1178   -2.9566    1.0699 H   0  0  0  0  0  0  0  0  0  0  0  0
   -4.7949    0.0584   -0.7189 H   0  0  0  0  0  0  0  0  0  0  0  0
   -4.5385   -0.1644   -3.3030 H   0  0  0  0  0  0  0  0  0  0  0  0
   -2.8506   -2.2400   -3.7389 H   0  0  0  0  0  0  0  0  0  0  0  0
   -2.9730    2.2438    0.3652 H   0  0  0  0  0  0  0  0  0  0  0  0
   -5.0072    3.6571    0.5040 H   0  0  0  0  0  0  0  0  0  0  0  0
   -6.7115    3.1085    2.2517 H   0  0  0  0  0  0  0  0  0  0  0  0
   -6.4011    1.2170    3.8074 H   0  0  0  0  0  0  0  0  0  0  0  0
    6.5132    1.6805   -1.3739 H   0  0  0  0  0  0  0  0  0  0  0  0
    6.5801   -0.0229   -0.8206 H   0  0  0  0  0  0  0  0  0  0  0  0
    5.4978    0.4694   -2.1755 H   0  0  0  0  0  0  0  0  0  0  0  0
    4.7016    0.5485    1.9641 H   0  0  0  0  0  0  0  0  0  0  0  0
    6.3033    0.2521    1.2390 H   0  0  0  0  0  0  0  0  0  0  0  0
    5.7634    1.9555    1.6100 H   0  0  0  0  0  0  0  0  0  0  0  0
  1  2  1  0
  2  3  1  0
  3  4  2  0
  4  5  1  0
  5  6  2  0
  6  7  1  0
  7  8  2  0
  6  9  1  0
  9 10  1  0
 10 11  1  0
 11 12  2  0
 12 13  1  0
 13 14  2  0
 14 15  1  0
 15 16  1  0
 16 17  1  0
 17 18  2  0
 18 19  1  0
 19 20  2  0
 20 21  1  0
 14 22  1  0
 22 23  2  0
 23 24  1  0
 24 25  2  0
 25 26  1  0
 26 27  2  0
  2 28  1  0
  2 29  1  0
  8  3  1  0
 15 11  1  0
 21 17  1  0
 27 22  1  0
  1 30  1  0
  1 31  1  0
  1 32  1  0
  4 33  1  0
  5 34  1  0
  7 35  1  0
  8 36  1  0
  9 37  1  0
  9 38  1  0
 16 39  1  0
 16 40  1  0
 18 41  1  0
 19 42  1  0
 20 43  1  0
 23 44  1  0
 24 45  1  0
 25 46  1  0
 26 47  1  0
 28 48  1  0
 28 49  1  0
 28 50  1  0
 29 51  1  0
 29 52  1  0
 29 53  1  0
M  END
>  <Ligand ID>  (1) 
LIG0003384

>  <Ligand>  (1) 
MLS000569766

>  <SMILES>  (1) 
CC(c1ccc(cc1)CSc1nnc(n1Cc1ccco1)c1ccccn1)(C)C

>  <CID>  (1) 
2482316.0

>  <ChEMBL ID>  (1) 
nan

>  <InChiKey>  (1) 
OKSJPILHDREZGI-UHFFFAOYSA-N

>  <InChi>  (1) 
InChI=1S/C23H24N4OS/c1-23(2,3)18-11-9-17(10-12-18)16-29-22-26-25-21(20-8-4-5-13-24-20)27(22)15-19-7-6-14-28-19/h4-14H,15-16H2,1-3H3

>  <IUPAC Name>  (1) 
2-[5-[(4-tert-butylphenyl)methylsulfanyl]-4-(furan-2-ylmethyl)-1,2,4-triazol-3-yl]pyridine

$$$$
