
     RDKit          3D

 71 75  0  0  0  0  0  0  0  0999 V2000
   -8.0889   -3.1144   -1.7394 C   0  0  0  0  0  0  0  0  0  0  0  0
   -8.0028   -2.1411   -0.7197 O   0  0  0  0  0  0  0  0  0  0  0  0
   -7.1297   -1.0724   -0.7765 C   0  0  0  0  0  0  0  0  0  0  0  0
   -6.2595   -0.8426   -1.8212 C   0  0  0  0  0  0  0  0  0  0  0  0
   -5.3925    0.2429   -1.8479 C   0  0  0  0  0  0  0  0  0  0  0  0
   -5.4123    1.1083   -0.7935 C   0  0  0  0  0  0  0  0  0  0  0  0
   -6.2890    0.8820    0.2651 C   0  0  0  0  0  0  0  0  0  0  0  0
   -7.1511   -0.1912    0.2989 C   0  0  0  0  0  0  0  0  0  0  0  0
   -8.0276   -0.4037    1.3736 O   0  0  0  0  0  0  0  0  0  0  0  0
   -7.9858    0.5405    2.4283 C   0  0  0  0  0  0  0  0  0  0  0  0
   -4.3895    2.5201   -0.6625 S   0  0  0  0  0  0  0  0  0  0  0  0
   -4.0833    3.0023   -2.0729 O   0  0  0  0  0  0  0  0  0  0  0  0
   -5.0939    3.6498    0.0315 O   0  0  0  0  0  0  0  0  0  0  0  0
   -2.9228    2.1432    0.1608 N   0  0  0  0  0  0  0  0  0  0  0  0
   -2.2162    1.1677   -0.5804 C   0  0  0  0  0  0  0  0  0  0  0  0
   -0.7787    1.6338   -0.7903 C   0  0  0  0  0  0  0  0  0  0  0  0
   -0.2277    1.8209    0.6073 C   0  0  0  0  0  0  0  0  0  0  0  0
   -0.8675    3.0814    1.1410 C   0  0  0  0  0  0  0  0  0  0  0  0
   -2.2394    3.3115    0.5711 C   0  0  0  0  0  0  0  0  0  0  0  0
    1.1977    1.8437    0.6860 N   0  0  0  0  0  0  0  0  0  0  0  0
    1.8375    0.6622    0.2205 C   0  0  0  0  0  0  0  0  0  0  0  0
    1.6395   -0.5710    1.0273 C   0  0  1  0  0  0  0  0  0  0  0  0
    2.4654   -1.6766    0.3527 C   0  0  0  0  0  0  0  0  0  0  0  0
    3.8208   -1.3333    0.3190 O   0  0  0  0  0  0  0  0  0  0  0  0
    4.7389   -2.2025   -0.2546 C   0  0  0  0  0  0  0  0  0  0  0  0
    4.4227   -3.4065   -0.8108 C   0  0  0  0  0  0  0  0  0  0  0  0
    5.3930   -4.2279   -1.3685 C   0  0  0  0  0  0  0  0  0  0  0  0
    6.7123   -3.8053   -1.3551 C   0  0  0  0  0  0  0  0  0  0  0  0
    7.0113   -2.5894   -0.7908 C   0  0  0  0  0  0  0  0  0  0  0  0
    6.0644   -1.7811   -0.2428 C   0  0  0  0  0  0  0  0  0  0  0  0
    6.7011   -0.6336    0.2377 C   0  0  0  0  0  0  0  0  0  0  0  0
    6.2262    0.4874    0.8718 C   0  0  0  0  0  0  0  0  0  0  0  0
    7.0795    1.4978    1.2511 C   0  0  0  0  0  0  0  0  0  0  0  0
    8.4252    1.3819    0.9910 C   0  0  0  0  0  0  0  0  0  0  0  0
    8.8756    0.2457    0.3531 C   0  0  0  0  0  0  0  0  0  0  0  0
    8.0375   -0.7832   -0.0378 C   0  0  0  0  0  0  0  0  0  0  0  0
    8.1991   -1.9697   -0.6576 N   0  0  0  0  0  0  0  0  0  0  0  0
    2.1069   -0.4017    2.3196 O   0  0  0  0  0  0  0  0  0  0  0  0
   -9.0821   -3.6151   -1.7353 H   0  0  0  0  0  0  0  0  0  0  0  0
   -7.9279   -2.6876   -2.7509 H   0  0  0  0  0  0  0  0  0  0  0  0
   -7.2836   -3.8646   -1.5228 H   0  0  0  0  0  0  0  0  0  0  0  0
   -6.2497   -1.5303   -2.6507 H   0  0  0  0  0  0  0  0  0  0  0  0
   -4.7211    0.4165   -2.6614 H   0  0  0  0  0  0  0  0  0  0  0  0
   -6.3189    1.5677    1.1219 H   0  0  0  0  0  0  0  0  0  0  0  0
   -6.9579    0.5627    2.8424 H   0  0  0  0  0  0  0  0  0  0  0  0
   -8.1992    1.5479    2.0002 H   0  0  0  0  0  0  0  0  0  0  0  0
   -8.6890    0.2471    3.2282 H   0  0  0  0  0  0  0  0  0  0  0  0
   -2.6598    0.8934   -1.5503 H   0  0  0  0  0  0  0  0  0  0  0  0
   -2.1534    0.2369    0.0566 H   0  0  0  0  0  0  0  0  0  0  0  0
   -0.2247    0.9363   -1.4136 H   0  0  0  0  0  0  0  0  0  0  0  0
   -0.8154    2.6481   -1.2861 H   0  0  0  0  0  0  0  0  0  0  0  0
   -0.6304    0.9892    1.2266 H   0  0  0  0  0  0  0  0  0  0  0  0
   -0.2474    3.9650    0.8813 H   0  0  0  0  0  0  0  0  0  0  0  0
   -0.9314    3.0561    2.2484 H   0  0  0  0  0  0  0  0  0  0  0  0
   -2.1807    4.0458   -0.2737 H   0  0  0  0  0  0  0  0  0  0  0  0
   -2.8436    3.8265    1.3463 H   0  0  0  0  0  0  0  0  0  0  0  0
    1.5254    2.6282    0.0772 H   0  0  0  0  0  0  0  0  0  0  0  0
    2.9468    0.8797    0.2610 H   0  0  0  0  0  0  0  0  0  0  0  0
    1.6573    0.4120   -0.8489 H   0  0  0  0  0  0  0  0  0  0  0  0
    0.6033   -0.9631    1.0084 H   0  0  0  0  0  0  0  0  0  0  0  0
    2.2499   -2.6334    0.8586 H   0  0  0  0  0  0  0  0  0  0  0  0
    2.0838   -1.7891   -0.7041 H   0  0  0  0  0  0  0  0  0  0  0  0
    3.3943   -3.7179   -0.8131 H   0  0  0  0  0  0  0  0  0  0  0  0
    5.1475   -5.1885   -1.8131 H   0  0  0  0  0  0  0  0  0  0  0  0
    7.4835   -4.4407   -1.7891 H   0  0  0  0  0  0  0  0  0  0  0  0
    5.1770    0.6114    1.0927 H   0  0  0  0  0  0  0  0  0  0  0  0
    6.7324    2.3940    1.7531 H   0  0  0  0  0  0  0  0  0  0  0  0
    9.0770    2.1716    1.2893 H   0  0  0  0  0  0  0  0  0  0  0  0
    9.9370    0.1798    0.1597 H   0  0  0  0  0  0  0  0  0  0  0  0
    9.1184   -2.3207   -0.9722 H   0  0  0  0  0  0  0  0  0  0  0  0
    2.5865    0.4595    2.4282 H   0  0  0  0  0  0  0  0  0  0  0  0
  1  2  1  0
  2  3  1  0
  3  4  2  0
  4  5  1  0
  5  6  2  0
  6  7  1  0
  7  8  2  0
  8  9  1  0
  9 10  1  0
  6 11  1  0
 11 12  2  0
 11 13  2  0
 11 14  1  0
 14 15  1  0
 15 16  1  0
 16 17  1  0
 17 18  1  0
 18 19  1  0
 17 20  1  0
 20 21  1  0
 21 22  1  0
 22 23  1  0
 23 24  1  0
 24 25  1  0
 25 26  2  0
 26 27  1  0
 27 28  2  0
 28 29  1  0
 29 30  2  0
 30 31  1  0
 31 32  2  0
 32 33  1  0
 33 34  2  0
 34 35  1  0
 35 36  2  0
 36 37  1  0
 22 38  1  0
  8  3  1  0
 19 14  1  0
 30 25  1  0
 36 31  1  0
 37 29  1  0
  1 39  1  0
  1 40  1  0
  1 41  1  0
  4 42  1  0
  5 43  1  0
  7 44  1  0
 10 45  1  0
 10 46  1  0
 10 47  1  0
 15 48  1  0
 15 49  1  0
 16 50  1  0
 16 51  1  0
 17 52  1  0
 18 53  1  0
 18 54  1  0
 19 55  1  0
 19 56  1  0
 20 57  1  0
 21 58  1  0
 21 59  1  0
 22 60  1  1
 23 61  1  0
 23 62  1  0
 26 63  1  0
 27 64  1  0
 28 65  1  0
 32 66  1  0
 33 67  1  0
 34 68  1  0
 35 69  1  0
 37 70  1  0
 38 71  1  0
M  END
>  <Ligand ID>  (1) 
LIG0004740

>  <Ligand>  (1) 
CHEMBL71948

>  <SMILES>  (1) 
COc1ccc(cc1OC)S(=O)(=O)N1CCC(CC1)NC[C@@H](COc1cccc2c1c1ccccc1[nH]2)O

>  <CID>  (1) 
9915235.0

>  <ChEMBL ID>  (1) 
nan

>  <InChiKey>  (1) 
HRSJXESMWJIICU-FQEVSTJZSA-N

>  <InChi>  (1) 
InChI=1S/C28H33N3O6S/c1-35-25-11-10-21(16-27(25)36-2)38(33,34)31-14-12-19(13-15-31)29-17-20(32)18-37-26-9-5-8-24-28(26)22-6-3-4-7-23(22)30-24/h3-11,16,19-20,29-30,32H,12-15,17-18H2,1-2H3/t20-/m0/s1

>  <IUPAC Name>  (1) 
(2S)-1-(9H-carbazol-4-yloxy)-3-[[1-(3,4-dimethoxyphenyl)sulfonylpiperidin-4-yl]amino]propan-2-ol

$$$$
