
     RDKit          3D

 52 56  0  0  0  0  0  0  0  0999 V2000
    2.1945    6.0559   -0.4510 Cl  0  0  0  0  0  0  0  0  0  0  0  0
    2.2113    4.3436   -0.2309 C   0  0  0  0  0  0  0  0  0  0  0  0
    1.6726    3.5093    0.7293 C   0  0  0  0  0  0  0  0  0  0  0  0
    1.8585    2.2017    0.6272 C   0  0  0  0  0  0  0  0  0  0  0  0
    2.5872    1.6926   -0.4362 C   0  0  0  0  0  0  0  0  0  0  0  0
    3.0694    3.1581   -1.3991 S   0  0  0  0  0  0  0  0  0  0  0  0
    2.9296    0.3277   -0.7750 C   0  0  0  0  0  0  0  0  0  0  0  0
    1.9402   -0.3143   -1.6431 C   0  0  0  0  0  0  0  0  0  0  0  0
    2.3052   -0.9052   -2.8583 C   0  0  0  0  0  0  0  0  0  0  0  0
    1.3618   -1.4914   -3.6732 C   0  0  0  0  0  0  0  0  0  0  0  0
    0.0232   -1.4964   -3.2815 C   0  0  0  0  0  0  0  0  0  0  0  0
   -0.3706   -0.9219   -2.0886 C   0  0  0  0  0  0  0  0  0  0  0  0
    0.5874   -0.3401   -1.2871 C   0  0  0  0  0  0  0  0  0  0  0  0
   -1.7163   -0.9431   -1.7255 C   0  0  0  0  0  0  0  0  0  0  0  0
   -2.1690   -0.3466   -0.4696 C   0  0  0  0  0  0  0  0  0  0  0  0
   -3.4402   -0.3446   -0.0905 C   0  0  0  0  0  0  0  0  0  0  0  0
   -3.9193    0.2408    1.1525 C   0  0  0  0  0  0  0  0  0  0  0  0
   -5.2817    0.2021    1.4837 C   0  0  0  0  0  0  0  0  0  0  0  0
   -5.7692    0.7427    2.6448 C   0  0  0  0  0  0  0  0  0  0  0  0
   -4.9340    1.3567    3.5517 C   0  0  0  0  0  0  0  0  0  0  0  0
   -3.6011    1.4106    3.2577 C   0  0  0  0  0  0  0  0  0  0  0  0
   -3.1092    0.8603    2.0770 C   0  0  0  0  0  0  0  0  0  0  0  0
   -2.7832    2.0179    4.1568 F   0  0  0  0  0  0  0  0  0  0  0  0
   -2.5710   -1.5516   -2.6083 C   0  0  0  0  0  0  0  0  0  0  0  0
   -2.1291   -2.1225   -3.8090 C   0  0  0  0  0  0  0  0  0  0  0  0
   -2.9517   -2.6718   -4.5906 O   0  0  0  0  0  0  0  0  0  0  0  0
   -0.8281   -2.0890   -4.1356 N   0  0  0  0  0  0  0  0  0  0  0  0
    3.2354   -0.4479    0.4367 C   0  0  0  0  0  0  0  0  0  0  0  0
    4.4468   -0.1827    1.0681 C   0  0  0  0  0  0  0  0  0  0  0  0
    4.8576   -0.8418    2.2022 C   0  0  0  0  0  0  0  0  0  0  0  0
    4.0361   -1.8203    2.7549 C   0  0  0  0  0  0  0  0  0  0  0  0
    2.8476   -2.0793    2.1338 C   0  0  0  0  0  0  0  0  0  0  0  0
    2.4466   -1.4114    0.9965 C   0  0  0  0  0  0  0  0  0  0  0  0
    4.4727   -2.7081    4.1901 Cl  0  0  0  0  0  0  0  0  0  0  0  0
    1.0959    3.9789    1.5616 H   0  0  0  0  0  0  0  0  0  0  0  0
    1.4506    1.4705    1.3683 H   0  0  0  0  0  0  0  0  0  0  0  0
    3.8913    0.3829   -1.3688 H   0  0  0  0  0  0  0  0  0  0  0  0
    3.3547   -0.8737   -3.1139 H   0  0  0  0  0  0  0  0  0  0  0  0
    1.6966   -1.9294   -4.5931 H   0  0  0  0  0  0  0  0  0  0  0  0
    0.3399    0.1243   -0.3682 H   0  0  0  0  0  0  0  0  0  0  0  0
   -1.4822    0.1245    0.2146 H   0  0  0  0  0  0  0  0  0  0  0  0
   -4.1861   -0.7995   -0.7265 H   0  0  0  0  0  0  0  0  0  0  0  0
   -5.9890   -0.2696    0.8067 H   0  0  0  0  0  0  0  0  0  0  0  0
   -6.8292    0.6987    2.8766 H   0  0  0  0  0  0  0  0  0  0  0  0
   -5.3274    1.7753    4.4553 H   0  0  0  0  0  0  0  0  0  0  0  0
   -2.0475    0.9490    1.9289 H   0  0  0  0  0  0  0  0  0  0  0  0
   -3.6225   -1.6251   -2.4312 H   0  0  0  0  0  0  0  0  0  0  0  0
   -0.5044   -2.5155   -5.0306 H   0  0  0  0  0  0  0  0  0  0  0  0
    5.1317    0.5759    0.6774 H   0  0  0  0  0  0  0  0  0  0  0  0
    5.7921   -0.6558    2.7121 H   0  0  0  0  0  0  0  0  0  0  0  0
    2.2100   -2.8304    2.5531 H   0  0  0  0  0  0  0  0  0  0  0  0
    1.5155   -1.6710    0.5680 H   0  0  0  0  0  0  0  0  0  0  0  0
  1  2  1  0
  2  3  2  0
  3  4  1  0
  4  5  2  0
  5  6  1  0
  5  7  1  0
  7  8  1  0
  8  9  2  0
  9 10  1  0
 10 11  2  0
 11 12  1  0
 12 13  2  0
 12 14  1  0
 14 15  1  0
 15 16  2  0
 16 17  1  0
 17 18  2  0
 18 19  1  0
 19 20  2  0
 20 21  1  0
 21 22  2  0
 21 23  1  0
 14 24  2  0
 24 25  1  0
 25 26  2  0
 25 27  1  0
  7 28  1  0
 28 29  2  0
 29 30  1  0
 30 31  2  0
 31 32  1  0
 32 33  2  0
 31 34  1  0
  6  2  1  0
 13  8  1  0
 22 17  1  0
 33 28  1  0
 27 11  1  0
  3 35  1  0
  4 36  1  0
  7 37  1  0
  9 38  1  0
 10 39  1  0
 13 40  1  0
 15 41  1  0
 16 42  1  0
 18 43  1  0
 19 44  1  0
 20 45  1  0
 22 46  1  0
 24 47  1  0
 27 48  1  0
 29 49  1  0
 30 50  1  0
 32 51  1  0
 33 52  1  0
M  END
>  <Ligand ID>  (1) 
LIG0005856

>  <Ligand>  (1) 
CHEMBL3983001

>  <SMILES>  (1) 
Clc1ccc(s1)C(c1ccc2c(c1)c(/C=C/c1cccc(c1)F)cc(=O)[nH]2)c1ccc(cc1)Cl

>  <CID>  (1) 
118324090.0

>  <ChEMBL ID>  (1) 
nan

>  <InChiKey>  (1) 
LHLOYQDXJINIST-SNAWJCMRSA-N

>  <InChi>  (1) 
InChI=1S/C28H18Cl2FNOS/c29-21-9-6-18(7-10-21)28(25-12-13-26(30)34-25)20-8-11-24-23(15-20)19(16-27(33)32-24)5-4-17-2-1-3-22(31)14-17/h1-16,28H,(H,32,33)/b5-4+

>  <IUPAC Name>  (1) 
6-[(4-chlorophenyl)-(5-chlorothiophen-2-yl)methyl]-4-[(E)-2-(3-fluorophenyl)ethenyl]-1H-quinolin-2-one

$$$$
