
     RDKit          3D

 39 40  0  0  0  0  0  0  0  0999 V2000
    6.1334    0.2635    1.4934 C   0  0  0  0  0  0  0  0  0  0  0  0
    5.9676   -0.8173    0.5494 N   0  0  0  0  0  0  0  0  0  0  0  0
    4.5824   -1.0391    0.1987 C   0  0  0  0  0  0  0  0  0  0  0  0
    3.8331    0.2733    0.0211 C   0  0  0  0  0  0  0  0  0  0  0  0
    2.4193   -0.1020   -0.3380 C   0  0  0  0  0  0  0  0  0  0  0  0
    1.5718    0.9852   -0.5423 O   0  0  0  0  0  0  0  0  0  0  0  0
    0.2494    0.7122   -0.8776 C   0  0  0  0  0  0  0  0  0  0  0  0
   -0.6142    1.7939   -1.0859 C   0  0  0  0  0  0  0  0  0  0  0  0
   -1.9341    1.6146   -1.4198 C   0  0  0  0  0  0  0  0  0  0  0  0
   -2.4307    0.3317   -1.5556 C   0  0  0  0  0  0  0  0  0  0  0  0
   -1.5733   -0.7303   -1.3487 C   0  0  0  0  0  0  0  0  0  0  0  0
   -0.2436   -0.5701   -1.0125 C   0  0  0  0  0  0  0  0  0  0  0  0
   -3.7465    0.0661   -1.8892 O   0  0  0  0  0  0  0  0  0  0  0  0
   -4.6401   -0.0631   -0.8330 C   0  0  0  0  0  0  0  0  0  0  0  0
   -5.2724    1.1137   -0.4142 C   0  0  0  0  0  0  0  0  0  0  0  0
   -6.1717    1.0532    0.6309 C   0  0  0  0  0  0  0  0  0  0  0  0
   -6.4667   -0.1437    1.2786 C   0  0  0  0  0  0  0  0  0  0  0  0
   -5.8142   -1.2880    0.8284 C   0  0  0  0  0  0  0  0  0  0  0  0
   -4.9102   -1.2627   -0.2129 C   0  0  0  0  0  0  0  0  0  0  0  0
    6.1486    1.2488    0.9932 H   0  0  0  0  0  0  0  0  0  0  0  0
    7.1694    0.1524    1.9290 H   0  0  0  0  0  0  0  0  0  0  0  0
    5.4127    0.2286    2.3297 H   0  0  0  0  0  0  0  0  0  0  0  0
    6.3601   -1.7146    0.9115 H   0  0  0  0  0  0  0  0  0  0  0  0
    6.5065   -0.5795   -0.3125 H   0  0  0  0  0  0  0  0  0  0  0  0
    4.5583   -1.5200   -0.8210 H   0  0  0  0  0  0  0  0  0  0  0  0
    4.0632   -1.7372    0.8655 H   0  0  0  0  0  0  0  0  0  0  0  0
    4.3386    0.8584   -0.7574 H   0  0  0  0  0  0  0  0  0  0  0  0
    3.7951    0.8062    0.9909 H   0  0  0  0  0  0  0  0  0  0  0  0
    2.0262   -0.7176    0.4997 H   0  0  0  0  0  0  0  0  0  0  0  0
    2.3755   -0.7735   -1.2273 H   0  0  0  0  0  0  0  0  0  0  0  0
   -0.2654    2.8107   -0.9895 H   0  0  0  0  0  0  0  0  0  0  0  0
   -2.6347    2.4185   -1.5894 H   0  0  0  0  0  0  0  0  0  0  0  0
   -1.9260   -1.7551   -1.4462 H   0  0  0  0  0  0  0  0  0  0  0  0
    0.4152   -1.4086   -0.8537 H   0  0  0  0  0  0  0  0  0  0  0  0
   -5.0562    2.0676   -0.9089 H   0  0  0  0  0  0  0  0  0  0  0  0
   -6.6381    1.9955    0.9205 H   0  0  0  0  0  0  0  0  0  0  0  0
   -7.1753   -0.1609    2.0942 H   0  0  0  0  0  0  0  0  0  0  0  0
   -6.0050   -2.2432    1.2943 H   0  0  0  0  0  0  0  0  0  0  0  0
   -4.4078   -2.1675   -0.5535 H   0  0  0  0  0  0  0  0  0  0  0  0
  1  2  1  0
  2  3  1  0
  3  4  1  0
  4  5  1  0
  5  6  1  0
  6  7  1  0
  7  8  2  0
  8  9  1  0
  9 10  2  0
 10 11  1  0
 11 12  2  0
 10 13  1  0
 13 14  1  0
 14 15  2  0
 15 16  1  0
 16 17  2  0
 17 18  1  0
 18 19  2  0
 12  7  1  0
 19 14  1  0
  1 20  1  0
  1 21  1  0
  1 22  1  0
  2 23  1  0
  2 24  1  0
  3 25  1  0
  3 26  1  0
  4 27  1  0
  4 28  1  0
  5 29  1  0
  5 30  1  0
  8 31  1  0
  9 32  1  0
 11 33  1  0
 12 34  1  0
 15 35  1  0
 16 36  1  0
 17 37  1  0
 18 38  1  0
 19 39  1  0
M  CHG  1   2   1
M  END
>  <Ligand ID>  (1) 
LIG0005558

>  <Ligand>  (1) 
CHEMBL375468

>  <SMILES>  (1) 
C[NH2+]CCCOc1ccc(cc1)Oc1ccccc1

>  <CID>  (1) 
28260086.0

>  <ChEMBL ID>  (1) 
nan

>  <InChiKey>  (1) 
IYWLETWBPGGXPM-UHFFFAOYSA-O

>  <InChi>  (1) 
InChI=1S/C16H19NO2/c1-17-12-5-13-18-14-8-10-16(11-9-14)19-15-6-3-2-4-7-15/h2-4,6-11,17H,5,12-13H2,1H3/p+1

>  <IUPAC Name>  (1) 
methyl-[3-(4-phenoxyphenoxy)propyl]azanium

$$$$
