
     RDKit          3D

 36 38  0  0  0  0  0  0  0  0999 V2000
    4.1521    0.9405    0.3754 C   0  0  0  0  0  0  0  0  0  0  0  0
    2.8030    0.5179    0.4549 O   0  0  0  0  0  0  0  0  0  0  0  0
    2.2698   -0.4770   -0.3253 C   0  0  0  0  0  0  0  0  0  0  0  0
    2.9987   -1.0624   -1.1660 O   0  0  0  0  0  0  0  0  0  0  0  0
    0.8855   -0.9040   -0.2372 C   0  0  0  0  0  0  0  0  0  0  0  0
    0.3104   -1.8392   -0.9434 C   0  0  0  0  0  0  0  0  0  0  0  0
    0.9054   -2.6629   -1.9684 N   0  0  0  0  0  0  0  0  0  0  0  0
   -1.1029   -1.9650   -0.5499 C   0  0  0  0  0  0  0  0  0  0  0  0
   -1.3733   -1.0417    0.4538 C   0  0  0  0  0  0  0  0  0  0  0  0
   -0.1135   -0.3062    0.7149 C   0  0  0  0  0  0  0  0  0  0  0  0
    0.3683   -0.5819    2.0636 C   0  0  0  0  0  0  0  0  0  0  0  0
    0.7407   -0.7821    3.1318 N   0  0  0  0  0  0  0  0  0  0  0  0
   -0.2005    1.1431    0.4693 C   0  0  0  0  0  0  0  0  0  0  0  0
   -0.4051    1.5463   -0.8503 C   0  0  0  0  0  0  0  0  0  0  0  0
   -0.5004    2.8896   -1.1793 C   0  0  0  0  0  0  0  0  0  0  0  0
   -0.3872    3.8182   -0.1647 C   0  0  0  0  0  0  0  0  0  0  0  0
   -0.1842    3.4111    1.1427 C   0  0  0  0  0  0  0  0  0  0  0  0
   -0.0889    2.0759    1.4737 C   0  0  0  0  0  0  0  0  0  0  0  0
   -2.6011   -0.9028    1.0388 C   0  0  0  0  0  0  0  0  0  0  0  0
   -3.6239   -1.7160    0.6156 C   0  0  0  0  0  0  0  0  0  0  0  0
   -3.3757   -2.6414   -0.3821 C   0  0  0  0  0  0  0  0  0  0  0  0
   -2.1420   -2.7865   -0.9751 C   0  0  0  0  0  0  0  0  0  0  0  0
   -1.9131   -3.7095   -1.9629 F   0  0  0  0  0  0  0  0  0  0  0  0
    4.5112    1.2998    1.3629 H   0  0  0  0  0  0  0  0  0  0  0  0
    4.8283    0.1299    0.0600 H   0  0  0  0  0  0  0  0  0  0  0  0
    4.1841    1.8335   -0.2963 H   0  0  0  0  0  0  0  0  0  0  0  0
    0.9703   -2.2550   -2.9369 H   0  0  0  0  0  0  0  0  0  0  0  0
    1.2551   -3.6301   -1.7412 H   0  0  0  0  0  0  0  0  0  0  0  0
   -0.4924    0.8075   -1.6397 H   0  0  0  0  0  0  0  0  0  0  0  0
   -0.6590    3.1488   -2.2179 H   0  0  0  0  0  0  0  0  0  0  0  0
   -0.4657    4.8600   -0.4497 H   0  0  0  0  0  0  0  0  0  0  0  0
   -0.0960    4.1525    1.9385 H   0  0  0  0  0  0  0  0  0  0  0  0
    0.0722    1.7402    2.5072 H   0  0  0  0  0  0  0  0  0  0  0  0
   -2.7729   -0.1611    1.8282 H   0  0  0  0  0  0  0  0  0  0  0  0
   -4.5810   -1.5943    1.0852 H   0  0  0  0  0  0  0  0  0  0  0  0
   -4.1761   -3.2955   -0.7302 H   0  0  0  0  0  0  0  0  0  0  0  0
  1  2  1  0
  2  3  1  0
  3  4  2  0
  3  5  1  0
  5  6  2  0
  6  7  1  0
  6  8  1  0
  8  9  2  0
  9 10  1  0
 10 11  1  0
 11 12  3  0
 10 13  1  0
 13 14  2  0
 14 15  1  0
 15 16  2  0
 16 17  1  0
 17 18  2  0
  9 19  1  0
 19 20  2  0
 20 21  1  0
 21 22  2  0
 22 23  1  0
 10  5  1  0
 18 13  1  0
 22  8  1  0
  1 24  1  0
  1 25  1  0
  1 26  1  0
  7 27  1  0
  7 28  1  0
 14 29  1  0
 15 30  1  0
 16 31  1  0
 17 32  1  0
 18 33  1  0
 19 34  1  0
 20 35  1  0
 21 36  1  0
M  END
>  <Ligand ID>  (1) 
LIG0004709

>  <Ligand>  (1) 
methyl 3-amino-1-cyano-4-fluoro-1-phenyl-1H-indene-2-carboxylate

>  <SMILES>  (1) 
COC(=O)C1=C(N)c2c(C1(C#N)c1ccccc1)cccc2F

>  <CID>  (1) 
2775317.0

>  <ChEMBL ID>  (1) 
nan

>  <InChiKey>  (1) 
UBPUFJUMTJUBND-UHFFFAOYSA-N

>  <InChi>  (1) 
InChI=1S/C18H13FN2O2/c1-23-17(22)15-16(21)14-12(8-5-9-13(14)19)18(15,10-20)11-6-3-2-4-7-11/h2-9H,21H2,1H3

>  <IUPAC Name>  (1) 
methyl 3-amino-1-cyano-4-fluoro-1-phenylindene-2-carboxylate

$$$$
