
     RDKit          3D

 55 57  0  0  0  0  0  0  0  0999 V2000
    7.9855   -0.0257   -1.0046 C   0  0  0  0  0  0  0  0  0  0  0  0
    6.6190    0.4444   -1.0319 N   0  0  0  0  0  0  0  0  0  0  0  0
    5.5228   -0.3582   -0.6662 C   0  0  0  0  0  0  0  0  0  0  0  0
    5.7940   -1.5534   -0.2989 O   0  0  0  0  0  0  0  0  0  0  0  0
    4.1725    0.1967   -0.7228 C   0  0  0  0  0  0  0  0  0  0  0  0
    3.0803   -0.6346   -0.1840 C   0  0  0  0  0  0  0  0  0  0  0  0
    3.1973   -0.9154    1.2734 C   0  0  0  0  0  0  0  0  0  0  0  0
    3.1557    0.1664    2.2980 C   0  0  0  0  0  0  0  0  0  0  0  0
    4.4669   -0.5425    1.9515 C   0  0  0  0  0  0  0  0  0  0  0  0
    1.7712    0.0206   -0.3818 N   0  0  0  0  0  0  0  0  0  0  0  0
    0.5916   -0.6300    0.0735 C   0  0  0  0  0  0  0  0  0  0  0  0
    0.6143   -1.7580    0.6470 O   0  0  0  0  0  0  0  0  0  0  0  0
   -0.7019    0.0528   -0.1400 C   0  0  0  0  0  0  0  0  0  0  0  0
   -0.7622    1.2501   -0.7449 N   0  0  0  0  0  0  0  0  0  0  0  0
   -1.9604    1.8711   -0.9372 C   0  0  0  0  0  0  0  0  0  0  0  0
   -3.1262    1.2748   -0.5116 C   0  0  0  0  0  0  0  0  0  0  0  0
   -3.1261    0.0503    0.1138 C   0  0  0  0  0  0  0  0  0  0  0  0
   -1.8508   -0.5313    0.2778 C   0  0  0  0  0  0  0  0  0  0  0  0
   -4.1663   -0.6470    0.5786 O   0  0  0  0  0  0  0  0  0  0  0  0
   -5.5126   -0.5591    0.6813 C   0  0  2  0  0  0  0  0  0  0  0  0
   -5.8618   -0.7409    2.1790 C   0  0  0  0  0  0  0  0  0  0  0  0
   -5.2396    0.2578    2.8879 F   0  0  0  0  0  0  0  0  0  0  0  0
   -7.2080   -0.7974    2.3669 F   0  0  0  0  0  0  0  0  0  0  0  0
   -5.2865   -1.9422    2.5460 F   0  0  0  0  0  0  0  0  0  0  0  0
   -6.2471   -1.7424    0.0139 C   0  0  0  0  0  0  0  0  0  0  0  0
   -4.3995    1.9862   -0.7450 C   0  0  0  0  0  0  0  0  0  0  0  0
   -5.1878    1.7435   -1.9724 C   0  0  0  0  0  0  0  0  0  0  0  0
   -4.4926    3.0260   -1.8233 C   0  0  0  0  0  0  0  0  0  0  0  0
    3.0564   -1.9395   -0.9984 C   0  0  0  0  0  0  0  0  0  0  0  0
    7.9852   -1.0350   -0.5531 H   0  0  0  0  0  0  0  0  0  0  0  0
    8.3374   -0.1732   -2.0645 H   0  0  0  0  0  0  0  0  0  0  0  0
    8.6237    0.7043   -0.4746 H   0  0  0  0  0  0  0  0  0  0  0  0
    6.4419    1.4304   -1.3392 H   0  0  0  0  0  0  0  0  0  0  0  0
    3.8971    0.5173   -1.7670 H   0  0  0  0  0  0  0  0  0  0  0  0
    4.1939    1.1443   -0.1041 H   0  0  0  0  0  0  0  0  0  0  0  0
    2.7189   -1.8743    1.6562 H   0  0  0  0  0  0  0  0  0  0  0  0
    3.0121    1.2249    1.9886 H   0  0  0  0  0  0  0  0  0  0  0  0
    2.7871   -0.0350    3.3025 H   0  0  0  0  0  0  0  0  0  0  0  0
    4.8453   -1.2802    2.7252 H   0  0  0  0  0  0  0  0  0  0  0  0
    5.2044    0.1811    1.6118 H   0  0  0  0  0  0  0  0  0  0  0  0
    1.7121    0.9509   -0.8505 H   0  0  0  0  0  0  0  0  0  0  0  0
   -1.9014    2.8288   -1.4283 H   0  0  0  0  0  0  0  0  0  0  0  0
   -1.7603   -1.5116    0.7688 H   0  0  0  0  0  0  0  0  0  0  0  0
   -6.0444    0.3180    0.3218 H   0  0  0  0  0  0  0  0  0  0  0  0
   -5.9867   -2.7001    0.4912 H   0  0  0  0  0  0  0  0  0  0  0  0
   -7.3286   -1.5411    0.2560 H   0  0  0  0  0  0  0  0  0  0  0  0
   -6.1206   -1.7237   -1.0712 H   0  0  0  0  0  0  0  0  0  0  0  0
   -4.8802    2.3536    0.2102 H   0  0  0  0  0  0  0  0  0  0  0  0
   -4.7680    1.0201   -2.6927 H   0  0  0  0  0  0  0  0  0  0  0  0
   -6.2975    1.7070   -1.9553 H   0  0  0  0  0  0  0  0  0  0  0  0
   -3.5965    3.3003   -2.3713 H   0  0  0  0  0  0  0  0  0  0  0  0
   -5.1749    3.9106   -1.6674 H   0  0  0  0  0  0  0  0  0  0  0  0
    2.0194   -2.3065   -1.1442 H   0  0  0  0  0  0  0  0  0  0  0  0
    3.7266   -2.6739   -0.5136 H   0  0  0  0  0  0  0  0  0  0  0  0
    3.4560   -1.7602   -2.0310 H   0  0  0  0  0  0  0  0  0  0  0  0
  1  2  1  0
  2  3  1  0
  3  4  2  0
  3  5  1  0
  5  6  1  0
  6  7  1  0
  7  8  1  0
  8  9  1  0
  6 10  1  0
 10 11  1  0
 11 12  2  0
 11 13  1  0
 13 14  2  0
 14 15  1  0
 15 16  2  0
 16 17  1  0
 17 18  2  0
 17 19  1  0
 19 20  1  0
 20 21  1  0
 21 22  1  0
 21 23  1  0
 21 24  1  0
 20 25  1  0
 16 26  1  0
 26 27  1  0
 27 28  1  0
  6 29  1  0
  9  7  1  0
 18 13  1  0
 28 26  1  0
  1 30  1  0
  1 31  1  0
  1 32  1  0
  2 33  1  0
  5 34  1  0
  5 35  1  0
  7 36  1  0
  8 37  1  0
  8 38  1  0
  9 39  1  0
  9 40  1  0
 10 41  1  0
 15 42  1  0
 18 43  1  0
 20 44  1  6
 25 45  1  0
 25 46  1  0
 25 47  1  0
 26 48  1  0
 27 49  1  0
 27 50  1  0
 28 51  1  0
 28 52  1  0
 29 53  1  0
 29 54  1  0
 29 55  1  0
M  END
>  <Ligand ID>  (1) 
LIG0005188

>  <Ligand>  (1) 
CHEMBL3976062

>  <SMILES>  (1) 
CNC(=O)CC(C1CC1)(NC(=O)c1ncc(c(c1)O[C@H](C(F)(F)F)C)C1CC1)C

>  <CID>  (1) 
90203657.0

>  <ChEMBL ID>  (1) 
nan

>  <InChiKey>  (1) 
UBPIPJSHJMKAEX-IFGYVTRGSA-N

>  <InChi>  (1) 
InChI=1S/C20H26F3N3O3/c1-11(20(21,22)23)29-16-8-15(25-10-14(16)12-4-5-12)18(28)26-19(2,13-6-7-13)9-17(27)24-3/h8,10-13H,4-7,9H2,1-3H3,(H,24,27)(H,26,28)/t11-,19?/m0/s1

>  <IUPAC Name>  (1) 
5-cyclopropyl-N-[2-cyclopropyl-4-(methylamino)-4-oxobutan-2-yl]-4-[(2S)-1,1,1-trifluoropropan-2-yl]oxypyridine-2-carboxamide

$$$$
