
     RDKit          3D

 36 38  0  0  0  0  0  0  0  0999 V2000
   -2.8775    2.0573    0.5515 C   0  0  0  0  0  0  0  0  0  0  0  0
   -2.2620    1.4117   -0.5192 O   0  0  0  0  0  0  0  0  0  0  0  0
   -1.5132    0.2780   -0.5154 C   0  0  0  0  0  0  0  0  0  0  0  0
   -2.0895   -0.9798   -0.6853 C   0  0  0  0  0  0  0  0  0  0  0  0
   -3.5562   -1.0387   -0.8739 C   0  0  0  0  0  0  0  0  0  0  0  0
   -4.3488   -0.8408    0.3635 C   0  0  0  0  0  0  0  0  0  0  0  0
   -1.2865   -2.1141   -0.6750 C   0  0  0  0  0  0  0  0  0  0  0  0
    0.0584   -2.0074   -0.5011 C   0  0  0  0  0  0  0  0  0  0  0  0
    0.6751   -0.7624   -0.3275 C   0  0  0  0  0  0  0  0  0  0  0  0
   -0.1378    0.3518   -0.3395 C   0  0  0  0  0  0  0  0  0  0  0  0
    0.7306    1.5051   -0.1217 C   0  0  0  0  0  0  0  0  0  0  0  0
    0.4419    2.7245   -0.0550 O   0  0  0  0  0  0  0  0  0  0  0  0
    2.0538    1.0171    0.0158 N   0  0  0  0  0  0  0  0  0  0  0  0
    2.0789   -0.4433   -0.1486 C   0  0  1  0  0  0  0  0  0  0  0  0
    2.7536   -0.9659    1.0794 C   0  0  0  0  0  0  0  0  0  0  0  0
    4.1489   -0.6263    0.9208 N   0  0  0  0  0  0  0  0  0  0  0  0
    4.4351    0.7077    0.5494 C   0  0  0  0  0  0  0  0  0  0  0  0
    3.3170    1.6394    0.2859 C   0  0  0  0  0  0  0  0  0  0  0  0
   -2.4966    3.1095    0.6809 H   0  0  0  0  0  0  0  0  0  0  0  0
   -2.9216    1.4923    1.4961 H   0  0  0  0  0  0  0  0  0  0  0  0
   -3.9529    2.2042    0.2463 H   0  0  0  0  0  0  0  0  0  0  0  0
   -3.7787   -2.0395   -1.2953 H   0  0  0  0  0  0  0  0  0  0  0  0
   -3.8987   -0.3193   -1.6461 H   0  0  0  0  0  0  0  0  0  0  0  0
   -3.7196   -0.7685    1.2736 H   0  0  0  0  0  0  0  0  0  0  0  0
   -5.0123   -1.7144    0.5216 H   0  0  0  0  0  0  0  0  0  0  0  0
   -5.0569    0.0276    0.2849 H   0  0  0  0  0  0  0  0  0  0  0  0
   -1.7438   -3.1062   -0.8088 H   0  0  0  0  0  0  0  0  0  0  0  0
    0.6634   -2.9179   -0.4975 H   0  0  0  0  0  0  0  0  0  0  0  0
    2.6830   -0.6729   -1.0519 H   0  0  0  0  0  0  0  0  0  0  0  0
    2.6441   -2.0424    1.2158 H   0  0  0  0  0  0  0  0  0  0  0  0
    2.3894   -0.3841    1.9523 H   0  0  0  0  0  0  0  0  0  0  0  0
    4.5461   -1.2977    0.1939 H   0  0  0  0  0  0  0  0  0  0  0  0
    5.1026    0.7205   -0.3592 H   0  0  0  0  0  0  0  0  0  0  0  0
    5.1289    1.1093    1.3552 H   0  0  0  0  0  0  0  0  0  0  0  0
    3.5449    2.3343   -0.5738 H   0  0  0  0  0  0  0  0  0  0  0  0
    3.2567    2.3514    1.1629 H   0  0  0  0  0  0  0  0  0  0  0  0
  1  2  1  0
  2  3  1  0
  3  4  2  0
  4  5  1  0
  5  6  1  0
  4  7  1  0
  7  8  2  0
  8  9  1  0
  9 10  2  0
 10 11  1  0
 11 12  2  0
 11 13  1  0
 13 14  1  0
 14 15  1  0
 15 16  1  0
 16 17  1  0
 17 18  1  0
 10  3  1  0
 18 13  1  0
 14  9  1  0
  1 19  1  0
  1 20  1  0
  1 21  1  0
  5 22  1  0
  5 23  1  0
  6 24  1  0
  6 25  1  0
  6 26  1  0
  7 27  1  0
  8 28  1  0
 14 29  1  6
 15 30  1  0
 15 31  1  0
 16 32  1  0
 17 33  1  0
 17 34  1  0
 18 35  1  0
 18 36  1  0
M  END
>  <Ligand ID>  (1) 
LIG0004094

>  <Ligand>  (1) 
CHEMBL223468

>  <SMILES>  (1) 
COc1c(CC)ccc2c1C(=O)N1[C@H]2CNCC1

>  <CID>  (1) 
16115517.0

>  <ChEMBL ID>  (1) 
nan

>  <InChiKey>  (1) 
ZWKILPBYPRWWLP-NSHDSACASA-N

>  <InChi>  (1) 
InChI=1S/C14H18N2O2/c1-3-9-4-5-10-11-8-15-6-7-16(11)14(17)12(10)13(9)18-2/h4-5,11,15H,3,6-8H2,1-2H3/t11-/m0/s1

>  <IUPAC Name>  (1) 
(10bR)-8-ethyl-7-methoxy-2,3,4,10b-tetrahydro-1H-pyrazino[1,2-b]isoindol-6-one

$$$$
