
     RDKit          3D

 50 53  0  0  0  0  0  0  0  0999 V2000
    1.1704   -2.5921    1.2314 O   0  0  0  0  0  0  0  0  0  0  0  0
    0.5095   -2.5035    0.0246 C   0  0  1  0  0  0  0  0  0  0  0  0
   -0.9938   -2.5911    0.3173 C   0  0  0  0  0  0  0  0  0  0  0  0
   -1.2179   -1.2171    0.9184 C   0  0  1  0  0  0  0  0  0  0  0  0
   -0.3390   -0.2862    0.1580 C   0  0  1  0  0  0  0  0  0  0  0  0
    0.5904   -1.1738   -0.6425 C   0  0  1  0  0  0  0  0  0  0  0  0
    1.9778   -0.5948   -0.7403 C   0  0  0  0  0  0  0  0  0  0  0  0
    2.5845   -0.3976    0.4990 O   0  0  0  0  0  0  0  0  0  0  0  0
    3.8766    0.1331    0.6051 C   0  0  0  0  0  0  0  0  0  0  0  0
    4.4410    0.3123    1.8553 C   0  0  0  0  0  0  0  0  0  0  0  0
    5.7174    0.8364    1.9629 C   0  0  0  0  0  0  0  0  0  0  0  0
    6.4159    1.1753    0.8276 C   0  0  0  0  0  0  0  0  0  0  0  0
    5.8503    0.9949   -0.4082 C   0  0  0  0  0  0  0  0  0  0  0  0
    4.5959    0.4805   -0.5264 C   0  0  0  0  0  0  0  0  0  0  0  0
    6.6297    1.3714   -1.6361 C   0  0  0  0  0  0  0  0  0  0  0  0
    8.0303    1.8374    0.9814 Cl  0  0  0  0  0  0  0  0  0  0  0  0
   -1.0603    0.6012   -0.8148 C   0  0  0  0  0  0  0  0  0  0  0  0
   -2.4554    0.9746   -0.3069 C   0  0  0  0  0  0  0  0  0  0  0  0
   -3.1426   -0.3451   -0.0395 C   0  0  1  0  0  0  0  0  0  0  0  0
   -2.5172   -0.8631    1.0886 O   0  0  0  0  0  0  0  0  0  0  0  0
   -4.5604   -0.0482    0.3047 C   0  0  0  0  0  0  0  0  0  0  0  0
   -5.4296   -1.4342    1.3180 S   0  0  0  0  0  0  0  0  0  0  0  0
   -6.9895   -0.4179    1.3426 C   0  0  0  0  0  0  0  0  0  0  0  0
   -6.6503    0.7140    0.6446 C   0  0  0  0  0  0  0  0  0  0  0  0
   -5.4022    0.6992    0.2161 N   0  0  0  0  0  0  0  0  0  0  0  0
   -7.6387    1.7970    0.4354 C   0  0  0  0  0  0  0  0  0  0  0  0
   -8.7929    1.6256    0.9265 O   0  0  0  0  0  0  0  0  0  0  0  0
   -7.3320    2.9519   -0.2631 O   0  0  0  0  0  0  0  0  0  0  0  0
    1.1993   -1.7861    1.7706 H   0  0  0  0  0  0  0  0  0  0  0  0
    0.8382   -3.3442   -0.6050 H   0  0  0  0  0  0  0  0  0  0  0  0
   -1.2453   -3.4193    0.9967 H   0  0  0  0  0  0  0  0  0  0  0  0
   -1.5182   -2.6908   -0.6730 H   0  0  0  0  0  0  0  0  0  0  0  0
   -0.7711   -1.2903    1.9535 H   0  0  0  0  0  0  0  0  0  0  0  0
    0.2697    0.3605    0.8147 H   0  0  0  0  0  0  0  0  0  0  0  0
    0.1850   -1.2942   -1.6664 H   0  0  0  0  0  0  0  0  0  0  0  0
    2.5951   -1.2886   -1.3466 H   0  0  0  0  0  0  0  0  0  0  0  0
    1.8912    0.3306   -1.3485 H   0  0  0  0  0  0  0  0  0  0  0  0
    3.8614    0.0350    2.7087 H   0  0  0  0  0  0  0  0  0  0  0  0
    6.1069    0.9540    2.9654 H   0  0  0  0  0  0  0  0  0  0  0  0
    4.1397    0.3333   -1.4838 H   0  0  0  0  0  0  0  0  0  0  0  0
    7.7087    1.4478   -1.3759 H   0  0  0  0  0  0  0  0  0  0  0  0
    6.2989    2.4027   -1.9459 H   0  0  0  0  0  0  0  0  0  0  0  0
    6.4085    0.6130   -2.3959 H   0  0  0  0  0  0  0  0  0  0  0  0
   -1.2527    0.0138   -1.7380 H   0  0  0  0  0  0  0  0  0  0  0  0
   -0.4517    1.4643   -1.0913 H   0  0  0  0  0  0  0  0  0  0  0  0
   -2.9332    1.5505   -1.1104 H   0  0  0  0  0  0  0  0  0  0  0  0
   -2.2953    1.5420    0.6291 H   0  0  0  0  0  0  0  0  0  0  0  0
   -3.0924   -0.9907   -0.9223 H   0  0  0  0  0  0  0  0  0  0  0  0
   -7.9064   -0.7801    1.8484 H   0  0  0  0  0  0  0  0  0  0  0  0
   -7.9041    3.7969   -0.1714 H   0  0  0  0  0  0  0  0  0  0  0  0
  1  2  1  0
  2  3  1  0
  3  4  1  0
  4  5  1  0
  5  6  1  0
  6  7  1  0
  7  8  1  0
  8  9  1  0
  9 10  2  0
 10 11  1  0
 11 12  2  0
 12 13  1  0
 13 14  2  0
 13 15  1  0
 12 16  1  0
  5 17  1  0
 17 18  1  0
 18 19  1  0
 19 20  1  0
 19 21  1  0
 21 22  1  0
 22 23  1  0
 23 24  2  0
 24 25  1  0
 24 26  1  0
 26 27  2  0
 26 28  1  0
  6  2  1  0
 14  9  1  0
 25 21  2  0
 20  4  1  0
  1 29  1  0
  2 30  1  6
  3 31  1  0
  3 32  1  0
  4 33  1  1
  5 34  1  1
  6 35  1  6
  7 36  1  0
  7 37  1  0
 10 38  1  0
 11 39  1  0
 14 40  1  0
 15 41  1  0
 15 42  1  0
 15 43  1  0
 17 44  1  0
 17 45  1  0
 18 46  1  0
 18 47  1  0
 19 48  1  6
 23 49  1  0
 28 50  1  0
M  END
>  <Ligand ID>  (1) 
LIG0000936

>  <Ligand>  (1) 
CHEMBL3793515

>  <SMILES>  (1) 
O[C@H]1C[C@H]2[C@@H]([C@H]1COc1ccc(c(c1)C)Cl)CC[C@@H](O2)c1scc(n1)C(=O)O

>  <CID>  (1) 
127029692.0

>  <ChEMBL ID>  (1) 
nan

>  <InChiKey>  (1) 
GZTLLBIEEIZFFD-GPYXMWEOSA-N

>  <InChi>  (1) 
InChI=1S/C20H22ClNO5S/c1-10-6-11(2-4-14(10)21)26-8-13-12-3-5-17(27-18(12)7-16(13)23)19-22-15(9-28-19)20(24)25/h2,4,6,9,12-13,16-18,23H,3,5,7-8H2,1H3,(H,24,25)/t12-,13-,16+,17-,18+/m1/s1

>  <IUPAC Name>  (1) 
2-[(2R,4aR,5S,6S,7aS)-5-[(4-chloro-3-methylphenoxy)methyl]-6-hydroxy-2,3,4,4a,5,6,7,7a-octahydrocyclopenta[b]pyran-2-yl]-1,3-thiazole-4-carboxylic acid

$$$$
