
     RDKit          3D

 36 37  0  0  0  0  0  0  0  0999 V2000
   -5.3138    0.7954    1.4824 C   0  0  0  0  0  0  0  0  0  0  0  0
   -4.0525    0.3002    1.9200 O   0  0  0  0  0  0  0  0  0  0  0  0
   -3.2145   -0.3894    1.1017 N   0  0  0  0  0  0  0  0  0  0  0  0
   -2.1331    0.2109    0.6384 C   0  0  0  0  0  0  0  0  0  0  0  0
   -1.3222   -0.6184   -0.2180 C   0  0  0  0  0  0  0  0  0  0  0  0
   -1.7705   -1.9300   -0.4431 C   0  0  0  0  0  0  0  0  0  0  0  0
   -1.0966   -2.8344   -1.2302 C   0  0  0  0  0  0  0  0  0  0  0  0
    0.0691   -2.4778   -1.8402 C   0  0  0  0  0  0  0  0  0  0  0  0
    0.5335   -1.1971   -1.6384 C   0  0  0  0  0  0  0  0  0  0  0  0
   -0.1538   -0.2745   -0.8354 C   0  0  0  0  0  0  0  0  0  0  0  0
    0.4220    1.0136   -0.7557 N   0  0  0  0  0  0  0  0  0  0  0  0
    1.6912    1.3488   -1.3994 C   0  0  0  0  0  0  0  0  0  0  0  0
    2.7900    0.6436   -0.6962 C   0  0  0  0  0  0  0  0  0  0  0  0
    3.7617   -0.0686   -1.1273 N   0  0  0  0  0  0  0  0  0  0  0  0
    4.6075   -0.5702   -0.0942 C   0  0  0  0  0  0  0  0  0  0  0  0
    4.2635    0.2975    1.0957 C   0  0  0  0  0  0  0  0  0  0  0  0
    2.9154    0.7147    0.7400 N   0  0  0  0  0  0  0  0  0  0  0  0
   -1.9467    1.5879    1.0799 C   0  0  0  0  0  0  0  0  0  0  0  0
   -5.9618    1.0480    2.3275 H   0  0  0  0  0  0  0  0  0  0  0  0
   -5.8642    0.0150    0.8910 H   0  0  0  0  0  0  0  0  0  0  0  0
   -5.1248    1.7079    0.8837 H   0  0  0  0  0  0  0  0  0  0  0  0
   -2.6897   -2.3046    0.0010 H   0  0  0  0  0  0  0  0  0  0  0  0
   -1.4720   -3.8414   -1.3827 H   0  0  0  0  0  0  0  0  0  0  0  0
    0.5920   -3.1698   -2.4467 H   0  0  0  0  0  0  0  0  0  0  0  0
    1.4494   -0.9489   -2.1457 H   0  0  0  0  0  0  0  0  0  0  0  0
    0.0094    1.8277   -0.2547 H   0  0  0  0  0  0  0  0  0  0  0  0
    1.8792    2.4445   -1.3292 H   0  0  0  0  0  0  0  0  0  0  0  0
    1.6371    1.0026   -2.4362 H   0  0  0  0  0  0  0  0  0  0  0  0
    5.6805   -0.5129   -0.3612 H   0  0  0  0  0  0  0  0  0  0  0  0
    4.2887   -1.6121    0.1349 H   0  0  0  0  0  0  0  0  0  0  0  0
    4.9566    1.1610    1.1671 H   0  0  0  0  0  0  0  0  0  0  0  0
    4.2563   -0.3179    2.0311 H   0  0  0  0  0  0  0  0  0  0  0  0
    2.1675    1.0148    1.4169 H   0  0  0  0  0  0  0  0  0  0  0  0
   -2.8084    1.8647    1.7725 H   0  0  0  0  0  0  0  0  0  0  0  0
   -1.0121    1.7407    1.6636 H   0  0  0  0  0  0  0  0  0  0  0  0
   -2.0341    2.3286    0.2874 H   0  0  0  0  0  0  0  0  0  0  0  0
  1  2  1  0
  2  3  1  0
  3  4  2  0
  4  5  1  0
  5  6  2  0
  6  7  1  0
  7  8  2  0
  8  9  1  0
  9 10  2  0
 10 11  1  0
 11 12  1  0
 12 13  1  0
 13 14  2  0
 14 15  1  0
 15 16  1  0
 16 17  1  0
  4 18  1  0
 10  5  1  0
 17 13  1  0
  1 19  1  0
  1 20  1  0
  1 21  1  0
  6 22  1  0
  7 23  1  0
  8 24  1  0
  9 25  1  0
 11 26  1  0
 12 27  1  0
 12 28  1  0
 15 29  1  0
 15 30  1  0
 16 31  1  0
 16 32  1  0
 17 33  1  0
 18 34  1  0
 18 35  1  0
 18 36  1  0
M  END
>  <Ligand ID>  (1) 
LIG0002324

>  <Ligand>  (1) 
CHEMBL356195

>  <SMILES>  (1) 
CO/N=C(/c1ccccc1NCC1=NCCN1)\C

>  <CID>  (1) 
10422033.0

>  <ChEMBL ID>  (1) 
nan

>  <InChiKey>  (1) 
NGYBTBMSZNTFFJ-LICLKQGHSA-N

>  <InChi>  (1) 
InChI=1S/C13H18N4O/c1-10(17-18-2)11-5-3-4-6-12(11)16-9-13-14-7-8-15-13/h3-6,16H,7-9H2,1-2H3,(H,14,15)/b17-10+

>  <IUPAC Name>  (1) 
N-(4,5-dihydro-1H-imidazol-2-ylmethyl)-2-[(E)-N-methoxy-C-methylcarbonimidoyl]aniline

$$$$
