
     RDKit          3D

138143  0  0  0  0  0  0  0  0999 V2000
   -1.8961    5.5365   -3.9300 N   0  0  0  0  0  0  0  0  0  0  0  0
   -2.1166    6.3473   -2.7774 C   0  0  0  0  0  0  0  0  0  0  0  0
   -2.2379    5.7154   -1.6631 N   0  0  0  0  0  0  0  0  0  0  0  0
   -2.4673    6.3746   -0.3781 C   0  0  0  0  0  0  0  0  0  0  0  0
   -3.8777    6.1547    0.0596 C   0  0  0  0  0  0  0  0  0  0  0  0
   -4.2430    4.7221    0.2250 C   0  0  0  0  0  0  0  0  0  0  0  0
   -3.5556    3.9287    1.2765 C   0  0  2  0  0  0  0  0  0  0  0  0
   -2.1194    3.9008    1.0958 N   0  0  0  0  0  0  0  0  0  0  0  0
   -1.3146    4.1075    2.2526 C   0  0  0  0  0  0  0  0  0  0  0  0
   -2.0257    4.2787    3.3164 O   0  0  0  0  0  0  0  0  0  0  0  0
    0.1088    4.1607    2.4523 C   0  0  2  0  0  0  0  0  0  0  0  0
    0.3963    5.5556    3.0356 C   0  0  0  0  0  0  0  0  0  0  0  0
    0.8652    6.3263    1.8332 C   0  0  0  0  0  0  0  0  0  0  0  0
    1.2367    5.2690    0.7958 C   0  0  0  0  0  0  0  0  0  0  0  0
    1.0637    4.0057    1.4185 N   0  0  0  0  0  0  0  0  0  0  0  0
    1.6792    2.7553    1.1786 C   0  0  0  0  0  0  0  0  0  0  0  0
    1.2288    1.8510    1.9744 O   0  0  0  0  0  0  0  0  0  0  0  0
    2.6797    2.3512    0.2331 C   0  0  1  0  0  0  0  0  0  0  0  0
    3.5159    3.3641   -0.4554 C   0  0  0  0  0  0  0  0  0  0  0  0
    4.5373    3.7266    0.5643 C   0  0  0  0  0  0  0  0  0  0  0  0
    4.5068    2.5725    1.6012 C   0  0  0  0  0  0  0  0  0  0  0  0
    3.8128    1.5937    0.8549 N   0  0  0  0  0  0  0  0  0  0  0  0
    3.9975    0.2242    0.6499 C   0  0  0  0  0  0  0  0  0  0  0  0
    3.0772   -0.3036   -0.0678 O   0  0  0  0  0  0  0  0  0  0  0  0
    5.0491   -0.6740    1.1151 C   0  0  2  0  0  0  0  0  0  0  0  0
    6.4553   -0.2925    0.6768 C   0  0  0  0  0  0  0  0  0  0  0  0
    6.6328   -0.2468   -0.7858 C   0  0  0  0  0  0  0  0  0  0  0  0
    6.4929    0.8757   -1.5633 C   0  0  0  0  0  0  0  0  0  0  0  0
    6.6650    0.8298   -2.9315 C   0  0  0  0  0  0  0  0  0  0  0  0
    6.9847   -0.3512   -3.5770 C   0  0  0  0  0  0  0  0  0  0  0  0
    7.1227   -1.4710   -2.7847 C   0  0  0  0  0  0  0  0  0  0  0  0
    6.9592   -1.4596   -1.4171 C   0  0  0  0  0  0  0  0  0  0  0  0
    4.7800   -2.0534    0.6575 N   0  0  0  0  0  0  0  0  0  0  0  0
    5.1146   -3.2323    1.3557 C   0  0  0  0  0  0  0  0  0  0  0  0
    5.7927   -3.0994    2.3702 O   0  0  0  0  0  0  0  0  0  0  0  0
    4.6274   -4.5189    0.7867 C   0  0  1  0  0  0  0  0  0  0  0  0
    3.3919   -4.3367    0.0636 N   0  0  0  0  0  0  0  0  0  0  0  0
    2.5801   -5.3627   -0.5080 C   0  0  0  0  0  0  0  0  0  0  0  0
    3.0102   -6.4788   -0.5539 O   0  0  0  0  0  0  0  0  0  0  0  0
    1.2428   -4.8619   -1.0189 C   0  0  1  0  0  0  0  0  0  0  0  0
    0.7254   -3.8633   -0.0870 N   0  0  0  0  0  0  0  0  0  0  0  0
   -0.6788   -3.6392    0.1303 C   0  0  0  0  0  0  0  0  0  0  0  0
   -1.4382   -4.2399   -0.6214 O   0  0  0  0  0  0  0  0  0  0  0  0
   -1.0458   -2.7070    1.2205 C   0  0  1  0  0  0  0  0  0  0  0  0
   -2.4343   -2.2180    1.1137 N   0  0  0  0  0  0  0  0  0  0  0  0
   -2.6833   -0.8575    0.9970 C   0  0  0  0  0  0  0  0  0  0  0  0
   -1.5360   -0.1892    0.9613 O   0  0  0  0  0  0  0  0  0  0  0  0
   -3.8114    0.0144    0.9022 C   0  0  0  0  0  0  0  0  0  0  0  0
   -3.3567    1.4298    0.7682 N   0  0  0  0  0  0  0  0  0  0  0  0
   -4.0966    2.5188    1.2867 C   0  0  0  0  0  0  0  0  0  0  0  0
   -5.2220    2.2376    1.7378 O   0  0  0  0  0  0  0  0  0  0  0  0
   -4.9153   -0.3387    0.0021 C   0  0  0  0  0  0  0  0  0  0  0  0
   -5.6458   -1.5839    0.3430 C   0  0  0  0  0  0  0  0  0  0  0  0
   -6.8269   -1.8427   -0.5565 C   0  0  0  0  0  0  0  0  0  0  0  0
   -6.6871   -2.6100   -1.7160 C   0  0  0  0  0  0  0  0  0  0  0  0
   -7.7852   -2.8452   -2.5005 C   0  0  0  0  0  0  0  0  0  0  0  0
   -9.0463   -2.3698   -2.2262 C   0  0  0  0  0  0  0  0  0  0  0  0
   -9.1965   -1.5967   -1.0655 C   0  0  0  0  0  0  0  0  0  0  0  0
   -8.0810   -1.3744   -0.2950 C   0  0  0  0  0  0  0  0  0  0  0  0
   -0.9881   -3.5928    2.4971 C   0  0  0  0  0  0  0  0  0  0  0  0
   -1.9762   -4.7150    2.3383 C   0  0  0  0  0  0  0  0  0  0  0  0
   -3.2820   -4.5936    2.8177 C   0  0  0  0  0  0  0  0  0  0  0  0
   -4.2085   -5.5974    2.6430 C   0  0  0  0  0  0  0  0  0  0  0  0
   -3.8769   -6.7753    1.9797 C   0  0  0  0  0  0  0  0  0  0  0  0
   -2.5828   -6.9148    1.4960 C   0  0  0  0  0  0  0  0  0  0  0  0
   -1.6629   -5.8817    1.6869 C   0  0  0  0  0  0  0  0  0  0  0  0
    1.4721   -4.1912   -2.3769 C   0  0  0  0  0  0  0  0  0  0  0  0
    2.0283   -5.1789   -3.3221 C   0  0  0  0  0  0  0  0  0  0  0  0
    2.2302   -6.3885   -3.0578 O   0  0  0  0  0  0  0  0  0  0  0  0
    2.3594   -4.7250   -4.6252 N   0  0  0  0  0  0  0  0  0  0  0  0
    5.6953   -4.8471   -0.3248 C   0  0  0  0  0  0  0  0  0  0  0  0
   -2.1994    7.7788   -2.8525 N   0  0  0  0  0  0  0  0  0  0  0  0
   -1.1631    5.7957   -4.6459 H   0  0  0  0  0  0  0  0  0  0  0  0
   -2.4880    4.6769   -4.0347 H   0  0  0  0  0  0  0  0  0  0  0  0
   -2.2833    7.4805   -0.5886 H   0  0  0  0  0  0  0  0  0  0  0  0
   -1.6864    6.0890    0.2959 H   0  0  0  0  0  0  0  0  0  0  0  0
   -3.9939    6.7118    1.0284 H   0  0  0  0  0  0  0  0  0  0  0  0
   -4.6082    6.6569   -0.6215 H   0  0  0  0  0  0  0  0  0  0  0  0
   -5.3782    4.6146    0.3134 H   0  0  0  0  0  0  0  0  0  0  0  0
   -4.0647    4.2463   -0.7995 H   0  0  0  0  0  0  0  0  0  0  0  0
   -3.8252    4.3167    2.2709 H   0  0  0  0  0  0  0  0  0  0  0  0
   -1.6160    3.7355    0.2350 H   0  0  0  0  0  0  0  0  0  0  0  0
    0.3545    3.3915    3.2563 H   0  0  0  0  0  0  0  0  0  0  0  0
   -0.5179    6.0478    3.4119 H   0  0  0  0  0  0  0  0  0  0  0  0
    1.1143    5.4492    3.8391 H   0  0  0  0  0  0  0  0  0  0  0  0
    0.1299    7.0408    1.4332 H   0  0  0  0  0  0  0  0  0  0  0  0
    1.7308    6.9284    2.1835 H   0  0  0  0  0  0  0  0  0  0  0  0
    2.2883    5.5285    0.5617 H   0  0  0  0  0  0  0  0  0  0  0  0
    0.5606    5.4303   -0.0716 H   0  0  0  0  0  0  0  0  0  0  0  0
    2.2930    1.6679   -0.5636 H   0  0  0  0  0  0  0  0  0  0  0  0
    3.0415    4.1327   -1.0286 H   0  0  0  0  0  0  0  0  0  0  0  0
    4.0982    2.7714   -1.2482 H   0  0  0  0  0  0  0  0  0  0  0  0
    5.5712    3.8017    0.1085 H   0  0  0  0  0  0  0  0  0  0  0  0
    4.3882    4.6761    1.1033 H   0  0  0  0  0  0  0  0  0  0  0  0
    3.9299    2.9167    2.5048 H   0  0  0  0  0  0  0  0  0  0  0  0
    5.5477    2.3855    1.8630 H   0  0  0  0  0  0  0  0  0  0  0  0
    5.0927   -0.7054    2.2058 H   0  0  0  0  0  0  0  0  0  0  0  0
    6.8340    0.6216    1.1372 H   0  0  0  0  0  0  0  0  0  0  0  0
    7.0999   -1.1110    1.1331 H   0  0  0  0  0  0  0  0  0  0  0  0
    6.2449    1.7991   -1.0614 H   0  0  0  0  0  0  0  0  0  0  0  0
    6.5473    1.7410   -3.5200 H   0  0  0  0  0  0  0  0  0  0  0  0
    7.1080   -0.3751   -4.6467 H   0  0  0  0  0  0  0  0  0  0  0  0
    7.3766   -2.4435   -3.2254 H   0  0  0  0  0  0  0  0  0  0  0  0
    7.0809   -2.3269   -0.7955 H   0  0  0  0  0  0  0  0  0  0  0  0
    4.3559   -2.1252   -0.2570 H   0  0  0  0  0  0  0  0  0  0  0  0
    4.6181   -5.3479    1.4597 H   0  0  0  0  0  0  0  0  0  0  0  0
    3.0567   -3.3867   -0.0776 H   0  0  0  0  0  0  0  0  0  0  0  0
    0.5620   -5.6679   -1.1305 H   0  0  0  0  0  0  0  0  0  0  0  0
    1.3202   -3.2443    0.4747 H   0  0  0  0  0  0  0  0  0  0  0  0
   -0.3062   -1.9204    1.3443 H   0  0  0  0  0  0  0  0  0  0  0  0
   -3.1582   -2.8936    1.1360 H   0  0  0  0  0  0  0  0  0  0  0  0
   -4.3442    0.0945    1.9405 H   0  0  0  0  0  0  0  0  0  0  0  0
   -2.4935    1.6651    0.2853 H   0  0  0  0  0  0  0  0  0  0  0  0
   -4.5845   -0.4367   -1.0843 H   0  0  0  0  0  0  0  0  0  0  0  0
   -5.6771    0.5004    0.0534 H   0  0  0  0  0  0  0  0  0  0  0  0
   -5.9997   -1.6167    1.3998 H   0  0  0  0  0  0  0  0  0  0  0  0
   -5.0295   -2.5162    0.1734 H   0  0  0  0  0  0  0  0  0  0  0  0
   -5.7454   -3.0093   -1.9951 H   0  0  0  0  0  0  0  0  0  0  0  0
   -7.6664   -3.4490   -3.4123 H   0  0  0  0  0  0  0  0  0  0  0  0
   -9.9060   -2.5760   -2.8680 H   0  0  0  0  0  0  0  0  0  0  0  0
  -10.1788   -1.1827   -0.7938 H   0  0  0  0  0  0  0  0  0  0  0  0
   -8.1840   -0.7677    0.6219 H   0  0  0  0  0  0  0  0  0  0  0  0
   -1.2223   -2.9765    3.3719 H   0  0  0  0  0  0  0  0  0  0  0  0
   -0.0064   -4.0474    2.6260 H   0  0  0  0  0  0  0  0  0  0  0  0
   -3.5364   -3.6632    3.3499 H   0  0  0  0  0  0  0  0  0  0  0  0
   -5.2307   -5.4727    3.0264 H   0  0  0  0  0  0  0  0  0  0  0  0
   -4.6392   -7.5345    1.8656 H   0  0  0  0  0  0  0  0  0  0  0  0
   -2.3379   -7.8295    0.9794 H   0  0  0  0  0  0  0  0  0  0  0  0
   -0.6543   -6.0575    1.2818 H   0  0  0  0  0  0  0  0  0  0  0  0
    2.1703   -3.3460   -2.1959 H   0  0  0  0  0  0  0  0  0  0  0  0
    0.4788   -3.8829   -2.7414 H   0  0  0  0  0  0  0  0  0  0  0  0
    3.3413   -4.3314   -4.7911 H   0  0  0  0  0  0  0  0  0  0  0  0
    1.7491   -4.7234   -5.4484 H   0  0  0  0  0  0  0  0  0  0  0  0
    5.5114   -4.1481   -1.1448 H   0  0  0  0  0  0  0  0  0  0  0  0
    5.6863   -5.9073   -0.5745 H   0  0  0  0  0  0  0  0  0  0  0  0
    6.6947   -4.6349    0.0997 H   0  0  0  0  0  0  0  0  0  0  0  0
   -2.9520    8.2725   -3.3690 H   0  0  0  0  0  0  0  0  0  0  0  0
   -1.4992    8.3834   -2.3652 H   0  0  0  0  0  0  0  0  0  0  0  0
  1  2  1  0
  2  3  2  3
  3  4  1  0
  4  5  1  0
  5  6  1  0
  6  7  1  0
  7  8  1  0
  8  9  1  0
  9 10  2  0
  9 11  1  0
 11 12  1  0
 12 13  1  0
 13 14  1  0
 14 15  1  0
 15 16  1  0
 16 17  2  0
 16 18  1  0
 18 19  1  0
 19 20  1  0
 20 21  1  0
 21 22  1  0
 22 23  1  0
 23 24  2  0
 23 25  1  0
 25 26  1  0
 26 27  1  0
 27 28  2  0
 28 29  1  0
 29 30  2  0
 30 31  1  0
 31 32  2  0
 25 33  1  0
 33 34  1  0
 34 35  2  0
 34 36  1  0
 36 37  1  0
 37 38  1  0
 38 39  2  0
 38 40  1  0
 40 41  1  0
 41 42  1  0
 42 43  2  0
 42 44  1  0
 44 45  1  0
 45 46  1  0
 46 47  2  0
 46 48  1  0
 48 49  1  0
 49 50  1  0
 50 51  2  0
 48 52  1  0
 52 53  1  0
 53 54  1  0
 54 55  2  0
 55 56  1  0
 56 57  2  0
 57 58  1  0
 58 59  2  0
 44 60  1  0
 60 61  1  0
 61 62  2  0
 62 63  1  0
 63 64  2  0
 64 65  1  0
 65 66  2  0
 40 67  1  0
 67 68  1  0
 68 69  2  0
 68 70  1  0
 36 71  1  0
  2 72  1  0
 50  7  1  0
 59 54  1  0
 66 61  1  0
 15 11  1  0
 22 18  1  0
 32 27  1  0
  1 73  1  0
  1 74  1  0
  4 75  1  0
  4 76  1  0
  5 77  1  0
  5 78  1  0
  6 79  1  0
  6 80  1  0
  7 81  1  1
  8 82  1  0
 11 83  1  1
 12 84  1  0
 12 85  1  0
 13 86  1  0
 13 87  1  0
 14 88  1  0
 14 89  1  0
 18 90  1  6
 19 91  1  0
 19 92  1  0
 20 93  1  0
 20 94  1  0
 21 95  1  0
 21 96  1  0
 25 97  1  1
 26 98  1  0
 26 99  1  0
 28100  1  0
 29101  1  0
 30102  1  0
 31103  1  0
 32104  1  0
 33105  1  0
 36106  1  1
 37107  1  0
 40108  1  6
 41109  1  0
 44110  1  1
 45111  1  0
 48112  1  0
 49113  1  0
 52114  1  0
 52115  1  0
 53116  1  0
 53117  1  0
 55118  1  0
 56119  1  0
 57120  1  0
 58121  1  0
 59122  1  0
 60123  1  0
 60124  1  0
 62125  1  0
 63126  1  0
 64127  1  0
 65128  1  0
 66129  1  0
 67130  1  0
 67131  1  0
 70132  1  0
 70133  1  0
 71134  1  0
 71135  1  0
 71136  1  0
 72137  1  0
 72138  1  0
M  END
>  <Ligand ID>  (1) 
LIG0005512

>  <Ligand>  (1) 
CHEMBL3577985

>  <SMILES>  (1) 
NC(=NCCC[C@@H]1NC(=O)[C@@H]2CCCN2C(=O)[C@H]2CCCN2C(=O)[C@H](Cc2ccccc2)NC(=O)[C@@H](NC(=O)[C@@H](NC(=O)[C@@H](NC(=O)C(NC1=O)CCc1ccccc1)Cc1ccccc1)CC(=O)N)C)N

>  <CID>  (1) 
122178155.0

>  <ChEMBL ID>  (1) 
nan

>  <InChiKey>  (1) 
ABDZRUUUDYEBLY-UZKRJQGBSA-N

>  <InChi>  (1) 
InChI=1S/C51H66N12O9/c1-31-43(65)61-39(29-34-18-9-4-10-19-34)49(71)63-27-13-22-41(63)50(72)62-26-12-21-40(62)48(70)58-35(20-11-25-55-51(53)54)44(66)57-36(24-23-32-14-5-2-6-15-32)45(67)59-37(28-33-16-7-3-8-17-33)47(69)60-38(30-42(52)64)46(68)56-31/h2-10,14-19,31,35-41H,11-13,20-30H2,1H3,(H2,52,64)(H,56,68)(H,57,66)(H,58,70)(H,59,67)(H,60,69)(H,61,65)(H4,53,54,55)/t31-,35-,36?,37-,38-,39-,40-,41+/m0/s1

>  <IUPAC Name>  (1) 
2-[(3R,9S,12S,15S,18S,24S,27S)-9,18-dibenzyl-24-[3-(diaminomethylideneamino)propyl]-12-methyl-2,8,11,14,17,20,23,26-octaoxo-21-(2-phenylethyl)-1,7,10,13,16,19,22,25-octazatricyclo[25.3.0.03,7]triacontan-15-yl]acetamide

$$$$
