
     RDKit          3D

 47 50  0  0  0  0  0  0  0  0999 V2000
    0.0599   -0.3689    1.0071 O   0  0  0  0  0  0  0  0  0  0  0  0
    0.3001   -0.8708   -0.1259 C   0  0  0  0  0  0  0  0  0  0  0  0
   -0.7073   -1.4247   -0.9476 N   0  0  0  0  0  0  0  0  0  0  0  0
   -2.0798   -1.4831   -0.6061 C   0  0  0  0  0  0  0  0  0  0  0  0
   -2.8949   -2.1556   -0.0785 N   0  0  0  0  0  0  0  0  0  0  0  0
   -4.1502   -1.9336    0.0933 N   0  0  0  0  0  0  0  0  0  0  0  0
   -4.6508   -0.8477   -0.3464 C   0  0  0  0  0  0  0  0  0  0  0  0
   -3.1815    0.0141   -1.1188 S   0  0  0  0  0  0  0  0  0  0  0  0
   -5.9536   -0.2172   -0.3735 N   0  0  0  0  0  0  0  0  0  0  0  0
   -7.0261   -0.9422    0.2324 C   0  0  0  0  0  0  0  0  0  0  0  0
   -8.2519   -0.7296   -0.6130 C   0  0  0  0  0  0  0  0  0  0  0  0
   -8.5818    0.6986   -0.8899 C   0  0  0  0  0  0  0  0  0  0  0  0
   -7.4774    1.6608   -0.5829 C   0  0  0  0  0  0  0  0  0  0  0  0
   -6.1266    1.0844   -0.9893 C   0  0  0  0  0  0  0  0  0  0  0  0
    1.7004   -0.9029   -0.6648 C   0  0  0  0  0  0  0  0  0  0  0  0
    2.5947   -0.2766    0.3555 C   0  0  0  0  0  0  0  0  0  0  0  0
    4.0183   -0.2614   -0.0850 C   0  0  0  0  0  0  0  0  0  0  0  0
    4.5470   -0.7081   -1.1999 O   0  0  0  0  0  0  0  0  0  0  0  0
    5.8328   -0.5103   -1.2108 N   0  0  0  0  0  0  0  0  0  0  0  0
    6.1985    0.0915   -0.0663 C   0  0  0  0  0  0  0  0  0  0  0  0
    5.0394    0.2418    0.6343 N   0  0  0  0  0  0  0  0  0  0  0  0
    7.5424    0.4910    0.3327 C   0  0  0  0  0  0  0  0  0  0  0  0
    8.5692    0.2295   -0.5487 C   0  0  0  0  0  0  0  0  0  0  0  0
    9.8680    0.6023   -0.1898 C   0  0  0  0  0  0  0  0  0  0  0  0
   10.0800    1.2136    1.0221 C   0  0  0  0  0  0  0  0  0  0  0  0
    9.0227    1.4658    1.8939 C   0  0  0  0  0  0  0  0  0  0  0  0
    7.7306    1.1030    1.5534 C   0  0  0  0  0  0  0  0  0  0  0  0
    6.3807    1.4161    2.6477 Cl  0  0  0  0  0  0  0  0  0  0  0  0
   11.3252    1.5684    1.3609 F   0  0  0  0  0  0  0  0  0  0  0  0
   -0.4536   -1.8348   -1.8935 H   0  0  0  0  0  0  0  0  0  0  0  0
   -6.8097   -2.0200    0.2164 H   0  0  0  0  0  0  0  0  0  0  0  0
   -7.1523   -0.5591    1.2667 H   0  0  0  0  0  0  0  0  0  0  0  0
   -9.0901   -1.2804   -0.1068 H   0  0  0  0  0  0  0  0  0  0  0  0
   -8.0810   -1.3024   -1.5645 H   0  0  0  0  0  0  0  0  0  0  0  0
   -8.8338    0.7822   -1.9839 H   0  0  0  0  0  0  0  0  0  0  0  0
   -9.4797    1.0151   -0.3085 H   0  0  0  0  0  0  0  0  0  0  0  0
   -7.4785    1.8638    0.5082 H   0  0  0  0  0  0  0  0  0  0  0  0
   -7.6087    2.5906   -1.1704 H   0  0  0  0  0  0  0  0  0  0  0  0
   -5.3814    1.8126   -0.5735 H   0  0  0  0  0  0  0  0  0  0  0  0
   -6.0329    1.0478   -2.0847 H   0  0  0  0  0  0  0  0  0  0  0  0
    1.7072   -0.3360   -1.6211 H   0  0  0  0  0  0  0  0  0  0  0  0
    1.9382   -1.9756   -0.8217 H   0  0  0  0  0  0  0  0  0  0  0  0
    2.2752    0.7586    0.5479 H   0  0  0  0  0  0  0  0  0  0  0  0
    2.4837   -0.8947    1.2935 H   0  0  0  0  0  0  0  0  0  0  0  0
    8.3969   -0.2533   -1.5042 H   0  0  0  0  0  0  0  0  0  0  0  0
   10.6751    0.3878   -0.9018 H   0  0  0  0  0  0  0  0  0  0  0  0
    9.1972    1.9497    2.8505 H   0  0  0  0  0  0  0  0  0  0  0  0
  1  2  2  0
  2  3  1  0
  3  4  1  0
  4  5  2  0
  5  6  1  0
  6  7  2  0
  7  8  1  0
  7  9  1  0
  9 10  1  0
 10 11  1  0
 11 12  1  0
 12 13  1  0
 13 14  1  0
  2 15  1  0
 15 16  1  0
 16 17  1  0
 17 18  1  0
 18 19  1  0
 19 20  2  0
 20 21  1  0
 20 22  1  0
 22 23  2  0
 23 24  1  0
 24 25  2  0
 25 26  1  0
 26 27  2  0
 27 28  1  0
 25 29  1  0
  8  4  1  0
 14  9  1  0
 21 17  2  0
 27 22  1  0
  3 30  1  0
 10 31  1  0
 10 32  1  0
 11 33  1  0
 11 34  1  0
 12 35  1  0
 12 36  1  0
 13 37  1  0
 13 38  1  0
 14 39  1  0
 14 40  1  0
 15 41  1  0
 15 42  1  0
 16 43  1  0
 16 44  1  0
 23 45  1  0
 24 46  1  0
 26 47  1  0
M  END
>  <Ligand ID>  (1) 
LIG0003099

>  <Ligand>  (1) 
CHEMBL502263

>  <SMILES>  (1) 
O=C(Nc1nnc(s1)N1CCCCC1)CCc1onc(n1)c1ccc(cc1Cl)F

>  <CID>  (1) 
25034141.0

>  <ChEMBL ID>  (1) 
nan

>  <InChiKey>  (1) 
LZJGVMWZHJLDFT-UHFFFAOYSA-N

>  <InChi>  (1) 
InChI=1S/C18H18ClFN6O2S/c19-13-10-11(20)4-5-12(13)16-22-15(28-25-16)7-6-14(27)21-17-23-24-18(29-17)26-8-2-1-3-9-26/h4-5,10H,1-3,6-9H2,(H,21,23,27)

>  <IUPAC Name>  (1) 
3-[3-(2-chloro-4-fluorophenyl)-1,2,4-oxadiazol-5-yl]-N-(5-piperidin-1-yl-1,3,4-thiadiazol-2-yl)propanamide

$$$$
