
     RDKit          3D

 67 71  0  0  0  0  0  0  0  0999 V2000
    9.5105    1.2881   -0.9452 C   0  0  0  0  0  0  0  0  0  0  0  0
    8.0316    1.3883   -0.9903 C   0  0  0  0  0  0  0  0  0  0  0  0
    7.5397    2.3217   -1.6782 O   0  0  0  0  0  0  0  0  0  0  0  0
    7.2129    0.4668   -0.2842 N   0  0  0  0  0  0  0  0  0  0  0  0
    5.7950    0.6521   -0.3928 C   0  0  0  0  0  0  0  0  0  0  0  0
    5.2388    1.5171    0.5454 C   0  0  0  0  0  0  0  0  0  0  0  0
    3.8828    1.7528    0.5217 C   0  0  0  0  0  0  0  0  0  0  0  0
    3.0948    1.1176   -0.4458 C   0  0  0  0  0  0  0  0  0  0  0  0
    3.6427    0.2570   -1.3791 C   0  0  0  0  0  0  0  0  0  0  0  0
    5.0245    0.0288   -1.3400 C   0  0  0  0  0  0  0  0  0  0  0  0
    1.3869    1.5074   -0.4106 S   0  0  0  0  0  0  0  0  0  0  0  0
    1.1840    2.9836   -0.1789 O   0  0  0  0  0  0  0  0  0  0  0  0
    0.7769    1.2124   -1.7776 O   0  0  0  0  0  0  0  0  0  0  0  0
    0.6150    0.6221    0.8267 N   0  0  0  0  0  0  0  0  0  0  0  0
    0.5257   -0.7871    0.9130 C   0  0  0  0  0  0  0  0  0  0  0  0
   -0.6913   -1.3376    0.7541 C   0  0  0  0  0  0  0  0  0  0  0  0
   -1.8216   -0.5396    0.5140 N   0  0  0  0  0  0  0  0  0  0  0  0
   -2.4490   -0.2890   -0.7484 C   0  0  0  0  0  0  0  0  0  0  0  0
   -3.5695    0.7284   -0.5648 C   0  0  0  0  0  0  0  0  0  0  0  0
   -4.4776    0.3689    0.4630 N   0  0  0  0  0  0  0  0  0  0  0  0
   -3.9016   -0.2566    1.6083 C   0  0  0  0  0  0  0  0  0  0  0  0
   -2.4364    0.1150    1.6854 C   0  0  0  0  0  0  0  0  0  0  0  0
   -5.2216    1.5317    0.8892 C   0  0  0  0  0  0  0  0  0  0  0  0
   -5.9762    2.0476   -0.2844 C   0  0  0  0  0  0  0  0  0  0  0  0
   -5.4933    3.0113   -1.1349 C   0  0  0  0  0  0  0  0  0  0  0  0
   -6.2118    3.4616   -2.2185 C   0  0  0  0  0  0  0  0  0  0  0  0
   -7.4598    2.9056   -2.4310 C   0  0  0  0  0  0  0  0  0  0  0  0
   -7.9669    1.9371   -1.5908 C   0  0  0  0  0  0  0  0  0  0  0  0
   -7.2255    1.4951   -0.5026 C   0  0  0  0  0  0  0  0  0  0  0  0
   -0.8940   -2.7850    0.8363 C   0  0  0  0  0  0  0  0  0  0  0  0
   -2.0449   -3.2608    0.6820 O   0  0  0  0  0  0  0  0  0  0  0  0
    0.2238   -3.7087    1.0983 C   0  0  0  0  0  0  0  0  0  0  0  0
    1.4821   -3.1384    1.2646 C   0  0  0  0  0  0  0  0  0  0  0  0
    1.6436   -1.6742    1.1737 C   0  0  0  0  0  0  0  0  0  0  0  0
    2.7926   -1.1984    1.3312 O   0  0  0  0  0  0  0  0  0  0  0  0
    2.5614   -3.9596    1.5137 C   0  0  0  0  0  0  0  0  0  0  0  0
    2.3398   -5.3156    1.5869 C   0  0  0  0  0  0  0  0  0  0  0  0
    1.0942   -5.8917    1.4236 C   0  0  0  0  0  0  0  0  0  0  0  0
    0.0177   -5.0694    1.1747 C   0  0  0  0  0  0  0  0  0  0  0  0
    9.9638    2.2423   -0.5558 H   0  0  0  0  0  0  0  0  0  0  0  0
    9.8518    0.5022   -0.2440 H   0  0  0  0  0  0  0  0  0  0  0  0
    9.9094    1.1708   -1.9719 H   0  0  0  0  0  0  0  0  0  0  0  0
    7.6382   -0.2974    0.2730 H   0  0  0  0  0  0  0  0  0  0  0  0
    5.8530    2.0076    1.2897 H   0  0  0  0  0  0  0  0  0  0  0  0
    3.4404    2.4218    1.2442 H   0  0  0  0  0  0  0  0  0  0  0  0
    3.0080   -0.2191   -2.1120 H   0  0  0  0  0  0  0  0  0  0  0  0
    5.4934   -0.6351   -2.0510 H   0  0  0  0  0  0  0  0  0  0  0  0
    0.1584    1.1584    1.6062 H   0  0  0  0  0  0  0  0  0  0  0  0
   -2.8560   -1.1556   -1.2701 H   0  0  0  0  0  0  0  0  0  0  0  0
   -1.7105    0.1824   -1.4208 H   0  0  0  0  0  0  0  0  0  0  0  0
   -4.0862    0.8181   -1.5318 H   0  0  0  0  0  0  0  0  0  0  0  0
   -3.0464    1.6845   -0.3409 H   0  0  0  0  0  0  0  0  0  0  0  0
   -3.9215   -1.3722    1.5714 H   0  0  0  0  0  0  0  0  0  0  0  0
   -4.3886    0.1045    2.5455 H   0  0  0  0  0  0  0  0  0  0  0  0
   -1.9535   -0.1832    2.6245 H   0  0  0  0  0  0  0  0  0  0  0  0
   -2.3825    1.2247    1.5502 H   0  0  0  0  0  0  0  0  0  0  0  0
   -5.9600    1.2922    1.6861 H   0  0  0  0  0  0  0  0  0  0  0  0
   -4.5599    2.3131    1.3366 H   0  0  0  0  0  0  0  0  0  0  0  0
   -4.5213    3.4463   -0.9635 H   0  0  0  0  0  0  0  0  0  0  0  0
   -5.8153    4.2330   -2.8957 H   0  0  0  0  0  0  0  0  0  0  0  0
   -8.0583    3.2157   -3.2545 H   0  0  0  0  0  0  0  0  0  0  0  0
   -8.9477    1.5063   -1.7667 H   0  0  0  0  0  0  0  0  0  0  0  0
   -7.6244    0.7267    0.1669 H   0  0  0  0  0  0  0  0  0  0  0  0
    3.5707   -3.5335    1.6495 H   0  0  0  0  0  0  0  0  0  0  0  0
    3.2224   -5.9294    1.7853 H   0  0  0  0  0  0  0  0  0  0  0  0
    0.9405   -6.9651    1.4843 H   0  0  0  0  0  0  0  0  0  0  0  0
   -0.9936   -5.4665    1.0360 H   0  0  0  0  0  0  0  0  0  0  0  0
  1  2  1  0
  2  3  2  0
  2  4  1  0
  4  5  1  0
  5  6  2  0
  6  7  1  0
  7  8  2  0
  8  9  1  0
  9 10  2  0
  8 11  1  0
 11 12  2  0
 11 13  2  0
 11 14  1  0
 14 15  1  0
 15 16  2  0
 16 17  1  0
 17 18  1  0
 18 19  1  0
 19 20  1  0
 20 21  1  0
 21 22  1  0
 20 23  1  0
 23 24  1  0
 24 25  2  0
 25 26  1  0
 26 27  2  0
 27 28  1  0
 28 29  2  0
 16 30  1  0
 30 31  2  0
 30 32  1  0
 32 33  2  0
 33 34  1  0
 34 35  2  0
 33 36  1  0
 36 37  2  0
 37 38  1  0
 38 39  2  0
 10  5  1  0
 34 15  1  0
 22 17  1  0
 29 24  1  0
 39 32  1  0
  1 40  1  0
  1 41  1  0
  1 42  1  0
  4 43  1  0
  6 44  1  0
  7 45  1  0
  9 46  1  0
 10 47  1  0
 14 48  1  0
 18 49  1  0
 18 50  1  0
 19 51  1  0
 19 52  1  0
 21 53  1  0
 21 54  1  0
 22 55  1  0
 22 56  1  0
 23 57  1  0
 23 58  1  0
 25 59  1  0
 26 60  1  0
 27 61  1  0
 28 62  1  0
 29 63  1  0
 36 64  1  0
 37 65  1  0
 38 66  1  0
 39 67  1  0
M  END
>  <Ligand ID>  (1) 
LIG0003329

>  <Ligand>  (1) 
SMR000145098

>  <SMILES>  (1) 
CC(=O)Nc1ccc(cc1)S(=O)(=O)NC1=C(N2CCN(CC2)Cc2ccccc2)C(=O)c2c(C1=O)cccc2

>  <CID>  (1) 
3799497.0

>  <ChEMBL ID>  (1) 
nan

>  <InChiKey>  (1) 
UNYWPVHQAQLYED-UHFFFAOYSA-N

>  <InChi>  (1) 
InChI=1S/C29H28N4O5S/c1-20(34)30-22-11-13-23(14-12-22)39(37,38)31-26-27(29(36)25-10-6-5-9-24(25)28(26)35)33-17-15-32(16-18-33)19-21-7-3-2-4-8-21/h2-14,31H,15-19H2,1H3,(H,30,34)

>  <IUPAC Name>  (1) 
N-[4-[[3-(4-benzylpiperazin-1-yl)-1,4-dioxonaphthalen-2-yl]sulfamoyl]phenyl]acetamide

$$$$
