
     RDKit          3D

 46 49  0  0  0  0  0  0  0  0999 V2000
    6.4940    0.4955    2.1651 O   0  0  0  0  0  0  0  0  0  0  0  0
    6.6742    0.4344    0.8250 N   0  0  0  0  0  0  0  0  0  0  0  0
    7.8665    0.4764    0.4032 O   0  0  0  0  0  0  0  0  0  0  0  0
    5.6122    0.3270   -0.1154 C   0  0  0  0  0  0  0  0  0  0  0  0
    5.8269    0.8411   -1.3978 C   0  0  0  0  0  0  0  0  0  0  0  0
    4.8199    0.7563   -2.3396 C   0  0  0  0  0  0  0  0  0  0  0  0
    3.6264    0.1678   -1.9954 C   0  0  0  0  0  0  0  0  0  0  0  0
    3.3858   -0.3532   -0.7229 C   0  0  0  0  0  0  0  0  0  0  0  0
    4.3921   -0.2624    0.1995 C   0  0  0  0  0  0  0  0  0  0  0  0
    4.2185   -0.7853    1.5555 C   0  0  0  0  0  0  0  0  0  0  0  0
    2.1055   -0.9738   -0.3845 C   0  0  0  0  0  0  0  0  0  0  0  0
    1.1076    0.1663    0.6391 S   0  0  0  0  0  0  0  0  0  0  0  0
   -0.4511   -0.6080    1.0437 C   0  0  0  0  0  0  0  0  0  0  0  0
   -0.6339   -1.3780    2.1533 N   0  0  0  0  0  0  0  0  0  0  0  0
   -1.9079   -1.7829    2.1280 N   0  0  0  0  0  0  0  0  0  0  0  0
   -2.5096   -1.2849    1.0385 C   0  0  0  0  0  0  0  0  0  0  0  0
   -1.6225   -0.5513    0.3497 N   0  0  0  0  0  0  0  0  0  0  0  0
   -1.7655    0.1806   -0.8672 C   0  0  0  0  0  0  0  0  0  0  0  0
   -2.1888    1.5965   -0.6528 C   0  0  0  0  0  0  0  0  0  0  0  0
   -1.4117    2.6889   -0.4687 C   0  0  0  0  0  0  0  0  0  0  0  0
   -1.9937    3.8792   -0.2934 C   0  0  0  0  0  0  0  0  0  0  0  0
   -3.3786    3.9166   -0.3120 C   0  0  0  0  0  0  0  0  0  0  0  0
   -3.8556    2.2047   -0.5873 S   0  0  0  0  0  0  0  0  0  0  0  0
   -3.9014   -1.5040    0.6605 C   0  0  0  0  0  0  0  0  0  0  0  0
   -4.7676   -2.1293    1.5663 C   0  0  0  0  0  0  0  0  0  0  0  0
   -6.0856   -2.3625    1.2688 C   0  0  0  0  0  0  0  0  0  0  0  0
   -6.5753   -1.9633    0.0252 C   0  0  0  0  0  0  0  0  0  0  0  0
   -5.7005   -1.3412   -0.8673 C   0  0  0  0  0  0  0  0  0  0  0  0
   -4.4152   -1.1441   -0.5063 N   0  0  0  0  0  0  0  0  0  0  0  0
    6.7591    1.3044   -1.6758 H   0  0  0  0  0  0  0  0  0  0  0  0
    4.9485    1.1410   -3.3394 H   0  0  0  0  0  0  0  0  0  0  0  0
    2.8278    0.0869   -2.7000 H   0  0  0  0  0  0  0  0  0  0  0  0
    3.3794   -1.4971    1.6702 H   0  0  0  0  0  0  0  0  0  0  0  0
    5.1256   -1.3673    1.8272 H   0  0  0  0  0  0  0  0  0  0  0  0
    4.1917    0.0503    2.2932 H   0  0  0  0  0  0  0  0  0  0  0  0
    1.5365   -1.1310   -1.3262 H   0  0  0  0  0  0  0  0  0  0  0  0
    2.1871   -1.9683    0.0863 H   0  0  0  0  0  0  0  0  0  0  0  0
   -2.4815   -0.2663   -1.5801 H   0  0  0  0  0  0  0  0  0  0  0  0
   -0.8061    0.2462   -1.4012 H   0  0  0  0  0  0  0  0  0  0  0  0
   -0.2946    2.5786   -0.4665 H   0  0  0  0  0  0  0  0  0  0  0  0
   -1.4372    4.8245   -0.1362 H   0  0  0  0  0  0  0  0  0  0  0  0
   -4.0550    4.7455   -0.1949 H   0  0  0  0  0  0  0  0  0  0  0  0
   -4.4245   -2.4555    2.5459 H   0  0  0  0  0  0  0  0  0  0  0  0
   -6.7449   -2.8548    1.9966 H   0  0  0  0  0  0  0  0  0  0  0  0
   -7.6209   -2.1306   -0.2521 H   0  0  0  0  0  0  0  0  0  0  0  0
   -6.0562   -1.0136   -1.8576 H   0  0  0  0  0  0  0  0  0  0  0  0
  1  2  1  0
  2  3  2  0
  2  4  1  0
  4  5  2  0
  5  6  1  0
  6  7  2  0
  7  8  1  0
  8  9  2  0
  9 10  1  0
  8 11  1  0
 11 12  1  0
 12 13  1  0
 13 14  2  0
 14 15  1  0
 15 16  2  0
 16 17  1  0
 17 18  1  0
 18 19  1  0
 19 20  2  0
 20 21  1  0
 21 22  2  0
 22 23  1  0
 16 24  1  0
 24 25  2  0
 25 26  1  0
 26 27  2  0
 27 28  1  0
 28 29  2  0
  9  4  1  0
 17 13  1  0
 23 19  1  0
 29 24  1  0
  5 30  1  0
  6 31  1  0
  7 32  1  0
 10 33  1  0
 10 34  1  0
 10 35  1  0
 11 36  1  0
 11 37  1  0
 18 38  1  0
 18 39  1  0
 20 40  1  0
 21 41  1  0
 22 42  1  0
 25 43  1  0
 26 44  1  0
 27 45  1  0
 28 46  1  0
M  CHG  2   1  -1   2   1
M  END
>  <Ligand ID>  (1) 
LIG0003658

>  <Ligand>  (1) 
KUC104200N

>  <SMILES>  (1) 
[O-][N+](=O)c1cccc(c1C)CSc1nnc(n1Cc1cccs1)c1ccccn1

>  <CID>  (1) 
44620917.0

>  <ChEMBL ID>  (1) 
nan

>  <InChiKey>  (1) 
BDVFIDABYATYHV-UHFFFAOYSA-N

>  <InChi>  (1) 
InChI=1S/C20H17N5O2S2/c1-14-15(6-4-9-18(14)25(26)27)13-29-20-23-22-19(17-8-2-3-10-21-17)24(20)12-16-7-5-11-28-16/h2-11H,12-13H2,1H3

>  <IUPAC Name>  (1) 
2-[5-[(2-methyl-3-nitrophenyl)methylsulfanyl]-4-(thiophen-2-ylmethyl)-1,2,4-triazol-3-yl]pyridine

$$$$
