
     RDKit          3D

117121  0  0  0  0  0  0  0  0999 V2000
   -2.0992    7.3891    4.9073 N   0  0  0  0  0  0  0  0  0  0  0  0
   -1.1447    7.1815    3.8608 C   0  0  0  0  0  0  0  0  0  0  0  0
   -1.2290    6.1846    3.0337 N   0  0  0  0  0  0  0  0  0  0  0  0
   -0.2106    6.0603    2.0072 C   0  0  0  0  0  0  0  0  0  0  0  0
    0.1154    4.5967    1.8389 C   0  0  0  0  0  0  0  0  0  0  0  0
   -1.1591    3.8656    1.4152 C   0  0  0  0  0  0  0  0  0  0  0  0
   -0.7766    2.4083    1.2671 C   0  0  2  0  0  0  0  0  0  0  0  0
    0.2553    2.3621    0.2507 N   0  0  0  0  0  0  0  0  0  0  0  0
    1.4211    1.5181    0.3861 C   0  0  0  0  0  0  0  0  0  0  0  0
    1.3898    0.7619    1.3599 O   0  0  0  0  0  0  0  0  0  0  0  0
    2.5625    1.5730   -0.6024 C   0  0  1  0  0  0  0  0  0  0  0  0
    3.1816    2.9103   -0.3619 C   0  0  0  0  0  0  0  0  0  0  0  0
    4.3333    3.2718   -1.1888 C   0  0  0  0  0  0  0  0  0  0  0  0
    5.6232    2.9881   -0.7324 C   0  0  0  0  0  0  0  0  0  0  0  0
    6.6589    3.3786   -1.5700 C   0  0  0  0  0  0  0  0  0  0  0  0
    6.4629    4.0037   -2.7736 C   0  0  0  0  0  0  0  0  0  0  0  0
    5.1965    4.2823   -3.2232 C   0  0  0  0  0  0  0  0  0  0  0  0
    4.1416    3.9090   -2.4168 C   0  0  0  0  0  0  0  0  0  0  0  0
    3.3805    0.4216   -0.2794 N   0  0  0  0  0  0  0  0  0  0  0  0
    3.7531   -0.5511   -1.2876 C   0  0  0  0  0  0  0  0  0  0  0  0
    3.4482   -0.2317   -2.4403 O   0  0  0  0  0  0  0  0  0  0  0  0
    4.4471   -1.8394   -0.9202 C   0  0  1  0  0  0  0  0  0  0  0  0
    3.3618   -2.8600   -1.1289 N   0  0  0  0  0  0  0  0  0  0  0  0
    2.6563   -3.3795   -0.0057 C   0  0  0  0  0  0  0  0  0  0  0  0
    3.1058   -3.0480    1.1030 O   0  0  0  0  0  0  0  0  0  0  0  0
    1.4731   -4.2481   -0.2062 C   0  0  0  0  0  0  0  0  0  0  0  0
    0.7832   -4.6291    1.0945 C   0  0  0  0  0  0  0  0  0  0  0  0
   -0.5695   -5.1679    0.7949 C   0  0  0  0  0  0  0  0  0  0  0  0
   -0.8856   -5.3090   -0.3907 O   0  0  0  0  0  0  0  0  0  0  0  0
   -1.5363   -5.5238    1.7641 N   0  0  0  0  0  0  0  0  0  0  0  0
   -2.8776   -5.9917    1.3576 C   0  0  0  0  0  0  0  0  0  0  0  0
   -3.5332   -4.8108    0.5720 C   0  0  0  0  0  0  0  0  0  0  0  0
   -3.4798   -3.6736    1.5196 C   0  0  0  0  0  0  0  0  0  0  0  0
   -3.9666   -2.3855    1.0744 N   0  0  0  0  0  0  0  0  0  0  0  0
   -3.1587   -1.3943    0.4672 C   0  0  0  0  0  0  0  0  0  0  0  0
   -1.9591   -1.7596    0.4437 O   0  0  0  0  0  0  0  0  0  0  0  0
   -3.4872   -0.0902   -0.0828 C   0  0  1  0  0  0  0  0  0  0  0  0
   -2.1762    0.6492   -0.0228 N   0  0  0  0  0  0  0  0  0  0  0  0
   -1.9728    1.5952    1.0190 C   0  0  0  0  0  0  0  0  0  0  0  0
   -2.9403    1.7245    1.7991 O   0  0  0  0  0  0  0  0  0  0  0  0
   -3.9856    0.0131   -1.4837 C   0  0  0  0  0  0  0  0  0  0  0  0
   -5.2344   -0.6696   -1.8215 C   0  0  0  0  0  0  0  0  0  0  0  0
   -6.4735   -0.0204   -1.9446 C   0  0  0  0  0  0  0  0  0  0  0  0
   -7.4176   -0.9172   -2.2428 N   0  0  0  0  0  0  0  0  0  0  0  0
   -6.8706   -2.1468   -2.3273 C   0  0  0  0  0  0  0  0  0  0  0  0
   -5.5292   -1.9895   -2.0684 C   0  0  0  0  0  0  0  0  0  0  0  0
   -4.7337   -3.1055   -2.0948 C   0  0  0  0  0  0  0  0  0  0  0  0
   -5.2747   -4.3609   -2.3739 C   0  0  0  0  0  0  0  0  0  0  0  0
   -6.6282   -4.4920   -2.6293 C   0  0  0  0  0  0  0  0  0  0  0  0
   -7.4166   -3.3648   -2.6012 C   0  0  0  0  0  0  0  0  0  0  0  0
   -5.3217   -2.0546    1.3563 C   0  0  0  0  0  0  0  0  0  0  0  0
   -5.4076   -1.4569    2.7618 C   0  0  0  0  0  0  0  0  0  0  0  0
   -4.3783   -1.3262    3.4613 O   0  0  0  0  0  0  0  0  0  0  0  0
   -6.7145   -1.0888    3.1579 N   0  0  0  0  0  0  0  0  0  0  0  0
    5.6168   -2.1970   -1.7364 C   0  0  0  0  0  0  0  0  0  0  0  0
    6.7560   -1.2718   -1.7549 C   0  0  0  0  0  0  0  0  0  0  0  0
    6.9401   -0.2562   -2.6614 C   0  0  0  0  0  0  0  0  0  0  0  0
    8.0836    0.5316   -2.5806 C   0  0  0  0  0  0  0  0  0  0  0  0
    9.0520    0.3315   -1.6144 C   0  0  0  0  0  0  0  0  0  0  0  0
    8.8727   -0.6694   -0.7184 C   0  0  0  0  0  0  0  0  0  0  0  0
    7.7425   -1.4502   -0.7960 C   0  0  0  0  0  0  0  0  0  0  0  0
   -0.0817    8.1487    3.7768 N   0  0  0  0  0  0  0  0  0  0  0  0
   -1.7755    7.1984    5.8749 H   0  0  0  0  0  0  0  0  0  0  0  0
   -3.0842    7.7225    4.6922 H   0  0  0  0  0  0  0  0  0  0  0  0
   -0.5220    6.4771    1.0268 H   0  0  0  0  0  0  0  0  0  0  0  0
    0.7411    6.5866    2.3166 H   0  0  0  0  0  0  0  0  0  0  0  0
    0.8661    4.5522    1.0106 H   0  0  0  0  0  0  0  0  0  0  0  0
    0.4657    4.1615    2.7892 H   0  0  0  0  0  0  0  0  0  0  0  0
   -1.3909    4.2270    0.3855 H   0  0  0  0  0  0  0  0  0  0  0  0
   -1.9816    4.0535    2.1097 H   0  0  0  0  0  0  0  0  0  0  0  0
   -0.3227    2.0050    2.2422 H   0  0  0  0  0  0  0  0  0  0  0  0
    0.2416    2.9036   -0.6170 H   0  0  0  0  0  0  0  0  0  0  0  0
    2.1576    1.5465   -1.6005 H   0  0  0  0  0  0  0  0  0  0  0  0
    2.3652    3.6508   -0.6288 H   0  0  0  0  0  0  0  0  0  0  0  0
    3.3283    3.1184    0.7335 H   0  0  0  0  0  0  0  0  0  0  0  0
    5.8005    2.4946    0.2199 H   0  0  0  0  0  0  0  0  0  0  0  0
    7.6748    3.1808   -1.2654 H   0  0  0  0  0  0  0  0  0  0  0  0
    7.2841    4.2982   -3.4031 H   0  0  0  0  0  0  0  0  0  0  0  0
    5.0404    4.7773   -4.1719 H   0  0  0  0  0  0  0  0  0  0  0  0
    3.1385    4.1364   -2.7817 H   0  0  0  0  0  0  0  0  0  0  0  0
    3.7387    0.2083    0.6528 H   0  0  0  0  0  0  0  0  0  0  0  0
    4.5997   -1.7951    0.1597 H   0  0  0  0  0  0  0  0  0  0  0  0
    3.1061   -3.2078   -2.0371 H   0  0  0  0  0  0  0  0  0  0  0  0
    1.6482   -5.1297   -0.8365 H   0  0  0  0  0  0  0  0  0  0  0  0
    0.7209   -3.5970   -0.7471 H   0  0  0  0  0  0  0  0  0  0  0  0
    0.6953   -3.7027    1.6979 H   0  0  0  0  0  0  0  0  0  0  0  0
    1.4279   -5.3290    1.6641 H   0  0  0  0  0  0  0  0  0  0  0  0
   -1.2409   -5.4391    2.7386 H   0  0  0  0  0  0  0  0  0  0  0  0
   -3.4926   -6.2466    2.2300 H   0  0  0  0  0  0  0  0  0  0  0  0
   -2.7942   -6.8878    0.7184 H   0  0  0  0  0  0  0  0  0  0  0  0
   -4.5811   -5.1840    0.3864 H   0  0  0  0  0  0  0  0  0  0  0  0
   -3.0102   -4.6294   -0.3703 H   0  0  0  0  0  0  0  0  0  0  0  0
   -2.4222   -3.6062    1.8783 H   0  0  0  0  0  0  0  0  0  0  0  0
   -4.0810   -3.9911    2.4275 H   0  0  0  0  0  0  0  0  0  0  0  0
   -4.2141    0.4289    0.5881 H   0  0  0  0  0  0  0  0  0  0  0  0
   -1.4308    0.5114   -0.6793 H   0  0  0  0  0  0  0  0  0  0  0  0
   -3.1755   -0.2270   -2.2328 H   0  0  0  0  0  0  0  0  0  0  0  0
   -4.1424    1.1226   -1.6628 H   0  0  0  0  0  0  0  0  0  0  0  0
   -6.6260    1.0563   -1.8141 H   0  0  0  0  0  0  0  0  0  0  0  0
   -8.4323   -0.6507   -2.3781 H   0  0  0  0  0  0  0  0  0  0  0  0
   -3.6942   -2.9802   -1.9028 H   0  0  0  0  0  0  0  0  0  0  0  0
   -4.5806   -5.1818   -2.3776 H   0  0  0  0  0  0  0  0  0  0  0  0
   -7.0457   -5.4663   -2.8460 H   0  0  0  0  0  0  0  0  0  0  0  0
   -8.4828   -3.5258   -2.8090 H   0  0  0  0  0  0  0  0  0  0  0  0
   -5.9515   -2.9937    1.3580 H   0  0  0  0  0  0  0  0  0  0  0  0
   -5.8458   -1.3570    0.7334 H   0  0  0  0  0  0  0  0  0  0  0  0
   -7.3263   -1.8872    3.5088 H   0  0  0  0  0  0  0  0  0  0  0  0
   -7.0955   -0.1202    3.1283 H   0  0  0  0  0  0  0  0  0  0  0  0
    5.3159   -2.4876   -2.7844 H   0  0  0  0  0  0  0  0  0  0  0  0
    6.0218   -3.1774   -1.3243 H   0  0  0  0  0  0  0  0  0  0  0  0
    6.1763   -0.1045   -3.4184 H   0  0  0  0  0  0  0  0  0  0  0  0
    8.2475    1.3389   -3.2857 H   0  0  0  0  0  0  0  0  0  0  0  0
    9.9271    0.9317   -1.5515 H   0  0  0  0  0  0  0  0  0  0  0  0
    9.6354   -0.8323    0.0470 H   0  0  0  0  0  0  0  0  0  0  0  0
    7.6154   -2.2433   -0.0667 H   0  0  0  0  0  0  0  0  0  0  0  0
   -0.1961    9.0058    3.1654 H   0  0  0  0  0  0  0  0  0  0  0  0
    0.7739    7.9569    4.3420 H   0  0  0  0  0  0  0  0  0  0  0  0
  1  2  1  0
  2  3  2  3
  3  4  1  0
  4  5  1  0
  5  6  1  0
  6  7  1  0
  7  8  1  0
  8  9  1  0
  9 10  2  0
  9 11  1  0
 11 12  1  0
 12 13  1  0
 13 14  2  0
 14 15  1  0
 15 16  2  0
 16 17  1  0
 17 18  2  0
 11 19  1  0
 19 20  1  0
 20 21  2  0
 20 22  1  0
 22 23  1  0
 23 24  1  0
 24 25  2  0
 24 26  1  0
 26 27  1  0
 27 28  1  0
 28 29  2  0
 28 30  1  0
 30 31  1  0
 31 32  1  0
 32 33  1  0
 33 34  1  0
 34 35  1  0
 35 36  2  0
 35 37  1  0
 37 38  1  0
 38 39  1  0
 39 40  2  0
 37 41  1  0
 41 42  1  0
 42 43  2  0
 43 44  1  0
 44 45  1  0
 45 46  2  0
 46 47  1  0
 47 48  2  0
 48 49  1  0
 49 50  2  0
 34 51  1  0
 51 52  1  0
 52 53  2  0
 52 54  1  0
 22 55  1  0
 55 56  1  0
 56 57  2  0
 57 58  1  0
 58 59  2  0
 59 60  1  0
 60 61  2  0
  2 62  1  0
 39  7  1  0
 46 42  1  0
 61 56  1  0
 18 13  1  0
 50 45  1  0
  1 63  1  0
  1 64  1  0
  4 65  1  0
  4 66  1  0
  5 67  1  0
  5 68  1  0
  6 69  1  0
  6 70  1  0
  7 71  1  1
  8 72  1  0
 11 73  1  6
 12 74  1  0
 12 75  1  0
 14 76  1  0
 15 77  1  0
 16 78  1  0
 17 79  1  0
 18 80  1  0
 19 81  1  0
 22 82  1  1
 23 83  1  0
 26 84  1  0
 26 85  1  0
 27 86  1  0
 27 87  1  0
 30 88  1  0
 31 89  1  0
 31 90  1  0
 32 91  1  0
 32 92  1  0
 33 93  1  0
 33 94  1  0
 37 95  1  1
 38 96  1  0
 41 97  1  0
 41 98  1  0
 43 99  1  0
 44100  1  0
 47101  1  0
 48102  1  0
 49103  1  0
 50104  1  0
 51105  1  0
 51106  1  0
 54107  1  0
 54108  1  0
 55109  1  0
 55110  1  0
 57111  1  0
 58112  1  0
 59113  1  0
 60114  1  0
 61115  1  0
 62116  1  0
 62117  1  0
M  END
>  <Ligand ID>  (1) 
LIG0001384

>  <Ligand>  (1) 
CHEMBL272660

>  <SMILES>  (1) 
NC(=NCCC[C@@H]1NC(=O)[C@@H](Cc2ccccc2)NC(=O)[C@@H](NC(=O)CCC(=O)NCCCN(C(=O)[C@@H](NC1=O)Cc1c[nH]c2c1cccc2)CC(=O)N)Cc1ccccc1)N

>  <CID>  (1) 
15603023.0

>  <ChEMBL ID>  (1) 
nan

>  <InChiKey>  (1) 
OHZACAASEFWFDZ-KFIZHRIMSA-N

>  <InChi>  (1) 
InChI=1S/C44H55N11O7/c45-37(56)27-55-22-10-21-48-38(57)18-19-39(58)51-34(23-28-11-3-1-4-12-28)41(60)53-35(24-29-13-5-2-6-14-29)42(61)52-33(17-9-20-49-44(46)47)40(59)54-36(43(55)62)25-30-26-50-32-16-8-7-15-31(30)32/h1-8,11-16,26,33-36,50H,9-10,17-25,27H2,(H2,45,56)(H,48,57)(H,51,58)(H,52,61)(H,53,60)(H,54,59)(H4,46,47,49)/t33-,34-,35+,36-/m0/s1

>  <IUPAC Name>  (1) 
2-[(2S,5R,8S,11S)-2,5-dibenzyl-8-[3-(diaminomethylideneamino)propyl]-11-(1H-indol-3-ylmethyl)-3,6,9,12,18,21-hexaoxo-1,4,7,10,13,17-hexazacyclohenicos-13-yl]acetamide

$$$$
