
     RDKit          3D

 35 37  0  0  0  0  0  0  0  0999 V2000
    4.3060   -1.5566   -0.4695 C   0  0  0  0  0  0  0  0  0  0  0  0
    3.4223   -1.0988   -1.6243 C   0  0  0  0  0  0  0  0  0  0  0  0
    2.3053   -0.2673   -1.1651 C   0  0  0  0  0  0  0  0  0  0  0  0
    1.0810   -0.8301   -0.8099 C   0  0  0  0  0  0  0  0  0  0  0  0
    0.0547    0.0197   -0.3793 C   0  0  0  0  0  0  0  0  0  0  0  0
   -1.2241   -0.5865   -0.0420 C   0  0  1  0  0  0  0  0  0  0  0  0
   -1.2336   -1.8963    0.6507 C   0  0  0  0  0  0  0  0  0  0  0  0
   -2.6357   -1.9496    1.1085 N   0  0  0  0  0  0  0  0  0  0  0  0
   -3.0273   -0.5519    1.3696 C   0  0  0  0  0  0  0  0  0  0  0  0
   -1.8237    0.2655    1.0968 C   0  0  2  0  0  0  0  0  0  0  0  0
   -2.0125    1.5700    0.5389 N   0  0  0  0  0  0  0  0  0  0  0  0
   -0.7958    2.2707    0.1668 C   0  0  0  0  0  0  0  0  0  0  0  0
   -0.7050    3.5165    0.2609 O   0  0  0  0  0  0  0  0  0  0  0  0
    0.2822    1.4065   -0.3155 C   0  0  0  0  0  0  0  0  0  0  0  0
    1.4859    1.9621   -0.6651 C   0  0  0  0  0  0  0  0  0  0  0  0
    2.4954    1.1119   -1.0905 C   0  0  0  0  0  0  0  0  0  0  0  0
    1.6845    3.6807   -0.5592 Cl  0  0  0  0  0  0  0  0  0  0  0  0
   -3.2922    2.2164    0.3344 C   0  0  0  0  0  0  0  0  0  0  0  0
    4.8278   -0.7153    0.0286 H   0  0  0  0  0  0  0  0  0  0  0  0
    5.0288   -2.3100   -0.8423 H   0  0  0  0  0  0  0  0  0  0  0  0
    3.7087   -2.0693    0.3080 H   0  0  0  0  0  0  0  0  0  0  0  0
    4.0388   -0.6467   -2.4253 H   0  0  0  0  0  0  0  0  0  0  0  0
    3.0169   -2.0484   -2.0600 H   0  0  0  0  0  0  0  0  0  0  0  0
    0.9322   -1.8830   -0.8655 H   0  0  0  0  0  0  0  0  0  0  0  0
   -1.9293   -0.6044   -0.9025 H   0  0  0  0  0  0  0  0  0  0  0  0
   -1.0845   -2.7710   -0.0202 H   0  0  0  0  0  0  0  0  0  0  0  0
   -0.5479   -1.9190    1.5088 H   0  0  0  0  0  0  0  0  0  0  0  0
   -2.6763   -2.5119    1.9872 H   0  0  0  0  0  0  0  0  0  0  0  0
   -3.9157   -0.2436    0.8217 H   0  0  0  0  0  0  0  0  0  0  0  0
   -3.2680   -0.4714    2.4611 H   0  0  0  0  0  0  0  0  0  0  0  0
   -1.0539    0.2185    1.8955 H   0  0  0  0  0  0  0  0  0  0  0  0
    3.4326    1.5805   -1.3591 H   0  0  0  0  0  0  0  0  0  0  0  0
   -3.1346    3.2704    0.1041 H   0  0  0  0  0  0  0  0  0  0  0  0
   -3.8117    2.1747    1.3349 H   0  0  0  0  0  0  0  0  0  0  0  0
   -3.9311    1.6669   -0.3811 H   0  0  0  0  0  0  0  0  0  0  0  0
  1  2  1  0
  2  3  1  0
  3  4  2  0
  4  5  1  0
  5  6  1  0
  6  7  1  0
  7  8  1  0
  8  9  1  0
  9 10  1  0
 10 11  1  0
 11 12  1  0
 12 13  2  0
 12 14  1  0
 14 15  1  0
 15 16  2  0
 15 17  1  0
 11 18  1  0
 16  3  1  0
 14  5  2  0
 10  6  1  0
  1 19  1  0
  1 20  1  0
  1 21  1  0
  2 22  1  0
  2 23  1  0
  4 24  1  0
  6 25  1  6
  7 26  1  0
  7 27  1  0
  8 28  1  0
  9 29  1  0
  9 30  1  0
 10 31  1  1
 16 32  1  0
 18 33  1  0
 18 34  1  0
 18 35  1  0
M  END
>  <Ligand ID>  (1) 
LIG0004102

>  <Ligand>  (1) 
CHEMBL2337502

>  <SMILES>  (1) 
CCc1cc2[C@H]3CNC[C@@H]3N(C(=O)c2c(c1)Cl)C

>  <CID>  (1) 
11652359.0

>  <ChEMBL ID>  (1) 
nan

>  <InChiKey>  (1) 
SPLKWJXBPRSCNB-PWSUYJOCSA-N

>  <InChi>  (1) 
InChI=1S/C14H17ClN2O/c1-3-8-4-9-10-6-16-7-12(10)17(2)14(18)13(9)11(15)5-8/h4-5,10,12,16H,3,6-7H2,1-2H3/t10-,12+/m1/s1

>  <IUPAC Name>  (1) 
(3aR,9bS)-6-chloro-8-ethyl-4-methyl-2,3,3a,9b-tetrahydro-1H-pyrrolo[3,4-c]isoquinolin-5-one

$$$$
