
     RDKit          3D

 80 87  0  0  0  0  0  0  0  0999 V2000
    2.4775    2.0361   -0.9122 C   0  0  0  0  0  0  0  0  0  0  0  0
    2.2482    0.7818   -0.4318 O   0  0  0  0  0  0  0  0  0  0  0  0
    0.9394    0.3880   -0.3021 C   0  0  1  0  0  0  0  0  0  0  0  0
    0.2492    0.4231   -1.6433 C   0  0  0  0  0  0  0  0  0  0  0  0
   -1.1901   -0.0453   -1.5434 C   0  0  0  0  0  0  0  0  0  0  0  0
   -1.3317   -0.7177   -0.2233 C   0  0  1  0  0  0  0  0  0  0  0  0
   -0.2836   -1.7900   -0.1393 C   0  0  0  0  0  0  0  0  0  0  0  0
    1.0274   -1.1029    0.0772 C   0  0  1  0  0  0  0  0  0  0  0  0
    2.1553   -1.8072   -0.6175 C   0  0  0  0  0  0  0  0  0  0  0  0
    3.3740   -1.2136   -0.2689 O   0  0  0  0  0  0  0  0  0  0  0  0
    4.3908   -1.9087   -0.9177 C   0  0  0  0  0  0  0  0  0  0  0  0
    5.7359   -1.3607   -0.5929 C   0  0  0  0  0  0  0  0  0  0  0  0
    6.3573   -1.9209    0.5261 C   0  0  0  0  0  0  0  0  0  0  0  0
    7.6024   -1.5248    0.9560 C   0  0  0  0  0  0  0  0  0  0  0  0
    8.2379   -0.5279    0.2267 C   0  0  0  0  0  0  0  0  0  0  0  0
    7.6278    0.0266   -0.8773 C   0  0  0  0  0  0  0  0  0  0  0  0
    6.3609   -0.3833   -1.3062 C   0  0  0  0  0  0  0  0  0  0  0  0
   -1.1607    0.3292    0.8818 C   0  0  1  0  0  0  0  0  0  0  0  0
    0.1634    1.0223    0.7956 C   0  0  2  0  0  0  0  0  0  0  0  0
   -0.1276    2.4146    0.6259 O   0  0  0  0  0  0  0  0  0  0  0  0
   -1.4624    2.6002    0.2967 C   0  0  0  0  0  0  0  0  0  0  0  0
   -2.0611    1.4016    0.4231 C   0  0  0  0  0  0  0  0  0  0  0  0
   -3.3739    1.0874    0.1967 C   0  0  0  0  0  0  0  0  0  0  0  0
   -3.7790   -0.3139    0.3598 C   0  0  0  0  0  0  0  0  0  0  0  0
   -2.6834   -1.3125    0.0663 C   0  0  2  0  0  0  0  0  0  0  0  0
   -2.4600   -2.1785    1.1809 N   0  0  0  0  0  0  0  0  0  0  0  0
   -2.0648   -1.5214    2.3821 C   0  0  0  0  0  0  0  0  0  0  0  0
   -1.5467   -0.1317    2.2273 C   0  0  0  0  0  0  0  0  0  0  0  0
   -3.4296   -3.2058    1.3748 C   0  0  0  0  0  0  0  0  0  0  0  0
   -3.3251   -4.2227    0.2568 C   0  0  0  0  0  0  0  0  0  0  0  0
   -4.3036   -5.3836    0.3371 C   0  0  0  0  0  0  0  0  0  0  0  0
   -2.8379   -5.6013    0.6353 C   0  0  0  0  0  0  0  0  0  0  0  0
   -4.1825    2.1280   -0.2062 C   0  0  0  0  0  0  0  0  0  0  0  0
   -3.6323    3.4068   -0.3579 C   0  0  0  0  0  0  0  0  0  0  0  0
   -2.2752    3.6558   -0.1103 C   0  0  0  0  0  0  0  0  0  0  0  0
   -1.7211    4.9054   -0.2564 O   0  0  0  0  0  0  0  0  0  0  0  0
   -2.5184    5.9879   -0.6636 C   0  0  0  0  0  0  0  0  0  0  0  0
   -1.7008    7.2092   -0.7562 C   0  0  0  0  0  0  0  0  0  0  0  0
   -2.2445    8.2915   -1.1085 O   0  0  0  0  0  0  0  0  0  0  0  0
   -0.3022    7.2531   -0.4681 N   0  0  0  0  0  0  0  0  0  0  0  0
    2.0096    2.7686   -0.2198 H   0  0  0  0  0  0  0  0  0  0  0  0
    2.1631    2.1913   -1.9626 H   0  0  0  0  0  0  0  0  0  0  0  0
    3.5725    2.2135   -0.8680 H   0  0  0  0  0  0  0  0  0  0  0  0
    0.2319    1.4195   -2.1032 H   0  0  0  0  0  0  0  0  0  0  0  0
    0.8423   -0.2143   -2.3429 H   0  0  0  0  0  0  0  0  0  0  0  0
   -1.3259   -0.8196   -2.3498 H   0  0  0  0  0  0  0  0  0  0  0  0
   -1.9015    0.7605   -1.7516 H   0  0  0  0  0  0  0  0  0  0  0  0
   -0.2729   -2.2844   -1.1550 H   0  0  0  0  0  0  0  0  0  0  0  0
   -0.5320   -2.5615    0.6176 H   0  0  0  0  0  0  0  0  0  0  0  0
    1.2994   -1.1480    1.1780 H   0  0  0  0  0  0  0  0  0  0  0  0
    2.0671   -1.7877   -1.7215 H   0  0  0  0  0  0  0  0  0  0  0  0
    2.1755   -2.8393   -0.2456 H   0  0  0  0  0  0  0  0  0  0  0  0
    4.1706   -1.8842   -1.9953 H   0  0  0  0  0  0  0  0  0  0  0  0
    4.3226   -2.9999   -0.6359 H   0  0  0  0  0  0  0  0  0  0  0  0
    5.8689   -2.7031    1.1072 H   0  0  0  0  0  0  0  0  0  0  0  0
    8.0524   -1.9846    1.8325 H   0  0  0  0  0  0  0  0  0  0  0  0
    9.2099   -0.2337    0.5801 H   0  0  0  0  0  0  0  0  0  0  0  0
    8.1756    0.7988   -1.4013 H   0  0  0  0  0  0  0  0  0  0  0  0
    5.8854    0.0451   -2.1617 H   0  0  0  0  0  0  0  0  0  0  0  0
    0.7504    0.9693    1.7315 H   0  0  0  0  0  0  0  0  0  0  0  0
   -4.0756   -0.4494    1.4192 H   0  0  0  0  0  0  0  0  0  0  0  0
   -4.7014   -0.5672   -0.2227 H   0  0  0  0  0  0  0  0  0  0  0  0
   -2.9915   -1.9106   -0.8039 H   0  0  0  0  0  0  0  0  0  0  0  0
   -2.9183   -1.5825    3.0891 H   0  0  0  0  0  0  0  0  0  0  0  0
   -1.2605   -2.1313    2.8465 H   0  0  0  0  0  0  0  0  0  0  0  0
   -2.2991    0.5556    2.6707 H   0  0  0  0  0  0  0  0  0  0  0  0
   -0.6448    0.0350    2.8892 H   0  0  0  0  0  0  0  0  0  0  0  0
   -4.4456   -2.7606    1.2726 H   0  0  0  0  0  0  0  0  0  0  0  0
   -3.2958   -3.6858    2.3619 H   0  0  0  0  0  0  0  0  0  0  0  0
   -3.1116   -3.9103   -0.7737 H   0  0  0  0  0  0  0  0  0  0  0  0
   -4.7153   -5.7887   -0.5954 H   0  0  0  0  0  0  0  0  0  0  0  0
   -5.0099   -5.3826    1.1930 H   0  0  0  0  0  0  0  0  0  0  0  0
   -2.2705   -6.1581   -0.1200 H   0  0  0  0  0  0  0  0  0  0  0  0
   -2.5378   -5.7271    1.7034 H   0  0  0  0  0  0  0  0  0  0  0  0
   -5.2246    1.9196   -0.3919 H   0  0  0  0  0  0  0  0  0  0  0  0
   -4.2782    4.2408   -0.6782 H   0  0  0  0  0  0  0  0  0  0  0  0
   -3.3489    6.0944    0.0774 H   0  0  0  0  0  0  0  0  0  0  0  0
   -2.9754    5.7926   -1.6661 H   0  0  0  0  0  0  0  0  0  0  0  0
    0.4238    7.3019   -1.2222 H   0  0  0  0  0  0  0  0  0  0  0  0
   -0.0332    7.2339    0.5371 H   0  0  0  0  0  0  0  0  0  0  0  0
  1  2  1  0
  3  2  1  6
  3  4  1  0
  4  5  1  0
  6  5  1  6
  6  7  1  0
  7  8  1  0
  8  9  1  0
  9 10  1  0
 10 11  1  0
 11 12  1  0
 12 13  2  0
 13 14  1  0
 14 15  2  0
 15 16  1  0
 16 17  2  0
  6 18  1  0
 18 19  1  0
 19 20  1  0
 20 21  1  0
 21 22  2  0
 22 23  1  0
 23 24  1  0
 24 25  1  0
 25 26  1  0
 26 27  1  0
 27 28  1  0
 26 29  1  0
 29 30  1  0
 30 31  1  0
 31 32  1  0
 23 33  2  0
 33 34  1  0
 34 35  2  0
 35 36  1  0
 36 37  1  0
 37 38  1  0
 38 39  2  0
 38 40  1  0
  8  3  1  0
 17 12  1  0
 18 28  1  1
 32 30  1  0
 19  3  1  0
 35 21  1  0
 25  6  1  0
 22 18  1  0
  1 41  1  0
  1 42  1  0
  1 43  1  0
  4 44  1  0
  4 45  1  0
  5 46  1  0
  5 47  1  0
  7 48  1  0
  7 49  1  0
  8 50  1  1
  9 51  1  0
  9 52  1  0
 11 53  1  0
 11 54  1  0
 13 55  1  0
 14 56  1  0
 15 57  1  0
 16 58  1  0
 17 59  1  0
 19 60  1  1
 24 61  1  0
 24 62  1  0
 25 63  1  6
 27 64  1  0
 27 65  1  0
 28 66  1  0
 28 67  1  0
 29 68  1  0
 29 69  1  0
 30 70  1  0
 31 71  1  0
 31 72  1  0
 32 73  1  0
 32 74  1  0
 33 75  1  0
 34 76  1  0
 37 77  1  0
 37 78  1  0
 40 79  1  0
 40 80  1  0
M  END
>  <Ligand ID>  (1) 
LIG0004702

>  <Ligand>  (1) 
CHEMBL3971535

>  <SMILES>  (1) 
CO[C@@]12CC[C@@]3(C[C@H]1COCc1ccccc1)[C@]14[C@@H]2Oc2c4c(C[C@@H]3N(CC1)CC1CC1)ccc2OCC(=O)N

>  <CID>  (1) 
134154291.0

>  <ChEMBL ID>  (1) 
nan

>  <InChiKey>  (1) 
MWAYLFCIAOBQGQ-OQNFWSEQSA-N

>  <InChi>  (1) 
InChI=1S/C33H40N2O5/c1-37-33-12-11-31(16-24(33)19-38-18-22-5-3-2-4-6-22)26-15-23-9-10-25(39-20-27(34)36)29-28(23)32(31,30(33)40-29)13-14-35(26)17-21-7-8-21/h2-6,9-10,21,24,26,30H,7-8,11-20H2,1H3,(H2,34,36)/t24-,26-,30-,31-,32+,33-/m0/s1

>  <IUPAC Name>  (1) 
2-[[(1R,2R,6S,14S,15S,16S)-5-(cyclopropylmethyl)-15-methoxy-16-(phenylmethoxymethyl)-13-oxa-5-azahexacyclo[13.2.2.12,8.01,6.02,14.012,20]icosa-8(20),9,11-trien-11-yl]oxy]acetamide

$$$$
