
     RDKit          3D

 35 36  0  0  0  0  0  0  0  0999 V2000
    2.5520   -0.7880    0.6170 C   0  0  0  0  0  0  0  0  0  0  0  0
    1.8183   -0.3919   -0.5838 C   0  0  0  0  0  0  0  0  0  0  0  0
    0.4155   -0.0071   -0.5877 C   0  0  0  0  0  0  0  0  0  0  0  0
    0.1476    0.2891   -1.9593 O   0  0  0  0  0  0  0  0  0  0  0  0
   -0.6157   -1.0640   -0.3527 C   0  0  0  0  0  0  0  0  0  0  0  0
   -0.5783   -2.2253   -1.2757 C   0  0  0  0  0  0  0  0  0  0  0  0
   -0.9647   -1.3465    1.0669 C   0  0  0  0  0  0  0  0  0  0  0  0
   -1.5647   -0.0801    1.6408 C   0  0  0  0  0  0  0  0  0  0  0  0
   -1.5028    0.8381    0.4556 C   0  0  0  0  0  0  0  0  0  0  0  0
   -0.0504    1.1890    0.1161 C   0  0  0  0  0  0  0  0  0  0  0  0
    0.6242    1.5733    1.3860 C   0  0  0  0  0  0  0  0  0  0  0  0
   -0.0733    2.4448   -0.7381 C   0  0  0  0  0  0  0  0  0  0  0  0
   -1.8298   -0.1584   -0.6647 C   0  0  0  0  0  0  0  0  0  0  0  0
    3.4903   -1.2950    0.2569 H   0  0  0  0  0  0  0  0  0  0  0  0
    2.1210   -1.5235    1.2934 H   0  0  0  0  0  0  0  0  0  0  0  0
    2.9959    0.0794    1.1916 H   0  0  0  0  0  0  0  0  0  0  0  0
    2.4011    0.4285   -1.0589 H   0  0  0  0  0  0  0  0  0  0  0  0
    1.9019   -1.2285   -1.3419 H   0  0  0  0  0  0  0  0  0  0  0  0
    0.7227   -0.1775   -2.5761 H   0  0  0  0  0  0  0  0  0  0  0  0
   -1.5073   -2.7912   -1.1990 H   0  0  0  0  0  0  0  0  0  0  0  0
   -0.5684   -1.7959   -2.3192 H   0  0  0  0  0  0  0  0  0  0  0  0
    0.3352   -2.7958   -1.0947 H   0  0  0  0  0  0  0  0  0  0  0  0
   -0.2269   -1.8195    1.6926 H   0  0  0  0  0  0  0  0  0  0  0  0
   -1.8160   -2.0818    1.0074 H   0  0  0  0  0  0  0  0  0  0  0  0
   -2.6354   -0.1841    1.9074 H   0  0  0  0  0  0  0  0  0  0  0  0
   -1.0561    0.2856    2.5457 H   0  0  0  0  0  0  0  0  0  0  0  0
   -2.1630    1.6900    0.4864 H   0  0  0  0  0  0  0  0  0  0  0  0
    0.8683    0.7635    2.0661 H   0  0  0  0  0  0  0  0  0  0  0  0
   -0.0836    2.2425    1.9304 H   0  0  0  0  0  0  0  0  0  0  0  0
    1.4999    2.2422    1.1501 H   0  0  0  0  0  0  0  0  0  0  0  0
    0.9054    2.4344   -1.2873 H   0  0  0  0  0  0  0  0  0  0  0  0
   -0.1910    3.3488   -0.1449 H   0  0  0  0  0  0  0  0  0  0  0  0
   -0.8331    2.3023   -1.5371 H   0  0  0  0  0  0  0  0  0  0  0  0
   -1.7707    0.2875   -1.6559 H   0  0  0  0  0  0  0  0  0  0  0  0
   -2.7679   -0.6849   -0.4336 H   0  0  0  0  0  0  0  0  0  0  0  0
  1  2  1  0
  2  3  1  0
  3  4  1  0
  3  5  1  0
  5  6  1  0
  5  7  1  0
  7  8  1  0
  8  9  1  0
  9 10  1  0
 10 11  1  0
 10 12  1  0
  9 13  1  0
 10  3  1  0
 13  5  1  0
  1 14  1  0
  1 15  1  0
  1 16  1  0
  2 17  1  0
  2 18  1  0
  4 19  1  0
  6 20  1  0
  6 21  1  0
  6 22  1  0
  7 23  1  0
  7 24  1  0
  8 25  1  0
  8 26  1  0
  9 27  1  0
 11 28  1  0
 11 29  1  0
 11 30  1  0
 12 31  1  0
 12 32  1  0
 12 33  1  0
 13 34  1  0
 13 35  1  0
M  END
>  <Ligand ID>  (1) 
LIG0000122

>  <Ligand>  (1) 
2-Ethyl-1,3,3-trimethyl-2-norbornanol

>  <SMILES>  (1) 
CCC1(O)C2(C)CCC(C1(C)C)C2

>  <CID>  (1) 
106997.0

>  <ChEMBL ID>  (1) 
nan

>  <InChiKey>  (1) 
KIPCKEJKGCXRGA-UHFFFAOYSA-N

>  <InChi>  (1) 
InChI=1S/C12H22O/c1-5-12(13)10(2,3)9-6-7-11(12,4)8-9/h9,13H,5-8H2,1-4H3

>  <IUPAC Name>  (1) 
2-ethyl-1,3,3-trimethylbicyclo[2.2.1]heptan-2-ol

$$$$
