
     RDKit          3D

 19 18  0  0  0  0  0  0  0  0999 V2000
    2.8174    0.0916    0.1421 N   0  0  0  0  0  0  0  0  0  0  0  0
    1.5450    0.5990   -0.3404 C   0  0  0  0  0  0  0  0  0  0  0  0
    0.5132   -0.4607    0.0086 C   0  0  0  0  0  0  0  0  0  0  0  0
   -0.8887   -0.0699   -0.4385 C   0  0  0  0  0  0  0  0  0  0  0  0
   -1.8362   -1.1705   -0.0539 C   0  0  0  0  0  0  0  0  0  0  0  0
   -1.2085    1.2270    0.2836 C   0  0  0  0  0  0  0  0  0  0  0  0
    2.8102   -0.9433   -0.0142 H   0  0  0  0  0  0  0  0  0  0  0  0
    2.8906    0.2623    1.1725 H   0  0  0  0  0  0  0  0  0  0  0  0
    1.5913    0.6259   -1.4561 H   0  0  0  0  0  0  0  0  0  0  0  0
    1.3064    1.5744    0.0848 H   0  0  0  0  0  0  0  0  0  0  0  0
    0.4822   -0.6596    1.0994 H   0  0  0  0  0  0  0  0  0  0  0  0
    0.7847   -1.4045   -0.5017 H   0  0  0  0  0  0  0  0  0  0  0  0
   -0.9251    0.1386   -1.5185 H   0  0  0  0  0  0  0  0  0  0  0  0
   -2.0929   -1.7273   -0.9813 H   0  0  0  0  0  0  0  0  0  0  0  0
   -2.7610   -0.7784    0.4451 H   0  0  0  0  0  0  0  0  0  0  0  0
   -1.3358   -1.8987    0.6204 H   0  0  0  0  0  0  0  0  0  0  0  0
   -0.7504    1.1503    1.3104 H   0  0  0  0  0  0  0  0  0  0  0  0
   -0.6554    2.0416   -0.2291 H   0  0  0  0  0  0  0  0  0  0  0  0
   -2.2871    1.4022    0.3669 H   0  0  0  0  0  0  0  0  0  0  0  0
  1  2  1  0
  2  3  1  0
  3  4  1  0
  4  5  1  0
  4  6  1  0
  1  7  1  0
  1  8  1  0
  2  9  1  0
  2 10  1  0
  3 11  1  0
  3 12  1  0
  4 13  1  0
  5 14  1  0
  5 15  1  0
  5 16  1  0
  6 17  1  0
  6 18  1  0
  6 19  1  0
M  END
>  <Ligand ID>  (1) 
LIG0000149

>  <Ligand>  (1) 
isoamylamine

>  <SMILES>  (1) 
NCCC(C)C

>  <CID>  (1) 
7894.0

>  <ChEMBL ID>  (1) 
nan

>  <InChiKey>  (1) 
BMFVGAAISNGQNM-UHFFFAOYSA-N

>  <InChi>  (1) 
InChI=1S/C5H13N/c1-5(2)3-4-6/h5H,3-4,6H2,1-2H3

>  <IUPAC Name>  (1) 
3-methylbutan-1-amine

$$$$
