
     RDKit          3D

 65 67  0  0  0  0  0  0  0  0999 V2000
  -10.9127   -0.6696   -0.1525 O   0  0  0  0  0  0  0  0  0  0  0  0
  -10.2734    0.0840   -1.1306 C   0  0  0  0  0  0  0  0  0  0  0  0
  -11.0214    0.8612   -1.8033 O   0  0  0  0  0  0  0  0  0  0  0  0
   -8.8088   -0.0003   -1.3880 C   0  0  0  0  0  0  0  0  0  0  0  0
   -8.1505   -0.9959   -0.4535 C   0  0  0  0  0  0  0  0  0  0  0  0
   -8.3212   -0.6411    0.9227 N   0  0  0  0  0  0  0  0  0  0  0  0
   -7.6053    0.5462    1.3183 C   0  0  0  0  0  0  0  0  0  0  0  0
   -6.1494    0.4633    1.1749 C   0  0  0  0  0  0  0  0  0  0  0  0
   -5.4387    0.8172    0.0540 C   0  0  0  0  0  0  0  0  0  0  0  0
   -4.0622    0.7212   -0.0325 C   0  0  0  0  0  0  0  0  0  0  0  0
   -3.3564    0.2559    1.0329 C   0  0  0  0  0  0  0  0  0  0  0  0
   -4.0213   -0.1077    2.1691 C   0  0  0  0  0  0  0  0  0  0  0  0
   -5.3946   -0.0107    2.2524 C   0  0  0  0  0  0  0  0  0  0  0  0
   -1.9076    0.1459    0.9682 C   0  0  0  0  0  0  0  0  0  0  0  0
   -1.2800    0.4984   -0.1276 N   0  0  0  0  0  0  0  0  0  0  0  0
    0.0868    0.3609   -0.0982 O   0  0  0  0  0  0  0  0  0  0  0  0
    0.8113    0.5727   -1.2756 C   0  0  0  0  0  0  0  0  0  0  0  0
    2.2597    0.3716   -1.0071 C   0  0  0  0  0  0  0  0  0  0  0  0
    2.9876    1.4739   -0.6096 C   0  0  0  0  0  0  0  0  0  0  0  0
    4.3355    1.3466   -0.3462 C   0  0  0  0  0  0  0  0  0  0  0  0
    5.0010    0.1220   -0.4695 C   0  0  0  0  0  0  0  0  0  0  0  0
    4.2613   -0.9989   -0.8737 C   0  0  0  0  0  0  0  0  0  0  0  0
    2.8924   -0.8460   -1.1358 C   0  0  0  0  0  0  0  0  0  0  0  0
    4.9134   -2.3045   -1.0214 C   0  0  0  0  0  0  0  0  0  0  0  0
    5.4636   -2.7152    0.1776 F   0  0  0  0  0  0  0  0  0  0  0  0
    3.9398   -3.2450   -1.3173 F   0  0  0  0  0  0  0  0  0  0  0  0
    5.8140   -2.3713   -2.0536 F   0  0  0  0  0  0  0  0  0  0  0  0
    6.4236    0.0571   -0.1718 C   0  0  0  0  0  0  0  0  0  0  0  0
    6.7942   -0.1475    1.2578 C   0  0  0  0  0  0  0  0  0  0  0  0
    8.1959   -0.7122    1.3300 C   0  0  0  0  0  0  0  0  0  0  0  0
    9.0065   -0.2561    0.1611 C   0  0  0  0  0  0  0  0  0  0  0  0
    8.6739    1.1315   -0.3266 C   0  0  0  0  0  0  0  0  0  0  0  0
    7.2108    1.2914   -0.6359 C   0  0  0  0  0  0  0  0  0  0  0  0
   -1.1412   -0.3668    2.1454 C   0  0  0  0  0  0  0  0  0  0  0  0
  -11.7173   -0.2411    0.3121 H   0  0  0  0  0  0  0  0  0  0  0  0
   -8.7014   -0.3270   -2.4445 H   0  0  0  0  0  0  0  0  0  0  0  0
   -8.3121    0.9803   -1.2512 H   0  0  0  0  0  0  0  0  0  0  0  0
   -8.5517   -2.0158   -0.5990 H   0  0  0  0  0  0  0  0  0  0  0  0
   -7.0629   -1.0419   -0.6577 H   0  0  0  0  0  0  0  0  0  0  0  0
   -8.0520   -1.4457    1.5211 H   0  0  0  0  0  0  0  0  0  0  0  0
   -8.0265    1.4045    0.7205 H   0  0  0  0  0  0  0  0  0  0  0  0
   -7.8494    0.8105    2.3722 H   0  0  0  0  0  0  0  0  0  0  0  0
   -5.9733    1.1898   -0.8045 H   0  0  0  0  0  0  0  0  0  0  0  0
   -3.5179    1.0066   -0.9281 H   0  0  0  0  0  0  0  0  0  0  0  0
   -3.4968   -0.4857    3.0501 H   0  0  0  0  0  0  0  0  0  0  0  0
   -5.8867   -0.3055    3.1651 H   0  0  0  0  0  0  0  0  0  0  0  0
    0.6327    1.6477   -1.5693 H   0  0  0  0  0  0  0  0  0  0  0  0
    0.5309   -0.0530   -2.1277 H   0  0  0  0  0  0  0  0  0  0  0  0
    2.4991    2.4309   -0.5059 H   0  0  0  0  0  0  0  0  0  0  0  0
    4.8488    2.2495   -0.0379 H   0  0  0  0  0  0  0  0  0  0  0  0
    2.2859   -1.6914   -1.4497 H   0  0  0  0  0  0  0  0  0  0  0  0
    6.9523   -0.7614   -0.7487 H   0  0  0  0  0  0  0  0  0  0  0  0
    6.0642   -0.7145    1.8656 H   0  0  0  0  0  0  0  0  0  0  0  0
    6.8636    0.8741    1.7397 H   0  0  0  0  0  0  0  0  0  0  0  0
    8.1227   -1.8328    1.2780 H   0  0  0  0  0  0  0  0  0  0  0  0
    8.6757   -0.4812    2.3096 H   0  0  0  0  0  0  0  0  0  0  0  0
   10.0737   -0.2122    0.4951 H   0  0  0  0  0  0  0  0  0  0  0  0
    8.9838   -0.9319   -0.7122 H   0  0  0  0  0  0  0  0  0  0  0  0
    9.0174    1.8613    0.4462 H   0  0  0  0  0  0  0  0  0  0  0  0
    9.2699    1.3232   -1.2189 H   0  0  0  0  0  0  0  0  0  0  0  0
    6.8743    2.2215   -0.1632 H   0  0  0  0  0  0  0  0  0  0  0  0
    7.0895    1.4261   -1.7292 H   0  0  0  0  0  0  0  0  0  0  0  0
   -0.1337   -0.7387    1.8119 H   0  0  0  0  0  0  0  0  0  0  0  0
   -1.0485    0.3851    2.9530 H   0  0  0  0  0  0  0  0  0  0  0  0
   -1.6809   -1.2636    2.5451 H   0  0  0  0  0  0  0  0  0  0  0  0
  1  2  1  0
  2  3  2  0
  2  4  1  0
  4  5  1  0
  5  6  1  0
  6  7  1  0
  7  8  1  0
  8  9  2  0
  9 10  1  0
 10 11  2  0
 11 12  1  0
 12 13  2  0
 11 14  1  0
 14 15  2  0
 15 16  1  0
 16 17  1  0
 17 18  1  0
 18 19  2  0
 19 20  1  0
 20 21  2  0
 21 22  1  0
 22 23  2  0
 22 24  1  0
 24 25  1  0
 24 26  1  0
 24 27  1  0
 21 28  1  0
 28 29  1  0
 29 30  1  0
 30 31  1  0
 31 32  1  0
 32 33  1  0
 14 34  1  0
 13  8  1  0
 23 18  1  0
 33 28  1  0
  1 35  1  0
  4 36  1  0
  4 37  1  0
  5 38  1  0
  5 39  1  0
  6 40  1  0
  7 41  1  0
  7 42  1  0
  9 43  1  0
 10 44  1  0
 12 45  1  0
 13 46  1  0
 17 47  1  0
 17 48  1  0
 19 49  1  0
 20 50  1  0
 23 51  1  0
 28 52  1  0
 29 53  1  0
 29 54  1  0
 30 55  1  0
 30 56  1  0
 31 57  1  0
 31 58  1  0
 32 59  1  0
 32 60  1  0
 33 61  1  0
 33 62  1  0
 34 63  1  0
 34 64  1  0
 34 65  1  0
M  END
>  <Ligand ID>  (1) 
LIG0005575

>  <Ligand>  (1) 
CHEMBL2336086

>  <SMILES>  (1) 
OC(=O)CCNCc1ccc(cc1)/C(=N/OCc1ccc(c(c1)C(F)(F)F)C1CCCCC1)/C

>  <CID>  (1) 
57570498.0

>  <ChEMBL ID>  (1) 
nan

>  <InChiKey>  (1) 
UDAOYEIPVWIQOP-FDAWAROLSA-N

>  <InChi>  (1) 
InChI=1S/C26H31F3N2O3/c1-18(21-10-7-19(8-11-21)16-30-14-13-25(32)33)31-34-17-20-9-12-23(22-5-3-2-4-6-22)24(15-20)26(27,28)29/h7-12,15,22,30H,2-6,13-14,16-17H2,1H3,(H,32,33)/b31-18+

>  <IUPAC Name>  (1) 
3-[[4-[(E)-N-[[4-cyclohexyl-3-(trifluoromethyl)phenyl]methoxy]-C-methylcarbonimidoyl]phenyl]methylamino]propanoic acid

$$$$
