
     RDKit          3D

 80 82  0  0  0  0  0  0  0  0999 V2000
   -3.8660   -1.8612    0.1134 O   0  0  0  0  0  0  0  0  0  0  0  0
   -4.3848   -0.8849   -0.5294 C   0  0  0  0  0  0  0  0  0  0  0  0
   -3.7676   -0.3001   -1.6584 N   0  0  0  0  0  0  0  0  0  0  0  0
   -2.4969   -0.7043   -2.2059 C   0  0  2  0  0  0  0  0  0  0  0  0
   -1.4791   -0.0137   -1.3745 C   0  0  0  0  0  0  0  0  0  0  0  0
   -1.9004    0.5834   -0.3540 O   0  0  0  0  0  0  0  0  0  0  0  0
   -0.0876    0.0287   -1.6267 N   0  0  0  0  0  0  0  0  0  0  0  0
    0.6950    0.7438   -0.6179 C   0  0  1  0  0  0  0  0  0  0  0  0
    1.9711    0.0395   -0.4348 C   0  0  0  0  0  0  0  0  0  0  0  0
    2.3576   -0.6610   -1.4407 O   0  0  0  0  0  0  0  0  0  0  0  0
    2.6659    0.1492    0.7584 N   0  0  0  0  0  0  0  0  0  0  0  0
    3.9510   -0.4492    1.1116 C   0  0  1  0  0  0  0  0  0  0  0  0
    4.0525   -0.7026    2.5453 C   0  0  0  0  0  0  0  0  0  0  0  0
    4.9858   -1.2322    3.1691 O   0  0  0  0  0  0  0  0  0  0  0  0
    2.9262   -0.2898    3.3643 N   0  0  0  0  0  0  0  0  0  0  0  0
    4.2258   -1.7346    0.3362 C   0  0  0  0  0  0  0  0  0  0  0  0
    5.5224   -2.3987    0.6402 C   0  0  0  0  0  0  0  0  0  0  0  0
    6.7273   -1.5776    0.3429 C   0  0  0  0  0  0  0  0  0  0  0  0
    6.8799   -0.3496    1.0416 N   0  0  0  0  0  0  0  0  0  0  0  0
    7.8961    0.0957    1.6584 C   0  0  0  0  0  0  0  0  0  0  0  0
    7.8408    1.3732    2.3074 N   0  0  0  0  0  0  0  0  0  0  0  0
    9.1009   -0.6492    1.7208 N   0  0  0  0  0  0  0  0  0  0  0  0
    1.0078    2.1545   -1.1323 C   0  0  0  0  0  0  0  0  0  0  0  0
    1.8107    2.8290   -0.0938 C   0  0  0  0  0  0  0  0  0  0  0  0
    3.2057    2.7980   -0.1893 C   0  0  0  0  0  0  0  0  0  0  0  0
    4.0250    3.3826    0.7434 C   0  0  0  0  0  0  0  0  0  0  0  0
    3.4740    4.0349    1.8319 C   0  0  0  0  0  0  0  0  0  0  0  0
    2.1121    4.0711    1.9317 C   0  0  0  0  0  0  0  0  0  0  0  0
    1.2955    3.4846    0.9961 C   0  0  0  0  0  0  0  0  0  0  0  0
   -2.3055   -0.7018   -3.6514 C   0  0  0  0  0  0  0  0  0  0  0  0
   -3.2478   -1.6524   -4.3485 C   0  0  0  0  0  0  0  0  0  0  0  0
   -4.1767   -2.4438   -3.8072 N   0  0  0  0  0  0  0  0  0  0  0  0
   -4.8148   -3.1745   -4.7463 C   0  0  0  0  0  0  0  0  0  0  0  0
   -4.2606   -2.8256   -5.9467 N   0  0  0  0  0  0  0  0  0  0  0  0
   -3.3075   -1.9040   -5.7251 C   0  0  0  0  0  0  0  0  0  0  0  0
   -5.6668   -0.4210    0.0109 C   0  0  0  0  0  0  0  0  0  0  0  0
   -6.2580   -0.9272    1.0544 C   0  0  0  0  0  0  0  0  0  0  0  0
   -7.5326   -0.4482    1.5768 C   0  0  0  0  0  0  0  0  0  0  0  0
   -8.2067    0.6358    0.9955 C   0  0  0  0  0  0  0  0  0  0  0  0
   -9.4080    1.0919    1.5001 C   0  0  0  0  0  0  0  0  0  0  0  0
   -9.9887    0.4985    2.5939 C   0  0  0  0  0  0  0  0  0  0  0  0
   -9.3478   -0.5741    3.1894 C   0  0  0  0  0  0  0  0  0  0  0  0
   -8.1285   -1.0345    2.6748 C   0  0  0  0  0  0  0  0  0  0  0  0
   -7.5759   -2.0883    3.3313 F   0  0  0  0  0  0  0  0  0  0  0  0
  -11.1478    0.9469    3.0747 F   0  0  0  0  0  0  0  0  0  0  0  0
   -4.3014    0.4960   -2.1197 H   0  0  0  0  0  0  0  0  0  0  0  0
   -2.3173   -1.8072   -1.8752 H   0  0  0  0  0  0  0  0  0  0  0  0
    0.3133   -0.4189   -2.4662 H   0  0  0  0  0  0  0  0  0  0  0  0
    0.1703    0.8455    0.3280 H   0  0  0  0  0  0  0  0  0  0  0  0
    2.2351    0.7377    1.5339 H   0  0  0  0  0  0  0  0  0  0  0  0
    4.7033    0.2792    0.7116 H   0  0  0  0  0  0  0  0  0  0  0  0
    3.0840    0.2076    4.2826 H   0  0  0  0  0  0  0  0  0  0  0  0
    1.9433   -0.4879    3.0611 H   0  0  0  0  0  0  0  0  0  0  0  0
    4.3146   -1.4063   -0.7453 H   0  0  0  0  0  0  0  0  0  0  0  0
    3.4120   -2.4611    0.3724 H   0  0  0  0  0  0  0  0  0  0  0  0
    5.5702   -3.3026   -0.0585 H   0  0  0  0  0  0  0  0  0  0  0  0
    5.5548   -2.8492    1.6735 H   0  0  0  0  0  0  0  0  0  0  0  0
    6.7053   -1.3021   -0.7598 H   0  0  0  0  0  0  0  0  0  0  0  0
    7.6760   -2.1554    0.4850 H   0  0  0  0  0  0  0  0  0  0  0  0
    7.3288    2.1889    1.9380 H   0  0  0  0  0  0  0  0  0  0  0  0
    8.3473    1.5096    3.2151 H   0  0  0  0  0  0  0  0  0  0  0  0
    9.1263   -1.6926    1.8439 H   0  0  0  0  0  0  0  0  0  0  0  0
   10.0596   -0.2049    1.6500 H   0  0  0  0  0  0  0  0  0  0  0  0
    0.0993    2.7153   -1.4154 H   0  0  0  0  0  0  0  0  0  0  0  0
    1.6265    2.0649   -2.0490 H   0  0  0  0  0  0  0  0  0  0  0  0
    3.6195    2.2825   -1.0533 H   0  0  0  0  0  0  0  0  0  0  0  0
    5.0930    3.2995    0.5733 H   0  0  0  0  0  0  0  0  0  0  0  0
    4.1137    4.4877    2.5581 H   0  0  0  0  0  0  0  0  0  0  0  0
    1.6901    4.5924    2.8051 H   0  0  0  0  0  0  0  0  0  0  0  0
    0.1924    3.5150    1.0760 H   0  0  0  0  0  0  0  0  0  0  0  0
   -2.2874    0.2758   -4.1725 H   0  0  0  0  0  0  0  0  0  0  0  0
   -1.2941   -1.1582   -3.8668 H   0  0  0  0  0  0  0  0  0  0  0  0
   -4.4195   -2.5347   -2.8053 H   0  0  0  0  0  0  0  0  0  0  0  0
   -5.6002   -3.8977   -4.6658 H   0  0  0  0  0  0  0  0  0  0  0  0
   -2.7120   -1.4627   -6.5122 H   0  0  0  0  0  0  0  0  0  0  0  0
   -6.1191    0.4089   -0.5381 H   0  0  0  0  0  0  0  0  0  0  0  0
   -5.7772   -1.7405    1.5642 H   0  0  0  0  0  0  0  0  0  0  0  0
   -7.8212    1.1594    0.1346 H   0  0  0  0  0  0  0  0  0  0  0  0
   -9.9224    1.9278    1.0462 H   0  0  0  0  0  0  0  0  0  0  0  0
   -9.7802   -1.0494    4.0395 H   0  0  0  0  0  0  0  0  0  0  0  0
  1  2  2  0
  2  3  1  0
  3  4  1  0
  4  5  1  0
  5  6  2  0
  5  7  1  0
  7  8  1  0
  8  9  1  0
  9 10  2  0
  9 11  1  0
 11 12  1  0
 12 13  1  0
 13 14  2  0
 13 15  1  0
 12 16  1  0
 16 17  1  0
 17 18  1  0
 18 19  1  0
 19 20  2  3
 20 21  1  0
 20 22  1  0
  8 23  1  0
 23 24  1  0
 24 25  2  0
 25 26  1  0
 26 27  2  0
 27 28  1  0
 28 29  2  0
  4 30  1  0
 30 31  1  0
 31 32  1  0
 32 33  1  0
 33 34  2  0
 34 35  1  0
  2 36  1  0
 36 37  2  0
 37 38  1  0
 38 39  2  0
 39 40  1  0
 40 41  2  0
 41 42  1  0
 42 43  2  0
 43 44  1  0
 41 45  1  0
 29 24  1  0
 35 31  2  0
 43 38  1  0
  3 46  1  0
  4 47  1  1
  7 48  1  0
  8 49  1  1
 11 50  1  0
 12 51  1  6
 15 52  1  0
 15 53  1  0
 16 54  1  0
 16 55  1  0
 17 56  1  0
 17 57  1  0
 18 58  1  0
 18 59  1  0
 21 60  1  0
 21 61  1  0
 22 62  1  0
 22 63  1  0
 23 64  1  0
 23 65  1  0
 25 66  1  0
 26 67  1  0
 27 68  1  0
 28 69  1  0
 29 70  1  0
 30 71  1  0
 30 72  1  0
 32 73  1  0
 33 74  1  0
 35 75  1  0
 36 76  1  0
 37 77  1  0
 39 78  1  0
 40 79  1  0
 42 80  1  0
M  END
>  <Ligand ID>  (1) 
LIG0002651

>  <Ligand>  (1) 
CHEMBL569076

>  <SMILES>  (1) 
O=C(N[C@H](C(=O)N[C@@H](C(=O)N[C@@H](C(=O)N)CCCN=C(N)N)Cc1ccccc1)Cc1[nH]cnc1)/C=C/c1ccc(cc1F)F

>  <CID>  (1) 
45487288.0

>  <ChEMBL ID>  (1) 
nan

>  <InChiKey>  (1) 
RJVMIMYECFLWOD-DJZHUYDLSA-N

>  <InChi>  (1) 
InChI=1S/C30H35F2N9O4/c31-20-10-8-19(22(32)14-20)9-11-26(42)39-25(15-21-16-36-17-38-21)29(45)41-24(13-18-5-2-1-3-6-18)28(44)40-23(27(33)43)7-4-12-37-30(34)35/h1-3,5-6,8-11,14,16-17,23-25H,4,7,12-13,15H2,(H2,33,43)(H,36,38)(H,39,42)(H,40,44)(H,41,45)(H4,34,35,37)/b11-9+/t23-,24-,25+/m1/s1

>  <IUPAC Name>  (1) 
(2R)-5-(diaminomethylideneamino)-2-[[(2R)-2-[[(2S)-2-[[(E)-3-(2,4-difluorophenyl)prop-2-enoyl]amino]-3-(1H-imidazol-5-yl)propanoyl]amino]-3-phenylpropanoyl]amino]pentanamide

$$$$
