
     RDKit          3D

 61 64  0  0  0  0  0  0  0  0999 V2000
    2.9111    3.1285   -1.1245 O   0  0  0  0  0  0  0  0  0  0  0  0
    3.6126    2.4504   -0.1377 C   0  0  1  0  0  0  0  0  0  0  0  0
    2.7921    2.3611    1.1367 C   0  0  0  0  0  0  0  0  0  0  0  0
    2.5482    0.8622    1.2953 C   0  0  0  0  0  0  0  0  0  0  0  0
    2.4632    0.4632   -0.0854 N   0  0  0  0  0  0  0  0  0  0  0  0
    3.7247    1.0081   -0.5827 C   0  0  0  0  0  0  0  0  0  0  0  0
    2.3975   -0.9574   -0.2760 C   0  0  0  0  0  0  0  0  0  0  0  0
    1.1469   -1.6055    0.1914 C   0  0  1  0  0  0  0  0  0  0  0  0
   -0.0182   -1.0542   -0.5204 N   0  0  0  0  0  0  0  0  0  0  0  0
   -1.0093   -0.4737    0.3105 C   0  0  0  0  0  0  0  0  0  0  0  0
   -0.7607   -0.5388    1.5726 O   0  0  0  0  0  0  0  0  0  0  0  0
   -2.2419    0.1684   -0.0837 C   0  0  0  0  0  0  0  0  0  0  0  0
   -3.1499    0.5386    1.0203 C   0  0  0  0  0  0  0  0  0  0  0  0
   -4.5224    0.2520    0.9543 C   0  0  0  0  0  0  0  0  0  0  0  0
   -5.3648    0.6038    1.9796 C   0  0  0  0  0  0  0  0  0  0  0  0
   -4.9092    1.2567    3.1279 C   0  0  0  0  0  0  0  0  0  0  0  0
   -3.5574    1.5392    3.1928 C   0  0  0  0  0  0  0  0  0  0  0  0
   -2.6845    1.1908    2.1630 C   0  0  0  0  0  0  0  0  0  0  0  0
   -1.9392    1.3767   -0.9387 C   0  0  0  0  0  0  0  0  0  0  0  0
   -0.8001    2.1464   -0.6652 C   0  0  0  0  0  0  0  0  0  0  0  0
   -0.5893    3.2478   -1.4860 C   0  0  0  0  0  0  0  0  0  0  0  0
   -1.4337    3.5810   -2.5098 C   0  0  0  0  0  0  0  0  0  0  0  0
   -2.5583    2.8165   -2.7757 C   0  0  0  0  0  0  0  0  0  0  0  0
   -2.7904    1.7312   -1.9878 C   0  0  0  0  0  0  0  0  0  0  0  0
   -0.1207   -1.1173   -1.9678 C   0  0  0  0  0  0  0  0  0  0  0  0
    1.3158   -3.0636    0.0517 C   0  0  0  0  0  0  0  0  0  0  0  0
    1.3233   -3.7631   -1.1238 C   0  0  0  0  0  0  0  0  0  0  0  0
    1.4788   -5.1396   -1.1681 C   0  0  0  0  0  0  0  0  0  0  0  0
    1.6359   -5.8777   -0.0095 C   0  0  0  0  0  0  0  0  0  0  0  0
    1.6311   -5.1931    1.1754 C   0  0  0  0  0  0  0  0  0  0  0  0
    1.4769   -3.8305    1.2166 C   0  0  0  0  0  0  0  0  0  0  0  0
    3.4393    3.7829   -1.6212 H   0  0  0  0  0  0  0  0  0  0  0  0
    4.6082    2.8955    0.0627 H   0  0  0  0  0  0  0  0  0  0  0  0
    1.8440    2.9122    1.0331 H   0  0  0  0  0  0  0  0  0  0  0  0
    3.3409    2.7760    2.0007 H   0  0  0  0  0  0  0  0  0  0  0  0
    3.4835    0.4708    1.7893 H   0  0  0  0  0  0  0  0  0  0  0  0
    1.6583    0.7011    1.8966 H   0  0  0  0  0  0  0  0  0  0  0  0
    3.8400    0.8980   -1.6789 H   0  0  0  0  0  0  0  0  0  0  0  0
    4.5721    0.5510   -0.0056 H   0  0  0  0  0  0  0  0  0  0  0  0
    2.5171   -1.1711   -1.3567 H   0  0  0  0  0  0  0  0  0  0  0  0
    3.3142   -1.3691    0.1959 H   0  0  0  0  0  0  0  0  0  0  0  0
    0.9038   -1.3653    1.2702 H   0  0  0  0  0  0  0  0  0  0  0  0
   -2.7935   -0.5254   -0.7458 H   0  0  0  0  0  0  0  0  0  0  0  0
   -4.9507   -0.2525    0.0955 H   0  0  0  0  0  0  0  0  0  0  0  0
   -6.4345    0.3890    1.9449 H   0  0  0  0  0  0  0  0  0  0  0  0
   -5.5739    1.5330    3.9349 H   0  0  0  0  0  0  0  0  0  0  0  0
   -3.1708    2.0515    4.0830 H   0  0  0  0  0  0  0  0  0  0  0  0
   -1.6557    1.4559    2.3041 H   0  0  0  0  0  0  0  0  0  0  0  0
   -0.1390    1.8777    0.1438 H   0  0  0  0  0  0  0  0  0  0  0  0
    0.2665    3.8586   -1.3104 H   0  0  0  0  0  0  0  0  0  0  0  0
   -1.2646    4.4379   -3.1440 H   0  0  0  0  0  0  0  0  0  0  0  0
   -3.2395    3.0562   -3.5757 H   0  0  0  0  0  0  0  0  0  0  0  0
   -3.6499    1.0696   -2.1203 H   0  0  0  0  0  0  0  0  0  0  0  0
   -0.7186   -0.2249   -2.2809 H   0  0  0  0  0  0  0  0  0  0  0  0
    0.8437   -0.9842   -2.4963 H   0  0  0  0  0  0  0  0  0  0  0  0
   -0.7284   -1.9774   -2.3272 H   0  0  0  0  0  0  0  0  0  0  0  0
    1.2160   -3.2643   -2.0679 H   0  0  0  0  0  0  0  0  0  0  0  0
    1.4781   -5.6597   -2.1365 H   0  0  0  0  0  0  0  0  0  0  0  0
    1.7537   -6.9486   -0.0962 H   0  0  0  0  0  0  0  0  0  0  0  0
    1.7557   -5.7842    2.0840 H   0  0  0  0  0  0  0  0  0  0  0  0
    1.4758   -3.2985    2.1795 H   0  0  0  0  0  0  0  0  0  0  0  0
  1  2  1  0
  2  3  1  0
  3  4  1  0
  4  5  1  0
  5  6  1  0
  5  7  1  0
  7  8  1  0
  8  9  1  0
  9 10  1  0
 10 11  2  0
 10 12  1  0
 12 13  1  0
 13 14  2  0
 14 15  1  0
 15 16  2  0
 16 17  1  0
 17 18  2  0
 12 19  1  0
 19 20  2  0
 20 21  1  0
 21 22  2  0
 22 23  1  0
 23 24  2  0
  9 25  1  0
  8 26  1  0
 26 27  2  0
 27 28  1  0
 28 29  2  0
 29 30  1  0
 30 31  2  0
  6  2  1  0
 18 13  1  0
 24 19  1  0
 31 26  1  0
  1 32  1  0
  2 33  1  1
  3 34  1  0
  3 35  1  0
  4 36  1  0
  4 37  1  0
  6 38  1  0
  6 39  1  0
  7 40  1  0
  7 41  1  0
  8 42  1  1
 12 43  1  0
 14 44  1  0
 15 45  1  0
 16 46  1  0
 17 47  1  0
 18 48  1  0
 20 49  1  0
 21 50  1  0
 22 51  1  0
 23 52  1  0
 24 53  1  0
 25 54  1  0
 25 55  1  0
 25 56  1  0
 27 57  1  0
 28 58  1  0
 29 59  1  0
 30 60  1  0
 31 61  1  0
M  END
>  <Ligand ID>  (1) 
LIG0004504

>  <Ligand>  (1) 
Asimadoline

>  <SMILES>  (1) 
O[C@H]1CCN(C1)C[C@@H](N(C(=O)C(c1ccccc1)c1ccccc1)C)c1ccccc1

>  <CID>  (1) 
179340.0

>  <ChEMBL ID>  (1) 
nan

>  <InChiKey>  (1) 
JHLHNYVMZCADTC-LOSJGSFVSA-N

>  <InChi>  (1) 
InChI=1S/C27H30N2O2/c1-28(25(21-11-5-2-6-12-21)20-29-18-17-24(30)19-29)27(31)26(22-13-7-3-8-14-22)23-15-9-4-10-16-23/h2-16,24-26,30H,17-20H2,1H3/t24-,25+/m0/s1

>  <IUPAC Name>  (1) 
N-[(1S)-2-[(3S)-3-hydroxypyrrolidin-1-yl]-1-phenylethyl]-N-methyl-2,2-diphenylacetamide

$$$$
