
     RDKit          3D

 34 34  0  0  0  0  0  0  0  0999 V2000
    4.8276    0.2891   -1.2074 C   0  0  0  0  0  0  0  0  0  0  0  0
    3.5355    0.1981   -0.8190 C   0  0  0  0  0  0  0  0  0  0  0  0
    3.1612   -0.3275    0.5136 C   0  0  0  0  0  0  0  0  0  0  0  0
    2.4335    0.6609    1.3761 C   0  0  0  0  0  0  0  0  0  0  0  0
    1.1822    1.1443    0.7530 C   0  0  0  0  0  0  0  0  0  0  0  0
    1.2569    2.2969    0.1947 O   0  0  0  0  0  0  0  0  0  0  0  0
   -0.0672    0.4013    0.7469 C   0  0  0  0  0  0  0  0  0  0  0  0
   -0.1099   -0.7843    1.3245 C   0  0  0  0  0  0  0  0  0  0  0  0
   -1.4180   -1.5270    1.2973 C   0  0  0  0  0  0  0  0  0  0  0  0
   -1.8596   -1.3810   -0.1631 C   0  0  0  0  0  0  0  0  0  0  0  0
   -2.3078    0.0651   -0.3281 C   0  0  0  0  0  0  0  0  0  0  0  0
   -1.2385    1.0197    0.0857 C   0  0  0  0  0  0  0  0  0  0  0  0
   -3.5398    0.2238    0.5688 C   0  0  0  0  0  0  0  0  0  0  0  0
   -2.7103    0.2366   -1.7795 C   0  0  0  0  0  0  0  0  0  0  0  0
    5.5434   -0.0443   -0.4864 H   0  0  0  0  0  0  0  0  0  0  0  0
    5.0402    0.6788   -2.1936 H   0  0  0  0  0  0  0  0  0  0  0  0
    2.7328    0.5075   -1.4794 H   0  0  0  0  0  0  0  0  0  0  0  0
    2.6808   -1.3102    0.4152 H   0  0  0  0  0  0  0  0  0  0  0  0
    4.1290   -0.5358    1.0654 H   0  0  0  0  0  0  0  0  0  0  0  0
    2.1936    0.1590    2.3257 H   0  0  0  0  0  0  0  0  0  0  0  0
    3.1220    1.4986    1.6176 H   0  0  0  0  0  0  0  0  0  0  0  0
    0.7274   -1.2590    1.8147 H   0  0  0  0  0  0  0  0  0  0  0  0
   -2.1366   -0.9941    1.9374 H   0  0  0  0  0  0  0  0  0  0  0  0
   -1.2620   -2.5950    1.5574 H   0  0  0  0  0  0  0  0  0  0  0  0
   -2.6089   -2.1010   -0.4718 H   0  0  0  0  0  0  0  0  0  0  0  0
   -0.9584   -1.4930   -0.8201 H   0  0  0  0  0  0  0  0  0  0  0  0
   -1.6408    1.7984    0.7624 H   0  0  0  0  0  0  0  0  0  0  0  0
   -0.8268    1.6035   -0.7893 H   0  0  0  0  0  0  0  0  0  0  0  0
   -3.2290    0.6755    1.5356 H   0  0  0  0  0  0  0  0  0  0  0  0
   -4.2838    0.9292    0.1317 H   0  0  0  0  0  0  0  0  0  0  0  0
   -3.9959   -0.7749    0.8169 H   0  0  0  0  0  0  0  0  0  0  0  0
   -3.4808    1.0066   -1.9413 H   0  0  0  0  0  0  0  0  0  0  0  0
   -1.7975    0.4636   -2.3638 H   0  0  0  0  0  0  0  0  0  0  0  0
   -3.0947   -0.7297   -2.1362 H   0  0  0  0  0  0  0  0  0  0  0  0
  1  2  2  0
  2  3  1  0
  3  4  1  0
  4  5  1  0
  5  6  2  0
  5  7  1  0
  7  8  2  0
  8  9  1  0
  9 10  1  0
 10 11  1  0
 11 12  1  0
 11 13  1  0
 11 14  1  0
 12  7  1  0
  1 15  1  0
  1 16  1  0
  2 17  1  0
  3 18  1  0
  3 19  1  0
  4 20  1  0
  4 21  1  0
  8 22  1  0
  9 23  1  0
  9 24  1  0
 10 25  1  0
 10 26  1  0
 12 27  1  0
 12 28  1  0
 13 29  1  0
 13 30  1  0
 13 31  1  0
 14 32  1  0
 14 33  1  0
 14 34  1  0
M  END
>  <Ligand ID>  (1) 
LIG0000364

>  <Ligand>  (1) 
1-(5,5-dimethylcyclohexen-1-yl)pent-4-en-1-one

>  <SMILES>  (1) 
C=CCCC(=O)C1=CCCC(C1)(C)C

>  <CID>  (1) 
92606.0

>  <ChEMBL ID>  (1) 
nan

>  <InChiKey>  (1) 
OEVIJAZJVZDBQL-UHFFFAOYSA-N

>  <InChi>  (1) 
InChI=1S/C13H20O/c1-4-5-8-12(14)11-7-6-9-13(2,3)10-11/h4,7H,1,5-6,8-10H2,2-3H3

>  <IUPAC Name>  (1) 
1-(5,5-dimethylcyclohexen-1-yl)pent-4-en-1-one

$$$$
