
     RDKit          3D

 26 25  0  0  0  0  0  0  0  0999 V2000
   -2.5358   -0.3408   -0.7611 C   0  0  0  0  0  0  0  0  0  0  0  0
   -3.0249    0.7134    0.2002 C   0  0  0  0  0  0  0  0  0  0  0  0
   -1.9058    1.5003    0.8256 C   0  0  0  0  0  0  0  0  0  0  0  0
   -0.9342    0.7047    1.6196 C   0  0  0  0  0  0  0  0  0  0  0  0
   -0.2223   -0.2816    0.9413 O   0  0  0  0  0  0  0  0  0  0  0  0
    0.6402   -0.0248   -0.1285 C   0  0  0  0  0  0  0  0  0  0  0  0
    0.7531    1.1805   -0.4688 O   0  0  0  0  0  0  0  0  0  0  0  0
    1.3392   -1.1478   -0.7678 C   0  0  0  0  0  0  0  0  0  0  0  0
    2.7381   -1.3705   -0.2858 C   0  0  0  0  0  0  0  0  0  0  0  0
    3.6387   -0.1868   -0.5116 C   0  0  0  0  0  0  0  0  0  0  0  0
   -3.4158   -0.7073   -1.3609 H   0  0  0  0  0  0  0  0  0  0  0  0
   -2.0045   -1.1584   -0.2753 H   0  0  0  0  0  0  0  0  0  0  0  0
   -1.8745    0.1337   -1.5131 H   0  0  0  0  0  0  0  0  0  0  0  0
   -3.6106    0.2323    1.0279 H   0  0  0  0  0  0  0  0  0  0  0  0
   -3.6950    1.4244   -0.3592 H   0  0  0  0  0  0  0  0  0  0  0  0
   -1.4432    2.0888    0.0072 H   0  0  0  0  0  0  0  0  0  0  0  0
   -2.3472    2.2628    1.5180 H   0  0  0  0  0  0  0  0  0  0  0  0
   -1.5251    0.1664    2.4214 H   0  0  0  0  0  0  0  0  0  0  0  0
   -0.2587    1.3721    2.2276 H   0  0  0  0  0  0  0  0  0  0  0  0
    1.4169   -0.9334   -1.8544 H   0  0  0  0  0  0  0  0  0  0  0  0
    0.7866   -2.1038   -0.6940 H   0  0  0  0  0  0  0  0  0  0  0  0
    2.6695   -1.5025    0.8334 H   0  0  0  0  0  0  0  0  0  0  0  0
    3.1601   -2.3138   -0.6689 H   0  0  0  0  0  0  0  0  0  0  0  0
    3.0344    0.7258   -0.4162 H   0  0  0  0  0  0  0  0  0  0  0  0
    4.2077   -0.2477   -1.4638 H   0  0  0  0  0  0  0  0  0  0  0  0
    4.4132   -0.1862    0.2844 H   0  0  0  0  0  0  0  0  0  0  0  0
  1  2  1  0
  2  3  1  0
  3  4  1  0
  4  5  1  0
  5  6  1  0
  6  7  2  0
  6  8  1  0
  8  9  1  0
  9 10  1  0
  1 11  1  0
  1 12  1  0
  1 13  1  0
  2 14  1  0
  2 15  1  0
  3 16  1  0
  3 17  1  0
  4 18  1  0
  4 19  1  0
  8 20  1  0
  8 21  1  0
  9 22  1  0
  9 23  1  0
 10 24  1  0
 10 25  1  0
 10 26  1  0
M  END
>  <Ligand ID>  (1) 
LIG0000271

>  <Ligand>  (1) 
butyl butanoate

>  <SMILES>  (1) 
CCCCOC(=O)CCC

>  <CID>  (1) 
7983.0

>  <ChEMBL ID>  (1) 
nan

>  <InChiKey>  (1) 
XUPYJHCZDLZNFP-UHFFFAOYSA-N

>  <InChi>  (1) 
InChI=1S/C8H16O2/c1-3-5-7-10-8(9)6-4-2/h3-7H2,1-2H3

>  <IUPAC Name>  (1) 
butyl butanoate

$$$$
