
     RDKit          3D

 37 39  0  0  0  0  0  0  0  0999 V2000
   -3.3866   -0.1956    1.3679 C   0  0  0  0  0  0  0  0  0  0  0  0
   -2.6436    0.8205    0.5771 C   0  0  0  0  0  0  0  0  0  0  0  0
   -2.7941    2.1685    0.8352 C   0  0  0  0  0  0  0  0  0  0  0  0
   -2.1036    3.1218    0.1009 C   0  0  0  0  0  0  0  0  0  0  0  0
   -1.2492    2.6841   -0.9099 C   0  0  0  0  0  0  0  0  0  0  0  0
   -1.1164    1.3587   -1.1464 N   0  0  0  0  0  0  0  0  0  0  0  0
   -1.7862    0.4356   -0.4338 C   0  0  0  0  0  0  0  0  0  0  0  0
   -1.5719   -0.9810   -0.7695 C   0  0  0  0  0  0  0  0  0  0  0  0
   -2.6359   -1.8309   -1.0513 C   0  0  0  0  0  0  0  0  0  0  0  0
   -2.4003   -3.1492   -1.3623 C   0  0  0  0  0  0  0  0  0  0  0  0
   -1.1153   -3.6564   -1.4022 C   0  0  0  0  0  0  0  0  0  0  0  0
   -0.0630   -2.8114   -1.1224 C   0  0  0  0  0  0  0  0  0  0  0  0
   -0.2588   -1.4643   -0.8016 C   0  0  0  0  0  0  0  0  0  0  0  0
    0.8052   -0.6182   -0.5206 O   0  0  0  0  0  0  0  0  0  0  0  0
    2.1118   -1.1588   -0.5674 C   0  0  0  0  0  0  0  0  0  0  0  0
    3.0788   -0.0654   -0.2309 C   0  0  0  0  0  0  0  0  0  0  0  0
    3.8833   -0.0950    0.7652 N   0  0  0  0  0  0  0  0  0  0  0  0
    4.6510    1.1129    0.7723 C   0  0  0  0  0  0  0  0  0  0  0  0
    3.9049    2.0601   -0.1155 C   0  0  0  0  0  0  0  0  0  0  0  0
    3.2028    1.1267   -0.9885 N   0  0  0  0  0  0  0  0  0  0  0  0
   -2.9224   -1.1818    1.3459 H   0  0  0  0  0  0  0  0  0  0  0  0
   -3.5112    0.2056    2.3951 H   0  0  0  0  0  0  0  0  0  0  0  0
   -4.4317   -0.3069    0.9647 H   0  0  0  0  0  0  0  0  0  0  0  0
   -3.4576    2.5063    1.6194 H   0  0  0  0  0  0  0  0  0  0  0  0
   -2.1974    4.1850    0.2762 H   0  0  0  0  0  0  0  0  0  0  0  0
   -0.6845    3.3798   -1.5159 H   0  0  0  0  0  0  0  0  0  0  0  0
   -3.6414   -1.4684   -1.0285 H   0  0  0  0  0  0  0  0  0  0  0  0
   -3.2331   -3.8044   -1.5803 H   0  0  0  0  0  0  0  0  0  0  0  0
   -0.9294   -4.7074   -1.6503 H   0  0  0  0  0  0  0  0  0  0  0  0
    0.9812   -3.1437   -1.1354 H   0  0  0  0  0  0  0  0  0  0  0  0
    2.3413   -1.5125   -1.5970 H   0  0  0  0  0  0  0  0  0  0  0  0
    2.2333   -2.0072    0.1374 H   0  0  0  0  0  0  0  0  0  0  0  0
    4.7521    1.4886    1.8125 H   0  0  0  0  0  0  0  0  0  0  0  0
    5.6419    0.8675    0.3393 H   0  0  0  0  0  0  0  0  0  0  0  0
    3.1243    2.6234    0.4351 H   0  0  0  0  0  0  0  0  0  0  0  0
    4.5611    2.7105   -0.7324 H   0  0  0  0  0  0  0  0  0  0  0  0
    2.8605    1.3032   -1.9753 H   0  0  0  0  0  0  0  0  0  0  0  0
  1  2  1  0
  2  3  2  0
  3  4  1  0
  4  5  2  0
  5  6  1  0
  6  7  2  0
  7  8  1  0
  8  9  2  0
  9 10  1  0
 10 11  2  0
 11 12  1  0
 12 13  2  0
 13 14  1  0
 14 15  1  0
 15 16  1  0
 16 17  2  0
 17 18  1  0
 18 19  1  0
 19 20  1  0
  7  2  1  0
 13  8  1  0
 20 16  1  0
  1 21  1  0
  1 22  1  0
  1 23  1  0
  3 24  1  0
  4 25  1  0
  5 26  1  0
  9 27  1  0
 10 28  1  0
 11 29  1  0
 12 30  1  0
 15 31  1  0
 15 32  1  0
 18 33  1  0
 18 34  1  0
 19 35  1  0
 19 36  1  0
 20 37  1  0
M  END
>  <Ligand ID>  (1) 
LIG0003674

>  <Ligand>  (1) 
CHEMBL141986

>  <SMILES>  (1) 
Cc1cccnc1c1ccccc1OCC1=NCCN1

>  <CID>  (1) 
44362523.0

>  <ChEMBL ID>  (1) 
nan

>  <InChiKey>  (1) 
ZWIHQOQCOUAKNQ-UHFFFAOYSA-N

>  <InChi>  (1) 
InChI=1S/C16H17N3O/c1-12-5-4-8-19-16(12)13-6-2-3-7-14(13)20-11-15-17-9-10-18-15/h2-8H,9-11H2,1H3,(H,17,18)

>  <IUPAC Name>  (1) 
2-[2-(4,5-dihydro-1H-imidazol-2-ylmethoxy)phenyl]-3-methylpyridine

$$$$
