
     RDKit          3D

 62 64  0  0  0  0  0  0  0  0999 V2000
   -1.5968   -3.0939   -0.6028 C   0  0  0  0  0  0  0  0  0  0  0  0
   -2.3845   -2.2121    0.3534 C   0  0  2  0  0  0  0  0  0  0  0  0
   -3.7997   -2.0838   -0.0747 C   0  0  0  0  0  0  0  0  0  0  0  0
   -4.3512   -0.7622    0.0054 N   0  0  0  0  0  0  0  0  0  0  0  0
   -3.4642    0.3980   -0.0205 C   0  0  0  0  0  0  0  0  0  0  0  0
   -2.5244    0.1257    1.1647 C   0  0  0  0  0  0  0  0  0  0  0  0
   -1.7025   -0.9856    0.6602 N   0  0  0  0  0  0  0  0  0  0  0  0
   -0.2991   -0.8226    0.4946 C   0  0  0  0  0  0  0  0  0  0  0  0
    0.5132   -1.7887    0.0408 N   0  0  0  0  0  0  0  0  0  0  0  0
    1.8545   -1.5772   -0.0987 C   0  0  0  0  0  0  0  0  0  0  0  0
    2.3961   -0.3539    0.2289 C   0  0  0  0  0  0  0  0  0  0  0  0
    1.5589    0.6429    0.6970 C   0  0  0  0  0  0  0  0  0  0  0  0
    0.2641    0.3558    0.8037 N   0  0  0  0  0  0  0  0  0  0  0  0
    3.7398   -0.0494    0.1204 O   0  0  0  0  0  0  0  0  0  0  0  0
    4.6170   -1.0446   -0.3534 C   0  0  0  0  0  0  0  0  0  0  0  0
    5.9801   -0.4221   -0.3577 C   0  0  0  0  0  0  0  0  0  0  0  0
    6.4780    0.2521   -1.4516 C   0  0  0  0  0  0  0  0  0  0  0  0
    7.7399    0.8252   -1.4477 C   0  0  0  0  0  0  0  0  0  0  0  0
    8.4786    0.6900   -0.2947 C   0  0  0  0  0  0  0  0  0  0  0  0
    7.9780    0.0147    0.7988 C   0  0  0  0  0  0  0  0  0  0  0  0
    6.7160   -0.5634    0.8071 C   0  0  0  0  0  0  0  0  0  0  0  0
   10.0813    1.3862   -0.2126 S   0  0  0  0  0  0  0  0  0  0  0  0
   10.9066    0.6077    0.7746 O   0  0  0  0  0  0  0  0  0  0  0  0
   10.6948    1.3781   -1.5883 O   0  0  0  0  0  0  0  0  0  0  0  0
    9.9556    3.0492    0.4011 C   0  0  0  0  0  0  0  0  0  0  0  0
   -5.7592   -0.5590    0.1106 C   0  0  0  0  0  0  0  0  0  0  0  0
   -6.5287   -1.5496    0.1336 O   0  0  0  0  0  0  0  0  0  0  0  0
   -6.2817    0.7059    0.1868 O   0  0  0  0  0  0  0  0  0  0  0  0
   -7.6208    1.0727    0.2923 C   0  0  0  0  0  0  0  0  0  0  0  0
   -8.3060    0.5251    1.5311 C   0  0  0  0  0  0  0  0  0  0  0  0
   -7.6726    2.5820    0.3806 C   0  0  0  0  0  0  0  0  0  0  0  0
   -8.4506    0.6627   -0.9039 C   0  0  0  0  0  0  0  0  0  0  0  0
   -0.8578   -3.7308   -0.0751 H   0  0  0  0  0  0  0  0  0  0  0  0
   -1.1707   -2.5612   -1.4531 H   0  0  0  0  0  0  0  0  0  0  0  0
   -2.3507   -3.8220   -1.0054 H   0  0  0  0  0  0  0  0  0  0  0  0
   -2.3797   -2.7964    1.3197 H   0  0  0  0  0  0  0  0  0  0  0  0
   -4.4484   -2.8523    0.4241 H   0  0  0  0  0  0  0  0  0  0  0  0
   -3.8441   -2.3778   -1.1616 H   0  0  0  0  0  0  0  0  0  0  0  0
   -4.0040    1.3357    0.1098 H   0  0  0  0  0  0  0  0  0  0  0  0
   -2.8775    0.4530   -0.9571 H   0  0  0  0  0  0  0  0  0  0  0  0
   -3.1198   -0.3142    2.0049 H   0  0  0  0  0  0  0  0  0  0  0  0
   -1.9286    0.9904    1.4476 H   0  0  0  0  0  0  0  0  0  0  0  0
    2.5201   -2.3473   -0.4633 H   0  0  0  0  0  0  0  0  0  0  0  0
    1.9240    1.6273    0.9718 H   0  0  0  0  0  0  0  0  0  0  0  0
    4.3398   -1.4021   -1.3603 H   0  0  0  0  0  0  0  0  0  0  0  0
    4.5683   -1.8920    0.3501 H   0  0  0  0  0  0  0  0  0  0  0  0
    5.8431    0.3232   -2.3324 H   0  0  0  0  0  0  0  0  0  0  0  0
    8.0901    1.3390   -2.3141 H   0  0  0  0  0  0  0  0  0  0  0  0
    8.5531   -0.1016    1.7234 H   0  0  0  0  0  0  0  0  0  0  0  0
    6.3341   -1.0833    1.6530 H   0  0  0  0  0  0  0  0  0  0  0  0
    9.5193    3.6988   -0.3805 H   0  0  0  0  0  0  0  0  0  0  0  0
    9.3413    3.0201    1.3288 H   0  0  0  0  0  0  0  0  0  0  0  0
   10.9666    3.4265    0.6226 H   0  0  0  0  0  0  0  0  0  0  0  0
   -8.8628   -0.3930    1.3360 H   0  0  0  0  0  0  0  0  0  0  0  0
   -8.8783    1.3092    2.0510 H   0  0  0  0  0  0  0  0  0  0  0  0
   -7.4610    0.2479    2.2238 H   0  0  0  0  0  0  0  0  0  0  0  0
   -8.5776    2.8915    0.9432 H   0  0  0  0  0  0  0  0  0  0  0  0
   -7.6436    3.0453   -0.6340 H   0  0  0  0  0  0  0  0  0  0  0  0
   -6.7618    2.9139    0.9178 H   0  0  0  0  0  0  0  0  0  0  0  0
   -9.5155    0.8403   -0.5930 H   0  0  0  0  0  0  0  0  0  0  0  0
   -8.1849    1.2392   -1.8036 H   0  0  0  0  0  0  0  0  0  0  0  0
   -8.3438   -0.4336   -1.0627 H   0  0  0  0  0  0  0  0  0  0  0  0
  1  2  1  0
  2  3  1  0
  3  4  1  0
  4  5  1  0
  5  6  1  0
  6  7  1  0
  7  8  1  0
  8  9  2  0
  9 10  1  0
 10 11  2  0
 11 12  1  0
 12 13  2  0
 11 14  1  0
 14 15  1  0
 15 16  1  0
 16 17  2  0
 17 18  1  0
 18 19  2  0
 19 20  1  0
 20 21  2  0
 19 22  1  0
 22 23  2  0
 22 24  2  0
 22 25  1  0
  4 26  1  0
 26 27  2  0
 26 28  1  0
 28 29  1  0
 29 30  1  0
 29 31  1  0
 29 32  1  0
  7  2  1  0
 13  8  1  0
 21 16  1  0
  1 33  1  0
  1 34  1  0
  1 35  1  0
  2 36  1  1
  3 37  1  0
  3 38  1  0
  5 39  1  0
  5 40  1  0
  6 41  1  0
  6 42  1  0
 10 43  1  0
 12 44  1  0
 15 45  1  0
 15 46  1  0
 17 47  1  0
 18 48  1  0
 20 49  1  0
 21 50  1  0
 25 51  1  0
 25 52  1  0
 25 53  1  0
 30 54  1  0
 30 55  1  0
 30 56  1  0
 31 57  1  0
 31 58  1  0
 31 59  1  0
 32 60  1  0
 32 61  1  0
 32 62  1  0
M  END
>  <Ligand ID>  (1) 
LIG0005322

>  <Ligand>  (1) 
CHEMBL2086660

>  <SMILES>  (1) 
C[C@@H]1CN(CCN1c1ncc(cn1)OCc1ccc(cc1)S(=O)(=O)C)C(=O)OC(C)(C)C

>  <CID>  (1) 
51029876.0

>  <ChEMBL ID>  (1) 
nan

>  <InChiKey>  (1) 
LMLPLWPZYOTASZ-MRXNPFEDSA-N

>  <InChi>  (1) 
InChI=1S/C22H30N4O5S/c1-16-14-25(21(27)31-22(2,3)4)10-11-26(16)20-23-12-18(13-24-20)30-15-17-6-8-19(9-7-17)32(5,28)29/h6-9,12-13,16H,10-11,14-15H2,1-5H3/t16-/m1/s1

>  <IUPAC Name>  (1) 
tert-butyl (3R)-3-methyl-4-[5-[(4-methylsulfonylphenyl)methoxy]pyrimidin-2-yl]piperazine-1-carboxylate

$$$$
