
     RDKit          3D

 73 78  0  0  0  0  0  0  0  0999 V2000
   -6.0349   -2.6595    0.8457 C   0  0  0  0  0  0  0  0  0  0  0  0
   -5.0452   -2.0030   -0.0714 C   0  0  1  0  0  0  0  0  0  0  0  0
   -5.5601   -0.7271   -0.6945 C   0  0  0  0  0  0  0  0  0  0  0  0
   -4.7737   -0.5776   -1.9952 C   0  0  0  0  0  0  0  0  0  0  0  0
   -3.3082   -0.5808   -1.6486 C   0  0  0  0  0  0  0  0  0  0  0  0
   -2.8470   -1.0955   -0.4589 C   0  0  0  0  0  0  0  0  0  0  0  0
   -3.7134   -1.6951    0.5840 C   0  0  2  0  0  0  0  0  0  0  0  0
   -3.1504   -3.0071    1.1048 C   0  0  0  0  0  0  0  0  0  0  0  0
   -3.9185   -0.7513    1.7468 C   0  0  0  0  0  0  0  0  0  0  0  0
   -5.0880    0.1712    1.5272 C   0  0  0  0  0  0  0  0  0  0  0  0
   -5.4974    0.3499    0.1837 N   0  0  0  0  0  0  0  0  0  0  0  0
   -5.6434    1.6684   -0.2675 C   0  0  0  0  0  0  0  0  0  0  0  0
   -6.8391    2.3010    0.4615 C   0  0  0  0  0  0  0  0  0  0  0  0
   -8.1743    1.7021    0.3155 C   0  0  0  0  0  0  0  0  0  0  0  0
   -7.8914    2.9922   -0.3805 C   0  0  0  0  0  0  0  0  0  0  0  0
   -1.4700   -1.0533   -0.2144 C   0  0  0  0  0  0  0  0  0  0  0  0
   -0.5866   -0.5156   -1.1266 C   0  0  0  0  0  0  0  0  0  0  0  0
   -1.0991   -0.0129   -2.3042 C   0  0  0  0  0  0  0  0  0  0  0  0
   -2.4614   -0.0343   -2.5891 C   0  0  0  0  0  0  0  0  0  0  0  0
    0.8354   -0.4875   -0.8204 C   0  0  0  0  0  0  0  0  0  0  0  0
    1.1865   -0.9483    0.3026 O   0  0  0  0  0  0  0  0  0  0  0  0
    1.8279    0.0205   -1.6976 N   0  0  0  0  0  0  0  0  0  0  0  0
    3.2268    0.0614   -1.4174 C   0  0  0  0  0  0  0  0  0  0  0  0
    3.5980    0.8777   -0.1998 C   0  0  0  0  0  0  0  0  0  0  0  0
    5.0960    0.8253   -0.0562 C   0  0  0  0  0  0  0  0  0  0  0  0
    5.7715    1.4637    0.9396 C   0  0  0  0  0  0  0  0  0  0  0  0
    7.1643    1.3795    1.0112 C   0  0  0  0  0  0  0  0  0  0  0  0
    7.8452    0.6339    0.0497 C   0  0  0  0  0  0  0  0  0  0  0  0
    7.1276   -0.0034   -0.9497 C   0  0  0  0  0  0  0  0  0  0  0  0
    5.7798    0.1138   -0.9686 N   0  0  0  0  0  0  0  0  0  0  0  0
    9.2973    0.5010    0.0530 C   0  0  0  0  0  0  0  0  0  0  0  0
    9.9212    0.3544   -1.1686 C   0  0  0  0  0  0  0  0  0  0  0  0
   11.3062    0.2185   -1.2775 C   0  0  0  0  0  0  0  0  0  0  0  0
   12.0555    0.2352   -0.1023 C   0  0  0  0  0  0  0  0  0  0  0  0
   11.4274    0.3833    1.1296 C   0  0  0  0  0  0  0  0  0  0  0  0
   10.0576    0.5148    1.2023 C   0  0  0  0  0  0  0  0  0  0  0  0
   -7.0717   -2.3623    0.5191 H   0  0  0  0  0  0  0  0  0  0  0  0
   -6.0006   -3.7686    0.7176 H   0  0  0  0  0  0  0  0  0  0  0  0
   -5.8679   -2.4742    1.9217 H   0  0  0  0  0  0  0  0  0  0  0  0
   -4.8378   -2.7166   -0.8962 H   0  0  0  0  0  0  0  0  0  0  0  0
   -6.6072   -0.9111   -1.0095 H   0  0  0  0  0  0  0  0  0  0  0  0
   -5.0101   -1.3816   -2.7055 H   0  0  0  0  0  0  0  0  0  0  0  0
   -4.9640    0.3673   -2.5209 H   0  0  0  0  0  0  0  0  0  0  0  0
   -2.4049   -3.4325    0.3929 H   0  0  0  0  0  0  0  0  0  0  0  0
   -2.7542   -2.9255    2.1384 H   0  0  0  0  0  0  0  0  0  0  0  0
   -3.9701   -3.7804    1.1701 H   0  0  0  0  0  0  0  0  0  0  0  0
   -4.1401   -1.3521    2.6598 H   0  0  0  0  0  0  0  0  0  0  0  0
   -2.9775   -0.2182    1.9204 H   0  0  0  0  0  0  0  0  0  0  0  0
   -5.9700   -0.0888    2.1460 H   0  0  0  0  0  0  0  0  0  0  0  0
   -4.7513    1.1797    1.8995 H   0  0  0  0  0  0  0  0  0  0  0  0
   -4.7945    2.3585   -0.0870 H   0  0  0  0  0  0  0  0  0  0  0  0
   -5.8525    1.7358   -1.3498 H   0  0  0  0  0  0  0  0  0  0  0  0
   -6.5826    2.8286    1.4089 H   0  0  0  0  0  0  0  0  0  0  0  0
   -8.3180    0.8437   -0.3821 H   0  0  0  0  0  0  0  0  0  0  0  0
   -8.8666    1.7978    1.1867 H   0  0  0  0  0  0  0  0  0  0  0  0
   -8.2990    3.9514   -0.0128 H   0  0  0  0  0  0  0  0  0  0  0  0
   -7.6612    3.0180   -1.4598 H   0  0  0  0  0  0  0  0  0  0  0  0
   -1.1047   -1.4546    0.7154 H   0  0  0  0  0  0  0  0  0  0  0  0
   -0.4740    0.4239   -3.0685 H   0  0  0  0  0  0  0  0  0  0  0  0
   -2.8500    0.3644   -3.5181 H   0  0  0  0  0  0  0  0  0  0  0  0
    1.4815    0.3883   -2.6190 H   0  0  0  0  0  0  0  0  0  0  0  0
    3.7587    0.5097   -2.2781 H   0  0  0  0  0  0  0  0  0  0  0  0
    3.6847   -0.9409   -1.2865 H   0  0  0  0  0  0  0  0  0  0  0  0
    3.3554    1.9585   -0.3457 H   0  0  0  0  0  0  0  0  0  0  0  0
    3.1116    0.5538    0.7293 H   0  0  0  0  0  0  0  0  0  0  0  0
    5.1922    2.0302    1.6631 H   0  0  0  0  0  0  0  0  0  0  0  0
    7.7047    1.8760    1.7881 H   0  0  0  0  0  0  0  0  0  0  0  0
    7.6128   -0.5978   -1.7238 H   0  0  0  0  0  0  0  0  0  0  0  0
    9.3784    0.3362   -2.1101 H   0  0  0  0  0  0  0  0  0  0  0  0
   11.7596    0.1051   -2.2544 H   0  0  0  0  0  0  0  0  0  0  0  0
   13.1138    0.1336   -0.1566 H   0  0  0  0  0  0  0  0  0  0  0  0
   12.0150    0.3976    2.0532 H   0  0  0  0  0  0  0  0  0  0  0  0
    9.5404    0.6318    2.1436 H   0  0  0  0  0  0  0  0  0  0  0  0
  1  2  1  0
  2  3  1  0
  3  4  1  0
  4  5  1  0
  5  6  2  0
  6  7  1  0
  7  8  1  1
  7  9  1  0
  9 10  1  0
 10 11  1  0
 11 12  1  0
 12 13  1  0
 13 14  1  0
 14 15  1  0
  6 16  1  0
 16 17  2  0
 17 18  1  0
 18 19  2  0
 17 20  1  0
 20 21  2  0
 20 22  1  0
 22 23  1  0
 23 24  1  0
 24 25  1  0
 25 26  2  0
 26 27  1  0
 27 28  2  0
 28 29  1  0
 29 30  2  0
 28 31  1  0
 31 32  2  0
 32 33  1  0
 33 34  2  0
 34 35  1  0
 35 36  2  0
  7  2  1  0
 15 13  1  0
 30 25  1  0
 36 31  1  0
 11  3  1  0
 19  5  1  0
  1 37  1  0
  1 38  1  0
  1 39  1  0
  2 40  1  6
  3 41  1  0
  4 42  1  0
  4 43  1  0
  8 44  1  0
  8 45  1  0
  8 46  1  0
  9 47  1  0
  9 48  1  0
 10 49  1  0
 10 50  1  0
 12 51  1  0
 12 52  1  0
 13 53  1  0
 14 54  1  0
 14 55  1  0
 15 56  1  0
 15 57  1  0
 16 58  1  0
 18 59  1  0
 19 60  1  0
 22 61  1  0
 23 62  1  0
 23 63  1  0
 24 64  1  0
 24 65  1  0
 26 66  1  0
 27 67  1  0
 29 68  1  0
 32 69  1  0
 33 70  1  0
 34 71  1  0
 35 72  1  0
 36 73  1  0
M  END
>  <Ligand ID>  (1) 
LIG0005528

>  <Ligand>  (1) 
CHEMBL2347239

>  <SMILES>  (1) 
C[C@H]1C2Cc3c([C@@]1(C)CCN2CC1CC1)cc(cc3)C(=O)NCCc1ccc(cn1)c1ccccc1

>  <CID>  (1) 
57900045.0

>  <ChEMBL ID>  (1) 
nan

>  <InChiKey>  (1) 
MJYXXZICLYPENA-WTBOZYSNSA-N

>  <InChi>  (1) 
InChI=1S/C32H37N3O/c1-22-30-19-25-10-11-26(18-29(25)32(22,2)15-17-35(30)21-23-8-9-23)31(36)33-16-14-28-13-12-27(20-34-28)24-6-4-3-5-7-24/h3-7,10-13,18,20,22-23,30H,8-9,14-17,19,21H2,1-2H3,(H,33,36)/t22-,30?,32-/m0/s1

>  <IUPAC Name>  (1) 
(1S,13R)-10-(cyclopropylmethyl)-1,13-dimethyl-N-[2-(5-phenylpyridin-2-yl)ethyl]-10-azatricyclo[7.3.1.02,7]trideca-2(7),3,5-triene-4-carboxamide

$$$$
