
     RDKit          3D

 41 44  0  0  0  0  0  0  0  0999 V2000
    2.6150   -1.0964   -0.8680 F   0  0  0  0  0  0  0  0  0  0  0  0
    3.7076   -0.4233   -0.5060 C   0  0  0  0  0  0  0  0  0  0  0  0
    4.8493   -1.1070   -0.0744 C   0  0  0  0  0  0  0  0  0  0  0  0
    5.9862   -0.4051    0.2925 C   0  0  0  0  0  0  0  0  0  0  0  0
    6.0182    0.9753    0.2406 C   0  0  0  0  0  0  0  0  0  0  0  0
    4.8856    1.6331   -0.1868 C   0  0  0  0  0  0  0  0  0  0  0  0
    3.7279    0.9444   -0.5613 C   0  0  0  0  0  0  0  0  0  0  0  0
    2.5835    1.7714   -0.9859 C   0  0  0  0  0  0  0  0  0  0  0  0
    1.3686    1.9273    0.3421 S   0  0  0  0  0  0  0  0  0  0  0  0
    0.5837    0.3825    0.7424 C   0  0  0  0  0  0  0  0  0  0  0  0
    0.9373   -0.5595    1.6388 N   0  0  0  0  0  0  0  0  0  0  0  0
    0.0299   -1.5315    1.5738 N   0  0  0  0  0  0  0  0  0  0  0  0
   -0.9011   -1.2307    0.6509 C   0  0  0  0  0  0  0  0  0  0  0  0
   -0.5437   -0.0482    0.1489 N   0  0  0  0  0  0  0  0  0  0  0  0
   -1.3100    0.6289   -0.8910 C   0  0  0  0  0  0  0  0  0  0  0  0
   -2.3363    1.5239   -0.2811 C   0  0  0  0  0  0  0  0  0  0  0  0
   -2.0877    2.8704   -0.0095 C   0  0  0  0  0  0  0  0  0  0  0  0
   -3.2467    3.3959    0.5492 C   0  0  0  0  0  0  0  0  0  0  0  0
   -4.1371    2.3358    0.5858 C   0  0  0  0  0  0  0  0  0  0  0  0
   -3.5529    1.2839    0.0928 O   0  0  0  0  0  0  0  0  0  0  0  0
   -2.0351   -2.0942    0.3401 C   0  0  0  0  0  0  0  0  0  0  0  0
   -3.2557   -1.8715    0.9555 C   0  0  0  0  0  0  0  0  0  0  0  0
   -4.3548   -2.6913    0.6695 C   0  0  0  0  0  0  0  0  0  0  0  0
   -4.2320   -3.7353   -0.2335 C   0  0  0  0  0  0  0  0  0  0  0  0
   -3.0003   -3.9233   -0.8241 C   0  0  0  0  0  0  0  0  0  0  0  0
   -1.9525   -3.1227   -0.5358 N   0  0  0  0  0  0  0  0  0  0  0  0
    4.9149    3.0038   -0.2388 F   0  0  0  0  0  0  0  0  0  0  0  0
    4.8835   -2.1805   -0.0130 H   0  0  0  0  0  0  0  0  0  0  0  0
    6.8875   -0.9258    0.6323 H   0  0  0  0  0  0  0  0  0  0  0  0
    6.8894    1.5270    0.5206 H   0  0  0  0  0  0  0  0  0  0  0  0
    2.8908    2.7689   -1.3514 H   0  0  0  0  0  0  0  0  0  0  0  0
    2.0723    1.2552   -1.8427 H   0  0  0  0  0  0  0  0  0  0  0  0
   -0.5922    1.2304   -1.4856 H   0  0  0  0  0  0  0  0  0  0  0  0
   -1.7913   -0.0819   -1.5972 H   0  0  0  0  0  0  0  0  0  0  0  0
   -1.1953    3.4381   -0.1796 H   0  0  0  0  0  0  0  0  0  0  0  0
   -3.4019    4.4251    0.8808 H   0  0  0  0  0  0  0  0  0  0  0  0
   -5.1567    2.4314    0.9791 H   0  0  0  0  0  0  0  0  0  0  0  0
   -3.4118   -1.0796    1.6635 H   0  0  0  0  0  0  0  0  0  0  0  0
   -5.3149   -2.5189    1.1516 H   0  0  0  0  0  0  0  0  0  0  0  0
   -5.0881   -4.3737   -0.4558 H   0  0  0  0  0  0  0  0  0  0  0  0
   -2.9330   -4.7522   -1.5293 H   0  0  0  0  0  0  0  0  0  0  0  0
  1  2  1  0
  2  3  2  0
  3  4  1  0
  4  5  2  0
  5  6  1  0
  6  7  2  0
  7  8  1  0
  8  9  1  0
  9 10  1  0
 10 11  2  0
 11 12  1  0
 12 13  2  0
 13 14  1  0
 14 15  1  0
 15 16  1  0
 16 17  2  0
 17 18  1  0
 18 19  2  0
 19 20  1  0
 13 21  1  0
 21 22  2  0
 22 23  1  0
 23 24  2  0
 24 25  1  0
 25 26  2  0
  6 27  1  0
  7  2  1  0
 14 10  1  0
 20 16  1  0
 26 21  1  0
  3 28  1  0
  4 29  1  0
  5 30  1  0
  8 31  1  0
  8 32  1  0
 15 33  1  0
 15 34  1  0
 17 35  1  0
 18 36  1  0
 19 37  1  0
 22 38  1  0
 23 39  1  0
 24 40  1  0
 25 41  1  0
M  END
>  <Ligand ID>  (1) 
LIG0002763

>  <Ligand>  (1) 
KUC104186N

>  <SMILES>  (1) 
Fc1cccc(c1CSc1nnc(n1Cc1ccco1)c1ccccn1)F

>  <CID>  (1) 
16447354.0

>  <ChEMBL ID>  (1) 
nan

>  <InChiKey>  (1) 
SJUUVFGRNUXTHK-UHFFFAOYSA-N

>  <InChi>  (1) 
InChI=1S/C19H14F2N4OS/c20-15-6-3-7-16(21)14(15)12-27-19-24-23-18(17-8-1-2-9-22-17)25(19)11-13-5-4-10-26-13/h1-10H,11-12H2

>  <IUPAC Name>  (1) 
2-[5-[(2,6-difluorophenyl)methylsulfanyl]-4-(furan-2-ylmethyl)-1,2,4-triazol-3-yl]pyridine

$$$$
