
     RDKit          3D

 52 54  0  0  0  0  0  0  0  0999 V2000
   -9.9076    0.3417    2.0856 O   0  0  0  0  0  0  0  0  0  0  0  0
   -9.1054    0.5184    0.9676 C   0  0  0  0  0  0  0  0  0  0  0  0
   -9.5861    1.0775   -0.0516 O   0  0  0  0  0  0  0  0  0  0  0  0
   -7.6763    0.0443    0.9796 C   0  0  0  0  0  0  0  0  0  0  0  0
   -7.0713    0.3786   -0.3744 C   0  0  0  0  0  0  0  0  0  0  0  0
   -5.6511   -0.0440   -0.4863 C   0  0  0  0  0  0  0  0  0  0  0  0
   -5.2865   -1.2985   -0.9532 C   0  0  0  0  0  0  0  0  0  0  0  0
   -3.9259   -1.6179   -1.0277 C   0  0  0  0  0  0  0  0  0  0  0  0
   -2.9739   -0.7135   -0.6487 C   0  0  0  0  0  0  0  0  0  0  0  0
   -3.3169    0.5397   -0.1816 C   0  0  0  0  0  0  0  0  0  0  0  0
   -4.6543    0.8413   -0.1130 C   0  0  0  0  0  0  0  0  0  0  0  0
   -2.2901    1.5337    0.2343 C   0  0  0  0  0  0  0  0  0  0  0  0
   -1.5665   -1.0923   -0.7444 C   0  0  0  0  0  0  0  0  0  0  0  0
   -1.0929   -2.2703   -1.1783 N   0  0  0  0  0  0  0  0  0  0  0  0
    0.2250   -2.2591   -1.1279 O   0  0  0  0  0  0  0  0  0  0  0  0
    0.6438   -1.1006   -0.6702 C   0  0  0  0  0  0  0  0  0  0  0  0
   -0.4728   -0.3682   -0.4291 N   0  0  0  0  0  0  0  0  0  0  0  0
    2.0034   -0.6283   -0.4420 C   0  0  0  0  0  0  0  0  0  0  0  0
    2.2706    0.6268    0.0476 C   0  0  0  0  0  0  0  0  0  0  0  0
    3.5413    1.0308    0.2465 C   0  0  0  0  0  0  0  0  0  0  0  0
    4.6826    0.2387   -0.0168 C   0  0  0  0  0  0  0  0  0  0  0  0
    4.3941   -1.0190   -0.5080 C   0  0  0  0  0  0  0  0  0  0  0  0
    3.0721   -1.4402   -0.7153 C   0  0  0  0  0  0  0  0  0  0  0  0
    5.4456   -1.9936   -0.8426 C   0  0  0  0  0  0  0  0  0  0  0  0
    5.8531    0.7920    0.2358 O   0  0  0  0  0  0  0  0  0  0  0  0
    7.1546    0.5204    0.1747 C   0  0  0  0  0  0  0  0  0  0  0  0
    7.8564    0.5967    1.5514 C   0  0  0  0  0  0  0  0  0  0  0  0
    7.8539    1.5611   -0.7411 C   0  0  0  0  0  0  0  0  0  0  0  0
  -10.6167    1.0506    2.3266 H   0  0  0  0  0  0  0  0  0  0  0  0
   -7.1612    0.5606    1.7968 H   0  0  0  0  0  0  0  0  0  0  0  0
   -7.6929   -1.0610    1.0725 H   0  0  0  0  0  0  0  0  0  0  0  0
   -7.6588   -0.0691   -1.1864 H   0  0  0  0  0  0  0  0  0  0  0  0
   -7.0995    1.5017   -0.4241 H   0  0  0  0  0  0  0  0  0  0  0  0
   -6.0563   -1.9988   -1.2479 H   0  0  0  0  0  0  0  0  0  0  0  0
   -3.6527   -2.6011   -1.3941 H   0  0  0  0  0  0  0  0  0  0  0  0
   -4.9374    1.8361    0.2574 H   0  0  0  0  0  0  0  0  0  0  0  0
   -1.6461    1.6887   -0.6673 H   0  0  0  0  0  0  0  0  0  0  0  0
   -2.7917    2.4522    0.5542 H   0  0  0  0  0  0  0  0  0  0  0  0
   -1.6325    1.1120    1.0302 H   0  0  0  0  0  0  0  0  0  0  0  0
    1.4247    1.2697    0.2641 H   0  0  0  0  0  0  0  0  0  0  0  0
    3.6914    2.0412    0.6383 H   0  0  0  0  0  0  0  0  0  0  0  0
    2.8469   -2.4276   -1.1010 H   0  0  0  0  0  0  0  0  0  0  0  0
    6.1289   -1.6488   -1.6521 H   0  0  0  0  0  0  0  0  0  0  0  0
    6.0804   -2.2761    0.0240 H   0  0  0  0  0  0  0  0  0  0  0  0
    4.9665   -2.9461   -1.1873 H   0  0  0  0  0  0  0  0  0  0  0  0
    7.4398   -0.4651   -0.2083 H   0  0  0  0  0  0  0  0  0  0  0  0
    7.5904    1.5593    2.0041 H   0  0  0  0  0  0  0  0  0  0  0  0
    7.5127   -0.2914    2.0991 H   0  0  0  0  0  0  0  0  0  0  0  0
    8.9360    0.6073    1.3193 H   0  0  0  0  0  0  0  0  0  0  0  0
    8.8633    1.1867   -0.9493 H   0  0  0  0  0  0  0  0  0  0  0  0
    7.2291    1.6207   -1.6391 H   0  0  0  0  0  0  0  0  0  0  0  0
    7.8166    2.5020   -0.1843 H   0  0  0  0  0  0  0  0  0  0  0  0
  1  2  1  0
  2  3  2  0
  2  4  1  0
  4  5  1  0
  5  6  1  0
  6  7  2  0
  7  8  1  0
  8  9  2  0
  9 10  1  0
 10 11  2  0
 10 12  1  0
  9 13  1  0
 13 14  2  0
 14 15  1  0
 15 16  1  0
 16 17  2  0
 16 18  1  0
 18 19  2  0
 19 20  1  0
 20 21  2  0
 21 22  1  0
 22 23  2  0
 22 24  1  0
 21 25  1  0
 25 26  1  0
 26 27  1  0
 26 28  1  0
 11  6  1  0
 17 13  1  0
 23 18  1  0
  1 29  1  0
  4 30  1  0
  4 31  1  0
  5 32  1  0
  5 33  1  0
  7 34  1  0
  8 35  1  0
 11 36  1  0
 12 37  1  0
 12 38  1  0
 12 39  1  0
 19 40  1  0
 20 41  1  0
 23 42  1  0
 24 43  1  0
 24 44  1  0
 24 45  1  0
 26 46  1  0
 27 47  1  0
 27 48  1  0
 27 49  1  0
 28 50  1  0
 28 51  1  0
 28 52  1  0
M  END
>  <Ligand ID>  (1) 
LIG0001680

>  <Ligand>  (1) 
CHEMBL208898

>  <SMILES>  (1) 
OC(=O)CCc1ccc(c(c1)C)c1noc(n1)c1ccc(c(c1)C)OC(C)C

>  <CID>  (1) 
11646599.0

>  <ChEMBL ID>  (1) 
nan

>  <InChiKey>  (1) 
HTFJTFNEBQAXGE-UHFFFAOYSA-N

>  <InChi>  (1) 
InChI=1S/C22H24N2O4/c1-13(2)27-19-9-7-17(12-15(19)4)22-23-21(24-28-22)18-8-5-16(11-14(18)3)6-10-20(25)26/h5,7-9,11-13H,6,10H2,1-4H3,(H,25,26)

>  <IUPAC Name>  (1) 
3-[3-methyl-4-[5-(3-methyl-4-propan-2-yloxyphenyl)-1,2,4-oxadiazol-3-yl]phenyl]propanoic acid

$$$$
