
     RDKit          3D

 32 33  0  0  0  0  0  0  0  0999 V2000
   -3.3426    2.2269    0.8251 N   0  0  0  0  0  0  0  0  0  0  0  0
   -4.0715    1.4788   -0.1729 C   0  0  0  0  0  0  0  0  0  0  0  0
   -4.0084    0.0146    0.1562 C   0  0  0  0  0  0  0  0  0  0  0  0
   -2.6126   -0.5007    0.1889 C   0  0  0  0  0  0  0  0  0  0  0  0
   -2.0613   -1.0028   -0.9918 C   0  0  0  0  0  0  0  0  0  0  0  0
   -0.7667   -1.4718   -0.9258 C   0  0  0  0  0  0  0  0  0  0  0  0
   -0.0394   -1.4512    0.2467 C   0  0  0  0  0  0  0  0  0  0  0  0
   -0.5904   -0.9502    1.4239 C   0  0  0  0  0  0  0  0  0  0  0  0
   -1.8927   -0.4775    1.3609 C   0  0  0  0  0  0  0  0  0  0  0  0
    1.2561   -1.9446    0.2169 O   0  0  0  0  0  0  0  0  0  0  0  0
    2.3578   -1.1348   -0.0683 C   0  0  0  0  0  0  0  0  0  0  0  0
    3.6449   -1.6820   -0.0859 C   0  0  0  0  0  0  0  0  0  0  0  0
    4.7453   -0.8724   -0.3710 C   0  0  0  0  0  0  0  0  0  0  0  0
    6.6460   -1.7698   -0.3782 I   0  0  0  0  0  0  0  0  0  0  0  0
    4.5711    0.4889   -0.6406 C   0  0  0  0  0  0  0  0  0  0  0  0
    3.2841    1.0318   -0.6221 C   0  0  0  0  0  0  0  0  0  0  0  0
    2.1949    0.2251   -0.3388 C   0  0  0  0  0  0  0  0  0  0  0  0
    3.0810    3.0859   -1.0351 I   0  0  0  0  0  0  0  0  0  0  0  0
    5.6785    1.2781   -0.9220 O   0  0  0  0  0  0  0  0  0  0  0  0
   -2.3196    1.9505    0.7855 H   0  0  0  0  0  0  0  0  0  0  0  0
   -3.4608    3.2584    0.7091 H   0  0  0  0  0  0  0  0  0  0  0  0
   -3.7801    1.7197   -1.2115 H   0  0  0  0  0  0  0  0  0  0  0  0
   -5.1415    1.7740   -0.0733 H   0  0  0  0  0  0  0  0  0  0  0  0
   -4.5074   -0.0960    1.1560 H   0  0  0  0  0  0  0  0  0  0  0  0
   -4.6435   -0.5276   -0.5777 H   0  0  0  0  0  0  0  0  0  0  0  0
   -2.6581   -0.9980   -1.8673 H   0  0  0  0  0  0  0  0  0  0  0  0
   -0.3065   -1.8681   -1.8203 H   0  0  0  0  0  0  0  0  0  0  0  0
   -0.0328   -0.9302    2.3397 H   0  0  0  0  0  0  0  0  0  0  0  0
   -2.3468   -0.0782    2.2765 H   0  0  0  0  0  0  0  0  0  0  0  0
    3.7759   -2.7320    0.1224 H   0  0  0  0  0  0  0  0  0  0  0  0
    1.1959    0.6754   -0.3305 H   0  0  0  0  0  0  0  0  0  0  0  0
    6.1514    1.2798   -1.8377 H   0  0  0  0  0  0  0  0  0  0  0  0
  1  2  1  0
  2  3  1  0
  3  4  1  0
  4  5  2  0
  5  6  1  0
  6  7  2  0
  7  8  1  0
  8  9  2  0
  7 10  1  0
 10 11  1  0
 11 12  2  0
 12 13  1  0
 13 14  1  0
 13 15  2  0
 15 16  1  0
 16 17  2  0
 16 18  1  0
 15 19  1  0
  9  4  1  0
 17 11  1  0
  1 20  1  0
  1 21  1  0
  2 22  1  0
  2 23  1  0
  3 24  1  0
  3 25  1  0
  5 26  1  0
  6 27  1  0
  8 28  1  0
  9 29  1  0
 12 30  1  0
 17 31  1  0
 19 32  1  0
M  END
>  <Ligand ID>  (1) 
LIG0005930

>  <Ligand>  (1) 
CHEMBL201001

>  <SMILES>  (1) 
NCCc1ccc(cc1)Oc1cc(I)c(c(c1)I)O

>  <CID>  (1) 
11497244.0

>  <ChEMBL ID>  (1) 
nan

>  <InChiKey>  (1) 
JNKNXEJLUBMMOQ-UHFFFAOYSA-N

>  <InChi>  (1) 
InChI=1S/C14H13I2NO2/c15-12-7-11(8-13(16)14(12)18)19-10-3-1-9(2-4-10)5-6-17/h1-4,7-8,18H,5-6,17H2

>  <IUPAC Name>  (1) 
4-[4-(2-aminoethyl)phenoxy]-2,6-diiodophenol

$$$$
