
     RDKit          3D

 68 71  0  0  0  0  0  0  0  0999 V2000
    6.2473   -1.7486    1.4238 O   0  0  0  0  0  0  0  0  0  0  0  0
    5.6322   -1.5916    0.2246 C   0  0  2  0  0  0  0  0  0  0  0  0
    6.2993   -0.5768   -0.6498 C   0  0  0  0  0  0  0  0  0  0  0  0
    6.3395    0.6719   -0.1498 O   0  0  0  0  0  0  0  0  0  0  0  0
    6.9173    1.3111    0.8623 C   0  0  0  0  0  0  0  0  0  0  0  0
    6.5930    2.6810    1.0009 C   0  0  0  0  0  0  0  0  0  0  0  0
    7.1059    3.4733    1.9848 C   0  0  0  0  0  0  0  0  0  0  0  0
    7.9848    2.9759    2.9167 C   0  0  0  0  0  0  0  0  0  0  0  0
    8.3261    1.6499    2.8166 C   0  0  0  0  0  0  0  0  0  0  0  0
    7.7983    0.8393    1.8047 C   0  0  0  0  0  0  0  0  0  0  0  0
    4.1693   -1.1503    0.3982 C   0  0  0  0  0  0  0  0  0  0  0  0
    3.5871   -1.0095   -0.8998 N   0  0  0  0  0  0  0  0  0  0  0  0
    3.4277   -2.2383   -1.5981 C   0  0  0  0  0  0  0  0  0  0  0  0
    2.7699   -1.9673   -2.9536 C   0  0  0  0  0  0  0  0  0  0  0  0
    1.4600   -1.3463   -2.6984 C   0  0  0  0  0  0  0  0  0  0  0  0
    1.2424    0.0121   -2.6215 C   0  0  0  0  0  0  0  0  0  0  0  0
    0.0097    0.5749   -2.3744 C   0  0  0  0  0  0  0  0  0  0  0  0
   -1.1018   -0.2235   -2.1860 C   0  0  0  0  0  0  0  0  0  0  0  0
   -0.9081   -1.5790   -2.2586 C   0  0  0  0  0  0  0  0  0  0  0  0
    0.3424   -2.1516   -2.5094 C   0  0  0  0  0  0  0  0  0  0  0  0
   -2.3298    0.4202   -1.9390 N   0  0  0  0  0  0  0  0  0  0  0  0
   -3.5686   -0.2164   -1.6957 C   0  0  0  0  0  0  0  0  0  0  0  0
   -3.7266   -1.4555   -1.6686 O   0  0  0  0  0  0  0  0  0  0  0  0
   -4.8096    0.6040   -1.4464 C   0  0  0  0  0  0  0  0  0  0  0  0
   -5.9511   -0.2946   -1.2071 C   0  0  0  0  0  0  0  0  0  0  0  0
   -6.7534   -0.7463   -2.2002 N   0  0  0  0  0  0  0  0  0  0  0  0
   -7.6714   -1.5374   -1.6298 C   0  0  0  0  0  0  0  0  0  0  0  0
   -7.4089   -1.5532   -0.2873 C   0  0  0  0  0  0  0  0  0  0  0  0
   -6.3308   -0.7725   -0.0315 N   0  0  0  0  0  0  0  0  0  0  0  0
   -5.8187   -0.5871    1.3039 C   0  0  0  0  0  0  0  0  0  0  0  0
   -6.4383    0.5320    2.0403 C   0  0  0  0  0  0  0  0  0  0  0  0
   -5.9433    1.8138    2.0785 C   0  0  0  0  0  0  0  0  0  0  0  0
   -6.5666    2.8359    2.7837 C   0  0  0  0  0  0  0  0  0  0  0  0
   -7.7170    2.5390    3.4620 C   0  0  0  0  0  0  0  0  0  0  0  0
   -8.2479    1.2747    3.4530 C   0  0  0  0  0  0  0  0  0  0  0  0
   -7.5962    0.2778    2.7358 C   0  0  0  0  0  0  0  0  0  0  0  0
    5.6141   -1.9758    2.1396 H   0  0  0  0  0  0  0  0  0  0  0  0
    5.6502   -2.5822   -0.3074 H   0  0  0  0  0  0  0  0  0  0  0  0
    5.8150   -0.5401   -1.6728 H   0  0  0  0  0  0  0  0  0  0  0  0
    7.3324   -0.9947   -0.9037 H   0  0  0  0  0  0  0  0  0  0  0  0
    5.9015    3.1529    0.3003 H   0  0  0  0  0  0  0  0  0  0  0  0
    6.8436    4.5185    2.0715 H   0  0  0  0  0  0  0  0  0  0  0  0
    8.4173    3.5609    3.7137 H   0  0  0  0  0  0  0  0  0  0  0  0
    9.0295    1.2324    3.5542 H   0  0  0  0  0  0  0  0  0  0  0  0
    8.1644   -0.1709    1.8101 H   0  0  0  0  0  0  0  0  0  0  0  0
    3.6144   -1.8357    1.0544 H   0  0  0  0  0  0  0  0  0  0  0  0
    4.2426   -0.1382    0.8616 H   0  0  0  0  0  0  0  0  0  0  0  0
    3.8552   -0.2121   -1.4585 H   0  0  0  0  0  0  0  0  0  0  0  0
    2.7892   -2.9181   -0.9948 H   0  0  0  0  0  0  0  0  0  0  0  0
    4.3436   -2.7991   -1.8260 H   0  0  0  0  0  0  0  0  0  0  0  0
    3.4254   -1.3613   -3.5871 H   0  0  0  0  0  0  0  0  0  0  0  0
    2.5819   -2.9190   -3.5036 H   0  0  0  0  0  0  0  0  0  0  0  0
    2.0706    0.6887   -2.7615 H   0  0  0  0  0  0  0  0  0  0  0  0
   -0.0702    1.6577   -2.3306 H   0  0  0  0  0  0  0  0  0  0  0  0
   -1.7109   -2.2559   -2.1264 H   0  0  0  0  0  0  0  0  0  0  0  0
    0.4804   -3.2139   -2.5632 H   0  0  0  0  0  0  0  0  0  0  0  0
   -2.3628    1.4834   -1.9277 H   0  0  0  0  0  0  0  0  0  0  0  0
   -4.5881    1.3056   -0.6482 H   0  0  0  0  0  0  0  0  0  0  0  0
   -4.9474    1.1825   -2.4013 H   0  0  0  0  0  0  0  0  0  0  0  0
   -8.4825   -2.0758   -2.1251 H   0  0  0  0  0  0  0  0  0  0  0  0
   -8.0072   -2.1221    0.4186 H   0  0  0  0  0  0  0  0  0  0  0  0
   -5.9771   -1.5119    1.9159 H   0  0  0  0  0  0  0  0  0  0  0  0
   -4.7143   -0.4284    1.3119 H   0  0  0  0  0  0  0  0  0  0  0  0
   -5.0377    2.0565    1.5516 H   0  0  0  0  0  0  0  0  0  0  0  0
   -6.1768    3.8424    2.8129 H   0  0  0  0  0  0  0  0  0  0  0  0
   -8.2472    3.3029    4.0317 H   0  0  0  0  0  0  0  0  0  0  0  0
   -9.1634    1.0314    3.9905 H   0  0  0  0  0  0  0  0  0  0  0  0
   -8.0498   -0.7017    2.7574 H   0  0  0  0  0  0  0  0  0  0  0  0
  1  2  1  0
  2  3  1  0
  3  4  1  0
  4  5  1  0
  5  6  2  0
  6  7  1  0
  7  8  2  0
  8  9  1  0
  9 10  2  0
  2 11  1  0
 11 12  1  0
 12 13  1  0
 13 14  1  0
 14 15  1  0
 15 16  2  0
 16 17  1  0
 17 18  2  0
 18 19  1  0
 19 20  2  0
 18 21  1  0
 21 22  1  0
 22 23  2  0
 22 24  1  0
 24 25  1  0
 25 26  2  0
 26 27  1  0
 27 28  2  0
 28 29  1  0
 29 30  1  0
 30 31  1  0
 31 32  2  0
 32 33  1  0
 33 34  2  0
 34 35  1  0
 35 36  2  0
 10  5  1  0
 20 15  1  0
 29 25  1  0
 36 31  1  0
  1 37  1  0
  2 38  1  6
  3 39  1  0
  3 40  1  0
  6 41  1  0
  7 42  1  0
  8 43  1  0
  9 44  1  0
 10 45  1  0
 11 46  1  0
 11 47  1  0
 12 48  1  0
 13 49  1  0
 13 50  1  0
 14 51  1  0
 14 52  1  0
 16 53  1  0
 17 54  1  0
 19 55  1  0
 20 56  1  0
 21 57  1  0
 24 58  1  0
 24 59  1  0
 27 60  1  0
 28 61  1  0
 30 62  1  0
 30 63  1  0
 32 64  1  0
 33 65  1  0
 34 66  1  0
 35 67  1  0
 36 68  1  0
M  END
>  <Ligand ID>  (1) 
LIG0002689

>  <Ligand>  (1) 
CHEMBL467083

>  <SMILES>  (1) 
O[C@H](COc1ccccc1)CNCCc1ccc(cc1)NC(=O)Cc1nccn1Cc1ccccc1

>  <CID>  (1) 
44219629.0

>  <ChEMBL ID>  (1) 
nan

>  <InChiKey>  (1) 
NBVWRRREAFTNHB-SANMLTNESA-N

>  <InChi>  (1) 
InChI=1S/C29H32N4O3/c34-26(22-36-27-9-5-2-6-10-27)20-30-16-15-23-11-13-25(14-12-23)32-29(35)19-28-31-17-18-33(28)21-24-7-3-1-4-8-24/h1-14,17-18,26,30,34H,15-16,19-22H2,(H,32,35)/t26-/m0/s1

>  <IUPAC Name>  (1) 
2-(1-benzylimidazol-2-yl)-N-[4-[2-[[(2S)-2-hydroxy-3-phenoxypropyl]amino]ethyl]phenyl]acetamide

$$$$
