
     RDKit          3D

 65 68  0  0  0  0  0  0  0  0999 V2000
   -1.3095   -0.7206   -1.1205 C   0  0  0  0  0  0  0  0  0  0  0  0
   -1.5901   -0.2537    0.2758 C   0  0  2  0  0  0  0  0  0  0  0  0
   -2.3852    1.0296    0.2162 C   0  0  0  0  0  0  0  0  0  0  0  0
   -3.6565    0.7462   -0.4987 C   0  0  0  0  0  0  0  0  0  0  0  0
   -4.0343    1.0570   -1.7871 C   0  0  0  0  0  0  0  0  0  0  0  0
   -5.3005    0.5749   -1.9585 N   0  0  0  0  0  0  0  0  0  0  0  0
   -5.7076   -0.0189   -0.8198 C   0  0  0  0  0  0  0  0  0  0  0  0
   -4.7040    0.0639    0.1306 C   0  0  0  0  0  0  0  0  0  0  0  0
   -4.8481   -0.4640    1.3993 C   0  0  0  0  0  0  0  0  0  0  0  0
   -6.0108   -1.1006    1.7701 C   0  0  0  0  0  0  0  0  0  0  0  0
   -7.0186   -1.1964    0.8506 C   0  0  0  0  0  0  0  0  0  0  0  0
   -6.8685   -0.6676   -0.4137 C   0  0  0  0  0  0  0  0  0  0  0  0
   -7.9357   -0.8040   -1.2916 O   0  0  0  0  0  0  0  0  0  0  0  0
   -9.1269    0.3898   -1.3478 S   0  0  0  0  0  0  0  0  0  0  0  0
   -8.6063    1.7073   -1.7995 O   0  0  0  0  0  0  0  0  0  0  0  0
  -10.1530   -0.0582   -2.3752 O   0  0  0  0  0  0  0  0  0  0  0  0
   -9.8686    0.6006    0.2396 C   0  0  0  0  0  0  0  0  0  0  0  0
   -0.3895   -0.0251    1.0603 N   0  0  0  0  0  0  0  0  0  0  0  0
    0.4030   -1.2140    1.2026 C   0  0  0  0  0  0  0  0  0  0  0  0
    1.6231   -0.9025    2.0270 C   0  0  1  0  0  0  0  0  0  0  0  0
    2.4031    0.1624    1.3645 C   0  0  0  0  0  0  0  0  0  0  0  0
    2.0482    1.4815    1.3191 C   0  0  0  0  0  0  0  0  0  0  0  0
    2.8509    2.4207    0.6701 C   0  0  0  0  0  0  0  0  0  0  0  0
    4.0297    2.0710    0.0483 C   0  0  0  0  0  0  0  0  0  0  0  0
    4.3896    0.7423    0.0925 C   0  0  0  0  0  0  0  0  0  0  0  0
    3.6015   -0.1776    0.7292 C   0  0  0  0  0  0  0  0  0  0  0  0
    5.5940    0.2486   -0.5125 N   0  0  0  0  0  0  0  0  0  0  0  0
    6.7487    0.2231    0.3191 C   0  0  0  0  0  0  0  0  0  0  0  0
    6.6385    0.6250    1.4997 O   0  0  0  0  0  0  0  0  0  0  0  0
    8.0463   -0.2502   -0.1467 C   0  0  0  0  0  0  0  0  0  0  0  0
    9.0876   -0.2572    0.7552 C   0  0  0  0  0  0  0  0  0  0  0  0
   10.3252   -0.6927    0.3606 C   0  0  0  0  0  0  0  0  0  0  0  0
   10.5466   -1.1233   -0.9218 C   0  0  0  0  0  0  0  0  0  0  0  0
    9.5125   -1.1269   -1.8542 C   0  0  0  0  0  0  0  0  0  0  0  0
    8.2936   -0.6832   -1.4140 C   0  0  0  0  0  0  0  0  0  0  0  0
    1.1867   -0.4426    3.2759 O   0  0  0  0  0  0  0  0  0  0  0  0
   -0.9277    0.1508   -1.7083 H   0  0  0  0  0  0  0  0  0  0  0  0
   -0.6927   -1.6127   -1.2081 H   0  0  0  0  0  0  0  0  0  0  0  0
   -2.3050   -0.9525   -1.5811 H   0  0  0  0  0  0  0  0  0  0  0  0
   -2.2219   -1.0533    0.7465 H   0  0  0  0  0  0  0  0  0  0  0  0
   -1.8057    1.7826   -0.3651 H   0  0  0  0  0  0  0  0  0  0  0  0
   -2.6146    1.3571    1.2465 H   0  0  0  0  0  0  0  0  0  0  0  0
   -3.4208    1.5791   -2.4890 H   0  0  0  0  0  0  0  0  0  0  0  0
   -5.8774    0.6467   -2.8306 H   0  0  0  0  0  0  0  0  0  0  0  0
   -4.0600   -0.3970    2.1416 H   0  0  0  0  0  0  0  0  0  0  0  0
   -6.1030   -1.5076    2.7717 H   0  0  0  0  0  0  0  0  0  0  0  0
   -7.9252   -1.6991    1.1583 H   0  0  0  0  0  0  0  0  0  0  0  0
   -9.8801   -0.3549    0.8028 H   0  0  0  0  0  0  0  0  0  0  0  0
   -9.2759    1.3146    0.8406 H   0  0  0  0  0  0  0  0  0  0  0  0
  -10.9065    0.9703    0.0576 H   0  0  0  0  0  0  0  0  0  0  0  0
   -0.6642    0.2513    2.0462 H   0  0  0  0  0  0  0  0  0  0  0  0
   -0.1733   -2.0230    1.7254 H   0  0  0  0  0  0  0  0  0  0  0  0
    0.7425   -1.6457    0.2368 H   0  0  0  0  0  0  0  0  0  0  0  0
    2.2717   -1.8035    2.1544 H   0  0  0  0  0  0  0  0  0  0  0  0
    1.1324    1.8011    1.7946 H   0  0  0  0  0  0  0  0  0  0  0  0
    2.5733    3.4765    0.6299 H   0  0  0  0  0  0  0  0  0  0  0  0
    4.6685    2.7791   -0.4609 H   0  0  0  0  0  0  0  0  0  0  0  0
    3.8957   -1.2282    0.7581 H   0  0  0  0  0  0  0  0  0  0  0  0
    5.6438   -0.0766   -1.4967 H   0  0  0  0  0  0  0  0  0  0  0  0
    8.9446    0.0760    1.7729 H   0  0  0  0  0  0  0  0  0  0  0  0
   11.1479   -0.7072    1.0423 H   0  0  0  0  0  0  0  0  0  0  0  0
   11.5431   -1.4668   -1.2153 H   0  0  0  0  0  0  0  0  0  0  0  0
    9.7394   -1.4716   -2.8379 H   0  0  0  0  0  0  0  0  0  0  0  0
    7.4833   -0.6808   -2.1277 H   0  0  0  0  0  0  0  0  0  0  0  0
    1.2526    0.5308    3.3852 H   0  0  0  0  0  0  0  0  0  0  0  0
  1  2  1  0
  2  3  1  0
  3  4  1  0
  4  5  2  0
  5  6  1  0
  6  7  1  0
  7  8  2  0
  8  9  1  0
  9 10  2  0
 10 11  1  0
 11 12  2  0
 12 13  1  0
 13 14  1  0
 14 15  2  0
 14 16  2  0
 14 17  1  0
  2 18  1  0
 18 19  1  0
 19 20  1  0
 20 21  1  0
 21 22  2  0
 22 23  1  0
 23 24  2  0
 24 25  1  0
 25 26  2  0
 25 27  1  0
 27 28  1  0
 28 29  2  0
 28 30  1  0
 30 31  2  0
 31 32  1  0
 32 33  2  0
 33 34  1  0
 34 35  2  0
 20 36  1  0
  8  4  1  0
 26 21  1  0
 35 30  1  0
 12  7  1  0
  1 37  1  0
  1 38  1  0
  1 39  1  0
  2 40  1  1
  3 41  1  0
  3 42  1  0
  5 43  1  0
  6 44  1  0
  9 45  1  0
 10 46  1  0
 11 47  1  0
 17 48  1  0
 17 49  1  0
 17 50  1  0
 18 51  1  0
 19 52  1  0
 19 53  1  0
 20 54  1  1
 22 55  1  0
 23 56  1  0
 24 57  1  0
 26 58  1  0
 27 59  1  0
 31 60  1  0
 32 61  1  0
 33 62  1  0
 34 63  1  0
 35 64  1  0
 36 65  1  0
M  END
>  <Ligand ID>  (1) 
LIG0002217

>  <Ligand>  (1) 
CHEMBL182708

>  <SMILES>  (1) 
C[C@H](Cc1c[nH]c2c1cccc2OS(=O)(=O)C)NC[C@@H](c1cccc(c1)NC(=O)c1ccccc1)O

>  <CID>  (1) 
44392490.0

>  <ChEMBL ID>  (1) 
nan

>  <InChiKey>  (1) 
WYTFAQBIDABWBM-KOSHJBKYSA-N

>  <InChi>  (1) 
InChI=1S/C27H29N3O5S/c1-18(14-21-16-29-26-23(21)12-7-13-25(26)35-36(2,33)34)28-17-24(31)20-10-6-11-22(15-20)30-27(32)19-8-4-3-5-9-19/h3-13,15-16,18,24,28-29,31H,14,17H2,1-2H3,(H,30,32)/t18-,24+/m1/s1

>  <IUPAC Name>  (1) 
[3-[(2R)-2-[[(2R)-2-(3-benzamidophenyl)-2-hydroxyethyl]amino]propyl]-1H-indol-7-yl] methanesulfonate

$$$$
