
     RDKit          3D

141143  0  0  0  0  0  0  0  0999 V2000
    8.1954   -2.9920   -3.2330 N   0  0  0  0  0  0  0  0  0  0  0  0
    9.3393   -2.7876   -2.3797 C   0  0  0  0  0  0  0  0  0  0  0  0
    9.6872   -1.3167   -2.2696 C   0  0  0  0  0  0  0  0  0  0  0  0
    8.5932   -0.4755   -1.7129 C   0  0  0  0  0  0  0  0  0  0  0  0
    8.1605   -0.8910   -0.3453 C   0  0  1  0  0  0  0  0  0  0  0  0
    9.2782   -0.8128    0.6203 C   0  0  0  0  0  0  0  0  0  0  0  0
   10.3585   -1.4808    0.4897 O   0  0  0  0  0  0  0  0  0  0  0  0
    9.2285    0.0236    1.7772 N   0  0  0  0  0  0  0  0  0  0  0  0
   10.3108    0.1278    2.7281 C   0  0  0  0  0  0  0  0  0  0  0  0
   11.5060    0.6590    1.9809 C   0  0  0  0  0  0  0  0  0  0  0  0
   12.6093    0.8585    2.5161 O   0  0  0  0  0  0  0  0  0  0  0  0
   11.3976    0.9600    0.5826 N   0  0  0  0  0  0  0  0  0  0  0  0
    7.0886   -0.0140    0.1486 N   0  0  0  0  0  0  0  0  0  0  0  0
    5.8019   -0.4987    0.4959 C   0  0  0  0  0  0  0  0  0  0  0  0
    5.5826   -1.7461    0.3707 O   0  0  0  0  0  0  0  0  0  0  0  0
    4.8098    0.4666    0.9772 C   0  0  2  0  0  0  0  0  0  0  0  0
    5.1783    1.0675    2.3412 C   0  0  0  0  0  0  0  0  0  0  0  0
    4.9187   -0.1353    3.2435 C   0  0  0  0  0  0  0  0  0  0  0  0
    3.8253   -0.9431    2.5621 C   0  0  0  0  0  0  0  0  0  0  0  0
    3.5400   -0.1731    1.3682 N   0  0  0  0  0  0  0  0  0  0  0  0
    2.3639    0.0324    0.6375 C   0  0  0  0  0  0  0  0  0  0  0  0
    2.2933    0.7653   -0.3969 O   0  0  0  0  0  0  0  0  0  0  0  0
    1.0280   -0.6606    1.0936 C   0  0  2  0  0  0  0  0  0  0  0  0
    1.2485   -2.0795    0.8945 C   0  0  0  0  0  0  0  0  0  0  0  0
    1.7212   -2.5580   -0.7596 S   0  0  0  0  0  0  0  0  0  0  0  0
    0.1175   -2.9601   -2.0596 S   0  0  0  0  0  0  0  0  0  0  0  0
   -0.2254   -4.7243   -2.0794 C   0  0  0  0  0  0  0  0  0  0  0  0
   -0.7805   -5.2099   -0.7976 C   0  0  2  0  0  0  0  0  0  0  0  0
   -0.7891   -6.7080   -0.7861 N   0  0  0  0  0  0  0  0  0  0  0  0
   -2.2465   -4.8115   -0.7427 C   0  0  0  0  0  0  0  0  0  0  0  0
   -3.1628   -5.6429   -0.7765 O   0  0  0  0  0  0  0  0  0  0  0  0
   -2.6523   -3.4567   -0.6472 N   0  0  0  0  0  0  0  0  0  0  0  0
   -4.0902   -3.0980   -0.6720 C   0  0  1  0  0  0  0  0  0  0  0  0
   -4.4115   -2.5843    0.7194 C   0  0  0  0  0  0  0  0  0  0  0  0
   -4.1096   -3.7416    1.6357 C   0  0  0  0  0  0  0  0  0  0  0  0
   -5.1766   -4.6032    1.8590 C   0  0  0  0  0  0  0  0  0  0  0  0
   -5.0131   -5.7004    2.6815 C   0  0  0  0  0  0  0  0  0  0  0  0
   -3.7866   -5.9000    3.2543 C   0  0  0  0  0  0  0  0  0  0  0  0
   -2.7144   -5.0319    3.0279 C   0  0  0  0  0  0  0  0  0  0  0  0
   -2.8683   -3.9259    2.2025 C   0  0  0  0  0  0  0  0  0  0  0  0
   -4.1832   -2.0581   -1.7177 C   0  0  0  0  0  0  0  0  0  0  0  0
   -3.1472   -1.7779   -2.3483 O   0  0  0  0  0  0  0  0  0  0  0  0
   -5.3442   -1.3397   -2.0772 N   0  0  0  0  0  0  0  0  0  0  0  0
   -5.1490   -0.3079   -3.1252 C   0  0  2  0  0  0  0  0  0  0  0  0
   -4.5688    0.8865   -2.4053 C   0  0  0  0  0  0  0  0  0  0  0  0
   -4.4210    0.7683   -1.1874 O   0  0  0  0  0  0  0  0  0  0  0  0
   -4.1857    2.1048   -3.0021 N   0  0  0  0  0  0  0  0  0  0  0  0
   -3.6553    3.1198   -2.1135 C   0  0  2  0  0  0  0  0  0  0  0  0
   -2.2751    2.8488   -1.6457 C   0  0  0  0  0  0  0  0  0  0  0  0
   -1.2823    2.7265   -2.3737 O   0  0  0  0  0  0  0  0  0  0  0  0
   -1.9663    2.6776   -0.2341 N   0  0  0  0  0  0  0  0  0  0  0  0
   -0.6908    2.6406    0.3391 C   0  0  2  0  0  0  0  0  0  0  0  0
    0.0755    1.5272    0.7328 C   0  0  0  0  0  0  0  0  0  0  0  0
    1.0186    1.7425    1.5998 O   0  0  0  0  0  0  0  0  0  0  0  0
    0.0662    0.1199    0.3686 N   0  0  0  0  0  0  0  0  0  0  0  0
   -0.5146    3.7438    1.4163 C   0  0  0  0  0  0  0  0  0  0  0  0
   -1.4717    3.5954    2.5206 C   0  0  0  0  0  0  0  0  0  0  0  0
   -2.3146    2.6366    2.5933 O   0  0  0  0  0  0  0  0  0  0  0  0
   -1.4359    4.5910    3.5513 N   0  0  0  0  0  0  0  0  0  0  0  0
   -4.6276    3.6114   -1.1335 C   0  0  0  0  0  0  0  0  0  0  0  0
   -4.1466    4.6790   -0.2112 C   0  0  0  0  0  0  0  0  0  0  0  0
   -2.9859    5.1614   -0.2452 O   0  0  0  0  0  0  0  0  0  0  0  0
   -5.1067    5.1519    0.7562 N   0  0  0  0  0  0  0  0  0  0  0  0
   -4.7186    6.1940    1.6966 C   0  0  0  0  0  0  0  0  0  0  0  0
   -5.1742    5.7720    3.0741 C   0  0  0  0  0  0  0  0  0  0  0  0
   -4.5803    4.5712    3.4103 O   0  0  0  0  0  0  0  0  0  0  0  0
   -5.5573    7.4299    1.3164 C   0  0  0  0  0  0  0  0  0  0  0  0
   -5.2812    7.8065    0.0124 O   0  0  0  0  0  0  0  0  0  0  0  0
   -6.3786   -0.0180   -3.8951 C   0  0  2  0  0  0  0  0  0  0  0  0
   -7.5169    0.4886   -3.0298 C   0  0  0  0  0  0  0  0  0  0  0  0
   -8.7603    0.7686   -3.8601 C   0  0  0  0  0  0  0  0  0  0  0  0
   -6.8392   -1.3192   -4.5242 C   0  0  0  0  0  0  0  0  0  0  0  0
    8.4038   -2.6282   -4.1833 H   0  0  0  0  0  0  0  0  0  0  0  0
    7.3465   -2.4908   -2.9000 H   0  0  0  0  0  0  0  0  0  0  0  0
    9.2631   -3.2981   -1.4176 H   0  0  0  0  0  0  0  0  0  0  0  0
   10.2069   -3.2514   -2.9293 H   0  0  0  0  0  0  0  0  0  0  0  0
    9.8360   -0.9619   -3.3436 H   0  0  0  0  0  0  0  0  0  0  0  0
   10.6239   -1.1180   -1.7288 H   0  0  0  0  0  0  0  0  0  0  0  0
    9.0014    0.5671   -1.6324 H   0  0  0  0  0  0  0  0  0  0  0  0
    7.7200   -0.4609   -2.4297 H   0  0  0  0  0  0  0  0  0  0  0  0
    7.7413   -1.9192   -0.3848 H   0  0  0  0  0  0  0  0  0  0  0  0
    8.3600    0.5679    1.9154 H   0  0  0  0  0  0  0  0  0  0  0  0
   10.0186    0.8052    3.5424 H   0  0  0  0  0  0  0  0  0  0  0  0
   10.5717   -0.8552    3.1780 H   0  0  0  0  0  0  0  0  0  0  0  0
   10.5054    1.4566    0.3127 H   0  0  0  0  0  0  0  0  0  0  0  0
   12.1353    0.7084   -0.0935 H   0  0  0  0  0  0  0  0  0  0  0  0
    7.2960    1.0046    0.2411 H   0  0  0  0  0  0  0  0  0  0  0  0
    4.6511    1.2665    0.2318 H   0  0  0  0  0  0  0  0  0  0  0  0
    6.1945    1.4432    2.3929 H   0  0  0  0  0  0  0  0  0  0  0  0
    4.4658    1.8867    2.5368 H   0  0  0  0  0  0  0  0  0  0  0  0
    4.5012    0.2766    4.1771 H   0  0  0  0  0  0  0  0  0  0  0  0
    5.8181   -0.7383    3.3917 H   0  0  0  0  0  0  0  0  0  0  0  0
    2.9466   -1.0485    3.2415 H   0  0  0  0  0  0  0  0  0  0  0  0
    4.2753   -1.9091    2.2774 H   0  0  0  0  0  0  0  0  0  0  0  0
    1.0434   -0.3714    2.1932 H   0  0  0  0  0  0  0  0  0  0  0  0
    0.3176   -2.6703    1.2041 H   0  0  0  0  0  0  0  0  0  0  0  0
    2.0709   -2.4155    1.5961 H   0  0  0  0  0  0  0  0  0  0  0  0
   -0.9252   -5.0110   -2.8960 H   0  0  0  0  0  0  0  0  0  0  0  0
    0.7190   -5.2757   -2.3150 H   0  0  0  0  0  0  0  0  0  0  0  0
   -0.2811   -4.8242    0.0666 H   0  0  0  0  0  0  0  0  0  0  0  0
   -1.2220   -6.9289    0.1573 H   0  0  0  0  0  0  0  0  0  0  0  0
    0.2384   -6.9501   -0.6502 H   0  0  0  0  0  0  0  0  0  0  0  0
   -1.9075   -2.7704   -0.5602 H   0  0  0  0  0  0  0  0  0  0  0  0
   -4.6924   -3.9994   -0.8609 H   0  0  0  0  0  0  0  0  0  0  0  0
   -3.6720   -1.7889    0.9392 H   0  0  0  0  0  0  0  0  0  0  0  0
   -5.4469   -2.2523    0.8238 H   0  0  0  0  0  0  0  0  0  0  0  0
   -6.1595   -4.4307    1.3921 H   0  0  0  0  0  0  0  0  0  0  0  0
   -5.8730   -6.3399    2.8250 H   0  0  0  0  0  0  0  0  0  0  0  0
   -3.6711   -6.7757    3.9057 H   0  0  0  0  0  0  0  0  0  0  0  0
   -1.7413   -5.2048    3.4923 H   0  0  0  0  0  0  0  0  0  0  0  0
   -2.0684   -3.2286    1.9983 H   0  0  0  0  0  0  0  0  0  0  0  0
   -6.2055   -1.5597   -1.6209 H   0  0  0  0  0  0  0  0  0  0  0  0
   -4.3159   -0.5881   -3.8121 H   0  0  0  0  0  0  0  0  0  0  0  0
   -4.3113    2.1735   -4.0096 H   0  0  0  0  0  0  0  0  0  0  0  0
   -3.4836    4.0045   -2.8588 H   0  0  0  0  0  0  0  0  0  0  0  0
   -2.8141    2.5557    0.3375 H   0  0  0  0  0  0  0  0  0  0  0  0
   -0.0516    3.1664   -0.5278 H   0  0  0  0  0  0  0  0  0  0  0  0
   -0.5980   -0.1351   -0.3322 H   0  0  0  0  0  0  0  0  0  0  0  0
    0.5321    3.6327    1.7667 H   0  0  0  0  0  0  0  0  0  0  0  0
   -0.5502    4.7561    0.9545 H   0  0  0  0  0  0  0  0  0  0  0  0
   -1.2501    5.5819    3.2672 H   0  0  0  0  0  0  0  0  0  0  0  0
   -1.5945    4.2648    4.5116 H   0  0  0  0  0  0  0  0  0  0  0  0
   -5.1335    2.7985   -0.5802 H   0  0  0  0  0  0  0  0  0  0  0  0
   -5.4870    4.1058   -1.6961 H   0  0  0  0  0  0  0  0  0  0  0  0
   -6.0723    4.7601    0.7920 H   0  0  0  0  0  0  0  0  0  0  0  0
   -3.6538    6.4170    1.6160 H   0  0  0  0  0  0  0  0  0  0  0  0
   -6.2691    5.7378    3.1592 H   0  0  0  0  0  0  0  0  0  0  0  0
   -4.8425    6.5640    3.7921 H   0  0  0  0  0  0  0  0  0  0  0  0
   -5.2287    3.8259    3.4525 H   0  0  0  0  0  0  0  0  0  0  0  0
   -6.6308    7.1746    1.3753 H   0  0  0  0  0  0  0  0  0  0  0  0
   -5.3733    8.2523    2.0315 H   0  0  0  0  0  0  0  0  0  0  0  0
   -5.0033    7.0789   -0.5862 H   0  0  0  0  0  0  0  0  0  0  0  0
   -6.1273    0.7290   -4.6757 H   0  0  0  0  0  0  0  0  0  0  0  0
   -7.8288   -0.2799   -2.2930 H   0  0  0  0  0  0  0  0  0  0  0  0
   -7.2780    1.4047   -2.4771 H   0  0  0  0  0  0  0  0  0  0  0  0
   -8.5762    1.6462   -4.5132 H   0  0  0  0  0  0  0  0  0  0  0  0
   -9.5662    1.0705   -3.1561 H   0  0  0  0  0  0  0  0  0  0  0  0
   -9.0529   -0.1477   -4.4060 H   0  0  0  0  0  0  0  0  0  0  0  0
   -5.9924   -2.0328   -4.6450 H   0  0  0  0  0  0  0  0  0  0  0  0
   -7.5865   -1.7689   -3.8547 H   0  0  0  0  0  0  0  0  0  0  0  0
   -7.3018   -1.0940   -5.5276 H   0  0  0  0  0  0  0  0  0  0  0  0
  1  2  1  0
  2  3  1  0
  3  4  1  0
  4  5  1  0
  5  6  1  0
  6  7  2  0
  6  8  1  0
  8  9  1  0
  9 10  1  0
 10 11  2  0
 10 12  1  0
  5 13  1  0
 13 14  1  0
 14 15  2  0
 14 16  1  0
 16 17  1  0
 17 18  1  0
 18 19  1  0
 19 20  1  0
 20 21  1  0
 21 22  2  0
 21 23  1  0
 23 24  1  0
 24 25  1  0
 25 26  1  0
 26 27  1  0
 27 28  1  0
 28 29  1  0
 28 30  1  0
 30 31  2  0
 30 32  1  0
 32 33  1  0
 33 34  1  0
 34 35  1  0
 35 36  2  0
 36 37  1  0
 37 38  2  0
 38 39  1  0
 39 40  2  0
 33 41  1  0
 41 42  2  0
 41 43  1  0
 43 44  1  0
 44 45  1  0
 45 46  2  0
 45 47  1  0
 47 48  1  0
 48 49  1  0
 49 50  2  0
 49 51  1  0
 51 52  1  0
 52 53  1  0
 53 54  2  0
 53 55  1  0
 52 56  1  0
 56 57  1  0
 57 58  2  0
 57 59  1  0
 48 60  1  0
 60 61  1  0
 61 62  2  0
 61 63  1  0
 63 64  1  0
 64 65  1  0
 65 66  1  0
 64 67  1  0
 67 68  1  0
 44 69  1  0
 69 70  1  0
 70 71  1  0
 69 72  1  0
 20 16  1  0
 55 23  1  0
 40 35  1  0
  1 73  1  0
  1 74  1  0
  2 75  1  0
  2 76  1  0
  3 77  1  0
  3 78  1  0
  4 79  1  0
  4 80  1  0
  5 81  1  6
  8 82  1  0
  9 83  1  0
  9 84  1  0
 12 85  1  0
 12 86  1  0
 13 87  1  0
 16 88  1  6
 17 89  1  0
 17 90  1  0
 18 91  1  0
 18 92  1  0
 19 93  1  0
 19 94  1  0
 23 95  1  1
 24 96  1  0
 24 97  1  0
 27 98  1  0
 27 99  1  0
 28100  1  1
 29101  1  0
 29102  1  0
 32103  1  0
 33104  1  6
 34105  1  0
 34106  1  0
 36107  1  0
 37108  1  0
 38109  1  0
 39110  1  0
 40111  1  0
 43112  1  0
 44113  1  6
 47114  1  0
 48115  1  6
 51116  1  0
 52117  1  6
 55118  1  0
 56119  1  0
 56120  1  0
 59121  1  0
 59122  1  0
 60123  1  0
 60124  1  0
 63125  1  0
 64126  1  0
 65127  1  0
 65128  1  0
 66129  1  0
 67130  1  0
 67131  1  0
 68132  1  0
 69133  1  6
 70134  1  0
 70135  1  0
 71136  1  0
 71137  1  0
 71138  1  0
 72139  1  0
 72140  1  0
 72141  1  0
M  END
>  <Ligand ID>  (1) 
LIG0001588

>  <Ligand>  (1) 
CHEMBL1817699

>  <SMILES>  (1) 
NCCC[C@@H](C(=O)NCC(=O)N)NC(=O)[C@@H]1CCCN1C(=O)[C@@H]1CSSC[C@H](N)C(=O)N[C@@H](Cc2ccccc2)C(=O)N[C@H](C(=O)N[C@H](C(=O)N[C@H](C(=O)N1)CC(=O)N)CC(=O)NC(CO)CO)[C@H](CC)C

>  <CID>  (1) 
53362312.0

>  <ChEMBL ID>  (1) 
nan

>  <InChiKey>  (1) 
CYMAISVBMAEFMP-CKNUHMDMSA-N

>  <InChi>  (1) 
InChI=1S/C44H69N13O13S2/c1-3-23(2)36-43(69)54-30(17-35(62)50-25(19-58)20-59)40(66)53-29(16-33(47)60)39(65)55-31(22-72-71-21-26(46)37(63)52-28(41(67)56-36)15-24-9-5-4-6-10-24)44(70)57-14-8-12-32(57)42(68)51-27(11-7-13-45)38(64)49-18-34(48)61/h4-6,9-10,23,25-32,36,58-59H,3,7-8,11-22,45-46H2,1-2H3,(H2,47,60)(H2,48,61)(H,49,64)(H,50,62)(H,51,68)(H,52,63)(H,53,66)(H,54,69)(H,55,65)(H,56,67)/t23-,26-,27-,28-,29-,30-,31-,32-,36-/m0/s1

>  <IUPAC Name>  (1) 
(2S)-N-[(2S)-5-amino-1-[(2-amino-2-oxoethyl)amino]-1-oxopentan-2-yl]-1-[(4R,7S,10S,13S,16S,19R)-19-amino-7-(2-amino-2-oxoethyl)-16-benzyl-13-[(2S)-butan-2-yl]-10-[2-(1,3-dihydroxypropan-2-ylamino)-2-oxoethyl]-6,9,12,15,18-pentaoxo-1,2-dithia-5,8,11,14,17-pentazacycloicosane-4-carbonyl]pyrrolidine-2-carboxamide

$$$$
