
     RDKit          3D

 22 22  0  0  0  0  0  0  0  0999 V2000
   -3.1296    1.5604    0.7179 O   0  0  0  0  0  0  0  0  0  0  0  0
   -2.3410    1.0221   -0.2875 C   0  0  0  0  0  0  0  0  0  0  0  0
   -2.6027    1.3683   -1.4666 O   0  0  0  0  0  0  0  0  0  0  0  0
   -1.2385    0.0822   -0.0008 C   0  0  0  0  0  0  0  0  0  0  0  0
   -1.0545   -0.2229    1.3905 N   0  0  0  0  0  0  0  0  0  0  0  0
   -1.2659   -1.1364   -0.9347 C   0  0  0  0  0  0  0  0  0  0  0  0
   -0.1711   -0.0688   -1.0092 C   0  0  0  0  0  0  0  0  0  0  0  0
   -0.2351    0.8082   -2.0883 F   0  0  0  0  0  0  0  0  0  0  0  0
    1.1861   -0.5866   -0.6883 C   0  0  0  0  0  0  0  0  0  0  0  0
    2.1242    0.3454    0.5069 P   0  0  0  0  0  0  0  0  0  0  0  0
    1.2403    1.1450    1.4447 O   0  0  0  0  0  0  0  0  0  0  0  0
    3.0883   -0.7238    1.3964 O   0  0  0  0  0  0  0  0  0  0  0  0
    3.2158    1.4288   -0.2469 O   0  0  0  0  0  0  0  0  0  0  0  0
   -3.5276    2.4744    0.5416 H   0  0  0  0  0  0  0  0  0  0  0  0
   -0.5062   -1.1022    1.5373 H   0  0  0  0  0  0  0  0  0  0  0  0
   -1.9558   -0.2681    1.8770 H   0  0  0  0  0  0  0  0  0  0  0  0
   -1.0223   -2.1057   -0.4790 H   0  0  0  0  0  0  0  0  0  0  0  0
   -1.9526   -1.1571   -1.7846 H   0  0  0  0  0  0  0  0  0  0  0  0
    1.1853   -1.6657   -0.4036 H   0  0  0  0  0  0  0  0  0  0  0  0
    1.7926   -0.5616   -1.6418 H   0  0  0  0  0  0  0  0  0  0  0  0
    3.2641   -1.5791    0.9340 H   0  0  0  0  0  0  0  0  0  0  0  0
    3.9062    0.9434   -0.7451 H   0  0  0  0  0  0  0  0  0  0  0  0
  1  2  1  0
  2  3  2  0
  2  4  1  0
  4  5  1  0
  4  6  1  0
  6  7  1  0
  7  8  1  0
  7  9  1  0
  9 10  1  0
 10 11  2  0
 10 12  1  0
 10 13  1  0
  7  4  1  0
  1 14  1  0
  5 15  1  0
  5 16  1  0
  6 17  1  0
  6 18  1  0
  9 19  1  0
  9 20  1  0
 12 21  1  0
 13 22  1  0
M  END
>  <Ligand ID>  (1) 
LIG0000833

>  <Ligand>  (1) 
CHEMBL3427499

>  <SMILES>  (1) 
OC(=O)C1(N)CC1(F)CP(=O)(O)O

>  <CID>  (1) 
57519364.0

>  <ChEMBL ID>  (1) 
nan

>  <InChiKey>  (1) 
VHMPIZVLCHCGBT-UHFFFAOYSA-N

>  <InChi>  (1) 
InChI=1S/C5H9FNO5P/c6-4(2-13(10,11)12)1-5(4,7)3(8)9/h1-2,7H2,(H,8,9)(H2,10,11,12)

>  <IUPAC Name>  (1) 
1-amino-2-fluoro-2-(phosphonomethyl)cyclopropane-1-carboxylic acid

$$$$
