
     RDKit          3D

 18 18  0  0  0  0  0  0  0  0999 V2000
   -2.4621   -0.2473   -0.0221 C   0  0  0  0  0  0  0  0  0  0  0  0
   -1.3695   -0.2822   -1.0693 C   0  0  0  0  0  0  0  0  0  0  0  0
   -0.0295   -0.3112   -0.3817 C   0  0  0  0  0  0  0  0  0  0  0  0
    0.6422   -1.4361   -0.2764 O   0  0  0  0  0  0  0  0  0  0  0  0
    1.8041   -1.5292    0.3076 C   0  0  0  0  0  0  0  0  0  0  0  0
    2.3733   -0.3718    0.8550 C   0  0  0  0  0  0  0  0  0  0  0  0
    1.7210    0.8431    0.7791 C   0  0  0  0  0  0  0  0  0  0  0  0
    2.2427    1.8717    1.2758 O   0  0  0  0  0  0  0  0  0  0  0  0
    0.4799    0.8662    0.1377 C   0  0  0  0  0  0  0  0  0  0  0  0
   -0.2153    2.0508    0.0290 O   0  0  0  0  0  0  0  0  0  0  0  0
   -3.3887   -0.7555   -0.4216 H   0  0  0  0  0  0  0  0  0  0  0  0
   -2.7579    0.7954    0.1893 H   0  0  0  0  0  0  0  0  0  0  0  0
   -2.0738   -0.7678    0.8821 H   0  0  0  0  0  0  0  0  0  0  0  0
   -1.3996    0.6636   -1.6831 H   0  0  0  0  0  0  0  0  0  0  0  0
   -1.4218   -1.2006   -1.6817 H   0  0  0  0  0  0  0  0  0  0  0  0
    2.3313   -2.4854    0.3750 H   0  0  0  0  0  0  0  0  0  0  0  0
    3.3493   -0.4423    1.3466 H   0  0  0  0  0  0  0  0  0  0  0  0
    0.1745    2.7384   -0.6411 H   0  0  0  0  0  0  0  0  0  0  0  0
  1  2  1  0
  2  3  1  0
  3  4  1  0
  4  5  1  0
  5  6  2  0
  6  7  1  0
  7  8  2  0
  7  9  1  0
  9 10  1  0
  9  3  2  0
  1 11  1  0
  1 12  1  0
  1 13  1  0
  2 14  1  0
  2 15  1  0
  5 16  1  0
  6 17  1  0
 10 18  1  0
M  END
>  <Ligand ID>  (1) 
LIG0000186

>  <Ligand>  (1) 
Ethyl Maltol

>  <SMILES>  (1) 
CCc1occc(=O)c1O

>  <CID>  (1) 
21059.0

>  <ChEMBL ID>  (1) 
nan

>  <InChiKey>  (1) 
YIKYNHJUKRTCJL-UHFFFAOYSA-N

>  <InChi>  (1) 
InChI=1S/C7H8O3/c1-2-6-7(9)5(8)3-4-10-6/h3-4,9H,2H2,1H3

>  <IUPAC Name>  (1) 
2-ethyl-3-hydroxypyran-4-one

$$$$
