
     RDKit          3D

 35 37  0  0  0  0  0  0  0  0999 V2000
    1.2099    2.4406    1.1083 O   0  0  0  0  0  0  0  0  0  0  0  0
    0.9708    1.2494    0.7734 C   0  0  0  0  0  0  0  0  0  0  0  0
   -0.3248    0.7113    0.5462 N   0  0  0  0  0  0  0  0  0  0  0  0
   -1.6779    1.2451    0.5925 C   0  0  0  0  0  0  0  0  0  0  0  0
   -2.6244    0.4324   -0.2589 C   0  0  0  0  0  0  0  0  0  0  0  0
   -3.3219   -0.6383    0.5560 C   0  0  0  0  0  0  0  0  0  0  0  0
   -3.7057    1.3744   -0.7493 C   0  0  0  0  0  0  0  0  0  0  0  0
   -1.9805   -0.1122   -1.4308 N   0  0  0  0  0  0  0  0  0  0  0  0
   -0.7743   -0.8395   -1.1795 C   0  0  0  0  0  0  0  0  0  0  0  0
   -0.2005   -0.6915    0.1882 C   0  0  1  0  0  0  0  0  0  0  0  0
    1.2382   -0.9963    0.1885 C   0  0  0  0  0  0  0  0  0  0  0  0
    1.9099    0.1608    0.5413 C   0  0  0  0  0  0  0  0  0  0  0  0
    3.2952    0.1751    0.6293 C   0  0  0  0  0  0  0  0  0  0  0  0
    3.9535   -1.0051    0.3508 C   0  0  0  0  0  0  0  0  0  0  0  0
    3.2979   -2.1584   -0.0002 C   0  0  0  0  0  0  0  0  0  0  0  0
    1.9081   -2.1495   -0.0821 C   0  0  0  0  0  0  0  0  0  0  0  0
    4.0452    1.3936    1.0036 C   0  0  0  0  0  0  0  0  0  0  0  0
    5.3969    1.1061    1.0081 F   0  0  0  0  0  0  0  0  0  0  0  0
    3.8532    2.4410    0.1380 F   0  0  0  0  0  0  0  0  0  0  0  0
    3.7326    1.7536    2.3113 F   0  0  0  0  0  0  0  0  0  0  0  0
   -2.0398    1.2219    1.6290 H   0  0  0  0  0  0  0  0  0  0  0  0
   -1.7144    2.2938    0.2404 H   0  0  0  0  0  0  0  0  0  0  0  0
   -2.9574   -1.6613    0.3437 H   0  0  0  0  0  0  0  0  0  0  0  0
   -4.4098   -0.6590    0.3547 H   0  0  0  0  0  0  0  0  0  0  0  0
   -3.1857   -0.3365    1.6316 H   0  0  0  0  0  0  0  0  0  0  0  0
   -4.5997    0.7758   -0.9711 H   0  0  0  0  0  0  0  0  0  0  0  0
   -3.3612    1.9716   -1.6206 H   0  0  0  0  0  0  0  0  0  0  0  0
   -3.9857    2.0210    0.1222 H   0  0  0  0  0  0  0  0  0  0  0  0
   -2.6712   -0.5553   -2.0377 H   0  0  0  0  0  0  0  0  0  0  0  0
   -0.9435   -1.9226   -1.3930 H   0  0  0  0  0  0  0  0  0  0  0  0
    0.0202   -0.5374   -1.9032 H   0  0  0  0  0  0  0  0  0  0  0  0
   -0.6585   -1.3540    0.9583 H   0  0  0  0  0  0  0  0  0  0  0  0
    5.0383   -1.0412    0.4069 H   0  0  0  0  0  0  0  0  0  0  0  0
    3.8756   -3.0503   -0.2059 H   0  0  0  0  0  0  0  0  0  0  0  0
    1.3914   -3.0594   -0.3590 H   0  0  0  0  0  0  0  0  0  0  0  0
  1  2  2  0
  2  3  1  0
  3  4  1  0
  4  5  1  0
  5  6  1  0
  5  7  1  0
  5  8  1  0
  8  9  1  0
  9 10  1  0
 10 11  1  0
 11 12  2  0
 12 13  1  0
 13 14  2  0
 14 15  1  0
 15 16  2  0
 13 17  1  0
 17 18  1  0
 17 19  1  0
 17 20  1  0
 12  2  1  0
 10  3  1  0
 16 11  1  0
  4 21  1  0
  4 22  1  0
  6 23  1  0
  6 24  1  0
  6 25  1  0
  7 26  1  0
  7 27  1  0
  7 28  1  0
  8 29  1  0
  9 30  1  0
  9 31  1  0
 10 32  1  1
 14 33  1  0
 15 34  1  0
 16 35  1  0
M  END
>  <Ligand ID>  (1) 
LIG0003574

>  <Ligand>  (1) 
CHEMBL220789

>  <SMILES>  (1) 
O=C1N2CC(C)(C)NC[C@H]2c2c1c(ccc2)C(F)(F)F

>  <CID>  (1) 
44420683.0

>  <ChEMBL ID>  (1) 
nan

>  <InChiKey>  (1) 
GMURJUIWIJZOLD-JTQLQIEISA-N

>  <InChi>  (1) 
InChI=1S/C14H15F3N2O/c1-13(2)7-19-10(6-18-13)8-4-3-5-9(14(15,16)17)11(8)12(19)20/h3-5,10,18H,6-7H2,1-2H3/t10-/m0/s1

>  <IUPAC Name>  (1) 
(10bR)-3,3-dimethyl-7-(trifluoromethyl)-1,2,4,10b-tetrahydropyrazino[1,2-b]isoindol-6-one

$$$$
