
     RDKit          3D

 61 63  0  0  0  0  0  0  0  0999 V2000
    8.4146   -1.0191   -0.3784 O   0  0  0  0  0  0  0  0  0  0  0  0
    8.0492    0.2117    0.1922 C   0  0  0  0  0  0  0  0  0  0  0  0
    8.3494    1.2989   -0.3967 O   0  0  0  0  0  0  0  0  0  0  0  0
    7.3163    0.2543    1.4727 C   0  0  0  0  0  0  0  0  0  0  0  0
    6.0067    1.0394    1.2910 C   0  0  0  0  0  0  0  0  0  0  0  0
    5.1702    0.3592    0.2715 C   0  0  0  0  0  0  0  0  0  0  0  0
    3.8419    0.9889   -0.0232 C   0  0  2  0  0  0  0  0  0  0  0  0
    2.9715    1.0598    1.1984 C   0  0  0  0  0  0  0  0  0  0  0  0
    1.5768    1.4685    0.9228 C   0  0  0  0  0  0  0  0  0  0  0  0
    0.8148    0.7206   -0.0976 C   0  0  1  0  0  0  0  0  0  0  0  0
    1.2051   -0.6792   -0.3702 C   0  0  1  0  0  0  0  0  0  0  0  0
    2.5673   -0.9199   -0.3069 O   0  0  0  0  0  0  0  0  0  0  0  0
    3.1822    0.0758   -1.0698 C   0  0  0  0  0  0  0  0  0  0  0  0
    0.3775   -1.6167    0.4413 C   0  0  0  0  0  0  0  0  0  0  0  0
   -0.7458   -0.7539    1.0109 C   0  0  2  0  0  0  0  0  0  0  0  0
   -0.6389    0.5726    0.3638 C   0  0  2  0  0  0  0  0  0  0  0  0
   -1.5937    0.8870   -0.6917 C   0  0  0  0  0  0  0  0  0  0  0  0
   -2.5038    0.0644   -1.1965 C   0  0  0  0  0  0  0  0  0  0  0  0
   -3.4224    0.5514   -2.2924 C   0  0  2  0  0  0  0  0  0  0  0  0
   -4.3806    1.5708   -1.7623 C   0  0  0  0  0  0  0  0  0  0  0  0
   -5.1909    1.2464   -0.7400 O   0  0  0  0  0  0  0  0  0  0  0  0
   -6.1945    0.4300   -0.3951 C   0  0  0  0  0  0  0  0  0  0  0  0
   -6.6590    0.5331    0.9335 C   0  0  0  0  0  0  0  0  0  0  0  0
   -7.6793   -0.2385    1.4155 C   0  0  0  0  0  0  0  0  0  0  0  0
   -8.2950   -1.1551    0.6034 C   0  0  0  0  0  0  0  0  0  0  0  0
   -7.8876   -1.2923   -0.6786 C   0  0  0  0  0  0  0  0  0  0  0  0
   -6.8467   -0.5022   -1.1635 C   0  0  0  0  0  0  0  0  0  0  0  0
   -4.0655   -0.5522   -2.7818 O   0  0  0  0  0  0  0  0  0  0  0  0
   -0.4396   -0.6539    2.3934 O   0  0  0  0  0  0  0  0  0  0  0  0
    8.5241   -1.1053   -1.3879 H   0  0  0  0  0  0  0  0  0  0  0  0
    7.9747    0.7696    2.1991 H   0  0  0  0  0  0  0  0  0  0  0  0
    7.1450   -0.7694    1.8359 H   0  0  0  0  0  0  0  0  0  0  0  0
    5.5708    1.1509    2.2847 H   0  0  0  0  0  0  0  0  0  0  0  0
    6.3411    2.0529    0.9512 H   0  0  0  0  0  0  0  0  0  0  0  0
    5.0661   -0.7052    0.5530 H   0  0  0  0  0  0  0  0  0  0  0  0
    5.7689    0.3412   -0.6817 H   0  0  0  0  0  0  0  0  0  0  0  0
    3.9443    1.9702   -0.4800 H   0  0  0  0  0  0  0  0  0  0  0  0
    3.4219    1.8868    1.8266 H   0  0  0  0  0  0  0  0  0  0  0  0
    2.9699    0.1063    1.7658 H   0  0  0  0  0  0  0  0  0  0  0  0
    1.5242    2.5631    0.6882 H   0  0  0  0  0  0  0  0  0  0  0  0
    1.0271    1.3982    1.9111 H   0  0  0  0  0  0  0  0  0  0  0  0
    0.7513    1.3148   -1.0354 H   0  0  0  0  0  0  0  0  0  0  0  0
    0.9348   -0.8920   -1.4473 H   0  0  0  0  0  0  0  0  0  0  0  0
    3.9524   -0.4424   -1.6862 H   0  0  0  0  0  0  0  0  0  0  0  0
    2.5153    0.6131   -1.7404 H   0  0  0  0  0  0  0  0  0  0  0  0
    0.9849   -2.1083    1.1985 H   0  0  0  0  0  0  0  0  0  0  0  0
   -0.1348   -2.4116   -0.1793 H   0  0  0  0  0  0  0  0  0  0  0  0
   -1.7149   -1.2513    0.9853 H   0  0  0  0  0  0  0  0  0  0  0  0
   -0.8120    1.3418    1.1734 H   0  0  0  0  0  0  0  0  0  0  0  0
   -1.5710    1.8918   -1.1200 H   0  0  0  0  0  0  0  0  0  0  0  0
   -2.5712   -0.9498   -0.8092 H   0  0  0  0  0  0  0  0  0  0  0  0
   -2.8309    1.0251   -3.1043 H   0  0  0  0  0  0  0  0  0  0  0  0
   -3.7138    2.4397   -1.4139 H   0  0  0  0  0  0  0  0  0  0  0  0
   -4.9357    2.0694   -2.6185 H   0  0  0  0  0  0  0  0  0  0  0  0
   -6.2025    1.2459    1.6172 H   0  0  0  0  0  0  0  0  0  0  0  0
   -8.0153   -0.1431    2.4378 H   0  0  0  0  0  0  0  0  0  0  0  0
   -9.0905   -1.7554    0.9874 H   0  0  0  0  0  0  0  0  0  0  0  0
   -8.3676   -2.0214   -1.3436 H   0  0  0  0  0  0  0  0  0  0  0  0
   -6.5880   -0.6498   -2.1830 H   0  0  0  0  0  0  0  0  0  0  0  0
   -4.1845   -1.2050   -2.0451 H   0  0  0  0  0  0  0  0  0  0  0  0
   -0.9846    0.1449    2.6951 H   0  0  0  0  0  0  0  0  0  0  0  0
  1  2  1  0
  2  3  2  0
  2  4  1  0
  4  5  1  0
  5  6  1  0
  6  7  1  0
  7  8  1  0
  8  9  1  0
  9 10  1  0
 10 11  1  0
 11 12  1  0
 12 13  1  0
 11 14  1  0
 14 15  1  0
 15 16  1  0
 16 17  1  0
 17 18  2  0
 18 19  1  0
 19 20  1  0
 20 21  1  0
 21 22  1  0
 22 23  2  0
 23 24  1  0
 24 25  2  0
 25 26  1  0
 26 27  2  0
 19 28  1  0
 15 29  1  0
 13  7  1  0
 27 22  1  0
 16 10  1  0
  1 30  1  0
  4 31  1  0
  4 32  1  0
  5 33  1  0
  5 34  1  0
  6 35  1  0
  6 36  1  0
  7 37  1  6
  8 38  1  0
  8 39  1  0
  9 40  1  0
  9 41  1  0
 10 42  1  6
 11 43  1  6
 13 44  1  0
 13 45  1  0
 14 46  1  0
 14 47  1  0
 15 48  1  1
 16 49  1  1
 17 50  1  0
 18 51  1  0
 19 52  1  6
 20 53  1  0
 20 54  1  0
 23 55  1  0
 24 56  1  0
 25 57  1  0
 26 58  1  0
 27 59  1  0
 28 60  1  0
 29 61  1  0
M  END
>  <Ligand ID>  (1) 
LIG0002905

>  <Ligand>  (1) 
CHEMBL3947086

>  <SMILES>  (1) 
OC(=O)CCC[C@@H]1CC[C@H]2[C@@H](OC1)C[C@H]([C@@H]2/C=C/[C@H](COc1ccccc1)O)O

>  <CID>  (1) 
134147356.0

>  <ChEMBL ID>  (1) 
nan

>  <InChiKey>  (1) 
JBWVPQXSFRGWCV-JMKXKNLBSA-N

>  <InChi>  (1) 
InChI=1S/C23H32O6/c24-17(15-28-18-6-2-1-3-7-18)10-12-19-20-11-9-16(5-4-8-23(26)27)14-29-22(20)13-21(19)25/h1-3,6-7,10,12,16-17,19-22,24-25H,4-5,8-9,11,13-15H2,(H,26,27)/b12-10+/t16-,17-,19-,20-,21-,22+/m1/s1

>  <IUPAC Name>  (1) 
4-[(3R,5aR,6R,7R,8aS)-7-hydroxy-6-[(E,3R)-3-hydroxy-4-phenoxybut-1-enyl]-3,4,5,5a,6,7,8,8a-octahydro-2H-cyclopenta[b]oxepin-3-yl]butanoic acid

$$$$
