
     RDKit          3D

 33 35  0  0  0  0  0  0  0  0999 V2000
   -5.7780    1.1771   -1.0291 C   0  0  0  0  0  0  0  0  0  0  0  0
   -4.6554    0.3715   -0.7071 N   0  0  0  0  0  0  0  0  0  0  0  0
   -4.5189   -0.3949    0.5464 C   0  0  0  0  0  0  0  0  0  0  0  0
   -3.2623    0.0039    1.2740 C   0  0  0  0  0  0  0  0  0  0  0  0
   -2.0407   -0.2408    0.3982 C   0  0  0  0  0  0  0  0  0  0  0  0
   -2.2542   -0.0933   -0.9684 C   0  0  0  0  0  0  0  0  0  0  0  0
   -3.5100    0.2096   -1.5849 C   0  0  0  0  0  0  0  0  0  0  0  0
   -3.6804    0.3426   -2.8190 O   0  0  0  0  0  0  0  0  0  0  0  0
   -0.6798   -0.4049   -1.6896 S   0  0  0  0  0  0  0  0  0  0  0  0
    0.1522   -0.7187   -0.0258 C   0  0  0  0  0  0  0  0  0  0  0  0
   -0.8512   -0.5448    0.7860 N   0  0  0  0  0  0  0  0  0  0  0  0
    1.5787   -1.0577    0.0645 C   0  0  0  0  0  0  0  0  0  0  0  0
    2.2973    0.1670    0.2045 O   0  0  0  0  0  0  0  0  0  0  0  0
    3.6794    0.1019    0.3099 C   0  0  0  0  0  0  0  0  0  0  0  0
    4.3497    1.3086    0.4448 C   0  0  0  0  0  0  0  0  0  0  0  0
    5.7218    1.3686    0.5578 C   0  0  0  0  0  0  0  0  0  0  0  0
    6.4367    0.1675    0.5333 C   0  0  0  0  0  0  0  0  0  0  0  0
    5.7523   -1.0283    0.3980 C   0  0  0  0  0  0  0  0  0  0  0  0
    4.3783   -1.0969    0.2842 C   0  0  0  0  0  0  0  0  0  0  0  0
   -6.5411    0.5855   -1.5874 H   0  0  0  0  0  0  0  0  0  0  0  0
   -5.5160    2.0534   -1.6418 H   0  0  0  0  0  0  0  0  0  0  0  0
   -6.2560    1.4833   -0.0540 H   0  0  0  0  0  0  0  0  0  0  0  0
   -5.3844   -0.2729    1.1889 H   0  0  0  0  0  0  0  0  0  0  0  0
   -4.4139   -1.4749    0.3037 H   0  0  0  0  0  0  0  0  0  0  0  0
   -3.2144   -0.5480    2.2117 H   0  0  0  0  0  0  0  0  0  0  0  0
   -3.3180    1.1150    1.4157 H   0  0  0  0  0  0  0  0  0  0  0  0
    1.8141   -1.7433    0.8830 H   0  0  0  0  0  0  0  0  0  0  0  0
    1.9452   -1.5783   -0.8616 H   0  0  0  0  0  0  0  0  0  0  0  0
    3.8269    2.2606    0.4677 H   0  0  0  0  0  0  0  0  0  0  0  0
    6.2542    2.3096    0.6638 H   0  0  0  0  0  0  0  0  0  0  0  0
    7.5203    0.1509    0.6182 H   0  0  0  0  0  0  0  0  0  0  0  0
    6.3320   -1.9505    0.3816 H   0  0  0  0  0  0  0  0  0  0  0  0
    3.8356   -2.0286    0.1780 H   0  0  0  0  0  0  0  0  0  0  0  0
  1  2  1  0
  2  3  1  0
  3  4  1  0
  4  5  1  0
  5  6  2  0
  6  7  1  0
  7  8  2  0
  6  9  1  0
  9 10  1  0
 10 11  2  0
 10 12  1  0
 12 13  1  0
 13 14  1  0
 14 15  2  0
 15 16  1  0
 16 17  2  0
 17 18  1  0
 18 19  2  0
  7  2  1  0
 19 14  1  0
 11  5  1  0
  1 20  1  0
  1 21  1  0
  1 22  1  0
  3 23  1  0
  3 24  1  0
  4 25  1  0
  4 26  1  0
 12 27  1  0
 12 28  1  0
 15 29  1  0
 16 30  1  0
 17 31  1  0
 18 32  1  0
 19 33  1  0
M  END
>  <Ligand ID>  (1) 
LIG0000445

>  <Ligand>  (1) 
CHEMBL2426616

>  <SMILES>  (1) 
CN1CCc2c(C1=O)sc(n2)COc1ccccc1

>  <CID>  (1) 
67246999.0

>  <ChEMBL ID>  (1) 
nan

>  <InChiKey>  (1) 
AOOAPFRKSGWOER-UHFFFAOYSA-N

>  <InChi>  (1) 
InChI=1S/C14H14N2O2S/c1-16-8-7-11-13(14(16)17)19-12(15-11)9-18-10-5-3-2-4-6-10/h2-6H,7-9H2,1H3

>  <IUPAC Name>  (1) 
5-methyl-2-(phenoxymethyl)-6,7-dihydro-[1,3]thiazolo[5,4-c]pyridin-4-one

$$$$
