
     RDKit          3D

 68 71  0  0  0  0  0  0  0  0999 V2000
    0.5819    0.9770    2.7315 O   0  0  0  0  0  0  0  0  0  0  0  0
    0.8702    0.0546    1.9194 C   0  0  0  0  0  0  0  0  0  0  0  0
    2.1873    0.1934    1.2221 C   0  0  2  0  0  0  0  0  0  0  0  0
    2.3409    1.5310    0.5787 C   0  0  0  0  0  0  0  0  0  0  0  0
    3.6405    1.6223   -0.1022 C   0  0  0  0  0  0  0  0  0  0  0  0
    3.8675    1.1002   -1.3707 C   0  0  0  0  0  0  0  0  0  0  0  0
    2.8150    0.4649   -2.1868 C   0  0  0  0  0  0  0  0  0  0  0  0
    5.1334    1.1863   -1.9608 C   0  0  0  0  0  0  0  0  0  0  0  0
    6.1984    1.7815   -1.3303 C   0  0  0  0  0  0  0  0  0  0  0  0
    5.9731    2.3005   -0.0729 C   0  0  0  0  0  0  0  0  0  0  0  0
    4.7120    2.2237    0.5362 C   0  0  0  0  0  0  0  0  0  0  0  0
    4.6172    2.8278    1.8867 C   0  0  0  0  0  0  0  0  0  0  0  0
    7.4220    1.8391   -1.9556 O   0  0  0  0  0  0  0  0  0  0  0  0
    2.5198   -0.8984    0.3774 N   0  0  0  0  0  0  0  0  0  0  0  0
    0.0210   -1.0541    1.6624 N   0  0  0  0  0  0  0  0  0  0  0  0
   -1.2632   -1.2415    2.3089 C   0  0  2  0  0  0  0  0  0  0  0  0
   -1.2631   -2.5859    2.9978 C   0  0  0  0  0  0  0  0  0  0  0  0
   -1.0421   -3.7390    2.0362 C   0  0  0  0  0  0  0  0  0  0  0  0
   -1.5134   -3.4063    0.6817 N   0  0  0  0  0  0  0  0  0  0  0  0
   -2.4565   -2.3585    0.4961 C   0  0  0  0  0  0  0  0  0  0  0  0
   -2.3757   -1.2263    1.3009 C   0  0  0  0  0  0  0  0  0  0  0  0
   -3.2537   -0.1830    1.1708 C   0  0  0  0  0  0  0  0  0  0  0  0
   -4.2318   -0.2934    0.2049 C   0  0  0  0  0  0  0  0  0  0  0  0
   -4.3125   -1.4304   -0.6026 C   0  0  0  0  0  0  0  0  0  0  0  0
   -3.4294   -2.4842   -0.4748 C   0  0  0  0  0  0  0  0  0  0  0  0
   -5.1799    0.8298    0.0635 C   0  0  0  0  0  0  0  0  0  0  0  0
   -4.7543    1.8787   -0.8750 C   0  0  0  0  0  0  0  0  0  0  0  0
   -3.9810    2.9180   -0.3426 C   0  0  0  0  0  0  0  0  0  0  0  0
   -3.5355    3.9509   -1.1470 C   0  0  0  0  0  0  0  0  0  0  0  0
   -3.8538    3.9670   -2.5020 C   0  0  0  0  0  0  0  0  0  0  0  0
   -4.6185    2.9397   -3.0294 C   0  0  0  0  0  0  0  0  0  0  0  0
   -5.0704    1.8932   -2.2173 C   0  0  0  0  0  0  0  0  0  0  0  0
   -1.0297   -4.1112   -0.4475 C   0  0  0  0  0  0  0  0  0  0  0  0
   -1.3312   -3.8741   -1.6344 O   0  0  0  0  0  0  0  0  0  0  0  0
   -0.0747   -5.2400   -0.2144 C   0  0  0  0  0  0  0  0  0  0  0  0
    2.9368    0.1891    2.0774 H   0  0  0  0  0  0  0  0  0  0  0  0
    2.3097    2.3565    1.3488 H   0  0  0  0  0  0  0  0  0  0  0  0
    1.4954    1.7743   -0.1067 H   0  0  0  0  0  0  0  0  0  0  0  0
    3.0408   -0.6121   -2.3065 H   0  0  0  0  0  0  0  0  0  0  0  0
    2.9163    0.8638   -3.2504 H   0  0  0  0  0  0  0  0  0  0  0  0
    1.7962    0.5776   -1.8235 H   0  0  0  0  0  0  0  0  0  0  0  0
    5.3055    0.7722   -2.9599 H   0  0  0  0  0  0  0  0  0  0  0  0
    6.8136    2.7770    0.4392 H   0  0  0  0  0  0  0  0  0  0  0  0
    4.2878    3.8852    1.8289 H   0  0  0  0  0  0  0  0  0  0  0  0
    3.9350    2.3033    2.5687 H   0  0  0  0  0  0  0  0  0  0  0  0
    5.6147    2.8559    2.3844 H   0  0  0  0  0  0  0  0  0  0  0  0
    8.2227    1.4640   -1.4438 H   0  0  0  0  0  0  0  0  0  0  0  0
    2.3123   -1.8263    0.7525 H   0  0  0  0  0  0  0  0  0  0  0  0
    3.5784   -0.8856    0.2570 H   0  0  0  0  0  0  0  0  0  0  0  0
    0.2947   -1.8057    0.9740 H   0  0  0  0  0  0  0  0  0  0  0  0
   -1.4749   -0.4680    3.0520 H   0  0  0  0  0  0  0  0  0  0  0  0
   -2.2173   -2.7309    3.5586 H   0  0  0  0  0  0  0  0  0  0  0  0
   -0.4356   -2.6135    3.7291 H   0  0  0  0  0  0  0  0  0  0  0  0
   -1.6208   -4.5983    2.4390 H   0  0  0  0  0  0  0  0  0  0  0  0
    0.0291   -4.0035    1.9830 H   0  0  0  0  0  0  0  0  0  0  0  0
   -3.1547    0.6766    1.8150 H   0  0  0  0  0  0  0  0  0  0  0  0
   -5.0769   -1.5170   -1.3583 H   0  0  0  0  0  0  0  0  0  0  0  0
   -3.4588   -3.3763   -1.0743 H   0  0  0  0  0  0  0  0  0  0  0  0
   -5.3270    1.2800    1.0656 H   0  0  0  0  0  0  0  0  0  0  0  0
   -6.1631    0.4015   -0.2431 H   0  0  0  0  0  0  0  0  0  0  0  0
   -3.7255    2.9112    0.7288 H   0  0  0  0  0  0  0  0  0  0  0  0
   -2.9318    4.7686   -0.7475 H   0  0  0  0  0  0  0  0  0  0  0  0
   -3.4858    4.7919   -3.0903 H   0  0  0  0  0  0  0  0  0  0  0  0
   -4.8596    2.9660   -4.0899 H   0  0  0  0  0  0  0  0  0  0  0  0
   -5.6722    1.0827   -2.6291 H   0  0  0  0  0  0  0  0  0  0  0  0
    0.1535   -5.8035   -1.1393 H   0  0  0  0  0  0  0  0  0  0  0  0
   -0.5873   -5.9424    0.4798 H   0  0  0  0  0  0  0  0  0  0  0  0
    0.8188   -4.8674    0.3181 H   0  0  0  0  0  0  0  0  0  0  0  0
  1  2  2  0
  2  3  1  0
  3  4  1  0
  4  5  1  0
  5  6  2  0
  6  7  1  0
  6  8  1  0
  8  9  2  0
  9 10  1  0
 10 11  2  0
 11 12  1  0
  9 13  1  0
  3 14  1  0
  2 15  1  0
 15 16  1  0
 16 17  1  0
 17 18  1  0
 18 19  1  0
 19 20  1  0
 20 21  2  0
 21 22  1  0
 22 23  2  0
 23 24  1  0
 24 25  2  0
 23 26  1  0
 26 27  1  0
 27 28  2  0
 28 29  1  0
 29 30  2  0
 30 31  1  0
 31 32  2  0
 19 33  1  0
 33 34  2  0
 33 35  1  0
 11  5  1  0
 21 16  1  0
 32 27  1  0
 25 20  1  0
  3 36  1  1
  4 37  1  0
  4 38  1  0
  7 39  1  0
  7 40  1  0
  7 41  1  0
  8 42  1  0
 10 43  1  0
 12 44  1  0
 12 45  1  0
 12 46  1  0
 13 47  1  0
 14 48  1  0
 14 49  1  0
 15 50  1  0
 16 51  1  1
 17 52  1  0
 17 53  1  0
 18 54  1  0
 18 55  1  0
 22 56  1  0
 24 57  1  0
 25 58  1  0
 26 59  1  0
 26 60  1  0
 28 61  1  0
 29 62  1  0
 30 63  1  0
 31 64  1  0
 32 65  1  0
 35 66  1  0
 35 67  1  0
 35 68  1  0
M  END
>  <Ligand ID>  (1) 
LIG0003755

>  <Ligand>  (1) 
CHEMBL3634247

>  <SMILES>  (1) 
O=C([C@H](Cc1c(C)cc(cc1C)O)N)N[C@@H]1CCN(c2c1cc(cc2)Cc1ccccc1)C(=O)C

>  <CID>  (1) 
122195953.0

>  <ChEMBL ID>  (1) 
nan

>  <InChiKey>  (1) 
MLGZKVPTJOZDIX-RRPNLBNLSA-N

>  <InChi>  (1) 
InChI=1S/C29H33N3O3/c1-18-13-23(34)14-19(2)24(18)17-26(30)29(35)31-27-11-12-32(20(3)33)28-10-9-22(16-25(27)28)15-21-7-5-4-6-8-21/h4-10,13-14,16,26-27,34H,11-12,15,17,30H2,1-3H3,(H,31,35)/t26-,27+/m0/s1

>  <IUPAC Name>  (1) 
(2S)-N-[(4R)-1-acetyl-6-benzyl-3,4-dihydro-2H-quinolin-4-yl]-2-amino-3-(4-hydroxy-2,6-dimethylphenyl)propanamide

$$$$
