
     RDKit          3D

 92104  0  0  0  0  0  0  0  0999 V2000
   -3.1563   -3.1858   -4.3853 O   0  0  0  0  0  0  0  0  0  0  0  0
   -3.5403   -2.1310   -3.5784 C   0  0  0  0  0  0  0  0  0  0  0  0
   -4.0941   -0.9641   -4.0962 C   0  0  0  0  0  0  0  0  0  0  0  0
   -4.4752    0.0897   -3.2556 C   0  0  0  0  0  0  0  0  0  0  0  0
   -4.2925   -0.0465   -1.8927 C   0  0  0  0  0  0  0  0  0  0  0  0
   -3.7512   -1.1989   -1.4366 C   0  0  0  0  0  0  0  0  0  0  0  0
   -3.3661   -2.2466   -2.2092 C   0  0  0  0  0  0  0  0  0  0  0  0
   -2.8685   -3.2109   -1.3444 O   0  0  0  0  0  0  0  0  0  0  0  0
   -2.5057   -2.5763   -0.1059 C   0  0  2  0  0  0  0  0  0  0  0  0
   -3.5120   -1.4698    0.0133 C   0  0  2  0  0  0  0  0  0  0  0  0
   -4.7569   -1.9223    0.7067 C   0  0  0  0  0  0  0  0  0  0  0  0
   -5.7557   -0.8386    0.8955 C   0  0  0  0  0  0  0  0  0  0  0  0
   -5.1793    0.4049    1.3656 N   0  0  0  0  0  0  0  0  0  0  0  0
   -4.1544    0.8316    0.4403 C   0  0  2  0  0  0  0  0  0  0  0  0
   -4.6584    1.0145   -0.9483 C   0  0  0  0  0  0  0  0  0  0  0  0
   -3.0245   -0.1908    0.5773 C   0  0  1  0  0  0  0  0  0  0  0  0
   -2.8692   -0.3817    1.9631 O   0  0  0  0  0  0  0  0  0  0  0  0
   -1.7307    0.3192    0.0574 C   0  0  0  0  0  0  0  0  0  0  0  0
   -0.7378   -0.7776    0.0190 C   0  0  0  0  0  0  0  0  0  0  0  0
   -1.1169   -2.1228   -0.0670 C   0  0  0  0  0  0  0  0  0  0  0  0
    0.0215   -2.8356   -0.0937 N   0  0  0  0  0  0  0  0  0  0  0  0
    1.0776   -2.0025   -0.0284 C   0  0  0  0  0  0  0  0  0  0  0  0
    0.6485   -0.7040    0.0444 C   0  0  0  0  0  0  0  0  0  0  0  0
    1.5129    0.4882    0.1487 C   0  0  0  0  0  0  0  0  0  0  0  0
    2.8274    0.1864   -0.5115 C   0  0  2  0  0  0  0  0  0  0  0  0
    3.3756   -1.0875   -0.0092 C   0  0  2  0  0  0  0  0  0  0  0  0
    2.5040   -2.3068   -0.0389 C   0  0  1  0  0  0  0  0  0  0  0  0
    2.9395   -3.0644    1.1214 O   0  0  0  0  0  0  0  0  0  0  0  0
    3.2881   -2.1028    2.0972 C   0  0  0  0  0  0  0  0  0  0  0  0
    3.5201   -0.9088    1.4688 C   0  0  0  0  0  0  0  0  0  0  0  0
    3.8691    0.2672    2.0317 C   0  0  0  0  0  0  0  0  0  0  0  0
    4.0304    1.4738    1.2255 C   0  0  0  0  0  0  0  0  0  0  0  0
    3.8889    1.2535   -0.2113 C   0  0  1  0  0  0  0  0  0  0  0  0
    5.0887    0.9752   -0.9326 N   0  0  0  0  0  0  0  0  0  0  0  0
    5.1581   -0.2920   -1.5789 C   0  0  0  0  0  0  0  0  0  0  0  0
    4.6878   -1.4200   -0.6743 C   0  0  0  0  0  0  0  0  0  0  0  0
    5.6704    1.9952   -1.6991 C   0  0  0  0  0  0  0  0  0  0  0  0
    6.9403    1.5558   -2.3999 C   0  0  0  0  0  0  0  0  0  0  0  0
    8.1209    1.0605   -1.6846 C   0  0  0  0  0  0  0  0  0  0  0  0
    8.1283    2.4927   -2.1489 C   0  0  0  0  0  0  0  0  0  0  0  0
    4.0140    0.2504    3.4313 C   0  0  0  0  0  0  0  0  0  0  0  0
    3.7920   -0.9427    4.1211 C   0  0  0  0  0  0  0  0  0  0  0  0
    3.4304   -2.1164    3.4673 C   0  0  0  0  0  0  0  0  0  0  0  0
    3.2063   -3.3068    4.1450 O   0  0  0  0  0  0  0  0  0  0  0  0
    2.5637    0.1551   -1.8889 O   0  0  0  0  0  0  0  0  0  0  0  0
   -6.2311    1.3419    1.5894 C   0  0  0  0  0  0  0  0  0  0  0  0
   -5.8116    2.6849    2.0790 C   0  0  0  0  0  0  0  0  0  0  0  0
   -6.9309    3.7387    2.3363 C   0  0  0  0  0  0  0  0  0  0  0  0
   -6.2905    3.0687    3.4712 C   0  0  0  0  0  0  0  0  0  0  0  0
   -3.0570   -4.1251   -4.0755 H   0  0  0  0  0  0  0  0  0  0  0  0
   -4.2156   -0.9092   -5.1715 H   0  0  0  0  0  0  0  0  0  0  0  0
   -4.9090    0.9955   -3.6838 H   0  0  0  0  0  0  0  0  0  0  0  0
   -2.7387   -3.3341    0.6845 H   0  0  0  0  0  0  0  0  0  0  0  0
   -5.2349   -2.7225    0.0773 H   0  0  0  0  0  0  0  0  0  0  0  0
   -4.4812   -2.3676    1.6855 H   0  0  0  0  0  0  0  0  0  0  0  0
   -6.4410   -1.1705    1.7323 H   0  0  0  0  0  0  0  0  0  0  0  0
   -6.4018   -0.6279    0.0475 H   0  0  0  0  0  0  0  0  0  0  0  0
   -3.7073    1.7856    0.7842 H   0  0  0  0  0  0  0  0  0  0  0  0
   -4.3402    1.9763   -1.3993 H   0  0  0  0  0  0  0  0  0  0  0  0
   -5.7721    1.0446   -0.9270 H   0  0  0  0  0  0  0  0  0  0  0  0
   -2.9752    0.5141    2.3666 H   0  0  0  0  0  0  0  0  0  0  0  0
   -1.3950    1.1273    0.7623 H   0  0  0  0  0  0  0  0  0  0  0  0
   -1.8490    0.7215   -0.9525 H   0  0  0  0  0  0  0  0  0  0  0  0
    0.0773   -3.8899   -0.1563 H   0  0  0  0  0  0  0  0  0  0  0  0
    1.0201    1.3875   -0.3022 H   0  0  0  0  0  0  0  0  0  0  0  0
    1.6187    0.6556    1.2614 H   0  0  0  0  0  0  0  0  0  0  0  0
    2.7449   -2.9450   -0.9088 H   0  0  0  0  0  0  0  0  0  0  0  0
    4.9226    2.0787    1.5179 H   0  0  0  0  0  0  0  0  0  0  0  0
    3.1755    2.1561    1.5388 H   0  0  0  0  0  0  0  0  0  0  0  0
    3.4659    2.1938   -0.6771 H   0  0  0  0  0  0  0  0  0  0  0  0
    6.2530   -0.5248   -1.7488 H   0  0  0  0  0  0  0  0  0  0  0  0
    4.7201   -0.3404   -2.5872 H   0  0  0  0  0  0  0  0  0  0  0  0
    4.5972   -2.3279   -1.2929 H   0  0  0  0  0  0  0  0  0  0  0  0
    5.4195   -1.5763    0.1476 H   0  0  0  0  0  0  0  0  0  0  0  0
    5.8953    2.8643   -1.0443 H   0  0  0  0  0  0  0  0  0  0  0  0
    5.0278    2.4077   -2.5064 H   0  0  0  0  0  0  0  0  0  0  0  0
    6.8698    1.3311   -3.4999 H   0  0  0  0  0  0  0  0  0  0  0  0
    8.1210    0.9154   -0.6020 H   0  0  0  0  0  0  0  0  0  0  0  0
    8.7486    0.3152   -2.2345 H   0  0  0  0  0  0  0  0  0  0  0  0
    8.8492    2.6952   -2.9390 H   0  0  0  0  0  0  0  0  0  0  0  0
    8.0261    3.2918   -1.3852 H   0  0  0  0  0  0  0  0  0  0  0  0
    4.2919    1.1510    3.9347 H   0  0  0  0  0  0  0  0  0  0  0  0
    3.9085   -0.9419    5.2031 H   0  0  0  0  0  0  0  0  0  0  0  0
    3.9636   -3.7230    4.6850 H   0  0  0  0  0  0  0  0  0  0  0  0
    2.0755    0.9780   -2.1133 H   0  0  0  0  0  0  0  0  0  0  0  0
   -6.9036    0.8829    2.3717 H   0  0  0  0  0  0  0  0  0  0  0  0
   -6.9078    1.4353    0.6982 H   0  0  0  0  0  0  0  0  0  0  0  0
   -4.8077    3.0973    1.8568 H   0  0  0  0  0  0  0  0  0  0  0  0
   -6.6626    4.7468    2.0002 H   0  0  0  0  0  0  0  0  0  0  0  0
   -7.9493    3.4230    2.0351 H   0  0  0  0  0  0  0  0  0  0  0  0
   -6.8874    2.3335    4.0393 H   0  0  0  0  0  0  0  0  0  0  0  0
   -5.6503    3.7271    4.1079 H   0  0  0  0  0  0  0  0  0  0  0  0
  1  2  1  0
  2  3  2  0
  3  4  1  0
  4  5  2  0
  5  6  1  0
  6  7  2  0
  7  8  1  0
  8  9  1  0
  9 10  1  0
 10 11  1  1
 11 12  1  0
 12 13  1  0
 13 14  1  0
 14 15  1  0
 14 16  1  0
 16 17  1  1
 16 18  1  0
 18 19  1  0
 19 20  2  0
 20 21  1  0
 21 22  1  0
 22 23  2  0
 23 24  1  0
 24 25  1  0
 25 26  1  0
 26 27  1  0
 27 28  1  0
 28 29  1  0
 29 30  2  0
 30 31  1  0
 31 32  1  0
 32 33  1  0
 33 34  1  0
 34 35  1  0
 35 36  1  0
 34 37  1  0
 37 38  1  0
 38 39  1  0
 39 40  1  0
 31 41  2  0
 41 42  1  0
 42 43  2  0
 43 44  1  0
 25 45  1  6
 13 46  1  0
 46 47  1  0
 47 48  1  0
 48 49  1  0
  7  2  1  0
 20  9  1  0
 27 22  1  0
 43 29  1  0
 49 47  1  0
 15  5  1  0
 23 19  1  0
 33 25  1  0
 40 38  1  0
 10  6  1  0
 26 36  1  6
 16 10  1  0
 30 26  1  0
  1 50  1  0
  3 51  1  0
  4 52  1  0
  9 53  1  1
 11 54  1  0
 11 55  1  0
 12 56  1  0
 12 57  1  0
 14 58  1  1
 15 59  1  0
 15 60  1  0
 17 61  1  0
 18 62  1  0
 18 63  1  0
 21 64  1  0
 24 65  1  0
 24 66  1  0
 27 67  1  6
 32 68  1  0
 32 69  1  0
 33 70  1  6
 35 71  1  0
 35 72  1  0
 36 73  1  0
 36 74  1  0
 37 75  1  0
 37 76  1  0
 38 77  1  0
 39 78  1  0
 39 79  1  0
 40 80  1  0
 40 81  1  0
 41 82  1  0
 42 83  1  0
 44 84  1  0
 45 85  1  0
 46 86  1  0
 46 87  1  0
 47 88  1  0
 48 89  1  0
 48 90  1  0
 49 91  1  0
 49 92  1  0
M  END
>  <Ligand ID>  (1) 
LIG0002955

>  <Ligand>  (1) 
Norbinaltorphimine

>  <SMILES>  (1) 
Oc1ccc2c3c1O[C@@H]1[C@@]43CCN([C@H](C2)[C@]4(O)Cc2c1[nH]c1c2C[C@@]2([C@@]34[C@H]1Oc1c4c(C[C@H]2N(CC3)CC2CC2)ccc1O)O)CC1CC1

>  <CID>  (1) 
5480230.0

>  <ChEMBL ID>  (1) 
nan

>  <InChiKey>  (1) 
APSUXPSYBJVPPS-YAUKWVCOSA-N

>  <InChi>  (1) 
InChI=1S/C40H43N3O6/c44-25-7-5-21-13-27-39(46)15-23-24-16-40(47)28-14-22-6-8-26(45)34-30(22)38(40,10-12-43(28)18-20-3-4-20)36(49-34)32(24)41-31(23)35-37(39,29(21)33(25)48-35)9-11-42(27)17-19-1-2-19/h5-8,19-20,27-28,35-36,41,44-47H,1-4,9-18H2/t27-,28-,35+,36+,37+,38+,39-,40-/m1/s1

>  <IUPAC Name>  (1) 
(1S,2S,7S,8S,12R,20R,24R,32R)-11,33-bis(cyclopropylmethyl)-19,25-dioxa-11,22,33-triazaundecacyclo[24.9.1.18,14.01,24.02,32.04,23.05,21.07,12.08,20.030,36.018,37]heptatriaconta-4(23),5(21),14(37),15,17,26,28,30(36)-octaene-2,7,17,27-tetrol

$$$$
