
     RDKit          3D

 60 63  0  0  0  0  0  0  0  0999 V2000
   -1.7697    1.4444    2.5667 O   0  0  0  0  0  0  0  0  0  0  0  0
   -1.1480    1.1128    1.5313 C   0  0  0  0  0  0  0  0  0  0  0  0
    0.2718    1.4321    1.4093 C   0  0  0  0  0  0  0  0  0  0  0  0
    0.8336    2.1065    2.4927 C   0  0  0  0  0  0  0  0  0  0  0  0
    2.1722    2.4236    2.4100 C   0  0  0  0  0  0  0  0  0  0  0  0
    2.9272    2.0806    1.2857 C   0  0  0  0  0  0  0  0  0  0  0  0
    2.3923    1.4164    0.2143 C   0  0  0  0  0  0  0  0  0  0  0  0
    1.0300    1.1018    0.3121 C   0  0  0  0  0  0  0  0  0  0  0  0
    3.2374    0.8644   -1.1800 S   0  0  0  0  0  0  0  0  0  0  0  0
    2.2316    0.6018   -2.2911 O   0  0  0  0  0  0  0  0  0  0  0  0
    4.0903    2.0236   -1.7030 O   0  0  0  0  0  0  0  0  0  0  0  0
    4.1900   -0.5110   -1.0068 N   0  0  0  0  0  0  0  0  0  0  0  0
    5.2742   -0.5295   -0.1161 C   0  0  0  0  0  0  0  0  0  0  0  0
    6.4627    0.2178   -0.7009 C   0  0  0  0  0  0  0  0  0  0  0  0
    6.9332   -0.5046   -1.9279 C   0  0  0  0  0  0  0  0  0  0  0  0
    5.9897   -1.5890   -2.3136 C   0  0  0  0  0  0  0  0  0  0  0  0
    4.5716   -1.0931   -2.2775 C   0  0  0  0  0  0  0  0  0  0  0  0
    4.7312    2.6679    1.2655 Br  0  0  0  0  0  0  0  0  0  0  0  0
   -1.8847    0.4336    0.5247 N   0  0  0  0  0  0  0  0  0  0  0  0
   -3.2635    0.1336    0.6668 C   0  0  1  0  0  0  0  0  0  0  0  0
   -4.2105    0.6123   -0.3392 C   0  0  2  0  0  0  0  0  0  0  0  0
   -3.8933    1.8575   -1.0794 C   0  0  0  0  0  0  0  0  0  0  0  0
   -5.5883    0.7341    0.3236 C   0  0  0  0  0  0  0  0  0  0  0  0
   -5.9514   -0.7161    0.6140 C   0  0  0  0  0  0  0  0  0  0  0  0
   -4.8416   -1.5097   -0.0595 C   0  0  2  0  0  0  0  0  0  0  0  0
   -3.5571   -1.3635    0.7101 C   0  0  0  0  0  0  0  0  0  0  0  0
   -2.4636   -2.1631    0.0642 C   0  0  0  0  0  0  0  0  0  0  0  0
   -3.7302   -1.8583    2.1309 C   0  0  0  0  0  0  0  0  0  0  0  0
   -4.5926   -0.5523   -1.2286 C   0  0  0  0  0  0  0  0  0  0  0  0
    0.2759    2.3804    3.3660 H   0  0  0  0  0  0  0  0  0  0  0  0
    2.6267    2.9480    3.2441 H   0  0  0  0  0  0  0  0  0  0  0  0
    0.5603    0.5869   -0.4917 H   0  0  0  0  0  0  0  0  0  0  0  0
    5.6097   -1.6132   -0.0474 H   0  0  0  0  0  0  0  0  0  0  0  0
    5.0332   -0.2214    0.9046 H   0  0  0  0  0  0  0  0  0  0  0  0
    6.1769    1.2498   -1.0332 H   0  0  0  0  0  0  0  0  0  0  0  0
    7.2395    0.2994    0.0897 H   0  0  0  0  0  0  0  0  0  0  0  0
    7.0296    0.1742   -2.8211 H   0  0  0  0  0  0  0  0  0  0  0  0
    7.9601   -0.9301   -1.7558 H   0  0  0  0  0  0  0  0  0  0  0  0
    6.1267   -2.5416   -1.7351 H   0  0  0  0  0  0  0  0  0  0  0  0
    6.1898   -1.8349   -3.4098 H   0  0  0  0  0  0  0  0  0  0  0  0
    4.4592   -0.3638   -3.1152 H   0  0  0  0  0  0  0  0  0  0  0  0
    3.9253   -1.9886   -2.4890 H   0  0  0  0  0  0  0  0  0  0  0  0
   -1.4050    0.1331   -0.3695 H   0  0  0  0  0  0  0  0  0  0  0  0
   -3.5791    0.5150    1.6632 H   0  0  0  0  0  0  0  0  0  0  0  0
   -2.9686    1.7425   -1.6802 H   0  0  0  0  0  0  0  0  0  0  0  0
   -3.9314    2.7751   -0.4647 H   0  0  0  0  0  0  0  0  0  0  0  0
   -4.6964    1.9941   -1.8503 H   0  0  0  0  0  0  0  0  0  0  0  0
   -5.5047    1.2463    1.2903 H   0  0  0  0  0  0  0  0  0  0  0  0
   -6.3141    1.2071   -0.3643 H   0  0  0  0  0  0  0  0  0  0  0  0
   -6.0495   -0.9376    1.6889 H   0  0  0  0  0  0  0  0  0  0  0  0
   -6.8680   -0.9486    0.0350 H   0  0  0  0  0  0  0  0  0  0  0  0
   -5.0930   -2.5068   -0.3644 H   0  0  0  0  0  0  0  0  0  0  0  0
   -2.8509   -3.1930   -0.0957 H   0  0  0  0  0  0  0  0  0  0  0  0
   -2.1466   -1.7506   -0.9152 H   0  0  0  0  0  0  0  0  0  0  0  0
   -1.6134   -2.2824    0.7636 H   0  0  0  0  0  0  0  0  0  0  0  0
   -4.5709   -2.5688    2.1508 H   0  0  0  0  0  0  0  0  0  0  0  0
   -3.9089   -0.9987    2.8413 H   0  0  0  0  0  0  0  0  0  0  0  0
   -2.7633   -2.2850    2.4681 H   0  0  0  0  0  0  0  0  0  0  0  0
   -5.5554   -0.2841   -1.7278 H   0  0  0  0  0  0  0  0  0  0  0  0
   -3.8380   -0.8770   -1.9223 H   0  0  0  0  0  0  0  0  0  0  0  0
  1  2  2  0
  2  3  1  0
  3  4  2  0
  4  5  1  0
  5  6  2  0
  6  7  1  0
  7  8  2  0
  7  9  1  0
  9 10  2  0
  9 11  2  0
  9 12  1  0
 12 13  1  0
 13 14  1  0
 14 15  1  0
 15 16  1  0
 16 17  1  0
  6 18  1  0
  2 19  1  0
 19 20  1  0
 20 21  1  0
 21 22  1  6
 21 23  1  0
 23 24  1  0
 24 25  1  0
 25 26  1  0
 26 27  1  0
 26 28  1  0
 25 29  1  0
  8  3  1  0
 17 12  1  0
 26 20  1  0
 29 21  1  0
  4 30  1  0
  5 31  1  0
  8 32  1  0
 13 33  1  0
 13 34  1  0
 14 35  1  0
 14 36  1  0
 15 37  1  0
 15 38  1  0
 16 39  1  0
 16 40  1  0
 17 41  1  0
 17 42  1  0
 19 43  1  0
 20 44  1  1
 22 45  1  0
 22 46  1  0
 22 47  1  0
 23 48  1  0
 23 49  1  0
 24 50  1  0
 24 51  1  0
 25 52  1  6
 27 53  1  0
 27 54  1  0
 27 55  1  0
 28 56  1  0
 28 57  1  0
 28 58  1  0
 29 59  1  0
 29 60  1  0
M  END
>  <Ligand ID>  (1) 
LIG0005147

>  <Ligand>  (1) 
CHEMBL256752

>  <SMILES>  (1) 
O=C(c1ccc(c(c1)S(=O)(=O)N1CCCCC1)Br)N[C@H]1[C@]2(C)CC[C@H](C1(C)C)C2

>  <CID>  (1) 
44449155.0

>  <ChEMBL ID>  (1) 
nan

>  <InChiKey>  (1) 
RCWPZOXXFWBBOR-SAWYMBPVSA-N

>  <InChi>  (1) 
InChI=1S/C22H31BrN2O3S/c1-21(2)16-9-10-22(3,14-16)20(21)24-19(26)15-7-8-17(23)18(13-15)29(27,28)25-11-5-4-6-12-25/h7-8,13,16,20H,4-6,9-12,14H2,1-3H3,(H,24,26)/t16-,20+,22+/m0/s1

>  <IUPAC Name>  (1) 
4-bromo-3-piperidin-1-ylsulfonyl-N-[(1R,2S,4S)-1,3,3-trimethyl-2-bicyclo[2.2.1]heptanyl]benzamide

$$$$
