
     RDKit          3D

102105  0  0  0  0  0  0  0  0999 V2000
    1.0501    5.2055   -6.3270 N   0  0  0  0  0  0  0  0  0  0  0  0
    2.0307    4.9740   -5.2941 C   0  0  0  0  0  0  0  0  0  0  0  0
    2.0468    3.8325   -4.6868 N   0  0  0  0  0  0  0  0  0  0  0  0
    2.9842    3.4834   -3.6331 C   0  0  0  0  0  0  0  0  0  0  0  0
    2.2114    2.6435   -2.6497 C   0  0  0  0  0  0  0  0  0  0  0  0
    3.0340    2.1968   -1.4592 C   0  0  0  0  0  0  0  0  0  0  0  0
    2.1706    1.3643   -0.5606 C   0  0  1  0  0  0  0  0  0  0  0  0
    2.8453    0.8617    0.6646 C   0  0  0  0  0  0  0  0  0  0  0  0
    2.3707    0.9867    1.8212 O   0  0  0  0  0  0  0  0  0  0  0  0
    4.1052    0.1966    0.4976 N   0  0  0  0  0  0  0  0  0  0  0  0
    4.7087   -0.2985    1.7530 C   0  0  2  0  0  0  0  0  0  0  0  0
    6.0739    0.2845    1.9379 C   0  0  0  0  0  0  0  0  0  0  0  0
    6.7038   -0.0775    2.9630 O   0  0  0  0  0  0  0  0  0  0  0  0
    6.6395    1.2069    1.0000 N   0  0  0  0  0  0  0  0  0  0  0  0
    4.9624   -1.7836    1.4727 C   0  0  0  0  0  0  0  0  0  0  0  0
    5.5562   -2.5015    2.6023 C   0  0  0  0  0  0  0  0  0  0  0  0
    6.8784   -2.8765    2.8234 C   0  0  0  0  0  0  0  0  0  0  0  0
    6.9199   -3.5183    4.0213 N   0  0  0  0  0  0  0  0  0  0  0  0
    5.6877   -3.5578    4.5505 C   0  0  0  0  0  0  0  0  0  0  0  0
    4.8014   -2.9350    3.6998 C   0  0  0  0  0  0  0  0  0  0  0  0
    3.4777   -2.8706    4.0514 C   0  0  0  0  0  0  0  0  0  0  0  0
    2.9978   -3.4035    5.2201 C   0  0  0  0  0  0  0  0  0  0  0  0
    3.8839   -4.0331    6.0835 C   0  0  0  0  0  0  0  0  0  0  0  0
    5.2357   -4.1170    5.7585 C   0  0  0  0  0  0  0  0  0  0  0  0
    0.9233    2.0302   -0.3456 N   0  0  0  0  0  0  0  0  0  0  0  0
   -0.2498    1.2829   -0.2374 C   0  0  0  0  0  0  0  0  0  0  0  0
   -0.1178    0.0048   -0.3248 O   0  0  0  0  0  0  0  0  0  0  0  0
   -1.6221    1.7664   -0.0391 C   0  0  1  0  0  0  0  0  0  0  0  0
   -2.4783    0.5539    0.0790 N   0  0  0  0  0  0  0  0  0  0  0  0
   -3.1455   -0.0124   -1.0338 C   0  0  0  0  0  0  0  0  0  0  0  0
   -3.0435    0.4790   -2.1895 O   0  0  0  0  0  0  0  0  0  0  0  0
   -3.9715   -1.2250   -0.7528 C   0  0  1  0  0  0  0  0  0  0  0  0
   -4.4957   -1.8568   -1.9394 N   0  0  0  0  0  0  0  0  0  0  0  0
   -5.9254   -1.7304   -2.1671 C   0  0  0  0  0  0  0  0  0  0  0  0
   -6.6798   -1.1202   -1.4093 O   0  0  0  0  0  0  0  0  0  0  0  0
   -6.3896   -2.4239   -3.4298 C   0  0  0  0  0  0  0  0  0  0  0  0
   -7.8565   -2.1719   -3.5894 C   0  0  0  0  0  0  0  0  0  0  0  0
   -6.2491   -3.9148   -3.1147 C   0  0  0  0  0  0  0  0  0  0  0  0
   -3.3720   -2.1619    0.2426 C   0  0  0  0  0  0  0  0  0  0  0  0
   -4.2201   -3.3794    0.5035 C   0  0  0  0  0  0  0  0  0  0  0  0
   -5.2032   -3.3757    1.4919 C   0  0  0  0  0  0  0  0  0  0  0  0
   -5.9716   -4.4893    1.7461 C   0  0  0  0  0  0  0  0  0  0  0  0
   -5.7451   -5.6253    0.9909 C   0  0  0  0  0  0  0  0  0  0  0  0
   -4.7620   -5.6356   -0.0015 C   0  0  0  0  0  0  0  0  0  0  0  0
   -3.9977   -4.5308   -0.2551 C   0  0  0  0  0  0  0  0  0  0  0  0
   -6.6714   -7.0750    1.2568 Cl  0  0  0  0  0  0  0  0  0  0  0  0
   -1.9319    2.5846    1.1374 C   0  0  0  0  0  0  0  0  0  0  0  0
   -1.2520    3.8496    1.3578 C   0  0  0  0  0  0  0  0  0  0  0  0
   -1.7971    4.9927    0.7593 C   0  0  0  0  0  0  0  0  0  0  0  0
   -1.2372    6.2397    0.9331 C   0  0  0  0  0  0  0  0  0  0  0  0
   -0.0910    6.4233    1.7196 C   0  0  0  0  0  0  0  0  0  0  0  0
    0.4250    5.2844    2.2960 C   0  0  0  0  0  0  0  0  0  0  0  0
   -0.1227    4.0314    2.1330 C   0  0  0  0  0  0  0  0  0  0  0  0
    2.9693    5.9809   -4.9380 N   0  0  0  0  0  0  0  0  0  0  0  0
    0.3161    4.5253   -6.5382 H   0  0  0  0  0  0  0  0  0  0  0  0
    1.0850    6.0906   -6.8795 H   0  0  0  0  0  0  0  0  0  0  0  0
    3.5011    4.3498   -3.1921 H   0  0  0  0  0  0  0  0  0  0  0  0
    3.7851    2.8262   -4.0847 H   0  0  0  0  0  0  0  0  0  0  0  0
    1.7514    1.8130   -3.1846 H   0  0  0  0  0  0  0  0  0  0  0  0
    1.4430    3.3498   -2.2109 H   0  0  0  0  0  0  0  0  0  0  0  0
    3.4006    3.1101   -0.9144 H   0  0  0  0  0  0  0  0  0  0  0  0
    3.9416    1.6704   -1.8122 H   0  0  0  0  0  0  0  0  0  0  0  0
    1.8915    0.4191   -1.1445 H   0  0  0  0  0  0  0  0  0  0  0  0
    4.5822    0.0525   -0.3922 H   0  0  0  0  0  0  0  0  0  0  0  0
    4.0853   -0.1291    2.6210 H   0  0  0  0  0  0  0  0  0  0  0  0
    6.0698    2.0921    0.8459 H   0  0  0  0  0  0  0  0  0  0  0  0
    7.5432    1.0289    0.5023 H   0  0  0  0  0  0  0  0  0  0  0  0
    5.7095   -1.8591    0.6248 H   0  0  0  0  0  0  0  0  0  0  0  0
    4.0441   -2.2934    1.0981 H   0  0  0  0  0  0  0  0  0  0  0  0
    7.7165   -2.6845    2.1473 H   0  0  0  0  0  0  0  0  0  0  0  0
    7.8300   -3.8923    4.3907 H   0  0  0  0  0  0  0  0  0  0  0  0
    2.7649   -2.3892    3.4002 H   0  0  0  0  0  0  0  0  0  0  0  0
    1.9386   -3.3607    5.5135 H   0  0  0  0  0  0  0  0  0  0  0  0
    3.4919   -4.4484    7.0002 H   0  0  0  0  0  0  0  0  0  0  0  0
    5.9471   -4.6008    6.4128 H   0  0  0  0  0  0  0  0  0  0  0  0
    0.8711    3.0637   -0.2815 H   0  0  0  0  0  0  0  0  0  0  0  0
   -2.0184    2.2258   -0.9975 H   0  0  0  0  0  0  0  0  0  0  0  0
   -2.5273    0.1806    1.0535 H   0  0  0  0  0  0  0  0  0  0  0  0
   -4.8872   -0.7880   -0.2248 H   0  0  0  0  0  0  0  0  0  0  0  0
   -3.8882   -2.3851   -2.6057 H   0  0  0  0  0  0  0  0  0  0  0  0
   -5.7489   -2.0901   -4.2415 H   0  0  0  0  0  0  0  0  0  0  0  0
   -8.1883   -2.0108   -4.6366 H   0  0  0  0  0  0  0  0  0  0  0  0
   -8.1540   -1.2750   -2.9765 H   0  0  0  0  0  0  0  0  0  0  0  0
   -8.4694   -3.0074   -3.1816 H   0  0  0  0  0  0  0  0  0  0  0  0
   -6.6016   -4.1054   -2.0547 H   0  0  0  0  0  0  0  0  0  0  0  0
   -5.2038   -4.2616   -3.2022 H   0  0  0  0  0  0  0  0  0  0  0  0
   -6.9142   -4.5374   -3.7497 H   0  0  0  0  0  0  0  0  0  0  0  0
   -2.3853   -2.4959   -0.1294 H   0  0  0  0  0  0  0  0  0  0  0  0
   -3.1770   -1.6722    1.2320 H   0  0  0  0  0  0  0  0  0  0  0  0
   -5.3501   -2.4855    2.0554 H   0  0  0  0  0  0  0  0  0  0  0  0
   -6.7185   -4.4382    2.5275 H   0  0  0  0  0  0  0  0  0  0  0  0
   -4.6060   -6.5395   -0.5800 H   0  0  0  0  0  0  0  0  0  0  0  0
   -3.2199   -4.4817   -1.0116 H   0  0  0  0  0  0  0  0  0  0  0  0
   -3.0701    2.7102    1.1655 H   0  0  0  0  0  0  0  0  0  0  0  0
   -1.7758    1.9751    2.0893 H   0  0  0  0  0  0  0  0  0  0  0  0
   -2.6974    4.8871    0.1335 H   0  0  0  0  0  0  0  0  0  0  0  0
   -1.7178    7.0653    0.4413 H   0  0  0  0  0  0  0  0  0  0  0  0
    0.3019    7.4061    1.8228 H   0  0  0  0  0  0  0  0  0  0  0  0
    1.3235    5.4374    2.9102 H   0  0  0  0  0  0  0  0  0  0  0  0
    0.3203    3.1658    2.6088 H   0  0  0  0  0  0  0  0  0  0  0  0
    2.6243    6.7225   -4.2874 H   0  0  0  0  0  0  0  0  0  0  0  0
    3.9461    6.0244   -5.2728 H   0  0  0  0  0  0  0  0  0  0  0  0
  1  2  1  0
  2  3  2  3
  3  4  1  0
  4  5  1  0
  5  6  1  0
  6  7  1  0
  7  8  1  0
  8  9  2  0
  8 10  1  0
 10 11  1  0
 11 12  1  0
 12 13  2  0
 12 14  1  0
 11 15  1  0
 15 16  1  0
 16 17  2  0
 17 18  1  0
 18 19  1  0
 19 20  2  0
 20 21  1  0
 21 22  2  0
 22 23  1  0
 23 24  2  0
  7 25  1  0
 25 26  1  0
 26 27  2  0
 26 28  1  0
 28 29  1  0
 29 30  1  0
 30 31  2  0
 30 32  1  0
 32 33  1  0
 33 34  1  0
 34 35  2  0
 34 36  1  0
 36 37  1  0
 36 38  1  0
 32 39  1  0
 39 40  1  0
 40 41  2  0
 41 42  1  0
 42 43  2  0
 43 44  1  0
 44 45  2  0
 43 46  1  0
 28 47  1  0
 47 48  1  0
 48 49  2  0
 49 50  1  0
 50 51  2  0
 51 52  1  0
 52 53  2  0
  2 54  1  0
 20 16  1  0
 45 40  1  0
 53 48  1  0
 24 19  1  0
  1 55  1  0
  1 56  1  0
  4 57  1  0
  4 58  1  0
  5 59  1  0
  5 60  1  0
  6 61  1  0
  6 62  1  0
  7 63  1  6
 10 64  1  0
 11 65  1  1
 14 66  1  0
 14 67  1  0
 15 68  1  0
 15 69  1  0
 17 70  1  0
 18 71  1  0
 21 72  1  0
 22 73  1  0
 23 74  1  0
 24 75  1  0
 25 76  1  0
 28 77  1  6
 29 78  1  0
 32 79  1  1
 33 80  1  0
 36 81  1  0
 37 82  1  0
 37 83  1  0
 37 84  1  0
 38 85  1  0
 38 86  1  0
 38 87  1  0
 39 88  1  0
 39 89  1  0
 41 90  1  0
 42 91  1  0
 44 92  1  0
 45 93  1  0
 47 94  1  0
 47 95  1  0
 49 96  1  0
 50 97  1  0
 51 98  1  0
 52 99  1  0
 53100  1  0
 54101  1  0
 54102  1  0
M  END
>  <Ligand ID>  (1) 
LIG0003419

>  <Ligand>  (1) 
CHEMBL359701

>  <SMILES>  (1) 
NC(=NCCC[C@@H](C(=O)N[C@H](C(=O)N)Cc1c[nH]c2c1cccc2)NC(=O)[C@@H](NC(=O)[C@@H](NC(=O)C(C)C)Cc1ccc(cc1)Cl)Cc1ccccc1)N

>  <CID>  (1) 
44394580.0

>  <ChEMBL ID>  (1) 
nan

>  <InChiKey>  (1) 
DEGBYDPGNKLUEE-YRCZKMHPSA-N

>  <InChi>  (1) 
InChI=1S/C39H48ClN9O5/c1-23(2)35(51)48-32(20-25-14-16-27(40)17-15-25)38(54)49-33(19-24-9-4-3-5-10-24)37(53)46-30(13-8-18-44-39(42)43)36(52)47-31(34(41)50)21-26-22-45-29-12-7-6-11-28(26)29/h3-7,9-12,14-17,22-23,30-33,45H,8,13,18-21H2,1-2H3,(H2,41,50)(H,46,53)(H,47,52)(H,48,51)(H,49,54)(H4,42,43,44)/t30-,31-,32-,33-/m0/s1

>  <IUPAC Name>  (1) 
(2S)-N-[(2S)-1-amino-3-(1H-indol-3-yl)-1-oxopropan-2-yl]-2-[[(2S)-2-[[(2S)-3-(4-chlorophenyl)-2-(2-methylpropanoylamino)propanoyl]amino]-3-phenylpropanoyl]amino]-5-(diaminomethylideneamino)pentanamide

$$$$
