
     RDKit          3D

 63 64  0  0  0  0  0  0  0  0999 V2000
    9.0014    0.0305   -2.4326 C   0  0  0  0  0  0  0  0  0  0  0  0
    8.7429    0.5430   -1.0538 C   0  0  0  0  0  0  0  0  0  0  0  0
    7.2277    0.7342   -0.7830 C   0  0  0  0  0  0  0  0  0  0  0  0
    6.5147   -0.5486   -0.9276 C   0  0  0  0  0  0  0  0  0  0  0  0
    5.0537   -0.5663   -0.8083 C   0  0  0  0  0  0  0  0  0  0  0  0
    4.3214   -0.1800    0.3907 C   0  0  0  0  0  0  0  0  0  0  0  0
    4.4349    1.2421    0.8290 C   0  0  0  0  0  0  0  0  0  0  0  0
    3.5072    1.4495    2.0837 C   0  0  0  0  0  0  0  0  0  0  0  0
    2.2850    1.1779    1.7528 O   0  0  0  0  0  0  0  0  0  0  0  0
    1.0763    0.9171    1.4176 C   0  0  0  0  0  0  0  0  0  0  0  0
    0.4149    1.6192    0.4077 C   0  0  0  0  0  0  0  0  0  0  0  0
   -0.8809    1.3461    0.0420 C   0  0  0  0  0  0  0  0  0  0  0  0
   -1.5291    0.3411    0.7089 C   0  0  0  0  0  0  0  0  0  0  0  0
   -0.9445   -0.3975    1.7170 C   0  0  0  0  0  0  0  0  0  0  0  0
    0.3400   -0.1000    2.0533 C   0  0  0  0  0  0  0  0  0  0  0  0
    1.0134   -0.8561    3.1219 C   0  0  0  0  0  0  0  0  0  0  0  0
    1.3649    0.0697    4.1009 F   0  0  0  0  0  0  0  0  0  0  0  0
    2.1670   -1.4249    2.5783 F   0  0  0  0  0  0  0  0  0  0  0  0
    0.1810   -1.8060    3.6468 F   0  0  0  0  0  0  0  0  0  0  0  0
   -2.9021    0.0521    0.3205 C   0  0  0  0  0  0  0  0  0  0  0  0
   -3.7239    0.5845   -0.6021 C   0  0  0  0  0  0  0  0  0  0  0  0
   -4.9247    0.1102   -0.7251 N   0  0  0  0  0  0  0  0  0  0  0  0
   -5.3470   -0.8732    0.0307 C   0  0  0  0  0  0  0  0  0  0  0  0
   -3.9161   -1.2579    1.1065 S   0  0  0  0  0  0  0  0  0  0  0  0
   -6.6500   -1.6079    0.1123 C   0  0  2  0  0  0  0  0  0  0  0  0
   -7.5269   -0.9925   -0.9192 C   0  0  0  0  0  0  0  0  0  0  0  0
   -7.7078    0.3435   -0.6293 O   0  0  0  0  0  0  0  0  0  0  0  0
   -8.6966    1.1309   -1.7532 P   0  0  0  0  0  0  0  0  0  0  0  0
  -10.1464    0.7120   -1.5730 O   0  0  0  0  0  0  0  0  0  0  0  0
   -8.6359    2.7930   -1.4406 O   0  0  0  0  0  0  0  0  0  0  0  0
   -8.2413    0.8577   -3.3407 O   0  0  0  0  0  0  0  0  0  0  0  0
   -7.2366   -1.4955    1.4317 N   0  0  0  0  0  0  0  0  0  0  0  0
   -6.3709   -3.0696   -0.1280 C   0  0  0  0  0  0  0  0  0  0  0  0
   10.0570    0.3194   -2.6931 H   0  0  0  0  0  0  0  0  0  0  0  0
    8.3613    0.5019   -3.2167 H   0  0  0  0  0  0  0  0  0  0  0  0
    8.9825   -1.0738   -2.4510 H   0  0  0  0  0  0  0  0  0  0  0  0
    9.1827    1.5489   -0.9388 H   0  0  0  0  0  0  0  0  0  0  0  0
    9.1831   -0.1364   -0.3228 H   0  0  0  0  0  0  0  0  0  0  0  0
    7.2527    1.0636    0.2955 H   0  0  0  0  0  0  0  0  0  0  0  0
    6.8424    1.5383   -1.4041 H   0  0  0  0  0  0  0  0  0  0  0  0
    6.9491   -1.2796   -0.1562 H   0  0  0  0  0  0  0  0  0  0  0  0
    6.8017   -1.0762   -1.9016 H   0  0  0  0  0  0  0  0  0  0  0  0
    4.6353    0.0372   -1.7014 H   0  0  0  0  0  0  0  0  0  0  0  0
    4.6696   -1.6282   -1.0867 H   0  0  0  0  0  0  0  0  0  0  0  0
    3.2093   -0.4604    0.2819 H   0  0  0  0  0  0  0  0  0  0  0  0
    4.5955   -0.8705    1.2740 H   0  0  0  0  0  0  0  0  0  0  0  0
    4.0150    1.8915    0.0632 H   0  0  0  0  0  0  0  0  0  0  0  0
    5.4277    1.4667    1.1992 H   0  0  0  0  0  0  0  0  0  0  0  0
    3.9037    0.7322    2.8699 H   0  0  0  0  0  0  0  0  0  0  0  0
    3.7617    2.4515    2.5141 H   0  0  0  0  0  0  0  0  0  0  0  0
    0.9198    2.4212   -0.1304 H   0  0  0  0  0  0  0  0  0  0  0  0
   -1.3856    1.8972   -0.7436 H   0  0  0  0  0  0  0  0  0  0  0  0
   -1.4959   -1.1866    2.2198 H   0  0  0  0  0  0  0  0  0  0  0  0
   -3.3656    1.4298   -1.2538 H   0  0  0  0  0  0  0  0  0  0  0  0
   -8.5041   -1.5280   -0.9180 H   0  0  0  0  0  0  0  0  0  0  0  0
   -7.0607   -1.1386   -1.9174 H   0  0  0  0  0  0  0  0  0  0  0  0
   -8.3573    2.9823   -0.5103 H   0  0  0  0  0  0  0  0  0  0  0  0
   -7.5140    1.4227   -3.6693 H   0  0  0  0  0  0  0  0  0  0  0  0
   -8.0708   -0.8981    1.4316 H   0  0  0  0  0  0  0  0  0  0  0  0
   -6.5382   -1.0703    2.1090 H   0  0  0  0  0  0  0  0  0  0  0  0
   -5.8085   -3.1706   -1.0869 H   0  0  0  0  0  0  0  0  0  0  0  0
   -5.6467   -3.3754    0.6601 H   0  0  0  0  0  0  0  0  0  0  0  0
   -7.2683   -3.6898   -0.1297 H   0  0  0  0  0  0  0  0  0  0  0  0
  1  2  1  0
  2  3  1  0
  3  4  1  0
  4  5  1  0
  5  6  1  0
  6  7  1  0
  7  8  1  0
  8  9  1  0
  9 10  1  0
 10 11  2  0
 11 12  1  0
 12 13  2  0
 13 14  1  0
 14 15  2  0
 15 16  1  0
 16 17  1  0
 16 18  1  0
 16 19  1  0
 13 20  1  0
 20 21  2  0
 21 22  1  0
 22 23  2  0
 23 24  1  0
 23 25  1  0
 25 26  1  0
 26 27  1  0
 27 28  1  0
 28 29  2  0
 28 30  1  0
 28 31  1  0
 25 32  1  1
 25 33  1  0
 15 10  1  0
 24 20  1  0
  1 34  1  0
  1 35  1  0
  1 36  1  0
  2 37  1  0
  2 38  1  0
  3 39  1  0
  3 40  1  0
  4 41  1  0
  4 42  1  0
  5 43  1  0
  5 44  1  0
  6 45  1  0
  6 46  1  0
  7 47  1  0
  7 48  1  0
  8 49  1  0
  8 50  1  0
 11 51  1  0
 12 52  1  0
 14 53  1  0
 21 54  1  0
 26 55  1  0
 26 56  1  0
 30 57  1  0
 31 58  1  0
 32 59  1  0
 32 60  1  0
 33 61  1  0
 33 62  1  0
 33 63  1  0
M  END
>  <Ligand ID>  (1) 
LIG0004292

>  <Ligand>  (1) 
SCHEMBL2947018

>  <SMILES>  (1) 
CCCCCCCCOc1ccc(cc1C(F)(F)F)c1cnc(s1)[C@](COP(=O)(O)O)(N)C

>  <CID>  (1) 
59384375.0

>  <ChEMBL ID>  (1) 
nan

>  <InChiKey>  (1) 
JYIWELIWYZVXHB-FQEVSTJZSA-N

>  <InChi>  (1) 
InChI=1S/C21H30F3N2O5PS/c1-3-4-5-6-7-8-11-30-17-10-9-15(12-16(17)21(22,23)24)18-13-26-19(33-18)20(2,25)14-31-32(27,28)29/h9-10,12-13H,3-8,11,14,25H2,1-2H3,(H2,27,28,29)/t20-/m0/s1

>  <IUPAC Name>  (1) 
[(2S)-2-amino-2-[5-[4-octoxy-3-(trifluoromethyl)phenyl]-1,3-thiazol-2-yl]propyl] dihydrogen phosphate

$$$$
