
     RDKit          3D

 24 25  0  0  0  0  0  0  0  0999 V2000
   -3.8919    0.4295    0.0028 N   0  0  0  0  0  0  0  0  0  0  0  0
   -2.5825    0.8360    0.4658 C   0  0  0  0  0  0  0  0  0  0  0  0
   -1.5139   -0.1673    0.1363 C   0  0  0  0  0  0  0  0  0  0  0  0
   -1.2060   -0.5557   -1.2511 C   0  0  0  0  0  0  0  0  0  0  0  0
   -0.3192    0.4280   -0.5945 C   0  0  0  0  0  0  0  0  0  0  0  0
    1.0238    0.0603   -0.1144 C   0  0  0  0  0  0  0  0  0  0  0  0
    2.0018   -0.1441   -1.0932 C   0  0  0  0  0  0  0  0  0  0  0  0
    3.2928   -0.5114   -0.7648 C   0  0  0  0  0  0  0  0  0  0  0  0
    3.6603   -0.6896    0.5567 C   0  0  0  0  0  0  0  0  0  0  0  0
    2.6877   -0.4853    1.5197 C   0  0  0  0  0  0  0  0  0  0  0  0
    1.3891   -0.1157    1.1926 C   0  0  0  0  0  0  0  0  0  0  0  0
    0.1564    0.1612    2.6056 Br  0  0  0  0  0  0  0  0  0  0  0  0
   -3.9871    0.6128   -1.0044 H   0  0  0  0  0  0  0  0  0  0  0  0
   -4.6007    0.9355    0.5901 H   0  0  0  0  0  0  0  0  0  0  0  0
   -2.6591    0.8840    1.5708 H   0  0  0  0  0  0  0  0  0  0  0  0
   -2.3512    1.8636    0.1160 H   0  0  0  0  0  0  0  0  0  0  0  0
   -1.3673   -0.9657    0.8826 H   0  0  0  0  0  0  0  0  0  0  0  0
   -0.7969   -1.5586   -1.4520 H   0  0  0  0  0  0  0  0  0  0  0  0
   -1.9137   -0.2159   -2.0190 H   0  0  0  0  0  0  0  0  0  0  0  0
   -0.4064    1.4627   -0.9784 H   0  0  0  0  0  0  0  0  0  0  0  0
    1.7551   -0.0139   -2.1553 H   0  0  0  0  0  0  0  0  0  0  0  0
    4.0002   -0.6532   -1.5734 H   0  0  0  0  0  0  0  0  0  0  0  0
    4.6791   -0.9787    0.7979 H   0  0  0  0  0  0  0  0  0  0  0  0
    2.9496   -0.6185    2.5634 H   0  0  0  0  0  0  0  0  0  0  0  0
  1  2  1  0
  2  3  1  0
  3  4  1  0
  4  5  1  0
  5  6  1  0
  6  7  2  0
  7  8  1  0
  8  9  2  0
  9 10  1  0
 10 11  2  0
 11 12  1  0
  5  3  1  0
 11  6  1  0
  1 13  1  0
  1 14  1  0
  2 15  1  0
  2 16  1  0
  3 17  1  0
  4 18  1  0
  4 19  1  0
  5 20  1  0
  7 21  1  0
  8 22  1  0
  9 23  1  0
 10 24  1  0
M  END
>  <Ligand ID>  (1) 
LIG0002860

>  <Ligand>  (1) 
CHEMBL492916

>  <SMILES>  (1) 
NCC1CC1c1ccccc1Br

>  <CID>  (1) 
16047544.0

>  <ChEMBL ID>  (1) 
nan

>  <InChiKey>  (1) 
WYOKWGHFWKWDEZ-UHFFFAOYSA-N

>  <InChi>  (1) 
InChI=1S/C10H12BrN/c11-10-4-2-1-3-8(10)9-5-7(9)6-12/h1-4,7,9H,5-6,12H2

>  <IUPAC Name>  (1) 
[2-(2-bromophenyl)cyclopropyl]methanamine

$$$$
