
     RDKit          3D

 21 21  0  0  0  0  0  0  0  0999 V2000
   -3.3782   -0.3522    0.7972 C   0  0  0  0  0  0  0  0  0  0  0  0
   -1.9055   -0.2113    0.5923 C   0  0  0  0  0  0  0  0  0  0  0  0
   -1.0081   -0.1956    1.6212 C   0  0  0  0  0  0  0  0  0  0  0  0
    0.3011   -0.0646    1.3443 N   0  0  0  0  0  0  0  0  0  0  0  0
    0.7461    0.0520    0.0640 C   0  0  0  0  0  0  0  0  0  0  0  0
   -0.1785    0.0352   -0.9847 C   0  0  0  0  0  0  0  0  0  0  0  0
   -1.4867   -0.0974   -0.6814 N   0  0  0  0  0  0  0  0  0  0  0  0
    0.3205    0.1634   -2.3784 C   0  0  0  0  0  0  0  0  0  0  0  0
    2.1745    0.1931   -0.2074 C   0  0  0  0  0  0  0  0  0  0  0  0
    2.6287    0.3045   -1.3880 O   0  0  0  0  0  0  0  0  0  0  0  0
    3.1294    0.2093    0.8969 C   0  0  0  0  0  0  0  0  0  0  0  0
   -3.6731   -0.3615    1.8519 H   0  0  0  0  0  0  0  0  0  0  0  0
   -3.7238   -1.2297    0.2406 H   0  0  0  0  0  0  0  0  0  0  0  0
   -3.9118    0.5253    0.3388 H   0  0  0  0  0  0  0  0  0  0  0  0
   -1.3742   -0.2894    2.6388 H   0  0  0  0  0  0  0  0  0  0  0  0
    0.7657    1.1389   -2.6132 H   0  0  0  0  0  0  0  0  0  0  0  0
   -0.5836    0.0465   -3.0419 H   0  0  0  0  0  0  0  0  0  0  0  0
    0.9550   -0.7128   -2.6638 H   0  0  0  0  0  0  0  0  0  0  0  0
    3.2821    1.2790    1.2152 H   0  0  0  0  0  0  0  0  0  0  0  0
    4.1293   -0.1203    0.5488 H   0  0  0  0  0  0  0  0  0  0  0  0
    2.7909   -0.3122    1.8088 H   0  0  0  0  0  0  0  0  0  0  0  0
  1  2  1  0
  2  3  2  0
  3  4  1  0
  4  5  2  0
  5  6  1  0
  6  7  2  0
  6  8  1  0
  5  9  1  0
  9 10  2  0
  9 11  1  0
  7  2  1  0
  1 12  1  0
  1 13  1  0
  1 14  1  0
  3 15  1  0
  8 16  1  0
  8 17  1  0
  8 18  1  0
 11 19  1  0
 11 20  1  0
 11 21  1  0
M  END
>  <Ligand ID>  (1) 
LIG0001035

>  <Ligand>  (1) 
2-Acetyl-3,5-dimethylpyrazine

>  <SMILES>  (1) 
Cc1cnc(c(n1)C)C(=O)C

>  <CID>  (1) 
104721.0

>  <ChEMBL ID>  (1) 
nan

>  <InChiKey>  (1) 
UCGOSAWBWFUKDT-UHFFFAOYSA-N

>  <InChi>  (1) 
InChI=1S/C8H10N2O/c1-5-4-9-8(7(3)11)6(2)10-5/h4H,1-3H3

>  <IUPAC Name>  (1) 
1-(3,5-dimethylpyrazin-2-yl)ethanone

$$$$
