
     RDKit          3D

 40 41  0  0  0  0  0  0  0  0999 V2000
   -5.6757    0.8332    0.7722 C   0  0  0  0  0  0  0  0  0  0  0  0
   -4.3748    0.2147    0.8750 N   0  0  0  0  0  0  0  0  0  0  0  0
   -3.3902    0.9754    0.1463 C   0  0  0  0  0  0  0  0  0  0  0  0
   -2.0192    0.3290    0.2509 C   0  0  0  0  0  0  0  0  0  0  0  0
   -0.9974    1.1701   -0.4526 C   0  0  0  0  0  0  0  0  0  0  0  0
    0.2931    0.7442   -0.3347 O   0  0  0  0  0  0  0  0  0  0  0  0
    0.9965   -0.3418   -0.6805 C   0  0  0  0  0  0  0  0  0  0  0  0
    0.5552   -1.4625   -1.3448 C   0  0  0  0  0  0  0  0  0  0  0  0
    1.3631   -2.5365   -1.6587 C   0  0  0  0  0  0  0  0  0  0  0  0
    2.6801   -2.5266   -1.3092 C   0  0  0  0  0  0  0  0  0  0  0  0
    3.1704   -1.4302   -0.6447 C   0  0  0  0  0  0  0  0  0  0  0  0
    2.3624   -0.3610   -0.3328 C   0  0  0  0  0  0  0  0  0  0  0  0
    2.9136    0.7752    0.3672 N   0  0  0  0  0  0  0  0  0  0  0  0
    4.3898    0.8016    0.7661 B   0  0  0  0  0  0  0  0  0  0  0  0
    5.1932    2.1848    0.8359 C   0  0  0  0  0  0  0  0  0  0  0  0
    5.2005   -0.4819    0.3501 C   0  0  0  0  0  0  0  0  0  0  0  0
    4.5974   -1.4686   -0.2903 C   0  0  0  0  0  0  0  0  0  0  0  0
   -1.7125    0.3062    1.6291 O   0  0  0  0  0  0  0  0  0  0  0  0
   -4.4649   -1.1248    0.2751 C   0  0  0  0  0  0  0  0  0  0  0  0
   -5.5444    1.9331    0.9480 H   0  0  0  0  0  0  0  0  0  0  0  0
   -6.0833    0.6159   -0.2467 H   0  0  0  0  0  0  0  0  0  0  0  0
   -6.3731    0.4085    1.5041 H   0  0  0  0  0  0  0  0  0  0  0  0
   -3.6759    0.9020   -0.9362 H   0  0  0  0  0  0  0  0  0  0  0  0
   -3.3825    2.0180    0.4790 H   0  0  0  0  0  0  0  0  0  0  0  0
   -2.0202   -0.6810   -0.1778 H   0  0  0  0  0  0  0  0  0  0  0  0
   -1.3622    1.2778   -1.5038 H   0  0  0  0  0  0  0  0  0  0  0  0
   -1.0733    2.1935    0.0304 H   0  0  0  0  0  0  0  0  0  0  0  0
   -0.4723   -1.5305   -1.6601 H   0  0  0  0  0  0  0  0  0  0  0  0
    0.9784   -3.4118   -2.1876 H   0  0  0  0  0  0  0  0  0  0  0  0
    3.3046   -3.3723   -1.5595 H   0  0  0  0  0  0  0  0  0  0  0  0
    2.3328    1.6027    0.6202 H   0  0  0  0  0  0  0  0  0  0  0  0
    4.5417    2.9916    1.1730 H   0  0  0  0  0  0  0  0  0  0  0  0
    5.9867    2.0549    1.6049 H   0  0  0  0  0  0  0  0  0  0  0  0
    5.6450    2.3796   -0.1665 H   0  0  0  0  0  0  0  0  0  0  0  0
    6.2592   -0.5137    0.6113 H   0  0  0  0  0  0  0  0  0  0  0  0
    5.2033   -2.3333   -0.5550 H   0  0  0  0  0  0  0  0  0  0  0  0
   -1.9181    1.2165    1.9775 H   0  0  0  0  0  0  0  0  0  0  0  0
   -5.4771   -1.5411    0.3669 H   0  0  0  0  0  0  0  0  0  0  0  0
   -4.2295   -1.0059   -0.8158 H   0  0  0  0  0  0  0  0  0  0  0  0
   -3.7203   -1.8050    0.7235 H   0  0  0  0  0  0  0  0  0  0  0  0
  1  2  1  0
  2  3  1  0
  3  4  1  0
  4  5  1  0
  5  6  1  0
  6  7  1  0
  7  8  2  0
  8  9  1  0
  9 10  2  0
 10 11  1  0
 11 12  2  0
 12 13  1  0
 13 14  1  0
 14 15  1  0
 14 16  1  0
 16 17  2  0
  4 18  1  0
  2 19  1  0
 12  7  1  0
 17 11  1  0
  1 20  1  0
  1 21  1  0
  1 22  1  0
  3 23  1  0
  3 24  1  0
  4 25  1  0
  5 26  1  0
  5 27  1  0
  8 28  1  0
  9 29  1  0
 10 30  1  0
 13 31  1  0
 15 32  1  0
 15 33  1  0
 15 34  1  0
 16 35  1  0
 17 36  1  0
 18 37  1  0
 19 38  1  0
 19 39  1  0
 19 40  1  0
M  END
>  <Ligand ID>  (1) 
LIG0000246

>  <Ligand>  (1) 
CHEMBL3736433

>  <SMILES>  (1) 
CN(CC(COc1cccc2c1NB(C)C=C2)O)C

>  <CID>  (1) 
127034966.0

>  <ChEMBL ID>  (1) 
nan

>  <InChiKey>  (1) 
CCSPGLLRANVKRG-UHFFFAOYSA-N

>  <InChi>  (1) 
InChI=1S/C14H21BN2O2/c1-15-8-7-11-5-4-6-13(14(11)16-15)19-10-12(18)9-17(2)3/h4-8,12,16,18H,9-10H2,1-3H3

>  <IUPAC Name>  (1) 
1-(dimethylamino)-3-[(2-methyl-1H-1,2-benzazaborinin-8-yl)oxy]propan-2-ol

$$$$
