
     RDKit          3D

140142  0  0  0  0  0  0  0  0999 V2000
   -8.5670   -1.8045    4.7759 C   0  0  0  0  0  0  0  0  0  0  0  0
   -7.1765   -1.5307    4.2419 C   0  0  0  0  0  0  0  0  0  0  0  0
   -7.1683   -0.4713    3.1504 C   0  0  1  0  0  0  0  0  0  0  0  0
   -5.8065   -0.1894    2.6449 C   0  0  2  0  0  0  0  0  0  0  0  0
   -5.8555    0.8394    1.5878 N   0  0  0  0  0  0  0  0  0  0  0  0
   -4.7632    1.7379    1.5047 C   0  0  0  0  0  0  0  0  0  0  0  0
   -3.8227    1.5113    2.2944 O   0  0  0  0  0  0  0  0  0  0  0  0
   -4.6198    2.8901    0.5941 C   0  0  1  0  0  0  0  0  0  0  0  0
   -3.2427    3.4082    0.7038 N   0  0  0  0  0  0  0  0  0  0  0  0
   -2.1462    2.8368    0.0196 C   0  0  0  0  0  0  0  0  0  0  0  0
   -2.3930    1.8680   -0.7142 O   0  0  0  0  0  0  0  0  0  0  0  0
   -0.7361    3.2851    0.0994 C   0  0  0  0  0  0  0  0  0  0  0  0
    0.0823    2.7390   -1.0523 C   0  0  0  0  0  0  0  0  0  0  0  0
   -0.2227    0.9882   -1.2543 S   0  0  0  0  0  0  0  0  0  0  0  0
    0.3550   -0.2300    0.3207 S   0  0  0  0  0  0  0  0  0  0  0  0
    2.0743   -0.8821    0.1761 C   0  0  0  0  0  0  0  0  0  0  0  0
    2.0575   -1.6993   -1.0938 C   0  0  2  0  0  0  0  0  0  0  0  0
    0.7772   -2.4330   -1.0174 N   0  0  0  0  0  0  0  0  0  0  0  0
    0.0161   -2.4777   -2.2334 C   0  0  0  0  0  0  0  0  0  0  0  0
    0.6308   -2.0578   -3.2341 O   0  0  0  0  0  0  0  0  0  0  0  0
   -1.3461   -2.9578   -2.3890 C   0  0  1  0  0  0  0  0  0  0  0  0
   -2.0547   -3.2598   -1.1721 N   0  0  0  0  0  0  0  0  0  0  0  0
   -3.2118   -2.5738   -0.7193 C   0  0  0  0  0  0  0  0  0  0  0  0
   -3.5478   -1.5856   -1.3921 O   0  0  0  0  0  0  0  0  0  0  0  0
   -4.0312   -2.9050    0.4572 C   0  0  1  0  0  0  0  0  0  0  0  0
   -4.8517   -1.7331    0.8317 N   0  0  0  0  0  0  0  0  0  0  0  0
   -5.1157   -1.4222    2.1983 C   0  0  0  0  0  0  0  0  0  0  0  0
   -4.7225   -2.2870    3.0040 O   0  0  0  0  0  0  0  0  0  0  0  0
   -4.9417   -4.0869    0.1510 C   0  0  0  0  0  0  0  0  0  0  0  0
   -5.8785   -3.8347   -0.9851 C   0  0  0  0  0  0  0  0  0  0  0  0
   -6.7256   -5.0335   -1.1968 C   0  0  0  0  0  0  0  0  0  0  0  0
   -6.6702   -6.0418   -0.4465 O   0  0  0  0  0  0  0  0  0  0  0  0
   -7.6234   -5.0027   -2.3007 N   0  0  0  0  0  0  0  0  0  0  0  0
   -2.1530   -2.0501   -3.3377 C   0  0  0  0  0  0  0  0  0  0  0  0
   -1.4656   -2.1102   -4.6648 C   0  0  0  0  0  0  0  0  0  0  0  0
   -0.7951   -1.1888   -5.1680 O   0  0  0  0  0  0  0  0  0  0  0  0
   -1.6238   -3.3573   -5.3745 N   0  0  0  0  0  0  0  0  0  0  0  0
    3.1728   -2.6603   -1.2323 C   0  0  0  0  0  0  0  0  0  0  0  0
    2.8599   -3.8927   -1.1087 O   0  0  0  0  0  0  0  0  0  0  0  0
    4.5375   -2.2670   -1.5009 N   0  0  0  0  0  0  0  0  0  0  0  0
    4.9623   -0.9065   -1.5823 C   0  0  0  0  0  0  0  0  0  0  0  0
    5.3727   -0.3733   -0.2903 C   0  0  0  0  0  0  0  0  0  0  0  0
    5.3392   -1.0239    0.7911 O   0  0  0  0  0  0  0  0  0  0  0  0
    5.8628    0.9817   -0.1645 N   0  0  0  0  0  0  0  0  0  0  0  0
    6.2771    1.4780    1.1189 C   0  0  2  0  0  0  0  0  0  0  0  0
    5.8073    2.8329    1.4404 C   0  0  0  0  0  0  0  0  0  0  0  0
    5.1260    3.5563    0.6571 O   0  0  0  0  0  0  0  0  0  0  0  0
    6.1327    3.3758    2.7102 N   0  0  0  0  0  0  0  0  0  0  0  0
    5.7350    4.6859    3.1566 C   0  0  0  0  0  0  0  0  0  0  0  0
    6.2933    5.7113    2.2453 C   0  0  0  0  0  0  0  0  0  0  0  0
    7.0012    5.4553    1.2425 O   0  0  0  0  0  0  0  0  0  0  0  0
    6.0000    7.0831    2.5386 N   0  0  0  0  0  0  0  0  0  0  0  0
    7.7811    1.3588    1.2661 C   0  0  0  0  0  0  0  0  0  0  0  0
    8.5885    2.1049    0.2811 C   0  0  0  0  0  0  0  0  0  0  0  0
    8.4170    1.7537   -1.1553 C   0  0  0  0  0  0  0  0  0  0  0  0
   10.0654    1.8268    0.6420 C   0  0  0  0  0  0  0  0  0  0  0  0
    5.4472   -3.3434   -1.7858 C   0  0  0  0  0  0  0  0  0  0  0  0
    6.1767   -3.9952   -0.6786 C   0  0  0  0  0  0  0  0  0  0  0  0
    7.3862   -3.3477   -0.1369 C   0  0  0  0  0  0  0  0  0  0  0  0
    7.2677   -3.5490    1.3497 C   0  0  0  0  0  0  0  0  0  0  0  0
    6.0158   -4.3135    1.5264 C   0  0  0  0  0  0  0  0  0  0  0  0
    5.4011   -4.5301    0.3308 O   0  0  0  0  0  0  0  0  0  0  0  0
   -5.0722    2.5807   -0.7747 C   0  0  0  0  0  0  0  0  0  0  0  0
   -5.0066    3.6732   -1.7603 C   0  0  0  0  0  0  0  0  0  0  0  0
   -6.0892    4.5479   -1.7993 C   0  0  0  0  0  0  0  0  0  0  0  0
   -6.1607    5.6009   -2.6851 C   0  0  0  0  0  0  0  0  0  0  0  0
   -5.1346    5.8158   -3.5753 C   0  0  0  0  0  0  0  0  0  0  0  0
   -4.0475    4.9718   -3.5674 C   0  0  0  0  0  0  0  0  0  0  0  0
   -3.9980    3.9033   -2.6518 C   0  0  0  0  0  0  0  0  0  0  0  0
   -5.1346    6.8554   -4.4977 O   0  0  0  0  0  0  0  0  0  0  0  0
   -8.1531   -0.8242    2.0679 C   0  0  0  0  0  0  0  0  0  0  0  0
   -8.6766   -2.8877    4.9934 H   0  0  0  0  0  0  0  0  0  0  0  0
   -8.6879   -1.1996    5.7051 H   0  0  0  0  0  0  0  0  0  0  0  0
   -9.3418   -1.4484    4.0677 H   0  0  0  0  0  0  0  0  0  0  0  0
   -6.8586   -2.5165    3.7831 H   0  0  0  0  0  0  0  0  0  0  0  0
   -6.5262   -1.2336    5.0647 H   0  0  0  0  0  0  0  0  0  0  0  0
   -7.5325    0.4584    3.6526 H   0  0  0  0  0  0  0  0  0  0  0  0
   -5.1684    0.2281    3.4550 H   0  0  0  0  0  0  0  0  0  0  0  0
   -6.5999    0.9586    0.9162 H   0  0  0  0  0  0  0  0  0  0  0  0
   -5.2599    3.7591    0.9357 H   0  0  0  0  0  0  0  0  0  0  0  0
   -3.0116    4.2206    1.2896 H   0  0  0  0  0  0  0  0  0  0  0  0
   -0.6851    4.3892    0.0923 H   0  0  0  0  0  0  0  0  0  0  0  0
   -0.2945    2.8984    1.0393 H   0  0  0  0  0  0  0  0  0  0  0  0
    1.1630    2.8779   -0.7806 H   0  0  0  0  0  0  0  0  0  0  0  0
   -0.1343    3.2652   -2.0075 H   0  0  0  0  0  0  0  0  0  0  0  0
    2.3370   -1.4544    1.0638 H   0  0  0  0  0  0  0  0  0  0  0  0
    2.6846    0.0360    0.1209 H   0  0  0  0  0  0  0  0  0  0  0  0
    2.0595   -1.0140   -1.9713 H   0  0  0  0  0  0  0  0  0  0  0  0
    0.3961   -2.8986   -0.2239 H   0  0  0  0  0  0  0  0  0  0  0  0
   -1.3094   -3.9713   -2.9319 H   0  0  0  0  0  0  0  0  0  0  0  0
   -1.7318   -4.0120   -0.5598 H   0  0  0  0  0  0  0  0  0  0  0  0
   -3.4183   -3.1585    1.3168 H   0  0  0  0  0  0  0  0  0  0  0  0
   -5.2714   -1.0964    0.1536 H   0  0  0  0  0  0  0  0  0  0  0  0
   -4.3007   -4.9438   -0.1332 H   0  0  0  0  0  0  0  0  0  0  0  0
   -5.5307   -4.3130    1.0579 H   0  0  0  0  0  0  0  0  0  0  0  0
   -5.3309   -3.6467   -1.9415 H   0  0  0  0  0  0  0  0  0  0  0  0
   -6.5307   -2.9454   -0.8308 H   0  0  0  0  0  0  0  0  0  0  0  0
   -7.2009   -5.0461   -3.2627 H   0  0  0  0  0  0  0  0  0  0  0  0
   -8.6652   -4.9361   -2.1542 H   0  0  0  0  0  0  0  0  0  0  0  0
   -2.1280   -0.9882   -2.9908 H   0  0  0  0  0  0  0  0  0  0  0  0
   -3.1751   -2.3998   -3.4815 H   0  0  0  0  0  0  0  0  0  0  0  0
   -1.3591   -3.4656   -6.3780 H   0  0  0  0  0  0  0  0  0  0  0  0
   -2.0126   -4.2155   -4.8914 H   0  0  0  0  0  0  0  0  0  0  0  0
    5.7937   -0.8576   -2.3483 H   0  0  0  0  0  0  0  0  0  0  0  0
    4.1825   -0.2335   -2.0083 H   0  0  0  0  0  0  0  0  0  0  0  0
    5.8562    1.5216   -1.0481 H   0  0  0  0  0  0  0  0  0  0  0  0
    5.8517    0.7571    1.8914 H   0  0  0  0  0  0  0  0  0  0  0  0
    6.6991    2.7824    3.3664 H   0  0  0  0  0  0  0  0  0  0  0  0
    6.1592    4.8932    4.1609 H   0  0  0  0  0  0  0  0  0  0  0  0
    4.6247    4.7698    3.2608 H   0  0  0  0  0  0  0  0  0  0  0  0
    6.5303    7.4899    3.3427 H   0  0  0  0  0  0  0  0  0  0  0  0
    5.3203    7.6509    2.0110 H   0  0  0  0  0  0  0  0  0  0  0  0
    8.0066    0.2558    1.2456 H   0  0  0  0  0  0  0  0  0  0  0  0
    8.0816    1.7011    2.2847 H   0  0  0  0  0  0  0  0  0  0  0  0
    8.4033    3.1975    0.4274 H   0  0  0  0  0  0  0  0  0  0  0  0
    9.4442    1.8068   -1.6462 H   0  0  0  0  0  0  0  0  0  0  0  0
    7.8396    2.5090   -1.7332 H   0  0  0  0  0  0  0  0  0  0  0  0
    8.0358    0.7221   -1.2832 H   0  0  0  0  0  0  0  0  0  0  0  0
   10.6910    2.4068   -0.0463 H   0  0  0  0  0  0  0  0  0  0  0  0
   10.1961    2.1493    1.6792 H   0  0  0  0  0  0  0  0  0  0  0  0
   10.2809    0.7610    0.5089 H   0  0  0  0  0  0  0  0  0  0  0  0
    6.2482   -2.9187   -2.4758 H   0  0  0  0  0  0  0  0  0  0  0  0
    4.9538   -4.1095   -2.4716 H   0  0  0  0  0  0  0  0  0  0  0  0
    6.5978   -4.9713   -1.1869 H   0  0  0  0  0  0  0  0  0  0  0  0
    8.3414   -3.8386   -0.4953 H   0  0  0  0  0  0  0  0  0  0  0  0
    7.4528   -2.2721   -0.3715 H   0  0  0  0  0  0  0  0  0  0  0  0
    7.3038   -2.5665    1.8629 H   0  0  0  0  0  0  0  0  0  0  0  0
    8.1252   -4.1474    1.7314 H   0  0  0  0  0  0  0  0  0  0  0  0
    5.3533   -3.7336    2.2357 H   0  0  0  0  0  0  0  0  0  0  0  0
    6.2172   -5.2943    2.0182 H   0  0  0  0  0  0  0  0  0  0  0  0
   -4.5788    1.6948   -1.2366 H   0  0  0  0  0  0  0  0  0  0  0  0
   -6.1516    2.2841   -0.7014 H   0  0  0  0  0  0  0  0  0  0  0  0
   -6.9225    4.4101   -1.1085 H   0  0  0  0  0  0  0  0  0  0  0  0
   -7.0287    6.2760   -2.6858 H   0  0  0  0  0  0  0  0  0  0  0  0
   -3.2213    5.1219   -4.2681 H   0  0  0  0  0  0  0  0  0  0  0  0
   -3.1141    3.3000   -2.7285 H   0  0  0  0  0  0  0  0  0  0  0  0
   -5.0901    7.8303   -4.1616 H   0  0  0  0  0  0  0  0  0  0  0  0
   -8.6303   -1.8258    2.2194 H   0  0  0  0  0  0  0  0  0  0  0  0
   -8.9981   -0.1073    2.1068 H   0  0  0  0  0  0  0  0  0  0  0  0
   -7.6973   -0.7399    1.0737 H   0  0  0  0  0  0  0  0  0  0  0  0
  1  2  1  0
  2  3  1  0
  3  4  1  0
  4  5  1  0
  5  6  1  0
  6  7  2  0
  6  8  1  0
  8  9  1  0
  9 10  1  0
 10 11  2  0
 10 12  1  0
 12 13  1  0
 13 14  1  0
 14 15  1  0
 15 16  1  0
 16 17  1  0
 17 18  1  0
 18 19  1  0
 19 20  2  0
 19 21  1  0
 21 22  1  0
 22 23  1  0
 23 24  2  0
 23 25  1  0
 25 26  1  0
 26 27  1  0
 27 28  2  0
 25 29  1  0
 29 30  1  0
 30 31  1  0
 31 32  2  0
 31 33  1  0
 21 34  1  0
 34 35  1  0
 35 36  2  0
 35 37  1  0
 17 38  1  0
 38 39  2  0
 38 40  1  0
 40 41  1  0
 41 42  1  0
 42 43  2  0
 42 44  1  0
 44 45  1  0
 45 46  1  0
 46 47  2  0
 46 48  1  0
 48 49  1  0
 49 50  1  0
 50 51  2  0
 50 52  1  0
 45 53  1  0
 53 54  1  0
 54 55  1  0
 54 56  1  0
 40 57  1  0
 57 58  1  0
 58 59  1  0
 59 60  1  0
 60 61  1  0
 61 62  1  0
  8 63  1  0
 63 64  1  0
 64 65  2  0
 65 66  1  0
 66 67  2  0
 67 68  1  0
 68 69  2  0
 67 70  1  0
  3 71  1  0
 27  4  1  0
 62 58  1  0
 69 64  1  0
  1 72  1  0
  1 73  1  0
  1 74  1  0
  2 75  1  0
  2 76  1  0
  3 77  1  1
  4 78  1  1
  5 79  1  0
  8 80  1  1
  9 81  1  0
 12 82  1  0
 12 83  1  0
 13 84  1  0
 13 85  1  0
 16 86  1  0
 16 87  1  0
 17 88  1  6
 18 89  1  0
 21 90  1  6
 22 91  1  0
 25 92  1  1
 26 93  1  0
 29 94  1  0
 29 95  1  0
 30 96  1  0
 30 97  1  0
 33 98  1  0
 33 99  1  0
 34100  1  0
 34101  1  0
 37102  1  0
 37103  1  0
 41104  1  0
 41105  1  0
 44106  1  0
 45107  1  1
 48108  1  0
 49109  1  0
 49110  1  0
 52111  1  0
 52112  1  0
 53113  1  0
 53114  1  0
 54115  1  0
 55116  1  0
 55117  1  0
 55118  1  0
 56119  1  0
 56120  1  0
 56121  1  0
 57122  1  0
 57123  1  0
 58124  1  0
 59125  1  0
 59126  1  0
 60127  1  0
 60128  1  0
 61129  1  0
 61130  1  0
 63131  1  0
 63132  1  0
 65133  1  0
 66134  1  0
 68135  1  0
 69136  1  0
 70137  1  0
 71138  1  0
 71139  1  0
 71140  1  0
M  END
>  <Ligand ID>  (1) 
LIG0001643

>  <Ligand>  (1) 
CHEMBL3354572

>  <SMILES>  (1) 
CC[C@@H]([C@@H]1NC(=O)[C@@H](NC(=O)CCSSC[C@H](NC(=O)[C@@H](NC(=O)[C@@H](NC1=O)CCC(=O)N)CC(=O)N)C(=O)N(CC(=O)N[C@H](C(=O)NCC(=O)N)CC(C)C)CC1CCCO1)Cc1ccc(cc1)O)C

>  <CID>  (1) 
118720261.0

>  <ChEMBL ID>  (1) 
nan

>  <InChiKey>  (1) 
GWIQAFXCHGKXGH-JEXYCROASA-N

>  <InChi>  (1) 
InChI=1S/C45H69N11O13S2/c1-5-25(4)39-44(67)52-29(12-13-34(46)58)41(64)53-32(19-35(47)59)42(65)54-33(23-71-70-16-14-37(61)50-31(43(66)55-39)18-26-8-10-27(57)11-9-26)45(68)56(21-28-7-6-15-69-28)22-38(62)51-30(17-24(2)3)40(63)49-20-36(48)60/h8-11,24-25,28-33,39,57H,5-7,12-23H2,1-4H3,(H2,46,58)(H2,47,59)(H2,48,60)(H,49,63)(H,50,61)(H,51,62)(H,52,67)(H,53,64)(H,54,65)(H,55,66)/t25-,28?,29-,30-,31-,32-,33-,39-/m0/s1

>  <IUPAC Name>  (1) 
(4R,7S,10S,13S,16S)-7-(2-amino-2-oxoethyl)-N-[2-[[(2S)-1-[(2-amino-2-oxoethyl)amino]-4-methyl-1-oxopentan-2-yl]amino]-2-oxoethyl]-10-(3-amino-3-oxopropyl)-13-[(2S)-butan-2-yl]-16-[(4-hydroxyphenyl)methyl]-6,9,12,15,18-pentaoxo-N-(oxolan-2-ylmethyl)-1,2-dithia-5,8,11,14,17-pentazacycloicosane-4-carboxamide

$$$$
