
     RDKit          3D

 55 57  0  0  0  0  0  0  0  0999 V2000
   -5.9640    2.4454    0.3495 O   0  0  0  0  0  0  0  0  0  0  0  0
   -4.8187    2.4020   -0.4539 C   0  0  0  0  0  0  0  0  0  0  0  0
   -4.0751    1.0830   -0.1839 C   0  0  0  0  0  0  0  0  0  0  0  0
   -5.0630    0.0018   -0.6076 C   0  0  0  0  0  0  0  0  0  0  0  0
   -6.1403    0.1092    0.2764 O   0  0  0  0  0  0  0  0  0  0  0  0
   -7.3323   -1.0458   -0.0792 P   0  0  0  0  0  0  0  0  0  0  0  0
   -8.1034   -1.3270    1.2020 O   0  0  0  0  0  0  0  0  0  0  0  0
   -8.3845   -0.4727   -1.2614 O   0  0  0  0  0  0  0  0  0  0  0  0
   -6.6504   -2.5105   -0.5702 O   0  0  0  0  0  0  0  0  0  0  0  0
   -3.8187    1.0624    1.2803 C   0  0  0  0  0  0  0  0  0  0  0  0
   -3.0975   -0.1208    1.8170 C   0  0  0  0  0  0  0  0  0  0  0  0
   -1.7518   -0.3261    1.2596 C   0  0  0  0  0  0  0  0  0  0  0  0
   -0.6703    0.2768    1.8886 C   0  0  0  0  0  0  0  0  0  0  0  0
    0.6295    0.1248    1.4174 C   0  0  0  0  0  0  0  0  0  0  0  0
    0.8469   -0.6465    0.2944 C   0  0  0  0  0  0  0  0  0  0  0  0
   -0.1958   -1.2566   -0.3524 C   0  0  0  0  0  0  0  0  0  0  0  0
   -1.4728   -1.0840    0.1432 C   0  0  0  0  0  0  0  0  0  0  0  0
    2.2025   -0.8244   -0.2241 C   0  0  0  0  0  0  0  0  0  0  0  0
    2.5715   -1.5435   -1.3043 N   0  0  0  0  0  0  0  0  0  0  0  0
    3.8821   -1.4641   -1.4537 N   0  0  0  0  0  0  0  0  0  0  0  0
    4.4017   -0.7016   -0.4896 N   0  0  0  0  0  0  0  0  0  0  0  0
    3.3739   -0.2973    0.2809 C   0  0  0  0  0  0  0  0  0  0  0  0
    5.7866   -0.4291   -0.3834 C   0  0  0  0  0  0  0  0  0  0  0  0
    6.3226    0.8013   -0.1265 C   0  0  0  0  0  0  0  0  0  0  0  0
    7.6899    0.9674   -0.0414 C   0  0  0  0  0  0  0  0  0  0  0  0
    8.5698   -0.0994   -0.2117 C   0  0  0  0  0  0  0  0  0  0  0  0
    8.0342   -1.3457   -0.4716 C   0  0  0  0  0  0  0  0  0  0  0  0
    6.6614   -1.4894   -0.5526 C   0  0  0  0  0  0  0  0  0  0  0  0
   10.0516    0.1141   -0.1130 C   0  0  0  0  0  0  0  0  0  0  0  0
   10.2687    0.7341    1.1156 F   0  0  0  0  0  0  0  0  0  0  0  0
   10.6641   -1.1151   -0.1015 F   0  0  0  0  0  0  0  0  0  0  0  0
   10.5312    0.9259   -1.1170 F   0  0  0  0  0  0  0  0  0  0  0  0
   -2.9154    1.0777   -1.0211 N   0  0  0  0  0  0  0  0  0  0  0  0
   -6.7799    2.6220   -0.1942 H   0  0  0  0  0  0  0  0  0  0  0  0
   -5.0744    2.4598   -1.5359 H   0  0  0  0  0  0  0  0  0  0  0  0
   -4.1826    3.2578   -0.1313 H   0  0  0  0  0  0  0  0  0  0  0  0
   -4.5941   -0.9896   -0.5282 H   0  0  0  0  0  0  0  0  0  0  0  0
   -5.4169    0.1438   -1.6307 H   0  0  0  0  0  0  0  0  0  0  0  0
   -9.3085   -0.8442   -1.1409 H   0  0  0  0  0  0  0  0  0  0  0  0
   -6.5881   -3.1451    0.1908 H   0  0  0  0  0  0  0  0  0  0  0  0
   -4.8052    1.1373    1.7872 H   0  0  0  0  0  0  0  0  0  0  0  0
   -3.2954    2.0179    1.5482 H   0  0  0  0  0  0  0  0  0  0  0  0
   -3.7325   -1.0265    1.7250 H   0  0  0  0  0  0  0  0  0  0  0  0
   -3.0321    0.0439    2.9317 H   0  0  0  0  0  0  0  0  0  0  0  0
   -0.8545    0.8793    2.7688 H   0  0  0  0  0  0  0  0  0  0  0  0
    1.4798    0.6022    1.9167 H   0  0  0  0  0  0  0  0  0  0  0  0
    0.0011   -1.8613   -1.2381 H   0  0  0  0  0  0  0  0  0  0  0  0
   -2.2811   -1.5713   -0.3768 H   0  0  0  0  0  0  0  0  0  0  0  0
    3.4685    0.3382    1.1516 H   0  0  0  0  0  0  0  0  0  0  0  0
    5.6591    1.6295    0.0065 H   0  0  0  0  0  0  0  0  0  0  0  0
    8.0603    1.9682    0.1650 H   0  0  0  0  0  0  0  0  0  0  0  0
    8.6856   -2.2010   -0.6102 H   0  0  0  0  0  0  0  0  0  0  0  0
    6.3001   -2.4896   -0.7585 H   0  0  0  0  0  0  0  0  0  0  0  0
   -3.2540    0.9528   -2.0049 H   0  0  0  0  0  0  0  0  0  0  0  0
   -2.4893    2.0498   -1.0008 H   0  0  0  0  0  0  0  0  0  0  0  0
  1  2  1  0
  2  3  1  0
  3  4  1  0
  4  5  1  0
  5  6  1  0
  6  7  2  0
  6  8  1  0
  6  9  1  0
  3 10  1  0
 10 11  1  0
 11 12  1  0
 12 13  2  0
 13 14  1  0
 14 15  2  0
 15 16  1  0
 16 17  2  0
 15 18  1  0
 18 19  1  0
 19 20  2  0
 20 21  1  0
 21 22  1  0
 21 23  1  0
 23 24  2  0
 24 25  1  0
 25 26  2  0
 26 27  1  0
 27 28  2  0
 26 29  1  0
 29 30  1  0
 29 31  1  0
 29 32  1  0
  3 33  1  0
 17 12  1  0
 22 18  2  0
 28 23  1  0
  1 34  1  0
  2 35  1  0
  2 36  1  0
  4 37  1  0
  4 38  1  0
  8 39  1  0
  9 40  1  0
 10 41  1  0
 10 42  1  0
 11 43  1  0
 11 44  1  0
 13 45  1  0
 14 46  1  0
 16 47  1  0
 17 48  1  0
 22 49  1  0
 24 50  1  0
 25 51  1  0
 27 52  1  0
 28 53  1  0
 33 54  1  0
 33 55  1  0
M  END
>  <Ligand ID>  (1) 
LIG0005912

>  <Ligand>  (1) 
CHEMBL3342006

>  <SMILES>  (1) 
OCC(COP(=O)(O)O)(CCc1ccc(cc1)c1nnn(c1)c1ccc(cc1)C(F)(F)F)N

>  <CID>  (1) 
118716181.0

>  <ChEMBL ID>  (1) 
nan

>  <InChiKey>  (1) 
QUWMBIXKGFDBSI-UHFFFAOYSA-N

>  <InChi>  (1) 
InChI=1S/C20H22F3N4O5P/c21-20(22,23)16-5-7-17(8-6-16)27-11-18(25-26-27)15-3-1-14(2-4-15)9-10-19(24,12-28)13-32-33(29,30)31/h1-8,11,28H,9-10,12-13,24H2,(H2,29,30,31)

>  <IUPAC Name>  (1) 
[2-amino-2-(hydroxymethyl)-4-[4-[1-[4-(trifluoromethyl)phenyl]triazol-4-yl]phenyl]butyl] dihydrogen phosphate

$$$$
