
     RDKit          3D

100104  0  0  0  0  0  0  0  0999 V2000
    5.7735    5.4309   -1.4692 N   0  0  0  0  0  0  0  0  0  0  0  0
    4.4521    5.4838   -0.9418 C   0  0  0  0  0  0  0  0  0  0  0  0
    3.9408    4.3828   -0.5414 N   0  0  0  0  0  0  0  0  0  0  0  0
    2.6148    4.2272    0.0245 C   0  0  0  0  0  0  0  0  0  0  0  0
    2.0538    2.8511   -0.2662 C   0  0  0  0  0  0  0  0  0  0  0  0
    1.9516    2.6686   -1.7635 C   0  0  0  0  0  0  0  0  0  0  0  0
    1.4073    1.2813   -2.1037 C   0  0  1  0  0  0  0  0  0  0  0  0
    2.3564    0.2895   -1.5440 C   0  0  0  0  0  0  0  0  0  0  0  0
    3.5186    0.2028   -2.0082 O   0  0  0  0  0  0  0  0  0  0  0  0
    1.9728   -0.5826   -0.4647 N   0  0  0  0  0  0  0  0  0  0  0  0
    2.9755   -1.5229    0.0183 C   0  0  2  0  0  0  0  0  0  0  0  0
    2.4116   -2.8221    0.3617 C   0  0  0  0  0  0  0  0  0  0  0  0
    1.1563   -2.9876    0.1782 O   0  0  0  0  0  0  0  0  0  0  0  0
    3.1283   -3.9269    0.8853 N   0  0  0  0  0  0  0  0  0  0  0  0
    3.7572   -0.8746    1.1523 C   0  0  0  0  0  0  0  0  0  0  0  0
    4.7766   -1.8204    1.6429 C   0  0  0  0  0  0  0  0  0  0  0  0
    4.8006   -2.5559    2.8201 C   0  0  0  0  0  0  0  0  0  0  0  0
    5.9172   -3.2896    2.9042 N   0  0  0  0  0  0  0  0  0  0  0  0
    6.6473   -3.0635    1.8067 C   0  0  0  0  0  0  0  0  0  0  0  0
    5.9709   -2.1573    1.0009 C   0  0  0  0  0  0  0  0  0  0  0  0
    6.5506   -1.7733   -0.2041 C   0  0  0  0  0  0  0  0  0  0  0  0
    7.7829   -2.2750   -0.6121 C   0  0  0  0  0  0  0  0  0  0  0  0
    8.4522   -3.1810    0.2011 C   0  0  0  0  0  0  0  0  0  0  0  0
    7.8786   -3.5700    1.4081 C   0  0  0  0  0  0  0  0  0  0  0  0
    0.0741    1.1114   -1.5548 N   0  0  0  0  0  0  0  0  0  0  0  0
   -0.9974    1.0310   -2.4531 C   0  0  0  0  0  0  0  0  0  0  0  0
   -0.6870    1.1364   -3.7019 O   0  0  0  0  0  0  0  0  0  0  0  0
   -2.4139    0.8430   -2.1677 C   0  0  1  0  0  0  0  0  0  0  0  0
   -2.7697    0.6175   -0.7769 N   0  0  0  0  0  0  0  0  0  0  0  0
   -3.2162   -0.6568   -0.4196 C   0  0  0  0  0  0  0  0  0  0  0  0
   -3.2452   -1.5219   -1.3909 O   0  0  0  0  0  0  0  0  0  0  0  0
   -3.6615   -1.1755    0.8657 C   0  0  1  0  0  0  0  0  0  0  0  0
   -4.0730   -2.5894    0.6185 N   0  0  0  0  0  0  0  0  0  0  0  0
   -5.4348   -2.9497    0.5538 C   0  0  0  0  0  0  0  0  0  0  0  0
   -6.3667   -2.1332    0.6874 O   0  0  0  0  0  0  0  0  0  0  0  0
   -5.7666   -4.3359    0.3203 C   0  0  0  0  0  0  0  0  0  0  0  0
   -4.9059   -5.4560    0.1560 C   0  0  0  0  0  0  0  0  0  0  0  0
   -5.4689   -6.6354   -0.0341 C   0  0  0  0  0  0  0  0  0  0  0  0
   -6.8171   -6.7908   -0.0742 C   0  0  0  0  0  0  0  0  0  0  0  0
   -7.4538   -5.0139    0.1942 S   0  0  0  0  0  0  0  0  0  0  0  0
   -2.8021   -1.0958    2.0561 C   0  0  0  0  0  0  0  0  0  0  0  0
   -2.3989    0.2418    2.5117 C   0  0  0  0  0  0  0  0  0  0  0  0
   -3.2992    0.9366    3.3148 C   0  0  0  0  0  0  0  0  0  0  0  0
   -2.9455    2.1902    3.8027 C   0  0  0  0  0  0  0  0  0  0  0  0
   -1.7246    2.7775    3.5180 C   0  0  0  0  0  0  0  0  0  0  0  0
   -0.8711    2.0444    2.7172 C   0  0  0  0  0  0  0  0  0  0  0  0
   -1.1687    0.8042    2.2100 C   0  0  0  0  0  0  0  0  0  0  0  0
   -1.2867    4.3418    4.1278 Cl  0  0  0  0  0  0  0  0  0  0  0  0
   -3.2320    2.0760   -2.5827 C   0  0  0  0  0  0  0  0  0  0  0  0
   -4.6610    1.9349   -2.3251 C   0  0  0  0  0  0  0  0  0  0  0  0
   -5.3091    2.2874   -1.1623 C   0  0  0  0  0  0  0  0  0  0  0  0
   -6.6629    2.1357   -0.9901 C   0  0  0  0  0  0  0  0  0  0  0  0
   -7.4332    1.6017   -2.0281 C   0  0  0  0  0  0  0  0  0  0  0  0
   -6.8020    1.2411   -3.2030 C   0  0  0  0  0  0  0  0  0  0  0  0
   -5.4508    1.4017   -3.3516 C   0  0  0  0  0  0  0  0  0  0  0  0
    3.7374    6.6917   -0.8651 N   0  0  0  0  0  0  0  0  0  0  0  0
    6.6131    5.7724   -0.9672 H   0  0  0  0  0  0  0  0  0  0  0  0
    5.9057    5.0201   -2.4269 H   0  0  0  0  0  0  0  0  0  0  0  0
    1.9675    5.0191   -0.4107 H   0  0  0  0  0  0  0  0  0  0  0  0
    2.6781    4.4353    1.1065 H   0  0  0  0  0  0  0  0  0  0  0  0
    1.0565    2.7906    0.2188 H   0  0  0  0  0  0  0  0  0  0  0  0
    2.7117    2.1145    0.2155 H   0  0  0  0  0  0  0  0  0  0  0  0
    1.3043    3.4457   -2.1748 H   0  0  0  0  0  0  0  0  0  0  0  0
    2.9535    2.7311   -2.1876 H   0  0  0  0  0  0  0  0  0  0  0  0
    1.4247    1.2180   -3.1935 H   0  0  0  0  0  0  0  0  0  0  0  0
    1.0212   -0.5499   -0.0434 H   0  0  0  0  0  0  0  0  0  0  0  0
    3.7241   -1.6395   -0.7988 H   0  0  0  0  0  0  0  0  0  0  0  0
    2.7586   -4.3270    1.7939 H   0  0  0  0  0  0  0  0  0  0  0  0
    3.9764   -4.3293    0.4086 H   0  0  0  0  0  0  0  0  0  0  0  0
    3.1248   -0.6049    2.0129 H   0  0  0  0  0  0  0  0  0  0  0  0
    4.2942    0.0002    0.7244 H   0  0  0  0  0  0  0  0  0  0  0  0
    4.0245   -2.5535    3.5896 H   0  0  0  0  0  0  0  0  0  0  0  0
    6.2056   -3.9440    3.6861 H   0  0  0  0  0  0  0  0  0  0  0  0
    6.0578   -1.0781   -0.8500 H   0  0  0  0  0  0  0  0  0  0  0  0
    8.2525   -1.9881   -1.5453 H   0  0  0  0  0  0  0  0  0  0  0  0
    9.4251   -3.5731   -0.1253 H   0  0  0  0  0  0  0  0  0  0  0  0
    8.4194   -4.2747    2.0254 H   0  0  0  0  0  0  0  0  0  0  0  0
   -0.1234    1.0526   -0.5453 H   0  0  0  0  0  0  0  0  0  0  0  0
   -2.7907    0.0119   -2.8162 H   0  0  0  0  0  0  0  0  0  0  0  0
   -2.7181    1.3472   -0.0644 H   0  0  0  0  0  0  0  0  0  0  0  0
   -4.6279   -0.6126    1.1055 H   0  0  0  0  0  0  0  0  0  0  0  0
   -3.3185   -3.3005    0.4959 H   0  0  0  0  0  0  0  0  0  0  0  0
   -3.8227   -5.2534    0.1994 H   0  0  0  0  0  0  0  0  0  0  0  0
   -4.8316   -7.5640   -0.1677 H   0  0  0  0  0  0  0  0  0  0  0  0
   -7.4669   -7.5609   -0.2033 H   0  0  0  0  0  0  0  0  0  0  0  0
   -1.8150   -1.6465    1.8724 H   0  0  0  0  0  0  0  0  0  0  0  0
   -3.2153   -1.6911    2.9268 H   0  0  0  0  0  0  0  0  0  0  0  0
   -4.2816    0.5099    3.5681 H   0  0  0  0  0  0  0  0  0  0  0  0
   -3.6500    2.7347    4.4336 H   0  0  0  0  0  0  0  0  0  0  0  0
    0.0906    2.4699    2.4711 H   0  0  0  0  0  0  0  0  0  0  0  0
   -0.5144    0.2218    1.5997 H   0  0  0  0  0  0  0  0  0  0  0  0
   -2.9815    2.3931   -3.6070 H   0  0  0  0  0  0  0  0  0  0  0  0
   -2.8632    2.9161   -1.9243 H   0  0  0  0  0  0  0  0  0  0  0  0
   -4.6981    2.7032   -0.3595 H   0  0  0  0  0  0  0  0  0  0  0  0
   -7.1576    2.4147   -0.0781 H   0  0  0  0  0  0  0  0  0  0  0  0
   -8.5011    1.4623   -1.9420 H   0  0  0  0  0  0  0  0  0  0  0  0
   -7.3371    0.8201   -4.0489 H   0  0  0  0  0  0  0  0  0  0  0  0
   -4.9590    1.1122   -4.2893 H   0  0  0  0  0  0  0  0  0  0  0  0
    2.9696    6.8816   -1.5535 H   0  0  0  0  0  0  0  0  0  0  0  0
    3.9804    7.3856   -0.1214 H   0  0  0  0  0  0  0  0  0  0  0  0
  1  2  1  0
  2  3  2  3
  3  4  1  0
  4  5  1  0
  5  6  1  0
  6  7  1  0
  7  8  1  0
  8  9  2  0
  8 10  1  0
 10 11  1  0
 11 12  1  0
 12 13  2  0
 12 14  1  0
 11 15  1  0
 15 16  1  0
 16 17  2  0
 17 18  1  0
 18 19  1  0
 19 20  2  0
 20 21  1  0
 21 22  2  0
 22 23  1  0
 23 24  2  0
  7 25  1  0
 25 26  1  0
 26 27  2  0
 26 28  1  0
 28 29  1  0
 29 30  1  0
 30 31  2  0
 30 32  1  0
 32 33  1  0
 33 34  1  0
 34 35  2  0
 34 36  1  0
 36 37  2  0
 37 38  1  0
 38 39  2  0
 39 40  1  0
 32 41  1  0
 41 42  1  0
 42 43  2  0
 43 44  1  0
 44 45  2  0
 45 46  1  0
 46 47  2  0
 45 48  1  0
 28 49  1  0
 49 50  1  0
 50 51  2  0
 51 52  1  0
 52 53  2  0
 53 54  1  0
 54 55  2  0
  2 56  1  0
 20 16  1  0
 40 36  1  0
 47 42  1  0
 55 50  1  0
 24 19  1  0
  1 57  1  0
  1 58  1  0
  4 59  1  0
  4 60  1  0
  5 61  1  0
  5 62  1  0
  6 63  1  0
  6 64  1  0
  7 65  1  6
 10 66  1  0
 11 67  1  6
 14 68  1  0
 14 69  1  0
 15 70  1  0
 15 71  1  0
 17 72  1  0
 18 73  1  0
 21 74  1  0
 22 75  1  0
 23 76  1  0
 24 77  1  0
 25 78  1  0
 28 79  1  6
 29 80  1  0
 32 81  1  1
 33 82  1  0
 37 83  1  0
 38 84  1  0
 39 85  1  0
 41 86  1  0
 41 87  1  0
 43 88  1  0
 44 89  1  0
 46 90  1  0
 47 91  1  0
 49 92  1  0
 49 93  1  0
 51 94  1  0
 52 95  1  0
 53 96  1  0
 54 97  1  0
 55 98  1  0
 56 99  1  0
 56100  1  0
M  END
>  <Ligand ID>  (1) 
LIG0002621

>  <Ligand>  (1) 
CHEMBL361578

>  <SMILES>  (1) 
NC(=NCCC[C@@H](C(=O)N[C@H](C(=O)N)Cc1c[nH]c2c1cccc2)NC(=O)[C@@H](NC(=O)[C@@H](NC(=O)c1cccs1)Cc1ccc(cc1)Cl)Cc1ccccc1)N

>  <CID>  (1) 
44394735.0

>  <ChEMBL ID>  (1) 
nan

>  <InChiKey>  (1) 
SVKCUBCWYZMHSZ-YRCZKMHPSA-N

>  <InChi>  (1) 
InChI=1S/C40H44ClN9O5S/c41-27-16-14-25(15-17-27)21-33(50-39(55)34-13-7-19-56-34)38(54)49-32(20-24-8-2-1-3-9-24)37(53)47-30(12-6-18-45-40(43)44)36(52)48-31(35(42)51)22-26-23-46-29-11-5-4-10-28(26)29/h1-5,7-11,13-17,19,23,30-33,46H,6,12,18,20-22H2,(H2,42,51)(H,47,53)(H,48,52)(H,49,54)(H,50,55)(H4,43,44,45)/t30-,31-,32-,33-/m0/s1

>  <IUPAC Name>  (1) 
N-[(2S)-1-[[(2S)-1-[[(2S)-1-[[(2S)-1-amino-3-(1H-indol-3-yl)-1-oxopropan-2-yl]amino]-5-(diaminomethylideneamino)-1-oxopentan-2-yl]amino]-1-oxo-3-phenylpropan-2-yl]amino]-3-(4-chlorophenyl)-1-oxopropan-2-yl]thiophene-2-carboxamide

$$$$
