
     RDKit          3D

 68 72  0  0  0  0  0  0  0  0999 V2000
   -2.5233   -1.6814   -1.3145 C   0  0  0  0  0  0  0  0  0  0  0  0
   -2.5200   -0.3291   -0.6237 C   0  0  0  0  0  0  0  0  0  0  0  0
   -3.2919    0.5930   -1.5266 C   0  0  0  0  0  0  0  0  0  0  0  0
   -4.6429   -0.0043   -1.8186 C   0  0  0  0  0  0  0  0  0  0  0  0
   -5.8048    0.8656   -1.4675 C   0  0  0  0  0  0  0  0  0  0  0  0
   -6.5924    0.2836   -0.3234 C   0  0  0  0  0  0  0  0  0  0  0  0
   -5.7229   -0.4045    0.7127 C   0  0  0  0  0  0  0  0  0  0  0  0
   -4.4303    0.3437    0.9481 C   0  0  0  0  0  0  0  0  0  0  0  0
   -3.1897   -0.4036    0.7125 C   0  0  0  0  0  0  0  0  0  0  0  0
   -1.1716    0.0166   -0.4257 N   0  0  0  0  0  0  0  0  0  0  0  0
   -0.3493   -0.8273    0.3362 C   0  0  0  0  0  0  0  0  0  0  0  0
    1.0958   -0.8480    0.0227 C   0  0  0  0  0  0  0  0  0  0  0  0
    1.7181    0.4289   -0.4868 C   0  0  0  0  0  0  0  0  0  0  0  0
    0.7572    1.2211   -1.1714 C   0  0  0  0  0  0  0  0  0  0  0  0
   -0.6805    1.3131   -0.6693 C   0  0  0  0  0  0  0  0  0  0  0  0
    2.6789    0.9119    0.4464 N   0  0  0  0  0  0  0  0  0  0  0  0
    3.7574    0.2137    0.8617 C   0  0  0  0  0  0  0  0  0  0  0  0
    4.4381    0.9762    1.7424 N   0  0  0  0  0  0  0  0  0  0  0  0
    3.8345    2.1587    1.9161 C   0  0  0  0  0  0  0  0  0  0  0  0
    2.7187    2.1132    1.0912 C   0  0  0  0  0  0  0  0  0  0  0  0
    1.9229    3.2314    1.0876 C   0  0  0  0  0  0  0  0  0  0  0  0
    2.2228    4.3308    1.8630 C   0  0  0  0  0  0  0  0  0  0  0  0
    3.3340    4.3653    2.6798 C   0  0  0  0  0  0  0  0  0  0  0  0
    4.1460    3.2502    2.6959 C   0  0  0  0  0  0  0  0  0  0  0  0
    4.2165   -1.1202    0.4896 C   0  0  0  0  0  0  0  0  0  0  0  0
    4.2458   -2.1897    1.3434 C   0  0  0  0  0  0  0  0  0  0  0  0
    4.6965   -3.4534    0.9655 C   0  0  0  0  0  0  0  0  0  0  0  0
    5.1380   -3.6498   -0.3305 C   0  0  0  0  0  0  0  0  0  0  0  0
    5.1227   -2.5923   -1.2186 C   0  0  0  0  0  0  0  0  0  0  0  0
    4.6644   -1.3402   -0.8061 C   0  0  0  0  0  0  0  0  0  0  0  0
    5.5981   -2.7824   -2.6305 C   0  0  0  0  0  0  0  0  0  0  0  0
    6.8085   -2.1391   -2.8075 F   0  0  0  0  0  0  0  0  0  0  0  0
    4.6785   -2.2216   -3.4843 F   0  0  0  0  0  0  0  0  0  0  0  0
    5.7633   -4.1353   -2.8431 F   0  0  0  0  0  0  0  0  0  0  0  0
   -1.4948   -1.9954   -1.6566 H   0  0  0  0  0  0  0  0  0  0  0  0
   -3.1242   -1.6981   -2.2453 H   0  0  0  0  0  0  0  0  0  0  0  0
   -2.8031   -2.4988   -0.6108 H   0  0  0  0  0  0  0  0  0  0  0  0
   -2.7938    0.6939   -2.5354 H   0  0  0  0  0  0  0  0  0  0  0  0
   -3.3166    1.6504   -1.1890 H   0  0  0  0  0  0  0  0  0  0  0  0
   -4.7662   -0.9808   -1.2799 H   0  0  0  0  0  0  0  0  0  0  0  0
   -4.7713   -0.3168   -2.8972 H   0  0  0  0  0  0  0  0  0  0  0  0
   -5.5187    1.9356   -1.2783 H   0  0  0  0  0  0  0  0  0  0  0  0
   -6.5393    0.9446   -2.3031 H   0  0  0  0  0  0  0  0  0  0  0  0
   -7.2699   -0.4951   -0.7273 H   0  0  0  0  0  0  0  0  0  0  0  0
   -7.2503    1.0565    0.1235 H   0  0  0  0  0  0  0  0  0  0  0  0
   -6.3901   -0.4179    1.6272 H   0  0  0  0  0  0  0  0  0  0  0  0
   -5.5793   -1.4904    0.5137 H   0  0  0  0  0  0  0  0  0  0  0  0
   -4.5279    1.3033    0.4046 H   0  0  0  0  0  0  0  0  0  0  0  0
   -4.4725    0.6662    2.0128 H   0  0  0  0  0  0  0  0  0  0  0  0
   -3.4260   -1.4940    0.9118 H   0  0  0  0  0  0  0  0  0  0  0  0
   -2.4717   -0.1616    1.5534 H   0  0  0  0  0  0  0  0  0  0  0  0
   -0.4781   -0.5183    1.4175 H   0  0  0  0  0  0  0  0  0  0  0  0
   -0.7118   -1.8749    0.2628 H   0  0  0  0  0  0  0  0  0  0  0  0
    1.6188   -1.1269    0.9897 H   0  0  0  0  0  0  0  0  0  0  0  0
    1.3307   -1.7455   -0.6279 H   0  0  0  0  0  0  0  0  0  0  0  0
    2.4037    0.0324   -1.3284 H   0  0  0  0  0  0  0  0  0  0  0  0
    1.1073    2.1906   -1.6377 H   0  0  0  0  0  0  0  0  0  0  0  0
    0.5401    0.6665   -2.1579 H   0  0  0  0  0  0  0  0  0  0  0  0
   -0.8248    1.8933    0.2349 H   0  0  0  0  0  0  0  0  0  0  0  0
   -1.1830    1.8827   -1.4747 H   0  0  0  0  0  0  0  0  0  0  0  0
    1.0682    3.2614    0.4800 H   0  0  0  0  0  0  0  0  0  0  0  0
    1.5837    5.2093    1.8505 H   0  0  0  0  0  0  0  0  0  0  0  0
    3.5951    5.2134    3.3001 H   0  0  0  0  0  0  0  0  0  0  0  0
    5.0419    3.2406    3.3356 H   0  0  0  0  0  0  0  0  0  0  0  0
    3.9007   -2.0453    2.3638 H   0  0  0  0  0  0  0  0  0  0  0  0
    4.7022   -4.2851    1.6867 H   0  0  0  0  0  0  0  0  0  0  0  0
    5.4930   -4.6180   -0.6524 H   0  0  0  0  0  0  0  0  0  0  0  0
    4.6913   -0.5728   -1.5628 H   0  0  0  0  0  0  0  0  0  0  0  0
  1  2  1  0
  2  3  1  0
  3  4  1  0
  4  5  1  0
  5  6  1  0
  6  7  1  0
  7  8  1  0
  8  9  1  0
  2 10  1  0
 10 11  1  0
 11 12  1  0
 12 13  1  0
 13 14  1  0
 14 15  1  0
 13 16  1  0
 16 17  1  0
 17 18  2  0
 18 19  1  0
 19 20  2  0
 20 21  1  0
 21 22  2  0
 22 23  1  0
 23 24  2  0
 17 25  1  0
 25 26  2  0
 26 27  1  0
 27 28  2  0
 28 29  1  0
 29 30  2  0
 29 31  1  0
 31 32  1  0
 31 33  1  0
 31 34  1  0
  9  2  1  0
 15 10  1  0
 20 16  1  0
 30 25  1  0
 24 19  1  0
  1 35  1  0
  1 36  1  0
  1 37  1  0
  3 38  1  0
  3 39  1  0
  4 40  1  0
  4 41  1  0
  5 42  1  0
  5 43  1  0
  6 44  1  0
  6 45  1  0
  7 46  1  0
  7 47  1  0
  8 48  1  0
  8 49  1  0
  9 50  1  0
  9 51  1  0
 11 52  1  0
 11 53  1  0
 12 54  1  0
 12 55  1  0
 13 56  1  0
 14 57  1  0
 14 58  1  0
 15 59  1  0
 15 60  1  0
 21 61  1  0
 22 62  1  0
 23 63  1  0
 24 64  1  0
 26 65  1  0
 27 66  1  0
 28 67  1  0
 30 68  1  0
M  END
>  <Ligand ID>  (1) 
LIG0003570

>  <Ligand>  (1) 
CHEMBL519100

>  <SMILES>  (1) 
CC1(CCCCCCC1)N1CCC(CC1)n1c(nc2c1cccc2)c1cccc(c1)C(F)(F)F

>  <CID>  (1) 
25207946.0

>  <ChEMBL ID>  (1) 
nan

>  <InChiKey>  (1) 
HQBSTEJSIZHCBP-UHFFFAOYSA-N

>  <InChi>  (1) 
InChI=1S/C28H34F3N3/c1-27(16-7-3-2-4-8-17-27)33-18-14-23(15-19-33)34-25-13-6-5-12-24(25)32-26(34)21-10-9-11-22(20-21)28(29,30)31/h5-6,9-13,20,23H,2-4,7-8,14-19H2,1H3

>  <IUPAC Name>  (1) 
1-[1-(1-methylcyclooctyl)piperidin-4-yl]-2-[3-(trifluoromethyl)phenyl]benzimidazole

$$$$
