
     RDKit          3D

 10 10  0  0  0  0  0  0  0  0999 V2000
    0.3807   -0.9902    0.8857 N   0  0  0  0  0  0  0  0  0  0  0  0
    1.3079   -0.4467    0.0472 C   0  0  0  0  0  0  0  0  0  0  0  0
    0.9066    0.5406   -0.8292 C   0  0  0  0  0  0  0  0  0  0  0  0
   -0.3751    0.9873   -0.8845 N   0  0  0  0  0  0  0  0  0  0  0  0
   -1.2987    0.4410   -0.0443 C   0  0  0  0  0  0  0  0  0  0  0  0
   -0.9163   -0.5609    0.8528 C   0  0  0  0  0  0  0  0  0  0  0  0
    2.3342   -0.7760    0.0627 H   0  0  0  0  0  0  0  0  0  0  0  0
    1.6517    0.9664   -1.4919 H   0  0  0  0  0  0  0  0  0  0  0  0
   -2.3207    0.8007   -0.0920 H   0  0  0  0  0  0  0  0  0  0  0  0
   -1.6703   -0.9621    1.4934 H   0  0  0  0  0  0  0  0  0  0  0  0
  1  2  2  0
  2  3  1  0
  3  4  2  0
  4  5  1  0
  5  6  2  0
  6  1  1  0
  2  7  1  0
  3  8  1  0
  5  9  1  0
  6 10  1  0
M  END
>  <Ligand ID>  (1) 
LIG0000014

>  <Ligand>  (1) 
pyrazine

>  <SMILES>  (1) 
n1ccncc1

>  <CID>  (1) 
9261.0

>  <ChEMBL ID>  (1) 
nan

>  <InChiKey>  (1) 
KYQCOXFCLRTKLS-UHFFFAOYSA-N

>  <InChi>  (1) 
InChI=1S/C4H4N2/c1-2-6-4-3-5-1/h1-4H

>  <IUPAC Name>  (1) 
pyrazine

$$$$
