
     RDKit          3D

 39 40  0  0  0  0  0  0  0  0999 V2000
   -7.5693    0.8296    0.1870 C   0  0  0  0  0  0  0  0  0  0  0  0
   -7.1766   -0.5291    0.7120 C   0  0  0  0  0  0  0  0  0  0  0  0
   -5.7872   -0.5168    0.9375 O   0  0  0  0  0  0  0  0  0  0  0  0
   -4.9617   -0.2648   -0.1523 C   0  0  0  0  0  0  0  0  0  0  0  0
   -5.4298   -0.0545   -1.3004 O   0  0  0  0  0  0  0  0  0  0  0  0
   -3.5034   -0.2344   -0.0030 C   0  0  0  0  0  0  0  0  0  0  0  0
   -2.7345    0.0196   -1.1142 C   0  0  0  0  0  0  0  0  0  0  0  0
   -1.3470    0.0575   -1.0173 C   0  0  0  0  0  0  0  0  0  0  0  0
   -0.6957   -0.1561    0.1849 C   0  0  0  0  0  0  0  0  0  0  0  0
   -1.5249   -0.4085    1.2761 C   0  0  0  0  0  0  0  0  0  0  0  0
   -2.8811   -0.4499    1.2030 C   0  0  0  0  0  0  0  0  0  0  0  0
    0.7489   -0.1253    0.3289 C   0  0  0  0  0  0  0  0  0  0  0  0
    1.5967    0.1013   -0.6302 C   0  0  0  0  0  0  0  0  0  0  0  0
    3.0469    0.1319   -0.4843 C   0  0  0  0  0  0  0  0  0  0  0  0
    3.6932   -0.0813    0.7157 C   0  0  0  0  0  0  0  0  0  0  0  0
    5.0736   -0.0498    0.8423 C   0  0  0  0  0  0  0  0  0  0  0  0
    5.8605    0.2035   -0.2625 C   0  0  0  0  0  0  0  0  0  0  0  0
    5.2444    0.4211   -1.4781 C   0  0  0  0  0  0  0  0  0  0  0  0
    3.8680    0.3844   -1.5780 C   0  0  0  0  0  0  0  0  0  0  0  0
    7.6066    0.2417   -0.0943 S   0  0  0  0  0  0  0  0  0  0  0  0
    8.1158    1.2383   -1.1016 O   0  0  0  0  0  0  0  0  0  0  0  0
    7.9911    0.6996    1.2791 O   0  0  0  0  0  0  0  0  0  0  0  0
    8.2359   -1.2803   -0.3465 O   0  0  0  0  0  0  0  0  0  0  0  0
   -6.8551    1.5809    0.5998 H   0  0  0  0  0  0  0  0  0  0  0  0
   -7.5652    0.8093   -0.9027 H   0  0  0  0  0  0  0  0  0  0  0  0
   -8.5727    1.0845    0.5864 H   0  0  0  0  0  0  0  0  0  0  0  0
   -7.4651   -1.2800   -0.0530 H   0  0  0  0  0  0  0  0  0  0  0  0
   -7.7306   -0.8033    1.6487 H   0  0  0  0  0  0  0  0  0  0  0  0
   -3.1944    0.1973   -2.0980 H   0  0  0  0  0  0  0  0  0  0  0  0
   -0.8017    0.2583   -1.9086 H   0  0  0  0  0  0  0  0  0  0  0  0
   -1.0648   -0.5831    2.2439 H   0  0  0  0  0  0  0  0  0  0  0  0
   -3.5118   -0.6505    2.0758 H   0  0  0  0  0  0  0  0  0  0  0  0
    1.1443   -0.3075    1.3222 H   0  0  0  0  0  0  0  0  0  0  0  0
    1.1981    0.2835   -1.6240 H   0  0  0  0  0  0  0  0  0  0  0  0
    3.1395   -0.2841    1.6159 H   0  0  0  0  0  0  0  0  0  0  0  0
    5.5808   -0.2155    1.7761 H   0  0  0  0  0  0  0  0  0  0  0  0
    5.8367    0.6194   -2.3478 H   0  0  0  0  0  0  0  0  0  0  0  0
    3.4230    0.5626   -2.5610 H   0  0  0  0  0  0  0  0  0  0  0  0
    8.9688   -1.4498    0.2971 H   0  0  0  0  0  0  0  0  0  0  0  0
  1  2  1  0
  2  3  1  0
  3  4  1  0
  4  5  2  0
  4  6  1  0
  6  7  2  0
  7  8  1  0
  8  9  2  0
  9 10  1  0
 10 11  2  0
  9 12  1  0
 12 13  2  0
 13 14  1  0
 14 15  2  0
 15 16  1  0
 16 17  2  0
 17 18  1  0
 18 19  2  0
 17 20  1  0
 20 21  2  0
 20 22  2  0
 20 23  1  0
 11  6  1  0
 19 14  1  0
  1 24  1  0
  1 25  1  0
  1 26  1  0
  2 27  1  0
  2 28  1  0
  7 29  1  0
  8 30  1  0
 10 31  1  0
 11 32  1  0
 12 33  1  0
 13 34  1  0
 15 35  1  0
 16 36  1  0
 18 37  1  0
 19 38  1  0
 23 39  1  0
M  END
>  <Ligand ID>  (1) 
LIG0004447

>  <Ligand>  (1) 
CHEMBL483303

>  <SMILES>  (1) 
CCOC(=O)c1ccc(cc1)/C=C/c1ccc(cc1)S(=O)(=O)O

>  <CID>  (1) 
5473680.0

>  <ChEMBL ID>  (1) 
nan

>  <InChiKey>  (1) 
NRRCVYNRSGAPOK-ONEGZZNKSA-N

>  <InChi>  (1) 
InChI=1S/C17H16O5S/c1-2-22-17(18)15-9-5-13(6-10-15)3-4-14-7-11-16(12-8-14)23(19,20)21/h3-12H,2H2,1H3,(H,19,20,21)/b4-3+

>  <IUPAC Name>  (1) 
4-[(E)-2-(4-ethoxycarbonylphenyl)ethenyl]benzenesulfonic acid

$$$$
