
     RDKit          3D

 28 29  0  0  0  0  0  0  0  0999 V2000
   -3.9232   -1.0871   -0.3265 N   0  0  0  0  0  0  0  0  0  0  0  0
   -2.7445   -0.9419    0.4973 C   0  0  0  0  0  0  0  0  0  0  0  0
   -1.5797   -0.3652   -0.2726 C   0  0  1  0  0  0  0  0  0  0  0  0
   -1.7651    1.0154   -0.8895 C   0  0  0  0  0  0  0  0  0  0  0  0
   -0.9316    0.8240    0.3214 C   0  0  2  0  0  0  0  0  0  0  0  0
    0.5375    0.9069    0.2247 C   0  0  0  0  0  0  0  0  0  0  0  0
    1.1024    2.1674    0.2006 C   0  0  0  0  0  0  0  0  0  0  0  0
    2.4542    2.3952    0.1033 C   0  0  0  0  0  0  0  0  0  0  0  0
    3.2995    1.3260    0.0252 C   0  0  0  0  0  0  0  0  0  0  0  0
    2.7612    0.0590    0.0475 C   0  0  0  0  0  0  0  0  0  0  0  0
    1.3875   -0.1682    0.1466 C   0  0  0  0  0  0  0  0  0  0  0  0
    0.8801   -1.4451    0.1680 O   0  0  0  0  0  0  0  0  0  0  0  0
    1.7723   -2.5360    0.0865 C   0  0  0  0  0  0  0  0  0  0  0  0
   -4.7516   -0.9476    0.2998 H   0  0  0  0  0  0  0  0  0  0  0  0
   -3.9085   -0.4339   -1.1192 H   0  0  0  0  0  0  0  0  0  0  0  0
   -2.8850   -0.3657    1.4128 H   0  0  0  0  0  0  0  0  0  0  0  0
   -2.4275   -1.9735    0.7881 H   0  0  0  0  0  0  0  0  0  0  0  0
   -1.0549   -1.0486   -0.9692 H   0  0  0  0  0  0  0  0  0  0  0  0
   -1.2421    1.2842   -1.8091 H   0  0  0  0  0  0  0  0  0  0  0  0
   -2.7818    1.4077   -0.8091 H   0  0  0  0  0  0  0  0  0  0  0  0
   -1.3629    1.2448    1.2633 H   0  0  0  0  0  0  0  0  0  0  0  0
    0.4592    3.0543    0.2610 H   0  0  0  0  0  0  0  0  0  0  0  0
    2.8388    3.4044    0.0890 H   0  0  0  0  0  0  0  0  0  0  0  0
    4.3609    1.5078   -0.0513 H   0  0  0  0  0  0  0  0  0  0  0  0
    3.4336   -0.7831   -0.0145 H   0  0  0  0  0  0  0  0  0  0  0  0
    2.5665   -2.4010    0.8763 H   0  0  0  0  0  0  0  0  0  0  0  0
    2.2457   -2.6195   -0.9040 H   0  0  0  0  0  0  0  0  0  0  0  0
    1.2593   -3.4805    0.3535 H   0  0  0  0  0  0  0  0  0  0  0  0
  1  2  1  0
  2  3  1  0
  3  4  1  0
  4  5  1  0
  5  6  1  0
  6  7  2  0
  7  8  1  0
  8  9  2  0
  9 10  1  0
 10 11  2  0
 11 12  1  0
 12 13  1  0
  5  3  1  0
 11  6  1  0
  1 14  1  0
  1 15  1  0
  2 16  1  0
  2 17  1  0
  3 18  1  6
  4 19  1  0
  4 20  1  0
  5 21  1  1
  7 22  1  0
  8 23  1  0
  9 24  1  0
 10 25  1  0
 13 26  1  0
 13 27  1  0
 13 28  1  0
M  END
>  <Ligand ID>  (1) 
LIG0004856

>  <Ligand>  (1) 
CHEMBL451368

>  <SMILES>  (1) 
NC[C@H]1C[C@@H]1c1ccccc1OC

>  <CID>  (1) 
44572759.0

>  <ChEMBL ID>  (1) 
nan

>  <InChiKey>  (1) 
HOYIIFVWAXKGDF-SCZZXKLOSA-N

>  <InChi>  (1) 
InChI=1S/C11H15NO/c1-13-11-5-3-2-4-9(11)10-6-8(10)7-12/h2-5,8,10H,6-7,12H2,1H3/t8-,10+/m1/s1

>  <IUPAC Name>  (1) 
[(1S,2S)-2-(2-methoxyphenyl)cyclopropyl]methanamine

$$$$
