
     RDKit          3D

 25 26  0  0  0  0  0  0  0  0999 V2000
    3.2423    0.8380    1.4551 N   0  0  0  0  0  0  0  0  0  0  0  0
    2.9520   -0.3361    0.6323 C   0  0  0  0  0  0  0  0  0  0  0  0
    1.6649   -0.1245   -0.1383 C   0  0  1  0  0  0  0  0  0  0  0  0
    1.1119   -1.1267   -1.0500 C   0  0  0  0  0  0  0  0  0  0  0  0
    0.4269   -0.8962    0.2643 C   0  0  2  0  0  0  0  0  0  0  0  0
   -0.8271   -0.1203    0.2749 C   0  0  0  0  0  0  0  0  0  0  0  0
   -0.8954    1.2454    0.4220 C   0  0  0  0  0  0  0  0  0  0  0  0
   -2.0787    1.9362    0.4274 C   0  0  0  0  0  0  0  0  0  0  0  0
   -3.2399    1.2245    0.2789 C   0  0  0  0  0  0  0  0  0  0  0  0
   -3.2352   -0.1655    0.1253 C   0  0  0  0  0  0  0  0  0  0  0  0
   -2.0172   -0.8284    0.1251 C   0  0  0  0  0  0  0  0  0  0  0  0
   -1.9935   -2.2150   -0.0270 O   0  0  0  0  0  0  0  0  0  0  0  0
    4.1279    1.3028    1.1357 H   0  0  0  0  0  0  0  0  0  0  0  0
    2.4320    1.5026    1.3694 H   0  0  0  0  0  0  0  0  0  0  0  0
    2.8261   -1.2127    1.2910 H   0  0  0  0  0  0  0  0  0  0  0  0
    3.7905   -0.4751   -0.0869 H   0  0  0  0  0  0  0  0  0  0  0  0
    1.5612    0.9400   -0.4790 H   0  0  0  0  0  0  0  0  0  0  0  0
    0.5981   -0.7877   -1.9919 H   0  0  0  0  0  0  0  0  0  0  0  0
    1.5848   -2.1331   -1.2210 H   0  0  0  0  0  0  0  0  0  0  0  0
    0.5207   -1.6390    1.0742 H   0  0  0  0  0  0  0  0  0  0  0  0
    0.0196    1.8054    0.5388 H   0  0  0  0  0  0  0  0  0  0  0  0
   -2.0564    3.0111    0.5477 H   0  0  0  0  0  0  0  0  0  0  0  0
   -4.1670    1.7945    0.2864 H   0  0  0  0  0  0  0  0  0  0  0  0
   -4.1858   -0.6928    0.0099 H   0  0  0  0  0  0  0  0  0  0  0  0
   -2.1624   -2.8473    0.7465 H   0  0  0  0  0  0  0  0  0  0  0  0
  1  2  1  0
  2  3  1  0
  3  4  1  0
  4  5  1  0
  5  6  1  0
  6  7  2  0
  7  8  1  0
  8  9  2  0
  9 10  1  0
 10 11  2  0
 11 12  1  0
  5  3  1  0
 11  6  1  0
  1 13  1  0
  1 14  1  0
  2 15  1  0
  2 16  1  0
  3 17  1  6
  4 18  1  0
  4 19  1  0
  5 20  1  1
  7 21  1  0
  8 22  1  0
  9 23  1  0
 10 24  1  0
 12 25  1  0
M  END
>  <Ligand ID>  (1) 
LIG0002394

>  <Ligand>  (1) 
CHEMBL501117

>  <SMILES>  (1) 
NC[C@H]1C[C@@H]1c1ccccc1O

>  <CID>  (1) 
44572761.0

>  <ChEMBL ID>  (1) 
nan

>  <InChiKey>  (1) 
NBRJCDMCJFYOPJ-APPZFPTMSA-N

>  <InChi>  (1) 
InChI=1S/C10H13NO/c11-6-7-5-9(7)8-3-1-2-4-10(8)12/h1-4,7,9,12H,5-6,11H2/t7-,9+/m1/s1

>  <IUPAC Name>  (1) 
2-[(1S,2S)-2-(aminomethyl)cyclopropyl]phenol

$$$$
