
     RDKit          3D

 24 25  0  0  0  0  0  0  0  0999 V2000
    2.3657    1.1040   -0.7962 N   0  0  0  0  0  0  0  0  0  0  0  0
    2.4866   -0.3317   -0.7247 C   0  0  0  0  0  0  0  0  0  0  0  0
    1.1978   -1.0347   -0.3613 C   0  0  0  0  0  0  0  0  0  0  0  0
    0.7177   -0.5836    0.9707 C   0  0  1  0  0  0  0  0  0  0  0  0
    0.4048    0.8674    1.1544 C   0  0  0  0  0  0  0  0  0  0  0  0
   -0.6623   -0.2121    1.3050 C   0  0  1  0  0  0  0  0  0  0  0  0
   -1.7702   -0.1327    0.3383 C   0  0  0  0  0  0  0  0  0  0  0  0
   -3.0522   -0.6437    0.5757 C   0  0  0  0  0  0  0  0  0  0  0  0
   -3.8392   -0.4014   -0.4882 N   0  0  0  0  0  0  0  0  0  0  0  0
   -3.0884    0.2508   -1.3949 C   0  0  0  0  0  0  0  0  0  0  0  0
   -1.8495    0.4054   -0.8857 N   0  0  0  0  0  0  0  0  0  0  0  0
    2.7343    1.5890    0.0320 H   0  0  0  0  0  0  0  0  0  0  0  0
    2.7635    1.5171   -1.6572 H   0  0  0  0  0  0  0  0  0  0  0  0
    3.1766   -0.5332    0.1467 H   0  0  0  0  0  0  0  0  0  0  0  0
    2.9390   -0.7471   -1.6503 H   0  0  0  0  0  0  0  0  0  0  0  0
    0.4957   -0.8292   -1.1940 H   0  0  0  0  0  0  0  0  0  0  0  0
    1.4644   -2.1347   -0.3628 H   0  0  0  0  0  0  0  0  0  0  0  0
    1.3317   -0.9900    1.8344 H   0  0  0  0  0  0  0  0  0  0  0  0
    0.7206    1.4042    2.0738 H   0  0  0  0  0  0  0  0  0  0  0  0
    0.3387    1.5367    0.2840 H   0  0  0  0  0  0  0  0  0  0  0  0
   -0.9664   -0.4127    2.3738 H   0  0  0  0  0  0  0  0  0  0  0  0
   -3.3885   -1.1665    1.4840 H   0  0  0  0  0  0  0  0  0  0  0  0
   -3.4261    0.5927   -2.3692 H   0  0  0  0  0  0  0  0  0  0  0  0
   -1.0945    0.8858   -1.4000 H   0  0  0  0  0  0  0  0  0  0  0  0
  1  2  1  0
  2  3  1  0
  3  4  1  0
  4  5  1  0
  5  6  1  0
  6  7  1  0
  7  8  2  0
  8  9  1  0
  9 10  2  0
 10 11  1  0
  6  4  1  0
 11  7  1  0
  1 12  1  0
  1 13  1  0
  2 14  1  0
  2 15  1  0
  3 16  1  0
  3 17  1  0
  4 18  1  1
  5 19  1  0
  5 20  1  0
  6 21  1  1
  8 22  1  0
 10 23  1  0
 11 24  1  0
M  END
>  <Ligand ID>  (1) 
LIG0001183

>  <Ligand>  (1) 
CHEMBL418470

>  <SMILES>  (1) 
NCC[C@H]1C[C@H]1c1cnc[nH]1

>  <CID>  (1) 
11829635.0

>  <ChEMBL ID>  (1) 
nan

>  <InChiKey>  (1) 
OTBYLNCJHFPRTL-NKWVEPMBSA-N

>  <InChi>  (1) 
InChI=1S/C8H13N3/c9-2-1-6-3-7(6)8-4-10-5-11-8/h4-7H,1-3,9H2,(H,10,11)/t6-,7+/m0/s1

>  <IUPAC Name>  (1) 
2-[(1R,2R)-2-(1H-imidazol-5-yl)cyclopropyl]ethanamine

$$$$
