
     RDKit          3D

 57 59  0  0  0  0  0  0  0  0999 V2000
    1.2601    0.4404   -1.0292 O   0  0  0  0  0  0  0  0  0  0  0  0
    1.7931   -0.6922   -1.0747 C   0  0  0  0  0  0  0  0  0  0  0  0
    3.2403   -0.9503   -1.0694 C   0  0  0  0  0  0  0  0  0  0  0  0
    3.6996   -1.7900    0.0640 C   0  0  0  0  0  0  0  0  0  0  0  0
    4.7498   -2.6893   -0.1682 C   0  0  0  0  0  0  0  0  0  0  0  0
    5.2166   -3.5125    0.8366 C   0  0  0  0  0  0  0  0  0  0  0  0
    4.6782   -3.4887    2.0998 C   0  0  0  0  0  0  0  0  0  0  0  0
    3.6467   -2.6097    2.3383 C   0  0  0  0  0  0  0  0  0  0  0  0
    3.1788   -1.7798    1.3178 C   0  0  0  0  0  0  0  0  0  0  0  0
    4.2753    0.4544   -1.4315 S   0  0  0  0  0  0  0  0  0  0  0  0
    4.2667    1.7814   -0.2986 C   0  0  0  0  0  0  0  0  0  0  0  0
    5.1105    2.8740   -0.5694 C   0  0  0  0  0  0  0  0  0  0  0  0
    5.1462    3.9539    0.2821 C   0  0  0  0  0  0  0  0  0  0  0  0
    4.3813    4.0334    1.4209 C   0  0  0  0  0  0  0  0  0  0  0  0
    3.5510    2.9709    1.6977 C   0  0  0  0  0  0  0  0  0  0  0  0
    3.5170    1.8911    0.8438 C   0  0  0  0  0  0  0  0  0  0  0  0
    0.9185   -1.8127   -1.1364 N   0  0  0  0  0  0  0  0  0  0  0  0
   -0.4958   -1.6532   -1.1459 C   0  0  0  0  0  0  0  0  0  0  0  0
   -1.1451   -1.5216   -2.3688 C   0  0  0  0  0  0  0  0  0  0  0  0
   -2.5090   -1.3699   -2.3386 C   0  0  0  0  0  0  0  0  0  0  0  0
   -3.2518   -1.3424   -1.1741 C   0  0  0  0  0  0  0  0  0  0  0  0
   -2.5485   -1.4780    0.0060 C   0  0  0  0  0  0  0  0  0  0  0  0
   -1.1790   -1.6342    0.0549 C   0  0  0  0  0  0  0  0  0  0  0  0
   -4.9606   -1.1644   -1.2911 S   0  0  0  0  0  0  0  0  0  0  0  0
   -5.5677   -1.7296   -0.0321 O   0  0  0  0  0  0  0  0  0  0  0  0
   -5.5349   -1.9660   -2.4427 O   0  0  0  0  0  0  0  0  0  0  0  0
   -5.4539    0.4596   -1.4228 N   0  0  0  0  0  0  0  0  0  0  0  0
   -5.1275    1.3126   -0.3302 C   0  0  0  0  0  0  0  0  0  0  0  0
   -3.6736    1.5442   -0.0847 C   0  0  0  0  0  0  0  0  0  0  0  0
   -5.8527    2.6415   -0.5770 C   0  0  0  0  0  0  0  0  0  0  0  0
   -5.7177    0.7457    0.9598 C   0  0  0  0  0  0  0  0  0  0  0  0
    3.4075   -1.6494   -1.9768 H   0  0  0  0  0  0  0  0  0  0  0  0
    5.1992   -2.7327   -1.1611 H   0  0  0  0  0  0  0  0  0  0  0  0
    6.0324   -4.1966    0.6185 H   0  0  0  0  0  0  0  0  0  0  0  0
    5.0914   -4.1574    2.8340 H   0  0  0  0  0  0  0  0  0  0  0  0
    3.2014   -2.5703    3.3310 H   0  0  0  0  0  0  0  0  0  0  0  0
    2.3697   -1.1339    1.5740 H   0  0  0  0  0  0  0  0  0  0  0  0
    5.7352    2.8659   -1.4520 H   0  0  0  0  0  0  0  0  0  0  0  0
    5.7969    4.7912    0.0689 H   0  0  0  0  0  0  0  0  0  0  0  0
    4.4237    4.8907    2.0775 H   0  0  0  0  0  0  0  0  0  0  0  0
    2.9379    3.0188    2.5973 H   0  0  0  0  0  0  0  0  0  0  0  0
    2.8549    1.0887    1.0943 H   0  0  0  0  0  0  0  0  0  0  0  0
    1.3030   -2.7940   -1.1768 H   0  0  0  0  0  0  0  0  0  0  0  0
   -0.5927   -1.5385   -3.3090 H   0  0  0  0  0  0  0  0  0  0  0  0
   -2.9997   -1.2680   -3.3148 H   0  0  0  0  0  0  0  0  0  0  0  0
   -3.1224   -1.4575    0.9216 H   0  0  0  0  0  0  0  0  0  0  0  0
   -0.6712   -1.7368    1.0060 H   0  0  0  0  0  0  0  0  0  0  0  0
   -5.1538    0.8760   -2.3215 H   0  0  0  0  0  0  0  0  0  0  0  0
   -3.4924    2.6638   -0.0869 H   0  0  0  0  0  0  0  0  0  0  0  0
   -3.3354    1.1342    0.8947 H   0  0  0  0  0  0  0  0  0  0  0  0
   -3.0884    1.1776   -0.9464 H   0  0  0  0  0  0  0  0  0  0  0  0
   -6.0067    3.0894    0.4265 H   0  0  0  0  0  0  0  0  0  0  0  0
   -5.2279    3.3358   -1.1655 H   0  0  0  0  0  0  0  0  0  0  0  0
   -6.7969    2.3968   -1.0790 H   0  0  0  0  0  0  0  0  0  0  0  0
   -4.9700    0.0389    1.3748 H   0  0  0  0  0  0  0  0  0  0  0  0
   -5.8043    1.6343    1.6443 H   0  0  0  0  0  0  0  0  0  0  0  0
   -6.7033    0.3145    0.7702 H   0  0  0  0  0  0  0  0  0  0  0  0
  1  2  2  0
  2  3  1  0
  3  4  1  0
  4  5  2  0
  5  6  1  0
  6  7  2  0
  7  8  1  0
  8  9  2  0
  3 10  1  0
 10 11  1  0
 11 12  2  0
 12 13  1  0
 13 14  2  0
 14 15  1  0
 15 16  2  0
  2 17  1  0
 17 18  1  0
 18 19  2  0
 19 20  1  0
 20 21  2  0
 21 22  1  0
 22 23  2  0
 21 24  1  0
 24 25  2  0
 24 26  2  0
 24 27  1  0
 27 28  1  0
 28 29  1  0
 28 30  1  0
 28 31  1  0
  9  4  1  0
 16 11  1  0
 23 18  1  0
  3 32  1  0
  5 33  1  0
  6 34  1  0
  7 35  1  0
  8 36  1  0
  9 37  1  0
 12 38  1  0
 13 39  1  0
 14 40  1  0
 15 41  1  0
 16 42  1  0
 17 43  1  0
 19 44  1  0
 20 45  1  0
 22 46  1  0
 23 47  1  0
 27 48  1  0
 29 49  1  0
 29 50  1  0
 29 51  1  0
 30 52  1  0
 30 53  1  0
 30 54  1  0
 31 55  1  0
 31 56  1  0
 31 57  1  0
M  END
>  <Ligand ID>  (1) 
LIG0003390

>  <Ligand>  (1) 
MLS000577269

>  <SMILES>  (1) 
O=C(C(c1ccccc1)Sc1ccccc1)Nc1ccc(cc1)S(=O)(=O)NC(C)(C)C

>  <CID>  (1) 
2928544.0

>  <ChEMBL ID>  (1) 
nan

>  <InChiKey>  (1) 
TUCHTVNTVVERBZ-UHFFFAOYSA-N

>  <InChi>  (1) 
InChI=1S/C24H26N2O3S2/c1-24(2,3)26-31(28,29)21-16-14-19(15-17-21)25-23(27)22(18-10-6-4-7-11-18)30-20-12-8-5-9-13-20/h4-17,22,26H,1-3H3,(H,25,27)

>  <IUPAC Name>  (1) 
N-[4-(tert-butylsulfamoyl)phenyl]-2-phenyl-2-phenylsulfanylacetamide

$$$$
