
     RDKit          3D

 29 29  0  0  0  0  0  0  0  0999 V2000
   -3.4256    0.3385    0.0164 C   0  0  0  0  0  0  0  0  0  0  0  0
   -2.0049    0.0222   -0.3163 C   0  0  1  0  0  0  0  0  0  0  0  0
   -1.1960    1.3203   -0.2649 C   0  0  0  0  0  0  0  0  0  0  0  0
    0.1835    0.9336   -0.7551 C   0  0  0  0  0  0  0  0  0  0  0  0
    0.7737    0.0475    0.3436 C   0  0  1  0  0  0  0  0  0  0  0  0
    0.0325   -1.2417    0.3630 C   0  0  2  0  0  0  0  0  0  0  0  0
   -1.4184   -0.8988    0.7300 C   0  0  0  0  0  0  0  0  0  0  0  0
    0.5231   -2.0796    1.3711 O   0  0  0  0  0  0  0  0  0  0  0  0
    2.2387   -0.0779    0.1323 C   0  0  0  0  0  0  0  0  0  0  0  0
    2.8735   -1.2123   -0.0323 C   0  0  0  0  0  0  0  0  0  0  0  0
    3.0110    1.2206    0.1133 C   0  0  0  0  0  0  0  0  0  0  0  0
   -3.4673    0.7167    1.0666 H   0  0  0  0  0  0  0  0  0  0  0  0
   -3.7476    1.1710   -0.6597 H   0  0  0  0  0  0  0  0  0  0  0  0
   -4.0796   -0.5366   -0.0980 H   0  0  0  0  0  0  0  0  0  0  0  0
   -1.9046   -0.4300   -1.3117 H   0  0  0  0  0  0  0  0  0  0  0  0
   -1.0906    1.5879    0.8078 H   0  0  0  0  0  0  0  0  0  0  0  0
   -1.6638    2.1151   -0.8639 H   0  0  0  0  0  0  0  0  0  0  0  0
    0.8263    1.7808   -1.0130 H   0  0  0  0  0  0  0  0  0  0  0  0
    0.0666    0.3110   -1.6743 H   0  0  0  0  0  0  0  0  0  0  0  0
    0.6366    0.5631    1.3122 H   0  0  0  0  0  0  0  0  0  0  0  0
    0.0083   -1.7591   -0.5989 H   0  0  0  0  0  0  0  0  0  0  0  0
   -2.0238   -1.8092    0.8530 H   0  0  0  0  0  0  0  0  0  0  0  0
   -1.4020   -0.3441    1.7073 H   0  0  0  0  0  0  0  0  0  0  0  0
    0.4036   -3.0370    1.1502 H   0  0  0  0  0  0  0  0  0  0  0  0
    2.3804   -2.1636   -0.0284 H   0  0  0  0  0  0  0  0  0  0  0  0
    3.9463   -1.2150   -0.1808 H   0  0  0  0  0  0  0  0  0  0  0  0
    2.9641    1.6661   -0.8925 H   0  0  0  0  0  0  0  0  0  0  0  0
    2.5131    1.9441    0.8082 H   0  0  0  0  0  0  0  0  0  0  0  0
    4.0426    1.0660    0.4595 H   0  0  0  0  0  0  0  0  0  0  0  0
  1  2  1  0
  2  3  1  0
  3  4  1  0
  4  5  1  0
  5  6  1  0
  6  7  1  0
  6  8  1  0
  5  9  1  0
  9 10  2  0
  9 11  1  0
  7  2  1  0
  1 12  1  0
  1 13  1  0
  1 14  1  0
  2 15  1  6
  3 16  1  0
  3 17  1  0
  4 18  1  0
  4 19  1  0
  5 20  1  1
  6 21  1  6
  7 22  1  0
  7 23  1  0
  8 24  1  0
 10 25  1  0
 10 26  1  0
 11 27  1  0
 11 28  1  0
 11 29  1  0
M  END
>  <Ligand ID>  (1) 
LIG0000310

>  <Ligand>  (1) 
(+)-Isopulegol

>  <SMILES>  (1) 
C[C@H]1CC[C@@H]([C@H](C1)O)C(=C)C

>  <CID>  (1) 
1268090.0

>  <ChEMBL ID>  (1) 
nan

>  <InChiKey>  (1) 
ZYTMANIQRDEHIO-AEJSXWLSSA-N

>  <InChi>  (1) 
InChI=1S/C10H18O/c1-7(2)9-5-4-8(3)6-10(9)11/h8-11H,1,4-6H2,2-3H3/t8-,9+,10-/m0/s1

>  <IUPAC Name>  (1) 
(1S,2R,5S)-5-methyl-2-prop-1-en-2-ylcyclohexan-1-ol

$$$$
