
     RDKit          3D

137138  0  0  0  0  0  0  0  0999 V2000
    4.6584   -4.6543   -2.1805 C   0  0  0  0  0  0  0  0  0  0  0  0
    3.3952   -4.1451   -2.3358 O   0  0  0  0  0  0  0  0  0  0  0  0
    3.4002   -2.7822   -2.4637 C   0  0  0  0  0  0  0  0  0  0  0  0
    3.9584   -2.1083   -1.2392 C   0  0  0  0  0  0  0  0  0  0  0  0
    3.9105   -0.6894   -1.4838 N   0  0  0  0  0  0  0  0  0  0  0  0
    2.9332    0.2519   -1.2295 C   0  0  0  0  0  0  0  0  0  0  0  0
    3.2231    1.4645   -1.6928 O   0  0  0  0  0  0  0  0  0  0  0  0
    1.6423    0.2383   -0.5633 C   0  0  2  0  0  0  0  0  0  0  0  0
    1.4884    1.5135    0.2952 C   0  0  0  0  0  0  0  0  0  0  0  0
    0.1100    1.5334    0.8752 C   0  0  0  0  0  0  0  0  0  0  0  0
   -0.0646    3.0752    1.8557 S   0  0  0  0  0  0  0  0  0  0  0  0
   -1.7580    3.1476    2.5344 C   0  0  0  0  0  0  0  0  0  0  0  0
   -2.6875    3.2800    1.3433 C   0  0  0  0  0  0  0  0  0  0  0  0
   -4.1098    3.2525    1.7716 C   0  0  0  0  0  0  0  0  0  0  0  0
   -4.4904    3.2444    2.9527 O   0  0  0  0  0  0  0  0  0  0  0  0
   -5.1970    3.2294    0.8122 N   0  0  0  0  0  0  0  0  0  0  0  0
   -6.5876    3.1426    1.2493 C   0  0  1  0  0  0  0  0  0  0  0  0
   -7.5090    3.9597    0.3993 C   0  0  0  0  0  0  0  0  0  0  0  0
   -7.1460    5.4054    0.4187 C   0  0  0  0  0  0  0  0  0  0  0  0
   -7.6783    6.2744    1.3640 C   0  0  0  0  0  0  0  0  0  0  0  0
   -7.3438    7.6242    1.3894 C   0  0  0  0  0  0  0  0  0  0  0  0
   -6.4699    8.1457    0.4741 C   0  0  0  0  0  0  0  0  0  0  0  0
   -5.9430    7.2810   -0.4639 C   0  0  0  0  0  0  0  0  0  0  0  0
   -6.2685    5.9425   -0.4974 C   0  0  0  0  0  0  0  0  0  0  0  0
   -6.9381    1.6651    1.0875 C   0  0  0  0  0  0  0  0  0  0  0  0
   -8.0383    1.1985    1.3739 O   0  0  0  0  0  0  0  0  0  0  0  0
   -5.9651    0.7934    0.5887 N   0  0  0  0  0  0  0  0  0  0  0  0
   -6.0994   -0.6773    0.4293 C   0  0  2  0  0  0  0  0  0  0  0  0
   -5.1559   -1.2741    1.3825 C   0  0  0  0  0  0  0  0  0  0  0  0
   -4.6508   -0.4542    2.2185 O   0  0  0  0  0  0  0  0  0  0  0  0
   -4.7026   -2.6041    1.5288 N   0  0  0  0  0  0  0  0  0  0  0  0
   -3.8152   -2.8932    2.6211 C   0  0  2  0  0  0  0  0  0  0  0  0
   -2.3745   -2.9431    2.2492 C   0  0  0  0  0  0  0  0  0  0  0  0
   -1.5524   -3.0395    3.1666 O   0  0  0  0  0  0  0  0  0  0  0  0
   -1.8597   -2.8941    0.9288 N   0  0  0  0  0  0  0  0  0  0  0  0
   -0.4034   -2.8394    0.7473 C   0  0  2  0  0  0  0  0  0  0  0  0
   -0.0614   -1.5371    0.0514 C   0  0  0  0  0  0  0  0  0  0  0  0
   -0.8864   -0.9054   -0.6166 O   0  0  0  0  0  0  0  0  0  0  0  0
    1.2425   -0.9459    0.1354 N   0  0  0  0  0  0  0  0  0  0  0  0
    0.0728   -3.9852   -0.1179 C   0  0  0  0  0  0  0  0  0  0  0  0
   -0.2519   -5.2753    0.4855 C   0  0  0  0  0  0  0  0  0  0  0  0
   -0.7810   -5.5019    1.5832 O   0  0  0  0  0  0  0  0  0  0  0  0
    0.0839   -6.4497   -0.2978 N   0  0  0  0  0  0  0  0  0  0  0  0
   -4.2483   -4.0403    3.4500 C   0  0  0  0  0  0  0  0  0  0  0  0
   -4.3961   -5.3331    2.7239 C   0  0  0  0  0  0  0  0  0  0  0  0
   -5.5012   -5.4305    1.7590 C   0  0  0  0  0  0  0  0  0  0  0  0
   -6.6054   -4.8140    1.9987 O   0  0  0  0  0  0  0  0  0  0  0  0
   -5.4177   -6.1887    0.5567 N   0  0  0  0  0  0  0  0  0  0  0  0
   -5.8178   -0.9278   -1.0262 C   0  0  2  0  0  0  0  0  0  0  0  0
   -6.8158   -0.1415   -1.8894 C   0  0  0  0  0  0  0  0  0  0  0  0
   -6.5924   -0.3443   -3.3485 C   0  0  0  0  0  0  0  0  0  0  0  0
   -6.1359   -2.3931   -1.3742 C   0  0  0  0  0  0  0  0  0  0  0  0
    5.1783   -0.1583   -2.0947 C   0  0  0  0  0  0  0  0  0  0  0  0
    6.0767    0.2566   -0.9835 C   0  0  0  0  0  0  0  0  0  0  0  0
    5.5931    0.0682    0.1911 O   0  0  0  0  0  0  0  0  0  0  0  0
    7.3628    0.8199   -1.1658 N   0  0  0  0  0  0  0  0  0  0  0  0
    8.1091    1.1833    0.0151 C   0  0  2  0  0  0  0  0  0  0  0  0
    8.1992    2.6795    0.1432 C   0  0  0  0  0  0  0  0  0  0  0  0
    8.7856    3.1628    1.1430 O   0  0  0  0  0  0  0  0  0  0  0  0
    7.6227    3.4964   -0.8655 N   0  0  0  0  0  0  0  0  0  0  0  0
    7.7189    4.9320   -0.7240 C   0  0  0  0  0  0  0  0  0  0  0  0
    9.1447    5.3238   -0.6751 C   0  0  0  0  0  0  0  0  0  0  0  0
    9.3968    6.5632   -0.5558 O   0  0  0  0  0  0  0  0  0  0  0  0
   10.2085    4.3900   -0.7540 N   0  0  0  0  0  0  0  0  0  0  0  0
    9.4515    0.5520    0.1132 C   0  0  0  0  0  0  0  0  0  0  0  0
    9.5067   -0.9332    0.1651 C   0  0  0  0  0  0  0  0  0  0  0  0
    8.9449   -1.6610   -1.0199 C   0  0  0  0  0  0  0  0  0  0  0  0
   10.9446   -1.4320    0.3601 C   0  0  0  0  0  0  0  0  0  0  0  0
    5.2180   -4.3363   -1.3085 H   0  0  0  0  0  0  0  0  0  0  0  0
    5.3175   -4.4239   -3.0622 H   0  0  0  0  0  0  0  0  0  0  0  0
    4.5474   -5.7677   -2.0747 H   0  0  0  0  0  0  0  0  0  0  0  0
    2.3721   -2.3740   -2.6539 H   0  0  0  0  0  0  0  0  0  0  0  0
    3.9980   -2.5491   -3.3767 H   0  0  0  0  0  0  0  0  0  0  0  0
    5.0177   -2.4379   -1.0377 H   0  0  0  0  0  0  0  0  0  0  0  0
    3.3983   -2.4875   -0.3828 H   0  0  0  0  0  0  0  0  0  0  0  0
    0.8243    0.4002   -1.3412 H   0  0  0  0  0  0  0  0  0  0  0  0
    2.2889    1.5866    1.0407 H   0  0  0  0  0  0  0  0  0  0  0  0
    1.5797    2.3337   -0.4252 H   0  0  0  0  0  0  0  0  0  0  0  0
   -0.6115    1.6576    0.0293 H   0  0  0  0  0  0  0  0  0  0  0  0
   -0.1434    0.6876    1.5237 H   0  0  0  0  0  0  0  0  0  0  0  0
   -2.0115    2.2116    3.0446 H   0  0  0  0  0  0  0  0  0  0  0  0
   -1.8238    4.0326    3.1977 H   0  0  0  0  0  0  0  0  0  0  0  0
   -2.4437    4.1697    0.7385 H   0  0  0  0  0  0  0  0  0  0  0  0
   -2.5308    2.3671    0.7059 H   0  0  0  0  0  0  0  0  0  0  0  0
   -4.8913    3.2776   -0.1578 H   0  0  0  0  0  0  0  0  0  0  0  0
   -6.6780    3.3902    2.3348 H   0  0  0  0  0  0  0  0  0  0  0  0
   -7.5464    3.6008   -0.6368 H   0  0  0  0  0  0  0  0  0  0  0  0
   -8.5421    3.8070    0.8139 H   0  0  0  0  0  0  0  0  0  0  0  0
   -8.3765    5.8475    2.0951 H   0  0  0  0  0  0  0  0  0  0  0  0
   -7.7661    8.2743    2.1273 H   0  0  0  0  0  0  0  0  0  0  0  0
   -6.1687    9.1942    0.4431 H   0  0  0  0  0  0  0  0  0  0  0  0
   -5.2369    7.6288   -1.2282 H   0  0  0  0  0  0  0  0  0  0  0  0
   -5.8507    5.2911   -1.2297 H   0  0  0  0  0  0  0  0  0  0  0  0
   -5.0714    1.1873    0.2970 H   0  0  0  0  0  0  0  0  0  0  0  0
   -7.1210   -0.9390    0.7009 H   0  0  0  0  0  0  0  0  0  0  0  0
   -5.0103   -3.2586    0.8243 H   0  0  0  0  0  0  0  0  0  0  0  0
   -3.8075   -1.9922    3.3475 H   0  0  0  0  0  0  0  0  0  0  0  0
   -2.5454   -2.9055    0.1825 H   0  0  0  0  0  0  0  0  0  0  0  0
    0.0611   -2.8136    1.7244 H   0  0  0  0  0  0  0  0  0  0  0  0
    1.8679   -1.4341    0.7840 H   0  0  0  0  0  0  0  0  0  0  0  0
   -0.3072   -3.9060   -1.1453 H   0  0  0  0  0  0  0  0  0  0  0  0
    1.2000   -3.9346   -0.1516 H   0  0  0  0  0  0  0  0  0  0  0  0
   -0.5136   -6.6120   -1.1637 H   0  0  0  0  0  0  0  0  0  0  0  0
    0.8600   -7.0916   -0.0260 H   0  0  0  0  0  0  0  0  0  0  0  0
   -3.4813   -4.1458    4.2699 H   0  0  0  0  0  0  0  0  0  0  0  0
   -5.2397   -3.7680    3.9232 H   0  0  0  0  0  0  0  0  0  0  0  0
   -3.4507   -5.5782    2.1432 H   0  0  0  0  0  0  0  0  0  0  0  0
   -4.4533   -6.1854    3.4741 H   0  0  0  0  0  0  0  0  0  0  0  0
   -6.1464   -6.9462    0.4509 H   0  0  0  0  0  0  0  0  0  0  0  0
   -4.7049   -6.0389   -0.1848 H   0  0  0  0  0  0  0  0  0  0  0  0
   -4.7836   -0.7054   -1.2463 H   0  0  0  0  0  0  0  0  0  0  0  0
   -7.8359   -0.4532   -1.6005 H   0  0  0  0  0  0  0  0  0  0  0  0
   -6.7133    0.9509   -1.6673 H   0  0  0  0  0  0  0  0  0  0  0  0
   -7.2587   -1.1242   -3.7790 H   0  0  0  0  0  0  0  0  0  0  0  0
   -6.8901    0.6003   -3.8791 H   0  0  0  0  0  0  0  0  0  0  0  0
   -5.5262   -0.4895   -3.5696 H   0  0  0  0  0  0  0  0  0  0  0  0
   -6.7005   -2.4623   -2.3446 H   0  0  0  0  0  0  0  0  0  0  0  0
   -6.8170   -2.8487   -0.6298 H   0  0  0  0  0  0  0  0  0  0  0  0
   -5.2481   -3.0119   -1.4862 H   0  0  0  0  0  0  0  0  0  0  0  0
    4.9310    0.6844   -2.7619 H   0  0  0  0  0  0  0  0  0  0  0  0
    5.6573   -0.9442   -2.6939 H   0  0  0  0  0  0  0  0  0  0  0  0
    7.6984    0.9478   -2.1432 H   0  0  0  0  0  0  0  0  0  0  0  0
    7.5181    0.8128    0.9077 H   0  0  0  0  0  0  0  0  0  0  0  0
    7.1443    3.0661   -1.6883 H   0  0  0  0  0  0  0  0  0  0  0  0
    7.2558    5.4608   -1.5949 H   0  0  0  0  0  0  0  0  0  0  0  0
    7.1842    5.2681    0.1884 H   0  0  0  0  0  0  0  0  0  0  0  0
   11.0055    4.5431   -0.0686 H   0  0  0  0  0  0  0  0  0  0  0  0
   10.2000    3.6071   -1.4429 H   0  0  0  0  0  0  0  0  0  0  0  0
   10.1014    0.9675   -0.7136 H   0  0  0  0  0  0  0  0  0  0  0  0
    9.8961    0.9053    1.0973 H   0  0  0  0  0  0  0  0  0  0  0  0
    8.9538   -1.2900    1.0900 H   0  0  0  0  0  0  0  0  0  0  0  0
    9.5407   -2.6026   -1.2340 H   0  0  0  0  0  0  0  0  0  0  0  0
    8.9825   -1.0114   -1.9154 H   0  0  0  0  0  0  0  0  0  0  0  0
    7.8838   -1.9495   -0.8671 H   0  0  0  0  0  0  0  0  0  0  0  0
   10.8628   -2.5243    0.4821 H   0  0  0  0  0  0  0  0  0  0  0  0
   11.5245   -1.1159   -0.5165 H   0  0  0  0  0  0  0  0  0  0  0  0
   11.3132   -0.9944    1.3085 H   0  0  0  0  0  0  0  0  0  0  0  0
  1  2  1  0
  2  3  1  0
  3  4  1  0
  4  5  1  0
  5  6  1  0
  6  7  2  0
  6  8  1  0
  8  9  1  0
  9 10  1  0
 10 11  1  0
 11 12  1  0
 12 13  1  0
 13 14  1  0
 14 15  2  0
 14 16  1  0
 16 17  1  0
 17 18  1  0
 18 19  1  0
 19 20  2  0
 20 21  1  0
 21 22  2  0
 22 23  1  0
 23 24  2  0
 17 25  1  0
 25 26  2  0
 25 27  1  0
 27 28  1  0
 28 29  1  0
 29 30  2  0
 29 31  1  0
 31 32  1  0
 32 33  1  0
 33 34  2  0
 33 35  1  0
 35 36  1  0
 36 37  1  0
 37 38  2  0
 37 39  1  0
 36 40  1  0
 40 41  1  0
 41 42  2  0
 41 43  1  0
 32 44  1  0
 44 45  1  0
 45 46  1  0
 46 47  2  0
 46 48  1  0
 28 49  1  0
 49 50  1  0
 50 51  1  0
 49 52  1  0
  5 53  1  0
 53 54  1  0
 54 55  2  0
 54 56  1  0
 56 57  1  0
 57 58  1  0
 58 59  2  0
 58 60  1  0
 60 61  1  0
 61 62  1  0
 62 63  2  0
 62 64  1  0
 57 65  1  0
 65 66  1  0
 66 67  1  0
 66 68  1  0
 39  8  1  0
 24 19  1  0
  1 69  1  0
  1 70  1  0
  1 71  1  0
  3 72  1  0
  3 73  1  0
  4 74  1  0
  4 75  1  0
  8 76  1  6
  9 77  1  0
  9 78  1  0
 10 79  1  0
 10 80  1  0
 12 81  1  0
 12 82  1  0
 13 83  1  0
 13 84  1  0
 16 85  1  0
 17 86  1  1
 18 87  1  0
 18 88  1  0
 20 89  1  0
 21 90  1  0
 22 91  1  0
 23 92  1  0
 24 93  1  0
 27 94  1  0
 28 95  1  1
 31 96  1  0
 32 97  1  1
 35 98  1  0
 36 99  1  1
 39100  1  0
 40101  1  0
 40102  1  0
 43103  1  0
 43104  1  0
 44105  1  0
 44106  1  0
 45107  1  0
 45108  1  0
 48109  1  0
 48110  1  0
 49111  1  6
 50112  1  0
 50113  1  0
 51114  1  0
 51115  1  0
 51116  1  0
 52117  1  0
 52118  1  0
 52119  1  0
 53120  1  0
 53121  1  0
 56122  1  0
 57123  1  1
 60124  1  0
 61125  1  0
 61126  1  0
 64127  1  0
 64128  1  0
 65129  1  0
 65130  1  0
 66131  1  0
 67132  1  0
 67133  1  0
 67134  1  0
 68135  1  0
 68136  1  0
 68137  1  0
M  END
>  <Ligand ID>  (1) 
LIG0001567

>  <Ligand>  (1) 
CHEMBL3354578

>  <SMILES>  (1) 
COCCN(C(=O)[C@@H]1CCSCCC(=O)N[C@@H](Cc2ccccc2)C(=O)N[C@H](C(=O)N[C@H](C(=O)N[C@H](C(=O)N1)CC(=O)N)CCC(=O)N)[C@H](CC)C)CC(=O)N[C@H](C(=O)NCC(=O)N)CC(C)C

>  <CID>  (1) 
118720267.0

>  <ChEMBL ID>  (1) 
nan

>  <InChiKey>  (1) 
VKUVXTCQRJKPRW-DHTODDSISA-N

>  <InChi>  (1) 
InChI=1S/C44H69N11O12S/c1-6-26(4)38-43(65)51-28(12-13-33(45)56)40(62)53-32(22-34(46)57)41(63)52-29(14-18-68-19-15-36(59)49-31(42(64)54-38)21-27-10-8-7-9-11-27)44(66)55(16-17-67-5)24-37(60)50-30(20-25(2)3)39(61)48-23-35(47)58/h7-11,25-26,28-32,38H,6,12-24H2,1-5H3,(H2,45,56)(H2,46,57)(H2,47,58)(H,48,61)(H,49,59)(H,50,60)(H,51,65)(H,52,63)(H,53,62)(H,54,64)/t26-,28-,29-,30-,31-,32-,38-/m0/s1

>  <IUPAC Name>  (1) 
(4S,7S,10S,13S,16S)-7-(2-amino-2-oxoethyl)-N-[2-[[(2S)-1-[(2-amino-2-oxoethyl)amino]-4-methyl-1-oxopentan-2-yl]amino]-2-oxoethyl]-10-(3-amino-3-oxopropyl)-16-benzyl-13-[(2S)-butan-2-yl]-N-(2-methoxyethyl)-6,9,12,15,18-pentaoxo-1-thia-5,8,11,14,17-pentazacycloicosane-4-carboxamide

$$$$
