
     RDKit          3D

 29 29  0  0  0  0  0  0  0  0999 V2000
    6.1064   -0.5257    2.2930 N   0  0  0  0  0  0  0  0  0  0  0  0
    5.5698   -0.0666    1.3601 C   0  0  0  0  0  0  0  0  0  0  0  0
    4.9237    0.4815    0.2221 N   0  0  0  0  0  0  0  0  0  0  0  0
    3.6163    0.0162   -0.0995 C   0  0  0  0  0  0  0  0  0  0  0  0
    2.8230   -0.3318    0.8290 N   0  0  0  0  0  0  0  0  0  0  0  0
    1.4895   -0.8189    0.7176 C   0  0  0  0  0  0  0  0  0  0  0  0
    0.4896    0.2437    0.3346 C   0  0  0  0  0  0  0  0  0  0  0  0
   -0.9064   -0.3331    0.2319 C   0  0  0  0  0  0  0  0  0  0  0  0
   -1.8397    0.7713   -0.1494 C   0  0  0  0  0  0  0  0  0  0  0  0
   -3.2510    0.3001   -0.2767 C   0  0  0  0  0  0  0  0  0  0  0  0
   -3.6600   -1.0043   -0.0685 C   0  0  0  0  0  0  0  0  0  0  0  0
   -4.9783   -1.0979   -0.2602 N   0  0  0  0  0  0  0  0  0  0  0  0
   -5.3976    0.1454   -0.5883 C   0  0  0  0  0  0  0  0  0  0  0  0
   -4.3526    1.0010   -0.6004 N   0  0  0  0  0  0  0  0  0  0  0  0
    3.2238   -0.0486   -1.4766 N   0  0  0  0  0  0  0  0  0  0  0  0
    5.3869    1.2112   -0.3749 H   0  0  0  0  0  0  0  0  0  0  0  0
    1.1837   -1.1962    1.7159 H   0  0  0  0  0  0  0  0  0  0  0  0
    1.4578   -1.6662    0.0238 H   0  0  0  0  0  0  0  0  0  0  0  0
    0.7422    0.7067   -0.6266 H   0  0  0  0  0  0  0  0  0  0  0  0
    0.4741    1.0471    1.0880 H   0  0  0  0  0  0  0  0  0  0  0  0
   -0.8838   -1.0475   -0.6385 H   0  0  0  0  0  0  0  0  0  0  0  0
   -1.2111   -0.9119    1.1112 H   0  0  0  0  0  0  0  0  0  0  0  0
   -1.5446    1.1207   -1.1721 H   0  0  0  0  0  0  0  0  0  0  0  0
   -1.7828    1.6064    0.5771 H   0  0  0  0  0  0  0  0  0  0  0  0
   -3.0556   -1.8724    0.2105 H   0  0  0  0  0  0  0  0  0  0  0  0
   -6.4312    0.4488   -0.8177 H   0  0  0  0  0  0  0  0  0  0  0  0
   -4.3331    2.0208   -0.8113 H   0  0  0  0  0  0  0  0  0  0  0  0
    3.5086    0.6852   -2.1559 H   0  0  0  0  0  0  0  0  0  0  0  0
    2.6325   -0.8849   -1.7457 H   0  0  0  0  0  0  0  0  0  0  0  0
  1  2  3  0
  2  3  1  0
  3  4  1  0
  4  5  2  3
  5  6  1  0
  6  7  1  0
  7  8  1  0
  8  9  1  0
  9 10  1  0
 10 11  2  0
 11 12  1  0
 12 13  2  0
 13 14  1  0
  4 15  1  0
 14 10  1  0
  3 16  1  0
  6 17  1  0
  6 18  1  0
  7 19  1  0
  7 20  1  0
  8 21  1  0
  8 22  1  0
  9 23  1  0
  9 24  1  0
 11 25  1  0
 13 26  1  0
 14 27  1  0
 15 28  1  0
 15 29  1  0
M  END
>  <Ligand ID>  (1) 
LIG0005760

>  <Ligand>  (1) 
CHEMBL1077861

>  <SMILES>  (1) 
N#CNC(=NCCCCc1cnc[nH]1)N

>  <CID>  (1) 
44480959.0

>  <ChEMBL ID>  (1) 
nan

>  <InChiKey>  (1) 
BDBQKEQJJZXSDB-UHFFFAOYSA-N

>  <InChi>  (1) 
InChI=1S/C9H14N6/c10-6-14-9(11)13-4-2-1-3-8-5-12-7-15-8/h5,7H,1-4H2,(H,12,15)(H3,11,13,14)

>  <IUPAC Name>  (1) 
1-cyano-2-[4-(1H-imidazol-5-yl)butyl]guanidine

$$$$
