
     RDKit          3D

 19 19  0  0  0  0  0  0  0  0999 V2000
    2.4948    0.3315    0.6197 C   0  0  0  0  0  0  0  0  0  0  0  0
    1.8100   -0.2634   -0.5880 C   0  0  0  0  0  0  0  0  0  0  0  0
    0.3384   -0.3005   -0.3198 C   0  0  0  0  0  0  0  0  0  0  0  0
   -0.2606   -1.4081    0.2826 C   0  0  0  0  0  0  0  0  0  0  0  0
   -1.6203   -1.4267    0.5234 C   0  0  0  0  0  0  0  0  0  0  0  0
   -2.3992   -0.3316    0.1622 C   0  0  0  0  0  0  0  0  0  0  0  0
   -1.7882    0.7654   -0.4374 C   0  0  0  0  0  0  0  0  0  0  0  0
   -0.4170    0.7822   -0.6794 C   0  0  0  0  0  0  0  0  0  0  0  0
   -2.5741    1.8737   -0.8034 O   0  0  0  0  0  0  0  0  0  0  0  0
    2.8693    1.3621    0.3730 H   0  0  0  0  0  0  0  0  0  0  0  0
    3.3072   -0.3048    1.0258 H   0  0  0  0  0  0  0  0  0  0  0  0
    1.7658    0.5035    1.4430 H   0  0  0  0  0  0  0  0  0  0  0  0
    2.1587   -1.2990   -0.7996 H   0  0  0  0  0  0  0  0  0  0  0  0
    2.0155    0.3704   -1.4628 H   0  0  0  0  0  0  0  0  0  0  0  0
    0.3414   -2.2628    0.5655 H   0  0  0  0  0  0  0  0  0  0  0  0
   -2.1157   -2.2831    0.9946 H   0  0  0  0  0  0  0  0  0  0  0  0
   -3.4547   -0.3773    0.3632 H   0  0  0  0  0  0  0  0  0  0  0  0
    0.0570    1.6183   -1.1378 H   0  0  0  0  0  0  0  0  0  0  0  0
   -2.5281    2.6500   -0.1249 H   0  0  0  0  0  0  0  0  0  0  0  0
  1  2  1  0
  2  3  1  0
  3  4  2  0
  4  5  1  0
  5  6  2  0
  6  7  1  0
  7  8  2  0
  7  9  1  0
  8  3  1  0
  1 10  1  0
  1 11  1  0
  1 12  1  0
  2 13  1  0
  2 14  1  0
  4 15  1  0
  5 16  1  0
  6 17  1  0
  8 18  1  0
  9 19  1  0
M  END
>  <Ligand ID>  (1) 
LIG0000541

>  <Ligand>  (1) 
3-Ethylphenol

>  <SMILES>  (1) 
CCc1cccc(c1)O

>  <CID>  (1) 
12101.0

>  <ChEMBL ID>  (1) 
nan

>  <InChiKey>  (1) 
HMNKTRSOROOSPP-UHFFFAOYSA-N

>  <InChi>  (1) 
InChI=1S/C8H10O/c1-2-7-4-3-5-8(9)6-7/h3-6,9H,2H2,1H3

>  <IUPAC Name>  (1) 
3-ethylphenol

$$$$
