
     RDKit          3D

 43 44  0  0  0  0  0  0  0  0999 V2000
    0.8935    1.4074    2.2000 C   0  0  0  0  0  0  0  0  0  0  0  0
    0.1645    0.4999    1.2833 C   0  0  0  0  0  0  0  0  0  0  0  0
   -1.1684    0.7545    1.0341 C   0  0  0  0  0  0  0  0  0  0  0  0
   -1.8901   -0.0629    0.1868 C   0  0  0  0  0  0  0  0  0  0  0  0
   -1.2706   -1.1412   -0.4132 C   0  0  0  0  0  0  0  0  0  0  0  0
    0.0653   -1.3784   -0.1500 C   0  0  0  0  0  0  0  0  0  0  0  0
    0.8197   -0.5842    0.6907 C   0  0  0  0  0  0  0  0  0  0  0  0
    2.2491   -0.8637    0.9530 C   0  0  0  0  0  0  0  0  0  0  0  0
    3.1732    0.0547    0.2292 C   0  0  0  0  0  0  0  0  0  0  0  0
    2.8257    1.0284   -0.5702 N   0  0  0  0  0  0  0  0  0  0  0  0
    3.9865    1.7098   -1.0958 C   0  0  0  0  0  0  0  0  0  0  0  0
    5.1171    0.7281   -0.8907 C   0  0  0  0  0  0  0  0  0  0  0  0
    4.6151    0.0222    0.2906 N   0  0  0  0  0  0  0  0  0  0  0  0
    0.7388   -2.5334   -0.7894 C   0  0  0  0  0  0  0  0  0  0  0  0
   -1.9402   -1.9798   -1.2591 O   0  0  0  0  0  0  0  0  0  0  0  0
   -3.3260    0.1534   -0.1249 C   0  0  0  0  0  0  0  0  0  0  0  0
   -4.1702   -1.0362    0.2840 C   0  0  0  0  0  0  0  0  0  0  0  0
   -3.8250    1.3433    0.6680 C   0  0  0  0  0  0  0  0  0  0  0  0
   -3.5040    0.4751   -1.5994 C   0  0  0  0  0  0  0  0  0  0  0  0
    0.2579    1.6852    3.0568 H   0  0  0  0  0  0  0  0  0  0  0  0
    1.8929    1.0616    2.4619 H   0  0  0  0  0  0  0  0  0  0  0  0
    1.0366    2.3554    1.6043 H   0  0  0  0  0  0  0  0  0  0  0  0
   -1.6610    1.6004    1.5027 H   0  0  0  0  0  0  0  0  0  0  0  0
    2.4847   -0.9180    2.0316 H   0  0  0  0  0  0  0  0  0  0  0  0
    2.4586   -1.8866    0.5716 H   0  0  0  0  0  0  0  0  0  0  0  0
    3.8424    2.0011   -2.1416 H   0  0  0  0  0  0  0  0  0  0  0  0
    4.2134    2.5984   -0.4474 H   0  0  0  0  0  0  0  0  0  0  0  0
    6.0814    1.1868   -0.6403 H   0  0  0  0  0  0  0  0  0  0  0  0
    5.2257    0.0315   -1.7359 H   0  0  0  0  0  0  0  0  0  0  0  0
    5.2059   -0.4179    1.0312 H   0  0  0  0  0  0  0  0  0  0  0  0
    1.6265   -2.1290   -1.3187 H   0  0  0  0  0  0  0  0  0  0  0  0
    1.0635   -3.2711   -0.0290 H   0  0  0  0  0  0  0  0  0  0  0  0
    0.1066   -2.9902   -1.5795 H   0  0  0  0  0  0  0  0  0  0  0  0
   -1.5920   -2.0558   -2.2192 H   0  0  0  0  0  0  0  0  0  0  0  0
   -4.1462   -1.8361   -0.4757 H   0  0  0  0  0  0  0  0  0  0  0  0
   -3.6586   -1.4702    1.1782 H   0  0  0  0  0  0  0  0  0  0  0  0
   -5.1860   -0.7608    0.6238 H   0  0  0  0  0  0  0  0  0  0  0  0
   -3.6569    1.2127    1.7497 H   0  0  0  0  0  0  0  0  0  0  0  0
   -4.9277    1.3933    0.5383 H   0  0  0  0  0  0  0  0  0  0  0  0
   -3.3956    2.2875    0.2587 H   0  0  0  0  0  0  0  0  0  0  0  0
   -2.9029    1.3555   -1.8363 H   0  0  0  0  0  0  0  0  0  0  0  0
   -3.3412   -0.3914   -2.2484 H   0  0  0  0  0  0  0  0  0  0  0  0
   -4.5821    0.7604   -1.7398 H   0  0  0  0  0  0  0  0  0  0  0  0
  1  2  1  0
  2  3  2  0
  3  4  1  0
  4  5  2  0
  5  6  1  0
  6  7  2  0
  7  8  1  0
  8  9  1  0
  9 10  2  0
 10 11  1  0
 11 12  1  0
 12 13  1  0
  6 14  1  0
  5 15  1  0
  4 16  1  0
 16 17  1  0
 16 18  1  0
 16 19  1  0
  7  2  1  0
 13  9  1  0
  1 20  1  0
  1 21  1  0
  1 22  1  0
  3 23  1  0
  8 24  1  0
  8 25  1  0
 11 26  1  0
 11 27  1  0
 12 28  1  0
 12 29  1  0
 13 30  1  0
 14 31  1  0
 14 32  1  0
 14 33  1  0
 15 34  1  0
 17 35  1  0
 17 36  1  0
 17 37  1  0
 18 38  1  0
 18 39  1  0
 18 40  1  0
 19 41  1  0
 19 42  1  0
 19 43  1  0
M  END
>  <Ligand ID>  (1) 
LIG0000441

>  <Ligand>  (1) 
oxymetazoline

>  <SMILES>  (1) 
Cc1cc(c(c(c1CC1=NCCN1)C)O)C(C)(C)C

>  <CID>  (1) 
4636.0

>  <ChEMBL ID>  (1) 
nan

>  <InChiKey>  (1) 
WYWIFABBXFUGLM-UHFFFAOYSA-N

>  <InChi>  (1) 
InChI=1S/C16H24N2O/c1-10-8-13(16(3,4)5)15(19)11(2)12(10)9-14-17-6-7-18-14/h8,19H,6-7,9H2,1-5H3,(H,17,18)

>  <IUPAC Name>  (1) 
6-tert-butyl-3-(4,5-dihydro-1H-imidazol-2-ylmethyl)-2,4-dimethylphenol

$$$$
