
     RDKit          3D

 46 49  0  0  0  0  0  0  0  0999 V2000
    6.1062   -1.5601    0.1787 C   0  0  0  0  0  0  0  0  0  0  0  0
    5.0226   -2.4317    0.7512 C   0  0  0  0  0  0  0  0  0  0  0  0
    3.7599   -1.9267    0.3585 O   0  0  0  0  0  0  0  0  0  0  0  0
    3.4171   -0.6514    0.7315 C   0  0  0  0  0  0  0  0  0  0  0  0
    4.2240    0.0362    1.4082 O   0  0  0  0  0  0  0  0  0  0  0  0
    2.1110   -0.1135    0.3316 C   0  0  0  0  0  0  0  0  0  0  0  0
    1.7915    1.1743    0.7210 C   0  0  0  0  0  0  0  0  0  0  0  0
    0.5602    1.6437    0.3281 C   0  0  0  0  0  0  0  0  0  0  0  0
   -0.2914    0.8505   -0.4137 C   0  0  0  0  0  0  0  0  0  0  0  0
    0.0113   -0.4092   -0.7981 N   0  0  0  0  0  0  0  0  0  0  0  0
    1.2233   -0.8873   -0.4202 C   0  0  0  0  0  0  0  0  0  0  0  0
    1.6519   -2.0564   -0.7365 N   0  0  0  0  0  0  0  0  0  0  0  0
   -0.9202   -1.1774   -1.5677 C   0  0  0  0  0  0  0  0  0  0  0  0
   -1.9139   -1.9399   -0.8075 C   0  0  0  0  0  0  0  0  0  0  0  0
   -3.1916   -1.3937   -0.6051 C   0  0  0  0  0  0  0  0  0  0  0  0
   -4.1666   -2.0588    0.1049 C   0  0  0  0  0  0  0  0  0  0  0  0
   -3.9386   -3.2964    0.6540 C   0  0  0  0  0  0  0  0  0  0  0  0
   -2.7002   -3.8520    0.4709 C   0  0  0  0  0  0  0  0  0  0  0  0
   -1.7159   -3.1802   -0.2460 C   0  0  0  0  0  0  0  0  0  0  0  0
   -1.4797    1.4361   -0.7431 N   0  0  0  0  0  0  0  0  0  0  0  0
   -1.7948    2.6898   -0.3721 C   0  0  0  0  0  0  0  0  0  0  0  0
   -0.9663    3.4599    0.3493 N   0  0  0  0  0  0  0  0  0  0  0  0
    0.2166    2.9387    0.7027 C   0  0  0  0  0  0  0  0  0  0  0  0
    1.0021    3.6453    1.3768 O   0  0  0  0  0  0  0  0  0  0  0  0
   -1.3603    4.7071    0.6796 C   0  0  0  0  0  0  0  0  0  0  0  0
   -2.5883    5.2048    0.2944 C   0  0  0  0  0  0  0  0  0  0  0  0
   -3.4699    4.4260   -0.4563 C   0  0  0  0  0  0  0  0  0  0  0  0
   -3.0506    3.1487   -0.7869 C   0  0  0  0  0  0  0  0  0  0  0  0
    7.0116   -2.1326   -0.0778 H   0  0  0  0  0  0  0  0  0  0  0  0
    6.3532   -0.7761    0.8989 H   0  0  0  0  0  0  0  0  0  0  0  0
    5.7028   -1.0410   -0.7266 H   0  0  0  0  0  0  0  0  0  0  0  0
    5.0909   -2.3624    1.8651 H   0  0  0  0  0  0  0  0  0  0  0  0
    5.1282   -3.4977    0.4256 H   0  0  0  0  0  0  0  0  0  0  0  0
    2.4361    1.8038    1.2957 H   0  0  0  0  0  0  0  0  0  0  0  0
    1.0557   -2.6855   -1.2914 H   0  0  0  0  0  0  0  0  0  0  0  0
   -0.4430   -1.8458   -2.3359 H   0  0  0  0  0  0  0  0  0  0  0  0
   -1.4911   -0.4436   -2.2164 H   0  0  0  0  0  0  0  0  0  0  0  0
   -3.4703   -0.4284   -1.0045 H   0  0  0  0  0  0  0  0  0  0  0  0
   -5.1571   -1.5958    0.2417 H   0  0  0  0  0  0  0  0  0  0  0  0
   -4.7473   -3.7591    1.1974 H   0  0  0  0  0  0  0  0  0  0  0  0
   -2.5047   -4.8234    0.8955 H   0  0  0  0  0  0  0  0  0  0  0  0
   -0.7847   -3.6809   -0.3435 H   0  0  0  0  0  0  0  0  0  0  0  0
   -0.6766    5.3283    1.2689 H   0  0  0  0  0  0  0  0  0  0  0  0
   -2.9178    6.1964    0.5492 H   0  0  0  0  0  0  0  0  0  0  0  0
   -4.4321    4.8101   -0.7605 H   0  0  0  0  0  0  0  0  0  0  0  0
   -3.7034    2.5076   -1.3696 H   0  0  0  0  0  0  0  0  0  0  0  0
  1  2  1  0
  2  3  1  0
  3  4  1  0
  4  5  2  0
  4  6  1  0
  6  7  2  0
  7  8  1  0
  8  9  2  0
  9 10  1  0
 10 11  1  0
 11 12  2  3
 10 13  1  0
 13 14  1  0
 14 15  2  0
 15 16  1  0
 16 17  2  0
 17 18  1  0
 18 19  2  0
  9 20  1  0
 20 21  2  0
 21 22  1  0
 22 23  1  0
 23 24  2  0
 22 25  1  0
 25 26  2  0
 26 27  1  0
 27 28  2  0
 11  6  1  0
 19 14  1  0
 28 21  1  0
 23  8  1  0
  1 29  1  0
  1 30  1  0
  1 31  1  0
  2 32  1  0
  2 33  1  0
  7 34  1  0
 12 35  1  0
 13 36  1  0
 13 37  1  0
 15 38  1  0
 16 39  1  0
 17 40  1  0
 18 41  1  0
 19 42  1  0
 25 43  1  0
 26 44  1  0
 27 45  1  0
 28 46  1  0
M  END
>  <Ligand ID>  (1) 
LIG0004450

>  <Ligand>  (1) 
MLS000034919

>  <SMILES>  (1) 
CCOC(=O)c1cc2c(n(c1=N)Cc1ccccc1)nc1n(c2=O)cccc1

>  <CID>  (1) 
651615.0

>  <ChEMBL ID>  (1) 
nan

>  <InChiKey>  (1) 
FCFRRERPZXNRCF-UHFFFAOYSA-N

>  <InChi>  (1) 
InChI=1S/C21H18N4O3/c1-2-28-21(27)15-12-16-19(23-17-10-6-7-11-24(17)20(16)26)25(18(15)22)13-14-8-4-3-5-9-14/h3-12,22H,2,13H2,1H3

>  <IUPAC Name>  (1) 
ethyl 7-benzyl-6-imino-2-oxo-1,7,9-triazatricyclo[8.4.0.03,8]tetradeca-3(8),4,9,11,13-pentaene-5-carboxylate

$$$$
