
     RDKit          3D

 26 26  0  0  0  0  0  0  0  0999 V2000
    3.9536   -0.9185   -0.1746 C   0  0  0  0  0  0  0  0  0  0  0  0
    2.6016   -0.5827   -0.4228 O   0  0  0  0  0  0  0  0  0  0  0  0
    1.6977   -0.3631    0.6335 C   0  0  0  0  0  0  0  0  0  0  0  0
    2.0936   -0.4660    1.8391 O   0  0  0  0  0  0  0  0  0  0  0  0
    0.2900   -0.0134    0.3540 C   0  0  0  0  0  0  0  0  0  0  0  0
   -0.0384    1.3165    0.2357 C   0  0  0  0  0  0  0  0  0  0  0  0
    1.0356    2.3387    0.3941 C   0  0  0  0  0  0  0  0  0  0  0  0
   -1.3425    1.7023   -0.0259 C   0  0  0  0  0  0  0  0  0  0  0  0
   -2.2897    0.7171   -0.1621 C   0  0  0  0  0  0  0  0  0  0  0  0
   -1.9562   -0.6284   -0.0422 C   0  0  0  0  0  0  0  0  0  0  0  0
   -0.6462   -1.0165    0.2206 C   0  0  0  0  0  0  0  0  0  0  0  0
   -0.3276   -2.3573    0.3375 O   0  0  0  0  0  0  0  0  0  0  0  0
   -3.0488   -1.6057   -0.2060 C   0  0  0  0  0  0  0  0  0  0  0  0
   -3.5894    1.0900   -0.4223 O   0  0  0  0  0  0  0  0  0  0  0  0
    4.3746   -1.3804   -1.0910 H   0  0  0  0  0  0  0  0  0  0  0  0
    4.1048   -1.5806    0.6832 H   0  0  0  0  0  0  0  0  0  0  0  0
    4.5281    0.0012    0.0242 H   0  0  0  0  0  0  0  0  0  0  0  0
    0.6048    3.3423    0.3261 H   0  0  0  0  0  0  0  0  0  0  0  0
    1.5439    2.1537    1.3441 H   0  0  0  0  0  0  0  0  0  0  0  0
    1.7144    2.1949   -0.4888 H   0  0  0  0  0  0  0  0  0  0  0  0
   -1.5601    2.7615   -0.1119 H   0  0  0  0  0  0  0  0  0  0  0  0
    0.1600   -2.8928   -0.3733 H   0  0  0  0  0  0  0  0  0  0  0  0
   -2.7648   -2.6301    0.0344 H   0  0  0  0  0  0  0  0  0  0  0  0
   -3.4329   -1.4739   -1.2424 H   0  0  0  0  0  0  0  0  0  0  0  0
   -3.8661   -1.2685    0.4807 H   0  0  0  0  0  0  0  0  0  0  0  0
   -3.8400    1.5596   -1.2751 H   0  0  0  0  0  0  0  0  0  0  0  0
  1  2  1  0
  2  3  1  0
  3  4  2  0
  3  5  1  0
  5  6  2  0
  6  7  1  0
  6  8  1  0
  8  9  2  0
  9 10  1  0
 10 11  2  0
 11 12  1  0
 10 13  1  0
  9 14  1  0
 11  5  1  0
  1 15  1  0
  1 16  1  0
  1 17  1  0
  7 18  1  0
  7 19  1  0
  7 20  1  0
  8 21  1  0
 12 22  1  0
 13 23  1  0
 13 24  1  0
 13 25  1  0
 14 26  1  0
M  END
>  <Ligand ID>  (1) 
LIG0000287

>  <Ligand>  (1) 
Methyl 3-methylorsellinate

>  <SMILES>  (1) 
COC(=O)c1c(C)cc(c(c1O)C)O

>  <CID>  (1) 
78435.0

>  <ChEMBL ID>  (1) 
nan

>  <InChiKey>  (1) 
UUQHKWMIDYRWHH-UHFFFAOYSA-N

>  <InChi>  (1) 
InChI=1S/C10H12O4/c1-5-4-7(11)6(2)9(12)8(5)10(13)14-3/h4,11-12H,1-3H3

>  <IUPAC Name>  (1) 
methyl 2,4-dihydroxy-3,6-dimethylbenzoate

$$$$
