
     RDKit          3D

146150  0  0  0  0  0  0  0  0999 V2000
    5.3508    1.5041    4.4576 C   0  0  0  0  0  0  0  0  0  0  0  0
    6.8478    1.4047    4.2195 C   0  0  0  0  0  0  0  0  0  0  0  0
    7.2250    2.0853    2.9394 C   0  0  0  0  0  0  0  0  0  0  0  0
    6.5604    1.4846    1.7220 C   0  0  0  0  0  0  0  0  0  0  0  0
    6.9671    0.0173    1.5546 C   0  0  1  0  0  0  0  0  0  0  0  0
    6.2842   -0.4930    0.3432 C   0  0  0  0  0  0  0  0  0  0  0  0
    7.0468   -0.6670   -0.6777 O   0  0  0  0  0  0  0  0  0  0  0  0
    4.9149   -0.7912    0.2316 N   0  0  0  0  0  0  0  0  0  0  0  0
    4.2991   -1.2864   -0.9829 C   0  0  1  0  0  0  0  0  0  0  0  0
    3.9494   -2.6960   -1.0647 C   0  0  0  0  0  0  0  0  0  0  0  0
    2.9061   -3.2662   -0.1910 C   0  0  0  0  0  0  0  0  0  0  0  0
    2.0417   -2.6646    0.4373 O   0  0  0  0  0  0  0  0  0  0  0  0
    2.9030   -4.6884   -0.0586 N   0  0  0  0  0  0  0  0  0  0  0  0
    2.0183   -5.5178    0.6829 C   0  0  0  0  0  0  0  0  0  0  0  0
    0.5611   -5.4861    0.1820 C   0  0  0  0  0  0  0  0  0  0  0  0
   -0.1478   -6.5134    1.0000 C   0  0  0  0  0  0  0  0  0  0  0  0
   -1.4537   -7.0385    0.5855 C   0  0  0  0  0  0  0  0  0  0  0  0
   -2.5666   -6.1243    0.4065 C   0  0  0  0  0  0  0  0  0  0  0  0
   -2.5229   -5.1942   -0.7598 C   0  0  2  0  0  0  0  0  0  0  0  0
   -3.8021   -4.4163   -0.7333 N   0  0  0  0  0  0  0  0  0  0  0  0
   -3.7960   -3.1059   -0.2103 C   0  0  0  0  0  0  0  0  0  0  0  0
   -2.6948   -2.6944    0.1965 O   0  0  0  0  0  0  0  0  0  0  0  0
   -4.9568   -2.1966   -0.0988 C   0  0  1  0  0  0  0  0  0  0  0  0
   -4.5683   -1.0146    0.6492 N   0  0  0  0  0  0  0  0  0  0  0  0
   -3.9695    0.1435    0.1257 C   0  0  0  0  0  0  0  0  0  0  0  0
   -3.7739    0.2167   -1.0737 O   0  0  0  0  0  0  0  0  0  0  0  0
   -3.5956    1.2471    1.1148 C   0  0  1  0  0  0  0  0  0  0  0  0
   -2.9918    2.3709    0.4523 N   0  0  0  0  0  0  0  0  0  0  0  0
   -1.6857    2.2618   -0.1388 C   0  0  0  0  0  0  0  0  0  0  0  0
   -1.2345    1.1102   -0.1716 O   0  0  0  0  0  0  0  0  0  0  0  0
   -0.9454    3.4553   -0.6763 C   0  0  1  0  0  0  0  0  0  0  0  0
    0.1680    3.0647   -1.4951 N   0  0  0  0  0  0  0  0  0  0  0  0
    1.3227    2.3555   -0.9896 C   0  0  0  0  0  0  0  0  0  0  0  0
    1.2166    1.9839    0.1723 O   0  0  0  0  0  0  0  0  0  0  0  0
    2.5191    2.0805   -1.7739 C   0  0  1  0  0  0  0  0  0  0  0  0
    3.3604    1.0812   -1.2231 N   0  0  0  0  0  0  0  0  0  0  0  0
    3.3239   -0.3268   -1.5662 C   0  0  0  0  0  0  0  0  0  0  0  0
    2.4382   -0.6391   -2.3639 O   0  0  0  0  0  0  0  0  0  0  0  0
    2.3184    1.9661   -3.2365 C   0  0  0  0  0  0  0  0  0  0  0  0
    3.5303    1.7728   -4.0526 C   0  0  0  0  0  0  0  0  0  0  0  0
    4.2421    2.8666   -4.5114 N   0  0  0  0  0  0  0  0  0  0  0  0
    5.2765    2.4454   -5.2486 C   0  0  0  0  0  0  0  0  0  0  0  0
    5.2800    1.1182   -5.2985 N   0  0  0  0  0  0  0  0  0  0  0  0
    4.2054    0.7116   -4.5628 C   0  0  0  0  0  0  0  0  0  0  0  0
   -1.8765    4.3235   -1.4334 C   0  0  0  0  0  0  0  0  0  0  0  0
   -1.1858    5.5339   -1.9957 C   0  0  0  0  0  0  0  0  0  0  0  0
   -0.6911    5.5822   -3.2768 C   0  0  0  0  0  0  0  0  0  0  0  0
   -0.0478    6.7575   -3.6528 C   0  0  0  0  0  0  0  0  0  0  0  0
    0.0952    7.8316   -2.7948 C   0  0  0  0  0  0  0  0  0  0  0  0
   -0.4152    7.7410   -1.5228 C   0  0  0  0  0  0  0  0  0  0  0  0
   -1.0607    6.6001   -1.1008 C   0  0  0  0  0  0  0  0  0  0  0  0
   -4.8469    1.6557    1.7970 C   0  0  0  0  0  0  0  0  0  0  0  0
   -4.7481    2.7453    2.8059 C   0  0  0  0  0  0  0  0  0  0  0  0
   -3.8531    2.4937    3.9657 C   0  0  0  0  0  0  0  0  0  0  0  0
   -2.5023    2.2869    3.5291 N   0  0  0  0  0  0  0  0  0  0  0  0
   -1.4678    2.5648    4.2738 C   0  0  0  0  0  0  0  0  0  0  0  0
   -0.1923    2.2932    3.6703 N   0  0  0  0  0  0  0  0  0  0  0  0
   -1.5922    3.0949    5.5805 N   0  0  0  0  0  0  0  0  0  0  0  0
   -5.4651   -1.9010   -1.4949 C   0  0  0  0  0  0  0  0  0  0  0  0
   -6.6487   -1.0234   -1.5121 C   0  0  0  0  0  0  0  0  0  0  0  0
   -6.8495    0.2857   -1.8418 C   0  0  0  0  0  0  0  0  0  0  0  0
   -8.1408    0.6436   -1.7009 N   0  0  0  0  0  0  0  0  0  0  0  0
   -8.8261   -0.4296   -1.2719 C   0  0  0  0  0  0  0  0  0  0  0  0
   -7.9204   -1.4899   -1.1446 C   0  0  0  0  0  0  0  0  0  0  0  0
   -8.4357   -2.6775   -0.7187 C   0  0  0  0  0  0  0  0  0  0  0  0
   -9.7522   -2.9054   -0.4118 C   0  0  0  0  0  0  0  0  0  0  0  0
  -10.6374   -1.8560   -0.5393 C   0  0  0  0  0  0  0  0  0  0  0  0
  -10.1725   -0.6140   -0.9710 C   0  0  0  0  0  0  0  0  0  0  0  0
   -2.5071   -5.8764   -2.0736 C   0  0  0  0  0  0  0  0  0  0  0  0
   -1.5349   -6.6301   -2.4295 O   0  0  0  0  0  0  0  0  0  0  0  0
   -3.5506   -5.7560   -3.0359 N   0  0  0  0  0  0  0  0  0  0  0  0
    8.3985    0.0968    1.2020 N   0  0  0  0  0  0  0  0  0  0  0  0
    9.4126   -0.4708    1.9931 C   0  0  0  0  0  0  0  0  0  0  0  0
    9.1748   -1.0992    3.0772 O   0  0  0  0  0  0  0  0  0  0  0  0
   10.8364   -0.3623    1.5945 C   0  0  0  0  0  0  0  0  0  0  0  0
    5.1483    0.9820    5.4215 H   0  0  0  0  0  0  0  0  0  0  0  0
    5.0487    2.5633    4.4937 H   0  0  0  0  0  0  0  0  0  0  0  0
    4.8440    0.9437    3.6542 H   0  0  0  0  0  0  0  0  0  0  0  0
    7.3798    1.9765    5.0353 H   0  0  0  0  0  0  0  0  0  0  0  0
    7.1368    0.3534    4.2075 H   0  0  0  0  0  0  0  0  0  0  0  0
    8.3394    2.0937    2.8041 H   0  0  0  0  0  0  0  0  0  0  0  0
    6.9474    3.1519    3.0135 H   0  0  0  0  0  0  0  0  0  0  0  0
    5.4762    1.5294    1.8091 H   0  0  0  0  0  0  0  0  0  0  0  0
    6.8702    2.0784    0.8417 H   0  0  0  0  0  0  0  0  0  0  0  0
    6.7940   -0.5632    2.4562 H   0  0  0  0  0  0  0  0  0  0  0  0
    4.3158   -0.6451    1.0668 H   0  0  0  0  0  0  0  0  0  0  0  0
    5.2150   -1.2069   -1.7288 H   0  0  0  0  0  0  0  0  0  0  0  0
    3.7005   -2.9149   -2.1510 H   0  0  0  0  0  0  0  0  0  0  0  0
    4.9082   -3.2938   -0.9060 H   0  0  0  0  0  0  0  0  0  0  0  0
    3.6656   -5.1587   -0.5868 H   0  0  0  0  0  0  0  0  0  0  0  0
    1.9508   -5.1315    1.7351 H   0  0  0  0  0  0  0  0  0  0  0  0
    2.3209   -6.5655    0.7127 H   0  0  0  0  0  0  0  0  0  0  0  0
    0.4905   -5.6665   -0.8743 H   0  0  0  0  0  0  0  0  0  0  0  0
    0.1490   -4.4866    0.5308 H   0  0  0  0  0  0  0  0  0  0  0  0
    0.5606   -7.3790    1.1991 H   0  0  0  0  0  0  0  0  0  0  0  0
   -0.3086   -6.1123    2.0700 H   0  0  0  0  0  0  0  0  0  0  0  0
   -1.7221   -7.8258    1.3881 H   0  0  0  0  0  0  0  0  0  0  0  0
   -1.2765   -7.6703   -0.3591 H   0  0  0  0  0  0  0  0  0  0  0  0
   -3.5190   -6.7384    0.2661 H   0  0  0  0  0  0  0  0  0  0  0  0
   -2.7931   -5.4855    1.3049 H   0  0  0  0  0  0  0  0  0  0  0  0
   -1.6883   -4.4904   -0.6608 H   0  0  0  0  0  0  0  0  0  0  0  0
   -4.6794   -4.7800   -1.0728 H   0  0  0  0  0  0  0  0  0  0  0  0
   -5.7743   -2.7203    0.4314 H   0  0  0  0  0  0  0  0  0  0  0  0
   -4.7501   -1.0248    1.6589 H   0  0  0  0  0  0  0  0  0  0  0  0
   -2.8636    0.7560    1.8211 H   0  0  0  0  0  0  0  0  0  0  0  0
   -3.4314    3.2804    0.3580 H   0  0  0  0  0  0  0  0  0  0  0  0
   -0.5626    3.9135    0.2975 H   0  0  0  0  0  0  0  0  0  0  0  0
    0.2115    3.2562   -2.4939 H   0  0  0  0  0  0  0  0  0  0  0  0
    3.1370    3.0700   -1.6933 H   0  0  0  0  0  0  0  0  0  0  0  0
    4.0665    1.3053   -0.5207 H   0  0  0  0  0  0  0  0  0  0  0  0
    1.5891    1.1492   -3.4969 H   0  0  0  0  0  0  0  0  0  0  0  0
    1.8309    2.9125   -3.6089 H   0  0  0  0  0  0  0  0  0  0  0  0
    4.0337    3.8679   -4.3328 H   0  0  0  0  0  0  0  0  0  0  0  0
    6.0181    3.0661   -5.7438 H   0  0  0  0  0  0  0  0  0  0  0  0
    3.9845   -0.3334   -4.4544 H   0  0  0  0  0  0  0  0  0  0  0  0
   -2.3889    3.7591   -2.2431 H   0  0  0  0  0  0  0  0  0  0  0  0
   -2.7312    4.7151   -0.8048 H   0  0  0  0  0  0  0  0  0  0  0  0
   -0.7950    4.7639   -3.9697 H   0  0  0  0  0  0  0  0  0  0  0  0
    0.3516    6.8078   -4.6709 H   0  0  0  0  0  0  0  0  0  0  0  0
    0.6068    8.7130   -3.1500 H   0  0  0  0  0  0  0  0  0  0  0  0
   -0.2741    8.6177   -0.8870 H   0  0  0  0  0  0  0  0  0  0  0  0
   -1.4607    6.5379   -0.0933 H   0  0  0  0  0  0  0  0  0  0  0  0
   -5.3625    0.7985    2.3043 H   0  0  0  0  0  0  0  0  0  0  0  0
   -5.5790    2.0318    1.0108 H   0  0  0  0  0  0  0  0  0  0  0  0
   -4.5638    3.7538    2.3315 H   0  0  0  0  0  0  0  0  0  0  0  0
   -5.7862    2.8650    3.2313 H   0  0  0  0  0  0  0  0  0  0  0  0
   -4.2052    1.6571    4.6119 H   0  0  0  0  0  0  0  0  0  0  0  0
   -3.8209    3.3747    4.6737 H   0  0  0  0  0  0  0  0  0  0  0  0
    0.3339    1.4255    3.9159 H   0  0  0  0  0  0  0  0  0  0  0  0
    0.1974    2.9963    2.9724 H   0  0  0  0  0  0  0  0  0  0  0  0
   -0.8881    3.7297    6.0078 H   0  0  0  0  0  0  0  0  0  0  0  0
   -2.4310    2.8342    6.1448 H   0  0  0  0  0  0  0  0  0  0  0  0
   -5.8113   -2.9099   -1.8785 H   0  0  0  0  0  0  0  0  0  0  0  0
   -4.6689   -1.6107   -2.1926 H   0  0  0  0  0  0  0  0  0  0  0  0
   -6.1000    0.9676   -2.1813 H   0  0  0  0  0  0  0  0  0  0  0  0
   -8.5416    1.5994   -1.8946 H   0  0  0  0  0  0  0  0  0  0  0  0
   -7.7623   -3.5175   -0.6138 H   0  0  0  0  0  0  0  0  0  0  0  0
  -10.1489   -3.8435   -0.0782 H   0  0  0  0  0  0  0  0  0  0  0  0
  -11.6885   -1.9126   -0.3285 H   0  0  0  0  0  0  0  0  0  0  0  0
  -10.8435    0.2428   -1.0849 H   0  0  0  0  0  0  0  0  0  0  0  0
   -4.3055   -6.4883   -3.0072 H   0  0  0  0  0  0  0  0  0  0  0  0
   -3.5790   -4.9788   -3.7442 H   0  0  0  0  0  0  0  0  0  0  0  0
    8.5970    0.6079    0.3135 H   0  0  0  0  0  0  0  0  0  0  0  0
   11.3093    0.4319    2.2346 H   0  0  0  0  0  0  0  0  0  0  0  0
   11.3356   -1.3442    1.7581 H   0  0  0  0  0  0  0  0  0  0  0  0
   10.8717   -0.0475    0.5396 H   0  0  0  0  0  0  0  0  0  0  0  0
  1  2  1  0
  2  3  1  0
  3  4  1  0
  4  5  1  0
  5  6  1  0
  6  7  2  0
  6  8  1  0
  8  9  1  0
  9 10  1  0
 10 11  1  0
 11 12  2  0
 11 13  1  0
 13 14  1  0
 14 15  1  0
 15 16  1  0
 16 17  1  0
 17 18  1  0
 18 19  1  0
 19 20  1  0
 20 21  1  0
 21 22  2  0
 21 23  1  0
 23 24  1  0
 24 25  1  0
 25 26  2  0
 25 27  1  0
 27 28  1  0
 28 29  1  0
 29 30  2  0
 29 31  1  0
 31 32  1  0
 32 33  1  0
 33 34  2  0
 33 35  1  0
 35 36  1  0
 36 37  1  0
 37 38  2  0
 35 39  1  0
 39 40  1  0
 40 41  1  0
 41 42  1  0
 42 43  2  0
 43 44  1  0
 31 45  1  0
 45 46  1  0
 46 47  2  0
 47 48  1  0
 48 49  2  0
 49 50  1  0
 50 51  2  0
 27 52  1  0
 52 53  1  0
 53 54  1  0
 54 55  1  0
 55 56  2  3
 56 57  1  0
 56 58  1  0
 23 59  1  0
 59 60  1  0
 60 61  2  0
 61 62  1  0
 62 63  1  0
 63 64  2  0
 64 65  1  0
 65 66  2  0
 66 67  1  0
 67 68  2  0
 19 69  1  0
 69 70  2  0
 69 71  1  0
  5 72  1  0
 72 73  1  0
 73 74  2  0
 73 75  1  0
 37  9  1  0
 44 40  2  0
 51 46  1  0
 64 60  1  0
 68 63  1  0
  1 76  1  0
  1 77  1  0
  1 78  1  0
  2 79  1  0
  2 80  1  0
  3 81  1  0
  3 82  1  0
  4 83  1  0
  4 84  1  0
  5 85  1  1
  8 86  1  0
  9 87  1  6
 10 88  1  0
 10 89  1  0
 13 90  1  0
 14 91  1  0
 14 92  1  0
 15 93  1  0
 15 94  1  0
 16 95  1  0
 16 96  1  0
 17 97  1  0
 17 98  1  0
 18 99  1  0
 18100  1  0
 19101  1  1
 20102  1  0
 23103  1  1
 24104  1  0
 27105  1  1
 28106  1  0
 31107  1  1
 32108  1  0
 35109  1  6
 36110  1  0
 39111  1  0
 39112  1  0
 41113  1  0
 42114  1  0
 44115  1  0
 45116  1  0
 45117  1  0
 47118  1  0
 48119  1  0
 49120  1  0
 50121  1  0
 51122  1  0
 52123  1  0
 52124  1  0
 53125  1  0
 53126  1  0
 54127  1  0
 54128  1  0
 57129  1  0
 57130  1  0
 58131  1  0
 58132  1  0
 59133  1  0
 59134  1  0
 61135  1  0
 62136  1  0
 65137  1  0
 66138  1  0
 67139  1  0
 68140  1  0
 71141  1  0
 71142  1  0
 72143  1  0
 75144  1  0
 75145  1  0
 75146  1  0
M  END
>  <Ligand ID>  (1) 
LIG0004160

>  <Ligand>  (1) 
CHEMBL2370154

>  <SMILES>  (1) 
CCCC[C@@H](C(=O)N[C@H]1CC(=O)NCCCCC[C@H](NC(=O)[C@@H](NC(=O)[C@@H](NC(=O)[C@@H](NC(=O)[C@@H](NC1=O)Cc1[nH]cnc1)Cc1ccccc1)CCCN=C(N)N)Cc1c[nH]c2c1cccc2)C(=O)N)NC(=O)C

>  <CID>  (1) 
73350057.0

>  <ChEMBL ID>  (1) 
nan

>  <InChiKey>  (1) 
ILTSJNSAHXKVSQ-FVMQRRFMSA-N

>  <InChi>  (1) 
InChI=1S/C51H71N15O9/c1-3-4-17-37(60-30(2)67)45(70)66-42-26-43(68)56-21-12-6-9-19-36(44(52)69)61-48(73)40(24-32-27-58-35-18-11-10-16-34(32)35)64-46(71)38(20-13-22-57-51(53)54)62-47(72)39(23-31-14-7-5-8-15-31)63-49(74)41(65-50(42)75)25-33-28-55-29-59-33/h5,7-8,10-11,14-16,18,27-29,36-42,58H,3-4,6,9,12-13,17,19-26H2,1-2H3,(H2,52,69)(H,55,59)(H,56,68)(H,60,67)(H,61,73)(H,62,72)(H,63,74)(H,64,71)(H,65,75)(H,66,70)(H4,53,54,57)/t36-,37-,38-,39-,40-,41-,42-/m0/s1

>  <IUPAC Name>  (1) 
(3S,6S,9S,12S,15S,24S)-15-[[(2S)-2-acetamidohexanoyl]amino]-9-benzyl-6-[3-(diaminomethylideneamino)propyl]-12-(1H-imidazol-5-ylmethyl)-3-(1H-indol-3-ylmethyl)-2,5,8,11,14,17-hexaoxo-1,4,7,10,13,18-hexazacyclotetracosane-24-carboxamide

$$$$
