
     RDKit          3D

 76 79  0  0  0  0  0  0  0  0999 V2000
   12.1516   -0.9307    0.2373 N   0  0  0  0  0  0  0  0  0  0  0  0
   10.7878   -0.9183   -0.1914 C   0  0  0  0  0  0  0  0  0  0  0  0
    9.8981   -1.6567    0.5341 C   0  0  0  0  0  0  0  0  0  0  0  0
    8.5483   -1.6903    0.1697 C   0  0  0  0  0  0  0  0  0  0  0  0
    8.1065   -0.9818   -0.9201 C   0  0  0  0  0  0  0  0  0  0  0  0
    9.0267   -0.2352   -1.6472 C   0  0  0  0  0  0  0  0  0  0  0  0
   10.3575   -0.2040   -1.2854 C   0  0  0  0  0  0  0  0  0  0  0  0
    6.6430   -0.9960   -1.3414 C   0  0  2  0  0  0  0  0  0  0  0  0
    5.9678   -2.1242   -0.6560 C   0  0  0  0  0  0  0  0  0  0  0  0
    4.6689   -2.4687   -0.9830 N   0  0  0  0  0  0  0  0  0  0  0  0
    3.5110   -1.7648   -0.7415 C   0  0  0  0  0  0  0  0  0  0  0  0
    3.3386   -0.5195   -1.5750 C   0  0  0  0  0  0  0  0  0  0  0  0
    2.0078    0.0588   -1.1667 C   0  0  0  0  0  0  0  0  0  0  0  0
    0.8351   -0.3133   -1.7925 C   0  0  0  0  0  0  0  0  0  0  0  0
   -0.3292    0.2684   -1.3365 C   0  0  0  0  0  0  0  0  0  0  0  0
   -0.3320    1.1824   -0.3020 C   0  0  0  0  0  0  0  0  0  0  0  0
    0.8453    1.5572    0.3261 C   0  0  0  0  0  0  0  0  0  0  0  0
    2.0049    0.9723   -0.1340 C   0  0  0  0  0  0  0  0  0  0  0  0
   -1.5564    1.7947    0.2140 C   0  0  0  0  0  0  0  0  0  0  0  0
   -1.6018    3.0657    0.7360 C   0  0  0  0  0  0  0  0  0  0  0  0
   -2.7645    3.5793    1.2264 C   0  0  0  0  0  0  0  0  0  0  0  0
   -3.9696    2.8756    1.2375 C   0  0  0  0  0  0  0  0  0  0  0  0
   -3.9264    1.6066    0.7163 C   0  0  0  0  0  0  0  0  0  0  0  0
   -2.7373    1.0786    0.2135 C   0  0  0  0  0  0  0  0  0  0  0  0
   -5.0353    0.8495    0.6828 O   0  0  0  0  0  0  0  0  0  0  0  0
   -5.3282   -0.4090    0.2171 C   0  0  0  0  0  0  0  0  0  0  0  0
   -5.4790   -1.4294    1.3656 C   0  0  0  0  0  0  0  0  0  0  0  0
   -5.3303   -2.7969    0.6996 C   0  0  0  0  0  0  0  0  0  0  0  0
   -6.5983   -2.9697   -0.1381 C   0  0  0  0  0  0  0  0  0  0  0  0
   -6.7402   -1.8789   -1.1536 C   0  0  0  0  0  0  0  0  0  0  0  0
   -6.5724   -0.4907   -0.6269 C   0  0  0  0  0  0  0  0  0  0  0  0
   -5.1313    3.5269    1.7940 C   0  0  0  0  0  0  0  0  0  0  0  0
   -5.0015    4.7232    2.2376 O   0  0  0  0  0  0  0  0  0  0  0  0
   -6.4248    2.9824    1.9075 N   0  0  0  0  0  0  0  0  0  0  0  0
   -7.6910    3.9239    2.6058 S   0  0  0  0  0  0  0  0  0  0  0  0
   -7.8610    5.1735    1.7896 O   0  0  0  0  0  0  0  0  0  0  0  0
   -7.2853    4.2520    4.0135 O   0  0  0  0  0  0  0  0  0  0  0  0
   -9.1918    2.9752    2.6381 C   0  0  0  0  0  0  0  0  0  0  0  0
    6.6300   -1.2338   -2.7190 O   0  0  0  0  0  0  0  0  0  0  0  0
   12.9434   -1.2233   -0.3624 H   0  0  0  0  0  0  0  0  0  0  0  0
   12.3067   -0.6132    1.2349 H   0  0  0  0  0  0  0  0  0  0  0  0
   10.2415   -2.2273    1.4064 H   0  0  0  0  0  0  0  0  0  0  0  0
    7.9203   -2.2988    0.7954 H   0  0  0  0  0  0  0  0  0  0  0  0
    8.6442    0.3105   -2.4988 H   0  0  0  0  0  0  0  0  0  0  0  0
   11.0743    0.3925   -1.8723 H   0  0  0  0  0  0  0  0  0  0  0  0
    6.2922   -0.0026   -1.1102 H   0  0  0  0  0  0  0  0  0  0  0  0
    6.6130   -3.0539   -0.7881 H   0  0  0  0  0  0  0  0  0  0  0  0
    5.9972   -1.9909    0.4763 H   0  0  0  0  0  0  0  0  0  0  0  0
    4.5565   -3.3846   -1.5061 H   0  0  0  0  0  0  0  0  0  0  0  0
    3.3477   -1.4877    0.3523 H   0  0  0  0  0  0  0  0  0  0  0  0
    2.6218   -2.4612   -0.9449 H   0  0  0  0  0  0  0  0  0  0  0  0
    4.0965    0.2294   -1.3557 H   0  0  0  0  0  0  0  0  0  0  0  0
    3.3494   -0.7388   -2.6497 H   0  0  0  0  0  0  0  0  0  0  0  0
    0.8677   -1.0354   -2.6040 H   0  0  0  0  0  0  0  0  0  0  0  0
   -1.2671   -0.0133   -1.8184 H   0  0  0  0  0  0  0  0  0  0  0  0
    0.8861    2.2689    1.1372 H   0  0  0  0  0  0  0  0  0  0  0  0
    2.9559    1.2398    0.3338 H   0  0  0  0  0  0  0  0  0  0  0  0
   -0.6963    3.6532    0.7508 H   0  0  0  0  0  0  0  0  0  0  0  0
   -2.7106    4.6044    1.6258 H   0  0  0  0  0  0  0  0  0  0  0  0
   -2.6845    0.0806   -0.2001 H   0  0  0  0  0  0  0  0  0  0  0  0
   -4.4828   -0.8077   -0.3723 H   0  0  0  0  0  0  0  0  0  0  0  0
   -6.5040   -1.4101    1.7903 H   0  0  0  0  0  0  0  0  0  0  0  0
   -4.6788   -1.2798    2.1174 H   0  0  0  0  0  0  0  0  0  0  0  0
   -5.3101   -3.6065    1.4401 H   0  0  0  0  0  0  0  0  0  0  0  0
   -4.4720   -2.8071   -0.0105 H   0  0  0  0  0  0  0  0  0  0  0  0
   -7.4854   -3.1540    0.4806 H   0  0  0  0  0  0  0  0  0  0  0  0
   -6.4158   -3.9186   -0.7195 H   0  0  0  0  0  0  0  0  0  0  0  0
   -6.0738   -2.0776   -2.0215 H   0  0  0  0  0  0  0  0  0  0  0  0
   -7.7788   -1.9404   -1.5654 H   0  0  0  0  0  0  0  0  0  0  0  0
   -7.4709   -0.1218   -0.0880 H   0  0  0  0  0  0  0  0  0  0  0  0
   -6.4065    0.1809   -1.5087 H   0  0  0  0  0  0  0  0  0  0  0  0
   -6.6312    2.0353    1.5837 H   0  0  0  0  0  0  0  0  0  0  0  0
   -9.3151    2.5083    1.6525 H   0  0  0  0  0  0  0  0  0  0  0  0
   -9.9956    3.6600    2.9297 H   0  0  0  0  0  0  0  0  0  0  0  0
   -9.0427    2.2059    3.4425 H   0  0  0  0  0  0  0  0  0  0  0  0
    6.2659   -2.1489   -2.9158 H   0  0  0  0  0  0  0  0  0  0  0  0
  1  2  1  0
  2  3  2  0
  3  4  1  0
  4  5  2  0
  5  6  1  0
  6  7  2  0
  5  8  1  0
  8  9  1  0
  9 10  1  0
 10 11  1  0
 11 12  1  0
 12 13  1  0
 13 14  2  0
 14 15  1  0
 15 16  2  0
 16 17  1  0
 17 18  2  0
 16 19  1  0
 19 20  2  0
 20 21  1  0
 21 22  2  0
 22 23  1  0
 23 24  2  0
 23 25  1  0
 25 26  1  0
 26 27  1  0
 27 28  1  0
 28 29  1  0
 29 30  1  0
 30 31  1  0
 22 32  1  0
 32 33  2  0
 32 34  1  0
 34 35  1  0
 35 36  2  0
 35 37  2  0
 35 38  1  0
  8 39  1  0
  7  2  1  0
 18 13  1  0
 24 19  1  0
 31 26  1  0
  1 40  1  0
  1 41  1  0
  3 42  1  0
  4 43  1  0
  6 44  1  0
  7 45  1  0
  8 46  1  6
  9 47  1  0
  9 48  1  0
 10 49  1  0
 11 50  1  0
 11 51  1  0
 12 52  1  0
 12 53  1  0
 14 54  1  0
 15 55  1  0
 17 56  1  0
 18 57  1  0
 20 58  1  0
 21 59  1  0
 24 60  1  0
 26 61  1  0
 27 62  1  0
 27 63  1  0
 28 64  1  0
 28 65  1  0
 29 66  1  0
 29 67  1  0
 30 68  1  0
 30 69  1  0
 31 70  1  0
 31 71  1  0
 34 72  1  0
 38 73  1  0
 38 74  1  0
 38 75  1  0
 39 76  1  0
M  END
>  <Ligand ID>  (1) 
LIG0004923

>  <Ligand>  (1) 
CHEMBL556852

>  <SMILES>  (1) 
Nc1ccc(cc1)[C@H](CNCCc1ccc(cc1)c1ccc(c(c1)OC1CCCCC1)C(=O)NS(=O)(=O)C)O

>  <CID>  (1) 
42639656.0

>  <ChEMBL ID>  (1) 
nan

>  <InChiKey>  (1) 
VTKMLZIGOBSURB-NDEPHWFRSA-N

>  <InChi>  (1) 
InChI=1S/C30H37N3O5S/c1-39(36,37)33-30(35)27-16-13-24(19-29(27)38-26-5-3-2-4-6-26)22-9-7-21(8-10-22)17-18-32-20-28(34)23-11-14-25(31)15-12-23/h7-16,19,26,28,32,34H,2-6,17-18,20,31H2,1H3,(H,33,35)/t28-/m0/s1

>  <IUPAC Name>  (1) 
4-[4-[2-[[(2R)-2-(4-aminophenyl)-2-hydroxyethyl]amino]ethyl]phenyl]-2-cyclohexyloxy-N-methylsulfonylbenzamide

$$$$
