
     RDKit          3D

 35 36  0  0  0  0  0  0  0  0999 V2000
   -0.8360   -2.7706   -1.0272 O   0  0  0  0  0  0  0  0  0  0  0  0
   -0.8976   -1.3732   -1.0709 C   0  0  2  0  0  0  0  0  0  0  0  0
    0.4588   -0.8712   -1.5518 C   0  0  2  0  0  0  0  0  0  0  0  0
    1.0060   -1.7864   -2.4343 O   0  0  0  0  0  0  0  0  0  0  0  0
    1.1869   -0.7701   -0.2413 C   0  0  2  0  0  0  0  0  0  0  0  0
    0.2412   -0.1928    0.6035 O   0  0  0  0  0  0  0  0  0  0  0  0
   -0.9595   -0.8010    0.3205 C   0  0  1  0  0  0  0  0  0  0  0  0
   -2.0629    0.1609    0.4475 N   0  0  0  0  0  0  0  0  0  0  0  0
   -1.7279    1.4825    0.4160 C   0  0  0  0  0  0  0  0  0  0  0  0
   -2.7199    2.4479    0.5306 C   0  0  0  0  0  0  0  0  0  0  0  0
   -4.0256    2.0257    0.6741 C   0  0  0  0  0  0  0  0  0  0  0  0
   -4.9486    2.8777    0.7806 O   0  0  0  0  0  0  0  0  0  0  0  0
   -4.3186    0.7077    0.7010 N   0  0  0  0  0  0  0  0  0  0  0  0
   -3.3310   -0.2071    0.5871 C   0  0  0  0  0  0  0  0  0  0  0  0
   -3.6726   -1.5837    0.6191 N   0  0  0  0  0  0  0  0  0  0  0  0
    2.3948    0.1294   -0.3503 C   0  0  0  0  0  0  0  0  0  0  0  0
    2.9101    0.2765    0.9125 O   0  0  0  0  0  0  0  0  0  0  0  0
    4.2812    1.2632    0.9828 P   0  0  0  0  0  0  0  0  0  0  0  0
    4.1212    2.1630    2.1966 O   0  0  0  0  0  0  0  0  0  0  0  0
    5.6192    0.2747    1.2273 O   0  0  0  0  0  0  0  0  0  0  0  0
    4.4560    2.1545   -0.4310 O   0  0  0  0  0  0  0  0  0  0  0  0
   -1.6764   -3.1917   -1.3289 H   0  0  0  0  0  0  0  0  0  0  0  0
   -1.7085   -1.0108   -1.7288 H   0  0  0  0  0  0  0  0  0  0  0  0
    0.3756    0.1375   -1.9769 H   0  0  0  0  0  0  0  0  0  0  0  0
    1.0631   -2.6511   -1.9845 H   0  0  0  0  0  0  0  0  0  0  0  0
    1.4172   -1.7619    0.1604 H   0  0  0  0  0  0  0  0  0  0  0  0
   -1.0973   -1.6144    1.0633 H   0  0  0  0  0  0  0  0  0  0  0  0
   -0.6888    1.7728    0.3016 H   0  0  0  0  0  0  0  0  0  0  0  0
   -2.4327    3.4801    0.5031 H   0  0  0  0  0  0  0  0  0  0  0  0
   -4.0366   -2.0655   -0.2303 H   0  0  0  0  0  0  0  0  0  0  0  0
   -3.5682   -2.1400    1.4855 H   0  0  0  0  0  0  0  0  0  0  0  0
    3.1155   -0.2858   -1.0558 H   0  0  0  0  0  0  0  0  0  0  0  0
    2.0445    1.1100   -0.7271 H   0  0  0  0  0  0  0  0  0  0  0  0
    5.3924   -0.4880    1.8191 H   0  0  0  0  0  0  0  0  0  0  0  0
    4.6251    3.1010   -0.1930 H   0  0  0  0  0  0  0  0  0  0  0  0
  1  2  1  0
  2  3  1  0
  3  4  1  0
  3  5  1  0
  5  6  1  0
  6  7  1  0
  7  8  1  0
  8  9  1  0
  9 10  2  0
 10 11  1  0
 11 12  2  0
 11 13  1  0
 13 14  2  0
 14 15  1  0
  5 16  1  0
 16 17  1  0
 17 18  1  0
 18 19  2  0
 18 20  1  0
 18 21  1  0
  7  2  1  0
 14  8  1  0
  1 22  1  0
  2 23  1  6
  3 24  1  6
  4 25  1  0
  5 26  1  1
  7 27  1  1
  9 28  1  0
 10 29  1  0
 15 30  1  0
 15 31  1  0
 16 32  1  0
 16 33  1  0
 20 34  1  0
 21 35  1  0
M  END
>  <Ligand ID>  (1) 
LIG0002805

>  <Ligand>  (1) 
iso-CMP

>  <SMILES>  (1) 
O[C@@H]1[C@H](O)[C@H](O[C@H]1n1ccc(=O)nc1N)COP(=O)(O)O

>  <CID>  (1) 
49867142.0

>  <ChEMBL ID>  (1) 
nan

>  <InChiKey>  (1) 
ONSQLDCEJIIUJS-XVFCMESISA-N

>  <InChi>  (1) 
InChI=1S/C9H14N3O8P/c10-9-11-5(13)1-2-12(9)8-7(15)6(14)4(20-8)3-19-21(16,17)18/h1-2,4,6-8,14-15H,3H2,(H2,10,11,13)(H2,16,17,18)/t4-,6-,7-,8-/m1/s1

>  <IUPAC Name>  (1) 
[(2R,3S,4R,5R)-5-(2-amino-4-oxopyrimidin-1-yl)-3,4-dihydroxyoxolan-2-yl]methyl dihydrogen phosphate

$$$$
