
     RDKit          3D

 24 25  0  0  0  0  0  0  0  0999 V2000
    3.3017    0.6721    0.8038 N   0  0  0  0  0  0  0  0  0  0  0  0
    2.9723    0.1025   -0.4927 C   0  0  0  0  0  0  0  0  0  0  0  0
    1.5251   -0.3502   -0.5408 C   0  0  1  0  0  0  0  0  0  0  0  0
    1.0408   -1.3757    0.4013 C   0  0  0  0  0  0  0  0  0  0  0  0
    0.5694    0.0840    0.4718 C   0  0  2  0  0  0  0  0  0  0  0  0
   -0.8802    0.2205    0.2759 C   0  0  0  0  0  0  0  0  0  0  0  0
   -1.7011   -0.1148    1.3483 C   0  0  0  0  0  0  0  0  0  0  0  0
   -3.0806   -0.0334    1.2556 C   0  0  0  0  0  0  0  0  0  0  0  0
   -3.7149    0.3869    0.0881 C   0  0  0  0  0  0  0  0  0  0  0  0
   -2.8941    0.7217   -0.9822 C   0  0  0  0  0  0  0  0  0  0  0  0
   -1.5037    0.6343   -0.8720 C   0  0  0  0  0  0  0  0  0  0  0  0
   -0.5830    1.1020   -2.2782 Cl  0  0  0  0  0  0  0  0  0  0  0  0
    4.3605    0.6585    0.8407 H   0  0  0  0  0  0  0  0  0  0  0  0
    2.9328    0.0168    1.5321 H   0  0  0  0  0  0  0  0  0  0  0  0
    3.6721   -0.7293   -0.7127 H   0  0  0  0  0  0  0  0  0  0  0  0
    3.0935    0.8749   -1.2865 H   0  0  0  0  0  0  0  0  0  0  0  0
    1.1791   -0.4846   -1.5789 H   0  0  0  0  0  0  0  0  0  0  0  0
    1.5929   -1.6957    1.2824 H   0  0  0  0  0  0  0  0  0  0  0  0
    0.3193   -2.1492    0.0510 H   0  0  0  0  0  0  0  0  0  0  0  0
    0.9735    0.6996    1.3156 H   0  0  0  0  0  0  0  0  0  0  0  0
   -1.3068   -0.4529    2.3000 H   0  0  0  0  0  0  0  0  0  0  0  0
   -3.7236   -0.2950    2.0926 H   0  0  0  0  0  0  0  0  0  0  0  0
   -4.7724    0.4579   -0.0090 H   0  0  0  0  0  0  0  0  0  0  0  0
   -3.3723    1.0491   -1.8931 H   0  0  0  0  0  0  0  0  0  0  0  0
  1  2  1  0
  2  3  1  0
  3  4  1  0
  4  5  1  0
  5  6  1  0
  6  7  2  0
  7  8  1  0
  8  9  2  0
  9 10  1  0
 10 11  2  0
 11 12  1  0
  5  3  1  0
 11  6  1  0
  1 13  1  0
  1 14  1  0
  2 15  1  0
  2 16  1  0
  3 17  1  6
  4 18  1  0
  4 19  1  0
  5 20  1  1
  7 21  1  0
  8 22  1  0
  9 23  1  0
 10 24  1  0
M  END
>  <Ligand ID>  (1) 
LIG0002390

>  <Ligand>  (1) 
CHEMBL443128

>  <SMILES>  (1) 
NC[C@H]1C[C@@H]1c1ccccc1Cl

>  <CID>  (1) 
44572749.0

>  <ChEMBL ID>  (1) 
nan

>  <InChiKey>  (1) 
XOCMLQNBDBALRQ-APPZFPTMSA-N

>  <InChi>  (1) 
InChI=1S/C10H12ClN/c11-10-4-2-1-3-8(10)9-5-7(9)6-12/h1-4,7,9H,5-6,12H2/t7-,9+/m1/s1

>  <IUPAC Name>  (1) 
[(1S,2S)-2-(2-chlorophenyl)cyclopropyl]methanamine

$$$$
