
     RDKit          3D

 60 61  0  0  0  0  0  0  0  0999 V2000
   -6.7092   -0.3677    2.6701 C   0  0  0  0  0  0  0  0  0  0  0  0
   -7.1988   -0.2892    1.2683 C   0  0  0  0  0  0  0  0  0  0  0  0
   -6.1749   -0.6230    0.2114 C   0  0  0  0  0  0  0  0  0  0  0  0
   -4.9868    0.2613    0.2254 C   0  0  0  0  0  0  0  0  0  0  0  0
   -4.0223   -0.2041   -0.8873 C   0  0  0  0  0  0  0  0  0  0  0  0
   -4.6067   -0.1492   -2.2394 C   0  0  0  0  0  0  0  0  0  0  0  0
   -3.6923   -0.5846   -3.3221 C   0  0  0  0  0  0  0  0  0  0  0  0
   -2.4887    0.1898   -3.6678 C   0  0  0  0  0  0  0  0  0  0  0  0
   -1.4454    0.4563   -2.7064 C   0  0  0  0  0  0  0  0  0  0  0  0
   -1.2254    1.6494   -2.0323 C   0  0  0  0  0  0  0  0  0  0  0  0
   -0.1986    1.8155   -1.1259 C   0  0  0  0  0  0  0  0  0  0  0  0
    0.6649    0.7817   -0.8502 C   0  0  0  0  0  0  0  0  0  0  0  0
    0.4744   -0.4204   -1.5040 C   0  0  0  0  0  0  0  0  0  0  0  0
   -0.5462   -0.5688   -2.3980 C   0  0  0  0  0  0  0  0  0  0  0  0
    1.7642    0.8976    0.0945 C   0  0  0  0  0  0  0  0  0  0  0  0
    2.1054    2.0128    0.8346 C   0  0  0  0  0  0  0  0  0  0  0  0
    3.1885    1.7004    1.5887 N   0  0  0  0  0  0  0  0  0  0  0  0
    3.5272    0.4195    1.3346 C   0  0  0  0  0  0  0  0  0  0  0  0
    2.6626   -0.0476    0.4360 N   0  0  0  0  0  0  0  0  0  0  0  0
    4.6684   -0.2818    1.9751 C   0  0  0  0  0  0  0  0  0  0  0  0
    5.9369   -0.1066    1.1648 C   0  0  0  0  0  0  0  0  0  0  0  0
    7.0030   -0.7796    1.7073 O   0  0  0  0  0  0  0  0  0  0  0  0
    8.4199   -0.5748    0.7854 P   0  0  0  0  0  0  0  0  0  0  0  0
    9.2086    0.5753    1.3698 O   0  0  0  0  0  0  0  0  0  0  0  0
    9.3610   -1.9757    0.8170 O   0  0  0  0  0  0  0  0  0  0  0  0
    8.0028   -0.2001   -0.8228 O   0  0  0  0  0  0  0  0  0  0  0  0
    4.3242   -1.6886    2.0365 N   0  0  0  0  0  0  0  0  0  0  0  0
    4.9568    0.2207    3.3685 C   0  0  0  0  0  0  0  0  0  0  0  0
   -6.1641    0.5818    2.9470 H   0  0  0  0  0  0  0  0  0  0  0  0
   -6.1318   -1.2602    2.9104 H   0  0  0  0  0  0  0  0  0  0  0  0
   -7.6069   -0.3909    3.3261 H   0  0  0  0  0  0  0  0  0  0  0  0
   -7.6717    0.6945    1.1032 H   0  0  0  0  0  0  0  0  0  0  0  0
   -8.0288   -1.0310    1.1378 H   0  0  0  0  0  0  0  0  0  0  0  0
   -6.7157   -0.4694   -0.7666 H   0  0  0  0  0  0  0  0  0  0  0  0
   -5.8718   -1.6741    0.2426 H   0  0  0  0  0  0  0  0  0  0  0  0
   -4.3800    0.1644    1.1481 H   0  0  0  0  0  0  0  0  0  0  0  0
   -5.2015    1.3171   -0.0291 H   0  0  0  0  0  0  0  0  0  0  0  0
   -3.8608   -1.3120   -0.6455 H   0  0  0  0  0  0  0  0  0  0  0  0
   -3.0976    0.3330   -0.7918 H   0  0  0  0  0  0  0  0  0  0  0  0
   -5.0262    0.8737   -2.4780 H   0  0  0  0  0  0  0  0  0  0  0  0
   -5.5325   -0.7985   -2.3241 H   0  0  0  0  0  0  0  0  0  0  0  0
   -3.3145   -1.6558   -3.1091 H   0  0  0  0  0  0  0  0  0  0  0  0
   -4.2727   -0.7566   -4.2897 H   0  0  0  0  0  0  0  0  0  0  0  0
   -2.7868    1.2016   -4.1322 H   0  0  0  0  0  0  0  0  0  0  0  0
   -1.9999   -0.3246   -4.5855 H   0  0  0  0  0  0  0  0  0  0  0  0
   -1.9098    2.4536   -2.2571 H   0  0  0  0  0  0  0  0  0  0  0  0
   -0.0654    2.7741   -0.6198 H   0  0  0  0  0  0  0  0  0  0  0  0
    1.1383   -1.2378   -1.3014 H   0  0  0  0  0  0  0  0  0  0  0  0
   -0.6572   -1.5229   -2.8841 H   0  0  0  0  0  0  0  0  0  0  0  0
    1.6284    2.9890    0.8497 H   0  0  0  0  0  0  0  0  0  0  0  0
    2.6574   -0.9959    0.0392 H   0  0  0  0  0  0  0  0  0  0  0  0
    6.1271    0.9930    1.1081 H   0  0  0  0  0  0  0  0  0  0  0  0
    5.7295   -0.4314    0.1154 H   0  0  0  0  0  0  0  0  0  0  0  0
    8.9640   -2.6039    1.4870 H   0  0  0  0  0  0  0  0  0  0  0  0
    8.2897   -0.9482   -1.4010 H   0  0  0  0  0  0  0  0  0  0  0  0
    4.0873   -2.0219    1.0749 H   0  0  0  0  0  0  0  0  0  0  0  0
    3.5278   -1.7840    2.7000 H   0  0  0  0  0  0  0  0  0  0  0  0
    4.0082    0.2741    3.9252 H   0  0  0  0  0  0  0  0  0  0  0  0
    5.4791    1.2023    3.3578 H   0  0  0  0  0  0  0  0  0  0  0  0
    5.6852   -0.5016    3.8108 H   0  0  0  0  0  0  0  0  0  0  0  0
  1  2  1  0
  2  3  1  0
  3  4  1  0
  4  5  1  0
  5  6  1  0
  6  7  1  0
  7  8  1  0
  8  9  1  0
  9 10  2  0
 10 11  1  0
 11 12  2  0
 12 13  1  0
 13 14  2  0
 12 15  1  0
 15 16  2  0
 16 17  1  0
 17 18  2  0
 18 19  1  0
 18 20  1  0
 20 21  1  0
 21 22  1  0
 22 23  1  0
 23 24  2  0
 23 25  1  0
 23 26  1  0
 20 27  1  0
 20 28  1  0
 14  9  1  0
 19 15  1  0
  1 29  1  0
  1 30  1  0
  1 31  1  0
  2 32  1  0
  2 33  1  0
  3 34  1  0
  3 35  1  0
  4 36  1  0
  4 37  1  0
  5 38  1  0
  5 39  1  0
  6 40  1  0
  6 41  1  0
  7 42  1  0
  7 43  1  0
  8 44  1  0
  8 45  1  0
 10 46  1  0
 11 47  1  0
 13 48  1  0
 14 49  1  0
 16 50  1  0
 19 51  1  0
 21 52  1  0
 21 53  1  0
 25 54  1  0
 26 55  1  0
 27 56  1  0
 27 57  1  0
 28 58  1  0
 28 59  1  0
 28 60  1  0
M  END
>  <Ligand ID>  (1) 
LIG0004243

>  <Ligand>  (1) 
CHEMBL188881

>  <SMILES>  (1) 
CCCCCCCCc1ccc(cc1)c1cnc([nH]1)C(COP(=O)(O)O)(N)C

>  <CID>  (1) 
11675907.0

>  <ChEMBL ID>  (1) 
nan

>  <InChiKey>  (1) 
MACKQKJDRGTJQY-UHFFFAOYSA-N

>  <InChi>  (1) 
InChI=1S/C20H32N3O4P/c1-3-4-5-6-7-8-9-16-10-12-17(13-11-16)18-14-22-19(23-18)20(2,21)15-27-28(24,25)26/h10-14H,3-9,15,21H2,1-2H3,(H,22,23)(H2,24,25,26)

>  <IUPAC Name>  (1) 
[2-amino-2-[5-(4-octylphenyl)-1H-imidazol-2-yl]propyl] dihydrogen phosphate

$$$$
