
     RDKit          3D

 40 41  0  0  0  0  0  0  0  0999 V2000
    4.2607   -0.8916    0.2073 C   0  0  0  0  0  0  0  0  0  0  0  0
    2.8442   -0.2765    0.4140 C   0  0  0  0  0  0  0  0  0  0  0  0
    1.9494   -1.1658    0.7318 C   0  0  0  0  0  0  0  0  0  0  0  0
    0.5135   -1.0090    1.0166 C   0  0  0  0  0  0  0  0  0  0  0  0
   -0.3163   -1.6037   -0.1042 C   0  0  0  0  0  0  0  0  0  0  0  0
   -1.7626   -1.5659    0.0896 C   0  0  0  0  0  0  0  0  0  0  0  0
   -2.1984   -2.8180    0.9342 C   0  0  0  0  0  0  0  0  0  0  0  0
   -2.4092   -1.7464   -1.2663 O   0  0  0  0  0  0  0  0  0  0  0  0
   -2.7395   -0.7577   -0.2981 C   0  0  0  0  0  0  0  0  0  0  0  0
   -2.9221    0.5718   -0.8292 C   0  0  0  0  0  0  0  0  0  0  0  0
   -1.9065    1.4345   -1.4386 C   0  0  0  0  0  0  0  0  0  0  0  0
   -0.8224    1.7966   -0.5107 C   0  0  0  0  0  0  0  0  0  0  0  0
    0.4798    1.6109   -0.7364 C   0  0  0  0  0  0  0  0  0  0  0  0
    1.5776    1.9546    0.1698 C   0  0  0  0  0  0  0  0  0  0  0  0
    2.7904    1.1322    0.1549 C   0  0  0  0  0  0  0  0  0  0  0  0
   -1.1565    2.4583    0.7554 C   0  0  0  0  0  0  0  0  0  0  0  0
    5.0180   -0.1134    0.1999 H   0  0  0  0  0  0  0  0  0  0  0  0
    4.2692   -1.4394   -0.7532 H   0  0  0  0  0  0  0  0  0  0  0  0
    4.3880   -1.5890    1.0474 H   0  0  0  0  0  0  0  0  0  0  0  0
    2.3174   -2.2240    0.7954 H   0  0  0  0  0  0  0  0  0  0  0  0
    0.1774   -0.0686    1.4244 H   0  0  0  0  0  0  0  0  0  0  0  0
    0.3805   -1.6882    1.9544 H   0  0  0  0  0  0  0  0  0  0  0  0
    0.0902   -1.2092   -1.0639 H   0  0  0  0  0  0  0  0  0  0  0  0
    0.0790   -2.6692   -0.1630 H   0  0  0  0  0  0  0  0  0  0  0  0
   -2.0004   -2.5720    1.9907 H   0  0  0  0  0  0  0  0  0  0  0  0
   -3.2641   -3.0113    0.8300 H   0  0  0  0  0  0  0  0  0  0  0  0
   -1.6344   -3.6945    0.6184 H   0  0  0  0  0  0  0  0  0  0  0  0
   -3.8012   -1.1030    0.1033 H   0  0  0  0  0  0  0  0  0  0  0  0
   -3.7262    0.5307   -1.6771 H   0  0  0  0  0  0  0  0  0  0  0  0
   -3.5896    1.2241   -0.1207 H   0  0  0  0  0  0  0  0  0  0  0  0
   -1.4411    1.0156   -2.3669 H   0  0  0  0  0  0  0  0  0  0  0  0
   -2.3638    2.3992   -1.8578 H   0  0  0  0  0  0  0  0  0  0  0  0
    0.6730    1.1797   -1.6776 H   0  0  0  0  0  0  0  0  0  0  0  0
    1.9109    3.0369   -0.0028 H   0  0  0  0  0  0  0  0  0  0  0  0
    1.2449    2.0284    1.2591 H   0  0  0  0  0  0  0  0  0  0  0  0
    3.5715    1.5973    0.8673 H   0  0  0  0  0  0  0  0  0  0  0  0
    3.3525    1.3131   -0.8432 H   0  0  0  0  0  0  0  0  0  0  0  0
   -1.3916    1.6977    1.5095 H   0  0  0  0  0  0  0  0  0  0  0  0
   -2.0654    3.1015    0.6118 H   0  0  0  0  0  0  0  0  0  0  0  0
   -0.3767    3.1337    1.1624 H   0  0  0  0  0  0  0  0  0  0  0  0
  1  2  1  0
  2  3  2  3
  3  4  1  0
  4  5  1  0
  5  6  1  0
  6  7  1  0
  6  8  1  0
  8  9  1  0
  9 10  1  0
 10 11  1  0
 11 12  1  0
 12 13  2  3
 13 14  1  0
 14 15  1  0
 12 16  1  0
 15  2  1  0
  9  6  1  0
  1 17  1  0
  1 18  1  0
  1 19  1  0
  3 20  1  0
  4 21  1  0
  4 22  1  0
  5 23  1  0
  5 24  1  0
  7 25  1  0
  7 26  1  0
  7 27  1  0
  9 28  1  0
 10 29  1  0
 10 30  1  0
 11 31  1  0
 11 32  1  0
 13 33  1  0
 14 34  1  0
 14 35  1  0
 15 36  1  0
 15 37  1  0
 16 38  1  0
 16 39  1  0
 16 40  1  0
M  END
>  <Ligand ID>  (1) 
LIG0000372

>  <Ligand>  (1) 
Woody epoxide

>  <SMILES>  (1) 
CC1=CCCC2(C)OC2CCC(=CCC1)C

>  <CID>  (1) 
94354.0

>  <ChEMBL ID>  (1) 
nan

>  <InChiKey>  (1) 
PAZWFUGWOAQBJJ-UHFFFAOYSA-N

>  <InChi>  (1) 
InChI=1S/C15H24O/c1-12-6-4-7-13(2)9-10-14-15(3,16-14)11-5-8-12/h7-8,14H,4-6,9-11H2,1-3H3

>  <IUPAC Name>  (1) 
1,5,9-trimethyl-13-oxabicyclo[10.1.0]trideca-4,8-diene

$$$$
