
     RDKit          3D

135137  0  0  0  0  0  0  0  0999 V2000
   12.3067    0.0709   -0.6402 C   0  0  0  0  0  0  0  0  0  0  0  0
   10.7098   -0.7260   -0.4164 S   0  0  0  0  0  0  0  0  0  0  0  0
    9.5368   -0.2438   -1.7066 C   0  0  0  0  0  0  0  0  0  0  0  0
    9.1534    1.2073   -1.6665 C   0  0  0  0  0  0  0  0  0  0  0  0
    8.5371    1.7218   -0.4428 C   0  0  1  0  0  0  0  0  0  0  0  0
    8.2380    3.1881   -0.6113 C   0  0  0  0  0  0  0  0  0  0  0  0
    7.2689    3.7861   -0.1340 O   0  0  0  0  0  0  0  0  0  0  0  0
    9.1518    3.9855   -1.3977 N   0  0  0  0  0  0  0  0  0  0  0  0
    7.5130    1.0499    0.2343 N   0  0  0  0  0  0  0  0  0  0  0  0
    6.1067    1.2498    0.1887 C   0  0  0  0  0  0  0  0  0  0  0  0
    5.5573    2.1080   -0.5824 O   0  0  0  0  0  0  0  0  0  0  0  0
    5.1471    0.4989    1.0380 C   0  0  1  0  0  0  0  0  0  0  0  0
    3.7814    1.0104    0.8234 N   0  0  0  0  0  0  0  0  0  0  0  0
    3.2574    2.0930    1.5450 C   0  0  0  0  0  0  0  0  0  0  0  0
    4.0116    2.6375    2.3974 O   0  0  0  0  0  0  0  0  0  0  0  0
    1.9081    2.6646    1.4121 C   0  0  0  0  0  0  0  0  0  0  0  0
    1.0422    2.0431    0.4816 N   0  0  0  0  0  0  0  0  0  0  0  0
    0.8292    2.4416   -0.9055 C   0  0  0  0  0  0  0  0  0  0  0  0
    1.7295    1.8299   -1.9292 C   0  0  0  0  0  0  0  0  0  0  0  0
    1.0070    1.9144   -3.3242 C   0  0  0  0  0  0  0  0  0  0  0  0
   -0.0190    0.9110   -3.2799 N   0  0  0  0  0  0  0  0  0  0  0  0
   -1.0629    0.6102   -4.2049 C   0  0  0  0  0  0  0  0  0  0  0  0
   -1.1298    1.3105   -5.2020 O   0  0  0  0  0  0  0  0  0  0  0  0
   -1.9303   -0.5214   -3.8103 C   0  0  0  0  0  0  0  0  0  0  0  0
   -3.3181   -0.5677   -4.3578 C   0  0  0  0  0  0  0  0  0  0  0  0
   -4.0691   -1.7298   -3.7713 C   0  0  0  0  0  0  0  0  0  0  0  0
   -5.4768   -1.3926   -3.3499 C   0  0  0  0  0  0  0  0  0  0  0  0
   -5.4481   -0.3514   -2.3176 C   0  0  0  0  0  0  0  0  0  0  0  0
   -4.4664    0.4102   -2.2381 O   0  0  0  0  0  0  0  0  0  0  0  0
   -6.4542   -0.0842   -1.3164 N   0  0  0  0  0  0  0  0  0  0  0  0
   -6.1225    1.1139   -0.5164 C   0  0  2  0  0  0  0  0  0  0  0  0
   -4.7783    0.6726    0.0944 C   0  0  0  0  0  0  0  0  0  0  0  0
   -3.8577    1.4689    0.2292 O   0  0  0  0  0  0  0  0  0  0  0  0
   -4.5669   -0.6620    0.5382 N   0  0  0  0  0  0  0  0  0  0  0  0
   -3.2597   -1.1936    0.8581 C   0  0  1  0  0  0  0  0  0  0  0  0
   -2.3945   -0.2903    1.6848 C   0  0  0  0  0  0  0  0  0  0  0  0
   -2.7204    0.6954    2.3151 O   0  0  0  0  0  0  0  0  0  0  0  0
   -1.0105   -0.6459    1.7193 N   0  0  0  0  0  0  0  0  0  0  0  0
   -0.0094    0.3466    2.2801 C   0  0  2  0  0  0  0  0  0  0  0  0
    0.2556    0.9930    0.9408 C   0  0  0  0  0  0  0  0  0  0  0  0
   -0.4009    0.4333    0.0299 O   0  0  0  0  0  0  0  0  0  0  0  0
    1.1647   -0.3310    2.8305 C   0  0  0  0  0  0  0  0  0  0  0  0
    0.8434   -1.2973    3.9284 C   0  0  0  0  0  0  0  0  0  0  0  0
    0.8080   -0.8808    5.2395 C   0  0  0  0  0  0  0  0  0  0  0  0
    0.5221   -1.7640    6.2705 C   0  0  0  0  0  0  0  0  0  0  0  0
    0.2607   -3.0876    6.0436 C   0  0  0  0  0  0  0  0  0  0  0  0
    0.2969   -3.5075    4.7092 C   0  0  0  0  0  0  0  0  0  0  0  0
    0.5808   -2.6301    3.6921 C   0  0  0  0  0  0  0  0  0  0  0  0
   -3.2329   -2.6141    1.2530 C   0  0  0  0  0  0  0  0  0  0  0  0
   -4.0237   -2.9655    2.4486 C   0  0  0  0  0  0  0  0  0  0  0  0
   -3.4265   -2.8870    3.7181 C   0  0  0  0  0  0  0  0  0  0  0  0
   -4.1521   -3.2214    4.8612 C   0  0  0  0  0  0  0  0  0  0  0  0
   -5.4588   -3.6351    4.7915 C   0  0  0  0  0  0  0  0  0  0  0  0
   -6.0524   -3.7142    3.5326 C   0  0  0  0  0  0  0  0  0  0  0  0
   -5.3544   -3.3866    2.3780 C   0  0  0  0  0  0  0  0  0  0  0  0
   -7.0340    1.3874    0.5863 C   0  0  0  0  0  0  0  0  0  0  0  0
   -8.4750    1.6132    0.2343 C   0  0  0  0  0  0  0  0  0  0  0  0
   -8.6858    2.7749   -0.6899 C   0  0  0  0  0  0  0  0  0  0  0  0
   -8.0219    2.6551   -1.9615 N   0  0  0  0  0  0  0  0  0  0  0  0
   -8.6033    2.0823   -2.9765 C   0  0  0  0  0  0  0  0  0  0  0  0
   -7.9589    1.9549   -4.2472 N   0  0  0  0  0  0  0  0  0  0  0  0
   -9.9240    1.5449   -2.8916 N   0  0  0  0  0  0  0  0  0  0  0  0
    5.2080   -0.9466    1.1276 C   0  0  0  0  0  0  0  0  0  0  0  0
    5.0141   -1.8227   -0.0385 C   0  0  0  0  0  0  0  0  0  0  0  0
    5.9598   -1.6781   -1.1805 C   0  0  0  0  0  0  0  0  0  0  0  0
    3.6019   -1.9071   -0.5735 C   0  0  0  0  0  0  0  0  0  0  0  0
   12.3725    0.5636   -1.6196 H   0  0  0  0  0  0  0  0  0  0  0  0
   12.4891    0.8141    0.1823 H   0  0  0  0  0  0  0  0  0  0  0  0
   13.1125   -0.6947   -0.5884 H   0  0  0  0  0  0  0  0  0  0  0  0
    8.6716   -0.9134   -1.6686 H   0  0  0  0  0  0  0  0  0  0  0  0
   10.0607   -0.4043   -2.7115 H   0  0  0  0  0  0  0  0  0  0  0  0
   10.0906    1.7855   -1.9485 H   0  0  0  0  0  0  0  0  0  0  0  0
    8.4209    1.3526   -2.5149 H   0  0  0  0  0  0  0  0  0  0  0  0
    9.4045    1.8078    0.3283 H   0  0  0  0  0  0  0  0  0  0  0  0
   10.1430    3.9365   -1.0798 H   0  0  0  0  0  0  0  0  0  0  0  0
    8.8192    4.5512   -2.2149 H   0  0  0  0  0  0  0  0  0  0  0  0
    7.8028    0.2462    0.8961 H   0  0  0  0  0  0  0  0  0  0  0  0
    5.3734    0.9165    2.0796 H   0  0  0  0  0  0  0  0  0  0  0  0
    3.1969    0.5326    0.1186 H   0  0  0  0  0  0  0  0  0  0  0  0
    1.9943    3.7368    1.0666 H   0  0  0  0  0  0  0  0  0  0  0  0
    1.4847    2.7485    2.4393 H   0  0  0  0  0  0  0  0  0  0  0  0
    0.8458    3.5647   -0.9886 H   0  0  0  0  0  0  0  0  0  0  0  0
   -0.2277    2.2002   -1.2459 H   0  0  0  0  0  0  0  0  0  0  0  0
    2.6940    2.3171   -2.0530 H   0  0  0  0  0  0  0  0  0  0  0  0
    1.8807    0.7492   -1.7967 H   0  0  0  0  0  0  0  0  0  0  0  0
    0.5798    2.8924   -3.4869 H   0  0  0  0  0  0  0  0  0  0  0  0
    1.7425    1.6845   -4.1120 H   0  0  0  0  0  0  0  0  0  0  0  0
   -0.0074    0.2685   -2.4652 H   0  0  0  0  0  0  0  0  0  0  0  0
   -1.3699   -1.4832   -4.0762 H   0  0  0  0  0  0  0  0  0  0  0  0
   -2.0068   -0.6020   -2.6982 H   0  0  0  0  0  0  0  0  0  0  0  0
   -3.8432    0.3536   -4.2966 H   0  0  0  0  0  0  0  0  0  0  0  0
   -3.1771   -0.7818   -5.4719 H   0  0  0  0  0  0  0  0  0  0  0  0
   -3.5418   -2.0687   -2.8312 H   0  0  0  0  0  0  0  0  0  0  0  0
   -4.1201   -2.5966   -4.4612 H   0  0  0  0  0  0  0  0  0  0  0  0
   -6.0494   -2.2840   -3.0534 H   0  0  0  0  0  0  0  0  0  0  0  0
   -5.9665   -0.9402   -4.2525 H   0  0  0  0  0  0  0  0  0  0  0  0
   -7.2240   -0.6875   -1.2558 H   0  0  0  0  0  0  0  0  0  0  0  0
   -5.8512    1.9340   -1.2213 H   0  0  0  0  0  0  0  0  0  0  0  0
   -5.4279   -1.2165    0.6222 H   0  0  0  0  0  0  0  0  0  0  0  0
   -2.7358   -1.1340   -0.1904 H   0  0  0  0  0  0  0  0  0  0  0  0
   -0.7376   -1.5434    1.3795 H   0  0  0  0  0  0  0  0  0  0  0  0
   -0.4907    1.0768    2.9138 H   0  0  0  0  0  0  0  0  0  0  0  0
    1.7793   -0.8060    2.0428 H   0  0  0  0  0  0  0  0  0  0  0  0
    1.8281    0.4808    3.2754 H   0  0  0  0  0  0  0  0  0  0  0  0
    1.0043    0.1627    5.5221 H   0  0  0  0  0  0  0  0  0  0  0  0
    0.5033   -1.3934    7.2823 H   0  0  0  0  0  0  0  0  0  0  0  0
    0.0368   -3.8044    6.8166 H   0  0  0  0  0  0  0  0  0  0  0  0
    0.0882   -4.5665    4.5373 H   0  0  0  0  0  0  0  0  0  0  0  0
    0.5908   -3.0292    2.6911 H   0  0  0  0  0  0  0  0  0  0  0  0
   -2.2000   -2.9169    1.4419 H   0  0  0  0  0  0  0  0  0  0  0  0
   -3.5588   -3.2103    0.3582 H   0  0  0  0  0  0  0  0  0  0  0  0
   -2.3918   -2.5623    3.8058 H   0  0  0  0  0  0  0  0  0  0  0  0
   -3.6283   -3.1366    5.8172 H   0  0  0  0  0  0  0  0  0  0  0  0
   -6.0272   -3.9006    5.6805 H   0  0  0  0  0  0  0  0  0  0  0  0
   -7.0796   -4.0460    3.5287 H   0  0  0  0  0  0  0  0  0  0  0  0
   -5.8494   -3.4584    1.4024 H   0  0  0  0  0  0  0  0  0  0  0  0
   -6.9791    0.5416    1.3119 H   0  0  0  0  0  0  0  0  0  0  0  0
   -6.6713    2.2978    1.1222 H   0  0  0  0  0  0  0  0  0  0  0  0
   -8.9864    1.8817    1.1948 H   0  0  0  0  0  0  0  0  0  0  0  0
   -8.9515    0.6832   -0.1180 H   0  0  0  0  0  0  0  0  0  0  0  0
   -8.3655    3.7156   -0.1995 H   0  0  0  0  0  0  0  0  0  0  0  0
   -9.7821    2.8708   -0.8920 H   0  0  0  0  0  0  0  0  0  0  0  0
   -8.4523    2.3835   -5.0581 H   0  0  0  0  0  0  0  0  0  0  0  0
   -7.0363    1.4529   -4.3206 H   0  0  0  0  0  0  0  0  0  0  0  0
  -10.1598    0.5818   -3.1841 H   0  0  0  0  0  0  0  0  0  0  0  0
  -10.7394    2.1117   -2.5186 H   0  0  0  0  0  0  0  0  0  0  0  0
    6.2216   -1.2187    1.5629 H   0  0  0  0  0  0  0  0  0  0  0  0
    4.4497   -1.2681    1.9169 H   0  0  0  0  0  0  0  0  0  0  0  0
    5.2047   -2.8837    0.3578 H   0  0  0  0  0  0  0  0  0  0  0  0
    5.5396   -2.1348   -2.1313 H   0  0  0  0  0  0  0  0  0  0  0  0
    6.1653   -0.6348   -1.4661 H   0  0  0  0  0  0  0  0  0  0  0  0
    6.8974   -2.2939   -1.0305 H   0  0  0  0  0  0  0  0  0  0  0  0
    3.4048   -1.2402   -1.4322 H   0  0  0  0  0  0  0  0  0  0  0  0
    2.8426   -1.8378    0.1963 H   0  0  0  0  0  0  0  0  0  0  0  0
    3.4897   -2.9446   -1.0120 H   0  0  0  0  0  0  0  0  0  0  0  0
  1  2  1  0
  2  3  1  0
  3  4  1  0
  4  5  1  0
  5  6  1  0
  6  7  2  0
  6  8  1  0
  5  9  1  0
  9 10  1  0
 10 11  2  0
 10 12  1  0
 12 13  1  0
 13 14  1  0
 14 15  2  0
 14 16  1  0
 16 17  1  0
 17 18  1  0
 18 19  1  0
 19 20  1  0
 20 21  1  0
 21 22  1  0
 22 23  2  0
 22 24  1  0
 24 25  1  0
 25 26  1  0
 26 27  1  0
 27 28  1  0
 28 29  2  0
 28 30  1  0
 30 31  1  0
 31 32  1  0
 32 33  2  0
 32 34  1  0
 34 35  1  0
 35 36  1  0
 36 37  2  0
 36 38  1  0
 38 39  1  0
 39 40  1  0
 40 41  2  0
 39 42  1  0
 42 43  1  0
 43 44  2  0
 44 45  1  0
 45 46  2  0
 46 47  1  0
 47 48  2  0
 35 49  1  0
 49 50  1  0
 50 51  2  0
 51 52  1  0
 52 53  2  0
 53 54  1  0
 54 55  2  0
 31 56  1  0
 56 57  1  0
 57 58  1  0
 58 59  1  0
 59 60  2  3
 60 61  1  0
 60 62  1  0
 12 63  1  0
 63 64  1  0
 64 65  1  0
 64 66  1  0
 40 17  1  0
 48 43  1  0
 55 50  1  0
  1 67  1  0
  1 68  1  0
  1 69  1  0
  3 70  1  0
  3 71  1  0
  4 72  1  0
  4 73  1  0
  5 74  1  1
  8 75  1  0
  8 76  1  0
  9 77  1  0
 12 78  1  1
 13 79  1  0
 16 80  1  0
 16 81  1  0
 18 82  1  0
 18 83  1  0
 19 84  1  0
 19 85  1  0
 20 86  1  0
 20 87  1  0
 21 88  1  0
 24 89  1  0
 24 90  1  0
 25 91  1  0
 25 92  1  0
 26 93  1  0
 26 94  1  0
 27 95  1  0
 27 96  1  0
 30 97  1  0
 31 98  1  6
 34 99  1  0
 35100  1  6
 38101  1  0
 39102  1  1
 42103  1  0
 42104  1  0
 44105  1  0
 45106  1  0
 46107  1  0
 47108  1  0
 48109  1  0
 49110  1  0
 49111  1  0
 51112  1  0
 52113  1  0
 53114  1  0
 54115  1  0
 55116  1  0
 56117  1  0
 56118  1  0
 57119  1  0
 57120  1  0
 58121  1  0
 58122  1  0
 61123  1  0
 61124  1  0
 62125  1  0
 62126  1  0
 63127  1  0
 63128  1  0
 64129  1  0
 65130  1  0
 65131  1  0
 65132  1  0
 66133  1  0
 66134  1  0
 66135  1  0
M  END
>  <Ligand ID>  (1) 
LIG0003439

>  <Ligand>  (1) 
CHEMBL321228

>  <SMILES>  (1) 
CSCC[C@@H](C(=O)N)NC(=O)[C@@H](NC(=O)CN1CCCNC(=O)CCCCC(=O)N[C@H](C(=O)N[C@@H](C(=O)N[C@H](C1=O)Cc1ccccc1)Cc1ccccc1)CCCN=C(N)N)CC(C)C

>  <CID>  (1) 
44337797.0

>  <ChEMBL ID>  (1) 
nan

>  <InChiKey>  (1) 
MHGTZHZAQAFNNE-RLMIVUACSA-N

>  <InChi>  (1) 
InChI=1S/C46H69N11O8S/c1-30(2)26-35(43(63)54-33(41(47)61)21-25-66-3)53-40(60)29-57-24-13-23-50-38(58)19-10-11-20-39(59)52-34(18-12-22-51-46(48)49)42(62)55-36(27-31-14-6-4-7-15-31)44(64)56-37(45(57)65)28-32-16-8-5-9-17-32/h4-9,14-17,30,33-37H,10-13,18-29H2,1-3H3,(H2,47,61)(H,50,58)(H,52,59)(H,53,60)(H,54,63)(H,55,62)(H,56,64)(H4,48,49,51)/t33-,34-,35-,36+,37-/m0/s1

>  <IUPAC Name>  (1) 
(2S)-N-[(2S)-1-amino-4-methylsulfanyl-1-oxobutan-2-yl]-2-[[2-[(2S,5R,8S)-5,8-dibenzyl-2-[3-(diaminomethylideneamino)propyl]-3,6,9,15,20-pentaoxo-1,4,7,10,14-pentazacycloicos-10-yl]acetyl]amino]-4-methylpentanamide

$$$$
