
     RDKit          3D

 66 69  0  0  0  0  0  0  0  0999 V2000
   -6.0276    4.2106    0.1432 O   0  0  0  0  0  0  0  0  0  0  0  0
   -5.4440    2.9676   -0.0559 C   0  0  0  0  0  0  0  0  0  0  0  0
   -4.1189    2.8838   -0.4042 C   0  0  0  0  0  0  0  0  0  0  0  0
   -3.5074    1.6391   -0.6109 C   0  0  0  0  0  0  0  0  0  0  0  0
   -2.0931    1.6882   -1.0114 C   0  0  0  0  0  0  0  0  0  0  0  0
   -4.1818    0.4510   -0.4794 C   0  0  0  0  0  0  0  0  0  0  0  0
   -5.5369    0.5356   -0.1238 C   0  0  0  0  0  0  0  0  0  0  0  0
   -6.1343    1.7901    0.0789 C   0  0  0  0  0  0  0  0  0  0  0  0
   -6.4171   -0.6184    0.0598 C   0  0  0  0  0  0  0  0  0  0  0  0
   -3.6150   -0.8830   -0.6486 C   0  0  0  0  0  0  0  0  0  0  0  0
   -2.8660   -1.4444    0.5231 C   0  0  1  0  0  0  0  0  0  0  0  0
   -1.6673   -0.7057    0.9496 C   0  0  0  0  0  0  0  0  0  0  0  0
   -1.7960    0.1270    1.8833 O   0  0  0  0  0  0  0  0  0  0  0  0
   -0.4336   -0.9750    0.2989 N   0  0  0  0  0  0  0  0  0  0  0  0
   -0.2588   -1.8802   -0.7941 C   0  0  0  0  0  0  0  0  0  0  0  0
    0.9968   -2.6343   -0.6483 C   0  0  0  0  0  0  0  0  0  0  0  0
    1.2755   -3.5882   -1.6279 C   0  0  0  0  0  0  0  0  0  0  0  0
    2.4227   -4.3579   -1.5948 C   0  0  0  0  0  0  0  0  0  0  0  0
    3.3542   -4.2037   -0.5644 C   0  0  0  0  0  0  0  0  0  0  0  0
    3.0795   -3.2612    0.4045 C   0  0  0  0  0  0  0  0  0  0  0  0
    1.9328   -2.5019    0.3580 C   0  0  0  0  0  0  0  0  0  0  0  0
    1.6337   -1.4860    1.3963 C   0  0  0  0  0  0  0  0  0  0  0  0
    0.8406   -0.3498    0.7975 C   0  0  1  0  0  0  0  0  0  0  0  0
    1.4099    0.3604   -0.3516 C   0  0  0  0  0  0  0  0  0  0  0  0
    2.6133    1.0354   -0.1519 N   0  0  0  0  0  0  0  0  0  0  0  0
    3.8304    0.3686   -0.0245 C   0  0  0  0  0  0  0  0  0  0  0  0
    4.9299    1.4059    0.1836 C   0  0  0  0  0  0  0  0  0  0  0  0
    5.2522    1.7991    1.4821 C   0  0  0  0  0  0  0  0  0  0  0  0
    6.2639    2.7507    1.6285 C   0  0  0  0  0  0  0  0  0  0  0  0
    6.9172    3.2811    0.5474 C   0  0  0  0  0  0  0  0  0  0  0  0
    6.5982    2.8916   -0.7427 C   0  0  0  0  0  0  0  0  0  0  0  0
    5.5876    1.9387   -0.9170 C   0  0  0  0  0  0  0  0  0  0  0  0
   -3.7936   -1.2905    1.6969 N   0  0  0  0  0  0  0  0  0  0  0  0
   -6.2211    4.4684    1.1121 H   0  0  0  0  0  0  0  0  0  0  0  0
   -3.5462    3.8134   -0.5175 H   0  0  0  0  0  0  0  0  0  0  0  0
   -1.5155    1.9865   -0.0923 H   0  0  0  0  0  0  0  0  0  0  0  0
   -1.9368    2.5911   -1.6891 H   0  0  0  0  0  0  0  0  0  0  0  0
   -1.6863    0.8037   -1.4874 H   0  0  0  0  0  0  0  0  0  0  0  0
   -7.1904    1.8669    0.3571 H   0  0  0  0  0  0  0  0  0  0  0  0
   -6.8787   -0.5097    1.0877 H   0  0  0  0  0  0  0  0  0  0  0  0
   -7.3206   -0.5287   -0.6177 H   0  0  0  0  0  0  0  0  0  0  0  0
   -5.9672   -1.5945    0.0091 H   0  0  0  0  0  0  0  0  0  0  0  0
   -2.8541   -0.8169   -1.4942 H   0  0  0  0  0  0  0  0  0  0  0  0
   -4.3460   -1.6233   -1.0674 H   0  0  0  0  0  0  0  0  0  0  0  0
   -2.7085   -2.5248    0.3441 H   0  0  0  0  0  0  0  0  0  0  0  0
   -0.2281   -1.2895   -1.7516 H   0  0  0  0  0  0  0  0  0  0  0  0
   -1.1086   -2.6014   -0.8923 H   0  0  0  0  0  0  0  0  0  0  0  0
    0.5984   -3.7625   -2.4576 H   0  0  0  0  0  0  0  0  0  0  0  0
    2.6627   -5.1028   -2.3409 H   0  0  0  0  0  0  0  0  0  0  0  0
    4.2593   -4.7962   -0.5170 H   0  0  0  0  0  0  0  0  0  0  0  0
    3.7999   -3.1367    1.2102 H   0  0  0  0  0  0  0  0  0  0  0  0
    2.4380   -1.1717    1.9917 H   0  0  0  0  0  0  0  0  0  0  0  0
    0.9109   -2.0271    2.1041 H   0  0  0  0  0  0  0  0  0  0  0  0
    0.5219    0.3361    1.5949 H   0  0  0  0  0  0  0  0  0  0  0  0
    0.6329    1.1403   -0.6636 H   0  0  0  0  0  0  0  0  0  0  0  0
    1.4427   -0.3065   -1.2751 H   0  0  0  0  0  0  0  0  0  0  0  0
    2.7580    1.9199   -0.6879 H   0  0  0  0  0  0  0  0  0  0  0  0
    4.0466   -0.1134   -1.0437 H   0  0  0  0  0  0  0  0  0  0  0  0
    3.9805   -0.4342    0.6783 H   0  0  0  0  0  0  0  0  0  0  0  0
    4.7491    1.3930    2.3459 H   0  0  0  0  0  0  0  0  0  0  0  0
    6.5604    3.0971    2.6276 H   0  0  0  0  0  0  0  0  0  0  0  0
    7.7090    4.0249    0.6469 H   0  0  0  0  0  0  0  0  0  0  0  0
    7.0794    3.2773   -1.6201 H   0  0  0  0  0  0  0  0  0  0  0  0
    5.3268    1.6248   -1.9365 H   0  0  0  0  0  0  0  0  0  0  0  0
   -3.2507   -1.6988    2.4965 H   0  0  0  0  0  0  0  0  0  0  0  0
   -3.7647   -0.2491    1.8657 H   0  0  0  0  0  0  0  0  0  0  0  0
  1  2  1  0
  2  3  2  0
  3  4  1  0
  4  5  1  0
  4  6  2  0
  6  7  1  0
  7  8  2  0
  7  9  1  0
  6 10  1  0
 10 11  1  0
 11 12  1  0
 12 13  2  0
 12 14  1  0
 14 15  1  0
 15 16  1  0
 16 17  2  0
 17 18  1  0
 18 19  2  0
 19 20  1  0
 20 21  2  0
 21 22  1  0
 22 23  1  0
 23 24  1  0
 24 25  1  0
 25 26  1  0
 26 27  1  0
 27 28  2  0
 28 29  1  0
 29 30  2  0
 30 31  1  0
 31 32  2  0
 11 33  1  0
  8  2  1  0
 23 14  1  0
 32 27  1  0
 21 16  1  0
  1 34  1  0
  3 35  1  0
  5 36  1  0
  5 37  1  0
  5 38  1  0
  8 39  1  0
  9 40  1  0
  9 41  1  0
  9 42  1  0
 10 43  1  0
 10 44  1  0
 11 45  1  6
 15 46  1  0
 15 47  1  0
 17 48  1  0
 18 49  1  0
 19 50  1  0
 20 51  1  0
 22 52  1  0
 22 53  1  0
 23 54  1  1
 24 55  1  0
 24 56  1  0
 25 57  1  0
 26 58  1  0
 26 59  1  0
 28 60  1  0
 29 61  1  0
 30 62  1  0
 31 63  1  0
 32 64  1  0
 33 65  1  0
 33 66  1  0
M  END
>  <Ligand ID>  (1) 
LIG0003767

>  <Ligand>  (1) 
CHEMBL77001

>  <SMILES>  (1) 
Oc1cc(C)c(c(c1)C)C[C@@H](C(=O)N1Cc2ccccc2C[C@H]1CNCc1ccccc1)N

>  <CID>  (1) 
11729952.0

>  <ChEMBL ID>  (1) 
nan

>  <InChiKey>  (1) 
ZXCCLWMAQYTFDD-IGKIAQTJSA-N

>  <InChi>  (1) 
InChI=1S/C28H33N3O2/c1-19-12-25(32)13-20(2)26(19)15-27(29)28(33)31-18-23-11-7-6-10-22(23)14-24(31)17-30-16-21-8-4-3-5-9-21/h3-13,24,27,30,32H,14-18,29H2,1-2H3/t24-,27-/m0/s1

>  <IUPAC Name>  (1) 
(2S)-2-amino-1-[(3S)-3-[(benzylamino)methyl]-3,4-dihydro-1H-isoquinolin-2-yl]-3-(4-hydroxy-2,6-dimethylphenyl)propan-1-one

$$$$
