
     RDKit          3D

 19 18  0  0  0  0  0  0  0  0999 V2000
   -3.0653    0.5237   -0.0149 C   0  0  0  0  0  0  0  0  0  0  0  0
   -1.6160    0.4586   -0.4359 C   0  0  0  0  0  0  0  0  0  0  0  0
   -0.7131    0.1781    0.7527 C   0  0  0  0  0  0  0  0  0  0  0  0
    0.7119    0.1220    0.2919 C   0  0  0  0  0  0  0  0  0  0  0  0
    1.4782   -0.9393    0.4286 C   0  0  0  0  0  0  0  0  0  0  0  0
    2.8916   -0.8722   -0.0741 C   0  0  0  0  0  0  0  0  0  0  0  0
    3.0927    0.3915   -0.6132 O   0  0  0  0  0  0  0  0  0  0  0  0
   -3.4280    1.5497    0.1324 H   0  0  0  0  0  0  0  0  0  0  0  0
   -3.1472   -0.1073    0.9172 H   0  0  0  0  0  0  0  0  0  0  0  0
   -3.7546    0.0409   -0.7504 H   0  0  0  0  0  0  0  0  0  0  0  0
   -1.2729    1.3262   -1.0103 H   0  0  0  0  0  0  0  0  0  0  0  0
   -1.5190   -0.4370   -1.1030 H   0  0  0  0  0  0  0  0  0  0  0  0
   -0.8941    0.9822    1.4825 H   0  0  0  0  0  0  0  0  0  0  0  0
   -0.9410   -0.8103    1.1781 H   0  0  0  0  0  0  0  0  0  0  0  0
    1.0908    1.0281   -0.1739 H   0  0  0  0  0  0  0  0  0  0  0  0
    1.0668   -1.8241    0.8975 H   0  0  0  0  0  0  0  0  0  0  0  0
    3.5875   -1.0660    0.7751 H   0  0  0  0  0  0  0  0  0  0  0  0
    3.0979   -1.6232   -0.8439 H   0  0  0  0  0  0  0  0  0  0  0  0
    3.3337    1.0785    0.0643 H   0  0  0  0  0  0  0  0  0  0  0  0
  1  2  1  0
  2  3  1  0
  3  4  1  0
  4  5  2  0
  5  6  1  0
  6  7  1  0
  1  8  1  0
  1  9  1  0
  1 10  1  0
  2 11  1  0
  2 12  1  0
  3 13  1  0
  3 14  1  0
  4 15  1  0
  5 16  1  0
  6 17  1  0
  6 18  1  0
  7 19  1  0
M  END
>  <Ligand ID>  (1) 
LIG0000461

>  <Ligand>  (1) 
2-Hexen-1-ol

>  <SMILES>  (1) 
CCC/C=C/CO

>  <CID>  (1) 
5318042.0

>  <ChEMBL ID>  (1) 
nan

>  <InChiKey>  (1) 
ZCHHRLHTBGRGOT-SNAWJCMRSA-N

>  <InChi>  (1) 
InChI=1S/C6H12O/c1-2-3-4-5-6-7/h4-5,7H,2-3,6H2,1H3/b5-4+

>  <IUPAC Name>  (1) 
(E)-hex-2-en-1-ol

$$$$
