
     RDKit          3D

 63 65  0  0  0  0  0  0  0  0999 V2000
    2.2069    1.3630    0.6361 C   0  0  0  0  0  0  0  0  0  0  0  0
    2.8136    0.1091    1.2041 C   0  0  2  0  0  0  0  0  0  0  0  0
    1.9781   -0.4122    2.3810 C   0  0  0  0  0  0  0  0  0  0  0  0
    0.5916   -0.7237    1.9489 C   0  0  0  0  0  0  0  0  0  0  0  0
    0.2317   -1.9733    1.4819 C   0  0  0  0  0  0  0  0  0  0  0  0
   -1.0692   -2.2445    1.0830 C   0  0  0  0  0  0  0  0  0  0  0  0
   -2.0191   -1.2433    1.1559 C   0  0  0  0  0  0  0  0  0  0  0  0
   -1.6498   -0.0005    1.6231 C   0  0  0  0  0  0  0  0  0  0  0  0
   -0.3599    0.2878    2.0245 C   0  0  0  0  0  0  0  0  0  0  0  0
   -3.4088   -1.4643    0.7523 C   0  0  0  0  0  0  0  0  0  0  0  0
   -3.9337   -2.7413    0.9396 C   0  0  0  0  0  0  0  0  0  0  0  0
   -5.2456   -2.9186    0.5505 C   0  0  0  0  0  0  0  0  0  0  0  0
   -6.0039   -1.9024    0.0073 C   0  0  0  0  0  0  0  0  0  0  0  0
   -5.4770   -0.6280   -0.1786 C   0  0  0  0  0  0  0  0  0  0  0  0
   -4.1744   -0.4438    0.2054 C   0  0  0  0  0  0  0  0  0  0  0  0
   -6.3030    0.3170   -0.7242 O   0  0  0  0  0  0  0  0  0  0  0  0
   -5.9154    1.6265   -0.9738 C   0  0  0  0  0  0  0  0  0  0  0  0
   -6.1177    2.0259   -2.4278 C   0  0  0  0  0  0  0  0  0  0  0  0
   -6.7895    2.5440   -0.1177 C   0  0  0  0  0  0  0  0  0  0  0  0
   -7.3827   -2.1882   -0.3735 C   0  0  0  0  0  0  0  0  0  0  0  0
   -7.9099   -3.3322   -0.2248 O   0  0  0  0  0  0  0  0  0  0  0  0
   -8.2029   -1.2121   -0.9260 O   0  0  0  0  0  0  0  0  0  0  0  0
    4.1366    0.2479    1.6855 N   0  0  0  0  0  0  0  0  0  0  0  0
    5.1292    0.6759    0.7263 C   0  0  0  0  0  0  0  0  0  0  0  0
    5.3914   -0.3580   -0.3121 C   0  0  1  0  0  0  0  0  0  0  0  0
    6.4072    0.1255   -1.2692 C   0  0  0  0  0  0  0  0  0  0  0  0
    6.9926   -0.8125   -2.1134 C   0  0  0  0  0  0  0  0  0  0  0  0
    7.9580   -0.4511   -3.0429 C   0  0  0  0  0  0  0  0  0  0  0  0
    8.3665    0.8444   -3.1590 C   0  0  0  0  0  0  0  0  0  0  0  0
    7.7991    1.8067   -2.3278 C   0  0  0  0  0  0  0  0  0  0  0  0
    6.8280    1.4187   -1.3986 C   0  0  0  0  0  0  0  0  0  0  0  0
    8.2852    3.4907   -2.4315 Cl  0  0  0  0  0  0  0  0  0  0  0  0
    5.8373   -1.5162    0.3321 O   0  0  0  0  0  0  0  0  0  0  0  0
    1.9418    2.1141    1.3812 H   0  0  0  0  0  0  0  0  0  0  0  0
    1.2719    1.1215    0.0893 H   0  0  0  0  0  0  0  0  0  0  0  0
    2.8766    1.8093   -0.1253 H   0  0  0  0  0  0  0  0  0  0  0  0
    2.7896   -0.6832    0.4290 H   0  0  0  0  0  0  0  0  0  0  0  0
    2.4295   -1.3068    2.8228 H   0  0  0  0  0  0  0  0  0  0  0  0
    1.9057    0.3494    3.1860 H   0  0  0  0  0  0  0  0  0  0  0  0
    1.0197   -2.7143    1.4484 H   0  0  0  0  0  0  0  0  0  0  0  0
   -1.3223   -3.2244    0.7244 H   0  0  0  0  0  0  0  0  0  0  0  0
   -2.3639    0.8065    1.6944 H   0  0  0  0  0  0  0  0  0  0  0  0
   -0.1083    1.2655    2.3823 H   0  0  0  0  0  0  0  0  0  0  0  0
   -3.3445   -3.5257    1.3603 H   0  0  0  0  0  0  0  0  0  0  0  0
   -5.6786   -3.9047    0.6857 H   0  0  0  0  0  0  0  0  0  0  0  0
   -3.6902    0.5107    0.0966 H   0  0  0  0  0  0  0  0  0  0  0  0
   -4.8725    1.8718   -0.7318 H   0  0  0  0  0  0  0  0  0  0  0  0
   -5.7918    1.2470   -3.1388 H   0  0  0  0  0  0  0  0  0  0  0  0
   -7.1952    2.2215   -2.5836 H   0  0  0  0  0  0  0  0  0  0  0  0
   -5.5305    2.9426   -2.6551 H   0  0  0  0  0  0  0  0  0  0  0  0
   -6.9235    3.4819   -0.6797 H   0  0  0  0  0  0  0  0  0  0  0  0
   -7.7276    2.0160    0.0759 H   0  0  0  0  0  0  0  0  0  0  0  0
   -6.2265    2.7363    0.8251 H   0  0  0  0  0  0  0  0  0  0  0  0
   -9.1907   -1.1173   -0.6440 H   0  0  0  0  0  0  0  0  0  0  0  0
    4.2646    0.7352    2.5784 H   0  0  0  0  0  0  0  0  0  0  0  0
    4.8622    1.6907    0.3049 H   0  0  0  0  0  0  0  0  0  0  0  0
    6.0665    0.8442    1.2944 H   0  0  0  0  0  0  0  0  0  0  0  0
    4.4989   -0.6379   -0.9035 H   0  0  0  0  0  0  0  0  0  0  0  0
    6.6977   -1.8456   -2.0541 H   0  0  0  0  0  0  0  0  0  0  0  0
    8.4214   -1.1919   -3.7102 H   0  0  0  0  0  0  0  0  0  0  0  0
    9.1261    1.1136   -3.8941 H   0  0  0  0  0  0  0  0  0  0  0  0
    6.4314    2.1990   -0.7889 H   0  0  0  0  0  0  0  0  0  0  0  0
    6.3721   -1.2416    1.1033 H   0  0  0  0  0  0  0  0  0  0  0  0
  1  2  1  0
  2  3  1  0
  3  4  1  0
  4  5  2  0
  5  6  1  0
  6  7  2  0
  7  8  1  0
  8  9  2  0
  7 10  1  0
 10 11  2  0
 11 12  1  0
 12 13  2  0
 13 14  1  0
 14 15  2  0
 14 16  1  0
 16 17  1  0
 17 18  1  0
 17 19  1  0
 13 20  1  0
 20 21  2  0
 20 22  1  0
  2 23  1  0
 23 24  1  0
 24 25  1  0
 25 26  1  0
 26 27  2  0
 27 28  1  0
 28 29  2  0
 29 30  1  0
 30 31  2  0
 30 32  1  0
 25 33  1  0
  9  4  1  0
 15 10  1  0
 31 26  1  0
  1 34  1  0
  1 35  1  0
  1 36  1  0
  2 37  1  6
  3 38  1  0
  3 39  1  0
  5 40  1  0
  6 41  1  0
  8 42  1  0
  9 43  1  0
 11 44  1  0
 12 45  1  0
 15 46  1  0
 17 47  1  0
 18 48  1  0
 18 49  1  0
 18 50  1  0
 19 51  1  0
 19 52  1  0
 19 53  1  0
 22 54  1  0
 23 55  1  0
 24 56  1  0
 24 57  1  0
 25 58  1  6
 27 59  1  0
 28 60  1  0
 29 61  1  0
 31 62  1  0
 33 63  1  0
M  END
>  <Ligand ID>  (1) 
LIG0005452

>  <Ligand>  (1) 
CHEMBL487443

>  <SMILES>  (1) 
C[C@H](Cc1ccc(cc1)c1ccc(c(c1)OC(C)C)C(=O)O)NC[C@@H](c1cccc(c1)Cl)O

>  <CID>  (1) 
24895357.0

>  <ChEMBL ID>  (1) 
nan

>  <InChiKey>  (1) 
KALUJOSCRARWJO-CJAUYULYSA-N

>  <InChi>  (1) 
InChI=1S/C27H30ClNO4/c1-17(2)33-26-15-21(11-12-24(26)27(31)32)20-9-7-19(8-10-20)13-18(3)29-16-25(30)22-5-4-6-23(28)14-22/h4-12,14-15,17-18,25,29-30H,13,16H2,1-3H3,(H,31,32)/t18-,25+/m1/s1

>  <IUPAC Name>  (1) 
4-[4-[(2R)-2-[[(2R)-2-(3-chlorophenyl)-2-hydroxyethyl]amino]propyl]phenyl]-2-propan-2-yloxybenzoic acid

$$$$
