
     RDKit          3D

 30 30  0  0  0  0  0  0  0  0999 V2000
   -4.0536   -0.8788   -0.6931 C   0  0  0  0  0  0  0  0  0  0  0  0
   -3.7798   -0.0464    0.5384 C   0  0  0  0  0  0  0  0  0  0  0  0
   -2.4998    0.7156    0.4525 C   0  0  0  0  0  0  0  0  0  0  0  0
   -1.2805   -0.1509    0.2834 C   0  0  0  0  0  0  0  0  0  0  0  0
   -0.0970    0.7884    0.2168 C   0  0  0  0  0  0  0  0  0  0  0  0
    1.2201    0.0709    0.0461 C   0  0  0  0  0  0  0  0  0  0  0  0
    2.3372    1.1098   -0.0085 C   0  0  0  0  0  0  0  0  0  0  0  0
    3.6203    0.3332    0.2024 C   0  0  0  0  0  0  0  0  0  0  0  0
    3.8183   -0.6978   -0.8531 C   0  0  0  0  0  0  0  0  0  0  0  0
    2.5528   -1.2281   -1.4160 C   0  0  0  0  0  0  0  0  0  0  0  0
    2.6611   -2.2461   -2.1701 O   0  0  0  0  0  0  0  0  0  0  0  0
    1.3120   -0.6642   -1.1501 O   0  0  0  0  0  0  0  0  0  0  0  0
   -3.9164   -0.2432   -1.5950 H   0  0  0  0  0  0  0  0  0  0  0  0
   -5.1446   -1.1332   -0.6460 H   0  0  0  0  0  0  0  0  0  0  0  0
   -3.4307   -1.7755   -0.6823 H   0  0  0  0  0  0  0  0  0  0  0  0
   -3.8669   -0.6734    1.4445 H   0  0  0  0  0  0  0  0  0  0  0  0
   -4.5955    0.7015    0.6155 H   0  0  0  0  0  0  0  0  0  0  0  0
   -2.5769    1.4279   -0.3660 H   0  0  0  0  0  0  0  0  0  0  0  0
   -2.3762    1.2853    1.3875 H   0  0  0  0  0  0  0  0  0  0  0  0
   -1.1453   -0.8654    1.0981 H   0  0  0  0  0  0  0  0  0  0  0  0
   -1.3608   -0.6355   -0.7256 H   0  0  0  0  0  0  0  0  0  0  0  0
   -0.0194    1.2738    1.2316 H   0  0  0  0  0  0  0  0  0  0  0  0
   -0.2353    1.6035   -0.4930 H   0  0  0  0  0  0  0  0  0  0  0  0
    1.4349   -0.5809    0.8906 H   0  0  0  0  0  0  0  0  0  0  0  0
    2.2174    1.8908    0.7457 H   0  0  0  0  0  0  0  0  0  0  0  0
    2.3556    1.5858   -1.0122 H   0  0  0  0  0  0  0  0  0  0  0  0
    3.5959   -0.1268    1.2114 H   0  0  0  0  0  0  0  0  0  0  0  0
    4.4910    1.0407    0.1552 H   0  0  0  0  0  0  0  0  0  0  0  0
    4.3375   -1.5670   -0.3573 H   0  0  0  0  0  0  0  0  0  0  0  0
    4.4247   -0.3140   -1.7008 H   0  0  0  0  0  0  0  0  0  0  0  0
  1  2  1  0
  2  3  1  0
  3  4  1  0
  4  5  1  0
  5  6  1  0
  6  7  1  0
  7  8  1  0
  8  9  1  0
  9 10  1  0
 10 11  2  0
 10 12  1  0
 12  6  1  0
  1 13  1  0
  1 14  1  0
  1 15  1  0
  2 16  1  0
  2 17  1  0
  3 18  1  0
  3 19  1  0
  4 20  1  0
  4 21  1  0
  5 22  1  0
  5 23  1  0
  6 24  1  0
  7 25  1  0
  7 26  1  0
  8 27  1  0
  8 28  1  0
  9 29  1  0
  9 30  1  0
M  END
>  <Ligand ID>  (1) 
LIG0000145

>  <Ligand>  (1) 
delta-Decalactone

>  <SMILES>  (1) 
CCCCCC1CCCC(=O)O1

>  <CID>  (1) 
12810.0

>  <ChEMBL ID>  (1) 
nan

>  <InChiKey>  (1) 
GHBSPIPJMLAMEP-UHFFFAOYSA-N

>  <InChi>  (1) 
InChI=1S/C10H18O2/c1-2-3-4-6-9-7-5-8-10(11)12-9/h9H,2-8H2,1H3

>  <IUPAC Name>  (1) 
6-pentyloxan-2-one

$$$$
