
     RDKit          3D

 51 54  0  0  0  0  0  0  0  0999 V2000
    3.8333    1.4751   -1.9010 O   0  0  0  0  0  0  0  0  0  0  0  0
    3.6660    0.4676   -1.1651 C   0  0  0  0  0  0  0  0  0  0  0  0
    2.3749   -0.1031   -1.1347 N   0  0  0  0  0  0  0  0  0  0  0  0
    1.3335    0.5328   -1.9580 C   0  0  0  0  0  0  0  0  0  0  0  0
   -0.0318    0.0831   -1.4924 C   0  0  0  0  0  0  0  0  0  0  0  0
   -0.0885   -0.0242   -0.0382 N   0  0  0  0  0  0  0  0  0  0  0  0
    0.8559   -0.9689    0.5581 C   0  0  0  0  0  0  0  0  0  0  0  0
    2.0083   -1.2682   -0.3593 C   0  0  0  0  0  0  0  0  0  0  0  0
   -0.9934    0.7493    0.7186 C   0  0  0  0  0  0  0  0  0  0  0  0
   -0.4936    1.9026    1.2287 N   0  0  0  0  0  0  0  0  0  0  0  0
   -1.1751    2.8035    1.9043 C   0  0  0  0  0  0  0  0  0  0  0  0
   -0.6311    4.0630    2.4625 C   0  0  0  0  0  0  0  0  0  0  0  0
   -2.5008    2.5381    2.0998 N   0  0  0  0  0  0  0  0  0  0  0  0
   -3.0181    1.4373    1.6249 C   0  0  0  0  0  0  0  0  0  0  0  0
   -2.3518    0.4361    0.8993 C   0  0  0  0  0  0  0  0  0  0  0  0
   -3.0362   -0.6230    0.5011 C   0  0  0  0  0  0  0  0  0  0  0  0
   -2.6671   -1.9050   -0.2338 C   0  0  0  0  0  0  0  0  0  0  0  0
   -3.5426   -1.9015   -1.4584 C   0  0  0  0  0  0  0  0  0  0  0  0
   -5.0036   -2.0929   -1.0899 C   0  0  0  0  0  0  0  0  0  0  0  0
   -5.2265   -1.8412    0.3901 C   0  0  0  0  0  0  0  0  0  0  0  0
   -4.4308   -0.6774    0.8354 C   0  0  0  0  0  0  0  0  0  0  0  0
   -4.7603    0.7997    1.7308 S   0  0  0  0  0  0  0  0  0  0  0  0
    4.8239   -0.0414   -0.3928 C   0  0  0  0  0  0  0  0  0  0  0  0
    4.4898    0.0800    1.0768 C   0  0  0  0  0  0  0  0  0  0  0  0
    6.1002    0.6788   -0.7632 C   0  0  0  0  0  0  0  0  0  0  0  0
    1.5384    0.2251   -2.9978 H   0  0  0  0  0  0  0  0  0  0  0  0
    1.4317    1.6328   -1.8566 H   0  0  0  0  0  0  0  0  0  0  0  0
   -0.2249   -0.8703   -1.9817 H   0  0  0  0  0  0  0  0  0  0  0  0
   -0.7701    0.8218   -1.8529 H   0  0  0  0  0  0  0  0  0  0  0  0
    1.2529   -0.5199    1.4917 H   0  0  0  0  0  0  0  0  0  0  0  0
    0.3865   -1.9178    0.8422 H   0  0  0  0  0  0  0  0  0  0  0  0
    2.8480   -1.6363    0.2294 H   0  0  0  0  0  0  0  0  0  0  0  0
    1.6359   -2.0184   -1.1014 H   0  0  0  0  0  0  0  0  0  0  0  0
   -1.3087    4.4533    3.2487 H   0  0  0  0  0  0  0  0  0  0  0  0
    0.3762    3.9169    2.9008 H   0  0  0  0  0  0  0  0  0  0  0  0
   -0.5356    4.8133    1.6421 H   0  0  0  0  0  0  0  0  0  0  0  0
   -1.6406   -1.9551   -0.4911 H   0  0  0  0  0  0  0  0  0  0  0  0
   -3.0321   -2.7698    0.3798 H   0  0  0  0  0  0  0  0  0  0  0  0
   -3.2434   -2.7613   -2.0856 H   0  0  0  0  0  0  0  0  0  0  0  0
   -3.4261   -0.9924   -2.0859 H   0  0  0  0  0  0  0  0  0  0  0  0
   -5.6146   -1.3564   -1.6458 H   0  0  0  0  0  0  0  0  0  0  0  0
   -5.3786   -3.0944   -1.3294 H   0  0  0  0  0  0  0  0  0  0  0  0
   -5.0554   -2.7581    0.9778 H   0  0  0  0  0  0  0  0  0  0  0  0
   -6.2952   -1.5549    0.5102 H   0  0  0  0  0  0  0  0  0  0  0  0
    5.0196   -1.1267   -0.6303 H   0  0  0  0  0  0  0  0  0  0  0  0
    5.1762    0.8317    1.5284 H   0  0  0  0  0  0  0  0  0  0  0  0
    4.6008   -0.8426    1.6470 H   0  0  0  0  0  0  0  0  0  0  0  0
    3.4344    0.4482    1.2413 H   0  0  0  0  0  0  0  0  0  0  0  0
    6.2104    1.6390   -0.2570 H   0  0  0  0  0  0  0  0  0  0  0  0
    6.9744    0.0364   -0.4834 H   0  0  0  0  0  0  0  0  0  0  0  0
    6.1055    0.7555   -1.8839 H   0  0  0  0  0  0  0  0  0  0  0  0
  1  2  2  0
  2  3  1  0
  3  4  1  0
  4  5  1  0
  5  6  1  0
  6  7  1  0
  7  8  1  0
  6  9  1  0
  9 10  2  0
 10 11  1  0
 11 12  1  0
 11 13  2  0
 13 14  1  0
 14 15  2  0
 15 16  1  0
 16 17  1  0
 17 18  1  0
 18 19  1  0
 19 20  1  0
 20 21  1  0
 21 22  1  0
  2 23  1  0
 23 24  1  0
 23 25  1  0
  8  3  1  0
 15  9  1  0
 21 16  2  0
 22 14  1  0
  4 26  1  0
  4 27  1  0
  5 28  1  0
  5 29  1  0
  7 30  1  0
  7 31  1  0
  8 32  1  0
  8 33  1  0
 12 34  1  0
 12 35  1  0
 12 36  1  0
 17 37  1  0
 17 38  1  0
 18 39  1  0
 18 40  1  0
 19 41  1  0
 19 42  1  0
 20 43  1  0
 20 44  1  0
 23 45  1  0
 24 46  1  0
 24 47  1  0
 24 48  1  0
 25 49  1  0
 25 50  1  0
 25 51  1  0
M  END
>  <Ligand ID>  (1) 
LIG0003914

>  <Ligand>  (1) 
MLS-0437226.0001

>  <SMILES>  (1) 
O=C(N1CCN(CC1)c1nc(C)nc2c1c1CCCCc1s2)C(C)C

>  <CID>  (1) 
17446092.0

>  <ChEMBL ID>  (1) 
nan

>  <InChiKey>  (1) 
CDFBPUHOZFSRSQ-UHFFFAOYSA-N

>  <InChi>  (1) 
InChI=1S/C19H26N4OS/c1-12(2)19(24)23-10-8-22(9-11-23)17-16-14-6-4-5-7-15(14)25-18(16)21-13(3)20-17/h12H,4-11H2,1-3H3

>  <IUPAC Name>  (1) 
2-methyl-1-[4-(2-methyl-5,6,7,8-tetrahydro-[1]benzothiolo[2,3-d]pyrimidin-4-yl)piperazin-1-yl]propan-1-one

$$$$
