
     RDKit          3D

 97100  0  0  0  0  0  0  0  0999 V2000
    3.7877   -1.1684    6.2287 O   0  0  0  0  0  0  0  0  0  0  0  0
    4.1947   -1.6548    4.9623 C   0  0  0  0  0  0  0  0  0  0  0  0
    4.1122   -0.5280    3.9645 C   0  0  0  0  0  0  0  0  0  0  0  0
    3.7221    0.5879    4.3779 O   0  0  0  0  0  0  0  0  0  0  0  0
    4.4657   -0.7371    2.6216 N   0  0  0  0  0  0  0  0  0  0  0  0
    4.4149    0.3102    1.6055 C   0  0  2  0  0  0  0  0  0  0  0  0
    3.3853    0.1098    0.6095 C   0  0  0  0  0  0  0  0  0  0  0  0
    2.6155   -0.9051    0.7373 O   0  0  0  0  0  0  0  0  0  0  0  0
    3.1166    0.9320   -0.5187 N   0  0  0  0  0  0  0  0  0  0  0  0
    2.0583    0.7133   -1.4537 C   0  0  2  0  0  0  0  0  0  0  0  0
    0.7181    0.7360   -0.7568 C   0  0  0  0  0  0  0  0  0  0  0  0
    0.6865    0.8696    0.4895 O   0  0  0  0  0  0  0  0  0  0  0  0
   -0.5004    0.6131   -1.4659 N   0  0  0  0  0  0  0  0  0  0  0  0
   -1.8116    0.6259   -0.8890 C   0  0  2  0  0  0  0  0  0  0  0  0
   -2.5439   -0.6488   -1.1666 C   0  0  0  0  0  0  0  0  0  0  0  0
   -2.0096   -1.6138   -1.7772 O   0  0  0  0  0  0  0  0  0  0  0  0
   -3.9109   -0.7815   -0.7216 N   0  0  0  0  0  0  0  0  0  0  0  0
   -4.5728   -2.0077   -1.0003 C   0  0  2  0  0  0  0  0  0  0  0  0
   -5.5961   -1.9367   -2.0842 C   0  0  0  0  0  0  0  0  0  0  0  0
   -5.8492   -0.9325   -2.7572 O   0  0  0  0  0  0  0  0  0  0  0  0
   -6.3208   -3.1486   -2.3338 N   0  0  0  0  0  0  0  0  0  0  0  0
   -5.2265   -2.5942    0.2123 C   0  0  0  0  0  0  0  0  0  0  0  0
   -6.2624   -1.7583    0.8429 C   0  0  0  0  0  0  0  0  0  0  0  0
   -6.8403   -0.5682    0.4902 C   0  0  0  0  0  0  0  0  0  0  0  0
   -7.7747   -0.1940    1.4091 N   0  0  0  0  0  0  0  0  0  0  0  0
   -7.7899   -1.1501    2.3485 C   0  0  0  0  0  0  0  0  0  0  0  0
   -6.8782   -2.1340    2.0468 C   0  0  0  0  0  0  0  0  0  0  0  0
   -6.7345   -3.2082    2.8815 C   0  0  0  0  0  0  0  0  0  0  0  0
   -7.5261   -3.2730    4.0254 C   0  0  0  0  0  0  0  0  0  0  0  0
   -8.4486   -2.2756    4.3288 C   0  0  0  0  0  0  0  0  0  0  0  0
   -8.5927   -1.2016    3.4952 C   0  0  0  0  0  0  0  0  0  0  0  0
   -2.5822    1.7577   -1.5231 C   0  0  0  0  0  0  0  0  0  0  0  0
   -1.9967    3.1097   -1.3187 C   0  0  0  0  0  0  0  0  0  0  0  0
   -1.9385    3.4604    0.1462 C   0  0  0  0  0  0  0  0  0  0  0  0
   -1.3767    4.7670    0.4043 N   0  0  0  0  0  0  0  0  0  0  0  0
   -2.0557    5.8271    0.6001 C   0  0  0  0  0  0  0  0  0  0  0  0
   -3.4691    5.9089    0.5981 N   0  0  0  0  0  0  0  0  0  0  0  0
   -1.3202    7.0341    0.8437 N   0  0  0  0  0  0  0  0  0  0  0  0
    2.1141   -0.5031   -2.3016 C   0  0  0  0  0  0  0  0  0  0  0  0
    3.2829   -0.5840   -3.1734 C   0  0  0  0  0  0  0  0  0  0  0  0
    3.2004    0.0554   -4.4157 C   0  0  0  0  0  0  0  0  0  0  0  0
    4.2300    0.0193   -5.3293 C   0  0  0  0  0  0  0  0  0  0  0  0
    5.3970   -0.6554   -5.0582 C   0  0  0  0  0  0  0  0  0  0  0  0
    5.4709   -1.2849   -3.8292 C   0  0  0  0  0  0  0  0  0  0  0  0
    4.4484   -1.2564   -2.9032 C   0  0  0  0  0  0  0  0  0  0  0  0
    5.7363    0.8063    1.2004 C   0  0  0  0  0  0  0  0  0  0  0  0
    6.7070   -0.1212    0.6377 C   0  0  0  0  0  0  0  0  0  0  0  0
    7.4846   -0.8526    1.5424 C   0  0  0  0  0  0  0  0  0  0  0  0
    8.4544   -1.7334    1.1532 C   0  0  0  0  0  0  0  0  0  0  0  0
    8.7092   -1.9395   -0.1777 C   0  0  0  0  0  0  0  0  0  0  0  0
    7.9547   -1.2292   -1.0860 C   0  0  0  0  0  0  0  0  0  0  0  0
    6.9628   -0.3285   -0.6967 C   0  0  0  0  0  0  0  0  0  0  0  0
    9.9388   -3.0555   -0.7105 Cl  0  0  0  0  0  0  0  0  0  0  0  0
    4.4477   -0.4936    6.5537 H   0  0  0  0  0  0  0  0  0  0  0  0
    3.5469   -2.4964    4.6979 H   0  0  0  0  0  0  0  0  0  0  0  0
    5.2253   -2.0113    5.0842 H   0  0  0  0  0  0  0  0  0  0  0  0
    4.7832   -1.7059    2.3455 H   0  0  0  0  0  0  0  0  0  0  0  0
    3.9896    1.1929    2.2523 H   0  0  0  0  0  0  0  0  0  0  0  0
    3.7880    1.7583   -0.6244 H   0  0  0  0  0  0  0  0  0  0  0  0
    2.0902    1.5886   -2.1820 H   0  0  0  0  0  0  0  0  0  0  0  0
   -0.4409    0.5082   -2.5035 H   0  0  0  0  0  0  0  0  0  0  0  0
   -1.7908    0.7614    0.2160 H   0  0  0  0  0  0  0  0  0  0  0  0
   -4.2919    0.0444   -0.2253 H   0  0  0  0  0  0  0  0  0  0  0  0
   -3.8595   -2.7954   -1.3778 H   0  0  0  0  0  0  0  0  0  0  0  0
   -7.2620   -3.3078   -1.9088 H   0  0  0  0  0  0  0  0  0  0  0  0
   -5.9352   -3.9026   -2.9425 H   0  0  0  0  0  0  0  0  0  0  0  0
   -4.4020   -2.7933    0.9616 H   0  0  0  0  0  0  0  0  0  0  0  0
   -5.6235   -3.6125   -0.0331 H   0  0  0  0  0  0  0  0  0  0  0  0
   -6.6326    0.0200   -0.3660 H   0  0  0  0  0  0  0  0  0  0  0  0
   -8.3653    0.6857    1.3718 H   0  0  0  0  0  0  0  0  0  0  0  0
   -6.0102   -3.9782    2.6337 H   0  0  0  0  0  0  0  0  0  0  0  0
   -7.4207   -4.1103    4.6868 H   0  0  0  0  0  0  0  0  0  0  0  0
   -9.0697   -2.3352    5.2312 H   0  0  0  0  0  0  0  0  0  0  0  0
   -9.3087   -0.4237    3.7262 H   0  0  0  0  0  0  0  0  0  0  0  0
   -2.5657    1.5458   -2.6308 H   0  0  0  0  0  0  0  0  0  0  0  0
   -3.6170    1.7666   -1.1342 H   0  0  0  0  0  0  0  0  0  0  0  0
   -0.9916    3.2341   -1.7702 H   0  0  0  0  0  0  0  0  0  0  0  0
   -2.6383    3.8544   -1.8445 H   0  0  0  0  0  0  0  0  0  0  0  0
   -1.3586    2.6760    0.6694 H   0  0  0  0  0  0  0  0  0  0  0  0
   -2.9964    3.4765    0.4929 H   0  0  0  0  0  0  0  0  0  0  0  0
   -4.0887    5.1288    0.9330 H   0  0  0  0  0  0  0  0  0  0  0  0
   -3.9535    6.7825    0.2496 H   0  0  0  0  0  0  0  0  0  0  0  0
   -1.4892    7.5708    1.7233 H   0  0  0  0  0  0  0  0  0  0  0  0
   -0.6279    7.3321    0.1085 H   0  0  0  0  0  0  0  0  0  0  0  0
    1.9450   -1.4476   -1.7213 H   0  0  0  0  0  0  0  0  0  0  0  0
    1.2161   -0.4606   -2.9848 H   0  0  0  0  0  0  0  0  0  0  0  0
    2.3140    0.6063   -4.7001 H   0  0  0  0  0  0  0  0  0  0  0  0
    4.1474    0.5278   -6.2987 H   0  0  0  0  0  0  0  0  0  0  0  0
    6.2304   -0.7132   -5.7378 H   0  0  0  0  0  0  0  0  0  0  0  0
    6.3983   -1.8192   -3.6290 H   0  0  0  0  0  0  0  0  0  0  0  0
    4.5243   -1.7553   -1.9463 H   0  0  0  0  0  0  0  0  0  0  0  0
    6.2011    1.3673    2.0446 H   0  0  0  0  0  0  0  0  0  0  0  0
    5.5562    1.6184    0.4267 H   0  0  0  0  0  0  0  0  0  0  0  0
    7.3238   -0.7296    2.6045 H   0  0  0  0  0  0  0  0  0  0  0  0
    9.0191   -2.2655    1.9061 H   0  0  0  0  0  0  0  0  0  0  0  0
    8.1753   -1.4018   -2.1292 H   0  0  0  0  0  0  0  0  0  0  0  0
    6.3775    0.2321   -1.4039 H   0  0  0  0  0  0  0  0  0  0  0  0
  1  2  1  0
  2  3  1  0
  3  4  2  0
  3  5  1  0
  5  6  1  0
  6  7  1  0
  7  8  2  0
  7  9  1  0
  9 10  1  0
 10 11  1  0
 11 12  2  0
 11 13  1  0
 13 14  1  0
 14 15  1  0
 15 16  2  0
 15 17  1  0
 17 18  1  0
 18 19  1  0
 19 20  2  0
 19 21  1  0
 18 22  1  0
 22 23  1  0
 23 24  2  0
 24 25  1  0
 25 26  1  0
 26 27  2  0
 27 28  1  0
 28 29  2  0
 29 30  1  0
 30 31  2  0
 14 32  1  0
 32 33  1  0
 33 34  1  0
 34 35  1  0
 35 36  2  3
 36 37  1  0
 36 38  1  0
 10 39  1  0
 39 40  1  0
 40 41  2  0
 41 42  1  0
 42 43  2  0
 43 44  1  0
 44 45  2  0
  6 46  1  0
 46 47  1  0
 47 48  2  0
 48 49  1  0
 49 50  2  0
 50 51  1  0
 51 52  2  0
 50 53  1  0
 27 23  1  0
 45 40  1  0
 52 47  1  0
 31 26  1  0
  1 54  1  0
  2 55  1  0
  2 56  1  0
  5 57  1  0
  6 58  1  1
  9 59  1  0
 10 60  1  6
 13 61  1  0
 14 62  1  1
 17 63  1  0
 18 64  1  6
 21 65  1  0
 21 66  1  0
 22 67  1  0
 22 68  1  0
 24 69  1  0
 25 70  1  0
 28 71  1  0
 29 72  1  0
 30 73  1  0
 31 74  1  0
 32 75  1  0
 32 76  1  0
 33 77  1  0
 33 78  1  0
 34 79  1  0
 34 80  1  0
 37 81  1  0
 37 82  1  0
 38 83  1  0
 38 84  1  0
 39 85  1  0
 39 86  1  0
 41 87  1  0
 42 88  1  0
 43 89  1  0
 44 90  1  0
 45 91  1  0
 46 92  1  0
 46 93  1  0
 48 94  1  0
 49 95  1  0
 51 96  1  0
 52 97  1  0
M  END
>  <Ligand ID>  (1) 
LIG0002632

>  <Ligand>  (1) 
CHEMBL366040

>  <SMILES>  (1) 
OCC(=O)N[C@H](C(=O)N[C@H](C(=O)N[C@H](C(=O)N[C@H](C(=O)N)Cc1c[nH]c2c1cccc2)CCCN=C(N)N)Cc1ccccc1)Cc1ccc(cc1)Cl

>  <CID>  (1) 
44394657.0

>  <ChEMBL ID>  (1) 
nan

>  <InChiKey>  (1) 
BNEIQIMPYTWDKZ-ORYMTKCHSA-N

>  <InChi>  (1) 
InChI=1S/C37H44ClN9O6/c38-25-14-12-23(13-15-25)18-30(44-32(49)21-48)35(52)47-31(17-22-7-2-1-3-8-22)36(53)45-28(11-6-16-42-37(40)41)34(51)46-29(33(39)50)19-24-20-43-27-10-5-4-9-26(24)27/h1-5,7-10,12-15,20,28-31,43,48H,6,11,16-19,21H2,(H2,39,50)(H,44,49)(H,45,53)(H,46,51)(H,47,52)(H4,40,41,42)/t28-,29-,30-,31-/m0/s1

>  <IUPAC Name>  (1) 
(2S)-N-[(2S)-1-amino-3-(1H-indol-3-yl)-1-oxopropan-2-yl]-2-[[(2S)-2-[[(2S)-3-(4-chlorophenyl)-2-[(2-hydroxyacetyl)amino]propanoyl]amino]-3-phenylpropanoyl]amino]-5-(diaminomethylideneamino)pentanamide

$$$$
