
     RDKit          3D

 84 85  0  0  0  0  0  0  0  0999 V2000
   -0.9887   -0.1549   -0.0164 C   0  0  0  0  0  0  0  0  0  0  0  0
    0.4252    0.3261   -0.0042 C   0  0  0  0  0  0  0  0  0  0  0  0
    0.6763    1.5018    0.4180 O   0  0  0  0  0  0  0  0  0  0  0  0
    1.4826   -0.4766   -0.4427 O   0  0  0  0  0  0  0  0  0  0  0  0
   11.4421    2.0044    0.2994 O   0  0  0  0  0  0  0  0  0  0  0  0
   10.2759    2.1500    1.0663 C   0  0  0  0  0  0  0  0  0  0  0  0
    9.3009    1.1388    0.5469 C   0  0  0  0  0  0  0  0  0  0  0  0
    8.2509    1.5314   -0.2600 C   0  0  0  0  0  0  0  0  0  0  0  0
    7.3194    0.6436   -0.7691 C   0  0  0  0  0  0  0  0  0  0  0  0
    7.4606   -0.6857   -0.4474 C   0  0  0  0  0  0  0  0  0  0  0  0
    8.5118   -1.1098    0.3659 C   0  0  0  0  0  0  0  0  0  0  0  0
    9.4416   -0.1949    0.8693 C   0  0  0  0  0  0  0  0  0  0  0  0
   10.4830   -0.6473    1.6798 O   0  0  0  0  0  0  0  0  0  0  0  0
    6.2461    1.1820   -1.6371 C   0  0  2  0  0  0  0  0  0  0  0  0
    5.0460    1.5751   -0.8226 C   0  0  0  0  0  0  0  0  0  0  0  0
    4.4652    0.4497   -0.2265 N   0  0  0  0  0  0  0  0  0  0  0  0
    3.2889    0.6507    0.5562 C   0  0  0  0  0  0  0  0  0  0  0  0
    2.0668    1.0538   -0.1500 C   0  0  0  0  0  0  0  0  0  0  0  0
    1.5677    0.0975   -1.1963 C   0  0  0  0  0  0  0  0  0  0  0  0
    1.2351   -1.2529   -0.6905 C   0  0  0  0  0  0  0  0  0  0  0  0
    0.1894   -1.3418    0.3560 C   0  0  0  0  0  0  0  0  0  0  0  0
   -1.1652   -0.8103   -0.0492 C   0  0  0  0  0  0  0  0  0  0  0  0
   -1.7359   -1.4399   -1.1197 O   0  0  0  0  0  0  0  0  0  0  0  0
   -2.9805   -0.9389   -1.4721 C   0  0  0  0  0  0  0  0  0  0  0  0
   -4.0161   -1.0368   -0.3908 C   0  0  0  0  0  0  0  0  0  0  0  0
   -4.1918   -2.4818   -0.0271 C   0  0  0  0  0  0  0  0  0  0  0  0
   -5.2144   -2.6828    1.0653 C   0  0  0  0  0  0  0  0  0  0  0  0
   -6.5103   -2.1589    0.5947 C   0  0  0  0  0  0  0  0  0  0  0  0
   -7.4461   -2.9087   -0.0816 C   0  0  0  0  0  0  0  0  0  0  0  0
   -8.6566   -2.3871   -0.5082 C   0  0  0  0  0  0  0  0  0  0  0  0
   -8.9729   -1.0526   -0.2595 C   0  0  0  0  0  0  0  0  0  0  0  0
   -8.0366   -0.2860    0.4222 C   0  0  0  0  0  0  0  0  0  0  0  0
   -6.8296   -0.8359    0.8383 C   0  0  0  0  0  0  0  0  0  0  0  0
   -8.3812    1.0711    0.6654 N   0  0  0  0  0  0  0  0  0  0  0  0
   -8.1421    2.2468   -0.1471 C   0  0  0  0  0  0  0  0  0  0  0  0
   -9.3732    3.0478    0.1753 C   0  0  0  0  0  0  0  0  0  0  0  0
   -9.9886    3.8197   -0.6190 O   0  0  0  0  0  0  0  0  0  0  0  0
   -9.6965    2.7617    1.5373 N   0  0  0  0  0  0  0  0  0  0  0  0
   -9.0683    1.5181    1.8336 C   0  0  0  0  0  0  0  0  0  0  0  0
   -9.1150    0.9119    2.9537 O   0  0  0  0  0  0  0  0  0  0  0  0
    5.9701    0.2898   -2.6703 O   0  0  0  0  0  0  0  0  0  0  0  0
   -1.3417   -0.1637    1.0323 H   0  0  0  0  0  0  0  0  0  0  0  0
   -0.9945   -1.1991   -0.3891 H   0  0  0  0  0  0  0  0  0  0  0  0
   -1.6166    0.5066   -0.6755 H   0  0  0  0  0  0  0  0  0  0  0  0
    2.3574   -0.3403    0.0775 H   0  0  0  0  0  0  0  0  0  0  0  0
   12.0463    2.7430    0.5226 H   0  0  0  0  0  0  0  0  0  0  0  0
   10.4765    2.0231    2.1415 H   0  0  0  0  0  0  0  0  0  0  0  0
    9.8836    3.1659    0.8979 H   0  0  0  0  0  0  0  0  0  0  0  0
    8.1658    2.5847   -0.4953 H   0  0  0  0  0  0  0  0  0  0  0  0
    6.7747   -1.4174   -0.8195 H   0  0  0  0  0  0  0  0  0  0  0  0
    8.6374   -2.1575    0.6304 H   0  0  0  0  0  0  0  0  0  0  0  0
   11.3303   -0.0999    1.7800 H   0  0  0  0  0  0  0  0  0  0  0  0
    6.6536    2.1110   -2.1647 H   0  0  0  0  0  0  0  0  0  0  0  0
    5.3817    2.3761   -0.1416 H   0  0  0  0  0  0  0  0  0  0  0  0
    4.3096    2.0017   -1.5659 H   0  0  0  0  0  0  0  0  0  0  0  0
    5.2109   -0.0663    0.3019 H   0  0  0  0  0  0  0  0  0  0  0  0
    3.5173    1.4414    1.3045 H   0  0  0  0  0  0  0  0  0  0  0  0
    3.1293   -0.2647    1.1701 H   0  0  0  0  0  0  0  0  0  0  0  0
    1.2472    1.0821    0.6242 H   0  0  0  0  0  0  0  0  0  0  0  0
    2.1132    2.0995   -0.5126 H   0  0  0  0  0  0  0  0  0  0  0  0
    2.3657   -0.0007   -1.9574 H   0  0  0  0  0  0  0  0  0  0  0  0
    0.6984    0.5223   -1.7379 H   0  0  0  0  0  0  0  0  0  0  0  0
    2.1200   -1.8290   -0.3581 H   0  0  0  0  0  0  0  0  0  0  0  0
    0.8519   -1.8395   -1.5780 H   0  0  0  0  0  0  0  0  0  0  0  0
    0.4416   -0.8932    1.3205 H   0  0  0  0  0  0  0  0  0  0  0  0
    0.0332   -2.4296    0.5659 H   0  0  0  0  0  0  0  0  0  0  0  0
   -1.0827    0.2798   -0.3315 H   0  0  0  0  0  0  0  0  0  0  0  0
   -1.8717   -0.8211    0.8041 H   0  0  0  0  0  0  0  0  0  0  0  0
   -2.8119    0.1272   -1.7863 H   0  0  0  0  0  0  0  0  0  0  0  0
   -3.3563   -1.5197   -2.3383 H   0  0  0  0  0  0  0  0  0  0  0  0
   -3.8310   -0.4422    0.5024 H   0  0  0  0  0  0  0  0  0  0  0  0
   -4.9615   -0.6447   -0.8322 H   0  0  0  0  0  0  0  0  0  0  0  0
   -4.4917   -3.0388   -0.9342 H   0  0  0  0  0  0  0  0  0  0  0  0
   -3.2342   -2.9160    0.3248 H   0  0  0  0  0  0  0  0  0  0  0  0
   -4.9338   -2.1100    1.9860 H   0  0  0  0  0  0  0  0  0  0  0  0
   -5.2870   -3.7339    1.3629 H   0  0  0  0  0  0  0  0  0  0  0  0
   -7.2247   -3.9536   -0.2878 H   0  0  0  0  0  0  0  0  0  0  0  0
   -9.3599   -3.0095   -1.0334 H   0  0  0  0  0  0  0  0  0  0  0  0
   -9.9029   -0.6167   -0.5762 H   0  0  0  0  0  0  0  0  0  0  0  0
   -6.1088   -0.2192    1.3694 H   0  0  0  0  0  0  0  0  0  0  0  0
   -7.2317    2.7968    0.1590 H   0  0  0  0  0  0  0  0  0  0  0  0
   -8.1525    2.0062   -1.2320 H   0  0  0  0  0  0  0  0  0  0  0  0
  -10.2844    3.3718    2.1638 H   0  0  0  0  0  0  0  0  0  0  0  0
    5.6980   -0.6012   -2.3614 H   0  0  0  0  0  0  0  0  0  0  0  0
  1  2  1  0
  2  3  2  0
  2  4  1  0
  5  6  1  0
  6  7  1  0
  7  8  2  0
  8  9  1  0
  9 10  2  0
 10 11  1  0
 11 12  2  0
 12 13  1  0
  9 14  1  0
 14 15  1  0
 15 16  1  0
 16 17  1  0
 17 18  1  0
 18 19  1  0
 19 20  1  0
 20 21  1  0
 21 22  1  0
 22 23  1  0
 23 24  1  0
 24 25  1  0
 25 26  1  0
 26 27  1  0
 27 28  1  0
 28 29  2  0
 29 30  1  0
 30 31  2  0
 31 32  1  0
 32 33  2  0
 32 34  1  0
 34 35  1  0
 35 36  1  0
 36 37  2  0
 36 38  1  0
 38 39  1  0
 39 40  2  0
 14 41  1  0
 12  7  1  0
 33 28  1  0
 39 34  1  0
  1 42  1  0
  1 43  1  0
  1 44  1  0
  4 45  1  0
  5 46  1  0
  6 47  1  0
  6 48  1  0
  8 49  1  0
 10 50  1  0
 11 51  1  0
 13 52  1  0
 14 53  1  6
 15 54  1  0
 15 55  1  0
 16 56  1  0
 17 57  1  0
 17 58  1  0
 18 59  1  0
 18 60  1  0
 19 61  1  0
 19 62  1  0
 20 63  1  0
 20 64  1  0
 21 65  1  0
 21 66  1  0
 22 67  1  0
 22 68  1  0
 24 69  1  0
 24 70  1  0
 25 71  1  0
 25 72  1  0
 26 73  1  0
 26 74  1  0
 27 75  1  0
 27 76  1  0
 29 77  1  0
 30 78  1  0
 31 79  1  0
 33 80  1  0
 35 81  1  0
 35 82  1  0
 38 83  1  0
 41 84  1  0
M  END
>  <Ligand ID>  (1) 
LIG0001467

>  <Ligand>  (1) 
CID 56658243

>  <SMILES>  (1) 
CC(=O)O.OCc1cc(ccc1O)[C@H](CNCCCCCCOCCCCc1cccc(c1)N1CC(=O)NC1=O)O

>  <CID>  (1) 
56658243.0

>  <ChEMBL ID>  (1) 
nan

>  <InChiKey>  (1) 
MANYGYLFJSXIDV-SNYZSRNZSA-N

>  <InChi>  (1) 
InChI=1S/C28H39N3O6.C2H4O2/c32-20-23-17-22(11-12-25(23)33)26(34)18-29-13-4-1-2-5-14-37-15-6-3-8-21-9-7-10-24(16-21)31-19-27(35)30-28(31)36;1-2(3)4/h7,9-12,16-17,26,29,32-34H,1-6,8,13-15,18-20H2,(H,30,35,36);1H3,(H,3,4)/t26-;/m0./s1

>  <IUPAC Name>  (1) 
acetic acid;1-[3-[4-[6-[[(2R)-2-hydroxy-2-[4-hydroxy-3-(hydroxymethyl)phenyl]ethyl]amino]hexoxy]butyl]phenyl]imidazolidine-2,4-dione

$$$$
