
     RDKit          3D

 49 52  0  0  0  0  0  0  0  0999 V2000
    5.6740   -2.9503   -0.8541 N   0  0  0  0  0  0  0  0  0  0  0  0
    6.2421   -2.0197   -0.4316 C   0  0  0  0  0  0  0  0  0  0  0  0
    6.9430   -0.8820    0.1026 C   0  0  0  0  0  0  0  0  0  0  0  0
    8.3134   -0.7908   -0.0591 C   0  0  0  0  0  0  0  0  0  0  0  0
    8.9499    0.2604    0.4362 N   0  0  0  0  0  0  0  0  0  0  0  0
    8.3042    1.2357    1.0879 C   0  0  0  0  0  0  0  0  0  0  0  0
    6.9323    1.2046    1.2837 C   0  0  0  0  0  0  0  0  0  0  0  0
    6.2559    0.1083    0.7692 C   0  0  0  0  0  0  0  0  0  0  0  0
    4.7858   -0.0529    0.9067 C   0  0  0  0  0  0  0  0  0  0  0  0
    4.1118    0.2402   -0.3011 O   0  0  0  0  0  0  0  0  0  0  0  0
    2.7187    0.1112   -0.2609 C   0  0  0  0  0  0  0  0  0  0  0  0
    2.0448   -0.2755    0.8763 C   0  0  0  0  0  0  0  0  0  0  0  0
    0.6863   -0.3685    0.8029 N   0  0  0  0  0  0  0  0  0  0  0  0
    0.0439   -0.0894   -0.3449 C   0  0  0  0  0  0  0  0  0  0  0  0
    0.7268    0.2891   -1.4508 N   0  0  0  0  0  0  0  0  0  0  0  0
    2.0546    0.4024   -1.4568 C   0  0  0  0  0  0  0  0  0  0  0  0
   -1.3840   -0.2076   -0.3579 N   0  0  0  0  0  0  0  0  0  0  0  0
   -2.0196   -0.6571    0.8650 C   0  0  0  0  0  0  0  0  0  0  0  0
   -3.3216    0.1004    1.0075 C   0  0  0  0  0  0  0  0  0  0  0  0
   -4.1030   -0.1393   -0.1889 N   0  0  0  0  0  0  0  0  0  0  0  0
   -3.5169   -0.3058   -1.5039 C   0  0  0  0  0  0  0  0  0  0  0  0
   -2.0870    0.1210   -1.5586 C   0  0  1  0  0  0  0  0  0  0  0  0
   -2.0449    1.6089   -1.8648 C   0  0  0  0  0  0  0  0  0  0  0  0
   -5.5355   -0.2195   -0.0797 C   0  0  0  0  0  0  0  0  0  0  0  0
   -6.4230   -0.3946   -1.0875 N   0  0  0  0  0  0  0  0  0  0  0  0
   -7.6015   -0.4125   -0.5776 O   0  0  0  0  0  0  0  0  0  0  0  0
   -7.5440   -0.2576    0.7257 C   0  0  0  0  0  0  0  0  0  0  0  0
   -6.2479   -0.1345    1.0550 N   0  0  0  0  0  0  0  0  0  0  0  0
   -8.6494   -0.2162    1.7066 C   0  0  0  0  0  0  0  0  0  0  0  0
   -8.6878    0.9387    2.4524 F   0  0  0  0  0  0  0  0  0  0  0  0
   -8.5899   -1.3180    2.5677 F   0  0  0  0  0  0  0  0  0  0  0  0
    8.8980   -1.5401   -0.5734 H   0  0  0  0  0  0  0  0  0  0  0  0
    8.8608    2.0760    1.4761 H   0  0  0  0  0  0  0  0  0  0  0  0
    6.3925    1.9859    1.8089 H   0  0  0  0  0  0  0  0  0  0  0  0
    4.5934   -1.1027    1.2260 H   0  0  0  0  0  0  0  0  0  0  0  0
    4.4656    0.5955    1.7470 H   0  0  0  0  0  0  0  0  0  0  0  0
    2.5882   -0.4942    1.7882 H   0  0  0  0  0  0  0  0  0  0  0  0
    2.6099    0.7087   -2.3510 H   0  0  0  0  0  0  0  0  0  0  0  0
   -2.2426   -1.7436    0.7248 H   0  0  0  0  0  0  0  0  0  0  0  0
   -1.3532   -0.4895    1.7375 H   0  0  0  0  0  0  0  0  0  0  0  0
   -3.0465    1.1904    1.0097 H   0  0  0  0  0  0  0  0  0  0  0  0
   -3.8631   -0.1895    1.9253 H   0  0  0  0  0  0  0  0  0  0  0  0
   -3.5426   -1.4093   -1.7298 H   0  0  0  0  0  0  0  0  0  0  0  0
   -4.1519    0.2101   -2.2550 H   0  0  0  0  0  0  0  0  0  0  0  0
   -1.5667   -0.4151   -2.3879 H   0  0  0  0  0  0  0  0  0  0  0  0
   -1.7992    2.1485   -0.9156 H   0  0  0  0  0  0  0  0  0  0  0  0
   -3.0032    1.9587   -2.2640 H   0  0  0  0  0  0  0  0  0  0  0  0
   -1.2450    1.8746   -2.5823 H   0  0  0  0  0  0  0  0  0  0  0  0
   -9.6260   -0.2931    1.1502 H   0  0  0  0  0  0  0  0  0  0  0  0
  1  2  3  0
  2  3  1  0
  3  4  2  0
  4  5  1  0
  5  6  2  0
  6  7  1  0
  7  8  2  0
  8  9  1  0
  9 10  1  0
 10 11  1  0
 11 12  2  0
 12 13  1  0
 13 14  2  0
 14 15  1  0
 15 16  2  0
 14 17  1  0
 17 18  1  0
 18 19  1  0
 19 20  1  0
 20 21  1  0
 21 22  1  0
 22 23  1  0
 20 24  1  0
 24 25  2  0
 25 26  1  0
 26 27  1  0
 27 28  2  0
 27 29  1  0
 29 30  1  0
 29 31  1  0
  8  3  1  0
 16 11  1  0
 22 17  1  0
 28 24  1  0
  4 32  1  0
  6 33  1  0
  7 34  1  0
  9 35  1  0
  9 36  1  0
 12 37  1  0
 16 38  1  0
 18 39  1  0
 18 40  1  0
 19 41  1  0
 19 42  1  0
 21 43  1  0
 21 44  1  0
 22 45  1  6
 23 46  1  0
 23 47  1  0
 23 48  1  0
 29 49  1  0
M  END
>  <Ligand ID>  (1) 
LIG0005315

>  <Ligand>  (1) 
CHEMBL2086694

>  <SMILES>  (1) 
N#Cc1cnccc1COc1cnc(nc1)N1CCN(C[C@H]1C)c1noc(n1)C(F)F

>  <CID>  (1) 
51030896.0

>  <ChEMBL ID>  (1) 
nan

>  <InChiKey>  (1) 
XBLVKULFUQTLPO-GFCCVEGCSA-N

>  <InChi>  (1) 
InChI=1S/C19H18F2N8O2/c1-12-10-28(19-26-17(16(20)21)31-27-19)4-5-29(12)18-24-8-15(9-25-18)30-11-13-2-3-23-7-14(13)6-22/h2-3,7-9,12,16H,4-5,10-11H2,1H3/t12-/m1/s1

>  <IUPAC Name>  (1) 
4-[[2-[(2R)-4-[5-(difluoromethyl)-1,2,4-oxadiazol-3-yl]-2-methylpiperazin-1-yl]pyrimidin-5-yl]oxymethyl]pyridine-3-carbonitrile

$$$$
