
     RDKit          3D

 59 60  0  0  0  0  0  0  0  0999 V2000
   -1.0554   -0.3783   -0.1363 C   0  0  0  0  0  0  0  0  0  0  0  0
    0.4736    0.5071   -0.1374 S   0  0  0  0  0  0  0  0  0  0  0  0
    0.4006    1.5368    0.9678 O   0  0  0  0  0  0  0  0  0  0  0  0
    0.6423    1.1615   -1.4811 O   0  0  0  0  0  0  0  0  0  0  0  0
    1.7366   -0.5391    0.1434 O   0  0  0  0  0  0  0  0  0  0  0  0
    1.5256    0.2585   -0.9932 O   0  0  0  0  0  0  0  0  0  0  0  0
    1.4407   -0.5269   -0.0169 C   0  0  0  0  0  0  0  0  0  0  0  0
    0.2736   -1.2629    0.3136 N   0  0  0  0  0  0  0  0  0  0  0  0
   -0.9640   -1.1913   -0.4338 C   0  0  2  0  0  0  0  0  0  0  0  0
   -0.6650   -1.6810   -1.8344 C   0  0  0  0  0  0  0  0  0  0  0  0
   -1.9074   -1.7554   -2.6877 C   0  0  0  0  0  0  0  0  0  0  0  0
   -3.0637   -1.1659   -1.9183 C   0  0  0  0  0  0  0  0  0  0  0  0
   -2.6585    0.2125   -1.4568 C   0  0  0  0  0  0  0  0  0  0  0  0
   -1.4985    0.2173   -0.4956 C   0  0  1  0  0  0  0  0  0  0  0  0
   -1.8027    0.7595    0.7836 N   0  0  0  0  0  0  0  0  0  0  0  0
   -2.3043    2.0963    0.7633 C   0  0  0  0  0  0  0  0  0  0  0  0
   -3.6007    2.0296    1.5357 C   0  0  0  0  0  0  0  0  0  0  0  0
   -3.3052    0.9710    2.5615 C   0  0  0  0  0  0  0  0  0  0  0  0
   -2.5296   -0.0345    1.6988 C   0  0  0  0  0  0  0  0  0  0  0  0
    0.3324   -2.1505    1.4860 C   0  0  0  0  0  0  0  0  0  0  0  0
    2.6760   -0.6608    0.8211 C   0  0  0  0  0  0  0  0  0  0  0  0
    3.7699    0.1946    0.2958 C   0  0  0  0  0  0  0  0  0  0  0  0
    3.9116    1.5064    0.7447 C   0  0  0  0  0  0  0  0  0  0  0  0
    4.9255    2.3205    0.2672 C   0  0  0  0  0  0  0  0  0  0  0  0
    5.8154    1.8141   -0.6774 C   0  0  0  0  0  0  0  0  0  0  0  0
    5.6801    0.5201   -1.1240 C   0  0  0  0  0  0  0  0  0  0  0  0
    4.6670   -0.2902   -0.6455 C   0  0  0  0  0  0  0  0  0  0  0  0
    6.7976   -0.1161   -2.3102 Cl  0  0  0  0  0  0  0  0  0  0  0  0
    7.0936    2.8759   -1.2639 Cl  0  0  0  0  0  0  0  0  0  0  0  0
   -1.3453   -0.5439    0.9195 H   0  0  0  0  0  0  0  0  0  0  0  0
   -1.8219    0.2571   -0.6443 H   0  0  0  0  0  0  0  0  0  0  0  0
   -0.9649   -1.3048   -0.7238 H   0  0  0  0  0  0  0  0  0  0  0  0
    1.9343   -0.6962    1.0923 H   0  0  0  0  0  0  0  0  0  0  0  0
   -1.7207   -1.8779    0.0322 H   0  0  0  0  0  0  0  0  0  0  0  0
    0.1278   -1.0859   -2.2965 H   0  0  0  0  0  0  0  0  0  0  0  0
   -0.2853   -2.7278   -1.7252 H   0  0  0  0  0  0  0  0  0  0  0  0
   -2.1257   -2.7932   -3.0390 H   0  0  0  0  0  0  0  0  0  0  0  0
   -1.7292   -1.1282   -3.5869 H   0  0  0  0  0  0  0  0  0  0  0  0
   -3.3874   -1.8499   -1.1398 H   0  0  0  0  0  0  0  0  0  0  0  0
   -3.9560   -1.0024   -2.5769 H   0  0  0  0  0  0  0  0  0  0  0  0
   -2.4139    0.7595   -2.3924 H   0  0  0  0  0  0  0  0  0  0  0  0
   -3.5649    0.7328   -1.0668 H   0  0  0  0  0  0  0  0  0  0  0  0
   -0.7032    0.8461   -0.9404 H   0  0  0  0  0  0  0  0  0  0  0  0
   -2.4001    2.5454   -0.2271 H   0  0  0  0  0  0  0  0  0  0  0  0
   -1.6182    2.7250    1.3997 H   0  0  0  0  0  0  0  0  0  0  0  0
   -4.4639    1.6946    0.9377 H   0  0  0  0  0  0  0  0  0  0  0  0
   -3.8046    3.0170    2.0290 H   0  0  0  0  0  0  0  0  0  0  0  0
   -2.6496    1.4220    3.3245 H   0  0  0  0  0  0  0  0  0  0  0  0
   -4.2092    0.5136    3.0003 H   0  0  0  0  0  0  0  0  0  0  0  0
   -1.9375   -0.6193    2.4281 H   0  0  0  0  0  0  0  0  0  0  0  0
   -3.2899   -0.7141    1.2852 H   0  0  0  0  0  0  0  0  0  0  0  0
    0.3528   -1.5504    2.4141 H   0  0  0  0  0  0  0  0  0  0  0  0
    1.3129   -2.7069    1.4725 H   0  0  0  0  0  0  0  0  0  0  0  0
   -0.4667   -2.9064    1.4840 H   0  0  0  0  0  0  0  0  0  0  0  0
    2.4405   -0.4377    1.8835 H   0  0  0  0  0  0  0  0  0  0  0  0
    3.0145   -1.7376    0.8276 H   0  0  0  0  0  0  0  0  0  0  0  0
    3.2354    1.9076    1.4696 H   0  0  0  0  0  0  0  0  0  0  0  0
    5.0340    3.3424    0.6186 H   0  0  0  0  0  0  0  0  0  0  0  0
    4.5991   -1.3093   -1.0288 H   0  0  0  0  0  0  0  0  0  0  0  0
  1  2  1  0
  2  3  2  0
  2  4  2  0
  2  5  1  0
  6  7  2  0
  7  8  1  0
  8  9  1  0
  9 10  1  0
 10 11  1  0
 11 12  1  0
 12 13  1  0
 13 14  1  0
 14 15  1  0
 15 16  1  0
 16 17  1  0
 17 18  1  0
 18 19  1  0
  8 20  1  0
  7 21  1  0
 21 22  1  0
 22 23  2  0
 23 24  1  0
 24 25  2  0
 25 26  1  0
 26 27  2  0
 26 28  1  0
 25 29  1  0
 14  9  1  0
 19 15  1  0
 27 22  1  0
  1 30  1  0
  1 31  1  0
  1 32  1  0
  5 33  1  0
  9 34  1  1
 10 35  1  0
 10 36  1  0
 11 37  1  0
 11 38  1  0
 12 39  1  0
 12 40  1  0
 13 41  1  0
 13 42  1  0
 14 43  1  6
 16 44  1  0
 16 45  1  0
 17 46  1  0
 17 47  1  0
 18 48  1  0
 18 49  1  0
 19 50  1  0
 19 51  1  0
 20 52  1  0
 20 53  1  0
 20 54  1  0
 21 55  1  0
 21 56  1  0
 23 57  1  0
 24 58  1  0
 27 59  1  0
M  END
>  <Ligand ID>  (1) 
LIG0004503

>  <Ligand>  (1) 
MLS000069740

>  <SMILES>  (1) 
CS(=O)(=O)O.O=C(N([C@@H]1CCCC[C@H]1N1CCCC1)C)Cc1ccc(c(c1)Cl)Cl

>  <CID>  (1) 
135349.0

>  <ChEMBL ID>  (1) 
nan

>  <InChiKey>  (1) 
OJPHNZCUXUUVKU-JAXOOIEVSA-N

>  <InChi>  (1) 
InChI=1S/C19H26Cl2N2O.CH4O3S/c1-22(19(24)13-14-8-9-15(20)16(21)12-14)17-6-2-3-7-18(17)23-10-4-5-11-23;1-5(2,3)4/h8-9,12,17-18H,2-7,10-11,13H2,1H3;1H3,(H,2,3,4)/t17-,18-;/m1./s1

>  <IUPAC Name>  (1) 
2-(3,4-dichlorophenyl)-N-methyl-N-[(1R,2R)-2-pyrrolidin-1-ylcyclohexyl]acetamide;methanesulfonic acid

$$$$
