
     RDKit          3D

 81 85  0  0  0  0  0  0  0  0999 V2000
   -3.9674    3.2374    1.4144 C   0  0  0  0  0  0  0  0  0  0  0  0
   -4.5432    2.8147    0.1163 C   0  0  0  0  0  0  0  0  0  0  0  0
   -4.8914    1.4038   -0.1125 C   0  0  0  0  0  0  0  0  0  0  0  0
   -3.9142    0.3134   -0.1392 C   0  0  0  0  0  0  0  0  0  0  0  0
   -2.9310    0.4149   -1.2970 C   0  0  0  0  0  0  0  0  0  0  0  0
   -1.7456   -0.5258   -1.1150 C   0  0  0  0  0  0  0  0  0  0  0  0
   -0.8987    0.0999   -0.1210 N   0  0  0  0  0  0  0  0  0  0  0  0
   -1.6462    0.9720    0.8213 C   0  0  0  0  0  0  0  0  0  0  0  0
   -2.9571    0.2958    1.0772 C   0  0  0  0  0  0  0  0  0  0  0  0
    0.4883   -0.0283   -0.0032 C   0  0  0  0  0  0  0  0  0  0  0  0
    1.0635    0.6029    0.9583 O   0  0  0  0  0  0  0  0  0  0  0  0
    1.3896   -0.8123   -0.8666 C   0  0  2  0  0  0  0  0  0  0  0  0
    1.0027   -2.2682   -0.8139 C   0  0  0  0  0  0  0  0  0  0  0  0
    1.0600   -2.8744    0.5179 C   0  0  0  0  0  0  0  0  0  0  0  0
    0.0163   -2.9157    1.4170 C   0  0  0  0  0  0  0  0  0  0  0  0
    0.1447   -3.5054    2.6586 C   0  0  0  0  0  0  0  0  0  0  0  0
    1.3362   -4.0919    3.0723 C   0  0  0  0  0  0  0  0  0  0  0  0
    2.3774   -4.0462    2.1649 C   0  0  0  0  0  0  0  0  0  0  0  0
    2.2496   -3.4624    0.9365 C   0  0  0  0  0  0  0  0  0  0  0  0
    1.4656   -4.8254    4.6399 Cl  0  0  0  0  0  0  0  0  0  0  0  0
    2.7845   -0.6314   -0.4787 N   0  0  0  0  0  0  0  0  0  0  0  0
    3.6852   -0.1156   -1.4649 C   0  0  0  0  0  0  0  0  0  0  0  0
    3.2946    0.1753   -2.6315 O   0  0  0  0  0  0  0  0  0  0  0  0
    5.1331    0.1083   -1.1744 C   0  0  2  0  0  0  0  0  0  0  0  0
    5.3857   -0.2778    0.1927 N   0  0  0  0  0  0  0  0  0  0  0  0
    6.7974   -0.2070    0.5041 C   0  0  0  0  0  0  0  0  0  0  0  0
    7.2602    1.1836    0.2976 C   0  0  0  0  0  0  0  0  0  0  0  0
    6.6059    2.0049   -0.5922 C   0  0  0  0  0  0  0  0  0  0  0  0
    5.4283    1.5818   -1.3876 C   0  0  0  0  0  0  0  0  0  0  0  0
    7.0687    3.2919   -0.7549 C   0  0  0  0  0  0  0  0  0  0  0  0
    8.1628    3.7766   -0.0546 C   0  0  0  0  0  0  0  0  0  0  0  0
    8.8129    2.9460    0.8357 C   0  0  0  0  0  0  0  0  0  0  0  0
    8.3424    1.6535    0.9943 C   0  0  0  0  0  0  0  0  0  0  0  0
   -4.5341   -1.0499   -0.1132 C   0  0  0  0  0  0  0  0  0  0  0  0
   -5.4452   -1.4996   -1.1301 C   0  0  0  0  0  0  0  0  0  0  0  0
   -5.0645   -2.0949   -2.3000 N   0  0  0  0  0  0  0  0  0  0  0  0
   -6.1796   -2.4034   -2.9213 N   0  0  0  0  0  0  0  0  0  0  0  0
   -7.2039   -2.0252   -2.1858 N   0  0  0  0  0  0  0  0  0  0  0  0
   -6.7911   -1.4608   -1.0660 N   0  0  0  0  0  0  0  0  0  0  0  0
   -7.6762   -0.9732   -0.0464 C   0  0  0  0  0  0  0  0  0  0  0  0
   -5.6521    1.4136   -1.4804 C   0  0  0  0  0  0  0  0  0  0  0  0
   -2.8890    3.4436    1.4560 H   0  0  0  0  0  0  0  0  0  0  0  0
   -4.3954    4.2793    1.7121 H   0  0  0  0  0  0  0  0  0  0  0  0
   -4.2177    2.5627    2.2704 H   0  0  0  0  0  0  0  0  0  0  0  0
   -3.8949    3.2617   -0.6821 H   0  0  0  0  0  0  0  0  0  0  0  0
   -5.5022    3.4239   -0.0130 H   0  0  0  0  0  0  0  0  0  0  0  0
   -5.7100    1.1645    0.6256 H   0  0  0  0  0  0  0  0  0  0  0  0
   -3.3864    0.1637   -2.2808 H   0  0  0  0  0  0  0  0  0  0  0  0
   -2.5146    1.4295   -1.4289 H   0  0  0  0  0  0  0  0  0  0  0  0
   -1.2101   -0.5496   -2.0807 H   0  0  0  0  0  0  0  0  0  0  0  0
   -2.0323   -1.5090   -0.7647 H   0  0  0  0  0  0  0  0  0  0  0  0
   -1.6638    1.9256    0.3058 H   0  0  0  0  0  0  0  0  0  0  0  0
   -1.0891    1.0488    1.7763 H   0  0  0  0  0  0  0  0  0  0  0  0
   -3.4425    0.4691    2.0227 H   0  0  0  0  0  0  0  0  0  0  0  0
   -2.6482   -0.8106    1.1604 H   0  0  0  0  0  0  0  0  0  0  0  0
    1.3087   -0.4896   -1.9239 H   0  0  0  0  0  0  0  0  0  0  0  0
    1.7256   -2.8450   -1.4826 H   0  0  0  0  0  0  0  0  0  0  0  0
    0.0251   -2.4721   -1.2757 H   0  0  0  0  0  0  0  0  0  0  0  0
   -0.9259   -2.4710    1.1317 H   0  0  0  0  0  0  0  0  0  0  0  0
   -0.6871   -3.5246    3.3440 H   0  0  0  0  0  0  0  0  0  0  0  0
    3.3151   -4.5018    2.4771 H   0  0  0  0  0  0  0  0  0  0  0  0
    3.1323   -3.4790    0.2931 H   0  0  0  0  0  0  0  0  0  0  0  0
    3.1302   -0.8646    0.4789 H   0  0  0  0  0  0  0  0  0  0  0  0
    5.7182   -0.4917   -1.8993 H   0  0  0  0  0  0  0  0  0  0  0  0
    4.8939    0.3974    0.8061 H   0  0  0  0  0  0  0  0  0  0  0  0
    6.9073   -0.5484    1.5533 H   0  0  0  0  0  0  0  0  0  0  0  0
    7.3444   -0.9024   -0.1608 H   0  0  0  0  0  0  0  0  0  0  0  0
    5.5941    1.7258   -2.4897 H   0  0  0  0  0  0  0  0  0  0  0  0
    4.5313    2.2021   -1.1211 H   0  0  0  0  0  0  0  0  0  0  0  0
    6.5679    3.9530   -1.4497 H   0  0  0  0  0  0  0  0  0  0  0  0
    8.4652    4.7935   -0.2355 H   0  0  0  0  0  0  0  0  0  0  0  0
    9.6697    3.3079    1.3915 H   0  0  0  0  0  0  0  0  0  0  0  0
    8.8389    0.9781    1.6917 H   0  0  0  0  0  0  0  0  0  0  0  0
   -5.0722   -1.0636    0.9185 H   0  0  0  0  0  0  0  0  0  0  0  0
   -3.7724   -1.8552    0.0584 H   0  0  0  0  0  0  0  0  0  0  0  0
   -8.3653   -1.8296    0.2138 H   0  0  0  0  0  0  0  0  0  0  0  0
   -8.3576   -0.1663   -0.3653 H   0  0  0  0  0  0  0  0  0  0  0  0
   -7.1607   -0.7468    0.9098 H   0  0  0  0  0  0  0  0  0  0  0  0
   -5.5394    2.4303   -1.9578 H   0  0  0  0  0  0  0  0  0  0  0  0
   -6.7136    1.3398   -1.2536 H   0  0  0  0  0  0  0  0  0  0  0  0
   -5.2915    0.6253   -2.1007 H   0  0  0  0  0  0  0  0  0  0  0  0
  1  2  1  0
  2  3  1  0
  3  4  1  0
  4  5  1  0
  5  6  1  0
  6  7  1  0
  7  8  1  0
  8  9  1  0
  7 10  1  0
 10 11  2  0
 10 12  1  0
 12 13  1  0
 13 14  1  0
 14 15  2  0
 15 16  1  0
 16 17  2  0
 17 18  1  0
 18 19  2  0
 17 20  1  0
 12 21  1  0
 21 22  1  0
 22 23  2  0
 22 24  1  0
 24 25  1  0
 25 26  1  0
 26 27  1  0
 27 28  2  0
 28 29  1  0
 28 30  1  0
 30 31  2  0
 31 32  1  0
 32 33  2  0
  4 34  1  0
 34 35  1  0
 35 36  2  0
 36 37  1  0
 37 38  2  0
 38 39  1  0
 39 40  1  0
  3 41  1  0
  9  4  1  0
 19 14  1  0
 29 24  1  0
 39 35  1  0
 33 27  1  0
  1 42  1  0
  1 43  1  0
  1 44  1  0
  2 45  1  0
  2 46  1  0
  3 47  1  0
  5 48  1  0
  5 49  1  0
  6 50  1  0
  6 51  1  0
  8 52  1  0
  8 53  1  0
  9 54  1  0
  9 55  1  0
 12 56  1  6
 13 57  1  0
 13 58  1  0
 15 59  1  0
 16 60  1  0
 18 61  1  0
 19 62  1  0
 21 63  1  0
 24 64  1  6
 25 65  1  0
 26 66  1  0
 26 67  1  0
 29 68  1  0
 29 69  1  0
 30 70  1  0
 31 71  1  0
 32 72  1  0
 33 73  1  0
 34 74  1  0
 34 75  1  0
 40 76  1  0
 40 77  1  0
 40 78  1  0
 41 79  1  0
 41 80  1  0
 41 81  1  0
M  END
>  <Ligand ID>  (1) 
LIG0004051

>  <Ligand>  (1) 
CHEMBL400456

>  <SMILES>  (1) 
CCC(C1(CCN(CC1)C(=O)[C@H](Cc1ccc(cc1)Cl)NC(=O)[C@@H]1NCc2c(C1)cccc2)Cc1nnnn1C)C

>  <CID>  (1) 
44441644.0

>  <ChEMBL ID>  (1) 
nan

>  <InChiKey>  (1) 
AWOJJPZZOHGJMY-FJFCPSMQSA-N

>  <InChi>  (1) 
InChI=1S/C31H40ClN7O2/c1-4-21(2)31(19-28-35-36-37-38(28)3)13-15-39(16-14-31)30(41)27(17-22-9-11-25(32)12-10-22)34-29(40)26-18-23-7-5-6-8-24(23)20-33-26/h5-12,21,26-27,33H,4,13-20H2,1-3H3,(H,34,40)/t21?,26-,27+/m1/s1

>  <IUPAC Name>  (1) 
(3R)-N-[(2S)-1-[4-butan-2-yl-4-[(1-methyltetrazol-5-yl)methyl]piperidin-1-yl]-3-(4-chlorophenyl)-1-oxopropan-2-yl]-1,2,3,4-tetrahydroisoquinoline-3-carboxamide

$$$$
