
     RDKit          3D

 76 82  0  0  0  0  0  0  0  0999 V2000
   -4.3989    5.4339   -0.1693 O   0  0  0  0  0  0  0  0  0  0  0  0
   -5.4691    4.7879    0.4458 C   0  0  0  0  0  0  0  0  0  0  0  0
   -5.5046    3.3318   -0.0060 C   0  0  0  0  0  0  0  0  0  0  0  0
   -4.3273    2.6604    0.3322 O   0  0  0  0  0  0  0  0  0  0  0  0
   -4.0385    1.3356    0.0686 C   0  0  0  0  0  0  0  0  0  0  0  0
   -4.9312    0.4845   -0.5954 C   0  0  0  0  0  0  0  0  0  0  0  0
   -4.6139   -0.8578   -0.8520 C   0  0  0  0  0  0  0  0  0  0  0  0
   -3.3885   -1.3488   -0.4359 C   0  0  0  0  0  0  0  0  0  0  0  0
   -2.5811   -0.4633    0.2035 C   0  0  0  0  0  0  0  0  0  0  0  0
   -2.8015    0.8334    0.4863 C   0  0  0  0  0  0  0  0  0  0  0  0
   -1.6770    1.3175    1.1357 O   0  0  0  0  0  0  0  0  0  0  0  0
   -0.5691    0.4357    1.0152 C   0  0  1  0  0  0  0  0  0  0  0  0
   -1.2725   -0.8884    0.7382 C   0  0  1  0  0  0  0  0  0  0  0  0
   -1.4639   -1.6775    1.9747 C   0  0  0  0  0  0  0  0  0  0  0  0
   -1.7380   -3.1106    1.7635 C   0  0  0  0  0  0  0  0  0  0  0  0
   -1.0658   -3.6586    0.6216 N   0  0  0  0  0  0  0  0  0  0  0  0
   -1.3876   -2.8776   -0.5859 C   0  0  1  0  0  0  0  0  0  0  0  0
   -2.8810   -2.7093   -0.6987 C   0  0  0  0  0  0  0  0  0  0  0  0
   -0.6299   -1.5903   -0.4268 C   0  0  1  0  0  0  0  0  0  0  0  0
   -0.7932   -0.7281   -1.6709 C   0  0  0  0  0  0  0  0  0  0  0  0
   -0.3626    0.6762   -1.4047 C   0  0  0  0  0  0  0  0  0  0  0  0
    0.3894    0.7397   -0.1003 C   0  0  1  0  0  0  0  0  0  0  0  0
    1.0929    1.8913    0.0753 O   0  0  0  0  0  0  0  0  0  0  0  0
    0.4139    3.0608    0.1835 C   0  0  0  0  0  0  0  0  0  0  0  0
    1.4428   -0.3872   -0.0762 C   0  0  1  0  0  0  0  0  0  0  0  0
    0.8135   -1.7650   -0.1659 C   0  0  0  0  0  0  0  0  0  0  0  0
    2.4418   -0.1371   -1.1645 C   0  0  0  0  0  0  0  0  0  0  0  0
    3.4180   -1.0085   -1.3037 O   0  0  0  0  0  0  0  0  0  0  0  0
    4.4125   -1.2404   -0.4637 C   0  0  0  0  0  0  0  0  0  0  0  0
    5.4297   -0.2184   -0.2182 C   0  0  0  0  0  0  0  0  0  0  0  0
    6.5652   -0.2823   -1.0573 C   0  0  0  0  0  0  0  0  0  0  0  0
    7.5790    0.6387   -0.9876 C   0  0  0  0  0  0  0  0  0  0  0  0
    7.5370    1.6720   -0.0930 C   0  0  0  0  0  0  0  0  0  0  0  0
    6.4468    1.7557    0.7332 C   0  0  0  0  0  0  0  0  0  0  0  0
    5.4087    0.8128    0.6630 C   0  0  0  0  0  0  0  0  0  0  0  0
    4.3189    0.9639    1.6206 C   0  0  0  0  0  0  0  0  0  0  0  0
   -1.3240   -5.0562    0.4207 C   0  0  0  0  0  0  0  0  0  0  0  0
   -4.4891    6.4190   -0.1599 H   0  0  0  0  0  0  0  0  0  0  0  0
   -6.3951    5.2727    0.0827 H   0  0  0  0  0  0  0  0  0  0  0  0
   -5.3743    4.8924    1.5342 H   0  0  0  0  0  0  0  0  0  0  0  0
   -5.5976    3.3546   -1.1248 H   0  0  0  0  0  0  0  0  0  0  0  0
   -6.3570    2.8174    0.4730 H   0  0  0  0  0  0  0  0  0  0  0  0
   -5.8955    0.8823   -0.9181 H   0  0  0  0  0  0  0  0  0  0  0  0
   -5.2869   -1.5230   -1.3615 H   0  0  0  0  0  0  0  0  0  0  0  0
    0.0026    0.4091    1.9618 H   0  0  0  0  0  0  0  0  0  0  0  0
   -0.6703   -1.4950    2.7443 H   0  0  0  0  0  0  0  0  0  0  0  0
   -2.3948   -1.2504    2.4750 H   0  0  0  0  0  0  0  0  0  0  0  0
   -1.2965   -3.6628    2.6518 H   0  0  0  0  0  0  0  0  0  0  0  0
   -2.8193   -3.3559    1.8302 H   0  0  0  0  0  0  0  0  0  0  0  0
   -1.0180   -3.4695   -1.4381 H   0  0  0  0  0  0  0  0  0  0  0  0
   -3.1518   -2.9952   -1.7656 H   0  0  0  0  0  0  0  0  0  0  0  0
   -3.4241   -3.4621   -0.0867 H   0  0  0  0  0  0  0  0  0  0  0  0
   -0.1110   -1.2210   -2.4328 H   0  0  0  0  0  0  0  0  0  0  0  0
   -1.7798   -0.7737   -2.1192 H   0  0  0  0  0  0  0  0  0  0  0  0
   -1.2384    1.3678   -1.3301 H   0  0  0  0  0  0  0  0  0  0  0  0
    0.2048    1.0505   -2.2774 H   0  0  0  0  0  0  0  0  0  0  0  0
   -0.2955    3.1772    0.9962 H   0  0  0  0  0  0  0  0  0  0  0  0
    1.1865    3.8657    0.3485 H   0  0  0  0  0  0  0  0  0  0  0  0
   -0.0025    3.3050   -0.8208 H   0  0  0  0  0  0  0  0  0  0  0  0
    1.9296   -0.2766    0.9007 H   0  0  0  0  0  0  0  0  0  0  0  0
    1.3181   -2.3745   -0.9426 H   0  0  0  0  0  0  0  0  0  0  0  0
    0.9391   -2.2917    0.8005 H   0  0  0  0  0  0  0  0  0  0  0  0
    1.9337   -0.0065   -2.1646 H   0  0  0  0  0  0  0  0  0  0  0  0
    2.8545    0.9011   -0.9701 H   0  0  0  0  0  0  0  0  0  0  0  0
    3.9366   -1.4648    0.5605 H   0  0  0  0  0  0  0  0  0  0  0  0
    4.9660   -2.1774   -0.7684 H   0  0  0  0  0  0  0  0  0  0  0  0
    6.6701   -1.0707   -1.7902 H   0  0  0  0  0  0  0  0  0  0  0  0
    8.4354    0.5704   -1.6377 H   0  0  0  0  0  0  0  0  0  0  0  0
    8.3387    2.3948   -0.0433 H   0  0  0  0  0  0  0  0  0  0  0  0
    6.3867    2.5713    1.4582 H   0  0  0  0  0  0  0  0  0  0  0  0
    3.9668    0.0003    2.0485 H   0  0  0  0  0  0  0  0  0  0  0  0
    4.7064    1.5166    2.5315 H   0  0  0  0  0  0  0  0  0  0  0  0
    3.5202    1.5825    1.2069 H   0  0  0  0  0  0  0  0  0  0  0  0
   -1.7298   -5.2041   -0.6041 H   0  0  0  0  0  0  0  0  0  0  0  0
   -0.3811   -5.6211    0.4695 H   0  0  0  0  0  0  0  0  0  0  0  0
   -2.0782   -5.4812    1.1186 H   0  0  0  0  0  0  0  0  0  0  0  0
  1  2  1  0
  2  3  1  0
  3  4  1  0
  4  5  1  0
  5  6  2  0
  6  7  1  0
  7  8  2  0
  8  9  1  0
  9 10  2  0
 10 11  1  0
 11 12  1  0
 12 13  1  0
 13 14  1  1
 14 15  1  0
 15 16  1  0
 16 17  1  0
 17 18  1  0
 17 19  1  0
 19 20  1  6
 20 21  1  0
 21 22  1  0
 22 23  1  1
 23 24  1  0
 22 25  1  0
 25 26  1  0
 25 27  1  0
 27 28  1  0
 28 29  1  0
 29 30  1  0
 30 31  2  0
 31 32  1  0
 32 33  2  0
 33 34  1  0
 34 35  2  0
 35 36  1  0
 16 37  1  0
 10  5  1  0
 22 12  1  0
 35 30  1  0
 18  8  1  0
 26 19  1  0
 13  9  1  0
 19 13  1  0
  1 38  1  0
  2 39  1  0
  2 40  1  0
  3 41  1  0
  3 42  1  0
  6 43  1  0
  7 44  1  0
 12 45  1  1
 14 46  1  0
 14 47  1  0
 15 48  1  0
 15 49  1  0
 17 50  1  6
 18 51  1  0
 18 52  1  0
 20 53  1  0
 20 54  1  0
 21 55  1  0
 21 56  1  0
 24 57  1  0
 24 58  1  0
 24 59  1  0
 25 60  1  1
 26 61  1  0
 26 62  1  0
 27 63  1  0
 27 64  1  0
 29 65  1  0
 29 66  1  0
 31 67  1  0
 32 68  1  0
 33 69  1  0
 34 70  1  0
 36 71  1  0
 36 72  1  0
 36 73  1  0
 37 74  1  0
 37 75  1  0
 37 76  1  0
M  END
>  <Ligand ID>  (1) 
LIG0003865

>  <Ligand>  (1) 
CHEMBL3938757

>  <SMILES>  (1) 
OCCOc1ccc2c3c1O[C@H]1[C@]43CCN([C@@H](C2)[C@]24CC[C@]1(OC)[C@@H](C2)COCc1ccccc1C)C

>  <CID>  (1) 
134149787.0

>  <ChEMBL ID>  (1) 
nan

>  <InChiKey>  (1) 
FAHOTOBTELSIEH-RFEMKGLMSA-N

>  <InChi>  (1) 
InChI=1S/C31H39NO5/c1-20-6-4-5-7-22(20)18-35-19-23-17-29-10-11-31(23,34-3)28-30(29)12-13-32(2)25(29)16-21-8-9-24(36-15-14-33)27(37-28)26(21)30/h4-9,23,25,28,33H,10-19H2,1-3H3/t23-,25-,28-,29-,30+,31-/m0/s1

>  <IUPAC Name>  (1) 
2-[[(1R,2R,6S,14S,15S,16S)-15-methoxy-5-methyl-16-[(2-methylphenyl)methoxymethyl]-13-oxa-5-azahexacyclo[13.2.2.12,8.01,6.02,14.012,20]icosa-8(20),9,11-trien-11-yl]oxy]ethanol

$$$$
