
     RDKit          3D

 49 52  0  0  0  0  0  0  0  0999 V2000
    6.9567   -1.8446    2.7823 C   0  0  0  0  0  0  0  0  0  0  0  0
    5.5295   -2.9381    2.4253 S   0  0  0  0  0  0  0  0  0  0  0  0
    4.7355   -2.2832    0.9594 C   0  0  0  0  0  0  0  0  0  0  0  0
    5.1001   -2.6835   -0.3160 C   0  0  0  0  0  0  0  0  0  0  0  0
    4.3132   -1.9973   -1.1618 N   0  0  0  0  0  0  0  0  0  0  0  0
    3.4731   -1.1858   -0.4583 C   0  0  0  0  0  0  0  0  0  0  0  0
    3.7213   -1.3489    0.8868 C   0  0  0  0  0  0  0  0  0  0  0  0
    2.4717   -0.2880   -1.0742 C   0  0  0  0  0  0  0  0  0  0  0  0
    2.3878   -0.2634   -2.3290 O   0  0  0  0  0  0  0  0  0  0  0  0
    1.6565    0.4995   -0.2196 N   0  0  0  0  0  0  0  0  0  0  0  0
    0.6881    1.3682   -0.8118 C   0  0  0  0  0  0  0  0  0  0  0  0
    0.9196    2.6672   -1.1656 N   0  0  0  0  0  0  0  0  0  0  0  0
   -0.2180    3.1783   -1.6913 C   0  0  0  0  0  0  0  0  0  0  0  0
   -1.1887    2.1738   -1.6668 C   0  0  0  0  0  0  0  0  0  0  0  0
   -0.6025    1.0693   -1.1197 N   0  0  0  0  0  0  0  0  0  0  0  0
   -1.2548   -0.2250   -0.8983 C   0  0  0  0  0  0  0  0  0  0  0  0
   -1.8466   -0.2007    0.4660 C   0  0  0  0  0  0  0  0  0  0  0  0
   -2.5345   -1.3946    0.8552 N   0  0  0  0  0  0  0  0  0  0  0  0
   -3.7506   -1.6428    0.1336 C   0  0  0  0  0  0  0  0  0  0  0  0
   -4.8625   -0.9684    0.8987 C   0  0  0  0  0  0  0  0  0  0  0  0
   -4.3484   -0.9101    2.3016 C   0  0  0  0  0  0  0  0  0  0  0  0
   -2.8872   -1.2703    2.2522 C   0  0  0  0  0  0  0  0  0  0  0  0
   -2.4735    2.4199   -2.1524 C   0  0  0  0  0  0  0  0  0  0  0  0
   -2.7330    3.6595   -2.6417 C   0  0  0  0  0  0  0  0  0  0  0  0
   -1.8261    4.6958   -2.6968 C   0  0  0  0  0  0  0  0  0  0  0  0
   -0.5453    4.4193   -2.2024 C   0  0  0  0  0  0  0  0  0  0  0  0
    7.0967   -1.6944    3.8779 H   0  0  0  0  0  0  0  0  0  0  0  0
    6.8584   -0.9105    2.2340 H   0  0  0  0  0  0  0  0  0  0  0  0
    7.8596   -2.4358    2.4489 H   0  0  0  0  0  0  0  0  0  0  0  0
    5.8598   -3.4002   -0.5971 H   0  0  0  0  0  0  0  0  0  0  0  0
    4.3748   -2.1050   -2.2078 H   0  0  0  0  0  0  0  0  0  0  0  0
    3.2370   -0.8611    1.7106 H   0  0  0  0  0  0  0  0  0  0  0  0
    1.7257    0.4779    0.8002 H   0  0  0  0  0  0  0  0  0  0  0  0
   -1.9826   -0.4115   -1.7079 H   0  0  0  0  0  0  0  0  0  0  0  0
   -0.4755   -1.0097   -0.9864 H   0  0  0  0  0  0  0  0  0  0  0  0
   -2.5246    0.6612    0.6217 H   0  0  0  0  0  0  0  0  0  0  0  0
   -1.0106   -0.0521    1.1857 H   0  0  0  0  0  0  0  0  0  0  0  0
   -3.7694   -1.2864   -0.8895 H   0  0  0  0  0  0  0  0  0  0  0  0
   -3.9483   -2.7338    0.1432 H   0  0  0  0  0  0  0  0  0  0  0  0
   -5.0057    0.0655    0.4681 H   0  0  0  0  0  0  0  0  0  0  0  0
   -5.8392   -1.4715    0.7989 H   0  0  0  0  0  0  0  0  0  0  0  0
   -4.9526   -1.5756    2.9551 H   0  0  0  0  0  0  0  0  0  0  0  0
   -4.5224    0.1404    2.6704 H   0  0  0  0  0  0  0  0  0  0  0  0
   -2.6944   -2.2135    2.8214 H   0  0  0  0  0  0  0  0  0  0  0  0
   -2.3207   -0.4716    2.7727 H   0  0  0  0  0  0  0  0  0  0  0  0
   -3.2223    1.6265   -2.1275 H   0  0  0  0  0  0  0  0  0  0  0  0
   -3.7371    3.8665   -3.0260 H   0  0  0  0  0  0  0  0  0  0  0  0
   -2.0967    5.6507   -3.0960 H   0  0  0  0  0  0  0  0  0  0  0  0
    0.2083    5.2130   -2.2259 H   0  0  0  0  0  0  0  0  0  0  0  0
  1  2  1  0
  2  3  1  0
  3  4  2  0
  4  5  1  0
  5  6  1  0
  6  7  2  0
  6  8  1  0
  8  9  2  0
  8 10  1  0
 10 11  1  0
 11 12  2  0
 12 13  1  0
 13 14  2  0
 14 15  1  0
 15 16  1  0
 16 17  1  0
 17 18  1  0
 18 19  1  0
 19 20  1  0
 20 21  1  0
 21 22  1  0
 14 23  1  0
 23 24  2  0
 24 25  1  0
 25 26  2  0
  7  3  1  0
 15 11  1  0
 22 18  1  0
 26 13  1  0
  1 27  1  0
  1 28  1  0
  1 29  1  0
  4 30  1  0
  5 31  1  0
  7 32  1  0
 10 33  1  0
 16 34  1  0
 16 35  1  0
 17 36  1  0
 17 37  1  0
 19 38  1  0
 19 39  1  0
 20 40  1  0
 20 41  1  0
 21 42  1  0
 21 43  1  0
 22 44  1  0
 22 45  1  0
 23 46  1  0
 24 47  1  0
 25 48  1  0
 26 49  1  0
M  END
>  <Ligand ID>  (1) 
LIG0004962

>  <Ligand>  (1) 
CHEMBL3394003

>  <SMILES>  (1) 
CSc1c[nH]c(c1)C(=O)Nc1nc2c(n1CCN1CCCC1)cccc2

>  <CID>  (1) 
118725853.0

>  <ChEMBL ID>  (1) 
nan

>  <InChiKey>  (1) 
AYSIOQRTCLFLJW-UHFFFAOYSA-N

>  <InChi>  (1) 
InChI=1S/C19H23N5OS/c1-26-14-12-16(20-13-14)18(25)22-19-21-15-6-2-3-7-17(15)24(19)11-10-23-8-4-5-9-23/h2-3,6-7,12-13,20H,4-5,8-11H2,1H3,(H,21,22,25)

>  <IUPAC Name>  (1) 
4-methylsulfanyl-N-[1-(2-pyrrolidin-1-ylethyl)benzimidazol-2-yl]-1H-pyrrole-2-carboxamide

$$$$
