
     RDKit          3D

 27 28  0  0  0  0  0  0  0  0999 V2000
    0.2597    2.4016   -0.0154 C   0  0  0  0  0  0  0  0  0  0  0  0
    0.1584    1.2826   -0.9990 C   0  0  1  0  0  0  0  0  0  0  0  0
    1.3114    0.3303   -0.9356 C   0  0  0  0  0  0  0  0  0  0  0  0
    0.9530   -0.5522    0.2313 C   0  0  2  0  0  0  0  0  0  0  0  0
   -0.4959   -0.8126    0.0550 C   0  0  2  0  0  0  0  0  0  0  0  0
   -1.0236    0.3818   -0.8040 C   0  0  1  0  0  0  0  0  0  0  0  0
   -1.5742    0.0532    0.5318 C   0  0  1  0  0  0  0  0  0  0  0  0
   -2.9474   -0.5457    0.4801 C   0  0  0  0  0  0  0  0  0  0  0  0
   -3.8424   -0.2449    1.3169 O   0  0  0  0  0  0  0  0  0  0  0  0
   -3.2410   -1.4657   -0.5282 O   0  0  0  0  0  0  0  0  0  0  0  0
    1.2879    0.0235    1.5036 N   0  0  0  0  0  0  0  0  0  0  0  0
    1.7606   -1.8030    0.0758 C   0  0  0  0  0  0  0  0  0  0  0  0
    1.6035   -2.4615   -0.9954 O   0  0  0  0  0  0  0  0  0  0  0  0
    2.6442   -2.2551    1.0251 O   0  0  0  0  0  0  0  0  0  0  0  0
    1.2787    2.3361    0.4611 H   0  0  0  0  0  0  0  0  0  0  0  0
    0.2702    3.3979   -0.5441 H   0  0  0  0  0  0  0  0  0  0  0  0
   -0.5470    2.4673    0.7169 H   0  0  0  0  0  0  0  0  0  0  0  0
    0.1388    1.7046   -2.0393 H   0  0  0  0  0  0  0  0  0  0  0  0
    1.2454   -0.3157   -1.8452 H   0  0  0  0  0  0  0  0  0  0  0  0
    2.2918    0.7986   -0.8568 H   0  0  0  0  0  0  0  0  0  0  0  0
   -0.7408   -1.8241   -0.3294 H   0  0  0  0  0  0  0  0  0  0  0  0
   -1.5600    0.0820   -1.7170 H   0  0  0  0  0  0  0  0  0  0  0  0
   -1.4667    0.7683    1.3775 H   0  0  0  0  0  0  0  0  0  0  0  0
   -4.0796   -2.0341   -0.5419 H   0  0  0  0  0  0  0  0  0  0  0  0
    2.2484    0.3974    1.5103 H   0  0  0  0  0  0  0  0  0  0  0  0
    0.5647    0.5917    1.9491 H   0  0  0  0  0  0  0  0  0  0  0  0
    3.5018   -2.7023    0.6954 H   0  0  0  0  0  0  0  0  0  0  0  0
  1  2  1  0
  2  3  1  0
  3  4  1  0
  4  5  1  0
  5  6  1  0
  6  7  1  0
  7  8  1  0
  8  9  2  0
  8 10  1  0
  4 11  1  1
  4 12  1  0
 12 13  2  0
 12 14  1  0
  6  2  1  0
  7  5  1  0
  1 15  1  0
  1 16  1  0
  1 17  1  0
  2 18  1  6
  3 19  1  0
  3 20  1  0
  5 21  1  6
  6 22  1  6
  7 23  1  1
 10 24  1  0
 11 25  1  0
 11 26  1  0
 14 27  1  0
M  END
>  <Ligand ID>  (1) 
LIG0005516

>  <Ligand>  (1) 
CHEMBL195500

>  <SMILES>  (1) 
C[C@H]1C[C@]([C@@H]2[C@H]1[C@H]2C(=O)O)(N)C(=O)O

>  <CID>  (1) 
11481048.0

>  <ChEMBL ID>  (1) 
nan

>  <InChiKey>  (1) 
BQVZICWQBFTOJX-PUMWMYNLSA-N

>  <InChi>  (1) 
InChI=1S/C9H13NO4/c1-3-2-9(10,8(13)14)6-4(3)5(6)7(11)12/h3-6H,2,10H2,1H3,(H,11,12)(H,13,14)/t3-,4+,5+,6+,9+/m0/s1

>  <IUPAC Name>  (1) 
(1R,2R,4S,5S,6R)-2-amino-4-methylbicyclo[3.1.0]hexane-2,6-dicarboxylic acid

$$$$
