
     RDKit          3D

 25 25  0  0  0  0  0  0  0  0999 V2000
   -2.9227   -0.7532    0.7507 C   0  0  0  0  0  0  0  0  0  0  0  0
   -2.0504   -0.0092   -0.1925 C   0  0  0  0  0  0  0  0  0  0  0  0
   -2.5801    0.9479   -0.9348 C   0  0  0  0  0  0  0  0  0  0  0  0
   -0.6182   -0.3859   -0.2495 C   0  0  2  0  0  0  0  0  0  0  0  0
   -0.0714   -0.3001    1.1332 C   0  0  0  0  0  0  0  0  0  0  0  0
    1.3985   -0.1767    1.2135 C   0  0  0  0  0  0  0  0  0  0  0  0
    2.1826    0.0522    0.1733 C   0  0  0  0  0  0  0  0  0  0  0  0
    1.6082    0.1999   -1.1588 C   0  0  0  0  0  0  0  0  0  0  0  0
    2.3381    0.1173   -2.1869 O   0  0  0  0  0  0  0  0  0  0  0  0
    0.1516    0.4474   -1.2469 C   0  0  0  0  0  0  0  0  0  0  0  0
    3.6540    0.1639    0.3316 C   0  0  0  0  0  0  0  0  0  0  0  0
   -3.0998   -0.1973    1.7014 H   0  0  0  0  0  0  0  0  0  0  0  0
   -2.5470   -1.7700    0.9750 H   0  0  0  0  0  0  0  0  0  0  0  0
   -3.9097   -0.8620    0.2289 H   0  0  0  0  0  0  0  0  0  0  0  0
   -3.6568    1.1224   -0.7906 H   0  0  0  0  0  0  0  0  0  0  0  0
   -1.9918    1.5238   -1.6403 H   0  0  0  0  0  0  0  0  0  0  0  0
   -0.5787   -1.4371   -0.6296 H   0  0  0  0  0  0  0  0  0  0  0  0
   -0.3893   -1.2010    1.7335 H   0  0  0  0  0  0  0  0  0  0  0  0
   -0.5377    0.5589    1.6980 H   0  0  0  0  0  0  0  0  0  0  0  0
    1.8620   -0.2776    2.1671 H   0  0  0  0  0  0  0  0  0  0  0  0
   -0.2027    0.2360   -2.2667 H   0  0  0  0  0  0  0  0  0  0  0  0
   -0.0531    1.5014   -1.0053 H   0  0  0  0  0  0  0  0  0  0  0  0
    3.8923    0.1335    1.4087 H   0  0  0  0  0  0  0  0  0  0  0  0
    4.1095   -0.7357   -0.1674 H   0  0  0  0  0  0  0  0  0  0  0  0
    4.0125    1.1013   -0.1479 H   0  0  0  0  0  0  0  0  0  0  0  0
  1  2  1  0
  2  3  2  0
  2  4  1  0
  4  5  1  0
  5  6  1  0
  6  7  2  0
  7  8  1  0
  8  9  2  0
  8 10  1  0
  7 11  1  0
 10  4  1  0
  1 12  1  0
  1 13  1  0
  1 14  1  0
  3 15  1  0
  3 16  1  0
  4 17  1  6
  5 18  1  0
  5 19  1  0
  6 20  1  0
 10 21  1  0
 10 22  1  0
 11 23  1  0
 11 24  1  0
 11 25  1  0
M  END
>  <Ligand ID>  (1) 
LIG0000006

>  <Ligand>  (1) 
(-)-Carvone

>  <SMILES>  (1) 
CC(=C)[C@@H]1CC=C(C(=O)C1)C

>  <CID>  (1) 
439570.0

>  <ChEMBL ID>  (1) 
nan

>  <InChiKey>  (1) 
ULDHMXUKGWMISQ-SECBINFHSA-N

>  <InChi>  (1) 
InChI=1S/C10H14O/c1-7(2)9-5-4-8(3)10(11)6-9/h4,9H,1,5-6H2,2-3H3/t9-/m1/s1

>  <IUPAC Name>  (1) 
(5R)-2-methyl-5-prop-1-en-2-ylcyclohex-2-en-1-one

$$$$
