
     RDKit          3D

105108  0  0  0  0  0  0  0  0999 V2000
   -6.9189    3.0713   -1.3690 C   0  0  0  0  0  0  0  0  0  0  0  0
   -5.8330    3.2950   -0.3477 C   0  0  0  0  0  0  0  0  0  0  0  0
   -5.6972    2.1981    0.6334 C   0  0  0  0  0  0  0  0  0  0  0  0
   -5.9019    2.4361    1.8706 O   0  0  0  0  0  0  0  0  0  0  0  0
   -5.3431    0.8556    0.2717 N   0  0  0  0  0  0  0  0  0  0  0  0
   -5.2535   -0.1112    1.3279 C   0  0  2  0  0  0  0  0  0  0  0  0
   -3.9639   -0.7918    1.4958 C   0  0  0  0  0  0  0  0  0  0  0  0
   -3.8840   -1.5887    2.5006 O   0  0  0  0  0  0  0  0  0  0  0  0
   -2.8151   -0.6623    0.6823 N   0  0  0  0  0  0  0  0  0  0  0  0
   -1.6469   -1.4153    1.0577 C   0  0  2  0  0  0  0  0  0  0  0  0
   -0.3679   -0.6185    0.9203 C   0  0  0  0  0  0  0  0  0  0  0  0
   -0.4899    0.4453    0.2701 O   0  0  0  0  0  0  0  0  0  0  0  0
    0.7816   -1.1315    1.5152 N   0  0  0  0  0  0  0  0  0  0  0  0
    2.1198   -0.6074    1.5290 C   0  0  2  0  0  0  0  0  0  0  0  0
    3.0699   -1.7380    1.4226 C   0  0  0  0  0  0  0  0  0  0  0  0
    2.6801   -2.9545    1.3855 O   0  0  0  0  0  0  0  0  0  0  0  0
    4.4629   -1.3977    1.3662 N   0  0  0  0  0  0  0  0  0  0  0  0
    5.4528   -2.4872    1.2813 C   0  0  2  0  0  0  0  0  0  0  0  0
    6.4809   -2.2782    2.2666 C   0  0  0  0  0  0  0  0  0  0  0  0
    6.5110   -1.1832    2.9215 O   0  0  0  0  0  0  0  0  0  0  0  0
    7.4960   -3.2347    2.5806 N   0  0  0  0  0  0  0  0  0  0  0  0
    5.9400   -2.6176   -0.1184 C   0  0  0  0  0  0  0  0  0  0  0  0
    6.5551   -1.4341   -0.7135 C   0  0  0  0  0  0  0  0  0  0  0  0
    5.8321   -0.5606   -1.5598 C   0  0  0  0  0  0  0  0  0  0  0  0
    6.5996    0.4402   -1.9428 N   0  0  0  0  0  0  0  0  0  0  0  0
    7.8335    0.3180   -1.4081 C   0  0  0  0  0  0  0  0  0  0  0  0
    7.7917   -0.8483   -0.6483 C   0  0  0  0  0  0  0  0  0  0  0  0
    8.9403   -1.2315    0.0137 C   0  0  0  0  0  0  0  0  0  0  0  0
   10.0648   -0.4662   -0.0928 C   0  0  0  0  0  0  0  0  0  0  0  0
   10.1596    0.6916   -0.8258 C   0  0  0  0  0  0  0  0  0  0  0  0
    8.9929    1.0738   -1.4952 C   0  0  0  0  0  0  0  0  0  0  0  0
    2.3931    0.2176    2.7774 C   0  0  0  0  0  0  0  0  0  0  0  0
    1.5193    1.4374    2.8684 C   0  0  0  0  0  0  0  0  0  0  0  0
    1.8008    2.4068    1.7246 C   0  0  0  0  0  0  0  0  0  0  0  0
    0.9451    3.5715    1.8549 N   0  0  0  0  0  0  0  0  0  0  0  0
    0.8740    4.4534    0.8855 C   0  0  0  0  0  0  0  0  0  0  0  0
    0.0117    5.5980    1.0590 N   0  0  0  0  0  0  0  0  0  0  0  0
    1.6295    4.2894   -0.3212 N   0  0  0  0  0  0  0  0  0  0  0  0
   -1.4683   -2.6259    0.1249 C   0  0  0  0  0  0  0  0  0  0  0  0
   -1.3002   -2.1699   -1.2869 C   0  0  0  0  0  0  0  0  0  0  0  0
   -2.3641   -1.9700   -2.1405 C   0  0  0  0  0  0  0  0  0  0  0  0
   -2.1119   -1.5412   -3.4488 C   0  0  0  0  0  0  0  0  0  0  0  0
   -0.8451   -1.3101   -3.9194 C   0  0  0  0  0  0  0  0  0  0  0  0
    0.2106   -1.5145   -3.0529 C   0  0  0  0  0  0  0  0  0  0  0  0
   -0.0014   -1.9366   -1.7594 C   0  0  0  0  0  0  0  0  0  0  0  0
   -6.4160   -1.0973    1.1543 C   0  0  0  0  0  0  0  0  0  0  0  0
   -6.3938   -1.8019   -0.1367 C   0  0  0  0  0  0  0  0  0  0  0  0
   -5.7829   -3.0486   -0.3166 C   0  0  0  0  0  0  0  0  0  0  0  0
   -5.7828   -3.6842   -1.5360 C   0  0  0  0  0  0  0  0  0  0  0  0
   -6.4005   -3.0815   -2.6186 C   0  0  0  0  0  0  0  0  0  0  0  0
   -6.9994   -1.8554   -2.4378 C   0  0  0  0  0  0  0  0  0  0  0  0
   -7.0106   -1.1961   -1.2125 C   0  0  0  0  0  0  0  0  0  0  0  0
   -6.4293   -3.8472   -4.1936 Cl  0  0  0  0  0  0  0  0  0  0  0  0
   -4.5533    3.5934   -1.0974 C   0  0  0  0  0  0  0  0  0  0  0  0
   -6.2113    4.5568    0.4333 C   0  0  0  0  0  0  0  0  0  0  0  0
   -7.7296    2.4107   -0.9782 H   0  0  0  0  0  0  0  0  0  0  0  0
   -6.5525    2.6357   -2.3262 H   0  0  0  0  0  0  0  0  0  0  0  0
   -7.4002    4.0527   -1.5729 H   0  0  0  0  0  0  0  0  0  0  0  0
   -5.1627    0.6165   -0.7236 H   0  0  0  0  0  0  0  0  0  0  0  0
   -5.4996    0.3783    2.3336 H   0  0  0  0  0  0  0  0  0  0  0  0
   -2.8809   -0.0293   -0.1432 H   0  0  0  0  0  0  0  0  0  0  0  0
   -1.7671   -1.8246    2.0563 H   0  0  0  0  0  0  0  0  0  0  0  0
    0.6662   -2.0565    2.0489 H   0  0  0  0  0  0  0  0  0  0  0  0
    2.3081    0.1009    0.6907 H   0  0  0  0  0  0  0  0  0  0  0  0
    4.8143   -0.4360    1.3859 H   0  0  0  0  0  0  0  0  0  0  0  0
    4.8791   -3.4747    1.4663 H   0  0  0  0  0  0  0  0  0  0  0  0
    7.1925   -4.2503    2.6727 H   0  0  0  0  0  0  0  0  0  0  0  0
    8.4886   -3.0116    2.7275 H   0  0  0  0  0  0  0  0  0  0  0  0
    5.1385   -3.0174   -0.8062 H   0  0  0  0  0  0  0  0  0  0  0  0
    6.7299   -3.4349   -0.1910 H   0  0  0  0  0  0  0  0  0  0  0  0
    4.7877   -0.6903   -1.8585 H   0  0  0  0  0  0  0  0  0  0  0  0
    6.2679    1.2153   -2.5761 H   0  0  0  0  0  0  0  0  0  0  0  0
    8.9166   -2.1233    0.5789 H   0  0  0  0  0  0  0  0  0  0  0  0
   10.9541   -0.7976    0.4432 H   0  0  0  0  0  0  0  0  0  0  0  0
   11.0320    1.3036   -0.9156 H   0  0  0  0  0  0  0  0  0  0  0  0
    8.9406    1.9605   -2.1060 H   0  0  0  0  0  0  0  0  0  0  0  0
    2.2769   -0.3704    3.7032 H   0  0  0  0  0  0  0  0  0  0  0  0
    3.4454    0.5900    2.7088 H   0  0  0  0  0  0  0  0  0  0  0  0
    1.6357    1.9565    3.8455 H   0  0  0  0  0  0  0  0  0  0  0  0
    0.4479    1.1718    2.7579 H   0  0  0  0  0  0  0  0  0  0  0  0
    2.8790    2.7078    1.7427 H   0  0  0  0  0  0  0  0  0  0  0  0
    1.6369    1.9696    0.7359 H   0  0  0  0  0  0  0  0  0  0  0  0
    0.1458    6.3887    0.3579 H   0  0  0  0  0  0  0  0  0  0  0  0
   -0.6828    5.6300    1.8213 H   0  0  0  0  0  0  0  0  0  0  0  0
    1.4104    3.5589   -1.0286 H   0  0  0  0  0  0  0  0  0  0  0  0
    2.4323    4.9630   -0.4537 H   0  0  0  0  0  0  0  0  0  0  0  0
   -2.3058   -3.3446    0.2148 H   0  0  0  0  0  0  0  0  0  0  0  0
   -0.5591   -3.1865    0.4441 H   0  0  0  0  0  0  0  0  0  0  0  0
   -3.3741   -2.1387   -1.8124 H   0  0  0  0  0  0  0  0  0  0  0  0
   -2.9343   -1.3799   -4.1521 H   0  0  0  0  0  0  0  0  0  0  0  0
   -0.6200   -0.9763   -4.9307 H   0  0  0  0  0  0  0  0  0  0  0  0
    1.2471   -1.3573   -3.3375 H   0  0  0  0  0  0  0  0  0  0  0  0
    0.8333   -2.1021   -1.0902 H   0  0  0  0  0  0  0  0  0  0  0  0
   -7.3949   -0.6528    1.3226 H   0  0  0  0  0  0  0  0  0  0  0  0
   -6.2926   -1.8304    2.0169 H   0  0  0  0  0  0  0  0  0  0  0  0
   -5.3176   -3.4573    0.5779 H   0  0  0  0  0  0  0  0  0  0  0  0
   -5.3007   -4.6299   -1.6075 H   0  0  0  0  0  0  0  0  0  0  0  0
   -7.5064   -1.3319   -3.2571 H   0  0  0  0  0  0  0  0  0  0  0  0
   -7.4871   -0.2303   -1.0844 H   0  0  0  0  0  0  0  0  0  0  0  0
   -3.6460    3.4512   -0.4644 H   0  0  0  0  0  0  0  0  0  0  0  0
   -4.5293    3.0321   -2.0497 H   0  0  0  0  0  0  0  0  0  0  0  0
   -4.6067    4.6799   -1.3639 H   0  0  0  0  0  0  0  0  0  0  0  0
   -5.2828    5.0176    0.7721 H   0  0  0  0  0  0  0  0  0  0  0  0
   -6.8735    5.2298   -0.1454 H   0  0  0  0  0  0  0  0  0  0  0  0
   -6.7630    4.2036    1.3541 H   0  0  0  0  0  0  0  0  0  0  0  0
  1  2  1  0
  2  3  1  0
  3  4  2  0
  3  5  1  0
  5  6  1  0
  6  7  1  0
  7  8  2  0
  7  9  1  0
  9 10  1  0
 10 11  1  0
 11 12  2  0
 11 13  1  0
 13 14  1  0
 14 15  1  0
 15 16  2  0
 15 17  1  0
 17 18  1  0
 18 19  1  0
 19 20  2  0
 19 21  1  0
 18 22  1  0
 22 23  1  0
 23 24  2  0
 24 25  1  0
 25 26  1  0
 26 27  2  0
 27 28  1  0
 28 29  2  0
 29 30  1  0
 30 31  2  0
 14 32  1  0
 32 33  1  0
 33 34  1  0
 34 35  1  0
 35 36  2  3
 36 37  1  0
 36 38  1  0
 10 39  1  0
 39 40  1  0
 40 41  2  0
 41 42  1  0
 42 43  2  0
 43 44  1  0
 44 45  2  0
  6 46  1  0
 46 47  1  0
 47 48  2  0
 48 49  1  0
 49 50  2  0
 50 51  1  0
 51 52  2  0
 50 53  1  0
  2 54  1  0
  2 55  1  0
 27 23  1  0
 45 40  1  0
 52 47  1  0
 31 26  1  0
  1 56  1  0
  1 57  1  0
  1 58  1  0
  5 59  1  0
  6 60  1  1
  9 61  1  0
 10 62  1  1
 13 63  1  0
 14 64  1  6
 17 65  1  0
 18 66  1  1
 21 67  1  0
 21 68  1  0
 22 69  1  0
 22 70  1  0
 24 71  1  0
 25 72  1  0
 28 73  1  0
 29 74  1  0
 30 75  1  0
 31 76  1  0
 32 77  1  0
 32 78  1  0
 33 79  1  0
 33 80  1  0
 34 81  1  0
 34 82  1  0
 37 83  1  0
 37 84  1  0
 38 85  1  0
 38 86  1  0
 39 87  1  0
 39 88  1  0
 41 89  1  0
 42 90  1  0
 43 91  1  0
 44 92  1  0
 45 93  1  0
 46 94  1  0
 46 95  1  0
 48 96  1  0
 49 97  1  0
 51 98  1  0
 52 99  1  0
 54100  1  0
 54101  1  0
 54102  1  0
 55103  1  0
 55104  1  0
 55105  1  0
M  END
>  <Ligand ID>  (1) 
LIG0003377

>  <Ligand>  (1) 
CHEMBL359927

>  <SMILES>  (1) 
CC(C(=O)N[C@H](C(=O)N[C@H](C(=O)N[C@H](C(=O)N[C@H](C(=O)N)Cc1c[nH]c2c1cccc2)CCCN=C(N)N)Cc1ccccc1)Cc1ccc(cc1)Cl)(C)C

>  <CID>  (1) 
44394583.0

>  <ChEMBL ID>  (1) 
nan

>  <InChiKey>  (1) 
MKJYOULUARVHOV-YRCZKMHPSA-N

>  <InChi>  (1) 
InChI=1S/C40H50ClN9O5/c1-40(2,3)38(55)50-33(21-25-15-17-27(41)18-16-25)37(54)49-32(20-24-10-5-4-6-11-24)36(53)47-30(14-9-19-45-39(43)44)35(52)48-31(34(42)51)22-26-23-46-29-13-8-7-12-28(26)29/h4-8,10-13,15-18,23,30-33,46H,9,14,19-22H2,1-3H3,(H2,42,51)(H,47,53)(H,48,52)(H,49,54)(H,50,55)(H4,43,44,45)/t30-,31-,32-,33-/m0/s1

>  <IUPAC Name>  (1) 
(2S)-N-[(2S)-1-amino-3-(1H-indol-3-yl)-1-oxopropan-2-yl]-2-[[(2S)-2-[[(2S)-3-(4-chlorophenyl)-2-(2,2-dimethylpropanoylamino)propanoyl]amino]-3-phenylpropanoyl]amino]-5-(diaminomethylideneamino)pentanamide

$$$$
