
     RDKit          3D

 29 30  0  0  0  0  0  0  0  0999 V2000
    4.1987   -0.0005   -0.6846 C   0  0  0  0  0  0  0  0  0  0  0  0
    2.7414    0.3885   -0.3791 C   0  0  0  0  0  0  0  0  0  0  0  0
    2.1691   -0.4946    0.6659 C   0  0  0  0  0  0  0  0  0  0  0  0
    0.7190   -0.2078    1.0367 C   0  0  0  0  0  0  0  0  0  0  0  0
   -0.2430   -0.4174   -0.0354 C   0  0  0  0  0  0  0  0  0  0  0  0
    0.0176   -1.0950   -1.2189 C   0  0  0  0  0  0  0  0  0  0  0  0
   -0.9657   -1.2542   -2.1993 C   0  0  0  0  0  0  0  0  0  0  0  0
   -0.7132   -1.8753   -3.2791 O   0  0  0  0  0  0  0  0  0  0  0  0
   -2.1737   -0.7778   -2.0521 O   0  0  0  0  0  0  0  0  0  0  0  0
   -2.4698   -0.1332   -0.9533 C   0  0  0  0  0  0  0  0  0  0  0  0
   -1.5508    0.0719    0.0741 C   0  0  0  0  0  0  0  0  0  0  0  0
   -1.9979    0.7567    1.1662 C   0  0  0  0  0  0  0  0  0  0  0  0
   -1.2553    0.9873    2.1372 O   0  0  0  0  0  0  0  0  0  0  0  0
   -3.2709    1.2160    1.2461 N   0  0  0  0  0  0  0  0  0  0  0  0
   -4.1351    1.0164    0.2623 C   0  0  0  0  0  0  0  0  0  0  0  0
   -5.3008    1.4657    0.3927 O   0  0  0  0  0  0  0  0  0  0  0  0
   -3.7305    0.3414   -0.8352 N   0  0  0  0  0  0  0  0  0  0  0  0
    4.3983    0.1725   -1.7597 H   0  0  0  0  0  0  0  0  0  0  0  0
    4.3442   -1.1052   -0.5249 H   0  0  0  0  0  0  0  0  0  0  0  0
    4.9111    0.5280   -0.0169 H   0  0  0  0  0  0  0  0  0  0  0  0
    2.2015    0.3513   -1.3290 H   0  0  0  0  0  0  0  0  0  0  0  0
    2.7940    1.4617   -0.0635 H   0  0  0  0  0  0  0  0  0  0  0  0
    2.7616   -0.2852    1.6067 H   0  0  0  0  0  0  0  0  0  0  0  0
    2.3369   -1.5708    0.4887 H   0  0  0  0  0  0  0  0  0  0  0  0
    0.7642    0.8898    1.2854 H   0  0  0  0  0  0  0  0  0  0  0  0
    0.5189   -0.8316    1.9306 H   0  0  0  0  0  0  0  0  0  0  0  0
    0.9596   -1.5403   -1.4256 H   0  0  0  0  0  0  0  0  0  0  0  0
   -3.5830    1.7412    2.1057 H   0  0  0  0  0  0  0  0  0  0  0  0
   -4.4466    0.2006   -1.5994 H   0  0  0  0  0  0  0  0  0  0  0  0
  1  2  1  0
  2  3  1  0
  3  4  1  0
  4  5  1  0
  5  6  2  0
  6  7  1  0
  7  8  2  0
  7  9  1  0
  9 10  1  0
 10 11  2  0
 11 12  1  0
 12 13  2  0
 12 14  1  0
 14 15  1  0
 15 16  2  0
 15 17  1  0
 11  5  1  0
 17 10  1  0
  1 18  1  0
  1 19  1  0
  1 20  1  0
  2 21  1  0
  2 22  1  0
  3 23  1  0
  3 24  1  0
  4 25  1  0
  4 26  1  0
  6 27  1  0
 14 28  1  0
 17 29  1  0
M  END
>  <Ligand ID>  (1) 
LIG0001867

>  <Ligand>  (1) 
CHEMBL2036813

>  <SMILES>  (1) 
CCCCc1cc(=O)oc2c1c(=O)[nH]c(=O)[nH]2

>  <CID>  (1) 
15605571.0

>  <ChEMBL ID>  (1) 
nan

>  <InChiKey>  (1) 
HJPYUWOIOYQZJD-UHFFFAOYSA-N

>  <InChi>  (1) 
InChI=1S/C11H12N2O4/c1-2-3-4-6-5-7(14)17-10-8(6)9(15)12-11(16)13-10/h5H,2-4H2,1H3,(H2,12,13,15,16)

>  <IUPAC Name>  (1) 
5-butyl-1H-pyrano[2,3-d]pyrimidine-2,4,7-trione

$$$$
