
     RDKit          3D

 42 44  0  0  0  0  0  0  0  0999 V2000
    2.6143   -2.2313    0.9361 C   0  0  0  0  0  0  0  0  0  0  0  0
    3.2682   -1.1547    0.1466 C   0  0  0  0  0  0  0  0  0  0  0  0
    4.6058   -1.1775   -0.1939 C   0  0  0  0  0  0  0  0  0  0  0  0
    5.2085   -0.1763   -0.9267 C   0  0  0  0  0  0  0  0  0  0  0  0
    4.4609    0.9053   -1.3487 C   0  0  0  0  0  0  0  0  0  0  0  0
    3.1242    0.9240   -1.0061 C   0  0  0  0  0  0  0  0  0  0  0  0
    2.5197   -0.0782   -0.2722 C   0  0  0  0  0  0  0  0  0  0  0  0
    1.1351    0.0739    0.0066 N   0  0  0  0  0  0  0  0  0  0  0  0
    0.0334   -0.8274   -0.3826 C   0  0  0  0  0  0  0  0  0  0  0  0
   -1.0261    0.2087   -0.6029 C   0  0  0  0  0  0  0  0  0  0  0  0
   -0.7308    1.2384    0.4125 N   0  0  0  0  0  0  0  0  0  0  0  0
    0.4904    1.1151    0.7166 C   0  0  0  0  0  0  0  0  0  0  0  0
    0.8930    2.3561    1.9864 S   0  0  0  0  0  0  0  0  0  0  0  0
   -0.8880    2.5027    2.4688 C   0  0  0  0  0  0  0  0  0  0  0  0
   -1.4438    2.2876    1.0853 C   0  0  0  0  0  0  0  0  0  0  0  0
   -0.7650    0.7562   -1.8767 O   0  0  0  0  0  0  0  0  0  0  0  0
   -2.4000   -0.2725   -0.5617 C   0  0  0  0  0  0  0  0  0  0  0  0
   -3.5202    0.5097   -0.7487 C   0  0  0  0  0  0  0  0  0  0  0  0
   -4.7999    0.0017   -0.6981 C   0  0  0  0  0  0  0  0  0  0  0  0
   -5.0277   -1.3364   -0.4540 C   0  0  0  0  0  0  0  0  0  0  0  0
   -3.9291   -2.1363   -0.2644 C   0  0  0  0  0  0  0  0  0  0  0  0
   -2.6463   -1.6271   -0.3151 C   0  0  0  0  0  0  0  0  0  0  0  0
    0.0000    0.0000    0.0000 Br  0  0  0  0  0  0  0  0  0  0  0  0
    1.8822   -2.8107    0.3506 H   0  0  0  0  0  0  0  0  0  0  0  0
    2.0873   -1.8090    1.8307 H   0  0  0  0  0  0  0  0  0  0  0  0
    3.4418   -2.9069    1.2773 H   0  0  0  0  0  0  0  0  0  0  0  0
    5.2036   -2.0111    0.1256 H   0  0  0  0  0  0  0  0  0  0  0  0
    6.2490   -0.1877   -1.1952 H   0  0  0  0  0  0  0  0  0  0  0  0
    4.9005    1.7098   -1.9257 H   0  0  0  0  0  0  0  0  0  0  0  0
    2.5468    1.7792   -1.3433 H   0  0  0  0  0  0  0  0  0  0  0  0
    0.2918   -1.4097   -1.2682 H   0  0  0  0  0  0  0  0  0  0  0  0
   -0.1343   -1.4602    0.5267 H   0  0  0  0  0  0  0  0  0  0  0  0
   -1.0941    1.6929    3.1634 H   0  0  0  0  0  0  0  0  0  0  0  0
   -1.1203    3.5152    2.7934 H   0  0  0  0  0  0  0  0  0  0  0  0
   -1.3401    3.2670    0.5634 H   0  0  0  0  0  0  0  0  0  0  0  0
   -2.5114    2.0211    1.2350 H   0  0  0  0  0  0  0  0  0  0  0  0
   -0.5503    1.7173   -1.7922 H   0  0  0  0  0  0  0  0  0  0  0  0
   -3.3968    1.5555   -0.9422 H   0  0  0  0  0  0  0  0  0  0  0  0
   -5.6375    0.6846   -0.8564 H   0  0  0  0  0  0  0  0  0  0  0  0
   -6.0449   -1.6754   -0.4260 H   0  0  0  0  0  0  0  0  0  0  0  0
   -4.1044   -3.1967   -0.0708 H   0  0  0  0  0  0  0  0  0  0  0  0
   -1.8455   -2.3369   -0.1531 H   0  0  0  0  0  0  0  0  0  0  0  0
  1  2  1  0
  2  3  2  0
  3  4  1  0
  4  5  2  0
  5  6  1  0
  6  7  2  0
  7  8  1  0
  8  9  1  0
  9 10  1  0
 10 11  1  0
 11 12  2  0
 12 13  1  0
 13 14  1  0
 14 15  1  0
 10 16  1  0
 10 17  1  0
 17 18  2  0
 18 19  1  0
 19 20  2  0
 20 21  1  0
 21 22  2  0
  7  2  1  0
 12  8  1  0
 22 17  1  0
 15 11  1  0
  1 24  1  0
  1 25  1  0
  1 26  1  0
  3 27  1  0
  4 28  1  0
  5 29  1  0
  6 30  1  0
  9 31  1  0
  9 32  1  0
 14 33  1  0
 14 34  1  0
 15 35  1  0
 15 36  1  0
 16 37  1  0
 18 38  1  0
 19 39  1  0
 20 40  1  0
 21 41  1  0
 22 42  1  0
M  CHG  2  11   1  23  -1
M  END
>  <Ligand ID>  (1) 
LIG0003872

>  <Ligand>  (1) 
SMR000236037

>  <SMILES>  (1) 
Cc1ccccc1N1CC([N+]2=C1SCC2)(O)c1ccccc1.[Br-]

>  <CID>  (1) 
12006023.0

>  <ChEMBL ID>  (1) 
nan

>  <InChiKey>  (1) 
LJXJPKAUJPRWIS-UHFFFAOYSA-M

>  <InChi>  (1) 
InChI=1S/C18H19N2OS.BrH/c1-14-7-5-6-10-16(14)19-13-18(21,15-8-3-2-4-9-15)20-11-12-22-17(19)20;/h2-10,21H,11-13H2,1H3;1H/q+1;/p-1

>  <IUPAC Name>  (1) 
7-(2-methylphenyl)-5-phenyl-3,6-dihydro-2H-imidazo[2,1-b][1,3]thiazol-4-ium-5-ol;bromide

$$$$
