
     RDKit          3D

 58 62  0  0  0  0  0  0  0  0999 V2000
    5.5350    2.6489   -1.3910 C   0  0  0  0  0  0  0  0  0  0  0  0
    4.6621    1.7178   -1.9267 O   0  0  0  0  0  0  0  0  0  0  0  0
    5.0517    0.4394   -1.6171 C   0  0  0  0  0  0  0  0  0  0  0  0
    5.1139    0.1417   -0.1353 C   0  0  0  0  0  0  0  0  0  0  0  0
    3.8915    0.3273    0.4209 O   0  0  0  0  0  0  0  0  0  0  0  0
    2.8516   -0.4559   -0.0155 C   0  0  0  0  0  0  0  0  0  0  0  0
    1.7992    0.2854   -0.7643 C   0  0  0  0  0  0  0  0  0  0  0  0
    0.5973   -0.6746   -0.9418 C   0  0  0  0  0  0  0  0  0  0  0  0
    0.0579   -0.9513    0.3673 N   0  0  0  0  0  0  0  0  0  0  0  0
    0.9995   -1.6546    1.2345 C   0  0  0  0  0  0  0  0  0  0  0  0
    2.3473   -1.3791    1.0240 C   0  0  0  0  0  0  0  0  0  0  0  0
    3.2502   -2.0285    1.8380 C   0  0  0  0  0  0  0  0  0  0  0  0
    2.8124   -2.9198    2.8240 C   0  0  0  0  0  0  0  0  0  0  0  0
    1.4743   -3.1875    3.0248 C   0  0  0  0  0  0  0  0  0  0  0  0
    0.5586   -2.5299    2.2000 C   0  0  0  0  0  0  0  0  0  0  0  0
   -1.1967   -0.6136    0.8865 C   0  0  0  0  0  0  0  0  0  0  0  0
   -1.4332   -0.8699    2.1321 O   0  0  0  0  0  0  0  0  0  0  0  0
   -2.3293    0.0159    0.1833 C   0  0  0  0  0  0  0  0  0  0  0  0
   -2.0822    1.4228   -0.2199 C   0  0  0  0  0  0  0  0  0  0  0  0
   -3.3455    1.9936   -0.8325 C   0  0  0  0  0  0  0  0  0  0  0  0
   -3.7630    1.2350   -2.0675 C   0  0  0  0  0  0  0  0  0  0  0  0
   -4.0028   -0.1779   -1.6563 C   0  0  0  0  0  0  0  0  0  0  0  0
   -2.8302   -0.8298   -0.9577 C   0  0  0  0  0  0  0  0  0  0  0  0
   -5.1689   -0.1866   -0.6633 C   0  0  0  0  0  0  0  0  0  0  0  0
   -4.7658    0.6007    0.5353 C   0  0  0  0  0  0  0  0  0  0  0  0
   -3.5261    0.0637    1.1593 C   0  0  0  0  0  0  0  0  0  0  0  0
   -4.5022    2.0346    0.1183 C   0  0  0  0  0  0  0  0  0  0  0  0
    5.2222    3.7032   -1.6587 H   0  0  0  0  0  0  0  0  0  0  0  0
    5.4401    2.5651   -0.2661 H   0  0  0  0  0  0  0  0  0  0  0  0
    6.5780    2.5506   -1.7218 H   0  0  0  0  0  0  0  0  0  0  0  0
    4.4304   -0.2733   -2.1829 H   0  0  0  0  0  0  0  0  0  0  0  0
    6.0891    0.3215   -2.0490 H   0  0  0  0  0  0  0  0  0  0  0  0
    5.9328    0.7075    0.3004 H   0  0  0  0  0  0  0  0  0  0  0  0
    5.4572   -0.9391   -0.0908 H   0  0  0  0  0  0  0  0  0  0  0  0
    3.3163   -1.1478   -0.7875 H   0  0  0  0  0  0  0  0  0  0  0  0
    2.1554    0.5149   -1.7728 H   0  0  0  0  0  0  0  0  0  0  0  0
    1.3480    1.1442   -0.2333 H   0  0  0  0  0  0  0  0  0  0  0  0
   -0.0352   -0.1777   -1.6581 H   0  0  0  0  0  0  0  0  0  0  0  0
    0.9700   -1.6168   -1.4265 H   0  0  0  0  0  0  0  0  0  0  0  0
    4.3193   -1.9044    1.7803 H   0  0  0  0  0  0  0  0  0  0  0  0
    3.5385   -3.4301    3.4655 H   0  0  0  0  0  0  0  0  0  0  0  0
    1.0987   -3.8675    3.7734 H   0  0  0  0  0  0  0  0  0  0  0  0
   -0.4853   -2.7193    2.3049 H   0  0  0  0  0  0  0  0  0  0  0  0
   -1.9196    2.0605    0.6955 H   0  0  0  0  0  0  0  0  0  0  0  0
   -1.2970    1.5240   -0.9481 H   0  0  0  0  0  0  0  0  0  0  0  0
   -3.0836    3.0244   -1.1935 H   0  0  0  0  0  0  0  0  0  0  0  0
   -2.9954    1.3647   -2.8333 H   0  0  0  0  0  0  0  0  0  0  0  0
   -4.7516    1.6546   -2.3753 H   0  0  0  0  0  0  0  0  0  0  0  0
   -4.2451   -0.7875   -2.5430 H   0  0  0  0  0  0  0  0  0  0  0  0
   -2.0839   -1.2382   -1.6244 H   0  0  0  0  0  0  0  0  0  0  0  0
   -3.2887   -1.7407   -0.4495 H   0  0  0  0  0  0  0  0  0  0  0  0
   -6.0777    0.2273   -1.1398 H   0  0  0  0  0  0  0  0  0  0  0  0
   -5.3733   -1.2375   -0.3813 H   0  0  0  0  0  0  0  0  0  0  0  0
   -5.5729    0.5306    1.2749 H   0  0  0  0  0  0  0  0  0  0  0  0
   -3.7610   -0.9703    1.5000 H   0  0  0  0  0  0  0  0  0  0  0  0
   -3.2210    0.6212    2.0527 H   0  0  0  0  0  0  0  0  0  0  0  0
   -5.3898    2.3481   -0.4541 H   0  0  0  0  0  0  0  0  0  0  0  0
   -4.3711    2.7200    0.9676 H   0  0  0  0  0  0  0  0  0  0  0  0
  1  2  1  0
  2  3  1  0
  3  4  1  0
  4  5  1  0
  5  6  1  0
  6  7  1  0
  7  8  1  0
  8  9  1  0
  9 10  1  0
 10 11  2  0
 11 12  1  0
 12 13  2  0
 13 14  1  0
 14 15  2  0
  9 16  1  0
 16 17  2  0
 16 18  1  0
 18 19  1  0
 19 20  1  0
 20 21  1  0
 21 22  1  0
 22 23  1  0
 22 24  1  0
 24 25  1  0
 25 26  1  0
 25 27  1  0
 11  6  1  0
 26 18  1  0
 15 10  1  0
 23 18  1  0
 27 20  1  0
  1 28  1  0
  1 29  1  0
  1 30  1  0
  3 31  1  0
  3 32  1  0
  4 33  1  0
  4 34  1  0
  6 35  1  0
  7 36  1  0
  7 37  1  0
  8 38  1  0
  8 39  1  0
 12 40  1  0
 13 41  1  0
 14 42  1  0
 15 43  1  0
 19 44  1  0
 19 45  1  0
 20 46  1  0
 21 47  1  0
 21 48  1  0
 22 49  1  0
 23 50  1  0
 23 51  1  0
 24 52  1  0
 24 53  1  0
 25 54  1  0
 26 55  1  0
 26 56  1  0
 27 57  1  0
 27 58  1  0
M  END
>  <Ligand ID>  (1) 
LIG0002019

>  <Ligand>  (1) 
CHEMBL2338176

>  <SMILES>  (1) 
COCCOC1CCN(c2c1cccc2)C(=O)C12CC3CC(C2)CC(C1)C3

>  <CID>  (1) 
71559419.0

>  <ChEMBL ID>  (1) 
nan

>  <InChiKey>  (1) 
SXVNZFOIDCRHRH-UHFFFAOYSA-N

>  <InChi>  (1) 
InChI=1S/C23H31NO3/c1-26-8-9-27-21-6-7-24(20-5-3-2-4-19(20)21)22(25)23-13-16-10-17(14-23)12-18(11-16)15-23/h2-5,16-18,21H,6-15H2,1H3

>  <IUPAC Name>  (1) 
1-adamantyl-[4-(2-methoxyethoxy)-3,4-dihydro-2H-quinolin-1-yl]methanone

$$$$
