
     RDKit          3D

 24 25  0  0  0  0  0  0  0  0999 V2000
    3.8892    0.3132    0.2911 O   0  0  0  0  0  0  0  0  0  0  0  0
    2.7599   -0.4466    0.5301 C   0  0  0  0  0  0  0  0  0  0  0  0
    2.7762   -1.3850    1.3911 O   0  0  0  0  0  0  0  0  0  0  0  0
    1.5066   -0.1725   -0.2221 C   0  0  1  0  0  0  0  0  0  0  0  0
    0.6041   -1.3214   -0.3921 C   0  0  1  0  0  0  0  0  0  0  0  0
    0.2775   -0.2012    0.6223 C   0  0  2  0  0  0  0  0  0  0  0  0
   -0.9482    0.4682    0.0305 C   0  0  2  0  0  0  0  0  0  0  0  0
   -1.6622   -0.7434   -0.5338 C   0  0  0  0  0  0  0  0  0  0  0  0
   -0.5337   -1.3343   -1.3591 C   0  0  0  0  0  0  0  0  0  0  0  0
   -1.9989   -1.6048    0.4852 F   0  0  0  0  0  0  0  0  0  0  0  0
   -2.7431   -0.3922   -1.3075 F   0  0  0  0  0  0  0  0  0  0  0  0
   -0.5440    1.2894   -1.0853 N   0  0  0  0  0  0  0  0  0  0  0  0
   -1.7470    1.1820    1.0216 C   0  0  0  0  0  0  0  0  0  0  0  0
   -2.1473    0.5342    2.0407 O   0  0  0  0  0  0  0  0  0  0  0  0
   -2.1158    2.5105    0.9598 O   0  0  0  0  0  0  0  0  0  0  0  0
    4.7924   -0.1625    0.4345 H   0  0  0  0  0  0  0  0  0  0  0  0
    1.5475    0.6517   -0.9561 H   0  0  0  0  0  0  0  0  0  0  0  0
    0.8817   -2.3062    0.0225 H   0  0  0  0  0  0  0  0  0  0  0  0
    0.2716   -0.5364    1.6632 H   0  0  0  0  0  0  0  0  0  0  0  0
   -0.7675   -2.3555   -1.7149 H   0  0  0  0  0  0  0  0  0  0  0  0
   -0.3894   -0.6320   -2.2223 H   0  0  0  0  0  0  0  0  0  0  0  0
   -0.2688    2.2537   -0.7960 H   0  0  0  0  0  0  0  0  0  0  0  0
   -1.3262    1.2791   -1.7713 H   0  0  0  0  0  0  0  0  0  0  0  0
   -2.1145    3.1121    1.7734 H   0  0  0  0  0  0  0  0  0  0  0  0
  1  2  1  0
  2  3  2  0
  2  4  1  0
  4  5  1  0
  5  6  1  0
  6  7  1  0
  7  8  1  0
  8  9  1  0
  8 10  1  0
  8 11  1  0
  7 12  1  6
  7 13  1  0
 13 14  2  0
 13 15  1  0
  6  4  1  0
  9  5  1  0
  1 16  1  0
  4 17  1  6
  5 18  1  1
  6 19  1  1
  9 20  1  0
  9 21  1  0
 12 22  1  0
 12 23  1  0
 15 24  1  0
M  END
>  <Ligand ID>  (1) 
LIG0005733

>  <Ligand>  (1) 
CHEMBL144201

>  <SMILES>  (1) 
OC(=O)[C@H]1[C@H]2[C@@H]1[C@](C(C2)(F)F)(N)C(=O)O

>  <CID>  (1) 
10176836.0

>  <ChEMBL ID>  (1) 
nan

>  <InChiKey>  (1) 
BYEDBNFXHDLGBU-NHDVCMSYSA-N

>  <InChi>  (1) 
InChI=1S/C8H9F2NO4/c9-7(10)1-2-3(5(12)13)4(2)8(7,11)6(14)15/h2-4H,1,11H2,(H,12,13)(H,14,15)/t2-,3-,4-,8-/m0/s1

>  <IUPAC Name>  (1) 
(1S,2S,5R,6S)-2-amino-3,3-difluorobicyclo[3.1.0]hexane-2,6-dicarboxylic acid

$$$$
