
     RDKit          3D

 30 30  0  0  0  0  0  0  0  0999 V2000
   -4.2461   -0.0497    0.1498 C   0  0  0  0  0  0  0  0  0  0  0  0
   -3.6629   -1.0011   -0.8541 C   0  0  0  0  0  0  0  0  0  0  0  0
   -2.2302   -1.3402   -0.5023 C   0  0  0  0  0  0  0  0  0  0  0  0
   -1.4457   -0.0538   -0.5021 C   0  0  0  0  0  0  0  0  0  0  0  0
    0.0288   -0.3035   -0.1535 C   0  0  0  0  0  0  0  0  0  0  0  0
    0.6717    1.0549   -0.1930 C   0  0  0  0  0  0  0  0  0  0  0  0
    2.1241    1.0683    0.1166 C   0  0  0  0  0  0  0  0  0  0  0  0
    2.9559    0.2417   -0.8243 C   0  0  0  0  0  0  0  0  0  0  0  0
    4.2832    0.2068   -0.0939 C   0  0  0  0  0  0  0  0  0  0  0  0
    3.8423    0.3186    1.3246 C   0  0  0  0  0  0  0  0  0  0  0  0
    4.5663    0.2001    2.3619 O   0  0  0  0  0  0  0  0  0  0  0  0
    2.4787    0.5806    1.3682 O   0  0  0  0  0  0  0  0  0  0  0  0
   -3.5828   -0.0481    1.0529 H   0  0  0  0  0  0  0  0  0  0  0  0
   -5.2378   -0.3883    0.5129 H   0  0  0  0  0  0  0  0  0  0  0  0
   -4.2901    0.9629   -0.2496 H   0  0  0  0  0  0  0  0  0  0  0  0
   -3.6371   -0.4958   -1.8392 H   0  0  0  0  0  0  0  0  0  0  0  0
   -4.2814   -1.9186   -0.9790 H   0  0  0  0  0  0  0  0  0  0  0  0
   -2.2608   -1.6911    0.5577 H   0  0  0  0  0  0  0  0  0  0  0  0
   -1.8350   -2.0988   -1.1725 H   0  0  0  0  0  0  0  0  0  0  0  0
   -1.4400    0.4127   -1.5092 H   0  0  0  0  0  0  0  0  0  0  0  0
   -1.8024    0.6211    0.2945 H   0  0  0  0  0  0  0  0  0  0  0  0
    0.4917   -1.0115   -0.8770 H   0  0  0  0  0  0  0  0  0  0  0  0
    0.0496   -0.7635    0.8614 H   0  0  0  0  0  0  0  0  0  0  0  0
    0.0967    1.7324    0.4546 H   0  0  0  0  0  0  0  0  0  0  0  0
    0.5683    1.4009   -1.2572 H   0  0  0  0  0  0  0  0  0  0  0  0
    2.4684    2.1153    0.0350 H   0  0  0  0  0  0  0  0  0  0  0  0
    2.5509   -0.7911   -0.8499 H   0  0  0  0  0  0  0  0  0  0  0  0
    3.0496    0.6977   -1.8294 H   0  0  0  0  0  0  0  0  0  0  0  0
    4.9067    1.0910   -0.3435 H   0  0  0  0  0  0  0  0  0  0  0  0
    4.8193   -0.7498   -0.2563 H   0  0  0  0  0  0  0  0  0  0  0  0
  1  2  1  0
  2  3  1  0
  3  4  1  0
  4  5  1  0
  5  6  1  0
  6  7  1  0
  7  8  1  0
  8  9  1  0
  9 10  1  0
 10 11  2  0
 10 12  1  0
 12  7  1  0
  1 13  1  0
  1 14  1  0
  1 15  1  0
  2 16  1  0
  2 17  1  0
  3 18  1  0
  3 19  1  0
  4 20  1  0
  4 21  1  0
  5 22  1  0
  5 23  1  0
  6 24  1  0
  6 25  1  0
  7 26  1  0
  8 27  1  0
  8 28  1  0
  9 29  1  0
  9 30  1  0
M  END
>  <Ligand ID>  (1) 
LIG0000624

>  <Ligand>  (1) 
Gamma-Decalactone

>  <SMILES>  (1) 
CCCCCCC1CCC(=O)O1

>  <CID>  (1) 
12813.0

>  <ChEMBL ID>  (1) 
nan

>  <InChiKey>  (1) 
IFYYFLINQYPWGJ-UHFFFAOYSA-N

>  <InChi>  (1) 
InChI=1S/C10H18O2/c1-2-3-4-5-6-9-7-8-10(11)12-9/h9H,2-8H2,1H3

>  <IUPAC Name>  (1) 
5-hexyloxolan-2-one

$$$$
