
     RDKit          3D

 31 33  0  0  0  0  0  0  0  0999 V2000
    0.7533   -2.6768    1.6991 Br  0  0  0  0  0  0  0  0  0  0  0  0
    0.8029   -1.0401    0.6989 C   0  0  0  0  0  0  0  0  0  0  0  0
   -0.4048   -0.4426    0.3233 C   0  0  0  0  0  0  0  0  0  0  0  0
   -0.2935    0.7266   -0.3904 C   0  0  0  0  0  0  0  0  0  0  0  0
    0.9396    1.2888   -0.7236 C   0  0  0  0  0  0  0  0  0  0  0  0
    2.1127    0.6762   -0.3392 C   0  0  0  0  0  0  0  0  0  0  0  0
    2.0238   -0.4973    0.3774 C   0  0  0  0  0  0  0  0  0  0  0  0
    3.2275   -1.1393    0.7802 N   0  0  0  0  0  0  0  0  0  0  0  0
    4.4159   -0.8370   -0.0169 C   0  0  0  0  0  0  0  0  0  0  0  0
    4.5591    0.6751    0.0344 C   0  0  0  0  0  0  0  0  0  0  0  0
    3.3909    1.2121   -0.6560 N   0  0  0  0  0  0  0  0  0  0  0  0
   -1.6408   -1.0407    0.6829 N   0  0  0  0  0  0  0  0  0  0  0  0
   -2.9097   -0.5098    0.3221 C   0  0  0  0  0  0  0  0  0  0  0  0
   -3.1469    0.0270   -0.8142 N   0  0  0  0  0  0  0  0  0  0  0  0
   -4.5174    0.4782   -0.9059 C   0  0  0  0  0  0  0  0  0  0  0  0
   -4.9648    0.4728    0.5332 C   0  0  0  0  0  0  0  0  0  0  0  0
   -4.0714   -0.4932    1.1357 N   0  0  0  0  0  0  0  0  0  0  0  0
   -1.1556    1.2563   -0.7188 H   0  0  0  0  0  0  0  0  0  0  0  0
    1.0280    2.2055   -1.2833 H   0  0  0  0  0  0  0  0  0  0  0  0
    3.2305   -1.7755    1.5911 H   0  0  0  0  0  0  0  0  0  0  0  0
    4.2222   -1.0726   -1.1014 H   0  0  0  0  0  0  0  0  0  0  0  0
    5.3098   -1.3556    0.3764 H   0  0  0  0  0  0  0  0  0  0  0  0
    4.4935    1.0013    1.1034 H   0  0  0  0  0  0  0  0  0  0  0  0
    5.4696    1.0255   -0.4789 H   0  0  0  0  0  0  0  0  0  0  0  0
    3.4811    1.9725   -1.3679 H   0  0  0  0  0  0  0  0  0  0  0  0
   -1.6071   -1.9226    1.2481 H   0  0  0  0  0  0  0  0  0  0  0  0
   -5.1460   -0.2740   -1.4325 H   0  0  0  0  0  0  0  0  0  0  0  0
   -4.5987    1.4825   -1.3681 H   0  0  0  0  0  0  0  0  0  0  0  0
   -6.0294    0.1841    0.6446 H   0  0  0  0  0  0  0  0  0  0  0  0
   -4.7649    1.4789    0.9744 H   0  0  0  0  0  0  0  0  0  0  0  0
   -4.2092   -1.0864    1.9990 H   0  0  0  0  0  0  0  0  0  0  0  0
  1  2  1  0
  2  3  2  0
  3  4  1  0
  4  5  2  0
  5  6  1  0
  6  7  2  0
  7  8  1  0
  8  9  1  0
  9 10  1  0
 10 11  1  0
  3 12  1  0
 12 13  1  0
 13 14  2  0
 14 15  1  0
 15 16  1  0
 16 17  1  0
  7  2  1  0
 17 13  1  0
 11  6  1  0
  4 18  1  0
  5 19  1  0
  8 20  1  0
  9 21  1  0
  9 22  1  0
 10 23  1  0
 10 24  1  0
 11 25  1  0
 12 26  1  0
 15 27  1  0
 15 28  1  0
 16 29  1  0
 16 30  1  0
 17 31  1  0
M  END
>  <Ligand ID>  (1) 
LIG0003230

>  <Ligand>  (1) 
CHEMBL74283

>  <SMILES>  (1) 
Brc1c(ccc2c1NCCN2)NC1=NCCN1

>  <CID>  (1) 
131829.0

>  <ChEMBL ID>  (1) 
nan

>  <InChiKey>  (1) 
CETMNKCDAHCKRC-UHFFFAOYSA-N

>  <InChi>  (1) 
InChI=1S/C11H14BrN5/c12-9-7(17-11-15-5-6-16-11)1-2-8-10(9)14-4-3-13-8/h1-2,13-14H,3-6H2,(H2,15,16,17)

>  <IUPAC Name>  (1) 
5-bromo-N-(4,5-dihydro-1H-imidazol-2-yl)-1,2,3,4-tetrahydroquinoxalin-6-amine

$$$$
