
     RDKit          3D

 44 48  0  0  0  0  0  0  0  0999 V2000
   -2.8080   -1.8221   -1.9624 C   0  0  0  0  0  0  0  0  0  0  0  0
   -2.0079   -0.7220   -1.4034 N   0  0  0  0  0  0  0  0  0  0  0  0
   -0.8676   -0.6004   -2.2617 C   0  0  0  0  0  0  0  0  0  0  0  0
    0.2172    0.3200   -1.7737 C   0  0  0  0  0  0  0  0  0  0  0  0
    0.3486    0.2448   -0.2430 C   0  0  2  0  0  0  0  0  0  0  0  0
   -0.2429   -1.0641    0.1223 C   0  0  2  0  0  0  0  0  0  0  0  0
   -1.7069   -1.1003   -0.0363 C   0  0  1  0  0  0  0  0  0  0  0  0
   -2.4275   -0.0821    0.8370 C   0  0  0  0  0  0  0  0  0  0  0  0
   -1.7601    1.2514    0.7257 C   0  0  0  0  0  0  0  0  0  0  0  0
   -0.4908    1.4138    0.2321 C   0  0  0  0  0  0  0  0  0  0  0  0
    0.0690    2.6716    0.1538 C   0  0  0  0  0  0  0  0  0  0  0  0
   -0.6234    3.7985    0.5660 C   0  0  0  0  0  0  0  0  0  0  0  0
   -1.8998    3.6230    1.0610 C   0  0  0  0  0  0  0  0  0  0  0  0
   -2.4686    2.3600    1.1423 C   0  0  0  0  0  0  0  0  0  0  0  0
   -0.0561    5.0665    0.4859 O   0  0  0  0  0  0  0  0  0  0  0  0
    0.3053   -1.5727    1.4375 C   0  0  0  0  0  0  0  0  0  0  0  0
    1.7773   -1.7944    1.1568 C   0  0  0  0  0  0  0  0  0  0  0  0
    2.5129   -0.7680    0.5142 C   0  0  0  0  0  0  0  0  0  0  0  0
    1.7433    0.4543    0.2062 C   0  0  0  0  0  0  0  0  0  0  0  0
    3.7590   -1.0956    0.3189 N   0  0  0  0  0  0  0  0  0  0  0  0
    4.3541   -2.0679    0.5788 C   0  0  0  0  0  0  0  0  0  0  0  0
    2.9290   -3.0803    1.4028 S   0  0  0  0  0  0  0  0  0  0  0  0
    5.6321   -2.7132    0.5123 N   0  0  0  0  0  0  0  0  0  0  0  0
   -3.8802   -1.5904   -1.9344 H   0  0  0  0  0  0  0  0  0  0  0  0
   -2.6325   -2.7678   -1.3742 H   0  0  0  0  0  0  0  0  0  0  0  0
   -2.5161   -2.0690   -3.0022 H   0  0  0  0  0  0  0  0  0  0  0  0
   -0.4212   -1.5787   -2.5760 H   0  0  0  0  0  0  0  0  0  0  0  0
   -1.2394   -0.1542   -3.2081 H   0  0  0  0  0  0  0  0  0  0  0  0
    1.1859   -0.0207   -2.1734 H   0  0  0  0  0  0  0  0  0  0  0  0
    0.0611    1.3567   -2.1193 H   0  0  0  0  0  0  0  0  0  0  0  0
    0.1685   -1.8039   -0.6366 H   0  0  0  0  0  0  0  0  0  0  0  0
   -2.1100   -2.0957    0.2416 H   0  0  0  0  0  0  0  0  0  0  0  0
   -3.4636   -0.0153    0.4449 H   0  0  0  0  0  0  0  0  0  0  0  0
   -2.4177   -0.3651    1.8962 H   0  0  0  0  0  0  0  0  0  0  0  0
    1.0863    2.8069   -0.2413 H   0  0  0  0  0  0  0  0  0  0  0  0
   -2.5001    4.4652    1.4026 H   0  0  0  0  0  0  0  0  0  0  0  0
   -3.4862    2.2571    1.5413 H   0  0  0  0  0  0  0  0  0  0  0  0
   -0.2804    5.7956    1.1488 H   0  0  0  0  0  0  0  0  0  0  0  0
    0.2326   -0.7471    2.1743 H   0  0  0  0  0  0  0  0  0  0  0  0
   -0.1761   -2.4976    1.7447 H   0  0  0  0  0  0  0  0  0  0  0  0
    2.3130    1.1561   -0.4452 H   0  0  0  0  0  0  0  0  0  0  0  0
    1.6751    0.9993    1.1991 H   0  0  0  0  0  0  0  0  0  0  0  0
    5.8200   -3.3543   -0.2904 H   0  0  0  0  0  0  0  0  0  0  0  0
    6.2928   -2.4978    1.2749 H   0  0  0  0  0  0  0  0  0  0  0  0
  1  2  1  0
  2  3  1  0
  3  4  1  0
  5  4  1  6
  5  6  1  0
  6  7  1  0
  7  8  1  0
  8  9  1  0
  9 10  2  0
 10 11  1  0
 11 12  2  0
 12 13  1  0
 13 14  2  0
 12 15  1  0
  6 16  1  0
 16 17  1  0
 17 18  2  0
 18 19  1  0
 18 20  1  0
 20 21  2  0
 21 22  1  0
 21 23  1  0
  7  2  1  0
 14  9  1  0
 22 17  1  0
 19  5  1  0
 10  5  1  0
  1 24  1  0
  1 25  1  0
  1 26  1  0
  3 27  1  0
  3 28  1  0
  4 29  1  0
  4 30  1  0
  6 31  1  6
  7 32  1  1
  8 33  1  0
  8 34  1  0
 11 35  1  0
 13 36  1  0
 14 37  1  0
 15 38  1  0
 16 39  1  0
 16 40  1  0
 19 41  1  0
 19 42  1  0
 23 43  1  0
 23 44  1  0
M  END
>  <Ligand ID>  (1) 
LIG0004618

>  <Ligand>  (1) 
CHEMBL226167

>  <SMILES>  (1) 
CN1CC[C@@]23[C@H]([C@H]1Cc1c3cc(cc1)O)Cc1c(C2)nc(s1)N

>  <CID>  (1) 
16720649.0

>  <ChEMBL ID>  (1) 
nan

>  <InChiKey>  (1) 
LVYYHBPAWFABPE-JCKWVBRZSA-N

>  <InChi>  (1) 
InChI=1S/C18H21N3OS/c1-21-5-4-18-9-14-16(23-17(19)20-14)8-13(18)15(21)6-10-2-3-11(22)7-12(10)18/h2-3,7,13,15,22H,4-6,8-9H2,1H3,(H2,19,20)/t13-,15+,18+/m0/s1

>  <IUPAC Name>  (1) 
(1S,9R,10R)-5-amino-20-methyl-6-thia-4,20-diazapentacyclo[8.7.3.01,9.03,7.012,17]icosa-3(7),4,12(17),13,15-pentaen-15-ol

$$$$
