
     RDKit          3D

 48 50  0  0  0  0  0  0  0  0999 V2000
   -7.4140   -0.6096   -0.0969 C   0  0  0  0  0  0  0  0  0  0  0  0
   -6.2121   -0.0726    0.3972 O   0  0  0  0  0  0  0  0  0  0  0  0
   -5.0481   -0.0027   -0.3350 C   0  0  0  0  0  0  0  0  0  0  0  0
   -4.8659   -0.4385   -1.6221 C   0  0  0  0  0  0  0  0  0  0  0  0
   -3.6254   -0.3104   -2.2521 C   0  0  0  0  0  0  0  0  0  0  0  0
   -2.5316    0.2509   -1.6299 C   0  0  0  0  0  0  0  0  0  0  0  0
   -2.7048    0.6928   -0.3373 C   0  0  0  0  0  0  0  0  0  0  0  0
   -3.9239    0.5655    0.2768 C   0  0  0  0  0  0  0  0  0  0  0  0
   -3.8182    1.0942    1.5073 N   0  0  0  0  0  0  0  0  0  0  0  0
   -2.5650    1.5481    1.6778 C   0  0  0  0  0  0  0  0  0  0  0  0
   -1.8234    1.3009    0.5015 C   0  0  0  0  0  0  0  0  0  0  0  0
   -0.4103    1.6745    0.4326 C   0  0  0  0  0  0  0  0  0  0  0  0
    0.5453    0.5518    0.7606 C   0  0  0  0  0  0  0  0  0  0  0  0
    1.9013    1.1131    0.7049 N   0  0  0  0  0  0  0  0  0  0  0  0
    2.8324    0.2713    1.3865 C   0  0  0  0  0  0  0  0  0  0  0  0
    3.1807   -1.0324    0.7683 C   0  0  1  0  0  0  0  0  0  0  0  0
    4.0860   -0.7400   -0.4031 C   0  0  0  0  0  0  0  0  0  0  0  0
    5.3107   -0.1726   -0.0452 C   0  0  0  0  0  0  0  0  0  0  0  0
    6.2773    0.1423   -0.9767 C   0  0  0  0  0  0  0  0  0  0  0  0
    5.9492   -0.1463   -2.3084 C   0  0  0  0  0  0  0  0  0  0  0  0
    4.7475   -0.7033   -2.6568 C   0  0  0  0  0  0  0  0  0  0  0  0
    3.7783   -1.0152   -1.7004 C   0  0  0  0  0  0  0  0  0  0  0  0
    4.4467   -1.0300   -4.3358 Cl  0  0  0  0  0  0  0  0  0  0  0  0
    4.0181   -1.7428    1.6883 O   0  0  0  0  0  0  0  0  0  0  0  0
    0.3253   -0.0068    2.1310 C   0  0  0  0  0  0  0  0  0  0  0  0
   -7.7538   -1.4549    0.5586 H   0  0  0  0  0  0  0  0  0  0  0  0
   -7.2822   -1.0009   -1.1209 H   0  0  0  0  0  0  0  0  0  0  0  0
   -8.2286    0.1443   -0.1606 H   0  0  0  0  0  0  0  0  0  0  0  0
   -5.6417   -0.8867   -2.1863 H   0  0  0  0  0  0  0  0  0  0  0  0
   -3.5219   -0.6707   -3.2661 H   0  0  0  0  0  0  0  0  0  0  0  0
   -1.5615    0.3608   -2.0965 H   0  0  0  0  0  0  0  0  0  0  0  0
   -4.5641    1.1669    2.2682 H   0  0  0  0  0  0  0  0  0  0  0  0
   -2.2281    2.0199    2.5799 H   0  0  0  0  0  0  0  0  0  0  0  0
   -0.2012    2.5406    1.0738 H   0  0  0  0  0  0  0  0  0  0  0  0
   -0.1708    1.9816   -0.6173 H   0  0  0  0  0  0  0  0  0  0  0  0
    0.4870   -0.2437   -0.0022 H   0  0  0  0  0  0  0  0  0  0  0  0
    2.2057    1.2287   -0.2793 H   0  0  0  0  0  0  0  0  0  0  0  0
    3.7925    0.8563    1.5174 H   0  0  0  0  0  0  0  0  0  0  0  0
    2.5257    0.0628    2.4443 H   0  0  0  0  0  0  0  0  0  0  0  0
    2.3664   -1.6619    0.4793 H   0  0  0  0  0  0  0  0  0  0  0  0
    5.5644    0.0527    0.9863 H   0  0  0  0  0  0  0  0  0  0  0  0
    7.2373    0.5881   -0.7054 H   0  0  0  0  0  0  0  0  0  0  0  0
    6.7329    0.1087   -3.0180 H   0  0  0  0  0  0  0  0  0  0  0  0
    2.8389   -1.4479   -1.9241 H   0  0  0  0  0  0  0  0  0  0  0  0
    4.2315   -1.1503    2.4356 H   0  0  0  0  0  0  0  0  0  0  0  0
   -0.7480   -0.2009    2.3467 H   0  0  0  0  0  0  0  0  0  0  0  0
    0.6439    0.7516    2.8825 H   0  0  0  0  0  0  0  0  0  0  0  0
    0.8198   -1.0017    2.2713 H   0  0  0  0  0  0  0  0  0  0  0  0
  1  2  1  0
  2  3  1  0
  3  4  2  0
  4  5  1  0
  5  6  2  0
  6  7  1  0
  7  8  2  0
  8  9  1  0
  9 10  1  0
 10 11  2  0
 11 12  1  0
 12 13  1  0
 13 14  1  0
 14 15  1  0
 15 16  1  0
 16 17  1  0
 17 18  2  0
 18 19  1  0
 19 20  2  0
 20 21  1  0
 21 22  2  0
 21 23  1  0
 16 24  1  0
 13 25  1  0
  8  3  1  0
 22 17  1  0
 11  7  1  0
  1 26  1  0
  1 27  1  0
  1 28  1  0
  4 29  1  0
  5 30  1  0
  6 31  1  0
  9 32  1  0
 10 33  1  0
 12 34  1  0
 12 35  1  0
 13 36  1  0
 14 37  1  0
 15 38  1  0
 15 39  1  0
 16 40  1  6
 18 41  1  0
 19 42  1  0
 20 43  1  0
 22 44  1  0
 24 45  1  0
 25 46  1  0
 25 47  1  0
 25 48  1  0
M  END
>  <Ligand ID>  (1) 
LIG0003527

>  <Ligand>  (1) 
CHEMBL416012

>  <SMILES>  (1) 
COc1cccc2c1[nH]cc2CC(NC[C@@H](c1cccc(c1)Cl)O)C

>  <CID>  (1) 
9906822.0

>  <ChEMBL ID>  (1) 
nan

>  <InChiKey>  (1) 
YJSBONOKYYPFLW-UWBLVGDVSA-N

>  <InChi>  (1) 
InChI=1S/C20H23ClN2O2/c1-13(22-12-18(24)14-5-3-6-16(21)10-14)9-15-11-23-20-17(15)7-4-8-19(20)25-2/h3-8,10-11,13,18,22-24H,9,12H2,1-2H3/t13?,18-/m0/s1

>  <IUPAC Name>  (1) 
(1R)-1-(3-chlorophenyl)-2-[1-(7-methoxy-1H-indol-3-yl)propan-2-ylamino]ethanol

$$$$
