
     RDKit          3D

 47 50  0  0  0  0  0  0  0  0999 V2000
    6.0016   -0.7217    1.0167 C   0  0  0  0  0  0  0  0  0  0  0  0
    5.2577   -1.9112    0.4639 C   0  0  0  0  0  0  0  0  0  0  0  0
    3.8457   -1.6093    0.3950 N   0  0  0  0  0  0  0  0  0  0  0  0
    3.2776   -0.5712   -0.3563 C   0  0  0  0  0  0  0  0  0  0  0  0
    4.0433    0.1629   -1.0283 O   0  0  0  0  0  0  0  0  0  0  0  0
    1.8295   -0.4033   -0.3159 C   0  0  0  0  0  0  0  0  0  0  0  0
    1.0684   -1.5688   -0.2328 C   0  0  0  0  0  0  0  0  0  0  0  0
   -0.2902   -1.5045   -0.1892 C   0  0  0  0  0  0  0  0  0  0  0  0
   -0.8985   -0.2849   -0.2278 C   0  0  0  0  0  0  0  0  0  0  0  0
   -0.1790    0.8719   -0.3088 N   0  0  0  0  0  0  0  0  0  0  0  0
    1.1805    0.7898   -0.3515 C   0  0  0  0  0  0  0  0  0  0  0  0
    1.8209    1.8794   -0.4232 N   0  0  0  0  0  0  0  0  0  0  0  0
   -0.9103    2.0891   -0.3415 C   0  0  0  0  0  0  0  0  0  0  0  0
   -1.8274    2.3043    0.8539 C   0  0  0  0  0  0  0  0  0  0  0  0
   -2.0038    3.8076    0.9647 C   0  0  0  0  0  0  0  0  0  0  0  0
   -1.3085    4.3473   -0.2760 C   0  0  0  0  0  0  0  0  0  0  0  0
   -0.1387    3.3512   -0.3612 C   0  0  0  0  0  0  0  0  0  0  0  0
   -2.2432   -0.2460   -0.1820 N   0  0  0  0  0  0  0  0  0  0  0  0
   -2.9968   -1.3520   -0.1000 C   0  0  0  0  0  0  0  0  0  0  0  0
   -2.4228   -2.5765   -0.0596 N   0  0  0  0  0  0  0  0  0  0  0  0
   -1.0693   -2.6635   -0.1036 C   0  0  0  0  0  0  0  0  0  0  0  0
   -0.5067   -3.7956   -0.0675 O   0  0  0  0  0  0  0  0  0  0  0  0
   -3.1901   -3.6931    0.0232 C   0  0  0  0  0  0  0  0  0  0  0  0
   -4.5708   -3.5710    0.0664 C   0  0  0  0  0  0  0  0  0  0  0  0
   -5.1559   -2.3116    0.0242 C   0  0  0  0  0  0  0  0  0  0  0  0
   -4.3665   -1.1724   -0.0607 C   0  0  0  0  0  0  0  0  0  0  0  0
    6.9632   -0.5359    0.4985 H   0  0  0  0  0  0  0  0  0  0  0  0
    5.3529    0.1684    0.8974 H   0  0  0  0  0  0  0  0  0  0  0  0
    6.1939   -0.8711    2.1077 H   0  0  0  0  0  0  0  0  0  0  0  0
    5.4704   -2.8398    1.0066 H   0  0  0  0  0  0  0  0  0  0  0  0
    5.6277   -2.0272   -0.5911 H   0  0  0  0  0  0  0  0  0  0  0  0
    3.2111   -2.2341    0.9643 H   0  0  0  0  0  0  0  0  0  0  0  0
    1.5278   -2.5566   -0.2012 H   0  0  0  0  0  0  0  0  0  0  0  0
    2.8262    2.0565   -0.4635 H   0  0  0  0  0  0  0  0  0  0  0  0
   -1.5884    2.0488   -1.2206 H   0  0  0  0  0  0  0  0  0  0  0  0
   -1.4391    1.8649    1.7724 H   0  0  0  0  0  0  0  0  0  0  0  0
   -2.8532    1.9008    0.6429 H   0  0  0  0  0  0  0  0  0  0  0  0
   -3.0687    4.1182    1.0013 H   0  0  0  0  0  0  0  0  0  0  0  0
   -1.4372    4.1818    1.8560 H   0  0  0  0  0  0  0  0  0  0  0  0
   -1.9145    4.1620   -1.1572 H   0  0  0  0  0  0  0  0  0  0  0  0
   -0.9403    5.3741   -0.1439 H   0  0  0  0  0  0  0  0  0  0  0  0
    0.4320    3.5360    0.5635 H   0  0  0  0  0  0  0  0  0  0  0  0
    0.4046    3.5702   -1.3001 H   0  0  0  0  0  0  0  0  0  0  0  0
   -2.7261   -4.6780    0.0553 H   0  0  0  0  0  0  0  0  0  0  0  0
   -5.2103   -4.4375    0.1301 H   0  0  0  0  0  0  0  0  0  0  0  0
   -6.2212   -2.2184    0.0595 H   0  0  0  0  0  0  0  0  0  0  0  0
   -4.8573   -0.2300   -0.0882 H   0  0  0  0  0  0  0  0  0  0  0  0
  1  2  1  0
  2  3  1  0
  3  4  1  0
  4  5  2  0
  4  6  1  0
  6  7  2  0
  7  8  1  0
  8  9  2  0
  9 10  1  0
 10 11  1  0
 11 12  2  3
 10 13  1  0
 13 14  1  0
 14 15  1  0
 15 16  1  0
 16 17  1  0
  9 18  1  0
 18 19  2  0
 19 20  1  0
 20 21  1  0
 21 22  2  0
 20 23  1  0
 23 24  2  0
 24 25  1  0
 25 26  2  0
 11  6  1  0
 17 13  1  0
 26 19  1  0
 21  8  1  0
  1 27  1  0
  1 28  1  0
  1 29  1  0
  2 30  1  0
  2 31  1  0
  3 32  1  0
  7 33  1  0
 12 34  1  0
 13 35  1  0
 14 36  1  0
 14 37  1  0
 15 38  1  0
 15 39  1  0
 16 40  1  0
 16 41  1  0
 17 42  1  0
 17 43  1  0
 23 44  1  0
 24 45  1  0
 25 46  1  0
 26 47  1  0
M  END
>  <Ligand ID>  (1) 
LIG0004415

>  <Ligand>  (1) 
MLS-0437142.0001

>  <SMILES>  (1) 
CCNC(=O)c1cc2c(n(c1=N)C1CCCC1)nc1n(c2=O)cccc1

>  <CID>  (1) 
1077534.0

>  <ChEMBL ID>  (1) 
nan

>  <InChiKey>  (1) 
LBIFDVNEGZHVAM-UHFFFAOYSA-N

>  <InChi>  (1) 
InChI=1S/C19H21N5O2/c1-2-21-18(25)13-11-14-17(24(16(13)20)12-7-3-4-8-12)22-15-9-5-6-10-23(15)19(14)26/h5-6,9-12,20H,2-4,7-8H2,1H3,(H,21,25)

>  <IUPAC Name>  (1) 
7-cyclopentyl-N-ethyl-6-imino-2-oxo-1,7,9-triazatricyclo[8.4.0.03,8]tetradeca-3(8),4,9,11,13-pentaene-5-carboxamide

$$$$
