
     RDKit          3D

 65 65  0  0  0  0  0  0  0  0999 V2000
    1.3482   -0.8256    0.3242 O   0  0  0  0  0  0  0  0  0  0  0  0
    0.5084    0.2181   -0.0807 C   0  0  0  0  0  0  0  0  0  0  0  0
    1.0184    1.3006   -0.5309 O   0  0  0  0  0  0  0  0  0  0  0  0
   -0.9777    0.0511    0.0196 C   0  0  0  0  0  0  0  0  0  0  0  0
   -1.3610   -0.1789    1.3370 F   0  0  0  0  0  0  0  0  0  0  0  0
   -1.5641    1.1935   -0.5007 F   0  0  0  0  0  0  0  0  0  0  0  0
   -1.3093   -1.0755   -0.7070 F   0  0  0  0  0  0  0  0  0  0  0  0
   -6.3295    1.1056    2.8935 C   0  0  0  0  0  0  0  0  0  0  0  0
   -5.8831    1.8939    1.6899 C   0  0  0  0  0  0  0  0  0  0  0  0
   -6.1834    1.1300    0.4334 C   0  0  0  0  0  0  0  0  0  0  0  0
   -5.4577   -0.2192    0.4230 C   0  0  0  0  0  0  0  0  0  0  0  0
   -3.9521    0.0117    0.5055 C   0  0  0  0  0  0  0  0  0  0  0  0
   -3.2432   -1.3183    0.4946 C   0  0  0  0  0  0  0  0  0  0  0  0
   -3.4904   -2.1310   -0.7260 C   0  0  0  0  0  0  0  0  0  0  0  0
   -3.0396   -1.5049   -2.0135 C   0  0  0  0  0  0  0  0  0  0  0  0
   -1.5906   -1.2930   -1.9699 C   0  0  0  0  0  0  0  0  0  0  0  0
   -0.9437   -0.1734   -1.5367 C   0  0  0  0  0  0  0  0  0  0  0  0
    0.4310   -0.0388   -1.5188 C   0  0  0  0  0  0  0  0  0  0  0  0
    1.2033   -1.0976   -1.9652 C   0  0  0  0  0  0  0  0  0  0  0  0
    0.5934   -2.2488   -2.4123 C   0  0  0  0  0  0  0  0  0  0  0  0
   -0.7826   -2.3459   -2.4149 C   0  0  0  0  0  0  0  0  0  0  0  0
    2.6602   -0.9776   -1.9556 C   0  0  0  0  0  0  0  0  0  0  0  0
    3.5423   -1.9567   -2.3731 C   0  0  0  0  0  0  0  0  0  0  0  0
    4.7823   -1.4235   -2.1916 N   0  0  0  0  0  0  0  0  0  0  0  0
    4.6293   -0.1863   -1.6897 C   0  0  0  0  0  0  0  0  0  0  0  0
    3.3254    0.1118   -1.5350 N   0  0  0  0  0  0  0  0  0  0  0  0
    5.7599    0.7122   -1.3585 C   0  0  2  0  0  0  0  0  0  0  0  0
    5.8930    0.7283    0.1586 C   0  0  0  0  0  0  0  0  0  0  0  0
    6.9285    1.6005    0.4587 O   0  0  0  0  0  0  0  0  0  0  0  0
    7.1107    1.6485    2.1334 P   0  0  0  0  0  0  0  0  0  0  0  0
    5.5560    1.9746    2.8236 S   0  0  0  0  0  0  0  0  0  0  0  0
    8.2551    2.8132    2.5688 O   0  0  0  0  0  0  0  0  0  0  0  0
    7.5795    0.1073    2.6595 O   0  0  0  0  0  0  0  0  0  0  0  0
    5.4601    2.0376   -1.8650 N   0  0  0  0  0  0  0  0  0  0  0  0
    2.3369   -0.6833    0.1384 H   0  0  0  0  0  0  0  0  0  0  0  0
   -5.4268    0.8991    3.5208 H   0  0  0  0  0  0  0  0  0  0  0  0
   -6.8925    0.1883    2.6323 H   0  0  0  0  0  0  0  0  0  0  0  0
   -7.0272    1.7131    3.5056 H   0  0  0  0  0  0  0  0  0  0  0  0
   -4.8245    2.1748    1.7334 H   0  0  0  0  0  0  0  0  0  0  0  0
   -6.4853    2.8388    1.6300 H   0  0  0  0  0  0  0  0  0  0  0  0
   -7.2466    1.0125    0.2294 H   0  0  0  0  0  0  0  0  0  0  0  0
   -5.7408    1.7198   -0.4070 H   0  0  0  0  0  0  0  0  0  0  0  0
   -5.7353   -0.8346    1.3003 H   0  0  0  0  0  0  0  0  0  0  0  0
   -5.6966   -0.7661   -0.5093 H   0  0  0  0  0  0  0  0  0  0  0  0
   -3.6778    0.5105    1.4569 H   0  0  0  0  0  0  0  0  0  0  0  0
   -3.7110    0.6834   -0.3152 H   0  0  0  0  0  0  0  0  0  0  0  0
   -3.6027   -1.8795    1.3604 H   0  0  0  0  0  0  0  0  0  0  0  0
   -2.1596   -1.1629    0.6345 H   0  0  0  0  0  0  0  0  0  0  0  0
   -2.8733   -3.0649   -0.6123 H   0  0  0  0  0  0  0  0  0  0  0  0
   -4.5464   -2.4618   -0.8017 H   0  0  0  0  0  0  0  0  0  0  0  0
   -3.3519   -2.1931   -2.8352 H   0  0  0  0  0  0  0  0  0  0  0  0
   -3.5177   -0.5202   -2.1956 H   0  0  0  0  0  0  0  0  0  0  0  0
   -1.5177    0.6661   -1.1867 H   0  0  0  0  0  0  0  0  0  0  0  0
    0.8945    0.8687   -1.1659 H   0  0  0  0  0  0  0  0  0  0  0  0
    1.1699   -3.1038   -2.7715 H   0  0  0  0  0  0  0  0  0  0  0  0
   -1.2379   -3.2593   -2.7705 H   0  0  0  0  0  0  0  0  0  0  0  0
    3.2607   -2.9162   -2.7516 H   0  0  0  0  0  0  0  0  0  0  0  0
    2.9414    1.0068   -1.1647 H   0  0  0  0  0  0  0  0  0  0  0  0
    6.6966    0.4037   -1.8592 H   0  0  0  0  0  0  0  0  0  0  0  0
    6.0381   -0.2941    0.5580 H   0  0  0  0  0  0  0  0  0  0  0  0
    4.9130    1.0782    0.5482 H   0  0  0  0  0  0  0  0  0  0  0  0
    8.7279    3.0817    1.7595 H   0  0  0  0  0  0  0  0  0  0  0  0
    6.8125   -0.4616    2.8503 H   0  0  0  0  0  0  0  0  0  0  0  0
    4.7290    2.4347   -1.2070 H   0  0  0  0  0  0  0  0  0  0  0  0
    6.2738    2.6775   -1.8788 H   0  0  0  0  0  0  0  0  0  0  0  0
  1  2  1  0
  2  3  2  0
  2  4  1  0
  4  5  1  0
  4  6  1  0
  4  7  1  0
  8  9  1  0
  9 10  1  0
 10 11  1  0
 11 12  1  0
 12 13  1  0
 13 14  1  0
 14 15  1  0
 15 16  1  0
 16 17  2  0
 17 18  1  0
 18 19  2  0
 19 20  1  0
 20 21  2  0
 19 22  1  0
 22 23  2  0
 23 24  1  0
 24 25  2  0
 25 26  1  0
 25 27  1  0
 27 28  1  0
 28 29  1  0
 29 30  1  0
 30 31  2  0
 30 32  1  0
 30 33  1  0
 27 34  1  0
 21 16  1  0
 26 22  1  0
  1 35  1  0
  8 36  1  0
  8 37  1  0
  8 38  1  0
  9 39  1  0
  9 40  1  0
 10 41  1  0
 10 42  1  0
 11 43  1  0
 11 44  1  0
 12 45  1  0
 12 46  1  0
 13 47  1  0
 13 48  1  0
 14 49  1  0
 14 50  1  0
 15 51  1  0
 15 52  1  0
 17 53  1  0
 18 54  1  0
 20 55  1  0
 21 56  1  0
 23 57  1  0
 26 58  1  0
 27 59  1  6
 28 60  1  0
 28 61  1  0
 32 62  1  0
 33 63  1  0
 34 64  1  0
 34 65  1  0
M  END
>  <Ligand ID>  (1) 
LIG0004242

>  <Ligand>  (1) 
CHEMBL188826

>  <SMILES>  (1) 
OC(=O)C(F)(F)F.CCCCCCCCc1ccc(cc1)c1cnc([nH]1)[C@H](COP(=S)(O)O)N

>  <CID>  (1) 
44398169.0

>  <ChEMBL ID>  (1) 
nan

>  <InChiKey>  (1) 
GREOYFYASKLCKA-LMOVPXPDSA-N

>  <InChi>  (1) 
InChI=1S/C19H30N3O3PS.C2HF3O2/c1-2-3-4-5-6-7-8-15-9-11-16(12-10-15)18-13-21-19(22-18)17(20)14-25-26(23,24)27;3-2(4,5)1(6)7/h9-13,17H,2-8,14,20H2,1H3,(H,21,22)(H2,23,24,27);(H,6,7)/t17-;/m0./s1

>  <IUPAC Name>  (1) 
(1R)-2-dihydroxyphosphinothioyloxy-1-[5-(4-octylphenyl)-1H-imidazol-2-yl]ethanamine;2,2,2-trifluoroacetic acid

$$$$
