
     RDKit          3D

 16 16  0  0  0  0  0  0  0  0999 V2000
   -2.5328   -1.1854   -1.2279 O   0  0  0  0  0  0  0  0  0  0  0  0
   -1.5189   -0.4308   -0.6443 C   0  0  0  0  0  0  0  0  0  0  0  0
   -1.8587    0.8128   -0.1164 C   0  0  0  0  0  0  0  0  0  0  0  0
   -0.8563    1.5869    0.4742 C   0  0  0  0  0  0  0  0  0  0  0  0
   -1.1497    2.7994    0.9971 F   0  0  0  0  0  0  0  0  0  0  0  0
    0.4438    1.1315    0.5345 C   0  0  0  0  0  0  0  0  0  0  0  0
    0.7440   -0.1210   -0.0062 C   0  0  0  0  0  0  0  0  0  0  0  0
   -0.2201   -0.9094   -0.5954 C   0  0  0  0  0  0  0  0  0  0  0  0
    2.1050   -0.6431    0.0350 C   0  0  0  0  0  0  0  0  0  0  0  0
    2.4150   -1.7781   -0.4468 O   0  0  0  0  0  0  0  0  0  0  0  0
    3.1587    0.0688    0.6066 O   0  0  0  0  0  0  0  0  0  0  0  0
   -2.9253   -1.9228   -0.6315 H   0  0  0  0  0  0  0  0  0  0  0  0
   -2.8845    1.1582   -0.1707 H   0  0  0  0  0  0  0  0  0  0  0  0
    1.2471    1.7250    0.9948 H   0  0  0  0  0  0  0  0  0  0  0  0
   -0.0104   -1.8885   -1.0235 H   0  0  0  0  0  0  0  0  0  0  0  0
    3.8430   -0.4035    1.2206 H   0  0  0  0  0  0  0  0  0  0  0  0
  1  2  1  0
  2  3  2  0
  3  4  1  0
  4  5  1  0
  4  6  2  0
  6  7  1  0
  7  8  2  0
  7  9  1  0
  9 10  2  0
  9 11  1  0
  8  2  1  0
  1 12  1  0
  3 13  1  0
  6 14  1  0
  8 15  1  0
 11 16  1  0
M  END
>  <Ligand ID>  (1) 
LIG0005749

>  <Ligand>  (1) 
3-Fluoro-5-hydroxybenzoic acid

>  <SMILES>  (1) 
Oc1cc(F)cc(c1)C(=O)O

>  <CID>  (1) 
11228924.0

>  <ChEMBL ID>  (1) 
nan

>  <InChiKey>  (1) 
PYZWGHVZOQTMCW-UHFFFAOYSA-N

>  <InChi>  (1) 
InChI=1S/C7H5FO3/c8-5-1-4(7(10)11)2-6(9)3-5/h1-3,9H,(H,10,11)

>  <IUPAC Name>  (1) 
3-fluoro-5-hydroxybenzoic acid

$$$$
