
     RDKit          3D

 50 53  0  0  0  0  0  0  0  0999 V2000
   -5.3903    0.5062   -1.4884 C   0  0  0  0  0  0  0  0  0  0  0  0
   -4.8109    0.0628   -0.1904 C   0  0  0  0  0  0  0  0  0  0  0  0
   -3.5951    0.6251    0.2552 C   0  0  0  0  0  0  0  0  0  0  0  0
   -3.0254    1.5419   -0.5318 O   0  0  0  0  0  0  0  0  0  0  0  0
   -1.9199    2.3267   -0.5546 C   0  0  0  0  0  0  0  0  0  0  0  0
   -0.6267    1.6120   -0.5578 C   0  0  0  0  0  0  0  0  0  0  0  0
   -0.1067    1.1737   -1.7817 C   0  0  0  0  0  0  0  0  0  0  0  0
    1.1131    0.5147   -1.8473 C   0  0  0  0  0  0  0  0  0  0  0  0
    1.8618    0.2643   -0.7159 C   0  0  0  0  0  0  0  0  0  0  0  0
    1.3539    0.6965    0.5094 C   0  0  0  0  0  0  0  0  0  0  0  0
    0.1397    1.3490    0.5471 C   0  0  0  0  0  0  0  0  0  0  0  0
    3.0685   -0.3771   -0.6994 O   0  0  0  0  0  0  0  0  0  0  0  0
    4.2903    0.2923   -0.8256 C   0  0  0  0  0  0  0  0  0  0  0  0
    4.3639    1.6323   -0.9740 N   0  0  0  0  0  0  0  0  0  0  0  0
    5.5408    2.2726   -1.0951 C   0  0  0  0  0  0  0  0  0  0  0  0
    6.7357    1.5602   -1.0705 C   0  0  0  0  0  0  0  0  0  0  0  0
    6.6631    0.1766   -0.9174 C   0  0  0  0  0  0  0  0  0  0  0  0
    5.4541   -0.4465   -0.7968 C   0  0  0  0  0  0  0  0  0  0  0  0
    7.8852   -0.6151   -0.8854 C   0  0  0  0  0  0  0  0  0  0  0  0
    8.8390   -0.7754   -1.8124 N   0  0  0  0  0  0  0  0  0  0  0  0
    9.7587   -1.5927   -1.3276 N   0  0  0  0  0  0  0  0  0  0  0  0
    9.4090   -1.9632   -0.0944 N   0  0  0  0  0  0  0  0  0  0  0  0
    8.2511   -1.3572    0.1751 N   0  0  0  0  0  0  0  0  0  0  0  0
   -3.1528    0.1432    1.4655 C   0  0  0  0  0  0  0  0  0  0  0  0
   -3.8221   -0.8106    2.2034 C   0  0  0  0  0  0  0  0  0  0  0  0
   -5.0039   -1.3310    1.7302 C   0  0  0  0  0  0  0  0  0  0  0  0
   -5.4861   -0.8794    0.5238 C   0  0  0  0  0  0  0  0  0  0  0  0
   -6.6774   -1.3943    0.0323 O   0  0  0  0  0  0  0  0  0  0  0  0
   -5.6708   -2.3347    2.5464 C   0  0  0  0  0  0  0  0  0  0  0  0
   -5.2021   -2.7316    3.6553 O   0  0  0  0  0  0  0  0  0  0  0  0
   -6.9395   -2.9346    2.1006 C   0  0  0  0  0  0  0  0  0  0  0  0
   -5.3690   -0.3463   -2.1981 H   0  0  0  0  0  0  0  0  0  0  0  0
   -4.7285    1.2808   -1.9383 H   0  0  0  0  0  0  0  0  0  0  0  0
   -6.3801    0.9808   -1.3922 H   0  0  0  0  0  0  0  0  0  0  0  0
   -1.8723    3.0501    0.3053 H   0  0  0  0  0  0  0  0  0  0  0  0
   -1.9419    2.9220   -1.5259 H   0  0  0  0  0  0  0  0  0  0  0  0
   -0.6405    1.3364   -2.7083 H   0  0  0  0  0  0  0  0  0  0  0  0
    1.5178    0.1745   -2.7924 H   0  0  0  0  0  0  0  0  0  0  0  0
    1.9201    0.5161    1.4329 H   0  0  0  0  0  0  0  0  0  0  0  0
   -0.2093    1.6705    1.5156 H   0  0  0  0  0  0  0  0  0  0  0  0
    5.5598    3.3402   -1.2116 H   0  0  0  0  0  0  0  0  0  0  0  0
    7.6940    2.0689   -1.1677 H   0  0  0  0  0  0  0  0  0  0  0  0
    5.4428   -1.5385   -0.6780 H   0  0  0  0  0  0  0  0  0  0  0  0
   10.6413   -1.9443   -1.7625 H   0  0  0  0  0  0  0  0  0  0  0  0
   -2.2452    0.5245    1.8696 H   0  0  0  0  0  0  0  0  0  0  0  0
   -3.4216   -1.1485    3.1487 H   0  0  0  0  0  0  0  0  0  0  0  0
   -7.4635   -0.7310    0.0296 H   0  0  0  0  0  0  0  0  0  0  0  0
   -7.3112   -3.7168    2.7925 H   0  0  0  0  0  0  0  0  0  0  0  0
   -6.7588   -3.4484    1.1328 H   0  0  0  0  0  0  0  0  0  0  0  0
   -7.7322   -2.1977    1.9510 H   0  0  0  0  0  0  0  0  0  0  0  0
  1  2  1  0
  2  3  2  0
  3  4  1  0
  4  5  1  0
  5  6  1  0
  6  7  2  0
  7  8  1  0
  8  9  2  0
  9 10  1  0
 10 11  2  0
  9 12  1  0
 12 13  1  0
 13 14  2  0
 14 15  1  0
 15 16  2  0
 16 17  1  0
 17 18  2  0
 17 19  1  0
 19 20  2  0
 20 21  1  0
 21 22  1  0
 22 23  2  0
  3 24  1  0
 24 25  2  0
 25 26  1  0
 26 27  2  0
 27 28  1  0
 26 29  1  0
 29 30  2  0
 29 31  1  0
 27  2  1  0
 11  6  1  0
 18 13  1  0
 23 19  1  0
  1 32  1  0
  1 33  1  0
  1 34  1  0
  5 35  1  0
  5 36  1  0
  7 37  1  0
  8 38  1  0
 10 39  1  0
 11 40  1  0
 15 41  1  0
 16 42  1  0
 18 43  1  0
 21 44  1  0
 24 45  1  0
 25 46  1  0
 28 47  1  0
 31 48  1  0
 31 49  1  0
 31 50  1  0
M  END
>  <Ligand ID>  (1) 
LIG0003636

>  <Ligand>  (1) 
CHEMBL3899832

>  <SMILES>  (1) 
Cc1c(OCc2ccc(cc2)Oc2nccc(c2)c2n[nH]nn2)ccc(c1O)C(=O)C

>  <CID>  (1) 
11596869.0

>  <ChEMBL ID>  (1) 
nan

>  <InChiKey>  (1) 
AJLRUYZRQDKJFI-UHFFFAOYSA-N

>  <InChi>  (1) 
InChI=1S/C22H19N5O4/c1-13-19(8-7-18(14(2)28)21(13)29)30-12-15-3-5-17(6-4-15)31-20-11-16(9-10-23-20)22-24-26-27-25-22/h3-11,29H,12H2,1-2H3,(H,24,25,26,27)

>  <IUPAC Name>  (1) 
1-[2-hydroxy-3-methyl-4-[[4-[4-(2H-tetrazol-5-yl)pyridin-2-yl]oxyphenyl]methoxy]phenyl]ethanone

$$$$
