
     RDKit          3D

128128  0  0  0  0  0  0  0  0999 V2000
   15.1572   -2.9939    0.8794 N   0  0  0  0  0  0  0  0  0  0  0  0
   14.0321   -2.6160    0.0525 C   0  0  0  0  0  0  0  0  0  0  0  0
   14.0783   -1.1457   -0.1934 C   0  0  0  0  0  0  0  0  0  0  0  0
   12.9758   -0.5889   -1.0226 C   0  0  0  0  0  0  0  0  0  0  0  0
   11.5893   -0.7793   -0.4767 C   0  0  0  0  0  0  0  0  0  0  0  0
   11.3922   -0.1322    0.8715 C   0  0  1  0  0  0  0  0  0  0  0  0
    9.9982   -0.3793    1.3134 C   0  0  0  0  0  0  0  0  0  0  0  0
    9.8186   -1.1201    2.3184 O   0  0  0  0  0  0  0  0  0  0  0  0
    8.8541    0.1772    0.6678 N   0  0  0  0  0  0  0  0  0  0  0  0
    7.5728   -0.1407    1.2066 C   0  0  2  0  0  0  0  0  0  0  0  0
    6.5247   -0.4518    0.2074 C   0  0  0  0  0  0  0  0  0  0  0  0
    6.7435   -0.4070   -1.0279 O   0  0  0  0  0  0  0  0  0  0  0  0
    5.2557   -0.8026    0.6916 N   0  0  0  0  0  0  0  0  0  0  0  0
    4.1003   -1.1257   -0.1448 C   0  0  2  0  0  0  0  0  0  0  0  0
    2.9610   -0.2653    0.2131 C   0  0  0  0  0  0  0  0  0  0  0  0
    3.1556    0.5417    1.1834 O   0  0  0  0  0  0  0  0  0  0  0  0
    1.6928   -0.2685   -0.4290 N   0  0  0  0  0  0  0  0  0  0  0  0
    0.7010    0.6352    0.0570 C   0  0  2  0  0  0  0  0  0  0  0  0
   -0.5610   -0.0154    0.4747 C   0  0  0  0  0  0  0  0  0  0  0  0
   -0.7944   -1.2357    0.2909 O   0  0  0  0  0  0  0  0  0  0  0  0
   -1.5347    0.7780    1.1083 N   0  0  0  0  0  0  0  0  0  0  0  0
   -2.8039    0.3899    1.5932 C   0  0  2  0  0  0  0  0  0  0  0  0
   -3.9261    1.3038    1.2819 C   0  0  0  0  0  0  0  0  0  0  0  0
   -5.0349    1.0606    1.8063 O   0  0  0  0  0  0  0  0  0  0  0  0
   -3.8024    2.4193    0.4363 N   0  0  0  0  0  0  0  0  0  0  0  0
   -4.7875    3.3688    0.0639 C   0  0  0  0  0  0  0  0  0  0  0  0
   -5.9230    2.8378   -0.6682 C   0  0  0  0  0  0  0  0  0  0  0  0
   -6.8067    3.7379   -0.9992 O   0  0  0  0  0  0  0  0  0  0  0  0
   -6.2292    1.5372   -1.0804 N   0  0  0  0  0  0  0  0  0  0  0  0
   -7.4931    1.3350   -1.8489 C   0  0  2  0  0  0  0  0  0  0  0  0
   -8.3914    0.5361   -1.0283 C   0  0  0  0  0  0  0  0  0  0  0  0
   -9.6182    0.3455   -1.3109 O   0  0  0  0  0  0  0  0  0  0  0  0
   -7.9587   -0.1004    0.1802 N   0  0  0  0  0  0  0  0  0  0  0  0
   -8.7617   -0.8672    1.0719 C   0  0  2  0  0  0  0  0  0  0  0  0
   -9.2607   -2.1433    0.5481 C   0  0  0  0  0  0  0  0  0  0  0  0
   -9.9712   -2.9409    1.2563 O   0  0  0  0  0  0  0  0  0  0  0  0
   -9.0100   -2.6179   -0.7794 N   0  0  0  0  0  0  0  0  0  0  0  0
   -9.8683    0.0497    1.5860 C   0  0  0  0  0  0  0  0  0  0  0  0
  -10.7963   -0.6167    2.5524 C   0  0  0  0  0  0  0  0  0  0  0  0
   -9.9304   -1.2436    4.0217 S   0  0  0  0  0  0  0  0  0  0  0  0
  -11.1433   -2.0015    5.1391 C   0  0  0  0  0  0  0  0  0  0  0  0
   -7.0822    0.7806   -3.1494 C   0  0  0  0  0  0  0  0  0  0  0  0
   -8.0657    0.4717   -4.2065 C   0  0  0  0  0  0  0  0  0  0  0  0
   -7.2767   -0.0308   -5.4549 C   0  0  0  0  0  0  0  0  0  0  0  0
   -9.0191   -0.6791   -3.9223 C   0  0  0  0  0  0  0  0  0  0  0  0
   -2.8849    0.0848    3.0649 C   0  0  0  0  0  0  0  0  0  0  0  0
   -1.9665   -1.0490    3.4658 C   0  0  0  0  0  0  0  0  0  0  0  0
   -2.7499    1.2842    3.9615 C   0  0  0  0  0  0  0  0  0  0  0  0
    0.4532    1.7062   -0.9882 C   0  0  0  0  0  0  0  0  0  0  0  0
   -0.0116    1.1498   -2.2668 C   0  0  0  0  0  0  0  0  0  0  0  0
    0.9056    0.8347   -3.2531 C   0  0  0  0  0  0  0  0  0  0  0  0
    0.4839    0.3035   -4.4610 C   0  0  0  0  0  0  0  0  0  0  0  0
   -0.8582    0.0762   -4.7095 C   0  0  0  0  0  0  0  0  0  0  0  0
   -1.7464    0.3961   -3.7154 C   0  0  0  0  0  0  0  0  0  0  0  0
   -1.3553    0.9322   -2.4886 C   0  0  0  0  0  0  0  0  0  0  0  0
    3.7901   -2.6073   -0.0626 C   0  0  0  0  0  0  0  0  0  0  0  0
    2.6966   -2.8672   -0.8730 O   0  0  0  0  0  0  0  0  0  0  0  0
    7.1548    1.0522    2.0670 C   0  0  0  0  0  0  0  0  0  0  0  0
    7.0777    2.2767    1.2474 C   0  0  0  0  0  0  0  0  0  0  0  0
    7.3263    2.3216    0.0134 O   0  0  0  0  0  0  0  0  0  0  0  0
    6.7097    3.4696    1.8479 O   0  0  0  0  0  0  0  0  0  0  0  0
   12.2433   -0.7269    1.8862 N   0  0  0  0  0  0  0  0  0  0  0  0
   15.7676   -2.1585    1.0012 H   0  0  0  0  0  0  0  0  0  0  0  0
   14.8196   -3.2339    1.8376 H   0  0  0  0  0  0  0  0  0  0  0  0
   14.1951   -3.1083   -0.9377 H   0  0  0  0  0  0  0  0  0  0  0  0
   13.1171   -2.9923    0.5440 H   0  0  0  0  0  0  0  0  0  0  0  0
   14.2962   -0.5595    0.7446 H   0  0  0  0  0  0  0  0  0  0  0  0
   15.0228   -0.9770   -0.7991 H   0  0  0  0  0  0  0  0  0  0  0  0
   13.0217   -1.0748   -2.0155 H   0  0  0  0  0  0  0  0  0  0  0  0
   13.1260    0.5051   -1.1308 H   0  0  0  0  0  0  0  0  0  0  0  0
   10.8976   -0.2631   -1.1857 H   0  0  0  0  0  0  0  0  0  0  0  0
   11.2698   -1.8455   -0.4731 H   0  0  0  0  0  0  0  0  0  0  0  0
   11.6412    0.9361    0.8005 H   0  0  0  0  0  0  0  0  0  0  0  0
    9.0461    0.7780   -0.1620 H   0  0  0  0  0  0  0  0  0  0  0  0
    7.6549   -0.9780    1.9236 H   0  0  0  0  0  0  0  0  0  0  0  0
    5.0641   -0.8542    1.7350 H   0  0  0  0  0  0  0  0  0  0  0  0
    4.3888   -0.9359   -1.1862 H   0  0  0  0  0  0  0  0  0  0  0  0
    1.5208   -0.9140   -1.2229 H   0  0  0  0  0  0  0  0  0  0  0  0
    1.0996    1.1743    0.9381 H   0  0  0  0  0  0  0  0  0  0  0  0
   -1.2725    1.8109    1.2395 H   0  0  0  0  0  0  0  0  0  0  0  0
   -3.0381   -0.5873    1.1082 H   0  0  0  0  0  0  0  0  0  0  0  0
   -2.8214    2.5677    0.0257 H   0  0  0  0  0  0  0  0  0  0  0  0
   -4.3331    4.2657   -0.4504 H   0  0  0  0  0  0  0  0  0  0  0  0
   -5.2501    3.8403    1.0107 H   0  0  0  0  0  0  0  0  0  0  0  0
   -5.5877    0.7720   -0.8566 H   0  0  0  0  0  0  0  0  0  0  0  0
   -7.9661    2.3354   -2.0466 H   0  0  0  0  0  0  0  0  0  0  0  0
   -6.9506    0.0159    0.3964 H   0  0  0  0  0  0  0  0  0  0  0  0
   -8.1243   -1.1378    1.9816 H   0  0  0  0  0  0  0  0  0  0  0  0
   -9.8505   -2.9054   -1.3412 H   0  0  0  0  0  0  0  0  0  0  0  0
   -8.0318   -2.6548   -1.1210 H   0  0  0  0  0  0  0  0  0  0  0  0
  -10.4429    0.5386    0.7932 H   0  0  0  0  0  0  0  0  0  0  0  0
   -9.3516    0.8983    2.1268 H   0  0  0  0  0  0  0  0  0  0  0  0
  -11.5322    0.1518    2.9162 H   0  0  0  0  0  0  0  0  0  0  0  0
  -11.4258   -1.4161    2.1202 H   0  0  0  0  0  0  0  0  0  0  0  0
  -11.8958   -1.2159    5.3541 H   0  0  0  0  0  0  0  0  0  0  0  0
  -11.6628   -2.8185    4.6074 H   0  0  0  0  0  0  0  0  0  0  0  0
  -10.6412   -2.4070    6.0249 H   0  0  0  0  0  0  0  0  0  0  0  0
   -6.4372   -0.1601   -2.9933 H   0  0  0  0  0  0  0  0  0  0  0  0
   -6.3208    1.4866   -3.6192 H   0  0  0  0  0  0  0  0  0  0  0  0
   -8.6283    1.3288   -4.5722 H   0  0  0  0  0  0  0  0  0  0  0  0
   -7.9368    0.0647   -6.3461 H   0  0  0  0  0  0  0  0  0  0  0  0
   -6.3463    0.5230   -5.5764 H   0  0  0  0  0  0  0  0  0  0  0  0
   -7.0936   -1.1069   -5.3184 H   0  0  0  0  0  0  0  0  0  0  0  0
  -10.0601   -0.3694   -3.7936 H   0  0  0  0  0  0  0  0  0  0  0  0
   -8.5850   -1.3087   -3.1384 H   0  0  0  0  0  0  0  0  0  0  0  0
   -9.0586   -1.3870   -4.8263 H   0  0  0  0  0  0  0  0  0  0  0  0
   -3.9164   -0.3035    3.2146 H   0  0  0  0  0  0  0  0  0  0  0  0
   -0.9057   -0.7582    3.2551 H   0  0  0  0  0  0  0  0  0  0  0  0
   -1.9875   -1.2350    4.5585 H   0  0  0  0  0  0  0  0  0  0  0  0
   -2.2632   -2.0129    3.0130 H   0  0  0  0  0  0  0  0  0  0  0  0
   -2.9923    2.2417    3.4231 H   0  0  0  0  0  0  0  0  0  0  0  0
   -3.5032    1.2951    4.8027 H   0  0  0  0  0  0  0  0  0  0  0  0
   -1.7622    1.3250    4.4804 H   0  0  0  0  0  0  0  0  0  0  0  0
    1.3838    2.2678   -1.1946 H   0  0  0  0  0  0  0  0  0  0  0  0
   -0.2654    2.4568   -0.6048 H   0  0  0  0  0  0  0  0  0  0  0  0
    1.9579    0.9890   -3.1181 H   0  0  0  0  0  0  0  0  0  0  0  0
    1.2020    0.0484   -5.2493 H   0  0  0  0  0  0  0  0  0  0  0  0
   -1.1293   -0.3360   -5.6652 H   0  0  0  0  0  0  0  0  0  0  0  0
   -2.8089    0.2222   -3.8950 H   0  0  0  0  0  0  0  0  0  0  0  0
   -2.0818    1.1682   -1.7332 H   0  0  0  0  0  0  0  0  0  0  0  0
    4.6672   -3.1278   -0.5008 H   0  0  0  0  0  0  0  0  0  0  0  0
    3.5550   -2.9534    0.9539 H   0  0  0  0  0  0  0  0  0  0  0  0
    2.9496   -3.4831   -1.5959 H   0  0  0  0  0  0  0  0  0  0  0  0
    7.9795    1.1974    2.8082 H   0  0  0  0  0  0  0  0  0  0  0  0
    6.2235    0.8224    2.6329 H   0  0  0  0  0  0  0  0  0  0  0  0
    6.2818    4.1751    1.2924 H   0  0  0  0  0  0  0  0  0  0  0  0
   12.3292   -0.0406    2.6767 H   0  0  0  0  0  0  0  0  0  0  0  0
   11.7616   -1.5718    2.2622 H   0  0  0  0  0  0  0  0  0  0  0  0
  1  2  1  0
  2  3  1  0
  3  4  1  0
  4  5  1  0
  5  6  1  0
  6  7  1  0
  7  8  2  0
  7  9  1  0
  9 10  1  0
 10 11  1  0
 11 12  2  0
 11 13  1  0
 13 14  1  0
 14 15  1  0
 15 16  2  0
 15 17  1  0
 17 18  1  0
 18 19  1  0
 19 20  2  0
 19 21  1  0
 21 22  1  0
 22 23  1  0
 23 24  2  0
 23 25  1  0
 25 26  1  0
 26 27  1  0
 27 28  2  0
 27 29  1  0
 29 30  1  0
 30 31  1  0
 31 32  2  0
 31 33  1  0
 33 34  1  0
 34 35  1  0
 35 36  2  0
 35 37  1  0
 34 38  1  0
 38 39  1  0
 39 40  1  0
 40 41  1  0
 30 42  1  0
 42 43  1  0
 43 44  1  0
 43 45  1  0
 22 46  1  0
 46 47  1  0
 46 48  1  0
 18 49  1  0
 49 50  1  0
 50 51  2  0
 51 52  1  0
 52 53  2  0
 53 54  1  0
 54 55  2  0
 14 56  1  0
 56 57  1  0
 10 58  1  0
 58 59  1  0
 59 60  2  0
 59 61  1  0
  6 62  1  0
 55 50  1  0
  1 63  1  0
  1 64  1  0
  2 65  1  0
  2 66  1  0
  3 67  1  0
  3 68  1  0
  4 69  1  0
  4 70  1  0
  5 71  1  0
  5 72  1  0
  6 73  1  6
  9 74  1  0
 10 75  1  1
 13 76  1  0
 14 77  1  6
 17 78  1  0
 18 79  1  1
 21 80  1  0
 22 81  1  6
 25 82  1  0
 26 83  1  0
 26 84  1  0
 29 85  1  0
 30 86  1  6
 33 87  1  0
 34 88  1  1
 37 89  1  0
 37 90  1  0
 38 91  1  0
 38 92  1  0
 39 93  1  0
 39 94  1  0
 41 95  1  0
 41 96  1  0
 41 97  1  0
 42 98  1  0
 42 99  1  0
 43100  1  0
 44101  1  0
 44102  1  0
 44103  1  0
 45104  1  0
 45105  1  0
 45106  1  0
 46107  1  0
 47108  1  0
 47109  1  0
 47110  1  0
 48111  1  0
 48112  1  0
 48113  1  0
 49114  1  0
 49115  1  0
 51116  1  0
 52117  1  0
 53118  1  0
 54119  1  0
 55120  1  0
 56121  1  0
 56122  1  0
 57123  1  0
 58124  1  0
 58125  1  0
 61126  1  0
 62127  1  0
 62128  1  0
M  END
>  <Ligand ID>  (1) 
LIG0003443

>  <Ligand>  (1) 
CHEMBL335054

>  <SMILES>  (1) 
NCCCC[C@@H](C(=O)N[C@H](C(=O)N[C@H](C(=O)N[C@H](C(=O)N[C@H](C(=O)NCC(=O)N[C@H](C(=O)N[C@H](C(=O)N)CCSC)CC(C)C)C(C)C)Cc1ccccc1)CO)CC(=O)O)N

>  <CID>  (1) 
11766241.0

>  <ChEMBL ID>  (1) 
nan

>  <InChiKey>  (1) 
OJDODIHJSWIVJF-ODPDCLKQSA-N

>  <InChi>  (1) 
InChI=1S/C40H66N10O11S/c1-22(2)17-27(36(57)46-26(34(43)55)14-16-62-5)45-31(52)20-44-40(61)33(23(3)4)50-38(59)28(18-24-11-7-6-8-12-24)48-39(60)30(21-51)49-37(58)29(19-32(53)54)47-35(56)25(42)13-9-10-15-41/h6-8,11-12,22-23,25-30,33,51H,9-10,13-21,41-42H2,1-5H3,(H2,43,55)(H,44,61)(H,45,52)(H,46,57)(H,47,56)(H,48,60)(H,49,58)(H,50,59)(H,53,54)/t25-,26-,27-,28-,29-,30-,33-/m0/s1

>  <IUPAC Name>  (1) 
(3S)-4-[[(2S)-1-[[(2S)-1-[[(2S)-1-[[2-[[(2S)-1-[[(2S)-1-amino-4-methylsulfanyl-1-oxobutan-2-yl]amino]-4-methyl-1-oxopentan-2-yl]amino]-2-oxoethyl]amino]-3-methyl-1-oxobutan-2-yl]amino]-1-oxo-3-phenylpropan-2-yl]amino]-3-hydroxy-1-oxopropan-2-yl]amino]-3-[[(2S)-2,6-diaminohexanoyl]amino]-4-oxobutanoic acid

$$$$
