
     RDKit          3D

 62 66  0  0  0  0  0  0  0  0999 V2000
    8.8454    1.4536    3.1619 Cl  0  0  0  0  0  0  0  0  0  0  0  0
    7.6010    1.0429    1.9995 C   0  0  0  0  0  0  0  0  0  0  0  0
    6.3021    0.7752    2.3754 C   0  0  0  0  0  0  0  0  0  0  0  0
    5.3273    0.4520    1.4532 C   0  0  0  0  0  0  0  0  0  0  0  0
    5.5988    0.3799    0.1167 C   0  0  0  0  0  0  0  0  0  0  0  0
    6.9011    0.6465   -0.2763 C   0  0  0  0  0  0  0  0  0  0  0  0
    7.8959    0.9738    0.6376 C   0  0  0  0  0  0  0  0  0  0  0  0
    6.9036    0.5112   -1.6127 N   0  0  0  0  0  0  0  0  0  0  0  0
    5.6881    0.1849   -2.0085 C   0  0  0  0  0  0  0  0  0  0  0  0
    5.3561   -0.0159   -3.2141 O   0  0  0  0  0  0  0  0  0  0  0  0
    4.8310    0.0909   -0.9460 N   0  0  0  0  0  0  0  0  0  0  0  0
    3.4597   -0.2437   -1.0439 C   0  0  0  0  0  0  0  0  0  0  0  0
    2.5345    0.9677   -1.2272 C   0  0  0  0  0  0  0  0  0  0  0  0
    1.1864    0.6975   -0.6550 C   0  0  0  0  0  0  0  0  0  0  0  0
    0.6390   -0.5984   -0.9454 N   0  0  0  0  0  0  0  0  0  0  0  0
    1.5739   -1.6945   -0.6924 C   0  0  0  0  0  0  0  0  0  0  0  0
    2.8446   -1.1084   -0.0282 C   0  0  0  0  0  0  0  0  0  0  0  0
   -0.4747   -0.7941   -0.0575 C   0  0  0  0  0  0  0  0  0  0  0  0
   -1.1845   -2.1025   -0.2114 C   0  0  0  0  0  0  0  0  0  0  0  0
   -2.5827   -1.9637   -0.7492 C   0  0  0  0  0  0  0  0  0  0  0  0
   -3.4235   -1.0528   -0.0442 N   0  0  0  0  0  0  0  0  0  0  0  0
   -2.6502   -0.1867    0.7744 C   0  0  0  0  0  0  0  0  0  0  0  0
   -1.4907    0.3233   -0.0938 C   0  0  0  0  0  0  0  0  0  0  0  0
   -4.3931   -0.4016   -0.8708 C   0  0  0  0  0  0  0  0  0  0  0  0
   -5.2653    0.5406   -0.1447 C   0  0  0  0  0  0  0  0  0  0  0  0
   -5.0794    1.9241   -0.2365 C   0  0  0  0  0  0  0  0  0  0  0  0
   -5.8934    2.8074    0.4428 C   0  0  0  0  0  0  0  0  0  0  0  0
   -6.9265    2.3376    1.2413 C   0  0  0  0  0  0  0  0  0  0  0  0
   -7.1060    0.9717    1.3286 C   0  0  0  0  0  0  0  0  0  0  0  0
   -6.3067    0.0638    0.6600 C   0  0  0  0  0  0  0  0  0  0  0  0
   -6.5685   -1.3913    0.8085 C   0  0  0  0  0  0  0  0  0  0  0  0
   -7.6454   -1.5925    1.6516 F   0  0  0  0  0  0  0  0  0  0  0  0
   -6.9299   -1.9644   -0.4163 F   0  0  0  0  0  0  0  0  0  0  0  0
   -5.4695   -2.0769    1.2659 F   0  0  0  0  0  0  0  0  0  0  0  0
    6.0671    0.8273    3.4315 H   0  0  0  0  0  0  0  0  0  0  0  0
    4.3491    0.2587    1.8093 H   0  0  0  0  0  0  0  0  0  0  0  0
    8.9081    1.1784    0.3089 H   0  0  0  0  0  0  0  0  0  0  0  0
    7.7333    0.6414   -2.2545 H   0  0  0  0  0  0  0  0  0  0  0  0
    3.3224   -0.7936   -2.0288 H   0  0  0  0  0  0  0  0  0  0  0  0
    2.4395    1.2600   -2.2945 H   0  0  0  0  0  0  0  0  0  0  0  0
    2.9636    1.8536   -0.7178 H   0  0  0  0  0  0  0  0  0  0  0  0
    0.4816    1.4293   -1.1518 H   0  0  0  0  0  0  0  0  0  0  0  0
    1.0894    0.9722    0.4336 H   0  0  0  0  0  0  0  0  0  0  0  0
    1.1941   -2.4171    0.0600 H   0  0  0  0  0  0  0  0  0  0  0  0
    1.8284   -2.2476   -1.6043 H   0  0  0  0  0  0  0  0  0  0  0  0
    2.3633   -0.5646    0.8419 H   0  0  0  0  0  0  0  0  0  0  0  0
    3.3997   -1.9991    0.2770 H   0  0  0  0  0  0  0  0  0  0  0  0
   -0.0481   -0.7712    0.9859 H   0  0  0  0  0  0  0  0  0  0  0  0
   -0.6357   -2.7358   -0.9377 H   0  0  0  0  0  0  0  0  0  0  0  0
   -1.2065   -2.6913    0.7314 H   0  0  0  0  0  0  0  0  0  0  0  0
   -3.0541   -2.9849   -0.6589 H   0  0  0  0  0  0  0  0  0  0  0  0
   -2.5436   -1.7648   -1.8492 H   0  0  0  0  0  0  0  0  0  0  0  0
   -3.1680    0.7254    1.1237 H   0  0  0  0  0  0  0  0  0  0  0  0
   -2.2139   -0.6836    1.6582 H   0  0  0  0  0  0  0  0  0  0  0  0
   -1.8581    0.3797   -1.1429 H   0  0  0  0  0  0  0  0  0  0  0  0
   -1.1108    1.2830    0.2508 H   0  0  0  0  0  0  0  0  0  0  0  0
   -3.8353    0.1831   -1.6285 H   0  0  0  0  0  0  0  0  0  0  0  0
   -5.0092   -1.1516   -1.3724 H   0  0  0  0  0  0  0  0  0  0  0  0
   -4.2859    2.3400   -0.8461 H   0  0  0  0  0  0  0  0  0  0  0  0
   -5.7805    3.8795    0.3965 H   0  0  0  0  0  0  0  0  0  0  0  0
   -7.5880    3.0191    1.7924 H   0  0  0  0  0  0  0  0  0  0  0  0
   -7.9004    0.6173    1.9430 H   0  0  0  0  0  0  0  0  0  0  0  0
  1  2  1  0
  2  3  2  0
  3  4  1  0
  4  5  2  0
  5  6  1  0
  6  7  2  0
  6  8  1  0
  8  9  1  0
  9 10  2  0
  9 11  1  0
 11 12  1  0
 12 13  1  0
 13 14  1  0
 14 15  1  0
 15 16  1  0
 16 17  1  0
 15 18  1  0
 18 19  1  0
 19 20  1  0
 20 21  1  0
 21 22  1  0
 22 23  1  0
 21 24  1  0
 24 25  1  0
 25 26  2  0
 26 27  1  0
 27 28  2  0
 28 29  1  0
 29 30  2  0
 30 31  1  0
 31 32  1  0
 31 33  1  0
 31 34  1  0
  7  2  1  0
 17 12  1  0
 23 18  1  0
 30 25  1  0
 11  5  1  0
  3 35  1  0
  4 36  1  0
  7 37  1  0
  8 38  1  0
 12 39  1  0
 13 40  1  0
 13 41  1  0
 14 42  1  0
 14 43  1  0
 16 44  1  0
 16 45  1  0
 17 46  1  0
 17 47  1  0
 18 48  1  0
 19 49  1  0
 19 50  1  0
 20 51  1  0
 20 52  1  0
 22 53  1  0
 22 54  1  0
 23 55  1  0
 23 56  1  0
 24 57  1  0
 24 58  1  0
 26 59  1  0
 27 60  1  0
 28 61  1  0
 29 62  1  0
M  END
>  <Ligand ID>  (1) 
LIG0000866

>  <Ligand>  (1) 
CHEMBL518747

>  <SMILES>  (1) 
Clc1ccc2c(c1)[nH]c(=O)n2C1CCN(CC1)C1CCN(CC1)Cc1ccccc1C(F)(F)F

>  <CID>  (1) 
44578928.0

>  <ChEMBL ID>  (1) 
nan

>  <InChiKey>  (1) 
CRCUINALVBZFCY-UHFFFAOYSA-N

>  <InChi>  (1) 
InChI=1S/C25H28ClF3N4O/c26-18-5-6-23-22(15-18)30-24(34)33(23)20-9-13-32(14-10-20)19-7-11-31(12-8-19)16-17-3-1-2-4-21(17)25(27,28)29/h1-6,15,19-20H,7-14,16H2,(H,30,34)

>  <IUPAC Name>  (1) 
6-chloro-3-[1-[1-[[2-(trifluoromethyl)phenyl]methyl]piperidin-4-yl]piperidin-4-yl]-1H-benzimidazol-2-one

$$$$
