
     RDKit          3D

 84 89  0  0  0  0  0  0  0  0999 V2000
   10.2443   -2.1933   -2.1073 C   0  0  0  0  0  0  0  0  0  0  0  0
    8.8349   -1.6516   -2.1725 C   0  0  0  0  0  0  0  0  0  0  0  0
    7.9474   -2.1871   -1.2577 O   0  0  0  0  0  0  0  0  0  0  0  0
    7.0420   -1.5596   -0.4446 C   0  0  0  0  0  0  0  0  0  0  0  0
    6.2690   -2.3881    0.3773 C   0  0  0  0  0  0  0  0  0  0  0  0
    5.3138   -1.8368    1.2408 C   0  0  0  0  0  0  0  0  0  0  0  0
    5.1838   -0.4670    1.2328 C   0  0  0  0  0  0  0  0  0  0  0  0
    5.9467    0.3531    0.4233 C   0  0  0  0  0  0  0  0  0  0  0  0
    6.8878   -0.1844   -0.4276 C   0  0  0  0  0  0  0  0  0  0  0  0
    4.1980    0.2343    2.0862 C   0  0  0  0  0  0  0  0  0  0  0  0
    4.4544    1.5039    2.5686 C   0  0  0  0  0  0  0  0  0  0  0  0
    3.5025    2.1351    3.3386 C   0  0  0  0  0  0  0  0  0  0  0  0
    2.2981    1.5040    3.6270 C   0  0  0  0  0  0  0  0  0  0  0  0
    2.0813    0.2405    3.1309 C   0  0  0  0  0  0  0  0  0  0  0  0
    3.0168   -0.4269    2.3511 C   0  0  0  0  0  0  0  0  0  0  0  0
    1.3326    2.2585    4.4516 C   0  0  0  0  0  0  0  0  0  0  0  0
    0.4756    3.1788    3.6227 C   0  0  0  0  0  0  0  0  0  0  0  0
   -0.2674    2.4218    2.6690 N   0  0  0  0  0  0  0  0  0  0  0  0
   -1.1172    3.1300    1.7702 C   0  0  0  0  0  0  0  0  0  0  0  0
   -1.2078    4.4014    1.8202 O   0  0  0  0  0  0  0  0  0  0  0  0
   -1.9256    2.4809    0.7479 C   0  0  0  0  0  0  0  0  0  0  0  0
   -2.5990    3.2540   -0.1696 C   0  0  0  0  0  0  0  0  0  0  0  0
   -3.3866    2.7006   -1.1760 C   0  0  0  0  0  0  0  0  0  0  0  0
   -3.5239    1.3254   -1.2906 C   0  0  0  0  0  0  0  0  0  0  0  0
   -2.8524    0.5567   -0.3718 C   0  0  0  0  0  0  0  0  0  0  0  0
   -2.0608    1.1125    0.6377 C   0  0  0  0  0  0  0  0  0  0  0  0
   -2.9170   -0.9416   -0.3637 C   0  0  0  0  0  0  0  0  0  0  0  0
   -1.5591   -1.5797   -0.3120 C   0  0  0  0  0  0  0  0  0  0  0  0
   -3.6783   -1.2965    0.9005 C   0  0  0  0  0  0  0  0  0  0  0  0
   -5.1356   -1.2641    0.6015 C   0  0  0  0  0  0  0  0  0  0  0  0
   -5.5334   -0.3721   -0.4651 N   0  0  0  0  0  0  0  0  0  0  0  0
   -4.9101   -0.6006   -1.7251 C   0  0  0  0  0  0  0  0  0  0  0  0
   -4.3279    0.6636   -2.3275 C   0  0  0  0  0  0  0  0  0  0  0  0
   -3.7063   -1.5101   -1.5023 C   0  0  0  0  0  0  0  0  0  0  0  0
   -2.8709   -1.6523   -2.7570 C   0  0  0  0  0  0  0  0  0  0  0  0
   -6.9651   -0.3388   -0.4656 C   0  0  0  0  0  0  0  0  0  0  0  0
   -7.5486    0.5367   -1.5416 C   0  0  0  0  0  0  0  0  0  0  0  0
   -9.0724    0.5786   -1.5532 C   0  0  0  0  0  0  0  0  0  0  0  0
   -8.2848   -0.0522   -2.6866 C   0  0  0  0  0  0  0  0  0  0  0  0
    8.2649   -1.9633   -3.5648 C   0  0  0  0  0  0  0  0  0  0  0  0
   10.6475   -2.2895   -3.1584 H   0  0  0  0  0  0  0  0  0  0  0  0
   10.3478   -3.1128   -1.5278 H   0  0  0  0  0  0  0  0  0  0  0  0
   10.8838   -1.4121   -1.6432 H   0  0  0  0  0  0  0  0  0  0  0  0
    8.8266   -0.5469   -2.1071 H   0  0  0  0  0  0  0  0  0  0  0  0
    6.4096   -3.4732    0.3426 H   0  0  0  0  0  0  0  0  0  0  0  0
    4.7039   -2.4478    1.8875 H   0  0  0  0  0  0  0  0  0  0  0  0
    5.8272    1.4378    0.4375 H   0  0  0  0  0  0  0  0  0  0  0  0
    7.4611    0.4780   -1.0402 H   0  0  0  0  0  0  0  0  0  0  0  0
    5.3986    2.0193    2.3502 H   0  0  0  0  0  0  0  0  0  0  0  0
    3.7237    3.1424    3.7149 H   0  0  0  0  0  0  0  0  0  0  0  0
    1.1715   -0.2938    3.3366 H   0  0  0  0  0  0  0  0  0  0  0  0
    2.8004   -1.4086    1.9881 H   0  0  0  0  0  0  0  0  0  0  0  0
    1.8376    2.8087    5.2863 H   0  0  0  0  0  0  0  0  0  0  0  0
    0.6249    1.4925    4.8852 H   0  0  0  0  0  0  0  0  0  0  0  0
    1.0772    3.9275    3.0645 H   0  0  0  0  0  0  0  0  0  0  0  0
   -0.1563    3.7690    4.3238 H   0  0  0  0  0  0  0  0  0  0  0  0
   -0.2469    1.3910    2.5692 H   0  0  0  0  0  0  0  0  0  0  0  0
   -2.5578    4.3408   -0.1680 H   0  0  0  0  0  0  0  0  0  0  0  0
   -3.9079    3.3146   -1.8939 H   0  0  0  0  0  0  0  0  0  0  0  0
   -1.5395    0.4709    1.3445 H   0  0  0  0  0  0  0  0  0  0  0  0
   -0.8246   -1.1418   -1.0307 H   0  0  0  0  0  0  0  0  0  0  0  0
   -1.1307   -1.4603    0.6961 H   0  0  0  0  0  0  0  0  0  0  0  0
   -1.6981   -2.6560   -0.5744 H   0  0  0  0  0  0  0  0  0  0  0  0
   -3.4145   -2.3683    1.1137 H   0  0  0  0  0  0  0  0  0  0  0  0
   -3.3657   -0.7138    1.7713 H   0  0  0  0  0  0  0  0  0  0  0  0
   -5.6264   -0.8361    1.5311 H   0  0  0  0  0  0  0  0  0  0  0  0
   -5.6008   -2.2733    0.5185 H   0  0  0  0  0  0  0  0  0  0  0  0
   -5.5250   -1.0695   -2.4949 H   0  0  0  0  0  0  0  0  0  0  0  0
   -3.5992    0.3087   -3.1055 H   0  0  0  0  0  0  0  0  0  0  0  0
   -5.0392    1.2886   -2.8610 H   0  0  0  0  0  0  0  0  0  0  0  0
   -4.0525   -2.5300   -1.1807 H   0  0  0  0  0  0  0  0  0  0  0  0
   -3.4902   -1.6578   -3.6771 H   0  0  0  0  0  0  0  0  0  0  0  0
   -2.4050   -2.6822   -2.7438 H   0  0  0  0  0  0  0  0  0  0  0  0
   -2.0248   -0.9459   -2.7688 H   0  0  0  0  0  0  0  0  0  0  0  0
   -7.3089    0.0752    0.5115 H   0  0  0  0  0  0  0  0  0  0  0  0
   -7.3897   -1.3549   -0.5798 H   0  0  0  0  0  0  0  0  0  0  0  0
   -7.0865    1.5204   -1.6449 H   0  0  0  0  0  0  0  0  0  0  0  0
   -9.6563   -0.0420   -0.8564 H   0  0  0  0  0  0  0  0  0  0  0  0
   -9.5781    1.5215   -1.8465 H   0  0  0  0  0  0  0  0  0  0  0  0
   -8.2499    0.4510   -3.6672 H   0  0  0  0  0  0  0  0  0  0  0  0
   -8.4661   -1.1468   -2.7416 H   0  0  0  0  0  0  0  0  0  0  0  0
    7.5829   -1.1361   -3.8785 H   0  0  0  0  0  0  0  0  0  0  0  0
    9.0923   -1.9702   -4.3188 H   0  0  0  0  0  0  0  0  0  0  0  0
    7.6808   -2.8925   -3.5790 H   0  0  0  0  0  0  0  0  0  0  0  0
  1  2  1  0
  2  3  1  0
  3  4  1  0
  4  5  2  0
  5  6  1  0
  6  7  2  0
  7  8  1  0
  8  9  2  0
  7 10  1  0
 10 11  2  0
 11 12  1  0
 12 13  2  0
 13 14  1  0
 14 15  2  0
 13 16  1  0
 16 17  1  0
 17 18  1  0
 18 19  1  0
 19 20  2  0
 19 21  1  0
 21 22  2  0
 22 23  1  0
 23 24  2  0
 24 25  1  0
 25 26  2  0
 25 27  1  0
 27 28  1  0
 27 29  1  0
 29 30  1  0
 30 31  1  0
 31 32  1  0
 32 33  1  0
 32 34  1  0
 34 35  1  0
 31 36  1  0
 36 37  1  0
 37 38  1  0
 38 39  1  0
  2 40  1  0
  9  4  1  0
 15 10  1  0
 26 21  1  0
 34 27  1  0
 39 37  1  0
 33 24  1  0
  1 41  1  0
  1 42  1  0
  1 43  1  0
  2 44  1  0
  5 45  1  0
  6 46  1  0
  8 47  1  0
  9 48  1  0
 11 49  1  0
 12 50  1  0
 14 51  1  0
 15 52  1  0
 16 53  1  0
 16 54  1  0
 17 55  1  0
 17 56  1  0
 18 57  1  0
 22 58  1  0
 23 59  1  0
 26 60  1  0
 28 61  1  0
 28 62  1  0
 28 63  1  0
 29 64  1  0
 29 65  1  0
 30 66  1  0
 30 67  1  0
 32 68  1  0
 33 69  1  0
 33 70  1  0
 34 71  1  0
 35 72  1  0
 35 73  1  0
 35 74  1  0
 36 75  1  0
 36 76  1  0
 37 77  1  0
 38 78  1  0
 38 79  1  0
 39 80  1  0
 39 81  1  0
 40 82  1  0
 40 83  1  0
 40 84  1  0
M  END
>  <Ligand ID>  (1) 
LIG0003996

>  <Ligand>  (1) 
CHEMBL2208361

>  <SMILES>  (1) 
CC(Oc1ccc(cc1)c1ccc(cc1)CCNC(=O)c1ccc2c(c1)C1(C)CCN(C(C2)C1C)CC1CC1)C

>  <CID>  (1) 
58443192.0

>  <ChEMBL ID>  (1) 
nan

>  <InChiKey>  (1) 
XFOARTFWCZZTDK-UHFFFAOYSA-N

>  <InChi>  (1) 
InChI=1S/C36H44N2O2/c1-24(2)40-32-15-13-29(14-16-32)28-9-7-26(8-10-28)17-19-37-35(39)31-12-11-30-22-34-25(3)36(4,33(30)21-31)18-20-38(34)23-27-5-6-27/h7-16,21,24-25,27,34H,5-6,17-20,22-23H2,1-4H3,(H,37,39)

>  <IUPAC Name>  (1) 
10-(cyclopropylmethyl)-1,13-dimethyl-N-[2-[4-(4-propan-2-yloxyphenyl)phenyl]ethyl]-10-azatricyclo[7.3.1.02,7]trideca-2(7),3,5-triene-4-carboxamide

$$$$
