
     RDKit          3D

 82 84  0  0  0  0  0  0  0  0999 V2000
   10.3273    2.4361   -2.8572 O   0  0  0  0  0  0  0  0  0  0  0  0
   10.8107    1.6944   -1.7804 C   0  0  0  0  0  0  0  0  0  0  0  0
    9.7586    0.7640   -1.3416 C   0  0  0  0  0  0  0  0  0  0  0  0
    8.9858    0.9378   -0.2151 C   0  0  0  0  0  0  0  0  0  0  0  0
    8.0165    0.0447    0.1565 C   0  0  0  0  0  0  0  0  0  0  0  0
    7.7908   -1.0700   -0.6066 C   0  0  0  0  0  0  0  0  0  0  0  0
    8.5591   -1.2488   -1.7326 C   0  0  0  0  0  0  0  0  0  0  0  0
    9.5429   -0.3686   -2.1342 C   0  0  0  0  0  0  0  0  0  0  0  0
   10.3070   -0.5795   -3.2850 O   0  0  0  0  0  0  0  0  0  0  0  0
    7.2224    0.2744    1.3655 C   0  0  2  0  0  0  0  0  0  0  0  0
    6.0227   -0.6292    1.4754 C   0  0  0  0  0  0  0  0  0  0  0  0
    5.0446   -0.4308    0.4436 N   0  0  0  0  0  0  0  0  0  0  0  0
    3.9265   -1.3127    0.5719 C   0  0  0  0  0  0  0  0  0  0  0  0
    3.0922   -1.0150    1.7799 C   0  0  0  0  0  0  0  0  0  0  0  0
    1.9218   -1.9741    1.8754 C   0  0  0  0  0  0  0  0  0  0  0  0
    1.0641   -1.7212    3.0628 C   0  0  0  0  0  0  0  0  0  0  0  0
    0.4289   -0.3940    3.1946 C   0  0  0  0  0  0  0  0  0  0  0  0
   -0.5027   -0.1537    1.9900 C   0  0  0  0  0  0  0  0  0  0  0  0
    0.2387   -0.1738    0.8929 O   0  0  0  0  0  0  0  0  0  0  0  0
   -0.1478    0.0484   -0.3546 C   0  0  0  0  0  0  0  0  0  0  0  0
   -1.1422   -0.7641   -1.0719 C   0  0  0  0  0  0  0  0  0  0  0  0
   -2.5084   -0.7847   -0.5025 C   0  0  0  0  0  0  0  0  0  0  0  0
   -3.0648    0.6450   -0.4325 C   0  0  0  0  0  0  0  0  0  0  0  0
   -4.4376    0.4735    0.1564 C   0  0  0  0  0  0  0  0  0  0  0  0
   -4.5580    0.5137    1.5131 C   0  0  0  0  0  0  0  0  0  0  0  0
   -5.8006    0.3601    2.0816 C   0  0  0  0  0  0  0  0  0  0  0  0
   -6.9134    0.1669    1.2676 C   0  0  0  0  0  0  0  0  0  0  0  0
   -6.8265    0.1213   -0.1087 C   0  0  0  0  0  0  0  0  0  0  0  0
   -5.5518    0.2809   -0.6377 C   0  0  0  0  0  0  0  0  0  0  0  0
   -7.9632   -0.0792   -0.9365 N   0  0  0  0  0  0  0  0  0  0  0  0
   -8.0601   -0.1293   -2.3549 C   0  0  0  0  0  0  0  0  0  0  0  0
   -7.1336    0.0002   -3.1787 O   0  0  0  0  0  0  0  0  0  0  0  0
   -9.4370   -0.3602   -2.7159 N   0  0  0  0  0  0  0  0  0  0  0  0
  -10.2298    0.0719   -1.5899 C   0  0  0  0  0  0  0  0  0  0  0  0
   -9.2894   -0.2818   -0.4672 C   0  0  0  0  0  0  0  0  0  0  0  0
   -9.7153   -0.6733    0.6383 O   0  0  0  0  0  0  0  0  0  0  0  0
  -10.4196    1.5711   -1.5216 C   0  0  0  0  0  0  0  0  0  0  0  0
  -11.5285   -0.6904   -1.4539 C   0  0  0  0  0  0  0  0  0  0  0  0
    6.8099    1.5938    1.4341 O   0  0  0  0  0  0  0  0  0  0  0  0
   10.9270    3.1593   -3.1133 H   0  0  0  0  0  0  0  0  0  0  0  0
   10.9836    2.4167   -0.9393 H   0  0  0  0  0  0  0  0  0  0  0  0
   11.7907    1.2272   -1.9763 H   0  0  0  0  0  0  0  0  0  0  0  0
    9.1524    1.8203    0.4046 H   0  0  0  0  0  0  0  0  0  0  0  0
    7.0534   -1.8274   -0.3957 H   0  0  0  0  0  0  0  0  0  0  0  0
    8.4085   -2.1174   -2.3596 H   0  0  0  0  0  0  0  0  0  0  0  0
    9.9315   -1.2512   -3.9453 H   0  0  0  0  0  0  0  0  0  0  0  0
    7.8542    0.0866    2.2585 H   0  0  0  0  0  0  0  0  0  0  0  0
    5.5274   -0.3466    2.4500 H   0  0  0  0  0  0  0  0  0  0  0  0
    6.3764   -1.6656    1.5215 H   0  0  0  0  0  0  0  0  0  0  0  0
    4.6848    0.5596    0.5105 H   0  0  0  0  0  0  0  0  0  0  0  0
    3.2795   -1.2053   -0.3387 H   0  0  0  0  0  0  0  0  0  0  0  0
    4.2633   -2.3719    0.5485 H   0  0  0  0  0  0  0  0  0  0  0  0
    3.7076   -1.2286    2.7017 H   0  0  0  0  0  0  0  0  0  0  0  0
    2.8189    0.0402    1.7811 H   0  0  0  0  0  0  0  0  0  0  0  0
    1.3774   -2.1148    0.9400 H   0  0  0  0  0  0  0  0  0  0  0  0
    2.3843   -3.0053    2.0649 H   0  0  0  0  0  0  0  0  0  0  0  0
    1.6426   -1.9314    3.9974 H   0  0  0  0  0  0  0  0  0  0  0  0
    0.2481   -2.5044    3.0685 H   0  0  0  0  0  0  0  0  0  0  0  0
   -0.1649   -0.3456    4.1116 H   0  0  0  0  0  0  0  0  0  0  0  0
    1.1434    0.4543    3.1944 H   0  0  0  0  0  0  0  0  0  0  0  0
   -1.2728   -0.9510    2.1357 H   0  0  0  0  0  0  0  0  0  0  0  0
   -0.9865    0.8413    2.2300 H   0  0  0  0  0  0  0  0  0  0  0  0
    0.8179    0.0289   -0.9915 H   0  0  0  0  0  0  0  0  0  0  0  0
   -0.4540    1.1435   -0.5364 H   0  0  0  0  0  0  0  0  0  0  0  0
   -1.2535   -0.2996   -2.1084 H   0  0  0  0  0  0  0  0  0  0  0  0
   -0.7692   -1.7978   -1.3304 H   0  0  0  0  0  0  0  0  0  0  0  0
   -3.2062   -1.3096   -1.2280 H   0  0  0  0  0  0  0  0  0  0  0  0
   -2.6894   -1.2571    0.4435 H   0  0  0  0  0  0  0  0  0  0  0  0
   -2.4630    1.2613    0.2641 H   0  0  0  0  0  0  0  0  0  0  0  0
   -3.1468    1.0764   -1.4426 H   0  0  0  0  0  0  0  0  0  0  0  0
   -3.6712    0.6659    2.1222 H   0  0  0  0  0  0  0  0  0  0  0  0
   -5.9063    0.3894    3.1471 H   0  0  0  0  0  0  0  0  0  0  0  0
   -7.8515    0.0559    1.7815 H   0  0  0  0  0  0  0  0  0  0  0  0
   -5.3760    0.2606   -1.7037 H   0  0  0  0  0  0  0  0  0  0  0  0
   -9.7568   -0.7693   -3.6398 H   0  0  0  0  0  0  0  0  0  0  0  0
  -11.3825    1.8942   -1.9548 H   0  0  0  0  0  0  0  0  0  0  0  0
   -9.5717    2.0448   -2.0491 H   0  0  0  0  0  0  0  0  0  0  0  0
  -10.3146    1.8938   -0.4566 H   0  0  0  0  0  0  0  0  0  0  0  0
  -11.8215   -0.7996   -0.3956 H   0  0  0  0  0  0  0  0  0  0  0  0
  -12.3042   -0.0982   -1.9857 H   0  0  0  0  0  0  0  0  0  0  0  0
  -11.4423   -1.6800   -1.9147 H   0  0  0  0  0  0  0  0  0  0  0  0
    6.7920    1.9599    0.5078 H   0  0  0  0  0  0  0  0  0  0  0  0
  1  2  1  0
  2  3  1  0
  3  4  2  0
  4  5  1  0
  5  6  2  0
  6  7  1  0
  7  8  2  0
  8  9  1  0
  5 10  1  0
 10 11  1  0
 11 12  1  0
 12 13  1  0
 13 14  1  0
 14 15  1  0
 15 16  1  0
 16 17  1  0
 17 18  1  0
 18 19  1  0
 19 20  1  0
 20 21  1  0
 21 22  1  0
 22 23  1  0
 23 24  1  0
 24 25  2  0
 25 26  1  0
 26 27  2  0
 27 28  1  0
 28 29  2  0
 28 30  1  0
 30 31  1  0
 31 32  2  0
 31 33  1  0
 33 34  1  0
 34 35  1  0
 35 36  2  0
 34 37  1  0
 34 38  1  0
 10 39  1  0
  8  3  1  0
 29 24  1  0
 35 30  1  0
  1 40  1  0
  2 41  1  0
  2 42  1  0
  4 43  1  0
  6 44  1  0
  7 45  1  0
  9 46  1  0
 10 47  1  1
 11 48  1  0
 11 49  1  0
 12 50  1  0
 13 51  1  0
 13 52  1  0
 14 53  1  0
 14 54  1  0
 15 55  1  0
 15 56  1  0
 16 57  1  0
 16 58  1  0
 17 59  1  0
 17 60  1  0
 18 61  1  0
 18 62  1  0
 20 63  1  0
 20 64  1  0
 21 65  1  0
 21 66  1  0
 22 67  1  0
 22 68  1  0
 23 69  1  0
 23 70  1  0
 25 71  1  0
 26 72  1  0
 27 73  1  0
 29 74  1  0
 33 75  1  0
 37 76  1  0
 37 77  1  0
 37 78  1  0
 38 79  1  0
 38 80  1  0
 38 81  1  0
 39 82  1  0
M  END
>  <Ligand ID>  (1) 
LIG0003558

>  <Ligand>  (1) 
CHEMBL1814271

>  <SMILES>  (1) 
OCc1cc(ccc1O)[C@H](CNCCCCCCOCCCCc1cccc(c1)N1C(=O)NC(C1=O)(C)C)O

>  <CID>  (1) 
53357712.0

>  <ChEMBL ID>  (1) 
nan

>  <InChiKey>  (1) 
JUDVTECBHZMKFE-MHZLTWQESA-N

>  <InChi>  (1) 
InChI=1S/C30H43N3O6/c1-30(2)28(37)33(29(38)32-30)25-12-9-11-22(18-25)10-5-8-17-39-16-7-4-3-6-15-31-20-27(36)23-13-14-26(35)24(19-23)21-34/h9,11-14,18-19,27,31,34-36H,3-8,10,15-17,20-21H2,1-2H3,(H,32,38)/t27-/m0/s1

>  <IUPAC Name>  (1) 
3-[3-[4-[6-[[(2R)-2-hydroxy-2-[4-hydroxy-3-(hydroxymethyl)phenyl]ethyl]amino]hexoxy]butyl]phenyl]-5,5-dimethylimidazolidine-2,4-dione

$$$$
