
     RDKit          3D

 51 53  0  0  0  0  0  0  0  0999 V2000
    1.2928    1.4551   -1.3906 C   0  0  0  0  0  0  0  0  0  0  0  0
    1.2556   -0.0406   -1.1984 C   0  0  2  0  0  0  0  0  0  0  0  0
   -0.2460   -0.4203   -1.1505 C   0  0  0  0  0  0  0  0  0  0  0  0
   -0.8143    0.2879   -0.0458 N   0  0  0  0  0  0  0  0  0  0  0  0
   -2.1958    0.1325    0.2469 C   0  0  0  0  0  0  0  0  0  0  0  0
   -2.9444   -0.6933   -0.5412 C   0  0  0  0  0  0  0  0  0  0  0  0
   -4.3106   -0.8697   -0.2840 C   0  0  0  0  0  0  0  0  0  0  0  0
   -4.9685   -0.2515    0.7321 C   0  0  0  0  0  0  0  0  0  0  0  0
   -4.1752    0.5942    1.5325 C   0  0  0  0  0  0  0  0  0  0  0  0
   -2.8340    0.7710    1.2863 C   0  0  0  0  0  0  0  0  0  0  0  0
   -6.3726   -0.2808    1.0373 C   0  0  0  0  0  0  0  0  0  0  0  0
   -6.8286   -0.0208    2.2606 O   0  0  0  0  0  0  0  0  0  0  0  0
   -8.1199   -0.0994    2.3244 C   0  0  0  0  0  0  0  0  0  0  0  0
   -8.5674   -0.4155    1.1345 N   0  0  0  0  0  0  0  0  0  0  0  0
   -7.4877   -0.5349    0.2963 C   0  0  0  0  0  0  0  0  0  0  0  0
   -7.6704   -0.7726   -1.1176 C   0  0  0  0  0  0  0  0  0  0  0  0
   -8.8500   -1.0634   -1.5170 O   0  0  0  0  0  0  0  0  0  0  0  0
   -6.7325   -0.7219   -2.1133 O   0  0  0  0  0  0  0  0  0  0  0  0
    1.8210   -0.5368   -0.0094 N   0  0  0  0  0  0  0  0  0  0  0  0
    3.1772   -0.7075    0.2136 C   0  0  0  0  0  0  0  0  0  0  0  0
    4.0114    0.5065    0.3155 C   0  0  1  0  0  0  0  0  0  0  0  0
    5.4501    0.1885    0.6308 C   0  0  0  0  0  0  0  0  0  0  0  0
    5.8852   -1.0601    0.9594 C   0  0  0  0  0  0  0  0  0  0  0  0
    7.2371   -1.2305    1.2320 C   0  0  0  0  0  0  0  0  0  0  0  0
    8.1211   -0.1545    1.1706 C   0  0  0  0  0  0  0  0  0  0  0  0
    7.6701    1.1057    0.8367 C   0  0  0  0  0  0  0  0  0  0  0  0
    6.3310    1.2493    0.5719 C   0  0  0  0  0  0  0  0  0  0  0  0
    8.7843    2.4452    0.7615 Cl  0  0  0  0  0  0  0  0  0  0  0  0
    4.0419    1.2774   -0.8287 O   0  0  0  0  0  0  0  0  0  0  0  0
    0.2388    1.8320   -1.6488 H   0  0  0  0  0  0  0  0  0  0  0  0
    1.5171    2.0158   -0.4620 H   0  0  0  0  0  0  0  0  0  0  0  0
    1.8834    1.7853   -2.2712 H   0  0  0  0  0  0  0  0  0  0  0  0
    1.7018   -0.5299   -2.1136 H   0  0  0  0  0  0  0  0  0  0  0  0
   -0.6526    0.0269   -2.0820 H   0  0  0  0  0  0  0  0  0  0  0  0
   -0.3970   -1.4993   -1.1423 H   0  0  0  0  0  0  0  0  0  0  0  0
   -0.2750    0.9291    0.5813 H   0  0  0  0  0  0  0  0  0  0  0  0
   -2.4766   -1.2018   -1.3540 H   0  0  0  0  0  0  0  0  0  0  0  0
   -4.8002   -1.5726   -0.9213 H   0  0  0  0  0  0  0  0  0  0  0  0
   -4.5941    1.1348    2.3690 H   0  0  0  0  0  0  0  0  0  0  0  0
   -2.2565    1.4283    1.9211 H   0  0  0  0  0  0  0  0  0  0  0  0
   -8.7012    0.0699    3.2129 H   0  0  0  0  0  0  0  0  0  0  0  0
   -6.9998   -0.3985   -3.0230 H   0  0  0  0  0  0  0  0  0  0  0  0
    1.1682   -1.0833    0.5971 H   0  0  0  0  0  0  0  0  0  0  0  0
    3.5751   -1.4023   -0.5994 H   0  0  0  0  0  0  0  0  0  0  0  0
    3.2868   -1.3681    1.1350 H   0  0  0  0  0  0  0  0  0  0  0  0
    3.6853    1.1179    1.2075 H   0  0  0  0  0  0  0  0  0  0  0  0
    5.2185   -1.8969    1.0082 H   0  0  0  0  0  0  0  0  0  0  0  0
    7.6651   -2.1827    1.4992 H   0  0  0  0  0  0  0  0  0  0  0  0
    9.1633   -0.2778    1.3794 H   0  0  0  0  0  0  0  0  0  0  0  0
    5.9852    2.2425    0.3108 H   0  0  0  0  0  0  0  0  0  0  0  0
    4.1034    0.6919   -1.6021 H   0  0  0  0  0  0  0  0  0  0  0  0
  1  2  1  0
  2  3  1  0
  3  4  1  0
  4  5  1  0
  5  6  2  0
  6  7  1  0
  7  8  2  0
  8  9  1  0
  9 10  2  0
  8 11  1  0
 11 12  1  0
 12 13  1  0
 13 14  2  0
 14 15  1  0
 15 16  1  0
 16 17  2  0
 16 18  1  0
  2 19  1  0
 19 20  1  0
 20 21  1  0
 21 22  1  0
 22 23  2  0
 23 24  1  0
 24 25  2  0
 25 26  1  0
 26 27  2  0
 26 28  1  0
 21 29  1  0
 10  5  1  0
 15 11  2  0
 27 22  1  0
  1 30  1  0
  1 31  1  0
  1 32  1  0
  2 33  1  6
  3 34  1  0
  3 35  1  0
  4 36  1  0
  6 37  1  0
  7 38  1  0
  9 39  1  0
 10 40  1  0
 13 41  1  0
 18 42  1  0
 19 43  1  0
 20 44  1  0
 20 45  1  0
 21 46  1  1
 23 47  1  0
 24 48  1  0
 25 49  1  0
 27 50  1  0
 29 51  1  0
M  END
>  <Ligand ID>  (1) 
LIG0002238

>  <Ligand>  (1) 
CHEMBL247519

>  <SMILES>  (1) 
C[C@H](CNc1ccc(cc1)c1ocnc1C(=O)O)NC[C@@H](c1cccc(c1)Cl)O

>  <CID>  (1) 
44441232.0

>  <ChEMBL ID>  (1) 
nan

>  <InChiKey>  (1) 
ZGXVKSIBYRIOTG-ACJLOTCBSA-N

>  <InChi>  (1) 
InChI=1S/C21H22ClN3O4/c1-13(23-11-18(26)15-3-2-4-16(22)9-15)10-24-17-7-5-14(6-8-17)20-19(21(27)28)25-12-29-20/h2-9,12-13,18,23-24,26H,10-11H2,1H3,(H,27,28)/t13-,18+/m1/s1

>  <IUPAC Name>  (1) 
5-[4-[[(2R)-2-[[(2R)-2-(3-chlorophenyl)-2-hydroxyethyl]amino]propyl]amino]phenyl]-1,3-oxazole-4-carboxylic acid

$$$$
