
     RDKit          3D

 44 46  0  0  0  0  0  0  0  0999 V2000
   -0.7687    5.3104    0.2546 C   0  0  0  0  0  0  0  0  0  0  0  0
   -0.1483    4.2006   -0.1346 C   0  0  0  0  0  0  0  0  0  0  0  0
   -0.9810    3.0226   -0.5336 C   0  0  0  0  0  0  0  0  0  0  0  0
   -0.7546    1.8470    0.2534 N   0  0  0  0  0  0  0  0  0  0  0  0
   -1.1430    1.8477    1.5915 C   0  0  0  0  0  0  0  0  0  0  0  0
   -2.0100    0.6419    1.9844 C   0  0  0  0  0  0  0  0  0  0  0  0
   -1.8014   -0.4869    1.0026 C   0  0  0  0  0  0  0  0  0  0  0  0
   -0.6570   -0.8596    0.3272 C   0  0  0  0  0  0  0  0  0  0  0  0
    0.6610   -0.1448    0.4678 C   0  0  0  0  0  0  0  0  0  0  0  0
    0.4158    1.1940   -0.1742 C   0  0  0  0  0  0  0  0  0  0  0  0
    1.7884   -0.8487   -0.1080 C   0  0  0  0  0  0  0  0  0  0  0  0
    2.4081   -1.8322    0.6779 C   0  0  0  0  0  0  0  0  0  0  0  0
    3.4889   -2.5532    0.2123 C   0  0  0  0  0  0  0  0  0  0  0  0
    4.0105   -2.3409   -1.0471 C   0  0  0  0  0  0  0  0  0  0  0  0
    3.4113   -1.3720   -1.8395 C   0  0  0  0  0  0  0  0  0  0  0  0
    2.3328   -0.6637   -1.3540 C   0  0  0  0  0  0  0  0  0  0  0  0
    5.0804   -3.0295   -1.5532 O   0  0  0  0  0  0  0  0  0  0  0  0
   -0.5956   -1.9190   -0.5494 C   0  0  0  0  0  0  0  0  0  0  0  0
   -1.7602   -2.6328   -0.7464 C   0  0  0  0  0  0  0  0  0  0  0  0
   -2.9354   -2.2919   -0.0869 C   0  0  0  0  0  0  0  0  0  0  0  0
   -2.9375   -1.2144    0.7852 C   0  0  0  0  0  0  0  0  0  0  0  0
   -4.1015   -2.9927   -0.2730 O   0  0  0  0  0  0  0  0  0  0  0  0
   -1.8044   -3.7197   -1.6105 O   0  0  0  0  0  0  0  0  0  0  0  0
   -0.2074    6.1900    0.5534 H   0  0  0  0  0  0  0  0  0  0  0  0
   -1.8499    5.3724    0.2858 H   0  0  0  0  0  0  0  0  0  0  0  0
    0.9332    4.1597   -0.1587 H   0  0  0  0  0  0  0  0  0  0  0  0
   -0.6722    2.8350   -1.6050 H   0  0  0  0  0  0  0  0  0  0  0  0
   -2.0571    3.3183   -0.6151 H   0  0  0  0  0  0  0  0  0  0  0  0
   -1.8119    2.7378    1.7656 H   0  0  0  0  0  0  0  0  0  0  0  0
   -0.3110    2.0007    2.3326 H   0  0  0  0  0  0  0  0  0  0  0  0
   -3.0652    0.8943    2.0622 H   0  0  0  0  0  0  0  0  0  0  0  0
   -1.6301    0.2666    2.9615 H   0  0  0  0  0  0  0  0  0  0  0  0
    0.8134    0.0284    1.5551 H   0  0  0  0  0  0  0  0  0  0  0  0
    0.2775    0.9793   -1.2790 H   0  0  0  0  0  0  0  0  0  0  0  0
    1.3183    1.8074   -0.0465 H   0  0  0  0  0  0  0  0  0  0  0  0
    2.0562   -2.0585    1.6798 H   0  0  0  0  0  0  0  0  0  0  0  0
    3.9719   -3.3118    0.8099 H   0  0  0  0  0  0  0  0  0  0  0  0
    3.8176   -1.2002   -2.8304 H   0  0  0  0  0  0  0  0  0  0  0  0
    1.9065    0.0763   -2.0107 H   0  0  0  0  0  0  0  0  0  0  0  0
    6.0433   -2.6850   -1.5100 H   0  0  0  0  0  0  0  0  0  0  0  0
    0.3251   -2.1769   -1.0578 H   0  0  0  0  0  0  0  0  0  0  0  0
   -3.8641   -0.9620    1.2924 H   0  0  0  0  0  0  0  0  0  0  0  0
   -4.5522   -3.5401    0.4556 H   0  0  0  0  0  0  0  0  0  0  0  0
   -2.6404   -3.8939   -2.1870 H   0  0  0  0  0  0  0  0  0  0  0  0
  1  2  2  0
  2  3  1  0
  3  4  1  0
  4  5  1  0
  5  6  1  0
  6  7  1  0
  7  8  2  0
  8  9  1  0
  9 10  1  0
  9 11  1  0
 11 12  2  0
 12 13  1  0
 13 14  2  0
 14 15  1  0
 15 16  2  0
 14 17  1  0
  8 18  1  0
 18 19  2  0
 19 20  1  0
 20 21  2  0
 20 22  1  0
 19 23  1  0
 10  4  1  0
 16 11  1  0
 21  7  1  0
  1 24  1  0
  1 25  1  0
  2 26  1  0
  3 27  1  0
  3 28  1  0
  5 29  1  0
  5 30  1  0
  6 31  1  0
  6 32  1  0
  9 33  1  0
 10 34  1  0
 10 35  1  0
 12 36  1  0
 13 37  1  0
 15 38  1  0
 16 39  1  0
 17 40  1  0
 18 41  1  0
 21 42  1  0
 22 43  1  0
 23 44  1  0
M  END
>  <Ligand ID>  (1) 
LIG0005636

>  <Ligand>  (1) 
CHEMBL540575

>  <SMILES>  (1) 
C=CCN1CCc2c(C(C1)c1ccc(cc1)O)cc(c(c2)O)O

>  <CID>  (1) 
13720690.0

>  <ChEMBL ID>  (1) 
nan

>  <InChiKey>  (1) 
CLBZXLQZQXTQMX-UHFFFAOYSA-N

>  <InChi>  (1) 
InChI=1S/C19H21NO3/c1-2-8-20-9-7-14-10-18(22)19(23)11-16(14)17(12-20)13-3-5-15(21)6-4-13/h2-6,10-11,17,21-23H,1,7-9,12H2

>  <IUPAC Name>  (1) 
5-(4-hydroxyphenyl)-3-prop-2-enyl-1,2,4,5-tetrahydro-3-benzazepine-7,8-diol

$$$$
