
     RDKit          3D

127129  0  0  0  0  0  0  0  0999 V2000
   12.1523   -4.1949    0.2188 N   0  0  0  0  0  0  0  0  0  0  0  0
   11.4413   -3.3009   -0.6642 C   0  0  0  0  0  0  0  0  0  0  0  0
   10.2221   -2.7798    0.0962 C   0  0  0  0  0  0  0  0  0  0  0  0
    9.4211   -1.8397   -0.7526 C   0  0  0  0  0  0  0  0  0  0  0  0
    8.2089   -1.3621   -0.0124 C   0  0  1  0  0  0  0  0  0  0  0  0
    8.5577   -0.6505    1.2366 C   0  0  0  0  0  0  0  0  0  0  0  0
    9.1335   -1.2137    2.2252 O   0  0  0  0  0  0  0  0  0  0  0  0
    8.2746    0.7417    1.4465 N   0  0  0  0  0  0  0  0  0  0  0  0
    8.6017    1.4322    2.6636 C   0  0  0  0  0  0  0  0  0  0  0  0
   10.0741    1.3666    2.8836 C   0  0  0  0  0  0  0  0  0  0  0  0
   10.8779    0.8041    2.1061 O   0  0  0  0  0  0  0  0  0  0  0  0
   10.5322    2.0130    4.0912 N   0  0  0  0  0  0  0  0  0  0  0  0
    7.4716   -0.4013   -0.8456 N   0  0  0  0  0  0  0  0  0  0  0  0
    6.0555   -0.4483   -0.9887 C   0  0  0  0  0  0  0  0  0  0  0  0
    5.4581   -1.3616   -0.3576 O   0  0  0  0  0  0  0  0  0  0  0  0
    5.3029    0.5117   -1.8202 C   0  0  2  0  0  0  0  0  0  0  0  0
    5.7766    1.9092   -1.4595 C   0  0  0  0  0  0  0  0  0  0  0  0
    5.0065    2.2587   -0.2021 C   0  0  0  0  0  0  0  0  0  0  0  0
    3.9826    1.1351   -0.0632 C   0  0  0  0  0  0  0  0  0  0  0  0
    3.8824    0.5747   -1.4150 N   0  0  0  0  0  0  0  0  0  0  0  0
    2.7546    0.1759   -2.1506 C   0  0  0  0  0  0  0  0  0  0  0  0
    2.8698   -0.2173   -3.3582 O   0  0  0  0  0  0  0  0  0  0  0  0
    1.3504    0.1800   -1.5946 C   0  0  2  0  0  0  0  0  0  0  0  0
    1.3258   -0.7750   -0.4662 C   0  0  0  0  0  0  0  0  0  0  0  0
   -0.2923   -1.2782    0.1025 S   0  0  0  0  0  0  0  0  0  0  0  0
   -1.3882    0.2457    0.9266 S   0  0  0  0  0  0  0  0  0  0  0  0
   -1.2466    0.5129    2.7037 C   0  0  0  0  0  0  0  0  0  0  0  0
   -1.7693   -0.6884    3.3665 C   0  0  2  0  0  0  0  0  0  0  0  0
   -0.8876   -1.8085    2.9638 N   0  0  0  0  0  0  0  0  0  0  0  0
   -3.1537   -1.0565    3.2979 C   0  0  0  0  0  0  0  0  0  0  0  0
   -3.4453   -2.2851    3.2225 O   0  0  0  0  0  0  0  0  0  0  0  0
   -4.3125   -0.2056    3.2950 N   0  0  0  0  0  0  0  0  0  0  0  0
   -5.6574   -0.7612    3.2992 C   0  0  1  0  0  0  0  0  0  0  0  0
   -6.4834   -0.2104    4.3895 C   0  0  0  0  0  0  0  0  0  0  0  0
   -6.6930    1.2569    4.4166 C   0  0  0  0  0  0  0  0  0  0  0  0
   -5.9016    2.1424    4.9843 C   0  0  0  0  0  0  0  0  0  0  0  0
   -6.2146    3.4864    4.9740 C   0  0  0  0  0  0  0  0  0  0  0  0
   -7.8382    3.5541    4.0490 S   0  0  0  0  0  0  0  0  0  0  0  0
   -7.9067    1.7657    3.7825 C   0  0  0  0  0  0  0  0  0  0  0  0
   -6.2967   -0.6461    1.9801 C   0  0  0  0  0  0  0  0  0  0  0  0
   -7.4213   -1.0982    1.8044 O   0  0  0  0  0  0  0  0  0  0  0  0
   -5.7073   -0.0278    0.8345 N   0  0  0  0  0  0  0  0  0  0  0  0
   -6.3564   -0.0795   -0.5110 C   0  0  2  0  0  0  0  0  0  0  0  0
   -5.3085   -0.7232   -1.3457 C   0  0  0  0  0  0  0  0  0  0  0  0
   -4.2391   -0.9959   -0.7599 O   0  0  0  0  0  0  0  0  0  0  0  0
   -5.3479   -1.0759   -2.7107 N   0  0  0  0  0  0  0  0  0  0  0  0
   -4.1001   -1.6562   -3.2596 C   0  0  2  0  0  0  0  0  0  0  0  0
   -3.3970   -0.6513   -4.1122 C   0  0  0  0  0  0  0  0  0  0  0  0
   -3.7294   -0.3115   -5.2413 O   0  0  0  0  0  0  0  0  0  0  0  0
   -2.2519   -0.0194   -3.5676 N   0  0  0  0  0  0  0  0  0  0  0  0
   -1.3894    0.9490   -4.2185 C   0  0  2  0  0  0  0  0  0  0  0  0
   -0.1304    1.1122   -3.4382 C   0  0  0  0  0  0  0  0  0  0  0  0
    0.6179    2.0831   -3.4763 O   0  0  0  0  0  0  0  0  0  0  0  0
    0.3167    0.0520   -2.5421 N   0  0  0  0  0  0  0  0  0  0  0  0
   -2.1824    2.2816   -4.0460 C   0  0  0  0  0  0  0  0  0  0  0  0
   -2.3355    2.5462   -2.5867 C   0  0  0  0  0  0  0  0  0  0  0  0
   -1.5658    1.8565   -1.8429 O   0  0  0  0  0  0  0  0  0  0  0  0
   -3.2649    3.4861   -2.0581 N   0  0  0  0  0  0  0  0  0  0  0  0
   -4.4273   -2.7979   -4.1845 C   0  0  0  0  0  0  0  0  0  0  0  0
   -5.1568   -3.8355   -3.4432 C   0  0  0  0  0  0  0  0  0  0  0  0
   -5.3138   -3.6811   -2.2001 O   0  0  0  0  0  0  0  0  0  0  0  0
   -5.6463   -4.9515   -4.1650 N   0  0  0  0  0  0  0  0  0  0  0  0
   -6.7599    1.2666   -0.9623 C   0  0  2  0  0  0  0  0  0  0  0  0
   -7.7401    1.9142   -0.0482 C   0  0  0  0  0  0  0  0  0  0  0  0
   -9.0446    1.1896    0.0923 C   0  0  0  0  0  0  0  0  0  0  0  0
   -7.5235    1.0913   -2.2925 C   0  0  0  0  0  0  0  0  0  0  0  0
   12.8041   -3.6632    0.8281 H   0  0  0  0  0  0  0  0  0  0  0  0
   11.4693   -4.7052    0.8140 H   0  0  0  0  0  0  0  0  0  0  0  0
   12.0280   -2.4204   -0.9671 H   0  0  0  0  0  0  0  0  0  0  0  0
   11.1036   -3.9047   -1.5468 H   0  0  0  0  0  0  0  0  0  0  0  0
   10.6665   -2.1834    0.9400 H   0  0  0  0  0  0  0  0  0  0  0  0
    9.6176   -3.5999    0.5175 H   0  0  0  0  0  0  0  0  0  0  0  0
    9.1176   -2.3507   -1.7212 H   0  0  0  0  0  0  0  0  0  0  0  0
   10.0649   -0.9618   -1.0295 H   0  0  0  0  0  0  0  0  0  0  0  0
    7.4555   -2.1740    0.1989 H   0  0  0  0  0  0  0  0  0  0  0  0
    7.8036    1.2180    0.6480 H   0  0  0  0  0  0  0  0  0  0  0  0
    8.0309    1.0502    3.5314 H   0  0  0  0  0  0  0  0  0  0  0  0
    8.3744    2.5281    2.4805 H   0  0  0  0  0  0  0  0  0  0  0  0
   11.1084    1.4771    4.7987 H   0  0  0  0  0  0  0  0  0  0  0  0
   10.2794    3.0166    4.2474 H   0  0  0  0  0  0  0  0  0  0  0  0
    8.0083    0.3327   -1.3396 H   0  0  0  0  0  0  0  0  0  0  0  0
    5.3397    0.3575   -2.8818 H   0  0  0  0  0  0  0  0  0  0  0  0
    6.8561    1.9985   -1.3733 H   0  0  0  0  0  0  0  0  0  0  0  0
    5.4610    2.6263   -2.2405 H   0  0  0  0  0  0  0  0  0  0  0  0
    5.6701    2.2927    0.6817 H   0  0  0  0  0  0  0  0  0  0  0  0
    4.4540    3.2323   -0.3190 H   0  0  0  0  0  0  0  0  0  0  0  0
    4.3625    0.4387    0.6765 H   0  0  0  0  0  0  0  0  0  0  0  0
    3.0674    1.6078    0.2963 H   0  0  0  0  0  0  0  0  0  0  0  0
    1.2662    1.2349   -1.1692 H   0  0  0  0  0  0  0  0  0  0  0  0
    1.9911   -1.6587   -0.5981 H   0  0  0  0  0  0  0  0  0  0  0  0
    1.7992   -0.2634    0.4289 H   0  0  0  0  0  0  0  0  0  0  0  0
   -1.7865    1.4553    2.9902 H   0  0  0  0  0  0  0  0  0  0  0  0
   -0.1736    0.7161    2.9194 H   0  0  0  0  0  0  0  0  0  0  0  0
   -1.5182   -0.5880    4.4723 H   0  0  0  0  0  0  0  0  0  0  0  0
   -0.8574   -2.4876    3.7616 H   0  0  0  0  0  0  0  0  0  0  0  0
   -1.3181   -2.3220    2.1578 H   0  0  0  0  0  0  0  0  0  0  0  0
   -4.1002    0.7893    3.2931 H   0  0  0  0  0  0  0  0  0  0  0  0
   -5.5162   -1.8939    3.4842 H   0  0  0  0  0  0  0  0  0  0  0  0
   -5.9645   -0.4895    5.3617 H   0  0  0  0  0  0  0  0  0  0  0  0
   -7.4504   -0.7568    4.4537 H   0  0  0  0  0  0  0  0  0  0  0  0
   -4.9478    1.8502    5.5010 H   0  0  0  0  0  0  0  0  0  0  0  0
   -5.7433    4.3754    5.3538 H   0  0  0  0  0  0  0  0  0  0  0  0
   -8.6442    1.2177    3.3048 H   0  0  0  0  0  0  0  0  0  0  0  0
   -4.8284    0.4510    0.9982 H   0  0  0  0  0  0  0  0  0  0  0  0
   -7.2120   -0.7402   -0.4384 H   0  0  0  0  0  0  0  0  0  0  0  0
   -6.1905   -0.9363   -3.2346 H   0  0  0  0  0  0  0  0  0  0  0  0
   -3.3910   -1.9684   -2.5107 H   0  0  0  0  0  0  0  0  0  0  0  0
   -2.0291   -0.2750   -2.5957 H   0  0  0  0  0  0  0  0  0  0  0  0
   -1.2388    0.8078   -5.2787 H   0  0  0  0  0  0  0  0  0  0  0  0
   -0.1760   -0.8288   -2.6743 H   0  0  0  0  0  0  0  0  0  0  0  0
   -3.1816    2.0652   -4.4520 H   0  0  0  0  0  0  0  0  0  0  0  0
   -1.7211    3.0952   -4.5903 H   0  0  0  0  0  0  0  0  0  0  0  0
   -3.7117    4.2099   -2.6410 H   0  0  0  0  0  0  0  0  0  0  0  0
   -3.4597    3.3696   -1.0153 H   0  0  0  0  0  0  0  0  0  0  0  0
   -4.9981   -2.4098   -5.0559 H   0  0  0  0  0  0  0  0  0  0  0  0
   -3.4758   -3.1998   -4.6320 H   0  0  0  0  0  0  0  0  0  0  0  0
   -5.7023   -5.8759   -3.7105 H   0  0  0  0  0  0  0  0  0  0  0  0
   -5.9529   -4.8623   -5.1448 H   0  0  0  0  0  0  0  0  0  0  0  0
   -5.9168    1.9392   -1.2209 H   0  0  0  0  0  0  0  0  0  0  0  0
   -7.3365    2.0691    0.9799 H   0  0  0  0  0  0  0  0  0  0  0  0
   -7.9790    2.9520   -0.4005 H   0  0  0  0  0  0  0  0  0  0  0  0
   -9.9078    1.7955   -0.3331 H   0  0  0  0  0  0  0  0  0  0  0  0
   -9.3542    0.9768    1.1263 H   0  0  0  0  0  0  0  0  0  0  0  0
   -9.0136    0.1903   -0.4176 H   0  0  0  0  0  0  0  0  0  0  0  0
   -8.0513    0.1220   -2.3169 H   0  0  0  0  0  0  0  0  0  0  0  0
   -8.3252    1.8688   -2.3501 H   0  0  0  0  0  0  0  0  0  0  0  0
   -6.8671    1.2863   -3.1528 H   0  0  0  0  0  0  0  0  0  0  0  0
  1  2  1  0
  2  3  1  0
  3  4  1  0
  4  5  1  0
  5  6  1  0
  6  7  2  0
  6  8  1  0
  8  9  1  0
  9 10  1  0
 10 11  2  0
 10 12  1  0
  5 13  1  0
 13 14  1  0
 14 15  2  0
 14 16  1  0
 16 17  1  0
 17 18  1  0
 18 19  1  0
 19 20  1  0
 20 21  1  0
 21 22  2  0
 21 23  1  0
 23 24  1  0
 24 25  1  0
 25 26  1  0
 26 27  1  0
 27 28  1  0
 28 29  1  0
 28 30  1  0
 30 31  2  0
 30 32  1  0
 32 33  1  0
 33 34  1  0
 34 35  1  0
 35 36  1  0
 36 37  2  0
 37 38  1  0
 38 39  1  0
 33 40  1  0
 40 41  2  0
 40 42  1  0
 42 43  1  0
 43 44  1  0
 44 45  2  0
 44 46  1  0
 46 47  1  0
 47 48  1  0
 48 49  2  0
 48 50  1  0
 50 51  1  0
 51 52  1  0
 52 53  2  0
 52 54  1  0
 51 55  1  0
 55 56  1  0
 56 57  2  0
 56 58  1  0
 47 59  1  0
 59 60  1  0
 60 61  2  0
 60 62  1  0
 43 63  1  0
 63 64  1  0
 64 65  1  0
 63 66  1  0
 20 16  1  0
 54 23  1  0
 39 35  2  0
  1 67  1  0
  1 68  1  0
  2 69  1  0
  2 70  1  0
  3 71  1  0
  3 72  1  0
  4 73  1  0
  4 74  1  0
  5 75  1  1
  8 76  1  0
  9 77  1  0
  9 78  1  0
 12 79  1  0
 12 80  1  0
 13 81  1  0
 16 82  1  6
 17 83  1  0
 17 84  1  0
 18 85  1  0
 18 86  1  0
 19 87  1  0
 19 88  1  0
 23 89  1  1
 24 90  1  0
 24 91  1  0
 27 92  1  0
 27 93  1  0
 28 94  1  1
 29 95  1  0
 29 96  1  0
 32 97  1  0
 33 98  1  1
 34 99  1  0
 34100  1  0
 36101  1  0
 37102  1  0
 39103  1  0
 42104  1  0
 43105  1  1
 46106  1  0
 47107  1  1
 50108  1  0
 51109  1  6
 54110  1  0
 55111  1  0
 55112  1  0
 58113  1  0
 58114  1  0
 59115  1  0
 59116  1  0
 62117  1  0
 62118  1  0
 63119  1  6
 64120  1  0
 64121  1  0
 65122  1  0
 65123  1  0
 65124  1  0
 66125  1  0
 66126  1  0
 66127  1  0
M  END
>  <Ligand ID>  (1) 
LIG0001616

>  <Ligand>  (1) 
CHEMBL1817764

>  <SMILES>  (1) 
NCCC[C@@H](C(=O)NCC(=O)N)NC(=O)[C@@H]1CCCN1C(=O)[C@@H]1CSSC[C@H](N)C(=O)N[C@@H](Cc2ccsc2)C(=O)N[C@H](C(=O)N[C@H](C(=O)N[C@H](C(=O)N1)CC(=O)N)CC(=O)N)[C@H](CC)C

>  <CID>  (1) 
53362852.0

>  <ChEMBL ID>  (1) 
nan

>  <InChiKey>  (1) 
TZAABGJOPJLXDL-DSMBUKBGSA-N

>  <InChi>  (1) 
InChI=1S/C39H61N13O11S3/c1-3-19(2)31-38(62)49-25(14-29(43)54)34(58)48-24(13-28(42)53)35(59)50-26(18-66-65-17-21(41)32(56)47-23(36(60)51-31)12-20-8-11-64-16-20)39(63)52-10-5-7-27(52)37(61)46-22(6-4-9-40)33(57)45-15-30(44)55/h8,11,16,19,21-27,31H,3-7,9-10,12-15,17-18,40-41H2,1-2H3,(H2,42,53)(H2,43,54)(H2,44,55)(H,45,57)(H,46,61)(H,47,56)(H,48,58)(H,49,62)(H,50,59)(H,51,60)/t19-,21-,22-,23-,24-,25-,26-,27-,31-/m0/s1

>  <IUPAC Name>  (1) 
(2S)-N-[(2S)-5-amino-1-[(2-amino-2-oxoethyl)amino]-1-oxopentan-2-yl]-1-[(4R,7S,10S,13S,16S,19R)-19-amino-7,10-bis(2-amino-2-oxoethyl)-13-[(2S)-butan-2-yl]-6,9,12,15,18-pentaoxo-16-(thiophen-3-ylmethyl)-1,2-dithia-5,8,11,14,17-pentazacycloicosane-4-carbonyl]pyrrolidine-2-carboxamide

$$$$
