
     RDKit          3D

 38 37  0  0  0  0  0  0  0  0999 V2000
   -4.7076   -0.9131   -1.5003 C   0  0  0  0  0  0  0  0  0  0  0  0
   -5.1277    0.4260   -0.8811 C   0  0  0  0  0  0  0  0  0  0  0  0
   -4.3577    0.6291    0.4067 C   0  0  0  0  0  0  0  0  0  0  0  0
   -2.8741    0.6326    0.0312 C   0  0  0  0  0  0  0  0  0  0  0  0
   -2.0151    0.8280    1.2369 C   0  0  0  0  0  0  0  0  0  0  0  0
   -0.5316    0.8424    0.9000 C   0  0  0  0  0  0  0  0  0  0  0  0
   -0.1124   -0.4415    0.2715 C   0  0  0  0  0  0  0  0  0  0  0  0
    1.3415   -0.5281   -0.1014 C   0  0  0  0  0  0  0  0  0  0  0  0
    2.1899   -0.3724    1.1149 C   0  0  0  0  0  0  0  0  0  0  0  0
    3.6456   -0.4562    0.8129 C   0  0  0  0  0  0  0  0  0  0  0  0
    4.4699   -0.3368    1.7793 O   0  0  0  0  0  0  0  0  0  0  0  0
    4.0528   -0.6588   -0.4928 O   0  0  0  0  0  0  0  0  0  0  0  0
    5.4106   -0.7414   -0.8046 C   0  0  0  0  0  0  0  0  0  0  0  0
    6.2177    0.4763   -0.4630 C   0  0  0  0  0  0  0  0  0  0  0  0
   -3.8138   -0.7818   -2.1382 H   0  0  0  0  0  0  0  0  0  0  0  0
   -5.5192   -1.3449   -2.1116 H   0  0  0  0  0  0  0  0  0  0  0  0
   -4.4295   -1.5926   -0.6485 H   0  0  0  0  0  0  0  0  0  0  0  0
   -4.8385    1.2230   -1.5991 H   0  0  0  0  0  0  0  0  0  0  0  0
   -6.2179    0.4427   -0.7442 H   0  0  0  0  0  0  0  0  0  0  0  0
   -4.6729    1.5991    0.8360 H   0  0  0  0  0  0  0  0  0  0  0  0
   -4.5793   -0.2287    1.0594 H   0  0  0  0  0  0  0  0  0  0  0  0
   -2.6843   -0.3462   -0.4557 H   0  0  0  0  0  0  0  0  0  0  0  0
   -2.7190    1.4449   -0.7143 H   0  0  0  0  0  0  0  0  0  0  0  0
   -2.2552    0.0176    1.9692 H   0  0  0  0  0  0  0  0  0  0  0  0
   -2.3235    1.7640    1.7458 H   0  0  0  0  0  0  0  0  0  0  0  0
   -0.4409    1.6318    0.0963 H   0  0  0  0  0  0  0  0  0  0  0  0
    0.0470    1.1670    1.7713 H   0  0  0  0  0  0  0  0  0  0  0  0
   -0.4125   -1.3229    0.8863 H   0  0  0  0  0  0  0  0  0  0  0  0
   -0.6855   -0.5473   -0.6794 H   0  0  0  0  0  0  0  0  0  0  0  0
    1.5766   -1.4334   -0.6870 H   0  0  0  0  0  0  0  0  0  0  0  0
    1.5380    0.3245   -0.7882 H   0  0  0  0  0  0  0  0  0  0  0  0
    1.9742   -1.2537    1.7712 H   0  0  0  0  0  0  0  0  0  0  0  0
    1.9500    0.5516    1.6428 H   0  0  0  0  0  0  0  0  0  0  0  0
    5.4744   -0.8345   -1.9282 H   0  0  0  0  0  0  0  0  0  0  0  0
    5.9337   -1.6337   -0.4082 H   0  0  0  0  0  0  0  0  0  0  0  0
    7.2850    0.1988   -0.6840 H   0  0  0  0  0  0  0  0  0  0  0  0
    6.2170    0.7190    0.6184 H   0  0  0  0  0  0  0  0  0  0  0  0
    5.9940    1.3410   -1.1204 H   0  0  0  0  0  0  0  0  0  0  0  0
  1  2  1  0
  2  3  1  0
  3  4  1  0
  4  5  1  0
  5  6  1  0
  6  7  1  0
  7  8  1  0
  8  9  1  0
  9 10  1  0
 10 11  2  0
 10 12  1  0
 12 13  1  0
 13 14  1  0
  1 15  1  0
  1 16  1  0
  1 17  1  0
  2 18  1  0
  2 19  1  0
  3 20  1  0
  3 21  1  0
  4 22  1  0
  4 23  1  0
  5 24  1  0
  5 25  1  0
  6 26  1  0
  6 27  1  0
  7 28  1  0
  7 29  1  0
  8 30  1  0
  8 31  1  0
  9 32  1  0
  9 33  1  0
 13 34  1  0
 13 35  1  0
 14 36  1  0
 14 37  1  0
 14 38  1  0
M  END
>  <Ligand ID>  (1) 
LIG0000278

>  <Ligand>  (1) 
Ethyl caprate

>  <SMILES>  (1) 
CCCCCCCCCC(=O)OCC

>  <CID>  (1) 
8048.0

>  <ChEMBL ID>  (1) 
nan

>  <InChiKey>  (1) 
RGXWDWUGBIJHDO-UHFFFAOYSA-N

>  <InChi>  (1) 
InChI=1S/C12H24O2/c1-3-5-6-7-8-9-10-11-12(13)14-4-2/h3-11H2,1-2H3

>  <IUPAC Name>  (1) 
ethyl decanoate

$$$$
