
     RDKit          3D

 24 23  0  0  0  0  0  0  0  0999 V2000
   -3.9073    0.2740    0.0235 C   0  0  0  0  0  0  0  0  0  0  0  0
   -2.6063    0.8879   -0.5130 C   0  0  0  0  0  0  0  0  0  0  0  0
   -1.9396   -0.2061   -1.2496 C   0  0  0  0  0  0  0  0  0  0  0  0
   -0.7605   -0.7039   -0.9914 C   0  0  0  0  0  0  0  0  0  0  0  0
    0.1536   -0.2826    0.0856 C   0  0  0  0  0  0  0  0  0  0  0  0
    1.4816    0.2074   -0.5206 C   0  0  0  0  0  0  0  0  0  0  0  0
    2.3268    0.6045    0.6088 C   0  0  0  0  0  0  0  0  0  0  0  0
    3.5001    0.0684    0.8858 C   0  0  0  0  0  0  0  0  0  0  0  0
    4.0958   -0.9924    0.0900 C   0  0  0  0  0  0  0  0  0  0  0  0
    5.2169   -1.4459    0.4248 O   0  0  0  0  0  0  0  0  0  0  0  0
   -4.2526    0.8922    0.8968 H   0  0  0  0  0  0  0  0  0  0  0  0
   -4.6556    0.2828   -0.7891 H   0  0  0  0  0  0  0  0  0  0  0  0
   -3.7279   -0.7659    0.3521 H   0  0  0  0  0  0  0  0  0  0  0  0
   -2.0879    1.2653    0.3611 H   0  0  0  0  0  0  0  0  0  0  0  0
   -2.9231    1.7370   -1.1515 H   0  0  0  0  0  0  0  0  0  0  0  0
   -2.5115   -0.6287   -2.0961 H   0  0  0  0  0  0  0  0  0  0  0  0
   -0.4014   -1.5228   -1.6377 H   0  0  0  0  0  0  0  0  0  0  0  0
   -0.2076    0.5787    0.6726 H   0  0  0  0  0  0  0  0  0  0  0  0
    0.4827   -1.1385    0.7330 H   0  0  0  0  0  0  0  0  0  0  0  0
    1.2856    1.0945   -1.1819 H   0  0  0  0  0  0  0  0  0  0  0  0
    1.8401   -0.6359   -1.1232 H   0  0  0  0  0  0  0  0  0  0  0  0
    1.9372    1.4047    1.2557 H   0  0  0  0  0  0  0  0  0  0  0  0
    4.0180    0.4569    1.7502 H   0  0  0  0  0  0  0  0  0  0  0  0
    3.6429   -1.4315   -0.7844 H   0  0  0  0  0  0  0  0  0  0  0  0
  1  2  1  0
  2  3  1  0
  3  4  2  0
  4  5  1  0
  5  6  1  0
  6  7  1  0
  7  8  2  0
  8  9  1  0
  9 10  2  0
  1 11  1  0
  1 12  1  0
  1 13  1  0
  2 14  1  0
  2 15  1  0
  3 16  1  0
  4 17  1  0
  5 18  1  0
  5 19  1  0
  6 20  1  0
  6 21  1  0
  7 22  1  0
  8 23  1  0
  9 24  1  0
M  END
>  <Ligand ID>  (1) 
LIG0005001

>  <Ligand>  (1) 
E,E-2,6-nonadienal

>  <SMILES>  (1) 
CC/C=C\CC/C=C\C=O

>  <CID>  (1) 
88369124.0

>  <ChEMBL ID>  (1) 
nan

>  <InChiKey>  (1) 
HZYHMHHBBBSGHB-KPDBFRNYSA-N

>  <InChi>  (1) 
InChI=1S/C9H14O/c1-2-3-4-5-6-7-8-9-10/h3-4,7-9H,2,5-6H2,1H3/b4-3-,8-7-

>  <IUPAC Name>  (1) 
(2Z,6Z)-nona-2,6-dienal

$$$$
