
     RDKit          3D

 35 34  0  0  0  0  0  0  0  0999 V2000
   -5.4340    0.5699   -0.6794 C   0  0  0  0  0  0  0  0  0  0  0  0
   -5.1400    0.1890    0.7386 C   0  0  0  0  0  0  0  0  0  0  0  0
   -3.6708    0.4202    1.0024 C   0  0  0  0  0  0  0  0  0  0  0  0
   -2.8185   -0.4157    0.0746 C   0  0  0  0  0  0  0  0  0  0  0  0
   -1.3676   -0.1389    0.3891 C   0  0  0  0  0  0  0  0  0  0  0  0
   -0.4404   -0.9422   -0.5021 C   0  0  0  0  0  0  0  0  0  0  0  0
    0.9732   -0.6084   -0.1243 C   0  0  0  0  0  0  0  0  0  0  0  0
    1.1170    0.2199    0.7995 O   0  0  0  0  0  0  0  0  0  0  0  0
    1.9695   -1.2390   -0.8230 O   0  0  0  0  0  0  0  0  0  0  0  0
    3.3142   -0.9714   -0.5270 C   0  0  0  0  0  0  0  0  0  0  0  0
    3.6204    0.4502   -0.7892 C   0  0  0  0  0  0  0  0  0  0  0  0
    5.0306    0.8649   -0.5128 C   0  0  0  0  0  0  0  0  0  0  0  0
    5.4837    0.6800    0.8845 C   0  0  0  0  0  0  0  0  0  0  0  0
   -6.5331    0.6628   -0.8178 H   0  0  0  0  0  0  0  0  0  0  0  0
   -4.9419    1.5393   -0.9445 H   0  0  0  0  0  0  0  0  0  0  0  0
   -5.0937   -0.2240   -1.3736 H   0  0  0  0  0  0  0  0  0  0  0  0
   -5.7379    0.7455    1.4729 H   0  0  0  0  0  0  0  0  0  0  0  0
   -5.3176   -0.8938    0.8755 H   0  0  0  0  0  0  0  0  0  0  0  0
   -3.4644    1.4799    0.7554 H   0  0  0  0  0  0  0  0  0  0  0  0
   -3.4486    0.2129    2.0619 H   0  0  0  0  0  0  0  0  0  0  0  0
   -3.0926   -0.2105   -0.9635 H   0  0  0  0  0  0  0  0  0  0  0  0
   -3.0181   -1.4998    0.3090 H   0  0  0  0  0  0  0  0  0  0  0  0
   -1.1620    0.9439    0.2686 H   0  0  0  0  0  0  0  0  0  0  0  0
   -1.2127   -0.3897    1.4568 H   0  0  0  0  0  0  0  0  0  0  0  0
   -0.6385   -0.6343   -1.5486 H   0  0  0  0  0  0  0  0  0  0  0  0
   -0.5986   -2.0165   -0.3979 H   0  0  0  0  0  0  0  0  0  0  0  0
    3.4249   -1.2519    0.5619 H   0  0  0  0  0  0  0  0  0  0  0  0
    3.9094   -1.6831   -1.1542 H   0  0  0  0  0  0  0  0  0  0  0  0
    3.4455    0.6131   -1.8927 H   0  0  0  0  0  0  0  0  0  0  0  0
    2.8947    1.1078   -0.2939 H   0  0  0  0  0  0  0  0  0  0  0  0
    5.7231    0.2987   -1.1904 H   0  0  0  0  0  0  0  0  0  0  0  0
    5.1266    1.9269   -0.8211 H   0  0  0  0  0  0  0  0  0  0  0  0
    4.7572    0.8301    1.6785 H   0  0  0  0  0  0  0  0  0  0  0  0
    6.2837    1.4587    1.0613 H   0  0  0  0  0  0  0  0  0  0  0  0
    6.0572   -0.2843    0.9652 H   0  0  0  0  0  0  0  0  0  0  0  0
  1  2  1  0
  2  3  1  0
  3  4  1  0
  4  5  1  0
  5  6  1  0
  6  7  1  0
  7  8  2  0
  7  9  1  0
  9 10  1  0
 10 11  1  0
 11 12  1  0
 12 13  1  0
  1 14  1  0
  1 15  1  0
  1 16  1  0
  2 17  1  0
  2 18  1  0
  3 19  1  0
  3 20  1  0
  4 21  1  0
  4 22  1  0
  5 23  1  0
  5 24  1  0
  6 25  1  0
  6 26  1  0
 10 27  1  0
 10 28  1  0
 11 29  1  0
 11 30  1  0
 12 31  1  0
 12 32  1  0
 13 33  1  0
 13 34  1  0
 13 35  1  0
M  END
>  <Ligand ID>  (1) 
LIG0000190

>  <Ligand>  (1) 
Butyl heptanoate

>  <SMILES>  (1) 
CCCCCCC(=O)OCCCC

>  <CID>  (1) 
21596.0

>  <ChEMBL ID>  (1) 
nan

>  <InChiKey>  (1) 
YPQSPODHFDGVAC-UHFFFAOYSA-N

>  <InChi>  (1) 
InChI=1S/C11H22O2/c1-3-5-7-8-9-11(12)13-10-6-4-2/h3-10H2,1-2H3

>  <IUPAC Name>  (1) 
butyl heptanoate

$$$$
