
     RDKit          3D

 28 29  0  0  0  0  0  0  0  0999 V2000
   -4.2062   -0.9802   -1.2874 C   0  0  0  0  0  0  0  0  0  0  0  0
   -2.4989   -1.3436   -0.8785 S   0  0  0  0  0  0  0  0  0  0  0  0
   -1.7882   -0.0381    0.0966 C   0  0  0  0  0  0  0  0  0  0  0  0
   -2.5815    1.0386    0.4081 C   0  0  0  0  0  0  0  0  0  0  0  0
   -2.0946    2.0847    1.1599 C   0  0  0  0  0  0  0  0  0  0  0  0
   -0.7881    2.0249    1.5940 C   0  0  0  0  0  0  0  0  0  0  0  0
   -0.0054    0.9318    1.2699 C   0  0  0  0  0  0  0  0  0  0  0  0
   -0.4533   -0.1308    0.5224 C   0  0  0  0  0  0  0  0  0  0  0  0
    0.3002   -1.2651    0.1829 N   0  0  0  0  0  0  0  0  0  0  0  0
    1.6666   -1.5423    0.5029 C   0  0  0  0  0  0  0  0  0  0  0  0
    2.6665   -0.6962   -0.1592 C   0  0  0  0  0  0  0  0  0  0  0  0
    3.1458   -0.9910   -1.4442 C   0  0  0  0  0  0  0  0  0  0  0  0
    4.0601   -0.0720   -1.8010 N   0  0  0  0  0  0  0  0  0  0  0  0
    4.1784    0.8003   -0.7815 C   0  0  0  0  0  0  0  0  0  0  0  0
    3.3224    0.3966    0.1988 N   0  0  0  0  0  0  0  0  0  0  0  0
   -4.8140   -0.6649   -0.4115 H   0  0  0  0  0  0  0  0  0  0  0  0
   -4.2764   -0.1780   -2.0742 H   0  0  0  0  0  0  0  0  0  0  0  0
   -4.6710   -1.9182   -1.6771 H   0  0  0  0  0  0  0  0  0  0  0  0
   -3.6222    1.0799    0.0591 H   0  0  0  0  0  0  0  0  0  0  0  0
   -2.6818    2.9522    1.4292 H   0  0  0  0  0  0  0  0  0  0  0  0
   -0.3757    2.8355    2.1891 H   0  0  0  0  0  0  0  0  0  0  0  0
    0.9922    0.9242    1.6341 H   0  0  0  0  0  0  0  0  0  0  0  0
   -0.2005   -2.0201   -0.3848 H   0  0  0  0  0  0  0  0  0  0  0  0
    1.9505   -2.5971    0.3130 H   0  0  0  0  0  0  0  0  0  0  0  0
    1.8466   -1.3982    1.6139 H   0  0  0  0  0  0  0  0  0  0  0  0
    2.8418   -1.8273   -2.0760 H   0  0  0  0  0  0  0  0  0  0  0  0
    4.8385    1.6749   -0.7408 H   0  0  0  0  0  0  0  0  0  0  0  0
    3.2484    0.9195    1.0921 H   0  0  0  0  0  0  0  0  0  0  0  0
  1  2  1  0
  2  3  1  0
  3  4  2  0
  4  5  1  0
  5  6  2  0
  6  7  1  0
  7  8  2  0
  8  9  1  0
  9 10  1  0
 10 11  1  0
 11 12  2  0
 12 13  1  0
 13 14  2  0
 14 15  1  0
  8  3  1  0
 15 11  1  0
  1 16  1  0
  1 17  1  0
  1 18  1  0
  4 19  1  0
  5 20  1  0
  6 21  1  0
  7 22  1  0
  9 23  1  0
 10 24  1  0
 10 25  1  0
 12 26  1  0
 14 27  1  0
 15 28  1  0
M  END
>  <Ligand ID>  (1) 
LIG0004959

>  <Ligand>  (1) 
CHEMBL118055

>  <SMILES>  (1) 
CSc1ccccc1NCc1cnc[nH]1

>  <CID>  (1) 
44343410.0

>  <ChEMBL ID>  (1) 
nan

>  <InChiKey>  (1) 
HHQOMPROOBMQGY-UHFFFAOYSA-N

>  <InChi>  (1) 
InChI=1S/C11H13N3S/c1-15-11-5-3-2-4-10(11)13-7-9-6-12-8-14-9/h2-6,8,13H,7H2,1H3,(H,12,14)

>  <IUPAC Name>  (1) 
N-(1H-imidazol-5-ylmethyl)-2-methylsulfanylaniline

$$$$
