
     RDKit          3D

 33 33  0  0  0  0  0  0  0  0999 V2000
    4.2911    1.1373   -0.8716 N   0  0  0  0  0  0  0  0  0  0  0  0
    3.5129    0.8294    0.3106 C   0  0  0  0  0  0  0  0  0  0  0  0
    2.3840   -0.0952   -0.1003 C   0  0  2  0  0  0  0  0  0  0  0  0
    1.4761    0.5214   -1.1271 C   0  0  0  0  0  0  0  0  0  0  0  0
    1.0066    0.1961    0.3210 C   0  0  1  0  0  0  0  0  0  0  0  0
    0.0074   -0.8980    0.3629 C   0  0  0  0  0  0  0  0  0  0  0  0
    0.3524   -2.2307    0.4865 C   0  0  0  0  0  0  0  0  0  0  0  0
   -0.6083   -3.2199    0.5217 C   0  0  0  0  0  0  0  0  0  0  0  0
   -0.2506   -4.9133    0.6751 Cl  0  0  0  0  0  0  0  0  0  0  0  0
   -1.9468   -2.8509    0.4296 C   0  0  0  0  0  0  0  0  0  0  0  0
   -2.2764   -1.5158    0.3064 C   0  0  0  0  0  0  0  0  0  0  0  0
   -1.3329   -0.5072    0.2689 C   0  0  0  0  0  0  0  0  0  0  0  0
   -1.6726    0.8392    0.1444 O   0  0  0  0  0  0  0  0  0  0  0  0
   -3.0475    1.1538    0.0550 C   0  0  0  0  0  0  0  0  0  0  0  0
   -3.2536    2.6608   -0.0763 C   0  0  0  0  0  0  0  0  0  0  0  0
   -2.7485    3.3442    0.9911 F   0  0  0  0  0  0  0  0  0  0  0  0
   -4.5998    2.9372   -0.1446 F   0  0  0  0  0  0  0  0  0  0  0  0
    0.6914    0.0000    0.0000 Cl  0  0  0  0  0  0  0  0  0  0  0  0
    5.1851    1.6184   -0.6509 H   0  0  0  0  0  0  0  0  0  0  0  0
    4.5088    0.2701   -1.3934 H   0  0  0  0  0  0  0  0  0  0  0  0
    4.1569    0.3639    1.0581 H   0  0  0  0  0  0  0  0  0  0  0  0
    3.1375    1.7909    0.7270 H   0  0  0  0  0  0  0  0  0  0  0  0
    2.6847   -1.1515   -0.2117 H   0  0  0  0  0  0  0  0  0  0  0  0
    1.1741   -0.1614   -1.9321 H   0  0  0  0  0  0  0  0  0  0  0  0
    1.5734    1.5883   -1.3945 H   0  0  0  0  0  0  0  0  0  0  0  0
    0.8602    1.0936    0.9505 H   0  0  0  0  0  0  0  0  0  0  0  0
    1.3752   -2.5147    0.5571 H   0  0  0  0  0  0  0  0  0  0  0  0
   -2.7485   -3.6003    0.4528 H   0  0  0  0  0  0  0  0  0  0  0  0
   -3.3288   -1.2004    0.2320 H   0  0  0  0  0  0  0  0  0  0  0  0
   -3.5084    0.6997   -0.8609 H   0  0  0  0  0  0  0  0  0  0  0  0
   -3.6488    0.8225    0.9089 H   0  0  0  0  0  0  0  0  0  0  0  0
   -2.7149    2.9923   -0.9962 H   0  0  0  0  0  0  0  0  0  0  0  0
   -0.6914    0.0000    0.0000 H   0  0  0  0  0  0  0  0  0  0  0  0
  1  2  1  0
  2  3  1  0
  3  4  1  0
  4  5  1  0
  5  6  1  0
  6  7  2  0
  7  8  1  0
  8  9  1  0
  8 10  2  0
 10 11  1  0
 11 12  2  0
 12 13  1  0
 13 14  1  0
 14 15  1  0
 15 16  1  0
 15 17  1  0
  5  3  1  0
 12  6  1  0
  1 19  1  0
  1 20  1  0
  2 21  1  0
  2 22  1  0
  3 23  1  6
  4 24  1  0
  4 25  1  0
  5 26  1  1
  7 27  1  0
 10 28  1  0
 11 29  1  0
 14 30  1  0
 14 31  1  0
 15 32  1  0
 18 33  1  0
M  END
>  <Ligand ID>  (1) 
LIG0002417

>  <Ligand>  (1) 
CHEMBL3416056

>  <SMILES>  (1) 
NC[C@@H]1C[C@H]1c1cc(Cl)ccc1OCC(F)F.Cl

>  <CID>  (1) 
118733807.0

>  <ChEMBL ID>  (1) 
nan

>  <InChiKey>  (1) 
USCGTJANXHQSTR-DKXTVVGFSA-N

>  <InChi>  (1) 
InChI=1S/C12H14ClF2NO.ClH/c13-8-1-2-11(17-6-12(14)15)10(4-8)9-3-7(9)5-16;/h1-2,4,7,9,12H,3,5-6,16H2;1H/t7-,9+;/m0./s1

>  <IUPAC Name>  (1) 
[(1R,2R)-2-[5-chloro-2-(2,2-difluoroethoxy)phenyl]cyclopropyl]methanamine;hydrochloride

$$$$
