
     RDKit          3D

141146  0  0  0  0  0  0  0  0999 V2000
   -8.5045   -1.6810   -2.2539 C   0  0  0  0  0  0  0  0  0  0  0  0
   -7.1172   -1.1667   -2.5871 C   0  0  0  0  0  0  0  0  0  0  0  0
   -6.7432   -0.1053   -1.5846 C   0  0  0  0  0  0  0  0  0  0  0  0
   -6.7222   -0.5911   -0.1844 C   0  0  0  0  0  0  0  0  0  0  0  0
   -5.7978   -1.6990    0.1601 C   0  0  1  0  0  0  0  0  0  0  0  0
   -4.3637   -1.4642   -0.0400 C   0  0  0  0  0  0  0  0  0  0  0  0
   -3.6489   -1.4937    1.0288 O   0  0  0  0  0  0  0  0  0  0  0  0
   -3.6868   -1.2184   -1.2354 N   0  0  0  0  0  0  0  0  0  0  0  0
   -2.2896   -1.0136   -1.2988 C   0  0  1  0  0  0  0  0  0  0  0  0
   -1.6191   -1.9658   -2.2372 C   0  0  0  0  0  0  0  0  0  0  0  0
   -1.9047   -3.3520   -1.8073 C   0  0  0  0  0  0  0  0  0  0  0  0
   -2.8864   -3.5533   -1.0852 O   0  0  0  0  0  0  0  0  0  0  0  0
   -1.1415   -4.5052   -2.1465 N   0  0  0  0  0  0  0  0  0  0  0  0
   -1.5974   -5.7683   -1.6144 C   0  0  0  0  0  0  0  0  0  0  0  0
   -1.6579   -5.8891   -0.1460 C   0  0  0  0  0  0  0  0  0  0  0  0
   -0.3610   -5.8712    0.5649 C   0  0  0  0  0  0  0  0  0  0  0  0
    0.4700   -4.6644    0.2624 C   0  0  0  0  0  0  0  0  0  0  0  0
    1.6193   -4.6885    1.3156 C   0  0  2  0  0  0  0  0  0  0  0  0
    2.5702   -3.6918    0.8961 N   0  0  0  0  0  0  0  0  0  0  0  0
    2.5744   -2.3249    1.3125 C   0  0  0  0  0  0  0  0  0  0  0  0
    1.6011   -1.9941    2.0062 O   0  0  0  0  0  0  0  0  0  0  0  0
    3.6828   -1.4613    0.8896 C   0  0  1  0  0  0  0  0  0  0  0  0
    3.4258   -0.0160    1.0495 N   0  0  0  0  0  0  0  0  0  0  0  0
    3.9333    0.8612    0.0461 C   0  0  0  0  0  0  0  0  0  0  0  0
    4.4935    0.2745   -0.9096 O   0  0  0  0  0  0  0  0  0  0  0  0
    3.8692    2.3210    0.0173 C   0  0  2  0  0  0  0  0  0  0  0  0
    2.5138    2.8914    0.1613 N   0  0  0  0  0  0  0  0  0  0  0  0
    1.9867    3.2509    1.4167 C   0  0  0  0  0  0  0  0  0  0  0  0
    2.7816    3.0756    2.3642 O   0  0  0  0  0  0  0  0  0  0  0  0
    0.6385    3.7961    1.7077 C   0  0  2  0  0  0  0  0  0  0  0  0
   -0.1888    3.9384    0.5145 N   0  0  0  0  0  0  0  0  0  0  0  0
   -1.0342    2.8687    0.1769 C   0  0  0  0  0  0  0  0  0  0  0  0
   -1.0753    1.8972    0.9357 O   0  0  0  0  0  0  0  0  0  0  0  0
   -1.9091    2.8006   -1.0544 C   0  0  1  0  0  0  0  0  0  0  0  0
   -2.6027    1.5133   -1.0270 N   0  0  0  0  0  0  0  0  0  0  0  0
   -1.7968    0.3595   -1.3063 C   0  0  0  0  0  0  0  0  0  0  0  0
   -0.6098    0.5881   -1.5590 O   0  0  0  0  0  0  0  0  0  0  0  0
   -2.7465    3.9876   -1.1596 C   0  0  0  0  0  0  0  0  0  0  0  0
   -3.6940    4.2743   -0.0861 C   0  0  0  0  0  0  0  0  0  0  0  0
   -4.5093    5.3785   -0.1156 N   0  0  0  0  0  0  0  0  0  0  0  0
   -5.2430    5.3448    0.9811 C   0  0  0  0  0  0  0  0  0  0  0  0
   -4.9743    4.2817    1.7544 N   0  0  0  0  0  0  0  0  0  0  0  0
   -4.0089    3.6213    1.0812 C   0  0  0  0  0  0  0  0  0  0  0  0
    0.6192    4.9922    2.5939 C   0  0  0  0  0  0  0  0  0  0  0  0
    1.3370    6.1687    2.1210 C   0  0  0  0  0  0  0  0  0  0  0  0
    0.6283    7.0804    1.3301 C   0  0  0  0  0  0  0  0  0  0  0  0
    1.2055    8.2310    0.8415 C   0  0  0  0  0  0  0  0  0  0  0  0
    2.5222    8.4787    1.1492 C   0  0  0  0  0  0  0  0  0  0  0  0
    3.2441    7.5980    1.9261 C   0  0  0  0  0  0  0  0  0  0  0  0
    2.6727    6.4275    2.4285 C   0  0  0  0  0  0  0  0  0  0  0  0
    2.0515    2.9807   -1.1625 C   0  0  0  0  0  0  0  0  0  0  0  0
    3.2490    3.5544   -1.9386 C   0  0  2  0  0  0  0  0  0  0  0  0
    4.3669    2.7675   -1.3401 C   0  0  0  0  0  0  0  0  0  0  0  0
    3.3276    4.9555   -1.6251 N   0  0  0  0  0  0  0  0  0  0  0  0
    3.7762    5.8698   -2.3821 C   0  0  0  0  0  0  0  0  0  0  0  0
    4.2753    5.6008   -3.6894 N   0  0  0  0  0  0  0  0  0  0  0  0
    3.8048    7.1958   -1.9258 N   0  0  0  0  0  0  0  0  0  0  0  0
    4.9403   -1.7529    1.7286 C   0  0  0  0  0  0  0  0  0  0  0  0
    5.4443   -3.0991    1.6401 C   0  0  0  0  0  0  0  0  0  0  0  0
    5.3371   -4.0542    2.6520 C   0  0  0  0  0  0  0  0  0  0  0  0
    5.9432   -5.1847    2.2684 N   0  0  0  0  0  0  0  0  0  0  0  0
    6.4498   -4.9922    1.0159 C   0  0  0  0  0  0  0  0  0  0  0  0
    6.1448   -3.6931    0.6130 C   0  0  0  0  0  0  0  0  0  0  0  0
    6.5418   -3.2313   -0.6196 C   0  0  0  0  0  0  0  0  0  0  0  0
    7.2494   -4.0480   -1.4774 C   0  0  0  0  0  0  0  0  0  0  0  0
    7.5704   -5.3514   -1.1051 C   0  0  0  0  0  0  0  0  0  0  0  0
    7.1538   -5.7859    0.1476 C   0  0  0  0  0  0  0  0  0  0  0  0
    2.1152   -6.0420    1.4355 C   0  0  0  0  0  0  0  0  0  0  0  0
    1.5124   -7.0144    1.9906 O   0  0  0  0  0  0  0  0  0  0  0  0
    3.3982   -6.3654    0.8913 N   0  0  0  0  0  0  0  0  0  0  0  0
   -6.0381   -2.0556    1.5887 N   0  0  0  0  0  0  0  0  0  0  0  0
   -6.4928   -3.3679    1.9150 C   0  0  0  0  0  0  0  0  0  0  0  0
   -6.7084   -4.2577    1.0649 O   0  0  0  0  0  0  0  0  0  0  0  0
   -6.7118   -3.6585    3.3599 C   0  0  0  0  0  0  0  0  0  0  0  0
   -8.4303   -2.4401   -1.4507 H   0  0  0  0  0  0  0  0  0  0  0  0
   -9.1123   -0.8380   -1.8258 H   0  0  0  0  0  0  0  0  0  0  0  0
   -9.0604   -2.0432   -3.1359 H   0  0  0  0  0  0  0  0  0  0  0  0
   -6.3903   -1.9669   -2.6950 H   0  0  0  0  0  0  0  0  0  0  0  0
   -7.1995   -0.6488   -3.5644 H   0  0  0  0  0  0  0  0  0  0  0  0
   -5.8311    0.4491   -1.8298 H   0  0  0  0  0  0  0  0  0  0  0  0
   -7.6231    0.6284   -1.6261 H   0  0  0  0  0  0  0  0  0  0  0  0
   -7.7657   -0.9789    0.0320 H   0  0  0  0  0  0  0  0  0  0  0  0
   -6.6260    0.2886    0.5176 H   0  0  0  0  0  0  0  0  0  0  0  0
   -6.0805   -2.6080   -0.4048 H   0  0  0  0  0  0  0  0  0  0  0  0
   -4.2383   -1.1962   -2.1207 H   0  0  0  0  0  0  0  0  0  0  0  0
   -1.9161   -1.3875   -0.2513 H   0  0  0  0  0  0  0  0  0  0  0  0
   -0.5356   -1.7579   -2.3641 H   0  0  0  0  0  0  0  0  0  0  0  0
   -2.0416   -1.8516   -3.2751 H   0  0  0  0  0  0  0  0  0  0  0  0
   -0.3361   -4.3382   -2.7425 H   0  0  0  0  0  0  0  0  0  0  0  0
   -0.9292   -6.5604   -2.0697 H   0  0  0  0  0  0  0  0  0  0  0  0
   -2.6080   -6.0400   -2.0137 H   0  0  0  0  0  0  0  0  0  0  0  0
   -2.1726   -6.8580    0.1652 H   0  0  0  0  0  0  0  0  0  0  0  0
   -2.3077   -5.1130    0.3588 H   0  0  0  0  0  0  0  0  0  0  0  0
    0.2661   -6.7656    0.2285 H   0  0  0  0  0  0  0  0  0  0  0  0
   -0.5181   -5.9328    1.6722 H   0  0  0  0  0  0  0  0  0  0  0  0
    0.9102   -4.7147   -0.7441 H   0  0  0  0  0  0  0  0  0  0  0  0
   -0.0719   -3.7125    0.3463 H   0  0  0  0  0  0  0  0  0  0  0  0
    1.1629   -4.3200    2.2804 H   0  0  0  0  0  0  0  0  0  0  0  0
    3.3039   -3.9601    0.2447 H   0  0  0  0  0  0  0  0  0  0  0  0
    3.9778   -1.6446   -0.1454 H   0  0  0  0  0  0  0  0  0  0  0  0
    2.9179    0.4068    1.8077 H   0  0  0  0  0  0  0  0  0  0  0  0
    4.5466    2.7913    0.7845 H   0  0  0  0  0  0  0  0  0  0  0  0
    0.1482    2.9672    2.3169 H   0  0  0  0  0  0  0  0  0  0  0  0
   -0.2232    4.7595   -0.0875 H   0  0  0  0  0  0  0  0  0  0  0  0
   -1.1178    2.7014   -1.8692 H   0  0  0  0  0  0  0  0  0  0  0  0
   -3.5726    1.3413   -0.8372 H   0  0  0  0  0  0  0  0  0  0  0  0
   -3.2905    3.9312   -2.1636 H   0  0  0  0  0  0  0  0  0  0  0  0
   -2.1410    4.9379   -1.2980 H   0  0  0  0  0  0  0  0  0  0  0  0
   -4.5483    6.1131   -0.8636 H   0  0  0  0  0  0  0  0  0  0  0  0
   -5.9871    6.0891    1.2424 H   0  0  0  0  0  0  0  0  0  0  0  0
   -3.5787    2.7092    1.4493 H   0  0  0  0  0  0  0  0  0  0  0  0
    1.0968    4.6740    3.5640 H   0  0  0  0  0  0  0  0  0  0  0  0
   -0.4375    5.1931    2.8667 H   0  0  0  0  0  0  0  0  0  0  0  0
   -0.4007    6.9048    1.0789 H   0  0  0  0  0  0  0  0  0  0  0  0
    0.7001    8.9584    0.2301 H   0  0  0  0  0  0  0  0  0  0  0  0
    3.0063    9.3718    0.7823 H   0  0  0  0  0  0  0  0  0  0  0  0
    4.2661    7.8447    2.1339 H   0  0  0  0  0  0  0  0  0  0  0  0
    3.2317    5.7318    3.0404 H   0  0  0  0  0  0  0  0  0  0  0  0
    1.9136    1.9479   -1.5800 H   0  0  0  0  0  0  0  0  0  0  0  0
    1.2163    3.5915   -1.4324 H   0  0  0  0  0  0  0  0  0  0  0  0
    3.1513    3.3565   -2.9998 H   0  0  0  0  0  0  0  0  0  0  0  0
    5.2910    3.3561   -1.3110 H   0  0  0  0  0  0  0  0  0  0  0  0
    4.5794    1.8848   -1.9973 H   0  0  0  0  0  0  0  0  0  0  0  0
    4.9776    4.8450   -3.8894 H   0  0  0  0  0  0  0  0  0  0  0  0
    3.8884    6.2240   -4.4585 H   0  0  0  0  0  0  0  0  0  0  0  0
    4.1406    7.3849   -0.9655 H   0  0  0  0  0  0  0  0  0  0  0  0
    3.5099    8.0371   -2.4815 H   0  0  0  0  0  0  0  0  0  0  0  0
    5.7289   -1.0369    1.3643 H   0  0  0  0  0  0  0  0  0  0  0  0
    4.6363   -1.4918    2.7779 H   0  0  0  0  0  0  0  0  0  0  0  0
    4.8366   -3.8986    3.6089 H   0  0  0  0  0  0  0  0  0  0  0  0
    6.0351   -6.0941    2.8109 H   0  0  0  0  0  0  0  0  0  0  0  0
    6.2827   -2.2176   -0.8921 H   0  0  0  0  0  0  0  0  0  0  0  0
    7.5556   -3.6814   -2.4388 H   0  0  0  0  0  0  0  0  0  0  0  0
    8.1249   -5.9782   -1.7901 H   0  0  0  0  0  0  0  0  0  0  0  0
    7.4151   -6.7983    0.4105 H   0  0  0  0  0  0  0  0  0  0  0  0
    3.7784   -5.9347    0.0287 H   0  0  0  0  0  0  0  0  0  0  0  0
    4.0282   -7.0742    1.3549 H   0  0  0  0  0  0  0  0  0  0  0  0
   -5.8701   -1.3367    2.3237 H   0  0  0  0  0  0  0  0  0  0  0  0
   -6.3160   -2.8645    4.0099 H   0  0  0  0  0  0  0  0  0  0  0  0
   -6.2145   -4.6398    3.5466 H   0  0  0  0  0  0  0  0  0  0  0  0
   -7.7872   -3.7888    3.5948 H   0  0  0  0  0  0  0  0  0  0  0  0
  1  2  1  0
  2  3  1  0
  3  4  1  0
  4  5  1  0
  5  6  1  0
  6  7  2  0
  6  8  1  0
  8  9  1  0
  9 10  1  0
 10 11  1  0
 11 12  2  0
 11 13  1  0
 13 14  1  0
 14 15  1  0
 15 16  1  0
 16 17  1  0
 17 18  1  0
 18 19  1  0
 19 20  1  0
 20 21  2  0
 20 22  1  0
 22 23  1  0
 23 24  1  0
 24 25  2  0
 24 26  1  0
 26 27  1  0
 27 28  1  0
 28 29  2  0
 28 30  1  0
 30 31  1  0
 31 32  1  0
 32 33  2  0
 32 34  1  0
 34 35  1  0
 35 36  1  0
 36 37  2  0
 34 38  1  0
 38 39  1  0
 39 40  1  0
 40 41  1  0
 41 42  2  0
 42 43  1  0
 30 44  1  0
 44 45  1  0
 45 46  2  0
 46 47  1  0
 47 48  2  0
 48 49  1  0
 49 50  2  0
 27 51  1  0
 51 52  1  0
 52 53  1  0
 52 54  1  0
 54 55  2  3
 55 56  1  0
 55 57  1  0
 22 58  1  0
 58 59  1  0
 59 60  2  0
 60 61  1  0
 61 62  1  0
 62 63  2  0
 63 64  1  0
 64 65  2  0
 65 66  1  0
 66 67  2  0
 18 68  1  0
 68 69  2  0
 68 70  1  0
  5 71  1  0
 71 72  1  0
 72 73  2  0
 72 74  1  0
 36  9  1  0
 43 39  2  0
 50 45  1  0
 63 59  1  0
 53 26  1  0
 67 62  1  0
  1 75  1  0
  1 76  1  0
  1 77  1  0
  2 78  1  0
  2 79  1  0
  3 80  1  0
  3 81  1  0
  4 82  1  0
  4 83  1  0
  5 84  1  6
  8 85  1  0
  9 86  1  1
 10 87  1  0
 10 88  1  0
 13 89  1  0
 14 90  1  0
 14 91  1  0
 15 92  1  0
 15 93  1  0
 16 94  1  0
 16 95  1  0
 17 96  1  0
 17 97  1  0
 18 98  1  1
 19 99  1  0
 22100  1  6
 23101  1  0
 26102  1  1
 30103  1  1
 31104  1  0
 34105  1  6
 35106  1  0
 38107  1  0
 38108  1  0
 40109  1  0
 41110  1  0
 43111  1  0
 44112  1  0
 44113  1  0
 46114  1  0
 47115  1  0
 48116  1  0
 49117  1  0
 50118  1  0
 51119  1  0
 51120  1  0
 52121  1  6
 53122  1  0
 53123  1  0
 56124  1  0
 56125  1  0
 57126  1  0
 57127  1  0
 58128  1  0
 58129  1  0
 60130  1  0
 61131  1  0
 64132  1  0
 65133  1  0
 66134  1  0
 67135  1  0
 70136  1  0
 70137  1  0
 71138  1  0
 74139  1  0
 74140  1  0
 74141  1  0
M  END
>  <Ligand ID>  (1) 
LIG0001787

>  <Ligand>  (1) 
CHEMBL444493

>  <SMILES>  (1) 
CCCC[C@@H](C(=O)N[C@H]1CC(=O)NCCCC[C@H](NC(=O)[C@@H](NC(=O)[C@@H]2N(C(=O)[C@H](NC(=O)[C@@H](NC1=O)Cc1[nH]cnc1)Cc1ccccc1)C[C@H](C2)N=C(N)N)Cc1c[nH]c2c1cccc2)C(=O)N)NC(=O)C

>  <CID>  (1) 
44583562.0

>  <ChEMBL ID>  (1) 
nan

>  <InChiKey>  (1) 
OOCZYZNDKCLOHE-RWHXLNGPSA-N

>  <InChi>  (1) 
InChI=1S/C50H67N15O9/c1-3-4-15-36(58-28(2)66)44(69)62-39-23-42(67)55-18-11-10-17-35(43(51)68)60-45(70)37(20-30-24-56-34-16-9-8-14-33(30)34)63-48(73)41-22-32(59-50(52)53)26-65(41)49(74)40(19-29-12-6-5-7-13-29)64-46(71)38(61-47(39)72)21-31-25-54-27-57-31/h5-9,12-14,16,24-25,27,32,35-41,56H,3-4,10-11,15,17-23,26H2,1-2H3,(H2,51,68)(H,54,57)(H,55,67)(H,58,66)(H,60,70)(H,61,72)(H,62,69)(H,63,73)(H,64,71)(H4,52,53,59)/t32-,35-,36-,37-,38-,39-,40+,41+/m0/s1

>  <IUPAC Name>  (1) 
(3R,6S,9S,17S,20S,23R,25S)-9-[[(2S)-2-acetamidohexanoyl]amino]-3-benzyl-25-(diaminomethylideneamino)-6-(1H-imidazol-5-ylmethyl)-20-(1H-indol-3-ylmethyl)-2,5,8,11,19,22-hexaoxo-1,4,7,12,18,21-hexazabicyclo[21.3.0]hexacosane-17-carboxamide

$$$$
