
     RDKit          3D

 21 20  0  0  0  0  0  0  0  0999 V2000
   -3.2042    0.9119    1.0795 O   0  0  0  0  0  0  0  0  0  0  0  0
   -2.1783    0.7828    0.1252 C   0  0  0  0  0  0  0  0  0  0  0  0
   -1.9409    1.8347   -0.5301 O   0  0  0  0  0  0  0  0  0  0  0  0
   -1.4970   -0.4968   -0.0289 C   0  0  1  0  0  0  0  0  0  0  0  0
   -0.0259   -0.4602    0.2847 C   0  0  0  0  0  0  0  0  0  0  0  0
    0.6898    0.4947   -0.6228 C   0  0  0  0  0  0  0  0  0  0  0  0
    2.4804    0.5247   -0.2712 P   0  0  0  0  0  0  0  0  0  0  0  0
    2.8796    1.9435    0.0658 O   0  0  0  0  0  0  0  0  0  0  0  0
    3.3700    0.1156   -1.6650 O   0  0  0  0  0  0  0  0  0  0  0  0
    2.8918   -0.4831    1.0003 O   0  0  0  0  0  0  0  0  0  0  0  0
   -2.1810   -1.4888    0.7962 N   0  0  0  0  0  0  0  0  0  0  0  0
   -3.4721    1.8323    1.4116 H   0  0  0  0  0  0  0  0  0  0  0  0
   -1.5981   -0.8643   -1.0745 H   0  0  0  0  0  0  0  0  0  0  0  0
    0.1646   -0.2064    1.3534 H   0  0  0  0  0  0  0  0  0  0  0  0
    0.3437   -1.5140    0.1193 H   0  0  0  0  0  0  0  0  0  0  0  0
    0.5149    0.1468   -1.6712 H   0  0  0  0  0  0  0  0  0  0  0  0
    0.2729    1.5056   -0.5132 H   0  0  0  0  0  0  0  0  0  0  0  0
    3.2917    0.8106   -2.3520 H   0  0  0  0  0  0  0  0  0  0  0  0
    3.4147   -1.2735    0.7188 H   0  0  0  0  0  0  0  0  0  0  0  0
   -1.5577   -1.8902    1.5365 H   0  0  0  0  0  0  0  0  0  0  0  0
   -2.6588   -2.2258    0.2375 H   0  0  0  0  0  0  0  0  0  0  0  0
  1  2  1  0
  2  3  2  0
  2  4  1  0
  4  5  1  0
  5  6  1  0
  6  7  1  0
  7  8  2  0
  7  9  1  0
  7 10  1  0
  4 11  1  0
  1 12  1  0
  4 13  1  6
  5 14  1  0
  5 15  1  0
  6 16  1  0
  6 17  1  0
  9 18  1  0
 10 19  1  0
 11 20  1  0
 11 21  1  0
M  END
>  <Ligand ID>  (1) 
LIG0000791

>  <Ligand>  (1) 
D-AP4

>  <SMILES>  (1) 
OC(=O)[C@@H](CCP(=O)(O)O)N

>  <CID>  (1) 
1550579.0

>  <ChEMBL ID>  (1) 
nan

>  <InChiKey>  (1) 
DDOQBQRIEWHWBT-GSVOUGTGSA-N

>  <InChi>  (1) 
InChI=1S/C4H10NO5P/c5-3(4(6)7)1-2-11(8,9)10/h3H,1-2,5H2,(H,6,7)(H2,8,9,10)/t3-/m1/s1

>  <IUPAC Name>  (1) 
(2R)-2-amino-4-phosphonobutanoic acid

$$$$
