
     RDKit          3D

 61 64  0  0  0  0  0  0  0  0999 V2000
    4.5924   -0.7082   -0.2539 O   0  0  0  0  0  0  0  0  0  0  0  0
    4.1819    0.3971    0.1862 C   0  0  0  0  0  0  0  0  0  0  0  0
    2.7816    0.6489    0.5260 C   0  0  0  0  0  0  0  0  0  0  0  0
    2.2115    1.7735    1.0011 N   0  0  0  0  0  0  0  0  0  0  0  0
    0.8958    1.6048    1.1872 C   0  0  0  0  0  0  0  0  0  0  0  0
    0.6184    0.3352    0.8199 N   0  0  0  0  0  0  0  0  0  0  0  0
    1.7630   -0.2353    0.4218 N   0  0  0  0  0  0  0  0  0  0  0  0
   -0.6811   -0.2743    0.8578 C   0  0  0  0  0  0  0  0  0  0  0  0
   -1.4227   -0.0657   -0.4663 C   0  0  0  0  0  0  0  0  0  0  0  0
   -2.7800   -0.7253   -0.3710 C   0  0  0  0  0  0  0  0  0  0  0  0
   -3.5240   -0.5648   -1.5811 N   0  0  0  0  0  0  0  0  0  0  0  0
   -4.8571   -1.1907   -1.5240 C   0  0  1  0  0  0  0  0  0  0  0  0
   -5.7128   -0.4697   -0.5851 C   0  0  0  0  0  0  0  0  0  0  0  0
   -5.3951    0.8665   -0.3127 C   0  0  0  0  0  0  0  0  0  0  0  0
   -6.1617    1.6189    0.5700 C   0  0  0  0  0  0  0  0  0  0  0  0
   -7.2567    1.0778    1.2048 C   0  0  0  0  0  0  0  0  0  0  0  0
   -7.5826   -0.2380    0.9463 C   0  0  0  0  0  0  0  0  0  0  0  0
   -6.8058   -0.9724    0.0627 C   0  0  0  0  0  0  0  0  0  0  0  0
   -7.1650   -2.2665   -0.1636 C   0  0  0  0  0  0  0  0  0  0  0  0
   -8.2556   -2.8397    0.4537 C   0  0  0  0  0  0  0  0  0  0  0  0
   -9.0341   -2.1149    1.3350 C   0  0  0  0  0  0  0  0  0  0  0  0
   -8.6910   -0.7983    1.5823 C   0  0  0  0  0  0  0  0  0  0  0  0
   -5.4691   -0.9413   -2.9129 C   0  0  0  0  0  0  0  0  0  0  0  0
    5.1026    1.4862    0.3768 N   0  0  0  0  0  0  0  0  0  0  0  0
    6.4685    1.2752    0.0567 C   0  0  0  0  0  0  0  0  0  0  0  0
    6.9929    1.5229   -1.2011 C   0  0  0  0  0  0  0  0  0  0  0  0
    8.3466    1.3006   -1.4725 C   0  0  0  0  0  0  0  0  0  0  0  0
    9.1947    0.8212   -0.4675 C   0  0  0  0  0  0  0  0  0  0  0  0
    8.6737    0.5726    0.7909 C   0  0  0  0  0  0  0  0  0  0  0  0
    7.3335    0.7997    1.0351 C   0  0  0  0  0  0  0  0  0  0  0  0
    9.5231    0.0622    1.9014 C   0  0  0  0  0  0  0  0  0  0  0  0
   10.6369    0.5799   -0.7409 C   0  0  0  0  0  0  0  0  0  0  0  0
    0.2371    2.3765    1.5623 H   0  0  0  0  0  0  0  0  0  0  0  0
   -1.3107    0.1690    1.6701 H   0  0  0  0  0  0  0  0  0  0  0  0
   -0.6210   -1.3525    1.0471 H   0  0  0  0  0  0  0  0  0  0  0  0
   -0.8357   -0.5239   -1.2883 H   0  0  0  0  0  0  0  0  0  0  0  0
   -1.5184    1.0150   -0.6980 H   0  0  0  0  0  0  0  0  0  0  0  0
   -2.5970   -1.8214   -0.1959 H   0  0  0  0  0  0  0  0  0  0  0  0
   -3.3232   -0.2626    0.4611 H   0  0  0  0  0  0  0  0  0  0  0  0
   -3.0370   -0.8707   -2.4298 H   0  0  0  0  0  0  0  0  0  0  0  0
   -4.7899   -2.2685   -1.4243 H   0  0  0  0  0  0  0  0  0  0  0  0
   -4.5620    1.3700   -0.7631 H   0  0  0  0  0  0  0  0  0  0  0  0
   -5.9165    2.6429    0.7776 H   0  0  0  0  0  0  0  0  0  0  0  0
   -7.8749    1.6383    1.8988 H   0  0  0  0  0  0  0  0  0  0  0  0
   -6.6052   -2.8901   -0.8391 H   0  0  0  0  0  0  0  0  0  0  0  0
   -8.5482   -3.8646    0.2807 H   0  0  0  0  0  0  0  0  0  0  0  0
   -9.9026   -2.5361    1.8404 H   0  0  0  0  0  0  0  0  0  0  0  0
   -9.3065   -0.2452    2.2714 H   0  0  0  0  0  0  0  0  0  0  0  0
   -6.5682   -1.1510   -2.8796 H   0  0  0  0  0  0  0  0  0  0  0  0
   -5.0113   -1.6809   -3.6059 H   0  0  0  0  0  0  0  0  0  0  0  0
   -5.2272    0.0624   -3.3001 H   0  0  0  0  0  0  0  0  0  0  0  0
    4.7447    2.4163    0.7494 H   0  0  0  0  0  0  0  0  0  0  0  0
    6.3169    1.8941   -1.9646 H   0  0  0  0  0  0  0  0  0  0  0  0
    8.7551    1.4954   -2.4589 H   0  0  0  0  0  0  0  0  0  0  0  0
    6.9450    0.5983    2.0290 H   0  0  0  0  0  0  0  0  0  0  0  0
    9.5287    0.8673    2.6722 H   0  0  0  0  0  0  0  0  0  0  0  0
    9.0306   -0.8390    2.2898 H   0  0  0  0  0  0  0  0  0  0  0  0
   10.5430   -0.1696    1.5300 H   0  0  0  0  0  0  0  0  0  0  0  0
   10.7644   -0.5127   -0.8442 H   0  0  0  0  0  0  0  0  0  0  0  0
   11.2683    1.0354    0.0475 H   0  0  0  0  0  0  0  0  0  0  0  0
   10.8991    1.0697   -1.6991 H   0  0  0  0  0  0  0  0  0  0  0  0
  1  2  2  0
  2  3  1  0
  3  4  1  0
  4  5  2  0
  5  6  1  0
  6  7  1  0
  6  8  1  0
  8  9  1  0
  9 10  1  0
 10 11  1  0
 11 12  1  0
 12 13  1  0
 13 14  2  0
 14 15  1  0
 15 16  2  0
 16 17  1  0
 17 18  2  0
 18 19  1  0
 19 20  2  0
 20 21  1  0
 21 22  2  0
 12 23  1  0
  2 24  1  0
 24 25  1  0
 25 26  2  0
 26 27  1  0
 27 28  2  0
 28 29  1  0
 29 30  2  0
 29 31  1  0
 28 32  1  0
  7  3  2  0
 18 13  1  0
 30 25  1  0
 22 17  1  0
  5 33  1  0
  8 34  1  0
  8 35  1  0
  9 36  1  0
  9 37  1  0
 10 38  1  0
 10 39  1  0
 11 40  1  0
 12 41  1  1
 14 42  1  0
 15 43  1  0
 16 44  1  0
 19 45  1  0
 20 46  1  0
 21 47  1  0
 22 48  1  0
 23 49  1  0
 23 50  1  0
 23 51  1  0
 24 52  1  0
 26 53  1  0
 27 54  1  0
 30 55  1  0
 31 56  1  0
 31 57  1  0
 31 58  1  0
 32 59  1  0
 32 60  1  0
 32 61  1  0
M  END
>  <Ligand ID>  (1) 
LIG0003615

>  <Ligand>  (1) 
MLS002724420

>  <SMILES>  (1) 
O=C(c1ncn(n1)CCCN[C@@H](c1cccc2c1cccc2)C)Nc1ccc(c(c1)C)C

>  <CID>  (1) 
45281074.0

>  <ChEMBL ID>  (1) 
nan

>  <InChiKey>  (1) 
UVZFUWVYPXPUBZ-HXUWFJFHSA-N

>  <InChi>  (1) 
InChI=1S/C26H29N5O/c1-18-12-13-22(16-19(18)2)29-26(32)25-28-17-31(30-25)15-7-14-27-20(3)23-11-6-9-21-8-4-5-10-24(21)23/h4-6,8-13,16-17,20,27H,7,14-15H2,1-3H3,(H,29,32)/t20-/m1/s1

>  <IUPAC Name>  (1) 
N-(3,4-dimethylphenyl)-1-[3-[[(1R)-1-naphthalen-1-ylethyl]amino]propyl]-1,2,4-triazole-3-carboxamide

$$$$
