
     RDKit          3D

 71 73  0  0  0  0  0  0  0  0999 V2000
    0.3584   -0.3912   -0.6580 O   0  0  0  0  0  0  0  0  0  0  0  0
   -0.1740   -1.3787    0.1412 C   0  0  2  0  0  0  0  0  0  0  0  0
   -1.4467   -1.0370    0.8339 C   0  0  2  0  0  0  0  0  0  0  0  0
   -2.6011   -0.6924   -0.0330 C   0  0  0  0  0  0  0  0  0  0  0  0
   -2.4263    0.4804   -0.9335 C   0  0  0  0  0  0  0  0  0  0  0  0
   -3.6464    0.7665   -1.7755 C   0  0  0  0  0  0  0  0  0  0  0  0
   -4.8686    1.0603   -0.9587 C   0  0  0  0  0  0  0  0  0  0  0  0
   -6.0159    1.3297   -1.9332 C   0  0  0  0  0  0  0  0  0  0  0  0
   -7.2636    1.6279   -1.1445 C   0  0  0  0  0  0  0  0  0  0  0  0
   -7.5983    2.9081   -0.7637 C   0  0  0  0  0  0  0  0  0  0  0  0
   -8.7712    3.0718   -0.0383 C   0  0  0  0  0  0  0  0  0  0  0  0
   -9.5877    2.0095    0.3008 C   0  0  0  0  0  0  0  0  0  0  0  0
   -9.2020    0.7607   -0.1060 C   0  0  0  0  0  0  0  0  0  0  0  0
   -8.0538    0.5509   -0.8231 C   0  0  0  0  0  0  0  0  0  0  0  0
   -1.1408    0.0305    1.8657 C   0  0  0  0  0  0  0  0  0  0  0  0
    0.7930   -1.9813    1.0965 C   0  0  0  0  0  0  0  0  0  0  0  0
    2.0210   -2.3646    0.7367 C   0  0  0  0  0  0  0  0  0  0  0  0
    2.8908   -2.9450    1.7554 C   0  0  1  0  0  0  0  0  0  0  0  0
    3.8436   -3.9322    1.0891 C   0  0  0  0  0  0  0  0  0  0  0  0
    4.9775   -4.1109    2.0837 C   0  0  0  0  0  0  0  0  0  0  0  0
    4.7972   -2.9244    3.0004 C   0  0  0  0  0  0  0  0  0  0  0  0
    5.4065   -2.7264    4.1051 O   0  0  0  0  0  0  0  0  0  0  0  0
    3.8080   -2.0482    2.4032 N   0  0  0  0  0  0  0  0  0  0  0  0
    3.8623   -0.6325    2.5418 C   0  0  0  0  0  0  0  0  0  0  0  0
    4.6640    0.1090    1.5384 C   0  0  0  0  0  0  0  0  0  0  0  0
    4.2370   -0.0587    0.1025 C   0  0  0  0  0  0  0  0  0  0  0  0
    5.0962    0.7457   -0.8182 C   0  0  0  0  0  0  0  0  0  0  0  0
    6.2582    0.3592   -1.4399 C   0  0  0  0  0  0  0  0  0  0  0  0
    6.8942    1.2252   -2.2368 C   0  0  0  0  0  0  0  0  0  0  0  0
    6.3089    2.4743   -2.3705 C   0  0  0  0  0  0  0  0  0  0  0  0
    4.7947    2.4144   -1.3215 S   0  0  0  0  0  0  0  0  0  0  0  0
    6.7253    3.6899   -3.1672 C   0  0  0  0  0  0  0  0  0  0  0  0
    7.7694    3.6510   -3.8562 O   0  0  0  0  0  0  0  0  0  0  0  0
    5.8964    4.7868   -3.0720 O   0  0  0  0  0  0  0  0  0  0  0  0
    4.8839   -5.2460    2.8296 F   0  0  0  0  0  0  0  0  0  0  0  0
    6.2118   -3.9352    1.4890 F   0  0  0  0  0  0  0  0  0  0  0  0
    0.3707    0.5080   -0.2573 H   0  0  0  0  0  0  0  0  0  0  0  0
   -0.4276   -2.2254   -0.5694 H   0  0  0  0  0  0  0  0  0  0  0  0
   -1.7409   -1.9327    1.4241 H   0  0  0  0  0  0  0  0  0  0  0  0
   -3.4806   -0.5466    0.6394 H   0  0  0  0  0  0  0  0  0  0  0  0
   -2.8462   -1.5841   -0.6468 H   0  0  0  0  0  0  0  0  0  0  0  0
   -2.1285    1.4028   -0.4344 H   0  0  0  0  0  0  0  0  0  0  0  0
   -1.6356    0.2029   -1.6930 H   0  0  0  0  0  0  0  0  0  0  0  0
   -3.7953   -0.0875   -2.4633 H   0  0  0  0  0  0  0  0  0  0  0  0
   -3.4087    1.6566   -2.3934 H   0  0  0  0  0  0  0  0  0  0  0  0
   -5.1215    0.2977   -0.2256 H   0  0  0  0  0  0  0  0  0  0  0  0
   -4.7207    2.0042   -0.3952 H   0  0  0  0  0  0  0  0  0  0  0  0
   -6.1650    0.5341   -2.6614 H   0  0  0  0  0  0  0  0  0  0  0  0
   -5.7714    2.2802   -2.4619 H   0  0  0  0  0  0  0  0  0  0  0  0
   -6.9638    3.7361   -1.0273 H   0  0  0  0  0  0  0  0  0  0  0  0
   -9.0599    4.0770    0.2762 H   0  0  0  0  0  0  0  0  0  0  0  0
  -10.4975    2.1397    0.8641 H   0  0  0  0  0  0  0  0  0  0  0  0
   -9.8591   -0.0703    0.1704 H   0  0  0  0  0  0  0  0  0  0  0  0
   -7.7844   -0.4487   -1.1255 H   0  0  0  0  0  0  0  0  0  0  0  0
   -1.8648   -0.0175    2.7003 H   0  0  0  0  0  0  0  0  0  0  0  0
   -1.0421    1.0336    1.4044 H   0  0  0  0  0  0  0  0  0  0  0  0
   -0.1390   -0.1980    2.2805 H   0  0  0  0  0  0  0  0  0  0  0  0
    0.4884   -2.1220    2.1496 H   0  0  0  0  0  0  0  0  0  0  0  0
    2.2765   -2.2130   -0.3034 H   0  0  0  0  0  0  0  0  0  0  0  0
    2.3202   -3.4602    2.5616 H   0  0  0  0  0  0  0  0  0  0  0  0
    4.2791   -3.4662    0.1840 H   0  0  0  0  0  0  0  0  0  0  0  0
    3.3750   -4.9018    0.8790 H   0  0  0  0  0  0  0  0  0  0  0  0
    2.8041   -0.2433    2.4509 H   0  0  0  0  0  0  0  0  0  0  0  0
    4.2039   -0.2989    3.5490 H   0  0  0  0  0  0  0  0  0  0  0  0
    5.7618   -0.0124    1.6621 H   0  0  0  0  0  0  0  0  0  0  0  0
    4.4995    1.2075    1.7595 H   0  0  0  0  0  0  0  0  0  0  0  0
    3.1716    0.1758   -0.0592 H   0  0  0  0  0  0  0  0  0  0  0  0
    4.3930   -1.1111   -0.2420 H   0  0  0  0  0  0  0  0  0  0  0  0
    6.6453   -0.6728   -1.2640 H   0  0  0  0  0  0  0  0  0  0  0  0
    7.8297    1.0070   -2.7771 H   0  0  0  0  0  0  0  0  0  0  0  0
    6.3320    5.7023   -3.2393 H   0  0  0  0  0  0  0  0  0  0  0  0
  1  2  1  0
  2  3  1  0
  3  4  1  0
  4  5  1  0
  5  6  1  0
  6  7  1  0
  7  8  1  0
  8  9  1  0
  9 10  2  0
 10 11  1  0
 11 12  2  0
 12 13  1  0
 13 14  2  0
  3 15  1  0
  2 16  1  0
 16 17  2  0
 17 18  1  0
 18 19  1  0
 19 20  1  0
 20 21  1  0
 21 22  2  0
 21 23  1  0
 23 24  1  0
 24 25  1  0
 25 26  1  0
 26 27  1  0
 27 28  2  0
 28 29  1  0
 29 30  2  0
 30 31  1  0
 30 32  1  0
 32 33  2  0
 32 34  1  0
 20 35  1  0
 20 36  1  0
 14  9  1  0
 23 18  1  0
 31 27  1  0
  1 37  1  0
  2 38  1  6
  3 39  1  1
  4 40  1  0
  4 41  1  0
  5 42  1  0
  5 43  1  0
  6 44  1  0
  6 45  1  0
  7 46  1  0
  7 47  1  0
  8 48  1  0
  8 49  1  0
 10 50  1  0
 11 51  1  0
 12 52  1  0
 13 53  1  0
 14 54  1  0
 15 55  1  0
 15 56  1  0
 15 57  1  0
 16 58  1  0
 17 59  1  0
 18 60  1  1
 19 61  1  0
 19 62  1  0
 24 63  1  0
 24 64  1  0
 25 65  1  0
 25 66  1  0
 26 67  1  0
 26 68  1  0
 28 69  1  0
 29 70  1  0
 34 71  1  0
M  END
>  <Ligand ID>  (1) 
LIG0005226

>  <Ligand>  (1) 
CHEMBL3893847

>  <SMILES>  (1) 
O[C@H]([C@H](CCCCCc1ccccc1)C)/C=C/[C@H]1CC(C(=O)N1CCCc1ccc(s1)C(=O)O)(F)F

>  <CID>  (1) 
90054392.0

>  <ChEMBL ID>  (1) 
nan

>  <InChiKey>  (1) 
AGGYHZMNJSBHQQ-VDRBLYDVSA-N

>  <InChi>  (1) 
InChI=1S/C28H35F2NO4S/c1-20(9-4-2-5-10-21-11-6-3-7-12-21)24(32)16-14-22-19-28(29,30)27(35)31(22)18-8-13-23-15-17-25(36-23)26(33)34/h3,6-7,11-12,14-17,20,22,24,32H,2,4-5,8-10,13,18-19H2,1H3,(H,33,34)/b16-14+/t20-,22-,24-/m0/s1

>  <IUPAC Name>  (1) 
5-[3-[(5R)-3,3-difluoro-5-[(E,3R,4S)-3-hydroxy-4-methyl-9-phenylnon-1-enyl]-2-oxopyrrolidin-1-yl]propyl]thiophene-2-carboxylic acid

$$$$
