
     RDKit          3D

 26 25  0  0  0  0  0  0  0  0999 V2000
    3.2218    1.2510   -0.9134 C   0  0  0  0  0  0  0  0  0  0  0  0
    2.4320    0.5718    0.1894 C   0  0  0  0  0  0  0  0  0  0  0  0
    1.9731   -0.7539   -0.3479 C   0  0  0  0  0  0  0  0  0  0  0  0
    1.1766   -1.5653    0.6041 C   0  0  0  0  0  0  0  0  0  0  0  0
   -0.0951   -0.9069    1.0775 C   0  0  0  0  0  0  0  0  0  0  0  0
   -1.0291   -0.5987   -0.0720 C   0  0  0  0  0  0  0  0  0  0  0  0
   -2.1800    0.0127    0.4898 O   0  0  0  0  0  0  0  0  0  0  0  0
   -3.2517    0.4282   -0.3012 C   0  0  0  0  0  0  0  0  0  0  0  0
   -3.1652    0.2419   -1.5426 O   0  0  0  0  0  0  0  0  0  0  0  0
   -4.3987    1.0511    0.3745 C   0  0  0  0  0  0  0  0  0  0  0  0
    2.6240    2.1174   -1.2952 H   0  0  0  0  0  0  0  0  0  0  0  0
    4.2059    1.6060   -0.5216 H   0  0  0  0  0  0  0  0  0  0  0  0
    3.3372    0.5985   -1.8198 H   0  0  0  0  0  0  0  0  0  0  0  0
    1.5830    1.2179    0.4913 H   0  0  0  0  0  0  0  0  0  0  0  0
    3.0446    0.4352    1.1154 H   0  0  0  0  0  0  0  0  0  0  0  0
    2.8828   -1.3289   -0.5962 H   0  0  0  0  0  0  0  0  0  0  0  0
    1.4257   -0.5818   -1.2820 H   0  0  0  0  0  0  0  0  0  0  0  0
    1.7752   -1.9797    1.4348 H   0  0  0  0  0  0  0  0  0  0  0  0
    0.8357   -2.4701    0.0306 H   0  0  0  0  0  0  0  0  0  0  0  0
    0.1736    0.0353    1.5996 H   0  0  0  0  0  0  0  0  0  0  0  0
   -0.5776   -1.5975    1.8013 H   0  0  0  0  0  0  0  0  0  0  0  0
   -1.2947   -1.5781   -0.5339 H   0  0  0  0  0  0  0  0  0  0  0  0
   -0.4896    0.0621   -0.7711 H   0  0  0  0  0  0  0  0  0  0  0  0
   -4.1983    2.1091    0.6734 H   0  0  0  0  0  0  0  0  0  0  0  0
   -4.7250    0.5213    1.2954 H   0  0  0  0  0  0  0  0  0  0  0  0
   -5.2858    1.1011   -0.3070 H   0  0  0  0  0  0  0  0  0  0  0  0
  1  2  1  0
  2  3  1  0
  3  4  1  0
  4  5  1  0
  5  6  1  0
  6  7  1  0
  7  8  1  0
  8  9  2  0
  8 10  1  0
  1 11  1  0
  1 12  1  0
  1 13  1  0
  2 14  1  0
  2 15  1  0
  3 16  1  0
  3 17  1  0
  4 18  1  0
  4 19  1  0
  5 20  1  0
  5 21  1  0
  6 22  1  0
  6 23  1  0
 10 24  1  0
 10 25  1  0
 10 26  1  0
M  END
>  <Ligand ID>  (1) 
LIG0000097

>  <Ligand>  (1) 
Hexyl acetate

>  <SMILES>  (1) 
CCCCCCOC(=O)C

>  <CID>  (1) 
8908.0

>  <ChEMBL ID>  (1) 
nan

>  <InChiKey>  (1) 
AOGQPLXWSUTHQB-UHFFFAOYSA-N

>  <InChi>  (1) 
InChI=1S/C8H16O2/c1-3-4-5-6-7-10-8(2)9/h3-7H2,1-2H3

>  <IUPAC Name>  (1) 
hexyl acetate

$$$$
