
     RDKit          3D

 69 73  0  0  0  0  0  0  0  0999 V2000
   -4.5842   -5.7873    0.9176 C   0  0  0  0  0  0  0  0  0  0  0  0
   -3.3452   -4.8923    0.9073 C   0  0  0  0  0  0  0  0  0  0  0  0
   -3.5208   -3.6405    0.5985 O   0  0  0  0  0  0  0  0  0  0  0  0
   -3.5832   -2.3946    0.3082 C   0  0  0  0  0  0  0  0  0  0  0  0
   -2.4432   -1.5780    0.2933 C   0  0  0  0  0  0  0  0  0  0  0  0
   -2.4954   -0.2462   -0.0164 C   0  0  0  0  0  0  0  0  0  0  0  0
   -3.7256    0.2909   -0.3205 C   0  0  0  0  0  0  0  0  0  0  0  0
   -4.8901   -0.4473   -0.3265 C   0  0  0  0  0  0  0  0  0  0  0  0
   -4.8005   -1.7715   -0.0136 C   0  0  0  0  0  0  0  0  0  0  0  0
   -5.9615   -2.5361   -0.0134 O   0  0  0  0  0  0  0  0  0  0  0  0
   -7.1792   -1.9065   -0.3363 C   0  0  0  0  0  0  0  0  0  0  0  0
   -3.7775    1.5884   -0.6149 N   0  0  0  0  0  0  0  0  0  0  0  0
   -2.6792    2.3659   -0.6209 C   0  0  0  0  0  0  0  0  0  0  0  0
   -1.4788    1.8167   -0.3194 N   0  0  0  0  0  0  0  0  0  0  0  0
   -1.3617    0.5000   -0.0113 C   0  0  0  0  0  0  0  0  0  0  0  0
   -0.0547   -0.0147    0.2637 N   0  0  0  0  0  0  0  0  0  0  0  0
    0.6403   -0.9126   -0.6354 C   0  0  0  0  0  0  0  0  0  0  0  0
    1.7919   -1.5598    0.1458 C   0  0  0  0  0  0  0  0  0  0  0  0
    2.6908   -0.4922    0.5502 N   0  0  0  0  0  0  0  0  0  0  0  0
    2.1038    0.6265    1.2520 C   0  0  0  0  0  0  0  0  0  0  0  0
    0.6354    0.3510    1.4868 C   0  0  0  0  0  0  0  0  0  0  0  0
    4.0894   -0.5083    0.2898 C   0  0  0  0  0  0  0  0  0  0  0  0
    4.7452   -1.5694   -0.2926 C   0  0  0  0  0  0  0  0  0  0  0  0
    6.1122   -1.5747   -0.5394 C   0  0  0  0  0  0  0  0  0  0  0  0
    6.8954   -0.4936   -0.2054 C   0  0  0  0  0  0  0  0  0  0  0  0
    6.2604    0.5809    0.3797 C   0  0  0  0  0  0  0  0  0  0  0  0
    4.8962    0.5854    0.6256 C   0  0  0  0  0  0  0  0  0  0  0  0
    4.3827    1.7275    1.2181 O   0  0  0  0  0  0  0  0  0  0  0  0
    5.1579    2.8419    1.5682 C   0  0  0  0  0  0  0  0  0  0  0  0
    8.2460   -0.4190   -0.4145 O   0  0  0  0  0  0  0  0  0  0  0  0
    9.0750   -1.3810   -0.9875 C   0  0  0  0  0  0  0  0  0  0  0  0
   -2.8213    3.7795   -0.9554 C   0  0  0  0  0  0  0  0  0  0  0  0
   -1.7814    4.6638   -0.9932 C   0  0  0  0  0  0  0  0  0  0  0  0
   -1.9934    5.9987   -1.3227 C   0  0  0  0  0  0  0  0  0  0  0  0
   -3.2645    6.4422   -1.6160 C   0  0  0  0  0  0  0  0  0  0  0  0
   -4.3299    5.5675   -1.5844 C   0  0  0  0  0  0  0  0  0  0  0  0
   -4.0963    4.2446   -1.2541 C   0  0  0  0  0  0  0  0  0  0  0  0
   -4.2930   -6.7197    1.4326 H   0  0  0  0  0  0  0  0  0  0  0  0
   -4.8592   -6.0374   -0.1079 H   0  0  0  0  0  0  0  0  0  0  0  0
   -5.3736   -5.3116    1.5176 H   0  0  0  0  0  0  0  0  0  0  0  0
   -2.9532   -4.9980    1.9761 H   0  0  0  0  0  0  0  0  0  0  0  0
   -2.5741   -5.4822    0.3313 H   0  0  0  0  0  0  0  0  0  0  0  0
   -1.5161   -2.0524    0.5505 H   0  0  0  0  0  0  0  0  0  0  0  0
   -5.8027    0.0525   -0.5747 H   0  0  0  0  0  0  0  0  0  0  0  0
   -7.3304   -1.0037    0.3040 H   0  0  0  0  0  0  0  0  0  0  0  0
   -7.2055   -1.5328   -1.3759 H   0  0  0  0  0  0  0  0  0  0  0  0
   -8.0118   -2.6516   -0.2274 H   0  0  0  0  0  0  0  0  0  0  0  0
    0.0381   -1.6535   -1.1388 H   0  0  0  0  0  0  0  0  0  0  0  0
    1.1291   -0.2311   -1.3912 H   0  0  0  0  0  0  0  0  0  0  0  0
    2.2653   -2.2999   -0.4856 H   0  0  0  0  0  0  0  0  0  0  0  0
    1.3846   -2.0453    1.0684 H   0  0  0  0  0  0  0  0  0  0  0  0
    2.1643    1.5208    0.5983 H   0  0  0  0  0  0  0  0  0  0  0  0
    2.5705    0.7756    2.2521 H   0  0  0  0  0  0  0  0  0  0  0  0
    0.6137   -0.5026    2.2255 H   0  0  0  0  0  0  0  0  0  0  0  0
    0.1944    1.2320    1.9841 H   0  0  0  0  0  0  0  0  0  0  0  0
    4.2203   -2.4666   -0.5879 H   0  0  0  0  0  0  0  0  0  0  0  0
    6.5790   -2.4405   -1.0029 H   0  0  0  0  0  0  0  0  0  0  0  0
    6.8652    1.4543    0.6545 H   0  0  0  0  0  0  0  0  0  0  0  0
    4.5009    3.5476    2.1344 H   0  0  0  0  0  0  0  0  0  0  0  0
    6.0171    2.6045    2.2271 H   0  0  0  0  0  0  0  0  0  0  0  0
    5.4900    3.3815    0.6426 H   0  0  0  0  0  0  0  0  0  0  0  0
    9.7922   -1.7229   -0.1916 H   0  0  0  0  0  0  0  0  0  0  0  0
    8.5710   -2.2771   -1.3711 H   0  0  0  0  0  0  0  0  0  0  0  0
    9.7174   -0.9762   -1.8017 H   0  0  0  0  0  0  0  0  0  0  0  0
   -0.7915    4.3198   -0.7647 H   0  0  0  0  0  0  0  0  0  0  0  0
   -1.1667    6.7087   -1.3545 H   0  0  0  0  0  0  0  0  0  0  0  0
   -3.4727    7.4823   -1.8797 H   0  0  0  0  0  0  0  0  0  0  0  0
   -5.3499    5.8930   -1.8138 H   0  0  0  0  0  0  0  0  0  0  0  0
   -4.9681    3.5866   -1.2405 H   0  0  0  0  0  0  0  0  0  0  0  0
  1  2  1  0
  2  3  1  0
  3  4  1  0
  4  5  2  0
  5  6  1  0
  6  7  2  0
  7  8  1  0
  8  9  2  0
  9 10  1  0
 10 11  1  0
  7 12  1  0
 12 13  2  0
 13 14  1  0
 14 15  2  0
 15 16  1  0
 16 17  1  0
 17 18  1  0
 18 19  1  0
 19 20  1  0
 20 21  1  0
 19 22  1  0
 22 23  2  0
 23 24  1  0
 24 25  2  0
 25 26  1  0
 26 27  2  0
 27 28  1  0
 28 29  1  0
 25 30  1  0
 30 31  1  0
 13 32  1  0
 32 33  2  0
 33 34  1  0
 34 35  2  0
 35 36  1  0
 36 37  2  0
  9  4  1  0
 21 16  1  0
 27 22  1  0
 37 32  1  0
 15  6  1  0
  1 38  1  0
  1 39  1  0
  1 40  1  0
  2 41  1  0
  2 42  1  0
  5 43  1  0
  8 44  1  0
 11 45  1  0
 11 46  1  0
 11 47  1  0
 17 48  1  0
 17 49  1  0
 18 50  1  0
 18 51  1  0
 20 52  1  0
 20 53  1  0
 21 54  1  0
 21 55  1  0
 23 56  1  0
 24 57  1  0
 26 58  1  0
 29 59  1  0
 29 60  1  0
 29 61  1  0
 31 62  1  0
 31 63  1  0
 31 64  1  0
 33 65  1  0
 34 66  1  0
 35 67  1  0
 36 68  1  0
 37 69  1  0
M  END
>  <Ligand ID>  (1) 
LIG0004464

>  <Ligand>  (1) 
CHEMBL2431238

>  <SMILES>  (1) 
CCOc1cc2c(cc1OC)nc(nc2N1CCN(CC1)c1ccc(cc1OC)OC)c1ccccc1

>  <CID>  (1) 
73350917.0

>  <ChEMBL ID>  (1) 
nan

>  <InChiKey>  (1) 
RTXGYGGKOVHPAV-UHFFFAOYSA-N

>  <InChi>  (1) 
InChI=1S/C29H32N4O4/c1-5-37-27-18-22-23(19-26(27)36-4)30-28(20-9-7-6-8-10-20)31-29(22)33-15-13-32(14-16-33)24-12-11-21(34-2)17-25(24)35-3/h6-12,17-19H,5,13-16H2,1-4H3

>  <IUPAC Name>  (1) 
4-[4-(2,4-dimethoxyphenyl)piperazin-1-yl]-6-ethoxy-7-methoxy-2-phenylquinazoline

$$$$
