
     RDKit          3D

 72 73  0  0  0  0  0  0  0  0999 V2000
    5.9406    2.5060    3.3742 O   0  0  0  0  0  0  0  0  0  0  0  0
    5.3677    1.2711    3.0729 C   0  0  0  0  0  0  0  0  0  0  0  0
    4.6687    1.3650    1.7537 C   0  0  0  0  0  0  0  0  0  0  0  0
    5.1813    0.8385    0.6037 C   0  0  0  0  0  0  0  0  0  0  0  0
    4.5521    0.9132   -0.6277 C   0  0  0  0  0  0  0  0  0  0  0  0
    3.3155    1.5775   -0.6551 C   0  0  0  0  0  0  0  0  0  0  0  0
    2.7793    2.1201    0.5104 C   0  0  0  0  0  0  0  0  0  0  0  0
    3.4419    2.0199    1.7080 C   0  0  0  0  0  0  0  0  0  0  0  0
    2.8693    2.5764    2.8473 O   0  0  0  0  0  0  0  0  0  0  0  0
    5.1779    0.3516   -1.8326 C   0  0  2  0  0  0  0  0  0  0  0  0
    5.4217   -1.1131   -1.8463 C   0  0  0  0  0  0  0  0  0  0  0  0
    4.3389   -2.0047   -1.7648 N   0  0  0  0  0  0  0  0  0  0  0  0
    3.6263   -2.1226   -0.5519 C   0  0  0  0  0  0  0  0  0  0  0  0
    2.4977   -3.1370   -0.6211 C   0  0  0  0  0  0  0  0  0  0  0  0
    1.4851   -2.7663   -1.6829 C   0  0  0  0  0  0  0  0  0  0  0  0
    0.8615   -1.4355   -1.4228 C   0  0  0  0  0  0  0  0  0  0  0  0
    0.1280   -1.3065   -0.1435 C   0  0  0  0  0  0  0  0  0  0  0  0
   -1.0222   -2.2463    0.0409 C   0  0  0  0  0  0  0  0  0  0  0  0
   -2.0040   -2.1010   -0.9323 O   0  0  0  0  0  0  0  0  0  0  0  0
   -3.0852   -2.9173   -0.8088 C   0  0  0  0  0  0  0  0  0  0  0  0
   -3.9460   -2.7709    0.3854 C   0  0  0  0  0  0  0  0  0  0  0  0
   -4.6397   -1.4697    0.5620 C   0  0  0  0  0  0  0  0  0  0  0  0
   -3.7123   -0.2954    0.6728 C   0  0  0  0  0  0  0  0  0  0  0  0
   -4.4904    0.9827    0.8433 C   0  0  0  0  0  0  0  0  0  0  0  0
   -4.8195    1.4346    2.1169 C   0  0  0  0  0  0  0  0  0  0  0  0
   -5.5285    2.5940    2.3328 C   0  0  0  0  0  0  0  0  0  0  0  0
   -5.9287    3.3375    1.2464 C   0  0  0  0  0  0  0  0  0  0  0  0
   -5.6078    2.8985   -0.0157 C   0  0  0  0  0  0  0  0  0  0  0  0
   -4.8936    1.7313   -0.2437 C   0  0  0  0  0  0  0  0  0  0  0  0
   -6.1267    3.8587   -1.3866 S   0  0  0  0  0  0  0  0  0  0  0  0
   -5.1624    3.7280   -2.5070 O   0  0  0  0  0  0  0  0  0  0  0  0
   -6.2378    5.3010   -0.9487 O   0  0  0  0  0  0  0  0  0  0  0  0
   -7.6810    3.3522   -1.9456 N   0  0  0  0  0  0  0  0  0  0  0  0
    6.4865    0.9319   -1.9279 O   0  0  0  0  0  0  0  0  0  0  0  0
    6.4909    2.8055    2.6230 H   0  0  0  0  0  0  0  0  0  0  0  0
    6.1801    0.5228    2.9708 H   0  0  0  0  0  0  0  0  0  0  0  0
    4.7017    0.9253    3.8843 H   0  0  0  0  0  0  0  0  0  0  0  0
    6.1464    0.3304    0.6697 H   0  0  0  0  0  0  0  0  0  0  0  0
    2.8055    1.6470   -1.6101 H   0  0  0  0  0  0  0  0  0  0  0  0
    1.8286    2.6196    0.4366 H   0  0  0  0  0  0  0  0  0  0  0  0
    3.2736    3.4815    3.1308 H   0  0  0  0  0  0  0  0  0  0  0  0
    4.6762    0.7063   -2.7480 H   0  0  0  0  0  0  0  0  0  0  0  0
    6.1682   -1.3675   -1.0483 H   0  0  0  0  0  0  0  0  0  0  0  0
    5.9757   -1.3224   -2.8100 H   0  0  0  0  0  0  0  0  0  0  0  0
    4.2996   -2.7863   -2.4237 H   0  0  0  0  0  0  0  0  0  0  0  0
    3.2434   -1.1737   -0.1871 H   0  0  0  0  0  0  0  0  0  0  0  0
    4.3478   -2.5011    0.2214 H   0  0  0  0  0  0  0  0  0  0  0  0
    2.0044   -3.2176    0.3714 H   0  0  0  0  0  0  0  0  0  0  0  0
    2.9379   -4.1199   -0.8751 H   0  0  0  0  0  0  0  0  0  0  0  0
    2.0291   -2.7220   -2.6493 H   0  0  0  0  0  0  0  0  0  0  0  0
    0.7814   -3.6074   -1.7423 H   0  0  0  0  0  0  0  0  0  0  0  0
    0.2127   -1.1695   -2.2821 H   0  0  0  0  0  0  0  0  0  0  0  0
    1.6859   -0.6924   -1.4113 H   0  0  0  0  0  0  0  0  0  0  0  0
   -0.2875   -0.2785   -0.0973 H   0  0  0  0  0  0  0  0  0  0  0  0
    0.7995   -1.4205    0.7298 H   0  0  0  0  0  0  0  0  0  0  0  0
   -1.4851   -2.0308    1.0168 H   0  0  0  0  0  0  0  0  0  0  0  0
   -0.6885   -3.3099    0.1286 H   0  0  0  0  0  0  0  0  0  0  0  0
   -3.7256   -2.7289   -1.7221 H   0  0  0  0  0  0  0  0  0  0  0  0
   -2.7645   -3.9907   -0.9614 H   0  0  0  0  0  0  0  0  0  0  0  0
   -4.6950   -3.6094    0.4306 H   0  0  0  0  0  0  0  0  0  0  0  0
   -3.2903   -2.9822    1.2829 H   0  0  0  0  0  0  0  0  0  0  0  0
   -5.1954   -1.5052    1.5469 H   0  0  0  0  0  0  0  0  0  0  0  0
   -5.4426   -1.3022   -0.1857 H   0  0  0  0  0  0  0  0  0  0  0  0
   -3.0936   -0.3815    1.6118 H   0  0  0  0  0  0  0  0  0  0  0  0
   -3.0690   -0.1675   -0.2002 H   0  0  0  0  0  0  0  0  0  0  0  0
   -4.5060    0.8506    2.9776 H   0  0  0  0  0  0  0  0  0  0  0  0
   -5.7509    2.8879    3.3556 H   0  0  0  0  0  0  0  0  0  0  0  0
   -6.4826    4.2432    1.4273 H   0  0  0  0  0  0  0  0  0  0  0  0
   -4.6395    1.3834   -1.2390 H   0  0  0  0  0  0  0  0  0  0  0  0
   -8.1994    2.9595   -1.1158 H   0  0  0  0  0  0  0  0  0  0  0  0
   -7.5403    2.5950   -2.6565 H   0  0  0  0  0  0  0  0  0  0  0  0
    7.0133    0.4258   -1.2462 H   0  0  0  0  0  0  0  0  0  0  0  0
  1  2  1  0
  2  3  1  0
  3  4  2  0
  4  5  1  0
  5  6  2  0
  6  7  1  0
  7  8  2  0
  8  9  1  0
  5 10  1  0
 10 11  1  0
 11 12  1  0
 12 13  1  0
 13 14  1  0
 14 15  1  0
 15 16  1  0
 16 17  1  0
 17 18  1  0
 18 19  1  0
 19 20  1  0
 20 21  1  0
 21 22  1  0
 22 23  1  0
 23 24  1  0
 24 25  2  0
 25 26  1  0
 26 27  2  0
 27 28  1  0
 28 29  2  0
 28 30  1  0
 30 31  2  0
 30 32  2  0
 30 33  1  0
 10 34  1  0
  8  3  1  0
 29 24  1  0
  1 35  1  0
  2 36  1  0
  2 37  1  0
  4 38  1  0
  6 39  1  0
  7 40  1  0
  9 41  1  0
 10 42  1  6
 11 43  1  0
 11 44  1  0
 12 45  1  0
 13 46  1  0
 13 47  1  0
 14 48  1  0
 14 49  1  0
 15 50  1  0
 15 51  1  0
 16 52  1  0
 16 53  1  0
 17 54  1  0
 17 55  1  0
 18 56  1  0
 18 57  1  0
 20 58  1  0
 20 59  1  0
 21 60  1  0
 21 61  1  0
 22 62  1  0
 22 63  1  0
 23 64  1  0
 23 65  1  0
 25 66  1  0
 26 67  1  0
 27 68  1  0
 29 69  1  0
 33 70  1  0
 33 71  1  0
 34 72  1  0
M  END
>  <Ligand ID>  (1) 
LIG0002525

>  <Ligand>  (1) 
UNII-U5Z444BP5F

>  <SMILES>  (1) 
OCc1cc(ccc1O)[C@H](CNCCCCCCOCCCCc1cccc(c1)S(=O)(=O)N)O

>  <CID>  (1) 
9891927.0

>  <ChEMBL ID>  (1) 
nan

>  <InChiKey>  (1) 
GBTODAKMABNGIJ-VWLOTQADSA-N

>  <InChi>  (1) 
InChI=1S/C25H38N2O6S/c26-34(31,32)23-10-7-9-20(16-23)8-3-6-15-33-14-5-2-1-4-13-27-18-25(30)21-11-12-24(29)22(17-21)19-28/h7,9-12,16-17,25,27-30H,1-6,8,13-15,18-19H2,(H2,26,31,32)/t25-/m0/s1

>  <IUPAC Name>  (1) 
3-[4-[6-[[(2R)-2-hydroxy-2-[4-hydroxy-3-(hydroxymethyl)phenyl]ethyl]amino]hexoxy]butyl]benzenesulfonamide

$$$$
