
     RDKit          3D

 45 48  0  0  0  0  0  0  0  0999 V2000
    3.1545   -3.0412    0.3722 C   0  0  0  0  0  0  0  0  0  0  0  0
    3.3617   -2.3700   -0.8571 O   0  0  0  0  0  0  0  0  0  0  0  0
    2.4803   -1.3407   -1.1657 C   0  0  0  0  0  0  0  0  0  0  0  0
    1.4622   -1.0219   -0.2825 C   0  0  0  0  0  0  0  0  0  0  0  0
    0.5500   -0.0149   -0.5182 C   0  0  0  0  0  0  0  0  0  0  0  0
    0.6799    0.6929   -1.6975 C   0  0  0  0  0  0  0  0  0  0  0  0
    1.6901    0.3739   -2.5702 C   0  0  0  0  0  0  0  0  0  0  0  0
    2.6118   -0.6270   -2.3549 C   0  0  0  0  0  0  0  0  0  0  0  0
    3.6171   -0.9397   -3.2284 O   0  0  0  0  0  0  0  0  0  0  0  0
    3.8712   -0.3142   -4.4496 C   0  0  0  0  0  0  0  0  0  0  0  0
   -0.2163    1.6726   -1.9131 N   0  0  0  0  0  0  0  0  0  0  0  0
   -1.1954    1.9671   -1.0434 C   0  0  0  0  0  0  0  0  0  0  0  0
   -1.3403    1.2914    0.1102 N   0  0  0  0  0  0  0  0  0  0  0  0
   -0.4549    0.2907    0.3699 C   0  0  0  0  0  0  0  0  0  0  0  0
   -0.6125   -0.4207    1.5852 N   0  0  0  0  0  0  0  0  0  0  0  0
   -0.8813   -1.8245    1.6912 C   0  0  0  0  0  0  0  0  0  0  0  0
   -2.2389   -1.9563    2.3485 C   0  0  0  0  0  0  0  0  0  0  0  0
   -2.4636   -1.0398    3.4158 N   0  0  0  0  0  0  0  0  0  0  0  0
   -1.3370   -0.3093    3.8872 C   0  0  0  0  0  0  0  0  0  0  0  0
   -0.4934    0.3373    2.8195 C   0  0  0  0  0  0  0  0  0  0  0  0
   -2.1172    3.0805   -1.4189 C   0  0  0  0  0  0  0  0  0  0  0  0
   -3.5688    2.9703   -1.0668 C   0  0  0  0  0  0  0  0  0  0  0  0
   -2.6824    3.9546   -0.3564 C   0  0  0  0  0  0  0  0  0  0  0  0
    3.9388   -3.7773    0.5971 H   0  0  0  0  0  0  0  0  0  0  0  0
    2.1149   -3.4482    0.4713 H   0  0  0  0  0  0  0  0  0  0  0  0
    3.2249   -2.2599    1.1818 H   0  0  0  0  0  0  0  0  0  0  0  0
    1.3443   -1.5656    0.6480 H   0  0  0  0  0  0  0  0  0  0  0  0
    1.7713    0.9408   -3.4853 H   0  0  0  0  0  0  0  0  0  0  0  0
    3.3084   -0.7346   -5.3109 H   0  0  0  0  0  0  0  0  0  0  0  0
    3.6110    0.7710   -4.3364 H   0  0  0  0  0  0  0  0  0  0  0  0
    4.9871   -0.4063   -4.6121 H   0  0  0  0  0  0  0  0  0  0  0  0
   -0.1718   -2.3836    2.3182 H   0  0  0  0  0  0  0  0  0  0  0  0
   -0.9497   -2.2604    0.6867 H   0  0  0  0  0  0  0  0  0  0  0  0
   -3.0465   -1.8030    1.5739 H   0  0  0  0  0  0  0  0  0  0  0  0
   -2.3259   -2.9908    2.7223 H   0  0  0  0  0  0  0  0  0  0  0  0
   -3.3652   -0.5512    3.4152 H   0  0  0  0  0  0  0  0  0  0  0  0
   -0.7298   -0.9610    4.5709 H   0  0  0  0  0  0  0  0  0  0  0  0
   -1.7065    0.5045    4.5525 H   0  0  0  0  0  0  0  0  0  0  0  0
    0.5480    0.3743    3.1945 H   0  0  0  0  0  0  0  0  0  0  0  0
   -0.8634    1.3676    2.6555 H   0  0  0  0  0  0  0  0  0  0  0  0
   -1.9125    3.5490   -2.3964 H   0  0  0  0  0  0  0  0  0  0  0  0
   -3.9196    2.0755   -0.4829 H   0  0  0  0  0  0  0  0  0  0  0  0
   -4.3577    3.3468   -1.7477 H   0  0  0  0  0  0  0  0  0  0  0  0
   -2.5178    3.7616    0.7101 H   0  0  0  0  0  0  0  0  0  0  0  0
   -2.8591    5.0394   -0.6030 H   0  0  0  0  0  0  0  0  0  0  0  0
  1  2  1  0
  2  3  1  0
  3  4  2  0
  4  5  1  0
  5  6  2  0
  6  7  1  0
  7  8  2  0
  8  9  1  0
  9 10  1  0
  6 11  1  0
 11 12  2  0
 12 13  1  0
 13 14  2  0
 14 15  1  0
 15 16  1  0
 16 17  1  0
 17 18  1  0
 18 19  1  0
 19 20  1  0
 12 21  1  0
 21 22  1  0
 22 23  1  0
  8  3  1  0
 20 15  1  0
 23 21  1  0
 14  5  1  0
  1 24  1  0
  1 25  1  0
  1 26  1  0
  4 27  1  0
  7 28  1  0
 10 29  1  0
 10 30  1  0
 10 31  1  0
 16 32  1  0
 16 33  1  0
 17 34  1  0
 17 35  1  0
 18 36  1  0
 19 37  1  0
 19 38  1  0
 20 39  1  0
 20 40  1  0
 21 41  1  0
 22 42  1  0
 22 43  1  0
 23 44  1  0
 23 45  1  0
M  END
>  <Ligand ID>  (1) 
LIG0004751

>  <Ligand>  (1) 
CHEMBL2431110

>  <SMILES>  (1) 
COc1cc2c(cc1OC)nc(nc2N1CCNCC1)C1CC1

>  <CID>  (1) 
56593292.0

>  <ChEMBL ID>  (1) 
nan

>  <InChiKey>  (1) 
DNVUUDPAIIWHMU-UHFFFAOYSA-N

>  <InChi>  (1) 
InChI=1S/C17H22N4O2/c1-22-14-9-12-13(10-15(14)23-2)19-16(11-3-4-11)20-17(12)21-7-5-18-6-8-21/h9-11,18H,3-8H2,1-2H3

>  <IUPAC Name>  (1) 
2-cyclopropyl-6,7-dimethoxy-4-piperazin-1-ylquinazoline

$$$$
