
     RDKit          3D

 33 33  0  0  0  0  0  0  0  0999 V2000
    4.4375    1.4904    2.6937 N   0  0  0  0  0  0  0  0  0  0  0  0
    3.9114    0.9765    1.7838 C   0  0  0  0  0  0  0  0  0  0  0  0
    3.2698    0.3628    0.6537 C   0  0  0  0  0  0  0  0  0  0  0  0
    2.0073    0.8051    0.2779 C   0  0  0  0  0  0  0  0  0  0  0  0
    1.3556    0.2340   -0.8116 C   0  0  0  0  0  0  0  0  0  0  0  0
    1.9989   -0.7757   -1.4989 C   0  0  0  0  0  0  0  0  0  0  0  0
    3.2537   -1.2413   -1.1546 C   0  0  0  0  0  0  0  0  0  0  0  0
    3.8984   -0.6592   -0.0575 C   0  0  0  0  0  0  0  0  0  0  0  0
    5.2029   -1.1186    0.3279 N   0  0  0  0  0  0  0  0  0  0  0  0
    0.0141    0.7231   -1.1893 C   0  0  0  0  0  0  0  0  0  0  0  0
   -1.0023   -0.0171   -0.3484 C   0  0  0  0  0  0  0  0  0  0  0  0
   -2.3480    0.2039   -0.7908 N   0  0  0  0  0  0  0  0  0  0  0  0
   -3.3609   -0.4683   -0.0375 C   0  0  0  0  0  0  0  0  0  0  0  0
   -3.3781   -0.0682    1.4284 C   0  0  0  0  0  0  0  0  0  0  0  0
   -4.7020   -0.0777   -0.6227 C   0  0  0  0  0  0  0  0  0  0  0  0
   -0.1274    2.0807   -1.2085 O   0  0  0  0  0  0  0  0  0  0  0  0
    1.5445    1.6073    0.8573 H   0  0  0  0  0  0  0  0  0  0  0  0
    1.5175   -1.2454   -2.3572 H   0  0  0  0  0  0  0  0  0  0  0  0
    3.7430   -2.0469   -1.7195 H   0  0  0  0  0  0  0  0  0  0  0  0
    5.3176   -1.9556    0.9197 H   0  0  0  0  0  0  0  0  0  0  0  0
    6.0156   -0.5503   -0.0304 H   0  0  0  0  0  0  0  0  0  0  0  0
   -0.1722    0.3646   -2.2416 H   0  0  0  0  0  0  0  0  0  0  0  0
   -0.8475    0.1431    0.7495 H   0  0  0  0  0  0  0  0  0  0  0  0
   -0.7855   -1.1012   -0.5042 H   0  0  0  0  0  0  0  0  0  0  0  0
   -2.5187    1.2180   -0.7688 H   0  0  0  0  0  0  0  0  0  0  0  0
   -3.2581   -1.5703   -0.0525 H   0  0  0  0  0  0  0  0  0  0  0  0
   -2.4729   -0.4655    1.8910 H   0  0  0  0  0  0  0  0  0  0  0  0
   -4.2911   -0.5398    1.8750 H   0  0  0  0  0  0  0  0  0  0  0  0
   -3.4938    1.0278    1.5741 H   0  0  0  0  0  0  0  0  0  0  0  0
   -5.4458   -0.9199   -0.5338 H   0  0  0  0  0  0  0  0  0  0  0  0
   -4.5699    0.1570   -1.7057 H   0  0  0  0  0  0  0  0  0  0  0  0
   -5.0727    0.8272   -0.0652 H   0  0  0  0  0  0  0  0  0  0  0  0
    0.3590    2.5996   -0.5511 H   0  0  0  0  0  0  0  0  0  0  0  0
  1  2  3  0
  2  3  1  0
  3  4  2  0
  4  5  1  0
  5  6  2  0
  6  7  1  0
  7  8  2  0
  8  9  1  0
  5 10  1  0
 10 11  1  0
 11 12  1  0
 12 13  1  0
 13 14  1  0
 13 15  1  0
 10 16  1  0
  8  3  1  0
  4 17  1  0
  6 18  1  0
  7 19  1  0
  9 20  1  0
  9 21  1  0
 10 22  1  0
 11 23  1  0
 11 24  1  0
 12 25  1  0
 13 26  1  0
 14 27  1  0
 14 28  1  0
 14 29  1  0
 15 30  1  0
 15 31  1  0
 15 32  1  0
 16 33  1  0
M  END
>  <Ligand ID>  (1) 
LIG0003487

>  <Ligand>  (1) 
cimaterol

>  <SMILES>  (1) 
N#Cc1cc(ccc1N)C(CNC(C)C)O

>  <CID>  (1) 
2755.0

>  <ChEMBL ID>  (1) 
nan

>  <InChiKey>  (1) 
BUXRLJCGHZZYNE-UHFFFAOYSA-N

>  <InChi>  (1) 
InChI=1S/C12H17N3O/c1-8(2)15-7-12(16)9-3-4-11(14)10(5-9)6-13/h3-5,8,12,15-16H,7,14H2,1-2H3

>  <IUPAC Name>  (1) 
2-amino-5-[1-hydroxy-2-(propan-2-ylamino)ethyl]benzonitrile

$$$$
