
     RDKit          3D

 64 63  0  0  0  0  0  0  0  0999 V2000
    2.6888    0.6019    1.0934 O   0  0  0  0  0  0  0  0  0  0  0  0
    1.8290    0.0169    0.1573 C   0  0  0  0  0  0  0  0  0  0  0  0
    2.3732   -0.5877   -0.7933 O   0  0  0  0  0  0  0  0  0  0  0  0
    0.3764    0.1006    0.2724 C   0  0  0  0  0  0  0  0  0  0  0  0
   -0.4022   -0.4622   -0.6277 C   0  0  0  0  0  0  0  0  0  0  0  0
   -1.8498   -0.3495   -0.4665 C   0  0  0  0  0  0  0  0  0  0  0  0
   -2.6628   -0.8710   -1.3018 O   0  0  0  0  0  0  0  0  0  0  0  0
   -2.4114    0.3302    0.6026 O   0  0  0  0  0  0  0  0  0  0  0  0
   -3.5675   -3.6972   -0.3225 O   0  0  0  0  0  0  0  0  0  0  0  0
   -4.7117   -3.5112   -0.8295 C   0  0  0  0  0  0  0  0  0  0  0  0
   -5.3731   -2.2575   -0.7647 N   0  0  0  0  0  0  0  0  0  0  0  0
   -4.8021   -1.1183   -0.1271 C   0  0  0  0  0  0  0  0  0  0  0  0
   -4.0277   -0.2926   -0.9205 C   0  0  0  0  0  0  0  0  0  0  0  0
   -3.4420    0.8306   -0.3713 C   0  0  0  0  0  0  0  0  0  0  0  0
   -3.6380    1.1151    0.9671 C   0  0  0  0  0  0  0  0  0  0  0  0
   -4.4076    0.3021    1.7728 C   0  0  0  0  0  0  0  0  0  0  0  0
   -4.9842   -0.8180    1.1989 C   0  0  0  0  0  0  0  0  0  0  0  0
   -5.7663   -1.6652    1.9699 O   0  0  0  0  0  0  0  0  0  0  0  0
   -2.6010    1.7362   -1.2126 C   0  0  2  0  0  0  0  0  0  0  0  0
   -1.1335    1.4363   -1.1256 C   0  0  0  0  0  0  0  0  0  0  0  0
   -0.5223    1.7066    0.1346 N   0  0  0  0  0  0  0  0  0  0  0  0
    0.8754    1.4162    0.2023 C   0  0  1  0  0  0  0  0  0  0  0  0
    1.2037   -0.0417   -0.0703 C   0  0  0  0  0  0  0  0  0  0  0  0
    2.6602   -0.2668    0.0163 C   0  0  0  0  0  0  0  0  0  0  0  0
    3.2114   -0.6170    1.2512 C   0  0  0  0  0  0  0  0  0  0  0  0
    4.5737   -0.8289    1.3384 C   0  0  0  0  0  0  0  0  0  0  0  0
    5.4125   -0.7075    0.2503 C   0  0  0  0  0  0  0  0  0  0  0  0
    4.8638   -0.3614   -0.9670 C   0  0  0  0  0  0  0  0  0  0  0  0
    3.5056   -0.1471   -1.0682 C   0  0  0  0  0  0  0  0  0  0  0  0
    6.7785   -0.9126    0.3048 O   0  0  0  0  0  0  0  0  0  0  0  0
    7.4916   -1.2666    1.4524 C   0  0  0  0  0  0  0  0  0  0  0  0
    1.6295    2.3313   -0.7380 C   0  0  0  0  0  0  0  0  0  0  0  0
   -2.9223    3.0575   -0.9734 O   0  0  0  0  0  0  0  0  0  0  0  0
   -0.0031    0.3966   -0.0000 O   0  0  0  0  0  0  0  0  0  0  0  0
    3.5400    1.0922    0.7972 H   0  0  0  0  0  0  0  0  0  0  0  0
   -0.0539    0.6332    1.1104 H   0  0  0  0  0  0  0  0  0  0  0  0
   -0.0168   -1.0007   -1.4755 H   0  0  0  0  0  0  0  0  0  0  0  0
   -3.4106    0.4962    0.6317 H   0  0  0  0  0  0  0  0  0  0  0  0
   -5.2238   -4.3362   -1.3400 H   0  0  0  0  0  0  0  0  0  0  0  0
   -6.3205   -2.1411   -1.1963 H   0  0  0  0  0  0  0  0  0  0  0  0
   -3.8598   -0.4943   -1.9702 H   0  0  0  0  0  0  0  0  0  0  0  0
   -3.1930    1.9862    1.4253 H   0  0  0  0  0  0  0  0  0  0  0  0
   -4.5680    0.5122    2.8160 H   0  0  0  0  0  0  0  0  0  0  0  0
   -6.7524   -1.8366    1.8166 H   0  0  0  0  0  0  0  0  0  0  0  0
   -2.8640    1.5696   -2.2993 H   0  0  0  0  0  0  0  0  0  0  0  0
   -0.6521    1.9606   -1.9730 H   0  0  0  0  0  0  0  0  0  0  0  0
   -1.0318    0.3434   -1.3486 H   0  0  0  0  0  0  0  0  0  0  0  0
   -1.0065    1.1664    0.8687 H   0  0  0  0  0  0  0  0  0  0  0  0
    1.2071    1.6152    1.2428 H   0  0  0  0  0  0  0  0  0  0  0  0
    0.8768   -0.3574   -1.0881 H   0  0  0  0  0  0  0  0  0  0  0  0
    0.6896   -0.6649    0.6641 H   0  0  0  0  0  0  0  0  0  0  0  0
    2.5724   -0.7135    2.0981 H   0  0  0  0  0  0  0  0  0  0  0  0
    4.9875   -1.0993    2.2992 H   0  0  0  0  0  0  0  0  0  0  0  0
    5.4890   -0.2527   -1.8606 H   0  0  0  0  0  0  0  0  0  0  0  0
    3.0713    0.1216   -2.0080 H   0  0  0  0  0  0  0  0  0  0  0  0
    8.5152   -0.8351    1.4817 H   0  0  0  0  0  0  0  0  0  0  0  0
    7.6549   -2.3735    1.4578 H   0  0  0  0  0  0  0  0  0  0  0  0
    7.0204   -0.9690    2.4096 H   0  0  0  0  0  0  0  0  0  0  0  0
    1.1418    3.3321   -0.7162 H   0  0  0  0  0  0  0  0  0  0  0  0
    2.6813    2.4920   -0.4144 H   0  0  0  0  0  0  0  0  0  0  0  0
    1.5483    1.9931   -1.7850 H   0  0  0  0  0  0  0  0  0  0  0  0
   -2.2902    3.5588   -0.4320 H   0  0  0  0  0  0  0  0  0  0  0  0
   -0.7970   -0.1995   -0.0000 H   0  0  0  0  0  0  0  0  0  0  0  0
    0.8001   -0.1971    0.0000 H   0  0  0  0  0  0  0  0  0  0  0  0
  1  2  1  0
  2  3  2  0
  2  4  1  0
  4  5  2  0
  5  6  1  0
  6  7  2  0
  6  8  1  0
  9 10  2  0
 10 11  1  0
 11 12  1  0
 12 13  2  0
 13 14  1  0
 14 15  2  0
 15 16  1  0
 16 17  2  0
 17 18  1  0
 14 19  1  0
 19 20  1  0
 20 21  1  0
 21 22  1  0
 22 23  1  0
 23 24  1  0
 24 25  2  0
 25 26  1  0
 26 27  2  0
 27 28  1  0
 28 29  2  0
 27 30  1  0
 30 31  1  0
 22 32  1  0
 19 33  1  0
 17 12  1  0
 29 24  1  0
  1 35  1  0
  4 36  1  0
  5 37  1  0
  8 38  1  0
 10 39  1  0
 11 40  1  0
 13 41  1  0
 15 42  1  0
 16 43  1  0
 18 44  1  0
 19 45  1  6
 20 46  1  0
 20 47  1  0
 21 48  1  0
 22 49  1  1
 23 50  1  0
 23 51  1  0
 25 52  1  0
 26 53  1  0
 28 54  1  0
 29 55  1  0
 31 56  1  0
 31 57  1  0
 31 58  1  0
 32 59  1  0
 32 60  1  0
 32 61  1  0
 33 62  1  0
 34 63  1  0
 34 64  1  0
M  END
>  <Ligand ID>  (1) 
LIG0001108

>  <Ligand>  (1) 
YM-08316

>  <SMILES>  (1) 
OC(=O)/C=C/C(=O)O.O=CNc1cc(ccc1O)[C@H](CN[C@@H](Cc1ccc(cc1)OC)C)O.O

>  <CID>  (1) 
49800025.0

>  <ChEMBL ID>  (1) 
nan

>  <InChiKey>  (1) 
AXAGNMKWGBWLMO-SGGYECELSA-N

>  <InChi>  (1) 
InChI=1S/C19H24N2O4.C4H4O4.H2O/c1-13(9-14-3-6-16(25-2)7-4-14)20-11-19(24)15-5-8-18(23)17(10-15)21-12-22;5-3(6)1-2-4(7)8;/h3-8,10,12-13,19-20,23-24H,9,11H2,1-2H3,(H,21,22);1-2H,(H,5,6)(H,7,8);1H2/b;2-1+;/t13-,19+;;/m1../s1

>  <IUPAC Name>  (1) 
(E)-but-2-enedioic acid;N-[2-hydroxy-5-[(1R)-1-hydroxy-2-[[(2R)-1-(4-methoxyphenyl)propan-2-yl]amino]ethyl]phenyl]formamide;hydrate

$$$$
