
     RDKit          3D

 30 31  0  0  0  0  0  0  0  0999 V2000
   -4.1158   -1.7548   -0.3411 O   0  0  0  0  0  0  0  0  0  0  0  0
   -3.5340   -0.4959   -0.1480 C   0  0  0  0  0  0  0  0  0  0  0  0
   -4.0499    0.5098   -0.7217 O   0  0  0  0  0  0  0  0  0  0  0  0
   -2.3510   -0.4257    0.7169 C   0  0  2  0  0  0  0  0  0  0  0  0
   -1.1329    0.1702   -0.0027 C   0  0  2  0  0  0  0  0  0  0  0  0
    0.0915    0.2608    0.8369 C   0  0  2  0  0  0  0  0  0  0  0  0
   -0.6033    1.5067    0.4364 C   0  0  1  0  0  0  0  0  0  0  0  0
   -0.1418    2.4115   -0.6120 C   0  0  0  0  0  0  0  0  0  0  0  0
    0.6377    2.1125   -1.5542 O   0  0  0  0  0  0  0  0  0  0  0  0
   -0.5756    3.7580   -0.6227 O   0  0  0  0  0  0  0  0  0  0  0  0
    1.3942   -0.1502    0.2972 C   0  0  0  0  0  0  0  0  0  0  0  0
    1.6194   -0.5359   -1.0055 C   0  0  0  0  0  0  0  0  0  0  0  0
    2.8616   -0.9043   -1.4855 C   0  0  0  0  0  0  0  0  0  0  0  0
    3.9500   -0.8970   -0.6461 C   0  0  0  0  0  0  0  0  0  0  0  0
    3.7653   -0.5143    0.6773 C   0  0  0  0  0  0  0  0  0  0  0  0
    2.5222   -0.1533    1.1274 C   0  0  0  0  0  0  0  0  0  0  0  0
   -1.9318   -1.6804    1.2659 N   0  0  0  0  0  0  0  0  0  0  0  0
   -4.8714   -1.9123   -0.9799 H   0  0  0  0  0  0  0  0  0  0  0  0
   -2.5862    0.2556    1.5677 H   0  0  0  0  0  0  0  0  0  0  0  0
   -1.0770   -0.1242   -1.0626 H   0  0  0  0  0  0  0  0  0  0  0  0
    0.0131    0.0826    1.9512 H   0  0  0  0  0  0  0  0  0  0  0  0
   -1.2935    1.9912    1.1877 H   0  0  0  0  0  0  0  0  0  0  0  0
   -0.5954    4.2646   -1.5213 H   0  0  0  0  0  0  0  0  0  0  0  0
    0.8017   -0.5724   -1.7101 H   0  0  0  0  0  0  0  0  0  0  0  0
    2.9738   -1.1982   -2.5238 H   0  0  0  0  0  0  0  0  0  0  0  0
    4.9349   -1.1796   -0.9908 H   0  0  0  0  0  0  0  0  0  0  0  0
    4.6513   -0.5237    1.3028 H   0  0  0  0  0  0  0  0  0  0  0  0
    2.4417    0.1381    2.1801 H   0  0  0  0  0  0  0  0  0  0  0  0
   -2.6859   -2.3205    1.5481 H   0  0  0  0  0  0  0  0  0  0  0  0
   -1.1132   -2.1191    0.8324 H   0  0  0  0  0  0  0  0  0  0  0  0
  1  2  1  0
  2  3  2  0
  2  4  1  0
  4  5  1  0
  5  6  1  0
  6  7  1  0
  7  8  1  0
  8  9  2  0
  8 10  1  0
  6 11  1  0
 11 12  2  0
 12 13  1  0
 13 14  2  0
 14 15  1  0
 15 16  2  0
  4 17  1  0
  7  5  1  0
 16 11  1  0
  1 18  1  0
  4 19  1  1
  5 20  1  6
  6 21  1  1
  7 22  1  1
 10 23  1  0
 12 24  1  0
 13 25  1  0
 14 26  1  0
 15 27  1  0
 16 28  1  0
 17 29  1  0
 17 30  1  0
M  END
>  <Ligand ID>  (1) 
LIG0002583

>  <Ligand>  (1) 
CHEMBL2114115

>  <SMILES>  (1) 
OC(=O)[C@H]([C@@H]1[C@H]([C@H]1C(=O)O)c1ccccc1)N

>  <CID>  (1) 
10752214.0

>  <ChEMBL ID>  (1) 
nan

>  <InChiKey>  (1) 
IFLWVSHRWAIVQF-KYXWUPHJSA-N

>  <InChi>  (1) 
InChI=1S/C12H13NO4/c13-10(12(16)17)8-7(9(8)11(14)15)6-4-2-1-3-5-6/h1-5,7-10H,13H2,(H,14,15)(H,16,17)/t7-,8-,9-,10+/m1/s1

>  <IUPAC Name>  (1) 
(1R,2R,3R)-2-[(S)-amino(carboxy)methyl]-3-phenylcyclopropane-1-carboxylic acid

$$$$
