
     RDKit          3D

 32 34  0  0  0  0  0  0  0  0999 V2000
   -3.6136    2.0832    0.1132 C   0  0  0  0  0  0  0  0  0  0  0  0
   -4.0722    1.8726   -1.3147 C   0  0  0  0  0  0  0  0  0  0  0  0
   -3.1951    0.8462   -1.7836 N   0  0  0  0  0  0  0  0  0  0  0  0
   -2.5678    0.2469   -0.8276 C   0  0  0  0  0  0  0  0  0  0  0  0
   -2.9678    0.8221    0.4106 N   0  0  0  0  0  0  0  0  0  0  0  0
   -1.5764   -0.8658   -0.9028 C   0  0  0  0  0  0  0  0  0  0  0  0
   -0.3245   -0.5150   -0.3609 O   0  0  0  0  0  0  0  0  0  0  0  0
    0.7558   -1.3867   -0.3193 C   0  0  0  0  0  0  0  0  0  0  0  0
    0.6338   -2.6790   -0.8285 C   0  0  0  0  0  0  0  0  0  0  0  0
    1.7266   -3.5221   -0.7724 C   0  0  0  0  0  0  0  0  0  0  0  0
    2.9404   -3.1227   -0.2255 C   0  0  0  0  0  0  0  0  0  0  0  0
    3.0617   -1.8326    0.2826 C   0  0  0  0  0  0  0  0  0  0  0  0
    1.9699   -1.0132    0.2182 C   0  0  0  0  0  0  0  0  0  0  0  0
    2.1204    0.3420    0.7598 C   0  0  0  0  0  0  0  0  0  0  0  0
    3.1747    0.9305    1.3223 C   0  0  0  0  0  0  0  0  0  0  0  0
    3.0702    2.2047    1.7500 C   0  0  0  0  0  0  0  0  0  0  0  0
    1.8682    2.8280    1.5782 C   0  0  0  0  0  0  0  0  0  0  0  0
    0.8442    1.5564    0.7778 S   0  0  0  0  0  0  0  0  0  0  0  0
   -2.8443    2.8871    0.1210 H   0  0  0  0  0  0  0  0  0  0  0  0
   -4.4614    2.2982    0.7939 H   0  0  0  0  0  0  0  0  0  0  0  0
   -3.9566    2.8287   -1.8900 H   0  0  0  0  0  0  0  0  0  0  0  0
   -5.1215    1.4957   -1.3765 H   0  0  0  0  0  0  0  0  0  0  0  0
   -2.8264    0.4194    1.3500 H   0  0  0  0  0  0  0  0  0  0  0  0
   -1.9987   -1.7798   -0.4761 H   0  0  0  0  0  0  0  0  0  0  0  0
   -1.3866   -1.0385   -1.9993 H   0  0  0  0  0  0  0  0  0  0  0  0
   -0.2964   -3.0262   -1.2625 H   0  0  0  0  0  0  0  0  0  0  0  0
    1.6650   -4.5163   -1.1535 H   0  0  0  0  0  0  0  0  0  0  0  0
    3.7820   -3.7726   -0.1826 H   0  0  0  0  0  0  0  0  0  0  0  0
    4.0185   -1.5348    0.7075 H   0  0  0  0  0  0  0  0  0  0  0  0
    4.1465    0.3715    1.4412 H   0  0  0  0  0  0  0  0  0  0  0  0
    3.9125    2.7548    2.2284 H   0  0  0  0  0  0  0  0  0  0  0  0
    1.5185    3.8173    1.8213 H   0  0  0  0  0  0  0  0  0  0  0  0
  1  2  1  0
  2  3  1  0
  3  4  2  0
  4  5  1  0
  4  6  1  0
  6  7  1  0
  7  8  1  0
  8  9  2  0
  9 10  1  0
 10 11  2  0
 11 12  1  0
 12 13  2  0
 13 14  1  0
 14 15  2  0
 15 16  1  0
 16 17  2  0
 17 18  1  0
  5  1  1  0
 13  8  1  0
 18 14  1  0
  1 19  1  0
  1 20  1  0
  2 21  1  0
  2 22  1  0
  5 23  1  0
  6 24  1  0
  6 25  1  0
  9 26  1  0
 10 27  1  0
 11 28  1  0
 12 29  1  0
 15 30  1  0
 16 31  1  0
 17 32  1  0
M  END
>  <Ligand ID>  (1) 
LIG0003192

>  <Ligand>  (1) 
CHEMBL143801

>  <SMILES>  (1) 
C1CN=C(N1)COc1ccccc1c1cccs1

>  <CID>  (1) 
44362208.0

>  <ChEMBL ID>  (1) 
nan

>  <InChiKey>  (1) 
NDNJRVYHFSNFBJ-UHFFFAOYSA-N

>  <InChi>  (1) 
InChI=1S/C14H14N2OS/c1-2-5-12(17-10-14-15-7-8-16-14)11(4-1)13-6-3-9-18-13/h1-6,9H,7-8,10H2,(H,15,16)

>  <IUPAC Name>  (1) 
2-[(2-thiophen-2-ylphenoxy)methyl]-4,5-dihydro-1H-imidazole

$$$$
