
     RDKit          3D

 33 33  0  0  0  0  0  0  0  0999 V2000
   -2.9815    2.8907   -0.7207 F   0  0  0  0  0  0  0  0  0  0  0  0
   -3.3628    2.1930    0.4133 C   0  0  0  0  0  0  0  0  0  0  0  0
   -3.0586    0.7214    0.2343 C   0  0  0  0  0  0  0  0  0  0  0  0
   -1.6931    0.4871    0.0204 O   0  0  0  0  0  0  0  0  0  0  0  0
   -1.1654   -0.7794   -0.1711 C   0  0  0  0  0  0  0  0  0  0  0  0
   -2.0468   -1.8503   -0.1461 C   0  0  0  0  0  0  0  0  0  0  0  0
   -1.5837   -3.1345   -0.3301 C   0  0  0  0  0  0  0  0  0  0  0  0
   -0.2506   -3.3607   -0.5387 C   0  0  0  0  0  0  0  0  0  0  0  0
    0.6273   -2.2843   -0.5627 C   0  0  0  0  0  0  0  0  0  0  0  0
    0.1903   -0.9862   -0.3811 C   0  0  0  0  0  0  0  0  0  0  0  0
    1.0683    0.1927   -0.3956 C   0  0  1  0  0  0  0  0  0  0  0  0
    1.6190    0.5451    0.9737 C   0  0  0  0  0  0  0  0  0  0  0  0
    2.5196    0.0662   -0.1078 C   0  0  2  0  0  0  0  0  0  0  0  0
    3.5092    1.0564   -0.6344 C   0  0  0  0  0  0  0  0  0  0  0  0
    3.2558    2.4071   -0.1768 N   0  0  0  0  0  0  0  0  0  0  0  0
    0.2322   -4.6279   -0.7239 F   0  0  0  0  0  0  0  0  0  0  0  0
    0.6928    0.0000    0.0000 Cl  0  0  0  0  0  0  0  0  0  0  0  0
   -2.8879    2.6423    1.2827 H   0  0  0  0  0  0  0  0  0  0  0  0
   -4.4815    2.2941    0.4387 H   0  0  0  0  0  0  0  0  0  0  0  0
   -3.7072    0.3762   -0.5901 H   0  0  0  0  0  0  0  0  0  0  0  0
   -3.3260    0.2016    1.1831 H   0  0  0  0  0  0  0  0  0  0  0  0
   -3.1060   -1.6721    0.0195 H   0  0  0  0  0  0  0  0  0  0  0  0
   -2.2481   -3.9865   -0.3153 H   0  0  0  0  0  0  0  0  0  0  0  0
    1.6822   -2.4584   -0.7273 H   0  0  0  0  0  0  0  0  0  0  0  0
    0.7555    1.0059   -1.0672 H   0  0  0  0  0  0  0  0  0  0  0  0
    1.4136   -0.1289    1.8357 H   0  0  0  0  0  0  0  0  0  0  0  0
    1.5846    1.6063    1.2114 H   0  0  0  0  0  0  0  0  0  0  0  0
    2.9473   -0.9781   -0.0669 H   0  0  0  0  0  0  0  0  0  0  0  0
    4.5124    0.7833   -0.2459 H   0  0  0  0  0  0  0  0  0  0  0  0
    3.5971    1.0150   -1.7540 H   0  0  0  0  0  0  0  0  0  0  0  0
    2.3242    2.7721   -0.3992 H   0  0  0  0  0  0  0  0  0  0  0  0
    4.0604    2.9908   -0.5022 H   0  0  0  0  0  0  0  0  0  0  0  0
   -0.6928    0.0000    0.0000 H   0  0  0  0  0  0  0  0  0  0  0  0
  1  2  1  0
  2  3  1  0
  3  4  1  0
  4  5  1  0
  5  6  2  0
  6  7  1  0
  7  8  2  0
  8  9  1  0
  9 10  2  0
 10 11  1  0
 11 12  1  0
 12 13  1  0
 13 14  1  0
 14 15  1  0
  8 16  1  0
 10  5  1  0
 13 11  1  0
  2 18  1  0
  2 19  1  0
  3 20  1  0
  3 21  1  0
  6 22  1  0
  7 23  1  0
  9 24  1  0
 11 25  1  6
 12 26  1  0
 12 27  1  0
 13 28  1  1
 14 29  1  0
 14 30  1  0
 15 31  1  0
 15 32  1  0
 17 33  1  0
M  END
>  <Ligand ID>  (1) 
LIG0005667

>  <Ligand>  (1) 
CHEMBL3416067

>  <SMILES>  (1) 
FCCOc1ccc(cc1[C@H]1C[C@@H]1CN)F.Cl

>  <CID>  (1) 
92042920.0

>  <ChEMBL ID>  (1) 
nan

>  <InChiKey>  (1) 
RJWLRXULSMGYPC-SCYNACPDSA-N

>  <InChi>  (1) 
InChI=1S/C12H15F2NO.ClH/c13-3-4-16-12-2-1-9(14)6-11(12)10-5-8(10)7-15;/h1-2,6,8,10H,3-5,7,15H2;1H/t8-,10+;/m1./s1

>  <IUPAC Name>  (1) 
[(1S,2S)-2-[5-fluoro-2-(2-fluoroethoxy)phenyl]cyclopropyl]methanamine;hydrochloride

$$$$
