
     RDKit          3D

153158  0  0  0  0  0  0  0  0999 V2000
   -2.4666   -7.9785   -4.1099 N   0  0  0  0  0  0  0  0  0  0  0  0
   -2.8493   -6.6524   -3.6883 C   0  0  0  0  0  0  0  0  0  0  0  0
   -3.0673   -6.5106   -2.4451 N   0  0  0  0  0  0  0  0  0  0  0  0
   -3.4530   -5.3583   -1.7190 C   0  0  0  0  0  0  0  0  0  0  0  0
   -2.2849   -4.4035   -1.4628 C   0  0  0  0  0  0  0  0  0  0  0  0
   -2.7896   -3.2395   -0.6824 C   0  0  0  0  0  0  0  0  0  0  0  0
   -1.7278   -2.2045   -0.3401 C   0  0  2  0  0  0  0  0  0  0  0  0
   -0.6467   -2.7343    0.4445 N   0  0  0  0  0  0  0  0  0  0  0  0
   -0.7844   -3.5286    1.6254 C   0  0  0  0  0  0  0  0  0  0  0  0
   -1.9374   -3.8056    1.9468 O   0  0  0  0  0  0  0  0  0  0  0  0
    0.4347   -3.9761    2.4110 C   0  0  1  0  0  0  0  0  0  0  0  0
    0.3916   -5.4076    2.7932 C   0  0  0  0  0  0  0  0  0  0  0  0
    0.3353   -6.3540    1.6724 C   0  0  0  0  0  0  0  0  0  0  0  0
   -0.8278   -6.8112    1.0870 C   0  0  0  0  0  0  0  0  0  0  0  0
   -0.7806   -7.7342    0.0283 C   0  0  0  0  0  0  0  0  0  0  0  0
    0.4136   -8.2151   -0.4641 C   0  0  0  0  0  0  0  0  0  0  0  0
    1.5644   -7.7548    0.1240 C   0  0  0  0  0  0  0  0  0  0  0  0
    1.5441   -6.8472    1.1673 C   0  0  0  0  0  0  0  0  0  0  0  0
    1.6442   -3.6426    1.6790 N   0  0  0  0  0  0  0  0  0  0  0  0
    2.2024   -2.3052    1.6999 C   0  0  0  0  0  0  0  0  0  0  0  0
    1.5011   -1.4914    2.3308 O   0  0  0  0  0  0  0  0  0  0  0  0
    3.4433   -1.9145    1.0474 C   0  0  2  0  0  0  0  0  0  0  0  0
    4.6738   -2.1798    1.9261 C   0  0  0  0  0  0  0  0  0  0  0  0
    4.7432   -3.6257    2.2245 C   0  0  0  0  0  0  0  0  0  0  0  0
    5.3901   -4.5491    1.4661 N   0  0  0  0  0  0  0  0  0  0  0  0
    5.2260   -5.7408    2.1044 C   0  0  0  0  0  0  0  0  0  0  0  0
    4.5012   -5.5562    3.2201 N   0  0  0  0  0  0  0  0  0  0  0  0
    4.1954   -4.2612    3.3093 C   0  0  0  0  0  0  0  0  0  0  0  0
    3.3417   -0.4531    0.8458 N   0  0  0  0  0  0  0  0  0  0  0  0
    4.0778    0.1509   -0.2192 C   0  0  0  0  0  0  0  0  0  0  0  0
    4.8682   -0.5959   -0.8067 O   0  0  0  0  0  0  0  0  0  0  0  0
    3.8935    1.6079   -0.5763 C   0  0  2  0  0  0  0  0  0  0  0  0
    2.6288    1.5679   -1.4207 C   0  0  0  0  0  0  0  0  0  0  0  0
    2.1988    2.8736   -1.9431 C   0  0  0  0  0  0  0  0  0  0  0  0
    2.6937    3.9747   -1.7039 O   0  0  0  0  0  0  0  0  0  0  0  0
    1.0666    2.9173   -2.8480 N   0  0  0  0  0  0  0  0  0  0  0  0
    0.5889    4.1753   -3.4007 C   0  0  0  0  0  0  0  0  0  0  0  0
    0.1393    5.1151   -2.3054 C   0  0  0  0  0  0  0  0  0  0  0  0
   -0.9818    4.5483   -1.4888 C   0  0  0  0  0  0  0  0  0  0  0  0
   -2.2130    4.2973   -2.3346 C   0  0  0  0  0  0  0  0  0  0  0  0
   -3.3611    3.8110   -1.5122 C   0  0  1  0  0  0  0  0  0  0  0  0
   -3.1856    2.5123   -0.9058 N   0  0  0  0  0  0  0  0  0  0  0  0
   -4.2924    1.9563   -0.1980 C   0  0  0  0  0  0  0  0  0  0  0  0
   -5.2671    2.7142   -0.0624 O   0  0  0  0  0  0  0  0  0  0  0  0
   -4.3652    0.6051    0.3816 C   0  0  2  0  0  0  0  0  0  0  0  0
   -3.5256   -0.3877   -0.2244 N   0  0  0  0  0  0  0  0  0  0  0  0
   -2.4814   -1.1191    0.4030 C   0  0  0  0  0  0  0  0  0  0  0  0
   -2.2379   -0.8073    1.5749 O   0  0  0  0  0  0  0  0  0  0  0  0
   -5.8048    0.0689    0.3385 C   0  0  0  0  0  0  0  0  0  0  0  0
   -5.9248   -1.2747    0.9176 C   0  0  0  0  0  0  0  0  0  0  0  0
   -6.0706   -2.5083    0.3146 C   0  0  0  0  0  0  0  0  0  0  0  0
   -6.1307   -3.4185    1.2836 N   0  0  0  0  0  0  0  0  0  0  0  0
   -6.0359   -2.8839    2.5003 C   0  0  0  0  0  0  0  0  0  0  0  0
   -5.9036   -1.5143    2.2881 C   0  0  0  0  0  0  0  0  0  0  0  0
   -5.7798   -0.6691    3.3717 C   0  0  0  0  0  0  0  0  0  0  0  0
   -5.7834   -1.1512    4.6699 C   0  0  0  0  0  0  0  0  0  0  0  0
   -5.9159   -2.5046    4.8307 C   0  0  0  0  0  0  0  0  0  0  0  0
   -6.0441   -3.4105    3.8017 C   0  0  0  0  0  0  0  0  0  0  0  0
   -3.5665    4.8433   -0.3624 C   0  0  0  0  0  0  0  0  0  0  0  0
   -3.5053    4.4661    0.8207 O   0  0  0  0  0  0  0  0  0  0  0  0
   -3.8108    6.1488   -0.8286 N   0  0  0  0  0  0  0  0  0  0  0  0
   -4.0341    7.3154   -0.0055 C   0  0  2  0  0  0  0  0  0  0  0  0
   -5.4293    7.8257   -0.2740 C   0  0  0  0  0  0  0  0  0  0  0  0
   -5.8793    8.8328    0.3328 O   0  0  0  0  0  0  0  0  0  0  0  0
   -6.2546    7.1429   -1.2427 N   0  0  0  0  0  0  0  0  0  0  0  0
   -3.1233    8.4481   -0.4798 C   0  0  2  0  0  0  0  0  0  0  0  0
   -1.8123    7.9985   -0.3535 O   0  0  0  0  0  0  0  0  0  0  0  0
   -3.2889    9.6849    0.3397 C   0  0  0  0  0  0  0  0  0  0  0  0
    4.9869    2.0392   -1.4422 N   0  0  0  0  0  0  0  0  0  0  0  0
    5.6525    3.2408   -1.0432 C   0  0  0  0  0  0  0  0  0  0  0  0
    5.2669    3.8618    0.0102 O   0  0  0  0  0  0  0  0  0  0  0  0
    6.7799    3.8402   -1.7672 C   0  0  2  0  0  0  0  0  0  0  0  0
    8.0597    3.0010   -1.6687 C   0  0  0  0  0  0  0  0  0  0  0  0
    8.4623    2.8565   -0.2345 C   0  0  0  0  0  0  0  0  0  0  0  0
    9.2802    3.7632    0.3969 C   0  0  0  0  0  0  0  0  0  0  0  0
    9.6572    3.6289    1.7218 C   0  0  0  0  0  0  0  0  0  0  0  0
    9.2135    2.5545    2.4679 C   0  0  0  0  0  0  0  0  0  0  0  0
    8.3994    1.6469    1.8491 C   0  0  0  0  0  0  0  0  0  0  0  0
    8.0092    1.7705    0.5088 C   0  0  0  0  0  0  0  0  0  0  0  0
    7.1151    5.0929   -1.0878 N   0  0  0  0  0  0  0  0  0  0  0  0
   -2.9748   -5.5754   -4.6053 N   0  0  0  0  0  0  0  0  0  0  0  0
   -3.1410   -8.7884   -4.0373 H   0  0  0  0  0  0  0  0  0  0  0  0
   -1.5304   -8.1972   -4.4952 H   0  0  0  0  0  0  0  0  0  0  0  0
   -4.2266   -4.8152   -2.3120 H   0  0  0  0  0  0  0  0  0  0  0  0
   -3.8643   -5.6285   -0.7466 H   0  0  0  0  0  0  0  0  0  0  0  0
   -1.9449   -4.1004   -2.4938 H   0  0  0  0  0  0  0  0  0  0  0  0
   -1.4442   -4.9212   -0.9784 H   0  0  0  0  0  0  0  0  0  0  0  0
   -3.3863   -3.5430    0.1848 H   0  0  0  0  0  0  0  0  0  0  0  0
   -3.5154   -2.6714   -1.3407 H   0  0  0  0  0  0  0  0  0  0  0  0
   -1.3773   -1.7330   -1.2799 H   0  0  0  0  0  0  0  0  0  0  0  0
    0.3119   -2.5551    0.1524 H   0  0  0  0  0  0  0  0  0  0  0  0
    0.4587   -3.3088    3.3302 H   0  0  0  0  0  0  0  0  0  0  0  0
   -0.4924   -5.5513    3.4927 H   0  0  0  0  0  0  0  0  0  0  0  0
    1.2997   -5.5997    3.4400 H   0  0  0  0  0  0  0  0  0  0  0  0
   -1.7822   -6.4683    1.4358 H   0  0  0  0  0  0  0  0  0  0  0  0
   -1.7106   -8.0946   -0.4310 H   0  0  0  0  0  0  0  0  0  0  0  0
    0.4919   -8.9255   -1.2725 H   0  0  0  0  0  0  0  0  0  0  0  0
    2.5120   -8.1347   -0.2677 H   0  0  0  0  0  0  0  0  0  0  0  0
    2.5038   -6.5600    1.5648 H   0  0  0  0  0  0  0  0  0  0  0  0
    2.1870   -4.2889    1.1006 H   0  0  0  0  0  0  0  0  0  0  0  0
    3.6480   -2.4279    0.1161 H   0  0  0  0  0  0  0  0  0  0  0  0
    5.5932   -1.9139    1.3658 H   0  0  0  0  0  0  0  0  0  0  0  0
    4.5542   -1.6342    2.8716 H   0  0  0  0  0  0  0  0  0  0  0  0
    5.9123   -4.4507    0.5932 H   0  0  0  0  0  0  0  0  0  0  0  0
    5.6237   -6.6955    1.7603 H   0  0  0  0  0  0  0  0  0  0  0  0
    3.6129   -3.8530    4.1279 H   0  0  0  0  0  0  0  0  0  0  0  0
    2.7843    0.1709    1.4125 H   0  0  0  0  0  0  0  0  0  0  0  0
    3.7892    2.2645    0.2799 H   0  0  0  0  0  0  0  0  0  0  0  0
    2.7694    0.8226   -2.2216 H   0  0  0  0  0  0  0  0  0  0  0  0
    1.8193    1.2477   -0.7011 H   0  0  0  0  0  0  0  0  0  0  0  0
    0.6536    2.0136   -3.0518 H   0  0  0  0  0  0  0  0  0  0  0  0
   -0.2076    4.0440   -4.1259 H   0  0  0  0  0  0  0  0  0  0  0  0
    1.4189    4.7200   -3.9350 H   0  0  0  0  0  0  0  0  0  0  0  0
    0.9384    5.4559   -1.6381 H   0  0  0  0  0  0  0  0  0  0  0  0
   -0.2659    6.0591   -2.7826 H   0  0  0  0  0  0  0  0  0  0  0  0
   -0.6288    3.5308   -1.1472 H   0  0  0  0  0  0  0  0  0  0  0  0
   -1.1889    5.0943   -0.5723 H   0  0  0  0  0  0  0  0  0  0  0  0
   -2.4998    5.2145   -2.8731 H   0  0  0  0  0  0  0  0  0  0  0  0
   -2.0046    3.5260   -3.1048 H   0  0  0  0  0  0  0  0  0  0  0  0
   -4.3121    3.9466   -2.0567 H   0  0  0  0  0  0  0  0  0  0  0  0
   -2.3469    1.9361   -0.9200 H   0  0  0  0  0  0  0  0  0  0  0  0
   -4.1201    0.6646    1.5033 H   0  0  0  0  0  0  0  0  0  0  0  0
   -3.6710   -0.6093   -1.2169 H   0  0  0  0  0  0  0  0  0  0  0  0
   -6.4147    0.8346    0.8801 H   0  0  0  0  0  0  0  0  0  0  0  0
   -6.1063    0.1423   -0.7121 H   0  0  0  0  0  0  0  0  0  0  0  0
   -6.1189   -2.6366   -0.7663 H   0  0  0  0  0  0  0  0  0  0  0  0
   -6.2393   -4.4479    1.1235 H   0  0  0  0  0  0  0  0  0  0  0  0
   -5.6775    0.4125    3.2781 H   0  0  0  0  0  0  0  0  0  0  0  0
   -5.6870   -0.4940    5.5290 H   0  0  0  0  0  0  0  0  0  0  0  0
   -5.9178   -2.8773    5.8576 H   0  0  0  0  0  0  0  0  0  0  0  0
   -6.1476   -4.4774    3.9354 H   0  0  0  0  0  0  0  0  0  0  0  0
   -3.8438    6.3526   -1.8812 H   0  0  0  0  0  0  0  0  0  0  0  0
   -3.9493    7.1658    1.0656 H   0  0  0  0  0  0  0  0  0  0  0  0
   -6.1465    7.3595   -2.2776 H   0  0  0  0  0  0  0  0  0  0  0  0
   -6.9574    6.4397   -0.9712 H   0  0  0  0  0  0  0  0  0  0  0  0
   -3.4013    8.6716   -1.5328 H   0  0  0  0  0  0  0  0  0  0  0  0
   -1.7341    7.6456    0.5784 H   0  0  0  0  0  0  0  0  0  0  0  0
   -3.9108   10.4602   -0.1579 H   0  0  0  0  0  0  0  0  0  0  0  0
   -3.7688    9.4926    1.3235 H   0  0  0  0  0  0  0  0  0  0  0  0
   -2.2972   10.1428    0.4990 H   0  0  0  0  0  0  0  0  0  0  0  0
    5.2916    1.5420   -2.2916 H   0  0  0  0  0  0  0  0  0  0  0  0
    6.6012    4.0086   -2.8307 H   0  0  0  0  0  0  0  0  0  0  0  0
    8.8445    3.5678   -2.2105 H   0  0  0  0  0  0  0  0  0  0  0  0
    7.9044    2.0043   -2.1240 H   0  0  0  0  0  0  0  0  0  0  0  0
    9.6631    4.6253   -0.1270 H   0  0  0  0  0  0  0  0  0  0  0  0
   10.3010    4.3399    2.2178 H   0  0  0  0  0  0  0  0  0  0  0  0
    9.5238    2.4680    3.5095 H   0  0  0  0  0  0  0  0  0  0  0  0
    8.0571    0.8029    2.4494 H   0  0  0  0  0  0  0  0  0  0  0  0
    7.3708    1.0208    0.0923 H   0  0  0  0  0  0  0  0  0  0  0  0
    6.4109    5.8387   -1.3006 H   0  0  0  0  0  0  0  0  0  0  0  0
    7.1552    4.9104   -0.0438 H   0  0  0  0  0  0  0  0  0  0  0  0
   -2.1387   -5.3680   -5.1941 H   0  0  0  0  0  0  0  0  0  0  0  0
   -3.8730   -5.0320   -4.6680 H   0  0  0  0  0  0  0  0  0  0  0  0
  1  2  1  0
  2  3  2  3
  3  4  1  0
  4  5  1  0
  5  6  1  0
  6  7  1  0
  7  8  1  0
  8  9  1  0
  9 10  2  0
  9 11  1  0
 11 12  1  0
 12 13  1  0
 13 14  2  0
 14 15  1  0
 15 16  2  0
 16 17  1  0
 17 18  2  0
 11 19  1  0
 19 20  1  0
 20 21  2  0
 20 22  1  0
 22 23  1  0
 23 24  1  0
 24 25  1  0
 25 26  1  0
 26 27  2  0
 27 28  1  0
 22 29  1  0
 29 30  1  0
 30 31  2  0
 30 32  1  0
 32 33  1  0
 33 34  1  0
 34 35  2  0
 34 36  1  0
 36 37  1  0
 37 38  1  0
 38 39  1  0
 39 40  1  0
 40 41  1  0
 41 42  1  0
 42 43  1  0
 43 44  2  0
 43 45  1  0
 45 46  1  0
 46 47  1  0
 47 48  2  0
 45 49  1  0
 49 50  1  0
 50 51  2  0
 51 52  1  0
 52 53  1  0
 53 54  2  0
 54 55  1  0
 55 56  2  0
 56 57  1  0
 57 58  2  0
 41 59  1  0
 59 60  2  0
 59 61  1  0
 61 62  1  0
 62 63  1  0
 63 64  2  0
 63 65  1  0
 62 66  1  0
 66 67  1  0
 66 68  1  0
 32 69  1  0
 69 70  1  0
 70 71  2  0
 70 72  1  0
 72 73  1  0
 73 74  1  0
 74 75  2  0
 75 76  1  0
 76 77  2  0
 77 78  1  0
 78 79  2  0
 72 80  1  0
  2 81  1  0
 47  7  1  0
 54 50  1  0
 79 74  1  0
 18 13  1  0
 28 24  2  0
 58 53  1  0
  1 82  1  0
  1 83  1  0
  4 84  1  0
  4 85  1  0
  5 86  1  0
  5 87  1  0
  6 88  1  0
  6 89  1  0
  7 90  1  6
  8 91  1  0
 11 92  1  1
 12 93  1  0
 12 94  1  0
 14 95  1  0
 15 96  1  0
 16 97  1  0
 17 98  1  0
 18 99  1  0
 19100  1  0
 22101  1  6
 23102  1  0
 23103  1  0
 25104  1  0
 26105  1  0
 28106  1  0
 29107  1  0
 32108  1  1
 33109  1  0
 33110  1  0
 36111  1  0
 37112  1  0
 37113  1  0
 38114  1  0
 38115  1  0
 39116  1  0
 39117  1  0
 40118  1  0
 40119  1  0
 41120  1  6
 42121  1  0
 45122  1  1
 46123  1  0
 49124  1  0
 49125  1  0
 51126  1  0
 52127  1  0
 55128  1  0
 56129  1  0
 57130  1  0
 58131  1  0
 61132  1  0
 62133  1  1
 65134  1  0
 65135  1  0
 66136  1  6
 67137  1  0
 68138  1  0
 68139  1  0
 68140  1  0
 69141  1  0
 72142  1  6
 73143  1  0
 73144  1  0
 75145  1  0
 76146  1  0
 77147  1  0
 78148  1  0
 79149  1  0
 80150  1  0
 80151  1  0
 81152  1  0
 81153  1  0
M  END
>  <Ligand ID>  (1) 
LIG0000801

>  <Ligand>  (1) 
CHEMBL414965

>  <SMILES>  (1) 
NC(=NCCC[C@@H]1NC(=O)[C@@H](Cc2ccccc2)NC(=O)[C@H](Cc2[nH]cnc2)NC(=O)[C@H](CC(=O)NCCCC[C@@H](NC(=O)[C@H](NC1=O)Cc1c[nH]c2c1cccc2)C(=O)N[C@H](C(=O)N)[C@H](O)C)NC(=O)[C@H](Cc1ccccc1)N)N

>  <CID>  (1) 
44285133.0

>  <ChEMBL ID>  (1) 
nan

>  <InChiKey>  (1) 
OZQPRMAYOQICHP-LOBOJTKKSA-N

>  <InChi>  (1) 
InChI=1S/C55H72N16O10/c1-31(72)46(47(57)74)71-50(77)39-19-10-11-21-61-45(73)27-44(67-48(75)37(56)23-32-13-4-2-5-14-32)54(81)70-43(26-35-29-60-30-64-35)53(80)68-41(24-33-15-6-3-7-16-33)51(78)66-40(20-12-22-62-55(58)59)49(76)69-42(52(79)65-39)25-34-28-63-38-18-9-8-17-36(34)38/h2-9,13-18,28-31,37,39-44,46,63,72H,10-12,19-27,56H2,1H3,(H2,57,74)(H,60,64)(H,61,73)(H,65,79)(H,66,78)(H,67,75)(H,68,80)(H,69,76)(H,70,81)(H,71,77)(H4,58,59,62)/t31-,37+,39-,40+,41-,42-,43+,44+,46+/m1/s1

>  <IUPAC Name>  (1) 
(3R,6S,9R,12S,15S,23R)-N-[(2S,3R)-1-amino-3-hydroxy-1-oxobutan-2-yl]-15-[[(2S)-2-amino-3-phenylpropanoyl]amino]-9-benzyl-6-[3-(diaminomethylideneamino)propyl]-12-(1H-imidazol-5-ylmethyl)-3-(1H-indol-3-ylmethyl)-2,5,8,11,14,17-hexaoxo-1,4,7,10,13,18-hexazacyclotricosane-23-carboxamide

$$$$
