
     RDKit          3D

 47 49  0  0  0  0  0  0  0  0999 V2000
   -2.8114   -2.9626   -1.8607 N   0  0  0  0  0  0  0  0  0  0  0  0
   -2.4637   -2.2800   -0.9738 C   0  0  0  0  0  0  0  0  0  0  0  0
   -2.0295   -1.4685    0.1165 C   0  0  0  0  0  0  0  0  0  0  0  0
   -0.9092   -1.8203    0.8626 C   0  0  0  0  0  0  0  0  0  0  0  0
    0.0312   -3.2931    0.4922 S   0  0  0  0  0  0  0  0  0  0  0  0
    1.3394   -2.9120   -0.7046 C   0  0  0  0  0  0  0  0  0  0  0  0
    2.3694   -2.0104   -0.1791 C   0  0  0  0  0  0  0  0  0  0  0  0
    3.4651   -2.5891    0.4538 C   0  0  0  0  0  0  0  0  0  0  0  0
    4.4897   -1.8287    0.9831 C   0  0  0  0  0  0  0  0  0  0  0  0
    4.3872   -0.4651    0.8610 C   0  0  0  0  0  0  0  0  0  0  0  0
    3.3343    0.1770    0.2487 C   0  0  0  0  0  0  0  0  0  0  0  0
    2.3273   -0.6354   -0.2684 C   0  0  0  0  0  0  0  0  0  0  0  0
    3.2371    1.5889    0.1269 N   0  0  0  0  0  0  0  0  0  0  0  0
    4.6353    2.4774   -0.3654 S   0  0  0  0  0  0  0  0  0  0  0  0
    4.3201    3.9647   -0.4099 O   0  0  0  0  0  0  0  0  0  0  0  0
    5.7305    2.3127    0.6528 O   0  0  0  0  0  0  0  0  0  0  0  0
    5.1525    1.9737   -1.9868 C   0  0  0  0  0  0  0  0  0  0  0  0
   -0.4830   -1.0615    1.9027 N   0  0  0  0  0  0  0  0  0  0  0  0
   -1.1796    0.0706    2.2126 C   0  0  0  0  0  0  0  0  0  0  0  0
   -2.2965    0.4406    1.4852 C   0  0  0  0  0  0  0  0  0  0  0  0
   -2.7275   -0.3222    0.4370 C   0  0  0  0  0  0  0  0  0  0  0  0
   -3.9114    0.1151   -0.2981 C   0  0  0  0  0  0  0  0  0  0  0  0
   -3.8296    0.9587   -1.3968 C   0  0  0  0  0  0  0  0  0  0  0  0
   -4.9558    1.3451   -2.0587 C   0  0  0  0  0  0  0  0  0  0  0  0
   -6.1905    0.8946   -1.6346 C   0  0  0  0  0  0  0  0  0  0  0  0
   -6.3271    0.0492   -0.5411 C   0  0  0  0  0  0  0  0  0  0  0  0
   -5.1435   -0.3152    0.0998 C   0  0  0  0  0  0  0  0  0  0  0  0
   -7.3508    1.2484   -2.2583 F   0  0  0  0  0  0  0  0  0  0  0  0
   -3.0100    1.6432    1.8387 C   0  0  0  0  0  0  0  0  0  0  0  0
   -3.5602    2.6059    2.1275 N   0  0  0  0  0  0  0  0  0  0  0  0
   -0.6970    0.8430    3.3168 N   0  0  0  0  0  0  0  0  0  0  0  0
    0.8866   -2.4721   -1.6259 H   0  0  0  0  0  0  0  0  0  0  0  0
    1.7657   -3.8914   -1.0437 H   0  0  0  0  0  0  0  0  0  0  0  0
    3.5517   -3.6553    0.5525 H   0  0  0  0  0  0  0  0  0  0  0  0
    5.3467   -2.3014    1.4791 H   0  0  0  0  0  0  0  0  0  0  0  0
    5.1972    0.1235    1.2798 H   0  0  0  0  0  0  0  0  0  0  0  0
    1.4899   -0.1856   -0.7521 H   0  0  0  0  0  0  0  0  0  0  0  0
    2.3486    2.1231    0.3236 H   0  0  0  0  0  0  0  0  0  0  0  0
    4.3311    1.5454   -2.5950 H   0  0  0  0  0  0  0  0  0  0  0  0
    5.9225    1.1583   -1.9412 H   0  0  0  0  0  0  0  0  0  0  0  0
    5.5483    2.8527   -2.5415 H   0  0  0  0  0  0  0  0  0  0  0  0
   -2.8486    1.2964   -1.7058 H   0  0  0  0  0  0  0  0  0  0  0  0
   -4.8815    2.0058   -2.9164 H   0  0  0  0  0  0  0  0  0  0  0  0
   -7.2960   -0.3005   -0.2136 H   0  0  0  0  0  0  0  0  0  0  0  0
   -5.2692   -0.9756    0.9524 H   0  0  0  0  0  0  0  0  0  0  0  0
   -0.4462    0.3356    4.1893 H   0  0  0  0  0  0  0  0  0  0  0  0
   -0.5896    1.8808    3.2768 H   0  0  0  0  0  0  0  0  0  0  0  0
  1  2  3  0
  2  3  1  0
  3  4  2  0
  4  5  1  0
  5  6  1  0
  6  7  1  0
  7  8  2  0
  8  9  1  0
  9 10  2  0
 10 11  1  0
 11 12  2  0
 11 13  1  0
 13 14  1  0
 14 15  2  0
 14 16  2  0
 14 17  1  0
  4 18  1  0
 18 19  2  0
 19 20  1  0
 20 21  2  0
 21 22  1  0
 22 23  2  0
 23 24  1  0
 24 25  2  0
 25 26  1  0
 26 27  2  0
 25 28  1  0
 20 29  1  0
 29 30  3  0
 19 31  1  0
 21  3  1  0
 27 22  1  0
 12  7  1  0
  6 32  1  0
  6 33  1  0
  8 34  1  0
  9 35  1  0
 10 36  1  0
 12 37  1  0
 13 38  1  0
 17 39  1  0
 17 40  1  0
 17 41  1  0
 23 42  1  0
 24 43  1  0
 26 44  1  0
 27 45  1  0
 31 46  1  0
 31 47  1  0
M  END
>  <Ligand ID>  (1) 
LIG0004956

>  <Ligand>  (1) 
SCHEMBL3343650

>  <SMILES>  (1) 
N#Cc1c(SCc2cccc(c2)NS(=O)(=O)C)nc(c(c1c1ccc(cc1)F)C#N)N

>  <CID>  (1) 
68605180.0

>  <ChEMBL ID>  (1) 
nan

>  <InChiKey>  (1) 
UEDYCSRCDNDCLO-UHFFFAOYSA-N

>  <InChi>  (1) 
InChI=1S/C21H16FN5O2S2/c1-31(28,29)27-16-4-2-3-13(9-16)12-30-21-18(11-24)19(17(10-23)20(25)26-21)14-5-7-15(22)8-6-14/h2-9,27H,12H2,1H3,(H2,25,26)

>  <IUPAC Name>  (1) 
N-[3-[[6-amino-3,5-dicyano-4-(4-fluorophenyl)pyridin-2-yl]sulfanylmethyl]phenyl]methanesulfonamide

$$$$
