
     RDKit          3D

 77 80  0  0  0  0  0  0  0  0999 V2000
    4.4764    3.2818   -0.4134 C   0  0  0  0  0  0  0  0  0  0  0  0
    4.1654    1.9769    0.1676 N   0  0  0  0  0  0  0  0  0  0  0  0
    2.7863    1.7096    0.4041 C   0  0  0  0  0  0  0  0  0  0  0  0
    1.9888    2.6473    0.0842 O   0  0  0  0  0  0  0  0  0  0  0  0
    2.3780    0.4303    0.9792 C   0  0  1  0  0  0  0  0  0  0  0  0
    0.9678    0.4514    1.3967 N   0  0  0  0  0  0  0  0  0  0  0  0
    0.6196    0.2269    2.7753 C   0  0  0  0  0  0  0  0  0  0  0  0
   -0.5038   -0.7484    2.8608 C   0  0  0  0  0  0  0  0  0  0  0  0
   -1.5723   -0.3906    1.9513 N   0  0  0  0  0  0  0  0  0  0  0  0
   -1.4534    0.5688    0.8815 C   0  0  2  0  0  0  0  0  0  0  0  0
   -0.0263    0.6981    0.4316 C   0  0  0  0  0  0  0  0  0  0  0  0
    0.1658    1.0126   -0.7578 O   0  0  0  0  0  0  0  0  0  0  0  0
   -1.8623    1.9503    1.3404 C   0  0  0  0  0  0  0  0  0  0  0  0
   -1.7414    2.9588    0.2071 C   0  0  0  0  0  0  0  0  0  0  0  0
   -2.5805    2.6081   -0.9152 N   0  0  0  0  0  0  0  0  0  0  0  0
   -3.2871    3.5348   -1.5014 C   0  0  0  0  0  0  0  0  0  0  0  0
   -3.2301    4.8852   -1.0353 N   0  0  0  0  0  0  0  0  0  0  0  0
   -4.1130    3.1944   -2.6053 N   0  0  0  0  0  0  0  0  0  0  0  0
   -2.8155   -1.0789    2.2112 C   0  0  0  0  0  0  0  0  0  0  0  0
   -2.7950   -1.8460    3.2297 O   0  0  0  0  0  0  0  0  0  0  0  0
   -4.0353   -0.9436    1.4020 C   0  0  1  0  0  0  0  0  0  0  0  0
   -3.9237   -1.9940    0.3062 C   0  0  0  0  0  0  0  0  0  0  0  0
   -5.0880   -1.9923   -0.6168 C   0  0  0  0  0  0  0  0  0  0  0  0
   -5.0560   -1.1946   -1.7452 C   0  0  0  0  0  0  0  0  0  0  0  0
   -6.1202   -1.1683   -2.6237 C   0  0  0  0  0  0  0  0  0  0  0  0
   -7.2478   -1.9524   -2.3806 C   0  0  0  0  0  0  0  0  0  0  0  0
   -7.2771   -2.7528   -1.2463 C   0  0  0  0  0  0  0  0  0  0  0  0
   -6.2098   -2.7648   -0.3860 C   0  0  0  0  0  0  0  0  0  0  0  0
   -8.2952   -1.9319   -3.2372 F   0  0  0  0  0  0  0  0  0  0  0  0
   -5.2029   -1.4193    2.1932 N   0  0  0  0  0  0  0  0  0  0  0  0
    2.4990   -0.7611    0.0793 C   0  0  0  0  0  0  0  0  0  0  0  0
    3.8633   -1.0393   -0.4195 C   0  0  0  0  0  0  0  0  0  0  0  0
    4.2226   -0.4951   -1.6536 C   0  0  0  0  0  0  0  0  0  0  0  0
    5.4924   -0.7155   -2.1840 C   0  0  0  0  0  0  0  0  0  0  0  0
    6.3832   -1.4914   -1.4457 C   0  0  0  0  0  0  0  0  0  0  0  0
    6.0158   -2.0248   -0.2251 C   0  0  0  0  0  0  0  0  0  0  0  0
    4.7594   -1.8124    0.3097 C   0  0  0  0  0  0  0  0  0  0  0  0
    6.9037   -2.8004    0.5139 C   0  0  0  0  0  0  0  0  0  0  0  0
    8.1772   -3.0522    0.0362 C   0  0  0  0  0  0  0  0  0  0  0  0
    8.5663   -2.5234   -1.1917 C   0  0  0  0  0  0  0  0  0  0  0  0
    7.6652   -1.7618   -1.8961 C   0  0  0  0  0  0  0  0  0  0  0  0
    3.9353    4.0688    0.1736 H   0  0  0  0  0  0  0  0  0  0  0  0
    5.5499    3.5019   -0.3024 H   0  0  0  0  0  0  0  0  0  0  0  0
    4.1756    3.2892   -1.4655 H   0  0  0  0  0  0  0  0  0  0  0  0
    4.9407    1.3427    0.3784 H   0  0  0  0  0  0  0  0  0  0  0  0
    2.9609    0.2050    1.9126 H   0  0  0  0  0  0  0  0  0  0  0  0
    1.4799   -0.2590    3.3269 H   0  0  0  0  0  0  0  0  0  0  0  0
    0.4203    1.1565    3.3519 H   0  0  0  0  0  0  0  0  0  0  0  0
   -0.1107   -1.7691    2.5851 H   0  0  0  0  0  0  0  0  0  0  0  0
   -0.8462   -0.7416    3.9211 H   0  0  0  0  0  0  0  0  0  0  0  0
   -2.0782    0.2749   -0.0101 H   0  0  0  0  0  0  0  0  0  0  0  0
   -2.9162    1.9632    1.6389 H   0  0  0  0  0  0  0  0  0  0  0  0
   -1.1731    2.2972    2.1153 H   0  0  0  0  0  0  0  0  0  0  0  0
   -0.7269    3.0915   -0.1658 H   0  0  0  0  0  0  0  0  0  0  0  0
   -2.0880    3.9326    0.6215 H   0  0  0  0  0  0  0  0  0  0  0  0
   -2.5380    5.5126   -1.5063 H   0  0  0  0  0  0  0  0  0  0  0  0
   -3.8536    5.2201   -0.2605 H   0  0  0  0  0  0  0  0  0  0  0  0
   -4.4497    3.9429   -3.2464 H   0  0  0  0  0  0  0  0  0  0  0  0
   -4.3912    2.2202   -2.7920 H   0  0  0  0  0  0  0  0  0  0  0  0
   -4.1848    0.0677    1.0482 H   0  0  0  0  0  0  0  0  0  0  0  0
   -3.0237   -1.8270   -0.2641 H   0  0  0  0  0  0  0  0  0  0  0  0
   -3.9547   -2.9748    0.8301 H   0  0  0  0  0  0  0  0  0  0  0  0
   -4.1803   -0.5910   -1.9262 H   0  0  0  0  0  0  0  0  0  0  0  0
   -6.1349   -0.5557   -3.5212 H   0  0  0  0  0  0  0  0  0  0  0  0
   -8.1670   -3.3711   -1.0554 H   0  0  0  0  0  0  0  0  0  0  0  0
   -6.2139   -3.3888    0.5133 H   0  0  0  0  0  0  0  0  0  0  0  0
   -4.8964   -1.6487    3.1738 H   0  0  0  0  0  0  0  0  0  0  0  0
   -5.9640   -0.7165    2.1629 H   0  0  0  0  0  0  0  0  0  0  0  0
    1.7720   -0.6436   -0.7763 H   0  0  0  0  0  0  0  0  0  0  0  0
    2.2108   -1.6946    0.6514 H   0  0  0  0  0  0  0  0  0  0  0  0
    3.5416    0.1097   -2.2391 H   0  0  0  0  0  0  0  0  0  0  0  0
    5.7903   -0.3023   -3.1391 H   0  0  0  0  0  0  0  0  0  0  0  0
    4.4764   -2.2325    1.2669 H   0  0  0  0  0  0  0  0  0  0  0  0
    6.5849   -3.2048    1.4680 H   0  0  0  0  0  0  0  0  0  0  0  0
    8.8280   -3.6483    0.6275 H   0  0  0  0  0  0  0  0  0  0  0  0
    9.5663   -2.7459   -1.5230 H   0  0  0  0  0  0  0  0  0  0  0  0
    7.9994   -1.3612   -2.8553 H   0  0  0  0  0  0  0  0  0  0  0  0
  1  2  1  0
  2  3  1  0
  3  4  2  0
  3  5  1  0
  5  6  1  0
  6  7  1  0
  7  8  1  0
  8  9  1  0
  9 10  1  0
 10 11  1  0
 11 12  2  0
 10 13  1  0
 13 14  1  0
 14 15  1  0
 15 16  2  3
 16 17  1  0
 16 18  1  0
  9 19  1  0
 19 20  2  0
 19 21  1  0
 21 22  1  0
 22 23  1  0
 23 24  2  0
 24 25  1  0
 25 26  2  0
 26 27  1  0
 27 28  2  0
 26 29  1  0
 21 30  1  0
  5 31  1  0
 31 32  1  0
 32 33  2  0
 33 34  1  0
 34 35  2  0
 35 36  1  0
 36 37  2  0
 36 38  1  0
 38 39  2  0
 39 40  1  0
 40 41  2  0
 11  6  1  0
 28 23  1  0
 37 32  1  0
 41 35  1  0
  1 42  1  0
  1 43  1  0
  1 44  1  0
  2 45  1  0
  5 46  1  1
  7 47  1  0
  7 48  1  0
  8 49  1  0
  8 50  1  0
 10 51  1  6
 13 52  1  0
 13 53  1  0
 14 54  1  0
 14 55  1  0
 17 56  1  0
 17 57  1  0
 18 58  1  0
 18 59  1  0
 21 60  1  6
 22 61  1  0
 22 62  1  0
 24 63  1  0
 25 64  1  0
 27 65  1  0
 28 66  1  0
 30 67  1  0
 30 68  1  0
 31 69  1  0
 31 70  1  0
 33 71  1  0
 34 72  1  0
 37 73  1  0
 38 74  1  0
 39 75  1  0
 40 76  1  0
 41 77  1  0
M  END
>  <Ligand ID>  (1) 
LIG0004647

>  <Ligand>  (1) 
CHEMBL213566

>  <SMILES>  (1) 
CNC(=O)[C@@H](N1CCN([C@H](C1=O)CCN=C(N)N)C(=O)[C@@H](Cc1ccc(cc1)F)N)Cc1ccc2c(c1)cccc2

>  <CID>  (1) 
44416135.0

>  <ChEMBL ID>  (1) 
nan

>  <InChiKey>  (1) 
XAHOMYQYMFNUJP-ZNZIZOMTSA-N

>  <InChi>  (1) 
InChI=1S/C30H36FN7O3/c1-35-27(39)26(18-20-6-9-21-4-2-3-5-22(21)16-20)38-15-14-37(25(29(38)41)12-13-36-30(33)34)28(40)24(32)17-19-7-10-23(31)11-8-19/h2-11,16,24-26H,12-15,17-18,32H2,1H3,(H,35,39)(H4,33,34,36)/t24-,25+,26+/m1/s1

>  <IUPAC Name>  (1) 
(2S)-2-[(3S)-4-[(2R)-2-amino-3-(4-fluorophenyl)propanoyl]-3-[2-(diaminomethylideneamino)ethyl]-2-oxopiperazin-1-yl]-N-methyl-3-naphthalen-2-ylpropanamide

$$$$
