
     RDKit          3D

 57 64  0  0  0  0  0  0  0  0999 V2000
   -2.3432    5.3302    0.1126 O   0  0  0  0  0  0  0  0  0  0  0  0
   -1.2882    4.5028    0.4396 C   0  0  0  0  0  0  0  0  0  0  0  0
   -0.1540    4.9697    1.1375 C   0  0  0  0  0  0  0  0  0  0  0  0
    0.8980    4.0801    1.4492 C   0  0  0  0  0  0  0  0  0  0  0  0
    0.8152    2.7439    1.0648 C   0  0  0  0  0  0  0  0  0  0  0  0
   -0.3008    2.3975    0.4002 C   0  0  0  0  0  0  0  0  0  0  0  0
   -1.3700    3.1835    0.0613 C   0  0  0  0  0  0  0  0  0  0  0  0
   -2.2553    2.3049   -0.5968 O   0  0  0  0  0  0  0  0  0  0  0  0
   -1.9917    1.1023    0.0335 C   0  0  0  0  0  0  0  0  0  0  0  0
   -0.5047    1.0854   -0.1982 C   0  0  0  0  0  0  0  0  0  0  0  0
   -0.0717    1.2319   -1.6082 C   0  0  0  0  0  0  0  0  0  0  0  0
    1.4004    1.0606   -1.7067 C   0  0  0  0  0  0  0  0  0  0  0  0
    2.1161    0.5125   -0.6683 N   0  0  0  0  0  0  0  0  0  0  0  0
    1.5808    0.3901    0.6228 C   0  0  1  0  0  0  0  0  0  0  0  0
    1.7877    1.7045    1.4047 C   0  0  0  0  0  0  0  0  0  0  0  0
    0.1792   -0.0431    0.3844 C   0  0  0  0  0  0  0  0  0  0  0  0
    0.3540   -1.0440   -0.6470 O   0  0  0  0  0  0  0  0  0  0  0  0
   -0.6469   -0.7681    1.3449 C   0  0  0  0  0  0  0  0  0  0  0  0
   -1.8298   -1.2429    0.5055 C   0  0  0  0  0  0  0  0  0  0  0  0
   -2.5088   -0.1802   -0.1859 C   0  0  0  0  0  0  0  0  0  0  0  0
   -3.4978   -0.7535   -0.8741 N   0  0  0  0  0  0  0  0  0  0  0  0
   -3.4830   -2.0790   -0.6626 C   0  0  0  0  0  0  0  0  0  0  0  0
   -2.4339   -2.3976    0.2072 C   0  0  0  0  0  0  0  0  0  0  0  0
   -2.1771   -3.6925    0.6031 C   0  0  0  0  0  0  0  0  0  0  0  0
   -2.9992   -4.6855    0.1082 C   0  0  0  0  0  0  0  0  0  0  0  0
   -4.0367   -4.3877   -0.7493 C   0  0  0  0  0  0  0  0  0  0  0  0
   -4.3080   -3.0980   -1.1557 C   0  0  0  0  0  0  0  0  0  0  0  0
    3.2148   -0.2533   -1.0257 C   0  0  0  0  0  0  0  0  0  0  0  0
    4.0170   -0.9890   -0.0330 C   0  0  0  0  0  0  0  0  0  0  0  0
    3.5820   -2.0634    0.8507 C   0  0  0  0  0  0  0  0  0  0  0  0
    4.3916   -2.4105   -0.3937 C   0  0  0  0  0  0  0  0  0  0  0  0
   -2.8124    5.7704    0.9171 H   0  0  0  0  0  0  0  0  0  0  0  0
   -0.1004    6.0092    1.4278 H   0  0  0  0  0  0  0  0  0  0  0  0
    1.7747    4.4094    1.9829 H   0  0  0  0  0  0  0  0  0  0  0  0
   -2.1104    1.3126    1.1431 H   0  0  0  0  0  0  0  0  0  0  0  0
   -0.6682    0.4977   -2.2269 H   0  0  0  0  0  0  0  0  0  0  0  0
   -0.4475    2.2263   -1.9869 H   0  0  0  0  0  0  0  0  0  0  0  0
    1.8299    2.0812   -1.9316 H   0  0  0  0  0  0  0  0  0  0  0  0
    1.5658    0.5083   -2.6802 H   0  0  0  0  0  0  0  0  0  0  0  0
    2.0268   -0.3567    1.2927 H   0  0  0  0  0  0  0  0  0  0  0  0
    1.8603    1.4990    2.4816 H   0  0  0  0  0  0  0  0  0  0  0  0
    2.7971    2.0768    1.0982 H   0  0  0  0  0  0  0  0  0  0  0  0
   -0.4841   -1.2042   -1.1214 H   0  0  0  0  0  0  0  0  0  0  0  0
   -0.1367   -1.6908    1.6899 H   0  0  0  0  0  0  0  0  0  0  0  0
   -0.9836   -0.2380    2.2421 H   0  0  0  0  0  0  0  0  0  0  0  0
   -4.1769   -0.2324   -1.4853 H   0  0  0  0  0  0  0  0  0  0  0  0
   -1.3522   -3.8777    1.2773 H   0  0  0  0  0  0  0  0  0  0  0  0
   -2.7871   -5.6974    0.4259 H   0  0  0  0  0  0  0  0  0  0  0  0
   -4.6455   -5.2364   -1.0987 H   0  0  0  0  0  0  0  0  0  0  0  0
   -5.1290   -2.8831   -1.8316 H   0  0  0  0  0  0  0  0  0  0  0  0
    3.9698    0.4038   -1.6087 H   0  0  0  0  0  0  0  0  0  0  0  0
    2.9473   -1.0012   -1.8576 H   0  0  0  0  0  0  0  0  0  0  0  0
    4.9190   -0.4206    0.3285 H   0  0  0  0  0  0  0  0  0  0  0  0
    2.6159   -2.5824    0.8436 H   0  0  0  0  0  0  0  0  0  0  0  0
    4.0864   -2.1694    1.8473 H   0  0  0  0  0  0  0  0  0  0  0  0
    5.4018   -2.8042   -0.1600 H   0  0  0  0  0  0  0  0  0  0  0  0
    3.9032   -2.9118   -1.2339 H   0  0  0  0  0  0  0  0  0  0  0  0
  1  2  1  0
  2  3  2  0
  3  4  1  0
  4  5  2  0
  5  6  1  0
  6  7  2  0
  7  8  1  0
  8  9  1  0
  9 10  1  0
 10 11  1  0
 11 12  1  0
 12 13  1  0
 13 14  1  0
 14 15  1  0
 14 16  1  0
 16 17  1  0
 16 18  1  0
 18 19  1  0
 19 20  2  0
 20 21  1  0
 21 22  1  0
 22 23  2  0
 23 24  1  0
 24 25  2  0
 25 26  1  0
 26 27  2  0
 13 28  1  0
 28 29  1  0
 29 30  1  0
 30 31  1  0
  7  2  1  0
 20  9  1  0
 27 22  1  0
 31 29  1  0
 15  5  1  0
 23 19  1  0
 10  6  1  0
 16 10  1  0
  1 32  1  0
  3 33  1  0
  4 34  1  0
  9 35  1  0
 11 36  1  0
 11 37  1  0
 12 38  1  0
 12 39  1  0
 14 40  1  1
 15 41  1  0
 15 42  1  0
 17 43  1  0
 18 44  1  0
 18 45  1  0
 21 46  1  0
 24 47  1  0
 25 48  1  0
 26 49  1  0
 27 50  1  0
 28 51  1  0
 28 52  1  0
 29 53  1  0
 30 54  1  0
 30 55  1  0
 31 56  1  0
 31 57  1  0
M  END
>  <Ligand ID>  (1) 
LIG0001336

>  <Ligand>  (1) 
AC1MHY5M

>  <SMILES>  (1) 
Oc1ccc2c3c1OC1C43CCN([C@@H](C2)C4(O)Cc2c1[nH]c1c2cccc1)CC1CC1

>  <CID>  (1) 
3034754.0

>  <ChEMBL ID>  (1) 
nan

>  <InChiKey>  (1) 
WIYUZYBFCWCCQJ-XEWUMVRVSA-N

>  <InChi>  (1) 
InChI=1S/C26H26N2O3/c29-19-8-7-15-11-20-26(30)12-17-16-3-1-2-4-18(16)27-22(17)24-25(26,21(15)23(19)31-24)9-10-28(20)13-14-5-6-14/h1-4,7-8,14,20,24,27,29-30H,5-6,9-13H2/t20-,24?,25?,26?/m0/s1

>  <IUPAC Name>  (1) 
(21S)-22-(cyclopropylmethyl)-14-oxa-11,22-diazaheptacyclo[13.9.1.01,13.02,21.04,12.05,10.019,25]pentacosa-4(12),5,7,9,15,17,19(25)-heptaene-2,16-diol

$$$$
