
     RDKit          3D

 30 31  0  0  0  0  0  0  0  0999 V2000
   -2.7188    2.0446    0.5623 O   0  0  0  0  0  0  0  0  0  0  0  0
   -1.9200    1.1527    1.2539 C   0  0  0  0  0  0  0  0  0  0  0  0
   -1.0940    1.6070    2.1093 O   0  0  0  0  0  0  0  0  0  0  0  0
   -2.0049   -0.3483    1.0180 C   0  0  2  0  0  0  0  0  0  0  0  0
   -0.6643   -0.8649    0.6942 C   0  0  2  0  0  0  0  0  0  0  0  0
   -0.0608   -0.2472   -0.5652 C   0  0  2  0  0  0  0  0  0  0  0  0
   -0.2184   -1.6957   -0.4668 C   0  0  2  0  0  0  0  0  0  0  0  0
   -1.1824   -2.5101   -1.1801 C   0  0  0  0  0  0  0  0  0  0  0  0
   -2.2860   -2.1434   -1.6635 O   0  0  0  0  0  0  0  0  0  0  0  0
   -0.9282   -3.8984   -1.4027 O   0  0  0  0  0  0  0  0  0  0  0  0
    1.2195    0.4252   -0.3525 C   0  0  0  0  0  0  0  0  0  0  0  0
    2.1779   -0.1301    0.4770 C   0  0  0  0  0  0  0  0  0  0  0  0
    3.4030    0.4737    0.7056 C   0  0  0  0  0  0  0  0  0  0  0  0
    3.7148    1.6754    0.1003 C   0  0  0  0  0  0  0  0  0  0  0  0
    2.7658    2.2557   -0.7404 C   0  0  0  0  0  0  0  0  0  0  0  0
    1.5499    1.6381   -0.9556 C   0  0  0  0  0  0  0  0  0  0  0  0
   -3.0154   -0.4986    0.0128 N   0  0  0  0  0  0  0  0  0  0  0  0
   -2.5012    3.0378    0.4825 H   0  0  0  0  0  0  0  0  0  0  0  0
   -2.3424   -0.7702    2.0049 H   0  0  0  0  0  0  0  0  0  0  0  0
    0.0448   -0.9223    1.5921 H   0  0  0  0  0  0  0  0  0  0  0  0
   -0.7433    0.3019   -1.2529 H   0  0  0  0  0  0  0  0  0  0  0  0
    0.7430   -2.3191   -0.2629 H   0  0  0  0  0  0  0  0  0  0  0  0
   -1.6185   -4.5033   -1.8289 H   0  0  0  0  0  0  0  0  0  0  0  0
    2.0234   -1.0776    0.9998 H   0  0  0  0  0  0  0  0  0  0  0  0
    4.1370    0.0079    1.3666 H   0  0  0  0  0  0  0  0  0  0  0  0
    4.6734    2.1451    0.2810 H   0  0  0  0  0  0  0  0  0  0  0  0
    2.9891    3.2129   -1.2350 H   0  0  0  0  0  0  0  0  0  0  0  0
    0.8227    2.0927   -1.6061 H   0  0  0  0  0  0  0  0  0  0  0  0
   -3.9616   -0.4605    0.4893 H   0  0  0  0  0  0  0  0  0  0  0  0
   -3.0041    0.3194   -0.6371 H   0  0  0  0  0  0  0  0  0  0  0  0
  1  2  1  0
  2  3  2  0
  2  4  1  0
  4  5  1  0
  5  6  1  0
  6  7  1  0
  7  8  1  0
  8  9  2  0
  8 10  1  0
  6 11  1  0
 11 12  2  0
 12 13  1  0
 13 14  2  0
 14 15  1  0
 15 16  2  0
  4 17  1  0
  7  5  1  0
 16 11  1  0
  1 18  1  0
  4 19  1  1
  5 20  1  1
  6 21  1  6
  7 22  1  1
 10 23  1  0
 12 24  1  0
 13 25  1  0
 14 26  1  0
 15 27  1  0
 16 28  1  0
 17 29  1  0
 17 30  1  0
M  END
>  <Ligand ID>  (1) 
LIG0002585

>  <Ligand>  (1) 
CHEMBL2114109

>  <SMILES>  (1) 
OC(=O)[C@H]([C@@H]1[C@H]([C@@H]1C(=O)O)c1ccccc1)N

>  <CID>  (1) 
10198574.0

>  <ChEMBL ID>  (1) 
nan

>  <InChiKey>  (1) 
IFLWVSHRWAIVQF-IMSYWVGJSA-N

>  <InChi>  (1) 
InChI=1S/C12H13NO4/c13-10(12(16)17)8-7(9(8)11(14)15)6-4-2-1-3-5-6/h1-5,7-10H,13H2,(H,14,15)(H,16,17)/t7-,8-,9+,10+/m1/s1

>  <IUPAC Name>  (1) 
(1S,2R,3R)-2-[(S)-amino(carboxy)methyl]-3-phenylcyclopropane-1-carboxylic acid

$$$$
