
     RDKit          3D

 40 44  0  0  0  0  0  0  0  0999 V2000
   -4.4024    3.8399   -2.2530 Cl  0  0  0  0  0  0  0  0  0  0  0  0
   -3.9228    2.5859   -1.1312 C   0  0  0  0  0  0  0  0  0  0  0  0
   -4.8218    2.0565   -0.2337 C   0  0  0  0  0  0  0  0  0  0  0  0
   -4.3890    1.0834    0.6136 C   0  0  0  0  0  0  0  0  0  0  0  0
   -3.0960    0.6045    0.6150 C   0  0  0  0  0  0  0  0  0  0  0  0
   -2.2294    1.1600   -0.2971 C   0  0  0  0  0  0  0  0  0  0  0  0
   -2.6153    2.1489   -1.1790 C   0  0  0  0  0  0  0  0  0  0  0  0
   -2.6637   -0.4638    1.5617 C   0  0  0  0  0  0  0  0  0  0  0  0
   -1.4678   -0.8237    1.4765 N   0  0  0  0  0  0  0  0  0  0  0  0
   -0.7486   -1.7582    2.1736 N   0  0  0  0  0  0  0  0  0  0  0  0
   -1.3754   -2.4508    3.1370 C   0  0  0  0  0  0  0  0  0  0  0  0
   -3.0860   -2.2136    3.5528 S   0  0  0  0  0  0  0  0  0  0  0  0
   -3.7266   -0.9429    2.4670 C   0  0  0  0  0  0  0  0  0  0  0  0
   -0.4808   -3.2884    3.6639 N   0  0  0  0  0  0  0  0  0  0  0  0
    0.6653   -3.1381    3.0647 N   0  0  0  0  0  0  0  0  0  0  0  0
    0.5168   -2.1719    2.1158 C   0  0  0  0  0  0  0  0  0  0  0  0
    1.6221   -1.7649    1.2650 C   0  0  0  0  0  0  0  0  0  0  0  0
    2.8701   -2.2863    1.3260 N   0  0  0  0  0  0  0  0  0  0  0  0
    3.6520   -1.7089    0.4227 N   0  0  0  0  0  0  0  0  0  0  0  0
    2.9579   -0.7865   -0.2698 C   0  0  0  0  0  0  0  0  0  0  0  0
    1.6838   -0.8248    0.2621 C   0  0  0  0  0  0  0  0  0  0  0  0
    3.4016    0.0871   -1.3511 C   0  0  0  0  0  0  0  0  0  0  0  0
    2.5706    0.9954   -1.9762 C   0  0  0  0  0  0  0  0  0  0  0  0
    3.0647    1.7864   -2.9908 C   0  0  0  0  0  0  0  0  0  0  0  0
    4.3854    1.7102   -3.4216 C   0  0  0  0  0  0  0  0  0  0  0  0
    5.2028    0.8004   -2.7898 C   0  0  0  0  0  0  0  0  0  0  0  0
    4.7124    0.0130   -1.7803 C   0  0  0  0  0  0  0  0  0  0  0  0
   -5.8324    2.4444   -0.2490 H   0  0  0  0  0  0  0  0  0  0  0  0
   -5.1065    0.6739    1.3162 H   0  0  0  0  0  0  0  0  0  0  0  0
   -1.2056    0.8361   -0.3537 H   0  0  0  0  0  0  0  0  0  0  0  0
   -1.9264    2.5785   -1.8916 H   0  0  0  0  0  0  0  0  0  0  0  0
   -4.0626   -0.0992    3.1336 H   0  0  0  0  0  0  0  0  0  0  0  0
   -4.6228   -1.2814    1.8927 H   0  0  0  0  0  0  0  0  0  0  0  0
    3.2428   -3.0339    1.9607 H   0  0  0  0  0  0  0  0  0  0  0  0
    0.8889   -0.2116   -0.0695 H   0  0  0  0  0  0  0  0  0  0  0  0
    1.5310    1.0684   -1.6505 H   0  0  0  0  0  0  0  0  0  0  0  0
    2.4328    2.5156   -3.5062 H   0  0  0  0  0  0  0  0  0  0  0  0
    4.7708    2.3269   -4.2128 H   0  0  0  0  0  0  0  0  0  0  0  0
    6.2395    0.7250   -3.1117 H   0  0  0  0  0  0  0  0  0  0  0  0
    5.3706   -0.6905   -1.3019 H   0  0  0  0  0  0  0  0  0  0  0  0
  1  2  1  0
  2  3  2  0
  3  4  1  0
  4  5  2  0
  5  6  1  0
  6  7  2  0
  5  8  1  0
  8  9  2  0
  9 10  1  0
 10 11  1  0
 11 12  1  0
 12 13  1  0
 11 14  2  0
 14 15  1  0
 15 16  2  0
 16 17  1  0
 17 18  1  0
 18 19  1  0
 19 20  2  0
 20 21  1  0
 20 22  1  0
 22 23  2  0
 23 24  1  0
 24 25  2  0
 25 26  1  0
 26 27  2  0
  7  2  1  0
 13  8  1  0
 21 17  2  0
 27 22  1  0
 16 10  1  0
  3 28  1  0
  4 29  1  0
  6 30  1  0
  7 31  1  0
 13 32  1  0
 13 33  1  0
 18 34  1  0
 21 35  1  0
 23 36  1  0
 24 37  1  0
 25 38  1  0
 26 39  1  0
 27 40  1  0
M  END
>  <Ligand ID>  (1) 
LIG0002850

>  <Ligand>  (1) 
MLS000558549

>  <SMILES>  (1) 
Clc1ccc(cc1)C1=Nn2c(SC1)nnc2c1[nH]nc(c1)c1ccccc1

>  <CID>  (1) 
1400670.0

>  <ChEMBL ID>  (1) 
nan

>  <InChiKey>  (1) 
JVYMSPPKDODTNF-UHFFFAOYSA-N

>  <InChi>  (1) 
InChI=1S/C19H13ClN6S/c20-14-8-6-13(7-9-14)17-11-27-19-24-23-18(26(19)25-17)16-10-15(21-22-16)12-4-2-1-3-5-12/h1-10H,11H2,(H,21,22)

>  <IUPAC Name>  (1) 
6-(4-chlorophenyl)-3-(3-phenyl-1H-pyrazol-5-yl)-7H-[1,2,4]triazolo[3,4-b][1,3,4]thiadiazine

$$$$
