
     RDKit          3D

 45 49  0  0  0  0  0  0  0  0999 V2000
   -3.7973    2.6016   -0.3118 N   0  0  0  0  0  0  0  0  0  0  0  0
   -2.8759    2.3641    0.7368 C   0  0  0  0  0  0  0  0  0  0  0  0
   -1.7770    1.3768    0.4603 C   0  0  0  0  0  0  0  0  0  0  0  0
   -2.1776    0.0820   -0.0723 C   0  0  0  0  0  0  0  0  0  0  0  0
   -3.4173   -0.2407   -0.6114 C   0  0  0  0  0  0  0  0  0  0  0  0
   -4.6564    0.4902   -0.8435 C   0  0  0  0  0  0  0  0  0  0  0  0
   -4.9222    1.6913   -0.0342 C   0  0  0  0  0  0  0  0  0  0  0  0
   -3.5818   -1.5264   -1.0513 N   0  0  0  0  0  0  0  0  0  0  0  0
   -2.5935   -2.4271   -0.9649 C   0  0  0  0  0  0  0  0  0  0  0  0
   -1.4267   -2.0805   -0.4451 N   0  0  0  0  0  0  0  0  0  0  0  0
   -1.1468   -0.8259    0.0268 C   0  0  0  0  0  0  0  0  0  0  0  0
    0.1307   -0.5295    0.5640 N   0  0  0  0  0  0  0  0  0  0  0  0
    0.9259    0.5048    1.1355 C   0  0  0  0  0  0  0  0  0  0  0  0
    2.2278   -0.2572    0.8601 C   0  0  0  0  0  0  0  0  0  0  0  0
    1.3069   -1.4078    0.7423 C   0  0  0  0  0  0  0  0  0  0  0  0
    2.8297    0.1093   -0.3672 O   0  0  0  0  0  0  0  0  0  0  0  0
    4.1928    0.3903   -0.3480 C   0  0  0  0  0  0  0  0  0  0  0  0
    4.8630    0.7560   -1.4975 C   0  0  0  0  0  0  0  0  0  0  0  0
    6.2229    1.0426   -1.5102 C   0  0  0  0  0  0  0  0  0  0  0  0
    6.9418    0.9643   -0.3459 C   0  0  0  0  0  0  0  0  0  0  0  0
    6.2485    0.5928    0.8088 C   0  0  0  0  0  0  0  0  0  0  0  0
    4.9334    0.3237    0.7801 N   0  0  0  0  0  0  0  0  0  0  0  0
   -0.6750   -3.1940   -0.5063 N   0  0  0  0  0  0  0  0  0  0  0  0
   -1.3239   -4.2102   -1.0394 C   0  0  0  0  0  0  0  0  0  0  0  0
   -2.5837   -3.7565   -1.3553 C   0  0  0  0  0  0  0  0  0  0  0  0
   -3.4294    2.4764   -1.2680 H   0  0  0  0  0  0  0  0  0  0  0  0
   -3.4137    2.1362    1.6804 H   0  0  0  0  0  0  0  0  0  0  0  0
   -2.3501    3.3456    0.9246 H   0  0  0  0  0  0  0  0  0  0  0  0
   -1.1167    1.8545   -0.2598 H   0  0  0  0  0  0  0  0  0  0  0  0
   -1.3594    1.1945    1.4730 H   0  0  0  0  0  0  0  0  0  0  0  0
   -4.6451    0.7957   -1.9291 H   0  0  0  0  0  0  0  0  0  0  0  0
   -5.5128   -0.2225   -0.6876 H   0  0  0  0  0  0  0  0  0  0  0  0
   -5.8787    2.1163   -0.3417 H   0  0  0  0  0  0  0  0  0  0  0  0
   -5.0010    1.4690    1.0468 H   0  0  0  0  0  0  0  0  0  0  0  0
    1.0276    1.4683    0.6476 H   0  0  0  0  0  0  0  0  0  0  0  0
    0.8119    0.5800    2.2513 H   0  0  0  0  0  0  0  0  0  0  0  0
    2.9245   -0.2828    1.7202 H   0  0  0  0  0  0  0  0  0  0  0  0
    1.1614   -2.0313    1.6422 H   0  0  0  0  0  0  0  0  0  0  0  0
    1.4364   -2.0349   -0.1559 H   0  0  0  0  0  0  0  0  0  0  0  0
    4.2855    0.8185   -2.4306 H   0  0  0  0  0  0  0  0  0  0  0  0
    6.7314    1.3242   -2.4033 H   0  0  0  0  0  0  0  0  0  0  0  0
    7.9950    1.1724   -0.2849 H   0  0  0  0  0  0  0  0  0  0  0  0
    6.7561    0.5100    1.7713 H   0  0  0  0  0  0  0  0  0  0  0  0
   -0.9033   -5.2034   -1.1832 H   0  0  0  0  0  0  0  0  0  0  0  0
   -3.3884   -4.3208   -1.8101 H   0  0  0  0  0  0  0  0  0  0  0  0
  1  2  1  0
  2  3  1  0
  3  4  1  0
  4  5  1  0
  5  6  1  0
  6  7  1  0
  5  8  2  0
  8  9  1  0
  9 10  1  0
 10 11  1  0
 11 12  1  0
 12 13  1  0
 13 14  1  0
 14 15  1  0
 14 16  1  0
 16 17  1  0
 17 18  2  0
 18 19  1  0
 19 20  2  0
 20 21  1  0
 21 22  2  0
 10 23  1  0
 23 24  2  0
 24 25  1  0
  7  1  1  0
 25  9  2  0
 11  4  2  0
 15 12  1  0
 22 17  1  0
  1 26  1  0
  2 27  1  0
  2 28  1  0
  3 29  1  0
  3 30  1  0
  6 31  1  0
  6 32  1  0
  7 33  1  0
  7 34  1  0
 13 35  1  0
 13 36  1  0
 14 37  1  0
 15 38  1  0
 15 39  1  0
 18 40  1  0
 19 41  1  0
 20 42  1  0
 21 43  1  0
 24 44  1  0
 25 45  1  0
M  END
>  <Ligand ID>  (1) 
LIG0003242

>  <Ligand>  (1) 
CHEMBL1643855

>  <SMILES>  (1) 
N1CCc2c(CC1)nc1n(c2N2CC(C2)Oc2ccccn2)ncc1

>  <CID>  (1) 
53321865.0

>  <ChEMBL ID>  (1) 
nan

>  <InChiKey>  (1) 
ZKNSCPDFVLIXAH-UHFFFAOYSA-N

>  <InChi>  (1) 
InChI=1S/C18H20N6O/c1-2-7-20-17(3-1)25-13-11-23(12-13)18-14-4-8-19-9-5-15(14)22-16-6-10-21-24(16)18/h1-3,6-7,10,13,19H,4-5,8-9,11-12H2

>  <IUPAC Name>  (1) 
8-(3-pyridin-2-yloxyazetidin-1-yl)-2,6,7,12-tetrazatricyclo[7.5.0.03,7]tetradeca-1,3,5,8-tetraene

$$$$
