
     RDKit          3D

158163  0  0  0  0  0  0  0  0999 V2000
   -9.9038   -3.1917   -3.8629 C   0  0  0  0  0  0  0  0  0  0  0  0
   -9.2795   -1.8274   -3.6821 C   0  0  0  0  0  0  0  0  0  0  0  0
   -8.8354   -1.6525   -2.2319 C   0  0  0  0  0  0  0  0  0  0  0  0
   -7.8223   -2.6997   -1.8597 C   0  0  0  0  0  0  0  0  0  0  0  0
   -7.3530   -2.6010   -0.4328 C   0  0  2  0  0  0  0  0  0  0  0  0
   -6.7052   -1.3311   -0.0796 C   0  0  0  0  0  0  0  0  0  0  0  0
   -7.3924   -0.2821   -0.1600 O   0  0  0  0  0  0  0  0  0  0  0  0
   -5.3386   -1.2290    0.3475 N   0  0  0  0  0  0  0  0  0  0  0  0
   -4.8618    0.1427    0.6653 C   0  0  1  0  0  0  0  0  0  0  0  0
   -4.3592    0.1671    2.0515 C   0  0  0  0  0  0  0  0  0  0  0  0
   -3.1032   -0.5448    2.3358 C   0  0  0  0  0  0  0  0  0  0  0  0
   -2.2458   -0.8765    1.5023 O   0  0  0  0  0  0  0  0  0  0  0  0
   -2.7445   -0.9404    3.6933 N   0  0  0  0  0  0  0  0  0  0  0  0
   -1.5047   -1.6087    3.9973 C   0  0  0  0  0  0  0  0  0  0  0  0
   -1.2279   -2.8721    3.2755 C   0  0  0  0  0  0  0  0  0  0  0  0
    0.1086   -3.5050    3.7311 C   0  0  0  0  0  0  0  0  0  0  0  0
    1.1818   -2.4848    3.7607 C   0  0  0  0  0  0  0  0  0  0  0  0
    2.5973   -3.0262    3.9608 C   0  0  2  0  0  0  0  0  0  0  0  0
    2.9718   -3.7530    2.7224 N   0  0  0  0  0  0  0  0  0  0  0  0
    3.6993   -2.9946    1.7929 C   0  0  0  0  0  0  0  0  0  0  0  0
    4.0318   -1.8459    2.1120 O   0  0  0  0  0  0  0  0  0  0  0  0
    4.1288   -3.4324    0.4071 C   0  0  1  0  0  0  0  0  0  0  0  0
    4.6713   -2.2602   -0.2591 N   0  0  0  0  0  0  0  0  0  0  0  0
    3.7056   -1.2474   -0.5748 C   0  0  0  0  0  0  0  0  0  0  0  0
    2.5454   -1.4749   -0.2254 O   0  0  0  0  0  0  0  0  0  0  0  0
    3.9935    0.0317   -1.2681 C   0  0  1  0  0  0  0  0  0  0  0  0
    3.0711    1.0609   -0.8273 N   0  0  0  0  0  0  0  0  0  0  0  0
    2.1371    1.7205   -1.7190 C   0  0  0  0  0  0  0  0  0  0  0  0
    2.1735    1.2203   -2.8360 O   0  0  0  0  0  0  0  0  0  0  0  0
    1.2689    2.8400   -1.2679 C   0  0  2  0  0  0  0  0  0  0  0  0
    0.0267    2.6596   -2.0357 N   0  0  0  0  0  0  0  0  0  0  0  0
   -1.2133    2.3674   -1.3457 C   0  0  0  0  0  0  0  0  0  0  0  0
   -1.0200    2.3884   -0.1073 O   0  0  0  0  0  0  0  0  0  0  0  0
   -2.5084    2.0832   -1.8499 C   0  0  1  0  0  0  0  0  0  0  0  0
   -3.3516    1.8178   -0.6328 N   0  0  0  0  0  0  0  0  0  0  0  0
   -3.9572    0.5695   -0.4186 C   0  0  0  0  0  0  0  0  0  0  0  0
   -3.6699   -0.2697   -1.2880 O   0  0  0  0  0  0  0  0  0  0  0  0
   -3.5217    2.8172    0.3623 C   0  0  0  0  0  0  0  0  0  0  0  0
   -3.2465    2.9190   -2.8063 C   0  0  0  0  0  0  0  0  0  0  0  0
   -3.5954    4.2926   -2.5219 C   0  0  0  0  0  0  0  0  0  0  0  0
   -4.7633    4.6651   -1.9054 N   0  0  0  0  0  0  0  0  0  0  0  0
   -4.8144    6.0025   -1.8004 C   0  0  0  0  0  0  0  0  0  0  0  0
   -3.6871    6.4871   -2.3451 N   0  0  0  0  0  0  0  0  0  0  0  0
   -2.9353    5.4667   -2.7894 C   0  0  0  0  0  0  0  0  0  0  0  0
   -0.0739    2.7647   -3.4413 C   0  0  0  0  0  0  0  0  0  0  0  0
    1.9581    4.1362   -1.4733 C   0  0  0  0  0  0  0  0  0  0  0  0
    1.2034    5.3422   -1.0583 C   0  0  0  0  0  0  0  0  0  0  0  0
    0.4304    6.0867   -1.9237 C   0  0  0  0  0  0  0  0  0  0  0  0
   -0.2943    7.1950   -1.5407 C   0  0  0  0  0  0  0  0  0  0  0  0
   -0.2441    7.5826   -0.2128 C   0  0  0  0  0  0  0  0  0  0  0  0
    0.5163    6.8726    0.7008 C   0  0  0  0  0  0  0  0  0  0  0  0
    1.2207    5.7734    0.2635 C   0  0  0  0  0  0  0  0  0  0  0  0
    0.5263    7.3038    2.0200 C   0  0  0  0  0  0  0  0  0  0  0  0
   -0.2269    8.4242    2.3548 C   0  0  0  0  0  0  0  0  0  0  0  0
   -0.9808    9.1262    1.4446 C   0  0  0  0  0  0  0  0  0  0  0  0
   -0.9785    8.6848    0.1423 C   0  0  0  0  0  0  0  0  0  0  0  0
    2.9505    1.4312    0.5411 C   0  0  0  0  0  0  0  0  0  0  0  0
    5.4039    0.4943   -1.1382 C   0  0  0  0  0  0  0  0  0  0  0  0
    5.9119    0.7560    0.2375 C   0  0  0  0  0  0  0  0  0  0  0  0
    7.3748    1.1694    0.1907 C   0  0  0  0  0  0  0  0  0  0  0  0
    7.9310    1.4464    1.4703 N   0  0  0  0  0  0  0  0  0  0  0  0
    7.4742    1.2665    2.6276 C   0  0  0  0  0  0  0  0  0  0  0  0
    8.3232    1.6715    3.7280 N   0  0  0  0  0  0  0  0  0  0  0  0
    6.2274    0.7114    2.9944 N   0  0  0  0  0  0  0  0  0  0  0  0
    4.9161   -4.6467    0.3235 C   0  0  0  0  0  0  0  0  0  0  0  0
    5.2914   -4.9946   -1.0510 C   0  0  0  0  0  0  0  0  0  0  0  0
    4.5006   -5.8346   -1.8508 C   0  0  0  0  0  0  0  0  0  0  0  0
    5.0744   -5.9200   -3.0856 N   0  0  0  0  0  0  0  0  0  0  0  0
    6.1941   -5.1829   -3.1274 C   0  0  0  0  0  0  0  0  0  0  0  0
    6.3189   -4.6183   -1.8702 C   0  0  0  0  0  0  0  0  0  0  0  0
    7.4166   -3.8173   -1.6630 C   0  0  0  0  0  0  0  0  0  0  0  0
    8.3704   -3.5536   -2.6156 C   0  0  0  0  0  0  0  0  0  0  0  0
    8.2450   -4.1211   -3.8843 C   0  0  0  0  0  0  0  0  0  0  0  0
    7.1409   -4.9324   -4.1036 C   0  0  0  0  0  0  0  0  0  0  0  0
    2.6901   -3.8858    5.1421 C   0  0  0  0  0  0  0  0  0  0  0  0
    2.4122   -3.3869    6.2606 O   0  0  0  0  0  0  0  0  0  0  0  0
    3.0832   -5.2397    4.9996 N   0  0  0  0  0  0  0  0  0  0  0  0
   -6.4614   -3.7402   -0.1416 N   0  0  0  0  0  0  0  0  0  0  0  0
   -6.9484   -4.6894    0.8275 C   0  0  0  0  0  0  0  0  0  0  0  0
   -8.0603   -4.5650    1.3944 O   0  0  0  0  0  0  0  0  0  0  0  0
   -6.1091   -5.8849    1.1906 C   0  0  0  0  0  0  0  0  0  0  0  0
   -9.1863   -4.0126   -3.7577 H   0  0  0  0  0  0  0  0  0  0  0  0
  -10.2886   -3.2596   -4.9225 H   0  0  0  0  0  0  0  0  0  0  0  0
  -10.7956   -3.2655   -3.2166 H   0  0  0  0  0  0  0  0  0  0  0  0
  -10.0652   -1.0696   -3.8629 H   0  0  0  0  0  0  0  0  0  0  0  0
   -8.4631   -1.6371   -4.3961 H   0  0  0  0  0  0  0  0  0  0  0  0
   -8.4497   -0.6085   -2.1316 H   0  0  0  0  0  0  0  0  0  0  0  0
   -9.7360   -1.7358   -1.5912 H   0  0  0  0  0  0  0  0  0  0  0  0
   -8.2414   -3.7074   -1.9913 H   0  0  0  0  0  0  0  0  0  0  0  0
   -6.9639   -2.6302   -2.5814 H   0  0  0  0  0  0  0  0  0  0  0  0
   -8.2478   -2.7286    0.2052 H   0  0  0  0  0  0  0  0  0  0  0  0
   -4.7265   -2.0555    0.4282 H   0  0  0  0  0  0  0  0  0  0  0  0
   -5.7313    0.8269    0.6177 H   0  0  0  0  0  0  0  0  0  0  0  0
   -5.1780   -0.3064    2.6782 H   0  0  0  0  0  0  0  0  0  0  0  0
   -4.2834    1.2017    2.4250 H   0  0  0  0  0  0  0  0  0  0  0  0
   -3.4598   -0.6955    4.3797 H   0  0  0  0  0  0  0  0  0  0  0  0
   -0.6418   -0.8923    3.9704 H   0  0  0  0  0  0  0  0  0  0  0  0
   -1.5725   -1.8755    5.0924 H   0  0  0  0  0  0  0  0  0  0  0  0
   -1.9853   -3.6536    3.4890 H   0  0  0  0  0  0  0  0  0  0  0  0
   -1.1340   -2.7989    2.1785 H   0  0  0  0  0  0  0  0  0  0  0  0
    0.3027   -4.3405    3.0369 H   0  0  0  0  0  0  0  0  0  0  0  0
   -0.0462   -3.9245    4.7678 H   0  0  0  0  0  0  0  0  0  0  0  0
    1.2290   -1.8654    2.8547 H   0  0  0  0  0  0  0  0  0  0  0  0
    1.0104   -1.8347    4.6495 H   0  0  0  0  0  0  0  0  0  0  0  0
    3.2569   -2.1448    4.0979 H   0  0  0  0  0  0  0  0  0  0  0  0
    2.7533   -4.7058    2.5131 H   0  0  0  0  0  0  0  0  0  0  0  0
    3.1260   -3.5964   -0.1502 H   0  0  0  0  0  0  0  0  0  0  0  0
    5.6121   -2.0497   -0.5206 H   0  0  0  0  0  0  0  0  0  0  0  0
    3.8568   -0.1458   -2.3822 H   0  0  0  0  0  0  0  0  0  0  0  0
    1.0694    2.7527   -0.1789 H   0  0  0  0  0  0  0  0  0  0  0  0
   -2.4613    1.0702   -2.4052 H   0  0  0  0  0  0  0  0  0  0  0  0
   -3.0845    3.7880    0.0170 H   0  0  0  0  0  0  0  0  0  0  0  0
   -4.5427    2.8721    0.7304 H   0  0  0  0  0  0  0  0  0  0  0  0
   -2.8718    2.6087    1.2777 H   0  0  0  0  0  0  0  0  0  0  0  0
   -2.7867    2.8084   -3.8344 H   0  0  0  0  0  0  0  0  0  0  0  0
   -4.2289    2.3217   -2.9900 H   0  0  0  0  0  0  0  0  0  0  0  0
   -5.5240    4.0203   -1.5560 H   0  0  0  0  0  0  0  0  0  0  0  0
   -5.6320    6.5803   -1.3499 H   0  0  0  0  0  0  0  0  0  0  0  0
   -1.9829    5.5674   -3.2817 H   0  0  0  0  0  0  0  0  0  0  0  0
    0.9196    2.7194   -3.9366 H   0  0  0  0  0  0  0  0  0  0  0  0
   -0.6355    3.6717   -3.7740 H   0  0  0  0  0  0  0  0  0  0  0  0
   -0.6188    1.8882   -3.8421 H   0  0  0  0  0  0  0  0  0  0  0  0
    2.3594    4.2526   -2.5266 H   0  0  0  0  0  0  0  0  0  0  0  0
    2.8767    4.1238   -0.8561 H   0  0  0  0  0  0  0  0  0  0  0  0
    0.4024    5.7631   -2.9684 H   0  0  0  0  0  0  0  0  0  0  0  0
   -0.8685    7.7267   -2.2589 H   0  0  0  0  0  0  0  0  0  0  0  0
    1.8057    5.2509    1.0293 H   0  0  0  0  0  0  0  0  0  0  0  0
    1.1144    6.7571    2.7444 H   0  0  0  0  0  0  0  0  0  0  0  0
   -0.2399    8.7845    3.3900 H   0  0  0  0  0  0  0  0  0  0  0  0
   -1.5619   10.0003    1.7342 H   0  0  0  0  0  0  0  0  0  0  0  0
   -1.5729    9.2423   -0.5719 H   0  0  0  0  0  0  0  0  0  0  0  0
    1.8396    1.2797    0.7886 H   0  0  0  0  0  0  0  0  0  0  0  0
    3.4155    0.6627    1.2051 H   0  0  0  0  0  0  0  0  0  0  0  0
    3.1616    2.4561    0.8100 H   0  0  0  0  0  0  0  0  0  0  0  0
    5.5208    1.4774   -1.6937 H   0  0  0  0  0  0  0  0  0  0  0  0
    6.0868   -0.1874   -1.7197 H   0  0  0  0  0  0  0  0  0  0  0  0
    5.8264   -0.1231    0.8633 H   0  0  0  0  0  0  0  0  0  0  0  0
    5.3925    1.6750    0.6056 H   0  0  0  0  0  0  0  0  0  0  0  0
    7.4887    2.1150   -0.4157 H   0  0  0  0  0  0  0  0  0  0  0  0
    8.0197    0.4310   -0.3261 H   0  0  0  0  0  0  0  0  0  0  0  0
    8.1709    2.5889    4.2194 H   0  0  0  0  0  0  0  0  0  0  0  0
    9.0976    1.0139    4.0186 H   0  0  0  0  0  0  0  0  0  0  0  0
    5.3140    1.2084    2.9487 H   0  0  0  0  0  0  0  0  0  0  0  0
    6.1794   -0.2847    3.3490 H   0  0  0  0  0  0  0  0  0  0  0  0
    5.8877   -4.5791    0.8996 H   0  0  0  0  0  0  0  0  0  0  0  0
    4.3844   -5.5247    0.7834 H   0  0  0  0  0  0  0  0  0  0  0  0
    3.5996   -6.3496   -1.6100 H   0  0  0  0  0  0  0  0  0  0  0  0
    4.7376   -6.4650   -3.9117 H   0  0  0  0  0  0  0  0  0  0  0  0
    7.5290   -3.3854   -0.6815 H   0  0  0  0  0  0  0  0  0  0  0  0
    9.2032   -2.9118   -2.3639 H   0  0  0  0  0  0  0  0  0  0  0  0
    8.9908   -3.9247   -4.6467 H   0  0  0  0  0  0  0  0  0  0  0  0
    7.0546   -5.3747   -5.1096 H   0  0  0  0  0  0  0  0  0  0  0  0
    2.4434   -5.9860    4.5989 H   0  0  0  0  0  0  0  0  0  0  0  0
    4.0425   -5.5071    5.3049 H   0  0  0  0  0  0  0  0  0  0  0  0
   -5.5377   -3.8497   -0.6088 H   0  0  0  0  0  0  0  0  0  0  0  0
   -5.4102   -6.1658    0.3898 H   0  0  0  0  0  0  0  0  0  0  0  0
   -6.8052   -6.7239    1.4288 H   0  0  0  0  0  0  0  0  0  0  0  0
   -5.5983   -5.6180    2.1438 H   0  0  0  0  0  0  0  0  0  0  0  0
  1  2  1  0
  2  3  1  0
  3  4  1  0
  4  5  1  0
  5  6  1  0
  6  7  2  0
  6  8  1  0
  8  9  1  0
  9 10  1  0
 10 11  1  0
 11 12  2  0
 11 13  1  0
 13 14  1  0
 14 15  1  0
 15 16  1  0
 16 17  1  0
 17 18  1  0
 18 19  1  0
 19 20  1  0
 20 21  2  0
 20 22  1  0
 22 23  1  0
 23 24  1  0
 24 25  2  0
 24 26  1  0
 26 27  1  0
 27 28  1  0
 28 29  2  0
 28 30  1  0
 30 31  1  0
 31 32  1  0
 32 33  2  0
 32 34  1  0
 34 35  1  0
 35 36  1  0
 36 37  2  0
 35 38  1  0
 34 39  1  0
 39 40  1  0
 40 41  1  0
 41 42  1  0
 42 43  2  0
 43 44  1  0
 31 45  1  0
 30 46  1  0
 46 47  1  0
 47 48  2  0
 48 49  1  0
 49 50  2  0
 50 51  1  0
 51 52  2  0
 51 53  1  0
 53 54  2  0
 54 55  1  0
 55 56  2  0
 27 57  1  0
 26 58  1  0
 58 59  1  0
 59 60  1  0
 60 61  1  0
 61 62  2  3
 62 63  1  0
 62 64  1  0
 22 65  1  0
 65 66  1  0
 66 67  2  0
 67 68  1  0
 68 69  1  0
 69 70  2  0
 70 71  1  0
 71 72  2  0
 72 73  1  0
 73 74  2  0
 18 75  1  0
 75 76  2  0
 75 77  1  0
  5 78  1  0
 78 79  1  0
 79 80  2  0
 79 81  1  0
 36  9  1  0
 44 40  2  0
 52 47  1  0
 70 66  1  0
 56 50  1  0
 74 69  1  0
  1 82  1  0
  1 83  1  0
  1 84  1  0
  2 85  1  0
  2 86  1  0
  3 87  1  0
  3 88  1  0
  4 89  1  0
  4 90  1  0
  5 91  1  1
  8 92  1  0
  9 93  1  1
 10 94  1  0
 10 95  1  0
 13 96  1  0
 14 97  1  0
 14 98  1  0
 15 99  1  0
 15100  1  0
 16101  1  0
 16102  1  0
 17103  1  0
 17104  1  0
 18105  1  1
 19106  1  0
 22107  1  6
 23108  1  0
 26109  1  6
 30110  1  1
 34111  1  6
 38112  1  0
 38113  1  0
 38114  1  0
 39115  1  0
 39116  1  0
 41117  1  0
 42118  1  0
 44119  1  0
 45120  1  0
 45121  1  0
 45122  1  0
 46123  1  0
 46124  1  0
 48125  1  0
 49126  1  0
 52127  1  0
 53128  1  0
 54129  1  0
 55130  1  0
 56131  1  0
 57132  1  0
 57133  1  0
 57134  1  0
 58135  1  0
 58136  1  0
 59137  1  0
 59138  1  0
 60139  1  0
 60140  1  0
 63141  1  0
 63142  1  0
 64143  1  0
 64144  1  0
 65145  1  0
 65146  1  0
 67147  1  0
 68148  1  0
 71149  1  0
 72150  1  0
 73151  1  0
 74152  1  0
 77153  1  0
 77154  1  0
 78155  1  0
 81156  1  0
 81157  1  0
 81158  1  0
M  END
>  <Ligand ID>  (1) 
LIG0001824

>  <Ligand>  (1) 
CHEMBL3601426

>  <SMILES>  (1) 
CCCC[C@H](C(=O)N[C@H]1CC(=O)NCCCC[C@H](NC(=O)[C@@H](NC(=O)[C@@H](N(C(=O)[C@H](N(C(=O)[C@@H](N(C1=O)C)Cc1[nH]cnc1)C)Cc1ccc2c(c1)cccc2)C)CCCN=C(N)N)Cc1c[nH]c2c1cccc2)C(=O)N)NC(=O)C

>  <CID>  (1) 
122184908.0

>  <ChEMBL ID>  (1) 
nan

>  <InChiKey>  (1) 
TVKPENPJQKTJFK-SHVRLUCGSA-N

>  <InChi>  (1) 
InChI=1S/C57H77N15O9/c1-6-7-18-43(66-34(2)73)51(76)69-45-30-49(74)62-24-13-12-20-42(50(58)75)67-52(77)44(28-38-31-64-41-19-11-10-17-40(38)41)68-53(78)46(21-14-25-63-57(59)60)70(3)55(80)47(27-35-22-23-36-15-8-9-16-37(36)26-35)72(5)56(81)48(71(4)54(45)79)29-39-32-61-33-65-39/h8-11,15-17,19,22-23,26,31-33,42-48,64H,6-7,12-14,18,20-21,24-25,27-30H2,1-5H3,(H2,58,75)(H,61,65)(H,62,74)(H,66,73)(H,67,77)(H,68,78)(H,69,76)(H4,59,60,63)/t42-,43+,44-,45-,46-,47+,48-/m0/s1

>  <IUPAC Name>  (1) 
(3S,6S,9R,12S,15S,23S)-15-[[(2R)-2-acetamidohexanoyl]amino]-6-[3-(diaminomethylideneamino)propyl]-12-(1H-imidazol-5-ylmethyl)-3-(1H-indol-3-ylmethyl)-7,10,13-trimethyl-9-(naphthalen-2-ylmethyl)-2,5,8,11,14,17-hexaoxo-1,4,7,10,13,18-hexazacyclotricosane-23-carboxamide

$$$$
