
     RDKit          3D

 24 24  0  0  0  0  0  0  0  0999 V2000
   -2.7806   -0.2375   -0.0479 N   0  0  0  0  0  0  0  0  0  0  0  0
   -1.7401    0.7753    0.0032 C   0  0  0  0  0  0  0  0  0  0  0  0
   -2.1518    2.0110    0.6941 C   0  0  0  0  0  0  0  0  0  0  0  0
   -1.2767    2.9380    0.7699 O   0  0  0  0  0  0  0  0  0  0  0  0
   -3.4106    2.2078    1.2501 O   0  0  0  0  0  0  0  0  0  0  0  0
   -0.5228    0.1388    0.6483 C   0  0  0  0  0  0  0  0  0  0  0  0
   -0.1089   -1.0418   -0.2196 C   0  0  0  0  0  0  0  0  0  0  0  0
    0.1853   -0.4798   -1.5045 O   0  0  0  0  0  0  0  0  0  0  0  0
    1.5096   -0.0715   -1.4997 N   0  0  0  0  0  0  0  0  0  0  0  0
    2.1496   -0.6763   -0.5427 C   0  0  0  0  0  0  0  0  0  0  0  0
    1.2380   -1.5797    0.1947 C   0  0  0  0  0  0  0  0  0  0  0  0
    3.5678   -0.4407   -0.2976 C   0  0  0  0  0  0  0  0  0  0  0  0
    4.1939    0.3657   -1.0254 O   0  0  0  0  0  0  0  0  0  0  0  0
    4.2324   -1.0962    0.7289 O   0  0  0  0  0  0  0  0  0  0  0  0
   -2.7074   -0.7654   -0.9578 H   0  0  0  0  0  0  0  0  0  0  0  0
   -3.7237    0.1301    0.1403 H   0  0  0  0  0  0  0  0  0  0  0  0
   -1.5110    1.0436   -1.0481 H   0  0  0  0  0  0  0  0  0  0  0  0
   -3.7648    3.1624    1.4183 H   0  0  0  0  0  0  0  0  0  0  0  0
   -0.7338   -0.1973    1.6812 H   0  0  0  0  0  0  0  0  0  0  0  0
    0.2934    0.8780    0.7113 H   0  0  0  0  0  0  0  0  0  0  0  0
   -0.8978   -1.7930   -0.2404 H   0  0  0  0  0  0  0  0  0  0  0  0
    1.3222   -2.6106   -0.2062 H   0  0  0  0  0  0  0  0  0  0  0  0
    1.3770   -1.5589    1.2859 H   0  0  0  0  0  0  0  0  0  0  0  0
    5.2610   -1.1019    0.6790 H   0  0  0  0  0  0  0  0  0  0  0  0
  1  2  1  0
  2  3  1  0
  3  4  2  0
  3  5  1  0
  2  6  1  0
  6  7  1  0
  7  8  1  0
  8  9  1  0
  9 10  2  0
 10 11  1  0
 10 12  1  0
 12 13  2  0
 12 14  1  0
 11  7  1  0
  1 15  1  0
  1 16  1  0
  2 17  1  0
  5 18  1  0
  6 19  1  0
  6 20  1  0
  7 21  1  0
 11 22  1  0
 11 23  1  0
 14 24  1  0
M  END
>  <Ligand ID>  (1) 
LIG0001294

>  <Ligand>  (1) 
CHEMBL197629

>  <SMILES>  (1) 
NC(C(=O)O)CC1ON=C(C1)C(=O)O

>  <CID>  (1) 
4628822.0

>  <ChEMBL ID>  (1) 
nan

>  <InChiKey>  (1) 
AUXNPKGXCSBLJK-UHFFFAOYSA-N

>  <InChi>  (1) 
InChI=1S/C7H10N2O5/c8-4(6(10)11)1-3-2-5(7(12)13)9-14-3/h3-4H,1-2,8H2,(H,10,11)(H,12,13)

>  <IUPAC Name>  (1) 
5-(2-amino-2-carboxyethyl)-4,5-dihydro-1,2-oxazole-3-carboxylic acid

$$$$
