
     RDKit          3D

111115  0  0  0  0  0  0  0  0999 V2000
   -1.3045   -2.7832   -1.5095 O   0  0  0  0  0  0  0  0  0  0  0  0
   -0.0589   -2.4869   -1.4469 C   0  0  0  0  0  0  0  0  0  0  0  0
    0.5446   -2.6226   -0.1820 N   0  0  0  0  0  0  0  0  0  0  0  0
   -0.2448   -3.0708    0.9535 C   0  0  2  0  0  0  0  0  0  0  0  0
   -0.8977   -1.8232    1.4499 C   0  0  0  0  0  0  0  0  0  0  0  0
   -0.8071   -0.8199    0.6598 O   0  0  0  0  0  0  0  0  0  0  0  0
   -1.5736   -1.6388    2.6468 N   0  0  0  0  0  0  0  0  0  0  0  0
   -2.1512   -0.3533    2.9417 C   0  0  0  0  0  0  0  0  0  0  0  0
   -3.2796   -0.0707    2.0293 C   0  0  0  0  0  0  0  0  0  0  0  0
   -3.7044   -0.8508    1.1612 O   0  0  0  0  0  0  0  0  0  0  0  0
   -3.9271    1.1861    2.1678 N   0  0  0  0  0  0  0  0  0  0  0  0
   -5.0740    1.6432    1.4433 C   0  0  2  0  0  0  0  0  0  0  0  0
   -4.7497    2.3107    0.1434 C   0  0  0  0  0  0  0  0  0  0  0  0
   -5.7224    2.7737   -0.5266 O   0  0  0  0  0  0  0  0  0  0  0  0
   -3.5034    2.4644   -0.3743 O   0  0  0  0  0  0  0  0  0  0  0  0
   -3.1792    3.0888   -1.5719 C   0  0  0  0  0  0  0  0  0  0  0  0
   -3.7881    2.4804   -2.7692 C   0  0  0  0  0  0  0  0  0  0  0  0
   -3.2177    1.3832   -3.4324 C   0  0  0  0  0  0  0  0  0  0  0  0
   -3.7262    0.8294   -4.5619 C   0  0  0  0  0  0  0  0  0  0  0  0
   -4.8654    1.3347   -5.1296 C   0  0  0  0  0  0  0  0  0  0  0  0
   -5.4702    2.4014   -4.5344 C   0  0  0  0  0  0  0  0  0  0  0  0
   -4.9460    2.9678   -3.3758 C   0  0  0  0  0  0  0  0  0  0  0  0
   -6.7100    2.9334   -5.1718 C   0  0  0  0  0  0  0  0  0  0  0  0
   -7.6253    1.9325   -5.4331 F   0  0  0  0  0  0  0  0  0  0  0  0
   -7.3018    3.8918   -4.3986 F   0  0  0  0  0  0  0  0  0  0  0  0
   -6.3029    3.5054   -6.3768 F   0  0  0  0  0  0  0  0  0  0  0  0
   -3.0867   -0.3239   -5.2719 C   0  0  0  0  0  0  0  0  0  0  0  0
   -2.8228    0.1426   -6.5543 F   0  0  0  0  0  0  0  0  0  0  0  0
   -3.9816   -1.3479   -5.3821 F   0  0  0  0  0  0  0  0  0  0  0  0
   -1.9240   -0.7298   -4.6960 F   0  0  0  0  0  0  0  0  0  0  0  0
   -5.7917    2.6584    2.3209 C   0  0  0  0  0  0  0  0  0  0  0  0
   -6.2112    2.1279    3.6285 C   0  0  0  0  0  0  0  0  0  0  0  0
   -5.4326    2.3687    4.7844 C   0  0  0  0  0  0  0  0  0  0  0  0
   -6.0691    1.7416    5.7945 N   0  0  0  0  0  0  0  0  0  0  0  0
   -7.1780    1.1314    5.3626 C   0  0  0  0  0  0  0  0  0  0  0  0
   -7.2758    1.3642    4.0209 C   0  0  0  0  0  0  0  0  0  0  0  0
   -8.3355    0.8687    3.2907 C   0  0  0  0  0  0  0  0  0  0  0  0
   -9.2728    0.1336    4.0050 C   0  0  0  0  0  0  0  0  0  0  0  0
   -9.1708   -0.0978    5.3490 C   0  0  0  0  0  0  0  0  0  0  0  0
   -8.0975    0.4012    6.1014 C   0  0  0  0  0  0  0  0  0  0  0  0
    0.5085   -3.8639    1.9162 C   0  0  0  0  0  0  0  0  0  0  0  0
    1.6548   -3.2653    2.5967 C   0  0  0  0  0  0  0  0  0  0  0  0
    2.9521   -3.2451    2.1339 C   0  0  0  0  0  0  0  0  0  0  0  0
    3.9590   -2.6649    2.9079 C   0  0  0  0  0  0  0  0  0  0  0  0
    3.7307   -2.0998    4.1293 C   0  0  0  0  0  0  0  0  0  0  0  0
    2.4325   -2.1131    4.6024 C   0  0  0  0  0  0  0  0  0  0  0  0
    1.4265   -2.6888    3.8387 C   0  0  0  0  0  0  0  0  0  0  0  0
    4.6690   -1.5296    4.9145 F   0  0  0  0  0  0  0  0  0  0  0  0
    0.5759   -2.0405   -2.6769 C   0  0  0  0  0  0  0  0  0  0  0  0
    1.9903   -1.7731   -2.6299 N   0  0  0  0  0  0  0  0  0  0  0  0
    2.8606   -2.8578   -2.3658 C   0  0  0  0  0  0  0  0  0  0  0  0
    2.2724   -3.9882   -2.1917 O   0  0  0  0  0  0  0  0  0  0  0  0
    4.3201   -2.8112   -2.2867 C   0  0  2  0  0  0  0  0  0  0  0  0
    4.8221   -1.4315   -2.1832 N   0  0  0  0  0  0  0  0  0  0  0  0
    6.1423   -1.3295   -1.6561 C   0  0  0  0  0  0  0  0  0  0  0  0
    6.7245   -2.4117   -1.3458 O   0  0  0  0  0  0  0  0  0  0  0  0
    6.8732   -0.0769   -1.4521 C   0  0  2  0  0  0  0  0  0  0  0  0
    8.3152   -0.3622   -1.1291 C   0  0  0  0  0  0  0  0  0  0  0  0
    8.9619    0.9862   -0.9381 C   0  0  0  0  0  0  0  0  0  0  0  0
    9.4771    1.6902   -2.0045 C   0  0  0  0  0  0  0  0  0  0  0  0
   10.0934    2.9198   -1.8931 C   0  0  0  0  0  0  0  0  0  0  0  0
   10.1761    3.4435   -0.6073 C   0  0  0  0  0  0  0  0  0  0  0  0
    9.6866    2.8018    0.5010 C   0  0  0  0  0  0  0  0  0  0  0  0
    9.0796    1.5648    0.3033 C   0  0  0  0  0  0  0  0  0  0  0  0
   10.7854    4.6866   -0.4089 O   0  0  0  0  0  0  0  0  0  0  0  0
    6.2264    0.8969   -0.6442 N   0  0  0  0  0  0  0  0  0  0  0  0
    4.8957   -3.3586   -3.6319 C   0  0  0  0  0  0  0  0  0  0  0  0
    1.5565   -2.3945   -0.0818 H   0  0  0  0  0  0  0  0  0  0  0  0
   -1.1313   -3.6829    0.5736 H   0  0  0  0  0  0  0  0  0  0  0  0
   -1.6642   -2.4378    3.3076 H   0  0  0  0  0  0  0  0  0  0  0  0
   -1.3890    0.4564    2.9304 H   0  0  0  0  0  0  0  0  0  0  0  0
   -2.5486   -0.3832    3.9947 H   0  0  0  0  0  0  0  0  0  0  0  0
   -3.5054    1.8480    2.8951 H   0  0  0  0  0  0  0  0  0  0  0  0
   -5.7412    0.7803    1.2629 H   0  0  0  0  0  0  0  0  0  0  0  0
   -2.0652    3.0847   -1.7432 H   0  0  0  0  0  0  0  0  0  0  0  0
   -3.4711    4.1645   -1.4632 H   0  0  0  0  0  0  0  0  0  0  0  0
   -2.3067    0.9590   -2.9943 H   0  0  0  0  0  0  0  0  0  0  0  0
   -5.2675    0.8865   -6.0360 H   0  0  0  0  0  0  0  0  0  0  0  0
   -5.4757    3.8064   -2.9812 H   0  0  0  0  0  0  0  0  0  0  0  0
   -5.1467    3.5569    2.4343 H   0  0  0  0  0  0  0  0  0  0  0  0
   -6.7310    2.9471    1.7752 H   0  0  0  0  0  0  0  0  0  0  0  0
   -4.5000    2.9487    4.8173 H   0  0  0  0  0  0  0  0  0  0  0  0
   -5.6676    1.7783    6.7794 H   0  0  0  0  0  0  0  0  0  0  0  0
   -8.4058    1.0557    2.2466 H   0  0  0  0  0  0  0  0  0  0  0  0
  -10.1334   -0.2799    3.4946 H   0  0  0  0  0  0  0  0  0  0  0  0
   -9.9037   -0.6702    5.9275 H   0  0  0  0  0  0  0  0  0  0  0  0
   -8.0060    0.2269    7.1570 H   0  0  0  0  0  0  0  0  0  0  0  0
   -0.1397   -4.3714    2.6823 H   0  0  0  0  0  0  0  0  0  0  0  0
    0.9379   -4.7541    1.3470 H   0  0  0  0  0  0  0  0  0  0  0  0
    3.1608   -3.6834    1.1635 H   0  0  0  0  0  0  0  0  0  0  0  0
    4.9733   -2.6600    2.5313 H   0  0  0  0  0  0  0  0  0  0  0  0
    2.1792   -1.6750    5.5855 H   0  0  0  0  0  0  0  0  0  0  0  0
    0.4457   -2.6670    4.2688 H   0  0  0  0  0  0  0  0  0  0  0  0
    0.1075   -1.0766   -3.0095 H   0  0  0  0  0  0  0  0  0  0  0  0
    0.3658   -2.7614   -3.5006 H   0  0  0  0  0  0  0  0  0  0  0  0
    2.3893   -0.8271   -2.7838 H   0  0  0  0  0  0  0  0  0  0  0  0
    4.7500   -3.4433   -1.5343 H   0  0  0  0  0  0  0  0  0  0  0  0
    4.3121   -0.5901   -2.4493 H   0  0  0  0  0  0  0  0  0  0  0  0
    6.9569    0.4674   -2.4893 H   0  0  0  0  0  0  0  0  0  0  0  0
    8.8570   -0.8115   -1.9918 H   0  0  0  0  0  0  0  0  0  0  0  0
    8.4864   -1.0155   -0.2660 H   0  0  0  0  0  0  0  0  0  0  0  0
    9.4186    1.2978   -3.0324 H   0  0  0  0  0  0  0  0  0  0  0  0
   10.4760    3.4197   -2.7438 H   0  0  0  0  0  0  0  0  0  0  0  0
    9.7658    3.2319    1.4779 H   0  0  0  0  0  0  0  0  0  0  0  0
    8.6899    1.0428    1.1406 H   0  0  0  0  0  0  0  0  0  0  0  0
   11.6591    4.6557    0.0854 H   0  0  0  0  0  0  0  0  0  0  0  0
    5.4525    1.4105   -1.1150 H   0  0  0  0  0  0  0  0  0  0  0  0
    5.9002    0.4686    0.2419 H   0  0  0  0  0  0  0  0  0  0  0  0
    5.3534   -2.5170   -4.1967 H   0  0  0  0  0  0  0  0  0  0  0  0
    5.5776   -4.1721   -3.3879 H   0  0  0  0  0  0  0  0  0  0  0  0
    4.0532   -3.7438   -4.2194 H   0  0  0  0  0  0  0  0  0  0  0  0
  1  2  2  0
  2  3  1  0
  3  4  1  0
  4  5  1  0
  5  6  2  0
  5  7  1  0
  7  8  1  0
  8  9  1  0
  9 10  2  0
  9 11  1  0
 11 12  1  0
 12 13  1  0
 13 14  2  0
 13 15  1  0
 15 16  1  0
 16 17  1  0
 17 18  2  0
 18 19  1  0
 19 20  2  0
 20 21  1  0
 21 22  2  0
 21 23  1  0
 23 24  1  0
 23 25  1  0
 23 26  1  0
 19 27  1  0
 27 28  1  0
 27 29  1  0
 27 30  1  0
 12 31  1  0
 31 32  1  0
 32 33  2  0
 33 34  1  0
 34 35  1  0
 35 36  2  0
 36 37  1  0
 37 38  2  0
 38 39  1  0
 39 40  2  0
  4 41  1  0
 41 42  1  0
 42 43  2  0
 43 44  1  0
 44 45  2  0
 45 46  1  0
 46 47  2  0
 45 48  1  0
  2 49  1  0
 49 50  1  0
 50 51  1  0
 51 52  2  0
 51 53  1  0
 53 54  1  0
 54 55  1  0
 55 56  2  0
 55 57  1  0
 57 58  1  0
 58 59  1  0
 59 60  2  0
 60 61  1  0
 61 62  2  0
 62 63  1  0
 63 64  2  0
 62 65  1  0
 57 66  1  0
 53 67  1  0
 22 17  1  0
 36 32  1  0
 47 42  1  0
 64 59  1  0
 40 35  1  0
  3 68  1  0
  4 69  1  6
  7 70  1  0
  8 71  1  0
  8 72  1  0
 11 73  1  0
 12 74  1  6
 16 75  1  0
 16 76  1  0
 18 77  1  0
 20 78  1  0
 22 79  1  0
 31 80  1  0
 31 81  1  0
 33 82  1  0
 34 83  1  0
 37 84  1  0
 38 85  1  0
 39 86  1  0
 40 87  1  0
 41 88  1  0
 41 89  1  0
 43 90  1  0
 44 91  1  0
 46 92  1  0
 47 93  1  0
 49 94  1  0
 49 95  1  0
 50 96  1  0
 53 97  1  1
 54 98  1  0
 57 99  1  6
 58100  1  0
 58101  1  0
 60102  1  0
 61103  1  0
 63104  1  0
 64105  1  0
 65106  1  0
 66107  1  0
 66108  1  0
 67109  1  0
 67110  1  0
 67111  1  0
M  END
>  <Ligand ID>  (1) 
LIG0005369

>  <Ligand>  (1) 
CHEMBL3608939

>  <SMILES>  (1) 
O=C(N[C@H](C(=O)NCC(=O)N[C@H](C(=O)OCc1cc(cc(c1)C(F)(F)F)C(F)(F)F)Cc1c[nH]c2c1cccc2)Cc1ccc(cc1)F)CNC(=O)[C@H](NC(=O)[C@H](Cc1ccc(cc1)O)N)C

>  <CID>  (1) 
122187206.0

>  <ChEMBL ID>  (1) 
nan

>  <InChiKey>  (1) 
NKULLHQHASCPKR-CDYHHZRJSA-N

>  <InChi>  (1) 
InChI=1S/C45H44F7N7O8/c1-24(57-41(64)34(53)16-25-8-12-32(60)13-9-25)40(63)55-21-38(61)58-36(17-26-6-10-31(46)11-7-26)42(65)56-22-39(62)59-37(18-28-20-54-35-5-3-2-4-33(28)35)43(66)67-23-27-14-29(44(47,48)49)19-30(15-27)45(50,51)52/h2-15,19-20,24,34,36-37,54,60H,16-18,21-23,53H2,1H3,(H,55,63)(H,56,65)(H,57,64)(H,58,61)(H,59,62)/t24-,34+,36+,37+/m1/s1

>  <IUPAC Name>  (1) 
[3,5-bis(trifluoromethyl)phenyl]methyl (2S)-2-[[2-[[(2S)-2-[[2-[[(2R)-2-[[(2S)-2-amino-3-(4-hydroxyphenyl)propanoyl]amino]propanoyl]amino]acetyl]amino]-3-(4-fluorophenyl)propanoyl]amino]acetyl]amino]-3-(1H-indol-3-yl)propanoate

$$$$
