
     RDKit          3D

 48 49  0  0  0  0  0  0  0  0999 V2000
    6.8501    0.6961    1.4583 C   0  0  0  0  0  0  0  0  0  0  0  0
    6.4276    0.5074    0.0130 C   0  0  0  0  0  0  0  0  0  0  0  0
    4.9564    0.1328   -0.0769 C   0  0  0  0  0  0  0  0  0  0  0  0
    4.1721    1.2425    0.5407 C   0  0  0  0  0  0  0  0  0  0  0  0
    2.6858    1.0448    0.5408 C   0  0  0  0  0  0  0  0  0  0  0  0
    2.0894    0.9020   -0.8453 C   0  0  0  0  0  0  0  0  0  0  0  0
    0.3031    0.6737   -0.7251 S   0  0  0  0  0  0  0  0  0  0  0  0
   -0.0726   -0.8983    0.0439 C   0  0  0  0  0  0  0  0  0  0  0  0
    0.8907   -1.7460    0.4476 N   0  0  0  0  0  0  0  0  0  0  0  0
    0.6047   -2.9335    1.0258 C   0  0  0  0  0  0  0  0  0  0  0  0
   -0.7378   -3.2433    1.1868 C   0  0  0  0  0  0  0  0  0  0  0  0
   -1.6868   -2.3995    0.7848 N   0  0  0  0  0  0  0  0  0  0  0  0
   -1.4102   -1.2066    0.2037 C   0  0  0  0  0  0  0  0  0  0  0  0
   -2.4001   -0.3357   -0.2114 O   0  0  0  0  0  0  0  0  0  0  0  0
   -3.7672   -0.5508   -0.0944 C   0  0  1  0  0  0  0  0  0  0  0  0
   -4.4731    0.5771    0.6682 C   0  0  0  0  0  0  0  0  0  0  0  0
   -4.9883    1.4925   -0.3485 N   0  0  0  0  0  0  0  0  0  0  0  0
   -4.2433    1.1678   -1.5613 C   0  0  0  0  0  0  0  0  0  0  0  0
   -4.4022   -0.3481   -1.4530 C   0  0  0  0  0  0  0  0  0  0  0  0
   -5.8920   -0.4458   -1.2962 C   0  0  0  0  0  0  0  0  0  0  0  0
   -6.2797    0.9105   -0.7222 C   0  0  0  0  0  0  0  0  0  0  0  0
    0.6882    0.0000    0.0000 Cl  0  0  0  0  0  0  0  0  0  0  0  0
    7.8348    0.1980    1.6273 H   0  0  0  0  0  0  0  0  0  0  0  0
    6.9105    1.7822    1.7085 H   0  0  0  0  0  0  0  0  0  0  0  0
    6.1118    0.1809    2.1098 H   0  0  0  0  0  0  0  0  0  0  0  0
    6.5832    1.4584   -0.5172 H   0  0  0  0  0  0  0  0  0  0  0  0
    7.0510   -0.2507   -0.4917 H   0  0  0  0  0  0  0  0  0  0  0  0
    4.7050   -0.0512   -1.1317 H   0  0  0  0  0  0  0  0  0  0  0  0
    4.8265   -0.8048    0.5006 H   0  0  0  0  0  0  0  0  0  0  0  0
    4.4754    1.3120    1.6156 H   0  0  0  0  0  0  0  0  0  0  0  0
    4.3976    2.2102    0.0444 H   0  0  0  0  0  0  0  0  0  0  0  0
    2.2320    1.9532    0.9930 H   0  0  0  0  0  0  0  0  0  0  0  0
    2.4469    0.1862    1.1854 H   0  0  0  0  0  0  0  0  0  0  0  0
    2.3647    1.7209   -1.5105 H   0  0  0  0  0  0  0  0  0  0  0  0
    2.5441   -0.0324   -1.2795 H   0  0  0  0  0  0  0  0  0  0  0  0
    1.3829   -3.6100    1.3492 H   0  0  0  0  0  0  0  0  0  0  0  0
   -1.0368   -4.1879    1.6456 H   0  0  0  0  0  0  0  0  0  0  0  0
   -4.0069   -1.5344    0.3623 H   0  0  0  0  0  0  0  0  0  0  0  0
   -5.2887    0.0933    1.2452 H   0  0  0  0  0  0  0  0  0  0  0  0
   -3.8197    1.0635    1.3961 H   0  0  0  0  0  0  0  0  0  0  0  0
   -3.1970    1.4879   -1.5417 H   0  0  0  0  0  0  0  0  0  0  0  0
   -4.8038    1.5200   -2.4469 H   0  0  0  0  0  0  0  0  0  0  0  0
   -3.9735   -0.9095   -2.2676 H   0  0  0  0  0  0  0  0  0  0  0  0
   -6.2024   -1.1992   -0.5412 H   0  0  0  0  0  0  0  0  0  0  0  0
   -6.4295   -0.5892   -2.2524 H   0  0  0  0  0  0  0  0  0  0  0  0
   -6.7602    1.5444   -1.5157 H   0  0  0  0  0  0  0  0  0  0  0  0
   -6.9744    0.8363    0.1334 H   0  0  0  0  0  0  0  0  0  0  0  0
   -0.6882    0.0000    0.0000 H   0  0  0  0  0  0  0  0  0  0  0  0
  1  2  1  0
  2  3  1  0
  3  4  1  0
  4  5  1  0
  5  6  1  0
  6  7  1  0
  7  8  1  0
  8  9  2  0
  9 10  1  0
 10 11  2  0
 11 12  1  0
 12 13  2  0
 13 14  1  0
 14 15  1  0
 15 16  1  0
 16 17  1  0
 17 18  1  0
 18 19  1  0
 19 20  1  0
 20 21  1  0
 13  8  1  0
 19 15  1  0
 21 17  1  0
  1 23  1  0
  1 24  1  0
  1 25  1  0
  2 26  1  0
  2 27  1  0
  3 28  1  0
  3 29  1  0
  4 30  1  0
  4 31  1  0
  5 32  1  0
  5 33  1  0
  6 34  1  0
  6 35  1  0
 10 36  1  0
 11 37  1  0
 15 38  1  1
 16 39  1  0
 16 40  1  0
 18 41  1  0
 18 42  1  0
 19 43  1  0
 20 44  1  0
 20 45  1  0
 21 46  1  0
 21 47  1  0
 22 48  1  0
M  END
>  <Ligand ID>  (1) 
LIG0004317

>  <Ligand>  (1) 
WAY-132983

>  <SMILES>  (1) 
CCCCCCSc1nccnc1O[C@H]1CN2CC1CC2.Cl

>  <CID>  (1) 
45260374.0

>  <ChEMBL ID>  (1) 
nan

>  <InChiKey>  (1) 
QAXRREHLPKHWBI-IJDFPQMLSA-N

>  <InChi>  (1) 
InChI=1S/C16H25N3OS.ClH/c1-2-3-4-5-10-21-16-15(17-7-8-18-16)20-14-12-19-9-6-13(14)11-19;/h7-8,13-14H,2-6,9-12H2,1H3;1H/t13?,14-;/m0./s1

>  <IUPAC Name>  (1) 
(3R)-3-(3-hexylsulfanylpyrazin-2-yl)oxy-1-azabicyclo[2.2.1]heptane;hydrochloride

$$$$
