
     RDKit          3D

 45 45  0  0  0  0  0  0  0  0999 V2000
    3.7469    0.4435    1.5899 O   0  0  0  0  0  0  0  0  0  0  0  0
    2.8138    0.6097    0.7758 C   0  0  0  0  0  0  0  0  0  0  0  0
    2.9012   -0.1244   -0.4775 C   0  0  0  0  0  0  0  0  0  0  0  0
    1.9301   -1.1928   -0.7810 C   0  0  0  0  0  0  0  0  0  0  0  0
    1.8002   -2.3420    0.1461 C   0  0  0  0  0  0  0  0  0  0  0  0
    0.8384   -3.3876   -0.3918 C   0  0  0  0  0  0  0  0  0  0  0  0
   -0.5297   -2.8937   -0.7005 C   0  0  0  0  0  0  0  0  0  0  0  0
   -1.1897   -2.3485    0.5013 C   0  0  0  0  0  0  0  0  0  0  0  0
   -2.5528   -1.6952    0.2604 C   0  0  0  0  0  0  0  0  0  0  0  0
   -2.4452   -0.6760   -0.7977 C   0  0  0  0  0  0  0  0  0  0  0  0
   -2.5708    0.6274   -0.6487 C   0  0  0  0  0  0  0  0  0  0  0  0
   -2.8546    1.2435    0.7058 C   0  0  0  0  0  0  0  0  0  0  0  0
   -1.4895    1.9355    1.0139 C   0  0  0  0  0  0  0  0  0  0  0  0
   -1.0782    2.9996    0.0909 C   0  0  0  0  0  0  0  0  0  0  0  0
    0.2974    3.5016    0.3574 C   0  0  0  0  0  0  0  0  0  0  0  0
    1.4579    2.6160    0.1716 C   0  0  0  0  0  0  0  0  0  0  0  0
    1.6736    1.5427    1.1321 C   0  0  0  0  0  0  0  0  0  0  0  0
    3.9206   -0.5503   -0.6416 H   0  0  0  0  0  0  0  0  0  0  0  0
    2.8090    0.6345   -1.3113 H   0  0  0  0  0  0  0  0  0  0  0  0
    2.2677   -1.6331   -1.7740 H   0  0  0  0  0  0  0  0  0  0  0  0
    0.8903   -0.8035   -0.9400 H   0  0  0  0  0  0  0  0  0  0  0  0
    2.7653   -2.8674    0.3478 H   0  0  0  0  0  0  0  0  0  0  0  0
    1.4267   -2.0244    1.1389 H   0  0  0  0  0  0  0  0  0  0  0  0
    0.7316   -4.1878    0.4010 H   0  0  0  0  0  0  0  0  0  0  0  0
    1.3398   -3.8973   -1.2283 H   0  0  0  0  0  0  0  0  0  0  0  0
   -1.1223   -3.8026   -1.0261 H   0  0  0  0  0  0  0  0  0  0  0  0
   -0.5775   -2.2279   -1.5891 H   0  0  0  0  0  0  0  0  0  0  0  0
   -1.4473   -3.2369    1.1552 H   0  0  0  0  0  0  0  0  0  0  0  0
   -0.5675   -1.7233    1.1672 H   0  0  0  0  0  0  0  0  0  0  0  0
   -2.9348   -1.3772    1.2305 H   0  0  0  0  0  0  0  0  0  0  0  0
   -3.2076   -2.5493   -0.0576 H   0  0  0  0  0  0  0  0  0  0  0  0
   -2.2416   -1.0482   -1.8122 H   0  0  0  0  0  0  0  0  0  0  0  0
   -2.4771    1.2475   -1.5248 H   0  0  0  0  0  0  0  0  0  0  0  0
   -3.5815    2.0510    0.6519 H   0  0  0  0  0  0  0  0  0  0  0  0
   -3.0705    0.5444    1.4877 H   0  0  0  0  0  0  0  0  0  0  0  0
   -1.5387    2.1763    2.0749 H   0  0  0  0  0  0  0  0  0  0  0  0
   -0.8001    1.0648    0.7766 H   0  0  0  0  0  0  0  0  0  0  0  0
   -1.1677    2.6208   -0.9688 H   0  0  0  0  0  0  0  0  0  0  0  0
   -1.7555    3.8888    0.1890 H   0  0  0  0  0  0  0  0  0  0  0  0
    0.2831    3.9334    1.3968 H   0  0  0  0  0  0  0  0  0  0  0  0
    0.4452    4.3902   -0.3363 H   0  0  0  0  0  0  0  0  0  0  0  0
    1.4389    2.2765   -0.9042 H   0  0  0  0  0  0  0  0  0  0  0  0
    2.4209    3.2420    0.1691 H   0  0  0  0  0  0  0  0  0  0  0  0
    2.0725    2.0929    2.0856 H   0  0  0  0  0  0  0  0  0  0  0  0
    0.9290    0.9067    1.5408 H   0  0  0  0  0  0  0  0  0  0  0  0
  1  2  2  0
  2  3  1  0
  3  4  1  0
  4  5  1  0
  5  6  1  0
  6  7  1  0
  7  8  1  0
  8  9  1  0
  9 10  1  0
 10 11  2  0
 11 12  1  0
 12 13  1  0
 13 14  1  0
 14 15  1  0
 15 16  1  0
 16 17  1  0
 17  2  1  0
  3 18  1  0
  3 19  1  0
  4 20  1  0
  4 21  1  0
  5 22  1  0
  5 23  1  0
  6 24  1  0
  6 25  1  0
  7 26  1  0
  7 27  1  0
  8 28  1  0
  8 29  1  0
  9 30  1  0
  9 31  1  0
 10 32  1  0
 11 33  1  0
 12 34  1  0
 12 35  1  0
 13 36  1  0
 13 37  1  0
 14 38  1  0
 14 39  1  0
 15 40  1  0
 15 41  1  0
 16 42  1  0
 16 43  1  0
 17 44  1  0
 17 45  1  0
M  END
>  <Ligand ID>  (1) 
LIG0000056

>  <Ligand>  (1) 
(e)-8-Cyclohexadecen-1-one

>  <SMILES>  (1) 
O=C1CCCCCCC/C=C\CCCCCC1

>  <CID>  (1) 
5362739.0

>  <ChEMBL ID>  (1) 
nan

>  <InChiKey>  (1) 
ZGEHHVDYDNXYMW-UPHRSURJSA-N

>  <InChi>  (1) 
InChI=1S/C16H28O/c17-16-14-12-10-8-6-4-2-1-3-5-7-9-11-13-15-16/h1-2H,3-15H2/b2-1-

>  <IUPAC Name>  (1) 
(8Z)-cyclohexadec-8-en-1-one

$$$$
