
     RDKit          3D

 77 79  0  0  0  0  0  0  0  0999 V2000
   -9.5770    1.9662   -0.1580 C   0  0  0  0  0  0  0  0  0  0  0  0
   -8.4684    2.5177    0.7355 C   0  0  0  0  0  0  0  0  0  0  0  0
   -7.4902    1.3526    0.9289 C   0  0  0  0  0  0  0  0  0  0  0  0
   -6.9340    0.8994   -0.4139 C   0  0  0  0  0  0  0  0  0  0  0  0
   -6.0308   -0.2064   -0.1909 N   0  0  0  0  0  0  0  0  0  0  0  0
   -4.6350   -0.0401    0.0672 C   0  0  0  0  0  0  0  0  0  0  0  0
   -3.7089   -0.0308   -0.9605 C   0  0  0  0  0  0  0  0  0  0  0  0
   -2.3555    0.1211   -0.6885 C   0  0  0  0  0  0  0  0  0  0  0  0
   -1.8602    0.2682    0.5897 C   0  0  0  0  0  0  0  0  0  0  0  0
   -2.7932    0.2579    1.6125 C   0  0  0  0  0  0  0  0  0  0  0  0
   -4.1590    0.1059    1.3488 C   0  0  0  0  0  0  0  0  0  0  0  0
   -0.4744    0.4010    0.8864 N   0  0  0  0  0  0  0  0  0  0  0  0
    0.0074    0.8902    2.1757 C   0  0  0  0  0  0  0  0  0  0  0  0
    1.2084    1.7775    2.0843 C   0  0  0  0  0  0  0  0  0  0  0  0
    2.2681    1.2609    1.1286 C   0  0  0  0  0  0  0  0  0  0  0  0
    1.5371    1.1846   -0.2294 C   0  0  0  0  0  0  0  0  0  0  0  0
    0.5724    0.0310   -0.0655 C   0  0  0  0  0  0  0  0  0  0  0  0
    2.6157   -0.0678    1.4644 N   0  0  0  0  0  0  0  0  0  0  0  0
    3.6141   -0.7433    0.7295 C   0  0  0  0  0  0  0  0  0  0  0  0
    4.9967   -0.2297    0.9534 C   0  0  1  0  0  0  0  0  0  0  0  0
    5.9735   -0.9758    0.0739 C   0  0  0  0  0  0  0  0  0  0  0  0
    5.6305   -2.1358   -0.5781 C   0  0  0  0  0  0  0  0  0  0  0  0
    6.5353   -2.7967   -1.3780 C   0  0  0  0  0  0  0  0  0  0  0  0
    7.8017   -2.2733   -1.5173 C   0  0  0  0  0  0  0  0  0  0  0  0
    8.2047   -1.0997   -0.8794 C   0  0  0  0  0  0  0  0  0  0  0  0
    7.2553   -0.4863   -0.0934 C   0  0  0  0  0  0  0  0  0  0  0  0
    9.5213   -0.6050   -1.0653 N   0  0  0  0  0  0  0  0  0  0  0  0
   10.2495    0.6236   -0.1429 S   0  0  0  0  0  0  0  0  0  0  0  0
   10.3908    0.2462    1.3057 O   0  0  0  0  0  0  0  0  0  0  0  0
   11.6567    0.9010   -0.6534 O   0  0  0  0  0  0  0  0  0  0  0  0
    9.3636    2.1549   -0.2909 C   0  0  0  0  0  0  0  0  0  0  0  0
    8.7426   -2.9324   -2.3303 O   0  0  0  0  0  0  0  0  0  0  0  0
    5.0755    1.1032    0.5890 O   0  0  0  0  0  0  0  0  0  0  0  0
   -6.4824   -1.5764   -0.2039 C   0  0  0  0  0  0  0  0  0  0  0  0
   -5.5759   -2.4376    0.0414 O   0  0  0  0  0  0  0  0  0  0  0  0
   -7.8728   -1.9619   -0.4780 C   0  0  0  0  0  0  0  0  0  0  0  0
   -7.9928   -3.4468   -0.4196 C   0  0  0  0  0  0  0  0  0  0  0  0
   -6.9932   -4.1674   -0.1512 O   0  0  0  0  0  0  0  0  0  0  0  0
   -9.2076   -4.0532   -0.6609 O   0  0  0  0  0  0  0  0  0  0  0  0
   -9.1993    2.0087   -1.1939 H   0  0  0  0  0  0  0  0  0  0  0  0
   -9.7410    0.9062    0.1466 H   0  0  0  0  0  0  0  0  0  0  0  0
  -10.5132    2.5441   -0.0246 H   0  0  0  0  0  0  0  0  0  0  0  0
   -8.8951    2.7415    1.7248 H   0  0  0  0  0  0  0  0  0  0  0  0
   -7.9878    3.3920    0.2639 H   0  0  0  0  0  0  0  0  0  0  0  0
   -6.6585    1.6966    1.5851 H   0  0  0  0  0  0  0  0  0  0  0  0
   -8.0789    0.5446    1.4039 H   0  0  0  0  0  0  0  0  0  0  0  0
   -7.7764    0.5483   -1.0660 H   0  0  0  0  0  0  0  0  0  0  0  0
   -6.4493    1.7181   -0.9479 H   0  0  0  0  0  0  0  0  0  0  0  0
   -4.0575   -0.1452   -1.9894 H   0  0  0  0  0  0  0  0  0  0  0  0
   -1.7078    0.1201   -1.5513 H   0  0  0  0  0  0  0  0  0  0  0  0
   -2.5443    0.3595    2.6573 H   0  0  0  0  0  0  0  0  0  0  0  0
   -4.8855    0.0988    2.1449 H   0  0  0  0  0  0  0  0  0  0  0  0
    0.2286    0.0813    2.8923 H   0  0  0  0  0  0  0  0  0  0  0  0
   -0.8696    1.4286    2.6157 H   0  0  0  0  0  0  0  0  0  0  0  0
    0.8477    2.7840    1.7548 H   0  0  0  0  0  0  0  0  0  0  0  0
    1.5969    1.8818    3.1294 H   0  0  0  0  0  0  0  0  0  0  0  0
    3.0709    1.9815    0.9832 H   0  0  0  0  0  0  0  0  0  0  0  0
    2.2842    0.9101   -1.0093 H   0  0  0  0  0  0  0  0  0  0  0  0
    1.0149    2.1386   -0.4499 H   0  0  0  0  0  0  0  0  0  0  0  0
    0.1526   -0.2718   -1.0376 H   0  0  0  0  0  0  0  0  0  0  0  0
    1.1512   -0.8210    0.3650 H   0  0  0  0  0  0  0  0  0  0  0  0
    2.4859   -0.3615    2.4451 H   0  0  0  0  0  0  0  0  0  0  0  0
    3.3860   -0.6872   -0.3666 H   0  0  0  0  0  0  0  0  0  0  0  0
    3.5304   -1.8337    1.0046 H   0  0  0  0  0  0  0  0  0  0  0  0
    5.2806   -0.3517    2.0283 H   0  0  0  0  0  0  0  0  0  0  0  0
    4.6502   -2.5681   -0.4918 H   0  0  0  0  0  0  0  0  0  0  0  0
    6.3114   -3.7141   -1.9113 H   0  0  0  0  0  0  0  0  0  0  0  0
    7.5021    0.4125    0.4230 H   0  0  0  0  0  0  0  0  0  0  0  0
   10.0901   -1.0455   -1.8522 H   0  0  0  0  0  0  0  0  0  0  0  0
    8.5480    2.0034   -1.0271 H   0  0  0  0  0  0  0  0  0  0  0  0
   10.0156    3.0109   -0.5688 H   0  0  0  0  0  0  0  0  0  0  0  0
    8.8570    2.3511    0.6990 H   0  0  0  0  0  0  0  0  0  0  0  0
    8.8247   -2.7144   -3.3080 H   0  0  0  0  0  0  0  0  0  0  0  0
    5.0523    1.1384   -0.4202 H   0  0  0  0  0  0  0  0  0  0  0  0
   -8.1612   -1.5707   -1.4861 H   0  0  0  0  0  0  0  0  0  0  0  0
   -8.5204   -1.5156    0.2988 H   0  0  0  0  0  0  0  0  0  0  0  0
   -9.4451   -4.9965   -0.4028 H   0  0  0  0  0  0  0  0  0  0  0  0
  1  2  1  0
  2  3  1  0
  3  4  1  0
  4  5  1  0
  5  6  1  0
  6  7  2  0
  7  8  1  0
  8  9  2  0
  9 10  1  0
 10 11  2  0
  9 12  1  0
 12 13  1  0
 13 14  1  0
 14 15  1  0
 15 16  1  0
 16 17  1  0
 15 18  1  0
 18 19  1  0
 19 20  1  0
 20 21  1  0
 21 22  2  0
 22 23  1  0
 23 24  2  0
 24 25  1  0
 25 26  2  0
 25 27  1  0
 27 28  1  0
 28 29  2  0
 28 30  2  0
 28 31  1  0
 24 32  1  0
 20 33  1  0
  5 34  1  0
 34 35  2  0
 34 36  1  0
 36 37  1  0
 37 38  2  0
 37 39  1  0
 11  6  1  0
 17 12  1  0
 26 21  1  0
  1 40  1  0
  1 41  1  0
  1 42  1  0
  2 43  1  0
  2 44  1  0
  3 45  1  0
  3 46  1  0
  4 47  1  0
  4 48  1  0
  7 49  1  0
  8 50  1  0
 10 51  1  0
 11 52  1  0
 13 53  1  0
 13 54  1  0
 14 55  1  0
 14 56  1  0
 15 57  1  0
 16 58  1  0
 16 59  1  0
 17 60  1  0
 17 61  1  0
 18 62  1  0
 19 63  1  0
 19 64  1  0
 20 65  1  1
 22 66  1  0
 23 67  1  0
 26 68  1  0
 27 69  1  0
 31 70  1  0
 31 71  1  0
 31 72  1  0
 32 73  1  0
 33 74  1  0
 36 75  1  0
 36 76  1  0
 39 77  1  0
M  END
>  <Ligand ID>  (1) 
LIG0004319

>  <Ligand>  (1) 
CHEMBL418600

>  <SMILES>  (1) 
CCCCN(c1ccc(cc1)N1CCC(CC1)NC[C@@H](c1ccc(c(c1)NS(=O)(=O)C)O)O)C(=O)CC(=O)O

>  <CID>  (1) 
10076548.0

>  <ChEMBL ID>  (1) 
nan

>  <InChiKey>  (1) 
LQEINRGWYJSJRV-VWLOTQADSA-N

>  <InChi>  (1) 
InChI=1S/C27H38N4O7S/c1-3-4-13-31(26(34)17-27(35)36)22-8-6-21(7-9-22)30-14-11-20(12-15-30)28-18-25(33)19-5-10-24(32)23(16-19)29-39(2,37)38/h5-10,16,20,25,28-29,32-33H,3-4,11-15,17-18H2,1-2H3,(H,35,36)/t25-/m0/s1

>  <IUPAC Name>  (1) 
3-[N-butyl-4-[4-[[(2R)-2-hydroxy-2-[4-hydroxy-3-(methanesulfonamido)phenyl]ethyl]amino]piperidin-1-yl]anilino]-3-oxopropanoic acid

$$$$
