
     RDKit          3D

 62 64  0  0  0  0  0  0  0  0999 V2000
    3.6979   -2.2122   -0.9774 C   0  0  0  0  0  0  0  0  0  0  0  0
    3.1646   -1.0109   -1.7096 C   0  0  1  0  0  0  0  0  0  0  0  0
    1.6685   -1.0854   -1.9026 C   0  0  0  0  0  0  0  0  0  0  0  0
    0.9126   -0.6469   -0.7514 N   0  0  0  0  0  0  0  0  0  0  0  0
    1.4206    0.4067    0.1007 C   0  0  0  0  0  0  0  0  0  0  0  0
    2.5203    1.1197   -0.6034 C   0  0  0  0  0  0  0  0  0  0  0  0
    3.5650    0.2365   -1.0855 N   0  0  0  0  0  0  0  0  0  0  0  0
    4.9522    0.5361   -0.9746 C   0  0  0  0  0  0  0  0  0  0  0  0
    5.8331   -0.2789   -1.4167 O   0  0  0  0  0  0  0  0  0  0  0  0
    5.4051    1.7051   -0.3922 O   0  0  0  0  0  0  0  0  0  0  0  0
    6.8330    1.8505   -0.3609 C   0  0  0  0  0  0  0  0  0  0  0  0
    7.3021    1.8230   -1.7914 C   0  0  0  0  0  0  0  0  0  0  0  0
    7.2679    3.0855    0.3590 C   0  0  0  0  0  0  0  0  0  0  0  0
    7.3584    0.6358    0.4083 C   0  0  0  0  0  0  0  0  0  0  0  0
   -0.3543   -1.2762   -0.4663 C   0  0  0  0  0  0  0  0  0  0  0  0
   -1.0444   -0.8595    0.6004 N   0  0  0  0  0  0  0  0  0  0  0  0
   -2.2362   -1.4378    0.8853 C   0  0  0  0  0  0  0  0  0  0  0  0
   -2.7791   -2.4456    0.1214 C   0  0  0  0  0  0  0  0  0  0  0  0
   -1.9901   -2.8261   -0.9827 C   0  0  0  0  0  0  0  0  0  0  0  0
   -0.8145   -2.2402   -1.2450 N   0  0  0  0  0  0  0  0  0  0  0  0
   -3.9356   -3.0898    0.2959 O   0  0  0  0  0  0  0  0  0  0  0  0
   -4.9934   -3.0879    1.1502 C   0  0  0  0  0  0  0  0  0  0  0  0
   -5.7325   -1.8161    1.1857 C   0  0  0  0  0  0  0  0  0  0  0  0
   -5.5587   -0.7995    2.0790 C   0  0  0  0  0  0  0  0  0  0  0  0
   -6.3237    0.3661    1.9960 C   0  0  0  0  0  0  0  0  0  0  0  0
   -7.2792    0.5201    1.0045 C   0  0  0  0  0  0  0  0  0  0  0  0
   -7.4605   -0.4979    0.1022 C   0  0  0  0  0  0  0  0  0  0  0  0
   -6.7034   -1.6253    0.2019 C   0  0  0  0  0  0  0  0  0  0  0  0
   -8.2631    1.9564    0.8549 S   0  0  0  0  0  0  0  0  0  0  0  0
   -8.4624    2.6233    2.1851 O   0  0  0  0  0  0  0  0  0  0  0  0
   -9.5618    1.5672    0.2208 O   0  0  0  0  0  0  0  0  0  0  0  0
   -7.4237    3.1222   -0.2091 C   0  0  0  0  0  0  0  0  0  0  0  0
    4.2056   -1.9398   -0.0241 H   0  0  0  0  0  0  0  0  0  0  0  0
    2.9309   -2.9942   -0.7951 H   0  0  0  0  0  0  0  0  0  0  0  0
    4.4986   -2.7562   -1.5590 H   0  0  0  0  0  0  0  0  0  0  0  0
    3.5758   -1.0851   -2.7593 H   0  0  0  0  0  0  0  0  0  0  0  0
    1.4408   -2.1782   -2.0508 H   0  0  0  0  0  0  0  0  0  0  0  0
    1.3634   -0.5345   -2.7913 H   0  0  0  0  0  0  0  0  0  0  0  0
    1.6501    0.0707    1.1124 H   0  0  0  0  0  0  0  0  0  0  0  0
    0.5708    1.1437    0.1953 H   0  0  0  0  0  0  0  0  0  0  0  0
    2.0894    1.6241   -1.5034 H   0  0  0  0  0  0  0  0  0  0  0  0
    2.9693    1.8784    0.0746 H   0  0  0  0  0  0  0  0  0  0  0  0
    6.4745    2.0913   -2.4787 H   0  0  0  0  0  0  0  0  0  0  0  0
    7.7851    0.8462   -2.0489 H   0  0  0  0  0  0  0  0  0  0  0  0
    8.0958    2.5959   -1.9171 H   0  0  0  0  0  0  0  0  0  0  0  0
    7.4101    3.8928   -0.4177 H   0  0  0  0  0  0  0  0  0  0  0  0
    8.2955    2.9285    0.7774 H   0  0  0  0  0  0  0  0  0  0  0  0
    6.5687    3.4899    1.0909 H   0  0  0  0  0  0  0  0  0  0  0  0
    6.5588    0.1050    0.9293 H   0  0  0  0  0  0  0  0  0  0  0  0
    7.8724   -0.0762   -0.2699 H   0  0  0  0  0  0  0  0  0  0  0  0
    8.1173    0.9614    1.1473 H   0  0  0  0  0  0  0  0  0  0  0  0
   -2.7481   -1.0818    1.7452 H   0  0  0  0  0  0  0  0  0  0  0  0
   -2.3224   -3.6109   -1.6515 H   0  0  0  0  0  0  0  0  0  0  0  0
   -4.7296   -3.3925    2.2049 H   0  0  0  0  0  0  0  0  0  0  0  0
   -5.7211   -3.8959    0.8140 H   0  0  0  0  0  0  0  0  0  0  0  0
   -4.8236   -0.9170    2.8545 H   0  0  0  0  0  0  0  0  0  0  0  0
   -6.1965    1.1799    2.6969 H   0  0  0  0  0  0  0  0  0  0  0  0
   -8.2097   -0.3888   -0.6829 H   0  0  0  0  0  0  0  0  0  0  0  0
   -6.8858   -2.4091   -0.5419 H   0  0  0  0  0  0  0  0  0  0  0  0
   -6.3364    2.9782   -0.1128 H   0  0  0  0  0  0  0  0  0  0  0  0
   -7.7862    3.0127   -1.2547 H   0  0  0  0  0  0  0  0  0  0  0  0
   -7.6983    4.1438    0.1026 H   0  0  0  0  0  0  0  0  0  0  0  0
  1  2  1  0
  2  3  1  0
  3  4  1  0
  4  5  1  0
  5  6  1  0
  6  7  1  0
  7  8  1  0
  8  9  2  0
  8 10  1  0
 10 11  1  0
 11 12  1  0
 11 13  1  0
 11 14  1  0
  4 15  1  0
 15 16  2  0
 16 17  1  0
 17 18  2  0
 18 19  1  0
 19 20  2  0
 18 21  1  0
 21 22  1  0
 22 23  1  0
 23 24  2  0
 24 25  1  0
 25 26  2  0
 26 27  1  0
 27 28  2  0
 26 29  1  0
 29 30  2  0
 29 31  2  0
 29 32  1  0
  7  2  1  0
 20 15  1  0
 28 23  1  0
  1 33  1  0
  1 34  1  0
  1 35  1  0
  2 36  1  6
  3 37  1  0
  3 38  1  0
  5 39  1  0
  5 40  1  0
  6 41  1  0
  6 42  1  0
 12 43  1  0
 12 44  1  0
 12 45  1  0
 13 46  1  0
 13 47  1  0
 13 48  1  0
 14 49  1  0
 14 50  1  0
 14 51  1  0
 17 52  1  0
 19 53  1  0
 22 54  1  0
 22 55  1  0
 24 56  1  0
 25 57  1  0
 27 58  1  0
 28 59  1  0
 32 60  1  0
 32 61  1  0
 32 62  1  0
M  END
>  <Ligand ID>  (1) 
LIG0005541

>  <Ligand>  (1) 
CHEMBL2086662

>  <SMILES>  (1) 
C[C@H]1CN(CCN1C(=O)OC(C)(C)C)c1ncc(cn1)OCc1ccc(cc1)S(=O)(=O)C

>  <CID>  (1) 
58190347.0

>  <ChEMBL ID>  (1) 
nan

>  <InChiKey>  (1) 
XEKZYGCNVPYPIU-INIZCTEOSA-N

>  <InChi>  (1) 
InChI=1S/C22H30N4O5S/c1-16-14-25(10-11-26(16)21(27)31-22(2,3)4)20-23-12-18(13-24-20)30-15-17-6-8-19(9-7-17)32(5,28)29/h6-9,12-13,16H,10-11,14-15H2,1-5H3/t16-/m0/s1

>  <IUPAC Name>  (1) 
tert-butyl (2S)-2-methyl-4-[5-[(4-methylsulfonylphenyl)methoxy]pyrimidin-2-yl]piperazine-1-carboxylate

$$$$
