
     RDKit          3D

182189  0  0  0  0  0  0  0  0999 V2000
  -10.5138    5.6677    0.9713 O   0  0  0  0  0  0  0  0  0  0  0  0
   -9.3054    5.0135    0.8709 C   0  0  0  0  0  0  0  0  0  0  0  0
   -9.2589    3.7174    0.3583 C   0  0  0  0  0  0  0  0  0  0  0  0
   -8.0281    3.1301    0.2878 C   0  0  0  0  0  0  0  0  0  0  0  0
   -6.8765    3.8068    0.7141 C   0  0  0  0  0  0  0  0  0  0  0  0
   -6.9370    5.0923    1.2218 C   0  0  0  0  0  0  0  0  0  0  0  0
   -8.1810    5.6820    1.2905 C   0  0  0  0  0  0  0  0  0  0  0  0
   -5.5672    3.1682    0.6145 C   0  0  0  0  0  0  0  0  0  0  0  0
   -5.1010    2.4086    1.8438 C   0  0  2  0  0  0  0  0  0  0  0  0
   -3.8265    1.8609    1.5778 N   0  0  0  0  0  0  0  0  0  0  0  0
   -3.6705    0.8195    0.6609 C   0  0  0  0  0  0  0  0  0  0  0  0
   -2.4340    0.5973    0.4760 O   0  0  0  0  0  0  0  0  0  0  0  0
   -4.5833   -0.0176   -0.0961 C   0  0  0  0  0  0  0  0  0  0  0  0
   -3.8291   -1.1200   -0.8552 C   0  0  2  0  0  0  0  0  0  0  0  0
   -4.8110   -1.8149   -1.6630 N   0  0  0  0  0  0  0  0  0  0  0  0
   -5.2971   -1.3158   -2.9037 C   0  0  0  0  0  0  0  0  0  0  0  0
   -4.8920   -0.2058   -3.3437 O   0  0  0  0  0  0  0  0  0  0  0  0
   -6.2820   -2.0540   -3.7217 C   0  0  2  0  0  0  0  0  0  0  0  0
   -7.7028   -1.8103   -3.1644 C   0  0  0  0  0  0  0  0  0  0  0  0
   -7.8592   -2.2758   -1.7885 C   0  0  0  0  0  0  0  0  0  0  0  0
   -7.7188   -1.5347   -0.6455 C   0  0  0  0  0  0  0  0  0  0  0  0
   -7.8662   -2.1326    0.6051 C   0  0  0  0  0  0  0  0  0  0  0  0
   -8.1550   -3.4721    0.7629 C   0  0  0  0  0  0  0  0  0  0  0  0
   -8.2961   -4.2153   -0.3866 C   0  0  0  0  0  0  0  0  0  0  0  0
   -8.1531   -3.6348   -1.6105 C   0  0  0  0  0  0  0  0  0  0  0  0
   -8.2949   -4.0287    2.0230 O   0  0  0  0  0  0  0  0  0  0  0  0
   -6.0483   -3.5016   -3.6315 N   0  0  0  0  0  0  0  0  0  0  0  0
   -3.1023   -2.0611   -0.0201 C   0  0  0  0  0  0  0  0  0  0  0  0
   -2.3748   -1.8255    0.9623 O   0  0  0  0  0  0  0  0  0  0  0  0
   -3.1441   -3.5180   -0.2752 N   0  0  0  0  0  0  0  0  0  0  0  0
   -2.5367   -4.4510    0.6441 C   0  0  1  0  0  0  0  0  0  0  0  0
   -3.2989   -5.7020    0.8852 C   0  0  0  0  0  0  0  0  0  0  0  0
   -3.5539   -6.5463   -0.3065 C   0  0  0  0  0  0  0  0  0  0  0  0
   -4.6420   -6.4416   -1.1026 N   0  0  0  0  0  0  0  0  0  0  0  0
   -4.4623   -7.3930   -2.0459 C   0  0  0  0  0  0  0  0  0  0  0  0
   -3.3130   -8.0540   -1.8384 N   0  0  0  0  0  0  0  0  0  0  0  0
   -2.7111   -7.5376   -0.7372 C   0  0  0  0  0  0  0  0  0  0  0  0
   -1.0714   -4.6490    0.4163 C   0  0  0  0  0  0  0  0  0  0  0  0
   -0.4156   -5.4734    1.0667 O   0  0  0  0  0  0  0  0  0  0  0  0
   -0.3251   -3.9129   -0.5547 N   0  0  0  0  0  0  0  0  0  0  0  0
    1.1399   -4.1035   -0.7023 C   0  0  2  0  0  0  0  0  0  0  0  0
    1.4187   -5.4214   -1.3188 C   0  0  0  0  0  0  0  0  0  0  0  0
    2.8361   -5.7522   -1.5074 C   0  0  0  0  0  0  0  0  0  0  0  0
    3.5959   -5.3669   -2.5871 C   0  0  0  0  0  0  0  0  0  0  0  0
    4.9017   -5.7453   -2.7224 C   0  0  0  0  0  0  0  0  0  0  0  0
    5.5062   -6.5456   -1.7518 C   0  0  0  0  0  0  0  0  0  0  0  0
    4.7543   -6.9339   -0.6711 C   0  0  0  0  0  0  0  0  0  0  0  0
    3.4374   -6.5565   -0.5270 C   0  0  0  0  0  0  0  0  0  0  0  0
    1.8144   -3.8124    0.5805 C   0  0  0  0  0  0  0  0  0  0  0  0
    1.2283   -3.6200    1.6650 O   0  0  0  0  0  0  0  0  0  0  0  0
    3.2501   -3.7108    0.7075 N   0  0  0  0  0  0  0  0  0  0  0  0
    3.9183   -3.4833    1.9678 C   0  0  1  0  0  0  0  0  0  0  0  0
    4.6944   -4.7847    2.2560 C   0  0  0  0  0  0  0  0  0  0  0  0
    4.9744   -2.4324    1.8998 C   0  0  0  0  0  0  0  0  0  0  0  0
    5.7517   -2.1851    2.8360 O   0  0  0  0  0  0  0  0  0  0  0  0
    5.1741   -1.6177    0.7414 N   0  0  0  0  0  0  0  0  0  0  0  0
    6.2904   -0.6376    0.6599 C   0  0  2  0  0  0  0  0  0  0  0  0
    5.7350    0.7398    0.8222 C   0  0  0  0  0  0  0  0  0  0  0  0
    4.5276    0.8598    0.9948 O   0  0  0  0  0  0  0  0  0  0  0  0
    6.5157    1.9127    0.7876 N   0  0  0  0  0  0  0  0  0  0  0  0
    6.1300    3.2768    0.9258 C   0  0  2  0  0  0  0  0  0  0  0  0
    4.9829    3.6147    1.7674 C   0  0  0  0  0  0  0  0  0  0  0  0
    4.3901    2.8292    2.5441 O   0  0  0  0  0  0  0  0  0  0  0  0
    4.3879    4.9290    1.7935 N   0  0  0  0  0  0  0  0  0  0  0  0
    3.3438    5.3290    2.6945 C   0  0  2  0  0  0  0  0  0  0  0  0
    1.9688    5.2528    2.1936 C   0  0  0  0  0  0  0  0  0  0  0  0
    1.0062    5.8027    2.7607 O   0  0  0  0  0  0  0  0  0  0  0  0
    1.5842    4.5286    1.0008 N   0  0  0  0  0  0  0  0  0  0  0  0
    0.1933    4.4874    0.5613 C   0  0  2  0  0  0  0  0  0  0  0  0
   -0.6194    3.6469    1.4821 C   0  0  0  0  0  0  0  0  0  0  0  0
   -0.1331    3.3624    2.5816 O   0  0  0  0  0  0  0  0  0  0  0  0
   -1.9143    3.1363    1.2156 N   0  0  0  0  0  0  0  0  0  0  0  0
   -2.6113    2.3473    2.2562 C   0  0  1  0  0  0  0  0  0  0  0  0
   -2.8789    3.3079    3.3598 C   0  0  0  0  0  0  0  0  0  0  0  0
   -1.8019    1.2221    2.7423 C   0  0  0  0  0  0  0  0  0  0  0  0
   -2.2463    0.4784    3.6881 O   0  0  0  0  0  0  0  0  0  0  0  0
   -0.5533    0.8611    2.2632 O   0  0  0  0  0  0  0  0  0  0  0  0
    0.0890    4.1679   -0.8739 C   0  0  0  0  0  0  0  0  0  0  0  0
    0.7682    5.2100   -1.6961 C   0  0  0  0  0  0  0  0  0  0  0  0
    2.0803    5.1677   -2.0863 C   0  0  0  0  0  0  0  0  0  0  0  0
    2.5688    6.2136   -2.8574 C   0  0  0  0  0  0  0  0  0  0  0  0
    1.7936    7.2781   -3.2399 C   0  0  0  0  0  0  0  0  0  0  0  0
    0.4653    7.3305   -2.8499 C   0  0  0  0  0  0  0  0  0  0  0  0
   -0.0095    6.2870   -2.0844 C   0  0  0  0  0  0  0  0  0  0  0  0
    3.6728    6.6888    3.2563 C   0  0  0  0  0  0  0  0  0  0  0  0
    6.3002    4.0981   -0.2839 C   0  0  0  0  0  0  0  0  0  0  0  0
    5.5349    3.6426   -1.4650 C   0  0  0  0  0  0  0  0  0  0  0  0
    4.7836    2.6336   -1.4663 O   0  0  0  0  0  0  0  0  0  0  0  0
    5.6273    4.3610   -2.6913 N   0  0  0  0  0  0  0  0  0  0  0  0
    7.0068   -0.8930   -0.6193 C   0  0  0  0  0  0  0  0  0  0  0  0
    8.1626   -0.0635   -0.9450 C   0  0  0  0  0  0  0  0  0  0  0  0
    8.1987    0.9396   -1.9285 C   0  0  0  0  0  0  0  0  0  0  0  0
    9.4098    1.4831   -1.9928 N   0  0  0  0  0  0  0  0  0  0  0  0
   10.1752    0.8543   -1.0648 C   0  0  0  0  0  0  0  0  0  0  0  0
    9.4481   -0.0998   -0.4030 C   0  0  0  0  0  0  0  0  0  0  0  0
    9.9713   -0.8867    0.5888 C   0  0  0  0  0  0  0  0  0  0  0  0
   11.3046   -0.7161    0.9472 C   0  0  0  0  0  0  0  0  0  0  0  0
   12.0829    0.2425    0.2997 C   0  0  0  0  0  0  0  0  0  0  0  0
   11.4942    1.0151   -0.7033 C   0  0  0  0  0  0  0  0  0  0  0  0
   -6.0917    1.5247    2.4694 C   0  0  0  0  0  0  0  0  0  0  0  0
   -7.2771    1.8870    2.5243 O   0  0  0  0  0  0  0  0  0  0  0  0
   -5.7787    0.2451    3.0350 N   0  0  0  0  0  0  0  0  0  0  0  0
  -10.6268    6.5230    0.4160 H   0  0  0  0  0  0  0  0  0  0  0  0
  -10.1881    3.2545    0.0452 H   0  0  0  0  0  0  0  0  0  0  0  0
   -7.9831    2.1264   -0.1133 H   0  0  0  0  0  0  0  0  0  0  0  0
   -6.0328    5.5668    1.5380 H   0  0  0  0  0  0  0  0  0  0  0  0
   -8.2109    6.7013    1.6960 H   0  0  0  0  0  0  0  0  0  0  0  0
   -5.5531    2.5928   -0.3129 H   0  0  0  0  0  0  0  0  0  0  0  0
   -4.8063    4.0172    0.4882 H   0  0  0  0  0  0  0  0  0  0  0  0
   -4.9798    3.2485    2.6144 H   0  0  0  0  0  0  0  0  0  0  0  0
   -5.1508    0.4944   -0.8894 H   0  0  0  0  0  0  0  0  0  0  0  0
   -5.3097   -0.5088    0.5498 H   0  0  0  0  0  0  0  0  0  0  0  0
   -3.1492   -0.5877   -1.5490 H   0  0  0  0  0  0  0  0  0  0  0  0
   -5.2378   -2.7426   -1.3672 H   0  0  0  0  0  0  0  0  0  0  0  0
   -6.3128   -1.7968   -4.7799 H   0  0  0  0  0  0  0  0  0  0  0  0
   -7.8828   -0.6987   -3.1606 H   0  0  0  0  0  0  0  0  0  0  0  0
   -8.4796   -2.2513   -3.7965 H   0  0  0  0  0  0  0  0  0  0  0  0
   -7.4888   -0.4896   -0.7520 H   0  0  0  0  0  0  0  0  0  0  0  0
   -7.7587   -1.5528    1.5270 H   0  0  0  0  0  0  0  0  0  0  0  0
   -8.5249   -5.2774   -0.2912 H   0  0  0  0  0  0  0  0  0  0  0  0
   -8.2765   -4.2726   -2.4850 H   0  0  0  0  0  0  0  0  0  0  0  0
   -8.0400   -5.0025    2.0951 H   0  0  0  0  0  0  0  0  0  0  0  0
   -5.1230   -3.6955   -4.1250 H   0  0  0  0  0  0  0  0  0  0  0  0
   -6.7740   -3.9269   -4.2897 H   0  0  0  0  0  0  0  0  0  0  0  0
   -3.6127   -3.7535   -1.1335 H   0  0  0  0  0  0  0  0  0  0  0  0
   -2.5959   -3.8814    1.6467 H   0  0  0  0  0  0  0  0  0  0  0  0
   -4.2979   -5.4128    1.2947 H   0  0  0  0  0  0  0  0  0  0  0  0
   -2.7812   -6.3270    1.6323 H   0  0  0  0  0  0  0  0  0  0  0  0
   -5.1871   -7.5442   -2.8365 H   0  0  0  0  0  0  0  0  0  0  0  0
   -2.9506   -8.8342   -2.4286 H   0  0  0  0  0  0  0  0  0  0  0  0
   -1.7666   -7.8296   -0.2769 H   0  0  0  0  0  0  0  0  0  0  0  0
   -0.8653   -3.2663   -1.1224 H   0  0  0  0  0  0  0  0  0  0  0  0
    1.4453   -3.2561   -1.3772 H   0  0  0  0  0  0  0  0  0  0  0  0
    0.9783   -5.4226   -2.3650 H   0  0  0  0  0  0  0  0  0  0  0  0
    0.8828   -6.2351   -0.7717 H   0  0  0  0  0  0  0  0  0  0  0  0
    3.1046   -4.7490   -3.3280 H   0  0  0  0  0  0  0  0  0  0  0  0
    5.4722   -5.4289   -3.5789 H   0  0  0  0  0  0  0  0  0  0  0  0
    6.5304   -6.8319   -1.8769 H   0  0  0  0  0  0  0  0  0  0  0  0
    5.1610   -7.5594    0.1260 H   0  0  0  0  0  0  0  0  0  0  0  0
    2.8713   -6.8720    0.3324 H   0  0  0  0  0  0  0  0  0  0  0  0
    3.7609   -3.7918   -0.1631 H   0  0  0  0  0  0  0  0  0  0  0  0
    3.2173   -3.3393    2.8218 H   0  0  0  0  0  0  0  0  0  0  0  0
    5.3560   -5.0008    1.3738 H   0  0  0  0  0  0  0  0  0  0  0  0
    5.3527   -4.6643    3.1150 H   0  0  0  0  0  0  0  0  0  0  0  0
    3.9860   -5.6128    2.4450 H   0  0  0  0  0  0  0  0  0  0  0  0
    4.5027   -1.7601   -0.0106 H   0  0  0  0  0  0  0  0  0  0  0  0
    6.9211   -0.8382    1.5327 H   0  0  0  0  0  0  0  0  0  0  0  0
    7.5372    1.7241    0.6584 H   0  0  0  0  0  0  0  0  0  0  0  0
    6.9925    3.6810    1.6458 H   0  0  0  0  0  0  0  0  0  0  0  0
    4.7433    5.5864    1.1194 H   0  0  0  0  0  0  0  0  0  0  0  0
    3.3373    4.6379    3.6025 H   0  0  0  0  0  0  0  0  0  0  0  0
    2.3660    4.0770    0.5312 H   0  0  0  0  0  0  0  0  0  0  0  0
   -0.2687    5.5209    0.7753 H   0  0  0  0  0  0  0  0  0  0  0  0
   -2.2992    3.3416    0.3009 H   0  0  0  0  0  0  0  0  0  0  0  0
   -1.9495    3.3767    3.9719 H   0  0  0  0  0  0  0  0  0  0  0  0
   -3.0443    4.3670    3.0130 H   0  0  0  0  0  0  0  0  0  0  0  0
   -3.6527    2.9781    4.0918 H   0  0  0  0  0  0  0  0  0  0  0  0
   -0.2708   -0.1070    2.2518 H   0  0  0  0  0  0  0  0  0  0  0  0
   -0.9597    4.0111   -1.2232 H   0  0  0  0  0  0  0  0  0  0  0  0
    0.6862    3.2265   -1.0516 H   0  0  0  0  0  0  0  0  0  0  0  0
    2.6904    4.3311   -1.7952 H   0  0  0  0  0  0  0  0  0  0  0  0
    3.6022    6.2241   -3.1852 H   0  0  0  0  0  0  0  0  0  0  0  0
    2.1791    8.0986   -3.8473 H   0  0  0  0  0  0  0  0  0  0  0  0
   -0.1451    8.1777   -3.1542 H   0  0  0  0  0  0  0  0  0  0  0  0
   -1.0699    6.3696   -1.8032 H   0  0  0  0  0  0  0  0  0  0  0  0
    4.7295    6.6173    3.6344 H   0  0  0  0  0  0  0  0  0  0  0  0
    3.6820    7.4095    2.4322 H   0  0  0  0  0  0  0  0  0  0  0  0
    2.9951    6.9555    4.0977 H   0  0  0  0  0  0  0  0  0  0  0  0
    7.4048    4.0534   -0.6108 H   0  0  0  0  0  0  0  0  0  0  0  0
    6.1802    5.1690   -0.0562 H   0  0  0  0  0  0  0  0  0  0  0  0
    6.3484    5.1127   -2.8463 H   0  0  0  0  0  0  0  0  0  0  0  0
    4.9832    4.1740   -3.4925 H   0  0  0  0  0  0  0  0  0  0  0  0
    6.2897   -0.8519   -1.4875 H   0  0  0  0  0  0  0  0  0  0  0  0
    7.2807   -1.9982   -0.6011 H   0  0  0  0  0  0  0  0  0  0  0  0
    7.3358    1.1941   -2.5197 H   0  0  0  0  0  0  0  0  0  0  0  0
    9.6910    2.2572   -2.6504 H   0  0  0  0  0  0  0  0  0  0  0  0
    9.4196   -1.6315    1.1141 H   0  0  0  0  0  0  0  0  0  0  0  0
   11.7373   -1.3333    1.7282 H   0  0  0  0  0  0  0  0  0  0  0  0
   13.1061    0.3852    0.5608 H   0  0  0  0  0  0  0  0  0  0  0  0
   12.0797    1.7711   -1.2217 H   0  0  0  0  0  0  0  0  0  0  0  0
   -4.8222   -0.1249    3.1112 H   0  0  0  0  0  0  0  0  0  0  0  0
   -6.5454   -0.3838    3.4035 H   0  0  0  0  0  0  0  0  0  0  0  0
  1  2  1  0
  2  3  2  0
  3  4  1  0
  4  5  2  0
  5  6  1  0
  6  7  2  0
  5  8  1  0
  8  9  1  0
  9 10  1  0
 10 11  1  0
 11 12  2  0
 11 13  1  0
 13 14  1  0
 14 15  1  0
 15 16  1  0
 16 17  2  0
 16 18  1  0
 18 19  1  0
 19 20  1  0
 20 21  2  0
 21 22  1  0
 22 23  2  0
 23 24  1  0
 24 25  2  0
 23 26  1  0
 18 27  1  0
 14 28  1  0
 28 29  2  0
 28 30  1  0
 30 31  1  0
 31 32  1  0
 32 33  1  0
 33 34  1  0
 34 35  2  0
 35 36  1  0
 36 37  1  0
 31 38  1  0
 38 39  2  0
 38 40  1  0
 40 41  1  0
 41 42  1  0
 42 43  1  0
 43 44  2  0
 44 45  1  0
 45 46  2  0
 46 47  1  0
 47 48  2  0
 41 49  1  0
 49 50  2  0
 49 51  1  0
 51 52  1  0
 52 53  1  0
 52 54  1  0
 54 55  2  0
 54 56  1  0
 56 57  1  0
 57 58  1  0
 58 59  2  0
 58 60  1  0
 60 61  1  0
 61 62  1  0
 62 63  2  0
 62 64  1  0
 64 65  1  0
 65 66  1  0
 66 67  2  0
 66 68  1  0
 68 69  1  0
 69 70  1  0
 70 71  2  0
 70 72  1  0
 72 73  1  0
 73 74  1  1
 73 75  1  0
 75 76  2  0
 75 77  1  0
 69 78  1  0
 78 79  1  0
 79 80  2  0
 80 81  1  0
 81 82  2  0
 82 83  1  0
 83 84  2  0
 65 85  1  0
 61 86  1  0
 86 87  1  0
 87 88  2  0
 87 89  1  0
 57 90  1  0
 90 91  1  0
 91 92  2  0
 92 93  1  0
 93 94  1  0
 94 95  2  0
 95 96  1  0
 96 97  2  0
 97 98  1  0
 98 99  2  0
  9100  1  0
100101  2  0
100102  1  0
  7  2  1  0
 73 10  1  0
 84 79  1  0
 95 91  1  0
 25 20  1  0
 37 33  2  0
 48 43  1  0
 99 94  1  0
  1103  1  0
  3104  1  0
  4105  1  0
  6106  1  0
  7107  1  0
  8108  1  0
  8109  1  0
  9110  1  1
 13111  1  0
 13112  1  0
 14113  1  6
 15114  1  0
 18115  1  6
 19116  1  0
 19117  1  0
 21118  1  0
 22119  1  0
 24120  1  0
 25121  1  0
 26122  1  0
 27123  1  0
 27124  1  0
 30125  1  0
 31126  1  1
 32127  1  0
 32128  1  0
 35129  1  0
 36130  1  0
 37131  1  0
 40132  1  0
 41133  1  6
 42134  1  0
 42135  1  0
 44136  1  0
 45137  1  0
 46138  1  0
 47139  1  0
 48140  1  0
 51141  1  0
 52142  1  1
 53143  1  0
 53144  1  0
 53145  1  0
 56146  1  0
 57147  1  1
 60148  1  0
 61149  1  1
 64150  1  0
 65151  1  1
 68152  1  0
 69153  1  6
 72154  1  0
 74155  1  0
 74156  1  0
 74157  1  0
 77158  1  0
 78159  1  0
 78160  1  0
 80161  1  0
 81162  1  0
 82163  1  0
 83164  1  0
 84165  1  0
 85166  1  0
 85167  1  0
 85168  1  0
 86169  1  0
 86170  1  0
 89171  1  0
 89172  1  0
 90173  1  0
 90174  1  0
 92175  1  0
 93176  1  0
 96177  1  0
 97178  1  0
 98179  1  0
 99180  1  0
102181  1  0
102182  1  0
M  END
>  <Ligand ID>  (1) 
LIG0001155

>  <Ligand>  (1) 
CHEMBL2369969

>  <SMILES>  (1) 
Oc1ccc(cc1)C[C@H](N1C(=O)C[C@H](NC(=O)[C@H](Cc2ccc(cc2)O)N)C(=O)N[C@@H](Cc2nc[nH]c2)C(=O)N[C@H](Cc2ccccc2)C(=O)N[C@@H](C)C(=O)N[C@H](C(=O)N[C@H](C(=O)N[C@H](C(=O)N[C@H](C(=O)N[C@]1(C)C(=O)O)Cc1ccccc1)C)CC(=O)N)Cc1c[nH]c2c1cccc2)C(=O)N

>  <CID>  (1) 
73350033.0

>  <ChEMBL ID>  (1) 
nan

>  <InChiKey>  (1) 
IJMHIZWJFPYSHW-QSPZJIFHSA-N

>  <InChi>  (1) 
InChI=1S/C70H80N16O16/c1-37-60(92)79-51(28-40-14-8-5-9-15-40)68(100)85-70(3,69(101)102)86(56(59(73)91)29-42-20-24-46(88)25-21-42)58(90)33-55(81-62(94)48(71)26-41-18-22-45(87)23-19-41)67(99)83-53(31-44-35-74-36-76-44)66(98)82-50(27-39-12-6-4-7-13-39)63(95)77-38(2)61(93)80-52(30-43-34-75-49-17-11-10-16-47(43)49)65(97)84-54(32-57(72)89)64(96)78-37/h4-25,34-38,48,50-56,75,87-88H,26-33,71H2,1-3H3,(H2,72,89)(H2,73,91)(H,74,76)(H,77,95)(H,78,96)(H,79,92)(H,80,93)(H,81,94)(H,82,98)(H,83,99)(H,84,97)(H,85,100)(H,101,102)/t37-,38-,48-,50+,51-,52-,53-,54-,55-,56-,70-/m0/s1

>  <IUPAC Name>  (1) 
(2S,5S,8S,11S,14S,17S,20R,23S,26S)-1-[(2S)-1-amino-3-(4-hydroxyphenyl)-1-oxopropan-2-yl]-26-[[(2S)-2-amino-3-(4-hydroxyphenyl)propanoyl]amino]-11-(2-amino-2-oxoethyl)-5,20-dibenzyl-23-(1H-imidazol-4-ylmethyl)-14-(1H-indol-3-ylmethyl)-2,8,17-trimethyl-4,7,10,13,16,19,22,25,28-nonaoxo-1,3,6,9,12,15,18,21,24-nonazacyclooctacosane-2-carboxylic acid

$$$$
