
     RDKit          3D

 45 46  0  0  0  0  0  0  0  0999 V2000
   -6.4569    1.9756    1.7174 C   0  0  0  0  0  0  0  0  0  0  0  0
   -6.4099    0.6202    1.0168 C   0  0  0  0  0  0  0  0  0  0  0  0
   -5.0738    0.4258    0.6405 O   0  0  0  0  0  0  0  0  0  0  0  0
   -4.5432   -0.6523   -0.0136 C   0  0  0  0  0  0  0  0  0  0  0  0
   -5.3300   -1.5981   -0.3237 O   0  0  0  0  0  0  0  0  0  0  0  0
   -3.1581   -0.6993   -0.3286 N   0  0  0  0  0  0  0  0  0  0  0  0
   -2.3268    0.4178    0.0519 C   0  0  0  0  0  0  0  0  0  0  0  0
   -0.8509    0.1962   -0.2327 C   0  0  0  0  0  0  0  0  0  0  0  0
   -0.5616   -0.4487   -1.5385 C   0  0  0  0  0  0  0  0  0  0  0  0
   -1.7641   -1.1386   -2.1737 C   0  0  0  0  0  0  0  0  0  0  0  0
   -2.5258   -1.8034   -1.0170 C   0  0  0  0  0  0  0  0  0  0  0  0
    0.4641   -1.4249   -1.4526 N   0  0  0  0  0  0  0  0  0  0  0  0
    1.8012   -1.0667   -1.2900 C   0  0  0  0  0  0  0  0  0  0  0  0
    2.1829   -0.4728    0.0170 C   0  0  0  0  0  0  0  0  0  0  0  0
    3.6439   -0.2115   -0.0514 N   0  0  0  0  0  0  0  0  0  0  0  0
    4.2096    0.3690    1.0942 C   0  0  0  0  0  0  0  0  0  0  0  0
    3.5788    0.6701    2.1399 O   0  0  0  0  0  0  0  0  0  0  0  0
    5.6413    0.6512    1.0808 C   0  0  0  0  0  0  0  0  0  0  0  0
    6.5982    0.4505    0.1126 C   0  0  0  0  0  0  0  0  0  0  0  0
    7.8473    0.7894    0.3199 C   0  0  0  0  0  0  0  0  0  0  0  0
    8.2183    1.3667    1.5495 C   0  0  0  0  0  0  0  0  0  0  0  0
    6.5566    1.3997    2.4593 S   0  0  0  0  0  0  0  0  0  0  0  0
   -6.2159    2.7976    1.0110 H   0  0  0  0  0  0  0  0  0  0  0  0
   -5.6764    2.0259    2.5256 H   0  0  0  0  0  0  0  0  0  0  0  0
   -7.4284    2.1268    2.2283 H   0  0  0  0  0  0  0  0  0  0  0  0
   -7.0909    0.7029    0.1387 H   0  0  0  0  0  0  0  0  0  0  0  0
   -6.8256   -0.1457    1.6940 H   0  0  0  0  0  0  0  0  0  0  0  0
   -2.4366    0.5678    1.1505 H   0  0  0  0  0  0  0  0  0  0  0  0
   -2.6651    1.3694   -0.4120 H   0  0  0  0  0  0  0  0  0  0  0  0
   -0.4327    1.2449   -0.2807 H   0  0  0  0  0  0  0  0  0  0  0  0
   -0.4320   -0.2819    0.6495 H   0  0  0  0  0  0  0  0  0  0  0  0
   -0.1990    0.3126   -2.3094 H   0  0  0  0  0  0  0  0  0  0  0  0
   -1.4029   -1.8974   -2.8775 H   0  0  0  0  0  0  0  0  0  0  0  0
   -2.3844   -0.3581   -2.6325 H   0  0  0  0  0  0  0  0  0  0  0  0
   -3.2819   -2.4917   -1.4404 H   0  0  0  0  0  0  0  0  0  0  0  0
   -1.7994   -2.3229   -0.3634 H   0  0  0  0  0  0  0  0  0  0  0  0
    0.1825   -2.4064   -1.3941 H   0  0  0  0  0  0  0  0  0  0  0  0
    2.1406   -0.4268   -2.1562 H   0  0  0  0  0  0  0  0  0  0  0  0
    2.4179   -2.0151   -1.4620 H   0  0  0  0  0  0  0  0  0  0  0  0
    1.6913    0.5355    0.1090 H   0  0  0  0  0  0  0  0  0  0  0  0
    1.9006   -1.0541    0.8912 H   0  0  0  0  0  0  0  0  0  0  0  0
    4.2020   -0.4468   -0.8943 H   0  0  0  0  0  0  0  0  0  0  0  0
    6.2530   -0.0159   -0.8565 H   0  0  0  0  0  0  0  0  0  0  0  0
    8.6688    0.6540   -0.4216 H   0  0  0  0  0  0  0  0  0  0  0  0
    9.0733    1.7096    1.9615 H   0  0  0  0  0  0  0  0  0  0  0  0
  1  2  1  0
  2  3  1  0
  3  4  1  0
  4  5  2  0
  4  6  1  0
  6  7  1  0
  7  8  1  0
  8  9  1  0
  9 10  1  0
 10 11  1  0
  9 12  1  0
 12 13  1  0
 13 14  1  0
 14 15  1  0
 15 16  1  0
 16 17  2  0
 16 18  1  0
 18 19  2  0
 19 20  1  0
 20 21  2  0
 21 22  1  0
 11  6  1  0
 22 18  1  0
  1 23  1  0
  1 24  1  0
  1 25  1  0
  2 26  1  0
  2 27  1  0
  7 28  1  0
  7 29  1  0
  8 30  1  0
  8 31  1  0
  9 32  1  0
 10 33  1  0
 10 34  1  0
 11 35  1  0
 11 36  1  0
 12 37  1  0
 13 38  1  0
 13 39  1  0
 14 40  1  0
 14 41  1  0
 15 42  1  0
 19 43  1  0
 20 44  1  0
 21 45  1  0
M  END
>  <Ligand ID>  (1) 
LIG0004461

>  <Ligand>  (1) 
BAS 07573890

>  <SMILES>  (1) 
CCOC(=O)N1CCC(CC1)NCCNC(=O)c1cccs1

>  <CID>  (1) 
647412.0

>  <ChEMBL ID>  (1) 
nan

>  <InChiKey>  (1) 
RDAMITSUPFEENV-UHFFFAOYSA-N

>  <InChi>  (1) 
InChI=1S/C15H23N3O3S/c1-2-21-15(20)18-9-5-12(6-10-18)16-7-8-17-14(19)13-4-3-11-22-13/h3-4,11-12,16H,2,5-10H2,1H3,(H,17,19)

>  <IUPAC Name>  (1) 
ethyl 4-[2-(thiophene-2-carbonylamino)ethylamino]piperidine-1-carboxylate

$$$$
