
     RDKit          3D

 19 18  0  0  0  0  0  0  0  0999 V2000
   -2.3077    0.9107   -0.6254 C   0  0  0  0  0  0  0  0  0  0  0  0
   -1.9825   -0.4494   -0.1095 C   0  0  0  0  0  0  0  0  0  0  0  0
   -0.5623   -0.8307   -0.4126 C   0  0  0  0  0  0  0  0  0  0  0  0
    0.4373    0.1149    0.2016 C   0  0  0  0  0  0  0  0  0  0  0  0
    1.7923   -0.4004   -0.1908 C   0  0  0  0  0  0  0  0  0  0  0  0
    1.8637   -1.4059   -0.8783 O   0  0  0  0  0  0  0  0  0  0  0  0
    3.0453    0.2946    0.2449 C   0  0  0  0  0  0  0  0  0  0  0  0
   -3.1407    0.8016   -1.3686 H   0  0  0  0  0  0  0  0  0  0  0  0
   -2.6497    1.5683    0.2218 H   0  0  0  0  0  0  0  0  0  0  0  0
   -1.5005    1.4421   -1.1414 H   0  0  0  0  0  0  0  0  0  0  0  0
   -2.2112   -0.5692    0.9877 H   0  0  0  0  0  0  0  0  0  0  0  0
   -2.6117   -1.2493   -0.5863 H   0  0  0  0  0  0  0  0  0  0  0  0
   -0.4208   -1.8375    0.0700 H   0  0  0  0  0  0  0  0  0  0  0  0
   -0.4356   -0.8541   -1.5010 H   0  0  0  0  0  0  0  0  0  0  0  0
    0.3972    0.0710    1.3114 H   0  0  0  0  0  0  0  0  0  0  0  0
    0.2624    1.1288   -0.1632 H   0  0  0  0  0  0  0  0  0  0  0  0
    3.5610   -0.3514    0.9839 H   0  0  0  0  0  0  0  0  0  0  0  0
    3.6677    0.3430   -0.6729 H   0  0  0  0  0  0  0  0  0  0  0  0
    2.7956    1.2728    0.6689 H   0  0  0  0  0  0  0  0  0  0  0  0
  1  2  1  0
  2  3  1  0
  3  4  1  0
  4  5  1  0
  5  6  2  0
  5  7  1  0
  1  8  1  0
  1  9  1  0
  1 10  1  0
  2 11  1  0
  2 12  1  0
  3 13  1  0
  3 14  1  0
  4 15  1  0
  4 16  1  0
  7 17  1  0
  7 18  1  0
  7 19  1  0
M  END
>  <Ligand ID>  (1) 
LIG0000105

>  <Ligand>  (1) 
2-Hexanone

>  <SMILES>  (1) 
CCCCC(=O)C

>  <CID>  (1) 
11583.0

>  <ChEMBL ID>  (1) 
nan

>  <InChiKey>  (1) 
QQZOPKMRPOGIEB-UHFFFAOYSA-N

>  <InChi>  (1) 
InChI=1S/C6H12O/c1-3-4-5-6(2)7/h3-5H2,1-2H3

>  <IUPAC Name>  (1) 
hexan-2-one

$$$$
