
     RDKit          3D

 73 79  0  0  0  0  0  0  0  0999 V2000
   -0.4632    3.4851   -0.3031 C   0  0  0  0  0  0  0  0  0  0  0  0
   -1.2741    2.3934   -0.1407 O   0  0  0  0  0  0  0  0  0  0  0  0
   -0.6717    1.1655   -0.2692 C   0  0  2  0  0  0  0  0  0  0  0  0
   -0.0918    1.1171   -1.6868 C   0  0  0  0  0  0  0  0  0  0  0  0
    0.2116   -0.3029   -2.0443 C   0  0  0  0  0  0  0  0  0  0  0  0
    0.1628   -1.1745   -0.8023 C   0  0  2  0  0  0  0  0  0  0  0  0
   -1.2531   -1.2985   -0.4123 C   0  0  0  0  0  0  0  0  0  0  0  0
   -1.7686    0.1087   -0.1379 C   0  0  2  0  0  0  0  0  0  0  0  0
   -2.9373    0.3816   -1.0153 C   0  0  0  0  0  0  0  0  0  0  0  0
   -3.6107    1.5479   -0.8051 O   0  0  0  0  0  0  0  0  0  0  0  0
   -4.2291    1.6612    0.4103 C   0  0  0  0  0  0  0  0  0  0  0  0
   -5.2859    0.6420    0.6421 C   0  0  0  0  0  0  0  0  0  0  0  0
   -5.0683   -0.5745    1.2371 C   0  0  0  0  0  0  0  0  0  0  0  0
   -6.1076   -1.4916    1.4234 C   0  0  0  0  0  0  0  0  0  0  0  0
   -7.3843   -1.1858    1.0077 C   0  0  0  0  0  0  0  0  0  0  0  0
   -7.5976    0.0213    0.4181 C   0  0  0  0  0  0  0  0  0  0  0  0
   -6.5796    0.9175    0.2364 C   0  0  0  0  0  0  0  0  0  0  0  0
    0.9222   -0.5236    0.3371 C   0  0  2  0  0  0  0  0  0  0  0  0
    0.3635    0.8347    0.7434 C   0  0  1  0  0  0  0  0  0  0  0  0
    1.5166    1.6597    0.7630 O   0  0  0  0  0  0  0  0  0  0  0  0
    2.5420    1.1310    0.0002 C   0  0  0  0  0  0  0  0  0  0  0  0
    2.2103   -0.1576   -0.2813 C   0  0  0  0  0  0  0  0  0  0  0  0
    2.9150   -1.0628   -1.0126 C   0  0  0  0  0  0  0  0  0  0  0  0
    2.3398   -2.3987   -1.2333 C   0  0  0  0  0  0  0  0  0  0  0  0
    0.8500   -2.4766   -1.0590 C   0  0  1  0  0  0  0  0  0  0  0  0
    0.5070   -3.3292    0.0837 N   0  0  0  0  0  0  0  0  0  0  0  0
    1.1668   -2.8416    1.2783 C   0  0  0  0  0  0  0  0  0  0  0  0
    1.0548   -1.3845    1.5193 C   0  0  0  0  0  0  0  0  0  0  0  0
    0.9557   -4.6892   -0.1309 C   0  0  0  0  0  0  0  0  0  0  0  0
    4.1206   -0.6236   -1.5319 C   0  0  0  0  0  0  0  0  0  0  0  0
    4.5309    0.6934   -1.2809 C   0  0  0  0  0  0  0  0  0  0  0  0
    3.7553    1.5714   -0.5227 C   0  0  0  0  0  0  0  0  0  0  0  0
    4.1689    2.9031   -0.2706 N   0  0  0  0  0  0  0  0  0  0  0  0
    5.6947    3.4167   -0.8858 S   0  0  0  0  0  0  0  0  0  0  0  0
    5.6826    3.2846   -2.3813 O   0  0  0  0  0  0  0  0  0  0  0  0
    5.9129    4.8378   -0.4597 O   0  0  0  0  0  0  0  0  0  0  0  0
    6.9506    2.4163   -0.1481 C   0  0  0  0  0  0  0  0  0  0  0  0
   -1.1350    4.3854   -0.1671 H   0  0  0  0  0  0  0  0  0  0  0  0
   -0.0637    3.5991   -1.3346 H   0  0  0  0  0  0  0  0  0  0  0  0
    0.3086    3.6243    0.4872 H   0  0  0  0  0  0  0  0  0  0  0  0
   -0.8419    1.5970   -2.3654 H   0  0  0  0  0  0  0  0  0  0  0  0
    0.8398    1.7038   -1.7122 H   0  0  0  0  0  0  0  0  0  0  0  0
   -0.5831   -0.6677   -2.7243 H   0  0  0  0  0  0  0  0  0  0  0  0
    1.1559   -0.4079   -2.6147 H   0  0  0  0  0  0  0  0  0  0  0  0
   -1.8877   -1.7985   -1.1910 H   0  0  0  0  0  0  0  0  0  0  0  0
   -1.4209   -1.9242    0.5014 H   0  0  0  0  0  0  0  0  0  0  0  0
   -2.0902    0.1827    0.9296 H   0  0  0  0  0  0  0  0  0  0  0  0
   -3.6685   -0.4758   -0.9555 H   0  0  0  0  0  0  0  0  0  0  0  0
   -2.6365    0.3840   -2.1039 H   0  0  0  0  0  0  0  0  0  0  0  0
   -4.7438    2.6680    0.4021 H   0  0  0  0  0  0  0  0  0  0  0  0
   -3.4874    1.6192    1.2159 H   0  0  0  0  0  0  0  0  0  0  0  0
   -4.1076   -0.8593    1.5765 H   0  0  0  0  0  0  0  0  0  0  0  0
   -5.9196   -2.4478    1.8947 H   0  0  0  0  0  0  0  0  0  0  0  0
   -8.1534   -1.9289    1.1746 H   0  0  0  0  0  0  0  0  0  0  0  0
   -8.5943    0.2913    0.0794 H   0  0  0  0  0  0  0  0  0  0  0  0
   -6.7721    1.8643   -0.2316 H   0  0  0  0  0  0  0  0  0  0  0  0
   -0.0923    0.8146    1.7366 H   0  0  0  0  0  0  0  0  0  0  0  0
    2.9053   -3.1152   -0.5757 H   0  0  0  0  0  0  0  0  0  0  0  0
    2.6306   -2.7351   -2.2729 H   0  0  0  0  0  0  0  0  0  0  0  0
    0.4161   -2.9549   -1.9504 H   0  0  0  0  0  0  0  0  0  0  0  0
    0.6356   -3.3557    2.1299 H   0  0  0  0  0  0  0  0  0  0  0  0
    2.2111   -3.2038    1.3333 H   0  0  0  0  0  0  0  0  0  0  0  0
    0.2912   -1.1406    2.3226 H   0  0  0  0  0  0  0  0  0  0  0  0
    2.0217   -1.0784    2.0379 H   0  0  0  0  0  0  0  0  0  0  0  0
    0.9991   -4.8542   -1.2245 H   0  0  0  0  0  0  0  0  0  0  0  0
    1.9434   -4.8989    0.3217 H   0  0  0  0  0  0  0  0  0  0  0  0
    0.2254   -5.3439    0.3760 H   0  0  0  0  0  0  0  0  0  0  0  0
    4.7068   -1.3097   -2.1143 H   0  0  0  0  0  0  0  0  0  0  0  0
    5.4816    1.0137   -1.6994 H   0  0  0  0  0  0  0  0  0  0  0  0
    3.5560    3.5430    0.2736 H   0  0  0  0  0  0  0  0  0  0  0  0
    7.5649    1.9284   -0.9424 H   0  0  0  0  0  0  0  0  0  0  0  0
    6.5178    1.5967    0.4686 H   0  0  0  0  0  0  0  0  0  0  0  0
    7.5752    3.0102    0.5471 H   0  0  0  0  0  0  0  0  0  0  0  0
  1  2  1  0
  3  2  1  1
  3  4  1  0
  4  5  1  0
  6  5  1  6
  6  7  1  0
  7  8  1  0
  8  9  1  0
  9 10  1  0
 10 11  1  0
 11 12  1  0
 12 13  2  0
 13 14  1  0
 14 15  2  0
 15 16  1  0
 16 17  2  0
  6 18  1  0
 18 19  1  0
 19 20  1  0
 20 21  1  0
 21 22  2  0
 22 23  1  0
 23 24  1  0
 24 25  1  0
 25 26  1  0
 26 27  1  0
 27 28  1  0
 26 29  1  0
 23 30  2  0
 30 31  1  0
 31 32  2  0
 32 33  1  0
 33 34  1  0
 34 35  2  0
 34 36  2  0
 34 37  1  0
  8  3  1  0
 17 12  1  0
 18 28  1  1
 19  3  1  0
 32 21  1  0
 25  6  1  0
 22 18  1  0
  1 38  1  0
  1 39  1  0
  1 40  1  0
  4 41  1  0
  4 42  1  0
  5 43  1  0
  5 44  1  0
  7 45  1  0
  7 46  1  0
  8 47  1  1
  9 48  1  0
  9 49  1  0
 11 50  1  0
 11 51  1  0
 13 52  1  0
 14 53  1  0
 15 54  1  0
 16 55  1  0
 17 56  1  0
 19 57  1  1
 24 58  1  0
 24 59  1  0
 25 60  1  6
 27 61  1  0
 27 62  1  0
 28 63  1  0
 28 64  1  0
 29 65  1  0
 29 66  1  0
 29 67  1  0
 30 68  1  0
 31 69  1  0
 33 70  1  0
 37 71  1  0
 37 72  1  0
 37 73  1  0
M  END
>  <Ligand ID>  (1) 
LIG0004590

>  <Ligand>  (1) 
SCHEMBL15485591

>  <SMILES>  (1) 
CO[C@]12CC[C@]3(C[C@@H]1COCc1ccccc1)[C@@]14[C@H]2Oc2c4c(C[C@H]3N(CC1)C)ccc2NS(=O)(=O)C

>  <CID>  (1) 
86711644.0

>  <ChEMBL ID>  (1) 
nan

>  <InChiKey>  (1) 
DIIUDCDSVQJDAE-ZYGOFEOWSA-N

>  <InChi>  (1) 
InChI=1S/C29H36N2O5S/c1-31-14-13-28-24-20-9-10-22(30-37(3,32)33)25(24)36-26(28)29(34-2)12-11-27(28,23(31)15-20)16-21(29)18-35-17-19-7-5-4-6-8-19/h4-10,21,23,26,30H,11-18H2,1-3H3/t21-,23-,26-,27-,28+,29-/m1/s1

>  <IUPAC Name>  (1) 
N-[(1S,2S,6R,14R,15R,16R)-15-methoxy-5-methyl-16-(phenylmethoxymethyl)-13-oxa-5-azahexacyclo[13.2.2.12,8.01,6.02,14.012,20]icosa-8(20),9,11-trien-11-yl]methanesulfonamide

$$$$
