
     RDKit          3D

 80 82  0  0  0  0  0  0  0  0999 V2000
   -3.0101   -0.0162    1.8213 O   0  0  0  0  0  0  0  0  0  0  0  0
   -2.2915   -0.2750    0.7914 C   0  0  0  0  0  0  0  0  0  0  0  0
   -0.9179   -0.6874    1.0543 C   0  0  1  0  0  0  0  0  0  0  0  0
   -0.9032   -1.9865    1.8688 C   0  0  0  0  0  0  0  0  0  0  0  0
   -1.5701   -1.7797    3.1541 C   0  0  0  0  0  0  0  0  0  0  0  0
   -2.8699   -2.0990    3.4605 C   0  0  0  0  0  0  0  0  0  0  0  0
   -3.4438   -1.8581    4.7014 C   0  0  0  0  0  0  0  0  0  0  0  0
   -2.6742   -1.2587    5.7093 C   0  0  0  0  0  0  0  0  0  0  0  0
   -1.3670   -0.9318    5.4190 C   0  0  0  0  0  0  0  0  0  0  0  0
   -0.8298   -1.1853    4.1755 C   0  0  0  0  0  0  0  0  0  0  0  0
   -0.0645   -0.8409   -0.1096 N   0  0  0  0  0  0  0  0  0  0  0  0
    1.2660   -0.3477    0.0007 C   0  0  0  0  0  0  0  0  0  0  0  0
    1.7027    0.1983    1.0703 O   0  0  0  0  0  0  0  0  0  0  0  0
    2.2631   -0.4240   -1.1115 C   0  0  2  0  0  0  0  0  0  0  0  0
    2.3323   -1.7462   -1.7840 C   0  0  0  0  0  0  0  0  0  0  0  0
    2.6866   -2.8884   -0.9122 C   0  0  0  0  0  0  0  0  0  0  0  0
    3.9453   -3.3985   -0.5968 C   0  0  0  0  0  0  0  0  0  0  0  0
    3.7376   -4.4505    0.2434 N   0  0  0  0  0  0  0  0  0  0  0  0
    2.4077   -4.5546    0.4143 C   0  0  0  0  0  0  0  0  0  0  0  0
    1.7461   -3.6225   -0.2725 N   0  0  0  0  0  0  0  0  0  0  0  0
    3.5259    0.0681   -0.5931 N   0  0  0  0  0  0  0  0  0  0  0  0
    4.1992    1.2062   -1.0531 C   0  0  0  0  0  0  0  0  0  0  0  0
    3.6457    1.8553   -2.0063 O   0  0  0  0  0  0  0  0  0  0  0  0
    5.4745    1.6899   -0.5204 C   0  0  0  0  0  0  0  0  0  0  0  0
    6.1291    1.1130    0.4462 C   0  0  0  0  0  0  0  0  0  0  0  0
    7.3962    1.5526    1.0095 C   0  0  0  0  0  0  0  0  0  0  0  0
    8.4074    2.1284    0.2752 C   0  0  0  0  0  0  0  0  0  0  0  0
    9.5929    2.5002    0.9256 C   0  0  0  0  0  0  0  0  0  0  0  0
    9.7569    2.2987    2.2769 C   0  0  0  0  0  0  0  0  0  0  0  0
    8.7394    1.7166    3.0334 C   0  0  0  0  0  0  0  0  0  0  0  0
    7.5898    1.3637    2.3651 C   0  0  0  0  0  0  0  0  0  0  0  0
    6.0367    2.8218   -1.0576 F   0  0  0  0  0  0  0  0  0  0  0  0
   -2.7793   -0.1756   -0.5257 N   0  0  0  0  0  0  0  0  0  0  0  0
   -4.1037    0.1902   -0.9575 C   0  0  1  0  0  0  0  0  0  0  0  0
   -5.1840   -0.3768   -0.0661 C   0  0  0  0  0  0  0  0  0  0  0  0
   -4.9236   -1.1961    0.8582 O   0  0  0  0  0  0  0  0  0  0  0  0
   -6.5501   -0.0273   -0.2115 N   0  0  0  0  0  0  0  0  0  0  0  0
   -4.1467    1.6463   -1.1427 C   0  0  0  0  0  0  0  0  0  0  0  0
   -5.4086    2.2776   -1.5924 C   0  0  0  0  0  0  0  0  0  0  0  0
   -5.9506    1.8673   -2.9089 C   0  0  0  0  0  0  0  0  0  0  0  0
   -5.0995    2.1426   -4.0466 N   0  0  0  0  0  0  0  0  0  0  0  0
   -5.6379    1.9850   -5.2237 C   0  0  0  0  0  0  0  0  0  0  0  0
   -4.8284    2.2482   -6.3703 N   0  0  0  0  0  0  0  0  0  0  0  0
   -6.9898    1.5629   -5.3927 N   0  0  0  0  0  0  0  0  0  0  0  0
   -0.3610    0.0263    1.7453 H   0  0  0  0  0  0  0  0  0  0  0  0
    0.1764   -2.2249    2.0852 H   0  0  0  0  0  0  0  0  0  0  0  0
   -1.3726   -2.8095    1.2854 H   0  0  0  0  0  0  0  0  0  0  0  0
   -3.4693   -2.5670    2.6957 H   0  0  0  0  0  0  0  0  0  0  0  0
   -4.4697   -2.1158    4.9216 H   0  0  0  0  0  0  0  0  0  0  0  0
   -3.0798   -1.0538    6.6894 H   0  0  0  0  0  0  0  0  0  0  0  0
   -0.6957   -0.4624    6.1464 H   0  0  0  0  0  0  0  0  0  0  0  0
    0.2202   -0.9090    3.9799 H   0  0  0  0  0  0  0  0  0  0  0  0
   -0.3415   -1.2818   -1.0039 H   0  0  0  0  0  0  0  0  0  0  0  0
    1.9698    0.3098   -1.9299 H   0  0  0  0  0  0  0  0  0  0  0  0
    3.0558   -1.6457   -2.6413 H   0  0  0  0  0  0  0  0  0  0  0  0
    1.3475   -1.9025   -2.2901 H   0  0  0  0  0  0  0  0  0  0  0  0
    4.8875   -3.0078   -0.9679 H   0  0  0  0  0  0  0  0  0  0  0  0
    1.9465   -5.3284    1.0502 H   0  0  0  0  0  0  0  0  0  0  0  0
    0.7098   -3.5302   -0.2759 H   0  0  0  0  0  0  0  0  0  0  0  0
    3.9401   -0.5087    0.1960 H   0  0  0  0  0  0  0  0  0  0  0  0
    5.6812    0.2061    0.8800 H   0  0  0  0  0  0  0  0  0  0  0  0
    8.2541    2.2761   -0.7752 H   0  0  0  0  0  0  0  0  0  0  0  0
   10.4017    2.9612    0.3348 H   0  0  0  0  0  0  0  0  0  0  0  0
   10.6572    2.5691    2.8240 H   0  0  0  0  0  0  0  0  0  0  0  0
    8.8669    1.5548    4.1088 H   0  0  0  0  0  0  0  0  0  0  0  0
    6.7975    0.9071    2.9719 H   0  0  0  0  0  0  0  0  0  0  0  0
   -2.0817   -0.3906   -1.3003 H   0  0  0  0  0  0  0  0  0  0  0  0
   -4.2746   -0.4294   -1.8920 H   0  0  0  0  0  0  0  0  0  0  0  0
   -7.1479   -0.3035   -1.0161 H   0  0  0  0  0  0  0  0  0  0  0  0
   -7.0328    0.5444    0.5281 H   0  0  0  0  0  0  0  0  0  0  0  0
   -3.2970    1.9271   -1.8104 H   0  0  0  0  0  0  0  0  0  0  0  0
   -3.8654    2.1163   -0.1601 H   0  0  0  0  0  0  0  0  0  0  0  0
   -6.2257    2.2958   -0.8509 H   0  0  0  0  0  0  0  0  0  0  0  0
   -5.1559    3.3904   -1.7026 H   0  0  0  0  0  0  0  0  0  0  0  0
   -6.9045    2.4193   -3.0715 H   0  0  0  0  0  0  0  0  0  0  0  0
   -6.2246    0.7817   -2.8928 H   0  0  0  0  0  0  0  0  0  0  0  0
   -4.5801    3.2157   -6.6858 H   0  0  0  0  0  0  0  0  0  0  0  0
   -4.4829    1.4226   -6.8987 H   0  0  0  0  0  0  0  0  0  0  0  0
   -7.6722    2.2558   -5.7625 H   0  0  0  0  0  0  0  0  0  0  0  0
   -7.2140    0.5782   -5.1340 H   0  0  0  0  0  0  0  0  0  0  0  0
  1  2  2  0
  2  3  1  0
  3  4  1  0
  4  5  1  0
  5  6  2  0
  6  7  1  0
  7  8  2  0
  8  9  1  0
  9 10  2  0
  3 11  1  0
 11 12  1  0
 12 13  2  0
 12 14  1  0
 14 15  1  0
 15 16  1  0
 16 17  2  0
 17 18  1  0
 18 19  2  0
 19 20  1  0
 14 21  1  0
 21 22  1  0
 22 23  2  0
 22 24  1  0
 24 25  2  0
 25 26  1  0
 26 27  2  0
 27 28  1  0
 28 29  2  0
 29 30  1  0
 30 31  2  0
 24 32  1  0
  2 33  1  0
 33 34  1  0
 34 35  1  0
 35 36  2  0
 35 37  1  0
 34 38  1  0
 38 39  1  0
 39 40  1  0
 40 41  1  0
 41 42  2  3
 42 43  1  0
 42 44  1  0
 10  5  1  0
 20 16  1  0
 31 26  1  0
  3 45  1  1
  4 46  1  0
  4 47  1  0
  6 48  1  0
  7 49  1  0
  8 50  1  0
  9 51  1  0
 10 52  1  0
 11 53  1  0
 14 54  1  6
 15 55  1  0
 15 56  1  0
 17 57  1  0
 19 58  1  0
 20 59  1  0
 21 60  1  0
 25 61  1  0
 27 62  1  0
 28 63  1  0
 29 64  1  0
 30 65  1  0
 31 66  1  0
 33 67  1  0
 34 68  1  6
 37 69  1  0
 37 70  1  0
 38 71  1  0
 38 72  1  0
 39 73  1  0
 39 74  1  0
 40 75  1  0
 40 76  1  0
 43 77  1  0
 43 78  1  0
 44 79  1  0
 44 80  1  0
M  END
>  <Ligand ID>  (1) 
LIG0002650

>  <Ligand>  (1) 
CHEMBL569220

>  <SMILES>  (1) 
O=C([C@@H](Cc1ccccc1)NC(=O)[C@H](Cc1cnc[nH]1)NC(=O)/C(=C/c1ccccc1)/F)N[C@@H](C(=O)N)CCCN=C(N)N

>  <CID>  (1) 
45487291.0

>  <ChEMBL ID>  (1) 
nan

>  <InChiKey>  (1) 
VORCDWUGXBEFDJ-OJGSOMIXSA-N

>  <InChi>  (1) 
InChI=1S/C30H36FN9O4/c31-22(14-19-8-3-1-4-9-19)27(42)39-25(16-21-17-35-18-37-21)29(44)40-24(15-20-10-5-2-6-11-20)28(43)38-23(26(32)41)12-7-13-36-30(33)34/h1-6,8-11,14,17-18,23-25H,7,12-13,15-16H2,(H2,32,41)(H,35,37)(H,38,43)(H,39,42)(H,40,44)(H4,33,34,36)/b22-14-/t23-,24-,25+/m1/s1

>  <IUPAC Name>  (1) 
(2R)-5-(diaminomethylideneamino)-2-[[(2R)-2-[[(2S)-2-[[(Z)-2-fluoro-3-phenylprop-2-enoyl]amino]-3-(1H-imidazol-5-yl)propanoyl]amino]-3-phenylpropanoyl]amino]pentanamide

$$$$
