
     RDKit          3D

 46 49  0  0  0  0  0  0  0  0999 V2000
    7.2848    3.4279   -2.7049 Cl  0  0  0  0  0  0  0  0  0  0  0  0
    6.0420    2.4070   -2.0131 C   0  0  0  0  0  0  0  0  0  0  0  0
    4.8479    2.8992   -1.5304 C   0  0  0  0  0  0  0  0  0  0  0  0
    3.9147    2.0280   -0.9986 C   0  0  0  0  0  0  0  0  0  0  0  0
    4.1335    0.6808   -0.9322 C   0  0  0  0  0  0  0  0  0  0  0  0
    5.3374    0.2083   -1.4218 C   0  0  0  0  0  0  0  0  0  0  0  0
    6.2923    1.0501   -1.9598 C   0  0  0  0  0  0  0  0  0  0  0  0
    3.1734   -0.2752   -0.3781 C   0  0  0  0  0  0  0  0  0  0  0  0
    3.4479   -1.5042   -0.3444 O   0  0  0  0  0  0  0  0  0  0  0  0
    1.9144    0.1422    0.1348 N   0  0  0  0  0  0  0  0  0  0  0  0
    1.0124   -0.8449    0.6667 C   0  0  0  0  0  0  0  0  0  0  0  0
    1.2709   -2.1736    0.7253 N   0  0  0  0  0  0  0  0  0  0  0  0
    0.2090   -2.8000    1.2804 C   0  0  0  0  0  0  0  0  0  0  0  0
   -0.6932   -1.7949    1.5509 C   0  0  0  0  0  0  0  0  0  0  0  0
   -0.2172   -0.5956    1.1820 N   0  0  0  0  0  0  0  0  0  0  0  0
   -0.7762    0.7180    1.2558 C   0  0  0  0  0  0  0  0  0  0  0  0
   -1.5553    1.1764    0.0836 C   0  0  0  0  0  0  0  0  0  0  0  0
   -2.7184    0.4102   -0.2566 N   0  0  0  0  0  0  0  0  0  0  0  0
   -3.2629    1.0263   -1.4663 C   0  0  0  0  0  0  0  0  0  0  0  0
   -4.7224    1.2971   -1.2216 C   0  0  0  0  0  0  0  0  0  0  0  0
   -5.0347    0.3189   -0.1081 C   0  0  0  0  0  0  0  0  0  0  0  0
   -3.7676    0.5176    0.7373 C   0  0  0  0  0  0  0  0  0  0  0  0
   -1.8556   -2.1555    2.1173 N   0  0  0  0  0  0  0  0  0  0  0  0
   -2.1389   -3.4369    2.4121 C   0  0  0  0  0  0  0  0  0  0  0  0
   -1.2575   -4.4715    2.1547 C   0  0  0  0  0  0  0  0  0  0  0  0
   -0.0519   -4.1245    1.5710 C   0  0  0  0  0  0  0  0  0  0  0  0
    4.6876    3.9592   -1.5879 H   0  0  0  0  0  0  0  0  0  0  0  0
    2.9880    2.4415   -0.6279 H   0  0  0  0  0  0  0  0  0  0  0  0
    5.5218   -0.8573   -1.3750 H   0  0  0  0  0  0  0  0  0  0  0  0
    7.2210    0.6508   -2.3331 H   0  0  0  0  0  0  0  0  0  0  0  0
    1.6315    1.1317    0.1353 H   0  0  0  0  0  0  0  0  0  0  0  0
    0.0245    1.4379    1.4584 H   0  0  0  0  0  0  0  0  0  0  0  0
   -1.4615    0.7902    2.1505 H   0  0  0  0  0  0  0  0  0  0  0  0
   -1.9226    2.2089    0.3136 H   0  0  0  0  0  0  0  0  0  0  0  0
   -0.9540    1.2957   -0.8449 H   0  0  0  0  0  0  0  0  0  0  0  0
   -2.7761    1.9795   -1.7247 H   0  0  0  0  0  0  0  0  0  0  0  0
   -3.1371    0.3130   -2.3183 H   0  0  0  0  0  0  0  0  0  0  0  0
   -4.8487    2.3258   -0.7899 H   0  0  0  0  0  0  0  0  0  0  0  0
   -5.3642    1.1414   -2.1122 H   0  0  0  0  0  0  0  0  0  0  0  0
   -5.9519    0.5313    0.4384 H   0  0  0  0  0  0  0  0  0  0  0  0
   -5.0426   -0.6888   -0.5873 H   0  0  0  0  0  0  0  0  0  0  0  0
   -3.7519   -0.2286    1.5232 H   0  0  0  0  0  0  0  0  0  0  0  0
   -3.8444    1.5283    1.1586 H   0  0  0  0  0  0  0  0  0  0  0  0
   -3.0834   -3.7193    2.8715 H   0  0  0  0  0  0  0  0  0  0  0  0
   -1.4630   -5.5002    2.3810 H   0  0  0  0  0  0  0  0  0  0  0  0
    0.6984   -4.8718    1.3344 H   0  0  0  0  0  0  0  0  0  0  0  0
  1  2  1  0
  2  3  2  0
  3  4  1  0
  4  5  2  0
  5  6  1  0
  6  7  2  0
  5  8  1  0
  8  9  2  0
  8 10  1  0
 10 11  1  0
 11 12  2  0
 12 13  1  0
 13 14  2  0
 14 15  1  0
 15 16  1  0
 16 17  1  0
 17 18  1  0
 18 19  1  0
 19 20  1  0
 20 21  1  0
 21 22  1  0
 14 23  1  0
 23 24  2  0
 24 25  1  0
 25 26  2  0
  7  2  1  0
 15 11  1  0
 22 18  1  0
 26 13  1  0
  3 27  1  0
  4 28  1  0
  6 29  1  0
  7 30  1  0
 10 31  1  0
 16 32  1  0
 16 33  1  0
 17 34  1  0
 17 35  1  0
 19 36  1  0
 19 37  1  0
 20 38  1  0
 20 39  1  0
 21 40  1  0
 21 41  1  0
 22 42  1  0
 22 43  1  0
 24 44  1  0
 25 45  1  0
 26 46  1  0
M  END
>  <Ligand ID>  (1) 
LIG0003083

>  <Ligand>  (1) 
CHEMBL3394007

>  <SMILES>  (1) 
Clc1ccc(cc1)C(=O)Nc1nc2c(n1CCN1CCCC1)nccc2

>  <CID>  (1) 
118725857.0

>  <ChEMBL ID>  (1) 
nan

>  <InChiKey>  (1) 
COPRXHFVKPODSK-UHFFFAOYSA-N

>  <InChi>  (1) 
InChI=1S/C19H20ClN5O/c20-15-7-5-14(6-8-15)18(26)23-19-22-16-4-3-9-21-17(16)25(19)13-12-24-10-1-2-11-24/h3-9H,1-2,10-13H2,(H,22,23,26)

>  <IUPAC Name>  (1) 
4-chloro-N-[3-(2-pyrrolidin-1-ylethyl)imidazo[4,5-b]pyridin-2-yl]benzamide

$$$$
