
     RDKit          3D

 27 28  0  0  0  0  0  0  0  0999 V2000
   -0.7628    2.4598   -0.2647 C   0  0  0  0  0  0  0  0  0  0  0  0
   -0.8239    1.1326    0.4770 C   0  0  1  0  0  0  0  0  0  0  0  0
   -1.9655    0.3458   -0.1470 C   0  0  0  0  0  0  0  0  0  0  0  0
   -2.2336   -0.8920    0.5002 N   0  0  0  0  0  0  0  0  0  0  0  0
   -1.3986   -1.9912    0.1724 C   0  0  0  0  0  0  0  0  0  0  0  0
   -0.3609   -1.7303   -0.8897 C   0  0  0  0  0  0  0  0  0  0  0  0
    0.6968   -0.8442   -0.3281 C   0  0  0  0  0  0  0  0  0  0  0  0
    0.4431    0.3918    0.2557 C   0  0  0  0  0  0  0  0  0  0  0  0
    1.5369    1.0859    0.7263 C   0  0  0  0  0  0  0  0  0  0  0  0
    1.3726    2.6597    1.4881 Cl  0  0  0  0  0  0  0  0  0  0  0  0
    2.8176    0.5791    0.6227 C   0  0  0  0  0  0  0  0  0  0  0  0
    3.0669   -0.6514    0.0411 C   0  0  0  0  0  0  0  0  0  0  0  0
    1.9573   -1.3383   -0.4277 C   0  0  0  0  0  0  0  0  0  0  0  0
    4.2224    1.4560    1.2198 Cl  0  0  0  0  0  0  0  0  0  0  0  0
   -0.8587    3.3195    0.4433 H   0  0  0  0  0  0  0  0  0  0  0  0
    0.2125    2.5793   -0.7816 H   0  0  0  0  0  0  0  0  0  0  0  0
   -1.5973    2.5853   -0.9868 H   0  0  0  0  0  0  0  0  0  0  0  0
   -1.0425    1.2980    1.5527 H   0  0  0  0  0  0  0  0  0  0  0  0
   -2.8737    0.9845   -0.0146 H   0  0  0  0  0  0  0  0  0  0  0  0
   -1.8193    0.2887   -1.2429 H   0  0  0  0  0  0  0  0  0  0  0  0
   -3.2545   -1.0962    0.4741 H   0  0  0  0  0  0  0  0  0  0  0  0
   -0.8345   -2.2944    1.1014 H   0  0  0  0  0  0  0  0  0  0  0  0
   -1.9961   -2.8585   -0.1451 H   0  0  0  0  0  0  0  0  0  0  0  0
    0.1256   -2.7241   -1.0853 H   0  0  0  0  0  0  0  0  0  0  0  0
   -0.7955   -1.3777   -1.8229 H   0  0  0  0  0  0  0  0  0  0  0  0
    4.0488   -1.0789   -0.0577 H   0  0  0  0  0  0  0  0  0  0  0  0
    2.1169   -2.2886   -0.8807 H   0  0  0  0  0  0  0  0  0  0  0  0
  1  2  1  0
  2  3  1  0
  3  4  1  0
  4  5  1  0
  5  6  1  0
  6  7  1  0
  7  8  2  0
  8  9  1  0
  9 10  1  0
  9 11  2  0
 11 12  1  0
 12 13  2  0
 11 14  1  0
  8  2  1  0
 13  7  1  0
  1 15  1  0
  1 16  1  0
  1 17  1  0
  2 18  1  1
  3 19  1  0
  3 20  1  0
  4 21  1  0
  5 22  1  0
  5 23  1  0
  6 24  1  0
  6 25  1  0
 12 26  1  0
 13 27  1  0
M  END
>  <Ligand ID>  (1) 
LIG0005546

>  <Ligand>  (1) 
CHEMBL178566

>  <SMILES>  (1) 
C[C@H]1CNCCc2c1c(Cl)c(cc2)Cl

>  <CID>  (1) 
24773894.0

>  <ChEMBL ID>  (1) 
nan

>  <InChiKey>  (1) 
VUYGFWKOVMRUIC-ZETCQYMHSA-N

>  <InChi>  (1) 
InChI=1S/C11H13Cl2N/c1-7-6-14-5-4-8-2-3-9(12)11(13)10(7)8/h2-3,7,14H,4-6H2,1H3/t7-/m0/s1

>  <IUPAC Name>  (1) 
(5R)-6,7-dichloro-5-methyl-2,3,4,5-tetrahydro-1H-3-benzazepine

$$$$
