
     RDKit          3D

 44 47  0  0  0  0  0  0  0  0999 V2000
    5.4169    1.7728   -0.6924 C   0  0  0  0  0  0  0  0  0  0  0  0
    5.1294    0.0575   -0.4751 S   0  0  0  0  0  0  0  0  0  0  0  0
    6.1437   -0.7771   -1.2126 O   0  0  0  0  0  0  0  0  0  0  0  0
    5.3150   -0.2889    0.9949 O   0  0  0  0  0  0  0  0  0  0  0  0
    3.5297   -0.4051   -0.8864 N   0  0  0  0  0  0  0  0  0  0  0  0
    2.3582    0.0661   -0.2508 C   0  0  0  0  0  0  0  0  0  0  0  0
    2.1082    1.3846    0.0470 C   0  0  0  0  0  0  0  0  0  0  0  0
    0.9540    1.8108    0.6652 C   0  0  0  0  0  0  0  0  0  0  0  0
    0.0224    0.8187    0.9852 C   0  0  0  0  0  0  0  0  0  0  0  0
    0.1963   -0.4877    0.7250 C   0  0  0  0  0  0  0  0  0  0  0  0
    1.4007   -0.8552    0.0908 C   0  0  0  0  0  0  0  0  0  0  0  0
   -0.7102   -1.5853    0.9993 C   0  0  0  0  0  0  0  0  0  0  0  0
   -0.1645   -2.6062    1.8037 C   0  0  0  0  0  0  0  0  0  0  0  0
   -0.8924   -3.7219    2.1476 C   0  0  0  0  0  0  0  0  0  0  0  0
   -2.1730   -3.8105    1.6806 C   0  0  0  0  0  0  0  0  0  0  0  0
   -2.6962   -2.8312    0.9092 C   0  0  0  0  0  0  0  0  0  0  0  0
   -2.0036   -1.6692    0.5248 C   0  0  0  0  0  0  0  0  0  0  0  0
   -2.6676   -0.6690   -0.2953 C   0  0  2  0  0  0  0  0  0  0  0  0
   -1.9679   -0.1631   -1.5033 C   0  0  0  0  0  0  0  0  0  0  0  0
   -2.2697    1.3035   -1.4301 C   0  0  0  0  0  0  0  0  0  0  0  0
   -3.0204    1.5934   -0.3788 N   0  0  0  0  0  0  0  0  0  0  0  0
   -3.3641    0.4516    0.4155 C   0  0  0  0  0  0  0  0  0  0  0  0
   -3.2370    2.9416   -0.3941 C   0  0  0  0  0  0  0  0  0  0  0  0
   -2.5977    3.4814   -1.4881 C   0  0  0  0  0  0  0  0  0  0  0  0
   -2.0041    2.4359   -2.1137 N   0  0  0  0  0  0  0  0  0  0  0  0
    5.1578    2.3117    0.2538 H   0  0  0  0  0  0  0  0  0  0  0  0
    6.4726    1.9985   -0.9897 H   0  0  0  0  0  0  0  0  0  0  0  0
    4.8044    2.1445   -1.5310 H   0  0  0  0  0  0  0  0  0  0  0  0
    3.4034   -1.0872   -1.6656 H   0  0  0  0  0  0  0  0  0  0  0  0
    2.8309    2.1441   -0.2051 H   0  0  0  0  0  0  0  0  0  0  0  0
    0.7511    2.8500    0.9029 H   0  0  0  0  0  0  0  0  0  0  0  0
   -0.8626    1.1666    1.4825 H   0  0  0  0  0  0  0  0  0  0  0  0
    1.5900   -1.9141   -0.1429 H   0  0  0  0  0  0  0  0  0  0  0  0
    0.8445   -2.5491    2.1790 H   0  0  0  0  0  0  0  0  0  0  0  0
   -0.4692   -4.4874    2.7564 H   0  0  0  0  0  0  0  0  0  0  0  0
   -2.7522   -4.6793    1.9432 H   0  0  0  0  0  0  0  0  0  0  0  0
   -3.7356   -2.9689    0.5682 H   0  0  0  0  0  0  0  0  0  0  0  0
   -3.5609   -1.2434   -0.7709 H   0  0  0  0  0  0  0  0  0  0  0  0
   -0.8904   -0.3023   -1.5668 H   0  0  0  0  0  0  0  0  0  0  0  0
   -2.3803   -0.5170   -2.4689 H   0  0  0  0  0  0  0  0  0  0  0  0
   -3.1164    0.5378    1.4944 H   0  0  0  0  0  0  0  0  0  0  0  0
   -4.4937    0.3060    0.4436 H   0  0  0  0  0  0  0  0  0  0  0  0
   -3.8205    3.5201    0.3343 H   0  0  0  0  0  0  0  0  0  0  0  0
   -2.5789    4.5220   -1.7787 H   0  0  0  0  0  0  0  0  0  0  0  0
  1  2  1  0
  2  3  2  0
  2  4  2  0
  2  5  1  0
  5  6  1  0
  6  7  2  0
  7  8  1  0
  8  9  2  0
  9 10  1  0
 10 11  2  0
 10 12  1  0
 12 13  2  0
 13 14  1  0
 14 15  2  0
 15 16  1  0
 16 17  2  0
 17 18  1  0
 18 19  1  0
 19 20  1  0
 20 21  1  0
 21 22  1  0
 21 23  1  0
 23 24  2  0
 24 25  1  0
 11  6  1  0
 17 12  1  0
 22 18  1  0
 25 20  2  0
  1 26  1  0
  1 27  1  0
  1 28  1  0
  5 29  1  0
  7 30  1  0
  8 31  1  0
  9 32  1  0
 11 33  1  0
 13 34  1  0
 14 35  1  0
 15 36  1  0
 16 37  1  0
 18 38  1  6
 19 39  1  0
 19 40  1  0
 22 41  1  0
 22 42  1  0
 23 43  1  0
 24 44  1  0
M  END
>  <Ligand ID>  (1) 
LIG0004953

>  <Ligand>  (1) 
CHEMBL513871

>  <SMILES>  (1) 
CS(=O)(=O)Nc1cccc(c1)c1ccccc1[C@@H]1Cc2n(C1)ccn2

>  <CID>  (1) 
44574104.0

>  <ChEMBL ID>  (1) 
nan

>  <InChiKey>  (1) 
FKMTZJPWARGCCN-OAHLLOKOSA-N

>  <InChi>  (1) 
InChI=1S/C19H19N3O2S/c1-25(23,24)21-16-6-4-5-14(11-16)17-7-2-3-8-18(17)15-12-19-20-9-10-22(19)13-15/h2-11,15,21H,12-13H2,1H3/t15-/m1/s1

>  <IUPAC Name>  (1) 
N-[3-[2-[(6S)-6,7-dihydro-5H-pyrrolo[1,2-a]imidazol-6-yl]phenyl]phenyl]methanesulfonamide

$$$$
