
     RDKit          3D

130132  0  0  0  0  0  0  0  0999 V2000
   11.0652   -2.2018   -2.6431 N   0  0  0  0  0  0  0  0  0  0  0  0
   10.8008   -1.4092   -1.4219 C   0  0  0  0  0  0  0  0  0  0  0  0
    9.5171   -1.8582   -0.7910 C   0  0  0  0  0  0  0  0  0  0  0  0
    9.0842   -1.2107    0.4647 C   0  0  0  0  0  0  0  0  0  0  0  0
    8.8417    0.2474    0.3944 C   0  0  1  0  0  0  0  0  0  0  0  0
    9.9803    1.1060    0.0465 C   0  0  0  0  0  0  0  0  0  0  0  0
   11.1057    0.9545    0.6406 O   0  0  0  0  0  0  0  0  0  0  0  0
    9.8968    2.1433   -0.9589 N   0  0  0  0  0  0  0  0  0  0  0  0
   11.0581    2.9534   -1.2664 C   0  0  0  0  0  0  0  0  0  0  0  0
   11.5428    3.6891   -0.0771 C   0  0  0  0  0  0  0  0  0  0  0  0
   12.5484    4.4409   -0.1751 O   0  0  0  0  0  0  0  0  0  0  0  0
   10.9143    3.5903    1.2103 N   0  0  0  0  0  0  0  0  0  0  0  0
    7.6590    0.5791   -0.3944 N   0  0  0  0  0  0  0  0  0  0  0  0
    6.4053    0.9076    0.1930 C   0  0  0  0  0  0  0  0  0  0  0  0
    6.2110    0.9372    1.4361 O   0  0  0  0  0  0  0  0  0  0  0  0
    5.2971    1.2207   -0.7429 C   0  0  2  0  0  0  0  0  0  0  0  0
    5.4122    2.6401   -1.2125 C   0  0  0  0  0  0  0  0  0  0  0  0
    4.9165    3.3758    0.0179 C   0  0  0  0  0  0  0  0  0  0  0  0
    3.6815    2.5659    0.4440 C   0  0  0  0  0  0  0  0  0  0  0  0
    3.9850    1.2482   -0.0484 N   0  0  0  0  0  0  0  0  0  0  0  0
    3.2374    0.0449    0.0541 C   0  0  0  0  0  0  0  0  0  0  0  0
    3.8371   -0.9742   -0.5396 O   0  0  0  0  0  0  0  0  0  0  0  0
    1.9957   -0.2994    0.6524 C   0  0  2  0  0  0  0  0  0  0  0  0
    1.5499    0.1849    1.9834 C   0  0  0  0  0  0  0  0  0  0  0  0
    0.9974    1.9143    2.0164 S   0  0  0  0  0  0  0  0  0  0  0  0
   -0.5269    2.3355    0.7059 S   0  0  0  0  0  0  0  0  0  0  0  0
   -2.2087    2.1839    1.1465 C   0  0  0  0  0  0  0  0  0  0  0  0
   -2.8204    3.1687    2.0831 C   0  0  2  0  0  0  0  0  0  0  0  0
   -2.2820    3.0409    3.3919 N   0  0  0  0  0  0  0  0  0  0  0  0
   -4.2902    2.8400    2.0975 C   0  0  0  0  0  0  0  0  0  0  0  0
   -4.9509    2.5913    3.0983 O   0  0  0  0  0  0  0  0  0  0  0  0
   -4.9441    2.8180    0.8551 N   0  0  0  0  0  0  0  0  0  0  0  0
   -6.3134    2.4851    0.5537 C   0  0  1  0  0  0  0  0  0  0  0  0
   -6.8159    2.8980   -0.7648 C   0  0  0  0  0  0  0  0  0  0  0  0
   -6.7525    4.3626   -0.9370 C   0  0  0  0  0  0  0  0  0  0  0  0
   -7.8146    5.1278   -0.5343 C   0  0  0  0  0  0  0  0  0  0  0  0
   -7.8340    6.5126   -0.6709 C   0  0  0  0  0  0  0  0  0  0  0  0
   -6.7688    7.1771   -1.2263 C   0  0  0  0  0  0  0  0  0  0  0  0
   -5.7015    6.4047   -1.6313 C   0  0  0  0  0  0  0  0  0  0  0  0
   -5.6702    5.0265   -1.4994 C   0  0  0  0  0  0  0  0  0  0  0  0
   -6.3324    0.9729    0.7360 C   0  0  0  0  0  0  0  0  0  0  0  0
   -5.8392    0.5049    1.7592 O   0  0  0  0  0  0  0  0  0  0  0  0
   -6.8732    0.0795   -0.2114 N   0  0  0  0  0  0  0  0  0  0  0  0
   -6.8864   -1.3495    0.0548 C   0  0  2  0  0  0  0  0  0  0  0  0
   -5.5233   -1.8605    0.3857 C   0  0  0  0  0  0  0  0  0  0  0  0
   -4.5190   -1.1362    0.5065 O   0  0  0  0  0  0  0  0  0  0  0  0
   -5.2386   -3.2646    0.5897 N   0  0  0  0  0  0  0  0  0  0  0  0
   -3.9554   -3.5596    1.1770 C   0  0  2  0  0  0  0  0  0  0  0  0
   -2.7971   -3.5349    0.2367 C   0  0  0  0  0  0  0  0  0  0  0  0
   -2.8920   -3.5003   -0.9800 O   0  0  0  0  0  0  0  0  0  0  0  0
   -1.5224   -3.5408    0.8153 N   0  0  0  0  0  0  0  0  0  0  0  0
   -0.2052   -3.5078    0.2555 C   0  0  2  0  0  0  0  0  0  0  0  0
    0.3166   -2.1531    0.4815 C   0  0  0  0  0  0  0  0  0  0  0  0
   -0.5088   -1.2432    0.7145 O   0  0  0  0  0  0  0  0  0  0  0  0
    1.6683   -1.7422    0.4823 N   0  0  0  0  0  0  0  0  0  0  0  0
   -0.2629   -3.6829   -1.2652 C   0  0  0  0  0  0  0  0  0  0  0  0
   -0.8113   -4.9875   -1.6849 C   0  0  0  0  0  0  0  0  0  0  0  0
   -1.1007   -5.9309   -0.9082 O   0  0  0  0  0  0  0  0  0  0  0  0
   -1.0204   -5.1557   -3.1032 N   0  0  0  0  0  0  0  0  0  0  0  0
   -4.0175   -4.7443    2.0794 C   0  0  0  0  0  0  0  0  0  0  0  0
   -4.4639   -5.9634    1.3256 C   0  0  0  0  0  0  0  0  0  0  0  0
   -4.4922   -5.9504    0.0493 O   0  0  0  0  0  0  0  0  0  0  0  0
   -4.8583   -7.1282    2.0641 N   0  0  0  0  0  0  0  0  0  0  0  0
   -7.7306   -2.1707   -0.7974 C   0  0  2  0  0  0  0  0  0  0  0  0
   -7.4182   -2.1366   -2.2671 C   0  0  0  0  0  0  0  0  0  0  0  0
   -8.4337   -3.0662   -2.9292 C   0  0  0  0  0  0  0  0  0  0  0  0
   -9.1914   -1.7386   -0.6591 C   0  0  0  0  0  0  0  0  0  0  0  0
   11.2816   -3.1944   -2.3250 H   0  0  0  0  0  0  0  0  0  0  0  0
   11.8438   -1.7635   -3.1503 H   0  0  0  0  0  0  0  0  0  0  0  0
   11.6840   -1.5661   -0.7770 H   0  0  0  0  0  0  0  0  0  0  0  0
   10.8005   -0.3292   -1.7128 H   0  0  0  0  0  0  0  0  0  0  0  0
    8.7039   -1.7421   -1.5738 H   0  0  0  0  0  0  0  0  0  0  0  0
    9.6125   -2.9743   -0.6888 H   0  0  0  0  0  0  0  0  0  0  0  0
    9.9016   -1.4285    1.2241 H   0  0  0  0  0  0  0  0  0  0  0  0
    8.2041   -1.7527    0.9317 H   0  0  0  0  0  0  0  0  0  0  0  0
    8.5216    0.5428    1.4493 H   0  0  0  0  0  0  0  0  0  0  0  0
    8.9702    2.2382   -1.4101 H   0  0  0  0  0  0  0  0  0  0  0  0
   10.7937    3.6615   -2.0768 H   0  0  0  0  0  0  0  0  0  0  0  0
   11.9123    2.2974   -1.5872 H   0  0  0  0  0  0  0  0  0  0  0  0
   11.4629    3.6969    2.0954 H   0  0  0  0  0  0  0  0  0  0  0  0
    9.8920    3.4127    1.3195 H   0  0  0  0  0  0  0  0  0  0  0  0
    7.7834    0.5612   -1.4388 H   0  0  0  0  0  0  0  0  0  0  0  0
    5.2640    0.4979   -1.5900 H   0  0  0  0  0  0  0  0  0  0  0  0
    6.4697    2.9351   -1.4089 H   0  0  0  0  0  0  0  0  0  0  0  0
    4.8527    2.8838   -2.1180 H   0  0  0  0  0  0  0  0  0  0  0  0
    5.6984    3.3602    0.7724 H   0  0  0  0  0  0  0  0  0  0  0  0
    4.6159    4.4226   -0.1856 H   0  0  0  0  0  0  0  0  0  0  0  0
    2.7725    3.0028   -0.0033 H   0  0  0  0  0  0  0  0  0  0  0  0
    3.7185    2.6031    1.5463 H   0  0  0  0  0  0  0  0  0  0  0  0
    1.1386    0.1490   -0.0143 H   0  0  0  0  0  0  0  0  0  0  0  0
    2.3799    0.1665    2.7460 H   0  0  0  0  0  0  0  0  0  0  0  0
    0.7647   -0.4271    2.4379 H   0  0  0  0  0  0  0  0  0  0  0  0
   -2.3159    1.1737    1.7026 H   0  0  0  0  0  0  0  0  0  0  0  0
   -2.8274    1.9765    0.2325 H   0  0  0  0  0  0  0  0  0  0  0  0
   -2.7414    4.2235    1.6920 H   0  0  0  0  0  0  0  0  0  0  0  0
   -1.5780    2.2742    3.4038 H   0  0  0  0  0  0  0  0  0  0  0  0
   -1.9110    3.8845    3.8377 H   0  0  0  0  0  0  0  0  0  0  0  0
   -4.3661    3.1026    0.0413 H   0  0  0  0  0  0  0  0  0  0  0  0
   -6.9786    2.8333    1.4091 H   0  0  0  0  0  0  0  0  0  0  0  0
   -6.2187    2.4114   -1.5866 H   0  0  0  0  0  0  0  0  0  0  0  0
   -7.8983    2.6152   -0.9326 H   0  0  0  0  0  0  0  0  0  0  0  0
   -8.6662    4.6482   -0.0937 H   0  0  0  0  0  0  0  0  0  0  0  0
   -8.7287    7.0442   -0.3149 H   0  0  0  0  0  0  0  0  0  0  0  0
   -6.7968    8.2553   -1.3238 H   0  0  0  0  0  0  0  0  0  0  0  0
   -4.8163    6.8816   -2.0833 H   0  0  0  0  0  0  0  0  0  0  0  0
   -4.8149    4.4728   -1.8359 H   0  0  0  0  0  0  0  0  0  0  0  0
   -7.2383    0.5050   -1.0649 H   0  0  0  0  0  0  0  0  0  0  0  0
   -7.3399   -1.3682    1.1229 H   0  0  0  0  0  0  0  0  0  0  0  0
   -5.9655   -3.8997    0.3039 H   0  0  0  0  0  0  0  0  0  0  0  0
   -3.6677   -2.6660    1.8675 H   0  0  0  0  0  0  0  0  0  0  0  0
   -1.5401   -3.5822    1.8840 H   0  0  0  0  0  0  0  0  0  0  0  0
    0.4230   -4.3629    0.5745 H   0  0  0  0  0  0  0  0  0  0  0  0
    2.3674   -2.4635    0.3641 H   0  0  0  0  0  0  0  0  0  0  0  0
    0.8007   -3.6793   -1.6244 H   0  0  0  0  0  0  0  0  0  0  0  0
   -0.7884   -2.8744   -1.7760 H   0  0  0  0  0  0  0  0  0  0  0  0
   -0.2006   -5.3266   -3.7393 H   0  0  0  0  0  0  0  0  0  0  0  0
   -1.9754   -5.1036   -3.4711 H   0  0  0  0  0  0  0  0  0  0  0  0
   -4.7630   -4.5919    2.8902 H   0  0  0  0  0  0  0  0  0  0  0  0
   -3.0740   -4.9958    2.5810 H   0  0  0  0  0  0  0  0  0  0  0  0
   -5.3635   -7.0530    2.9897 H   0  0  0  0  0  0  0  0  0  0  0  0
   -4.6656   -8.1098    1.7213 H   0  0  0  0  0  0  0  0  0  0  0  0
   -7.6732   -3.2232   -0.4794 H   0  0  0  0  0  0  0  0  0  0  0  0
   -6.4308   -2.5393   -2.5469 H   0  0  0  0  0  0  0  0  0  0  0  0
   -7.5565   -1.1386   -2.7071 H   0  0  0  0  0  0  0  0  0  0  0  0
   -8.6618   -3.9270   -2.2719 H   0  0  0  0  0  0  0  0  0  0  0  0
   -8.0360   -3.5243   -3.8675 H   0  0  0  0  0  0  0  0  0  0  0  0
   -9.3840   -2.5485   -3.1244 H   0  0  0  0  0  0  0  0  0  0  0  0
   -9.3871   -0.9074   -1.3755 H   0  0  0  0  0  0  0  0  0  0  0  0
   -9.8123   -2.5943   -0.9530 H   0  0  0  0  0  0  0  0  0  0  0  0
   -9.3895   -1.3484    0.3494 H   0  0  0  0  0  0  0  0  0  0  0  0
  1  2  1  0
  2  3  1  0
  3  4  1  0
  4  5  1  0
  5  6  1  0
  6  7  2  0
  6  8  1  0
  8  9  1  0
  9 10  1  0
 10 11  2  0
 10 12  1  0
  5 13  1  0
 13 14  1  0
 14 15  2  0
 14 16  1  0
 16 17  1  0
 17 18  1  0
 18 19  1  0
 19 20  1  0
 20 21  1  0
 21 22  2  0
 21 23  1  0
 23 24  1  0
 24 25  1  0
 25 26  1  0
 26 27  1  0
 27 28  1  0
 28 29  1  0
 28 30  1  0
 30 31  2  0
 30 32  1  0
 32 33  1  0
 33 34  1  0
 34 35  1  0
 35 36  2  0
 36 37  1  0
 37 38  2  0
 38 39  1  0
 39 40  2  0
 33 41  1  0
 41 42  2  0
 41 43  1  0
 43 44  1  0
 44 45  1  0
 45 46  2  0
 45 47  1  0
 47 48  1  0
 48 49  1  0
 49 50  2  0
 49 51  1  0
 51 52  1  0
 52 53  1  0
 53 54  2  0
 53 55  1  0
 52 56  1  0
 56 57  1  0
 57 58  2  0
 57 59  1  0
 48 60  1  0
 60 61  1  0
 61 62  2  0
 61 63  1  0
 44 64  1  0
 64 65  1  0
 65 66  1  0
 64 67  1  0
 20 16  1  0
 55 23  1  0
 40 35  1  0
  1 68  1  0
  1 69  1  0
  2 70  1  0
  2 71  1  0
  3 72  1  0
  3 73  1  0
  4 74  1  0
  4 75  1  0
  5 76  1  1
  8 77  1  0
  9 78  1  0
  9 79  1  0
 12 80  1  0
 12 81  1  0
 13 82  1  0
 16 83  1  6
 17 84  1  0
 17 85  1  0
 18 86  1  0
 18 87  1  0
 19 88  1  0
 19 89  1  0
 23 90  1  6
 24 91  1  0
 24 92  1  0
 27 93  1  0
 27 94  1  0
 28 95  1  6
 29 96  1  0
 29 97  1  0
 32 98  1  0
 33 99  1  1
 34100  1  0
 34101  1  0
 36102  1  0
 37103  1  0
 38104  1  0
 39105  1  0
 40106  1  0
 43107  1  0
 44108  1  1
 47109  1  0
 48110  1  1
 51111  1  0
 52112  1  1
 55113  1  0
 56114  1  0
 56115  1  0
 59116  1  0
 59117  1  0
 60118  1  0
 60119  1  0
 63120  1  0
 63121  1  0
 64122  1  1
 65123  1  0
 65124  1  0
 66125  1  0
 66126  1  0
 66127  1  0
 67128  1  0
 67129  1  0
 67130  1  0
M  END
>  <Ligand ID>  (1) 
LIG0000916

>  <Ligand>  (1) 
CHEMBL1817692

>  <SMILES>  (1) 
NCCC[C@@H](C(=O)NCC(=O)N)NC(=O)[C@@H]1CCCN1C(=O)[C@@H]1CSSC[C@H](N)C(=O)N[C@@H](Cc2ccccc2)C(=O)N[C@H](C(=O)N[C@H](C(=O)N[C@H](C(=O)N1)CC(=O)N)CC(=O)N)[C@H](CC)C

>  <CID>  (1) 
53362203.0

>  <ChEMBL ID>  (1) 
nan

>  <InChiKey>  (1) 
DFJXMBVISWEOGV-VIZGXHJBSA-N

>  <InChi>  (1) 
InChI=1S/C41H63N13O11S2/c1-3-21(2)33-40(64)51-27(17-31(45)56)36(60)50-26(16-30(44)55)37(61)52-28(20-67-66-19-23(43)34(58)49-25(38(62)53-33)15-22-9-5-4-6-10-22)41(65)54-14-8-12-29(54)39(63)48-24(11-7-13-42)35(59)47-18-32(46)57/h4-6,9-10,21,23-29,33H,3,7-8,11-20,42-43H2,1-2H3,(H2,44,55)(H2,45,56)(H2,46,57)(H,47,59)(H,48,63)(H,49,58)(H,50,60)(H,51,64)(H,52,61)(H,53,62)/t21-,23-,24-,25-,26-,27-,28-,29-,33-/m0/s1

>  <IUPAC Name>  (1) 
(2S)-N-[(2S)-5-amino-1-[(2-amino-2-oxoethyl)amino]-1-oxopentan-2-yl]-1-[(4R,7S,10S,13S,16S,19R)-19-amino-7,10-bis(2-amino-2-oxoethyl)-16-benzyl-13-[(2S)-butan-2-yl]-6,9,12,15,18-pentaoxo-1,2-dithia-5,8,11,14,17-pentazacycloicosane-4-carbonyl]pyrrolidine-2-carboxamide

$$$$
