
     RDKit          3D

 35 37  0  0  0  0  0  0  0  0999 V2000
   -1.4316    3.3840   -0.4338 O   0  0  0  0  0  0  0  0  0  0  0  0
   -1.6110    2.3656   -1.3819 C   0  0  0  0  0  0  0  0  0  0  0  0
   -1.9643    2.7811   -2.5392 O   0  0  0  0  0  0  0  0  0  0  0  0
   -1.4103    0.9374   -1.0747 C   0  0  1  0  0  0  0  0  0  0  0  0
   -0.5742    0.5527    0.0637 C   0  0  1  0  0  0  0  0  0  0  0  0
   -2.0423    0.5395    0.2502 C   0  0  2  0  0  0  0  0  0  0  0  0
   -2.5513   -0.8629    0.2889 C   0  0  2  0  0  0  0  0  0  0  0  0
   -1.3317   -1.7318    0.3918 C   0  0  0  0  0  0  0  0  0  0  0  0
   -0.1218   -0.8596    0.2934 C   0  0  1  0  0  0  0  0  0  0  0  0
    1.1002   -1.4661   -0.8589 S   0  0  0  0  0  0  0  0  0  0  0  0
    2.6393   -0.5960   -0.6422 C   0  0  0  0  0  0  0  0  0  0  0  0
    2.9748    0.5568   -1.2945 C   0  0  0  0  0  0  0  0  0  0  0  0
    4.1997    1.1630   -1.0668 C   0  0  0  0  0  0  0  0  0  0  0  0
    5.1295    0.6293   -0.1735 C   0  0  0  0  0  0  0  0  0  0  0  0
    4.7691   -0.5485    0.4835 C   0  0  0  0  0  0  0  0  0  0  0  0
    3.5493   -1.1549    0.2585 C   0  0  0  0  0  0  0  0  0  0  0  0
   -3.1987   -1.1726   -0.9751 N   0  0  0  0  0  0  0  0  0  0  0  0
   -3.5078   -1.1052    1.4065 C   0  0  0  0  0  0  0  0  0  0  0  0
   -4.6906   -1.5007    1.2147 O   0  0  0  0  0  0  0  0  0  0  0  0
   -3.1314   -0.9033    2.7245 O   0  0  0  0  0  0  0  0  0  0  0  0
   -0.9174    4.2455   -0.6788 H   0  0  0  0  0  0  0  0  0  0  0  0
   -1.5972    0.2820   -1.9455 H   0  0  0  0  0  0  0  0  0  0  0  0
   -0.0075    1.3603    0.5715 H   0  0  0  0  0  0  0  0  0  0  0  0
   -2.4639    1.3114    0.9191 H   0  0  0  0  0  0  0  0  0  0  0  0
   -1.3776   -2.3181    1.3395 H   0  0  0  0  0  0  0  0  0  0  0  0
   -1.2934   -2.5059   -0.4098 H   0  0  0  0  0  0  0  0  0  0  0  0
    0.3445   -0.8622    1.3190 H   0  0  0  0  0  0  0  0  0  0  0  0
    2.2508    0.9876   -1.9994 H   0  0  0  0  0  0  0  0  0  0  0  0
    4.4132    2.0729   -1.6116 H   0  0  0  0  0  0  0  0  0  0  0  0
    6.0882    1.1023    0.0048 H   0  0  0  0  0  0  0  0  0  0  0  0
    5.4454   -1.0262    1.1960 H   0  0  0  0  0  0  0  0  0  0  0  0
    3.2966   -2.0836    0.7933 H   0  0  0  0  0  0  0  0  0  0  0  0
   -2.9934   -2.1541   -1.2705 H   0  0  0  0  0  0  0  0  0  0  0  0
   -4.2236   -0.9843   -0.9558 H   0  0  0  0  0  0  0  0  0  0  0  0
   -3.7597   -0.4357    3.3870 H   0  0  0  0  0  0  0  0  0  0  0  0
  1  2  1  0
  2  3  2  0
  2  4  1  0
  4  5  1  0
  5  6  1  0
  6  7  1  0
  7  8  1  0
  8  9  1  0
  9 10  1  0
 10 11  1  0
 11 12  2  0
 12 13  1  0
 13 14  2  0
 14 15  1  0
 15 16  2  0
  7 17  1  6
  7 18  1  0
 18 19  2  0
 18 20  1  0
  6  4  1  0
 16 11  1  0
  9  5  1  0
  1 21  1  0
  4 22  1  6
  5 23  1  1
  6 24  1  1
  8 25  1  0
  8 26  1  0
  9 27  1  1
 12 28  1  0
 13 29  1  0
 14 30  1  0
 15 31  1  0
 16 32  1  0
 17 33  1  0
 17 34  1  0
 20 35  1  0
M  END
>  <Ligand ID>  (1) 
LIG0001201

>  <Ligand>  (1) 
CHEMBL2381650

>  <SMILES>  (1) 
OC(=O)[C@H]1[C@H]2[C@@H]1[C@](C[C@H]2Sc1ccccc1)(N)C(=O)O

>  <CID>  (1) 
10979251.0

>  <ChEMBL ID>  (1) 
nan

>  <InChiKey>  (1) 
QMTVYANBFIIHRR-SEKJGCFDSA-N

>  <InChi>  (1) 
InChI=1S/C14H15NO4S/c15-14(13(18)19)6-8(9-10(11(9)14)12(16)17)20-7-4-2-1-3-5-7/h1-5,8-11H,6,15H2,(H,16,17)(H,18,19)/t8-,9+,10+,11+,14+/m1/s1

>  <IUPAC Name>  (1) 
(1R,2S,4R,5R,6R)-2-amino-4-phenylsulfanylbicyclo[3.1.0]hexane-2,6-dicarboxylic acid

$$$$
