
     RDKit          3D

 40 40  0  0  0  0  0  0  0  0999 V2000
    1.4517   -0.6596    0.3069 O   0  0  0  0  0  0  0  0  0  0  0  0
    0.4821    0.2554   -0.0755 C   0  0  0  0  0  0  0  0  0  0  0  0
    0.8906    1.3749   -0.5292 O   0  0  0  0  0  0  0  0  0  0  0  0
   -0.9837   -0.0404    0.0325 C   0  0  0  0  0  0  0  0  0  0  0  0
   -1.2075   -0.2787    1.3781 F   0  0  0  0  0  0  0  0  0  0  0  0
   -1.3405   -1.1536   -0.6895 F   0  0  0  0  0  0  0  0  0  0  0  0
   -1.6708    1.0990   -0.3066 F   0  0  0  0  0  0  0  0  0  0  0  0
    3.8995    0.7099    0.1641 C   0  0  0  0  0  0  0  0  0  0  0  0
    3.8146    0.6993   -1.1502 C   0  0  0  0  0  0  0  0  0  0  0  0
    2.5980    0.5534   -1.9569 C   0  0  0  0  0  0  0  0  0  0  0  0
    1.4249    0.4018   -1.2209 O   0  0  0  0  0  0  0  0  0  0  0  0
    1.0729   -0.6075   -0.3759 C   0  0  0  0  0  0  0  0  0  0  0  0
    1.8141   -1.7219   -0.0783 C   0  0  0  0  0  0  0  0  0  0  0  0
    1.3983   -2.7146    0.7878 C   0  0  0  0  0  0  0  0  0  0  0  0
    0.1783   -2.5833    1.3853 C   0  0  0  0  0  0  0  0  0  0  0  0
   -0.6041   -1.4832    1.1197 C   0  0  0  0  0  0  0  0  0  0  0  0
   -0.1672   -0.5095    0.2540 C   0  0  0  0  0  0  0  0  0  0  0  0
   -1.0372    0.6674   -0.0115 C   0  0  1  0  0  0  0  0  0  0  0  0
   -2.0250    0.5995   -1.1525 C   0  0  0  0  0  0  0  0  0  0  0  0
   -2.4745    0.5935    0.2626 C   0  0  2  0  0  0  0  0  0  0  0  0
   -3.1261    1.8349    0.8561 C   0  0  0  0  0  0  0  0  0  0  0  0
   -4.5371    1.5687    1.0540 N   0  0  0  0  0  0  0  0  0  0  0  0
   -0.3459   -3.8399    2.4805 Cl  0  0  0  0  0  0  0  0  0  0  0  0
    2.3783   -0.5969   -0.1167 H   0  0  0  0  0  0  0  0  0  0  0  0
    3.0757    0.6127    0.8519 H   0  0  0  0  0  0  0  0  0  0  0  0
    4.8826    0.8263    0.6409 H   0  0  0  0  0  0  0  0  0  0  0  0
    4.7592    0.8123   -1.7139 H   0  0  0  0  0  0  0  0  0  0  0  0
    2.5249    1.4430   -2.6524 H   0  0  0  0  0  0  0  0  0  0  0  0
    2.7519   -0.3030   -2.6818 H   0  0  0  0  0  0  0  0  0  0  0  0
    2.7662   -1.8411   -0.5386 H   0  0  0  0  0  0  0  0  0  0  0  0
    2.0347   -3.5821    0.9864 H   0  0  0  0  0  0  0  0  0  0  0  0
   -1.5654   -1.4468    1.6333 H   0  0  0  0  0  0  0  0  0  0  0  0
   -0.5344    1.6691    0.0864 H   0  0  0  0  0  0  0  0  0  0  0  0
   -2.0751   -0.3543   -1.7218 H   0  0  0  0  0  0  0  0  0  0  0  0
   -2.2381    1.5110   -1.7436 H   0  0  0  0  0  0  0  0  0  0  0  0
   -2.9483   -0.3316    0.6326 H   0  0  0  0  0  0  0  0  0  0  0  0
   -2.9785    2.7137    0.2173 H   0  0  0  0  0  0  0  0  0  0  0  0
   -2.6883    2.0173    1.8544 H   0  0  0  0  0  0  0  0  0  0  0  0
   -4.6415    0.6735    1.5874 H   0  0  0  0  0  0  0  0  0  0  0  0
   -5.0092    1.4116    0.1437 H   0  0  0  0  0  0  0  0  0  0  0  0
  1  2  1  0
  2  3  2  0
  2  4  1  0
  4  5  1  0
  4  6  1  0
  4  7  1  0
  8  9  2  0
  9 10  1  0
 10 11  1  0
 11 12  1  0
 12 13  2  0
 13 14  1  0
 14 15  2  0
 15 16  1  0
 16 17  2  0
 17 18  1  0
 18 19  1  0
 19 20  1  0
 20 21  1  0
 21 22  1  0
 15 23  1  0
 17 12  1  0
 20 18  1  0
  1 24  1  0
  8 25  1  0
  8 26  1  0
  9 27  1  0
 10 28  1  0
 10 29  1  0
 13 30  1  0
 14 31  1  0
 16 32  1  0
 18 33  1  6
 19 34  1  0
 19 35  1  0
 20 36  1  1
 21 37  1  0
 21 38  1  0
 22 39  1  0
 22 40  1  0
M  END
>  <Ligand ID>  (1) 
LIG0005652

>  <Ligand>  (1) 
CID 118733789

>  <SMILES>  (1) 
OC(=O)C(F)(F)F.C=CCOc1ccc(cc1[C@H]1C[C@@H]1CN)Cl

>  <CID>  (1) 
118733789.0

>  <ChEMBL ID>  (1) 
nan

>  <InChiKey>  (1) 
BVQUTZSFPJRZCS-XQKZEKTMSA-N

>  <InChi>  (1) 
InChI=1S/C13H16ClNO.C2HF3O2/c1-2-5-16-13-4-3-10(14)7-12(13)11-6-9(11)8-15;3-2(4,5)1(6)7/h2-4,7,9,11H,1,5-6,8,15H2;(H,6,7)/t9-,11+;/m1./s1

>  <IUPAC Name>  (1) 
[(1S,2S)-2-(5-chloro-2-prop-2-enoxyphenyl)cyclopropyl]methanamine;2,2,2-trifluoroacetic acid

$$$$
