
     RDKit          3D

 57 62  0  0  0  0  0  0  0  0999 V2000
    2.8539   -0.9197    2.5513 C   0  0  0  0  0  0  0  0  0  0  0  0
    2.8016   -1.1671    1.2058 O   0  0  0  0  0  0  0  0  0  0  0  0
    2.8471   -0.0266    0.4755 C   0  0  2  0  0  0  0  0  0  0  0  0
    1.6627    0.4404   -0.2568 C   0  0  2  0  0  0  0  0  0  0  0  0
    0.4912    0.7774    0.6955 C   0  0  0  0  0  0  0  0  0  0  0  0
   -0.6686    1.1193   -0.1961 C   0  0  0  0  0  0  0  0  0  0  0  0
   -0.1452    1.7886   -1.4098 C   0  0  0  0  0  0  0  0  0  0  0  0
    0.5705    0.9960   -2.2492 C   0  0  0  0  0  0  0  0  0  0  0  0
    1.1793   -0.2049   -1.4929 C   0  0  1  0  0  0  0  0  0  0  0  0
    2.0563   -0.7751   -2.3325 O   0  0  0  0  0  0  0  0  0  0  0  0
    2.6962   -1.9197   -2.1436 C   0  0  0  0  0  0  0  0  0  0  0  0
   -0.0749   -1.0591   -1.3668 C   0  0  2  0  0  0  0  0  0  0  0  0
   -1.1432   -0.2470   -0.7035 C   0  0  0  0  0  0  0  0  0  0  0  0
   -2.3984   -0.0686   -1.4533 C   0  0  0  0  0  0  0  0  0  0  0  0
   -2.8213    1.3599   -1.7106 C   0  0  0  0  0  0  0  0  0  0  0  0
   -2.7789    2.1854   -0.5617 N   0  0  0  0  0  0  0  0  0  0  0  0
   -1.8339    1.7604    0.4466 C   0  0  0  0  0  0  0  0  0  0  0  0
   -2.5945    0.8921    1.4082 C   0  0  0  0  0  0  0  0  0  0  0  0
   -2.0523   -0.4567    1.5764 C   0  0  0  0  0  0  0  0  0  0  0  0
   -1.3006   -0.9849    0.5775 C   0  0  0  0  0  0  0  0  0  0  0  0
   -0.6528   -2.1829    0.5537 C   0  0  0  0  0  0  0  0  0  0  0  0
   -0.0042   -2.2592   -0.6885 O   0  0  0  0  0  0  0  0  0  0  0  0
   -0.7802   -2.9634    1.6811 C   0  0  0  0  0  0  0  0  0  0  0  0
   -0.1453   -4.1940    1.7114 O   0  0  0  0  0  0  0  0  0  0  0  0
   -1.5438   -2.4899    2.7549 C   0  0  0  0  0  0  0  0  0  0  0  0
   -2.1808   -1.2441    2.7148 C   0  0  0  0  0  0  0  0  0  0  0  0
   -2.6657    3.5665   -0.9144 C   0  0  0  0  0  0  0  0  0  0  0  0
    4.1445    0.2903   -0.1994 C   0  0  0  0  0  0  0  0  0  0  0  0
    2.0374   -0.2970    2.9220 H   0  0  0  0  0  0  0  0  0  0  0  0
    3.7955   -0.3769    2.7857 H   0  0  0  0  0  0  0  0  0  0  0  0
    2.8117   -1.8685    3.1290 H   0  0  0  0  0  0  0  0  0  0  0  0
    2.8754    0.7787    1.3664 H   0  0  0  0  0  0  0  0  0  0  0  0
    1.9817    1.5247   -0.5530 H   0  0  0  0  0  0  0  0  0  0  0  0
    0.3178   -0.0904    1.3192 H   0  0  0  0  0  0  0  0  0  0  0  0
    0.7755    1.6859    1.3023 H   0  0  0  0  0  0  0  0  0  0  0  0
   -0.2678    2.8048   -1.6825 H   0  0  0  0  0  0  0  0  0  0  0  0
    0.7077    1.1534   -3.2731 H   0  0  0  0  0  0  0  0  0  0  0  0
    3.3709   -2.0789   -3.0546 H   0  0  0  0  0  0  0  0  0  0  0  0
    3.3750   -1.9909   -1.3038 H   0  0  0  0  0  0  0  0  0  0  0  0
    2.0428   -2.8432   -2.2195 H   0  0  0  0  0  0  0  0  0  0  0  0
   -0.4178   -1.2233   -2.4145 H   0  0  0  0  0  0  0  0  0  0  0  0
   -3.2327   -0.6705   -1.0363 H   0  0  0  0  0  0  0  0  0  0  0  0
   -2.2308   -0.5033   -2.4819 H   0  0  0  0  0  0  0  0  0  0  0  0
   -2.3097    1.8267   -2.5760 H   0  0  0  0  0  0  0  0  0  0  0  0
   -3.8922    1.2855   -2.0333 H   0  0  0  0  0  0  0  0  0  0  0  0
   -1.4959    2.6586    0.9969 H   0  0  0  0  0  0  0  0  0  0  0  0
   -3.6806    0.7926    1.1532 H   0  0  0  0  0  0  0  0  0  0  0  0
   -2.6171    1.3478    2.4421 H   0  0  0  0  0  0  0  0  0  0  0  0
   -0.7702   -5.0106    1.6240 H   0  0  0  0  0  0  0  0  0  0  0  0
   -1.6489   -3.1118    3.6582 H   0  0  0  0  0  0  0  0  0  0  0  0
   -2.7705   -0.8672    3.5352 H   0  0  0  0  0  0  0  0  0  0  0  0
   -2.4197    3.7522   -1.9926 H   0  0  0  0  0  0  0  0  0  0  0  0
   -3.6034    4.1340   -0.6944 H   0  0  0  0  0  0  0  0  0  0  0  0
   -1.8036    4.0221   -0.3433 H   0  0  0  0  0  0  0  0  0  0  0  0
    4.6602    1.2055    0.1810 H   0  0  0  0  0  0  0  0  0  0  0  0
    4.8803   -0.5516   -0.1364 H   0  0  0  0  0  0  0  0  0  0  0  0
    4.0101    0.4982   -1.2936 H   0  0  0  0  0  0  0  0  0  0  0  0
  1  2  1  0
  2  3  1  0
  3  4  1  0
  4  5  1  0
  5  6  1  0
  6  7  1  0
  7  8  2  0
  8  9  1  0
  9 10  1  6
 10 11  1  0
  9 12  1  0
 12 13  1  0
 13 14  1  0
 14 15  1  0
 15 16  1  0
 16 17  1  0
 17 18  1  0
 18 19  1  0
 19 20  1  0
 20 21  2  0
 21 22  1  0
 21 23  1  0
 23 24  1  0
 23 25  2  0
 25 26  1  0
 16 27  1  0
  3 28  1  0
  9  4  1  0
 22 12  1  0
 17  6  1  0
 26 19  2  0
 13  6  1  0
 20 13  1  0
  1 29  1  0
  1 30  1  0
  1 31  1  0
  3 32  1  1
  4 33  1  6
  5 34  1  0
  5 35  1  0
  7 36  1  0
  8 37  1  0
 11 38  1  0
 11 39  1  0
 11 40  1  0
 12 41  1  6
 14 42  1  0
 14 43  1  0
 15 44  1  0
 15 45  1  0
 17 46  1  0
 18 47  1  0
 18 48  1  0
 24 49  1  0
 25 50  1  0
 26 51  1  0
 27 52  1  0
 27 53  1  0
 27 54  1  0
 28 55  1  0
 28 56  1  0
 28 57  1  0
M  END
>  <Ligand ID>  (1) 
LIG0002132

>  <Ligand>  (1) 
CHEMBL1169582

>  <SMILES>  (1) 
CO[C@H]([C@@H]1CC23C=C[C@]1(OC)[C@@H]1C43CCN(C2Cc2c4c(O1)c(O)cc2)C)C

>  <CID>  (1) 
49799966.0

>  <ChEMBL ID>  (1) 
nan

>  <InChiKey>  (1) 
DRJFACWZQYBMLO-CDTUDGABSA-N

>  <InChi>  (1) 
InChI=1S/C23H29NO4/c1-13(26-3)15-12-21-7-8-23(15,27-4)20-22(21)9-10-24(2)17(21)11-14-5-6-16(25)19(28-20)18(14)22/h5-8,13,15,17,20,25H,9-12H2,1-4H3/t13-,15-,17?,20-,21?,22?,23+/m0/s1

>  <IUPAC Name>  (1) 
(14S,15R,19S)-15-methoxy-19-[(1S)-1-methoxyethyl]-5-methyl-13-oxa-5-azahexacyclo[13.2.2.12,8.01,6.02,14.012,20]icosa-8(20),9,11,16-tetraen-11-ol

$$$$
