
     RDKit          3D

 46 50  0  0  0  0  0  0  0  0999 V2000
   -4.2867    1.9832    0.2842 N   0  0  0  0  0  0  0  0  0  0  0  0
   -3.0644    2.3392   -0.3978 C   0  0  0  0  0  0  0  0  0  0  0  0
   -1.9688    1.3464   -0.2240 C   0  0  0  0  0  0  0  0  0  0  0  0
   -2.3702   -0.0559   -0.0238 C   0  0  0  0  0  0  0  0  0  0  0  0
   -3.6290   -0.6238   -0.1860 C   0  0  0  0  0  0  0  0  0  0  0  0
   -4.9385   -0.1209   -0.5954 C   0  0  0  0  0  0  0  0  0  0  0  0
   -5.1023    1.3381   -0.7272 C   0  0  0  0  0  0  0  0  0  0  0  0
   -3.7697   -1.9659    0.0685 N   0  0  0  0  0  0  0  0  0  0  0  0
   -2.7146   -2.6724    0.4564 C   0  0  0  0  0  0  0  0  0  0  0  0
   -1.5234   -2.1204    0.6065 N   0  0  0  0  0  0  0  0  0  0  0  0
   -1.2699   -0.7925    0.3802 C   0  0  0  0  0  0  0  0  0  0  0  0
    0.0330   -0.2553    0.5477 N   0  0  0  0  0  0  0  0  0  0  0  0
    0.8372    0.9015    0.4427 C   0  0  0  0  0  0  0  0  0  0  0  0
    2.0577   -0.0002    0.1683 C   0  0  0  0  0  0  0  0  0  0  0  0
    1.2560   -0.9559    1.0223 C   0  0  0  0  0  0  0  0  0  0  0  0
    3.2203    0.4911    0.7514 O   0  0  0  0  0  0  0  0  0  0  0  0
    4.3911    0.6646    0.0839 C   0  0  0  0  0  0  0  0  0  0  0  0
    4.6301    0.3965   -1.2405 C   0  0  0  0  0  0  0  0  0  0  0  0
    5.8609    0.6033   -1.8472 C   0  0  0  0  0  0  0  0  0  0  0  0
    6.9068    1.0980   -1.1139 C   0  0  0  0  0  0  0  0  0  0  0  0
    6.7075    1.3802    0.2201 C   0  0  0  0  0  0  0  0  0  0  0  0
    5.4765    1.1691    0.8097 C   0  0  0  0  0  0  0  0  0  0  0  0
   -0.7183   -3.1106    0.9985 N   0  0  0  0  0  0  0  0  0  0  0  0
   -1.3475   -4.2684    1.1039 C   0  0  0  0  0  0  0  0  0  0  0  0
   -2.6589   -4.0378    0.7601 C   0  0  0  0  0  0  0  0  0  0  0  0
   -4.1370    1.3931    1.1127 H   0  0  0  0  0  0  0  0  0  0  0  0
   -3.2930    2.5564   -1.4780 H   0  0  0  0  0  0  0  0  0  0  0  0
   -2.7475    3.3146    0.0251 H   0  0  0  0  0  0  0  0  0  0  0  0
   -1.3876    1.6879    0.6563 H   0  0  0  0  0  0  0  0  0  0  0  0
   -1.4123    1.3588   -1.1842 H   0  0  0  0  0  0  0  0  0  0  0  0
   -5.1923   -0.5719   -1.6040 H   0  0  0  0  0  0  0  0  0  0  0  0
   -5.7580   -0.5012    0.0880 H   0  0  0  0  0  0  0  0  0  0  0  0
   -6.1732    1.6141   -0.6266 H   0  0  0  0  0  0  0  0  0  0  0  0
   -4.8080    1.6514   -1.7667 H   0  0  0  0  0  0  0  0  0  0  0  0
    0.7717    1.5921   -0.3832 H   0  0  0  0  0  0  0  0  0  0  0  0
    0.9961    1.3670    1.4583 H   0  0  0  0  0  0  0  0  0  0  0  0
    2.1069   -0.2625   -0.9011 H   0  0  0  0  0  0  0  0  0  0  0  0
    1.4428   -0.7836    2.0820 H   0  0  0  0  0  0  0  0  0  0  0  0
    1.3558   -1.9852    0.6711 H   0  0  0  0  0  0  0  0  0  0  0  0
    3.8494    0.0103   -1.8546 H   0  0  0  0  0  0  0  0  0  0  0  0
    5.9885    0.3714   -2.9015 H   0  0  0  0  0  0  0  0  0  0  0  0
    7.8452    1.2433   -1.6245 H   0  0  0  0  0  0  0  0  0  0  0  0
    7.5586    1.7710    0.7706 H   0  0  0  0  0  0  0  0  0  0  0  0
    5.3954    1.4142    1.8633 H   0  0  0  0  0  0  0  0  0  0  0  0
   -0.9393   -5.2252    1.3996 H   0  0  0  0  0  0  0  0  0  0  0  0
   -3.4772   -4.7470    0.7273 H   0  0  0  0  0  0  0  0  0  0  0  0
  1  2  1  0
  2  3  1  0
  3  4  1  0
  4  5  1  0
  5  6  1  0
  6  7  1  0
  5  8  2  0
  8  9  1  0
  9 10  1  0
 10 11  1  0
 11 12  1  0
 12 13  1  0
 13 14  1  0
 14 15  1  0
 14 16  1  0
 16 17  1  0
 17 18  2  0
 18 19  1  0
 19 20  2  0
 20 21  1  0
 21 22  2  0
 10 23  1  0
 23 24  2  0
 24 25  1  0
  7  1  1  0
 25  9  2  0
 11  4  2  0
 15 12  1  0
 22 17  1  0
  1 26  1  0
  2 27  1  0
  2 28  1  0
  3 29  1  0
  3 30  1  0
  6 31  1  0
  6 32  1  0
  7 33  1  0
  7 34  1  0
 13 35  1  0
 13 36  1  0
 14 37  1  0
 15 38  1  0
 15 39  1  0
 18 40  1  0
 19 41  1  0
 20 42  1  0
 21 43  1  0
 22 44  1  0
 24 45  1  0
 25 46  1  0
M  END
>  <Ligand ID>  (1) 
LIG0003240

>  <Ligand>  (1) 
CHEMBL1643675

>  <SMILES>  (1) 
N1CCc2c(CC1)nc1n(c2N2CC(C2)Oc2ccccc2)ncc1

>  <CID>  (1) 
53325936.0

>  <ChEMBL ID>  (1) 
nan

>  <InChiKey>  (1) 
KEOBEGKGLRTEQM-UHFFFAOYSA-N

>  <InChi>  (1) 
InChI=1S/C19H21N5O/c1-2-4-14(5-3-1)25-15-12-23(13-15)19-16-6-9-20-10-7-17(16)22-18-8-11-21-24(18)19/h1-5,8,11,15,20H,6-7,9-10,12-13H2

>  <IUPAC Name>  (1) 
8-(3-phenoxyazetidin-1-yl)-2,6,7,12-tetrazatricyclo[7.5.0.03,7]tetradeca-1,3,5,8-tetraene

$$$$
