
     RDKit          3D

 19 19  0  0  0  0  0  0  0  0999 V2000
   -3.7194    0.2920   -0.5379 O   0  0  0  0  0  0  0  0  0  0  0  0
   -2.5047    0.1588   -0.2238 C   0  0  0  0  0  0  0  0  0  0  0  0
   -1.9970   -0.1539    1.0692 N   0  0  0  0  0  0  0  0  0  0  0  0
   -0.6734    0.0733    1.1400 O   0  0  0  0  0  0  0  0  0  0  0  0
   -0.2642    0.5910   -0.0611 C   0  0  2  0  0  0  0  0  0  0  0  0
   -1.3074    0.2909   -1.1052 C   0  0  0  0  0  0  0  0  0  0  0  0
    1.0828   -0.0366   -0.4358 C   0  0  1  0  0  0  0  0  0  0  0  0
    2.0389    0.1782    0.6774 C   0  0  0  0  0  0  0  0  0  0  0  0
    2.4583   -0.8322    1.3372 O   0  0  0  0  0  0  0  0  0  0  0  0
    2.5073    1.4398    1.0432 O   0  0  0  0  0  0  0  0  0  0  0  0
    0.8290   -1.4520   -0.5203 N   0  0  0  0  0  0  0  0  0  0  0  0
   -2.5644   -0.5060    1.8451 H   0  0  0  0  0  0  0  0  0  0  0  0
   -0.1844    1.6844    0.0183 H   0  0  0  0  0  0  0  0  0  0  0  0
   -1.4283    1.0467   -1.8790 H   0  0  0  0  0  0  0  0  0  0  0  0
   -1.1198   -0.7248   -1.5416 H   0  0  0  0  0  0  0  0  0  0  0  0
    1.4077    0.3524   -1.4017 H   0  0  0  0  0  0  0  0  0  0  0  0
    3.4306    1.4679    1.4663 H   0  0  0  0  0  0  0  0  0  0  0  0
    1.3080   -1.9517   -1.2692 H   0  0  0  0  0  0  0  0  0  0  0  0
    0.7003   -1.9182    0.3791 H   0  0  0  0  0  0  0  0  0  0  0  0
  1  2  2  0
  2  3  1  0
  3  4  1  0
  4  5  1  0
  5  6  1  0
  5  7  1  0
  7  8  1  0
  8  9  2  0
  8 10  1  0
  7 11  1  0
  6  2  1  0
  3 12  1  0
  5 13  1  1
  6 14  1  0
  6 15  1  0
  7 16  1  6
 10 17  1  0
 11 18  1  0
 11 19  1  0
M  END
>  <Ligand ID>  (1) 
LIG0001189

>  <Ligand>  (1) 
CHEMBL260122

>  <SMILES>  (1) 
O=C1NO[C@H](C1)[C@@H](C(=O)O)N

>  <CID>  (1) 
44450470.0

>  <ChEMBL ID>  (1) 
nan

>  <InChiKey>  (1) 
NTHMUJMQOXQYBR-FONMRSAGSA-N

>  <InChi>  (1) 
InChI=1S/C5H8N2O4/c6-4(5(9)10)2-1-3(8)7-11-2/h2,4H,1,6H2,(H,7,8)(H,9,10)/t2-,4+/m1/s1

>  <IUPAC Name>  (1) 
(2S)-2-amino-2-[(5R)-3-oxo-1,2-oxazolidin-5-yl]acetic acid

$$$$
