
     RDKit          3D

 32 33  0  0  0  0  0  0  0  0999 V2000
    4.7841   -0.2668    0.6692 O   0  0  0  0  0  0  0  0  0  0  0  0
    3.4251   -0.3365    0.3830 C   0  0  0  0  0  0  0  0  0  0  0  0
    2.7129   -1.4219    0.8298 C   0  0  0  0  0  0  0  0  0  0  0  0
    1.3636   -1.4807    0.5398 C   0  0  0  0  0  0  0  0  0  0  0  0
    0.7143   -0.4978   -0.1751 C   0  0  0  0  0  0  0  0  0  0  0  0
    1.4711    0.5692   -0.6007 C   0  0  0  0  0  0  0  0  0  0  0  0
    2.8237    0.6675   -0.3324 C   0  0  0  0  0  0  0  0  0  0  0  0
    3.5417    1.7637   -0.7839 O   0  0  0  0  0  0  0  0  0  0  0  0
   -0.7238   -0.6628   -0.4265 C   0  0  0  0  0  0  0  0  0  0  0  0
   -1.0911    0.0408   -1.7079 C   0  0  0  0  0  0  0  0  0  0  0  0
   -2.4611   -0.3245   -1.9693 N   0  0  0  0  0  0  0  0  0  0  0  0
   -3.4257    0.1511   -1.0617 C   0  0  0  0  0  0  0  0  0  0  0  0
   -2.8482    0.2996    0.2740 C   0  0  0  0  0  0  0  0  0  0  0  0
   -1.5822   -0.0571    0.6670 C   0  0  0  0  0  0  0  0  0  0  0  0
   -1.2562    0.1692    1.9533 C   0  0  0  0  0  0  0  0  0  0  0  0
   -2.1772    0.7235    2.7653 C   0  0  0  0  0  0  0  0  0  0  0  0
   -3.6105    0.9771    1.7606 S   0  0  0  0  0  0  0  0  0  0  0  0
    0.7686    0.0000    0.0000 Br  0  0  0  0  0  0  0  0  0  0  0  0
    5.3740    0.2844    0.0296 H   0  0  0  0  0  0  0  0  0  0  0  0
    3.2284   -2.1917    1.3915 H   0  0  0  0  0  0  0  0  0  0  0  0
    0.8214   -2.3369    0.8970 H   0  0  0  0  0  0  0  0  0  0  0  0
    1.0021    1.3624   -1.1644 H   0  0  0  0  0  0  0  0  0  0  0  0
    3.6075    2.5854   -0.1851 H   0  0  0  0  0  0  0  0  0  0  0  0
   -1.0307   -1.7315   -0.4923 H   0  0  0  0  0  0  0  0  0  0  0  0
   -0.4842   -0.2535   -2.5628 H   0  0  0  0  0  0  0  0  0  0  0  0
   -0.9741    1.1374   -1.5416 H   0  0  0  0  0  0  0  0  0  0  0  0
   -2.7159   -0.5122   -2.9322 H   0  0  0  0  0  0  0  0  0  0  0  0
   -4.2386   -0.6343   -1.0305 H   0  0  0  0  0  0  0  0  0  0  0  0
   -3.9337    1.0993   -1.3746 H   0  0  0  0  0  0  0  0  0  0  0  0
   -0.2421   -0.0943    2.3512 H   0  0  0  0  0  0  0  0  0  0  0  0
   -2.0744    0.9718    3.8297 H   0  0  0  0  0  0  0  0  0  0  0  0
   -0.7686    0.0000    0.0000 H   0  0  0  0  0  0  0  0  0  0  0  0
  1  2  1  0
  2  3  2  0
  3  4  1  0
  4  5  2  0
  5  6  1  0
  6  7  2  0
  7  8  1  0
  5  9  1  0
  9 10  1  0
 10 11  1  0
 11 12  1  0
 12 13  1  0
 13 14  2  0
 14 15  1  0
 15 16  2  0
 16 17  1  0
  7  2  1  0
 14  9  1  0
 17 13  1  0
  1 19  1  0
  3 20  1  0
  4 21  1  0
  6 22  1  0
  8 23  1  0
  9 24  1  0
 10 25  1  0
 10 26  1  0
 11 27  1  0
 12 28  1  0
 12 29  1  0
 15 30  1  0
 16 31  1  0
 18 32  1  0
M  END
>  <Ligand ID>  (1) 
LIG0002862

>  <Ligand>  (1) 
SKF 89626

>  <SMILES>  (1) 
Oc1ccc(cc1O)C1CNCc2c1ccs2.Br

>  <CID>  (1) 
11957695.0

>  <ChEMBL ID>  (1) 
nan

>  <InChiKey>  (1) 
QAIGGSDECIJPNW-UHFFFAOYSA-N

>  <InChi>  (1) 
InChI=1S/C13H13NO2S.BrH/c15-11-2-1-8(5-12(11)16)10-6-14-7-13-9(10)3-4-17-13;/h1-5,10,14-16H,6-7H2;1H

>  <IUPAC Name>  (1) 
4-(4,5,6,7-tetrahydrothieno[2,3-c]pyridin-4-yl)benzene-1,2-diol;hydrobromide

$$$$
