
     RDKit          3D

 40 41  0  0  0  0  0  0  0  0999 V2000
   -4.6534    1.1708    0.7560 N   0  0  0  0  0  0  0  0  0  0  0  0
   -4.6455    0.6112   -0.5645 C   0  0  0  0  0  0  0  0  0  0  0  0
   -3.3101    0.0885   -1.0228 C   0  0  1  0  0  0  0  0  0  0  0  0
   -2.2199    1.1723   -1.0520 C   0  0  0  0  0  0  0  0  0  0  0  0
   -2.1390    0.0273   -0.1524 C   0  0  2  0  0  0  0  0  0  0  0  0
   -1.2186   -1.1094   -0.2709 C   0  0  0  0  0  0  0  0  0  0  0  0
   -1.5902   -2.2551   -0.9422 C   0  0  0  0  0  0  0  0  0  0  0  0
   -0.7430   -3.3371   -1.0638 C   0  0  0  0  0  0  0  0  0  0  0  0
    0.4996   -3.2480   -0.4924 C   0  0  0  0  0  0  0  0  0  0  0  0
    0.8623   -2.1020    0.1754 C   0  0  0  0  0  0  0  0  0  0  0  0
    0.0577   -0.9978    0.3249 C   0  0  0  0  0  0  0  0  0  0  0  0
    0.3390    0.1457    0.9574 O   0  0  0  0  0  0  0  0  0  0  0  0
    1.3725    0.7020    1.6438 C   0  0  0  0  0  0  0  0  0  0  0  0
    2.6546    0.9020    0.9479 C   0  0  0  0  0  0  0  0  0  0  0  0
    2.8245    2.0688    0.2028 C   0  0  0  0  0  0  0  0  0  0  0  0
    3.9983    2.3473   -0.4683 C   0  0  0  0  0  0  0  0  0  0  0  0
    5.0576    1.4449   -0.4104 C   0  0  0  0  0  0  0  0  0  0  0  0
    4.8986    0.2885    0.3241 C   0  0  0  0  0  0  0  0  0  0  0  0
    3.7236    0.0418    0.9777 C   0  0  0  0  0  0  0  0  0  0  0  0
    0.6829    0.0000    0.0000 Cl  0  0  0  0  0  0  0  0  0  0  0  0
   -5.0836    0.5811    1.4803 H   0  0  0  0  0  0  0  0  0  0  0  0
   -3.8096    1.6929    1.0053 H   0  0  0  0  0  0  0  0  0  0  0  0
   -4.9928    1.3899   -1.2745 H   0  0  0  0  0  0  0  0  0  0  0  0
   -5.3797   -0.2197   -0.6391 H   0  0  0  0  0  0  0  0  0  0  0  0
   -3.3847   -0.5906   -1.8709 H   0  0  0  0  0  0  0  0  0  0  0  0
   -1.7386    1.2563   -2.0245 H   0  0  0  0  0  0  0  0  0  0  0  0
   -2.4648    2.1770   -0.6296 H   0  0  0  0  0  0  0  0  0  0  0  0
   -2.3699    0.2483    0.9331 H   0  0  0  0  0  0  0  0  0  0  0  0
   -2.5689   -2.3747   -1.4119 H   0  0  0  0  0  0  0  0  0  0  0  0
   -0.9992   -4.2496   -1.5816 H   0  0  0  0  0  0  0  0  0  0  0  0
    1.1853   -4.0846   -0.5733 H   0  0  0  0  0  0  0  0  0  0  0  0
    1.8476   -2.0860    0.6097 H   0  0  0  0  0  0  0  0  0  0  0  0
    0.9927    1.6902    2.0669 H   0  0  0  0  0  0  0  0  0  0  0  0
    1.5238    0.0999    2.5912 H   0  0  0  0  0  0  0  0  0  0  0  0
    2.0167    2.7960    0.1361 H   0  0  0  0  0  0  0  0  0  0  0  0
    4.1149    3.2727   -1.0514 H   0  0  0  0  0  0  0  0  0  0  0  0
    5.9463    1.6933   -0.9403 H   0  0  0  0  0  0  0  0  0  0  0  0
    5.7503   -0.3854    0.3410 H   0  0  0  0  0  0  0  0  0  0  0  0
    3.6457   -0.8685    1.5433 H   0  0  0  0  0  0  0  0  0  0  0  0
   -0.6829    0.0000    0.0000 H   0  0  0  0  0  0  0  0  0  0  0  0
  1  2  1  0
  2  3  1  0
  3  4  1  0
  4  5  1  0
  5  6  1  0
  6  7  2  0
  7  8  1  0
  8  9  2  0
  9 10  1  0
 10 11  2  0
 11 12  1  0
 12 13  1  0
 13 14  1  0
 14 15  2  0
 15 16  1  0
 16 17  2  0
 17 18  1  0
 18 19  2  0
  5  3  1  0
 11  6  1  0
 19 14  1  0
  1 21  1  0
  1 22  1  0
  2 23  1  0
  2 24  1  0
  3 25  1  6
  4 26  1  0
  4 27  1  0
  5 28  1  1
  7 29  1  0
  8 30  1  0
  9 31  1  0
 10 32  1  0
 13 33  1  0
 13 34  1  0
 15 35  1  0
 16 36  1  0
 17 37  1  0
 18 38  1  0
 19 39  1  0
 20 40  1  0
M  END
>  <Ligand ID>  (1) 
LIG0005683

>  <Ligand>  (1) 
CHEMBL2022192

>  <SMILES>  (1) 
NC[C@H]1C[C@@H]1c1ccccc1OCc1ccccc1.Cl

>  <CID>  (1) 
70693927.0

>  <ChEMBL ID>  (1) 
nan

>  <InChiKey>  (1) 
CGXSQMDIDHLRFQ-XMZRARIVSA-N

>  <InChi>  (1) 
InChI=1S/C17H19NO.ClH/c18-11-14-10-16(14)15-8-4-5-9-17(15)19-12-13-6-2-1-3-7-13;/h1-9,14,16H,10-12,18H2;1H/t14-,16+;/m1./s1

>  <IUPAC Name>  (1) 
[(1S,2S)-2-(2-phenylmethoxyphenyl)cyclopropyl]methanamine;hydrochloride

$$$$
