
     RDKit          3D

 36 35  0  0  0  0  0  0  0  0999 V2000
    4.6058    0.3523   -1.6667 C   0  0  0  0  0  0  0  0  0  0  0  0
    3.3809   -0.2555   -1.8811 O   0  0  0  0  0  0  0  0  0  0  0  0
    2.7098   -0.5219   -0.6653 C   0  0  0  0  0  0  0  0  0  0  0  0
    1.3841    0.0928   -0.7601 C   0  0  0  0  0  0  0  0  0  0  0  0
    0.7495    0.6161    0.2765 C   0  0  0  0  0  0  0  0  0  0  0  0
   -0.6016    1.2153    0.0513 C   0  0  0  0  0  0  0  0  0  0  0  0
   -1.6379    0.4814    0.9095 C   0  0  0  0  0  0  0  0  0  0  0  0
   -2.9731    1.0667    0.6927 C   0  0  0  0  0  0  0  0  0  0  0  0
   -4.0189    0.3614    0.2207 C   0  0  0  0  0  0  0  0  0  0  0  0
   -5.3490    1.0446    0.0308 C   0  0  0  0  0  0  0  0  0  0  0  0
   -3.8729   -1.0712   -0.1111 C   0  0  0  0  0  0  0  0  0  0  0  0
    1.3532    0.6087    1.6065 C   0  0  0  0  0  0  0  0  0  0  0  0
    2.6323   -1.9258   -0.6235 O   0  0  0  0  0  0  0  0  0  0  0  0
    3.4216   -2.4567    0.3805 C   0  0  0  0  0  0  0  0  0  0  0  0
    5.2453   -0.3057   -1.0572 H   0  0  0  0  0  0  0  0  0  0  0  0
    5.0639    0.4815   -2.6627 H   0  0  0  0  0  0  0  0  0  0  0  0
    4.5133    1.3762   -1.2458 H   0  0  0  0  0  0  0  0  0  0  0  0
    3.3779   -0.1578    0.1061 H   0  0  0  0  0  0  0  0  0  0  0  0
    0.8885    0.1212   -1.7467 H   0  0  0  0  0  0  0  0  0  0  0  0
   -0.8979    1.1584   -1.0138 H   0  0  0  0  0  0  0  0  0  0  0  0
   -0.6166    2.2824    0.3327 H   0  0  0  0  0  0  0  0  0  0  0  0
   -1.3777    0.6074    1.9803 H   0  0  0  0  0  0  0  0  0  0  0  0
   -1.6049   -0.6061    0.7059 H   0  0  0  0  0  0  0  0  0  0  0  0
   -3.1092    2.1138    0.9271 H   0  0  0  0  0  0  0  0  0  0  0  0
   -5.1759    2.0827   -0.3788 H   0  0  0  0  0  0  0  0  0  0  0  0
   -5.8443    1.2046    1.0070 H   0  0  0  0  0  0  0  0  0  0  0  0
   -5.9349    0.4400   -0.6617 H   0  0  0  0  0  0  0  0  0  0  0  0
   -3.9265   -1.7499    0.7706 H   0  0  0  0  0  0  0  0  0  0  0  0
   -4.6977   -1.3411   -0.8197 H   0  0  0  0  0  0  0  0  0  0  0  0
   -2.9355   -1.2820   -0.6846 H   0  0  0  0  0  0  0  0  0  0  0  0
    2.4392    0.7937    1.6519 H   0  0  0  0  0  0  0  0  0  0  0  0
    0.8942    1.4678    2.1816 H   0  0  0  0  0  0  0  0  0  0  0  0
    1.0324   -0.2992    2.1471 H   0  0  0  0  0  0  0  0  0  0  0  0
    3.1457   -2.1068    1.3818 H   0  0  0  0  0  0  0  0  0  0  0  0
    3.2291   -3.5503    0.3787 H   0  0  0  0  0  0  0  0  0  0  0  0
    4.5080   -2.3389    0.1747 H   0  0  0  0  0  0  0  0  0  0  0  0
  1  2  1  0
  2  3  1  0
  3  4  1  0
  4  5  2  0
  5  6  1  0
  6  7  1  0
  7  8  1  0
  8  9  2  3
  9 10  1  0
  9 11  1  0
  5 12  1  0
  3 13  1  0
 13 14  1  0
  1 15  1  0
  1 16  1  0
  1 17  1  0
  3 18  1  0
  4 19  1  0
  6 20  1  0
  6 21  1  0
  7 22  1  0
  7 23  1  0
  8 24  1  0
 10 25  1  0
 10 26  1  0
 10 27  1  0
 11 28  1  0
 11 29  1  0
 11 30  1  0
 12 31  1  0
 12 32  1  0
 12 33  1  0
 14 34  1  0
 14 35  1  0
 14 36  1  0
M  END
>  <Ligand ID>  (1) 
LIG0000757

>  <Ligand>  (1) 
Citral dimethyl acetal

>  <SMILES>  (1) 
COC(/C=C(/CCC=C(C)C)\C)OC

>  <CID>  (1) 
5352435.0

>  <ChEMBL ID>  (1) 
nan

>  <InChiKey>  (1) 
ZSKAJFSSXURRGL-PKNBQFBNSA-N

>  <InChi>  (1) 
InChI=1S/C12H22O2/c1-10(2)7-6-8-11(3)9-12(13-4)14-5/h7,9,12H,6,8H2,1-5H3/b11-9+

>  <IUPAC Name>  (1) 
(2E)-1,1-dimethoxy-3,7-dimethylocta-2,6-diene

$$$$
