
     RDKit          3D

 62 61  0  0  0  0  0  0  0  0999 V2000
    1.4459   -0.6310    0.2718 O   0  0  0  0  0  0  0  0  0  0  0  0
    0.4888    0.3485    0.0375 C   0  0  0  0  0  0  0  0  0  0  0  0
    0.7763    1.5617   -0.1543 O   0  0  0  0  0  0  0  0  0  0  0  0
   -0.9536   -0.0794    0.0157 C   0  0  0  0  0  0  0  0  0  0  0  0
   -1.2146   -0.6119    1.2437 F   0  0  0  0  0  0  0  0  0  0  0  0
   -1.7699    0.9562   -0.3507 F   0  0  0  0  0  0  0  0  0  0  0  0
   -1.1444   -1.0810   -0.9273 F   0  0  0  0  0  0  0  0  0  0  0  0
   -6.7639    1.4468    2.0672 C   0  0  0  0  0  0  0  0  0  0  0  0
   -6.4024    0.1948    1.3081 C   0  0  0  0  0  0  0  0  0  0  0  0
   -6.6346    0.3409   -0.1704 C   0  0  0  0  0  0  0  0  0  0  0  0
   -5.8242    1.4498   -0.7628 C   0  0  0  0  0  0  0  0  0  0  0  0
   -4.3357    1.2123   -0.5493 C   0  0  0  0  0  0  0  0  0  0  0  0
   -3.9404   -0.0688   -1.2101 C   0  0  0  0  0  0  0  0  0  0  0  0
   -2.4733   -0.3332   -1.0052 C   0  0  0  0  0  0  0  0  0  0  0  0
   -1.6514    0.7695   -1.5986 C   0  0  0  0  0  0  0  0  0  0  0  0
   -0.1932    0.4346   -1.3829 C   0  0  0  0  0  0  0  0  0  0  0  0
    0.4297   -0.3018   -2.3752 C   0  0  0  0  0  0  0  0  0  0  0  0
    1.7632   -0.6200   -2.1992 C   0  0  0  0  0  0  0  0  0  0  0  0
    2.4298   -0.1970   -1.0472 C   0  0  0  0  0  0  0  0  0  0  0  0
    1.8098    0.5343   -0.0626 C   0  0  0  0  0  0  0  0  0  0  0  0
    0.4670    0.8516   -0.2457 C   0  0  0  0  0  0  0  0  0  0  0  0
    3.8060   -0.5784   -0.9618 N   0  0  0  0  0  0  0  0  0  0  0  0
    4.0830   -1.8204   -0.3365 C   0  0  0  0  0  0  0  0  0  0  0  0
    3.0855   -2.4770    0.0871 O   0  0  0  0  0  0  0  0  0  0  0  0
    5.4460   -2.3742   -0.1592 C   0  0  1  0  0  0  0  0  0  0  0  0
    6.1789   -1.4360    0.8109 C   0  0  0  0  0  0  0  0  0  0  0  0
    6.3221   -0.2271    0.1756 O   0  0  0  0  0  0  0  0  0  0  0  0
    7.1124    0.9414    1.0976 P   0  0  0  0  0  0  0  0  0  0  0  0
    8.5353    1.0252    0.5519 O   0  0  0  0  0  0  0  0  0  0  0  0
    6.3539    2.4295    0.7953 O   0  0  0  0  0  0  0  0  0  0  0  0
    7.0694    0.6215    2.7439 O   0  0  0  0  0  0  0  0  0  0  0  0
    5.2693   -3.6812    0.4638 N   0  0  0  0  0  0  0  0  0  0  0  0
    2.3715   -0.4632   -0.1363 H   0  0  0  0  0  0  0  0  0  0  0  0
   -6.5715    1.2617    3.1451 H   0  0  0  0  0  0  0  0  0  0  0  0
   -6.2550    2.3510    1.6960 H   0  0  0  0  0  0  0  0  0  0  0  0
   -7.8682    1.5822    1.9494 H   0  0  0  0  0  0  0  0  0  0  0  0
   -5.3538   -0.0727    1.4957 H   0  0  0  0  0  0  0  0  0  0  0  0
   -7.0427   -0.6214    1.6913 H   0  0  0  0  0  0  0  0  0  0  0  0
   -6.4657   -0.6260   -0.6543 H   0  0  0  0  0  0  0  0  0  0  0  0
   -7.7102    0.5850   -0.3764 H   0  0  0  0  0  0  0  0  0  0  0  0
   -6.0360    2.4324   -0.3302 H   0  0  0  0  0  0  0  0  0  0  0  0
   -5.9679    1.5424   -1.8638 H   0  0  0  0  0  0  0  0  0  0  0  0
   -4.0790    1.1861    0.5217 H   0  0  0  0  0  0  0  0  0  0  0  0
   -3.7935    2.0723   -1.0122 H   0  0  0  0  0  0  0  0  0  0  0  0
   -4.1551   -0.0393   -2.3151 H   0  0  0  0  0  0  0  0  0  0  0  0
   -4.5081   -0.9485   -0.8102 H   0  0  0  0  0  0  0  0  0  0  0  0
   -2.2705   -0.4734    0.0774 H   0  0  0  0  0  0  0  0  0  0  0  0
   -2.2124   -1.3207   -1.4673 H   0  0  0  0  0  0  0  0  0  0  0  0
   -1.8083    0.9224   -2.6618 H   0  0  0  0  0  0  0  0  0  0  0  0
   -1.8641    1.7206   -1.0555 H   0  0  0  0  0  0  0  0  0  0  0  0
   -0.0909   -0.6311   -3.2728 H   0  0  0  0  0  0  0  0  0  0  0  0
    2.2636   -1.1956   -2.9671 H   0  0  0  0  0  0  0  0  0  0  0  0
    2.3563    0.8479    0.8211 H   0  0  0  0  0  0  0  0  0  0  0  0
   -0.0438    1.4283    0.5183 H   0  0  0  0  0  0  0  0  0  0  0  0
    4.5793    0.0057   -1.3327 H   0  0  0  0  0  0  0  0  0  0  0  0
    6.0159   -2.4090   -1.0898 H   0  0  0  0  0  0  0  0  0  0  0  0
    5.5168   -1.3665    1.7170 H   0  0  0  0  0  0  0  0  0  0  0  0
    7.1169   -1.9366    1.0841 H   0  0  0  0  0  0  0  0  0  0  0  0
    7.0177    3.1189    0.5458 H   0  0  0  0  0  0  0  0  0  0  0  0
    7.8561    0.1085    3.0575 H   0  0  0  0  0  0  0  0  0  0  0  0
    4.4497   -4.1175   -0.0259 H   0  0  0  0  0  0  0  0  0  0  0  0
    4.9821   -3.5440    1.4506 H   0  0  0  0  0  0  0  0  0  0  0  0
  1  2  1  0
  2  3  2  0
  2  4  1  0
  4  5  1  0
  4  6  1  0
  4  7  1  0
  8  9  1  0
  9 10  1  0
 10 11  1  0
 11 12  1  0
 12 13  1  0
 13 14  1  0
 14 15  1  0
 15 16  1  0
 16 17  2  0
 17 18  1  0
 18 19  2  0
 19 20  1  0
 20 21  2  0
 19 22  1  0
 22 23  1  0
 23 24  2  0
 23 25  1  0
 25 26  1  0
 26 27  1  0
 27 28  1  0
 28 29  2  0
 28 30  1  0
 28 31  1  0
 25 32  1  0
 21 16  1  0
  1 33  1  0
  8 34  1  0
  8 35  1  0
  8 36  1  0
  9 37  1  0
  9 38  1  0
 10 39  1  0
 10 40  1  0
 11 41  1  0
 11 42  1  0
 12 43  1  0
 12 44  1  0
 13 45  1  0
 13 46  1  0
 14 47  1  0
 14 48  1  0
 15 49  1  0
 15 50  1  0
 17 51  1  0
 18 52  1  0
 20 53  1  0
 21 54  1  0
 22 55  1  0
 25 56  1  6
 26 57  1  0
 26 58  1  0
 30 59  1  0
 31 60  1  0
 32 61  1  0
 32 62  1  0
M  END
>  <Ligand ID>  (1) 
LIG0004251

>  <Ligand>  (1) 
CHEMBL422074

>  <SMILES>  (1) 
OC(=O)C(F)(F)F.CCCCCCCCc1ccc(cc1)NC(=O)[C@@H](COP(=O)(O)O)N

>  <CID>  (1) 
44342174.0

>  <ChEMBL ID>  (1) 
nan

>  <InChiKey>  (1) 
RJKVTCBRUQDHFV-PKLMIRHRSA-N

>  <InChi>  (1) 
InChI=1S/C17H29N2O5P.C2HF3O2/c1-2-3-4-5-6-7-8-14-9-11-15(12-10-14)19-17(20)16(18)13-24-25(21,22)23;3-2(4,5)1(6)7/h9-12,16H,2-8,13,18H2,1H3,(H,19,20)(H2,21,22,23);(H,6,7)/t16-;/m1./s1

>  <IUPAC Name>  (1) 
[(2R)-2-amino-3-(4-octylanilino)-3-oxopropyl] dihydrogen phosphate;2,2,2-trifluoroacetic acid

$$$$
