
     RDKit          3D

 15 15  0  0  0  0  0  0  0  0999 V2000
    2.6696    0.3256    0.5137 C   0  0  0  0  0  0  0  0  0  0  0  0
    1.5550   -0.6010    0.7839 C   0  0  0  0  0  0  0  0  0  0  0  0
    1.7620   -1.6332    1.4623 O   0  0  0  0  0  0  0  0  0  0  0  0
    0.2337   -0.3268    0.2738 C   0  0  0  0  0  0  0  0  0  0  0  0
   -0.7886   -1.0528    0.4467 N   0  0  0  0  0  0  0  0  0  0  0  0
   -1.9982   -0.6488   -0.1129 C   0  0  0  0  0  0  0  0  0  0  0  0
   -2.0376    0.7913   -0.4446 C   0  0  0  0  0  0  0  0  0  0  0  0
   -0.2470    1.0971   -0.7129 S   0  0  0  0  0  0  0  0  0  0  0  0
    3.1017    0.2392   -0.4847 H   0  0  0  0  0  0  0  0  0  0  0  0
    2.3107    1.3718    0.6309 H   0  0  0  0  0  0  0  0  0  0  0  0
    3.4928    0.1807    1.2419 H   0  0  0  0  0  0  0  0  0  0  0  0
   -2.2970   -1.2663   -0.9897 H   0  0  0  0  0  0  0  0  0  0  0  0
   -2.8037   -0.8536    0.6541 H   0  0  0  0  0  0  0  0  0  0  0  0
   -2.5056    0.9332   -1.4376 H   0  0  0  0  0  0  0  0  0  0  0  0
   -2.4477    1.4436    0.3409 H   0  0  0  0  0  0  0  0  0  0  0  0
  1  2  1  0
  2  3  2  0
  2  4  1  0
  4  5  2  0
  5  6  1  0
  6  7  1  0
  7  8  1  0
  8  4  1  0
  1  9  1  0
  1 10  1  0
  1 11  1  0
  6 12  1  0
  6 13  1  0
  7 14  1  0
  7 15  1  0
M  END
>  <Ligand ID>  (1) 
LIG0000605

>  <Ligand>  (1) 
2-Acetyl-2-thiazoline

>  <SMILES>  (1) 
CC(=O)C1=NCCS1

>  <CID>  (1) 
169110.0

>  <ChEMBL ID>  (1) 
nan

>  <InChiKey>  (1) 
FZOZFDAMVVEZSJ-UHFFFAOYSA-N

>  <InChi>  (1) 
InChI=1S/C5H7NOS/c1-4(7)5-6-2-3-8-5/h2-3H2,1H3

>  <IUPAC Name>  (1) 
1-(4,5-dihydro-1,3-thiazol-2-yl)ethanone

$$$$
