
     RDKit          3D

 53 56  0  0  0  0  0  0  0  0999 V2000
   -5.5087    4.3903   -0.6388 C   0  0  0  0  0  0  0  0  0  0  0  0
   -4.5986    3.3760   -0.9508 O   0  0  0  0  0  0  0  0  0  0  0  0
   -3.5441    2.9990   -0.1231 C   0  0  0  0  0  0  0  0  0  0  0  0
   -3.3616    3.5882    0.9950 O   0  0  0  0  0  0  0  0  0  0  0  0
   -2.6595    1.9446   -0.5285 N   0  0  0  0  0  0  0  0  0  0  0  0
   -1.5901    1.6014    0.3691 C   0  0  0  0  0  0  0  0  0  0  0  0
   -0.6877    0.5090   -0.0664 C   0  0  0  0  0  0  0  0  0  0  0  0
   -1.4782   -0.7394   -0.2472 C   0  0  0  0  0  0  0  0  0  0  0  0
   -2.0263   -1.1035   -1.4680 C   0  0  0  0  0  0  0  0  0  0  0  0
   -2.7652   -2.2543   -1.6435 C   0  0  0  0  0  0  0  0  0  0  0  0
   -2.9883   -3.1028   -0.5814 C   0  0  0  0  0  0  0  0  0  0  0  0
   -2.4598   -2.7746    0.6458 C   0  0  0  0  0  0  0  0  0  0  0  0
   -1.7243   -1.6207    0.8027 C   0  0  0  0  0  0  0  0  0  0  0  0
   -2.7953   -3.7583    1.5929 O   0  0  0  0  0  0  0  0  0  0  0  0
   -3.8448   -4.5165    1.0049 C   0  0  0  0  0  0  0  0  0  0  0  0
   -3.6600   -4.3079   -0.3875 O   0  0  0  0  0  0  0  0  0  0  0  0
    0.2052    0.7790   -1.1220 N   0  0  0  0  0  0  0  0  0  0  0  0
    1.1377    1.8147   -0.7762 C   0  0  0  0  0  0  0  0  0  0  0  0
    2.2386    1.2849    0.1390 C   0  0  0  0  0  0  0  0  0  0  0  0
    2.9290    0.2541   -0.6182 N   0  0  0  0  0  0  0  0  0  0  0  0
    2.3546   -0.1920   -1.8711 C   0  0  0  0  0  0  0  0  0  0  0  0
    0.8403   -0.3409   -1.7172 C   0  0  0  0  0  0  0  0  0  0  0  0
    4.1320   -0.2514   -0.0734 C   0  0  0  0  0  0  0  0  0  0  0  0
    4.5471    0.2307    1.1487 C   0  0  0  0  0  0  0  0  0  0  0  0
    5.7258   -0.2135    1.7598 C   0  0  0  0  0  0  0  0  0  0  0  0
    6.5150   -1.1684    1.1323 C   0  0  0  0  0  0  0  0  0  0  0  0
    6.0965   -1.6394   -0.0760 C   0  0  0  0  0  0  0  0  0  0  0  0
    4.9219   -1.1937   -0.6802 C   0  0  0  0  0  0  0  0  0  0  0  0
   -6.3609    4.0663   -0.0049 H   0  0  0  0  0  0  0  0  0  0  0  0
   -5.0775    5.2836   -0.1677 H   0  0  0  0  0  0  0  0  0  0  0  0
   -5.9538    4.7531   -1.6099 H   0  0  0  0  0  0  0  0  0  0  0  0
   -2.8482    1.4956   -1.4474 H   0  0  0  0  0  0  0  0  0  0  0  0
   -1.0359    2.4966    0.7003 H   0  0  0  0  0  0  0  0  0  0  0  0
   -2.1215    1.1983    1.2958 H   0  0  0  0  0  0  0  0  0  0  0  0
   -0.0488    0.2779    0.8420 H   0  0  0  0  0  0  0  0  0  0  0  0
   -1.8860   -0.4849   -2.3428 H   0  0  0  0  0  0  0  0  0  0  0  0
   -3.1945   -2.5409   -2.5959 H   0  0  0  0  0  0  0  0  0  0  0  0
   -1.3189   -1.3947    1.8008 H   0  0  0  0  0  0  0  0  0  0  0  0
   -3.7755   -5.5644    1.3104 H   0  0  0  0  0  0  0  0  0  0  0  0
   -4.7913   -4.0610    1.3621 H   0  0  0  0  0  0  0  0  0  0  0  0
    1.7072    2.1076   -1.7159 H   0  0  0  0  0  0  0  0  0  0  0  0
    0.6175    2.6748   -0.3623 H   0  0  0  0  0  0  0  0  0  0  0  0
    1.8794    0.8325    1.0592 H   0  0  0  0  0  0  0  0  0  0  0  0
    2.9232    2.1128    0.4128 H   0  0  0  0  0  0  0  0  0  0  0  0
    2.7246   -1.1950   -2.1369 H   0  0  0  0  0  0  0  0  0  0  0  0
    2.6042    0.5476   -2.6732 H   0  0  0  0  0  0  0  0  0  0  0  0
    0.4894   -0.5214   -2.7724 H   0  0  0  0  0  0  0  0  0  0  0  0
    0.6738   -1.3097   -1.2034 H   0  0  0  0  0  0  0  0  0  0  0  0
    4.0010    0.9768    1.7180 H   0  0  0  0  0  0  0  0  0  0  0  0
    6.0500    0.1668    2.7208 H   0  0  0  0  0  0  0  0  0  0  0  0
    7.4337   -1.5261    1.5904 H   0  0  0  0  0  0  0  0  0  0  0  0
    6.7140   -2.3847   -0.5643 H   0  0  0  0  0  0  0  0  0  0  0  0
    4.6439   -1.6021   -1.6351 H   0  0  0  0  0  0  0  0  0  0  0  0
  1  2  1  0
  2  3  1  0
  3  4  2  0
  3  5  1  0
  5  6  1  0
  6  7  1  0
  7  8  1  0
  8  9  2  0
  9 10  1  0
 10 11  2  0
 11 12  1  0
 12 13  2  0
 12 14  1  0
 14 15  1  0
 15 16  1  0
  7 17  1  0
 17 18  1  0
 18 19  1  0
 19 20  1  0
 20 21  1  0
 21 22  1  0
 20 23  1  0
 23 24  2  0
 24 25  1  0
 25 26  2  0
 26 27  1  0
 27 28  2  0
 13  8  1  0
 22 17  1  0
 28 23  1  0
 16 11  1  0
  1 29  1  0
  1 30  1  0
  1 31  1  0
  5 32  1  0
  6 33  1  0
  6 34  1  0
  7 35  1  0
  9 36  1  0
 10 37  1  0
 13 38  1  0
 15 39  1  0
 15 40  1  0
 18 41  1  0
 18 42  1  0
 19 43  1  0
 19 44  1  0
 21 45  1  0
 21 46  1  0
 22 47  1  0
 22 48  1  0
 24 49  1  0
 25 50  1  0
 26 51  1  0
 27 52  1  0
 28 53  1  0
M  END
>  <Ligand ID>  (1) 
LIG0004715

>  <Ligand>  (1) 
MLS001166838

>  <SMILES>  (1) 
COC(=O)NCC(c1ccc2c(c1)OCO2)N1CCN(CC1)c1ccccc1

>  <CID>  (1) 
18574678.0

>  <ChEMBL ID>  (1) 
nan

>  <InChiKey>  (1) 
RTVQIILSEFKREF-UHFFFAOYSA-N

>  <InChi>  (1) 
InChI=1S/C21H25N3O4/c1-26-21(25)22-14-18(16-7-8-19-20(13-16)28-15-27-19)24-11-9-23(10-12-24)17-5-3-2-4-6-17/h2-8,13,18H,9-12,14-15H2,1H3,(H,22,25)

>  <IUPAC Name>  (1) 
methyl N-[2-(1,3-benzodioxol-5-yl)-2-(4-phenylpiperazin-1-yl)ethyl]carbamate

$$$$
