
     RDKit          3D

 34 37  0  0  0  0  0  0  0  0999 V2000
    3.0908   -3.0863   -0.4098 C   0  0  0  0  0  0  0  0  0  0  0  0
    2.3722   -2.8506    0.6997 N   0  0  0  0  0  0  0  0  0  0  0  0
    1.8899   -1.6193    0.9483 C   0  0  0  0  0  0  0  0  0  0  0  0
    2.1382   -0.5777    0.0458 C   0  0  0  0  0  0  0  0  0  0  0  0
    2.8894   -0.8618   -1.0964 C   0  0  0  0  0  0  0  0  0  0  0  0
    3.3644   -2.1218   -1.3193 N   0  0  0  0  0  0  0  0  0  0  0  0
    1.6402    0.7702    0.2585 C   0  0  0  0  0  0  0  0  0  0  0  0
    2.6104    1.7810    0.2663 C   0  0  0  0  0  0  0  0  0  0  0  0
    2.2554    3.0866    0.5081 C   0  0  0  0  0  0  0  0  0  0  0  0
    0.9431    3.3658    0.7381 C   0  0  0  0  0  0  0  0  0  0  0  0
   -0.0092    2.3740    0.7297 C   0  0  0  0  0  0  0  0  0  0  0  0
    0.3127    1.0321    0.4864 C   0  0  0  0  0  0  0  0  0  0  0  0
   -0.7689    0.0352    0.4451 C   0  0  1  0  0  0  0  0  0  0  0  0
   -2.1202    0.7842    0.3287 C   0  0  0  0  0  0  0  0  0  0  0  0
   -3.0078   -0.2723   -0.0880 N   0  0  0  0  0  0  0  0  0  0  0  0
   -2.3062   -1.1826   -0.7837 C   0  0  0  0  0  0  0  0  0  0  0  0
   -0.8635   -0.7388   -0.8514 C   0  0  0  0  0  0  0  0  0  0  0  0
   -3.1693   -2.1545   -1.1578 N   0  0  0  0  0  0  0  0  0  0  0  0
   -4.4109   -1.8469   -0.6929 C   0  0  0  0  0  0  0  0  0  0  0  0
   -4.3047   -0.6505   -0.0136 C   0  0  0  0  0  0  0  0  0  0  0  0
    3.4732   -4.0932   -0.5929 H   0  0  0  0  0  0  0  0  0  0  0  0
    1.3160   -1.4398    1.8450 H   0  0  0  0  0  0  0  0  0  0  0  0
    3.1180   -0.0992   -1.8362 H   0  0  0  0  0  0  0  0  0  0  0  0
    3.6578    1.5609    0.0831 H   0  0  0  0  0  0  0  0  0  0  0  0
    3.0271    3.8459    0.5077 H   0  0  0  0  0  0  0  0  0  0  0  0
    0.6554    4.4105    0.9329 H   0  0  0  0  0  0  0  0  0  0  0  0
   -1.0275    2.6749    0.9205 H   0  0  0  0  0  0  0  0  0  0  0  0
   -0.8532   -0.6336    1.2902 H   0  0  0  0  0  0  0  0  0  0  0  0
   -2.0603    1.5237   -0.4894 H   0  0  0  0  0  0  0  0  0  0  0  0
   -2.3917    1.2100    1.3122 H   0  0  0  0  0  0  0  0  0  0  0  0
   -0.8211   -0.0706   -1.7244 H   0  0  0  0  0  0  0  0  0  0  0  0
   -0.1926   -1.5799   -0.9341 H   0  0  0  0  0  0  0  0  0  0  0  0
   -5.3174   -2.4262   -0.8261 H   0  0  0  0  0  0  0  0  0  0  0  0
   -5.1300   -0.1494    0.4699 H   0  0  0  0  0  0  0  0  0  0  0  0
  1  2  2  0
  2  3  1  0
  3  4  2  0
  4  5  1  0
  5  6  2  0
  4  7  1  0
  7  8  2  0
  8  9  1  0
  9 10  2  0
 10 11  1  0
 11 12  2  0
 12 13  1  0
 13 14  1  0
 14 15  1  0
 15 16  1  0
 16 17  1  0
 16 18  2  0
 18 19  1  0
 19 20  2  0
  6  1  1  0
 12  7  1  0
 17 13  1  0
 20 15  1  0
  1 21  1  0
  3 22  1  0
  5 23  1  0
  8 24  1  0
  9 25  1  0
 10 26  1  0
 11 27  1  0
 13 28  1  1
 14 29  1  0
 14 30  1  0
 17 31  1  0
 17 32  1  0
 19 33  1  0
 20 34  1  0
M  END
>  <Ligand ID>  (1) 
LIG0002431

>  <Ligand>  (1) 
CHEMBL513691

>  <SMILES>  (1) 
c1ncc(cn1)c1ccccc1[C@H]1Cn2c(C1)ncc2

>  <CID>  (1) 
44574074.0

>  <ChEMBL ID>  (1) 
nan

>  <InChiKey>  (1) 
OUQNCXBFEAQBPY-GFCCVEGCSA-N

>  <InChi>  (1) 
InChI=1S/C16H14N4/c1-2-4-15(13-8-17-11-18-9-13)14(3-1)12-7-16-19-5-6-20(16)10-12/h1-6,8-9,11-12H,7,10H2/t12-/m1/s1

>  <IUPAC Name>  (1) 
(6S)-6-(2-pyrimidin-5-ylphenyl)-6,7-dihydro-5H-pyrrolo[1,2-a]imidazole

$$$$
