
     RDKit          3D

 26 26  0  0  0  0  0  0  0  0999 V2000
    1.5598    1.3496    0.5757 N   0  0  0  0  0  0  0  0  0  0  0  0
    1.7239   -0.1133    0.4843 C   0  0  2  0  0  0  0  0  0  0  0  0
    3.0889   -0.3048   -0.1311 C   0  0  0  0  0  0  0  0  0  0  0  0
    3.4880   -1.4751   -0.3241 O   0  0  0  0  0  0  0  0  0  0  0  0
    3.8996    0.7587   -0.4827 O   0  0  0  0  0  0  0  0  0  0  0  0
    0.6887   -0.7228   -0.3922 C   0  0  0  0  0  0  0  0  0  0  0  0
   -0.7488   -0.4945    0.0573 C   0  0  2  0  0  0  0  0  0  0  0  0
   -1.8170   -1.1204   -0.8806 C   0  0  0  0  0  0  0  0  0  0  0  0
   -1.5773    0.3692   -0.7610 C   0  0  1  0  0  0  0  0  0  0  0  0
   -2.6411    1.2657   -0.3186 C   0  0  0  0  0  0  0  0  0  0  0  0
   -3.3858    1.0789    0.6893 O   0  0  0  0  0  0  0  0  0  0  0  0
   -2.9323    2.4660   -1.0160 O   0  0  0  0  0  0  0  0  0  0  0  0
   -1.0331   -0.9053    1.4542 C   0  0  0  0  0  0  0  0  0  0  0  0
   -2.1900   -0.7757    1.9847 O   0  0  0  0  0  0  0  0  0  0  0  0
   -0.0765   -1.4621    2.2979 O   0  0  0  0  0  0  0  0  0  0  0  0
    0.5883    1.6259    0.3265 H   0  0  0  0  0  0  0  0  0  0  0  0
    2.2229    1.8583   -0.0209 H   0  0  0  0  0  0  0  0  0  0  0  0
    1.8219   -0.5331    1.4974 H   0  0  0  0  0  0  0  0  0  0  0  0
    4.9015    0.6610   -0.6569 H   0  0  0  0  0  0  0  0  0  0  0  0
    0.8089   -1.8111   -0.4671 H   0  0  0  0  0  0  0  0  0  0  0  0
    0.8126   -0.3079   -1.4072 H   0  0  0  0  0  0  0  0  0  0  0  0
   -1.4210   -1.7066   -1.7106 H   0  0  0  0  0  0  0  0  0  0  0  0
   -2.7794   -1.4237   -0.4692 H   0  0  0  0  0  0  0  0  0  0  0  0
   -1.0695    0.7496   -1.6957 H   0  0  0  0  0  0  0  0  0  0  0  0
   -3.6076    3.1253   -0.6819 H   0  0  0  0  0  0  0  0  0  0  0  0
   -0.3256   -2.1519    3.0143 H   0  0  0  0  0  0  0  0  0  0  0  0
  1  2  1  0
  2  3  1  0
  3  4  2  0
  3  5  1  0
  2  6  1  0
  7  6  1  6
  7  8  1  0
  8  9  1  0
  9 10  1  0
 10 11  2  0
 10 12  1  0
  7 13  1  0
 13 14  2  0
 13 15  1  0
  9  7  1  0
  1 16  1  0
  1 17  1  0
  2 18  1  1
  5 19  1  0
  6 20  1  0
  6 21  1  0
  8 22  1  0
  8 23  1  0
  9 24  1  6
 12 25  1  0
 15 26  1  0
M  END
>  <Ligand ID>  (1) 
LIG0000431

>  <Ligand>  (1) 
CHEMBL3786667

>  <SMILES>  (1) 
N[C@H](C(=O)O)C[C@@]1(C[C@H]1C(=O)O)C(=O)O

>  <CID>  (1) 
127030387.0

>  <ChEMBL ID>  (1) 
nan

>  <InChiKey>  (1) 
BHSHZTNHTMTQFY-MSIVUJLLSA-N

>  <InChi>  (1) 
InChI=1S/C8H11NO6/c9-4(6(12)13)2-8(7(14)15)1-3(8)5(10)11/h3-4H,1-2,9H2,(H,10,11)(H,12,13)(H,14,15)/t3-,4-,8+/m0/s1

>  <IUPAC Name>  (1) 
(1R,2R)-1-[(2S)-2-amino-2-carboxyethyl]cyclopropane-1,2-dicarboxylic acid

$$$$
