
     RDKit          3D

 26 26  0  0  0  0  0  0  0  0999 V2000
   -2.9761    0.3938    0.8501 C   0  0  0  0  0  0  0  0  0  0  0  0
   -2.4856   -1.0223    0.6332 C   0  0  0  0  0  0  0  0  0  0  0  0
   -1.7077   -1.0349   -0.6636 C   0  0  0  0  0  0  0  0  0  0  0  0
   -0.5450   -0.1105   -0.6187 C   0  0  0  0  0  0  0  0  0  0  0  0
   -0.6773    1.2143   -1.0178 C   0  0  0  0  0  0  0  0  0  0  0  0
    0.4461    2.0352   -0.9544 C   0  0  0  0  0  0  0  0  0  0  0  0
    1.6483    1.5217   -0.5030 C   0  0  0  0  0  0  0  0  0  0  0  0
    1.7769    0.2063   -0.1075 C   0  0  0  0  0  0  0  0  0  0  0  0
    0.6742   -0.6139   -0.1657 C   0  0  0  0  0  0  0  0  0  0  0  0
    3.0257   -0.2120    0.3296 O   0  0  0  0  0  0  0  0  0  0  0  0
    3.3174   -1.5127    0.7632 C   0  0  0  0  0  0  0  0  0  0  0  0
    2.7572    2.3751   -0.4523 O   0  0  0  0  0  0  0  0  0  0  0  0
   -2.1000    1.0457    0.9895 H   0  0  0  0  0  0  0  0  0  0  0  0
   -3.5969    0.6791   -0.0346 H   0  0  0  0  0  0  0  0  0  0  0  0
   -3.5849    0.3987    1.7683 H   0  0  0  0  0  0  0  0  0  0  0  0
   -1.7528   -1.2854    1.4276 H   0  0  0  0  0  0  0  0  0  0  0  0
   -3.2849   -1.7705    0.6495 H   0  0  0  0  0  0  0  0  0  0  0  0
   -2.3390   -0.7144   -1.5210 H   0  0  0  0  0  0  0  0  0  0  0  0
   -1.3953   -2.0760   -0.8643 H   0  0  0  0  0  0  0  0  0  0  0  0
   -1.6241    1.6061   -1.3697 H   0  0  0  0  0  0  0  0  0  0  0  0
    0.3948    3.0805   -1.2556 H   0  0  0  0  0  0  0  0  0  0  0  0
    0.7489   -1.6259    0.1324 H   0  0  0  0  0  0  0  0  0  0  0  0
    2.4242   -1.9546    1.2490 H   0  0  0  0  0  0  0  0  0  0  0  0
    4.1652   -1.4082    1.4931 H   0  0  0  0  0  0  0  0  0  0  0  0
    3.6228   -2.1150   -0.1250 H   0  0  0  0  0  0  0  0  0  0  0  0
    3.0680    2.8998   -1.2473 H   0  0  0  0  0  0  0  0  0  0  0  0
  1  2  1  0
  2  3  1  0
  3  4  1  0
  4  5  2  0
  5  6  1  0
  6  7  2  0
  7  8  1  0
  8  9  2  0
  8 10  1  0
 10 11  1  0
  7 12  1  0
  9  4  1  0
  1 13  1  0
  1 14  1  0
  1 15  1  0
  2 16  1  0
  2 17  1  0
  3 18  1  0
  3 19  1  0
  5 20  1  0
  6 21  1  0
  9 22  1  0
 11 23  1  0
 11 24  1  0
 11 25  1  0
 12 26  1  0
M  END
>  <Ligand ID>  (1) 
LIG0000542

>  <Ligand>  (1) 
4-Propyl-2-methoxyphenol

>  <SMILES>  (1) 
CCCc1ccc(c(c1)OC)O

>  <CID>  (1) 
17739.0

>  <ChEMBL ID>  (1) 
nan

>  <InChiKey>  (1) 
PXIKRTCSSLJURC-UHFFFAOYSA-N

>  <InChi>  (1) 
InChI=1S/C10H14O2/c1-3-4-8-5-6-9(11)10(7-8)12-2/h5-7,11H,3-4H2,1-2H3

>  <IUPAC Name>  (1) 
2-methoxy-4-propylphenol

$$$$
