
     RDKit          3D

 67 68  0  0  0  0  0  0  0  0999 V2000
    7.2068    0.6802   -2.1743 C   0  0  0  0  0  0  0  0  0  0  0  0
    7.6566    0.4721   -0.7835 C   0  0  0  0  0  0  0  0  0  0  0  0
    6.9679   -0.5813    0.0027 C   0  0  0  0  0  0  0  0  0  0  0  0
    5.5388   -0.3965    0.3137 C   0  0  0  0  0  0  0  0  0  0  0  0
    4.6333   -0.3147   -0.8330 C   0  0  0  0  0  0  0  0  0  0  0  0
    3.1630   -0.1396   -0.5593 C   0  0  0  0  0  0  0  0  0  0  0  0
    2.4549   -1.1642    0.2187 C   0  0  0  0  0  0  0  0  0  0  0  0
    1.0002   -0.7265    0.2853 C   0  0  0  0  0  0  0  0  0  0  0  0
    0.1345   -1.5625    0.9566 C   0  0  0  0  0  0  0  0  0  0  0  0
   -1.1892   -1.1922    1.0357 C   0  0  0  0  0  0  0  0  0  0  0  0
   -1.6978   -0.0351    0.4829 C   0  0  0  0  0  0  0  0  0  0  0  0
   -0.7914    0.7779   -0.1838 C   0  0  0  0  0  0  0  0  0  0  0  0
    0.5595    0.4378   -0.2865 C   0  0  0  0  0  0  0  0  0  0  0  0
   -1.1778    1.9567   -0.7744 O   0  0  0  0  0  0  0  0  0  0  0  0
   -3.1505    0.3286    0.5865 C   0  0  0  0  0  0  0  0  0  0  0  0
   -3.3677    1.2615    1.7101 C   0  0  0  0  0  0  0  0  0  0  0  0
   -3.9939    2.5750    1.4084 C   0  0  0  0  0  0  0  0  0  0  0  0
   -3.0370    3.5524    1.1223 O   0  0  0  0  0  0  0  0  0  0  0  0
   -4.9827    2.5712    0.2801 C   0  0  0  0  0  0  0  0  0  0  0  0
   -4.3932    1.9501   -0.9243 C   0  0  0  0  0  0  0  0  0  0  0  0
   -3.7550    0.6340   -0.7305 C   0  0  0  0  0  0  0  0  0  0  0  0
   -4.6750   -0.4521   -1.2713 C   0  0  0  0  0  0  0  0  0  0  0  0
   -5.8424   -0.7841   -0.4355 C   0  0  0  0  0  0  0  0  0  0  0  0
   -6.7038   -1.8907   -1.0607 C   0  0  0  0  0  0  0  0  0  0  0  0
   -7.7927   -2.1693   -0.2364 O   0  0  0  0  0  0  0  0  0  0  0  0
    2.8964   -1.2838    1.6868 C   0  0  0  0  0  0  0  0  0  0  0  0
    2.4475   -2.5314   -0.3822 C   0  0  0  0  0  0  0  0  0  0  0  0
    8.1617    0.7582   -2.8086 H   0  0  0  0  0  0  0  0  0  0  0  0
    6.6923    1.6795   -2.2968 H   0  0  0  0  0  0  0  0  0  0  0  0
    6.6643   -0.1443   -2.6310 H   0  0  0  0  0  0  0  0  0  0  0  0
    7.5636    1.4819   -0.2458 H   0  0  0  0  0  0  0  0  0  0  0  0
    8.7684    0.2757   -0.7784 H   0  0  0  0  0  0  0  0  0  0  0  0
    7.5593   -0.7747    0.9489 H   0  0  0  0  0  0  0  0  0  0  0  0
    7.1022   -1.5794   -0.5407 H   0  0  0  0  0  0  0  0  0  0  0  0
    5.2814   -1.2424    1.0241 H   0  0  0  0  0  0  0  0  0  0  0  0
    5.4584    0.5427    0.9352 H   0  0  0  0  0  0  0  0  0  0  0  0
    4.8053   -1.1319   -1.5906 H   0  0  0  0  0  0  0  0  0  0  0  0
    4.8956    0.6410   -1.3917 H   0  0  0  0  0  0  0  0  0  0  0  0
    3.0692    0.8371   -0.0329 H   0  0  0  0  0  0  0  0  0  0  0  0
    2.6787   -0.0535   -1.5713 H   0  0  0  0  0  0  0  0  0  0  0  0
    0.4498   -2.4852    1.4174 H   0  0  0  0  0  0  0  0  0  0  0  0
   -1.8702   -1.8444    1.5607 H   0  0  0  0  0  0  0  0  0  0  0  0
    1.2257    1.1038   -0.8144 H   0  0  0  0  0  0  0  0  0  0  0  0
   -0.8021    2.8689   -0.5301 H   0  0  0  0  0  0  0  0  0  0  0  0
   -3.6400   -0.6541    0.8834 H   0  0  0  0  0  0  0  0  0  0  0  0
   -2.3934    1.4842    2.1971 H   0  0  0  0  0  0  0  0  0  0  0  0
   -3.9586    0.7974    2.5269 H   0  0  0  0  0  0  0  0  0  0  0  0
   -4.5519    2.9659    2.2889 H   0  0  0  0  0  0  0  0  0  0  0  0
   -2.4701    3.6096    1.9539 H   0  0  0  0  0  0  0  0  0  0  0  0
   -5.1724    3.6616    0.0355 H   0  0  0  0  0  0  0  0  0  0  0  0
   -5.9855    2.2184    0.5819 H   0  0  0  0  0  0  0  0  0  0  0  0
   -5.2333    1.8380   -1.6730 H   0  0  0  0  0  0  0  0  0  0  0  0
   -3.7372    2.7122   -1.4077 H   0  0  0  0  0  0  0  0  0  0  0  0
   -2.9054    0.6103   -1.4851 H   0  0  0  0  0  0  0  0  0  0  0  0
   -4.0497   -1.3834   -1.3855 H   0  0  0  0  0  0  0  0  0  0  0  0
   -4.9479   -0.1366   -2.2980 H   0  0  0  0  0  0  0  0  0  0  0  0
   -5.6514   -1.0647    0.5915 H   0  0  0  0  0  0  0  0  0  0  0  0
   -6.5208    0.1193   -0.4110 H   0  0  0  0  0  0  0  0  0  0  0  0
   -7.1290   -1.5636   -2.0391 H   0  0  0  0  0  0  0  0  0  0  0  0
   -6.1231   -2.8168   -1.1891 H   0  0  0  0  0  0  0  0  0  0  0  0
   -7.5001   -2.6726    0.5528 H   0  0  0  0  0  0  0  0  0  0  0  0
    3.3921   -0.3633    2.0473 H   0  0  0  0  0  0  0  0  0  0  0  0
    3.3933   -2.2293    1.9091 H   0  0  0  0  0  0  0  0  0  0  0  0
    1.9569   -1.3277    2.3382 H   0  0  0  0  0  0  0  0  0  0  0  0
    1.6706   -2.6651   -1.1633 H   0  0  0  0  0  0  0  0  0  0  0  0
    3.4208   -2.7738   -0.8828 H   0  0  0  0  0  0  0  0  0  0  0  0
    2.3231   -3.2724    0.4291 H   0  0  0  0  0  0  0  0  0  0  0  0
  1  2  1  0
  2  3  1  0
  3  4  1  0
  4  5  1  0
  5  6  1  0
  6  7  1  0
  7  8  1  0
  8  9  2  0
  9 10  1  0
 10 11  2  0
 11 12  1  0
 12 13  2  0
 12 14  1  0
 11 15  1  0
 15 16  1  0
 16 17  1  0
 17 18  1  0
 17 19  1  0
 19 20  1  0
 20 21  1  0
 21 22  1  0
 22 23  1  0
 23 24  1  0
 24 25  1  0
  7 26  1  0
  7 27  1  0
 13  8  1  0
 21 15  1  0
  1 28  1  0
  1 29  1  0
  1 30  1  0
  2 31  1  0
  2 32  1  0
  3 33  1  0
  3 34  1  0
  4 35  1  0
  4 36  1  0
  5 37  1  0
  5 38  1  0
  6 39  1  0
  6 40  1  0
  9 41  1  0
 10 42  1  0
 13 43  1  0
 14 44  1  0
 15 45  1  0
 16 46  1  0
 16 47  1  0
 17 48  1  0
 18 49  1  0
 19 50  1  0
 19 51  1  0
 20 52  1  0
 20 53  1  0
 21 54  1  0
 22 55  1  0
 22 56  1  0
 23 57  1  0
 23 58  1  0
 24 59  1  0
 24 60  1  0
 25 61  1  0
 26 62  1  0
 26 63  1  0
 26 64  1  0
 27 65  1  0
 27 66  1  0
 27 67  1  0
M  END
>  <Ligand ID>  (1) 
LIG0001874

>  <Ligand>  (1) 
83002-04-4

>  <SMILES>  (1) 
CCCCCCC(c1ccc(c(c1)O)C1CC(O)CCC1CCCO)(C)C

>  <CID>  (1) 
4412255.0

>  <ChEMBL ID>  (1) 
nan

>  <InChiKey>  (1) 
YNZFFALZMRAPHQ-UHFFFAOYSA-N

>  <InChi>  (1) 
InChI=1S/C24H40O3/c1-4-5-6-7-14-24(2,3)19-11-13-21(23(27)16-19)22-17-20(26)12-10-18(22)9-8-15-25/h11,13,16,18,20,22,25-27H,4-10,12,14-15,17H2,1-3H3

>  <IUPAC Name>  (1) 
2-[5-hydroxy-2-(3-hydroxypropyl)cyclohexyl]-5-(2-methyloctan-2-yl)phenol

$$$$
