
     RDKit          3D

 53 53  0  0  0  0  0  0  0  0999 V2000
    8.3689    0.0643    0.1386 C   0  0  0  0  0  0  0  0  0  0  0  0
    7.4128   -0.9797   -0.3589 C   0  0  0  0  0  0  0  0  0  0  0  0
    6.0692   -0.5830   -0.3454 O   0  0  0  0  0  0  0  0  0  0  0  0
    5.3337   -0.1887    0.7503 C   0  0  0  0  0  0  0  0  0  0  0  0
    5.9069   -0.1656    1.8605 O   0  0  0  0  0  0  0  0  0  0  0  0
    3.9779    0.1584    0.5296 N   0  0  0  0  0  0  0  0  0  0  0  0
    3.4007    0.1001   -0.8312 C   0  0  0  0  0  0  0  0  0  0  0  0
    2.2952   -0.9560   -0.7814 C   0  0  0  0  0  0  0  0  0  0  0  0
    1.2403   -0.4686    0.2158 C   0  0  0  0  0  0  0  0  0  0  0  0
    1.8858   -0.4105    1.5731 C   0  0  0  0  0  0  0  0  0  0  0  0
    3.0458    0.5580    1.5540 C   0  0  0  0  0  0  0  0  0  0  0  0
    0.7608    0.7810   -0.2702 N   0  0  0  0  0  0  0  0  0  0  0  0
   -0.5118    1.2234    0.2222 C   0  0  0  0  0  0  0  0  0  0  0  0
   -1.5935    0.3385   -0.3596 C   0  0  0  0  0  0  0  0  0  0  0  0
   -2.9058    0.7755    0.0869 N   0  0  0  0  0  0  0  0  0  0  0  0
   -4.0084   -0.0028   -0.4322 C   0  0  0  0  0  0  0  0  0  0  0  0
   -3.6892   -0.9522   -1.1909 O   0  0  0  0  0  0  0  0  0  0  0  0
   -5.3912    0.2995   -0.0964 C   0  0  0  0  0  0  0  0  0  0  0  0
   -5.7773    1.6271   -0.2058 C   0  0  0  0  0  0  0  0  0  0  0  0
   -7.0956    1.9744    0.0919 C   0  0  0  0  0  0  0  0  0  0  0  0
   -7.9704    0.9869    0.4846 C   0  0  0  0  0  0  0  0  0  0  0  0
   -7.6237   -0.3396    0.6050 C   0  0  0  0  0  0  0  0  0  0  0  0
   -6.2988   -0.6893    0.3060 C   0  0  0  0  0  0  0  0  0  0  0  0
   -5.8609   -2.0944    0.4098 C   0  0  0  0  0  0  0  0  0  0  0  0
    0.6829    0.0000    0.0000 Cl  0  0  0  0  0  0  0  0  0  0  0  0
    8.7681    0.7075   -0.6942 H   0  0  0  0  0  0  0  0  0  0  0  0
    9.2674   -0.4541    0.5376 H   0  0  0  0  0  0  0  0  0  0  0  0
    7.9206    0.7264    0.8818 H   0  0  0  0  0  0  0  0  0  0  0  0
    7.5486   -1.8936    0.2801 H   0  0  0  0  0  0  0  0  0  0  0  0
    7.7428   -1.2859   -1.3845 H   0  0  0  0  0  0  0  0  0  0  0  0
    4.1549   -0.1307   -1.5824 H   0  0  0  0  0  0  0  0  0  0  0  0
    2.9277    1.0758   -1.0642 H   0  0  0  0  0  0  0  0  0  0  0  0
    1.8536   -1.0140   -1.7800 H   0  0  0  0  0  0  0  0  0  0  0  0
    2.7567   -1.8889   -0.4642 H   0  0  0  0  0  0  0  0  0  0  0  0
    0.4294   -1.2423    0.2164 H   0  0  0  0  0  0  0  0  0  0  0  0
    2.3044   -1.4102    1.8042 H   0  0  0  0  0  0  0  0  0  0  0  0
    1.1355   -0.1378    2.3509 H   0  0  0  0  0  0  0  0  0  0  0  0
    3.5331    0.5867    2.5579 H   0  0  0  0  0  0  0  0  0  0  0  0
    2.6276    1.5651    1.3267 H   0  0  0  0  0  0  0  0  0  0  0  0
    0.7337    0.7650   -1.3064 H   0  0  0  0  0  0  0  0  0  0  0  0
   -0.5868    1.2993    1.3156 H   0  0  0  0  0  0  0  0  0  0  0  0
   -0.6899    2.2339   -0.1981 H   0  0  0  0  0  0  0  0  0  0  0  0
   -1.4559   -0.7367   -0.1798 H   0  0  0  0  0  0  0  0  0  0  0  0
   -1.5828    0.5304   -1.4783 H   0  0  0  0  0  0  0  0  0  0  0  0
   -3.0681    1.5684    0.7149 H   0  0  0  0  0  0  0  0  0  0  0  0
   -5.0691    2.3797   -0.5156 H   0  0  0  0  0  0  0  0  0  0  0  0
   -7.4415    3.0090    0.0113 H   0  0  0  0  0  0  0  0  0  0  0  0
   -9.0072    1.2940    0.7139 H   0  0  0  0  0  0  0  0  0  0  0  0
   -8.3188   -1.1111    0.9128 H   0  0  0  0  0  0  0  0  0  0  0  0
   -6.7911   -2.7229    0.5268 H   0  0  0  0  0  0  0  0  0  0  0  0
   -5.3721   -2.4877   -0.4937 H   0  0  0  0  0  0  0  0  0  0  0  0
   -5.2920   -2.2818    1.3457 H   0  0  0  0  0  0  0  0  0  0  0  0
   -0.6829    0.0000    0.0000 H   0  0  0  0  0  0  0  0  0  0  0  0
  1  2  1  0
  2  3  1  0
  3  4  1  0
  4  5  2  0
  4  6  1  0
  6  7  1  0
  7  8  1  0
  8  9  1  0
  9 10  1  0
 10 11  1  0
  9 12  1  0
 12 13  1  0
 13 14  1  0
 14 15  1  0
 15 16  1  0
 16 17  2  0
 16 18  1  0
 18 19  2  0
 19 20  1  0
 20 21  2  0
 21 22  1  0
 22 23  2  0
 23 24  1  0
 11  6  1  0
 23 18  1  0
  1 26  1  0
  1 27  1  0
  1 28  1  0
  2 29  1  0
  2 30  1  0
  7 31  1  0
  7 32  1  0
  8 33  1  0
  8 34  1  0
  9 35  1  0
 10 36  1  0
 10 37  1  0
 11 38  1  0
 11 39  1  0
 12 40  1  0
 13 41  1  0
 13 42  1  0
 14 43  1  0
 14 44  1  0
 15 45  1  0
 19 46  1  0
 20 47  1  0
 21 48  1  0
 22 49  1  0
 24 50  1  0
 24 51  1  0
 24 52  1  0
 25 53  1  0
M  END
>  <Ligand ID>  (1) 
LIG0001952

>  <Ligand>  (1) 
VU 0357017 Hydrochloride

>  <SMILES>  (1) 
CCOC(=O)N1CCC(CC1)NCCNC(=O)c1ccccc1C.Cl

>  <CID>  (1) 
25010775.0

>  <ChEMBL ID>  (1) 
nan

>  <InChiKey>  (1) 
XKJQVUIXSBOCPP-UHFFFAOYSA-N

>  <InChi>  (1) 
InChI=1S/C18H27N3O3.ClH/c1-3-24-18(23)21-12-8-15(9-13-21)19-10-11-20-17(22)16-7-5-4-6-14(16)2;/h4-7,15,19H,3,8-13H2,1-2H3,(H,20,22);1H

>  <IUPAC Name>  (1) 
ethyl 4-[2-[(2-methylbenzoyl)amino]ethylamino]piperidine-1-carboxylate;hydrochloride

$$$$
