
     RDKit          3D

 65 72  0  0  0  0  0  0  0  0999 V2000
   -2.9084   -0.0702    3.1547 C   0  0  0  0  0  0  0  0  0  0  0  0
   -3.0401    0.2244    1.8207 O   0  0  0  0  0  0  0  0  0  0  0  0
   -1.8527    0.1981    1.0977 C   0  0  1  0  0  0  0  0  0  0  0  0
   -0.8801    1.2190    1.6812 C   0  0  0  0  0  0  0  0  0  0  0  0
    0.2544    1.3859    0.9370 C   0  0  0  0  0  0  0  0  0  0  0  0
    0.3225    0.4751   -0.2323 C   0  0  0  0  0  0  0  0  0  0  0  0
    0.1680   -0.9112    0.3618 C   0  0  0  0  0  0  0  0  0  0  0  0
   -1.1448   -1.0942    1.1134 C   0  0  2  0  0  0  0  0  0  0  0  0
   -1.7558   -2.2176    0.5396 O   0  0  0  0  0  0  0  0  0  0  0  0
   -1.2148   -2.4971   -0.7056 C   0  0  0  0  0  0  0  0  0  0  0  0
   -0.1107   -1.7215   -0.8437 C   0  0  0  0  0  0  0  0  0  0  0  0
    0.7435   -1.6343   -1.8970 C   0  0  0  0  0  0  0  0  0  0  0  0
    1.8385   -0.6674   -1.8652 C   0  0  0  0  0  0  0  0  0  0  0  0
    1.6484    0.4940   -0.9453 C   0  0  0  0  0  0  0  0  0  0  0  0
    2.6315    0.4453    0.1532 N   0  0  0  0  0  0  0  0  0  0  0  0
    2.6220   -0.8344    0.7907 C   0  0  0  0  0  0  0  0  0  0  0  0
    1.3126   -1.4319    1.1332 C   0  0  0  0  0  0  0  0  0  0  0  0
    3.9647    0.7478   -0.2937 C   0  0  0  0  0  0  0  0  0  0  0  0
    4.9182    0.6787    0.9062 C   0  0  0  0  0  0  0  0  0  0  0  0
    4.6631    1.6023    2.0568 C   0  0  0  0  0  0  0  0  0  0  0  0
    5.7723    1.9057    1.1370 C   0  0  0  0  0  0  0  0  0  0  0  0
    0.4419   -2.4633   -2.9791 C   0  0  0  0  0  0  0  0  0  0  0  0
   -0.6809   -3.2980   -2.9123 C   0  0  0  0  0  0  0  0  0  0  0  0
   -1.5117   -3.3222   -1.7866 C   0  0  0  0  0  0  0  0  0  0  0  0
   -2.6256   -4.1411   -1.7064 O   0  0  0  0  0  0  0  0  0  0  0  0
   -0.8466    0.7394   -1.1320 C   0  0  0  0  0  0  0  0  0  0  0  0
   -2.1096    0.7298   -0.2962 C   0  0  0  0  0  0  0  0  0  0  0  0
   -3.2371    0.0066   -0.9771 C   0  0  0  0  0  0  0  0  0  0  0  0
   -4.4085    0.9625   -0.9449 C   0  0  0  0  0  0  0  0  0  0  0  0
   -3.7620    2.2987   -1.1032 C   0  0  0  0  0  0  0  0  0  0  0  0
   -2.5632    2.1934   -0.1974 C   0  0  1  0  0  0  0  0  0  0  0  0
   -2.9193    2.5182    1.0945 O   0  0  0  0  0  0  0  0  0  0  0  0
   -2.5021   -1.0570    3.3968 H   0  0  0  0  0  0  0  0  0  0  0  0
   -2.4057    0.7449    3.7449 H   0  0  0  0  0  0  0  0  0  0  0  0
   -3.9553   -0.0839    3.5692 H   0  0  0  0  0  0  0  0  0  0  0  0
   -1.0674    1.7475    2.5779 H   0  0  0  0  0  0  0  0  0  0  0  0
    1.0003    2.1138    1.2026 H   0  0  0  0  0  0  0  0  0  0  0  0
   -0.9175   -1.3918    2.1676 H   0  0  0  0  0  0  0  0  0  0  0  0
    1.9405   -0.2111   -2.9044 H   0  0  0  0  0  0  0  0  0  0  0  0
    2.8029   -1.2110   -1.7377 H   0  0  0  0  0  0  0  0  0  0  0  0
    1.7745    1.4493   -1.4483 H   0  0  0  0  0  0  0  0  0  0  0  0
    3.2411   -0.7044    1.7294 H   0  0  0  0  0  0  0  0  0  0  0  0
    3.2113   -1.5717    0.1796 H   0  0  0  0  0  0  0  0  0  0  0  0
    1.1227   -1.4236    2.2476 H   0  0  0  0  0  0  0  0  0  0  0  0
    1.3723   -2.5402    0.9043 H   0  0  0  0  0  0  0  0  0  0  0  0
    4.2903   -0.0501   -0.9893 H   0  0  0  0  0  0  0  0  0  0  0  0
    3.9985    1.7405   -0.7730 H   0  0  0  0  0  0  0  0  0  0  0  0
    5.3783   -0.2898    1.1064 H   0  0  0  0  0  0  0  0  0  0  0  0
    3.7744    2.2583    1.9906 H   0  0  0  0  0  0  0  0  0  0  0  0
    4.9018    1.2130    3.0645 H   0  0  0  0  0  0  0  0  0  0  0  0
    5.6481    2.7562    0.4190 H   0  0  0  0  0  0  0  0  0  0  0  0
    6.8248    1.7676    1.4617 H   0  0  0  0  0  0  0  0  0  0  0  0
    1.0891   -2.4358   -3.8430 H   0  0  0  0  0  0  0  0  0  0  0  0
   -0.9174   -3.9505   -3.7626 H   0  0  0  0  0  0  0  0  0  0  0  0
   -2.4524   -5.1357   -1.5960 H   0  0  0  0  0  0  0  0  0  0  0  0
   -1.0099   -0.0133   -1.9250 H   0  0  0  0  0  0  0  0  0  0  0  0
   -0.7433    1.7099   -1.6813 H   0  0  0  0  0  0  0  0  0  0  0  0
   -3.0265   -0.2808   -2.0254 H   0  0  0  0  0  0  0  0  0  0  0  0
   -3.5779   -0.8695   -0.3501 H   0  0  0  0  0  0  0  0  0  0  0  0
   -5.1534    0.7796   -1.7482 H   0  0  0  0  0  0  0  0  0  0  0  0
   -4.9075    0.9254    0.0559 H   0  0  0  0  0  0  0  0  0  0  0  0
   -4.4179    3.1276   -0.7338 H   0  0  0  0  0  0  0  0  0  0  0  0
   -3.5100    2.5174   -2.1509 H   0  0  0  0  0  0  0  0  0  0  0  0
   -1.7540    2.8951   -0.5065 H   0  0  0  0  0  0  0  0  0  0  0  0
   -3.7823    2.9529    1.1980 H   0  0  0  0  0  0  0  0  0  0  0  0
  1  2  1  0
  3  2  1  1
  3  4  1  0
  4  5  2  0
  5  6  1  0
  6  7  1  0
  7  8  1  0
  8  9  1  0
  9 10  1  0
 10 11  2  0
 11 12  1  0
 12 13  1  0
 13 14  1  0
 14 15  1  0
 15 16  1  0
 16 17  1  0
 15 18  1  0
 18 19  1  0
 19 20  1  0
 20 21  1  0
 12 22  2  0
 22 23  1  0
 23 24  2  0
 24 25  1  0
  6 26  1  0
 26 27  1  0
 27 28  1  0
 28 29  1  0
 29 30  1  0
 30 31  1  0
 31 32  1  0
  8  3  1  0
 24 10  1  0
 31 27  1  0
 27  3  1  0
 14  6  1  0
 21 19  1  0
 17  7  1  0
 11  7  1  0
  1 33  1  0
  1 34  1  0
  1 35  1  0
  4 36  1  0
  5 37  1  0
  8 38  1  1
 13 39  1  0
 13 40  1  0
 14 41  1  0
 16 42  1  0
 16 43  1  0
 17 44  1  0
 17 45  1  0
 18 46  1  0
 18 47  1  0
 19 48  1  0
 20 49  1  0
 20 50  1  0
 21 51  1  0
 21 52  1  0
 22 53  1  0
 23 54  1  0
 25 55  1  0
 26 56  1  0
 26 57  1  0
 28 58  1  0
 28 59  1  0
 29 60  1  0
 29 61  1  0
 30 62  1  0
 30 63  1  0
 31 64  1  6
 32 65  1  0
M  END
>  <Ligand ID>  (1) 
LIG0004690

>  <Ligand>  (1) 
CHEMBL281986

>  <SMILES>  (1) 
CO[C@@]12C=CC3(C45[C@@H]1Oc1c5c(CC3N(CC4)CC3CC3)ccc1O)CC12CCC[C@H]1O

>  <CID>  (1) 
44279699.0

>  <ChEMBL ID>  (1) 
nan

>  <InChiKey>  (1) 
RLFSNZBLDVZMLA-MCRZJHBZSA-N

>  <InChi>  (1) 
InChI=1S/C27H33NO4/c1-31-27-10-9-24(15-25(27)8-2-3-20(25)30)19-13-17-6-7-18(29)22-21(17)26(24,23(27)32-22)11-12-28(19)14-16-4-5-16/h6-7,9-10,16,19-20,23,29-30H,2-5,8,11-15H2,1H3/t19?,20-,23+,24?,25?,26?,27+/m1/s1

>  <IUPAC Name>  (1) 
(1'R,14S,15R)-5-(cyclopropylmethyl)-15-methoxyspiro[13-oxa-5-azahexacyclo[13.2.2.12,8.01,6.02,14.012,20]icosa-8(20),9,11,16-tetraene-19,2'-cyclopentane]-1',11-diol

$$$$
