
     RDKit          3D

 35 36  0  0  0  0  0  0  0  0999 V2000
   -2.6921   -3.3659   -0.8801 C   0  0  0  0  0  0  0  0  0  0  0  0
   -1.2700   -2.3391   -0.5730 S   0  0  0  0  0  0  0  0  0  0  0  0
   -0.3388   -2.3847   -1.7494 O   0  0  0  0  0  0  0  0  0  0  0  0
   -0.5545   -2.9101    0.6126 O   0  0  0  0  0  0  0  0  0  0  0  0
   -1.8270   -0.7198   -0.2225 C   0  0  0  0  0  0  0  0  0  0  0  0
   -3.1651   -0.3743   -0.2060 C   0  0  0  0  0  0  0  0  0  0  0  0
   -3.5887    0.9126    0.0735 C   0  0  0  0  0  0  0  0  0  0  0  0
   -2.6546    1.9042    0.3491 C   0  0  0  0  0  0  0  0  0  0  0  0
   -1.3030    1.5742    0.3369 C   0  0  0  0  0  0  0  0  0  0  0  0
   -0.9079    0.2821    0.0548 C   0  0  0  0  0  0  0  0  0  0  0  0
    0.4865   -0.0145    0.0524 N   0  0  0  0  0  0  0  0  0  0  0  0
    1.5038    0.9716    0.3307 C   0  0  0  0  0  0  0  0  0  0  0  0
    2.8686    0.3837    0.2591 C   0  0  0  0  0  0  0  0  0  0  0  0
    3.6994    0.3592    1.2238 N   0  0  0  0  0  0  0  0  0  0  0  0
    4.9256   -0.2838    0.8135 C   0  0  0  0  0  0  0  0  0  0  0  0
    4.8888   -0.0927   -0.6871 C   0  0  0  0  0  0  0  0  0  0  0  0
    3.4367   -0.2296   -0.8923 N   0  0  0  0  0  0  0  0  0  0  0  0
   -3.1372    3.2720    0.6446 C   0  0  0  0  0  0  0  0  0  0  0  0
   -2.2729    3.9034    1.5082 F   0  0  0  0  0  0  0  0  0  0  0  0
   -4.3972    3.1389    1.2370 F   0  0  0  0  0  0  0  0  0  0  0  0
   -3.2626    3.9513   -0.5527 F   0  0  0  0  0  0  0  0  0  0  0  0
   -3.4622   -3.1526   -0.1108 H   0  0  0  0  0  0  0  0  0  0  0  0
   -2.4049   -4.4310   -0.9152 H   0  0  0  0  0  0  0  0  0  0  0  0
   -3.1098   -3.0999   -1.8802 H   0  0  0  0  0  0  0  0  0  0  0  0
   -3.9088   -1.1502   -0.4223 H   0  0  0  0  0  0  0  0  0  0  0  0
   -4.6572    1.1541    0.0786 H   0  0  0  0  0  0  0  0  0  0  0  0
   -0.5747    2.3362    0.5492 H   0  0  0  0  0  0  0  0  0  0  0  0
    0.8070   -0.9983   -0.1614 H   0  0  0  0  0  0  0  0  0  0  0  0
    1.2920    1.3716    1.3384 H   0  0  0  0  0  0  0  0  0  0  0  0
    1.3699    1.8215   -0.3672 H   0  0  0  0  0  0  0  0  0  0  0  0
    5.8203    0.1590    1.2922 H   0  0  0  0  0  0  0  0  0  0  0  0
    4.8260   -1.3711    1.0368 H   0  0  0  0  0  0  0  0  0  0  0  0
    5.4612   -0.8472   -1.2434 H   0  0  0  0  0  0  0  0  0  0  0  0
    5.1558    0.9468   -0.9553 H   0  0  0  0  0  0  0  0  0  0  0  0
    2.9477   -0.6779   -1.7040 H   0  0  0  0  0  0  0  0  0  0  0  0
  1  2  1  0
  2  3  2  0
  2  4  2  0
  2  5  1  0
  5  6  2  0
  6  7  1  0
  7  8  2  0
  8  9  1  0
  9 10  2  0
 10 11  1  0
 11 12  1  0
 12 13  1  0
 13 14  2  0
 14 15  1  0
 15 16  1  0
 16 17  1  0
  8 18  1  0
 18 19  1  0
 18 20  1  0
 18 21  1  0
 10  5  1  0
 17 13  1  0
  1 22  1  0
  1 23  1  0
  1 24  1  0
  6 25  1  0
  7 26  1  0
  9 27  1  0
 11 28  1  0
 12 29  1  0
 12 30  1  0
 15 31  1  0
 15 32  1  0
 16 33  1  0
 16 34  1  0
 17 35  1  0
M  END
>  <Ligand ID>  (1) 
LIG0000998

>  <Ligand>  (1) 
CHEMBL302698

>  <SMILES>  (1) 
CS(=O)(=O)c1ccc(cc1NCC1=NCCN1)C(F)(F)F

>  <CID>  (1) 
11059195.0

>  <ChEMBL ID>  (1) 
nan

>  <InChiKey>  (1) 
NEAKCLFZBLSGMR-UHFFFAOYSA-N

>  <InChi>  (1) 
InChI=1S/C12H14F3N3O2S/c1-21(19,20)10-3-2-8(12(13,14)15)6-9(10)18-7-11-16-4-5-17-11/h2-3,6,18H,4-5,7H2,1H3,(H,16,17)

>  <IUPAC Name>  (1) 
N-(4,5-dihydro-1H-imidazol-2-ylmethyl)-2-methylsulfonyl-5-(trifluoromethyl)aniline

$$$$
