
     RDKit          3D

 46 46  0  0  0  0  0  0  0  0999 V2000
   -3.0733   -2.6476    1.2571 S   0  0  0  0  0  0  0  0  0  0  0  0
   -1.9542   -1.4630    0.5333 C   0  0  0  0  0  0  0  0  0  0  0  0
   -0.5470   -1.6929    0.7449 C   0  0  0  0  0  0  0  0  0  0  0  0
    0.2275   -2.8729    0.3399 C   0  0  0  0  0  0  0  0  0  0  0  0
    1.7200   -2.3663    0.4569 C   0  0  0  0  0  0  0  0  0  0  0  0
    1.9538   -1.4298   -0.7348 C   0  0  0  0  0  0  0  0  0  0  0  0
    3.1856   -0.6351   -0.7192 C   0  0  0  0  0  0  0  0  0  0  0  0
    3.4221    0.4588    0.2253 C   0  0  0  0  0  0  0  0  0  0  0  0
    2.7313    1.7666    0.0625 C   0  0  0  0  0  0  0  0  0  0  0  0
    1.2671    1.6998    0.2167 C   0  0  0  0  0  0  0  0  0  0  0  0
    0.5080    3.0239    0.0946 C   0  0  0  0  0  0  0  0  0  0  0  0
   -0.9520    2.6941    0.4396 C   0  0  0  0  0  0  0  0  0  0  0  0
   -1.5880    1.6843   -0.4433 C   0  0  0  0  0  0  0  0  0  0  0  0
   -2.9554    1.2462    0.0554 C   0  0  0  0  0  0  0  0  0  0  0  0
   -3.4899    0.0767   -0.7494 C   0  0  0  0  0  0  0  0  0  0  0  0
   -2.4101   -0.9787   -0.7895 C   0  0  0  0  0  0  0  0  0  0  0  0
   -3.3311   -3.7043    0.3433 H   0  0  0  0  0  0  0  0  0  0  0  0
   -2.1466   -0.5005    1.2161 H   0  0  0  0  0  0  0  0  0  0  0  0
    0.0472   -0.7624    0.5892 H   0  0  0  0  0  0  0  0  0  0  0  0
   -0.4468   -1.7394    1.9311 H   0  0  0  0  0  0  0  0  0  0  0  0
    0.1052   -3.7477    1.0083 H   0  0  0  0  0  0  0  0  0  0  0  0
    0.1582   -3.2180   -0.6887 H   0  0  0  0  0  0  0  0  0  0  0  0
    1.8478   -1.7697    1.3619 H   0  0  0  0  0  0  0  0  0  0  0  0
    2.3633   -3.2269    0.4348 H   0  0  0  0  0  0  0  0  0  0  0  0
    1.0327   -0.9457   -1.0457 H   0  0  0  0  0  0  0  0  0  0  0  0
    2.0826   -2.2044   -1.6281 H   0  0  0  0  0  0  0  0  0  0  0  0
    3.3508   -0.2691   -1.8050 H   0  0  0  0  0  0  0  0  0  0  0  0
    4.0422   -1.3843   -0.5659 H   0  0  0  0  0  0  0  0  0  0  0  0
    4.5490    0.6625    0.2603 H   0  0  0  0  0  0  0  0  0  0  0  0
    3.2493    0.0427    1.2687 H   0  0  0  0  0  0  0  0  0  0  0  0
    3.1510    2.5236    0.7930 H   0  0  0  0  0  0  0  0  0  0  0  0
    2.9842    2.2178   -0.9351 H   0  0  0  0  0  0  0  0  0  0  0  0
    1.0367    1.2488    1.1823 H   0  0  0  0  0  0  0  0  0  0  0  0
    0.8860    1.1312   -0.6827 H   0  0  0  0  0  0  0  0  0  0  0  0
    0.8537    3.7320    0.8655 H   0  0  0  0  0  0  0  0  0  0  0  0
    0.6307    3.4569   -0.8932 H   0  0  0  0  0  0  0  0  0  0  0  0
   -1.5227    3.6312    0.5347 H   0  0  0  0  0  0  0  0  0  0  0  0
   -0.8991    2.2719    1.4846 H   0  0  0  0  0  0  0  0  0  0  0  0
   -0.9382    0.8496   -0.6616 H   0  0  0  0  0  0  0  0  0  0  0  0
   -1.8190    2.1936   -1.4437 H   0  0  0  0  0  0  0  0  0  0  0  0
   -3.6113    2.1614   -0.1685 H   0  0  0  0  0  0  0  0  0  0  0  0
   -3.0136    1.1582    1.1342 H   0  0  0  0  0  0  0  0  0  0  0  0
   -3.6600    0.4214   -1.7809 H   0  0  0  0  0  0  0  0  0  0  0  0
   -4.4182   -0.2600   -0.2534 H   0  0  0  0  0  0  0  0  0  0  0  0
   -1.6728   -0.6728   -1.5196 H   0  0  0  0  0  0  0  0  0  0  0  0
   -2.9370   -1.8615   -1.3261 H   0  0  0  0  0  0  0  0  0  0  0  0
  1  2  1  0
  2  3  1  0
  3  4  1  0
  4  5  1  0
  5  6  1  0
  6  7  1  0
  7  8  1  0
  8  9  1  0
  9 10  1  0
 10 11  1  0
 11 12  1  0
 12 13  1  0
 13 14  1  0
 14 15  1  0
 15 16  1  0
 16  2  1  0
  1 17  1  0
  2 18  1  0
  3 19  1  0
  3 20  1  0
  4 21  1  0
  4 22  1  0
  5 23  1  0
  5 24  1  0
  6 25  1  0
  6 26  1  0
  7 27  1  0
  7 28  1  0
  8 29  1  0
  8 30  1  0
  9 31  1  0
  9 32  1  0
 10 33  1  0
 10 34  1  0
 11 35  1  0
 11 36  1  0
 12 37  1  0
 12 38  1  0
 13 39  1  0
 13 40  1  0
 14 41  1  0
 14 42  1  0
 15 43  1  0
 15 44  1  0
 16 45  1  0
 16 46  1  0
M  END
>  <Ligand ID>  (1) 
LIG0005065

>  <Ligand>  (1) 
Cyclopentadecanethiol

>  <SMILES>  (1) 
SC1CCCCCCCCCCCCCC1

>  <CID>  (1) 
87547960.0

>  <ChEMBL ID>  (1) 
nan

>  <InChiKey>  (1) 
FUPFITXLWKVVSD-UHFFFAOYSA-N

>  <InChi>  (1) 
InChI=1S/C15H30S/c16-15-13-11-9-7-5-3-1-2-4-6-8-10-12-14-15/h15-16H,1-14H2

>  <IUPAC Name>  (1) 
cyclopentadecanethiol

$$$$
