
     RDKit          3D

 52 55  0  0  0  0  0  0  0  0999 V2000
    9.1068   -0.3770   -0.8549 C   0  0  0  0  0  0  0  0  0  0  0  0
    7.7786   -0.1602   -1.3386 O   0  0  0  0  0  0  0  0  0  0  0  0
    6.7044   -0.0231   -0.4855 C   0  0  0  0  0  0  0  0  0  0  0  0
    6.8272   -0.0839    0.8852 C   0  0  0  0  0  0  0  0  0  0  0  0
    5.7053    0.0615    1.7036 C   0  0  0  0  0  0  0  0  0  0  0  0
    4.4778    0.2667    1.0976 C   0  0  0  0  0  0  0  0  0  0  0  0
    4.3524    0.3279   -0.2696 C   0  0  0  0  0  0  0  0  0  0  0  0
    5.4648    0.1828   -1.0525 C   0  0  0  0  0  0  0  0  0  0  0  0
    3.0046    0.5404   -0.5168 C   0  0  0  0  0  0  0  0  0  0  0  0
    2.3490    0.6761   -1.6871 N   0  0  0  0  0  0  0  0  0  0  0  0
    1.0197    0.8768   -1.6426 C   0  0  0  0  0  0  0  0  0  0  0  0
    0.3381    1.0132   -2.7077 O   0  0  0  0  0  0  0  0  0  0  0  0
    0.3684    0.9397   -0.4689 N   0  0  0  0  0  0  0  0  0  0  0  0
    1.0139    0.8050    0.7192 C   0  0  0  0  0  0  0  0  0  0  0  0
    0.4134    0.8624    1.8220 O   0  0  0  0  0  0  0  0  0  0  0  0
    2.3777    0.5980    0.7074 C   0  0  0  0  0  0  0  0  0  0  0  0
    3.2727    0.4317    1.6927 N   0  0  0  0  0  0  0  0  0  0  0  0
   -1.0213    1.1483   -0.3806 N   0  0  0  0  0  0  0  0  0  0  0  0
   -1.8476    0.2225   -0.0829 C   0  0  0  0  0  0  0  0  0  0  0  0
   -3.3243    0.4263    0.0151 C   0  0  2  0  0  0  0  0  0  0  0  0
   -3.8546   -0.1408    1.2810 C   0  0  0  0  0  0  0  0  0  0  0  0
   -4.1385    0.9286    2.3349 C   0  0  0  0  0  0  0  0  0  0  0  0
   -5.0439   -1.0209    1.2131 C   0  0  0  0  0  0  0  0  0  0  0  0
   -5.8452   -0.8935   -0.0363 C   0  0  0  0  0  0  0  0  0  0  0  0
   -5.3573   -0.4167   -1.1719 C   0  0  0  0  0  0  0  0  0  0  0  0
   -3.9518    0.0242   -1.2520 C   0  0  0  0  0  0  0  0  0  0  0  0
   -3.1932   -1.0966   -1.9708 C   0  0  0  0  0  0  0  0  0  0  0  0
   -7.2875   -1.3317   -0.0027 C   0  0  0  0  0  0  0  0  0  0  0  0
    9.7530   -0.8161   -1.6174 H   0  0  0  0  0  0  0  0  0  0  0  0
    8.9774   -1.1452   -0.0374 H   0  0  0  0  0  0  0  0  0  0  0  0
    9.5396    0.5201   -0.3891 H   0  0  0  0  0  0  0  0  0  0  0  0
    7.7816   -0.2433    1.3475 H   0  0  0  0  0  0  0  0  0  0  0  0
    5.8546    0.0063    2.7578 H   0  0  0  0  0  0  0  0  0  0  0  0
    5.3673    0.2310   -2.1387 H   0  0  0  0  0  0  0  0  0  0  0  0
    2.8635    0.6257   -2.5922 H   0  0  0  0  0  0  0  0  0  0  0  0
    3.0738    0.4307    2.7070 H   0  0  0  0  0  0  0  0  0  0  0  0
   -1.4534   -0.7724    0.1108 H   0  0  0  0  0  0  0  0  0  0  0  0
   -3.4459    1.5469    0.0999 H   0  0  0  0  0  0  0  0  0  0  0  0
   -3.0457   -0.7572    1.7613 H   0  0  0  0  0  0  0  0  0  0  0  0
   -4.0941    0.5328    3.3586 H   0  0  0  0  0  0  0  0  0  0  0  0
   -5.1322    1.3421    2.0916 H   0  0  0  0  0  0  0  0  0  0  0  0
   -3.3622    1.7202    2.1655 H   0  0  0  0  0  0  0  0  0  0  0  0
   -5.7456   -0.8617    2.0587 H   0  0  0  0  0  0  0  0  0  0  0  0
   -4.7823   -2.1166    1.2867 H   0  0  0  0  0  0  0  0  0  0  0  0
   -6.0108   -0.3587   -2.0341 H   0  0  0  0  0  0  0  0  0  0  0  0
   -3.9429    0.8666   -1.9940 H   0  0  0  0  0  0  0  0  0  0  0  0
   -2.1033   -1.0001   -1.8663 H   0  0  0  0  0  0  0  0  0  0  0  0
   -3.3955   -1.0937   -3.0557 H   0  0  0  0  0  0  0  0  0  0  0  0
   -3.4742   -2.1021   -1.6035 H   0  0  0  0  0  0  0  0  0  0  0  0
   -7.8537   -0.5014    0.4639 H   0  0  0  0  0  0  0  0  0  0  0  0
   -7.4135   -2.2622    0.5861 H   0  0  0  0  0  0  0  0  0  0  0  0
   -7.6650   -1.4366   -1.0174 H   0  0  0  0  0  0  0  0  0  0  0  0
  1  2  1  0
  2  3  1  0
  3  4  2  0
  4  5  1  0
  5  6  2  0
  6  7  1  0
  7  8  2  0
  7  9  1  0
  9 10  1  0
 10 11  1  0
 11 12  2  0
 11 13  1  0
 13 14  1  0
 14 15  2  0
 14 16  1  0
 16 17  1  0
 13 18  1  0
 18 19  2  0
 19 20  1  0
 20 21  1  0
 21 22  1  0
 21 23  1  0
 23 24  1  0
 24 25  2  0
 25 26  1  0
 26 27  1  0
 24 28  1  0
  8  3  1  0
 16  9  2  0
 26 20  1  0
 17  6  1  0
  1 29  1  0
  1 30  1  0
  1 31  1  0
  4 32  1  0
  5 33  1  0
  8 34  1  0
 10 35  1  0
 17 36  1  0
 19 37  1  0
 20 38  1  1
 21 39  1  0
 22 40  1  0
 22 41  1  0
 22 42  1  0
 23 43  1  0
 23 44  1  0
 25 45  1  0
 26 46  1  0
 27 47  1  0
 27 48  1  0
 27 49  1  0
 28 50  1  0
 28 51  1  0
 28 52  1  0
M  END
>  <Ligand ID>  (1) 
LIG0003999

>  <Ligand>  (1) 
MLS000592063

>  <SMILES>  (1) 
COc1ccc2c(c1)c1[nH]c(=O)n(c(=O)c1[nH]2)/N=C/[C@@H]1C(C)CC(=CC1C)C

>  <CID>  (1) 
16410920.0

>  <ChEMBL ID>  (1) 
nan

>  <InChiKey>  (1) 
VJKINILCVSZAGY-HWQYGAMVSA-N

>  <InChi>  (1) 
InChI=1S/C21H24N4O3/c1-11-7-12(2)16(13(3)8-11)10-22-25-20(26)19-18(24-21(25)27)15-9-14(28-4)5-6-17(15)23-19/h5-7,9-10,12-13,16,23H,8H2,1-4H3,(H,24,27)/b22-10+/t12?,13?,16-/m0/s1

>  <IUPAC Name>  (1) 
8-methoxy-3-[(E)-[(1R)-2,4,6-trimethylcyclohex-3-en-1-yl]methylideneamino]-1,5-dihydropyrimido[5,4-b]indole-2,4-dione

$$$$
