
     RDKit          3D

 53 57  0  0  0  0  0  0  0  0999 V2000
   -5.4490    4.6242   -2.2980 Cl  0  0  0  0  0  0  0  0  0  0  0  0
   -4.4690    3.2656   -1.7823 C   0  0  0  0  0  0  0  0  0  0  0  0
   -4.8162    2.5915   -0.6499 C   0  0  0  0  0  0  0  0  0  0  0  0
   -4.0489    1.5153   -0.2319 C   0  0  0  0  0  0  0  0  0  0  0  0
   -2.9302    1.0908   -0.9252 C   0  0  0  0  0  0  0  0  0  0  0  0
   -2.6075    1.7945   -2.0654 C   0  0  0  0  0  0  0  0  0  0  0  0
   -3.3585    2.8749   -2.5054 C   0  0  0  0  0  0  0  0  0  0  0  0
   -2.1090   -0.0811   -0.4531 C   0  0  0  0  0  0  0  0  0  0  0  0
   -1.0311    0.3982    0.4219 C   0  0  0  0  0  0  0  0  0  0  0  0
   -1.3234    1.1225    1.5544 C   0  0  0  0  0  0  0  0  0  0  0  0
   -0.2930    1.5496    2.3651 C   0  0  0  0  0  0  0  0  0  0  0  0
    1.0296    1.2525    2.0426 C   0  0  0  0  0  0  0  0  0  0  0  0
    1.3474    0.5261    0.9088 C   0  0  0  0  0  0  0  0  0  0  0  0
    0.2974    0.1151    0.1222 C   0  0  0  0  0  0  0  0  0  0  0  0
    2.6716    0.2481    0.6184 C   0  0  0  0  0  0  0  0  0  0  0  0
    3.0156   -0.5013   -0.5129 N   0  0  0  0  0  0  0  0  0  0  0  0
    4.3420   -0.9171   -0.8453 C   0  0  0  0  0  0  0  0  0  0  0  0
    5.2157   -1.4771    0.0453 C   0  0  0  0  0  0  0  0  0  0  0  0
    6.4926   -1.8292   -0.3643 C   0  0  0  0  0  0  0  0  0  0  0  0
    6.9078   -1.6294   -1.6539 C   0  0  0  0  0  0  0  0  0  0  0  0
    6.0451   -1.0709   -2.5570 C   0  0  0  0  0  0  0  0  0  0  0  0
    4.7654   -0.7140   -2.1599 C   0  0  0  0  0  0  0  0  0  0  0  0
    6.5960   -0.8220   -4.2107 Cl  0  0  0  0  0  0  0  0  0  0  0  0
    8.1812   -1.9992   -1.9937 F   0  0  0  0  0  0  0  0  0  0  0  0
    3.6038    0.7318    1.5088 C   0  0  0  0  0  0  0  0  0  0  0  0
    3.2493    1.4605    2.6426 C   0  0  0  0  0  0  0  0  0  0  0  0
    4.1326    1.8868    3.4358 O   0  0  0  0  0  0  0  0  0  0  0  0
    1.9557    1.7167    2.9020 N   0  0  0  0  0  0  0  0  0  0  0  0
   -2.9447   -1.1543    0.0902 C   0  0  0  0  0  0  0  0  0  0  0  0
   -3.6504   -1.9375   -0.8237 C   0  0  0  0  0  0  0  0  0  0  0  0
   -4.4606   -2.9788   -0.4316 C   0  0  0  0  0  0  0  0  0  0  0  0
   -4.6044   -3.2879    0.8994 C   0  0  0  0  0  0  0  0  0  0  0  0
   -3.9078   -2.5164    1.8160 C   0  0  0  0  0  0  0  0  0  0  0  0
   -3.0982   -1.4748    1.4112 C   0  0  0  0  0  0  0  0  0  0  0  0
   -5.6313   -4.6091    1.4136 Cl  0  0  0  0  0  0  0  0  0  0  0  0
   -5.6953    2.8862   -0.0609 H   0  0  0  0  0  0  0  0  0  0  0  0
   -4.3647    1.0152    0.6685 H   0  0  0  0  0  0  0  0  0  0  0  0
   -1.7230    1.4822   -2.6401 H   0  0  0  0  0  0  0  0  0  0  0  0
   -3.0824    3.4167   -3.4126 H   0  0  0  0  0  0  0  0  0  0  0  0
   -1.6412   -0.4626   -1.4032 H   0  0  0  0  0  0  0  0  0  0  0  0
   -2.3213    1.3985    1.8626 H   0  0  0  0  0  0  0  0  0  0  0  0
   -0.5236    2.1293    3.2726 H   0  0  0  0  0  0  0  0  0  0  0  0
    0.4648   -0.4517   -0.7706 H   0  0  0  0  0  0  0  0  0  0  0  0
    2.2902   -0.8174   -1.2215 H   0  0  0  0  0  0  0  0  0  0  0  0
    4.9569   -1.6755    1.0540 H   0  0  0  0  0  0  0  0  0  0  0  0
    7.1870   -2.2773    0.3575 H   0  0  0  0  0  0  0  0  0  0  0  0
    4.1245   -0.2775   -2.9102 H   0  0  0  0  0  0  0  0  0  0  0  0
    4.6649    0.5866    1.3713 H   0  0  0  0  0  0  0  0  0  0  0  0
    1.7130    2.2612    3.7519 H   0  0  0  0  0  0  0  0  0  0  0  0
   -3.5751   -1.7405   -1.8774 H   0  0  0  0  0  0  0  0  0  0  0  0
   -4.9937   -3.5647   -1.1808 H   0  0  0  0  0  0  0  0  0  0  0  0
   -4.0203   -2.7602    2.8766 H   0  0  0  0  0  0  0  0  0  0  0  0
   -2.5763   -0.9131    2.1667 H   0  0  0  0  0  0  0  0  0  0  0  0
  1  2  1  0
  2  3  2  0
  3  4  1  0
  4  5  2  0
  5  6  1  0
  6  7  2  0
  5  8  1  0
  8  9  1  0
  9 10  2  0
 10 11  1  0
 11 12  2  0
 12 13  1  0
 13 14  2  0
 13 15  1  0
 15 16  1  0
 16 17  1  0
 17 18  2  0
 18 19  1  0
 19 20  2  0
 20 21  1  0
 21 22  2  0
 21 23  1  0
 20 24  1  0
 15 25  2  0
 25 26  1  0
 26 27  2  0
 26 28  1  0
  8 29  1  0
 29 30  2  0
 30 31  1  0
 31 32  2  0
 32 33  1  0
 33 34  2  0
 32 35  1  0
  7  2  1  0
 14  9  1  0
 22 17  1  0
 34 29  1  0
 28 12  1  0
  3 36  1  0
  4 37  1  0
  6 38  1  0
  7 39  1  0
  8 40  1  0
 10 41  1  0
 11 42  1  0
 14 43  1  0
 16 44  1  0
 18 45  1  0
 19 46  1  0
 22 47  1  0
 25 48  1  0
 28 49  1  0
 30 50  1  0
 31 51  1  0
 33 52  1  0
 34 53  1  0
M  END
>  <Ligand ID>  (1) 
LIG0005892

>  <Ligand>  (1) 
CHEMBL3983340

>  <SMILES>  (1) 
Clc1ccc(cc1)C(c1ccc2c(c1)c(Nc1ccc(c(c1)Cl)F)cc(=O)[nH]2)c1ccc(cc1)Cl

>  <CID>  (1) 
118329979.0

>  <ChEMBL ID>  (1) 
nan

>  <InChiKey>  (1) 
ULUSBGMWBSEDFX-UHFFFAOYSA-N

>  <InChi>  (1) 
InChI=1S/C28H18Cl3FN2O/c29-19-6-1-16(2-7-19)28(17-3-8-20(30)9-4-17)18-5-12-25-22(13-18)26(15-27(35)34-25)33-21-10-11-24(32)23(31)14-21/h1-15,28H,(H2,33,34,35)

>  <IUPAC Name>  (1) 
6-[bis(4-chlorophenyl)methyl]-4-(3-chloro-4-fluoroanilino)-1H-quinolin-2-one

$$$$
