
     RDKit          3D

 91 94  0  0  0  0  0  0  0  0999 V2000
    5.1714    0.9894    4.8559 C   0  0  0  0  0  0  0  0  0  0  0  0
    4.5651    1.2243    3.5190 C   0  0  2  0  0  0  0  0  0  0  0  0
    4.4458    2.6246    3.1517 N   0  0  0  0  0  0  0  0  0  0  0  0
    4.2520    2.6777    1.7068 C   0  0  2  0  0  0  0  0  0  0  0  0
    4.4133    4.0466    1.1336 C   0  0  0  0  0  0  0  0  0  0  0  0
    2.8820    2.0737    1.3878 C   0  0  0  0  0  0  0  0  0  0  0  0
    2.9500    0.7185    1.8942 N   0  0  0  0  0  0  0  0  0  0  0  0
    3.1925    0.5876    3.3363 C   0  0  0  0  0  0  0  0  0  0  0  0
    2.8078   -0.4469    1.1044 C   0  0  0  0  0  0  0  0  0  0  0  0
    2.8779   -1.5851    1.6868 O   0  0  0  0  0  0  0  0  0  0  0  0
    2.5913   -0.4384   -0.2998 N   0  0  0  0  0  0  0  0  0  0  0  0
    2.4637   -1.6985   -0.9811 C   0  0  1  0  0  0  0  0  0  0  0  0
    1.1440   -1.8635   -1.5659 C   0  0  0  0  0  0  0  0  0  0  0  0
    0.9581   -3.0098   -2.1524 O   0  0  0  0  0  0  0  0  0  0  0  0
    0.0483   -0.9968   -1.5988 N   0  0  0  0  0  0  0  0  0  0  0  0
   -0.0348    0.3352   -1.0491 C   0  0  0  0  0  0  0  0  0  0  0  0
   -1.4849    0.8358   -1.1452 C   0  0  0  0  0  0  0  0  0  0  0  0
   -2.4823   -0.1164   -0.5519 C   0  0  0  0  0  0  0  0  0  0  0  0
   -2.2098   -1.5070   -1.1443 C   0  0  0  0  0  0  0  0  0  0  0  0
   -1.1967   -1.4624   -2.2541 C   0  0  0  0  0  0  0  0  0  0  0  0
   -2.4348   -0.1707    0.9306 C   0  0  0  0  0  0  0  0  0  0  0  0
   -2.7454    1.1064    1.6569 C   0  0  0  0  0  0  0  0  0  0  0  0
   -2.7420    0.7326    3.1512 C   0  0  0  0  0  0  0  0  0  0  0  0
   -1.9431   -0.5210    3.4157 C   0  0  0  0  0  0  0  0  0  0  0  0
   -2.5574   -1.7505    2.7641 C   0  0  0  0  0  0  0  0  0  0  0  0
   -3.3113   -1.2356    1.5319 C   0  0  0  0  0  0  0  0  0  0  0  0
   -3.8183    0.3336   -1.0944 C   0  0  0  0  0  0  0  0  0  0  0  0
   -4.6081   -0.5116   -1.6314 O   0  0  0  0  0  0  0  0  0  0  0  0
   -4.2350    1.6921   -1.0289 N   0  0  0  0  0  0  0  0  0  0  0  0
   -5.5405    2.0065   -1.5777 C   0  0  0  0  0  0  0  0  0  0  0  0
   -6.6438    1.2624   -0.8913 C   0  0  0  0  0  0  0  0  0  0  0  0
   -5.7834    3.4932   -1.3799 C   0  0  0  0  0  0  0  0  0  0  0  0
   -5.6139    1.7239   -3.0585 C   0  0  0  0  0  0  0  0  0  0  0  0
    3.6066   -1.7486   -1.9818 C   0  0  0  0  0  0  0  0  0  0  0  0
    3.6388   -2.9780   -2.7860 C   0  0  0  0  0  0  0  0  0  0  0  0
    4.3232   -4.1183   -2.3909 C   0  0  0  0  0  0  0  0  0  0  0  0
    4.3293   -5.2455   -3.1803 C   0  0  0  0  0  0  0  0  0  0  0  0
    3.6655   -5.2908   -4.3803 C   0  0  0  0  0  0  0  0  0  0  0  0
    2.9697   -4.1542   -4.7975 C   0  0  0  0  0  0  0  0  0  0  0  0
    2.9643   -3.0322   -4.0116 C   0  0  0  0  0  0  0  0  0  0  0  0
    3.6296   -6.3527   -5.1973 F   0  0  0  0  0  0  0  0  0  0  0  0
    4.9179   -0.0162    5.2163 H   0  0  0  0  0  0  0  0  0  0  0  0
    4.7337    1.7257    5.5758 H   0  0  0  0  0  0  0  0  0  0  0  0
    6.2805    1.0492    4.8056 H   0  0  0  0  0  0  0  0  0  0  0  0
    5.2093    0.7771    2.7040 H   0  0  0  0  0  0  0  0  0  0  0  0
    5.3790    3.0770    3.3434 H   0  0  0  0  0  0  0  0  0  0  0  0
    4.9813    1.9435    1.2902 H   0  0  0  0  0  0  0  0  0  0  0  0
    4.6962    3.9273    0.0587 H   0  0  0  0  0  0  0  0  0  0  0  0
    3.4484    4.5892    1.1360 H   0  0  0  0  0  0  0  0  0  0  0  0
    5.1978    4.6211    1.6512 H   0  0  0  0  0  0  0  0  0  0  0  0
    2.6648    2.1715    0.3299 H   0  0  0  0  0  0  0  0  0  0  0  0
    2.1040    2.6470    1.9434 H   0  0  0  0  0  0  0  0  0  0  0  0
    3.1740   -0.4687    3.6529 H   0  0  0  0  0  0  0  0  0  0  0  0
    2.4635    1.2071    3.8858 H   0  0  0  0  0  0  0  0  0  0  0  0
    2.5589    0.4856   -0.7645 H   0  0  0  0  0  0  0  0  0  0  0  0
    2.6867   -2.5517   -0.2601 H   0  0  0  0  0  0  0  0  0  0  0  0
    0.5349    1.0414   -1.6960 H   0  0  0  0  0  0  0  0  0  0  0  0
    0.3120    0.4368   -0.0158 H   0  0  0  0  0  0  0  0  0  0  0  0
   -1.4959    1.8206   -0.6150 H   0  0  0  0  0  0  0  0  0  0  0  0
   -1.6643    1.0398   -2.2183 H   0  0  0  0  0  0  0  0  0  0  0  0
   -1.7622   -2.1228   -0.3273 H   0  0  0  0  0  0  0  0  0  0  0  0
   -3.1542   -1.9599   -1.5191 H   0  0  0  0  0  0  0  0  0  0  0  0
   -1.0754   -2.5076   -2.6045 H   0  0  0  0  0  0  0  0  0  0  0  0
   -1.4220   -0.7647   -3.0588 H   0  0  0  0  0  0  0  0  0  0  0  0
   -1.3531   -0.3947    1.1948 H   0  0  0  0  0  0  0  0  0  0  0  0
   -3.8087    1.4132    1.4659 H   0  0  0  0  0  0  0  0  0  0  0  0
   -2.0129    1.9071    1.5244 H   0  0  0  0  0  0  0  0  0  0  0  0
   -3.7777    0.6139    3.5436 H   0  0  0  0  0  0  0  0  0  0  0  0
   -2.2833    1.5366    3.7541 H   0  0  0  0  0  0  0  0  0  0  0  0
   -0.8842   -0.3697    3.1552 H   0  0  0  0  0  0  0  0  0  0  0  0
   -2.0303   -0.7002    4.5136 H   0  0  0  0  0  0  0  0  0  0  0  0
   -3.1929   -2.3370    3.4308 H   0  0  0  0  0  0  0  0  0  0  0  0
   -1.6694   -2.3244    2.3607 H   0  0  0  0  0  0  0  0  0  0  0  0
   -4.2693   -0.7941    1.9195 H   0  0  0  0  0  0  0  0  0  0  0  0
   -3.5938   -2.0506    0.8527 H   0  0  0  0  0  0  0  0  0  0  0  0
   -3.6278    2.4343   -0.6158 H   0  0  0  0  0  0  0  0  0  0  0  0
   -7.3227    0.8054   -1.6436 H   0  0  0  0  0  0  0  0  0  0  0  0
   -7.3048    1.9571   -0.2973 H   0  0  0  0  0  0  0  0  0  0  0  0
   -6.2805    0.4224   -0.2658 H   0  0  0  0  0  0  0  0  0  0  0  0
   -4.8200    4.0304   -1.3742 H   0  0  0  0  0  0  0  0  0  0  0  0
   -6.4939    3.8927   -2.1355 H   0  0  0  0  0  0  0  0  0  0  0  0
   -6.2527    3.6080   -0.3649 H   0  0  0  0  0  0  0  0  0  0  0  0
   -6.5245    2.2650   -3.4330 H   0  0  0  0  0  0  0  0  0  0  0  0
   -4.7610    2.1595   -3.6049 H   0  0  0  0  0  0  0  0  0  0  0  0
   -5.8055    0.6532   -3.2886 H   0  0  0  0  0  0  0  0  0  0  0  0
    3.6579   -0.8169   -2.5965 H   0  0  0  0  0  0  0  0  0  0  0  0
    4.5340   -1.7498   -1.3527 H   0  0  0  0  0  0  0  0  0  0  0  0
    4.8577   -4.1347   -1.4598 H   0  0  0  0  0  0  0  0  0  0  0  0
    4.8731   -6.1468   -2.8625 H   0  0  0  0  0  0  0  0  0  0  0  0
    2.4389   -4.1414   -5.7241 H   0  0  0  0  0  0  0  0  0  0  0  0
    2.4338   -2.1368   -4.3064 H   0  0  0  0  0  0  0  0  0  0  0  0
  1  2  1  0
  2  3  1  0
  3  4  1  0
  4  5  1  0
  4  6  1  0
  6  7  1  0
  7  8  1  0
  7  9  1  0
  9 10  2  0
  9 11  1  0
 11 12  1  0
 12 13  1  0
 13 14  2  0
 13 15  1  0
 15 16  1  0
 16 17  1  0
 17 18  1  0
 18 19  1  0
 19 20  1  0
 18 21  1  0
 21 22  1  0
 22 23  1  0
 23 24  1  0
 24 25  1  0
 25 26  1  0
 18 27  1  0
 27 28  2  0
 27 29  1  0
 29 30  1  0
 30 31  1  0
 30 32  1  0
 30 33  1  0
 12 34  1  0
 34 35  1  0
 35 36  2  0
 36 37  1  0
 37 38  2  0
 38 39  1  0
 39 40  2  0
 38 41  1  0
  8  2  1  0
 20 15  1  0
 26 21  1  0
 40 35  1  0
  1 42  1  0
  1 43  1  0
  1 44  1  0
  2 45  1  6
  3 46  1  0
  4 47  1  6
  5 48  1  0
  5 49  1  0
  5 50  1  0
  6 51  1  0
  6 52  1  0
  8 53  1  0
  8 54  1  0
 11 55  1  0
 12 56  1  1
 16 57  1  0
 16 58  1  0
 17 59  1  0
 17 60  1  0
 19 61  1  0
 19 62  1  0
 20 63  1  0
 20 64  1  0
 21 65  1  0
 22 66  1  0
 22 67  1  0
 23 68  1  0
 23 69  1  0
 24 70  1  0
 24 71  1  0
 25 72  1  0
 25 73  1  0
 26 74  1  0
 26 75  1  0
 29 76  1  0
 31 77  1  0
 31 78  1  0
 31 79  1  0
 32 80  1  0
 32 81  1  0
 32 82  1  0
 33 83  1  0
 33 84  1  0
 33 85  1  0
 34 86  1  0
 34 87  1  0
 36 88  1  0
 37 89  1  0
 39 90  1  0
 40 91  1  0
M  END
>  <Ligand ID>  (1) 
LIG0005256

>  <Ligand>  (1) 
CHEMBL1761870

>  <SMILES>  (1) 
C[C@@H]1N[C@H](C)CN(C1)C(=O)N[C@@H](C(=O)N1CCC(CC1)(C1CCCCC1)C(=O)NC(C)(C)C)Cc1ccc(cc1)F

>  <CID>  (1) 
52918026.0

>  <ChEMBL ID>  (1) 
nan

>  <InChiKey>  (1) 
IVOZSKOYXPHCOQ-QSEAXJEQSA-N

>  <InChi>  (1) 
InChI=1S/C32H50FN5O3/c1-22-20-38(21-23(2)34-22)30(41)35-27(19-24-11-13-26(33)14-12-24)28(39)37-17-15-32(16-18-37,25-9-7-6-8-10-25)29(40)36-31(3,4)5/h11-14,22-23,25,27,34H,6-10,15-21H2,1-5H3,(H,35,41)(H,36,40)/t22-,23+,27-/m1/s1

>  <IUPAC Name>  (1) 
(3R,5S)-N-[(2R)-1-[4-(tert-butylcarbamoyl)-4-cyclohexylpiperidin-1-yl]-3-(4-fluorophenyl)-1-oxopropan-2-yl]-3,5-dimethylpiperazine-1-carboxamide

$$$$
