
     RDKit          3D

 49 52  0  0  0  0  0  0  0  0999 V2000
    7.5357   -0.3793   -0.5631 C   0  0  0  0  0  0  0  0  0  0  0  0
    7.5025   -1.4558    0.5148 C   0  0  0  0  0  0  0  0  0  0  0  0
    6.4619   -1.0747    1.5584 C   0  0  0  0  0  0  0  0  0  0  0  0
    5.1801   -0.9761    0.9787 O   0  0  0  0  0  0  0  0  0  0  0  0
    4.0185   -0.6096    1.6025 C   0  0  0  0  0  0  0  0  0  0  0  0
    4.0587   -0.3184    2.8259 O   0  0  0  0  0  0  0  0  0  0  0  0
    2.7995   -0.5757    0.8056 C   0  0  0  0  0  0  0  0  0  0  0  0
    2.7837   -0.9802   -0.5243 C   0  0  0  0  0  0  0  0  0  0  0  0
    1.6516   -0.9310   -1.3071 C   0  0  0  0  0  0  0  0  0  0  0  0
    0.4723   -0.4610   -0.7628 C   0  0  0  0  0  0  0  0  0  0  0  0
    0.4379   -0.0443    0.5622 C   0  0  0  0  0  0  0  0  0  0  0  0
    1.6071   -0.1132    1.3170 C   0  0  0  0  0  0  0  0  0  0  0  0
   -0.7349    0.4706    1.1446 N   0  0  0  0  0  0  0  0  0  0  0  0
   -1.9757    0.6295    0.4799 C   0  0  0  0  0  0  0  0  0  0  0  0
   -3.0670   -0.1373    0.7454 N   0  0  0  0  0  0  0  0  0  0  0  0
   -4.2272    0.0730    0.0683 C   0  0  0  0  0  0  0  0  0  0  0  0
   -4.3133    1.0332   -0.8675 N   0  0  0  0  0  0  0  0  0  0  0  0
   -3.2824    1.8267   -1.1841 C   0  0  0  0  0  0  0  0  0  0  0  0
   -2.0860    1.6245   -0.4985 C   0  0  0  0  0  0  0  0  0  0  0  0
   -1.0202    2.4392   -0.8243 C   0  0  0  0  0  0  0  0  0  0  0  0
   -1.1736    3.4171   -1.8093 C   0  0  0  0  0  0  0  0  0  0  0  0
   -2.3664    3.5899   -2.4667 C   0  0  0  0  0  0  0  0  0  0  0  0
   -3.4329    2.7884   -2.1528 C   0  0  0  0  0  0  0  0  0  0  0  0
   -5.4075   -0.7492    0.3613 C   0  0  0  0  0  0  0  0  0  0  0  0
   -6.6009   -0.5176   -0.2889 C   0  0  0  0  0  0  0  0  0  0  0  0
   -7.6687   -1.3343    0.0627 C   0  0  0  0  0  0  0  0  0  0  0  0
   -7.5417   -2.3293    1.0155 C   0  0  0  0  0  0  0  0  0  0  0  0
   -6.3568   -2.5419    1.6447 N   0  0  0  0  0  0  0  0  0  0  0  0
   -5.3179   -1.7452    1.3016 C   0  0  0  0  0  0  0  0  0  0  0  0
    8.4944   -0.3761   -1.1095 H   0  0  0  0  0  0  0  0  0  0  0  0
    7.3759    0.6002   -0.0258 H   0  0  0  0  0  0  0  0  0  0  0  0
    6.6759   -0.5630   -1.2260 H   0  0  0  0  0  0  0  0  0  0  0  0
    7.2227   -2.4089    0.0244 H   0  0  0  0  0  0  0  0  0  0  0  0
    8.4955   -1.6121    0.9854 H   0  0  0  0  0  0  0  0  0  0  0  0
    6.4269   -1.9170    2.2972 H   0  0  0  0  0  0  0  0  0  0  0  0
    6.7941   -0.1592    2.0776 H   0  0  0  0  0  0  0  0  0  0  0  0
    3.7295   -1.3433   -0.9119 H   0  0  0  0  0  0  0  0  0  0  0  0
    1.6768   -1.2537   -2.3331 H   0  0  0  0  0  0  0  0  0  0  0  0
   -0.4110   -0.4186   -1.3525 H   0  0  0  0  0  0  0  0  0  0  0  0
    1.6165    0.2018    2.3509 H   0  0  0  0  0  0  0  0  0  0  0  0
   -0.7144    0.7679    2.1519 H   0  0  0  0  0  0  0  0  0  0  0  0
   -0.0750    2.3493   -0.3474 H   0  0  0  0  0  0  0  0  0  0  0  0
   -0.3175    4.0442   -2.0444 H   0  0  0  0  0  0  0  0  0  0  0  0
   -2.5071    4.3464   -3.2397 H   0  0  0  0  0  0  0  0  0  0  0  0
   -4.3894    2.8851   -2.6420 H   0  0  0  0  0  0  0  0  0  0  0  0
   -6.6881    0.2661   -1.0392 H   0  0  0  0  0  0  0  0  0  0  0  0
   -8.6262   -1.1776   -0.4297 H   0  0  0  0  0  0  0  0  0  0  0  0
   -8.3755   -2.9597    1.2835 H   0  0  0  0  0  0  0  0  0  0  0  0
   -4.3407   -1.8897    1.7907 H   0  0  0  0  0  0  0  0  0  0  0  0
  1  2  1  0
  2  3  1  0
  3  4  1  0
  4  5  1  0
  5  6  2  0
  5  7  1  0
  7  8  2  0
  8  9  1  0
  9 10  2  0
 10 11  1  0
 11 12  2  0
 11 13  1  0
 13 14  1  0
 14 15  2  0
 15 16  1  0
 16 17  2  0
 17 18  1  0
 18 19  2  0
 19 20  1  0
 20 21  2  0
 21 22  1  0
 22 23  2  0
 16 24  1  0
 24 25  2  0
 25 26  1  0
 26 27  2  0
 27 28  1  0
 28 29  2  0
 12  7  1  0
 19 14  1  0
 29 24  1  0
 23 18  1  0
  1 30  1  0
  1 31  1  0
  1 32  1  0
  2 33  1  0
  2 34  1  0
  3 35  1  0
  3 36  1  0
  8 37  1  0
  9 38  1  0
 10 39  1  0
 12 40  1  0
 13 41  1  0
 20 42  1  0
 21 43  1  0
 22 44  1  0
 23 45  1  0
 25 46  1  0
 26 47  1  0
 27 48  1  0
 29 49  1  0
M  END
>  <Ligand ID>  (1) 
LIG0004353

>  <Ligand>  (1) 
SMR000203907

>  <SMILES>  (1) 
CCCOC(=O)c1cccc(c1)Nc1nc(nc2c1cccc2)c1cccnc1

>  <CID>  (1) 
1563678.0

>  <ChEMBL ID>  (1) 
nan

>  <InChiKey>  (1) 
GROCSHUQOZDEOU-UHFFFAOYSA-N

>  <InChi>  (1) 
InChI=1S/C23H20N4O2/c1-2-13-29-23(28)16-7-5-9-18(14-16)25-22-19-10-3-4-11-20(19)26-21(27-22)17-8-6-12-24-15-17/h3-12,14-15H,2,13H2,1H3,(H,25,26,27)

>  <IUPAC Name>  (1) 
propyl 3-[(2-pyridin-3-ylquinazolin-4-yl)amino]benzoate

$$$$
