
     RDKit          3D

 44 46  0  0  0  0  0  0  0  0999 V2000
    5.1600   -2.1930    0.7097 C   0  0  0  0  0  0  0  0  0  0  0  0
    4.4932   -1.2689    0.0065 C   0  0  0  0  0  0  0  0  0  0  0  0
    3.0983   -1.4409   -0.4080 C   0  0  0  0  0  0  0  0  0  0  0  0
    2.1905   -0.4326    0.1027 N   0  0  0  0  0  0  0  0  0  0  0  0
    2.4514    0.8764   -0.4923 C   0  0  0  0  0  0  0  0  0  0  0  0
    1.9088    1.9963    0.3539 C   0  0  0  0  0  0  0  0  0  0  0  0
    0.4213    2.1077    0.2688 C   0  0  0  0  0  0  0  0  0  0  0  0
   -0.5069    1.0910    0.3703 C   0  0  0  0  0  0  0  0  0  0  0  0
   -0.2145   -0.3414    0.5742 C   0  0  0  0  0  0  0  0  0  0  0  0
    0.8609   -0.8061   -0.3674 C   0  0  0  0  0  0  0  0  0  0  0  0
   -1.4113   -1.1936    0.3622 C   0  0  0  0  0  0  0  0  0  0  0  0
   -1.8971   -1.4271   -0.9072 C   0  0  0  0  0  0  0  0  0  0  0  0
   -3.0015   -2.2125   -1.1648 C   0  0  0  0  0  0  0  0  0  0  0  0
   -3.6678   -2.8037   -0.1131 C   0  0  0  0  0  0  0  0  0  0  0  0
   -3.2084   -2.5913    1.1714 C   0  0  0  0  0  0  0  0  0  0  0  0
   -2.0976   -1.7983    1.4072 C   0  0  0  0  0  0  0  0  0  0  0  0
   -4.7837   -3.6013   -0.3364 O   0  0  0  0  0  0  0  0  0  0  0  0
   -1.8663    1.3841    0.2675 C   0  0  0  0  0  0  0  0  0  0  0  0
   -2.2336    2.6958    0.0652 C   0  0  0  0  0  0  0  0  0  0  0  0
   -1.3224    3.7251   -0.0394 C   0  0  0  0  0  0  0  0  0  0  0  0
    0.0215    3.4116    0.0663 C   0  0  0  0  0  0  0  0  0  0  0  0
    0.9509    4.4203   -0.0346 F   0  0  0  0  0  0  0  0  0  0  0  0
   -1.6846    5.0484   -0.2439 O   0  0  0  0  0  0  0  0  0  0  0  0
   -3.5820    3.0479   -0.0458 O   0  0  0  0  0  0  0  0  0  0  0  0
    4.6814   -3.1243    1.0059 H   0  0  0  0  0  0  0  0  0  0  0  0
    6.1754   -2.0551    1.0058 H   0  0  0  0  0  0  0  0  0  0  0  0
    5.0227   -0.3617   -0.2591 H   0  0  0  0  0  0  0  0  0  0  0  0
    2.9669   -1.4731   -1.5175 H   0  0  0  0  0  0  0  0  0  0  0  0
    2.7388   -2.4047    0.0433 H   0  0  0  0  0  0  0  0  0  0  0  0
    3.5584    1.0214   -0.5358 H   0  0  0  0  0  0  0  0  0  0  0  0
    2.0659    0.9105   -1.5165 H   0  0  0  0  0  0  0  0  0  0  0  0
    2.2565    1.8633    1.3918 H   0  0  0  0  0  0  0  0  0  0  0  0
    2.3491    2.9293   -0.0271 H   0  0  0  0  0  0  0  0  0  0  0  0
    0.2076   -0.5165    1.6121 H   0  0  0  0  0  0  0  0  0  0  0  0
    0.6831   -0.4855   -1.4018 H   0  0  0  0  0  0  0  0  0  0  0  0
    0.8223   -1.9150   -0.3568 H   0  0  0  0  0  0  0  0  0  0  0  0
   -1.3832   -0.9654   -1.7538 H   0  0  0  0  0  0  0  0  0  0  0  0
   -3.3524   -2.3699   -2.1788 H   0  0  0  0  0  0  0  0  0  0  0  0
   -3.6851   -3.0254    2.0504 H   0  0  0  0  0  0  0  0  0  0  0  0
   -1.7171   -1.6179    2.4092 H   0  0  0  0  0  0  0  0  0  0  0  0
   -5.1288   -4.2345    0.3738 H   0  0  0  0  0  0  0  0  0  0  0  0
   -2.5877    0.6014    0.3456 H   0  0  0  0  0  0  0  0  0  0  0  0
   -1.8638    5.6384    0.5603 H   0  0  0  0  0  0  0  0  0  0  0  0
   -3.8891    3.8912   -0.5227 H   0  0  0  0  0  0  0  0  0  0  0  0
  1  2  2  0
  2  3  1  0
  3  4  1  0
  4  5  1  0
  5  6  1  0
  6  7  1  0
  7  8  2  0
  8  9  1  0
  9 10  1  0
  9 11  1  0
 11 12  2  0
 12 13  1  0
 13 14  2  0
 14 15  1  0
 15 16  2  0
 14 17  1  0
  8 18  1  0
 18 19  2  0
 19 20  1  0
 20 21  2  0
 21 22  1  0
 20 23  1  0
 19 24  1  0
 10  4  1  0
 16 11  1  0
 21  7  1  0
  1 25  1  0
  1 26  1  0
  2 27  1  0
  3 28  1  0
  3 29  1  0
  5 30  1  0
  5 31  1  0
  6 32  1  0
  6 33  1  0
  9 34  1  0
 10 35  1  0
 10 36  1  0
 12 37  1  0
 13 38  1  0
 15 39  1  0
 16 40  1  0
 17 41  1  0
 18 42  1  0
 23 43  1  0
 24 44  1  0
M  END
>  <Ligand ID>  (1) 
LIG0005632

>  <Ligand>  (1) 
CHEMBL129634

>  <SMILES>  (1) 
C=CCN1CCc2c(C(C1)c1ccc(cc1)O)cc(c(c2F)O)O

>  <CID>  (1) 
13720688.0

>  <ChEMBL ID>  (1) 
nan

>  <InChiKey>  (1) 
MJBAWGDDLVDCAJ-UHFFFAOYSA-N

>  <InChi>  (1) 
InChI=1S/C19H20FNO3/c1-2-8-21-9-7-14-15(10-17(23)19(24)18(14)20)16(11-21)12-3-5-13(22)6-4-12/h2-6,10,16,22-24H,1,7-9,11H2

>  <IUPAC Name>  (1) 
9-fluoro-5-(4-hydroxyphenyl)-3-prop-2-enyl-1,2,4,5-tetrahydro-3-benzazepine-7,8-diol

$$$$
