
     RDKit          3D

 47 48  0  0  0  0  0  0  0  0999 V2000
   -5.2273    2.3501   -2.6762 F   0  0  0  0  0  0  0  0  0  0  0  0
   -5.5179    1.7238   -1.5076 C   0  0  0  0  0  0  0  0  0  0  0  0
   -6.1778    2.4224   -0.5160 C   0  0  0  0  0  0  0  0  0  0  0  0
   -6.4553    1.7421    0.6642 C   0  0  0  0  0  0  0  0  0  0  0  0
   -6.0756    0.4304    0.8068 C   0  0  0  0  0  0  0  0  0  0  0  0
   -5.4116   -0.2726   -0.1906 C   0  0  0  0  0  0  0  0  0  0  0  0
   -5.1455    0.4118   -1.3480 C   0  0  0  0  0  0  0  0  0  0  0  0
   -5.0676   -1.6692    0.0761 C   0  0  0  0  0  0  0  0  0  0  0  0
   -3.8586   -1.8711    0.7227 O   0  0  0  0  0  0  0  0  0  0  0  0
   -2.6172   -1.5073    0.2812 C   0  0  0  0  0  0  0  0  0  0  0  0
   -1.5304   -1.8123    1.1030 C   0  0  0  0  0  0  0  0  0  0  0  0
   -0.2322   -1.4805    0.7352 C   0  0  0  0  0  0  0  0  0  0  0  0
   -0.0159   -0.8378   -0.4650 C   0  0  0  0  0  0  0  0  0  0  0  0
   -1.0978   -0.5431   -1.2660 C   0  0  0  0  0  0  0  0  0  0  0  0
   -2.3330   -0.8839   -0.8673 N   0  0  0  0  0  0  0  0  0  0  0  0
    1.3094   -0.4485   -0.9377 C   0  0  0  0  0  0  0  0  0  0  0  0
    1.4732    0.1443   -2.0569 O   0  0  0  0  0  0  0  0  0  0  0  0
    2.4984   -0.6960   -0.1992 N   0  0  0  0  0  0  0  0  0  0  0  0
    3.8119   -0.3114   -0.6651 C   0  0  1  0  0  0  0  0  0  0  0  0
    4.3889    0.6976    0.2955 C   0  0  0  0  0  0  0  0  0  0  0  0
    4.4959    0.0819    1.6876 C   0  0  0  0  0  0  0  0  0  0  0  0
    5.7436    1.1819   -0.0985 C   0  0  0  0  0  0  0  0  0  0  0  0
    3.4602    1.8879    0.4029 C   0  0  0  0  0  0  0  0  0  0  0  0
    4.6472   -1.5423   -0.7971 C   0  0  0  0  0  0  0  0  0  0  0  0
   -6.4818    3.4592   -0.6194 H   0  0  0  0  0  0  0  0  0  0  0  0
   -6.9696    2.2713    1.4489 H   0  0  0  0  0  0  0  0  0  0  0  0
   -6.3243   -0.0456    1.7595 H   0  0  0  0  0  0  0  0  0  0  0  0
   -4.6438   -0.0793   -2.1500 H   0  0  0  0  0  0  0  0  0  0  0  0
   -5.8602   -2.1049    0.7371 H   0  0  0  0  0  0  0  0  0  0  0  0
   -5.0951   -2.2578   -0.8754 H   0  0  0  0  0  0  0  0  0  0  0  0
   -1.7048   -2.3194    2.0493 H   0  0  0  0  0  0  0  0  0  0  0  0
    0.6006   -1.7186    1.3734 H   0  0  0  0  0  0  0  0  0  0  0  0
   -0.9932   -0.0421   -2.2152 H   0  0  0  0  0  0  0  0  0  0  0  0
    2.4524   -1.1762    0.7261 H   0  0  0  0  0  0  0  0  0  0  0  0
    3.7809    0.1909   -1.6534 H   0  0  0  0  0  0  0  0  0  0  0  0
    5.0192    0.7486    2.3830 H   0  0  0  0  0  0  0  0  0  0  0  0
    5.0650   -0.8826    1.6519 H   0  0  0  0  0  0  0  0  0  0  0  0
    3.5013   -0.1315    2.1310 H   0  0  0  0  0  0  0  0  0  0  0  0
    5.8321    1.4204   -1.1770 H   0  0  0  0  0  0  0  0  0  0  0  0
    6.5159    0.4678    0.2594 H   0  0  0  0  0  0  0  0  0  0  0  0
    5.9360    2.1402    0.4473 H   0  0  0  0  0  0  0  0  0  0  0  0
    4.0176    2.8379    0.5324 H   0  0  0  0  0  0  0  0  0  0  0  0
    2.7783    1.8037    1.2739 H   0  0  0  0  0  0  0  0  0  0  0  0
    2.8589    1.9503   -0.5145 H   0  0  0  0  0  0  0  0  0  0  0  0
    4.3897   -2.3358   -0.0518 H   0  0  0  0  0  0  0  0  0  0  0  0
    5.7347   -1.3605   -0.6907 H   0  0  0  0  0  0  0  0  0  0  0  0
    4.5254   -2.0342   -1.7933 H   0  0  0  0  0  0  0  0  0  0  0  0
  1  2  1  0
  2  3  2  0
  3  4  1  0
  4  5  2  0
  5  6  1  0
  6  7  2  0
  6  8  1  0
  8  9  1  0
  9 10  1  0
 10 11  2  0
 11 12  1  0
 12 13  2  0
 13 14  1  0
 14 15  2  0
 13 16  1  0
 16 17  2  0
 16 18  1  0
 18 19  1  0
 19 20  1  0
 20 21  1  0
 20 22  1  0
 20 23  1  0
 19 24  1  0
  7  2  1  0
 15 10  1  0
  3 25  1  0
  4 26  1  0
  5 27  1  0
  7 28  1  0
  8 29  1  0
  8 30  1  0
 11 31  1  0
 12 32  1  0
 14 33  1  0
 18 34  1  0
 19 35  1  6
 21 36  1  0
 21 37  1  0
 21 38  1  0
 22 39  1  0
 22 40  1  0
 22 41  1  0
 23 42  1  0
 23 43  1  0
 23 44  1  0
 24 45  1  0
 24 46  1  0
 24 47  1  0
M  END
>  <Ligand ID>  (1) 
LIG0000427

>  <Ligand>  (1) 
1276013-77-4

>  <SMILES>  (1) 
Fc1cccc(c1)COc1ccc(cn1)C(=O)N[C@@H](C(C)(C)C)C

>  <CID>  (1) 
58368068.0

>  <ChEMBL ID>  (1) 
nan

>  <InChiKey>  (1) 
VOYBJCDMLJODRK-CYBMUJFWSA-N

>  <InChi>  (1) 
InChI=1S/C19H23FN2O2/c1-13(19(2,3)4)22-18(23)15-8-9-17(21-11-15)24-12-14-6-5-7-16(20)10-14/h5-11,13H,12H2,1-4H3,(H,22,23)/t13-/m1/s1

>  <IUPAC Name>  (1) 
N-[(2R)-3,3-dimethylbutan-2-yl]-6-[(3-fluorophenyl)methoxy]pyridine-3-carboxamide

$$$$
