
     RDKit          3D

 49 50  0  0  0  0  0  0  0  0999 V2000
   -6.8509    3.1614   -0.0193 C   0  0  0  0  0  0  0  0  0  0  0  0
   -6.4602    2.5477   -1.2071 O   0  0  0  0  0  0  0  0  0  0  0  0
   -5.1366    2.7459   -1.3613 N   0  0  0  0  0  0  0  0  0  0  0  0
   -4.2611    1.7619   -0.8364 C   0  0  0  0  0  0  0  0  0  0  0  0
   -4.7922    0.6595   -0.1995 C   0  0  0  0  0  0  0  0  0  0  0  0
   -3.9667   -0.3108    0.3193 C   0  0  0  0  0  0  0  0  0  0  0  0
   -2.6225   -0.2155    0.2224 N   0  0  0  0  0  0  0  0  0  0  0  0
   -2.1377    0.8673   -0.4020 C   0  0  0  0  0  0  0  0  0  0  0  0
   -0.8823    0.9712   -0.5010 O   0  0  0  0  0  0  0  0  0  0  0  0
   -2.9182    1.8381   -0.9226 N   0  0  0  0  0  0  0  0  0  0  0  0
   -1.8356   -1.2647    0.7868 C   0  0  2  0  0  0  0  0  0  0  0  0
   -0.4794   -0.9577    0.8319 O   0  0  0  0  0  0  0  0  0  0  0  0
    0.2030   -2.1375    1.0121 C   0  0  1  0  0  0  0  0  0  0  0  0
   -0.6705   -3.2557    0.5073 C   0  0  2  0  0  0  0  0  0  0  0  0
   -1.8090   -2.4780   -0.1305 C   0  0  1  0  0  0  0  0  0  0  0  0
   -3.0051   -3.1818   -0.0788 O   0  0  0  0  0  0  0  0  0  0  0  0
   -1.1566   -3.9384    1.6213 O   0  0  0  0  0  0  0  0  0  0  0  0
    1.4633   -2.1355    0.1707 C   0  0  0  0  0  0  0  0  0  0  0  0
    2.2444   -1.0735    0.5719 O   0  0  0  0  0  0  0  0  0  0  0  0
    3.6932   -0.9920   -0.3265 P   0  0  0  0  0  0  0  0  0  0  0  0
    3.5795   -1.7208   -1.6412 O   0  0  0  0  0  0  0  0  0  0  0  0
    4.0409    0.6244   -0.5810 O   0  0  0  0  0  0  0  0  0  0  0  0
    5.6150    0.8629   -1.1443 P   0  0  0  0  0  0  0  0  0  0  0  0
    5.7284    0.3890   -2.5786 O   0  0  0  0  0  0  0  0  0  0  0  0
    5.9383    2.5237   -1.0642 O   0  0  0  0  0  0  0  0  0  0  0  0
    5.7968    2.9713    0.5628 P   0  0  0  0  0  0  0  0  0  0  0  0
    5.1086    1.8975    1.3721 O   0  0  0  0  0  0  0  0  0  0  0  0
    4.8854    4.3904    0.7385 O   0  0  0  0  0  0  0  0  0  0  0  0
    7.3592    3.1373    1.1827 O   0  0  0  0  0  0  0  0  0  0  0  0
    6.7602    0.0187   -0.2492 O   0  0  0  0  0  0  0  0  0  0  0  0
    4.8657   -1.7636    0.6364 O   0  0  0  0  0  0  0  0  0  0  0  0
   -7.9376    2.9902    0.1619 H   0  0  0  0  0  0  0  0  0  0  0  0
   -6.6489    4.2520   -0.1544 H   0  0  0  0  0  0  0  0  0  0  0  0
   -6.2667    2.8049    0.8597 H   0  0  0  0  0  0  0  0  0  0  0  0
   -4.8295    3.5938   -1.8479 H   0  0  0  0  0  0  0  0  0  0  0  0
   -5.8703    0.5392   -0.0971 H   0  0  0  0  0  0  0  0  0  0  0  0
   -4.4087   -1.1604    0.8113 H   0  0  0  0  0  0  0  0  0  0  0  0
   -2.2269   -1.5799    1.7690 H   0  0  0  0  0  0  0  0  0  0  0  0
    0.5198   -2.2822    2.0683 H   0  0  0  0  0  0  0  0  0  0  0  0
   -0.1651   -3.9154   -0.2227 H   0  0  0  0  0  0  0  0  0  0  0  0
   -1.4763   -2.2131   -1.1353 H   0  0  0  0  0  0  0  0  0  0  0  0
   -2.8782   -3.9667   -0.6722 H   0  0  0  0  0  0  0  0  0  0  0  0
   -2.1387   -4.0749    1.5624 H   0  0  0  0  0  0  0  0  0  0  0  0
    1.1460   -1.9823   -0.8839 H   0  0  0  0  0  0  0  0  0  0  0  0
    1.9809   -3.1081    0.1920 H   0  0  0  0  0  0  0  0  0  0  0  0
    3.9157    4.1988    0.9234 H   0  0  0  0  0  0  0  0  0  0  0  0
    8.0015    2.5589    0.6710 H   0  0  0  0  0  0  0  0  0  0  0  0
    6.5752   -0.0405    0.7133 H   0  0  0  0  0  0  0  0  0  0  0  0
    4.4105   -2.5572    1.0525 H   0  0  0  0  0  0  0  0  0  0  0  0
  1  2  1  0
  2  3  1  0
  3  4  1  0
  4  5  1  0
  5  6  2  0
  6  7  1  0
  7  8  1  0
  8  9  2  0
  8 10  1  0
  7 11  1  0
 11 12  1  0
 12 13  1  0
 13 14  1  0
 14 15  1  0
 15 16  1  0
 14 17  1  0
 13 18  1  0
 18 19  1  0
 19 20  1  0
 20 21  2  0
 20 22  1  0
 22 23  1  0
 23 24  2  0
 23 25  1  0
 25 26  1  0
 26 27  2  0
 26 28  1  0
 26 29  1  0
 23 30  1  0
 20 31  1  0
 10  4  2  0
 15 11  1  0
  1 32  1  0
  1 33  1  0
  1 34  1  0
  3 35  1  0
  5 36  1  0
  6 37  1  0
 11 38  1  1
 13 39  1  1
 14 40  1  6
 15 41  1  6
 16 42  1  0
 17 43  1  0
 18 44  1  0
 18 45  1  0
 28 46  1  0
 29 47  1  0
 30 48  1  0
 31 49  1  0
M  END
>  <Ligand ID>  (1) 
LIG0004906

>  <Ligand>  (1) 
CHEMBL1198849

>  <SMILES>  (1) 
CONc1ccn(c(=O)n1)[C@@H]1O[C@@H]([C@H]([C@H]1O)O)COP(=O)(OP(=O)(OP(=O)(O)O)O)O

>  <CID>  (1) 
46831692.0

>  <ChEMBL ID>  (1) 
nan

>  <InChiKey>  (1) 
JFCPDJMYRHCAHH-ZOQUXTDFSA-N

>  <InChi>  (1) 
InChI=1S/C10H18N3O15P3/c1-24-12-6-2-3-13(10(16)11-6)9-8(15)7(14)5(26-9)4-25-30(20,21)28-31(22,23)27-29(17,18)19/h2-3,5,7-9,14-15H,4H2,1H3,(H,20,21)(H,22,23)(H,11,12,16)(H2,17,18,19)/t5-,7-,8-,9-/m1/s1

>  <IUPAC Name>  (1) 
[[(2R,3S,4R,5R)-3,4-dihydroxy-5-[4-(methoxyamino)-2-oxopyrimidin-1-yl]oxolan-2-yl]methoxy-hydroxyphosphoryl] phosphono hydrogen phosphate

$$$$
