
     RDKit          3D

 72 73  0  0  0  0  0  0  0  0999 V2000
   -4.8368   -5.8250    2.4016 O   0  0  0  0  0  0  0  0  0  0  0  0
   -4.6275   -4.4989    2.8478 C   0  0  0  0  0  0  0  0  0  0  0  0
   -4.1151   -3.6820    1.7004 C   0  0  0  0  0  0  0  0  0  0  0  0
   -4.9547   -2.8132    1.0431 C   0  0  0  0  0  0  0  0  0  0  0  0
   -4.5149   -2.0401   -0.0360 C   0  0  0  0  0  0  0  0  0  0  0  0
   -3.1978   -2.2120   -0.3851 C   0  0  0  0  0  0  0  0  0  0  0  0
   -2.3520   -3.0750    0.2639 C   0  0  0  0  0  0  0  0  0  0  0  0
   -2.7850   -3.8387    1.3288 C   0  0  0  0  0  0  0  0  0  0  0  0
   -1.9732   -4.7253    2.0175 O   0  0  0  0  0  0  0  0  0  0  0  0
   -5.4804   -1.1812   -0.6891 C   0  0  2  0  0  0  0  0  0  0  0  0
   -4.9850   -0.0247   -1.4879 C   0  0  0  0  0  0  0  0  0  0  0  0
   -4.4498    1.0726   -0.6905 N   0  0  0  0  0  0  0  0  0  0  0  0
   -4.2836    2.1803   -1.5705 C   0  0  0  0  0  0  0  0  0  0  0  0
   -3.1426    2.0645   -2.5108 C   0  0  0  0  0  0  0  0  0  0  0  0
   -1.8019    2.1125   -1.8437 C   0  0  0  0  0  0  0  0  0  0  0  0
   -1.4947    1.0557   -0.8638 C   0  0  0  0  0  0  0  0  0  0  0  0
   -0.0828    1.2501   -0.2516 C   0  0  0  0  0  0  0  0  0  0  0  0
    0.0508    2.5520    0.4619 C   0  0  0  0  0  0  0  0  0  0  0  0
    1.3030    2.7942    1.0298 O   0  0  0  0  0  0  0  0  0  0  0  0
    2.3202    2.8286    0.1228 C   0  0  0  0  0  0  0  0  0  0  0  0
    3.6906    3.1514    0.7194 C   0  0  0  0  0  0  0  0  0  0  0  0
    4.6541    3.1310   -0.3851 C   0  0  0  0  0  0  0  0  0  0  0  0
    4.9969    1.8920   -1.1218 C   0  0  0  0  0  0  0  0  0  0  0  0
    5.7437    0.8379   -0.4479 C   0  0  0  0  0  0  0  0  0  0  0  0
    7.1519    1.0031   -0.5118 C   0  0  0  0  0  0  0  0  0  0  0  0
    8.0499    0.1615    0.0621 C   0  0  0  0  0  0  0  0  0  0  0  0
    7.5922   -0.9250    0.7540 C   0  0  0  0  0  0  0  0  0  0  0  0
    6.2374   -1.1092    0.8317 C   0  0  0  0  0  0  0  0  0  0  0  0
    5.3082   -0.2415    0.2386 C   0  0  0  0  0  0  0  0  0  0  0  0
    3.6430   -0.6468    0.4152 S   0  0  0  0  0  0  0  0  0  0  0  0
    2.9459   -0.6837   -0.8875 O   0  0  0  0  0  0  0  0  0  0  0  0
    2.9113    0.1452    1.4677 O   0  0  0  0  0  0  0  0  0  0  0  0
    3.5362   -2.2907    1.0698 N   0  0  0  0  0  0  0  0  0  0  0  0
   -6.4580   -0.7256    0.2164 O   0  0  0  0  0  0  0  0  0  0  0  0
   -3.9398   -6.2344    2.3256 H   0  0  0  0  0  0  0  0  0  0  0  0
   -5.5249   -4.0569    3.2864 H   0  0  0  0  0  0  0  0  0  0  0  0
   -3.8458   -4.6000    3.6370 H   0  0  0  0  0  0  0  0  0  0  0  0
   -5.9932   -2.7176    1.3657 H   0  0  0  0  0  0  0  0  0  0  0  0
   -2.8270   -1.6585   -1.2139 H   0  0  0  0  0  0  0  0  0  0  0  0
   -1.3074   -3.1600   -0.0707 H   0  0  0  0  0  0  0  0  0  0  0  0
   -1.0158   -4.8718    1.7656 H   0  0  0  0  0  0  0  0  0  0  0  0
   -6.0466   -1.8543   -1.4204 H   0  0  0  0  0  0  0  0  0  0  0  0
   -4.1480   -0.3522   -2.1672 H   0  0  0  0  0  0  0  0  0  0  0  0
   -5.8005    0.3761   -2.0962 H   0  0  0  0  0  0  0  0  0  0  0  0
   -5.1295    1.2528    0.0764 H   0  0  0  0  0  0  0  0  0  0  0  0
   -4.0722    3.1202   -0.9531 H   0  0  0  0  0  0  0  0  0  0  0  0
   -5.2324    2.4159   -2.1302 H   0  0  0  0  0  0  0  0  0  0  0  0
   -3.2145    1.1396   -3.1434 H   0  0  0  0  0  0  0  0  0  0  0  0
   -3.1702    2.9309   -3.2202 H   0  0  0  0  0  0  0  0  0  0  0  0
   -0.9739    2.2197   -2.6046 H   0  0  0  0  0  0  0  0  0  0  0  0
   -1.7817    3.0974   -1.2666 H   0  0  0  0  0  0  0  0  0  0  0  0
   -2.2027    0.8829   -0.0532 H   0  0  0  0  0  0  0  0  0  0  0  0
   -1.3743    0.0787   -1.4262 H   0  0  0  0  0  0  0  0  0  0  0  0
    0.0786    0.3760    0.4106 H   0  0  0  0  0  0  0  0  0  0  0  0
    0.6122    1.1201   -1.1137 H   0  0  0  0  0  0  0  0  0  0  0  0
   -0.7296    2.5834    1.2445 H   0  0  0  0  0  0  0  0  0  0  0  0
   -0.1342    3.4279   -0.2227 H   0  0  0  0  0  0  0  0  0  0  0  0
    2.0545    3.6584   -0.6094 H   0  0  0  0  0  0  0  0  0  0  0  0
    2.3326    1.9263   -0.4924 H   0  0  0  0  0  0  0  0  0  0  0  0
    3.5740    4.2343    1.0569 H   0  0  0  0  0  0  0  0  0  0  0  0
    3.9229    2.6134    1.6314 H   0  0  0  0  0  0  0  0  0  0  0  0
    4.2838    3.8781   -1.1586 H   0  0  0  0  0  0  0  0  0  0  0  0
    5.6394    3.5577    0.0246 H   0  0  0  0  0  0  0  0  0  0  0  0
    4.0781    1.4642   -1.6457 H   0  0  0  0  0  0  0  0  0  0  0  0
    5.6044    2.2284   -2.0192 H   0  0  0  0  0  0  0  0  0  0  0  0
    7.5689    1.8620   -1.0568 H   0  0  0  0  0  0  0  0  0  0  0  0
    9.1164    0.3490   -0.0272 H   0  0  0  0  0  0  0  0  0  0  0  0
    8.3009   -1.6007    1.2137 H   0  0  0  0  0  0  0  0  0  0  0  0
    5.9030   -1.9809    1.3896 H   0  0  0  0  0  0  0  0  0  0  0  0
    3.8759   -2.2017    2.0744 H   0  0  0  0  0  0  0  0  0  0  0  0
    4.0898   -2.9508    0.4993 H   0  0  0  0  0  0  0  0  0  0  0  0
   -7.1710   -0.2482   -0.3004 H   0  0  0  0  0  0  0  0  0  0  0  0
  1  2  1  0
  2  3  1  0
  3  4  2  0
  4  5  1  0
  5  6  2  0
  6  7  1  0
  7  8  2  0
  8  9  1  0
  5 10  1  0
 10 11  1  0
 11 12  1  0
 12 13  1  0
 13 14  1  0
 14 15  1  0
 15 16  1  0
 16 17  1  0
 17 18  1  0
 18 19  1  0
 19 20  1  0
 20 21  1  0
 21 22  1  0
 22 23  1  0
 23 24  1  0
 24 25  2  0
 25 26  1  0
 26 27  2  0
 27 28  1  0
 28 29  2  0
 29 30  1  0
 30 31  2  0
 30 32  2  0
 30 33  1  0
 10 34  1  0
  8  3  1  0
 29 24  1  0
  1 35  1  0
  2 36  1  0
  2 37  1  0
  4 38  1  0
  6 39  1  0
  7 40  1  0
  9 41  1  0
 10 42  1  6
 11 43  1  0
 11 44  1  0
 12 45  1  0
 13 46  1  0
 13 47  1  0
 14 48  1  0
 14 49  1  0
 15 50  1  0
 15 51  1  0
 16 52  1  0
 16 53  1  0
 17 54  1  0
 17 55  1  0
 18 56  1  0
 18 57  1  0
 20 58  1  0
 20 59  1  0
 21 60  1  0
 21 61  1  0
 22 62  1  0
 22 63  1  0
 23 64  1  0
 23 65  1  0
 25 66  1  0
 26 67  1  0
 27 68  1  0
 28 69  1  0
 33 70  1  0
 33 71  1  0
 34 72  1  0
M  END
>  <Ligand ID>  (1) 
LIG0002579

>  <Ligand>  (1) 
CHEMBL520313

>  <SMILES>  (1) 
OCc1cc(ccc1O)[C@H](CNCCCCCCOCCCCc1ccccc1S(=O)(=O)N)O

>  <CID>  (1) 
42625511.0

>  <ChEMBL ID>  (1) 
nan

>  <InChiKey>  (1) 
IKZJYCYAHWWOIZ-DEOSSOPVSA-N

>  <InChi>  (1) 
InChI=1S/C25H38N2O6S/c26-34(31,32)25-11-4-3-9-20(25)10-5-8-16-33-15-7-2-1-6-14-27-18-24(30)21-12-13-23(29)22(17-21)19-28/h3-4,9,11-13,17,24,27-30H,1-2,5-8,10,14-16,18-19H2,(H2,26,31,32)/t24-/m0/s1

>  <IUPAC Name>  (1) 
2-[4-[6-[[(2R)-2-hydroxy-2-[4-hydroxy-3-(hydroxymethyl)phenyl]ethyl]amino]hexoxy]butyl]benzenesulfonamide

$$$$
