
     RDKit          3D

 57 62  0  0  0  0  0  0  0  0999 V2000
    0.8038   -2.2169   -1.0920 O   0  0  0  0  0  0  0  0  0  0  0  0
    1.3035   -1.0961   -0.7971 C   0  0  0  0  0  0  0  0  0  0  0  0
    0.3993   -0.0470   -0.5125 N   0  0  0  0  0  0  0  0  0  0  0  0
   -1.0470   -0.1729   -0.5303 C   0  0  1  0  0  0  0  0  0  0  0  0
   -1.4650   -0.6446   -1.8905 C   0  0  0  0  0  0  0  0  0  0  0  0
   -2.0880   -1.9725   -2.0039 C   0  0  0  0  0  0  0  0  0  0  0  0
   -2.3266   -2.7438   -0.7707 C   0  0  0  0  0  0  0  0  0  0  0  0
   -3.0595   -3.7157   -0.8438 O   0  0  0  0  0  0  0  0  0  0  0  0
   -1.7303   -2.3976    0.5170 C   0  0  1  0  0  0  0  0  0  0  0  0
   -1.6607   -0.8905    0.5941 C   0  0  1  0  0  0  0  0  0  0  0  0
   -1.0712   -0.4283    1.8847 C   0  0  0  0  0  0  0  0  0  0  0  0
   -0.6305    0.9862    1.9083 C   0  0  0  0  0  0  0  0  0  0  0  0
   -1.1231    1.8404    0.9094 N   0  0  0  0  0  0  0  0  0  0  0  0
   -1.5217    1.2837   -0.3355 C   0  0  2  0  0  0  0  0  0  0  0  0
   -2.9716    1.5181   -0.4758 C   0  0  0  0  0  0  0  0  0  0  0  0
   -3.7432    0.4821    0.2174 C   0  0  0  0  0  0  0  0  0  0  0  0
   -3.1433   -0.6348    0.6611 C   0  0  0  0  0  0  0  0  0  0  0  0
   -3.7507   -1.7075    1.2735 C   0  0  0  0  0  0  0  0  0  0  0  0
   -2.7372   -2.6279    1.5426 O   0  0  0  0  0  0  0  0  0  0  0  0
   -5.1113   -1.6296    1.4574 C   0  0  0  0  0  0  0  0  0  0  0  0
   -5.7950   -0.4902    1.0201 C   0  0  0  0  0  0  0  0  0  0  0  0
   -5.1350    0.5651    0.4036 C   0  0  0  0  0  0  0  0  0  0  0  0
   -0.2253    2.9446    0.6754 C   0  0  0  0  0  0  0  0  0  0  0  0
    2.7592   -0.9782   -0.7748 C   0  0  0  0  0  0  0  0  0  0  0  0
    3.4231    0.1123   -0.4888 C   0  0  0  0  0  0  0  0  0  0  0  0
    4.8419    0.3295   -0.4399 C   0  0  0  0  0  0  0  0  0  0  0  0
    5.2817    1.6166   -0.1004 C   0  0  0  0  0  0  0  0  0  0  0  0
    6.6084    1.9555   -0.0186 C   0  0  0  0  0  0  0  0  0  0  0  0
    7.5914    1.0309   -0.2705 C   0  0  0  0  0  0  0  0  0  0  0  0
    7.1971   -0.2329   -0.6040 C   0  0  0  0  0  0  0  0  0  0  0  0
    5.8341   -0.5818   -0.6883 C   0  0  0  0  0  0  0  0  0  0  0  0
    5.5146   -2.2272   -1.1237 Cl  0  0  0  0  0  0  0  0  0  0  0  0
    0.8566    0.8864   -0.2749 H   0  0  0  0  0  0  0  0  0  0  0  0
   -0.6274   -0.5500   -2.6428 H   0  0  0  0  0  0  0  0  0  0  0  0
   -2.2027    0.1037   -2.3093 H   0  0  0  0  0  0  0  0  0  0  0  0
   -3.0418   -1.9629   -2.6242 H   0  0  0  0  0  0  0  0  0  0  0  0
   -1.4235   -2.6396   -2.6377 H   0  0  0  0  0  0  0  0  0  0  0  0
   -0.8865   -2.9503    0.8759 H   0  0  0  0  0  0  0  0  0  0  0  0
   -0.1558   -1.0559    2.1091 H   0  0  0  0  0  0  0  0  0  0  0  0
   -1.7675   -0.6870    2.7308 H   0  0  0  0  0  0  0  0  0  0  0  0
    0.4861    1.0976    2.0665 H   0  0  0  0  0  0  0  0  0  0  0  0
   -1.0200    1.4095    2.8900 H   0  0  0  0  0  0  0  0  0  0  0  0
   -0.9977    1.8193   -1.1946 H   0  0  0  0  0  0  0  0  0  0  0  0
   -3.1812    2.5166    0.0130 H   0  0  0  0  0  0  0  0  0  0  0  0
   -3.3154    1.6813   -1.5224 H   0  0  0  0  0  0  0  0  0  0  0  0
   -5.6139   -2.4526    1.9353 H   0  0  0  0  0  0  0  0  0  0  0  0
   -6.8815   -0.4244    1.1660 H   0  0  0  0  0  0  0  0  0  0  0  0
   -5.6619    1.4513    0.0617 H   0  0  0  0  0  0  0  0  0  0  0  0
    0.7125    2.7453    1.2286 H   0  0  0  0  0  0  0  0  0  0  0  0
   -0.6553    3.8539    1.1450 H   0  0  0  0  0  0  0  0  0  0  0  0
   -0.0154    3.1148   -0.4027 H   0  0  0  0  0  0  0  0  0  0  0  0
    3.3134   -1.8570   -1.0121 H   0  0  0  0  0  0  0  0  0  0  0  0
    2.7900    0.9743   -0.2554 H   0  0  0  0  0  0  0  0  0  0  0  0
    4.5723    2.4198    0.1175 H   0  0  0  0  0  0  0  0  0  0  0  0
    6.8947    2.9613    0.2471 H   0  0  0  0  0  0  0  0  0  0  0  0
    8.6283    1.2752   -0.2120 H   0  0  0  0  0  0  0  0  0  0  0  0
    7.9718   -0.9599   -0.8021 H   0  0  0  0  0  0  0  0  0  0  0  0
  1  2  2  0
  2  3  1  0
  4  3  1  6
  4  5  1  0
  5  6  1  0
  6  7  1  0
  7  8  2  0
  7  9  1  0
  9 10  1  0
 10 11  1  1
 11 12  1  0
 12 13  1  0
 13 14  1  0
 14 15  1  0
 15 16  1  0
 16 17  2  0
 17 18  1  0
 18 19  1  0
 18 20  2  0
 20 21  1  0
 21 22  2  0
 13 23  1  0
  2 24  1  0
 24 25  2  0
 25 26  1  0
 26 27  2  0
 27 28  1  0
 28 29  2  0
 29 30  1  0
 30 31  2  0
 31 32  1  0
 14  4  1  0
 22 16  1  0
 31 26  1  0
 10  4  1  0
 19  9  1  0
 17 10  1  0
  3 33  1  0
  5 34  1  0
  5 35  1  0
  6 36  1  0
  6 37  1  0
  9 38  1  1
 11 39  1  0
 11 40  1  0
 12 41  1  0
 12 42  1  0
 14 43  1  6
 15 44  1  0
 15 45  1  0
 20 46  1  0
 21 47  1  0
 22 48  1  0
 23 49  1  0
 23 50  1  0
 23 51  1  0
 24 52  1  0
 25 53  1  0
 27 54  1  0
 28 55  1  0
 29 56  1  0
 30 57  1  0
M  END
>  <Ligand ID>  (1) 
LIG0004599

>  <Ligand>  (1) 
CHEMBL2113666

>  <SMILES>  (1) 
O=C(N[C@]12CCC(=O)[C@H]3[C@]42CCN([C@@H]1Cc1c4c(O3)ccc1)C)/C=C/c1ccccc1Cl

>  <CID>  (1) 
71456262.0

>  <ChEMBL ID>  (1) 
nan

>  <InChiKey>  (1) 
IMIGYXVXIBPZFP-MOXYHQKCSA-N

>  <InChi>  (1) 
InChI=1S/C26H25ClN2O3/c1-29-14-13-25-23-17-6-4-8-20(23)32-24(25)19(30)11-12-26(25,21(29)15-17)28-22(31)10-9-16-5-2-3-7-18(16)27/h2-10,21,24H,11-15H2,1H3,(H,28,31)/b10-9+/t21-,24+,25+,26-/m1/s1

>  <IUPAC Name>  (1) 
(E)-N-[(4R,4aS,7aR,12bR)-3-methyl-7-oxo-2,4,5,6,7a,13-hexahydro-1H-4,12-methanobenzofuro[3,2-e]isoquinolin-4a-yl]-3-(2-chlorophenyl)prop-2-enamide

$$$$
