
     RDKit          3D

 31 30  0  0  0  0  0  0  0  0999 V2000
    4.4563    0.3641    0.4358 C   0  0  0  0  0  0  0  0  0  0  0  0
    4.0524   -0.4610   -0.7583 C   0  0  0  0  0  0  0  0  0  0  0  0
    2.6966    0.0873   -1.2348 C   0  0  0  0  0  0  0  0  0  0  0  0
    1.7683   -0.0867   -0.0493 C   0  0  0  0  0  0  0  0  0  0  0  0
    0.3517    0.4204   -0.3546 C   0  0  0  0  0  0  0  0  0  0  0  0
   -0.4529    0.1988    0.8862 C   0  0  0  0  0  0  0  0  0  0  0  0
   -1.8725    0.6242    0.8217 C   0  0  0  0  0  0  0  0  0  0  0  0
   -2.7233   -0.0598   -0.2198 C   0  0  0  0  0  0  0  0  0  0  0  0
   -4.0881    0.5464   -0.0975 C   0  0  0  0  0  0  0  0  0  0  0  0
   -4.2132    1.7624   -0.1926 O   0  0  0  0  0  0  0  0  0  0  0  0
   -5.3073   -0.3015    0.1411 C   0  0  0  0  0  0  0  0  0  0  0  0
    4.0921   -0.1687    1.3475 H   0  0  0  0  0  0  0  0  0  0  0  0
    5.5643    0.4138    0.4471 H   0  0  0  0  0  0  0  0  0  0  0  0
    3.9775    1.3558    0.3361 H   0  0  0  0  0  0  0  0  0  0  0  0
    3.9000   -1.5036   -0.4304 H   0  0  0  0  0  0  0  0  0  0  0  0
    4.8038   -0.4150   -1.5657 H   0  0  0  0  0  0  0  0  0  0  0  0
    2.3640   -0.5543   -2.0569 H   0  0  0  0  0  0  0  0  0  0  0  0
    2.8003    1.1495   -1.5222 H   0  0  0  0  0  0  0  0  0  0  0  0
    2.1849    0.3850    0.8430 H   0  0  0  0  0  0  0  0  0  0  0  0
    1.7376   -1.1868    0.1523 H   0  0  0  0  0  0  0  0  0  0  0  0
    0.4347    1.5056   -0.5472 H   0  0  0  0  0  0  0  0  0  0  0  0
    0.0019   -0.0686   -1.2647 H   0  0  0  0  0  0  0  0  0  0  0  0
    0.0173    0.7514    1.7107 H   0  0  0  0  0  0  0  0  0  0  0  0
   -0.3463   -0.8885    1.1427 H   0  0  0  0  0  0  0  0  0  0  0  0
   -1.9161    1.7271    0.7166 H   0  0  0  0  0  0  0  0  0  0  0  0
   -2.3372    0.3404    1.8144 H   0  0  0  0  0  0  0  0  0  0  0  0
   -2.3551    0.0356   -1.2438 H   0  0  0  0  0  0  0  0  0  0  0  0
   -2.8508   -1.1419   -0.0150 H   0  0  0  0  0  0  0  0  0  0  0  0
   -5.3872   -0.3343    1.2641 H   0  0  0  0  0  0  0  0  0  0  0  0
   -5.1336   -1.3362   -0.1991 H   0  0  0  0  0  0  0  0  0  0  0  0
   -6.2205    0.1323   -0.3071 H   0  0  0  0  0  0  0  0  0  0  0  0
  1  2  1  0
  2  3  1  0
  3  4  1  0
  4  5  1  0
  5  6  1  0
  6  7  1  0
  7  8  1  0
  8  9  1  0
  9 10  2  0
  9 11  1  0
  1 12  1  0
  1 13  1  0
  1 14  1  0
  2 15  1  0
  2 16  1  0
  3 17  1  0
  3 18  1  0
  4 19  1  0
  4 20  1  0
  5 21  1  0
  5 22  1  0
  6 23  1  0
  6 24  1  0
  7 25  1  0
  7 26  1  0
  8 27  1  0
  8 28  1  0
 11 29  1  0
 11 30  1  0
 11 31  1  0
M  END
>  <Ligand ID>  (1) 
LIG0001052

>  <Ligand>  (1) 
2-Decanone

>  <SMILES>  (1) 
CCCCCCCCC(=O)C

>  <CID>  (1) 
12741.0

>  <ChEMBL ID>  (1) 
nan

>  <InChiKey>  (1) 
ZAJNGDIORYACQU-UHFFFAOYSA-N

>  <InChi>  (1) 
InChI=1S/C10H20O/c1-3-4-5-6-7-8-9-10(2)11/h3-9H2,1-2H3

>  <IUPAC Name>  (1) 
decan-2-one

$$$$
