
     RDKit          3D

 32 34  0  0  0  0  0  0  0  0999 V2000
   -4.3725   -0.6950    1.4396 O   0  0  0  0  0  0  0  0  0  0  0  0
   -3.3187    0.2061    1.4647 C   0  0  0  0  0  0  0  0  0  0  0  0
   -2.5708    0.2765    0.1716 C   0  0  1  0  0  0  0  0  0  0  0  0
   -1.5150    1.1803    0.1989 O   0  0  0  0  0  0  0  0  0  0  0  0
   -0.7258    0.8770   -0.8982 C   0  0  2  0  0  0  0  0  0  0  0  0
   -1.0799   -0.4804   -1.3761 C   0  0  1  0  0  0  0  0  0  0  0  0
   -1.8383   -1.0118   -0.1503 C   0  0  2  0  0  0  0  0  0  0  0  0
   -2.6975   -2.0390   -0.5007 O   0  0  0  0  0  0  0  0  0  0  0  0
   -2.0744   -0.3676   -2.3735 O   0  0  0  0  0  0  0  0  0  0  0  0
    0.6491    1.0458   -0.5361 N   0  0  0  0  0  0  0  0  0  0  0  0
    1.2290    2.2751   -0.4089 C   0  0  0  0  0  0  0  0  0  0  0  0
    2.5138    2.1095   -0.0633 N   0  0  0  0  0  0  0  0  0  0  0  0
    2.7702    0.8097    0.0336 C   0  0  0  0  0  0  0  0  0  0  0  0
    1.6057    0.1393   -0.2615 C   0  0  0  0  0  0  0  0  0  0  0  0
    1.5810   -1.1835   -0.2389 N   0  0  0  0  0  0  0  0  0  0  0  0
    2.6964   -1.8677    0.0730 C   0  0  0  0  0  0  0  0  0  0  0  0
    2.6084   -3.6269    0.0884 Cl  0  0  0  0  0  0  0  0  0  0  0  0
    3.8509   -1.2156    0.3659 N   0  0  0  0  0  0  0  0  0  0  0  0
    3.9129    0.1350    0.3526 C   0  0  0  0  0  0  0  0  0  0  0  0
    5.1500    0.7401    0.6685 N   0  0  0  0  0  0  0  0  0  0  0  0
   -4.5457   -0.8845    0.4722 H   0  0  0  0  0  0  0  0  0  0  0  0
   -2.5911    0.0325    2.2815 H   0  0  0  0  0  0  0  0  0  0  0  0
   -3.7621    1.2068    1.6462 H   0  0  0  0  0  0  0  0  0  0  0  0
   -3.1887    0.5164   -0.6953 H   0  0  0  0  0  0  0  0  0  0  0  0
   -0.9725    1.6586   -1.6714 H   0  0  0  0  0  0  0  0  0  0  0  0
   -0.2843   -1.1284   -1.7157 H   0  0  0  0  0  0  0  0  0  0  0  0
   -1.1015   -1.2787    0.6330 H   0  0  0  0  0  0  0  0  0  0  0  0
   -2.1237   -2.8341   -0.6376 H   0  0  0  0  0  0  0  0  0  0  0  0
   -1.8048    0.2291   -3.0959 H   0  0  0  0  0  0  0  0  0  0  0  0
    0.7814    3.2456   -0.5494 H   0  0  0  0  0  0  0  0  0  0  0  0
    5.7657    1.0437   -0.1189 H   0  0  0  0  0  0  0  0  0  0  0  0
    5.4528    0.8859    1.6523 H   0  0  0  0  0  0  0  0  0  0  0  0
  1  2  1  0
  2  3  1  0
  3  4  1  0
  4  5  1  0
  5  6  1  0
  6  7  1  0
  7  8  1  0
  6  9  1  0
  5 10  1  0
 10 11  1  0
 11 12  2  0
 12 13  1  0
 13 14  2  0
 14 15  1  0
 15 16  2  0
 16 17  1  0
 16 18  1  0
 18 19  2  0
 19 20  1  0
  7  3  1  0
 14 10  1  0
 19 13  1  0
  1 21  1  0
  2 22  1  0
  2 23  1  0
  3 24  1  6
  5 25  1  6
  6 26  1  6
  7 27  1  1
  8 28  1  0
  9 29  1  0
 11 30  1  0
 20 31  1  0
 20 32  1  0
M  END
>  <Ligand ID>  (1) 
LIG0001289

>  <Ligand>  (1) 
2-chloroadenosine

>  <SMILES>  (1) 
OC[C@H]1O[C@H]([C@@H]([C@@H]1O)O)n1cnc2c1nc(Cl)nc2N

>  <CID>  (1) 
8974.0

>  <ChEMBL ID>  (1) 
nan

>  <InChiKey>  (1) 
BIXYYZIIJIXVFW-UUOKFMHZSA-N

>  <InChi>  (1) 
InChI=1S/C10H12ClN5O4/c11-10-14-7(12)4-8(15-10)16(2-13-4)9-6(19)5(18)3(1-17)20-9/h2-3,5-6,9,17-19H,1H2,(H2,12,14,15)/t3-,5-,6-,9-/m1/s1

>  <IUPAC Name>  (1) 
(2R,3R,4S,5R)-2-(6-amino-2-chloropurin-9-yl)-5-(hydroxymethyl)oxolane-3,4-diol

$$$$
