
     RDKit          3D

 19 19  0  0  0  0  0  0  0  0999 V2000
   -2.2880    0.8977    0.1989 C   0  0  0  0  0  0  0  0  0  0  0  0
   -1.5253   -0.3675   -0.1899 C   0  0  1  0  0  0  0  0  0  0  0  0
   -0.0798   -0.1183   -0.3011 C   0  0  0  0  0  0  0  0  0  0  0  0
    0.7661   -1.2235   -0.1841 C   0  0  0  0  0  0  0  0  0  0  0  0
    2.1232   -1.1062   -0.2715 C   0  0  0  0  0  0  0  0  0  0  0  0
    2.7061    0.1301   -0.4816 C   0  0  0  0  0  0  0  0  0  0  0  0
    1.8647    1.2348   -0.5987 C   0  0  0  0  0  0  0  0  0  0  0  0
    0.4909    1.1066   -0.5089 C   0  0  0  0  0  0  0  0  0  0  0  0
   -1.6998   -1.2322    0.9148 O   0  0  0  0  0  0  0  0  0  0  0  0
   -3.3485    0.5710    0.2953 H   0  0  0  0  0  0  0  0  0  0  0  0
   -1.9679    1.2125    1.2217 H   0  0  0  0  0  0  0  0  0  0  0  0
   -2.2343    1.6772   -0.5600 H   0  0  0  0  0  0  0  0  0  0  0  0
   -2.0018   -0.7945   -1.0768 H   0  0  0  0  0  0  0  0  0  0  0  0
    0.3356   -2.2131   -0.0178 H   0  0  0  0  0  0  0  0  0  0  0  0
    2.7626   -1.9872   -0.1764 H   0  0  0  0  0  0  0  0  0  0  0  0
    3.7820    0.2071   -0.5486 H   0  0  0  0  0  0  0  0  0  0  0  0
    2.3537    2.1837   -0.7622 H   0  0  0  0  0  0  0  0  0  0  0  0
   -0.1509    1.9643   -0.6004 H   0  0  0  0  0  0  0  0  0  0  0  0
   -1.8886   -2.1425    0.5741 H   0  0  0  0  0  0  0  0  0  0  0  0
  1  2  1  0
  2  3  1  0
  3  4  2  0
  4  5  1  0
  5  6  2  0
  6  7  1  0
  7  8  2  0
  2  9  1  0
  8  3  1  0
  1 10  1  0
  1 11  1  0
  1 12  1  0
  2 13  1  6
  4 14  1  0
  5 15  1  0
  6 16  1  0
  7 17  1  0
  8 18  1  0
  9 19  1  0
M  END
>  <Ligand ID>  (1) 
LIG0000602

>  <Ligand>  (1) 
(1S)-1-phenylethanol

>  <SMILES>  (1) 
C[C@@H](c1ccccc1)O

>  <CID>  (1) 
443135.0

>  <ChEMBL ID>  (1) 
nan

>  <InChiKey>  (1) 
WAPNOHKVXSQRPX-ZETCQYMHSA-N

>  <InChi>  (1) 
InChI=1S/C8H10O/c1-7(9)8-5-3-2-4-6-8/h2-7,9H,1H3/t7-/m0/s1

>  <IUPAC Name>  (1) 
(1S)-1-phenylethanol

$$$$
