
     RDKit          3D

 41 43  0  0  0  0  0  0  0  0999 V2000
   -2.8559    2.0417   -1.2195 O   0  0  0  0  0  0  0  0  0  0  0  0
   -1.9821    1.1732   -0.8795 C   0  0  0  0  0  0  0  0  0  0  0  0
   -0.7186    1.1020   -1.6008 C   0  0  0  0  0  0  0  0  0  0  0  0
    0.2051    0.1032   -1.1794 N   0  0  0  0  0  0  0  0  0  0  0  0
    0.1306   -1.0956   -1.7712 N   0  0  0  0  0  0  0  0  0  0  0  0
    0.9443   -2.1108   -1.4638 C   0  0  0  0  0  0  0  0  0  0  0  0
    0.8438   -3.4377   -2.1382 C   0  0  0  0  0  0  0  0  0  0  0  0
    1.9002   -1.8955   -0.4875 C   0  0  0  0  0  0  0  0  0  0  0  0
    2.0069   -0.6652    0.1481 C   0  0  0  0  0  0  0  0  0  0  0  0
    1.1431    0.3200   -0.2190 C   0  0  0  0  0  0  0  0  0  0  0  0
    1.2239    1.4412    0.3448 O   0  0  0  0  0  0  0  0  0  0  0  0
    3.0592   -0.5290    1.1780 C   0  0  0  0  0  0  0  0  0  0  0  0
    4.1984    0.2258    0.6838 C   0  0  0  0  0  0  0  0  0  0  0  0
    5.3274   -0.1615    0.0396 C   0  0  0  0  0  0  0  0  0  0  0  0
    6.2508    0.7210   -0.3220 C   0  0  0  0  0  0  0  0  0  0  0  0
    6.0479    2.0679   -0.0301 C   0  0  0  0  0  0  0  0  0  0  0  0
    4.3744    2.0383    0.8415 S   0  0  0  0  0  0  0  0  0  0  0  0
   -2.3536    0.3351    0.2127 N   0  0  0  0  0  0  0  0  0  0  0  0
   -3.6452    0.5768    0.7783 C   0  0  0  0  0  0  0  0  0  0  0  0
   -3.8407    1.4701    1.8108 C   0  0  0  0  0  0  0  0  0  0  0  0
   -5.1215    1.6769    2.3353 C   0  0  0  0  0  0  0  0  0  0  0  0
   -6.2012    0.9871    1.8223 C   0  0  0  0  0  0  0  0  0  0  0  0
   -6.0075    0.0929    0.7894 C   0  0  0  0  0  0  0  0  0  0  0  0
   -4.7391   -0.1203    0.2607 C   0  0  0  0  0  0  0  0  0  0  0  0
   -7.9624    1.2704    2.5419 Br  0  0  0  0  0  0  0  0  0  0  0  0
   -0.2028    2.0962   -1.4962 H   0  0  0  0  0  0  0  0  0  0  0  0
   -0.8731    1.0091   -2.7067 H   0  0  0  0  0  0  0  0  0  0  0  0
    0.6085   -3.3590   -3.2194 H   0  0  0  0  0  0  0  0  0  0  0  0
    1.8197   -3.9797   -2.0483 H   0  0  0  0  0  0  0  0  0  0  0  0
    0.0896   -4.0602   -1.6077 H   0  0  0  0  0  0  0  0  0  0  0  0
    2.5538   -2.7152   -0.2431 H   0  0  0  0  0  0  0  0  0  0  0  0
    3.3669   -1.5194    1.5640 H   0  0  0  0  0  0  0  0  0  0  0  0
    2.5931    0.0463    2.0155 H   0  0  0  0  0  0  0  0  0  0  0  0
    5.4589   -1.2639   -0.1817 H   0  0  0  0  0  0  0  0  0  0  0  0
    7.1896    0.4491   -0.8510 H   0  0  0  0  0  0  0  0  0  0  0  0
    6.5720    2.9512   -0.1821 H   0  0  0  0  0  0  0  0  0  0  0  0
   -1.6977   -0.3809    0.5333 H   0  0  0  0  0  0  0  0  0  0  0  0
   -2.9757    2.0131    2.2100 H   0  0  0  0  0  0  0  0  0  0  0  0
   -5.2871    2.3754    3.1455 H   0  0  0  0  0  0  0  0  0  0  0  0
   -6.8535   -0.4586    0.3768 H   0  0  0  0  0  0  0  0  0  0  0  0
   -4.5906   -0.8313   -0.5593 H   0  0  0  0  0  0  0  0  0  0  0  0
  1  2  2  0
  2  3  1  0
  3  4  1  0
  4  5  1  0
  5  6  2  0
  6  7  1  0
  6  8  1  0
  8  9  2  0
  9 10  1  0
 10 11  2  0
  9 12  1  0
 12 13  1  0
 13 14  2  0
 14 15  1  0
 15 16  2  0
 16 17  1  0
  2 18  1  0
 18 19  1  0
 19 20  2  0
 20 21  1  0
 21 22  2  0
 22 23  1  0
 23 24  2  0
 22 25  1  0
 10  4  1  0
 17 13  1  0
 24 19  1  0
  3 26  1  0
  3 27  1  0
  7 28  1  0
  7 29  1  0
  7 30  1  0
  8 31  1  0
 12 32  1  0
 12 33  1  0
 14 34  1  0
 15 35  1  0
 16 36  1  0
 18 37  1  0
 20 38  1  0
 21 39  1  0
 23 40  1  0
 24 41  1  0
M  END
>  <Ligand ID>  (1) 
LIG0003951

>  <Ligand>  (1) 
CHEMBL2391437

>  <SMILES>  (1) 
O=C(Cn1nc(C)cc(c1=O)Cc1cccs1)Nc1ccc(cc1)Br

>  <CID>  (1) 
71699060.0

>  <ChEMBL ID>  (1) 
nan

>  <InChiKey>  (1) 
ASLHUAYUHCADOW-UHFFFAOYSA-N

>  <InChi>  (1) 
InChI=1S/C18H16BrN3O2S/c1-12-9-13(10-16-3-2-8-25-16)18(24)22(21-12)11-17(23)20-15-6-4-14(19)5-7-15/h2-9H,10-11H2,1H3,(H,20,23)

>  <IUPAC Name>  (1) 
N-(4-bromophenyl)-2-[3-methyl-6-oxo-5-(thiophen-2-ylmethyl)pyridazin-1-yl]acetamide

$$$$
