
     RDKit          3D

 53 56  0  0  0  0  0  0  0  0999 V2000
   -1.0048    2.1788    1.5527 O   0  0  0  0  0  0  0  0  0  0  0  0
   -1.1406    1.0549    0.9697 C   0  0  0  0  0  0  0  0  0  0  0  0
   -2.4680    0.6747    0.6279 N   0  0  0  0  0  0  0  0  0  0  0  0
   -3.6310    1.4934    0.9102 C   0  0  0  0  0  0  0  0  0  0  0  0
   -4.8289    0.5925    0.8271 C   0  0  1  0  0  0  0  0  0  0  0  0
   -4.1826   -0.7948    0.8652 C   0  0  0  0  0  0  0  0  0  0  0  0
   -2.9644   -0.5078   -0.0251 C   0  0  1  0  0  0  0  0  0  0  0  0
   -3.3834   -0.1508   -1.3882 C   0  0  0  0  0  0  0  0  0  0  0  0
   -3.8537   -1.0862   -2.1157 O   0  0  0  0  0  0  0  0  0  0  0  0
   -3.3031    1.1470   -1.9471 N   0  0  0  0  0  0  0  0  0  0  0  0
   -5.8019    0.7787    1.9610 C   0  0  0  0  0  0  0  0  0  0  0  0
   -5.4741    0.6502   -0.4146 O   0  0  0  0  0  0  0  0  0  0  0  0
    0.0152    0.2152    0.6760 C   0  0  0  0  0  0  0  0  0  0  0  0
    0.0238   -1.0526    1.2146 C   0  0  0  0  0  0  0  0  0  0  0  0
    1.1157   -1.8410    0.9354 C   0  0  0  0  0  0  0  0  0  0  0  0
    2.1372   -1.3664    0.1543 C   0  0  0  0  0  0  0  0  0  0  0  0
    2.1145   -0.0598   -0.3931 C   0  0  0  0  0  0  0  0  0  0  0  0
    1.0266    0.6495   -0.0821 N   0  0  0  0  0  0  0  0  0  0  0  0
    3.1655    0.2864   -1.1382 O   0  0  0  0  0  0  0  0  0  0  0  0
    3.6453    1.3178   -1.8461 C   0  0  0  0  0  0  0  0  0  0  0  0
    3.9346    2.5747   -1.1100 C   0  0  0  0  0  0  0  0  0  0  0  0
    2.9356    3.3605   -0.3861 C   0  0  0  0  0  0  0  0  0  0  0  0
    3.8527    2.4936    0.3930 C   0  0  0  0  0  0  0  0  0  0  0  0
    3.2331   -2.2318   -0.0939 N   0  0  0  0  0  0  0  0  0  0  0  0
    3.7981   -2.7743   -1.3259 C   0  0  0  0  0  0  0  0  0  0  0  0
    4.2859   -3.9540   -0.5215 C   0  0  0  0  0  0  0  0  0  0  0  0
    4.2584   -2.9580    0.6278 C   0  0  0  0  0  0  0  0  0  0  0  0
    5.5454   -4.3856   -0.8829 F   0  0  0  0  0  0  0  0  0  0  0  0
    3.3199   -4.9220   -0.4589 F   0  0  0  0  0  0  0  0  0  0  0  0
   -3.7311    2.3484    0.2344 H   0  0  0  0  0  0  0  0  0  0  0  0
   -3.5947    1.8464    1.9822 H   0  0  0  0  0  0  0  0  0  0  0  0
   -3.7977   -1.0059    1.8900 H   0  0  0  0  0  0  0  0  0  0  0  0
   -4.8179   -1.5795    0.4547 H   0  0  0  0  0  0  0  0  0  0  0  0
   -2.2662   -1.3571   -0.0253 H   0  0  0  0  0  0  0  0  0  0  0  0
   -4.0495    1.5399   -2.5920 H   0  0  0  0  0  0  0  0  0  0  0  0
   -2.4909    1.7660   -1.7362 H   0  0  0  0  0  0  0  0  0  0  0  0
   -6.7999    0.3696    1.6321 H   0  0  0  0  0  0  0  0  0  0  0  0
   -5.9860    1.8713    2.0719 H   0  0  0  0  0  0  0  0  0  0  0  0
   -5.5000    0.3100    2.8977 H   0  0  0  0  0  0  0  0  0  0  0  0
   -6.0852   -0.1225   -0.4727 H   0  0  0  0  0  0  0  0  0  0  0  0
   -0.7448   -1.4675    1.8272 H   0  0  0  0  0  0  0  0  0  0  0  0
    1.1648   -2.8455    1.3385 H   0  0  0  0  0  0  0  0  0  0  0  0
    4.5822    0.9974   -2.4049 H   0  0  0  0  0  0  0  0  0  0  0  0
    2.8790    1.5684   -2.6649 H   0  0  0  0  0  0  0  0  0  0  0  0
    4.8539    3.1200   -1.4794 H   0  0  0  0  0  0  0  0  0  0  0  0
    1.8825    3.1245   -0.5832 H   0  0  0  0  0  0  0  0  0  0  0  0
    3.0842    4.4835   -0.2851 H   0  0  0  0  0  0  0  0  0  0  0  0
    3.4626    1.5782    0.8662 H   0  0  0  0  0  0  0  0  0  0  0  0
    4.6543    2.9977    0.9893 H   0  0  0  0  0  0  0  0  0  0  0  0
    4.6496   -2.1258   -1.6314 H   0  0  0  0  0  0  0  0  0  0  0  0
    3.0761   -3.0047   -2.1266 H   0  0  0  0  0  0  0  0  0  0  0  0
    5.2284   -2.3992    0.6384 H   0  0  0  0  0  0  0  0  0  0  0  0
    3.9754   -3.3964    1.5937 H   0  0  0  0  0  0  0  0  0  0  0  0
  1  2  2  0
  2  3  1  0
  3  4  1  0
  4  5  1  0
  5  6  1  0
  6  7  1  0
  7  8  1  0
  8  9  2  0
  8 10  1  0
  5 11  1  0
  5 12  1  6
  2 13  1  0
 13 14  2  0
 14 15  1  0
 15 16  2  0
 16 17  1  0
 17 18  2  0
 17 19  1  0
 19 20  1  0
 20 21  1  0
 21 22  1  0
 22 23  1  0
 16 24  1  0
 24 25  1  0
 25 26  1  0
 26 27  1  0
 26 28  1  0
 26 29  1  0
  7  3  1  0
 18 13  1  0
 23 21  1  0
 27 24  1  0
  4 30  1  0
  4 31  1  0
  6 32  1  0
  6 33  1  0
  7 34  1  6
 10 35  1  0
 10 36  1  0
 11 37  1  0
 11 38  1  0
 11 39  1  0
 12 40  1  0
 14 41  1  0
 15 42  1  0
 20 43  1  0
 20 44  1  0
 21 45  1  0
 22 46  1  0
 22 47  1  0
 23 48  1  0
 23 49  1  0
 25 50  1  0
 25 51  1  0
 27 52  1  0
 27 53  1  0
M  END
>  <Ligand ID>  (1) 
LIG0005140

>  <Ligand>  (1) 
CHEMBL3897891

>  <SMILES>  (1) 
O=C(N1C[C@@](C[C@H]1C(=O)N)(C)O)c1ccc(c(n1)OCC1CC1)N1CC(C1)(F)F

>  <CID>  (1) 
118458637.0

>  <ChEMBL ID>  (1) 
nan

>  <InChiKey>  (1) 
KUICEPKSJZOVTD-KSSFIOAISA-N

>  <InChi>  (1) 
InChI=1S/C19H24F2N4O4/c1-18(28)6-14(15(22)26)25(8-18)17(27)12-4-5-13(24-9-19(20,21)10-24)16(23-12)29-7-11-2-3-11/h4-5,11,14,28H,2-3,6-10H2,1H3,(H2,22,26)/t14-,18-/m0/s1

>  <IUPAC Name>  (1) 
(2S,4S)-1-[6-(cyclopropylmethoxy)-5-(3,3-difluoroazetidin-1-yl)pyridine-2-carbonyl]-4-hydroxy-4-methylpyrrolidine-2-carboxamide

$$$$
