
     RDKit          3D

 32 34  0  0  0  0  0  0  0  0999 V2000
   -3.1002   -0.6350    0.0559 C   0  0  0  0  0  0  0  0  0  0  0  0
   -2.2781    0.5666    0.5291 C   0  0  1  0  0  0  0  0  0  0  0  0
   -1.4481    1.1282   -0.6011 C   0  0  0  0  0  0  0  0  0  0  0  0
   -0.5612    0.1122   -1.0735 N   0  0  0  0  0  0  0  0  0  0  0  0
   -0.9069   -0.6928   -2.1299 C   0  0  0  0  0  0  0  0  0  0  0  0
    0.1060   -1.5664   -2.4250 C   0  0  0  0  0  0  0  0  0  0  0  0
    1.1107   -1.3038   -1.5324 C   0  0  0  0  0  0  0  0  0  0  0  0
    0.6649   -0.2700   -0.7199 C   0  0  0  0  0  0  0  0  0  0  0  0
    1.5130    0.1585    0.2530 C   0  0  0  0  0  0  0  0  0  0  0  0
    1.1475    1.1643    1.1043 C   0  0  0  0  0  0  0  0  0  0  0  0
    2.0461    1.5763    2.1025 C   0  0  0  0  0  0  0  0  0  0  0  0
    3.2624    0.9449    2.1806 C   0  0  0  0  0  0  0  0  0  0  0  0
    3.6355   -0.0423    1.3553 N   0  0  0  0  0  0  0  0  0  0  0  0
    2.7506   -0.4303    0.3910 C   0  0  0  0  0  0  0  0  0  0  0  0
    3.1949   -1.4607   -0.4210 C   0  0  0  0  0  0  0  0  0  0  0  0
    2.3387   -1.8983   -1.4053 C   0  0  0  0  0  0  0  0  0  0  0  0
    4.7753   -2.1868   -0.2179 Cl  0  0  0  0  0  0  0  0  0  0  0  0
   -3.1214    1.5705    1.1492 N   0  0  0  0  0  0  0  0  0  0  0  0
   -3.8983   -0.8165    0.7996 H   0  0  0  0  0  0  0  0  0  0  0  0
   -2.4686   -1.5559    0.0374 H   0  0  0  0  0  0  0  0  0  0  0  0
   -3.4970   -0.4460   -0.9628 H   0  0  0  0  0  0  0  0  0  0  0  0
   -1.6242    0.1681    1.3528 H   0  0  0  0  0  0  0  0  0  0  0  0
   -2.2591    1.3230   -1.4105 H   0  0  0  0  0  0  0  0  0  0  0  0
   -1.0987    2.1189   -0.4212 H   0  0  0  0  0  0  0  0  0  0  0  0
   -1.8386   -0.6806   -2.6876 H   0  0  0  0  0  0  0  0  0  0  0  0
    0.1055   -2.3135   -3.2095 H   0  0  0  0  0  0  0  0  0  0  0  0
    0.2214    1.6882    1.1132 H   0  0  0  0  0  0  0  0  0  0  0  0
    1.7936    2.3696    2.7953 H   0  0  0  0  0  0  0  0  0  0  0  0
    3.9450    1.2554    2.9358 H   0  0  0  0  0  0  0  0  0  0  0  0
    2.6868   -2.7051   -2.0400 H   0  0  0  0  0  0  0  0  0  0  0  0
   -4.1110    1.3260    0.9008 H   0  0  0  0  0  0  0  0  0  0  0  0
   -3.0863    1.5334    2.2018 H   0  0  0  0  0  0  0  0  0  0  0  0
  1  2  1  0
  2  3  1  0
  3  4  1  0
  4  5  1  0
  5  6  2  0
  6  7  1  0
  7  8  2  0
  8  9  1  0
  9 10  2  0
 10 11  1  0
 11 12  2  0
 12 13  1  0
 13 14  2  0
 14 15  1  0
 15 16  2  0
 15 17  1  0
  2 18  1  0
  8  4  1  0
 14  9  1  0
 16  7  1  0
  1 19  1  0
  1 20  1  0
  1 21  1  0
  2 22  1  1
  3 23  1  0
  3 24  1  0
  5 25  1  0
  6 26  1  0
 10 27  1  0
 11 28  1  0
 12 29  1  0
 16 30  1  0
 18 31  1  0
 18 32  1  0
M  END
>  <Ligand ID>  (1) 
LIG0002152

>  <Ligand>  (1) 
CHEMBL201454

>  <SMILES>  (1) 
C[C@@H](Cn1ccc2c1c1cccnc1c(c2)Cl)N

>  <CID>  (1) 
18715564.0

>  <ChEMBL ID>  (1) 
nan

>  <InChiKey>  (1) 
GSMBZPFAFVMZKF-VIFPVBQESA-N

>  <InChi>  (1) 
InChI=1S/C14H14ClN3/c1-9(16)8-18-6-4-10-7-12(15)13-11(14(10)18)3-2-5-17-13/h2-7,9H,8,16H2,1H3/t9-/m0/s1

>  <IUPAC Name>  (1) 
(2S)-1-(5-chloropyrrolo[2,3-f]quinolin-1-yl)propan-2-amine

$$$$
