
     RDKit          3D

 90 93  0  0  0  0  0  0  0  0999 V2000
    3.4876    2.0170    4.8333 N   0  0  0  0  0  0  0  0  0  0  0  0
    3.1433    3.1138    3.9803 C   0  0  0  0  0  0  0  0  0  0  0  0
    2.3341    2.9501    2.9956 N   0  0  0  0  0  0  0  0  0  0  0  0
    1.9168    3.9758    2.0767 C   0  0  0  0  0  0  0  0  0  0  0  0
    1.7440    3.2751    0.7182 C   0  0  0  0  0  0  0  0  0  0  0  0
    0.7408    2.1914    0.7935 C   0  0  0  0  0  0  0  0  0  0  0  0
    0.5469    1.5263   -0.5834 C   0  0  1  0  0  0  0  0  0  0  0  0
    1.7862    0.9507   -1.1109 C   0  0  0  0  0  0  0  0  0  0  0  0
    1.8812   -0.3293   -1.0372 O   0  0  0  0  0  0  0  0  0  0  0  0
    2.8652    1.6241   -1.6792 N   0  0  0  0  0  0  0  0  0  0  0  0
    4.0887    0.9511   -2.1653 C   0  0  2  0  0  0  0  0  0  0  0  0
    3.7921   -0.0560   -3.1606 C   0  0  0  0  0  0  0  0  0  0  0  0
    2.5940   -0.3332   -3.5174 O   0  0  0  0  0  0  0  0  0  0  0  0
    4.7990   -0.8141   -3.8241 N   0  0  0  0  0  0  0  0  0  0  0  0
    4.8397    0.5740   -0.9470 C   0  0  0  0  0  0  0  0  0  0  0  0
    6.0991   -0.1371   -1.0708 C   0  0  0  0  0  0  0  0  0  0  0  0
    7.3687    0.4150   -1.0717 C   0  0  0  0  0  0  0  0  0  0  0  0
    8.3043   -0.5473   -1.2196 N   0  0  0  0  0  0  0  0  0  0  0  0
    7.6764   -1.7538   -1.3196 C   0  0  0  0  0  0  0  0  0  0  0  0
    6.3249   -1.4981   -1.2276 C   0  0  0  0  0  0  0  0  0  0  0  0
    5.4981   -2.6195   -1.2926 C   0  0  0  0  0  0  0  0  0  0  0  0
    6.0209   -3.8911   -1.4397 C   0  0  0  0  0  0  0  0  0  0  0  0
    7.3823   -4.0825   -1.5270 C   0  0  0  0  0  0  0  0  0  0  0  0
    8.2240   -2.9983   -1.4661 C   0  0  0  0  0  0  0  0  0  0  0  0
   -0.3811    0.4024   -0.3741 N   0  0  0  0  0  0  0  0  0  0  0  0
   -1.7890    0.5812   -0.5724 C   0  0  0  0  0  0  0  0  0  0  0  0
   -2.2726    1.7008   -0.9222 O   0  0  0  0  0  0  0  0  0  0  0  0
   -2.6689   -0.5832   -0.3534 C   0  0  2  0  0  0  0  0  0  0  0  0
   -2.4908   -1.4679   -1.5796 C   0  0  0  0  0  0  0  0  0  0  0  0
   -1.7473   -2.6251   -1.5210 C   0  0  0  0  0  0  0  0  0  0  0  0
   -1.6151   -3.4171   -2.6406 C   0  0  0  0  0  0  0  0  0  0  0  0
   -2.2182   -3.0864   -3.8564 C   0  0  0  0  0  0  0  0  0  0  0  0
   -2.9720   -1.9163   -3.9220 C   0  0  0  0  0  0  0  0  0  0  0  0
   -3.0762   -1.1549   -2.7789 C   0  0  0  0  0  0  0  0  0  0  0  0
   -4.0907   -0.2597   -0.3942 N   0  0  0  0  0  0  0  0  0  0  0  0
   -4.9067   -0.9681    0.5609 C   0  0  0  0  0  0  0  0  0  0  0  0
   -4.3362   -1.8054    1.3416 O   0  0  0  0  0  0  0  0  0  0  0  0
   -6.3523   -0.7488    0.6472 C   0  0  2  0  0  0  0  0  0  0  0  0
   -6.8122    0.6477    0.8153 C   0  0  0  0  0  0  0  0  0  0  0  0
   -6.3667    1.3656    2.0046 C   0  0  0  0  0  0  0  0  0  0  0  0
   -6.7289    2.6554    2.2710 N   0  0  0  0  0  0  0  0  0  0  0  0
   -6.1586    3.0237    3.4356 C   0  0  0  0  0  0  0  0  0  0  0  0
   -5.4466    1.9924    3.9050 N   0  0  0  0  0  0  0  0  0  0  0  0
   -5.5567    0.9493    3.0393 C   0  0  0  0  0  0  0  0  0  0  0  0
   -6.9843   -1.6110    1.6357 N   0  0  0  0  0  0  0  0  0  0  0  0
   -7.9153   -2.6096    1.1806 C   0  0  0  0  0  0  0  0  0  0  0  0
   -8.1887   -2.7448   -0.0522 O   0  0  0  0  0  0  0  0  0  0  0  0
   -8.6081   -3.5354    2.1098 C   0  0  0  0  0  0  0  0  0  0  0  0
    3.6666    4.4242    4.1663 N   0  0  0  0  0  0  0  0  0  0  0  0
    3.4064    2.1326    5.8676 H   0  0  0  0  0  0  0  0  0  0  0  0
    3.8131    1.1183    4.4170 H   0  0  0  0  0  0  0  0  0  0  0  0
    0.9087    4.3785    2.3193 H   0  0  0  0  0  0  0  0  0  0  0  0
    2.6128    4.8168    2.0283 H   0  0  0  0  0  0  0  0  0  0  0  0
    1.5083    4.0597   -0.0123 H   0  0  0  0  0  0  0  0  0  0  0  0
    2.7784    2.9079    0.4852 H   0  0  0  0  0  0  0  0  0  0  0  0
   -0.2461    2.6722    1.0320 H   0  0  0  0  0  0  0  0  0  0  0  0
    0.8994    1.4503    1.5690 H   0  0  0  0  0  0  0  0  0  0  0  0
    0.1661    2.3173   -1.2181 H   0  0  0  0  0  0  0  0  0  0  0  0
    2.7942    2.6638   -1.7860 H   0  0  0  0  0  0  0  0  0  0  0  0
    4.6886    1.7477   -2.7221 H   0  0  0  0  0  0  0  0  0  0  0  0
    4.6122   -1.7724   -4.2343 H   0  0  0  0  0  0  0  0  0  0  0  0
    5.7681   -0.4262   -3.9192 H   0  0  0  0  0  0  0  0  0  0  0  0
    4.1772    0.0262   -0.2066 H   0  0  0  0  0  0  0  0  0  0  0  0
    5.0820    1.5538   -0.4166 H   0  0  0  0  0  0  0  0  0  0  0  0
    7.5562    1.4814   -0.9663 H   0  0  0  0  0  0  0  0  0  0  0  0
    9.3306   -0.3998   -1.2513 H   0  0  0  0  0  0  0  0  0  0  0  0
    4.4243   -2.4305   -1.2240 H   0  0  0  0  0  0  0  0  0  0  0  0
    5.2962   -4.7014   -1.4773 H   0  0  0  0  0  0  0  0  0  0  0  0
    7.7431   -5.1031   -1.6422 H   0  0  0  0  0  0  0  0  0  0  0  0
    9.2860   -3.2026   -1.5384 H   0  0  0  0  0  0  0  0  0  0  0  0
    0.0221   -0.5111   -0.0796 H   0  0  0  0  0  0  0  0  0  0  0  0
   -2.4131   -1.1511    0.5365 H   0  0  0  0  0  0  0  0  0  0  0  0
   -1.2809   -2.8703   -0.5624 H   0  0  0  0  0  0  0  0  0  0  0  0
   -1.0314   -4.3324   -2.6070 H   0  0  0  0  0  0  0  0  0  0  0  0
   -2.1261   -3.6938   -4.7395 H   0  0  0  0  0  0  0  0  0  0  0  0
   -3.4477   -1.6470   -4.8661 H   0  0  0  0  0  0  0  0  0  0  0  0
   -3.6719   -0.2503   -2.8682 H   0  0  0  0  0  0  0  0  0  0  0  0
   -4.4966    0.4303   -1.0599 H   0  0  0  0  0  0  0  0  0  0  0  0
   -6.7635   -1.0911   -0.3495 H   0  0  0  0  0  0  0  0  0  0  0  0
   -7.9424    0.6316    0.7769 H   0  0  0  0  0  0  0  0  0  0  0  0
   -6.5351    1.2707   -0.0646 H   0  0  0  0  0  0  0  0  0  0  0  0
   -7.3584    3.2420    1.6461 H   0  0  0  0  0  0  0  0  0  0  0  0
   -6.2761    4.0095    3.8957 H   0  0  0  0  0  0  0  0  0  0  0  0
   -5.0707    0.0042    3.2045 H   0  0  0  0  0  0  0  0  0  0  0  0
   -6.8033   -1.5498    2.6558 H   0  0  0  0  0  0  0  0  0  0  0  0
   -8.3677   -4.6129    1.8779 H   0  0  0  0  0  0  0  0  0  0  0  0
   -8.4109   -3.2927    3.1676 H   0  0  0  0  0  0  0  0  0  0  0  0
   -9.7203   -3.4570    1.9694 H   0  0  0  0  0  0  0  0  0  0  0  0
    2.9753    5.2042    4.3000 H   0  0  0  0  0  0  0  0  0  0  0  0
    4.6711    4.6634    4.1787 H   0  0  0  0  0  0  0  0  0  0  0  0
  1  2  1  0
  2  3  2  3
  3  4  1  0
  4  5  1  0
  5  6  1  0
  6  7  1  0
  7  8  1  0
  8  9  2  0
  8 10  1  0
 10 11  1  0
 11 12  1  0
 12 13  2  0
 12 14  1  0
 11 15  1  0
 15 16  1  0
 16 17  2  0
 17 18  1  0
 18 19  1  0
 19 20  2  0
 20 21  1  0
 21 22  2  0
 22 23  1  0
 23 24  2  0
  7 25  1  0
 25 26  1  0
 26 27  2  0
 26 28  1  0
 28 29  1  0
 29 30  2  0
 30 31  1  0
 31 32  2  0
 32 33  1  0
 33 34  2  0
 28 35  1  0
 35 36  1  0
 36 37  2  0
 36 38  1  0
 38 39  1  0
 39 40  1  0
 40 41  1  0
 41 42  1  0
 42 43  2  0
 43 44  1  0
 38 45  1  0
 45 46  1  0
 46 47  2  0
 46 48  1  0
  2 49  1  0
 20 16  1  0
 34 29  1  0
 44 40  2  0
 24 19  1  0
  1 50  1  0
  1 51  1  0
  4 52  1  0
  4 53  1  0
  5 54  1  0
  5 55  1  0
  6 56  1  0
  6 57  1  0
  7 58  1  6
 10 59  1  0
 11 60  1  6
 14 61  1  0
 14 62  1  0
 15 63  1  0
 15 64  1  0
 17 65  1  0
 18 66  1  0
 21 67  1  0
 22 68  1  0
 23 69  1  0
 24 70  1  0
 25 71  1  0
 28 72  1  1
 30 73  1  0
 31 74  1  0
 32 75  1  0
 33 76  1  0
 34 77  1  0
 35 78  1  0
 38 79  1  6
 39 80  1  0
 39 81  1  0
 41 82  1  0
 42 83  1  0
 44 84  1  0
 45 85  1  0
 48 86  1  0
 48 87  1  0
 48 88  1  0
 49 89  1  0
 49 90  1  0
M  END
>  <Ligand ID>  (1) 
LIG0001401

>  <Ligand>  (1) 
CHEMBL317228

>  <SMILES>  (1) 
NC(=NCCC[C@@H](C(=O)N[C@H](C(=O)N)Cc1c[nH]c2c1cccc2)NC(=O)[C@H](c1ccccc1)NC(=O)[C@H](Cc1[nH]cnc1)NC(=O)C)N

>  <CID>  (1) 
11039662.0

>  <ChEMBL ID>  (1) 
nan

>  <InChiKey>  (1) 
YXCLDFLLWJXJPD-LJWNLINESA-N

>  <InChi>  (1) 
InChI=1S/C33H41N11O5/c1-19(45)41-27(15-22-17-37-18-40-22)31(48)44-28(20-8-3-2-4-9-20)32(49)42-25(12-7-13-38-33(35)36)30(47)43-26(29(34)46)14-21-16-39-24-11-6-5-10-23(21)24/h2-6,8-11,16-18,25-28,39H,7,12-15H2,1H3,(H2,34,46)(H,37,40)(H,41,45)(H,42,49)(H,43,47)(H,44,48)(H4,35,36,38)/t25-,26-,27-,28-/m0/s1

>  <IUPAC Name>  (1) 
(2S)-2-[[(2S)-2-[[(2S)-2-acetamido-3-(1H-imidazol-5-yl)propanoyl]amino]-2-phenylacetyl]amino]-N-[(2S)-1-amino-3-(1H-indol-3-yl)-1-oxopropan-2-yl]-5-(diaminomethylideneamino)pentanamide

$$$$
