
     RDKit          3D

 56 59  0  0  0  0  0  0  0  0999 V2000
    2.3505   -1.9615    2.5386 O   0  0  0  0  0  0  0  0  0  0  0  0
    2.2259   -1.0216    1.7035 C   0  0  0  0  0  0  0  0  0  0  0  0
    3.0943    0.1239    1.8651 C   0  0  0  0  0  0  0  0  0  0  0  0
    3.9681    0.1293    2.9327 C   0  0  0  0  0  0  0  0  0  0  0  0
    4.8504    1.1927    3.1553 C   0  0  0  0  0  0  0  0  0  0  0  0
    4.8700    2.2907    2.2915 C   0  0  0  0  0  0  0  0  0  0  0  0
    3.9914    2.2806    1.2212 C   0  0  0  0  0  0  0  0  0  0  0  0
    3.1284    1.2117    1.0268 C   0  0  0  0  0  0  0  0  0  0  0  0
    1.2681   -1.1361    0.6795 O   0  0  0  0  0  0  0  0  0  0  0  0
    0.5215   -2.3015    0.6535 C   0  0  0  0  0  0  0  0  0  0  0  0
    0.6013   -3.0912   -0.6383 C   0  0  0  0  0  0  0  0  0  0  0  0
   -0.3524   -4.2366   -0.2823 C   0  0  0  0  0  0  0  0  0  0  0  0
   -1.3017   -3.6774    0.7912 C   0  0  0  0  0  0  0  0  0  0  0  0
   -0.9755   -2.1659    0.6628 C   0  0  0  0  0  0  0  0  0  0  0  0
   -1.3404   -1.8152   -0.7246 C   0  0  0  0  0  0  0  0  0  0  0  0
   -0.1470   -2.2224   -1.5864 C   0  0  0  0  0  0  0  0  0  0  0  0
    0.4659   -0.9482   -1.9988 C   0  0  0  0  0  0  0  0  0  0  0  0
   -0.5535    0.1052   -1.9326 N   0  0  0  0  0  0  0  0  0  0  0  0
   -1.5687   -0.3738   -1.0304 C   0  0  0  0  0  0  0  0  0  0  0  0
   -0.0074    1.3273   -1.4613 C   0  0  0  0  0  0  0  0  0  0  0  0
   -0.8443    2.5553   -1.5205 C   0  0  0  0  0  0  0  0  0  0  0  0
   -2.0984    2.5880   -0.7652 C   0  0  0  0  0  0  0  0  0  0  0  0
   -3.3469    2.2796   -1.2473 C   0  0  0  0  0  0  0  0  0  0  0  0
   -4.4795    2.3517   -0.4504 C   0  0  0  0  0  0  0  0  0  0  0  0
   -4.3971    2.7447    0.8880 C   0  0  0  0  0  0  0  0  0  0  0  0
   -3.1318    3.0589    1.3818 C   0  0  0  0  0  0  0  0  0  0  0  0
   -2.0119    2.9834    0.5794 C   0  0  0  0  0  0  0  0  0  0  0  0
    0.6864    0.0000    0.0000 Cl  0  0  0  0  0  0  0  0  0  0  0  0
    4.0200   -0.6851    3.6546 H   0  0  0  0  0  0  0  0  0  0  0  0
    5.5170    1.1514    4.0047 H   0  0  0  0  0  0  0  0  0  0  0  0
    5.5417    3.1219    2.4448 H   0  0  0  0  0  0  0  0  0  0  0  0
    3.9601    3.1175    0.5057 H   0  0  0  0  0  0  0  0  0  0  0  0
    2.4819    1.2546    0.1899 H   0  0  0  0  0  0  0  0  0  0  0  0
    0.8099   -3.0111    1.4768 H   0  0  0  0  0  0  0  0  0  0  0  0
    1.5847   -3.4289   -0.9222 H   0  0  0  0  0  0  0  0  0  0  0  0
    0.1528   -5.1067    0.1395 H   0  0  0  0  0  0  0  0  0  0  0  0
   -0.9544   -4.4825   -1.1942 H   0  0  0  0  0  0  0  0  0  0  0  0
   -2.3546   -3.8690    0.4928 H   0  0  0  0  0  0  0  0  0  0  0  0
   -1.0337   -4.0149    1.7968 H   0  0  0  0  0  0  0  0  0  0  0  0
   -1.4052   -1.5802    1.4681 H   0  0  0  0  0  0  0  0  0  0  0  0
   -2.1732   -2.4725   -1.0651 H   0  0  0  0  0  0  0  0  0  0  0  0
   -0.4568   -2.8645   -2.4539 H   0  0  0  0  0  0  0  0  0  0  0  0
    0.6676   -1.0295   -3.1124 H   0  0  0  0  0  0  0  0  0  0  0  0
    1.4236   -0.6674   -1.5711 H   0  0  0  0  0  0  0  0  0  0  0  0
   -2.5292   -0.3551   -1.6358 H   0  0  0  0  0  0  0  0  0  0  0  0
   -1.7210    0.2089   -0.1277 H   0  0  0  0  0  0  0  0  0  0  0  0
    0.1925    1.1684   -0.3438 H   0  0  0  0  0  0  0  0  0  0  0  0
    0.9831    1.5761   -1.9106 H   0  0  0  0  0  0  0  0  0  0  0  0
   -1.1020    2.8124   -2.6046 H   0  0  0  0  0  0  0  0  0  0  0  0
   -0.1596    3.3917   -1.1400 H   0  0  0  0  0  0  0  0  0  0  0  0
   -3.4139    1.9707   -2.2982 H   0  0  0  0  0  0  0  0  0  0  0  0
   -5.4550    2.1037   -0.8499 H   0  0  0  0  0  0  0  0  0  0  0  0
   -5.2709    2.8056    1.5212 H   0  0  0  0  0  0  0  0  0  0  0  0
   -3.0466    3.3715    2.4357 H   0  0  0  0  0  0  0  0  0  0  0  0
   -1.0380    3.2414    1.0168 H   0  0  0  0  0  0  0  0  0  0  0  0
   -0.6864    0.0000    0.0000 H   0  0  0  0  0  0  0  0  0  0  0  0
  1  2  2  0
  2  3  1  0
  3  4  2  0
  4  5  1  0
  5  6  2  0
  6  7  1  0
  7  8  2  0
  2  9  1  0
  9 10  1  0
 10 11  1  0
 11 12  1  0
 12 13  1  0
 13 14  1  0
 14 15  1  0
 15 16  1  0
 16 17  1  0
 17 18  1  0
 18 19  1  0
 18 20  1  0
 20 21  1  0
 21 22  1  0
 22 23  2  0
 23 24  1  0
 24 25  2  0
 25 26  1  0
 26 27  2  0
  8  3  1  0
 14 10  1  0
 19 15  1  0
 27 22  1  0
 16 11  1  0
  4 29  1  0
  5 30  1  0
  6 31  1  0
  7 32  1  0
  8 33  1  0
 10 34  1  0
 11 35  1  0
 12 36  1  0
 12 37  1  0
 13 38  1  0
 13 39  1  0
 14 40  1  0
 15 41  1  0
 16 42  1  0
 17 43  1  0
 17 44  1  0
 19 45  1  0
 19 46  1  0
 20 47  1  0
 20 48  1  0
 21 49  1  0
 21 50  1  0
 23 51  1  0
 24 52  1  0
 25 53  1  0
 26 54  1  0
 27 55  1  0
 28 56  1  0
M  END
>  <Ligand ID>  (1) 
LIG0003023

>  <Ligand>  (1) 
MLS000699610

>  <SMILES>  (1) 
O=C(c1ccccc1)OC1C2CCC1C1C2CN(C1)CCc1ccccc1.Cl

>  <CID>  (1) 
15945758.0

>  <ChEMBL ID>  (1) 
nan

>  <InChiKey>  (1) 
LYPABTROVHADGZ-UHFFFAOYSA-N

>  <InChi>  (1) 
InChI=1S/C24H27NO2.ClH/c26-24(18-9-5-2-6-10-18)27-23-19-11-12-20(23)22-16-25(15-21(19)22)14-13-17-7-3-1-4-8-17;/h1-10,19-23H,11-16H2;1H

>  <IUPAC Name>  (1) 
[4-(2-phenylethyl)-4-azatricyclo[5.2.1.02,6]decan-10-yl] benzoate;hydrochloride

$$$$
