
     RDKit          3D

139141  0  0  0  0  0  0  0  0999 V2000
   -7.8258    0.4226   -2.0556 C   0  0  0  0  0  0  0  0  0  0  0  0
   -7.1146    0.7296   -0.7794 C   0  0  0  0  0  0  0  0  0  0  0  0
   -6.1472   -0.3888   -0.3582 C   0  0  1  0  0  0  0  0  0  0  0  0
   -5.5152    0.0820    0.9212 C   0  0  2  0  0  0  0  0  0  0  0  0
   -4.8483    1.3247    0.5796 N   0  0  0  0  0  0  0  0  0  0  0  0
   -5.2266    2.6526    0.8687 C   0  0  0  0  0  0  0  0  0  0  0  0
   -6.2903    2.8369    1.4304 O   0  0  0  0  0  0  0  0  0  0  0  0
   -4.2708    3.7861    0.4527 C   0  0  1  0  0  0  0  0  0  0  0  0
   -3.1017    3.0279   -0.0462 N   0  0  0  0  0  0  0  0  0  0  0  0
   -2.1184    2.6424    0.9010 C   0  0  0  0  0  0  0  0  0  0  0  0
   -2.2538    3.0888    2.0450 O   0  0  0  0  0  0  0  0  0  0  0  0
   -0.9687    1.7347    0.5527 C   0  0  0  0  0  0  0  0  0  0  0  0
   -0.3383    1.3601    1.8787 C   0  0  0  0  0  0  0  0  0  0  0  0
    0.8310    0.0425    1.8438 S   0  0  0  0  0  0  0  0  0  0  0  0
    2.5722    0.3510    0.7829 S   0  0  0  0  0  0  0  0  0  0  0  0
    2.4857   -0.1656   -0.9238 C   0  0  0  0  0  0  0  0  0  0  0  0
    2.2665   -1.6136   -1.1668 C   0  0  2  0  0  0  0  0  0  0  0  0
    0.9265   -2.0422   -0.7141 N   0  0  0  0  0  0  0  0  0  0  0  0
    0.0968   -2.8550   -1.5999 C   0  0  0  0  0  0  0  0  0  0  0  0
    0.7092   -3.1660   -2.6417 O   0  0  0  0  0  0  0  0  0  0  0  0
   -1.2787   -3.2467   -1.2818 C   0  0  1  0  0  0  0  0  0  0  0  0
   -1.8156   -2.7082   -0.0500 N   0  0  0  0  0  0  0  0  0  0  0  0
   -2.5970   -3.5106    0.8800 C   0  0  0  0  0  0  0  0  0  0  0  0
   -2.6693   -4.7028    0.5599 O   0  0  0  0  0  0  0  0  0  0  0  0
   -3.2155   -2.8811    2.0893 C   0  0  1  0  0  0  0  0  0  0  0  0
   -4.4508   -2.1690    1.6658 N   0  0  0  0  0  0  0  0  0  0  0  0
   -4.4303   -0.7787    1.4165 C   0  0  0  0  0  0  0  0  0  0  0  0
   -3.3289   -0.2321    1.6535 O   0  0  0  0  0  0  0  0  0  0  0  0
   -3.5342   -3.8473    3.1390 C   0  0  0  0  0  0  0  0  0  0  0  0
   -4.4992   -4.9346    2.8162 C   0  0  0  0  0  0  0  0  0  0  0  0
   -4.6814   -5.8099    4.0385 C   0  0  0  0  0  0  0  0  0  0  0  0
   -4.1435   -5.5319    5.1369 O   0  0  0  0  0  0  0  0  0  0  0  0
   -5.4774   -6.9894    3.9958 N   0  0  0  0  0  0  0  0  0  0  0  0
   -2.2157   -2.8854   -2.4327 C   0  0  0  0  0  0  0  0  0  0  0  0
   -1.9382   -3.5295   -3.7006 C   0  0  0  0  0  0  0  0  0  0  0  0
   -1.0731   -4.3982   -3.9541 O   0  0  0  0  0  0  0  0  0  0  0  0
   -2.7515   -3.1292   -4.8293 N   0  0  0  0  0  0  0  0  0  0  0  0
    3.2407   -2.5119   -0.5109 C   0  0  0  0  0  0  0  0  0  0  0  0
    2.7455   -3.3429    0.3262 O   0  0  0  0  0  0  0  0  0  0  0  0
    4.6270   -2.5616   -0.7008 N   0  0  0  0  0  0  0  0  0  0  0  0
    5.3363   -3.6123    0.0682 C   0  0  0  0  0  0  0  0  0  0  0  0
    4.8499   -4.9701   -0.3128 C   0  0  0  0  0  0  0  0  0  0  0  0
    4.7335   -5.7782    0.9514 C   0  0  0  0  0  0  0  0  0  0  0  0
    4.6261   -4.7828    2.0729 C   0  0  0  0  0  0  0  0  0  0  0  0
    5.1095   -3.4680    1.5468 C   0  0  0  0  0  0  0  0  0  0  0  0
    5.4220   -1.6910   -1.5292 C   0  0  0  0  0  0  0  0  0  0  0  0
    5.9772   -0.5516   -0.7381 C   0  0  0  0  0  0  0  0  0  0  0  0
    5.6845   -0.5565    0.4960 O   0  0  0  0  0  0  0  0  0  0  0  0
    6.7778    0.4738   -1.3028 N   0  0  0  0  0  0  0  0  0  0  0  0
    7.2344    1.5119   -0.3700 C   0  0  2  0  0  0  0  0  0  0  0  0
    6.8924    2.8646   -0.8026 C   0  0  0  0  0  0  0  0  0  0  0  0
    7.1757    3.9075   -0.1251 O   0  0  0  0  0  0  0  0  0  0  0  0
    6.2004    3.1451   -2.0396 N   0  0  0  0  0  0  0  0  0  0  0  0
    5.9509    4.5540   -2.3024 C   0  0  0  0  0  0  0  0  0  0  0  0
    7.2182    5.3215   -2.3862 C   0  0  0  0  0  0  0  0  0  0  0  0
    8.3606    4.7916   -2.2620 O   0  0  0  0  0  0  0  0  0  0  0  0
    7.1744    6.7083   -2.6162 N   0  0  0  0  0  0  0  0  0  0  0  0
    8.7377    1.2865   -0.2232 C   0  0  0  0  0  0  0  0  0  0  0  0
    9.3656    2.2690    0.7110 C   0  0  0  0  0  0  0  0  0  0  0  0
    8.7536    2.1775    2.1094 C   0  0  0  0  0  0  0  0  0  0  0  0
   10.8343    1.8814    0.8712 C   0  0  0  0  0  0  0  0  0  0  0  0
   -4.8233    4.6516   -0.5995 C   0  0  0  0  0  0  0  0  0  0  0  0
   -6.0843    5.3455   -0.2483 C   0  0  0  0  0  0  0  0  0  0  0  0
   -7.2852    4.7518   -0.5072 C   0  0  0  0  0  0  0  0  0  0  0  0
   -8.4897    5.3843   -0.2008 C   0  0  0  0  0  0  0  0  0  0  0  0
   -8.4272    6.6273    0.3728 C   0  0  0  0  0  0  0  0  0  0  0  0
   -7.2468    7.2581    0.6493 C   0  0  0  0  0  0  0  0  0  0  0  0
   -6.0575    6.6198    0.3394 C   0  0  0  0  0  0  0  0  0  0  0  0
   -9.6157    7.3037    0.6992 O   0  0  0  0  0  0  0  0  0  0  0  0
   -6.8972   -1.6637   -0.2914 C   0  0  0  0  0  0  0  0  0  0  0  0
   -8.0597    1.3453   -2.6236 H   0  0  0  0  0  0  0  0  0  0  0  0
   -7.3207   -0.2871   -2.7153 H   0  0  0  0  0  0  0  0  0  0  0  0
   -8.8148   -0.0279   -1.7905 H   0  0  0  0  0  0  0  0  0  0  0  0
   -6.4331    1.5926   -0.9973 H   0  0  0  0  0  0  0  0  0  0  0  0
   -7.7961    1.0249    0.0238 H   0  0  0  0  0  0  0  0  0  0  0  0
   -5.4052   -0.4568   -1.1772 H   0  0  0  0  0  0  0  0  0  0  0  0
   -6.2663    0.3042    1.6805 H   0  0  0  0  0  0  0  0  0  0  0  0
   -3.9692    1.2319    0.0345 H   0  0  0  0  0  0  0  0  0  0  0  0
   -3.9914    4.3410    1.3510 H   0  0  0  0  0  0  0  0  0  0  0  0
   -2.9448    2.7650   -1.0055 H   0  0  0  0  0  0  0  0  0  0  0  0
   -0.2341    2.2780   -0.0778 H   0  0  0  0  0  0  0  0  0  0  0  0
   -1.3994    0.8453    0.0695 H   0  0  0  0  0  0  0  0  0  0  0  0
   -1.1619    1.0915    2.6068 H   0  0  0  0  0  0  0  0  0  0  0  0
    0.0685    2.3191    2.3147 H   0  0  0  0  0  0  0  0  0  0  0  0
    3.3412    0.2470   -1.4831 H   0  0  0  0  0  0  0  0  0  0  0  0
    1.5859    0.3611   -1.3888 H   0  0  0  0  0  0  0  0  0  0  0  0
    2.3713   -1.8105   -2.2645 H   0  0  0  0  0  0  0  0  0  0  0  0
    0.5072   -1.8361    0.1724 H   0  0  0  0  0  0  0  0  0  0  0  0
   -1.3144   -4.3682   -1.1777 H   0  0  0  0  0  0  0  0  0  0  0  0
   -1.6587   -1.7522    0.2382 H   0  0  0  0  0  0  0  0  0  0  0  0
   -2.4556   -2.1264    2.4123 H   0  0  0  0  0  0  0  0  0  0  0  0
   -5.3454   -2.6362    1.5462 H   0  0  0  0  0  0  0  0  0  0  0  0
   -2.5561   -4.3108    3.4818 H   0  0  0  0  0  0  0  0  0  0  0  0
   -3.9079   -3.2581    4.0362 H   0  0  0  0  0  0  0  0  0  0  0  0
   -5.5012   -4.5633    2.5590 H   0  0  0  0  0  0  0  0  0  0  0  0
   -4.0875   -5.6100    2.0418 H   0  0  0  0  0  0  0  0  0  0  0  0
   -6.5032   -6.9745    3.8351 H   0  0  0  0  0  0  0  0  0  0  0  0
   -4.9321   -7.8925    4.1401 H   0  0  0  0  0  0  0  0  0  0  0  0
   -3.2556   -3.1603   -2.1128 H   0  0  0  0  0  0  0  0  0  0  0  0
   -2.2541   -1.7519   -2.4991 H   0  0  0  0  0  0  0  0  0  0  0  0
   -2.4166   -2.4888   -5.5598 H   0  0  0  0  0  0  0  0  0  0  0  0
   -3.7137   -3.4966   -4.9140 H   0  0  0  0  0  0  0  0  0  0  0  0
    6.4232   -3.5451   -0.1716 H   0  0  0  0  0  0  0  0  0  0  0  0
    3.9043   -4.9521   -0.9000 H   0  0  0  0  0  0  0  0  0  0  0  0
    5.6365   -5.4677   -0.9494 H   0  0  0  0  0  0  0  0  0  0  0  0
    3.8392   -6.4418    0.9198 H   0  0  0  0  0  0  0  0  0  0  0  0
    5.6332   -6.4268    1.0662 H   0  0  0  0  0  0  0  0  0  0  0  0
    5.2849   -5.1354    2.9110 H   0  0  0  0  0  0  0  0  0  0  0  0
    3.6188   -4.7516    2.5001 H   0  0  0  0  0  0  0  0  0  0  0  0
    6.0956   -3.2472    2.0258 H   0  0  0  0  0  0  0  0  0  0  0  0
    4.3931   -2.6666    1.8148 H   0  0  0  0  0  0  0  0  0  0  0  0
    6.3215   -2.2764   -1.8584 H   0  0  0  0  0  0  0  0  0  0  0  0
    4.9014   -1.2895   -2.4138 H   0  0  0  0  0  0  0  0  0  0  0  0
    7.0123    0.4758   -2.3093 H   0  0  0  0  0  0  0  0  0  0  0  0
    6.8069    1.3133    0.6344 H   0  0  0  0  0  0  0  0  0  0  0  0
    5.9188    2.3745   -2.6707 H   0  0  0  0  0  0  0  0  0  0  0  0
    5.3007    5.0270   -1.5629 H   0  0  0  0  0  0  0  0  0  0  0  0
    5.4423    4.6483   -3.2968 H   0  0  0  0  0  0  0  0  0  0  0  0
    6.7596    7.3395   -1.8912 H   0  0  0  0  0  0  0  0  0  0  0  0
    7.5462    7.1357   -3.4967 H   0  0  0  0  0  0  0  0  0  0  0  0
    9.2392    1.3690   -1.2183 H   0  0  0  0  0  0  0  0  0  0  0  0
    8.9023    0.2696    0.1899 H   0  0  0  0  0  0  0  0  0  0  0  0
    9.3546    3.2982    0.3401 H   0  0  0  0  0  0  0  0  0  0  0  0
    9.3455    2.7837    2.8260 H   0  0  0  0  0  0  0  0  0  0  0  0
    7.6822    2.4292    2.1152 H   0  0  0  0  0  0  0  0  0  0  0  0
    8.8288    1.1084    2.4572 H   0  0  0  0  0  0  0  0  0  0  0  0
   11.4076    2.7139    1.3121 H   0  0  0  0  0  0  0  0  0  0  0  0
   10.8600    1.0352    1.5934 H   0  0  0  0  0  0  0  0  0  0  0  0
   11.2469    1.5191   -0.0871 H   0  0  0  0  0  0  0  0  0  0  0  0
   -4.0891    5.4836   -0.8142 H   0  0  0  0  0  0  0  0  0  0  0  0
   -4.9523    4.1580   -1.5883 H   0  0  0  0  0  0  0  0  0  0  0  0
   -7.4037    3.7633   -0.9635 H   0  0  0  0  0  0  0  0  0  0  0  0
   -9.4514    4.9412   -0.3902 H   0  0  0  0  0  0  0  0  0  0  0  0
   -7.1954    8.2622    1.1094 H   0  0  0  0  0  0  0  0  0  0  0  0
   -5.0853    7.0421    0.5220 H   0  0  0  0  0  0  0  0  0  0  0  0
  -10.1956    6.7909    1.3805 H   0  0  0  0  0  0  0  0  0  0  0  0
   -7.6980   -1.5990   -1.0908 H   0  0  0  0  0  0  0  0  0  0  0  0
   -7.4314   -1.8396    0.6523 H   0  0  0  0  0  0  0  0  0  0  0  0
   -6.2482   -2.4917   -0.6402 H   0  0  0  0  0  0  0  0  0  0  0  0
  1  2  1  0
  2  3  1  0
  3  4  1  0
  4  5  1  0
  5  6  1  0
  6  7  2  0
  6  8  1  0
  8  9  1  0
  9 10  1  0
 10 11  2  0
 10 12  1  0
 12 13  1  0
 13 14  1  0
 14 15  1  0
 15 16  1  0
 16 17  1  0
 17 18  1  0
 18 19  1  0
 19 20  2  0
 19 21  1  0
 21 22  1  0
 22 23  1  0
 23 24  2  0
 23 25  1  0
 25 26  1  0
 26 27  1  0
 27 28  2  0
 25 29  1  0
 29 30  1  0
 30 31  1  0
 31 32  2  0
 31 33  1  0
 21 34  1  0
 34 35  1  0
 35 36  2  0
 35 37  1  0
 17 38  1  0
 38 39  2  0
 38 40  1  0
 40 41  1  0
 41 42  1  0
 42 43  1  0
 43 44  1  0
 44 45  1  0
 40 46  1  0
 46 47  1  0
 47 48  2  0
 47 49  1  0
 49 50  1  0
 50 51  1  0
 51 52  2  0
 51 53  1  0
 53 54  1  0
 54 55  1  0
 55 56  2  0
 55 57  1  0
 50 58  1  0
 58 59  1  0
 59 60  1  0
 59 61  1  0
  8 62  1  0
 62 63  1  0
 63 64  2  0
 64 65  1  0
 65 66  2  0
 66 67  1  0
 67 68  2  0
 66 69  1  0
  3 70  1  0
 27  4  1  0
 45 41  1  0
 68 63  1  0
  1 71  1  0
  1 72  1  0
  1 73  1  0
  2 74  1  0
  2 75  1  0
  3 76  1  6
  4 77  1  1
  5 78  1  0
  8 79  1  1
  9 80  1  0
 12 81  1  0
 12 82  1  0
 13 83  1  0
 13 84  1  0
 16 85  1  0
 16 86  1  0
 17 87  1  6
 18 88  1  0
 21 89  1  1
 22 90  1  0
 25 91  1  1
 26 92  1  0
 29 93  1  0
 29 94  1  0
 30 95  1  0
 30 96  1  0
 33 97  1  0
 33 98  1  0
 34 99  1  0
 34100  1  0
 37101  1  0
 37102  1  0
 41103  1  0
 42104  1  0
 42105  1  0
 43106  1  0
 43107  1  0
 44108  1  0
 44109  1  0
 45110  1  0
 45111  1  0
 46112  1  0
 46113  1  0
 49114  1  0
 50115  1  1
 53116  1  0
 54117  1  0
 54118  1  0
 57119  1  0
 57120  1  0
 58121  1  0
 58122  1  0
 59123  1  0
 60124  1  0
 60125  1  0
 60126  1  0
 61127  1  0
 61128  1  0
 61129  1  0
 62130  1  0
 62131  1  0
 64132  1  0
 65133  1  0
 67134  1  0
 68135  1  0
 69136  1  0
 70137  1  0
 70138  1  0
 70139  1  0
M  END
>  <Ligand ID>  (1) 
LIG0001629

>  <Ligand>  (1) 
CHEMBL3353939

>  <SMILES>  (1) 
CC[C@@H]([C@@H]1NC(=O)[C@@H](NC(=O)CCSSC[C@H](NC(=O)[C@@H](NC(=O)[C@@H](NC1=O)CCC(=O)N)CC(=O)N)C(=O)N(C1CCCC1)CC(=O)N[C@H](C(=O)NCC(=O)N)CC(C)C)Cc1ccc(cc1)O)C

>  <CID>  (1) 
118719828.0

>  <ChEMBL ID>  (1) 
nan

>  <InChiKey>  (1) 
SAROBYGIPHQGGW-WRLGQHNVSA-N

>  <InChi>  (1) 
InChI=1S/C45H69N11O12S2/c1-5-25(4)39-44(67)52-29(14-15-34(46)58)41(64)53-32(20-35(47)59)42(65)54-33(23-70-69-17-16-37(61)50-31(43(66)55-39)19-26-10-12-28(57)13-11-26)45(68)56(27-8-6-7-9-27)22-38(62)51-30(18-24(2)3)40(63)49-21-36(48)60/h10-13,24-25,27,29-33,39,57H,5-9,14-23H2,1-4H3,(H2,46,58)(H2,47,59)(H2,48,60)(H,49,63)(H,50,61)(H,51,62)(H,52,67)(H,53,64)(H,54,65)(H,55,66)/t25-,29-,30-,31-,32-,33-,39-/m0/s1

>  <IUPAC Name>  (1) 
(4R,7S,10S,13S,16S)-7-(2-amino-2-oxoethyl)-N-[2-[[(2S)-1-[(2-amino-2-oxoethyl)amino]-4-methyl-1-oxopentan-2-yl]amino]-2-oxoethyl]-10-(3-amino-3-oxopropyl)-13-[(2S)-butan-2-yl]-N-cyclopentyl-16-[(4-hydroxyphenyl)methyl]-6,9,12,15,18-pentaoxo-1,2-dithia-5,8,11,14,17-pentazacycloicosane-4-carboxamide

$$$$
