
     RDKit          3D

 22 23  0  0  0  0  0  0  0  0999 V2000
   -3.6821    0.7155    0.5298 C   0  0  0  0  0  0  0  0  0  0  0  0
   -2.7979   -0.2544    0.7425 C   0  0  0  0  0  0  0  0  0  0  0  0
   -1.9892   -0.8057   -0.3891 C   0  0  0  0  0  0  0  0  0  0  0  0
   -0.5301   -0.6250   -0.1629 C   0  0  0  0  0  0  0  0  0  0  0  0
    0.2390   -1.5683    0.4847 C   0  0  0  0  0  0  0  0  0  0  0  0
    1.5920   -1.4031    0.6956 C   0  0  0  0  0  0  0  0  0  0  0  0
    2.1553   -0.2216    0.2172 C   0  0  0  0  0  0  0  0  0  0  0  0
    1.3888    0.7228   -0.4304 C   0  0  0  0  0  0  0  0  0  0  0  0
    0.0390    0.5561   -0.6398 C   0  0  0  0  0  0  0  0  0  0  0  0
    2.2420    1.7604   -0.7723 O   0  0  0  0  0  0  0  0  0  0  0  0
    3.5752    1.4475   -0.4202 C   0  0  0  0  0  0  0  0  0  0  0  0
    3.4665    0.2054    0.2858 O   0  0  0  0  0  0  0  0  0  0  0  0
   -4.2935    1.1455    1.3335 H   0  0  0  0  0  0  0  0  0  0  0  0
   -3.8299    1.1207   -0.4653 H   0  0  0  0  0  0  0  0  0  0  0  0
   -2.6670   -0.6439    1.7450 H   0  0  0  0  0  0  0  0  0  0  0  0
   -2.1647   -1.9008   -0.4644 H   0  0  0  0  0  0  0  0  0  0  0  0
   -2.3199   -0.3378   -1.3363 H   0  0  0  0  0  0  0  0  0  0  0  0
   -0.2645   -2.4795    0.8385 H   0  0  0  0  0  0  0  0  0  0  0  0
    2.1633   -2.1577    1.2041 H   0  0  0  0  0  0  0  0  0  0  0  0
   -0.5600    1.2778   -1.1376 H   0  0  0  0  0  0  0  0  0  0  0  0
    4.0193    2.1662    0.2801 H   0  0  0  0  0  0  0  0  0  0  0  0
    4.2183    1.2797   -1.3186 H   0  0  0  0  0  0  0  0  0  0  0  0
  1  2  2  0
  2  3  1  0
  3  4  1  0
  4  5  2  0
  5  6  1  0
  6  7  2  0
  7  8  1  0
  8  9  2  0
  8 10  1  0
 10 11  1  0
 11 12  1  0
  9  4  1  0
 12  7  1  0
  1 13  1  0
  1 14  1  0
  2 15  1  0
  3 16  1  0
  3 17  1  0
  5 18  1  0
  6 19  1  0
  9 20  1  0
 11 21  1  0
 11 22  1  0
M  END
>  <Ligand ID>  (1) 
LIG0002043

>  <Ligand>  (1) 
Safrole

>  <SMILES>  (1) 
C=CCc1ccc2c(c1)OCO2

>  <CID>  (1) 
5144.0

>  <ChEMBL ID>  (1) 
nan

>  <InChiKey>  (1) 
ZMQAAUBTXCXRIC-UHFFFAOYSA-N

>  <InChi>  (1) 
InChI=1S/C10H10O2/c1-2-3-8-4-5-9-10(6-8)12-7-11-9/h2,4-6H,1,3,7H2

>  <IUPAC Name>  (1) 
5-prop-2-enyl-1,3-benzodioxole

$$$$
