
     RDKit          3D

 54 58  0  0  0  0  0  0  0  0999 V2000
    7.9344   -2.1411    0.6466 F   0  0  0  0  0  0  0  0  0  0  0  0
    6.9875   -1.2807    0.1980 C   0  0  0  0  0  0  0  0  0  0  0  0
    6.1861   -1.6843   -0.8632 C   0  0  0  0  0  0  0  0  0  0  0  0
    5.2060   -0.8460   -1.3586 C   0  0  0  0  0  0  0  0  0  0  0  0
    4.9831    0.4208   -0.8229 C   0  0  0  0  0  0  0  0  0  0  0  0
    5.7929    0.7873    0.2236 C   0  0  0  0  0  0  0  0  0  0  0  0
    6.7784   -0.0321    0.7363 C   0  0  0  0  0  0  0  0  0  0  0  0
    3.9364    1.2386   -1.4303 C   0  0  0  0  0  0  0  0  0  0  0  0
    2.6197    0.9265   -0.9141 N   0  0  0  0  0  0  0  0  0  0  0  0
    2.2304    1.0791    0.4370 C   0  0  0  0  0  0  0  0  0  0  0  0
    3.0608    1.5390    1.3661 N   0  0  0  0  0  0  0  0  0  0  0  0
    2.7276    1.7011    2.6559 C   0  0  0  0  0  0  0  0  0  0  0  0
    1.4692    1.3841    3.0696 N   0  0  0  0  0  0  0  0  0  0  0  0
    0.5739    0.9143    2.1928 C   0  0  0  0  0  0  0  0  0  0  0  0
    0.9391    0.7571    0.8775 C   0  0  0  0  0  0  0  0  0  0  0  0
   -0.0099    0.2723    0.0108 C   0  0  0  0  0  0  0  0  0  0  0  0
   -1.2856   -0.0451    0.4500 C   0  0  0  0  0  0  0  0  0  0  0  0
   -1.6440    0.1131    1.7597 C   0  0  0  0  0  0  0  0  0  0  0  0
   -0.6931    0.5993    2.6297 C   0  0  0  0  0  0  0  0  0  0  0  0
   -2.3144   -0.5714   -0.4859 C   0  0  0  0  0  0  0  0  0  0  0  0
   -2.9822    0.6211   -1.0605 C   0  0  0  0  0  0  0  0  0  0  0  0
   -3.6158    1.5823   -0.3078 C   0  0  0  0  0  0  0  0  0  0  0  0
   -4.2366    2.6765   -0.8906 C   0  0  0  0  0  0  0  0  0  0  0  0
   -4.2355    2.8347   -2.2698 C   0  0  0  0  0  0  0  0  0  0  0  0
   -3.6008    1.8747   -3.0412 C   0  0  0  0  0  0  0  0  0  0  0  0
   -2.9900    0.7933   -2.4296 C   0  0  0  0  0  0  0  0  0  0  0  0
   -4.9872    4.1717   -3.0807 Cl  0  0  0  0  0  0  0  0  0  0  0  0
   -3.2447   -1.5313    0.0793 C   0  0  0  0  0  0  0  0  0  0  0  0
   -2.7738   -2.8345    0.3014 C   0  0  0  0  0  0  0  0  0  0  0  0
   -3.5867   -3.8171    0.8273 C   0  0  0  0  0  0  0  0  0  0  0  0
   -4.9019   -3.5728    1.1621 C   0  0  0  0  0  0  0  0  0  0  0  0
   -5.3797   -2.2963    0.9495 C   0  0  0  0  0  0  0  0  0  0  0  0
   -4.5566   -1.3127    0.4201 C   0  0  0  0  0  0  0  0  0  0  0  0
   -5.9735   -4.7678    1.8273 Cl  0  0  0  0  0  0  0  0  0  0  0  0
    6.3232   -2.6575   -1.3095 H   0  0  0  0  0  0  0  0  0  0  0  0
    4.6018   -1.2083   -2.1935 H   0  0  0  0  0  0  0  0  0  0  0  0
    5.6882    1.7574    0.6799 H   0  0  0  0  0  0  0  0  0  0  0  0
    7.3917    0.2980    1.5612 H   0  0  0  0  0  0  0  0  0  0  0  0
    4.0032    1.1255   -2.5237 H   0  0  0  0  0  0  0  0  0  0  0  0
    4.1513    2.3291   -1.2187 H   0  0  0  0  0  0  0  0  0  0  0  0
    1.9411    0.5623   -1.6433 H   0  0  0  0  0  0  0  0  0  0  0  0
    3.4075    2.0763    3.4105 H   0  0  0  0  0  0  0  0  0  0  0  0
    0.1803    0.1148   -1.0367 H   0  0  0  0  0  0  0  0  0  0  0  0
   -2.6118   -0.1114    2.1745 H   0  0  0  0  0  0  0  0  0  0  0  0
   -0.9291    0.7439    3.6860 H   0  0  0  0  0  0  0  0  0  0  0  0
   -1.7159   -1.0956   -1.2889 H   0  0  0  0  0  0  0  0  0  0  0  0
   -3.6420    1.5184    0.7525 H   0  0  0  0  0  0  0  0  0  0  0  0
   -4.7294    3.4201   -0.2765 H   0  0  0  0  0  0  0  0  0  0  0  0
   -3.5773    1.9617   -4.1246 H   0  0  0  0  0  0  0  0  0  0  0  0
   -2.5050    0.0649   -3.0630 H   0  0  0  0  0  0  0  0  0  0  0  0
   -1.7580   -3.1142    0.0684 H   0  0  0  0  0  0  0  0  0  0  0  0
   -3.2098   -4.8199    0.9937 H   0  0  0  0  0  0  0  0  0  0  0  0
   -6.4260   -2.0761    1.2086 H   0  0  0  0  0  0  0  0  0  0  0  0
   -4.9972   -0.3481    0.2774 H   0  0  0  0  0  0  0  0  0  0  0  0
  1  2  1  0
  2  3  2  0
  3  4  1  0
  4  5  2  0
  5  6  1  0
  6  7  2  0
  5  8  1  0
  8  9  1  0
  9 10  1  0
 10 11  2  0
 11 12  1  0
 12 13  2  0
 13 14  1  0
 14 15  2  0
 15 16  1  0
 16 17  2  0
 17 18  1  0
 18 19  2  0
 17 20  1  0
 20 21  1  0
 21 22  2  0
 22 23  1  0
 23 24  2  0
 24 25  1  0
 25 26  2  0
 24 27  1  0
 20 28  1  0
 28 29  2  0
 29 30  1  0
 30 31  2  0
 31 32  1  0
 32 33  2  0
 31 34  1  0
  7  2  1  0
 15 10  1  0
 26 21  1  0
 33 28  1  0
 19 14  1  0
  3 35  1  0
  4 36  1  0
  6 37  1  0
  7 38  1  0
  8 39  1  0
  8 40  1  0
  9 41  1  0
 12 42  1  0
 16 43  1  0
 18 44  1  0
 19 45  1  0
 20 46  1  0
 22 47  1  0
 23 48  1  0
 25 49  1  0
 26 50  1  0
 29 51  1  0
 30 52  1  0
 32 53  1  0
 33 54  1  0
M  END
>  <Ligand ID>  (1) 
LIG0005955

>  <Ligand>  (1) 
SCHEMBL17557755

>  <SMILES>  (1) 
Fc1ccc(cc1)CNc1ncnc2c1cc(cc2)C(c1ccc(cc1)Cl)c1ccc(cc1)Cl

>  <CID>  (1) 
118916228.0

>  <ChEMBL ID>  (1) 
nan

>  <InChiKey>  (1) 
RTVKXMUOVFBDMX-UHFFFAOYSA-N

>  <InChi>  (1) 
InChI=1S/C28H20Cl2FN3/c29-22-8-3-19(4-9-22)27(20-5-10-23(30)11-6-20)21-7-14-26-25(15-21)28(34-17-33-26)32-16-18-1-12-24(31)13-2-18/h1-15,17,27H,16H2,(H,32,33,34)

>  <IUPAC Name>  (1) 
6-[bis(4-chlorophenyl)methyl]-N-[(4-fluorophenyl)methyl]quinazolin-4-amine

$$$$
