
     RDKit          3D

 61 63  0  0  0  0  0  0  0  0999 V2000
   -7.7271   -0.7613    1.7389 C   0  0  0  0  0  0  0  0  0  0  0  0
   -7.2901    0.0535    0.5635 C   0  0  0  0  0  0  0  0  0  0  0  0
   -7.2185   -0.7140   -0.7163 C   0  0  0  0  0  0  0  0  0  0  0  0
   -6.2437   -1.8690   -0.6370 C   0  0  0  0  0  0  0  0  0  0  0  0
   -4.8421   -1.4255   -0.3323 C   0  0  0  0  0  0  0  0  0  0  0  0
   -4.3036   -0.4821   -1.3878 C   0  0  0  0  0  0  0  0  0  0  0  0
   -2.9161   -0.0374   -1.0961 C   0  0  0  0  0  0  0  0  0  0  0  0
   -2.2384   -0.3574    0.0532 C   0  0  0  0  0  0  0  0  0  0  0  0
   -0.9430    0.0851    0.2735 C   0  0  0  0  0  0  0  0  0  0  0  0
   -0.2748    0.8773   -0.6696 C   0  0  0  0  0  0  0  0  0  0  0  0
   -0.9761    1.1778   -1.8015 C   0  0  0  0  0  0  0  0  0  0  0  0
   -2.2841    0.7326   -2.0270 C   0  0  0  0  0  0  0  0  0  0  0  0
    1.0605    1.3289   -0.4343 N   0  0  0  0  0  0  0  0  0  0  0  0
    1.8020    0.9901    0.8014 C   0  0  1  0  0  0  0  0  0  0  0  0
    2.4419   -0.3252    0.5304 C   0  0  0  0  0  0  0  0  0  0  0  0
    3.2097   -1.0001    1.5752 C   0  0  0  0  0  0  0  0  0  0  0  0
    4.4335   -0.4725    2.1898 C   0  0  0  0  0  0  0  0  0  0  0  0
    5.6050   -0.2520    1.3597 C   0  0  0  0  0  0  0  0  0  0  0  0
    6.1576    0.8138    0.6621 C   0  0  0  0  0  0  0  0  0  0  0  0
    7.3139    0.6139    0.0225 C   0  0  0  0  0  0  0  0  0  0  0  0
    7.9274   -0.5780    0.0504 C   0  0  0  0  0  0  0  0  0  0  0  0
    6.8641   -1.6354    1.0583 S   0  0  0  0  0  0  0  0  0  0  0  0
    9.1389   -1.0842   -0.5193 C   0  0  0  0  0  0  0  0  0  0  0  0
    9.4861   -2.2765   -0.3285 O   0  0  0  0  0  0  0  0  0  0  0  0
    9.9235   -0.2447   -1.2830 O   0  0  0  0  0  0  0  0  0  0  0  0
    2.7148    2.1870    0.8338 C   0  0  0  0  0  0  0  0  0  0  0  0
    3.1605    2.2730   -0.6191 C   0  0  0  0  0  0  0  0  0  0  0  0
    1.8436    2.1254   -1.2936 C   0  0  0  0  0  0  0  0  0  0  0  0
    1.5701    2.6403   -2.4039 O   0  0  0  0  0  0  0  0  0  0  0  0
   -4.4901   -0.9553   -2.6629 O   0  0  0  0  0  0  0  0  0  0  0  0
   -8.1226   -1.7246    1.3612 H   0  0  0  0  0  0  0  0  0  0  0  0
   -6.9080   -0.8788    2.4899 H   0  0  0  0  0  0  0  0  0  0  0  0
   -8.5642   -0.2687    2.3130 H   0  0  0  0  0  0  0  0  0  0  0  0
   -8.0847    0.8403    0.4065 H   0  0  0  0  0  0  0  0  0  0  0  0
   -6.3609    0.6446    0.7437 H   0  0  0  0  0  0  0  0  0  0  0  0
   -6.9635   -0.0321   -1.5347 H   0  0  0  0  0  0  0  0  0  0  0  0
   -8.2202   -1.1208   -0.9187 H   0  0  0  0  0  0  0  0  0  0  0  0
   -6.5582   -2.5681    0.1643 H   0  0  0  0  0  0  0  0  0  0  0  0
   -6.2784   -2.4439   -1.5771 H   0  0  0  0  0  0  0  0  0  0  0  0
   -4.2082   -2.3252   -0.3021 H   0  0  0  0  0  0  0  0  0  0  0  0
   -4.8139   -0.9709    0.6743 H   0  0  0  0  0  0  0  0  0  0  0  0
   -4.9300    0.4510   -1.2959 H   0  0  0  0  0  0  0  0  0  0  0  0
   -2.7615   -0.9719    0.7810 H   0  0  0  0  0  0  0  0  0  0  0  0
   -0.4827   -0.2032    1.1866 H   0  0  0  0  0  0  0  0  0  0  0  0
   -0.5511    1.7746   -2.5758 H   0  0  0  0  0  0  0  0  0  0  0  0
   -2.8064    1.0012   -2.9539 H   0  0  0  0  0  0  0  0  0  0  0  0
    1.1085    0.9648    1.6655 H   0  0  0  0  0  0  0  0  0  0  0  0
    2.9814   -0.2573   -0.4543 H   0  0  0  0  0  0  0  0  0  0  0  0
    1.5734   -1.0196    0.2607 H   0  0  0  0  0  0  0  0  0  0  0  0
    2.5359   -1.3028    2.4575 H   0  0  0  0  0  0  0  0  0  0  0  0
    3.4987   -2.0573    1.2030 H   0  0  0  0  0  0  0  0  0  0  0  0
    4.6922   -1.2537    3.0158 H   0  0  0  0  0  0  0  0  0  0  0  0
    4.2516    0.4256    2.8594 H   0  0  0  0  0  0  0  0  0  0  0  0
    5.6319    1.7850    0.6730 H   0  0  0  0  0  0  0  0  0  0  0  0
    7.7948    1.4615   -0.5584 H   0  0  0  0  0  0  0  0  0  0  0  0
   10.8825   -0.4722   -1.5577 H   0  0  0  0  0  0  0  0  0  0  0  0
    2.0220    3.0765    0.9553 H   0  0  0  0  0  0  0  0  0  0  0  0
    3.5025    2.1856    1.5646 H   0  0  0  0  0  0  0  0  0  0  0  0
    3.8766    1.5126   -0.9200 H   0  0  0  0  0  0  0  0  0  0  0  0
    3.4990    3.3277   -0.8087 H   0  0  0  0  0  0  0  0  0  0  0  0
   -4.1419   -1.8607   -2.8183 H   0  0  0  0  0  0  0  0  0  0  0  0
  1  2  1  0
  2  3  1  0
  3  4  1  0
  4  5  1  0
  5  6  1  0
  6  7  1  0
  7  8  2  0
  8  9  1  0
  9 10  2  0
 10 11  1  0
 11 12  2  0
 10 13  1  0
 13 14  1  0
 14 15  1  0
 15 16  1  0
 16 17  1  0
 17 18  1  0
 18 19  2  0
 19 20  1  0
 20 21  2  0
 21 22  1  0
 21 23  1  0
 23 24  2  0
 23 25  1  0
 14 26  1  0
 26 27  1  0
 27 28  1  0
 28 29  2  0
  6 30  1  0
 12  7  1  0
 28 13  1  0
 22 18  1  0
  1 31  1  0
  1 32  1  0
  1 33  1  0
  2 34  1  0
  2 35  1  0
  3 36  1  0
  3 37  1  0
  4 38  1  0
  4 39  1  0
  5 40  1  0
  5 41  1  0
  6 42  1  0
  8 43  1  0
  9 44  1  0
 11 45  1  0
 12 46  1  0
 14 47  1  1
 15 48  1  0
 15 49  1  0
 16 50  1  0
 16 51  1  0
 17 52  1  0
 17 53  1  0
 19 54  1  0
 20 55  1  0
 25 56  1  0
 26 57  1  0
 26 58  1  0
 27 59  1  0
 27 60  1  0
 30 61  1  0
M  END
>  <Ligand ID>  (1) 
LIG0001870

>  <Ligand>  (1) 
SCHEMBL1310060

>  <SMILES>  (1) 
CCCCCC(c1ccc(cc1)N1[C@@H](CCCc2ccc(s2)C(=O)O)CCC1=O)O

>  <CID>  (1) 
11855868.0

>  <ChEMBL ID>  (1) 
nan

>  <InChiKey>  (1) 
WXWCSPFQIXPFLD-YMXDCFFPSA-N

>  <InChi>  (1) 
InChI=1S/C24H31NO4S/c1-2-3-4-8-21(26)17-9-11-19(12-10-17)25-18(13-16-23(25)27)6-5-7-20-14-15-22(30-20)24(28)29/h9-12,14-15,18,21,26H,2-8,13,16H2,1H3,(H,28,29)/t18-,21?/m0/s1

>  <IUPAC Name>  (1) 
5-[3-[(2S)-1-[4-(1-hydroxyhexyl)phenyl]-5-oxopyrrolidin-2-yl]propyl]thiophene-2-carboxylic acid

$$$$
