
     RDKit          3D

174179  0  0  0  0  0  0  0  0999 V2000
   -4.9480    3.9493    4.8253 N   0  0  0  0  0  0  0  0  0  0  0  0
   -4.5459    3.0236    5.8880 C   0  0  0  0  0  0  0  0  0  0  0  0
   -3.6257    2.2433    5.7543 N   0  0  0  0  0  0  0  0  0  0  0  0
   -2.5971    1.5172    5.3264 C   0  0  0  0  0  0  0  0  0  0  0  0
   -2.3968    1.1723    3.8592 C   0  0  0  0  0  0  0  0  0  0  0  0
   -2.1901    2.3595    2.9557 C   0  0  0  0  0  0  0  0  0  0  0  0
   -1.8348    1.9461    1.5610 C   0  0  2  0  0  0  0  0  0  0  0  0
   -1.6200    3.1236    0.6953 N   0  0  0  0  0  0  0  0  0  0  0  0
   -0.5585    3.0358   -0.2247 C   0  0  0  0  0  0  0  0  0  0  0  0
   -0.0785    1.7965   -0.2457 O   0  0  0  0  0  0  0  0  0  0  0  0
    0.1195    3.8914   -1.1334 C   0  0  2  0  0  0  0  0  0  0  0  0
    1.5854    4.1186   -0.7631 C   0  0  0  0  0  0  0  0  0  0  0  0
    2.2014    3.0520   -0.0009 C   0  0  0  0  0  0  0  0  0  0  0  0
    1.7636    2.4756    1.0204 O   0  0  0  0  0  0  0  0  0  0  0  0
    3.4927    2.5255   -0.4061 N   0  0  0  0  0  0  0  0  0  0  0  0
    4.2066    1.5245    0.3370 C   0  0  0  0  0  0  0  0  0  0  0  0
    5.5035    1.0529   -0.3425 C   0  0  2  0  0  0  0  0  0  0  0  0
    5.1727    0.2239   -1.4667 N   0  0  0  0  0  0  0  0  0  0  0  0
    4.6145   -1.0682   -1.2412 C   0  0  0  0  0  0  0  0  0  0  0  0
    4.5178   -1.3826   -0.0254 O   0  0  0  0  0  0  0  0  0  0  0  0
    4.1561   -2.0473   -2.2281 C   0  0  1  0  0  0  0  0  0  0  0  0
    5.1653   -2.3257   -3.2990 C   0  0  0  0  0  0  0  0  0  0  0  0
    4.6077   -3.3072   -4.2871 C   0  0  0  0  0  0  0  0  0  0  0  0
    4.9032   -4.6390   -4.2830 C   0  0  0  0  0  0  0  0  0  0  0  0
    4.3903   -5.5913   -5.1334 C   0  0  0  0  0  0  0  0  0  0  0  0
    3.4790   -5.1370   -6.0813 C   0  0  0  0  0  0  0  0  0  0  0  0
    3.1575   -3.8063   -6.1085 C   0  0  0  0  0  0  0  0  0  0  0  0
    3.6815   -2.8816   -5.2556 C   0  0  0  0  0  0  0  0  0  0  0  0
    3.7471   -3.2619   -1.4943 N   0  0  0  0  0  0  0  0  0  0  0  0
    2.3905   -3.7697   -1.6255 C   0  0  0  0  0  0  0  0  0  0  0  0
    1.6796   -3.1081   -2.3624 O   0  0  0  0  0  0  0  0  0  0  0  0
    2.0064   -5.0099   -0.8749 C   0  0  1  0  0  0  0  0  0  0  0  0
    0.6435   -5.2474   -1.3132 N   0  0  0  0  0  0  0  0  0  0  0  0
   -0.5026   -5.2816   -0.3782 C   0  0  0  0  0  0  0  0  0  0  0  0
   -0.2103   -5.2036    0.7642 O   0  0  0  0  0  0  0  0  0  0  0  0
   -1.7875   -5.4109   -1.1184 C   0  0  2  0  0  0  0  0  0  0  0  0
   -2.9265   -5.3082   -0.2046 N   0  0  0  0  0  0  0  0  0  0  0  0
   -3.7129   -4.1505   -0.3504 C   0  0  0  0  0  0  0  0  0  0  0  0
   -3.3908   -3.3580   -1.2624 O   0  0  0  0  0  0  0  0  0  0  0  0
   -4.9154   -3.7174    0.4511 C   0  0  1  0  0  0  0  0  0  0  0  0
   -5.2339   -2.3858   -0.1365 N   0  0  0  0  0  0  0  0  0  0  0  0
   -4.7014   -1.2372    0.5074 C   0  0  0  0  0  0  0  0  0  0  0  0
   -4.1509   -1.4202    1.5942 O   0  0  0  0  0  0  0  0  0  0  0  0
   -4.8360    0.1365   -0.1588 C   0  0  2  0  0  0  0  0  0  0  0  0
   -4.0547    1.1316    0.5234 N   0  0  0  0  0  0  0  0  0  0  0  0
   -2.6942    0.9375    0.9446 C   0  0  0  0  0  0  0  0  0  0  0  0
   -2.2508   -0.1962    0.7656 O   0  0  0  0  0  0  0  0  0  0  0  0
   -6.2807    0.4338   -0.1991 C   0  0  0  0  0  0  0  0  0  0  0  0
   -6.8947    0.4452    1.1676 C   0  0  0  0  0  0  0  0  0  0  0  0
   -7.3311   -0.6591    1.8498 C   0  0  0  0  0  0  0  0  0  0  0  0
   -7.8956   -0.5665    3.1203 C   0  0  0  0  0  0  0  0  0  0  0  0
   -8.0220    0.6378    3.6944 C   0  0  0  0  0  0  0  0  0  0  0  0
   -7.6106    1.8223    3.0773 C   0  0  0  0  0  0  0  0  0  0  0  0
   -7.0609    1.6642    1.8350 C   0  0  0  0  0  0  0  0  0  0  0  0
   -5.9951   -4.7004    0.3034 C   0  0  0  0  0  0  0  0  0  0  0  0
   -6.4840   -4.9367   -1.0642 C   0  0  0  0  0  0  0  0  0  0  0  0
   -5.9001   -5.9835   -1.7884 C   0  0  0  0  0  0  0  0  0  0  0  0
   -6.3151   -6.2399   -3.0733 C   0  0  0  0  0  0  0  0  0  0  0  0
   -7.2897   -5.5013   -3.6782 C   0  0  0  0  0  0  0  0  0  0  0  0
   -7.8558   -4.4784   -2.9591 C   0  0  0  0  0  0  0  0  0  0  0  0
   -7.4842   -4.1657   -1.6583 C   0  0  0  0  0  0  0  0  0  0  0  0
   -1.8996   -6.5552   -2.0036 C   0  0  0  0  0  0  0  0  0  0  0  0
   -1.7790   -7.8887   -1.4082 C   0  0  0  0  0  0  0  0  0  0  0  0
   -1.7650   -8.8673   -2.2004 O   0  0  0  0  0  0  0  0  0  0  0  0
   -1.6830   -8.0193    0.0107 N   0  0  0  0  0  0  0  0  0  0  0  0
    2.9425   -6.1206   -1.2981 C   0  0  0  0  0  0  0  0  0  0  0  0
    6.3440    0.4216    0.6791 C   0  0  0  0  0  0  0  0  0  0  0  0
    6.8555   -0.6965    0.6984 O   0  0  0  0  0  0  0  0  0  0  0  0
    6.5904    1.2650    1.8386 N   0  0  0  0  0  0  0  0  0  0  0  0
    7.3927    0.7673    2.9681 C   0  0  2  0  0  0  0  0  0  0  0  0
    6.4205    0.2846    4.0193 C   0  0  0  0  0  0  0  0  0  0  0  0
    6.7343   -0.2571    5.0775 O   0  0  0  0  0  0  0  0  0  0  0  0
    5.0322    0.4576    3.7871 O   0  0  0  0  0  0  0  0  0  0  0  0
    8.0821    2.0042    3.5160 C   0  0  0  0  0  0  0  0  0  0  0  0
    8.9223    1.6279    4.6565 C   0  0  0  0  0  0  0  0  0  0  0  0
   10.2177    1.1920    4.3801 C   0  0  0  0  0  0  0  0  0  0  0  0
   10.9970    0.8582    5.4747 C   0  0  0  0  0  0  0  0  0  0  0  0
   10.5494    0.9394    6.7775 C   0  0  0  0  0  0  0  0  0  0  0  0
    9.2630    1.3796    6.9582 C   0  0  0  0  0  0  0  0  0  0  0  0
    8.4179    1.7329    5.9367 C   0  0  0  0  0  0  0  0  0  0  0  0
   11.3006    0.6080    7.8822 O   0  0  0  0  0  0  0  0  0  0  0  0
   -0.5160    5.2304   -1.0507 N   0  0  0  0  0  0  0  0  0  0  0  0
    0.1257    6.3009   -1.7449 C   0  0  0  0  0  0  0  0  0  0  0  0
    1.1719    6.1622   -2.4266 O   0  0  0  0  0  0  0  0  0  0  0  0
   -0.4179    7.7008   -1.6927 C   0  0  2  0  0  0  0  0  0  0  0  0
   -1.5825    7.7406   -2.6337 C   0  0  0  0  0  0  0  0  0  0  0  0
   -1.3020    7.4243   -4.0264 C   0  0  0  0  0  0  0  0  0  0  0  0
   -0.9835    8.3996   -5.0024 C   0  0  0  0  0  0  0  0  0  0  0  0
   -0.7063    8.1321   -6.2951 C   0  0  0  0  0  0  0  0  0  0  0  0
   -0.7257    6.8482   -6.7239 C   0  0  0  0  0  0  0  0  0  0  0  0
   -1.0265    5.8257   -5.8613 C   0  0  0  0  0  0  0  0  0  0  0  0
   -1.2993    6.1219   -4.5756 C   0  0  0  0  0  0  0  0  0  0  0  0
   -0.4511    6.4552   -8.0486 O   0  0  0  0  0  0  0  0  0  0  0  0
    0.6609    8.6219   -2.0527 N   0  0  0  0  0  0  0  0  0  0  0  0
   -5.2748    3.0349    7.1449 N   0  0  0  0  0  0  0  0  0  0  0  0
   -5.9580    3.9033    4.6164 H   0  0  0  0  0  0  0  0  0  0  0  0
   -4.2338    4.5519    4.3853 H   0  0  0  0  0  0  0  0  0  0  0  0
   -2.5245    0.5312    5.9097 H   0  0  0  0  0  0  0  0  0  0  0  0
   -1.6060    2.0095    5.6627 H   0  0  0  0  0  0  0  0  0  0  0  0
   -3.3553    0.6419    3.5014 H   0  0  0  0  0  0  0  0  0  0  0  0
   -1.6233    0.3899    3.7937 H   0  0  0  0  0  0  0  0  0  0  0  0
   -1.3993    2.9941    3.4029 H   0  0  0  0  0  0  0  0  0  0  0  0
   -3.1218    2.9640    3.0011 H   0  0  0  0  0  0  0  0  0  0  0  0
   -0.7819    1.4904    1.6805 H   0  0  0  0  0  0  0  0  0  0  0  0
   -2.1802    3.9530    0.7099 H   0  0  0  0  0  0  0  0  0  0  0  0
    0.1635    3.6238   -2.2037 H   0  0  0  0  0  0  0  0  0  0  0  0
    2.1430    4.2215   -1.7474 H   0  0  0  0  0  0  0  0  0  0  0  0
    1.6945    5.1012   -0.2143 H   0  0  0  0  0  0  0  0  0  0  0  0
    3.8614    2.9013   -1.2637 H   0  0  0  0  0  0  0  0  0  0  0  0
    3.5605    0.6308    0.5521 H   0  0  0  0  0  0  0  0  0  0  0  0
    4.4757    1.9447    1.3197 H   0  0  0  0  0  0  0  0  0  0  0  0
    6.0163    1.9796   -0.7381 H   0  0  0  0  0  0  0  0  0  0  0  0
    5.2940    0.4722   -2.4444 H   0  0  0  0  0  0  0  0  0  0  0  0
    3.2033   -1.6429   -2.6952 H   0  0  0  0  0  0  0  0  0  0  0  0
    6.0989   -2.7292   -2.8623 H   0  0  0  0  0  0  0  0  0  0  0  0
    5.4268   -1.3661   -3.7860 H   0  0  0  0  0  0  0  0  0  0  0  0
    5.6098   -5.0062   -3.5137 H   0  0  0  0  0  0  0  0  0  0  0  0
    4.6468   -6.6350   -5.1169 H   0  0  0  0  0  0  0  0  0  0  0  0
    2.9989   -5.7584   -6.8083 H   0  0  0  0  0  0  0  0  0  0  0  0
    2.4473   -3.4661   -6.8644 H   0  0  0  0  0  0  0  0  0  0  0  0
    3.3918   -1.8241   -5.3152 H   0  0  0  0  0  0  0  0  0  0  0  0
    4.3444   -3.7944   -0.8817 H   0  0  0  0  0  0  0  0  0  0  0  0
    2.0886   -4.8958    0.2092 H   0  0  0  0  0  0  0  0  0  0  0  0
    0.4543   -5.4056   -2.2878 H   0  0  0  0  0  0  0  0  0  0  0  0
   -1.7645   -4.4518   -1.7667 H   0  0  0  0  0  0  0  0  0  0  0  0
   -3.1912   -5.9716    0.5070 H   0  0  0  0  0  0  0  0  0  0  0  0
   -4.6022   -3.5562    1.4739 H   0  0  0  0  0  0  0  0  0  0  0  0
   -5.8099   -2.2524   -0.9565 H   0  0  0  0  0  0  0  0  0  0  0  0
   -4.4114   -0.0847   -1.1600 H   0  0  0  0  0  0  0  0  0  0  0  0
   -4.4399    2.0486    0.7428 H   0  0  0  0  0  0  0  0  0  0  0  0
   -6.8772   -0.1285   -0.9220 H   0  0  0  0  0  0  0  0  0  0  0  0
   -6.3608    1.5084   -0.5598 H   0  0  0  0  0  0  0  0  0  0  0  0
   -7.2688   -1.6326    1.4151 H   0  0  0  0  0  0  0  0  0  0  0  0
   -8.2342   -1.4682    3.6366 H   0  0  0  0  0  0  0  0  0  0  0  0
   -8.4709    0.7174    4.7117 H   0  0  0  0  0  0  0  0  0  0  0  0
   -7.7123    2.7820    3.4898 H   0  0  0  0  0  0  0  0  0  0  0  0
   -6.7349    2.5760    1.3263 H   0  0  0  0  0  0  0  0  0  0  0  0
   -6.8456   -4.4555    0.9884 H   0  0  0  0  0  0  0  0  0  0  0  0
   -5.6034   -5.6839    0.6902 H   0  0  0  0  0  0  0  0  0  0  0  0
   -5.1275   -6.6086   -1.3566 H   0  0  0  0  0  0  0  0  0  0  0  0
   -5.8561   -7.0486   -3.6456 H   0  0  0  0  0  0  0  0  0  0  0  0
   -7.5703   -5.7560   -4.6951 H   0  0  0  0  0  0  0  0  0  0  0  0
   -8.6160   -3.8933   -3.4299 H   0  0  0  0  0  0  0  0  0  0  0  0
   -7.9450   -3.3419   -1.1083 H   0  0  0  0  0  0  0  0  0  0  0  0
   -2.9757   -6.5507   -2.4242 H   0  0  0  0  0  0  0  0  0  0  0  0
   -1.2451   -6.4949   -2.9166 H   0  0  0  0  0  0  0  0  0  0  0  0
   -0.7312   -7.8721    0.4470 H   0  0  0  0  0  0  0  0  0  0  0  0
   -2.5380   -8.2625    0.5690 H   0  0  0  0  0  0  0  0  0  0  0  0
    3.3443   -6.7150   -0.4464 H   0  0  0  0  0  0  0  0  0  0  0  0
    2.3360   -6.8773   -1.8908 H   0  0  0  0  0  0  0  0  0  0  0  0
    3.7990   -5.7908   -1.9015 H   0  0  0  0  0  0  0  0  0  0  0  0
    6.2450    2.2115    1.8963 H   0  0  0  0  0  0  0  0  0  0  0  0
    8.0338   -0.0734    2.7370 H   0  0  0  0  0  0  0  0  0  0  0  0
    4.3648    0.3769    4.5561 H   0  0  0  0  0  0  0  0  0  0  0  0
    8.6389    2.5469    2.7394 H   0  0  0  0  0  0  0  0  0  0  0  0
    7.3168    2.7267    3.9215 H   0  0  0  0  0  0  0  0  0  0  0  0
   10.5934    1.1220    3.3514 H   0  0  0  0  0  0  0  0  0  0  0  0
   11.9957    0.5182    5.2286 H   0  0  0  0  0  0  0  0  0  0  0  0
    8.8431    1.4751    7.9616 H   0  0  0  0  0  0  0  0  0  0  0  0
    7.4215    2.0785    6.1642 H   0  0  0  0  0  0  0  0  0  0  0  0
   11.3092   -0.3818    8.1314 H   0  0  0  0  0  0  0  0  0  0  0  0
   -1.4045    5.3594   -0.4980 H   0  0  0  0  0  0  0  0  0  0  0  0
   -0.7395    7.8826   -0.6647 H   0  0  0  0  0  0  0  0  0  0  0  0
   -2.0287    8.7632   -2.6132 H   0  0  0  0  0  0  0  0  0  0  0  0
   -2.4005    7.0392   -2.2938 H   0  0  0  0  0  0  0  0  0  0  0  0
   -0.9760    9.4055   -4.6164 H   0  0  0  0  0  0  0  0  0  0  0  0
   -0.4569    8.9041   -7.0311 H   0  0  0  0  0  0  0  0  0  0  0  0
   -1.0605    4.7784   -6.1541 H   0  0  0  0  0  0  0  0  0  0  0  0
   -1.5443    5.3308   -3.8486 H   0  0  0  0  0  0  0  0  0  0  0  0
    0.1929    7.0246   -8.5629 H   0  0  0  0  0  0  0  0  0  0  0  0
    0.2425    9.4316   -2.5505 H   0  0  0  0  0  0  0  0  0  0  0  0
    1.1288    8.9665   -1.1548 H   0  0  0  0  0  0  0  0  0  0  0  0
   -5.5400    2.1303    7.6121 H   0  0  0  0  0  0  0  0  0  0  0  0
   -5.4692    3.9789    7.5136 H   0  0  0  0  0  0  0  0  0  0  0  0
  1  2  1  0
  2  3  2  3
  3  4  1  0
  4  5  1  0
  5  6  1  0
  6  7  1  0
  7  8  1  0
  8  9  1  0
  9 10  2  0
  9 11  1  0
 11 12  1  0
 12 13  1  0
 13 14  2  0
 13 15  1  0
 15 16  1  0
 16 17  1  0
 17 18  1  0
 18 19  1  0
 19 20  2  0
 19 21  1  0
 21 22  1  0
 22 23  1  0
 23 24  2  0
 24 25  1  0
 25 26  2  0
 26 27  1  0
 27 28  2  0
 21 29  1  0
 29 30  1  0
 30 31  2  0
 30 32  1  0
 32 33  1  0
 33 34  1  0
 34 35  2  0
 34 36  1  0
 36 37  1  0
 37 38  1  0
 38 39  2  0
 38 40  1  0
 40 41  1  0
 41 42  1  0
 42 43  2  0
 42 44  1  0
 44 45  1  0
 45 46  1  0
 46 47  2  0
 44 48  1  0
 48 49  1  0
 49 50  2  0
 50 51  1  0
 51 52  2  0
 52 53  1  0
 53 54  2  0
 40 55  1  0
 55 56  1  0
 56 57  2  0
 57 58  1  0
 58 59  2  0
 59 60  1  0
 60 61  2  0
 36 62  1  0
 62 63  1  0
 63 64  2  0
 63 65  1  0
 32 66  1  0
 17 67  1  0
 67 68  2  0
 67 69  1  0
 69 70  1  0
 70 71  1  0
 71 72  2  0
 71 73  1  0
 70 74  1  0
 74 75  1  0
 75 76  2  0
 76 77  1  0
 77 78  2  0
 78 79  1  0
 79 80  2  0
 78 81  1  0
 11 82  1  0
 82 83  1  0
 83 84  2  0
 83 85  1  0
 85 86  1  0
 86 87  1  0
 87 88  2  0
 88 89  1  0
 89 90  2  0
 90 91  1  0
 91 92  2  0
 90 93  1  0
 85 94  1  0
  2 95  1  0
 46  7  1  0
 54 49  1  0
 61 56  1  0
 80 75  1  0
 92 87  1  0
 28 23  1  0
  1 96  1  0
  1 97  1  0
  4 98  1  0
  4 99  1  0
  5100  1  0
  5101  1  0
  6102  1  0
  6103  1  0
  7104  1  1
  8105  1  0
 11106  1  6
 12107  1  0
 12108  1  0
 15109  1  0
 16110  1  0
 16111  1  0
 17112  1  6
 18113  1  0
 21114  1  6
 22115  1  0
 22116  1  0
 24117  1  0
 25118  1  0
 26119  1  0
 27120  1  0
 28121  1  0
 29122  1  0
 32123  1  1
 33124  1  0
 36125  1  6
 37126  1  0
 40127  1  1
 41128  1  0
 44129  1  6
 45130  1  0
 48131  1  0
 48132  1  0
 50133  1  0
 51134  1  0
 52135  1  0
 53136  1  0
 54137  1  0
 55138  1  0
 55139  1  0
 57140  1  0
 58141  1  0
 59142  1  0
 60143  1  0
 61144  1  0
 62145  1  0
 62146  1  0
 65147  1  0
 65148  1  0
 66149  1  0
 66150  1  0
 66151  1  0
 69152  1  0
 70153  1  6
 73154  1  0
 74155  1  0
 74156  1  0
 76157  1  0
 77158  1  0
 79159  1  0
 80160  1  0
 81161  1  0
 82162  1  0
 85163  1  1
 86164  1  0
 86165  1  0
 88166  1  0
 89167  1  0
 91168  1  0
 92169  1  0
 93170  1  0
 94171  1  0
 94172  1  0
 95173  1  0
 95174  1  0
M  END
>  <Ligand ID>  (1) 
LIG0005489

>  <Ligand>  (1) 
CHEMBL2370695

>  <SMILES>  (1) 
NC(=NCCC[C@@H]1NC(=O)[C@H](CC(=O)NC[C@H](NC(=O)[C@@H](Cc2ccccc2)NC(=O)[C@@H](NC(=O)[C@H](NC(=O)[C@@H](NC(=O)[C@H](NC1=O)Cc1ccccc1)Cc1ccccc1)CC(=O)N)C)C(=O)N[C@H](C(=O)O)Cc1ccc(cc1)O)NC(=O)[C@H](Cc1ccc(cc1)O)N)N

>  <CID>  (1) 
73353067.0

>  <ChEMBL ID>  (1) 
nan

>  <InChiKey>  (1) 
WVVYEOWCFKCDKB-JBVIJAINSA-N

>  <InChi>  (1) 
InChI=1S/C65H79N15O15/c1-36-55(85)74-46(29-37-12-5-2-6-13-37)61(91)80-52(63(93)79-51(64(94)95)32-41-21-25-43(82)26-22-41)35-71-54(84)34-50(75-56(86)44(66)28-40-19-23-42(81)24-20-40)62(92)73-45(18-11-27-70-65(68)69)57(87)76-47(30-38-14-7-3-8-15-38)59(89)77-48(31-39-16-9-4-10-17-39)60(90)78-49(33-53(67)83)58(88)72-36/h2-10,12-17,19-26,36,44-52,81-82H,11,18,27-35,66H2,1H3,(H2,67,83)(H,71,84)(H,72,88)(H,73,92)(H,74,85)(H,75,86)(H,76,87)(H,77,89)(H,78,90)(H,79,93)(H,80,91)(H,94,95)(H4,68,69,70)/t36-,44-,45-,46+,47+,48-,49+,50-,51-,52-/m0/s1

>  <IUPAC Name>  (1) 
(2S)-2-[[(3S,6R,9S,12R,15S,18R,21S,24S)-24-[[(2S)-2-amino-3-(4-hydroxyphenyl)propanoyl]amino]-12-(2-amino-2-oxoethyl)-6,15,18-tribenzyl-21-[3-(diaminomethylideneamino)propyl]-9-methyl-5,8,11,14,17,20,23,26-octaoxo-1,4,7,10,13,16,19,22-octazacyclohexacosane-3-carbonyl]amino]-3-(4-hydroxyphenyl)propanoic acid

$$$$
