
     RDKit          3D

 57 58  0  0  0  0  0  0  0  0999 V2000
    6.0914   -3.6554    2.1561 O   0  0  0  0  0  0  0  0  0  0  0  0
    5.0838   -3.2415    1.2728 C   0  0  0  0  0  0  0  0  0  0  0  0
    5.1851   -3.5591    0.0633 O   0  0  0  0  0  0  0  0  0  0  0  0
    3.9665   -2.4543    1.8382 C   0  0  0  0  0  0  0  0  0  0  0  0
    4.1757   -0.9891    1.6649 C   0  0  0  0  0  0  0  0  0  0  0  0
    4.2854   -0.6584    0.1889 C   0  0  0  0  0  0  0  0  0  0  0  0
    3.0553   -1.0503   -0.5229 C   0  0  0  0  0  0  0  0  0  0  0  0
    2.2446   -0.2594   -1.1916 C   0  0  0  0  0  0  0  0  0  0  0  0
    2.3706    1.1901   -1.3867 C   0  0  0  0  0  0  0  0  0  0  0  0
    1.1622    1.9433   -0.8130 C   0  0  1  0  0  0  0  0  0  0  0  0
    1.4142    3.4059   -1.0744 C   0  0  2  0  0  0  0  0  0  0  0  0
    0.9327    4.4252    0.2945 Cl  0  0  0  0  0  0  0  0  0  0  0  0
    0.6327    3.7174   -2.3169 C   0  0  0  0  0  0  0  0  0  0  0  0
   -0.5995    2.8517   -2.1214 C   0  0  2  0  0  0  0  0  0  0  0  0
   -0.0364    1.5351   -1.5850 C   0  0  2  0  0  0  0  0  0  0  0  0
   -1.1075    0.8667   -0.8667 C   0  0  0  0  0  0  0  0  0  0  0  0
   -1.5854    1.3594    0.3437 C   0  0  0  0  0  0  0  0  0  0  0  0
   -2.6187    0.7076    1.0265 C   0  0  0  0  0  0  0  0  0  0  0  0
   -3.1871   -0.4564    0.4945 C   0  0  0  0  0  0  0  0  0  0  0  0
   -2.7151   -0.9472   -0.7057 C   0  0  0  0  0  0  0  0  0  0  0  0
   -1.6963   -0.2961   -1.3692 C   0  0  0  0  0  0  0  0  0  0  0  0
   -4.2725   -1.1028    1.2565 C   0  0  0  0  0  0  0  0  0  0  0  0
   -4.7773   -2.3382    0.5349 C   0  0  0  0  0  0  0  0  0  0  0  0
   -3.7968   -1.5742    2.6286 C   0  0  0  0  0  0  0  0  0  0  0  0
   -5.4562   -0.1783    1.4561 C   0  0  0  0  0  0  0  0  0  0  0  0
   -1.2451    2.6908   -3.3221 O   0  0  0  0  0  0  0  0  0  0  0  0
    7.0514   -3.7595    1.8423 H   0  0  0  0  0  0  0  0  0  0  0  0
    2.9964   -2.8074    1.3901 H   0  0  0  0  0  0  0  0  0  0  0  0
    3.8869   -2.6377    2.9523 H   0  0  0  0  0  0  0  0  0  0  0  0
    5.1814   -0.7458    2.0996 H   0  0  0  0  0  0  0  0  0  0  0  0
    3.3826   -0.3932    2.1261 H   0  0  0  0  0  0  0  0  0  0  0  0
    4.4752    0.4077    0.0675 H   0  0  0  0  0  0  0  0  0  0  0  0
    5.1763   -1.2480   -0.1648 H   0  0  0  0  0  0  0  0  0  0  0  0
    2.7914   -2.1105   -0.4935 H   0  0  0  0  0  0  0  0  0  0  0  0
    1.3590   -0.7333   -1.6680 H   0  0  0  0  0  0  0  0  0  0  0  0
    3.3131    1.6016   -0.9920 H   0  0  0  0  0  0  0  0  0  0  0  0
    2.4198    1.4203   -2.4943 H   0  0  0  0  0  0  0  0  0  0  0  0
    1.1305    1.6997    0.2631 H   0  0  0  0  0  0  0  0  0  0  0  0
    2.5064    3.5844   -1.2231 H   0  0  0  0  0  0  0  0  0  0  0  0
    0.4141    4.7856   -2.3703 H   0  0  0  0  0  0  0  0  0  0  0  0
    1.2225    3.3377   -3.1742 H   0  0  0  0  0  0  0  0  0  0  0  0
   -1.1968    3.3116   -1.3154 H   0  0  0  0  0  0  0  0  0  0  0  0
    0.2143    0.9491   -2.5053 H   0  0  0  0  0  0  0  0  0  0  0  0
   -1.1378    2.2751    0.7612 H   0  0  0  0  0  0  0  0  0  0  0  0
   -2.9678    1.1221    1.9724 H   0  0  0  0  0  0  0  0  0  0  0  0
   -3.1495   -1.8490   -1.1267 H   0  0  0  0  0  0  0  0  0  0  0  0
   -1.3595   -0.7307   -2.3210 H   0  0  0  0  0  0  0  0  0  0  0  0
   -4.0102   -3.1420    0.5131 H   0  0  0  0  0  0  0  0  0  0  0  0
   -5.0885   -2.0026   -0.4773 H   0  0  0  0  0  0  0  0  0  0  0  0
   -5.7125   -2.6889    1.0269 H   0  0  0  0  0  0  0  0  0  0  0  0
   -2.8932   -0.9739    2.8647 H   0  0  0  0  0  0  0  0  0  0  0  0
   -3.5799   -2.6491    2.6435 H   0  0  0  0  0  0  0  0  0  0  0  0
   -4.5687   -1.3720    3.3726 H   0  0  0  0  0  0  0  0  0  0  0  0
   -6.1378   -0.6061    2.2191 H   0  0  0  0  0  0  0  0  0  0  0  0
   -5.1105    0.8362    1.7498 H   0  0  0  0  0  0  0  0  0  0  0  0
   -6.0510   -0.0377    0.5315 H   0  0  0  0  0  0  0  0  0  0  0  0
   -2.0642    3.2240   -3.4162 H   0  0  0  0  0  0  0  0  0  0  0  0
  1  2  1  0
  2  3  2  0
  2  4  1  0
  4  5  1  0
  5  6  1  0
  6  7  1  0
  7  8  2  0
  8  9  1  0
  9 10  1  0
 10 11  1  0
 11 12  1  0
 11 13  1  0
 13 14  1  0
 14 15  1  0
 15 16  1  0
 16 17  2  0
 17 18  1  0
 18 19  2  0
 19 20  1  0
 20 21  2  0
 19 22  1  0
 22 23  1  0
 22 24  1  0
 22 25  1  0
 14 26  1  0
 15 10  1  0
 21 16  1  0
  1 27  1  0
  4 28  1  0
  4 29  1  0
  5 30  1  0
  5 31  1  0
  6 32  1  0
  6 33  1  0
  7 34  1  0
  8 35  1  0
  9 36  1  0
  9 37  1  0
 10 38  1  1
 11 39  1  6
 13 40  1  0
 13 41  1  0
 14 42  1  1
 15 43  1  6
 17 44  1  0
 18 45  1  0
 20 46  1  0
 21 47  1  0
 23 48  1  0
 23 49  1  0
 23 50  1  0
 24 51  1  0
 24 52  1  0
 24 53  1  0
 25 54  1  0
 25 55  1  0
 25 56  1  0
 26 57  1  0
M  END
>  <Ligand ID>  (1) 
LIG0000683

>  <Ligand>  (1) 
SCHEMBL5241970

>  <SMILES>  (1) 
OC(=O)CCC/C=C\C[C@H]1[C@H](Cl)C[C@H]([C@@H]1c1ccc(cc1)C(C)(C)C)O

>  <CID>  (1) 
11955193.0

>  <ChEMBL ID>  (1) 
nan

>  <InChiKey>  (1) 
FLIRCOOFHPQNCZ-KDNUDLGWSA-N

>  <InChi>  (1) 
InChI=1S/C22H31ClO3/c1-22(2,3)16-12-10-15(11-13-16)21-17(18(23)14-19(21)24)8-6-4-5-7-9-20(25)26/h4,6,10-13,17-19,21,24H,5,7-9,14H2,1-3H3,(H,25,26)/b6-4-/t17-,18+,19+,21+/m0/s1

>  <IUPAC Name>  (1) 
(Z)-7-[(1R,2S,3R,5R)-2-(4-tert-butylphenyl)-5-chloro-3-hydroxycyclopentyl]hept-5-enoic acid

$$$$
