
     RDKit          3D

 27 28  0  0  0  0  0  0  0  0999 V2000
    4.6208    1.5175   -0.0892 Br  0  0  0  0  0  0  0  0  0  0  0  0
    2.9659    0.5614   -0.1877 C   0  0  0  0  0  0  0  0  0  0  0  0
    2.9836   -0.7919   -0.4942 C   0  0  0  0  0  0  0  0  0  0  0  0
    1.8047   -1.5054   -0.5716 C   0  0  0  0  0  0  0  0  0  0  0  0
    0.6233   -0.8331   -0.3364 C   0  0  0  0  0  0  0  0  0  0  0  0
    0.5774    0.5119   -0.0299 C   0  0  0  0  0  0  0  0  0  0  0  0
    1.7718    1.2359    0.0489 C   0  0  0  0  0  0  0  0  0  0  0  0
   -0.6140    1.3716    0.2483 C   0  0  0  0  0  0  0  0  0  0  0  0
   -1.3448    1.7044   -1.0323 C   0  0  0  0  0  0  0  0  0  0  0  0
   -1.5246    0.7327    1.2714 C   0  0  0  0  0  0  0  0  0  0  0  0
   -2.1765   -0.4487    0.8318 N   0  0  0  0  0  0  0  0  0  0  0  0
   -1.3959   -1.6355    0.8307 C   0  0  0  0  0  0  0  0  0  0  0  0
   -0.5720   -1.7223   -0.4524 C   0  0  0  0  0  0  0  0  0  0  0  0
    3.9069   -1.3294   -0.6807 H   0  0  0  0  0  0  0  0  0  0  0  0
    1.7574   -2.5623   -0.8067 H   0  0  0  0  0  0  0  0  0  0  0  0
    1.7690    2.2845    0.2856 H   0  0  0  0  0  0  0  0  0  0  0  0
   -0.2714    2.3357    0.6806 H   0  0  0  0  0  0  0  0  0  0  0  0
   -1.7079    2.7527   -1.0773 H   0  0  0  0  0  0  0  0  0  0  0  0
   -2.1690    0.9793   -1.2218 H   0  0  0  0  0  0  0  0  0  0  0  0
   -0.6381    1.5792   -1.8920 H   0  0  0  0  0  0  0  0  0  0  0  0
   -2.2416    1.4901    1.6195 H   0  0  0  0  0  0  0  0  0  0  0  0
   -0.8986    0.4775    2.1492 H   0  0  0  0  0  0  0  0  0  0  0  0
   -2.9282   -0.3635    0.1503 H   0  0  0  0  0  0  0  0  0  0  0  0
   -2.0241   -2.5412    0.8542 H   0  0  0  0  0  0  0  0  0  0  0  0
   -0.7471   -1.6240    1.7263 H   0  0  0  0  0  0  0  0  0  0  0  0
   -0.2730   -2.7845   -0.5669 H   0  0  0  0  0  0  0  0  0  0  0  0
   -1.2540   -1.3929   -1.2580 H   0  0  0  0  0  0  0  0  0  0  0  0
  1  2  1  0
  2  3  2  0
  3  4  1  0
  4  5  2  0
  5  6  1  0
  6  7  2  0
  6  8  1  0
  8  9  1  0
  8 10  1  0
 10 11  1  0
 11 12  1  0
 12 13  1  0
  7  2  1  0
 13  5  1  0
  3 14  1  0
  4 15  1  0
  7 16  1  0
  8 17  1  0
  9 18  1  0
  9 19  1  0
  9 20  1  0
 10 21  1  0
 10 22  1  0
 11 23  1  0
 12 24  1  0
 12 25  1  0
 13 26  1  0
 13 27  1  0
M  END
>  <Ligand ID>  (1) 
LIG0004018

>  <Ligand>  (1) 
CHEMBL440752

>  <SMILES>  (1) 
Brc1ccc2c(c1)C(C)CNCC2

>  <CID>  (1) 
10331841.0

>  <ChEMBL ID>  (1) 
nan

>  <InChiKey>  (1) 
KRBZRTWDEJCQIL-UHFFFAOYSA-N

>  <InChi>  (1) 
InChI=1S/C11H14BrN/c1-8-7-13-5-4-9-2-3-10(12)6-11(8)9/h2-3,6,8,13H,4-5,7H2,1H3

>  <IUPAC Name>  (1) 
7-bromo-5-methyl-2,3,4,5-tetrahydro-1H-3-benzazepine

$$$$
