
     RDKit          3D

 37 38  0  0  0  0  0  0  0  0999 V2000
   -2.7650   -3.4364    0.6168 N   0  0  0  0  0  0  0  0  0  0  0  0
   -3.1593   -2.6999   -0.1577 C   0  0  0  0  0  0  0  0  0  0  0  0
   -3.6531   -1.7670   -1.1697 C   0  0  0  0  0  0  0  0  0  0  0  0
   -4.4076   -0.6452   -0.5694 C   0  0  0  0  0  0  0  0  0  0  0  0
   -5.8031   -0.7325   -0.6323 C   0  0  0  0  0  0  0  0  0  0  0  0
   -6.5037    0.3038   -0.0560 C   0  0  0  0  0  0  0  0  0  0  0  0
   -5.8920    1.3754    0.5531 C   0  0  0  0  0  0  0  0  0  0  0  0
   -4.5067    1.4566    0.6122 C   0  0  0  0  0  0  0  0  0  0  0  0
   -3.7950    0.4262    0.0392 C   0  0  0  0  0  0  0  0  0  0  0  0
   -2.3404    0.4857    0.0680 C   0  0  0  0  0  0  0  0  0  0  0  0
   -1.1229    0.5544    0.0896 C   0  0  0  0  0  0  0  0  0  0  0  0
    0.3116    0.6504    0.1111 C   0  0  0  0  0  0  0  0  0  0  0  0
    1.0392    0.8552   -1.0455 C   0  0  0  0  0  0  0  0  0  0  0  0
    2.3950    0.9455   -1.0148 C   0  0  0  0  0  0  0  0  0  0  0  0
    3.0849    0.8343    0.1760 C   0  0  0  0  0  0  0  0  0  0  0  0
    2.3579    0.6285    1.3434 C   0  0  0  0  0  0  0  0  0  0  0  0
    0.9798    0.5336    1.3360 C   0  0  0  0  0  0  0  0  0  0  0  0
    4.5800    0.9250    0.2367 C   0  0  0  0  0  0  0  0  0  0  0  0
    5.1326   -0.4671    0.0741 C   0  0  0  0  0  0  0  0  0  0  0  0
    6.6102   -0.4917    0.1196 C   0  0  0  0  0  0  0  0  0  0  0  0
    7.2787    0.5710    0.2824 O   0  0  0  0  0  0  0  0  0  0  0  0
    7.2237   -1.7335   -0.0248 O   0  0  0  0  0  0  0  0  0  0  0  0
   -2.7448   -1.3151   -1.6613 H   0  0  0  0  0  0  0  0  0  0  0  0
   -4.1810   -2.3213   -1.9473 H   0  0  0  0  0  0  0  0  0  0  0  0
   -6.2775   -1.5828   -1.1165 H   0  0  0  0  0  0  0  0  0  0  0  0
   -7.5850    0.2503   -0.0979 H   0  0  0  0  0  0  0  0  0  0  0  0
   -6.5457    2.1305    0.9712 H   0  0  0  0  0  0  0  0  0  0  0  0
   -4.0741    2.3106    1.0970 H   0  0  0  0  0  0  0  0  0  0  0  0
    0.4863    0.9398   -1.9601 H   0  0  0  0  0  0  0  0  0  0  0  0
    2.9879    1.1096   -1.9228 H   0  0  0  0  0  0  0  0  0  0  0  0
    2.8969    0.5393    2.2955 H   0  0  0  0  0  0  0  0  0  0  0  0
    0.3786    0.3768    2.2085 H   0  0  0  0  0  0  0  0  0  0  0  0
    4.9685    1.5229   -0.6300 H   0  0  0  0  0  0  0  0  0  0  0  0
    4.9240    1.3730    1.1688 H   0  0  0  0  0  0  0  0  0  0  0  0
    4.7161   -1.1357    0.8512 H   0  0  0  0  0  0  0  0  0  0  0  0
    4.8058   -0.9317   -0.9001 H   0  0  0  0  0  0  0  0  0  0  0  0
    8.1989   -1.8385    0.2271 H   0  0  0  0  0  0  0  0  0  0  0  0
  1  2  3  0
  2  3  1  0
  3  4  1  0
  4  5  2  0
  5  6  1  0
  6  7  2  0
  7  8  1  0
  8  9  2  0
  9 10  1  0
 10 11  3  0
 11 12  1  0
 12 13  2  0
 13 14  1  0
 14 15  2  0
 15 16  1  0
 16 17  2  0
 15 18  1  0
 18 19  1  0
 19 20  1  0
 20 21  2  0
 20 22  1  0
  9  4  1  0
 17 12  1  0
  3 23  1  0
  3 24  1  0
  5 25  1  0
  6 26  1  0
  7 27  1  0
  8 28  1  0
 13 29  1  0
 14 30  1  0
 16 31  1  0
 17 32  1  0
 18 33  1  0
 18 34  1  0
 19 35  1  0
 19 36  1  0
 22 37  1  0
M  END
>  <Ligand ID>  (1) 
LIG0000825

>  <Ligand>  (1) 
CHEMBL2315528

>  <SMILES>  (1) 
N#CCc1ccccc1C#Cc1ccc(cc1)CCC(=O)O

>  <CID>  (1) 
67072752.0

>  <ChEMBL ID>  (1) 
nan

>  <InChiKey>  (1) 
AMKACOPNIVQTHQ-UHFFFAOYSA-N

>  <InChi>  (1) 
InChI=1S/C19H15NO2/c20-14-13-18-4-2-1-3-17(18)11-9-15-5-7-16(8-6-15)10-12-19(21)22/h1-8H,10,12-13H2,(H,21,22)

>  <IUPAC Name>  (1) 
3-[4-[2-[2-(cyanomethyl)phenyl]ethynyl]phenyl]propanoic acid

$$$$
