
     RDKit          3D

 31 33  0  0  0  0  0  0  0  0999 V2000
   -2.8222    2.8492   -1.7675 O   0  0  0  0  0  0  0  0  0  0  0  0
   -2.7837    1.5759   -1.1954 C   0  0  0  0  0  0  0  0  0  0  0  0
   -3.9529    0.8763   -1.1077 C   0  0  0  0  0  0  0  0  0  0  0  0
   -3.9077   -0.3802   -0.5417 C   0  0  0  0  0  0  0  0  0  0  0  0
   -2.7005   -0.8779   -0.0912 C   0  0  0  0  0  0  0  0  0  0  0  0
   -1.5154   -0.1739   -0.1779 C   0  0  0  0  0  0  0  0  0  0  0  0
   -1.5787    1.0797   -0.7460 C   0  0  0  0  0  0  0  0  0  0  0  0
   -0.3102   -0.6729    0.2728 C   0  0  0  0  0  0  0  0  0  0  0  0
   -0.3598   -1.9497    0.8297 C   0  0  0  0  0  0  0  0  0  0  0  0
   -1.5331   -2.6679    0.9249 C   0  0  0  0  0  0  0  0  0  0  0  0
   -2.7218   -2.1403    0.4647 C   0  0  0  0  0  0  0  0  0  0  0  0
    0.9151    0.0426    0.1887 N   0  0  0  0  0  0  0  0  0  0  0  0
    2.0979   -0.6151    0.7056 C   0  0  0  0  0  0  0  0  0  0  0  0
    3.2565    0.2929    0.5234 C   0  0  0  0  0  0  0  0  0  0  0  0
    3.7475    1.2562    1.3931 C   0  0  0  0  0  0  0  0  0  0  0  0
    4.8055    1.8134    0.7818 N   0  0  0  0  0  0  0  0  0  0  0  0
    4.9508    1.2172   -0.4032 C   0  0  0  0  0  0  0  0  0  0  0  0
    4.0167    0.2794   -0.5932 N   0  0  0  0  0  0  0  0  0  0  0  0
   -2.7180    3.6234   -1.1274 H   0  0  0  0  0  0  0  0  0  0  0  0
   -4.8714    1.3262   -1.4820 H   0  0  0  0  0  0  0  0  0  0  0  0
   -4.8281   -0.9511   -0.4637 H   0  0  0  0  0  0  0  0  0  0  0  0
   -0.7189    1.6919   -0.8538 H   0  0  0  0  0  0  0  0  0  0  0  0
    0.5485   -2.3891    1.1975 H   0  0  0  0  0  0  0  0  0  0  0  0
   -1.5573   -3.6576    1.3593 H   0  0  0  0  0  0  0  0  0  0  0  0
   -3.6250   -2.7285    0.5536 H   0  0  0  0  0  0  0  0  0  0  0  0
    1.0110    0.9945   -0.2152 H   0  0  0  0  0  0  0  0  0  0  0  0
    2.2574   -1.6189    0.2919 H   0  0  0  0  0  0  0  0  0  0  0  0
    1.9425   -0.6771    1.8189 H   0  0  0  0  0  0  0  0  0  0  0  0
    3.3439    1.4949    2.3649 H   0  0  0  0  0  0  0  0  0  0  0  0
    5.7154    1.4279   -1.1592 H   0  0  0  0  0  0  0  0  0  0  0  0
    3.8961   -0.3412   -1.4352 H   0  0  0  0  0  0  0  0  0  0  0  0
  1  2  1  0
  2  3  2  0
  3  4  1  0
  4  5  2  0
  5  6  1  0
  6  7  2  0
  6  8  1  0
  8  9  2  0
  9 10  1  0
 10 11  2  0
  8 12  1  0
 12 13  1  0
 13 14  1  0
 14 15  2  0
 15 16  1  0
 16 17  2  0
 17 18  1  0
  7  2  1  0
 18 14  1  0
 11  5  1  0
  1 19  1  0
  3 20  1  0
  4 21  1  0
  7 22  1  0
  9 23  1  0
 10 24  1  0
 11 25  1  0
 12 26  1  0
 13 27  1  0
 13 28  1  0
 15 29  1  0
 17 30  1  0
 18 31  1  0
M  END
>  <Ligand ID>  (1) 
LIG0002787

>  <Ligand>  (1) 
CHEMBL114054

>  <SMILES>  (1) 
Oc1ccc2c(c1)c(ccc2)NCc1cnc[nH]1

>  <CID>  (1) 
44343243.0

>  <ChEMBL ID>  (1) 
nan

>  <InChiKey>  (1) 
CPPOCROKOZZUJM-UHFFFAOYSA-N

>  <InChi>  (1) 
InChI=1S/C14H13N3O/c18-12-5-4-10-2-1-3-14(13(10)6-12)16-8-11-7-15-9-17-11/h1-7,9,16,18H,8H2,(H,15,17)

>  <IUPAC Name>  (1) 
8-(1H-imidazol-5-ylmethylamino)naphthalen-2-ol

$$$$
