
     RDKit          3D

 29 31  0  0  0  0  0  0  0  0999 V2000
   -3.7962    0.5168    0.1451 C   0  0  0  0  0  0  0  0  0  0  0  0
   -2.6838    1.0706    0.7485 C   0  0  0  0  0  0  0  0  0  0  0  0
   -1.3973    0.5703    0.5182 C   0  0  0  0  0  0  0  0  0  0  0  0
   -1.2289   -0.5194   -0.3453 C   0  0  0  0  0  0  0  0  0  0  0  0
   -2.3667   -1.0264   -0.9141 C   0  0  0  0  0  0  0  0  0  0  0  0
   -3.6296   -0.5647   -0.7120 C   0  0  0  0  0  0  0  0  0  0  0  0
    0.1354   -1.0643   -0.6012 C   0  0  0  0  0  0  0  0  0  0  0  0
    0.6786   -1.6542    0.6475 C   0  0  0  0  0  0  0  0  0  0  0  0
    1.5954   -0.8678    1.4841 C   0  0  0  0  0  0  0  0  0  0  0  0
    2.2311    0.2806    0.7965 C   0  0  0  0  0  0  0  0  0  0  0  0
    1.9412    0.6477   -0.4939 C   0  0  0  0  0  0  0  0  0  0  0  0
    0.9582   -0.0796   -1.3189 C   0  0  0  0  0  0  0  0  0  0  0  0
    2.6865    1.7174   -0.8017 N   0  0  0  0  0  0  0  0  0  0  0  0
    3.4382    2.0290    0.2695 C   0  0  0  0  0  0  0  0  0  0  0  0
    3.1497    1.1362    1.2505 N   0  0  0  0  0  0  0  0  0  0  0  0
   -4.8017    0.8681    0.2927 H   0  0  0  0  0  0  0  0  0  0  0  0
   -2.8462    1.9030    1.4035 H   0  0  0  0  0  0  0  0  0  0  0  0
   -0.5660    1.0358    1.0112 H   0  0  0  0  0  0  0  0  0  0  0  0
   -2.2279   -1.8801   -1.5896 H   0  0  0  0  0  0  0  0  0  0  0  0
   -4.4675   -1.0394   -1.2134 H   0  0  0  0  0  0  0  0  0  0  0  0
   -0.0082   -1.9114   -1.3100 H   0  0  0  0  0  0  0  0  0  0  0  0
   -0.1978   -1.9388    1.3055 H   0  0  0  0  0  0  0  0  0  0  0  0
    1.1516   -2.6488    0.4773 H   0  0  0  0  0  0  0  0  0  0  0  0
    2.4326   -1.4681    1.9133 H   0  0  0  0  0  0  0  0  0  0  0  0
    1.1038   -0.4060    2.3872 H   0  0  0  0  0  0  0  0  0  0  0  0
    0.3068    0.6841   -1.8023 H   0  0  0  0  0  0  0  0  0  0  0  0
    1.5522   -0.4813   -2.1849 H   0  0  0  0  0  0  0  0  0  0  0  0
    2.6950    2.2417   -1.7272 H   0  0  0  0  0  0  0  0  0  0  0  0
    4.1616    2.8491    0.3637 H   0  0  0  0  0  0  0  0  0  0  0  0
  1  2  2  0
  2  3  1  0
  3  4  2  0
  4  5  1  0
  5  6  2  0
  4  7  1  0
  7  8  1  0
  8  9  1  0
  9 10  1  0
 10 11  2  0
 11 12  1  0
 11 13  1  0
 13 14  1  0
 14 15  2  0
  6  1  1  0
 12  7  1  0
 15 10  1  0
  1 16  1  0
  2 17  1  0
  3 18  1  0
  5 19  1  0
  6 20  1  0
  7 21  1  0
  8 22  1  0
  8 23  1  0
  9 24  1  0
  9 25  1  0
 12 26  1  0
 12 27  1  0
 13 28  1  0
 14 29  1  0
M  END
>  <Ligand ID>  (1) 
LIG0001346

>  <Ligand>  (1) 
CHEMBL466296

>  <SMILES>  (1) 
c1ccc(cc1)C1CCc2c(C1)[nH]cn2

>  <CID>  (1) 
44593577.0

>  <ChEMBL ID>  (1) 
nan

>  <InChiKey>  (1) 
FNAMNTIDTBOHMV-UHFFFAOYSA-N

>  <InChi>  (1) 
InChI=1S/C13H14N2/c1-2-4-10(5-3-1)11-6-7-12-13(8-11)15-9-14-12/h1-5,9,11H,6-8H2,(H,14,15)

>  <IUPAC Name>  (1) 
6-phenyl-4,5,6,7-tetrahydro-1H-benzimidazole

$$$$
