
     RDKit          3D

 55 57  0  0  0  0  0  0  0  0999 V2000
    8.9977    0.6593   -1.0236 C   0  0  0  0  0  0  0  0  0  0  0  0
    7.7109    0.4449   -0.5171 O   0  0  0  0  0  0  0  0  0  0  0  0
    7.4356    0.2032    0.8318 C   0  0  0  0  0  0  0  0  0  0  0  0
    8.3608    0.1655    1.6823 O   0  0  0  0  0  0  0  0  0  0  0  0
    6.0499   -0.0063    1.2427 C   0  0  0  0  0  0  0  0  0  0  0  0
    5.7434   -0.2481    2.5663 C   0  0  0  0  0  0  0  0  0  0  0  0
    4.4170   -0.4466    2.9355 C   0  0  0  0  0  0  0  0  0  0  0  0
    3.3864   -0.4077    2.0013 C   0  0  0  0  0  0  0  0  0  0  0  0
    3.7095   -0.1629    0.6702 C   0  0  0  0  0  0  0  0  0  0  0  0
    5.0294    0.0328    0.3148 C   0  0  0  0  0  0  0  0  0  0  0  0
    2.6995   -0.1050   -0.3809 C   0  0  0  0  0  0  0  0  0  0  0  0
    2.9069    0.7254   -1.4637 C   0  0  0  0  0  0  0  0  0  0  0  0
    1.9430    0.7654   -2.4493 C   0  0  0  0  0  0  0  0  0  0  0  0
    0.7983   -0.0159   -2.3404 C   0  0  0  0  0  0  0  0  0  0  0  0
    0.5656   -0.8520   -1.2720 C   0  0  0  0  0  0  0  0  0  0  0  0
    1.5570   -0.8722   -0.2912 C   0  0  0  0  0  0  0  0  0  0  0  0
   -0.5854   -1.6532   -1.1165 N   0  0  0  0  0  0  0  0  0  0  0  0
   -1.7110   -1.6935   -2.0107 C   0  0  0  0  0  0  0  0  0  0  0  0
   -2.5569   -0.4661   -2.0286 C   0  0  0  0  0  0  0  0  0  0  0  0
   -3.1404   -0.1503   -0.7370 N   0  0  0  0  0  0  0  0  0  0  0  0
   -4.1195   -1.1288   -0.3675 C   0  0  0  0  0  0  0  0  0  0  0  0
   -4.7667   -0.8292    0.9915 C   0  0  1  0  0  0  0  0  0  0  0  0
   -5.5671    0.4223    0.8666 C   0  0  0  0  0  0  0  0  0  0  0  0
   -5.2001    1.5670    1.5300 C   0  0  0  0  0  0  0  0  0  0  0  0
   -5.9957    2.6817    1.3608 C   0  0  0  0  0  0  0  0  0  0  0  0
   -7.1171    2.6627    0.5611 C   0  0  0  0  0  0  0  0  0  0  0  0
   -7.4710    1.4908   -0.1026 C   0  0  0  0  0  0  0  0  0  0  0  0
   -6.6871    0.3553    0.0511 C   0  0  0  0  0  0  0  0  0  0  0  0
   -8.8800    1.4112   -1.1278 Cl  0  0  0  0  0  0  0  0  0  0  0  0
   -5.6893   -1.8755    1.1929 O   0  0  0  0  0  0  0  0  0  0  0  0
    9.6482   -0.2380   -1.0193 H   0  0  0  0  0  0  0  0  0  0  0  0
    8.8616    0.9638   -2.0994 H   0  0  0  0  0  0  0  0  0  0  0  0
    9.5471    1.4924   -0.5436 H   0  0  0  0  0  0  0  0  0  0  0  0
    6.4986   -0.2901    3.3366 H   0  0  0  0  0  0  0  0  0  0  0  0
    4.2022   -0.6338    3.9734 H   0  0  0  0  0  0  0  0  0  0  0  0
    2.3502   -0.5606    2.2769 H   0  0  0  0  0  0  0  0  0  0  0  0
    5.2989    0.2222   -0.7016 H   0  0  0  0  0  0  0  0  0  0  0  0
    3.7788    1.3477   -1.5886 H   0  0  0  0  0  0  0  0  0  0  0  0
    2.0939    1.4224   -3.3176 H   0  0  0  0  0  0  0  0  0  0  0  0
    0.0915    0.0542   -3.1486 H   0  0  0  0  0  0  0  0  0  0  0  0
    1.4591   -1.4987    0.5847 H   0  0  0  0  0  0  0  0  0  0  0  0
   -0.6357   -2.2830   -0.2719 H   0  0  0  0  0  0  0  0  0  0  0  0
   -1.3687   -1.8512   -3.0827 H   0  0  0  0  0  0  0  0  0  0  0  0
   -2.3463   -2.5831   -1.8166 H   0  0  0  0  0  0  0  0  0  0  0  0
   -3.4258   -0.6760   -2.7183 H   0  0  0  0  0  0  0  0  0  0  0  0
   -2.0755    0.4398   -2.3866 H   0  0  0  0  0  0  0  0  0  0  0  0
   -2.4116   -0.0172   -0.0072 H   0  0  0  0  0  0  0  0  0  0  0  0
   -3.6455   -2.1201   -0.3341 H   0  0  0  0  0  0  0  0  0  0  0  0
   -4.9649   -1.0726   -1.1002 H   0  0  0  0  0  0  0  0  0  0  0  0
   -4.0171   -0.7659    1.8036 H   0  0  0  0  0  0  0  0  0  0  0  0
   -4.3174    1.5821    2.1600 H   0  0  0  0  0  0  0  0  0  0  0  0
   -5.7658    3.6204    1.8552 H   0  0  0  0  0  0  0  0  0  0  0  0
   -7.7211    3.5572    0.4497 H   0  0  0  0  0  0  0  0  0  0  0  0
   -6.9501   -0.5780   -0.4632 H   0  0  0  0  0  0  0  0  0  0  0  0
   -6.0079   -2.2081    0.3284 H   0  0  0  0  0  0  0  0  0  0  0  0
  1  2  1  0
  2  3  1  0
  3  4  2  0
  3  5  1  0
  5  6  2  0
  6  7  1  0
  7  8  2  0
  8  9  1  0
  9 10  2  0
  9 11  1  0
 11 12  2  0
 12 13  1  0
 13 14  2  0
 14 15  1  0
 15 16  2  0
 15 17  1  0
 17 18  1  0
 18 19  1  0
 19 20  1  0
 20 21  1  0
 21 22  1  0
 22 23  1  0
 23 24  2  0
 24 25  1  0
 25 26  2  0
 26 27  1  0
 27 28  2  0
 27 29  1  0
 22 30  1  0
 10  5  1  0
 16 11  1  0
 28 23  1  0
  1 31  1  0
  1 32  1  0
  1 33  1  0
  6 34  1  0
  7 35  1  0
  8 36  1  0
 10 37  1  0
 12 38  1  0
 13 39  1  0
 14 40  1  0
 16 41  1  0
 17 42  1  0
 18 43  1  0
 18 44  1  0
 19 45  1  0
 19 46  1  0
 20 47  1  0
 21 48  1  0
 21 49  1  0
 22 50  1  1
 24 51  1  0
 25 52  1  0
 26 53  1  0
 28 54  1  0
 30 55  1  0
M  END
>  <Ligand ID>  (1) 
LIG0004712

>  <Ligand>  (1) 
CHEMBL208352

>  <SMILES>  (1) 
COC(=O)c1cccc(c1)c1cccc(c1)NCCNC[C@@H](c1cccc(c1)Cl)O

>  <CID>  (1) 
9845280.0

>  <ChEMBL ID>  (1) 
nan

>  <InChiKey>  (1) 
AFXVNMWMSXRKBE-QHCPKHFHSA-N

>  <InChi>  (1) 
InChI=1S/C24H25ClN2O3/c1-30-24(29)20-8-2-5-17(13-20)18-6-4-10-22(15-18)27-12-11-26-16-23(28)19-7-3-9-21(25)14-19/h2-10,13-15,23,26-28H,11-12,16H2,1H3/t23-/m0/s1

>  <IUPAC Name>  (1) 
methyl 3-[3-[2-[[(2R)-2-(3-chlorophenyl)-2-hydroxyethyl]amino]ethylamino]phenyl]benzoate

$$$$
