
     RDKit          3D

 85 87  0  0  0  0  0  0  0  0999 V2000
   10.6146   -2.3672    0.3823 O   0  0  0  0  0  0  0  0  0  0  0  0
   10.4973   -1.4570   -0.6731 C   0  0  0  0  0  0  0  0  0  0  0  0
    9.6323   -0.3293   -0.2439 C   0  0  0  0  0  0  0  0  0  0  0  0
    8.3304   -0.2219   -0.6695 C   0  0  0  0  0  0  0  0  0  0  0  0
    7.5538    0.8475   -0.2449 C   0  0  0  0  0  0  0  0  0  0  0  0
    8.0716    1.8042    0.5989 C   0  0  0  0  0  0  0  0  0  0  0  0
    9.3788    1.6906    1.0224 C   0  0  0  0  0  0  0  0  0  0  0  0
   10.1383    0.6332    0.5993 C   0  0  0  0  0  0  0  0  0  0  0  0
   11.4536    0.5243    1.0293 O   0  0  0  0  0  0  0  0  0  0  0  0
    6.1543    0.8815   -0.7573 C   0  0  2  0  0  0  0  0  0  0  0  0
    5.4148   -0.2699   -0.1003 C   0  0  0  0  0  0  0  0  0  0  0  0
    5.3131   -0.0503    1.3243 N   0  0  0  0  0  0  0  0  0  0  0  0
    4.6413   -1.0937    2.0239 C   0  0  0  0  0  0  0  0  0  0  0  0
    3.1595   -1.1527    1.6645 C   0  0  0  0  0  0  0  0  0  0  0  0
    2.5320    0.1440    2.0323 C   0  0  0  0  0  0  0  0  0  0  0  0
    1.0527    0.1137    1.6623 C   0  0  0  0  0  0  0  0  0  0  0  0
    0.2869   -0.9618    2.3519 C   0  0  0  0  0  0  0  0  0  0  0  0
   -1.1669   -1.0444    2.0648 C   0  0  0  0  0  0  0  0  0  0  0  0
   -1.5653   -1.3477    0.8578 O   0  0  0  0  0  0  0  0  0  0  0  0
   -1.3535   -0.7527   -0.3109 C   0  0  0  0  0  0  0  0  0  0  0  0
   -1.7425    0.6942   -0.3910 C   0  0  0  0  0  0  0  0  0  0  0  0
   -1.4622    1.2489   -1.7313 C   0  0  0  0  0  0  0  0  0  0  0  0
   -2.2553    0.6144   -2.8085 C   0  0  0  0  0  0  0  0  0  0  0  0
   -3.7183    0.7913   -2.6555 C   0  0  0  0  0  0  0  0  0  0  0  0
   -4.3076    1.9490   -3.1826 C   0  0  0  0  0  0  0  0  0  0  0  0
   -5.6624    2.1838   -3.0930 C   0  0  0  0  0  0  0  0  0  0  0  0
   -6.5053    1.2824   -2.4756 C   0  0  0  0  0  0  0  0  0  0  0  0
   -5.9468    0.1362   -1.9500 C   0  0  0  0  0  0  0  0  0  0  0  0
   -4.5668   -0.0898   -2.0482 C   0  0  0  0  0  0  0  0  0  0  0  0
   -6.9823   -1.0348   -1.1601 S   0  0  0  0  0  0  0  0  0  0  0  0
   -8.2497   -1.0747   -1.9592 O   0  0  0  0  0  0  0  0  0  0  0  0
   -6.3373   -2.3896   -1.3479 O   0  0  0  0  0  0  0  0  0  0  0  0
   -7.1825   -0.8021    0.4951 N   0  0  0  0  0  0  0  0  0  0  0  0
   -7.7812    0.4130    0.9282 C   0  0  0  0  0  0  0  0  0  0  0  0
   -9.1554    0.6372    0.3605 C   0  0  0  0  0  0  0  0  0  0  0  0
  -10.0604   -0.5343    0.5122 C   0  0  0  0  0  0  0  0  0  0  0  0
   -9.4036   -1.8773    0.4949 C   0  0  0  0  0  0  0  0  0  0  0  0
   -7.9987   -1.8901    0.9973 C   0  0  0  0  0  0  0  0  0  0  0  0
    6.2107    0.6062   -2.1192 O   0  0  0  0  0  0  0  0  0  0  0  0
   10.2249   -1.9762    1.2028 H   0  0  0  0  0  0  0  0  0  0  0  0
   10.0530   -2.0075   -1.5307 H   0  0  0  0  0  0  0  0  0  0  0  0
   11.5034   -1.1246   -0.9788 H   0  0  0  0  0  0  0  0  0  0  0  0
    7.9243   -0.9819   -1.3383 H   0  0  0  0  0  0  0  0  0  0  0  0
    7.4401    2.6201    0.9073 H   0  0  0  0  0  0  0  0  0  0  0  0
    9.7946    2.4519    1.6946 H   0  0  0  0  0  0  0  0  0  0  0  0
   12.1155    1.2948    0.9383 H   0  0  0  0  0  0  0  0  0  0  0  0
    5.6610    1.8356   -0.5494 H   0  0  0  0  0  0  0  0  0  0  0  0
    5.9426   -1.2278   -0.2734 H   0  0  0  0  0  0  0  0  0  0  0  0
    4.3941   -0.3586   -0.5503 H   0  0  0  0  0  0  0  0  0  0  0  0
    4.9707    0.9012    1.4935 H   0  0  0  0  0  0  0  0  0  0  0  0
    4.6706   -0.8473    3.1147 H   0  0  0  0  0  0  0  0  0  0  0  0
    5.0852   -2.0691    1.8022 H   0  0  0  0  0  0  0  0  0  0  0  0
    2.7145   -2.0139    2.2422 H   0  0  0  0  0  0  0  0  0  0  0  0
    3.0493   -1.3692    0.5985 H   0  0  0  0  0  0  0  0  0  0  0  0
    2.9544    0.9795    1.4319 H   0  0  0  0  0  0  0  0  0  0  0  0
    2.5986    0.3926    3.0925 H   0  0  0  0  0  0  0  0  0  0  0  0
    0.9399    0.2166    0.5947 H   0  0  0  0  0  0  0  0  0  0  0  0
    0.6410    1.0955    2.0845 H   0  0  0  0  0  0  0  0  0  0  0  0
    0.7587   -1.9619    2.0638 H   0  0  0  0  0  0  0  0  0  0  0  0
    0.5016   -0.9171    3.4523 H   0  0  0  0  0  0  0  0  0  0  0  0
   -1.7063   -0.1293    2.5134 H   0  0  0  0  0  0  0  0  0  0  0  0
   -1.5959   -1.8550    2.7735 H   0  0  0  0  0  0  0  0  0  0  0  0
   -1.9925   -1.2819   -1.1343 H   0  0  0  0  0  0  0  0  0  0  0  0
   -0.3424   -0.9376   -0.7214 H   0  0  0  0  0  0  0  0  0  0  0  0
   -1.2200    1.3234    0.3540 H   0  0  0  0  0  0  0  0  0  0  0  0
   -2.8490    0.7213   -0.1632 H   0  0  0  0  0  0  0  0  0  0  0  0
   -1.4818    2.3654   -1.7681 H   0  0  0  0  0  0  0  0  0  0  0  0
   -0.3759    1.0017   -1.9580 H   0  0  0  0  0  0  0  0  0  0  0  0
   -2.0019    1.1411   -3.7913 H   0  0  0  0  0  0  0  0  0  0  0  0
   -1.9765   -0.4502   -2.9193 H   0  0  0  0  0  0  0  0  0  0  0  0
   -3.7008    2.6951   -3.6792 H   0  0  0  0  0  0  0  0  0  0  0  0
   -6.1159    3.0910   -3.5073 H   0  0  0  0  0  0  0  0  0  0  0  0
   -7.5640    1.4940   -2.4209 H   0  0  0  0  0  0  0  0  0  0  0  0
   -4.2283   -1.0123   -1.6141 H   0  0  0  0  0  0  0  0  0  0  0  0
   -7.9509    0.2875    2.0393 H   0  0  0  0  0  0  0  0  0  0  0  0
   -7.1734    1.3092    0.8318 H   0  0  0  0  0  0  0  0  0  0  0  0
   -9.1448    1.0661   -0.6630 H   0  0  0  0  0  0  0  0  0  0  0  0
   -9.5956    1.4703    0.9858 H   0  0  0  0  0  0  0  0  0  0  0  0
  -10.7683   -0.5293   -0.3615 H   0  0  0  0  0  0  0  0  0  0  0  0
  -10.7414   -0.4279    1.3937 H   0  0  0  0  0  0  0  0  0  0  0  0
   -9.9912   -2.5436    1.1915 H   0  0  0  0  0  0  0  0  0  0  0  0
   -9.4616   -2.4138   -0.4753 H   0  0  0  0  0  0  0  0  0  0  0  0
   -7.5150   -2.8280    0.6679 H   0  0  0  0  0  0  0  0  0  0  0  0
   -7.9177   -1.8926    2.1164 H   0  0  0  0  0  0  0  0  0  0  0  0
    6.4413    1.4142   -2.6635 H   0  0  0  0  0  0  0  0  0  0  0  0
  1  2  1  0
  2  3  1  0
  3  4  2  0
  4  5  1  0
  5  6  2  0
  6  7  1  0
  7  8  2  0
  8  9  1  0
  5 10  1  0
 10 11  1  0
 11 12  1  0
 12 13  1  0
 13 14  1  0
 14 15  1  0
 15 16  1  0
 16 17  1  0
 17 18  1  0
 18 19  1  0
 19 20  1  0
 20 21  1  0
 21 22  1  0
 22 23  1  0
 23 24  1  0
 24 25  2  0
 25 26  1  0
 26 27  2  0
 27 28  1  0
 28 29  2  0
 28 30  1  0
 30 31  2  0
 30 32  2  0
 30 33  1  0
 33 34  1  0
 34 35  1  0
 35 36  1  0
 36 37  1  0
 37 38  1  0
 10 39  1  0
  8  3  1  0
 29 24  1  0
 38 33  1  0
  1 40  1  0
  2 41  1  0
  2 42  1  0
  4 43  1  0
  6 44  1  0
  7 45  1  0
  9 46  1  0
 10 47  1  6
 11 48  1  0
 11 49  1  0
 12 50  1  0
 13 51  1  0
 13 52  1  0
 14 53  1  0
 14 54  1  0
 15 55  1  0
 15 56  1  0
 16 57  1  0
 16 58  1  0
 17 59  1  0
 17 60  1  0
 18 61  1  0
 18 62  1  0
 20 63  1  0
 20 64  1  0
 21 65  1  0
 21 66  1  0
 22 67  1  0
 22 68  1  0
 23 69  1  0
 23 70  1  0
 25 71  1  0
 26 72  1  0
 27 73  1  0
 29 74  1  0
 34 75  1  0
 34 76  1  0
 35 77  1  0
 35 78  1  0
 36 79  1  0
 36 80  1  0
 37 81  1  0
 37 82  1  0
 38 83  1  0
 38 84  1  0
 39 85  1  0
M  END
>  <Ligand ID>  (1) 
LIG0003100

>  <Ligand>  (1) 
CHEMBL506518

>  <SMILES>  (1) 
OCc1cc(ccc1O)[C@H](CNCCCCCCOCCCCc1cccc(c1)S(=O)(=O)N1CCCCC1)O

>  <CID>  (1) 
42625587.0

>  <ChEMBL ID>  (1) 
nan

>  <InChiKey>  (1) 
VPPPKCMMIGGTCU-PMERELPUSA-N

>  <InChi>  (1) 
InChI=1S/C30H46N2O6S/c33-24-27-22-26(14-15-29(27)34)30(35)23-31-16-5-1-2-8-19-38-20-9-4-11-25-12-10-13-28(21-25)39(36,37)32-17-6-3-7-18-32/h10,12-15,21-22,30-31,33-35H,1-9,11,16-20,23-24H2/t30-/m0/s1

>  <IUPAC Name>  (1) 
2-(hydroxymethyl)-4-[(1R)-1-hydroxy-2-[6-[4-(3-piperidin-1-ylsulfonylphenyl)butoxy]hexylamino]ethyl]phenol

$$$$
