
     RDKit          3D

 53 56  0  0  0  0  0  0  0  0999 V2000
   -5.8341   -4.1604   -0.0415 Cl  0  0  0  0  0  0  0  0  0  0  0  0
   -5.2556   -2.5119   -0.0553 C   0  0  0  0  0  0  0  0  0  0  0  0
   -5.5885   -1.6635    0.9791 C   0  0  0  0  0  0  0  0  0  0  0  0
   -5.1433   -0.3485    0.9950 C   0  0  0  0  0  0  0  0  0  0  0  0
   -4.3468    0.0965   -0.0660 C   0  0  0  0  0  0  0  0  0  0  0  0
   -4.0032   -0.7412   -1.1121 C   0  0  0  0  0  0  0  0  0  0  0  0
   -4.4583   -2.0565   -1.1119 C   0  0  0  0  0  0  0  0  0  0  0  0
   -3.9023    1.4692   -0.0139 C   0  0  0  0  0  0  0  0  0  0  0  0
   -4.6456    2.6444    0.0107 C   0  0  0  0  0  0  0  0  0  0  0  0
   -6.1404    2.6297   -0.0180 C   0  0  0  0  0  0  0  0  0  0  0  0
   -3.8151    3.7014    0.0614 N   0  0  0  0  0  0  0  0  0  0  0  0
   -2.5800    3.1991    0.0682 N   0  0  0  0  0  0  0  0  0  0  0  0
   -2.5825    1.8691    0.0242 C   0  0  0  0  0  0  0  0  0  0  0  0
   -1.4440    0.9615    0.0142 C   0  0  0  0  0  0  0  0  0  0  0  0
   -1.2028    0.0278    0.9968 C   0  0  0  0  0  0  0  0  0  0  0  0
   -0.1125   -0.8073    0.9457 C   0  0  0  0  0  0  0  0  0  0  0  0
    0.8180   -0.7579   -0.1090 C   0  0  0  0  0  0  0  0  0  0  0  0
    0.5596    0.1765   -1.0759 C   0  0  0  0  0  0  0  0  0  0  0  0
   -0.5475    1.0290   -1.0293 C   0  0  0  0  0  0  0  0  0  0  0  0
   -0.7587    1.9657   -2.0481 O   0  0  0  0  0  0  0  0  0  0  0  0
    1.8455   -1.6333   -0.0447 O   0  0  0  0  0  0  0  0  0  0  0  0
    2.9146   -1.8446   -0.8564 C   0  0  0  0  0  0  0  0  0  0  0  0
    3.8374   -0.6814   -0.9251 C   0  0  0  0  0  0  0  0  0  0  0  0
    4.3937   -0.3219    0.3692 N   0  0  0  0  0  0  0  0  0  0  0  0
    5.2575    0.8085    0.1806 C   0  0  0  0  0  0  0  0  0  0  0  0
    6.7164    0.4214    0.1071 C   0  0  0  0  0  0  0  0  0  0  0  0
    6.9188   -0.8043   -0.4755 O   0  0  0  0  0  0  0  0  0  0  0  0
    6.2071   -1.8498    0.0546 C   0  0  0  0  0  0  0  0  0  0  0  0
    5.1472   -1.3666    0.9869 C   0  0  0  0  0  0  0  0  0  0  0  0
   -6.2027   -1.9902    1.8069 H   0  0  0  0  0  0  0  0  0  0  0  0
   -5.4063    0.3174    1.8097 H   0  0  0  0  0  0  0  0  0  0  0  0
   -3.3817   -0.3412   -1.9092 H   0  0  0  0  0  0  0  0  0  0  0  0
   -4.1806   -2.6880   -1.9314 H   0  0  0  0  0  0  0  0  0  0  0  0
   -6.4948    3.5300   -0.5834 H   0  0  0  0  0  0  0  0  0  0  0  0
   -6.4900    2.7900    1.0147 H   0  0  0  0  0  0  0  0  0  0  0  0
   -6.5303    1.7327   -0.5023 H   0  0  0  0  0  0  0  0  0  0  0  0
   -4.1042    4.7122    0.0891 H   0  0  0  0  0  0  0  0  0  0  0  0
   -1.8961   -0.0451    1.8308 H   0  0  0  0  0  0  0  0  0  0  0  0
    0.0170   -1.5203    1.7545 H   0  0  0  0  0  0  0  0  0  0  0  0
    1.1903    0.2801   -1.9191 H   0  0  0  0  0  0  0  0  0  0  0  0
   -0.2894    2.8451   -1.9240 H   0  0  0  0  0  0  0  0  0  0  0  0
    3.4430   -2.7734   -0.5175 H   0  0  0  0  0  0  0  0  0  0  0  0
    2.6435   -2.0919   -1.9250 H   0  0  0  0  0  0  0  0  0  0  0  0
    3.3730    0.2087   -1.3236 H   0  0  0  0  0  0  0  0  0  0  0  0
    4.6740   -0.9384   -1.6332 H   0  0  0  0  0  0  0  0  0  0  0  0
    5.1281    1.4642    1.0663 H   0  0  0  0  0  0  0  0  0  0  0  0
    4.9927    1.4168   -0.7018 H   0  0  0  0  0  0  0  0  0  0  0  0
    7.1784    0.5275    1.1026 H   0  0  0  0  0  0  0  0  0  0  0  0
    7.2250    1.1684   -0.5361 H   0  0  0  0  0  0  0  0  0  0  0  0
    5.7967   -2.4299   -0.8116 H   0  0  0  0  0  0  0  0  0  0  0  0
    6.8695   -2.5265    0.6470 H   0  0  0  0  0  0  0  0  0  0  0  0
    5.6648   -0.9185    1.8631 H   0  0  0  0  0  0  0  0  0  0  0  0
    4.5256   -2.1806    1.4081 H   0  0  0  0  0  0  0  0  0  0  0  0
  1  2  1  0
  2  3  2  0
  3  4  1  0
  4  5  2  0
  5  6  1  0
  6  7  2  0
  5  8  1  0
  8  9  2  0
  9 10  1  0
  9 11  1  0
 11 12  1  0
 12 13  2  0
 13 14  1  0
 14 15  2  0
 15 16  1  0
 16 17  2  0
 17 18  1  0
 18 19  2  0
 19 20  1  0
 17 21  1  0
 21 22  1  0
 22 23  1  0
 23 24  1  0
 24 25  1  0
 25 26  1  0
 26 27  1  0
 27 28  1  0
 28 29  1  0
  7  2  1  0
 13  8  1  0
 19 14  1  0
 29 24  1  0
  3 30  1  0
  4 31  1  0
  6 32  1  0
  7 33  1  0
 10 34  1  0
 10 35  1  0
 10 36  1  0
 11 37  1  0
 15 38  1  0
 16 39  1  0
 18 40  1  0
 20 41  1  0
 22 42  1  0
 22 43  1  0
 23 44  1  0
 23 45  1  0
 25 46  1  0
 25 47  1  0
 26 48  1  0
 26 49  1  0
 28 50  1  0
 28 51  1  0
 29 52  1  0
 29 53  1  0
M  END
>  <Ligand ID>  (1) 
LIG0003595

>  <Ligand>  (1) 
MLS-0437222.0001

>  <SMILES>  (1) 
Clc1ccc(cc1)c1c(C)[nH]nc1c1ccc(cc1O)OCCN1CCOCC1

>  <CID>  (1) 
135656418.0

>  <ChEMBL ID>  (1) 
nan

>  <InChiKey>  (1) 
UGNGPGLEEKDEHQ-UHFFFAOYSA-N

>  <InChi>  (1) 
InChI=1S/C22H24ClN3O3/c1-15-21(16-2-4-17(23)5-3-16)22(25-24-15)19-7-6-18(14-20(19)27)29-13-10-26-8-11-28-12-9-26/h2-7,14,27H,8-13H2,1H3,(H,24,25)

>  <IUPAC Name>  (1) 
2-[4-(4-chlorophenyl)-5-methyl-1H-pyrazol-3-yl]-5-(2-morpholin-4-ylethoxy)phenol

$$$$
