
     RDKit          3D

 25 27  0  0  0  0  0  0  0  0999 V2000
    4.2853   -0.0923   -0.1665 C   0  0  0  0  0  0  0  0  0  0  0  0
    2.8173    0.0828   -0.0463 C   0  0  0  0  0  0  0  0  0  0  0  0
    2.3024    1.3562    0.0829 C   0  0  0  0  0  0  0  0  0  0  0  0
    0.9784    1.4910    0.1897 N   0  0  0  0  0  0  0  0  0  0  0  0
    0.1108    0.4403    0.1778 C   0  0  0  0  0  0  0  0  0  0  0  0
    0.6255   -0.8450    0.0477 C   0  0  0  0  0  0  0  0  0  0  0  0
    1.9848   -1.0339   -0.0655 C   0  0  0  0  0  0  0  0  0  0  0  0
   -0.2807   -1.9038    0.0381 C   0  0  0  0  0  0  0  0  0  0  0  0
   -1.6284   -1.7199    0.1501 C   0  0  0  0  0  0  0  0  0  0  0  0
   -2.1196   -0.4327    0.2786 C   0  0  0  0  0  0  0  0  0  0  0  0
   -1.2630    0.6440    0.2932 C   0  0  0  0  0  0  0  0  0  0  0  0
   -1.7509    1.8727    0.4172 N   0  0  0  0  0  0  0  0  0  0  0  0
   -3.0781    2.0586    0.5279 C   0  0  0  0  0  0  0  0  0  0  0  0
   -3.9817    1.0145    0.5191 C   0  0  0  0  0  0  0  0  0  0  0  0
   -3.4767   -0.2713    0.3897 C   0  0  0  0  0  0  0  0  0  0  0  0
    4.6033   -0.2949   -1.2088 H   0  0  0  0  0  0  0  0  0  0  0  0
    4.5212   -1.0255    0.3993 H   0  0  0  0  0  0  0  0  0  0  0  0
    4.8359    0.7672    0.2720 H   0  0  0  0  0  0  0  0  0  0  0  0
    2.9803    2.1965    0.0936 H   0  0  0  0  0  0  0  0  0  0  0  0
    2.3788   -2.0322   -0.1661 H   0  0  0  0  0  0  0  0  0  0  0  0
    0.1009   -2.9133   -0.0624 H   0  0  0  0  0  0  0  0  0  0  0  0
   -2.3336   -2.5511    0.1421 H   0  0  0  0  0  0  0  0  0  0  0  0
   -3.4291    3.0762    0.6267 H   0  0  0  0  0  0  0  0  0  0  0  0
   -5.0265    1.2192    0.6104 H   0  0  0  0  0  0  0  0  0  0  0  0
   -4.1567   -1.1034    0.3798 H   0  0  0  0  0  0  0  0  0  0  0  0
  1  2  1  0
  2  3  2  0
  3  4  1  0
  4  5  2  0
  5  6  1  0
  6  7  2  0
  6  8  1  0
  8  9  2  0
  9 10  1  0
 10 11  2  0
 11 12  1  0
 12 13  2  0
 13 14  1  0
 14 15  2  0
  7  2  1  0
 15 10  1  0
 11  5  1  0
  1 16  1  0
  1 17  1  0
  1 18  1  0
  3 19  1  0
  7 20  1  0
  8 21  1  0
  9 22  1  0
 13 23  1  0
 14 24  1  0
 15 25  1  0
M  END
>  <Ligand ID>  (1) 
LIG0003907

>  <Ligand>  (1) 
CHEMBL2205810

>  <SMILES>  (1) 
Cc1cnc2c(c1)ccc1c2nccc1

>  <CID>  (1) 
15783796.0

>  <ChEMBL ID>  (1) 
nan

>  <InChiKey>  (1) 
PBIOPYCIDCAUBZ-UHFFFAOYSA-N

>  <InChi>  (1) 
InChI=1S/C13H10N2/c1-9-7-11-5-4-10-3-2-6-14-12(10)13(11)15-8-9/h2-8H,1H3

>  <IUPAC Name>  (1) 
3-methyl-1,10-phenanthroline

$$$$
