
     RDKit          3D

 50 53  0  0  0  0  0  0  0  0999 V2000
    8.0891   -0.6365    0.9812 C   0  0  0  0  0  0  0  0  0  0  0  0
    6.7482   -0.5064    0.4981 N   0  0  0  0  0  0  0  0  0  0  0  0
    6.4846    0.8235   -0.0670 C   0  0  0  0  0  0  0  0  0  0  0  0
    4.9963    1.0345    0.0828 C   0  0  0  0  0  0  0  0  0  0  0  0
    4.3075   -0.1446   -0.3966 N   0  0  0  0  0  0  0  0  0  0  0  0
    4.9468   -1.3344   -0.8645 C   0  0  0  0  0  0  0  0  0  0  0  0
    6.3951   -1.4633   -0.5103 C   0  0  0  0  0  0  0  0  0  0  0  0
    2.8836   -0.1037   -0.3973 C   0  0  0  0  0  0  0  0  0  0  0  0
    2.2250    1.0300    0.0499 C   0  0  0  0  0  0  0  0  0  0  0  0
    0.8504    1.1355    0.0757 C   0  0  0  0  0  0  0  0  0  0  0  0
    0.0678    0.0790   -0.3579 C   0  0  0  0  0  0  0  0  0  0  0  0
    0.7149   -1.0552   -0.8055 C   0  0  0  0  0  0  0  0  0  0  0  0
    2.0962   -1.1486   -0.8264 C   0  0  0  0  0  0  0  0  0  0  0  0
   -1.3529    0.1570   -0.3437 N   0  0  0  0  0  0  0  0  0  0  0  0
   -2.1189    0.6414   -1.4355 C   0  0  0  0  0  0  0  0  0  0  0  0
   -1.5715    1.0387   -2.5031 O   0  0  0  0  0  0  0  0  0  0  0  0
   -3.5870    0.6958   -1.3557 C   0  0  0  0  0  0  0  0  0  0  0  0
   -4.4121    1.1472   -2.3563 C   0  0  0  0  0  0  0  0  0  0  0  0
   -5.7123    1.0250   -1.8623 C   0  0  0  0  0  0  0  0  0  0  0  0
   -5.5929    0.5076   -0.5940 C   0  0  0  0  0  0  0  0  0  0  0  0
   -4.3206    0.3258   -0.3288 O   0  0  0  0  0  0  0  0  0  0  0  0
   -6.6695    0.1953    0.3396 C   0  0  0  0  0  0  0  0  0  0  0  0
   -6.3482   -0.3237    1.5823 C   0  0  0  0  0  0  0  0  0  0  0  0
   -7.3551   -0.6240    2.4760 C   0  0  0  0  0  0  0  0  0  0  0  0
   -8.7002   -0.4257    2.1800 C   0  0  0  0  0  0  0  0  0  0  0  0
   -8.9852    0.0940    0.9305 C   0  0  0  0  0  0  0  0  0  0  0  0
   -7.9921    0.4007    0.0230 C   0  0  0  0  0  0  0  0  0  0  0  0
  -10.0505   -0.8574    3.4504 Br  0  0  0  0  0  0  0  0  0  0  0  0
    8.0262   -0.7653    2.0841 H   0  0  0  0  0  0  0  0  0  0  0  0
    8.6125    0.3326    0.8237 H   0  0  0  0  0  0  0  0  0  0  0  0
    8.5981   -1.4781    0.4638 H   0  0  0  0  0  0  0  0  0  0  0  0
    6.7639    0.8116   -1.1407 H   0  0  0  0  0  0  0  0  0  0  0  0
    7.0887    1.5656    0.4631 H   0  0  0  0  0  0  0  0  0  0  0  0
    4.7761    1.1045    1.1770 H   0  0  0  0  0  0  0  0  0  0  0  0
    4.6526    1.9690   -0.3904 H   0  0  0  0  0  0  0  0  0  0  0  0
    4.4302   -2.2244   -0.4044 H   0  0  0  0  0  0  0  0  0  0  0  0
    4.8034   -1.4051   -1.9783 H   0  0  0  0  0  0  0  0  0  0  0  0
    6.6555   -2.4807   -0.1415 H   0  0  0  0  0  0  0  0  0  0  0  0
    7.0126   -1.2955   -1.4313 H   0  0  0  0  0  0  0  0  0  0  0  0
    2.7737    1.9026    0.4069 H   0  0  0  0  0  0  0  0  0  0  0  0
    0.3751    2.0319    0.4299 H   0  0  0  0  0  0  0  0  0  0  0  0
    0.1065   -1.8838   -1.1456 H   0  0  0  0  0  0  0  0  0  0  0  0
    2.5535   -2.0520   -1.1837 H   0  0  0  0  0  0  0  0  0  0  0  0
   -1.8195   -0.1750    0.5500 H   0  0  0  0  0  0  0  0  0  0  0  0
   -4.1290    1.5215   -3.3279 H   0  0  0  0  0  0  0  0  0  0  0  0
   -6.6362    1.2757   -2.3499 H   0  0  0  0  0  0  0  0  0  0  0  0
   -5.3217   -0.4945    1.8563 H   0  0  0  0  0  0  0  0  0  0  0  0
   -7.0572   -1.0286    3.4377 H   0  0  0  0  0  0  0  0  0  0  0  0
  -10.0291    0.2483    0.7000 H   0  0  0  0  0  0  0  0  0  0  0  0
   -8.2725    0.8120   -0.9579 H   0  0  0  0  0  0  0  0  0  0  0  0
  1  2  1  0
  2  3  1  0
  3  4  1  0
  4  5  1  0
  5  6  1  0
  6  7  1  0
  5  8  1  0
  8  9  2  0
  9 10  1  0
 10 11  2  0
 11 12  1  0
 12 13  2  0
 11 14  1  0
 14 15  1  0
 15 16  2  0
 15 17  1  0
 17 18  2  0
 18 19  1  0
 19 20  2  0
 20 21  1  0
 20 22  1  0
 22 23  2  0
 23 24  1  0
 24 25  2  0
 25 26  1  0
 26 27  2  0
 25 28  1  0
  7  2  1  0
 13  8  1  0
 21 17  1  0
 27 22  1  0
  1 29  1  0
  1 30  1  0
  1 31  1  0
  3 32  1  0
  3 33  1  0
  4 34  1  0
  4 35  1  0
  6 36  1  0
  6 37  1  0
  7 38  1  0
  7 39  1  0
  9 40  1  0
 10 41  1  0
 12 42  1  0
 13 43  1  0
 14 44  1  0
 18 45  1  0
 19 46  1  0
 23 47  1  0
 24 48  1  0
 26 49  1  0
 27 50  1  0
M  END
>  <Ligand ID>  (1) 
LIG0004635

>  <Ligand>  (1) 
5-(4-bromophenyl)-N-[4-(4-methylpiperazin-1-yl)phenyl]furan-2-carboxamide

>  <SMILES>  (1) 
CN1CCN(CC1)c1ccc(cc1)NC(=O)c1ccc(o1)c1ccc(cc1)Br

>  <CID>  (1) 
1017506.0

>  <ChEMBL ID>  (1) 
nan

>  <InChiKey>  (1) 
PXUMPNLLASGJTF-UHFFFAOYSA-N

>  <InChi>  (1) 
InChI=1S/C22H22BrN3O2/c1-25-12-14-26(15-13-25)19-8-6-18(7-9-19)24-22(27)21-11-10-20(28-21)16-2-4-17(23)5-3-16/h2-11H,12-15H2,1H3,(H,24,27)

>  <IUPAC Name>  (1) 
5-(4-bromophenyl)-N-[4-(4-methylpiperazin-1-yl)phenyl]furan-2-carboxamide

$$$$
