
     RDKit          3D

 40 42  0  0  0  0  0  0  0  0999 V2000
   -1.3159    1.3816    0.0638 O   0  0  0  0  0  0  0  0  0  0  0  0
   -1.5085    0.1538   -0.1099 C   0  0  0  0  0  0  0  0  0  0  0  0
   -0.5374   -0.7982   -0.5995 C   0  0  0  0  0  0  0  0  0  0  0  0
   -0.8735   -2.1302   -0.7054 C   0  0  0  0  0  0  0  0  0  0  0  0
    0.0168   -3.1041   -1.1593 C   0  0  0  0  0  0  0  0  0  0  0  0
    1.2805   -2.7569   -1.5213 C   0  0  0  0  0  0  0  0  0  0  0  0
    1.6217   -1.4165   -1.4159 C   0  0  0  0  0  0  0  0  0  0  0  0
    0.7487   -0.4492   -0.9691 C   0  0  0  0  0  0  0  0  0  0  0  0
    1.2280    0.8913   -0.9575 N   0  0  0  0  0  0  0  0  0  0  0  0
    2.5731    1.2692   -1.3168 C   0  0  0  0  0  0  0  0  0  0  0  0
    3.5895    1.0658   -0.2708 C   0  0  0  0  0  0  0  0  0  0  0  0
    4.3576    2.0726    0.1156 N   0  0  0  0  0  0  0  0  0  0  0  0
    5.2664    1.6577    1.1305 C   0  0  0  0  0  0  0  0  0  0  0  0
    5.2871    0.1366    1.0814 C   0  0  0  0  0  0  0  0  0  0  0  0
    3.9574   -0.0724    0.4762 N   0  0  0  0  0  0  0  0  0  0  0  0
   -2.8308   -0.2835    0.2247 N   0  0  0  0  0  0  0  0  0  0  0  0
   -3.7675    0.7111    0.7117 C   0  0  0  0  0  0  0  0  0  0  0  0
   -5.1047    0.6440   -0.0018 C   0  0  0  0  0  0  0  0  0  0  0  0
   -5.7488    0.9283    1.3613 C   0  0  0  0  0  0  0  0  0  0  0  0
   -4.5195    0.2533    1.9682 C   0  0  0  0  0  0  0  0  0  0  0  0
   -1.8552   -2.5294   -0.4446 H   0  0  0  0  0  0  0  0  0  0  0  0
   -0.2669   -4.1447   -1.2351 H   0  0  0  0  0  0  0  0  0  0  0  0
    1.9876   -3.4935   -1.8756 H   0  0  0  0  0  0  0  0  0  0  0  0
    2.6540   -1.1923   -1.7198 H   0  0  0  0  0  0  0  0  0  0  0  0
    0.6112    1.7115   -0.6786 H   0  0  0  0  0  0  0  0  0  0  0  0
    2.5429    2.3476   -1.6395 H   0  0  0  0  0  0  0  0  0  0  0  0
    2.9281    0.7144   -2.2379 H   0  0  0  0  0  0  0  0  0  0  0  0
    6.2622    2.0898    0.9647 H   0  0  0  0  0  0  0  0  0  0  0  0
    4.9203    2.0169    2.1377 H   0  0  0  0  0  0  0  0  0  0  0  0
    5.3486   -0.2860    2.0909 H   0  0  0  0  0  0  0  0  0  0  0  0
    6.0965   -0.2478    0.4269 H   0  0  0  0  0  0  0  0  0  0  0  0
    3.4385   -0.9441    0.6296 H   0  0  0  0  0  0  0  0  0  0  0  0
   -3.1742   -1.2514    0.1473 H   0  0  0  0  0  0  0  0  0  0  0  0
   -3.4122    1.7406    0.7962 H   0  0  0  0  0  0  0  0  0  0  0  0
   -5.2747   -0.4205   -0.3125 H   0  0  0  0  0  0  0  0  0  0  0  0
   -5.2871    1.4061   -0.7726 H   0  0  0  0  0  0  0  0  0  0  0  0
   -6.7023    0.3939    1.5199 H   0  0  0  0  0  0  0  0  0  0  0  0
   -5.7582    2.0260    1.5388 H   0  0  0  0  0  0  0  0  0  0  0  0
   -4.6257   -0.8359    1.9926 H   0  0  0  0  0  0  0  0  0  0  0  0
   -4.1534    0.7444    2.8951 H   0  0  0  0  0  0  0  0  0  0  0  0
  1  2  2  0
  2  3  1  0
  3  4  2  0
  4  5  1  0
  5  6  2  0
  6  7  1  0
  7  8  2  0
  8  9  1  0
  9 10  1  0
 10 11  1  0
 11 12  2  0
 12 13  1  0
 13 14  1  0
 14 15  1  0
  2 16  1  0
 16 17  1  0
 17 18  1  0
 18 19  1  0
 19 20  1  0
  8  3  1  0
 15 11  1  0
 20 17  1  0
  4 21  1  0
  5 22  1  0
  6 23  1  0
  7 24  1  0
  9 25  1  0
 10 26  1  0
 10 27  1  0
 13 28  1  0
 13 29  1  0
 14 30  1  0
 14 31  1  0
 15 32  1  0
 16 33  1  0
 17 34  1  0
 18 35  1  0
 18 36  1  0
 19 37  1  0
 19 38  1  0
 20 39  1  0
 20 40  1  0
M  END
>  <Ligand ID>  (1) 
LIG0002933

>  <Ligand>  (1) 
CHEMBL96988

>  <SMILES>  (1) 
O=C(c1ccccc1NCC1=NCCN1)NC1CCC1

>  <CID>  (1) 
44329083.0

>  <ChEMBL ID>  (1) 
nan

>  <InChiKey>  (1) 
KJYJPEXJENXWRY-UHFFFAOYSA-N

>  <InChi>  (1) 
InChI=1S/C15H20N4O/c20-15(19-11-4-3-5-11)12-6-1-2-7-13(12)18-10-14-16-8-9-17-14/h1-2,6-7,11,18H,3-5,8-10H2,(H,16,17)(H,19,20)

>  <IUPAC Name>  (1) 
N-cyclobutyl-2-(4,5-dihydro-1H-imidazol-2-ylmethylamino)benzamide

$$$$
