
     RDKit          3D

121126  0  0  0  0  0  0  0  0999 V2000
   -0.5811    4.5629   -3.8400 N   0  0  0  0  0  0  0  0  0  0  0  0
   -1.2597    3.5164   -4.5064 C   0  0  0  0  0  0  0  0  0  0  0  0
   -2.0724    2.6822   -4.0338 N   0  0  0  0  0  0  0  0  0  0  0  0
   -2.6010    2.4647   -2.7358 C   0  0  0  0  0  0  0  0  0  0  0  0
   -2.1082    3.4582   -1.7625 C   0  0  0  0  0  0  0  0  0  0  0  0
   -2.6205    3.3425   -0.3766 C   0  0  0  0  0  0  0  0  0  0  0  0
   -2.3554    2.0677    0.3702 C   0  0  2  0  0  0  0  0  0  0  0  0
   -0.9793    1.7505    0.5613 N   0  0  0  0  0  0  0  0  0  0  0  0
   -0.2741    2.1923    1.7512 C   0  0  0  0  0  0  0  0  0  0  0  0
   -0.9989    2.8253    2.5366 O   0  0  0  0  0  0  0  0  0  0  0  0
    1.1138    1.9693    2.0665 C   0  0  1  0  0  0  0  0  0  0  0  0
    1.4306    1.5285    3.4802 C   0  0  0  0  0  0  0  0  0  0  0  0
    0.9578    2.5412    4.4429 C   0  0  0  0  0  0  0  0  0  0  0  0
   -0.2554    2.4634    5.1071 C   0  0  0  0  0  0  0  0  0  0  0  0
   -0.6738    3.4609    5.9948 C   0  0  0  0  0  0  0  0  0  0  0  0
    0.1689    4.5387    6.1931 C   0  0  0  0  0  0  0  0  0  0  0  0
    1.3731    4.6003    5.5257 C   0  0  0  0  0  0  0  0  0  0  0  0
    1.8130    3.6358    4.6463 C   0  0  0  0  0  0  0  0  0  0  0  0
    1.9145    1.2232    1.1130 N   0  0  0  0  0  0  0  0  0  0  0  0
    2.8255    1.8746    0.1983 C   0  0  0  0  0  0  0  0  0  0  0  0
    2.7967    3.1087    0.2411 O   0  0  0  0  0  0  0  0  0  0  0  0
    3.7196    1.0858   -0.7242 C   0  0  2  0  0  0  0  0  0  0  0  0
    3.3484    1.3278   -2.1441 C   0  0  0  0  0  0  0  0  0  0  0  0
    4.1499    0.6251   -3.1632 C   0  0  0  0  0  0  0  0  0  0  0  0
    5.1730   -0.2066   -3.1020 N   0  0  0  0  0  0  0  0  0  0  0  0
    5.5948   -0.6024   -4.3147 C   0  0  0  0  0  0  0  0  0  0  0  0
    4.7694    0.0343   -5.1809 N   0  0  0  0  0  0  0  0  0  0  0  0
    3.8830    0.7852   -4.5243 C   0  0  0  0  0  0  0  0  0  0  0  0
    3.6796   -0.3290   -0.3359 N   0  0  0  0  0  0  0  0  0  0  0  0
    4.7448   -0.8442    0.4475 C   0  0  0  0  0  0  0  0  0  0  0  0
    5.6378    0.0017    0.7067 O   0  0  0  0  0  0  0  0  0  0  0  0
    4.9174   -2.1708    0.9676 C   0  0  0  0  0  0  0  0  0  0  0  0
    6.2532   -2.6177    1.0486 C   0  0  0  0  0  0  0  0  0  0  0  0
    6.5416   -3.8695    1.6064 C   0  0  0  0  0  0  0  0  0  0  0  0
    5.5244   -4.6945    2.0896 C   0  0  0  0  0  0  0  0  0  0  0  0
    4.2344   -4.2614    2.0111 C   0  0  0  0  0  0  0  0  0  0  0  0
    3.9810   -3.0060    1.4460 C   0  0  0  0  0  0  0  0  0  0  0  0
    2.5215   -2.7202    1.4411 C   0  0  0  0  0  0  0  0  0  0  0  0
    2.0865   -2.1570    2.4050 O   0  0  0  0  0  0  0  0  0  0  0  0
    1.6694   -3.0840    0.3719 N   0  0  0  0  0  0  0  0  0  0  0  0
    0.2567   -2.7858    0.3287 C   0  0  0  0  0  0  0  0  0  0  0  0
   -0.3952   -3.3720   -0.9206 C   0  0  0  0  0  0  0  0  0  0  0  0
    0.2837   -3.0007   -2.1991 C   0  0  0  0  0  0  0  0  0  0  0  0
   -0.6263   -3.5026   -3.3202 C   0  0  0  0  0  0  0  0  0  0  0  0
   -1.6714   -2.4370   -3.6128 C   0  0  1  0  0  0  0  0  0  0  0  0
   -2.2594   -1.8533   -2.4526 N   0  0  0  0  0  0  0  0  0  0  0  0
   -3.5988   -1.9660   -2.0000 C   0  0  0  0  0  0  0  0  0  0  0  0
   -4.3484   -2.6787   -2.6713 O   0  0  0  0  0  0  0  0  0  0  0  0
   -4.0366   -1.2362   -0.7497 C   0  0  2  0  0  0  0  0  0  0  0  0
   -2.9867   -0.3676   -0.2489 N   0  0  0  0  0  0  0  0  0  0  0  0
   -3.2752    1.0177   -0.0616 C   0  0  0  0  0  0  0  0  0  0  0  0
   -4.4614    1.3354   -0.3002 O   0  0  0  0  0  0  0  0  0  0  0  0
   -4.4524   -2.3188    0.2216 C   0  0  0  0  0  0  0  0  0  0  0  0
   -4.9069   -1.8187    1.5246 C   0  0  0  0  0  0  0  0  0  0  0  0
   -6.2582   -1.6494    1.8555 C   0  0  0  0  0  0  0  0  0  0  0  0
   -6.3473   -1.1420    3.1137 N   0  0  0  0  0  0  0  0  0  0  0  0
   -5.1015   -0.9841    3.5904 C   0  0  0  0  0  0  0  0  0  0  0  0
   -4.2025   -1.3935    2.6320 C   0  0  0  0  0  0  0  0  0  0  0  0
   -2.8497   -1.3398    2.8669 C   0  0  0  0  0  0  0  0  0  0  0  0
   -2.4247   -0.8681    4.0759 C   0  0  0  0  0  0  0  0  0  0  0  0
   -3.2649   -0.4364    5.0896 C   0  0  0  0  0  0  0  0  0  0  0  0
   -4.6314   -0.5157    4.7932 C   0  0  0  0  0  0  0  0  0  0  0  0
   -0.9949   -1.4521   -4.5070 C   0  0  0  0  0  0  0  0  0  0  0  0
   -0.9419   -0.2266   -4.2658 O   0  0  0  0  0  0  0  0  0  0  0  0
   -0.3760   -1.9135   -5.6925 N   0  0  0  0  0  0  0  0  0  0  0  0
   -0.9646    3.4031   -5.9237 N   0  0  0  0  0  0  0  0  0  0  0  0
   -0.9494    5.5377   -3.7385 H   0  0  0  0  0  0  0  0  0  0  0  0
    0.3764    4.4254   -3.3913 H   0  0  0  0  0  0  0  0  0  0  0  0
   -3.7230    2.5965   -2.8301 H   0  0  0  0  0  0  0  0  0  0  0  0
   -2.3657    1.4063   -2.4742 H   0  0  0  0  0  0  0  0  0  0  0  0
   -2.3710    4.4686   -2.2086 H   0  0  0  0  0  0  0  0  0  0  0  0
   -1.0013    3.4493   -1.7315 H   0  0  0  0  0  0  0  0  0  0  0  0
   -2.3461    4.1962    0.2746 H   0  0  0  0  0  0  0  0  0  0  0  0
   -3.7501    3.4064   -0.4458 H   0  0  0  0  0  0  0  0  0  0  0  0
   -2.7267    2.3301    1.4245 H   0  0  0  0  0  0  0  0  0  0  0  0
   -0.3721    1.2125   -0.0682 H   0  0  0  0  0  0  0  0  0  0  0  0
    1.5661    3.0283    2.0272 H   0  0  0  0  0  0  0  0  0  0  0  0
    2.5231    1.4035    3.5661 H   0  0  0  0  0  0  0  0  0  0  0  0
    0.9332    0.5730    3.7378 H   0  0  0  0  0  0  0  0  0  0  0  0
   -0.9000    1.6208    4.9582 H   0  0  0  0  0  0  0  0  0  0  0  0
   -1.6262    3.3473    6.4822 H   0  0  0  0  0  0  0  0  0  0  0  0
   -0.1557    5.3048    6.8746 H   0  0  0  0  0  0  0  0  0  0  0  0
    2.0591    5.4496    5.6734 H   0  0  0  0  0  0  0  0  0  0  0  0
    2.7612    3.7143    4.1358 H   0  0  0  0  0  0  0  0  0  0  0  0
    1.8946    0.2055    1.0159 H   0  0  0  0  0  0  0  0  0  0  0  0
    4.7169    1.5122   -0.5237 H   0  0  0  0  0  0  0  0  0  0  0  0
    2.2769    1.0798   -2.3603 H   0  0  0  0  0  0  0  0  0  0  0  0
    3.5132    2.4270   -2.3404 H   0  0  0  0  0  0  0  0  0  0  0  0
    5.6260   -0.5369   -2.2252 H   0  0  0  0  0  0  0  0  0  0  0  0
    6.3710   -1.2512   -4.6337 H   0  0  0  0  0  0  0  0  0  0  0  0
    3.1270    1.3831   -4.9801 H   0  0  0  0  0  0  0  0  0  0  0  0
    2.9426   -0.9538   -0.6023 H   0  0  0  0  0  0  0  0  0  0  0  0
    7.0691   -2.0158    0.6852 H   0  0  0  0  0  0  0  0  0  0  0  0
    7.5682   -4.1694    1.6499 H   0  0  0  0  0  0  0  0  0  0  0  0
    5.7267   -5.6525    2.5193 H   0  0  0  0  0  0  0  0  0  0  0  0
    3.3552   -4.7720    2.3679 H   0  0  0  0  0  0  0  0  0  0  0  0
    2.1275   -3.5894   -0.3934 H   0  0  0  0  0  0  0  0  0  0  0  0
   -0.3063   -3.0674    1.2169 H   0  0  0  0  0  0  0  0  0  0  0  0
    0.1060   -1.6668    0.2213 H   0  0  0  0  0  0  0  0  0  0  0  0
   -1.4686   -3.3913   -0.8902 H   0  0  0  0  0  0  0  0  0  0  0  0
   -0.1231   -4.4969   -0.8051 H   0  0  0  0  0  0  0  0  0  0  0  0
    1.2618   -3.5034   -2.3302 H   0  0  0  0  0  0  0  0  0  0  0  0
    0.4777   -1.9133   -2.2907 H   0  0  0  0  0  0  0  0  0  0  0  0
   -1.1697   -4.4234   -2.9690 H   0  0  0  0  0  0  0  0  0  0  0  0
   -0.0896   -3.7297   -4.2407 H   0  0  0  0  0  0  0  0  0  0  0  0
   -2.4252   -2.9508   -4.2642 H   0  0  0  0  0  0  0  0  0  0  0  0
   -1.6530   -1.2624   -1.8556 H   0  0  0  0  0  0  0  0  0  0  0  0
   -4.9530   -0.6648   -1.0109 H   0  0  0  0  0  0  0  0  0  0  0  0
   -2.0387   -0.6409   -0.0062 H   0  0  0  0  0  0  0  0  0  0  0  0
   -5.2785   -2.8644   -0.2625 H   0  0  0  0  0  0  0  0  0  0  0  0
   -3.6139   -3.0532    0.3222 H   0  0  0  0  0  0  0  0  0  0  0  0
   -7.0943   -1.8959    1.1807 H   0  0  0  0  0  0  0  0  0  0  0  0
   -7.2636   -0.9464    3.5486 H   0  0  0  0  0  0  0  0  0  0  0  0
   -2.1453   -1.6685    2.1191 H   0  0  0  0  0  0  0  0  0  0  0  0
   -1.3530   -0.8030    4.3153 H   0  0  0  0  0  0  0  0  0  0  0  0
   -2.9091   -0.0670    6.0311 H   0  0  0  0  0  0  0  0  0  0  0  0
   -5.3847   -0.2052    5.5178 H   0  0  0  0  0  0  0  0  0  0  0  0
   -0.7954   -2.7532   -6.1828 H   0  0  0  0  0  0  0  0  0  0  0  0
    0.4864   -1.4408   -6.0920 H   0  0  0  0  0  0  0  0  0  0  0  0
   -0.6184    4.1907   -6.4829 H   0  0  0  0  0  0  0  0  0  0  0  0
   -1.1032    2.4797   -6.4265 H   0  0  0  0  0  0  0  0  0  0  0  0
  1  2  1  0
  2  3  2  3
  3  4  1  0
  4  5  1  0
  5  6  1  0
  6  7  1  0
  7  8  1  0
  8  9  1  0
  9 10  2  0
  9 11  1  0
 11 12  1  0
 12 13  1  0
 13 14  2  0
 14 15  1  0
 15 16  2  0
 16 17  1  0
 17 18  2  0
 11 19  1  0
 19 20  1  0
 20 21  2  0
 20 22  1  0
 22 23  1  0
 23 24  1  0
 24 25  1  0
 25 26  1  0
 26 27  2  0
 27 28  1  0
 22 29  1  0
 29 30  1  0
 30 31  2  0
 30 32  1  0
 32 33  2  0
 33 34  1  0
 34 35  2  0
 35 36  1  0
 36 37  2  0
 37 38  1  0
 38 39  2  0
 38 40  1  0
 40 41  1  0
 41 42  1  0
 42 43  1  0
 43 44  1  0
 44 45  1  0
 45 46  1  0
 46 47  1  0
 47 48  2  0
 47 49  1  0
 49 50  1  0
 50 51  1  0
 51 52  2  0
 49 53  1  0
 53 54  1  0
 54 55  2  0
 55 56  1  0
 56 57  1  0
 57 58  2  0
 58 59  1  0
 59 60  2  0
 60 61  1  0
 61 62  2  0
 45 63  1  0
 63 64  2  0
 63 65  1  0
  2 66  1  0
 51  7  1  0
 58 54  1  0
 18 13  1  0
 28 24  2  0
 37 32  1  0
 62 57  1  0
  1 67  1  0
  1 68  1  0
  4 69  1  0
  4 70  1  0
  5 71  1  0
  5 72  1  0
  6 73  1  0
  6 74  1  0
  7 75  1  1
  8 76  1  0
 11 77  1  1
 12 78  1  0
 12 79  1  0
 14 80  1  0
 15 81  1  0
 16 82  1  0
 17 83  1  0
 18 84  1  0
 19 85  1  0
 22 86  1  6
 23 87  1  0
 23 88  1  0
 25 89  1  0
 26 90  1  0
 28 91  1  0
 29 92  1  0
 33 93  1  0
 34 94  1  0
 35 95  1  0
 36 96  1  0
 40 97  1  0
 41 98  1  0
 41 99  1  0
 42100  1  0
 42101  1  0
 43102  1  0
 43103  1  0
 44104  1  0
 44105  1  0
 45106  1  6
 46107  1  0
 49108  1  6
 50109  1  0
 53110  1  0
 53111  1  0
 55112  1  0
 56113  1  0
 59114  1  0
 60115  1  0
 61116  1  0
 62117  1  0
 65118  1  0
 65119  1  0
 66120  1  0
 66121  1  0
M  END
>  <Ligand ID>  (1) 
LIG0003107

>  <Ligand>  (1) 
CHEMBL314401

>  <SMILES>  (1) 
NC(=NCCC[C@@H]1NC(=O)[C@@H](Cc2ccccc2)NC(=O)[C@H](Cc2[nH]cnc2)NC(=O)c2ccccc2C(=O)NCCCC[C@@H](NC(=O)[C@H](NC1=O)Cc1c[nH]c2c1cccc2)C(=O)N)N

>  <CID>  (1) 
44323233.0

>  <ChEMBL ID>  (1) 
nan

>  <InChiKey>  (1) 
CCSNUTWWOMOIBR-GSPXPSQGSA-N

>  <InChi>  (1) 
InChI=1S/C46H55N13O7/c47-39(60)34-17-8-9-19-51-40(61)31-14-4-5-15-32(31)41(62)57-38(23-29-25-50-26-54-29)45(66)58-36(21-27-11-2-1-3-12-27)43(64)56-35(18-10-20-52-46(48)49)42(63)59-37(44(65)55-34)22-28-24-53-33-16-7-6-13-30(28)33/h1-7,11-16,24-26,34-38,53H,8-10,17-23H2,(H2,47,60)(H,50,54)(H,51,61)(H,55,65)(H,56,64)(H,57,62)(H,58,66)(H,59,63)(H4,48,49,52)/t34-,35+,36-,37-,38+/m1/s1

>  <IUPAC Name>  (1) 
(4S,7R,10S,13R,16R)-7-benzyl-10-[3-(diaminomethylideneamino)propyl]-4-(1H-imidazol-5-ylmethyl)-13-(1H-indol-3-ylmethyl)-2,5,8,11,14,22-hexaoxo-3,6,9,12,15,21-hexazabicyclo[21.4.0]heptacosa-1(27),23,25-triene-16-carboxamide

$$$$
