
     RDKit          3D

 61 63  0  0  0  0  0  0  0  0999 V2000
   -9.7865    1.8442   -2.0353 O   0  0  0  0  0  0  0  0  0  0  0  0
   -8.8394    1.4724   -1.3082 C   0  0  0  0  0  0  0  0  0  0  0  0
   -9.1452    0.7738   -0.1598 C   0  0  0  0  0  0  0  0  0  0  0  0
   -8.0719    0.3709    0.6329 C   0  0  0  0  0  0  0  0  0  0  0  0
   -6.7907    0.6551    0.2867 N   0  0  0  0  0  0  0  0  0  0  0  0
   -6.5321    1.3382   -0.8405 C   0  0  0  0  0  0  0  0  0  0  0  0
   -5.3447    1.5952   -1.1506 O   0  0  0  0  0  0  0  0  0  0  0  0
   -7.5478    1.7281   -1.6052 N   0  0  0  0  0  0  0  0  0  0  0  0
   -5.7567    0.1841    1.1903 C   0  0  2  0  0  0  0  0  0  0  0  0
   -4.5319    0.4961    0.6419 O   0  0  0  0  0  0  0  0  0  0  0  0
   -3.8885   -0.6719    0.3102 C   0  0  1  0  0  0  0  0  0  0  0  0
   -4.9700   -1.7086    0.0849 C   0  0  2  0  0  0  0  0  0  0  0  0
   -5.8571   -1.3339    1.2766 C   0  0  1  0  0  0  0  0  0  0  0  0
   -5.2113   -1.6998    2.4453 O   0  0  0  0  0  0  0  0  0  0  0  0
   -4.4843   -3.0024    0.2153 O   0  0  0  0  0  0  0  0  0  0  0  0
   -2.9271   -0.5553   -0.8443 C   0  0  0  0  0  0  0  0  0  0  0  0
   -1.9703    0.3852   -0.4671 O   0  0  0  0  0  0  0  0  0  0  0  0
   -0.8186    0.6113   -1.6907 P   0  0  0  0  0  0  0  0  0  0  0  0
   -1.5879    0.7574   -2.9939 O   0  0  0  0  0  0  0  0  0  0  0  0
    0.2114   -0.7099   -1.8255 O   0  0  0  0  0  0  0  0  0  0  0  0
    0.9000   -1.1410   -0.3606 P   0  0  0  0  0  0  0  0  0  0  0  0
    1.5011   -2.5193   -0.4642 O   0  0  0  0  0  0  0  0  0  0  0  0
    2.1591   -0.0860    0.0575 O   0  0  0  0  0  0  0  0  0  0  0  0
    3.0602   -0.7857    1.2968 P   0  0  0  0  0  0  0  0  0  0  0  0
    3.0727   -2.2837    1.0733 O   0  0  0  0  0  0  0  0  0  0  0  0
    4.6457   -0.2557    1.3161 O   0  0  0  0  0  0  0  0  0  0  0  0
    5.5173   -0.7693   -0.0354 P   0  0  0  0  0  0  0  0  0  0  0  0
    5.3793    0.3160   -1.0829 O   0  0  0  0  0  0  0  0  0  0  0  0
    7.1537   -1.0766    0.3375 O   0  0  0  0  0  0  0  0  0  0  0  0
    8.1284   -0.1190    0.0660 C   0  0  0  0  0  0  0  0  0  0  0  0
    9.3076   -0.5522   -0.5243 C   0  0  0  0  0  0  0  0  0  0  0  0
   10.3007    0.3546   -0.8121 C   0  0  0  0  0  0  0  0  0  0  0  0
   10.0744    1.6762   -0.4951 C   0  0  0  0  0  0  0  0  0  0  0  0
    8.8907    2.1041    0.0963 C   0  0  0  0  0  0  0  0  0  0  0  0
    7.8952    1.1999    0.3856 C   0  0  0  0  0  0  0  0  0  0  0  0
    8.6797    3.4656    0.4131 N   0  0  0  0  0  0  0  0  0  0  0  0
    9.5725    4.3088    0.1589 O   0  0  0  0  0  0  0  0  0  0  0  0
    7.4992    3.8246    0.9918 O   0  0  0  0  0  0  0  0  0  0  0  0
    4.7798   -2.2076   -0.5675 O   0  0  0  0  0  0  0  0  0  0  0  0
    2.3635   -0.4416    2.7940 O   0  0  0  0  0  0  0  0  0  0  0  0
   -0.2918   -1.1669    0.8399 O   0  0  0  0  0  0  0  0  0  0  0  0
    0.0315    2.0454   -1.4282 O   0  0  0  0  0  0  0  0  0  0  0  0
  -10.1426    0.5296    0.1486 H   0  0  0  0  0  0  0  0  0  0  0  0
   -8.2902   -0.1850    1.5494 H   0  0  0  0  0  0  0  0  0  0  0  0
   -7.3887    2.2641   -2.4943 H   0  0  0  0  0  0  0  0  0  0  0  0
   -5.9313    0.6547    2.1756 H   0  0  0  0  0  0  0  0  0  0  0  0
   -3.3218   -1.0261    1.2053 H   0  0  0  0  0  0  0  0  0  0  0  0
   -5.5679   -1.5262   -0.8116 H   0  0  0  0  0  0  0  0  0  0  0  0
   -6.8802   -1.7111    1.1852 H   0  0  0  0  0  0  0  0  0  0  0  0
   -4.6952   -0.9592    2.8725 H   0  0  0  0  0  0  0  0  0  0  0  0
   -4.4928   -3.2040    1.1935 H   0  0  0  0  0  0  0  0  0  0  0  0
   -3.4207   -0.2819   -1.7755 H   0  0  0  0  0  0  0  0  0  0  0  0
   -2.4206   -1.5581   -0.9090 H   0  0  0  0  0  0  0  0  0  0  0  0
    9.4280   -1.6015   -0.7499 H   0  0  0  0  0  0  0  0  0  0  0  0
   11.2289    0.0513   -1.2706 H   0  0  0  0  0  0  0  0  0  0  0  0
   10.8701    2.3716   -0.7309 H   0  0  0  0  0  0  0  0  0  0  0  0
    6.9746    1.4897    0.8385 H   0  0  0  0  0  0  0  0  0  0  0  0
    5.2602   -2.5617   -1.3689 H   0  0  0  0  0  0  0  0  0  0  0  0
    2.4061   -1.2140    3.3996 H   0  0  0  0  0  0  0  0  0  0  0  0
   -0.5460   -2.1005    1.0612 H   0  0  0  0  0  0  0  0  0  0  0  0
    0.1602    2.1480   -0.4538 H   0  0  0  0  0  0  0  0  0  0  0  0
  1  2  2  0
  2  3  1  0
  3  4  2  0
  4  5  1  0
  5  6  1  0
  6  7  2  0
  6  8  1  0
  5  9  1  0
  9 10  1  0
 10 11  1  0
 11 12  1  0
 12 13  1  0
 13 14  1  0
 12 15  1  0
 11 16  1  0
 16 17  1  0
 17 18  1  0
 18 19  2  0
 18 20  1  0
 20 21  1  0
 21 22  2  0
 21 23  1  0
 23 24  1  0
 24 25  2  0
 24 26  1  0
 26 27  1  0
 27 28  2  0
 27 29  1  0
 29 30  1  0
 30 31  2  0
 31 32  1  0
 32 33  2  0
 33 34  1  0
 34 35  2  0
 34 36  1  0
 36 37  2  0
 36 38  1  0
 27 39  1  0
 24 40  1  0
 21 41  1  0
 18 42  1  0
  8  2  1  0
 13  9  1  0
 35 30  1  0
  3 43  1  0
  4 44  1  0
  8 45  1  0
  9 46  1  1
 11 47  1  1
 12 48  1  6
 13 49  1  6
 14 50  1  0
 15 51  1  0
 16 52  1  0
 16 53  1  0
 31 54  1  0
 32 55  1  0
 33 56  1  0
 35 57  1  0
 39 58  1  0
 40 59  1  0
 41 60  1  0
 42 61  1  0
M  CHG  2  36   1  38  -1
M  END
>  <Ligand ID>  (1) 
LIG0005871

>  <Ligand>  (1) 
CHEMBL1784900

>  <SMILES>  (1) 
O=c1ccn(c(=O)[nH]1)[C@@H]1O[C@@H]([C@H]([C@H]1O)O)COP(=O)(OP(=O)(OP(=O)(OP(=O)(Oc1cccc(c1)[N+](=O)[O-])O)O)O)O

>  <CID>  (1) 
53309242.0

>  <ChEMBL ID>  (1) 
nan

>  <InChiKey>  (1) 
YQIPYVWBJKTEKU-FMKGYKFTSA-N

>  <InChi>  (1) 
InChI=1S/C15H19N3O20P4/c19-11-4-5-17(15(22)16-11)14-13(21)12(20)10(34-14)7-33-39(25,26)36-41(29,30)38-42(31,32)37-40(27,28)35-9-3-1-2-8(6-9)18(23)24/h1-6,10,12-14,20-21H,7H2,(H,25,26)(H,27,28)(H,29,30)(H,31,32)(H,16,19,22)/t10-,12-,13-,14-/m1/s1

>  <IUPAC Name>  (1) 
[[(2R,3S,4R,5R)-5-(2,4-dioxopyrimidin-1-yl)-3,4-dihydroxyoxolan-2-yl]methoxy-hydroxyphosphoryl] [hydroxy-[hydroxy-(3-nitrophenoxy)phosphoryl]oxyphosphoryl] hydrogen phosphate

$$$$
