
     RDKit          3D

 72 75  0  0  0  0  0  0  0  0999 V2000
  -11.4371   -0.1559   -0.4249 O   0  0  0  0  0  0  0  0  0  0  0  0
  -10.9147    1.0791   -0.8158 C   0  0  0  0  0  0  0  0  0  0  0  0
  -11.7106    2.0276   -1.0148 O   0  0  0  0  0  0  0  0  0  0  0  0
   -9.4289    1.2227   -0.9818 C   0  0  0  0  0  0  0  0  0  0  0  0
   -8.7583   -0.0839   -0.6816 C   0  0  0  0  0  0  0  0  0  0  0  0
   -7.3331   -0.0841   -0.8011 N   0  0  0  0  0  0  0  0  0  0  0  0
   -6.7788    0.7522    0.2600 C   0  0  0  0  0  0  0  0  0  0  0  0
   -5.2900    0.7353    0.1835 C   0  0  0  0  0  0  0  0  0  0  0  0
   -4.5514    1.7808   -0.3276 C   0  0  0  0  0  0  0  0  0  0  0  0
   -3.1545    1.6945   -0.3655 C   0  0  0  0  0  0  0  0  0  0  0  0
   -2.5254    0.5650    0.1087 C   0  0  0  0  0  0  0  0  0  0  0  0
   -3.2998   -0.4574    0.6109 C   0  0  0  0  0  0  0  0  0  0  0  0
   -4.6752   -0.4234    0.6708 C   0  0  0  0  0  0  0  0  0  0  0  0
   -5.4931   -1.5304    1.2162 C   0  0  0  0  0  0  0  0  0  0  0  0
   -5.9939   -2.5660    0.2894 C   0  0  0  0  0  0  0  0  0  0  0  0
   -4.8954   -2.9377    1.2042 C   0  0  0  0  0  0  0  0  0  0  0  0
   -1.0800    0.4100    0.1062 C   0  0  0  0  0  0  0  0  0  0  0  0
   -0.2595    1.3067   -0.3342 N   0  0  0  0  0  0  0  0  0  0  0  0
    1.1076    1.1050   -0.3117 O   0  0  0  0  0  0  0  0  0  0  0  0
    1.9187    1.6322    0.7254 C   0  0  0  0  0  0  0  0  0  0  0  0
    3.3193    1.2273    0.4466 C   0  0  0  0  0  0  0  0  0  0  0  0
    4.1850    1.9711   -0.3204 C   0  0  0  0  0  0  0  0  0  0  0  0
    5.4780    1.5268   -0.5251 C   0  0  0  0  0  0  0  0  0  0  0  0
    5.9435    0.3298    0.0289 C   0  0  0  0  0  0  0  0  0  0  0  0
    5.0625   -0.4312    0.8120 C   0  0  0  0  0  0  0  0  0  0  0  0
    3.7740    0.0514    0.9914 C   0  0  0  0  0  0  0  0  0  0  0  0
    5.4757   -1.6958    1.4335 C   0  0  0  0  0  0  0  0  0  0  0  0
    4.3797   -2.1930    2.1557 F   0  0  0  0  0  0  0  0  0  0  0  0
    5.7594   -2.7065    0.5271 F   0  0  0  0  0  0  0  0  0  0  0  0
    6.4887   -1.5451    2.3798 F   0  0  0  0  0  0  0  0  0  0  0  0
    7.3148   -0.0976   -0.2136 C   0  0  0  0  0  0  0  0  0  0  0  0
    7.4296   -0.7603   -1.5610 C   0  0  0  0  0  0  0  0  0  0  0  0
    8.8829   -0.8698   -1.9963 C   0  0  0  0  0  0  0  0  0  0  0  0
    9.8186   -0.6951   -0.8329 C   0  0  0  0  0  0  0  0  0  0  0  0
    9.6801    0.7075   -0.3047 C   0  0  0  0  0  0  0  0  0  0  0  0
    8.2223    1.1346   -0.2598 C   0  0  0  0  0  0  0  0  0  0  0  0
   -0.4639   -0.8414    0.6340 C   0  0  0  0  0  0  0  0  0  0  0  0
  -12.3891   -0.3013   -0.1241 H   0  0  0  0  0  0  0  0  0  0  0  0
   -9.1257    1.9685   -0.1962 H   0  0  0  0  0  0  0  0  0  0  0  0
   -9.2093    1.5701   -1.9979 H   0  0  0  0  0  0  0  0  0  0  0  0
   -9.1771   -0.8708   -1.3488 H   0  0  0  0  0  0  0  0  0  0  0  0
   -9.0243   -0.3984    0.3578 H   0  0  0  0  0  0  0  0  0  0  0  0
   -7.0430    0.3414   -1.7256 H   0  0  0  0  0  0  0  0  0  0  0  0
   -7.1119    1.7975    0.0135 H   0  0  0  0  0  0  0  0  0  0  0  0
   -7.1616    0.4927    1.2503 H   0  0  0  0  0  0  0  0  0  0  0  0
   -5.0567    2.6603   -0.6949 H   0  0  0  0  0  0  0  0  0  0  0  0
   -2.5454    2.5056   -0.7646 H   0  0  0  0  0  0  0  0  0  0  0  0
   -2.8026   -1.3318    0.9798 H   0  0  0  0  0  0  0  0  0  0  0  0
   -6.0781   -1.2704    2.1268 H   0  0  0  0  0  0  0  0  0  0  0  0
   -5.7243   -2.4256   -0.7893 H   0  0  0  0  0  0  0  0  0  0  0  0
   -6.9879   -3.0464    0.4443 H   0  0  0  0  0  0  0  0  0  0  0  0
   -5.0729   -3.5811    2.1100 H   0  0  0  0  0  0  0  0  0  0  0  0
   -3.8693   -3.0459    0.8335 H   0  0  0  0  0  0  0  0  0  0  0  0
    1.8095    2.7350    0.7114 H   0  0  0  0  0  0  0  0  0  0  0  0
    1.6133    1.2448    1.7208 H   0  0  0  0  0  0  0  0  0  0  0  0
    3.8155    2.9021   -0.7495 H   0  0  0  0  0  0  0  0  0  0  0  0
    6.1028    2.1610   -1.1393 H   0  0  0  0  0  0  0  0  0  0  0  0
    3.0862   -0.5425    1.6036 H   0  0  0  0  0  0  0  0  0  0  0  0
    7.7126   -0.7977    0.5492 H   0  0  0  0  0  0  0  0  0  0  0  0
    7.0012   -1.7680   -1.6270 H   0  0  0  0  0  0  0  0  0  0  0  0
    6.8664   -0.1423   -2.3040 H   0  0  0  0  0  0  0  0  0  0  0  0
    9.0808   -0.0777   -2.7346 H   0  0  0  0  0  0  0  0  0  0  0  0
    9.1021   -1.8395   -2.4967 H   0  0  0  0  0  0  0  0  0  0  0  0
   10.8386   -0.8030   -1.2183 H   0  0  0  0  0  0  0  0  0  0  0  0
    9.5887   -1.3942   -0.0092 H   0  0  0  0  0  0  0  0  0  0  0  0
   10.1579    0.8438    0.6840 H   0  0  0  0  0  0  0  0  0  0  0  0
   10.2666    1.3648   -1.0089 H   0  0  0  0  0  0  0  0  0  0  0  0
    8.0255    1.8542    0.5317 H   0  0  0  0  0  0  0  0  0  0  0  0
    8.0432    1.6375   -1.2374 H   0  0  0  0  0  0  0  0  0  0  0  0
    0.6369   -0.8577    0.5311 H   0  0  0  0  0  0  0  0  0  0  0  0
   -0.8430   -1.7218    0.0401 H   0  0  0  0  0  0  0  0  0  0  0  0
   -0.7223   -1.0480    1.6813 H   0  0  0  0  0  0  0  0  0  0  0  0
  1  2  1  0
  2  3  2  0
  2  4  1  0
  4  5  1  0
  5  6  1  0
  6  7  1  0
  7  8  1  0
  8  9  2  0
  9 10  1  0
 10 11  2  0
 11 12  1  0
 12 13  2  0
 13 14  1  0
 14 15  1  0
 15 16  1  0
 11 17  1  0
 17 18  2  0
 18 19  1  0
 19 20  1  0
 20 21  1  0
 21 22  2  0
 22 23  1  0
 23 24  2  0
 24 25  1  0
 25 26  2  0
 25 27  1  0
 27 28  1  0
 27 29  1  0
 27 30  1  0
 24 31  1  0
 31 32  1  0
 32 33  1  0
 33 34  1  0
 34 35  1  0
 35 36  1  0
 17 37  1  0
 13  8  1  0
 16 14  1  0
 26 21  1  0
 36 31  1  0
  1 38  1  0
  4 39  1  0
  4 40  1  0
  5 41  1  0
  5 42  1  0
  6 43  1  0
  7 44  1  0
  7 45  1  0
  9 46  1  0
 10 47  1  0
 12 48  1  0
 14 49  1  0
 15 50  1  0
 15 51  1  0
 16 52  1  0
 16 53  1  0
 20 54  1  0
 20 55  1  0
 22 56  1  0
 23 57  1  0
 26 58  1  0
 31 59  1  0
 32 60  1  0
 32 61  1  0
 33 62  1  0
 33 63  1  0
 34 64  1  0
 34 65  1  0
 35 66  1  0
 35 67  1  0
 36 68  1  0
 36 69  1  0
 37 70  1  0
 37 71  1  0
 37 72  1  0
M  END
>  <Ligand ID>  (1) 
LIG0005572

>  <Ligand>  (1) 
CHEMBL2336069

>  <SMILES>  (1) 
OC(=O)CCNCc1ccc(cc1C1CC1)/C(=N/OCc1ccc(c(c1)C(F)(F)F)C1CCCCC1)/C

>  <CID>  (1) 
57570486.0

>  <ChEMBL ID>  (1) 
nan

>  <InChiKey>  (1) 
AMTXHXVQBKEMOV-ALQBTCKLSA-N

>  <InChi>  (1) 
InChI=1S/C29H35F3N2O3/c1-19(23-10-11-24(17-33-14-13-28(35)36)26(16-23)22-8-9-22)34-37-18-20-7-12-25(21-5-3-2-4-6-21)27(15-20)29(30,31)32/h7,10-12,15-16,21-22,33H,2-6,8-9,13-14,17-18H2,1H3,(H,35,36)/b34-19+

>  <IUPAC Name>  (1) 
3-[[4-[(E)-N-[[4-cyclohexyl-3-(trifluoromethyl)phenyl]methoxy]-C-methylcarbonimidoyl]-2-cyclopropylphenyl]methylamino]propanoic acid

$$$$
