
     RDKit          3D

 90 94  0  0  0  0  0  0  0  0999 V2000
   -4.9316    3.1195   -1.7003 C   0  0  0  0  0  0  0  0  0  0  0  0
   -3.8583    2.2893   -1.4151 O   0  0  0  0  0  0  0  0  0  0  0  0
   -3.4600    1.1422   -2.0528 C   0  0  0  0  0  0  0  0  0  0  0  0
   -4.1018    0.6067   -3.1450 C   0  0  0  0  0  0  0  0  0  0  0  0
   -3.6104   -0.5532   -3.7045 C   0  0  0  0  0  0  0  0  0  0  0  0
   -2.4912   -1.2141   -3.2179 C   0  0  0  0  0  0  0  0  0  0  0  0
   -1.8546   -0.6829   -2.1343 C   0  0  0  0  0  0  0  0  0  0  0  0
   -2.3370    0.5013   -1.5451 C   0  0  0  0  0  0  0  0  0  0  0  0
   -0.6614   -1.2615   -1.4756 C   0  0  0  0  0  0  0  0  0  0  0  0
   -0.8475   -2.1577   -0.3546 C   0  0  0  0  0  0  0  0  0  0  0  0
   -1.5495   -1.7075    0.8333 N   0  0  0  0  0  0  0  0  0  0  0  0
   -2.9894   -1.8980    0.7218 C   0  0  0  0  0  0  0  0  0  0  0  0
   -3.3624   -2.3944   -0.3917 O   0  0  0  0  0  0  0  0  0  0  0  0
   -3.9371   -1.6044    1.6669 N   0  0  0  0  0  0  0  0  0  0  0  0
   -5.3456   -1.8375    1.4113 C   0  0  0  0  0  0  0  0  0  0  0  0
   -5.9762   -2.6423    2.4745 C   0  0  0  0  0  0  0  0  0  0  0  0
   -7.2453   -2.0533    3.0390 C   0  0  0  0  0  0  0  0  0  0  0  0
   -8.1491   -1.7518    1.8834 C   0  0  0  0  0  0  0  0  0  0  0  0
   -7.5541   -0.6631    1.0677 C   0  0  0  0  0  0  0  0  0  0  0  0
   -6.0675   -0.5599    1.0637 C   0  0  0  0  0  0  0  0  0  0  0  0
   -0.9335   -1.1806    2.0183 C   0  0  0  0  0  0  0  0  0  0  0  0
   -0.7028    0.2338    2.1956 C   0  0  0  0  0  0  0  0  0  0  0  0
   -1.6518    0.9758    2.9239 C   0  0  0  0  0  0  0  0  0  0  0  0
   -1.5629    2.3289    3.1404 C   0  0  0  0  0  0  0  0  0  0  0  0
   -0.5109    3.0531    2.6435 C   0  0  0  0  0  0  0  0  0  0  0  0
    0.4356    2.3687    1.9303 C   0  0  0  0  0  0  0  0  0  0  0  0
    0.3498    0.9733    1.7040 C   0  0  0  0  0  0  0  0  0  0  0  0
    1.4831    0.4478    0.9740 C   0  0  0  0  0  0  0  0  0  0  0  0
    2.2530   -0.6248    1.2980 C   0  0  0  0  0  0  0  0  0  0  0  0
    3.3525   -1.0209    0.5249 C   0  0  0  0  0  0  0  0  0  0  0  0
    3.7132   -0.3289   -0.6219 C   0  0  0  0  0  0  0  0  0  0  0  0
    2.9235    0.7610   -0.9413 C   0  0  0  0  0  0  0  0  0  0  0  0
    1.8413    1.1555   -0.1852 C   0  0  0  0  0  0  0  0  0  0  0  0
    4.8707   -0.7266   -1.4623 C   0  0  0  0  0  0  0  0  0  0  0  0
    6.0796   -0.0732   -1.0227 N   0  0  0  0  0  0  0  0  0  0  0  0
    7.1572   -0.4959   -1.9107 C   0  0  0  0  0  0  0  0  0  0  0  0
    8.4368    0.2402   -1.6964 C   0  0  2  0  0  0  0  0  0  0  0  0
    9.5581   -0.7408   -1.4393 C   0  0  0  0  0  0  0  0  0  0  0  0
    8.3426    1.1831   -0.6211 N   0  0  0  0  0  0  0  0  0  0  0  0
    7.2438    2.0830   -0.9300 C   0  0  1  0  0  0  0  0  0  0  0  0
    5.9436    1.3660   -1.0996 C   0  0  0  0  0  0  0  0  0  0  0  0
    7.2090    3.1879    0.1008 C   0  0  0  0  0  0  0  0  0  0  0  0
   -5.7032    2.6508   -2.3134 H   0  0  0  0  0  0  0  0  0  0  0  0
   -5.4286    3.3972   -0.7295 H   0  0  0  0  0  0  0  0  0  0  0  0
   -4.5231    4.0643   -2.1690 H   0  0  0  0  0  0  0  0  0  0  0  0
   -4.9838    1.1039   -3.5491 H   0  0  0  0  0  0  0  0  0  0  0  0
   -4.1360   -0.9642   -4.5747 H   0  0  0  0  0  0  0  0  0  0  0  0
   -2.0967   -2.1190   -3.6438 H   0  0  0  0  0  0  0  0  0  0  0  0
   -1.8254    0.9308   -0.6720 H   0  0  0  0  0  0  0  0  0  0  0  0
   -0.2316   -1.9244   -2.3061 H   0  0  0  0  0  0  0  0  0  0  0  0
    0.0815   -0.4591   -1.4317 H   0  0  0  0  0  0  0  0  0  0  0  0
   -1.2497   -3.1399   -0.7118 H   0  0  0  0  0  0  0  0  0  0  0  0
    0.1792   -2.4340    0.0270 H   0  0  0  0  0  0  0  0  0  0  0  0
   -3.6836   -1.2268    2.5920 H   0  0  0  0  0  0  0  0  0  0  0  0
   -5.3940   -2.4291    0.4669 H   0  0  0  0  0  0  0  0  0  0  0  0
   -6.2468   -3.6839    2.1387 H   0  0  0  0  0  0  0  0  0  0  0  0
   -5.2895   -2.8151    3.3258 H   0  0  0  0  0  0  0  0  0  0  0  0
   -7.7384   -2.8854    3.6256 H   0  0  0  0  0  0  0  0  0  0  0  0
   -7.1122   -1.2273    3.7350 H   0  0  0  0  0  0  0  0  0  0  0  0
   -8.2870   -2.7064    1.3323 H   0  0  0  0  0  0  0  0  0  0  0  0
   -9.1239   -1.3865    2.3083 H   0  0  0  0  0  0  0  0  0  0  0  0
   -8.0617    0.2936    1.3195 H   0  0  0  0  0  0  0  0  0  0  0  0
   -7.9180   -0.8534    0.0105 H   0  0  0  0  0  0  0  0  0  0  0  0
   -5.7576   -0.1458    0.0820 H   0  0  0  0  0  0  0  0  0  0  0  0
   -5.7727    0.2001    1.8170 H   0  0  0  0  0  0  0  0  0  0  0  0
   -0.0489   -1.8344    2.3001 H   0  0  0  0  0  0  0  0  0  0  0  0
   -1.6788   -1.4613    2.8470 H   0  0  0  0  0  0  0  0  0  0  0  0
   -2.5171    0.4957    3.3756 H   0  0  0  0  0  0  0  0  0  0  0  0
   -2.3362    2.8562    3.7171 H   0  0  0  0  0  0  0  0  0  0  0  0
   -0.4251    4.1049    2.8002 H   0  0  0  0  0  0  0  0  0  0  0  0
    1.2656    2.9452    1.5398 H   0  0  0  0  0  0  0  0  0  0  0  0
    2.0791   -1.2127    2.1745 H   0  0  0  0  0  0  0  0  0  0  0  0
    3.9410   -1.8884    0.8247 H   0  0  0  0  0  0  0  0  0  0  0  0
    3.1259    1.3721   -1.8286 H   0  0  0  0  0  0  0  0  0  0  0  0
    1.2582    2.0243   -0.4895 H   0  0  0  0  0  0  0  0  0  0  0  0
    4.9862   -1.8275   -1.4566 H   0  0  0  0  0  0  0  0  0  0  0  0
    4.6979   -0.4420   -2.5398 H   0  0  0  0  0  0  0  0  0  0  0  0
    7.3072   -1.5918   -1.7587 H   0  0  0  0  0  0  0  0  0  0  0  0
    6.7794   -0.3764   -2.9359 H   0  0  0  0  0  0  0  0  0  0  0  0
    8.6776    0.8376   -2.6157 H   0  0  0  0  0  0  0  0  0  0  0  0
    9.1809   -1.5441   -0.7791 H   0  0  0  0  0  0  0  0  0  0  0  0
   10.4264   -0.2827   -0.9653 H   0  0  0  0  0  0  0  0  0  0  0  0
    9.8877   -1.1963   -2.3877 H   0  0  0  0  0  0  0  0  0  0  0  0
    8.2211    0.6705    0.2787 H   0  0  0  0  0  0  0  0  0  0  0  0
    7.5140    2.5294   -1.9275 H   0  0  0  0  0  0  0  0  0  0  0  0
    5.1997    1.7282   -0.3646 H   0  0  0  0  0  0  0  0  0  0  0  0
    5.4834    1.5824   -2.1069 H   0  0  0  0  0  0  0  0  0  0  0  0
    8.0880    3.8600   -0.0848 H   0  0  0  0  0  0  0  0  0  0  0  0
    7.3637    2.7457    1.1067 H   0  0  0  0  0  0  0  0  0  0  0  0
    6.3243    3.8216    0.0487 H   0  0  0  0  0  0  0  0  0  0  0  0
  1  2  1  0
  2  3  1  0
  3  4  2  0
  4  5  1  0
  5  6  2  0
  6  7  1  0
  7  8  2  0
  7  9  1  0
  9 10  1  0
 10 11  1  0
 11 12  1  0
 12 13  2  0
 12 14  1  0
 14 15  1  0
 15 16  1  0
 16 17  1  0
 17 18  1  0
 18 19  1  0
 19 20  1  0
 11 21  1  0
 21 22  1  0
 22 23  2  0
 23 24  1  0
 24 25  2  0
 25 26  1  0
 26 27  2  0
 27 28  1  0
 28 29  2  0
 29 30  1  0
 30 31  2  0
 31 32  1  0
 32 33  2  0
 31 34  1  0
 34 35  1  0
 35 36  1  0
 36 37  1  0
 37 38  1  0
 37 39  1  0
 39 40  1  0
 40 41  1  0
 40 42  1  0
  8  3  1  0
 20 15  1  0
 27 22  1  0
 33 28  1  0
 41 35  1  0
  1 43  1  0
  1 44  1  0
  1 45  1  0
  4 46  1  0
  5 47  1  0
  6 48  1  0
  8 49  1  0
  9 50  1  0
  9 51  1  0
 10 52  1  0
 10 53  1  0
 14 54  1  0
 15 55  1  0
 16 56  1  0
 16 57  1  0
 17 58  1  0
 17 59  1  0
 18 60  1  0
 18 61  1  0
 19 62  1  0
 19 63  1  0
 20 64  1  0
 20 65  1  0
 21 66  1  0
 21 67  1  0
 23 68  1  0
 24 69  1  0
 25 70  1  0
 26 71  1  0
 29 72  1  0
 30 73  1  0
 32 74  1  0
 33 75  1  0
 34 76  1  0
 34 77  1  0
 36 78  1  0
 36 79  1  0
 37 80  1  6
 38 81  1  0
 38 82  1  0
 38 83  1  0
 39 84  1  0
 40 85  1  6
 41 86  1  0
 41 87  1  0
 42 88  1  0
 42 89  1  0
 42 90  1  0
M  END
>  <Ligand ID>  (1) 
LIG0002173

>  <Ligand>  (1) 
CHEMBL501315

>  <SMILES>  (1) 
COc1cccc(c1)CCN(C(=O)NC1CCCCC1)Cc1ccccc1c1ccc(cc1)CN1C[C@H](C)N[C@@H](C1)C

>  <CID>  (1) 
16752689.0

>  <ChEMBL ID>  (1) 
nan

>  <InChiKey>  (1) 
GNURRCJPQXKFTN-HNRBIFIRSA-N

>  <InChi>  (1) 
InChI=1S/C36H48N4O2/c1-27-23-39(24-28(2)37-27)25-30-16-18-31(19-17-30)35-15-8-7-11-32(35)26-40(36(41)38-33-12-5-4-6-13-33)21-20-29-10-9-14-34(22-29)42-3/h7-11,14-19,22,27-28,33,37H,4-6,12-13,20-21,23-26H2,1-3H3,(H,38,41)/t27-,28+

>  <IUPAC Name>  (1) 
3-cyclohexyl-1-[[2-[4-[[(3R,5S)-3,5-dimethylpiperazin-1-yl]methyl]phenyl]phenyl]methyl]-1-[2-(3-methoxyphenyl)ethyl]urea

$$$$
