
     RDKit          3D

 70 72  0  0  0  0  0  0  0  0999 V2000
   -6.5300    2.6773    0.4221 O   0  0  0  0  0  0  0  0  0  0  0  0
   -7.4247    1.6221    0.5946 C   0  0  0  0  0  0  0  0  0  0  0  0
   -7.4548    0.7174   -0.6211 C   0  0  1  0  0  0  0  0  0  0  0  0
   -6.2615    0.1411   -0.9283 O   0  0  0  0  0  0  0  0  0  0  0  0
   -5.8564   -0.8653   -0.0519 C   0  0  2  0  0  0  0  0  0  0  0  0
   -4.7770   -1.4399   -0.6483 O   0  0  0  0  0  0  0  0  0  0  0  0
   -3.2832   -1.2240    0.0049 P   0  0  0  0  0  0  0  0  0  0  0  0
   -2.5423   -2.5305    0.2743 O   0  0  0  0  0  0  0  0  0  0  0  0
   -3.2626   -0.1990    1.3500 O   0  0  0  0  0  0  0  0  0  0  0  0
   -1.8672    0.7202    1.3448 P   0  0  0  0  0  0  0  0  0  0  0  0
   -2.1902    2.1972    1.2026 O   0  0  0  0  0  0  0  0  0  0  0  0
   -0.7713    0.2794    0.1439 O   0  0  0  0  0  0  0  0  0  0  0  0
   -0.1501    1.6903   -0.5965 P   0  0  0  0  0  0  0  0  0  0  0  0
   -1.3379    2.5805   -0.8661 O   0  0  0  0  0  0  0  0  0  0  0  0
    0.5152    1.2385   -2.0654 O   0  0  0  0  0  0  0  0  0  0  0  0
    2.0844    1.8486   -2.2507 P   0  0  0  0  0  0  0  0  0  0  0  0
    2.2165    2.3009   -3.6744 O   0  0  0  0  0  0  0  0  0  0  0  0
    3.2316    0.6768   -1.9182 O   0  0  0  0  0  0  0  0  0  0  0  0
    3.3937    0.3956   -0.5829 C   0  0  0  0  0  0  0  0  0  0  0  0
    4.4424   -0.6702   -0.3382 C   0  0  1  0  0  0  0  0  0  0  0  0
    5.6756   -0.2567   -0.8313 O   0  0  0  0  0  0  0  0  0  0  0  0
    6.6256   -1.0769   -0.2633 C   0  0  2  0  0  0  0  0  0  0  0  0
    6.1168   -1.4480    1.1141 C   0  0  1  0  0  0  0  0  0  0  0  0
    4.7423   -0.7999    1.1374 C   0  0  2  0  0  0  0  0  0  0  0  0
    3.7998   -1.5856    1.7994 O   0  0  0  0  0  0  0  0  0  0  0  0
    5.9548   -2.8317    1.1403 O   0  0  0  0  0  0  0  0  0  0  0  0
    7.8810   -0.3620   -0.1808 N   0  0  0  0  0  0  0  0  0  0  0  0
    8.8521   -0.9301    0.5898 C   0  0  0  0  0  0  0  0  0  0  0  0
   10.0656   -0.2777    0.6940 C   0  0  0  0  0  0  0  0  0  0  0  0
   10.2960    0.9007    0.0490 C   0  0  0  0  0  0  0  0  0  0  0  0
   11.4158    1.4464    0.1806 O   0  0  0  0  0  0  0  0  0  0  0  0
    9.3007    1.4225   -0.7027 N   0  0  0  0  0  0  0  0  0  0  0  0
    8.1058    0.7994   -0.8174 C   0  0  0  0  0  0  0  0  0  0  0  0
    7.1936    1.3070   -1.5249 O   0  0  0  0  0  0  0  0  0  0  0  0
    2.2523    3.2030   -1.2592 O   0  0  0  0  0  0  0  0  0  0  0  0
    0.9448    2.4924    0.3995 O   0  0  0  0  0  0  0  0  0  0  0  0
   -1.1147    0.5304    2.8626 O   0  0  0  0  0  0  0  0  0  0  0  0
   -2.3508   -0.4395   -1.1795 O   0  0  0  0  0  0  0  0  0  0  0  0
   -6.9916   -1.6967    0.3537 C   0  0  1  0  0  0  0  0  0  0  0  0
   -8.0684   -1.6285   -0.7256 C   0  0  2  0  0  0  0  0  0  0  0  0
   -8.6439   -0.2124   -0.5983 C   0  0  2  0  0  0  0  0  0  0  0  0
   -9.5134   -0.0335   -1.6620 O   0  0  0  0  0  0  0  0  0  0  0  0
   -9.0442   -2.5848   -0.5454 O   0  0  0  0  0  0  0  0  0  0  0  0
   -6.7100   -3.0020    0.7133 O   0  0  0  0  0  0  0  0  0  0  0  0
   -6.8620    3.2905   -0.2954 H   0  0  0  0  0  0  0  0  0  0  0  0
   -7.0895    1.0973    1.5075 H   0  0  0  0  0  0  0  0  0  0  0  0
   -8.4214    2.0991    0.6921 H   0  0  0  0  0  0  0  0  0  0  0  0
   -7.6603    1.4245   -1.4797 H   0  0  0  0  0  0  0  0  0  0  0  0
   -5.4670   -0.3110    0.8468 H   0  0  0  0  0  0  0  0  0  0  0  0
    2.4346   -0.0110   -0.2076 H   0  0  0  0  0  0  0  0  0  0  0  0
    3.6455    1.3275   -0.0496 H   0  0  0  0  0  0  0  0  0  0  0  0
    4.1091   -1.6399   -0.7173 H   0  0  0  0  0  0  0  0  0  0  0  0
    6.8110   -1.9833   -0.8995 H   0  0  0  0  0  0  0  0  0  0  0  0
    6.7718   -1.1166    1.9350 H   0  0  0  0  0  0  0  0  0  0  0  0
    4.8572    0.1924    1.5892 H   0  0  0  0  0  0  0  0  0  0  0  0
    3.5519   -1.1093    2.6188 H   0  0  0  0  0  0  0  0  0  0  0  0
    5.5764   -3.1304    0.2572 H   0  0  0  0  0  0  0  0  0  0  0  0
    8.6830   -1.8740    1.1130 H   0  0  0  0  0  0  0  0  0  0  0  0
   10.8218   -0.7567    1.3171 H   0  0  0  0  0  0  0  0  0  0  0  0
    9.4841    2.3167   -1.1885 H   0  0  0  0  0  0  0  0  0  0  0  0
    1.6997    3.9189   -1.6325 H   0  0  0  0  0  0  0  0  0  0  0  0
    1.2631    1.8666    1.1012 H   0  0  0  0  0  0  0  0  0  0  0  0
   -1.7352    0.7103    3.5971 H   0  0  0  0  0  0  0  0  0  0  0  0
   -2.4191   -0.9976   -2.0037 H   0  0  0  0  0  0  0  0  0  0  0  0
   -7.4721   -1.2587    1.2552 H   0  0  0  0  0  0  0  0  0  0  0  0
   -7.6276   -1.6696   -1.7486 H   0  0  0  0  0  0  0  0  0  0  0  0
   -9.1818   -0.1206    0.3847 H   0  0  0  0  0  0  0  0  0  0  0  0
   -9.7037   -0.8685   -2.1295 H   0  0  0  0  0  0  0  0  0  0  0  0
   -8.6422   -3.4541   -0.7807 H   0  0  0  0  0  0  0  0  0  0  0  0
   -6.3878   -3.0354    1.6280 H   0  0  0  0  0  0  0  0  0  0  0  0
  1  2  1  0
  2  3  1  0
  3  4  1  0
  4  5  1  0
  5  6  1  0
  6  7  1  0
  7  8  2  0
  7  9  1  0
  9 10  1  0
 10 11  2  0
 10 12  1  0
 12 13  1  0
 13 14  2  0
 13 15  1  0
 15 16  1  0
 16 17  2  0
 16 18  1  0
 18 19  1  0
 19 20  1  0
 20 21  1  0
 21 22  1  0
 22 23  1  0
 23 24  1  0
 24 25  1  0
 23 26  1  0
 22 27  1  0
 27 28  1  0
 28 29  2  0
 29 30  1  0
 30 31  2  0
 30 32  1  0
 32 33  1  0
 33 34  2  0
 16 35  1  0
 13 36  1  0
 10 37  1  0
  7 38  1  0
  5 39  1  0
 39 40  1  0
 40 41  1  0
 41 42  1  0
 40 43  1  0
 39 44  1  0
 41  3  1  0
 24 20  1  0
 33 27  1  0
  1 45  1  0
  2 46  1  0
  2 47  1  0
  3 48  1  6
  5 49  1  1
 19 50  1  0
 19 51  1  0
 20 52  1  6
 22 53  1  6
 23 54  1  1
 24 55  1  1
 25 56  1  0
 26 57  1  0
 28 58  1  0
 29 59  1  0
 32 60  1  0
 35 61  1  0
 36 62  1  0
 37 63  1  0
 38 64  1  0
 39 65  1  1
 40 66  1  6
 41 67  1  1
 42 68  1  0
 43 69  1  0
 44 70  1  0
M  END
>  <Ligand ID>  (1) 
LIG0002824

>  <Ligand>  (1) 
CHEMBL499138

>  <SMILES>  (1) 
OC[C@H]1O[C@H](OP(=O)(OP(=O)(OP(=O)(OP(=O)(OC[C@H]2O[C@H]([C@@H]([C@@H]2O)O)n2ccc(=O)[nH]c2=O)O)O)O)O)[C@@H]([C@H]([C@@H]1O)O)O

>  <CID>  (1) 
44585518.0

>  <ChEMBL ID>  (1) 
nan

>  <InChiKey>  (1) 
AJLLTXOUJGYGAA-JZMIEXBBSA-N

>  <InChi>  (1) 
InChI=1S/C15H26N2O23P4/c18-3-5-8(20)10(22)12(24)14(36-5)37-42(28,29)39-44(32,33)40-43(30,31)38-41(26,27)34-4-6-9(21)11(23)13(35-6)17-2-1-7(19)16-15(17)25/h1-2,5-6,8-14,18,20-24H,3-4H2,(H,26,27)(H,28,29)(H,30,31)(H,32,33)(H,16,19,25)/t5-,6-,8-,9-,10+,11-,12-,13-,14-/m1/s1

>  <IUPAC Name>  (1) 
[[(2R,3S,4R,5R)-5-(2,4-dioxopyrimidin-1-yl)-3,4-dihydroxyoxolan-2-yl]methoxy-hydroxyphosphoryl] [hydroxy-[hydroxy-[(2R,3R,4S,5S,6R)-3,4,5-trihydroxy-6-(hydroxymethyl)oxan-2-yl]oxyphosphoryl]oxyphosphoryl] hydrogen phosphate

$$$$
