
     RDKit          3D

 54 56  0  0  0  0  0  0  0  0999 V2000
    3.4467    1.7624    1.4033 O   0  0  0  0  0  0  0  0  0  0  0  0
    3.3921    0.5081    0.8477 C   0  0  0  0  0  0  0  0  0  0  0  0
    4.2695    0.3411   -0.3822 C   0  0  0  0  0  0  0  0  0  0  0  0
    5.6881    0.5914   -0.0482 C   0  0  0  0  0  0  0  0  0  0  0  0
    6.2881    1.8305   -0.1237 C   0  0  0  0  0  0  0  0  0  0  0  0
    7.6335    1.9793    0.2104 C   0  0  0  0  0  0  0  0  0  0  0  0
    8.3587    0.8596    0.6203 C   0  0  0  0  0  0  0  0  0  0  0  0
    7.7644   -0.3955    0.7004 C   0  0  0  0  0  0  0  0  0  0  0  0
    6.4368   -0.5035    0.3633 C   0  0  0  0  0  0  0  0  0  0  0  0
    8.4574   -1.4877    1.0963 F   0  0  0  0  0  0  0  0  0  0  0  0
    2.0111    0.0040    0.6033 C   0  0  0  0  0  0  0  0  0  0  0  0
    1.5713   -0.2951   -0.5957 C   0  0  0  0  0  0  0  0  0  0  0  0
    0.2419   -0.7970   -0.9649 C   0  0  1  0  0  0  0  0  0  0  0  0
    0.3321   -2.1151   -1.7305 C   0  0  0  0  0  0  0  0  0  0  0  0
   -1.0150   -2.7463   -1.4554 C   0  0  0  0  0  0  0  0  0  0  0  0
   -1.1382   -2.4566    0.0021 C   0  0  0  0  0  0  0  0  0  0  0  0
   -1.4798   -3.2121    0.8967 O   0  0  0  0  0  0  0  0  0  0  0  0
   -0.7402   -0.9999    0.1259 C   0  0  2  0  0  0  0  0  0  0  0  0
   -2.0548   -0.2501   -0.1661 C   0  0  0  0  0  0  0  0  0  0  0  0
   -2.9869   -0.5109    0.9867 C   0  0  0  0  0  0  0  0  0  0  0  0
   -4.3023    0.1450    0.8568 C   0  0  0  0  0  0  0  0  0  0  0  0
   -4.6125    1.3906    1.3072 C   0  0  0  0  0  0  0  0  0  0  0  0
   -5.8866    1.9230    1.1368 C   0  0  0  0  0  0  0  0  0  0  0  0
   -6.8848    1.2179    0.5087 C   0  0  0  0  0  0  0  0  0  0  0  0
   -6.5763   -0.0515    0.0472 C   0  0  0  0  0  0  0  0  0  0  0  0
   -5.3150   -0.5774    0.2164 C   0  0  0  0  0  0  0  0  0  0  0  0
   -8.2168    1.7661    0.3270 C   0  0  0  0  0  0  0  0  0  0  0  0
   -8.4272    2.9340    0.7742 O   0  0  0  0  0  0  0  0  0  0  0  0
   -9.1906    1.0203   -0.3106 O   0  0  0  0  0  0  0  0  0  0  0  0
    2.5385    2.0572    1.6296 H   0  0  0  0  0  0  0  0  0  0  0  0
    3.8409   -0.2039    1.6023 H   0  0  0  0  0  0  0  0  0  0  0  0
    4.1417   -0.6866   -0.7449 H   0  0  0  0  0  0  0  0  0  0  0  0
    3.8824    1.0723   -1.1209 H   0  0  0  0  0  0  0  0  0  0  0  0
    5.6961    2.6728   -0.4445 H   0  0  0  0  0  0  0  0  0  0  0  0
    8.1232    2.9501    0.1565 H   0  0  0  0  0  0  0  0  0  0  0  0
    9.4126    0.9289    0.8911 H   0  0  0  0  0  0  0  0  0  0  0  0
    5.9903   -1.4875    0.4313 H   0  0  0  0  0  0  0  0  0  0  0  0
    1.3780   -0.1064    1.4701 H   0  0  0  0  0  0  0  0  0  0  0  0
    2.2875   -0.1522   -1.4244 H   0  0  0  0  0  0  0  0  0  0  0  0
   -0.1995   -0.0840   -1.7361 H   0  0  0  0  0  0  0  0  0  0  0  0
    0.5173   -1.9458   -2.8038 H   0  0  0  0  0  0  0  0  0  0  0  0
    1.1028   -2.7167   -1.2252 H   0  0  0  0  0  0  0  0  0  0  0  0
   -1.7572   -2.2077   -2.0671 H   0  0  0  0  0  0  0  0  0  0  0  0
   -1.0113   -3.8372   -1.6563 H   0  0  0  0  0  0  0  0  0  0  0  0
   -0.4298   -0.7598    1.1360 H   0  0  0  0  0  0  0  0  0  0  0  0
   -1.8736    0.8436   -0.1848 H   0  0  0  0  0  0  0  0  0  0  0  0
   -2.4833   -0.5507   -1.1304 H   0  0  0  0  0  0  0  0  0  0  0  0
   -3.1448   -1.6004    1.1831 H   0  0  0  0  0  0  0  0  0  0  0  0
   -2.4599   -0.1357    1.9124 H   0  0  0  0  0  0  0  0  0  0  0  0
   -3.8394    1.9663    1.8068 H   0  0  0  0  0  0  0  0  0  0  0  0
   -6.1263    2.9156    1.4981 H   0  0  0  0  0  0  0  0  0  0  0  0
   -7.3854   -0.5917   -0.4480 H   0  0  0  0  0  0  0  0  0  0  0  0
   -5.1222   -1.5867   -0.1673 H   0  0  0  0  0  0  0  0  0  0  0  0
  -10.1432    1.3714   -0.3555 H   0  0  0  0  0  0  0  0  0  0  0  0
  1  2  1  0
  2  3  1  0
  3  4  1  0
  4  5  2  0
  5  6  1  0
  6  7  2  0
  7  8  1  0
  8  9  2  0
  8 10  1  0
  2 11  1  0
 11 12  2  0
 12 13  1  0
 13 14  1  0
 14 15  1  0
 15 16  1  0
 16 17  2  0
 16 18  1  0
 18 19  1  0
 19 20  1  0
 20 21  1  0
 21 22  2  0
 22 23  1  0
 23 24  2  0
 24 25  1  0
 25 26  2  0
 24 27  1  0
 27 28  2  0
 27 29  1  0
  9  4  1  0
 18 13  1  0
 26 21  1  0
  1 30  1  0
  2 31  1  0
  3 32  1  0
  3 33  1  0
  5 34  1  0
  6 35  1  0
  7 36  1  0
  9 37  1  0
 11 38  1  0
 12 39  1  0
 13 40  1  6
 14 41  1  0
 14 42  1  0
 15 43  1  0
 15 44  1  0
 18 45  1  1
 19 46  1  0
 19 47  1  0
 20 48  1  0
 20 49  1  0
 22 50  1  0
 23 51  1  0
 25 52  1  0
 26 53  1  0
 29 54  1  0
M  END
>  <Ligand ID>  (1) 
LIG0001316

>  <Ligand>  (1) 
CHEMBL3974652

>  <SMILES>  (1) 
OC(Cc1cccc(c1)F)/C=C/[C@H]1CCC(=O)[C@@H]1CCc1ccc(cc1)C(=O)O

>  <CID>  (1) 
92135977.0

>  <ChEMBL ID>  (1) 
nan

>  <InChiKey>  (1) 
FVIFTCKGAKHIMG-FSKZSRKQSA-N

>  <InChi>  (1) 
InChI=1S/C24H25FO4/c25-20-3-1-2-17(14-20)15-21(26)11-9-18-10-13-23(27)22(18)12-6-16-4-7-19(8-5-16)24(28)29/h1-5,7-9,11,14,18,21-22,26H,6,10,12-13,15H2,(H,28,29)/b11-9+/t18-,21?,22+/m0/s1

>  <IUPAC Name>  (1) 
4-[2-[(1R,2R)-2-[(E)-4-(3-fluorophenyl)-3-hydroxybut-1-enyl]-5-oxocyclopentyl]ethyl]benzoic acid

$$$$
