
     RDKit          3D

 37 39  0  0  0  0  0  0  0  0999 V2000
    3.5239   -1.9009   -0.3246 C   0  0  0  0  0  0  0  0  0  0  0  0
    2.7139   -0.6590   -0.0147 C   0  0  1  0  0  0  0  0  0  0  0  0
    1.6593   -0.4578   -1.0878 C   0  0  0  0  0  0  0  0  0  0  0  0
    0.9365    0.7545   -0.6848 N   0  0  0  0  0  0  0  0  0  0  0  0
    1.6157    2.0395   -0.7404 C   0  0  0  0  0  0  0  0  0  0  0  0
    0.6220    3.0295   -0.2481 C   0  0  0  0  0  0  0  0  0  0  0  0
   -0.6000    2.2323    0.0036 C   0  0  0  0  0  0  0  0  0  0  0  0
   -0.3964    0.8912   -0.2261 C   0  0  0  0  0  0  0  0  0  0  0  0
   -1.4445   -0.0249   -0.0167 C   0  0  0  0  0  0  0  0  0  0  0  0
   -1.2275   -1.4730   -0.2390 C   0  0  0  0  0  0  0  0  0  0  0  0
   -2.3695   -2.2401    0.4428 C   0  0  0  0  0  0  0  0  0  0  0  0
   -3.7018   -1.6235    0.1937 C   0  0  0  0  0  0  0  0  0  0  0  0
   -3.7733   -0.2895    0.6599 O   0  0  0  0  0  0  0  0  0  0  0  0
   -2.6527    0.5042    0.4174 C   0  0  0  0  0  0  0  0  0  0  0  0
   -2.8384    1.8568    0.6413 C   0  0  0  0  0  0  0  0  0  0  0  0
   -1.8288    2.7418    0.4427 C   0  0  0  0  0  0  0  0  0  0  0  0
    2.0462   -0.8470    1.2456 N   0  0  0  0  0  0  0  0  0  0  0  0
    2.9927   -2.7419    0.1191 H   0  0  0  0  0  0  0  0  0  0  0  0
    3.7721   -1.9968   -1.3928 H   0  0  0  0  0  0  0  0  0  0  0  0
    4.4993   -1.8016    0.2325 H   0  0  0  0  0  0  0  0  0  0  0  0
    3.4008    0.2263    0.0312 H   0  0  0  0  0  0  0  0  0  0  0  0
    2.2501   -0.2127   -2.0289 H   0  0  0  0  0  0  0  0  0  0  0  0
    1.1089   -1.3519   -1.2135 H   0  0  0  0  0  0  0  0  0  0  0  0
    2.5482    2.0592   -0.1352 H   0  0  0  0  0  0  0  0  0  0  0  0
    1.8485    2.2577   -1.8095 H   0  0  0  0  0  0  0  0  0  0  0  0
    0.9531    3.4425    0.7353 H   0  0  0  0  0  0  0  0  0  0  0  0
    0.4146    3.8561   -0.9659 H   0  0  0  0  0  0  0  0  0  0  0  0
   -1.1686   -1.7559   -1.3048 H   0  0  0  0  0  0  0  0  0  0  0  0
   -0.3434   -1.8752    0.3446 H   0  0  0  0  0  0  0  0  0  0  0  0
   -2.1735   -2.1303    1.5486 H   0  0  0  0  0  0  0  0  0  0  0  0
   -2.3967   -3.2985    0.1466 H   0  0  0  0  0  0  0  0  0  0  0  0
   -4.4250   -2.1878    0.8180 H   0  0  0  0  0  0  0  0  0  0  0  0
   -4.0579   -1.6905   -0.8495 H   0  0  0  0  0  0  0  0  0  0  0  0
   -3.7936    2.2511    0.9813 H   0  0  0  0  0  0  0  0  0  0  0  0
   -1.9893    3.7878    0.6224 H   0  0  0  0  0  0  0  0  0  0  0  0
    2.5758   -1.3804    1.9544 H   0  0  0  0  0  0  0  0  0  0  0  0
    1.6994    0.0087    1.7016 H   0  0  0  0  0  0  0  0  0  0  0  0
  1  2  1  0
  2  3  1  0
  3  4  1  0
  4  5  1  0
  5  6  1  0
  6  7  1  0
  7  8  2  0
  8  9  1  0
  9 10  1  0
 10 11  1  0
 11 12  1  0
 12 13  1  0
 13 14  1  0
 14 15  1  0
 15 16  2  0
  2 17  1  0
  8  4  1  0
 14  9  2  0
 16  7  1  0
  1 18  1  0
  1 19  1  0
  1 20  1  0
  2 21  1  1
  3 22  1  0
  3 23  1  0
  5 24  1  0
  5 25  1  0
  6 26  1  0
  6 27  1  0
 10 28  1  0
 10 29  1  0
 11 30  1  0
 11 31  1  0
 12 32  1  0
 12 33  1  0
 15 34  1  0
 16 35  1  0
 17 36  1  0
 17 37  1  0
M  END
>  <Ligand ID>  (1) 
LIG0002160

>  <Ligand>  (1) 
CHEMBL80482

>  <SMILES>  (1) 
C[C@@H](CN1CCc2c1c1CCCOc1cc2)N

>  <CID>  (1) 
9881119.0

>  <ChEMBL ID>  (1) 
nan

>  <InChiKey>  (1) 
LCJLJRDYLZEDEL-JTQLQIEISA-N

>  <InChi>  (1) 
InChI=1S/C14H20N2O/c1-10(15)9-16-7-6-11-4-5-13-12(14(11)16)3-2-8-17-13/h4-5,10H,2-3,6-9,15H2,1H3/t10-/m0/s1

>  <IUPAC Name>  (1) 
(2S)-1-(3,7,8,9-tetrahydro-2H-pyrano[2,3-g]indol-1-yl)propan-2-amine

$$$$
