
     RDKit          3D

 31 32  0  0  0  0  0  0  0  0999 V2000
    4.5748   -0.9885   -0.3786 C   0  0  0  0  0  0  0  0  0  0  0  0
    3.2416   -1.3552   -0.2041 O   0  0  0  0  0  0  0  0  0  0  0  0
    2.1706   -0.5134   -0.1119 C   0  0  0  0  0  0  0  0  0  0  0  0
    2.3590    0.8512   -0.1920 C   0  0  0  0  0  0  0  0  0  0  0  0
    1.2471    1.6625   -0.0937 C   0  0  0  0  0  0  0  0  0  0  0  0
   -0.0217    1.1047    0.0812 C   0  0  0  0  0  0  0  0  0  0  0  0
   -0.2113   -0.2445    0.1608 C   0  0  0  0  0  0  0  0  0  0  0  0
    0.9111   -1.0508    0.0610 C   0  0  0  0  0  0  0  0  0  0  0  0
   -1.3995   -1.0926    0.3382 C   0  0  0  0  0  0  0  0  0  0  0  0
   -1.4156   -2.1945   -0.7008 C   0  0  0  0  0  0  0  0  0  0  0  0
   -2.7177   -0.4326    0.3381 C   0  0  0  0  0  0  0  0  0  0  0  0
   -2.8007    0.8671    0.9166 N   0  0  0  0  0  0  0  0  0  0  0  0
   -2.4177    1.7970   -0.1440 C   0  0  0  0  0  0  0  0  0  0  0  0
   -1.0101    2.1761    0.1541 C   0  0  0  0  0  0  0  0  0  0  0  0
    4.9065   -1.0580   -1.4462 H   0  0  0  0  0  0  0  0  0  0  0  0
    5.2265   -1.6906    0.1851 H   0  0  0  0  0  0  0  0  0  0  0  0
    4.8447    0.0193   -0.0138 H   0  0  0  0  0  0  0  0  0  0  0  0
    3.3111    1.3277   -0.3257 H   0  0  0  0  0  0  0  0  0  0  0  0
    1.3703    2.7325   -0.1535 H   0  0  0  0  0  0  0  0  0  0  0  0
    0.8213   -2.1477    0.1181 H   0  0  0  0  0  0  0  0  0  0  0  0
   -1.2821   -1.6024    1.3366 H   0  0  0  0  0  0  0  0  0  0  0  0
   -2.3140   -2.0889   -1.3776 H   0  0  0  0  0  0  0  0  0  0  0  0
   -0.5485   -2.1587   -1.3929 H   0  0  0  0  0  0  0  0  0  0  0  0
   -1.5065   -3.1898   -0.2466 H   0  0  0  0  0  0  0  0  0  0  0  0
   -3.1302   -0.4711   -0.7085 H   0  0  0  0  0  0  0  0  0  0  0  0
   -3.4342   -1.0766    0.9186 H   0  0  0  0  0  0  0  0  0  0  0  0
   -3.6732    1.1093    1.3941 H   0  0  0  0  0  0  0  0  0  0  0  0
   -3.0260    2.7118   -0.1277 H   0  0  0  0  0  0  0  0  0  0  0  0
   -2.4545    1.3379   -1.1505 H   0  0  0  0  0  0  0  0  0  0  0  0
   -0.7011    3.0048   -0.5477 H   0  0  0  0  0  0  0  0  0  0  0  0
   -0.9202    2.6540    1.1633 H   0  0  0  0  0  0  0  0  0  0  0  0
  1  2  1  0
  2  3  1  0
  3  4  2  0
  4  5  1  0
  5  6  2  0
  6  7  1  0
  7  8  2  0
  7  9  1  0
  9 10  1  0
  9 11  1  0
 11 12  1  0
 12 13  1  0
 13 14  1  0
  8  3  1  0
 14  6  1  0
  1 15  1  0
  1 16  1  0
  1 17  1  0
  4 18  1  0
  5 19  1  0
  8 20  1  0
  9 21  1  0
 10 22  1  0
 10 23  1  0
 10 24  1  0
 11 25  1  0
 11 26  1  0
 12 27  1  0
 13 28  1  0
 13 29  1  0
 14 30  1  0
 14 31  1  0
M  END
>  <Ligand ID>  (1) 
LIG0004021

>  <Ligand>  (1) 
CHEMBL361742

>  <SMILES>  (1) 
COc1ccc2c(c1)C(C)CNCC2

>  <CID>  (1) 
24773900.0

>  <ChEMBL ID>  (1) 
nan

>  <InChiKey>  (1) 
VCCXGIDBLWAVNF-UHFFFAOYSA-N

>  <InChi>  (1) 
InChI=1S/C12H17NO/c1-9-8-13-6-5-10-3-4-11(14-2)7-12(9)10/h3-4,7,9,13H,5-6,8H2,1-2H3

>  <IUPAC Name>  (1) 
7-methoxy-5-methyl-2,3,4,5-tetrahydro-1H-3-benzazepine

$$$$
