
     RDKit          3D

 41 41  0  0  0  0  0  0  0  0999 V2000
    6.3119    0.8648   -0.8639 O   0  0  0  0  0  0  0  0  0  0  0  0
    6.4699   -0.4277   -1.2969 C   0  0  0  0  0  0  0  0  0  0  0  0
    7.0523   -0.6159   -2.4192 O   0  0  0  0  0  0  0  0  0  0  0  0
    6.0267   -1.6371   -0.5825 C   0  0  0  0  0  0  0  0  0  0  0  0
    5.2003   -1.3432    0.9754 S   0  0  0  0  0  0  0  0  0  0  0  0
    3.6416   -0.5308    0.7000 C   0  0  0  0  0  0  0  0  0  0  0  0
    2.4983   -1.2923    0.4657 C   0  0  0  0  0  0  0  0  0  0  0  0
    1.2622   -0.7154    0.2530 C   0  0  0  0  0  0  0  0  0  0  0  0
    1.0976    0.6390    0.2620 C   0  0  0  0  0  0  0  0  0  0  0  0
    2.2371    1.4075    0.4959 C   0  0  0  0  0  0  0  0  0  0  0  0
    3.4759    0.8356    0.7093 C   0  0  0  0  0  0  0  0  0  0  0  0
   -0.1627    1.3546    0.0497 C   0  0  0  0  0  0  0  0  0  0  0  0
   -1.6324    0.2968    0.3485 P   0  0  0  0  0  0  0  0  0  0  0  0
   -1.7089   -0.7540   -0.7192 O   0  0  0  0  0  0  0  0  0  0  0  0
   -3.0557    1.3792    0.2906 C   0  0  0  0  0  0  0  0  0  0  0  0
   -4.3656    0.8819    0.7251 C   0  0  0  0  0  0  0  0  0  0  0  0
   -5.0630   -0.2007    0.0296 C   0  0  2  0  0  0  0  0  0  0  0  0
   -4.3943   -1.4807   -0.0057 C   0  0  0  0  0  0  0  0  0  0  0  0
   -3.8800   -2.0709    1.0057 O   0  0  0  0  0  0  0  0  0  0  0  0
   -4.2688   -2.1858   -1.2085 O   0  0  0  0  0  0  0  0  0  0  0  0
   -5.4600    0.1643   -1.3353 N   0  0  0  0  0  0  0  0  0  0  0  0
   -1.5037   -0.4430    1.8594 O   0  0  0  0  0  0  0  0  0  0  0  0
   -0.2376    2.3569    1.0229 O   0  0  0  0  0  0  0  0  0  0  0  0
    6.8656    1.6619   -1.2015 H   0  0  0  0  0  0  0  0  0  0  0  0
    6.9378   -2.2737   -0.3879 H   0  0  0  0  0  0  0  0  0  0  0  0
    5.4211   -2.2466   -1.2885 H   0  0  0  0  0  0  0  0  0  0  0  0
    2.6205   -2.3616    0.4575 H   0  0  0  0  0  0  0  0  0  0  0  0
    0.4121   -1.3333    0.0767 H   0  0  0  0  0  0  0  0  0  0  0  0
    2.1755    2.4843    0.5162 H   0  0  0  0  0  0  0  0  0  0  0  0
    4.3244    1.4789    0.8900 H   0  0  0  0  0  0  0  0  0  0  0  0
   -0.2484    1.7215   -0.9786 H   0  0  0  0  0  0  0  0  0  0  0  0
   -2.8636    2.3267    0.9096 H   0  0  0  0  0  0  0  0  0  0  0  0
   -3.1423    1.8541   -0.7539 H   0  0  0  0  0  0  0  0  0  0  0  0
   -5.1280    1.7441    0.7999 H   0  0  0  0  0  0  0  0  0  0  0  0
   -4.2909    0.6085    1.8444 H   0  0  0  0  0  0  0  0  0  0  0  0
   -6.0736   -0.3994    0.5307 H   0  0  0  0  0  0  0  0  0  0  0  0
   -4.2067   -3.1965   -1.1439 H   0  0  0  0  0  0  0  0  0  0  0  0
   -5.5887    1.1936   -1.4488 H   0  0  0  0  0  0  0  0  0  0  0  0
   -4.8642   -0.2780   -2.0611 H   0  0  0  0  0  0  0  0  0  0  0  0
   -1.3172   -1.4045    1.7351 H   0  0  0  0  0  0  0  0  0  0  0  0
   -0.5741    1.9365    1.8502 H   0  0  0  0  0  0  0  0  0  0  0  0
  1  2  1  0
  2  3  2  0
  2  4  1  0
  4  5  1  0
  5  6  1  0
  6  7  2  0
  7  8  1  0
  8  9  2  0
  9 10  1  0
 10 11  2  0
  9 12  1  0
 12 13  1  0
 13 14  2  0
 13 15  1  0
 15 16  1  0
 16 17  1  0
 17 18  1  0
 18 19  2  0
 18 20  1  0
 17 21  1  0
 13 22  1  0
 12 23  1  0
 11  6  1  0
  1 24  1  0
  4 25  1  0
  4 26  1  0
  7 27  1  0
  8 28  1  0
 10 29  1  0
 11 30  1  0
 12 31  1  0
 15 32  1  0
 15 33  1  0
 16 34  1  0
 16 35  1  0
 17 36  1  1
 20 37  1  0
 21 38  1  0
 21 39  1  0
 22 40  1  0
 23 41  1  0
M  END
>  <Ligand ID>  (1) 
LIG0002540

>  <Ligand>  (1) 
US9212196, Derivative 26

>  <SMILES>  (1) 
OC(=O)CSc1ccc(cc1)C(P(=O)(CC[C@H](C(=O)O)N)O)O

>  <CID>  (1) 
122197956.0

>  <ChEMBL ID>  (1) 
nan

>  <InChiKey>  (1) 
IMWRUEZSFIGPIN-VUUHIHSGSA-N

>  <InChi>  (1) 
InChI=1S/C13H18NO7PS/c14-10(12(17)18)5-6-22(20,21)13(19)8-1-3-9(4-2-8)23-7-11(15)16/h1-4,10,13,19H,5-7,14H2,(H,15,16)(H,17,18)(H,20,21)/t10-,13?/m1/s1

>  <IUPAC Name>  (1) 
(2R)-2-amino-4-[[[4-(carboxymethylsulfanyl)phenyl]-hydroxymethyl]-hydroxyphosphoryl]butanoic acid

$$$$
