
     RDKit          3D

 61 62  0  0  0  0  0  0  0  0999 V2000
    6.1406   -1.8339   -1.0868 C   0  0  0  0  0  0  0  0  0  0  0  0
    7.2482   -0.8506   -0.7385 C   0  0  0  0  0  0  0  0  0  0  0  0
    7.2025   -0.5585    0.7304 C   0  0  0  0  0  0  0  0  0  0  0  0
    5.8494    0.0554    1.1317 C   0  0  0  0  0  0  0  0  0  0  0  0
    5.6314    1.3189    0.3989 C   0  0  0  0  0  0  0  0  0  0  0  0
    4.4303    2.1027    0.6593 C   0  0  0  0  0  0  0  0  0  0  0  0
    3.0661    1.6445    0.4212 C   0  0  0  0  0  0  0  0  0  0  0  0
    2.5192    0.4608    1.1498 C   0  0  0  0  0  0  0  0  0  0  0  0
    1.0530    0.2534    0.7433 C   0  0  0  0  0  0  0  0  0  0  0  0
    0.7405   -0.5462   -0.3299 C   0  0  0  0  0  0  0  0  0  0  0  0
   -0.5919   -0.7262   -0.6885 C   0  0  0  0  0  0  0  0  0  0  0  0
   -1.6057   -0.1036    0.0305 C   0  0  0  0  0  0  0  0  0  0  0  0
   -1.2760    0.6943    1.1031 C   0  0  0  0  0  0  0  0  0  0  0  0
    0.0495    0.8710    1.4568 C   0  0  0  0  0  0  0  0  0  0  0  0
   -3.0217   -0.3011   -0.3576 C   0  0  1  0  0  0  0  0  0  0  0  0
   -3.7007   -1.0296    0.7800 C   0  0  0  0  0  0  0  0  0  0  0  0
   -4.5425   -0.0097    1.4850 C   0  0  1  0  0  0  0  0  0  0  0  0
   -4.6168    1.1288    0.6284 N   0  0  0  0  0  0  0  0  0  0  0  0
   -3.8215    0.9267   -0.5353 C   0  0  2  0  0  0  0  0  0  0  0  0
   -4.7234    0.7265   -1.7640 C   0  0  0  0  0  0  0  0  0  0  0  0
   -5.5555   -0.3665   -1.6290 O   0  0  0  0  0  0  0  0  0  0  0  0
   -6.5473   -0.5878   -2.9786 P   0  0  0  0  0  0  0  0  0  0  0  0
   -7.6528    0.4297   -3.0196 O   0  0  0  0  0  0  0  0  0  0  0  0
   -7.1942   -2.1488   -2.8862 O   0  0  0  0  0  0  0  0  0  0  0  0
   -5.6058   -0.5015   -4.3709 O   0  0  0  0  0  0  0  0  0  0  0  0
   -5.9066   -0.5649    1.8466 C   0  0  0  0  0  0  0  0  0  0  0  0
   -5.7745   -1.6866    2.6925 O   0  0  0  0  0  0  0  0  0  0  0  0
    5.9430   -2.4388   -0.1595 H   0  0  0  0  0  0  0  0  0  0  0  0
    6.4926   -2.5718   -1.8379 H   0  0  0  0  0  0  0  0  0  0  0  0
    5.2054   -1.3434   -1.3909 H   0  0  0  0  0  0  0  0  0  0  0  0
    7.2901    0.0229   -1.3873 H   0  0  0  0  0  0  0  0  0  0  0  0
    8.1951   -1.4125   -0.9153 H   0  0  0  0  0  0  0  0  0  0  0  0
    7.3002   -1.5214    1.2729 H   0  0  0  0  0  0  0  0  0  0  0  0
    8.0344    0.0818    1.0259 H   0  0  0  0  0  0  0  0  0  0  0  0
    5.1208   -0.7178    0.9058 H   0  0  0  0  0  0  0  0  0  0  0  0
    5.9684    0.2939    2.2096 H   0  0  0  0  0  0  0  0  0  0  0  0
    5.7530    1.1867   -0.7221 H   0  0  0  0  0  0  0  0  0  0  0  0
    6.5198    1.9882    0.6781 H   0  0  0  0  0  0  0  0  0  0  0  0
    4.5376    3.0767    0.0435 H   0  0  0  0  0  0  0  0  0  0  0  0
    4.4349    2.5603    1.7114 H   0  0  0  0  0  0  0  0  0  0  0  0
    2.8124    1.5719   -0.6939 H   0  0  0  0  0  0  0  0  0  0  0  0
    2.3724    2.5091    0.7188 H   0  0  0  0  0  0  0  0  0  0  0  0
    2.4644    0.6527    2.2406 H   0  0  0  0  0  0  0  0  0  0  0  0
    2.9646   -0.5080    0.8987 H   0  0  0  0  0  0  0  0  0  0  0  0
    1.5556   -1.0153   -0.8669 H   0  0  0  0  0  0  0  0  0  0  0  0
   -0.8120   -1.3703   -1.5502 H   0  0  0  0  0  0  0  0  0  0  0  0
   -2.0080    1.2092    1.7082 H   0  0  0  0  0  0  0  0  0  0  0  0
    0.3138    1.4980    2.3002 H   0  0  0  0  0  0  0  0  0  0  0  0
   -3.1078   -0.9864   -1.2361 H   0  0  0  0  0  0  0  0  0  0  0  0
   -2.9465   -1.4737    1.4853 H   0  0  0  0  0  0  0  0  0  0  0  0
   -4.3049   -1.8968    0.4423 H   0  0  0  0  0  0  0  0  0  0  0  0
   -4.0669    0.2438    2.4711 H   0  0  0  0  0  0  0  0  0  0  0  0
   -4.2101    1.9610    1.1510 H   0  0  0  0  0  0  0  0  0  0  0  0
   -5.6007    1.4181    0.4070 H   0  0  0  0  0  0  0  0  0  0  0  0
   -3.2310    1.8333   -0.7816 H   0  0  0  0  0  0  0  0  0  0  0  0
   -5.2926    1.6753   -1.9710 H   0  0  0  0  0  0  0  0  0  0  0  0
   -4.1074    0.5710   -2.6733 H   0  0  0  0  0  0  0  0  0  0  0  0
   -6.5451   -2.7365   -2.4460 H   0  0  0  0  0  0  0  0  0  0  0  0
   -6.4784   -0.7935    0.9258 H   0  0  0  0  0  0  0  0  0  0  0  0
   -6.5030    0.1629    2.4317 H   0  0  0  0  0  0  0  0  0  0  0  0
   -5.8580   -2.5279    2.1802 H   0  0  0  0  0  0  0  0  0  0  0  0
  1  2  1  0
  2  3  1  0
  3  4  1  0
  4  5  1  0
  5  6  1  0
  6  7  1  0
  7  8  1  0
  8  9  1  0
  9 10  2  0
 10 11  1  0
 11 12  2  0
 12 13  1  0
 13 14  2  0
 12 15  1  0
 15 16  1  0
 16 17  1  0
 17 18  1  0
 18 19  1  0
 19 20  1  0
 20 21  1  0
 21 22  1  0
 22 23  2  0
 22 24  1  0
 22 25  1  0
 17 26  1  0
 26 27  1  0
 14  9  1  0
 19 15  1  0
  1 28  1  0
  1 29  1  0
  1 30  1  0
  2 31  1  0
  2 32  1  0
  3 33  1  0
  3 34  1  0
  4 35  1  0
  4 36  1  0
  5 37  1  0
  5 38  1  0
  6 39  1  0
  6 40  1  0
  7 41  1  0
  7 42  1  0
  8 43  1  0
  8 44  1  0
 10 45  1  0
 11 46  1  0
 13 47  1  0
 14 48  1  0
 15 49  1  6
 16 50  1  0
 16 51  1  0
 17 52  1  1
 18 53  1  0
 18 54  1  0
 19 55  1  6
 20 56  1  0
 20 57  1  0
 24 58  1  0
 26 59  1  0
 26 60  1  0
 27 61  1  0
M  CHG  2  18   1  25  -1
M  END
>  <Ligand ID>  (1) 
LIG0004234

>  <Ligand>  (1) 
CHEMBL247698

>  <SMILES>  (1) 
CCCCCCCCc1ccc(cc1)[C@H]1C[C@@H]([NH2+][C@@H]1COP(=O)(O)[O-])CO

>  <CID>  (1) 
44438257.0

>  <ChEMBL ID>  (1) 
nan

>  <InChiKey>  (1) 
DXYHOMLATOQDGJ-VAMGGRTRSA-N

>  <InChi>  (1) 
InChI=1S/C20H34NO5P/c1-2-3-4-5-6-7-8-16-9-11-17(12-10-16)19-13-18(14-22)21-20(19)15-26-27(23,24)25/h9-12,18-22H,2-8,13-15H2,1H3,(H2,23,24,25)/t18-,19-,20-/m1/s1

>  <IUPAC Name>  (1) 
[(2S,3R,5R)-5-(hydroxymethyl)-3-(4-octylphenyl)pyrrolidin-1-ium-2-yl]methyl hydrogen phosphate

$$$$
