
     RDKit          3D

 59 63  0  0  0  0  0  0  0  0999 V2000
    7.0751   -2.2160    1.6653 O   0  0  0  0  0  0  0  0  0  0  0  0
    6.9019   -2.9073    0.4828 C   0  0  0  0  0  0  0  0  0  0  0  0
    7.0065   -4.1688    0.5424 O   0  0  0  0  0  0  0  0  0  0  0  0
    6.6115   -2.3086   -0.8210 C   0  0  0  0  0  0  0  0  0  0  0  0
    6.4019   -0.8325   -0.7724 C   0  0  1  0  0  0  0  0  0  0  0  0
    6.1248   -0.3197   -2.1766 C   0  0  0  0  0  0  0  0  0  0  0  0
    5.3175    0.9520   -1.8852 C   0  0  0  0  0  0  0  0  0  0  0  0
    4.4732    0.5319   -0.7326 C   0  0  0  0  0  0  0  0  0  0  0  0
    5.1086   -0.5118   -0.0919 C   0  0  0  0  0  0  0  0  0  0  0  0
    4.2884   -0.8519    0.9421 N   0  0  0  0  0  0  0  0  0  0  0  0
    3.2003   -0.0644    0.9483 C   0  0  0  0  0  0  0  0  0  0  0  0
    3.2893    0.8208   -0.0995 C   0  0  0  0  0  0  0  0  0  0  0  0
    2.3047    1.7412   -0.3242 C   0  0  0  0  0  0  0  0  0  0  0  0
    1.1600    1.8289    0.4987 C   0  0  0  0  0  0  0  0  0  0  0  0
    1.1211    0.9242    1.5286 C   0  0  0  0  0  0  0  0  0  0  0  0
    2.1010   -0.0133    1.7754 C   0  0  0  0  0  0  0  0  0  0  0  0
    0.2654    2.7728    0.1775 O   0  0  0  0  0  0  0  0  0  0  0  0
   -0.9258    3.2462    0.5976 C   0  0  0  0  0  0  0  0  0  0  0  0
   -1.9972    2.2281    0.5178 C   0  0  0  0  0  0  0  0  0  0  0  0
   -2.4266    1.4281    1.5336 C   0  0  0  0  0  0  0  0  0  0  0  0
   -3.4464    0.4904    1.3330 C   0  0  0  0  0  0  0  0  0  0  0  0
   -4.0595    0.3368    0.1002 C   0  0  0  0  0  0  0  0  0  0  0  0
   -3.6198    1.1577   -0.9444 C   0  0  0  0  0  0  0  0  0  0  0  0
   -2.6135    2.0715   -0.7159 C   0  0  0  0  0  0  0  0  0  0  0  0
   -4.2114    1.0496   -2.2951 C   0  0  0  0  0  0  0  0  0  0  0  0
   -4.0328   -0.2142   -2.8533 F   0  0  0  0  0  0  0  0  0  0  0  0
   -3.5337    1.9069   -3.1537 F   0  0  0  0  0  0  0  0  0  0  0  0
   -5.5295    1.4435   -2.3600 F   0  0  0  0  0  0  0  0  0  0  0  0
   -5.1288   -0.6435   -0.0518 C   0  0  0  0  0  0  0  0  0  0  0  0
   -6.4916   -0.1387    0.4110 C   0  0  0  0  0  0  0  0  0  0  0  0
   -7.3127   -1.4089    0.3408 C   0  0  0  0  0  0  0  0  0  0  0  0
   -6.3918   -2.4129    0.9983 C   0  0  0  0  0  0  0  0  0  0  0  0
   -4.9705   -1.9267    0.6880 C   0  0  0  0  0  0  0  0  0  0  0  0
    7.6767   -2.6222    2.3671 H   0  0  0  0  0  0  0  0  0  0  0  0
    7.4883   -2.5193   -1.4830 H   0  0  0  0  0  0  0  0  0  0  0  0
    5.7477   -2.7740   -1.3408 H   0  0  0  0  0  0  0  0  0  0  0  0
    7.2370   -0.2615   -0.3689 H   0  0  0  0  0  0  0  0  0  0  0  0
    7.0610    0.0077   -2.6588 H   0  0  0  0  0  0  0  0  0  0  0  0
    5.4922   -0.9783   -2.7720 H   0  0  0  0  0  0  0  0  0  0  0  0
    6.0088    1.7753   -1.6223 H   0  0  0  0  0  0  0  0  0  0  0  0
    4.7050    1.2717   -2.7307 H   0  0  0  0  0  0  0  0  0  0  0  0
    4.4250   -1.6032    1.6586 H   0  0  0  0  0  0  0  0  0  0  0  0
    2.4339    2.4098   -1.1656 H   0  0  0  0  0  0  0  0  0  0  0  0
    0.2852    0.9345    2.2040 H   0  0  0  0  0  0  0  0  0  0  0  0
    2.0028   -0.7037    2.6158 H   0  0  0  0  0  0  0  0  0  0  0  0
   -0.9332    3.6766    1.6356 H   0  0  0  0  0  0  0  0  0  0  0  0
   -1.2106    4.1594   -0.0279 H   0  0  0  0  0  0  0  0  0  0  0  0
   -1.9701    1.5363    2.5008 H   0  0  0  0  0  0  0  0  0  0  0  0
   -3.7069   -0.0871    2.2060 H   0  0  0  0  0  0  0  0  0  0  0  0
   -2.2960    2.6987   -1.5638 H   0  0  0  0  0  0  0  0  0  0  0  0
   -5.3065   -0.9282   -1.1300 H   0  0  0  0  0  0  0  0  0  0  0  0
   -6.8906    0.6809   -0.1797 H   0  0  0  0  0  0  0  0  0  0  0  0
   -6.4582    0.1153    1.5085 H   0  0  0  0  0  0  0  0  0  0  0  0
   -8.2538   -1.2998    0.9311 H   0  0  0  0  0  0  0  0  0  0  0  0
   -7.5099   -1.6188   -0.7293 H   0  0  0  0  0  0  0  0  0  0  0  0
   -6.5786   -3.4390    0.6358 H   0  0  0  0  0  0  0  0  0  0  0  0
   -6.5592   -2.4010    2.0881 H   0  0  0  0  0  0  0  0  0  0  0  0
   -4.5448   -2.7177    0.0012 H   0  0  0  0  0  0  0  0  0  0  0  0
   -4.4047   -1.8862    1.6163 H   0  0  0  0  0  0  0  0  0  0  0  0
  1  2  1  0
  2  3  2  0
  2  4  1  0
  4  5  1  0
  5  6  1  0
  6  7  1  0
  7  8  1  0
  8  9  2  0
  9 10  1  0
 10 11  1  0
 11 12  2  0
 12 13  1  0
 13 14  2  0
 14 15  1  0
 15 16  2  0
 14 17  1  0
 17 18  1  0
 18 19  1  0
 19 20  2  0
 20 21  1  0
 21 22  2  0
 22 23  1  0
 23 24  2  0
 23 25  1  0
 25 26  1  0
 25 27  1  0
 25 28  1  0
 22 29  1  0
 29 30  1  0
 30 31  1  0
 31 32  1  0
 32 33  1  0
  9  5  1  0
 16 11  1  0
 24 19  1  0
 33 29  1  0
 12  8  1  0
  1 34  1  0
  4 35  1  0
  4 36  1  0
  5 37  1  1
  6 38  1  0
  6 39  1  0
  7 40  1  0
  7 41  1  0
 10 42  1  0
 13 43  1  0
 15 44  1  0
 16 45  1  0
 18 46  1  0
 18 47  1  0
 20 48  1  0
 21 49  1  0
 24 50  1  0
 29 51  1  0
 30 52  1  0
 30 53  1  0
 31 54  1  0
 31 55  1  0
 32 56  1  0
 32 57  1  0
 33 58  1  0
 33 59  1  0
M  END
>  <Ligand ID>  (1) 
LIG0000670

>  <Ligand>  (1) 
etrasimod

>  <SMILES>  (1) 
OC(=O)C[C@H]1CCc2c1[nH]c1c2cc(cc1)OCc1ccc(c(c1)C(F)(F)F)C1CCCC1

>  <CID>  (1) 
44623998.0

>  <ChEMBL ID>  (1) 
nan

>  <InChiKey>  (1) 
MVGWUTBTXDYMND-QGZVFWFLSA-N

>  <InChi>  (1) 
InChI=1S/C26H26F3NO3/c27-26(28,29)22-11-15(5-8-19(22)16-3-1-2-4-16)14-33-18-7-10-23-21(13-18)20-9-6-17(12-24(31)32)25(20)30-23/h5,7-8,10-11,13,16-17,30H,1-4,6,9,12,14H2,(H,31,32)/t17-/m1/s1

>  <IUPAC Name>  (1) 
2-[(3R)-7-[[4-cyclopentyl-3-(trifluoromethyl)phenyl]methoxy]-1,2,3,4-tetrahydrocyclopenta[b]indol-3-yl]acetic acid

$$$$
