
     RDKit          3D

 84 88  0  0  0  0  0  0  0  0999 V2000
   -1.1828    2.9079   -1.4416 O   0  0  0  0  0  0  0  0  0  0  0  0
   -1.2525    1.5578   -1.3304 C   0  0  2  0  0  0  0  0  0  0  0  0
   -2.2326    1.0108   -0.3178 C   0  0  0  0  0  0  0  0  0  0  0  0
   -3.5160    1.3471   -0.5249 O   0  0  0  0  0  0  0  0  0  0  0  0
   -4.3426    2.3893   -0.5663 C   0  0  0  0  0  0  0  0  0  0  0  0
   -4.0614    3.7168   -0.3388 C   0  0  0  0  0  0  0  0  0  0  0  0
   -5.0089    4.7246   -0.4088 C   0  0  0  0  0  0  0  0  0  0  0  0
   -6.3099    4.4248   -0.7177 C   0  0  0  0  0  0  0  0  0  0  0  0
   -6.6357    3.1113   -0.9516 C   0  0  0  0  0  0  0  0  0  0  0  0
   -5.6931    2.1202   -0.8809 C   0  0  0  0  0  0  0  0  0  0  0  0
   -6.3389    0.9788   -1.1589 N   0  0  0  0  0  0  0  0  0  0  0  0
   -5.8226   -0.3866   -1.2128 C   0  0  0  0  0  0  0  0  0  0  0  0
   -5.9797   -0.9831    0.1816 C   0  0  0  0  0  0  0  0  0  0  0  0
   -5.4691   -2.4108    0.2036 C   0  0  0  0  0  0  0  0  0  0  0  0
   -5.6042   -3.0419    1.5487 C   0  0  0  0  0  0  0  0  0  0  0  0
   -6.0679   -4.4437    1.3232 C   0  0  0  0  0  0  0  0  0  0  0  0
   -5.9986   -4.6839   -0.1720 C   0  0  0  0  0  0  0  0  0  0  0  0
   -6.2387   -3.2967   -0.7244 C   0  0  0  0  0  0  0  0  0  0  0  0
   -7.6471    1.2822   -1.3929 C   0  0  0  0  0  0  0  0  0  0  0  0
   -8.5849    0.4859   -1.6885 O   0  0  0  0  0  0  0  0  0  0  0  0
   -7.8454    2.6003   -1.2679 N   0  0  0  0  0  0  0  0  0  0  0  0
    0.0634    0.8564   -1.2525 C   0  0  0  0  0  0  0  0  0  0  0  0
    0.9468    1.1009   -0.2159 N   0  0  0  0  0  0  0  0  0  0  0  0
    1.6349    2.2762    0.0172 C   0  0  0  0  0  0  0  0  0  0  0  0
    2.7048    1.9690    1.0875 C   0  0  0  0  0  0  0  0  0  0  0  0
    3.6684    0.9523    0.6785 C   0  0  0  0  0  0  0  0  0  0  0  0
    4.8074    1.4021   -0.0088 C   0  0  0  0  0  0  0  0  0  0  0  0
    5.7682    0.5106   -0.4226 C   0  0  0  0  0  0  0  0  0  0  0  0
    5.6671   -0.8429   -0.1900 C   0  0  0  0  0  0  0  0  0  0  0  0
    4.5575   -1.2874    0.4806 C   0  0  0  0  0  0  0  0  0  0  0  0
    3.5661   -0.3998    0.9116 C   0  0  0  0  0  0  0  0  0  0  0  0
    6.6894   -1.6459   -0.6491 O   0  0  0  0  0  0  0  0  0  0  0  0
    7.8179   -1.9391    0.1176 C   0  0  0  0  0  0  0  0  0  0  0  0
    8.0098   -1.4566    1.3904 C   0  0  0  0  0  0  0  0  0  0  0  0
    9.1419   -1.7603    2.1388 C   0  0  0  0  0  0  0  0  0  0  0  0
   10.1050   -2.5881    1.5538 C   0  0  0  0  0  0  0  0  0  0  0  0
    9.8655   -3.0419    0.2832 C   0  0  0  0  0  0  0  0  0  0  0  0
    8.7573   -2.7337   -0.4260 N   0  0  0  0  0  0  0  0  0  0  0  0
   11.3203   -2.9369    2.3066 C   0  0  0  0  0  0  0  0  0  0  0  0
   11.4571   -2.4630    3.4603 O   0  0  0  0  0  0  0  0  0  0  0  0
   12.2568   -3.7878    1.6744 N   0  0  0  0  0  0  0  0  0  0  0  0
    2.3671    2.9160   -1.1017 C   0  0  0  0  0  0  0  0  0  0  0  0
    0.7409    3.2971    0.6979 C   0  0  0  0  0  0  0  0  0  0  0  0
   -0.9879    3.2078   -2.3627 H   0  0  0  0  0  0  0  0  0  0  0  0
   -1.6931    1.2079   -2.3271 H   0  0  0  0  0  0  0  0  0  0  0  0
   -2.1476   -0.1210   -0.4452 H   0  0  0  0  0  0  0  0  0  0  0  0
   -1.8507    1.1577    0.7277 H   0  0  0  0  0  0  0  0  0  0  0  0
   -3.0776    4.0107   -0.0745 H   0  0  0  0  0  0  0  0  0  0  0  0
   -4.7293    5.7410   -0.2218 H   0  0  0  0  0  0  0  0  0  0  0  0
   -7.0113    5.2433   -0.7604 H   0  0  0  0  0  0  0  0  0  0  0  0
   -6.4095   -0.9238   -1.9704 H   0  0  0  0  0  0  0  0  0  0  0  0
   -4.7544   -0.3902   -1.4556 H   0  0  0  0  0  0  0  0  0  0  0  0
   -5.3521   -0.3719    0.8595 H   0  0  0  0  0  0  0  0  0  0  0  0
   -7.0308   -0.9309    0.4692 H   0  0  0  0  0  0  0  0  0  0  0  0
   -4.4088   -2.4702   -0.0844 H   0  0  0  0  0  0  0  0  0  0  0  0
   -4.6236   -3.1120    2.1044 H   0  0  0  0  0  0  0  0  0  0  0  0
   -6.3598   -2.5213    2.1913 H   0  0  0  0  0  0  0  0  0  0  0  0
   -5.4676   -5.2221    1.8190 H   0  0  0  0  0  0  0  0  0  0  0  0
   -7.1377   -4.5554    1.6200 H   0  0  0  0  0  0  0  0  0  0  0  0
   -6.8623   -5.3440   -0.4676 H   0  0  0  0  0  0  0  0  0  0  0  0
   -5.0672   -5.1494   -0.4978 H   0  0  0  0  0  0  0  0  0  0  0  0
   -5.8413   -3.1976   -1.7616 H   0  0  0  0  0  0  0  0  0  0  0  0
   -7.3358   -3.1301   -0.7227 H   0  0  0  0  0  0  0  0  0  0  0  0
   -8.7344    3.1076   -1.3889 H   0  0  0  0  0  0  0  0  0  0  0  0
    0.5168    0.8714   -2.2871 H   0  0  0  0  0  0  0  0  0  0  0  0
   -0.2244   -0.2409   -1.1716 H   0  0  0  0  0  0  0  0  0  0  0  0
    0.8672    0.4473    0.6114 H   0  0  0  0  0  0  0  0  0  0  0  0
    3.1792    2.9307    1.3980 H   0  0  0  0  0  0  0  0  0  0  0  0
    2.1610    1.5670    1.9834 H   0  0  0  0  0  0  0  0  0  0  0  0
    4.9303    2.4493   -0.2125 H   0  0  0  0  0  0  0  0  0  0  0  0
    6.6355    0.9120   -0.9531 H   0  0  0  0  0  0  0  0  0  0  0  0
    4.4753   -2.3568    0.6654 H   0  0  0  0  0  0  0  0  0  0  0  0
    2.7093   -0.7832    1.4394 H   0  0  0  0  0  0  0  0  0  0  0  0
    7.2619   -0.8177    1.8368 H   0  0  0  0  0  0  0  0  0  0  0  0
    9.2825   -1.3733    3.1430 H   0  0  0  0  0  0  0  0  0  0  0  0
   10.6039   -3.6951   -0.2053 H   0  0  0  0  0  0  0  0  0  0  0  0
   11.9400   -4.7349    1.3715 H   0  0  0  0  0  0  0  0  0  0  0  0
   13.2400   -3.4348    1.5324 H   0  0  0  0  0  0  0  0  0  0  0  0
    1.6280    3.4039   -1.8043 H   0  0  0  0  0  0  0  0  0  0  0  0
    2.9777    2.2599   -1.7148 H   0  0  0  0  0  0  0  0  0  0  0  0
    3.0098    3.7629   -0.7842 H   0  0  0  0  0  0  0  0  0  0  0  0
    0.5929    4.2206    0.0917 H   0  0  0  0  0  0  0  0  0  0  0  0
    1.2166    3.7146    1.6442 H   0  0  0  0  0  0  0  0  0  0  0  0
   -0.2017    2.8526    1.0723 H   0  0  0  0  0  0  0  0  0  0  0  0
  1  2  1  0
  2  3  1  0
  3  4  1  0
  4  5  1  0
  5  6  2  0
  6  7  1  0
  7  8  2  0
  8  9  1  0
  9 10  2  0
 10 11  1  0
 11 12  1  0
 12 13  1  0
 13 14  1  0
 14 15  1  0
 15 16  1  0
 16 17  1  0
 17 18  1  0
 11 19  1  0
 19 20  2  0
 19 21  1  0
  2 22  1  0
 22 23  1  0
 23 24  1  0
 24 25  1  0
 25 26  1  0
 26 27  2  0
 27 28  1  0
 28 29  2  0
 29 30  1  0
 30 31  2  0
 29 32  1  0
 32 33  1  0
 33 34  2  0
 34 35  1  0
 35 36  2  0
 36 37  1  0
 37 38  2  0
 36 39  1  0
 39 40  2  0
 39 41  1  0
 24 42  1  0
 24 43  1  0
 10  5  1  0
 18 14  1  0
 31 26  1  0
 38 33  1  0
 21  9  1  0
  1 44  1  0
  2 45  1  6
  3 46  1  0
  3 47  1  0
  6 48  1  0
  7 49  1  0
  8 50  1  0
 12 51  1  0
 12 52  1  0
 13 53  1  0
 13 54  1  0
 14 55  1  0
 15 56  1  0
 15 57  1  0
 16 58  1  0
 16 59  1  0
 17 60  1  0
 17 61  1  0
 18 62  1  0
 18 63  1  0
 21 64  1  0
 22 65  1  0
 22 66  1  0
 23 67  1  0
 25 68  1  0
 25 69  1  0
 27 70  1  0
 28 71  1  0
 30 72  1  0
 31 73  1  0
 34 74  1  0
 35 75  1  0
 37 76  1  0
 41 77  1  0
 41 78  1  0
 42 79  1  0
 42 80  1  0
 42 81  1  0
 43 82  1  0
 43 83  1  0
 43 84  1  0
M  END
>  <Ligand ID>  (1) 
LIG0003402

>  <Ligand>  (1) 
CHEMBL218210

>  <SMILES>  (1) 
O[C@H](COc1cccc2c1n(CCC1CCCC1)c(=O)[nH]2)CNC(Cc1ccc(cc1)Oc1ccc(cn1)C(=O)N)(C)C

>  <CID>  (1) 
44419254.0

>  <ChEMBL ID>  (1) 
nan

>  <InChiKey>  (1) 
WMTONJUBNSRUDJ-VWLOTQADSA-N

>  <InChi>  (1) 
InChI=1S/C33H41N5O5/c1-33(2,18-23-10-13-26(14-11-23)43-29-15-12-24(19-35-29)31(34)40)36-20-25(39)21-42-28-9-5-8-27-30(28)38(32(41)37-27)17-16-22-6-3-4-7-22/h5,8-15,19,22,25,36,39H,3-4,6-7,16-18,20-21H2,1-2H3,(H2,34,40)(H,37,41)/t25-/m0/s1

>  <IUPAC Name>  (1) 
6-[4-[2-[[(2S)-3-[[3-(2-cyclopentylethyl)-2-oxo-1H-benzimidazol-4-yl]oxy]-2-hydroxypropyl]amino]-2-methylpropyl]phenoxy]pyridine-3-carboxamide

$$$$
