
     RDKit          3D

 53 54  0  0  0  0  0  0  0  0999 V2000
    8.5755    2.7013   -1.0876 O   0  0  0  0  0  0  0  0  0  0  0  0
    7.4768    2.1763   -0.4139 C   0  0  0  0  0  0  0  0  0  0  0  0
    6.5196    2.9071   -0.0321 O   0  0  0  0  0  0  0  0  0  0  0  0
    7.4000    0.7130   -0.1203 C   0  0  0  0  0  0  0  0  0  0  0  0
    6.4206    0.1001   -1.0744 C   0  0  0  0  0  0  0  0  0  0  0  0
    5.1120    0.6627   -0.9578 N   0  0  0  0  0  0  0  0  0  0  0  0
    4.4258    0.3714    0.2618 C   0  0  0  0  0  0  0  0  0  0  0  0
    4.0838   -1.0531    0.3367 C   0  0  0  0  0  0  0  0  0  0  0  0
    2.8889   -1.5860    0.3543 C   0  0  0  0  0  0  0  0  0  0  0  0
    1.6235   -0.9217    0.2910 C   0  0  0  0  0  0  0  0  0  0  0  0
    0.5233   -1.6166    0.8016 C   0  0  0  0  0  0  0  0  0  0  0  0
   -0.7460   -1.0943    0.7277 C   0  0  0  0  0  0  0  0  0  0  0  0
   -1.0471    0.1152    0.1654 C   0  0  0  0  0  0  0  0  0  0  0  0
    0.0474    0.8236   -0.3524 C   0  0  0  0  0  0  0  0  0  0  0  0
    1.3419    0.2890   -0.2769 C   0  0  0  0  0  0  0  0  0  0  0  0
   -2.2639    0.7039    0.0483 O   0  0  0  0  0  0  0  0  0  0  0  0
   -3.5236    0.2796    0.4275 C   0  0  0  0  0  0  0  0  0  0  0  0
   -4.0548   -0.9570   -0.2137 C   0  0  0  0  0  0  0  0  0  0  0  0
   -5.4375   -1.2417    0.3544 C   0  0  0  0  0  0  0  0  0  0  0  0
   -6.3237   -0.0978    0.0539 C   0  0  0  0  0  0  0  0  0  0  0  0
   -7.0167   -0.1018   -1.1592 C   0  0  0  0  0  0  0  0  0  0  0  0
   -7.8753    0.9248   -1.5080 C   0  0  0  0  0  0  0  0  0  0  0  0
   -8.0378    1.9793   -0.6123 C   0  0  0  0  0  0  0  0  0  0  0  0
   -7.3737    2.0180    0.5901 C   0  0  0  0  0  0  0  0  0  0  0  0
   -6.5302    0.9744    0.8942 C   0  0  0  0  0  0  0  0  0  0  0  0
    2.8574   -3.0961    0.4451 C   0  0  0  0  0  0  0  0  0  0  0  0
    8.5072    3.6829   -1.3873 H   0  0  0  0  0  0  0  0  0  0  0  0
    7.2187    0.5052    0.9402 H   0  0  0  0  0  0  0  0  0  0  0  0
    8.4067    0.2668   -0.3552 H   0  0  0  0  0  0  0  0  0  0  0  0
    6.4369   -1.0034   -1.0707 H   0  0  0  0  0  0  0  0  0  0  0  0
    6.7845    0.3883   -2.1053 H   0  0  0  0  0  0  0  0  0  0  0  0
    4.5065    0.3950   -1.7593 H   0  0  0  0  0  0  0  0  0  0  0  0
    5.1960    0.5643    1.1341 H   0  0  0  0  0  0  0  0  0  0  0  0
    3.6723    1.0940    0.4987 H   0  0  0  0  0  0  0  0  0  0  0  0
    4.9316   -1.7416    0.3863 H   0  0  0  0  0  0  0  0  0  0  0  0
    0.6618   -2.5914    1.2704 H   0  0  0  0  0  0  0  0  0  0  0  0
   -1.5377   -1.6692    1.1498 H   0  0  0  0  0  0  0  0  0  0  0  0
   -0.1178    1.8017   -0.8203 H   0  0  0  0  0  0  0  0  0  0  0  0
    2.0859    0.8968   -0.7551 H   0  0  0  0  0  0  0  0  0  0  0  0
   -4.2092    1.1600    0.2607 H   0  0  0  0  0  0  0  0  0  0  0  0
   -3.5636    0.1045    1.5398 H   0  0  0  0  0  0  0  0  0  0  0  0
   -4.1752   -0.8099   -1.3288 H   0  0  0  0  0  0  0  0  0  0  0  0
   -3.4718   -1.8626   -0.0883 H   0  0  0  0  0  0  0  0  0  0  0  0
   -5.8770   -2.1791   -0.0465 H   0  0  0  0  0  0  0  0  0  0  0  0
   -5.3534   -1.2842    1.4600 H   0  0  0  0  0  0  0  0  0  0  0  0
   -6.8963   -0.9207   -1.8595 H   0  0  0  0  0  0  0  0  0  0  0  0
   -8.4317    0.9677   -2.4169 H   0  0  0  0  0  0  0  0  0  0  0  0
   -8.7139    2.8039   -0.8674 H   0  0  0  0  0  0  0  0  0  0  0  0
   -7.5294    2.8480    1.2497 H   0  0  0  0  0  0  0  0  0  0  0  0
   -6.0112    0.9989    1.8377 H   0  0  0  0  0  0  0  0  0  0  0  0
    2.0489   -3.4165   -0.2585 H   0  0  0  0  0  0  0  0  0  0  0  0
    2.5831   -3.4526    1.4424 H   0  0  0  0  0  0  0  0  0  0  0  0
    3.7818   -3.5204    0.0590 H   0  0  0  0  0  0  0  0  0  0  0  0
  1  2  1  0
  2  3  2  0
  2  4  1  0
  4  5  1  0
  5  6  1  0
  6  7  1  0
  7  8  1  0
  8  9  2  0
  9 10  1  0
 10 11  2  0
 11 12  1  0
 12 13  2  0
 13 14  1  0
 14 15  2  0
 13 16  1  0
 16 17  1  0
 17 18  1  0
 18 19  1  0
 19 20  1  0
 20 21  2  0
 21 22  1  0
 22 23  2  0
 23 24  1  0
 24 25  2  0
  9 26  1  0
 15 10  1  0
 25 20  1  0
  1 27  1  0
  4 28  1  0
  4 29  1  0
  5 30  1  0
  5 31  1  0
  6 32  1  0
  7 33  1  0
  7 34  1  0
  8 35  1  0
 11 36  1  0
 12 37  1  0
 14 38  1  0
 15 39  1  0
 17 40  1  0
 17 41  1  0
 18 42  1  0
 18 43  1  0
 19 44  1  0
 19 45  1  0
 21 46  1  0
 22 47  1  0
 23 48  1  0
 24 49  1  0
 25 50  1  0
 26 51  1  0
 26 52  1  0
 26 53  1  0
M  END
>  <Ligand ID>  (1) 
LIG0005560

>  <Ligand>  (1) 
CHEMBL1683048

>  <SMILES>  (1) 
OC(=O)CCNC/C=C(\c1ccc(cc1)OCCCc1ccccc1)/C

>  <CID>  (1) 
23121592.0

>  <ChEMBL ID>  (1) 
nan

>  <InChiKey>  (1) 
LPVUWRPVJHEUFU-AQTBWJFISA-N

>  <InChi>  (1) 
InChI=1S/C22H27NO3/c1-18(13-15-23-16-14-22(24)25)20-9-11-21(12-10-20)26-17-5-8-19-6-3-2-4-7-19/h2-4,6-7,9-13,23H,5,8,14-17H2,1H3,(H,24,25)/b18-13-

>  <IUPAC Name>  (1) 
3-[[(Z)-3-[4-(3-phenylpropoxy)phenyl]but-2-enyl]amino]propanoic acid

$$$$
