
     RDKit          3D

 64 68  0  0  0  0  0  0  0  0999 V2000
    7.1033    1.5394    2.3862 N   0  0  0  0  0  0  0  0  0  0  0  0
    6.0110    1.0255    1.6193 C   0  0  0  0  0  0  0  0  0  0  0  0
    4.7661    1.5252    1.7957 N   0  0  0  0  0  0  0  0  0  0  0  0
    3.7074    1.0770    1.1008 C   0  0  0  0  0  0  0  0  0  0  0  0
    3.9335    0.0726    0.1846 C   0  0  0  0  0  0  0  0  0  0  0  0
    5.2034   -0.4348    0.0068 C   0  0  0  0  0  0  0  0  0  0  0  0
    6.2398    0.0440    0.7259 N   0  0  0  0  0  0  0  0  0  0  0  0
    7.3256   -0.6209    0.3503 N   0  0  0  0  0  0  0  0  0  0  0  0
    7.0212   -1.5243   -0.5992 C   0  0  0  0  0  0  0  0  0  0  0  0
    5.7036   -1.4001   -0.8040 N   0  0  0  0  0  0  0  0  0  0  0  0
    7.9618   -2.4330   -1.2466 C   0  0  0  0  0  0  0  0  0  0  0  0
    9.1274   -2.9437   -0.7167 C   0  0  0  0  0  0  0  0  0  0  0  0
    9.6783   -3.7496   -1.6885 C   0  0  0  0  0  0  0  0  0  0  0  0
    8.8196   -3.6973   -2.7802 C   0  0  0  0  0  0  0  0  0  0  0  0
    7.8342   -2.9104   -2.4591 O   0  0  0  0  0  0  0  0  0  0  0  0
    2.3962    1.6639    1.3447 C   0  0  0  0  0  0  0  0  0  0  0  0
    2.3277    2.6639    2.2950 C   0  0  0  0  0  0  0  0  0  0  0  0
    1.1314    3.2810    2.5964 C   0  0  0  0  0  0  0  0  0  0  0  0
   -0.0021    2.8598    1.9092 C   0  0  0  0  0  0  0  0  0  0  0  0
    0.0253    1.8694    0.9580 C   0  0  0  0  0  0  0  0  0  0  0  0
    1.2550    1.2899    0.7012 C   0  0  0  0  0  0  0  0  0  0  0  0
   -1.1133    1.4220    0.2410 N   0  0  0  0  0  0  0  0  0  0  0  0
   -2.4402    1.9808    0.3909 C   0  0  0  0  0  0  0  0  0  0  0  0
   -3.2669    0.8448    1.0022 C   0  0  0  0  0  0  0  0  0  0  0  0
   -3.3491   -0.2172   -0.0537 C   0  0  0  0  0  0  0  0  0  0  0  0
   -2.3664   -0.0099   -1.1944 C   0  0  0  0  0  0  0  0  0  0  0  0
   -0.9730    0.3328   -0.7110 C   0  0  0  0  0  0  0  0  0  0  0  0
   -4.6557   -0.3097   -0.6599 N   0  0  0  0  0  0  0  0  0  0  0  0
   -5.7222   -0.6190    0.2271 C   0  0  0  0  0  0  0  0  0  0  0  0
   -7.0508   -0.6870   -0.5341 C   0  0  0  0  0  0  0  0  0  0  0  0
   -7.0569   -1.7258   -1.6066 C   0  0  0  0  0  0  0  0  0  0  0  0
   -8.1941   -0.9276    0.4045 C   0  0  0  0  0  0  0  0  0  0  0  0
   -7.2743    0.6864   -1.1720 C   0  0  0  0  0  0  0  0  0  0  0  0
    7.2387    1.2948    3.3837 H   0  0  0  0  0  0  0  0  0  0  0  0
    7.8148    2.1917    1.9558 H   0  0  0  0  0  0  0  0  0  0  0  0
    3.1124   -0.3188   -0.3969 H   0  0  0  0  0  0  0  0  0  0  0  0
    9.5515   -2.7720    0.2501 H   0  0  0  0  0  0  0  0  0  0  0  0
   10.5966   -4.3331   -1.6632 H   0  0  0  0  0  0  0  0  0  0  0  0
    8.9475   -4.2147   -3.7206 H   0  0  0  0  0  0  0  0  0  0  0  0
    3.1965    3.0083    2.8424 H   0  0  0  0  0  0  0  0  0  0  0  0
    1.0713    4.0569    3.3320 H   0  0  0  0  0  0  0  0  0  0  0  0
   -0.9181    3.3569    2.1654 H   0  0  0  0  0  0  0  0  0  0  0  0
    1.2953    0.5210   -0.0326 H   0  0  0  0  0  0  0  0  0  0  0  0
   -2.8256    2.2506   -0.6135 H   0  0  0  0  0  0  0  0  0  0  0  0
   -2.4733    2.9005    0.9896 H   0  0  0  0  0  0  0  0  0  0  0  0
   -2.6404    0.4920    1.8575 H   0  0  0  0  0  0  0  0  0  0  0  0
   -4.2104    1.1811    1.4228 H   0  0  0  0  0  0  0  0  0  0  0  0
   -3.1177   -1.2082    0.3888 H   0  0  0  0  0  0  0  0  0  0  0  0
   -2.3365   -1.0085   -1.7193 H   0  0  0  0  0  0  0  0  0  0  0  0
   -2.7621    0.7024   -1.9402 H   0  0  0  0  0  0  0  0  0  0  0  0
   -0.5417   -0.5739   -0.2694 H   0  0  0  0  0  0  0  0  0  0  0  0
   -0.4202    0.6804   -1.6081 H   0  0  0  0  0  0  0  0  0  0  0  0
   -4.6805   -0.8724   -1.5134 H   0  0  0  0  0  0  0  0  0  0  0  0
   -5.8871    0.0878    1.0352 H   0  0  0  0  0  0  0  0  0  0  0  0
   -5.6142   -1.6304    0.6987 H   0  0  0  0  0  0  0  0  0  0  0  0
   -7.1394   -1.2533   -2.6288 H   0  0  0  0  0  0  0  0  0  0  0  0
   -7.9399   -2.3684   -1.5204 H   0  0  0  0  0  0  0  0  0  0  0  0
   -6.1139   -2.3216   -1.6583 H   0  0  0  0  0  0  0  0  0  0  0  0
   -8.4176   -0.0156    1.0093 H   0  0  0  0  0  0  0  0  0  0  0  0
   -8.0134   -1.7557    1.1160 H   0  0  0  0  0  0  0  0  0  0  0  0
   -9.0949   -1.0747   -0.2274 H   0  0  0  0  0  0  0  0  0  0  0  0
   -6.7378    0.6298   -2.1475 H   0  0  0  0  0  0  0  0  0  0  0  0
   -6.7208    1.4349   -0.5720 H   0  0  0  0  0  0  0  0  0  0  0  0
   -8.3258    0.9642   -1.2335 H   0  0  0  0  0  0  0  0  0  0  0  0
  1  2  1  0
  2  3  2  0
  3  4  1  0
  4  5  2  0
  5  6  1  0
  6  7  1  0
  7  8  1  0
  8  9  2  0
  9 10  1  0
  9 11  1  0
 11 12  2  0
 12 13  1  0
 13 14  2  0
 14 15  1  0
  4 16  1  0
 16 17  2  0
 17 18  1  0
 18 19  2  0
 19 20  1  0
 20 21  2  0
 20 22  1  0
 22 23  1  0
 23 24  1  0
 24 25  1  0
 25 26  1  0
 26 27  1  0
 25 28  1  0
 28 29  1  0
 29 30  1  0
 30 31  1  0
 30 32  1  0
 30 33  1  0
  7  2  1  0
 15 11  1  0
 21 16  1  0
 27 22  1  0
 10  6  2  0
  1 34  1  0
  1 35  1  0
  5 36  1  0
 12 37  1  0
 13 38  1  0
 14 39  1  0
 17 40  1  0
 18 41  1  0
 19 42  1  0
 21 43  1  0
 23 44  1  0
 23 45  1  0
 24 46  1  0
 24 47  1  0
 25 48  1  0
 26 49  1  0
 26 50  1  0
 27 51  1  0
 27 52  1  0
 28 53  1  0
 29 54  1  0
 29 55  1  0
 31 56  1  0
 31 57  1  0
 31 58  1  0
 32 59  1  0
 32 60  1  0
 32 61  1  0
 33 62  1  0
 33 63  1  0
 33 64  1  0
M  END
>  <Ligand ID>  (1) 
LIG0000907

>  <Ligand>  (1) 
CHEMBL368525

>  <SMILES>  (1) 
Nc1nc(cc2n1nc(n2)c1ccco1)c1cccc(c1)N1CCC(CC1)NCC(C)(C)C

>  <CID>  (1) 
23570338.0

>  <ChEMBL ID>  (1) 
nan

>  <InChiKey>  (1) 
LNPCBJKKVJTNMT-UHFFFAOYSA-N

>  <InChi>  (1) 
InChI=1S/C25H31N7O/c1-25(2,3)16-27-18-9-11-31(12-10-18)19-7-4-6-17(14-19)20-15-22-29-23(21-8-5-13-33-21)30-32(22)24(26)28-20/h4-8,13-15,18,27H,9-12,16H2,1-3H3,(H2,26,28)

>  <IUPAC Name>  (1) 
7-[3-[4-(2,2-dimethylpropylamino)piperidin-1-yl]phenyl]-2-(furan-2-yl)-[1,2,4]triazolo[1,5-c]pyrimidin-5-amine

$$$$
