
     RDKit          3D

 73 78  0  0  0  0  0  0  0  0999 V2000
   -5.1382   -1.7558    1.6188 C   0  0  0  0  0  0  0  0  0  0  0  0
   -4.3524   -1.1418    0.5162 C   0  0  1  0  0  0  0  0  0  0  0  0
   -5.1906   -0.5813   -0.5924 C   0  0  0  0  0  0  0  0  0  0  0  0
   -4.3593   -0.0023   -1.6786 C   0  0  0  0  0  0  0  0  0  0  0  0
   -2.9030    0.0371   -1.4101 C   0  0  0  0  0  0  0  0  0  0  0  0
   -2.3826    0.0131   -0.1274 C   0  0  0  0  0  0  0  0  0  0  0  0
   -3.4198   -0.0508    0.9717 C   0  0  2  0  0  0  0  0  0  0  0  0
   -2.7202   -0.4724    2.2707 C   0  0  0  0  0  0  0  0  0  0  0  0
   -4.0283    1.2983    1.0864 C   0  0  0  0  0  0  0  0  0  0  0  0
   -5.4242    1.4738    0.6415 C   0  0  0  0  0  0  0  0  0  0  0  0
   -6.0672    0.4127   -0.0309 N   0  0  0  0  0  0  0  0  0  0  0  0
   -7.0759    0.8347   -0.9830 C   0  0  0  0  0  0  0  0  0  0  0  0
   -8.2857    1.4523   -0.3567 C   0  0  0  0  0  0  0  0  0  0  0  0
   -9.0874    0.6351    0.5995 C   0  0  0  0  0  0  0  0  0  0  0  0
   -9.6233    0.8551   -0.7766 C   0  0  0  0  0  0  0  0  0  0  0  0
   -1.0365    0.0453    0.1451 C   0  0  0  0  0  0  0  0  0  0  0  0
   -0.1645    0.1051   -0.9260 C   0  0  0  0  0  0  0  0  0  0  0  0
   -0.6665    0.1306   -2.2174 C   0  0  0  0  0  0  0  0  0  0  0  0
   -2.0215    0.0971   -2.4676 C   0  0  0  0  0  0  0  0  0  0  0  0
    1.2673    0.1347   -0.6579 C   0  0  0  0  0  0  0  0  0  0  0  0
    1.6410    0.0896    0.5380 O   0  0  0  0  0  0  0  0  0  0  0  0
    2.2607    0.2105   -1.6562 N   0  0  0  0  0  0  0  0  0  0  0  0
    3.6323    0.2313   -1.2822 C   0  0  0  0  0  0  0  0  0  0  0  0
    4.1428   -0.9334   -0.5289 C   0  0  0  0  0  0  0  0  0  0  0  0
    5.5849   -0.8071   -0.1912 C   0  0  0  0  0  0  0  0  0  0  0  0
    5.8709   -0.1850    1.0252 C   0  0  0  0  0  0  0  0  0  0  0  0
    7.1979   -0.0206    1.4330 C   0  0  0  0  0  0  0  0  0  0  0  0
    8.2063   -0.4932    0.5939 C   0  0  0  0  0  0  0  0  0  0  0  0
    7.9202   -1.1108   -0.6142 C   0  0  0  0  0  0  0  0  0  0  0  0
    6.5877   -1.2735   -1.0193 C   0  0  0  0  0  0  0  0  0  0  0  0
    9.5879   -0.3153    1.0300 C   0  0  0  0  0  0  0  0  0  0  0  0
    9.9318    0.7854    1.7937 C   0  0  0  0  0  0  0  0  0  0  0  0
   11.2537    0.9137    2.1859 C   0  0  0  0  0  0  0  0  0  0  0  0
   12.2191   -0.0273    1.8306 C   0  0  0  0  0  0  0  0  0  0  0  0
   11.8452   -1.0994    1.0775 N   0  0  0  0  0  0  0  0  0  0  0  0
   10.5571   -1.2544    0.6769 C   0  0  0  0  0  0  0  0  0  0  0  0
   -5.4735   -1.0547    2.4057 H   0  0  0  0  0  0  0  0  0  0  0  0
   -4.4695   -2.4903    2.1564 H   0  0  0  0  0  0  0  0  0  0  0  0
   -5.9759   -2.3441    1.2255 H   0  0  0  0  0  0  0  0  0  0  0  0
   -3.7380   -1.9645    0.0492 H   0  0  0  0  0  0  0  0  0  0  0  0
   -5.8504   -1.3749   -1.0223 H   0  0  0  0  0  0  0  0  0  0  0  0
   -4.6999    1.0321   -1.9636 H   0  0  0  0  0  0  0  0  0  0  0  0
   -4.4895   -0.5771   -2.6428 H   0  0  0  0  0  0  0  0  0  0  0  0
   -2.1253   -1.3663    2.0962 H   0  0  0  0  0  0  0  0  0  0  0  0
   -3.5036   -0.5589    3.0447 H   0  0  0  0  0  0  0  0  0  0  0  0
   -2.1229    0.4306    2.5563 H   0  0  0  0  0  0  0  0  0  0  0  0
   -3.3425    2.0840    0.6459 H   0  0  0  0  0  0  0  0  0  0  0  0
   -4.0052    1.5680    2.1853 H   0  0  0  0  0  0  0  0  0  0  0  0
   -5.4551    2.3586   -0.0635 H   0  0  0  0  0  0  0  0  0  0  0  0
   -6.1196    1.8116    1.4668 H   0  0  0  0  0  0  0  0  0  0  0  0
   -7.3719   -0.0167   -1.6532 H   0  0  0  0  0  0  0  0  0  0  0  0
   -6.6238    1.6215   -1.6479 H   0  0  0  0  0  0  0  0  0  0  0  0
   -8.2920    2.5401   -0.1228 H   0  0  0  0  0  0  0  0  0  0  0  0
   -8.7242   -0.3580    0.8774 H   0  0  0  0  0  0  0  0  0  0  0  0
   -9.6950    1.1509    1.3872 H   0  0  0  0  0  0  0  0  0  0  0  0
   -9.5941   -0.0155   -1.4695 H   0  0  0  0  0  0  0  0  0  0  0  0
  -10.4398    1.5579   -0.9709 H   0  0  0  0  0  0  0  0  0  0  0  0
   -0.6801    0.0237    1.1736 H   0  0  0  0  0  0  0  0  0  0  0  0
   -0.0156    0.1783   -3.0778 H   0  0  0  0  0  0  0  0  0  0  0  0
   -2.3825    0.1192   -3.5039 H   0  0  0  0  0  0  0  0  0  0  0  0
    1.9690    0.2504   -2.6593 H   0  0  0  0  0  0  0  0  0  0  0  0
    4.2497    0.3941   -2.1878 H   0  0  0  0  0  0  0  0  0  0  0  0
    3.7917    1.1421   -0.6355 H   0  0  0  0  0  0  0  0  0  0  0  0
    4.1053   -1.7948   -1.2647 H   0  0  0  0  0  0  0  0  0  0  0  0
    3.5104   -1.2873    0.2903 H   0  0  0  0  0  0  0  0  0  0  0  0
    5.0650    0.1814    1.6744 H   0  0  0  0  0  0  0  0  0  0  0  0
    7.4499    0.4574    2.3704 H   0  0  0  0  0  0  0  0  0  0  0  0
    8.7074   -1.4819   -1.2745 H   0  0  0  0  0  0  0  0  0  0  0  0
    6.3410   -1.7531   -1.9594 H   0  0  0  0  0  0  0  0  0  0  0  0
    9.2128    1.5438    2.0940 H   0  0  0  0  0  0  0  0  0  0  0  0
   11.5374    1.7721    2.7853 H   0  0  0  0  0  0  0  0  0  0  0  0
   13.2463    0.0915    2.1471 H   0  0  0  0  0  0  0  0  0  0  0  0
   10.2440   -2.1024    0.0775 H   0  0  0  0  0  0  0  0  0  0  0  0
  1  2  1  0
  2  3  1  0
  3  4  1  0
  4  5  1  0
  5  6  2  0
  6  7  1  0
  7  8  1  1
  7  9  1  0
  9 10  1  0
 10 11  1  0
 11 12  1  0
 12 13  1  0
 13 14  1  0
 14 15  1  0
  6 16  1  0
 16 17  2  0
 17 18  1  0
 18 19  2  0
 17 20  1  0
 20 21  2  0
 20 22  1  0
 22 23  1  0
 23 24  1  0
 24 25  1  0
 25 26  2  0
 26 27  1  0
 27 28  2  0
 28 29  1  0
 29 30  2  0
 28 31  1  0
 31 32  2  0
 32 33  1  0
 33 34  2  0
 34 35  1  0
 35 36  2  0
  7  2  1  0
 15 13  1  0
 30 25  1  0
 36 31  1  0
 11  3  1  0
 19  5  1  0
  1 37  1  0
  1 38  1  0
  1 39  1  0
  2 40  1  6
  3 41  1  0
  4 42  1  0
  4 43  1  0
  8 44  1  0
  8 45  1  0
  8 46  1  0
  9 47  1  0
  9 48  1  0
 10 49  1  0
 10 50  1  0
 12 51  1  0
 12 52  1  0
 13 53  1  0
 14 54  1  0
 14 55  1  0
 15 56  1  0
 15 57  1  0
 16 58  1  0
 18 59  1  0
 19 60  1  0
 22 61  1  0
 23 62  1  0
 23 63  1  0
 24 64  1  0
 24 65  1  0
 26 66  1  0
 27 67  1  0
 29 68  1  0
 30 69  1  0
 32 70  1  0
 33 71  1  0
 34 72  1  0
 36 73  1  0
M  END
>  <Ligand ID>  (1) 
LIG0005525

>  <Ligand>  (1) 
CHEMBL2347236

>  <SMILES>  (1) 
C[C@H]1C2Cc3c([C@@]1(C)CCN2CC1CC1)cc(cc3)C(=O)NCCc1ccc(cc1)c1cccnc1

>  <CID>  (1) 
57900041.0

>  <ChEMBL ID>  (1) 
nan

>  <InChiKey>  (1) 
IGZOVVQZHKLAFJ-WTBOZYSNSA-N

>  <InChi>  (1) 
InChI=1S/C32H37N3O/c1-22-30-19-26-11-12-27(18-29(26)32(22,2)14-17-35(30)21-24-5-6-24)31(36)34-16-13-23-7-9-25(10-8-23)28-4-3-15-33-20-28/h3-4,7-12,15,18,20,22,24,30H,5-6,13-14,16-17,19,21H2,1-2H3,(H,34,36)/t22-,30?,32-/m0/s1

>  <IUPAC Name>  (1) 
(1S,13R)-10-(cyclopropylmethyl)-1,13-dimethyl-N-[2-(4-pyridin-3-ylphenyl)ethyl]-10-azatricyclo[7.3.1.02,7]trideca-2(7),3,5-triene-4-carboxamide

$$$$
