
     RDKit          3D

 60 61  0  0  0  0  0  0  0  0999 V2000
    9.9176    2.1108   -1.1332 O   0  0  0  0  0  0  0  0  0  0  0  0
    9.8743    1.2449   -0.0281 C   0  0  0  0  0  0  0  0  0  0  0  0
    8.7683    0.2438   -0.2139 C   0  0  0  0  0  0  0  0  0  0  0  0
    7.4296    0.9597   -0.3134 C   0  0  0  0  0  0  0  0  0  0  0  0
    6.3876    0.0741   -0.4458 O   0  0  0  0  0  0  0  0  0  0  0  0
    4.8975    0.8640   -0.5570 P   0  0  0  0  0  0  0  0  0  0  0  0
    5.1122    2.0358   -1.5160 O   0  0  0  0  0  0  0  0  0  0  0  0
    3.6902   -0.1296   -1.1427 O   0  0  0  0  0  0  0  0  0  0  0  0
    3.7247   -1.6693   -0.4797 P   0  0  0  0  0  0  0  0  0  0  0  0
    3.6377   -2.6578   -1.6255 O   0  0  0  0  0  0  0  0  0  0  0  0
    2.4780   -1.9846    0.5894 O   0  0  0  0  0  0  0  0  0  0  0  0
    1.1097   -1.0571    0.3585 P   0  0  0  0  0  0  0  0  0  0  0  0
    1.3779    0.0191   -0.6842 O   0  0  0  0  0  0  0  0  0  0  0  0
   -0.2482   -1.9494   -0.0888 O   0  0  0  0  0  0  0  0  0  0  0  0
   -1.2484   -2.3443    1.1896 P   0  0  0  0  0  0  0  0  0  0  0  0
   -0.4026   -2.6469    2.4071 O   0  0  0  0  0  0  0  0  0  0  0  0
   -2.2744   -1.0567    1.6419 O   0  0  0  0  0  0  0  0  0  0  0  0
   -2.7977   -0.4250    0.5173 C   0  0  0  0  0  0  0  0  0  0  0  0
   -3.7117    0.7217    0.8932 C   0  0  1  0  0  0  0  0  0  0  0  0
   -4.1995    1.3083   -0.2337 O   0  0  0  0  0  0  0  0  0  0  0  0
   -5.5775    1.3964   -0.1358 C   0  0  2  0  0  0  0  0  0  0  0  0
   -5.9924    1.0697    1.2587 C   0  0  1  0  0  0  0  0  0  0  0  0
   -4.8134    0.3152    1.8003 C   0  0  2  0  0  0  0  0  0  0  0  0
   -4.5994    0.7720    3.1212 O   0  0  0  0  0  0  0  0  0  0  0  0
   -6.1897    2.2582    1.9911 O   0  0  0  0  0  0  0  0  0  0  0  0
   -6.2821    0.6408   -1.1490 N   0  0  0  0  0  0  0  0  0  0  0  0
   -6.2831   -0.7125   -1.1293 C   0  0  0  0  0  0  0  0  0  0  0  0
   -6.9425   -1.4710   -2.0768 C   0  0  0  0  0  0  0  0  0  0  0  0
   -7.6313   -0.8191   -3.0889 C   0  0  0  0  0  0  0  0  0  0  0  0
   -8.2413   -1.4783   -3.9660 O   0  0  0  0  0  0  0  0  0  0  0  0
   -7.6231    0.5307   -3.0980 N   0  0  0  0  0  0  0  0  0  0  0  0
   -6.9685    1.2159   -2.1565 C   0  0  0  0  0  0  0  0  0  0  0  0
   -6.9645    2.4938   -2.1705 O   0  0  0  0  0  0  0  0  0  0  0  0
   -2.1230   -3.7140    0.7668 O   0  0  0  0  0  0  0  0  0  0  0  0
    0.7605   -0.2603    1.8186 O   0  0  0  0  0  0  0  0  0  0  0  0
    5.2444   -1.8832    0.2383 O   0  0  0  0  0  0  0  0  0  0  0  0
    4.4040    1.5151    0.9219 O   0  0  0  0  0  0  0  0  0  0  0  0
    8.7569   -0.5976    0.9023 O   0  0  0  0  0  0  0  0  0  0  0  0
    9.3088    2.8803   -0.9956 H   0  0  0  0  0  0  0  0  0  0  0  0
    9.6841    1.8942    0.8704 H   0  0  0  0  0  0  0  0  0  0  0  0
   10.8386    0.7444    0.0823 H   0  0  0  0  0  0  0  0  0  0  0  0
    8.9760   -0.3336   -1.1280 H   0  0  0  0  0  0  0  0  0  0  0  0
    7.3056    1.4950    0.6565 H   0  0  0  0  0  0  0  0  0  0  0  0
    7.5214    1.6861   -1.1469 H   0  0  0  0  0  0  0  0  0  0  0  0
   -1.9216   -0.0710   -0.0622 H   0  0  0  0  0  0  0  0  0  0  0  0
   -3.3304   -1.1683   -0.1092 H   0  0  0  0  0  0  0  0  0  0  0  0
   -3.0589    1.4427    1.4543 H   0  0  0  0  0  0  0  0  0  0  0  0
   -5.8211    2.4789   -0.3350 H   0  0  0  0  0  0  0  0  0  0  0  0
   -6.9286    0.4742    1.3136 H   0  0  0  0  0  0  0  0  0  0  0  0
   -4.9719   -0.7759    1.9011 H   0  0  0  0  0  0  0  0  0  0  0  0
   -5.2894    0.3202    3.6936 H   0  0  0  0  0  0  0  0  0  0  0  0
   -5.9189    2.1683    2.9392 H   0  0  0  0  0  0  0  0  0  0  0  0
   -5.7511   -1.2755   -0.3467 H   0  0  0  0  0  0  0  0  0  0  0  0
   -6.9133   -2.5502   -2.0174 H   0  0  0  0  0  0  0  0  0  0  0  0
   -8.1407    1.0301   -3.8588 H   0  0  0  0  0  0  0  0  0  0  0  0
   -1.7501   -4.1637   -0.0152 H   0  0  0  0  0  0  0  0  0  0  0  0
    1.6210    0.0279    2.2053 H   0  0  0  0  0  0  0  0  0  0  0  0
    5.2116   -2.1735    1.1684 H   0  0  0  0  0  0  0  0  0  0  0  0
    4.2039    2.4833    0.8557 H   0  0  0  0  0  0  0  0  0  0  0  0
    8.6678   -1.5473    0.6312 H   0  0  0  0  0  0  0  0  0  0  0  0
  1  2  1  0
  2  3  1  0
  3  4  1  0
  4  5  1  0
  5  6  1  0
  6  7  2  0
  6  8  1  0
  8  9  1  0
  9 10  2  0
  9 11  1  0
 11 12  1  0
 12 13  2  0
 12 14  1  0
 14 15  1  0
 15 16  2  0
 15 17  1  0
 17 18  1  0
 18 19  1  0
 19 20  1  0
 20 21  1  0
 21 22  1  0
 22 23  1  0
 23 24  1  0
 22 25  1  0
 21 26  1  0
 26 27  1  0
 27 28  2  0
 28 29  1  0
 29 30  2  0
 29 31  1  0
 31 32  1  0
 32 33  2  0
 15 34  1  0
 12 35  1  0
  9 36  1  0
  6 37  1  0
  3 38  1  0
 23 19  1  0
 32 26  1  0
  1 39  1  0
  2 40  1  0
  2 41  1  0
  3 42  1  0
  4 43  1  0
  4 44  1  0
 18 45  1  0
 18 46  1  0
 19 47  1  1
 21 48  1  6
 22 49  1  6
 23 50  1  1
 24 51  1  0
 25 52  1  0
 27 53  1  0
 28 54  1  0
 31 55  1  0
 34 56  1  0
 35 57  1  0
 36 58  1  0
 37 59  1  0
 38 60  1  0
M  END
>  <Ligand ID>  (1) 
LIG0002830

>  <Ligand>  (1) 
CHEMBL482895

>  <SMILES>  (1) 
OCC(COP(=O)(OP(=O)(OP(=O)(OP(=O)(OC[C@H]1O[C@H]([C@@H]([C@@H]1O)O)n1ccc(=O)[nH]c1=O)O)O)O)O)O

>  <CID>  (1) 
44586045.0

>  <ChEMBL ID>  (1) 
nan

>  <InChiKey>  (1) 
OSWBYGPIMIOTRO-JANFQQFMSA-N

>  <InChi>  (1) 
InChI=1S/C12H22N2O20P4/c15-3-6(16)4-29-35(21,22)32-37(25,26)34-38(27,28)33-36(23,24)30-5-7-9(18)10(19)11(31-7)14-2-1-8(17)13-12(14)20/h1-2,6-7,9-11,15-16,18-19H,3-5H2,(H,21,22)(H,23,24)(H,25,26)(H,27,28)(H,13,17,20)/t6?,7-,9-,10-,11-/m1/s1

>  <IUPAC Name>  (1) 
[2,3-dihydroxypropoxy(hydroxy)phosphoryl] [[[(2R,3S,4R,5R)-5-(2,4-dioxopyrimidin-1-yl)-3,4-dihydroxyoxolan-2-yl]methoxy-hydroxyphosphoryl]oxy-hydroxyphosphoryl] hydrogen phosphate

$$$$
