
     RDKit          3D

105109  0  0  0  0  0  0  0  0999 V2000
   -4.0121    6.9290    1.3988 N   0  0  0  0  0  0  0  0  0  0  0  0
   -3.8454    6.1897    0.1667 C   0  0  0  0  0  0  0  0  0  0  0  0
   -3.9732    4.8982    0.1403 N   0  0  0  0  0  0  0  0  0  0  0  0
   -3.8077    4.1357   -1.0840 C   0  0  0  0  0  0  0  0  0  0  0  0
   -2.9709    2.8922   -0.8344 C   0  0  0  0  0  0  0  0  0  0  0  0
   -3.6231    1.9471    0.1209 C   0  0  0  0  0  0  0  0  0  0  0  0
   -2.7967    0.7600    0.4492 C   0  0  1  0  0  0  0  0  0  0  0  0
   -2.3969   -0.0662   -0.7130 C   0  0  0  0  0  0  0  0  0  0  0  0
   -1.3260   -0.6693   -0.8723 O   0  0  0  0  0  0  0  0  0  0  0  0
   -3.3488   -0.2136   -1.8134 N   0  0  0  0  0  0  0  0  0  0  0  0
   -3.0046   -1.0428   -2.9314 C   0  0  2  0  0  0  0  0  0  0  0  0
   -2.3766   -0.2934   -4.0658 C   0  0  0  0  0  0  0  0  0  0  0  0
   -2.0993   -0.9836   -5.0825 O   0  0  0  0  0  0  0  0  0  0  0  0
   -2.0766    1.0703   -4.0951 N   0  0  0  0  0  0  0  0  0  0  0  0
   -4.1611   -1.8547   -3.4279 C   0  0  0  0  0  0  0  0  0  0  0  0
   -4.7777   -2.7677   -2.4697 C   0  0  0  0  0  0  0  0  0  0  0  0
   -5.9947   -2.4643   -1.8327 C   0  0  0  0  0  0  0  0  0  0  0  0
   -6.3403   -3.4607   -1.0034 N   0  0  0  0  0  0  0  0  0  0  0  0
   -5.3997   -4.4313   -1.0550 C   0  0  0  0  0  0  0  0  0  0  0  0
   -4.4318   -3.9930   -1.9692 C   0  0  0  0  0  0  0  0  0  0  0  0
   -3.3506   -4.8005   -2.2210 C   0  0  0  0  0  0  0  0  0  0  0  0
   -3.2073   -6.0369   -1.5837 C   0  0  0  0  0  0  0  0  0  0  0  0
   -4.1772   -6.4627   -0.6761 C   0  0  0  0  0  0  0  0  0  0  0  0
   -5.2628   -5.6658   -0.4156 C   0  0  0  0  0  0  0  0  0  0  0  0
   -1.8059    0.9957    1.4450 N   0  0  0  0  0  0  0  0  0  0  0  0
   -0.8455    0.1425    1.9905 C   0  0  0  0  0  0  0  0  0  0  0  0
   -0.7602   -1.0436    1.5667 O   0  0  0  0  0  0  0  0  0  0  0  0
    0.0837    0.5495    3.0457 C   0  0  1  0  0  0  0  0  0  0  0  0
    1.1715   -0.4359    3.1145 N   0  0  0  0  0  0  0  0  0  0  0  0
    2.0475   -0.6224    2.0106 C   0  0  0  0  0  0  0  0  0  0  0  0
    1.8616    0.0784    0.9494 O   0  0  0  0  0  0  0  0  0  0  0  0
    3.1797   -1.5618    1.9606 C   0  0  1  0  0  0  0  0  0  0  0  0
    3.9439   -1.4308    0.7407 N   0  0  0  0  0  0  0  0  0  0  0  0
    3.9639   -2.4107   -0.2941 C   0  0  0  0  0  0  0  0  0  0  0  0
    3.2814   -3.4281   -0.1445 O   0  0  0  0  0  0  0  0  0  0  0  0
    4.7361   -2.2187   -1.4446 N   0  0  0  0  0  0  0  0  0  0  0  0
    4.8645   -3.0792   -2.5566 C   0  0  0  0  0  0  0  0  0  0  0  0
    4.2075   -4.2808   -2.7129 C   0  0  0  0  0  0  0  0  0  0  0  0
    4.3670   -5.0848   -3.8279 C   0  0  0  0  0  0  0  0  0  0  0  0
    5.2132   -4.7012   -4.8493 C   0  0  0  0  0  0  0  0  0  0  0  0
    5.8822   -3.5025   -4.7148 C   0  0  0  0  0  0  0  0  0  0  0  0
    5.7077   -2.7162   -3.5955 C   0  0  0  0  0  0  0  0  0  0  0  0
    3.9483   -1.6843    3.2105 C   0  0  0  0  0  0  0  0  0  0  0  0
    4.5745   -0.4778    3.7635 C   0  0  0  0  0  0  0  0  0  0  0  0
    3.9692    0.2624    4.7903 C   0  0  0  0  0  0  0  0  0  0  0  0
    4.5572    1.4145    5.2906 C   0  0  0  0  0  0  0  0  0  0  0  0
    5.7658    1.8910    4.8054 C   0  0  0  0  0  0  0  0  0  0  0  0
    6.3630    1.1696    3.8001 C   0  0  0  0  0  0  0  0  0  0  0  0
    5.7668    0.0103    3.3001 C   0  0  0  0  0  0  0  0  0  0  0  0
    6.4835    3.3427    5.4520 Cl  0  0  0  0  0  0  0  0  0  0  0  0
    0.4251    1.9358    3.2930 C   0  0  0  0  0  0  0  0  0  0  0  0
    1.0656    2.8249    2.3521 C   0  0  0  0  0  0  0  0  0  0  0  0
    0.4593    3.7074    1.4801 C   0  0  0  0  0  0  0  0  0  0  0  0
    1.1753    4.5423    0.6337 C   0  0  0  0  0  0  0  0  0  0  0  0
    2.5351    4.5362    0.6172 C   0  0  0  0  0  0  0  0  0  0  0  0
    3.1845    3.6620    1.4806 C   0  0  0  0  0  0  0  0  0  0  0  0
    2.4691    2.8405    2.3134 C   0  0  0  0  0  0  0  0  0  0  0  0
   -3.5499    6.9355   -1.0171 N   0  0  0  0  0  0  0  0  0  0  0  0
   -4.5525    6.5222    2.1861 H   0  0  0  0  0  0  0  0  0  0  0  0
   -3.5671    7.8847    1.4653 H   0  0  0  0  0  0  0  0  0  0  0  0
   -4.8301    3.8089   -1.4145 H   0  0  0  0  0  0  0  0  0  0  0  0
   -3.4080    4.7450   -1.9090 H   0  0  0  0  0  0  0  0  0  0  0  0
   -1.9982    3.2285   -0.4282 H   0  0  0  0  0  0  0  0  0  0  0  0
   -2.7530    2.3736   -1.7965 H   0  0  0  0  0  0  0  0  0  0  0  0
   -4.5943    1.6257   -0.2912 H   0  0  0  0  0  0  0  0  0  0  0  0
   -3.8968    2.5158    1.0665 H   0  0  0  0  0  0  0  0  0  0  0  0
   -3.5209    0.0088    1.0015 H   0  0  0  0  0  0  0  0  0  0  0  0
   -4.2763    0.2900   -1.7718 H   0  0  0  0  0  0  0  0  0  0  0  0
   -2.1796   -1.7605   -2.6287 H   0  0  0  0  0  0  0  0  0  0  0  0
   -1.2902    1.3837   -3.4323 H   0  0  0  0  0  0  0  0  0  0  0  0
   -2.5202    1.8044   -4.6813 H   0  0  0  0  0  0  0  0  0  0  0  0
   -4.9204   -1.1198   -3.8241 H   0  0  0  0  0  0  0  0  0  0  0  0
   -3.8611   -2.4631   -4.3184 H   0  0  0  0  0  0  0  0  0  0  0  0
   -6.5936   -1.5779   -1.9599 H   0  0  0  0  0  0  0  0  0  0  0  0
   -7.1857   -3.5466   -0.3841 H   0  0  0  0  0  0  0  0  0  0  0  0
   -2.6083   -4.4442   -2.9371 H   0  0  0  0  0  0  0  0  0  0  0  0
   -2.3602   -6.6744   -1.7776 H   0  0  0  0  0  0  0  0  0  0  0  0
   -4.1183   -7.4059   -0.1545 H   0  0  0  0  0  0  0  0  0  0  0  0
   -6.0625   -5.9369    0.2822 H   0  0  0  0  0  0  0  0  0  0  0  0
   -1.8146    1.9829    1.8669 H   0  0  0  0  0  0  0  0  0  0  0  0
   -0.5092    0.2490    4.0296 H   0  0  0  0  0  0  0  0  0  0  0  0
    1.3443   -1.0389    3.9470 H   0  0  0  0  0  0  0  0  0  0  0  0
    2.6716   -2.5837    1.8379 H   0  0  0  0  0  0  0  0  0  0  0  0
    4.5143   -0.5436    0.6367 H   0  0  0  0  0  0  0  0  0  0  0  0
    5.2896   -1.3031   -1.4742 H   0  0  0  0  0  0  0  0  0  0  0  0
    3.5301   -4.6571   -1.9627 H   0  0  0  0  0  0  0  0  0  0  0  0
    3.8498   -6.0157   -3.9401 H   0  0  0  0  0  0  0  0  0  0  0  0
    5.3302   -5.3359   -5.7178 H   0  0  0  0  0  0  0  0  0  0  0  0
    6.5694   -3.1444   -5.4949 H   0  0  0  0  0  0  0  0  0  0  0  0
    6.2803   -1.7736   -3.5723 H   0  0  0  0  0  0  0  0  0  0  0  0
    4.6948   -2.5366    3.1261 H   0  0  0  0  0  0  0  0  0  0  0  0
    3.2415   -2.0666    3.9978 H   0  0  0  0  0  0  0  0  0  0  0  0
    3.0179   -0.0538    5.2270 H   0  0  0  0  0  0  0  0  0  0  0  0
    4.1031    1.9948    6.0803 H   0  0  0  0  0  0  0  0  0  0  0  0
    7.3160    1.5025    3.3867 H   0  0  0  0  0  0  0  0  0  0  0  0
    6.2435   -0.5573    2.5025 H   0  0  0  0  0  0  0  0  0  0  0  0
    1.0177    1.9417    4.2842 H   0  0  0  0  0  0  0  0  0  0  0  0
   -0.5538    2.4255    3.6889 H   0  0  0  0  0  0  0  0  0  0  0  0
   -0.6127    3.8065    1.4260 H   0  0  0  0  0  0  0  0  0  0  0  0
    0.6467    5.2323   -0.0446 H   0  0  0  0  0  0  0  0  0  0  0  0
    3.0782    5.1941   -0.0442 H   0  0  0  0  0  0  0  0  0  0  0  0
    4.2881    3.6459    1.4782 H   0  0  0  0  0  0  0  0  0  0  0  0
    3.0216    2.1864    2.9553 H   0  0  0  0  0  0  0  0  0  0  0  0
   -2.5773    7.1293   -1.3485 H   0  0  0  0  0  0  0  0  0  0  0  0
   -4.4143    7.2790   -1.5434 H   0  0  0  0  0  0  0  0  0  0  0  0
  1  2  1  0
  2  3  2  3
  3  4  1  0
  4  5  1  0
  5  6  1  0
  6  7  1  0
  7  8  1  0
  8  9  2  0
  8 10  1  0
 10 11  1  0
 11 12  1  0
 12 13  2  0
 12 14  1  0
 11 15  1  0
 15 16  1  0
 16 17  2  0
 17 18  1  0
 18 19  1  0
 19 20  2  0
 20 21  1  0
 21 22  2  0
 22 23  1  0
 23 24  2  0
  7 25  1  0
 25 26  1  0
 26 27  2  0
 26 28  1  0
 28 29  1  0
 29 30  1  0
 30 31  2  0
 30 32  1  0
 32 33  1  0
 33 34  1  0
 34 35  2  0
 34 36  1  0
 36 37  1  0
 37 38  2  0
 38 39  1  0
 39 40  2  0
 40 41  1  0
 41 42  2  0
 32 43  1  0
 43 44  1  0
 44 45  2  0
 45 46  1  0
 46 47  2  0
 47 48  1  0
 48 49  2  0
 47 50  1  0
 28 51  1  0
 51 52  1  0
 52 53  2  0
 53 54  1  0
 54 55  2  0
 55 56  1  0
 56 57  2  0
  2 58  1  0
 20 16  1  0
 42 37  1  0
 49 44  1  0
 57 52  1  0
 24 19  1  0
  1 59  1  0
  1 60  1  0
  4 61  1  0
  4 62  1  0
  5 63  1  0
  5 64  1  0
  6 65  1  0
  6 66  1  0
  7 67  1  1
 10 68  1  0
 11 69  1  1
 14 70  1  0
 14 71  1  0
 15 72  1  0
 15 73  1  0
 17 74  1  0
 18 75  1  0
 21 76  1  0
 22 77  1  0
 23 78  1  0
 24 79  1  0
 25 80  1  0
 28 81  1  1
 29 82  1  0
 32 83  1  6
 33 84  1  0
 36 85  1  0
 38 86  1  0
 39 87  1  0
 40 88  1  0
 41 89  1  0
 42 90  1  0
 43 91  1  0
 43 92  1  0
 45 93  1  0
 46 94  1  0
 48 95  1  0
 49 96  1  0
 51 97  1  0
 51 98  1  0
 53 99  1  0
 54100  1  0
 55101  1  0
 56102  1  0
 57103  1  0
 58104  1  0
 58105  1  0
M  END
>  <Ligand ID>  (1) 
LIG0002634

>  <Ligand>  (1) 
CHEMBL359765

>  <SMILES>  (1) 
NC(=NCCC[C@@H](C(=O)N[C@H](C(=O)N)Cc1c[nH]c2c1cccc2)NC(=O)[C@@H](NC(=O)[C@@H](NC(=O)Nc1ccccc1)Cc1ccc(cc1)Cl)Cc1ccccc1)N

>  <CID>  (1) 
44394788.0

>  <ChEMBL ID>  (1) 
nan

>  <InChiKey>  (1) 
XZLZWFITKUILCL-ZYADHFCISA-N

>  <InChi>  (1) 
InChI=1S/C42H47ClN10O5/c43-29-19-17-27(18-20-29)23-36(53-42(58)49-30-12-5-2-6-13-30)40(57)52-35(22-26-10-3-1-4-11-26)39(56)50-33(16-9-21-47-41(45)46)38(55)51-34(37(44)54)24-28-25-48-32-15-8-7-14-31(28)32/h1-8,10-15,17-20,25,33-36,48H,9,16,21-24H2,(H2,44,54)(H,50,56)(H,51,55)(H,52,57)(H4,45,46,47)(H2,49,53,58)/t33-,34-,35-,36-/m0/s1

>  <IUPAC Name>  (1) 
(2S)-N-[(2S)-1-amino-3-(1H-indol-3-yl)-1-oxopropan-2-yl]-2-[[(2S)-2-[[(2S)-3-(4-chlorophenyl)-2-(phenylcarbamoylamino)propanoyl]amino]-3-phenylpropanoyl]amino]-5-(diaminomethylideneamino)pentanamide

$$$$
