
     RDKit          3D

 20 20  0  0  0  0  0  0  0  0999 V2000
    2.9750    0.3150   -0.6429 C   0  0  0  0  0  0  0  0  0  0  0  0
    1.9137   -0.7157   -0.2501 C   0  0  0  0  0  0  0  0  0  0  0  0
    1.0768   -0.0854    0.8017 C   0  0  0  0  0  0  0  0  0  0  0  0
    1.6910    0.3873    1.8056 O   0  0  0  0  0  0  0  0  0  0  0  0
   -0.3752   -0.0059    0.6974 C   0  0  0  0  0  0  0  0  0  0  0  0
   -1.2045    0.5104    1.5388 N   0  0  0  0  0  0  0  0  0  0  0  0
   -2.5695    0.3915    1.0565 C   0  0  0  0  0  0  0  0  0  0  0  0
   -2.3186    0.4453   -0.4421 C   0  0  0  0  0  0  0  0  0  0  0  0
   -1.1261   -0.5294   -0.4754 C   0  0  0  0  0  0  0  0  0  0  0  0
    3.3944    0.8110    0.2347 H   0  0  0  0  0  0  0  0  0  0  0  0
    2.4098    1.0879   -1.2429 H   0  0  0  0  0  0  0  0  0  0  0  0
    3.7078   -0.1669   -1.3086 H   0  0  0  0  0  0  0  0  0  0  0  0
    1.3424   -0.9695   -1.1661 H   0  0  0  0  0  0  0  0  0  0  0  0
    2.4273   -1.6262    0.1468 H   0  0  0  0  0  0  0  0  0  0  0  0
   -2.9223   -0.6157    1.3070 H   0  0  0  0  0  0  0  0  0  0  0  0
   -3.2096    1.2273    1.3938 H   0  0  0  0  0  0  0  0  0  0  0  0
   -1.9293    1.4419   -0.7390 H   0  0  0  0  0  0  0  0  0  0  0  0
   -3.1465    0.0950   -1.0477 H   0  0  0  0  0  0  0  0  0  0  0  0
   -0.5758   -0.4588   -1.4127 H   0  0  0  0  0  0  0  0  0  0  0  0
   -1.5609   -1.5391   -0.2550 H   0  0  0  0  0  0  0  0  0  0  0  0
  1  2  1  0
  2  3  1  0
  3  4  2  0
  3  5  1  0
  5  6  2  0
  6  7  1  0
  7  8  1  0
  8  9  1  0
  9  5  1  0
  1 10  1  0
  1 11  1  0
  1 12  1  0
  2 13  1  0
  2 14  1  0
  7 15  1  0
  7 16  1  0
  8 17  1  0
  8 18  1  0
  9 19  1  0
  9 20  1  0
M  END
>  <Ligand ID>  (1) 
LIG0000613

>  <Ligand>  (1) 
2-Propionyl-1-pyrroline

>  <SMILES>  (1) 
CCC(=O)C1=NCCC1

>  <CID>  (1) 
529251.0

>  <ChEMBL ID>  (1) 
nan

>  <InChiKey>  (1) 
OVNCGQSYSSYBPO-UHFFFAOYSA-N

>  <InChi>  (1) 
InChI=1S/C7H11NO/c1-2-7(9)6-4-3-5-8-6/h2-5H2,1H3

>  <IUPAC Name>  (1) 
1-(3,4-dihydro-2H-pyrrol-5-yl)propan-1-one

$$$$
