
     RDKit          3D

 48 51  0  0  0  0  0  0  0  0999 V2000
   -9.0915   -1.6151    0.6422 F   0  0  0  0  0  0  0  0  0  0  0  0
   -7.8776   -1.0887    0.3086 C   0  0  0  0  0  0  0  0  0  0  0  0
   -6.9478   -1.9576   -0.1975 C   0  0  0  0  0  0  0  0  0  0  0  0
   -5.7038   -1.4771   -0.5511 C   0  0  0  0  0  0  0  0  0  0  0  0
   -5.3568   -0.1350   -0.4119 C   0  0  0  0  0  0  0  0  0  0  0  0
   -6.3064    0.7312    0.1008 C   0  0  0  0  0  0  0  0  0  0  0  0
   -7.5497    0.2238    0.4488 C   0  0  0  0  0  0  0  0  0  0  0  0
   -4.0215    0.3157   -0.8041 C   0  0  0  0  0  0  0  0  0  0  0  0
   -3.0186    0.2564    0.2831 C   0  0  0  0  0  0  0  0  0  0  0  0
   -3.2885   -0.1485    1.4524 O   0  0  0  0  0  0  0  0  0  0  0  0
   -1.6949    0.6822   -0.0327 N   0  0  0  0  0  0  0  0  0  0  0  0
   -1.3088    1.1578   -1.3455 C   0  0  0  0  0  0  0  0  0  0  0  0
    0.0629    0.5242   -1.6097 C   0  0  0  0  0  0  0  0  0  0  0  0
    1.0612    1.2487   -0.7584 C   0  0  0  0  0  0  0  0  0  0  0  0
    0.5329    1.4627    0.6216 C   0  0  0  0  0  0  0  0  0  0  0  0
   -0.6632    0.6500    0.9856 C   0  0  0  0  0  0  0  0  0  0  0  0
    2.3045    0.4890   -0.7899 N   0  0  0  0  0  0  0  0  0  0  0  0
    3.3978    0.6748   -0.0400 N   0  0  0  0  0  0  0  0  0  0  0  0
    4.3378   -0.2307   -0.3653 C   0  0  0  0  0  0  0  0  0  0  0  0
    3.8270   -0.9794   -1.3184 O   0  0  0  0  0  0  0  0  0  0  0  0
    2.6111   -0.5534   -1.5763 C   0  0  0  0  0  0  0  0  0  0  0  0
    1.8833   -1.0892   -2.4508 O   0  0  0  0  0  0  0  0  0  0  0  0
    5.6786   -0.4116    0.1821 C   0  0  0  0  0  0  0  0  0  0  0  0
    6.4436   -1.4398   -0.3478 C   0  0  0  0  0  0  0  0  0  0  0  0
    7.7326   -1.6737    0.1238 C   0  0  0  0  0  0  0  0  0  0  0  0
    8.1954   -0.8553    1.1148 C   0  0  0  0  0  0  0  0  0  0  0  0
    7.4370    0.1809    1.6556 C   0  0  0  0  0  0  0  0  0  0  0  0
    6.1571    0.4068    1.1815 C   0  0  0  0  0  0  0  0  0  0  0  0
   -7.1799   -3.0206   -0.3231 H   0  0  0  0  0  0  0  0  0  0  0  0
   -4.9322   -2.1442   -0.9604 H   0  0  0  0  0  0  0  0  0  0  0  0
   -6.1095    1.7646    0.2333 H   0  0  0  0  0  0  0  0  0  0  0  0
   -8.3135    0.8912    0.8553 H   0  0  0  0  0  0  0  0  0  0  0  0
   -4.0548    1.3059   -1.2984 H   0  0  0  0  0  0  0  0  0  0  0  0
   -3.6553   -0.3869   -1.6089 H   0  0  0  0  0  0  0  0  0  0  0  0
   -1.2653    2.2641   -1.4172 H   0  0  0  0  0  0  0  0  0  0  0  0
   -2.0441    0.7742   -2.0756 H   0  0  0  0  0  0  0  0  0  0  0  0
   -0.0684   -0.5385   -1.2883 H   0  0  0  0  0  0  0  0  0  0  0  0
    0.2720    0.6001   -2.6905 H   0  0  0  0  0  0  0  0  0  0  0  0
    1.2834    2.2165   -1.2644 H   0  0  0  0  0  0  0  0  0  0  0  0
    1.3313    1.2102    1.3780 H   0  0  0  0  0  0  0  0  0  0  0  0
    0.3760    2.5663    0.7709 H   0  0  0  0  0  0  0  0  0  0  0  0
   -1.1235    1.1259    1.8881 H   0  0  0  0  0  0  0  0  0  0  0  0
   -0.3665   -0.3926    1.1545 H   0  0  0  0  0  0  0  0  0  0  0  0
    6.0929   -2.0959   -1.1315 H   0  0  0  0  0  0  0  0  0  0  0  0
    8.3468   -2.4704   -0.2755 H   0  0  0  0  0  0  0  0  0  0  0  0
    9.1932   -1.0321    1.4838 H   0  0  0  0  0  0  0  0  0  0  0  0
    7.8465    0.8141    2.4497 H   0  0  0  0  0  0  0  0  0  0  0  0
    5.5372    1.1991    1.5737 H   0  0  0  0  0  0  0  0  0  0  0  0
  1  2  1  0
  2  3  2  0
  3  4  1  0
  4  5  2  0
  5  6  1  0
  6  7  2  0
  5  8  1  0
  8  9  1  0
  9 10  2  0
  9 11  1  0
 11 12  1  0
 12 13  1  0
 13 14  1  0
 14 15  1  0
 15 16  1  0
 14 17  1  0
 17 18  1  0
 18 19  2  0
 19 20  1  0
 20 21  1  0
 21 22  2  0
 19 23  1  0
 23 24  2  0
 24 25  1  0
 25 26  2  0
 26 27  1  0
 27 28  2  0
  7  2  1  0
 16 11  1  0
 21 17  1  0
 28 23  1  0
  3 29  1  0
  4 30  1  0
  6 31  1  0
  7 32  1  0
  8 33  1  0
  8 34  1  0
 12 35  1  0
 12 36  1  0
 13 37  1  0
 13 38  1  0
 14 39  1  0
 15 40  1  0
 15 41  1  0
 16 42  1  0
 16 43  1  0
 24 44  1  0
 25 45  1  0
 26 46  1  0
 27 47  1  0
 28 48  1  0
M  END
>  <Ligand ID>  (1) 
LIG0003143

>  <Ligand>  (1) 
MLS-0437152.0001

>  <SMILES>  (1) 
Fc1ccc(cc1)CC(=O)N1CCC(CC1)n1nc(oc1=O)c1ccccc1

>  <CID>  (1) 
23612544.0

>  <ChEMBL ID>  (1) 
nan

>  <InChiKey>  (1) 
DUVOCISEPNTRPD-UHFFFAOYSA-N

>  <InChi>  (1) 
InChI=1S/C21H20FN3O3/c22-17-8-6-15(7-9-17)14-19(26)24-12-10-18(11-13-24)25-21(27)28-20(23-25)16-4-2-1-3-5-16/h1-9,18H,10-14H2

>  <IUPAC Name>  (1) 
3-[1-[2-(4-fluorophenyl)acetyl]piperidin-4-yl]-5-phenyl-1,3,4-oxadiazol-2-one

$$$$
