
     RDKit          3D

 18 17  0  0  0  0  0  0  0  0999 V2000
   -2.4018    0.9113    0.7325 C   0  0  0  0  0  0  0  0  0  0  0  0
   -1.9562    0.3574   -0.5784 C   0  0  0  0  0  0  0  0  0  0  0  0
   -0.6409   -0.2886   -0.6111 C   0  0  0  0  0  0  0  0  0  0  0  0
    0.1985   -0.4565    0.3896 C   0  0  0  0  0  0  0  0  0  0  0  0
    1.4889   -1.1464    0.0940 C   0  0  0  0  0  0  0  0  0  0  0  0
    2.6727   -0.3077    0.3871 C   0  0  0  0  0  0  0  0  0  0  0  0
    3.4827   -0.5895    1.3471 O   0  0  0  0  0  0  0  0  0  0  0  0
    2.9243    0.8312   -0.3923 O   0  0  0  0  0  0  0  0  0  0  0  0
   -1.6588    0.8455    1.5249 H   0  0  0  0  0  0  0  0  0  0  0  0
   -3.3830    0.4392    1.0508 H   0  0  0  0  0  0  0  0  0  0  0  0
   -2.6994    1.9972    0.5457 H   0  0  0  0  0  0  0  0  0  0  0  0
   -2.0270    1.1402   -1.3864 H   0  0  0  0  0  0  0  0  0  0  0  0
   -2.6894   -0.4460   -0.8879 H   0  0  0  0  0  0  0  0  0  0  0  0
   -0.3289   -0.6780   -1.6028 H   0  0  0  0  0  0  0  0  0  0  0  0
    0.0034   -0.1258    1.3892 H   0  0  0  0  0  0  0  0  0  0  0  0
    1.5789   -2.0584    0.7330 H   0  0  0  0  0  0  0  0  0  0  0  0
    1.5385   -1.4862   -0.9501 H   0  0  0  0  0  0  0  0  0  0  0  0
    3.8973    1.0612   -0.6099 H   0  0  0  0  0  0  0  0  0  0  0  0
  1  2  1  0
  2  3  1  0
  3  4  2  0
  4  5  1  0
  5  6  1  0
  6  7  2  0
  6  8  1  0
  1  9  1  0
  1 10  1  0
  1 11  1  0
  2 12  1  0
  2 13  1  0
  3 14  1  0
  4 15  1  0
  5 16  1  0
  5 17  1  0
  8 18  1  0
M  END
>  <Ligand ID>  (1) 
LIG0001027

>  <Ligand>  (1) 
(E)-hex-3-enoic acid

>  <SMILES>  (1) 
CC/C=C/CC(=O)O

>  <CID>  (1) 
5282708.0

>  <ChEMBL ID>  (1) 
nan

>  <InChiKey>  (1) 
XXHDAWYDNSXJQM-ONEGZZNKSA-N

>  <InChi>  (1) 
InChI=1S/C6H10O2/c1-2-3-4-5-6(7)8/h3-4H,2,5H2,1H3,(H,7,8)/b4-3+

>  <IUPAC Name>  (1) 
(E)-hex-3-enoic acid

$$$$
