
     RDKit          3D

 35 36  0  0  0  0  0  0  0  0999 V2000
    2.0350    2.7133   -0.1756 C   0  0  0  0  0  0  0  0  0  0  0  0
    2.6795    1.6551   -0.6451 C   0  0  0  0  0  0  0  0  0  0  0  0
    2.0442    0.7213   -1.6402 C   0  0  0  0  0  0  0  0  0  0  0  0
    1.9924   -0.6371   -1.0356 C   0  0  0  0  0  0  0  0  0  0  0  0
    2.9279   -1.5737   -1.4705 C   0  0  0  0  0  0  0  0  0  0  0  0
    2.9718   -2.8592   -0.9746 C   0  0  0  0  0  0  0  0  0  0  0  0
    2.0535   -3.2078   -0.0206 C   0  0  0  0  0  0  0  0  0  0  0  0
    1.1252   -2.2732    0.4085 C   0  0  0  0  0  0  0  0  0  0  0  0
    1.0666   -0.9884   -0.0740 C   0  0  0  0  0  0  0  0  0  0  0  0
    0.1589   -0.0337    0.3285 O   0  0  0  0  0  0  0  0  0  0  0  0
   -0.8455   -0.1758    1.2792 C   0  0  2  0  0  0  0  0  0  0  0  0
   -2.2027    0.0779    0.6794 C   0  0  0  0  0  0  0  0  0  0  0  0
   -3.1796   -0.7538    0.6278 N   0  0  0  0  0  0  0  0  0  0  0  0
   -4.3071   -0.1688   -0.0104 C   0  0  0  0  0  0  0  0  0  0  0  0
   -3.7745    1.1047   -0.6158 C   0  0  0  0  0  0  0  0  0  0  0  0
   -2.5441    1.3169    0.0860 N   0  0  0  0  0  0  0  0  0  0  0  0
   -0.5922    0.8378    2.3923 C   0  0  0  0  0  0  0  0  0  0  0  0
    1.0428    2.9567   -0.4747 H   0  0  0  0  0  0  0  0  0  0  0  0
    2.5297    3.3543    0.5365 H   0  0  0  0  0  0  0  0  0  0  0  0
    3.6997    1.4302   -0.3183 H   0  0  0  0  0  0  0  0  0  0  0  0
    1.0283    1.0988   -1.8859 H   0  0  0  0  0  0  0  0  0  0  0  0
    2.6384    0.7125   -2.5601 H   0  0  0  0  0  0  0  0  0  0  0  0
    3.6615   -1.3227   -2.2217 H   0  0  0  0  0  0  0  0  0  0  0  0
    3.6822   -3.5969   -1.2936 H   0  0  0  0  0  0  0  0  0  0  0  0
    2.0663   -4.2146    0.3875 H   0  0  0  0  0  0  0  0  0  0  0  0
    0.4296   -2.6016    1.1581 H   0  0  0  0  0  0  0  0  0  0  0  0
   -0.8521   -1.1619    1.7373 H   0  0  0  0  0  0  0  0  0  0  0  0
   -4.7123   -0.8334   -0.8035 H   0  0  0  0  0  0  0  0  0  0  0  0
   -5.1014    0.0957    0.7183 H   0  0  0  0  0  0  0  0  0  0  0  0
   -3.6364    0.9647   -1.7036 H   0  0  0  0  0  0  0  0  0  0  0  0
   -4.4981    1.9543   -0.4699 H   0  0  0  0  0  0  0  0  0  0  0  0
   -2.0174    2.2125    0.1391 H   0  0  0  0  0  0  0  0  0  0  0  0
   -0.8039    1.8634    2.0059 H   0  0  0  0  0  0  0  0  0  0  0  0
    0.4809    0.7443    2.6586 H   0  0  0  0  0  0  0  0  0  0  0  0
   -1.2469    0.5882    3.2508 H   0  0  0  0  0  0  0  0  0  0  0  0
  1  2  2  0
  2  3  1  0
  3  4  1  0
  4  5  2  0
  5  6  1  0
  6  7  2  0
  7  8  1  0
  8  9  2  0
  9 10  1  0
 10 11  1  0
 11 12  1  0
 12 13  2  0
 13 14  1  0
 14 15  1  0
 15 16  1  0
 11 17  1  0
  9  4  1  0
 16 12  1  0
  1 18  1  0
  1 19  1  0
  2 20  1  0
  3 21  1  0
  3 22  1  0
  5 23  1  0
  6 24  1  0
  7 25  1  0
  8 26  1  0
 11 27  1  1
 14 28  1  0
 14 29  1  0
 15 30  1  0
 15 31  1  0
 16 32  1  0
 17 33  1  0
 17 34  1  0
 17 35  1  0
M  END
>  <Ligand ID>  (1) 
LIG0005202

>  <Ligand>  (1) 
CHEMBL1276140

>  <SMILES>  (1) 
C=CCc1ccccc1O[C@H](C1=NCCN1)C

>  <CID>  (1) 
49836301.0

>  <ChEMBL ID>  (1) 
nan

>  <InChiKey>  (1) 
MNMDMCKHXVHLAW-NSHDSACASA-N

>  <InChi>  (1) 
InChI=1S/C14H18N2O/c1-3-6-12-7-4-5-8-13(12)17-11(2)14-15-9-10-16-14/h3-5,7-8,11H,1,6,9-10H2,2H3,(H,15,16)/t11-/m0/s1

>  <IUPAC Name>  (1) 
2-[(1S)-1-(2-prop-2-enylphenoxy)ethyl]-4,5-dihydro-1H-imidazole

$$$$
