
     RDKit          3D

 19 19  0  0  0  0  0  0  0  0999 V2000
    2.9964    0.1612   -0.1421 C   0  0  0  0  0  0  0  0  0  0  0  0
    1.5073    0.2178   -0.2092 C   0  0  0  0  0  0  0  0  0  0  0  0
    0.6233   -0.3480    0.4960 N   0  0  0  0  0  0  0  0  0  0  0  0
   -0.7109   -0.1082    0.2003 C   0  0  0  0  0  0  0  0  0  0  0  0
   -0.8918    1.2834   -0.3710 C   0  0  0  0  0  0  0  0  0  0  0  0
    0.6096    1.2166   -1.4395 S   0  0  0  0  0  0  0  0  0  0  0  0
   -1.2029   -1.0747   -0.8838 C   0  0  0  0  0  0  0  0  0  0  0  0
   -1.5423   -0.2961    1.4456 C   0  0  0  0  0  0  0  0  0  0  0  0
    3.3778   -0.1870    0.8116 H   0  0  0  0  0  0  0  0  0  0  0  0
    3.4558    1.1570   -0.3042 H   0  0  0  0  0  0  0  0  0  0  0  0
    3.3136   -0.5325   -0.9532 H   0  0  0  0  0  0  0  0  0  0  0  0
   -0.7253    2.0819    0.3595 H   0  0  0  0  0  0  0  0  0  0  0  0
   -1.7716    1.3724   -1.0010 H   0  0  0  0  0  0  0  0  0  0  0  0
   -0.3110   -1.4676   -1.4217 H   0  0  0  0  0  0  0  0  0  0  0  0
   -1.8822   -0.5545   -1.5942 H   0  0  0  0  0  0  0  0  0  0  0  0
   -1.7083   -1.9156   -0.3668 H   0  0  0  0  0  0  0  0  0  0  0  0
   -2.5636   -0.6437    1.2600 H   0  0  0  0  0  0  0  0  0  0  0  0
   -1.0210   -1.0281    2.0944 H   0  0  0  0  0  0  0  0  0  0  0  0
   -1.5529    0.6656    2.0193 H   0  0  0  0  0  0  0  0  0  0  0  0
  1  2  1  0
  2  3  2  0
  3  4  1  0
  4  5  1  0
  5  6  1  0
  4  7  1  0
  4  8  1  0
  6  2  1  0
  1  9  1  0
  1 10  1  0
  1 11  1  0
  5 12  1  0
  5 13  1  0
  7 14  1  0
  7 15  1  0
  7 16  1  0
  8 17  1  0
  8 18  1  0
  8 19  1  0
M  END
>  <Ligand ID>  (1) 
LIG0005003

>  <Ligand>  (1) 
Thiazole, 4,5-dihydro-2,4,4-trimethyl-

>  <SMILES>  (1) 
CC1=NC(CS1)(C)C

>  <CID>  (1) 
199406.0

>  <ChEMBL ID>  (1) 
nan

>  <InChiKey>  (1) 
RHYWBMKYLKNBET-UHFFFAOYSA-N

>  <InChi>  (1) 
InChI=1S/C6H11NS/c1-5-7-6(2,3)4-8-5/h4H2,1-3H3

>  <IUPAC Name>  (1) 
2,4,4-trimethyl-5H-1,3-thiazole

$$$$
