
     RDKit          3D

 11 11  0  0  0  0  0  0  0  0999 V2000
    2.6585   -0.7827    0.2443 O   0  0  0  0  0  0  0  0  0  0  0  0
    2.0274    0.2366   -0.1688 C   0  0  0  0  0  0  0  0  0  0  0  0
    0.5854    0.2112   -0.1096 C   0  0  0  0  0  0  0  0  0  0  0  0
   -0.1445   -0.8547    0.3689 C   0  0  0  0  0  0  0  0  0  0  0  0
   -1.4761   -0.4461    0.2396 C   0  0  0  0  0  0  0  0  0  0  0  0
   -1.4885    0.8284   -0.3029 C   0  0  0  0  0  0  0  0  0  0  0  0
   -0.2308    1.1622   -0.4874 O   0  0  0  0  0  0  0  0  0  0  0  0
    2.6170    1.0574   -0.5383 H   0  0  0  0  0  0  0  0  0  0  0  0
    0.1730   -1.7954    0.7590 H   0  0  0  0  0  0  0  0  0  0  0  0
   -2.3495   -1.0346    0.5195 H   0  0  0  0  0  0  0  0  0  0  0  0
   -2.3719    1.4178   -0.5244 H   0  0  0  0  0  0  0  0  0  0  0  0
  1  2  2  0
  2  3  1  0
  3  4  2  0
  4  5  1  0
  5  6  2  0
  6  7  1  0
  7  3  1  0
  2  8  1  0
  4  9  1  0
  5 10  1  0
  6 11  1  0
M  END
>  <Ligand ID>  (1) 
LIG0005055

>  <Ligand>  (1) 
Furfural

>  <SMILES>  (1) 
O=Cc1ccco1

>  <CID>  (1) 
7362.0

>  <ChEMBL ID>  (1) 
nan

>  <InChiKey>  (1) 
HYBBIBNJHNGZAN-UHFFFAOYSA-N

>  <InChi>  (1) 
InChI=1S/C5H4O2/c6-4-5-2-1-3-7-5/h1-4H

>  <IUPAC Name>  (1) 
furan-2-carbaldehyde

$$$$
