
     RDKit          3D

 40 42  0  0  0  0  0  0  0  0999 V2000
    2.4844    3.2244    3.7720 N   0  0  0  0  0  0  0  0  0  0  0  0
    2.8809    2.2886    3.2016 C   0  0  0  0  0  0  0  0  0  0  0  0
    3.4053    1.1127    2.4864 C   0  0  1  0  0  0  0  0  0  0  0  0
    2.3503    0.5715    1.6856 N   0  0  0  0  0  0  0  0  0  0  0  0
    1.8221   -0.7414    1.8178 C   0  0  0  0  0  0  0  0  0  0  0  0
    2.3602   -1.4545    2.7337 O   0  0  0  0  0  0  0  0  0  0  0  0
    0.7452   -1.2589    0.9807 C   0  0  0  0  0  0  0  0  0  0  0  0
    0.3259   -2.5542    1.2157 C   0  0  0  0  0  0  0  0  0  0  0  0
   -0.6812   -3.0523    0.4387 C   0  0  0  0  0  0  0  0  0  0  0  0
   -1.3031   -2.3218   -0.5738 C   0  0  0  0  0  0  0  0  0  0  0  0
   -0.8497   -1.0412   -0.7662 C   0  0  0  0  0  0  0  0  0  0  0  0
    0.1572   -0.5343    0.0061 N   0  0  0  0  0  0  0  0  0  0  0  0
   -1.4087   -0.2751   -1.7352 O   0  0  0  0  0  0  0  0  0  0  0  0
   -1.1356    1.0229   -2.1225 C   0  0  0  0  0  0  0  0  0  0  0  0
   -1.3250    2.0766   -1.0526 C   0  0  0  0  0  0  0  0  0  0  0  0
   -0.9919    3.4798   -1.6021 C   0  0  0  0  0  0  0  0  0  0  0  0
   -0.2078    2.8388   -0.4831 C   0  0  0  0  0  0  0  0  0  0  0  0
   -2.3726   -2.9841   -1.3172 C   0  0  0  0  0  0  0  0  0  0  0  0
   -3.7640   -3.0302   -0.6811 C   0  0  0  0  0  0  0  0  0  0  0  0
   -3.5343   -2.2045   -1.8701 C   0  0  0  0  0  0  0  0  0  0  0  0
    4.5497    1.5155    1.6092 C   0  0  0  0  0  0  0  0  0  0  0  0
    3.7443    0.3342    3.2136 H   0  0  0  0  0  0  0  0  0  0  0  0
    1.9264    1.1697    0.9460 H   0  0  0  0  0  0  0  0  0  0  0  0
    0.8018   -3.1379    2.0042 H   0  0  0  0  0  0  0  0  0  0  0  0
   -0.9929   -4.0820    0.6487 H   0  0  0  0  0  0  0  0  0  0  0  0
   -0.0304    1.0734   -2.3554 H   0  0  0  0  0  0  0  0  0  0  0  0
   -1.7359    1.3720   -2.9842 H   0  0  0  0  0  0  0  0  0  0  0  0
   -2.2925    2.0799   -0.4918 H   0  0  0  0  0  0  0  0  0  0  0  0
   -0.4359    3.5791   -2.5332 H   0  0  0  0  0  0  0  0  0  0  0  0
   -1.6799    4.3073   -1.4029 H   0  0  0  0  0  0  0  0  0  0  0  0
   -0.3721    3.3226    0.4879 H   0  0  0  0  0  0  0  0  0  0  0  0
    0.8268    2.5225   -0.6837 H   0  0  0  0  0  0  0  0  0  0  0  0
   -2.1114   -3.9649   -1.7748 H   0  0  0  0  0  0  0  0  0  0  0  0
   -3.9361   -2.5346    0.2793 H   0  0  0  0  0  0  0  0  0  0  0  0
   -4.4005   -3.9271   -0.8357 H   0  0  0  0  0  0  0  0  0  0  0  0
   -3.8103   -2.5332   -2.8941 H   0  0  0  0  0  0  0  0  0  0  0  0
   -3.5343   -1.1130   -1.7680 H   0  0  0  0  0  0  0  0  0  0  0  0
    4.1660    1.8130    0.6075 H   0  0  0  0  0  0  0  0  0  0  0  0
    5.2478    0.6758    1.4449 H   0  0  0  0  0  0  0  0  0  0  0  0
    5.1120    2.3648    2.0482 H   0  0  0  0  0  0  0  0  0  0  0  0
  1  2  3  0
  2  3  1  0
  3  4  1  0
  4  5  1  0
  5  6  2  0
  5  7  1  0
  7  8  2  0
  8  9  1  0
  9 10  2  0
 10 11  1  0
 11 12  2  0
 11 13  1  0
 13 14  1  0
 14 15  1  0
 15 16  1  0
 16 17  1  0
 10 18  1  0
 18 19  1  0
 19 20  1  0
  3 21  1  0
 12  7  1  0
 17 15  1  0
 20 18  1  0
  3 22  1  1
  4 23  1  0
  8 24  1  0
  9 25  1  0
 14 26  1  0
 14 27  1  0
 15 28  1  0
 16 29  1  0
 16 30  1  0
 17 31  1  0
 17 32  1  0
 18 33  1  0
 19 34  1  0
 19 35  1  0
 20 36  1  0
 20 37  1  0
 21 38  1  0
 21 39  1  0
 21 40  1  0
M  END
>  <Ligand ID>  (1) 
LIG0005195

>  <Ligand>  (1) 
CHEMBL3914787

>  <SMILES>  (1) 
N#C[C@@H](NC(=O)c1ccc(c(n1)OCC1CC1)C1CC1)C

>  <CID>  (1) 
71105669.0

>  <ChEMBL ID>  (1) 
nan

>  <InChiKey>  (1) 
WMTHDYHQAPHVDC-JTQLQIEISA-N

>  <InChi>  (1) 
InChI=1S/C16H19N3O2/c1-10(8-17)18-15(20)14-7-6-13(12-4-5-12)16(19-14)21-9-11-2-3-11/h6-7,10-12H,2-5,9H2,1H3,(H,18,20)/t10-/m0/s1

>  <IUPAC Name>  (1) 
N-[(1S)-1-cyanoethyl]-5-cyclopropyl-6-(cyclopropylmethoxy)pyridine-2-carboxamide

$$$$
