
     RDKit          3D

  8  7  0  0  0  0  0  0  0  0999 V2000
   -0.8904    0.0765   -0.0616 C   0  0  0  0  0  0  0  0  0  0  0  0
    0.3939   -0.6590    0.0910 C   0  0  0  0  0  0  0  0  0  0  0  0
    0.3575   -1.7700    0.5845 O   0  0  0  0  0  0  0  0  0  0  0  0
    1.9237    0.1067   -0.4492 S   0  0  0  0  0  0  0  0  0  0  0  0
   -0.7282    1.1431   -0.3373 H   0  0  0  0  0  0  0  0  0  0  0  0
   -1.5228   -0.4051   -0.8424 H   0  0  0  0  0  0  0  0  0  0  0  0
   -1.4844    0.1114    0.8862 H   0  0  0  0  0  0  0  0  0  0  0  0
    1.9509    1.3962    0.1290 H   0  0  0  0  0  0  0  0  0  0  0  0
  1  2  1  0
  2  3  2  0
  2  4  1  0
  1  5  1  0
  1  6  1  0
  1  7  1  0
  4  8  1  0
M  END
>  <Ligand ID>  (1) 
LIG0004991

>  <Ligand>  (1) 
ethanethioic S-acid

>  <SMILES>  (1) 
CC(=O)S

>  <CID>  (1) 
10484.0

>  <ChEMBL ID>  (1) 
nan

>  <InChiKey>  (1) 
DUYAAUVXQSMXQP-UHFFFAOYSA-N

>  <InChi>  (1) 
InChI=1S/C2H4OS/c1-2(3)4/h1H3,(H,3,4)

>  <IUPAC Name>  (1) 
ethanethioic S-acid

$$$$
