
     RDKit          3D

 45 45  0  0  0  0  0  0  0  0999 V2000
    5.3183   -0.5108    1.7032 O   0  0  0  0  0  0  0  0  0  0  0  0
    5.5022   -1.7174    1.0450 C   0  0  0  0  0  0  0  0  0  0  0  0
    6.0643   -2.6432    1.7125 O   0  0  0  0  0  0  0  0  0  0  0  0
    5.1071   -2.0004   -0.3342 C   0  0  0  0  0  0  0  0  0  0  0  0
    4.4552   -0.9390   -0.9969 O   0  0  0  0  0  0  0  0  0  0  0  0
    3.2557   -0.4117   -0.5585 C   0  0  0  0  0  0  0  0  0  0  0  0
    2.5602   -0.8470    0.5360 C   0  0  0  0  0  0  0  0  0  0  0  0
    1.3535   -0.2850    0.9438 C   0  0  0  0  0  0  0  0  0  0  0  0
    0.8390    0.7604    0.2049 C   0  0  0  0  0  0  0  0  0  0  0  0
    1.5340    1.2155   -0.9119 C   0  0  0  0  0  0  0  0  0  0  0  0
    2.7293    0.6443   -1.2992 C   0  0  0  0  0  0  0  0  0  0  0  0
    3.3935    1.1154   -2.4076 O   0  0  0  0  0  0  0  0  0  0  0  0
    4.3536    2.1669   -2.2644 C   0  0  0  0  0  0  0  0  0  0  0  0
    5.3479    1.7275   -1.4111 F   0  0  0  0  0  0  0  0  0  0  0  0
    3.7752    3.2856   -1.7131 F   0  0  0  0  0  0  0  0  0  0  0  0
    4.8931    2.4963   -3.4888 F   0  0  0  0  0  0  0  0  0  0  0  0
   -0.4553    1.3793    0.6241 C   0  0  0  0  0  0  0  0  0  0  0  0
   -1.7647    0.2234    0.1482 P   0  0  0  0  0  0  0  0  0  0  0  0
   -1.3352   -0.4381   -1.1582 O   0  0  0  0  0  0  0  0  0  0  0  0
   -3.2408    1.2100   -0.1989 C   0  0  0  0  0  0  0  0  0  0  0  0
   -4.2850    0.4691   -0.9494 C   0  0  0  0  0  0  0  0  0  0  0  0
   -4.7480   -0.7450   -0.1965 C   0  0  1  0  0  0  0  0  0  0  0  0
   -5.3311   -0.3960    1.0947 C   0  0  0  0  0  0  0  0  0  0  0  0
   -4.7611    0.1499    2.0627 O   0  0  0  0  0  0  0  0  0  0  0  0
   -6.6926   -0.7027    1.2896 O   0  0  0  0  0  0  0  0  0  0  0  0
   -5.6905   -1.4807   -1.0455 N   0  0  0  0  0  0  0  0  0  0  0  0
   -2.0019   -0.9824    1.2695 O   0  0  0  0  0  0  0  0  0  0  0  0
   -0.4090    1.5679    2.0023 O   0  0  0  0  0  0  0  0  0  0  0  0
    5.9584   -0.2635    2.4466 H   0  0  0  0  0  0  0  0  0  0  0  0
    4.3789   -2.8640   -0.2918 H   0  0  0  0  0  0  0  0  0  0  0  0
    5.9449   -2.3999   -0.9479 H   0  0  0  0  0  0  0  0  0  0  0  0
    2.9325   -1.6625    1.1254 H   0  0  0  0  0  0  0  0  0  0  0  0
    0.8512   -0.6744    1.8194 H   0  0  0  0  0  0  0  0  0  0  0  0
    1.0725    2.0363   -1.4424 H   0  0  0  0  0  0  0  0  0  0  0  0
   -0.6332    2.3470    0.1523 H   0  0  0  0  0  0  0  0  0  0  0  0
   -2.8831    2.0866   -0.8269 H   0  0  0  0  0  0  0  0  0  0  0  0
   -3.6360    1.5976    0.7516 H   0  0  0  0  0  0  0  0  0  0  0  0
   -5.1815    1.1553   -1.0026 H   0  0  0  0  0  0  0  0  0  0  0  0
   -3.9831    0.2276   -1.9916 H   0  0  0  0  0  0  0  0  0  0  0  0
   -3.8867   -1.4487   -0.0262 H   0  0  0  0  0  0  0  0  0  0  0  0
   -7.1987   -0.2699    2.0442 H   0  0  0  0  0  0  0  0  0  0  0  0
   -6.1212   -2.2491   -0.4546 H   0  0  0  0  0  0  0  0  0  0  0  0
   -5.1272   -1.9206   -1.7921 H   0  0  0  0  0  0  0  0  0  0  0  0
   -1.8058   -0.7619    2.2012 H   0  0  0  0  0  0  0  0  0  0  0  0
   -0.4490    0.7518    2.5331 H   0  0  0  0  0  0  0  0  0  0  0  0
  1  2  1  0
  2  3  2  0
  2  4  1  0
  4  5  1  0
  5  6  1  0
  6  7  2  0
  7  8  1  0
  8  9  2  0
  9 10  1  0
 10 11  2  0
 11 12  1  0
 12 13  1  0
 13 14  1  0
 13 15  1  0
 13 16  1  0
  9 17  1  0
 17 18  1  0
 18 19  2  0
 18 20  1  0
 20 21  1  0
 21 22  1  0
 22 23  1  0
 23 24  2  0
 23 25  1  0
 22 26  1  0
 18 27  1  0
 17 28  1  0
 11  6  1  0
  1 29  1  0
  4 30  1  0
  4 31  1  0
  7 32  1  0
  8 33  1  0
 10 34  1  0
 17 35  1  0
 20 36  1  0
 20 37  1  0
 21 38  1  0
 21 39  1  0
 22 40  1  1
 25 41  1  0
 26 42  1  0
 26 43  1  0
 27 44  1  0
 28 45  1  0
M  END
>  <Ligand ID>  (1) 
LIG0002473

>  <Ligand>  (1) 
CHEMBL3890165

>  <SMILES>  (1) 
OC(=O)COc1ccc(cc1OC(F)(F)F)C(P(=O)(CC[C@@H](C(=O)O)N)O)O

>  <CID>  (1) 
71042034.0

>  <ChEMBL ID>  (1) 
nan

>  <InChiKey>  (1) 
NTRJZUQSNSIKLO-OADYLZGLSA-N

>  <InChi>  (1) 
InChI=1S/C14H17F3NO9P/c15-14(16,17)27-10-5-7(1-2-9(10)26-6-11(19)20)13(23)28(24,25)4-3-8(18)12(21)22/h1-2,5,8,13,23H,3-4,6,18H2,(H,19,20)(H,21,22)(H,24,25)/t8-,13?/m0/s1

>  <IUPAC Name>  (1) 
(2S)-2-amino-4-[[[4-(carboxymethoxy)-3-(trifluoromethoxy)phenyl]-hydroxymethyl]-hydroxyphosphoryl]butanoic acid

$$$$
