
     RDKit          3D

 46 49  0  0  0  0  0  0  0  0999 V2000
    3.4447    0.9961    2.9663 Cl  0  0  0  0  0  0  0  0  0  0  0  0
    3.4285    1.7507    1.4011 C   0  0  0  0  0  0  0  0  0  0  0  0
    3.9171    3.0418    1.3039 C   0  0  0  0  0  0  0  0  0  0  0  0
    3.9167    3.6647    0.0772 C   0  0  0  0  0  0  0  0  0  0  0  0
    3.4363    3.0211   -1.0571 C   0  0  0  0  0  0  0  0  0  0  0  0
    2.9524    1.7189   -0.9148 C   0  0  0  0  0  0  0  0  0  0  0  0
    2.9368    1.0654    0.2924 C   0  0  0  0  0  0  0  0  0  0  0  0
    2.4763   -0.2119    0.5028 O   0  0  0  0  0  0  0  0  0  0  0  0
    1.9450   -1.0880   -0.4260 C   0  0  1  0  0  0  0  0  0  0  0  0
    2.7639   -2.3568   -0.5848 C   0  0  0  0  0  0  0  0  0  0  0  0
    2.4667   -3.2807    0.6017 C   0  0  0  0  0  0  0  0  0  0  0  0
    1.1071   -3.8940    0.2841 C   0  0  0  0  0  0  0  0  0  0  0  0
    0.1553   -2.7559    0.2012 C   0  0  0  0  0  0  0  0  0  0  0  0
    0.5282   -1.4709   -0.1222 C   0  0  0  0  0  0  0  0  0  0  0  0
   -0.4235   -0.4957   -0.1715 N   0  0  0  0  0  0  0  0  0  0  0  0
   -1.7145   -0.7750    0.0910 C   0  0  0  0  0  0  0  0  0  0  0  0
   -2.1555   -2.0402    0.4210 C   0  0  0  0  0  0  0  0  0  0  0  0
   -1.1822   -3.0441    0.4728 C   0  0  0  0  0  0  0  0  0  0  0  0
   -2.6500    0.2916    0.0205 N   0  0  0  0  0  0  0  0  0  0  0  0
   -2.2277    1.6364   -0.3199 C   0  0  0  0  0  0  0  0  0  0  0  0
   -3.2899    2.2500   -1.1747 C   0  0  0  0  0  0  0  0  0  0  0  0
   -4.5997    2.2624   -0.6046 N   0  0  0  0  0  0  0  0  0  0  0  0
   -4.8092    1.3432    0.4788 C   0  0  0  0  0  0  0  0  0  0  0  0
   -4.0690    0.0582    0.2908 C   0  0  0  0  0  0  0  0  0  0  0  0
    4.3043    3.5997    2.1417 H   0  0  0  0  0  0  0  0  0  0  0  0
    4.2819    4.6696   -0.0738 H   0  0  0  0  0  0  0  0  0  0  0  0
    3.4414    3.5158   -2.0042 H   0  0  0  0  0  0  0  0  0  0  0  0
    2.5919    1.2490   -1.7919 H   0  0  0  0  0  0  0  0  0  0  0  0
    1.9332   -0.6083   -1.4245 H   0  0  0  0  0  0  0  0  0  0  0  0
    3.8315   -2.1562   -0.6885 H   0  0  0  0  0  0  0  0  0  0  0  0
    2.4220   -2.9033   -1.4874 H   0  0  0  0  0  0  0  0  0  0  0  0
    2.3259   -2.6226    1.4849 H   0  0  0  0  0  0  0  0  0  0  0  0
    3.2574   -4.0476    0.7342 H   0  0  0  0  0  0  0  0  0  0  0  0
    1.1498   -4.4713   -0.6618 H   0  0  0  0  0  0  0  0  0  0  0  0
    0.8765   -4.5797    1.1363 H   0  0  0  0  0  0  0  0  0  0  0  0
   -3.1893   -2.2798    0.6344 H   0  0  0  0  0  0  0  0  0  0  0  0
   -1.4747   -4.0682    0.7297 H   0  0  0  0  0  0  0  0  0  0  0  0
   -1.2941    1.6247   -0.9040 H   0  0  0  0  0  0  0  0  0  0  0  0
   -2.0258    2.2563    0.5792 H   0  0  0  0  0  0  0  0  0  0  0  0
   -3.2252    1.7780   -2.1786 H   0  0  0  0  0  0  0  0  0  0  0  0
   -3.0163    3.3269   -1.3582 H   0  0  0  0  0  0  0  0  0  0  0  0
   -5.3036    2.1646   -1.3784 H   0  0  0  0  0  0  0  0  0  0  0  0
   -5.8970    1.0924    0.4988 H   0  0  0  0  0  0  0  0  0  0  0  0
   -4.6169    1.8093    1.4739 H   0  0  0  0  0  0  0  0  0  0  0  0
   -4.4819   -0.4275   -0.6318 H   0  0  0  0  0  0  0  0  0  0  0  0
   -4.2449   -0.6090    1.1399 H   0  0  0  0  0  0  0  0  0  0  0  0
  1  2  1  0
  2  3  2  0
  3  4  1  0
  4  5  2  0
  5  6  1  0
  6  7  2  0
  7  8  1  0
  8  9  1  0
  9 10  1  0
 10 11  1  0
 11 12  1  0
 12 13  1  0
 13 14  2  0
 14 15  1  0
 15 16  2  0
 16 17  1  0
 17 18  2  0
 16 19  1  0
 19 20  1  0
 20 21  1  0
 21 22  1  0
 22 23  1  0
 23 24  1  0
  7  2  1  0
 14  9  1  0
 24 19  1  0
 18 13  1  0
  3 25  1  0
  4 26  1  0
  5 27  1  0
  6 28  1  0
  9 29  1  6
 10 30  1  0
 10 31  1  0
 11 32  1  0
 11 33  1  0
 12 34  1  0
 12 35  1  0
 17 36  1  0
 18 37  1  0
 20 38  1  0
 20 39  1  0
 21 40  1  0
 21 41  1  0
 22 42  1  0
 23 43  1  0
 23 44  1  0
 24 45  1  0
 24 46  1  0
M  END
>  <Ligand ID>  (1) 
LIG0002891

>  <Ligand>  (1) 
CHEMBL595194

>  <SMILES>  (1) 
Clc1ccccc1O[C@H]1CCCc2c1nc(cc2)N1CCNCC1

>  <CID>  (1) 
46228437.0

>  <ChEMBL ID>  (1) 
nan

>  <InChiKey>  (1) 
HNSZXWWGMZAANA-KRWDZBQOSA-N

>  <InChi>  (1) 
InChI=1S/C19H22ClN3O/c20-15-5-1-2-6-16(15)24-17-7-3-4-14-8-9-18(22-19(14)17)23-12-10-21-11-13-23/h1-2,5-6,8-9,17,21H,3-4,7,10-13H2/t17-/m0/s1

>  <IUPAC Name>  (1) 
(8S)-8-(2-chlorophenoxy)-2-piperazin-1-yl-5,6,7,8-tetrahydroquinoline

$$$$
