
     RDKit          3D

 56 59  0  0  0  0  0  0  0  0999 V2000
    5.8321   -2.9558    0.4569 N   0  0  0  0  0  0  0  0  0  0  0  0
    5.5626   -1.9136   -0.0072 C   0  0  0  0  0  0  0  0  0  0  0  0
    5.2482   -0.6224   -0.5717 C   0  0  0  0  0  0  0  0  0  0  0  0
    5.9345    0.4683   -0.0797 C   0  0  0  0  0  0  0  0  0  0  0  0
    5.6739    1.7351   -0.5848 C   0  0  0  0  0  0  0  0  0  0  0  0
    4.7217    1.8597   -1.5776 C   0  0  0  0  0  0  0  0  0  0  0  0
    4.0250    0.7606   -2.0786 C   0  0  0  0  0  0  0  0  0  0  0  0
    4.2845   -0.4910   -1.5776 C   0  0  0  0  0  0  0  0  0  0  0  0
    3.6309   -1.7386   -2.0304 C   0  0  0  0  0  0  0  0  0  0  0  0
    2.7050   -2.2948   -1.1927 O   0  0  0  0  0  0  0  0  0  0  0  0
    1.5205   -1.8793   -0.6777 C   0  0  0  0  0  0  0  0  0  0  0  0
    0.8538   -2.7699    0.1796 C   0  0  0  0  0  0  0  0  0  0  0  0
   -0.3257   -2.4239    0.7258 N   0  0  0  0  0  0  0  0  0  0  0  0
   -0.9162   -1.2387    0.4881 C   0  0  0  0  0  0  0  0  0  0  0  0
   -0.2985   -0.3653   -0.3307 N   0  0  0  0  0  0  0  0  0  0  0  0
    0.8896   -0.6836   -0.8963 C   0  0  0  0  0  0  0  0  0  0  0  0
   -2.1684   -0.9311    1.0995 N   0  0  0  0  0  0  0  0  0  0  0  0
   -2.7239   -1.9639    1.9718 C   0  0  0  0  0  0  0  0  0  0  0  0
   -4.2275   -2.0184    1.8702 C   0  0  0  0  0  0  0  0  0  0  0  0
   -4.7999   -0.7280    1.5263 N   0  0  0  0  0  0  0  0  0  0  0  0
   -3.9989    0.4602    1.7570 C   0  0  0  0  0  0  0  0  0  0  0  0
   -2.8010    0.3240    0.8434 C   0  0  1  0  0  0  0  0  0  0  0  0
   -1.8625    1.4990    0.9628 C   0  0  0  0  0  0  0  0  0  0  0  0
   -6.1133   -0.6899    0.9824 C   0  0  0  0  0  0  0  0  0  0  0  0
   -6.8499   -1.7963    0.7719 N   0  0  0  0  0  0  0  0  0  0  0  0
   -8.0172   -1.4555    0.2629 N   0  0  0  0  0  0  0  0  0  0  0  0
   -8.0130   -0.0978    0.1509 C   0  0  0  0  0  0  0  0  0  0  0  0
   -6.8470    0.3131    0.5964 O   0  0  0  0  0  0  0  0  0  0  0  0
   -9.1531    0.6909   -0.3844 C   0  0  0  0  0  0  0  0  0  0  0  0
   -8.7355    1.8182   -1.0779 F   0  0  0  0  0  0  0  0  0  0  0  0
   -9.9745    1.1556    0.6228 F   0  0  0  0  0  0  0  0  0  0  0  0
   -9.9034   -0.0598   -1.2826 F   0  0  0  0  0  0  0  0  0  0  0  0
    6.5637    3.0643    0.0692 S   0  0  0  0  0  0  0  0  0  0  0  0
    5.7150    4.3020    0.0009 O   0  0  0  0  0  0  0  0  0  0  0  0
    6.8735    2.8367    1.5290 O   0  0  0  0  0  0  0  0  0  0  0  0
    8.0750    3.3622   -0.8175 C   0  0  0  0  0  0  0  0  0  0  0  0
    6.6769    0.3281    0.7029 H   0  0  0  0  0  0  0  0  0  0  0  0
    4.5128    2.8507   -1.9778 H   0  0  0  0  0  0  0  0  0  0  0  0
    3.2864    0.8538   -2.8479 H   0  0  0  0  0  0  0  0  0  0  0  0
    3.1822   -1.5315   -3.0346 H   0  0  0  0  0  0  0  0  0  0  0  0
    4.4763   -2.4802   -2.1389 H   0  0  0  0  0  0  0  0  0  0  0  0
    1.2762   -3.7401    0.4116 H   0  0  0  0  0  0  0  0  0  0  0  0
    1.3356    0.0439   -1.5438 H   0  0  0  0  0  0  0  0  0  0  0  0
   -2.4845   -1.6230    3.0166 H   0  0  0  0  0  0  0  0  0  0  0  0
   -2.3211   -2.9516    1.7641 H   0  0  0  0  0  0  0  0  0  0  0  0
   -4.4863   -2.8151    1.1417 H   0  0  0  0  0  0  0  0  0  0  0  0
   -4.6082   -2.3827    2.8522 H   0  0  0  0  0  0  0  0  0  0  0  0
   -4.6016    1.3617    1.5176 H   0  0  0  0  0  0  0  0  0  0  0  0
   -3.6338    0.5101    2.8214 H   0  0  0  0  0  0  0  0  0  0  0  0
   -3.1837    0.2858   -0.1987 H   0  0  0  0  0  0  0  0  0  0  0  0
   -1.4454    1.6977   -0.0303 H   0  0  0  0  0  0  0  0  0  0  0  0
   -2.4856    2.3699    1.2304 H   0  0  0  0  0  0  0  0  0  0  0  0
   -1.0916    1.3195    1.7350 H   0  0  0  0  0  0  0  0  0  0  0  0
    8.6033    4.2148   -0.3458 H   0  0  0  0  0  0  0  0  0  0  0  0
    7.8575    3.6616   -1.8482 H   0  0  0  0  0  0  0  0  0  0  0  0
    8.7546    2.4944   -0.7420 H   0  0  0  0  0  0  0  0  0  0  0  0
  1  2  3  0
  2  3  1  0
  3  4  2  0
  4  5  1  0
  5  6  2  0
  6  7  1  0
  7  8  2  0
  8  9  1  0
  9 10  1  0
 10 11  1  0
 11 12  2  0
 12 13  1  0
 13 14  2  0
 14 15  1  0
 15 16  2  0
 14 17  1  0
 17 18  1  0
 18 19  1  0
 19 20  1  0
 20 21  1  0
 21 22  1  0
 22 23  1  0
 20 24  1  0
 24 25  2  0
 25 26  1  0
 26 27  2  0
 27 28  1  0
 27 29  1  0
 29 30  1  0
 29 31  1  0
 29 32  1  0
  5 33  1  0
 33 34  2  0
 33 35  2  0
 33 36  1  0
  8  3  1  0
 16 11  1  0
 22 17  1  0
 28 24  1  0
  4 37  1  0
  6 38  1  0
  7 39  1  0
  9 40  1  0
  9 41  1  0
 12 42  1  0
 16 43  1  0
 18 44  1  0
 18 45  1  0
 19 46  1  0
 19 47  1  0
 21 48  1  0
 21 49  1  0
 22 50  1  6
 23 51  1  0
 23 52  1  0
 23 53  1  0
 36 54  1  0
 36 55  1  0
 36 56  1  0
M  END
>  <Ligand ID>  (1) 
LIG0005282

>  <Ligand>  (1) 
CHEMBL3357995

>  <SMILES>  (1) 
N#Cc1cc(ccc1COc1cnc(nc1)N1CCN(C[C@H]1C)c1nnc(o1)C(F)(F)F)S(=O)(=O)C

>  <CID>  (1) 
118722571.0

>  <ChEMBL ID>  (1) 
nan

>  <InChiKey>  (1) 
YPZUCWRGPJUFCO-CYBMUJFWSA-N

>  <InChi>  (1) 
InChI=1S/C21H20F3N7O4S/c1-13-11-30(20-29-28-18(35-20)21(22,23)24)5-6-31(13)19-26-9-16(10-27-19)34-12-14-3-4-17(36(2,32)33)7-15(14)8-25/h3-4,7,9-10,13H,5-6,11-12H2,1-2H3/t13-/m1/s1

>  <IUPAC Name>  (1) 
5-methylsulfonyl-2-[[2-[(2R)-2-methyl-4-[5-(trifluoromethyl)-1,3,4-oxadiazol-2-yl]piperazin-1-yl]pyrimidin-5-yl]oxymethyl]benzonitrile

$$$$
