
     RDKit          3D

 30 30  0  0  0  0  0  0  0  0999 V2000
   -4.9861   -0.0776    1.5830 O   0  0  0  0  0  0  0  0  0  0  0  0
   -3.9837    0.3995    0.6987 C   0  0  0  0  0  0  0  0  0  0  0  0
   -3.3759    1.4055    1.0795 O   0  0  0  0  0  0  0  0  0  0  0  0
   -3.8081   -0.3587   -0.5339 C   0  0  0  0  0  0  0  0  0  0  0  0
   -2.7520    0.1436   -1.4532 C   0  0  0  0  0  0  0  0  0  0  0  0
   -1.4298    0.1245   -0.8180 C   0  0  0  0  0  0  0  0  0  0  0  0
   -0.7326   -1.0805   -0.7884 C   0  0  0  0  0  0  0  0  0  0  0  0
    0.5278   -1.2051   -0.2493 C   0  0  0  0  0  0  0  0  0  0  0  0
    1.1312   -0.0907    0.2868 C   0  0  0  0  0  0  0  0  0  0  0  0
    0.4676    1.1274    0.2752 C   0  0  0  0  0  0  0  0  0  0  0  0
   -0.7931    1.2179   -0.2734 C   0  0  0  0  0  0  0  0  0  0  0  0
    2.4906   -0.1438    0.8856 C   0  0  0  0  0  0  0  0  0  0  0  0
    3.4620    0.1088   -0.2866 C   0  0  0  0  0  0  0  0  0  0  0  0
    4.8352    0.0894    0.2546 C   0  0  0  0  0  0  0  0  0  0  0  0
    5.5474    1.1726    0.3260 O   0  0  0  0  0  0  0  0  0  0  0  0
    5.3842   -1.1187    0.7113 O   0  0  0  0  0  0  0  0  0  0  0  0
   -5.4455    0.5493    2.2314 H   0  0  0  0  0  0  0  0  0  0  0  0
   -3.6289   -1.4467   -0.2583 H   0  0  0  0  0  0  0  0  0  0  0  0
   -4.7683   -0.4252   -1.1109 H   0  0  0  0  0  0  0  0  0  0  0  0
   -3.0088    1.2015   -1.7738 H   0  0  0  0  0  0  0  0  0  0  0  0
   -2.7587   -0.4257   -2.4229 H   0  0  0  0  0  0  0  0  0  0  0  0
   -1.2286   -1.9739   -1.2237 H   0  0  0  0  0  0  0  0  0  0  0  0
    1.0092   -2.1718   -0.2658 H   0  0  0  0  0  0  0  0  0  0  0  0
    0.9855    1.9928    0.7172 H   0  0  0  0  0  0  0  0  0  0  0  0
   -1.2543    2.1913   -0.2724 H   0  0  0  0  0  0  0  0  0  0  0  0
    2.6771   -1.1549    1.2716 H   0  0  0  0  0  0  0  0  0  0  0  0
    2.6663    0.6517    1.6214 H   0  0  0  0  0  0  0  0  0  0  0  0
    3.2655   -0.6882   -1.0227 H   0  0  0  0  0  0  0  0  0  0  0  0
    3.1824    1.1224   -0.6612 H   0  0  0  0  0  0  0  0  0  0  0  0
    6.3224   -1.1366    1.0985 H   0  0  0  0  0  0  0  0  0  0  0  0
  1  2  1  0
  2  3  2  0
  2  4  1  0
  4  5  1  0
  5  6  1  0
  6  7  2  0
  7  8  1  0
  8  9  2  0
  9 10  1  0
 10 11  2  0
  9 12  1  0
 12 13  1  0
 13 14  1  0
 14 15  2  0
 14 16  1  0
 11  6  1  0
  1 17  1  0
  4 18  1  0
  4 19  1  0
  5 20  1  0
  5 21  1  0
  7 22  1  0
  8 23  1  0
 10 24  1  0
 11 25  1  0
 12 26  1  0
 12 27  1  0
 13 28  1  0
 13 29  1  0
 16 30  1  0
M  END
>  <Ligand ID>  (1) 
LIG0005057

>  <Ligand>  (1) 
1,4-Benzenedipropanoic acid

>  <SMILES>  (1) 
OC(=O)CCc1ccc(cc1)CCC(=O)O

>  <CID>  (1) 
77926.0

>  <ChEMBL ID>  (1) 
nan

>  <InChiKey>  (1) 
DFOCUWFSRVQSNI-UHFFFAOYSA-N

>  <InChi>  (1) 
InChI=1S/C12H14O4/c13-11(14)7-5-9-1-2-10(4-3-9)6-8-12(15)16/h1-4H,5-8H2,(H,13,14)(H,15,16)

>  <IUPAC Name>  (1) 
3-[4-(2-carboxyethyl)phenyl]propanoic acid

$$$$
