
     RDKit          3D

107108  0  0  0  0  0  0  0  0999 V2000
   -0.6429   -2.8366    1.4399 O   0  0  0  0  0  0  0  0  0  0  0  0
    0.0620   -3.3444    0.3736 C   0  0  0  0  0  0  0  0  0  0  0  0
    0.6445   -4.4502    0.5369 O   0  0  0  0  0  0  0  0  0  0  0  0
    0.1925   -2.6995   -0.9471 C   0  0  0  0  0  0  0  0  0  0  0  0
   -0.4899   -1.3244   -0.9652 C   0  0  1  0  0  0  0  0  0  0  0  0
   -1.9016   -1.5493   -0.6534 C   0  0  0  0  0  0  0  0  0  0  0  0
   -2.5456   -2.3074   -1.4497 O   0  0  0  0  0  0  0  0  0  0  0  0
   -2.6244   -1.0159    0.4363 N   0  0  0  0  0  0  0  0  0  0  0  0
   -4.0350   -1.4038    0.5640 C   0  0  2  0  0  0  0  0  0  0  0  0
   -4.9528   -0.2426    0.4840 C   0  0  0  0  0  0  0  0  0  0  0  0
   -4.5780    0.9210    0.6537 O   0  0  0  0  0  0  0  0  0  0  0  0
   -6.3430   -0.5284    0.1809 N   0  0  0  0  0  0  0  0  0  0  0  0
   -7.3475    0.4704    0.0692 C   0  0  2  0  0  0  0  0  0  0  0  0
   -8.6180    0.0548    0.6593 C   0  0  0  0  0  0  0  0  0  0  0  0
   -9.5503    0.9214    0.6904 O   0  0  0  0  0  0  0  0  0  0  0  0
   -8.9313   -1.2108    1.2032 N   0  0  0  0  0  0  0  0  0  0  0  0
  -10.2617   -1.3964    1.7415 C   0  0  0  0  0  0  0  0  0  0  0  0
  -11.3375   -1.2233    0.7245 C   0  0  0  0  0  0  0  0  0  0  0  0
  -12.5564   -1.3517    1.0501 O   0  0  0  0  0  0  0  0  0  0  0  0
  -11.0337   -0.9107   -0.6348 N   0  0  0  0  0  0  0  0  0  0  0  0
   -7.6183    0.8727   -1.3823 C   0  0  0  0  0  0  0  0  0  0  0  0
   -8.0678   -0.2601   -2.2428 C   0  0  0  0  0  0  0  0  0  0  0  0
   -6.4705    1.6763   -1.9464 C   0  0  0  0  0  0  0  0  0  0  0  0
   -4.1431   -1.9689    1.9773 C   0  0  0  0  0  0  0  0  0  0  0  0
   -5.5442   -2.4083    2.2493 C   0  0  0  0  0  0  0  0  0  0  0  0
   -3.8091   -0.9038    3.0187 C   0  0  0  0  0  0  0  0  0  0  0  0
    0.1378   -0.5512    0.0804 N   0  0  0  0  0  0  0  0  0  0  0  0
    1.1518    0.3611   -0.2960 C   0  0  0  0  0  0  0  0  0  0  0  0
    1.4124    0.4304   -1.5386 O   0  0  0  0  0  0  0  0  0  0  0  0
    1.9040    1.2052    0.6845 C   0  0  1  0  0  0  0  0  0  0  0  0
    2.9843    1.9107    0.0148 N   0  0  0  0  0  0  0  0  0  0  0  0
    4.2780    1.3785    0.1803 C   0  0  0  0  0  0  0  0  0  0  0  0
    4.4705    0.3306    0.8836 O   0  0  0  0  0  0  0  0  0  0  0  0
    5.5188    1.9558   -0.4271 C   0  0  2  0  0  0  0  0  0  0  0  0
    6.6410    1.0700   -0.1440 N   0  0  0  0  0  0  0  0  0  0  0  0
    7.2605    0.4545   -1.3030 C   0  0  0  0  0  0  0  0  0  0  0  0
    6.8295    0.7115   -2.4457 O   0  0  0  0  0  0  0  0  0  0  0  0
    8.4028   -0.4773   -1.1280 C   0  0  2  0  0  0  0  0  0  0  0  0
    9.5173    0.1925   -0.3969 C   0  0  0  0  0  0  0  0  0  0  0  0
   10.6725   -0.7474   -0.2165 C   0  0  0  0  0  0  0  0  0  0  0  0
   11.6910   -0.8709   -1.1165 C   0  0  0  0  0  0  0  0  0  0  0  0
   12.7036   -1.7814   -0.8247 C   0  0  0  0  0  0  0  0  0  0  0  0
   12.7039   -2.5451    0.3237 C   0  0  0  0  0  0  0  0  0  0  0  0
   11.6742   -2.4124    1.2211 C   0  0  0  0  0  0  0  0  0  0  0  0
   10.6813   -1.5146    0.9291 C   0  0  0  0  0  0  0  0  0  0  0  0
   13.7193   -3.4492    0.6024 O   0  0  0  0  0  0  0  0  0  0  0  0
    8.8419   -0.8695   -2.4663 N   0  0  0  0  0  0  0  0  0  0  0  0
    5.8066    3.3122    0.1384 C   0  0  0  0  0  0  0  0  0  0  0  0
    0.9788    2.1711    1.3292 C   0  0  0  0  0  0  0  0  0  0  0  0
    0.3248    3.0832    0.3656 C   0  0  0  0  0  0  0  0  0  0  0  0
    0.8994    4.2970    0.0219 C   0  0  0  0  0  0  0  0  0  0  0  0
    0.2750    5.1603   -0.8880 C   0  0  0  0  0  0  0  0  0  0  0  0
   -0.9295    4.7278   -1.4092 C   0  0  0  0  0  0  0  0  0  0  0  0
   -1.5089    3.5343   -1.0805 C   0  0  0  0  0  0  0  0  0  0  0  0
   -0.8747    2.6836   -0.1719 C   0  0  0  0  0  0  0  0  0  0  0  0
   -0.8519   -3.4696    2.2175 H   0  0  0  0  0  0  0  0  0  0  0  0
   -0.2642   -3.3051   -1.7424 H   0  0  0  0  0  0  0  0  0  0  0  0
    1.2632   -2.4831   -1.1457 H   0  0  0  0  0  0  0  0  0  0  0  0
   -0.2950   -0.8985   -1.9730 H   0  0  0  0  0  0  0  0  0  0  0  0
   -2.1389   -0.3815    1.0931 H   0  0  0  0  0  0  0  0  0  0  0  0
   -4.2646   -2.1948   -0.1369 H   0  0  0  0  0  0  0  0  0  0  0  0
   -6.6470   -1.5345    0.0131 H   0  0  0  0  0  0  0  0  0  0  0  0
   -7.0461    1.4520    0.5415 H   0  0  0  0  0  0  0  0  0  0  0  0
   -8.2188   -1.9684    1.1967 H   0  0  0  0  0  0  0  0  0  0  0  0
  -10.4118   -0.6529    2.5743 H   0  0  0  0  0  0  0  0  0  0  0  0
  -10.3247   -2.4192    2.1657 H   0  0  0  0  0  0  0  0  0  0  0  0
  -10.4489   -1.6195   -1.1461 H   0  0  0  0  0  0  0  0  0  0  0  0
  -11.3594   -0.0446   -1.1119 H   0  0  0  0  0  0  0  0  0  0  0  0
   -8.4924    1.5858   -1.2953 H   0  0  0  0  0  0  0  0  0  0  0  0
   -9.1165   -0.1336   -2.6391 H   0  0  0  0  0  0  0  0  0  0  0  0
   -8.1143   -1.2439   -1.6864 H   0  0  0  0  0  0  0  0  0  0  0  0
   -7.4444   -0.3767   -3.1807 H   0  0  0  0  0  0  0  0  0  0  0  0
   -5.6463    1.0233   -2.3152 H   0  0  0  0  0  0  0  0  0  0  0  0
   -6.1091    2.4351   -1.1911 H   0  0  0  0  0  0  0  0  0  0  0  0
   -6.7514    2.2924   -2.8235 H   0  0  0  0  0  0  0  0  0  0  0  0
   -3.4719   -2.8511    2.0872 H   0  0  0  0  0  0  0  0  0  0  0  0
   -5.9711   -3.1292    1.5479 H   0  0  0  0  0  0  0  0  0  0  0  0
   -6.2504   -1.5563    2.3550 H   0  0  0  0  0  0  0  0  0  0  0  0
   -5.5803   -2.8745    3.2965 H   0  0  0  0  0  0  0  0  0  0  0  0
   -3.4193    0.0229    2.5977 H   0  0  0  0  0  0  0  0  0  0  0  0
   -2.9969   -1.3188    3.6551 H   0  0  0  0  0  0  0  0  0  0  0  0
   -4.6785   -0.7009    3.7038 H   0  0  0  0  0  0  0  0  0  0  0  0
   -0.1001   -0.6122    1.0910 H   0  0  0  0  0  0  0  0  0  0  0  0
    2.3519    0.4800    1.4258 H   0  0  0  0  0  0  0  0  0  0  0  0
    2.8632    2.7572   -0.5658 H   0  0  0  0  0  0  0  0  0  0  0  0
    5.3491    2.0268   -1.5142 H   0  0  0  0  0  0  0  0  0  0  0  0
    6.9699    0.8934    0.8162 H   0  0  0  0  0  0  0  0  0  0  0  0
    8.0690   -1.4171   -0.6233 H   0  0  0  0  0  0  0  0  0  0  0  0
    9.8519    1.0646   -0.9802 H   0  0  0  0  0  0  0  0  0  0  0  0
    9.1188    0.5045    0.6001 H   0  0  0  0  0  0  0  0  0  0  0  0
   11.6741   -0.2732   -2.0007 H   0  0  0  0  0  0  0  0  0  0  0  0
   13.5226   -1.8890   -1.5363 H   0  0  0  0  0  0  0  0  0  0  0  0
   11.6645   -3.0063    2.1276 H   0  0  0  0  0  0  0  0  0  0  0  0
    9.8765   -1.4333    1.6687 H   0  0  0  0  0  0  0  0  0  0  0  0
   14.0092   -3.5790    1.5775 H   0  0  0  0  0  0  0  0  0  0  0  0
    7.9844   -1.1146   -3.0103 H   0  0  0  0  0  0  0  0  0  0  0  0
    9.3497   -0.0595   -2.9263 H   0  0  0  0  0  0  0  0  0  0  0  0
    5.0367    4.0551   -0.1668 H   0  0  0  0  0  0  0  0  0  0  0  0
    5.8946    3.2945    1.2440 H   0  0  0  0  0  0  0  0  0  0  0  0
    6.7595    3.6780   -0.2814 H   0  0  0  0  0  0  0  0  0  0  0  0
    0.2227    1.6564    1.9699 H   0  0  0  0  0  0  0  0  0  0  0  0
    1.6121    2.8305    1.9966 H   0  0  0  0  0  0  0  0  0  0  0  0
    1.8250    4.6418    0.4218 H   0  0  0  0  0  0  0  0  0  0  0  0
    0.7245    6.0912   -1.1486 H   0  0  0  0  0  0  0  0  0  0  0  0
   -1.4114    5.4013   -2.1137 H   0  0  0  0  0  0  0  0  0  0  0  0
   -2.4472    3.2530   -1.5183 H   0  0  0  0  0  0  0  0  0  0  0  0
   -1.3845    1.7697    0.0428 H   0  0  0  0  0  0  0  0  0  0  0  0
  1  2  1  0
  2  3  2  0
  2  4  1  0
  4  5  1  0
  5  6  1  0
  6  7  2  0
  6  8  1  0
  8  9  1  0
  9 10  1  0
 10 11  2  0
 10 12  1  0
 12 13  1  0
 13 14  1  0
 14 15  2  0
 14 16  1  0
 16 17  1  0
 17 18  1  0
 18 19  2  0
 18 20  1  0
 13 21  1  0
 21 22  1  0
 21 23  1  0
  9 24  1  0
 24 25  1  0
 24 26  1  0
  5 27  1  0
 27 28  1  0
 28 29  2  0
 28 30  1  0
 30 31  1  0
 31 32  1  0
 32 33  2  0
 32 34  1  0
 34 35  1  0
 35 36  1  0
 36 37  2  0
 36 38  1  0
 38 39  1  0
 39 40  1  0
 40 41  2  0
 41 42  1  0
 42 43  2  0
 43 44  1  0
 44 45  2  0
 43 46  1  0
 38 47  1  0
 34 48  1  0
 30 49  1  0
 49 50  1  0
 50 51  2  0
 51 52  1  0
 52 53  2  0
 53 54  1  0
 54 55  2  0
 45 40  1  0
 55 50  1  0
  1 56  1  0
  4 57  1  0
  4 58  1  0
  5 59  1  6
  8 60  1  0
  9 61  1  6
 12 62  1  0
 13 63  1  1
 16 64  1  0
 17 65  1  0
 17 66  1  0
 20 67  1  0
 20 68  1  0
 21 69  1  0
 22 70  1  0
 22 71  1  0
 22 72  1  0
 23 73  1  0
 23 74  1  0
 23 75  1  0
 24 76  1  0
 25 77  1  0
 25 78  1  0
 25 79  1  0
 26 80  1  0
 26 81  1  0
 26 82  1  0
 27 83  1  0
 30 84  1  1
 31 85  1  0
 34 86  1  6
 35 87  1  0
 38 88  1  1
 39 89  1  0
 39 90  1  0
 41 91  1  0
 42 92  1  0
 44 93  1  0
 45 94  1  0
 46 95  1  0
 47 96  1  0
 47 97  1  0
 48 98  1  0
 48 99  1  0
 48100  1  0
 49101  1  0
 49102  1  0
 51103  1  0
 52104  1  0
 53105  1  0
 54106  1  0
 55107  1  0
M  END
>  <Ligand ID>  (1) 
LIG0002197

>  <Ligand>  (1) 
Deltorphin I

>  <SMILES>  (1) 
OC(=O)C[C@@H](C(=O)N[C@H](C(=O)N[C@H](C(=O)NCC(=O)N)C(C)C)C(C)C)NC(=O)[C@@H](NC(=O)[C@H](NC(=O)[C@H](Cc1ccc(cc1)O)N)C)Cc1ccccc1

>  <CID>  (1) 
10055958.0

>  <ChEMBL ID>  (1) 
nan

>  <InChiKey>  (1) 
CJAORFIPPWIGPG-QXYJMILXSA-N

>  <InChi>  (1) 
InChI=1S/C37H52N8O10/c1-19(2)30(36(54)40-18-28(39)47)45-37(55)31(20(3)4)44-35(53)27(17-29(48)49)43-34(52)26(16-22-9-7-6-8-10-22)42-32(50)21(5)41-33(51)25(38)15-23-11-13-24(46)14-12-23/h6-14,19-21,25-27,30-31,46H,15-18,38H2,1-5H3,(H2,39,47)(H,40,54)(H,41,51)(H,42,50)(H,43,52)(H,44,53)(H,45,55)(H,48,49)/t21-,25+,26+,27+,30+,31+/m1/s1

>  <IUPAC Name>  (1) 
(3S)-3-[[(2S)-2-[[(2R)-2-[[(2S)-2-amino-3-(4-hydroxyphenyl)propanoyl]amino]propanoyl]amino]-3-phenylpropanoyl]amino]-4-[[(2S)-1-[[(2S)-1-[(2-amino-2-oxoethyl)amino]-3-methyl-1-oxobutan-2-yl]amino]-3-methyl-1-oxobutan-2-yl]amino]-4-oxobutanoic acid

$$$$
