
     RDKit          3D

 63 65  0  0  0  0  0  0  0  0999 V2000
    6.6681   -3.2966   -0.1049 C   0  0  0  0  0  0  0  0  0  0  0  0
    5.9727   -2.7652   -1.3565 C   0  0  0  0  0  0  0  0  0  0  0  0
    6.7074   -1.6072   -1.9430 C   0  0  0  0  0  0  0  0  0  0  0  0
    6.8139   -0.5665   -1.0721 O   0  0  0  0  0  0  0  0  0  0  0  0
    5.9705    0.2629   -0.4319 C   0  0  0  0  0  0  0  0  0  0  0  0
    4.5982    0.2908   -0.5080 C   0  0  0  0  0  0  0  0  0  0  0  0
    3.8168    1.1943    0.1975 C   0  0  0  0  0  0  0  0  0  0  0  0
    4.3999    2.1269    1.0258 C   0  0  0  0  0  0  0  0  0  0  0  0
    5.7733    2.1227    1.1210 C   0  0  0  0  0  0  0  0  0  0  0  0
    6.5425    1.2251    0.4201 C   0  0  0  0  0  0  0  0  0  0  0  0
    8.0031    1.2689    0.5615 C   0  0  0  0  0  0  0  0  0  0  0  0
    8.7572    0.4808   -0.0488 O   0  0  0  0  0  0  0  0  0  0  0  0
    8.5891    2.2035    1.3916 O   0  0  0  0  0  0  0  0  0  0  0  0
    2.3615    1.2113    0.1037 C   0  0  0  0  0  0  0  0  0  0  0  0
    1.6868    2.4142    0.2521 C   0  0  0  0  0  0  0  0  0  0  0  0
    0.3210    2.4647    0.1678 C   0  0  0  0  0  0  0  0  0  0  0  0
   -0.4387    1.3388   -0.0653 C   0  0  0  0  0  0  0  0  0  0  0  0
    0.2136    0.1334   -0.2155 C   0  0  0  0  0  0  0  0  0  0  0  0
    1.6047    0.0815   -0.1297 C   0  0  0  0  0  0  0  0  0  0  0  0
   -1.9166    1.4826   -0.1419 C   0  0  0  0  0  0  0  0  0  0  0  0
   -2.5504    1.3032    1.2372 C   0  0  0  0  0  0  0  0  0  0  0  0
   -3.9609    1.4430    1.1844 N   0  0  0  0  0  0  0  0  0  0  0  0
   -4.6883    0.4236    0.4890 C   0  0  2  0  0  0  0  0  0  0  0  0
   -6.1848    0.7442    0.5338 C   0  0  1  0  0  0  0  0  0  0  0  0
   -7.0053   -0.2500   -0.1743 C   0  0  0  0  0  0  0  0  0  0  0  0
   -6.5191   -1.1728   -1.0739 C   0  0  0  0  0  0  0  0  0  0  0  0
   -7.3613   -2.0759   -1.6938 C   0  0  0  0  0  0  0  0  0  0  0  0
   -8.7291   -2.0866   -1.4328 C   0  0  0  0  0  0  0  0  0  0  0  0
   -9.2234   -1.1576   -0.5261 C   0  0  0  0  0  0  0  0  0  0  0  0
   -8.3763   -0.2413    0.1040 C   0  0  0  0  0  0  0  0  0  0  0  0
   -6.6116    0.7856    1.8712 O   0  0  0  0  0  0  0  0  0  0  0  0
   -4.4299   -0.9642    0.9954 C   0  0  0  0  0  0  0  0  0  0  0  0
    7.4134   -4.0953   -0.3861 H   0  0  0  0  0  0  0  0  0  0  0  0
    5.9719   -3.7485    0.6078 H   0  0  0  0  0  0  0  0  0  0  0  0
    7.2630   -2.5293    0.4141 H   0  0  0  0  0  0  0  0  0  0  0  0
    4.9155   -2.5420   -1.1671 H   0  0  0  0  0  0  0  0  0  0  0  0
    5.9534   -3.6509   -2.0655 H   0  0  0  0  0  0  0  0  0  0  0  0
    7.7602   -1.9839   -2.1482 H   0  0  0  0  0  0  0  0  0  0  0  0
    6.3415   -1.3394   -2.9626 H   0  0  0  0  0  0  0  0  0  0  0  0
    4.0888   -0.3927   -1.1367 H   0  0  0  0  0  0  0  0  0  0  0  0
    3.8591    2.8538    1.6002 H   0  0  0  0  0  0  0  0  0  0  0  0
    6.2846    2.8332    1.7558 H   0  0  0  0  0  0  0  0  0  0  0  0
    9.5657    2.3991    1.4598 H   0  0  0  0  0  0  0  0  0  0  0  0
    2.2286    3.3360    0.4379 H   0  0  0  0  0  0  0  0  0  0  0  0
   -0.1662    3.4254    0.2902 H   0  0  0  0  0  0  0  0  0  0  0  0
   -0.3766   -0.7558   -0.3981 H   0  0  0  0  0  0  0  0  0  0  0  0
    2.1347   -0.8661   -0.2473 H   0  0  0  0  0  0  0  0  0  0  0  0
   -2.3773    0.7897   -0.8871 H   0  0  0  0  0  0  0  0  0  0  0  0
   -2.1256    2.4997   -0.5301 H   0  0  0  0  0  0  0  0  0  0  0  0
   -2.1674    2.1809    1.8254 H   0  0  0  0  0  0  0  0  0  0  0  0
   -2.1728    0.4248    1.7546 H   0  0  0  0  0  0  0  0  0  0  0  0
   -4.3166    1.4273    2.1818 H   0  0  0  0  0  0  0  0  0  0  0  0
   -4.3863    0.4576   -0.5755 H   0  0  0  0  0  0  0  0  0  0  0  0
   -6.3244    1.7631    0.1116 H   0  0  0  0  0  0  0  0  0  0  0  0
   -5.4787   -1.1884   -1.2958 H   0  0  0  0  0  0  0  0  0  0  0  0
   -7.0005   -2.8184   -2.4123 H   0  0  0  0  0  0  0  0  0  0  0  0
   -9.3878   -2.7981   -1.9224 H   0  0  0  0  0  0  0  0  0  0  0  0
  -10.2965   -1.1543   -0.3091 H   0  0  0  0  0  0  0  0  0  0  0  0
   -8.7859    0.4720    0.8043 H   0  0  0  0  0  0  0  0  0  0  0  0
   -6.0542    0.2359    2.4573 H   0  0  0  0  0  0  0  0  0  0  0  0
   -3.7954   -1.5889    0.3488 H   0  0  0  0  0  0  0  0  0  0  0  0
   -3.9660   -0.9855    2.0001 H   0  0  0  0  0  0  0  0  0  0  0  0
   -5.4067   -1.4787    1.0979 H   0  0  0  0  0  0  0  0  0  0  0  0
  1  2  1  0
  2  3  1  0
  3  4  1  0
  4  5  1  0
  5  6  2  0
  6  7  1  0
  7  8  2  0
  8  9  1  0
  9 10  2  0
 10 11  1  0
 11 12  2  0
 11 13  1  0
  7 14  1  0
 14 15  2  0
 15 16  1  0
 16 17  2  0
 17 18  1  0
 18 19  2  0
 17 20  1  0
 20 21  1  0
 21 22  1  0
 22 23  1  0
 23 24  1  0
 24 25  1  0
 25 26  2  0
 26 27  1  0
 27 28  2  0
 28 29  1  0
 29 30  2  0
 24 31  1  0
 23 32  1  0
 10  5  1  0
 19 14  1  0
 30 25  1  0
  1 33  1  0
  1 34  1  0
  1 35  1  0
  2 36  1  0
  2 37  1  0
  3 38  1  0
  3 39  1  0
  6 40  1  0
  8 41  1  0
  9 42  1  0
 13 43  1  0
 15 44  1  0
 16 45  1  0
 18 46  1  0
 19 47  1  0
 20 48  1  0
 20 49  1  0
 21 50  1  0
 21 51  1  0
 22 52  1  0
 23 53  1  6
 24 54  1  6
 26 55  1  0
 27 56  1  0
 28 57  1  0
 29 58  1  0
 30 59  1  0
 31 60  1  0
 32 61  1  0
 32 62  1  0
 32 63  1  0
M  END
>  <Ligand ID>  (1) 
LIG0004355

>  <Ligand>  (1) 
CHEMBL453048

>  <SMILES>  (1) 
CCCOc1cc(ccc1C(=O)O)c1ccc(cc1)CCN[C@H]([C@@H](c1ccccc1)O)C

>  <CID>  (1) 
11224275.0

>  <ChEMBL ID>  (1) 
nan

>  <InChiKey>  (1) 
BAYKLYYVFBMQAJ-SIBVEZHUSA-N

>  <InChi>  (1) 
InChI=1S/C27H31NO4/c1-3-17-32-25-18-23(13-14-24(25)27(30)31)21-11-9-20(10-12-21)15-16-28-19(2)26(29)22-7-5-4-6-8-22/h4-14,18-19,26,28-29H,3,15-17H2,1-2H3,(H,30,31)/t19-,26-/m0/s1

>  <IUPAC Name>  (1) 
4-[4-[2-[[(1R,2S)-1-hydroxy-1-phenylpropan-2-yl]amino]ethyl]phenyl]-2-propoxybenzoic acid

$$$$
