
     RDKit          3D

 39 40  0  0  0  0  0  0  0  0999 V2000
   -7.6016    0.5389   -0.9882 O   0  0  0  0  0  0  0  0  0  0  0  0
   -7.0763   -0.0019    0.1988 C   0  0  0  0  0  0  0  0  0  0  0  0
   -7.8079   -0.5708    1.0470 O   0  0  0  0  0  0  0  0  0  0  0  0
   -5.6184    0.0733    0.5111 C   0  0  0  0  0  0  0  0  0  0  0  0
   -4.9431    0.7807   -0.6166 C   0  0  0  0  0  0  0  0  0  0  0  0
   -3.4549    0.9245   -0.4247 C   0  0  0  0  0  0  0  0  0  0  0  0
   -2.7736   -0.2984   -0.3029 O   0  0  0  0  0  0  0  0  0  0  0  0
   -1.3983   -0.3354   -0.1210 C   0  0  0  0  0  0  0  0  0  0  0  0
   -0.6731    0.8484   -0.0569 C   0  0  0  0  0  0  0  0  0  0  0  0
    0.6869    0.7997    0.1233 C   0  0  0  0  0  0  0  0  0  0  0  0
    1.3918   -0.3822    0.2471 C   0  0  0  0  0  0  0  0  0  0  0  0
    0.6604   -1.5484    0.1817 C   0  0  0  0  0  0  0  0  0  0  0  0
   -0.7122   -1.5045    0.0000 C   0  0  0  0  0  0  0  0  0  0  0  0
    2.8509   -0.4022    0.4395 C   0  0  0  0  0  0  0  0  0  0  0  0
    3.6706    0.4062   -0.3220 C   0  0  0  0  0  0  0  0  0  0  0  0
    5.0440    0.3438   -0.0947 C   0  0  0  0  0  0  0  0  0  0  0  0
    5.5720   -0.5075    0.8701 C   0  0  0  0  0  0  0  0  0  0  0  0
    4.6977   -1.2914    1.5991 C   0  0  0  0  0  0  0  0  0  0  0  0
    3.3313   -1.2608    1.4065 C   0  0  0  0  0  0  0  0  0  0  0  0
    2.5488   -2.0518    2.1538 F   0  0  0  0  0  0  0  0  0  0  0  0
    5.9394    1.1197   -0.8128 O   0  0  0  0  0  0  0  0  0  0  0  0
    6.4996    0.6193   -2.0306 C   0  0  0  0  0  0  0  0  0  0  0  0
    7.1906   -0.5527   -1.7146 F   0  0  0  0  0  0  0  0  0  0  0  0
    5.5247    0.2971   -2.9389 F   0  0  0  0  0  0  0  0  0  0  0  0
    7.3774    1.5367   -2.5688 F   0  0  0  0  0  0  0  0  0  0  0  0
   -8.5805    0.4961   -1.1578 H   0  0  0  0  0  0  0  0  0  0  0  0
   -5.5376    0.5981    1.4817 H   0  0  0  0  0  0  0  0  0  0  0  0
   -5.1562   -0.9284    0.6305 H   0  0  0  0  0  0  0  0  0  0  0  0
   -5.1434    0.2069   -1.5408 H   0  0  0  0  0  0  0  0  0  0  0  0
   -5.3417    1.8115   -0.7186 H   0  0  0  0  0  0  0  0  0  0  0  0
   -3.0652    1.4995   -1.2958 H   0  0  0  0  0  0  0  0  0  0  0  0
   -3.2444    1.5613    0.4633 H   0  0  0  0  0  0  0  0  0  0  0  0
   -1.1403    1.8201   -0.1439 H   0  0  0  0  0  0  0  0  0  0  0  0
    1.2660    1.7339    0.1748 H   0  0  0  0  0  0  0  0  0  0  0  0
    1.2117   -2.4715    0.2785 H   0  0  0  0  0  0  0  0  0  0  0  0
   -1.2181   -2.4686   -0.0411 H   0  0  0  0  0  0  0  0  0  0  0  0
    3.2738    1.0777   -1.0807 H   0  0  0  0  0  0  0  0  0  0  0  0
    6.6560   -0.5562    1.0489 H   0  0  0  0  0  0  0  0  0  0  0  0
    5.0929   -1.9607    2.3554 H   0  0  0  0  0  0  0  0  0  0  0  0
  1  2  1  0
  2  3  2  0
  2  4  1  0
  4  5  1  0
  5  6  1  0
  6  7  1  0
  7  8  1  0
  8  9  2  0
  9 10  1  0
 10 11  2  0
 11 12  1  0
 12 13  2  0
 11 14  1  0
 14 15  2  0
 15 16  1  0
 16 17  2  0
 17 18  1  0
 18 19  2  0
 19 20  1  0
 16 21  1  0
 21 22  1  0
 22 23  1  0
 22 24  1  0
 22 25  1  0
 13  8  1  0
 19 14  1  0
  1 26  1  0
  4 27  1  0
  4 28  1  0
  5 29  1  0
  5 30  1  0
  6 31  1  0
  6 32  1  0
  9 33  1  0
 10 34  1  0
 12 35  1  0
 13 36  1  0
 15 37  1  0
 17 38  1  0
 18 39  1  0
M  END
>  <Ligand ID>  (1) 
LIG0002543

>  <Ligand>  (1) 
CHEMBL3915765

>  <SMILES>  (1) 
OC(=O)CCCOc1ccc(cc1)c1cc(ccc1F)OC(F)(F)F

>  <CID>  (1) 
134142866.0

>  <ChEMBL ID>  (1) 
nan

>  <InChiKey>  (1) 
UXXNWFQAORSGLZ-UHFFFAOYSA-N

>  <InChi>  (1) 
InChI=1S/C17H14F4O4/c18-15-8-7-13(25-17(19,20)21)10-14(15)11-3-5-12(6-4-11)24-9-1-2-16(22)23/h3-8,10H,1-2,9H2,(H,22,23)

>  <IUPAC Name>  (1) 
4-[4-[2-fluoro-5-(trifluoromethoxy)phenyl]phenoxy]butanoic acid

$$$$
