
     RDKit          3D

 29 31  0  0  0  0  0  0  0  0999 V2000
   -1.2983    2.6967    0.5813 C   0  0  0  0  0  0  0  0  0  0  0  0
   -2.4797    2.4411   -0.0934 C   0  0  0  0  0  0  0  0  0  0  0  0
   -2.6907    1.1281   -0.5184 C   0  0  0  0  0  0  0  0  0  0  0  0
   -1.7615    0.1327   -0.2752 C   0  0  0  0  0  0  0  0  0  0  0  0
   -0.5908    0.4310    0.4041 C   0  0  0  0  0  0  0  0  0  0  0  0
   -0.3609    1.7198    0.8331 C   0  0  0  0  0  0  0  0  0  0  0  0
    0.4301   -0.5981    0.6868 C   0  0  0  0  0  0  0  0  0  0  0  0
    0.1831   -1.8845   -0.0470 C   0  0  0  0  0  0  0  0  0  0  0  0
   -1.2718   -2.2837   -0.0478 C   0  0  0  0  0  0  0  0  0  0  0  0
   -2.0788   -1.2331   -0.7681 C   0  0  0  0  0  0  0  0  0  0  0  0
    1.8144   -0.1722    0.4186 C   0  0  0  0  0  0  0  0  0  0  0  0
    2.6491    0.4219    1.2897 N   0  0  0  0  0  0  0  0  0  0  0  0
    3.8271    0.6616    0.6858 C   0  0  0  0  0  0  0  0  0  0  0  0
    3.6949    0.1956   -0.5913 C   0  0  0  0  0  0  0  0  0  0  0  0
    2.4439   -0.3223   -0.7563 N   0  0  0  0  0  0  0  0  0  0  0  0
   -1.1515    3.7218    0.9038 H   0  0  0  0  0  0  0  0  0  0  0  0
   -3.2218    3.2208   -0.2912 H   0  0  0  0  0  0  0  0  0  0  0  0
   -3.6226    0.9012   -1.0567 H   0  0  0  0  0  0  0  0  0  0  0  0
    0.5432    2.0154    1.3734 H   0  0  0  0  0  0  0  0  0  0  0  0
    0.3743   -0.8372    1.7878 H   0  0  0  0  0  0  0  0  0  0  0  0
    0.7888   -2.6890    0.4430 H   0  0  0  0  0  0  0  0  0  0  0  0
    0.4948   -1.8307   -1.1090 H   0  0  0  0  0  0  0  0  0  0  0  0
   -1.6102   -2.4561    0.9764 H   0  0  0  0  0  0  0  0  0  0  0  0
   -1.3430   -3.2273   -0.6052 H   0  0  0  0  0  0  0  0  0  0  0  0
   -3.1505   -1.4709   -0.5507 H   0  0  0  0  0  0  0  0  0  0  0  0
   -1.8760   -1.3184   -1.8447 H   0  0  0  0  0  0  0  0  0  0  0  0
    4.6765    1.1386    1.1816 H   0  0  0  0  0  0  0  0  0  0  0  0
    4.4625    0.2314   -1.3537 H   0  0  0  0  0  0  0  0  0  0  0  0
    2.1256   -0.7344   -1.6568 H   0  0  0  0  0  0  0  0  0  0  0  0
  1  2  2  0
  2  3  1  0
  3  4  2  0
  4  5  1  0
  5  6  2  0
  5  7  1  0
  7  8  1  0
  8  9  1  0
  9 10  1  0
  7 11  1  0
 11 12  2  0
 12 13  1  0
 13 14  2  0
 14 15  1  0
  6  1  1  0
 15 11  1  0
 10  4  1  0
  1 16  1  0
  2 17  1  0
  3 18  1  0
  6 19  1  0
  7 20  1  0
  8 21  1  0
  8 22  1  0
  9 23  1  0
  9 24  1  0
 10 25  1  0
 10 26  1  0
 13 27  1  0
 14 28  1  0
 15 29  1  0
M  END
>  <Ligand ID>  (1) 
LIG0001329

>  <Ligand>  (1) 
CHEMBL258007

>  <SMILES>  (1) 
c1ccc2c(c1)C(CCC2)c1ncc[nH]1

>  <CID>  (1) 
17804479.0

>  <ChEMBL ID>  (1) 
nan

>  <InChiKey>  (1) 
BLXFHJKHZWXNDP-UHFFFAOYSA-N

>  <InChi>  (1) 
InChI=1S/C13H14N2/c1-2-6-11-10(4-1)5-3-7-12(11)13-14-8-9-15-13/h1-2,4,6,8-9,12H,3,5,7H2,(H,14,15)

>  <IUPAC Name>  (1) 
2-(1,2,3,4-tetrahydronaphthalen-1-yl)-1H-imidazole

$$$$
