
     RDKit          3D

130132  0  0  0  0  0  0  0  0999 V2000
    4.2761   -3.9816    4.7847 N   0  0  0  0  0  0  0  0  0  0  0  0
    4.3184   -2.6491    4.1695 C   0  0  0  0  0  0  0  0  0  0  0  0
    2.8884   -2.3014    3.8064 C   0  0  0  0  0  0  0  0  0  0  0  0
    2.7869   -0.9398    3.1650 C   0  0  0  0  0  0  0  0  0  0  0  0
    3.5303   -0.7473    1.9120 C   0  0  0  0  0  0  0  0  0  0  0  0
    3.2440   -1.5039    0.6964 C   0  0  1  0  0  0  0  0  0  0  0  0
    1.8773   -1.3295    0.0794 C   0  0  0  0  0  0  0  0  0  0  0  0
    1.8921   -0.7668   -1.0520 O   0  0  0  0  0  0  0  0  0  0  0  0
    0.7431   -1.7758    0.7417 N   0  0  0  0  0  0  0  0  0  0  0  0
   -0.6465   -1.8018    0.4384 C   0  0  1  0  0  0  0  0  0  0  0  0
   -1.4501   -0.8072    1.1224 C   0  0  0  0  0  0  0  0  0  0  0  0
   -0.8835    0.2837    1.4803 O   0  0  0  0  0  0  0  0  0  0  0  0
   -2.8431   -0.8972    1.4667 N   0  0  0  0  0  0  0  0  0  0  0  0
   -3.4480    0.2420    2.0613 C   0  0  0  0  0  0  0  0  0  0  0  0
   -4.0454    1.3379    1.3388 C   0  0  0  0  0  0  0  0  0  0  0  0
   -4.5074    2.2558    2.2107 O   0  0  0  0  0  0  0  0  0  0  0  0
   -4.2760    1.7263    0.0207 N   0  0  0  0  0  0  0  0  0  0  0  0
   -4.0513    1.0709   -1.2091 C   0  0  0  0  0  0  0  0  0  0  0  0
   -5.1689    0.2900   -1.7755 C   0  0  0  0  0  0  0  0  0  0  0  0
   -5.4522   -1.0558   -1.6081 C   0  0  0  0  0  0  0  0  0  0  0  0
   -6.5683   -1.4169   -2.2374 N   0  0  0  0  0  0  0  0  0  0  0  0
   -7.0743   -0.3498   -2.8460 C   0  0  0  0  0  0  0  0  0  0  0  0
   -6.2247    0.7394   -2.5803 C   0  0  0  0  0  0  0  0  0  0  0  0
   -6.5673    1.9368   -3.1589 C   0  0  0  0  0  0  0  0  0  0  0  0
   -7.6912    2.0298   -3.9485 C   0  0  0  0  0  0  0  0  0  0  0  0
   -8.5331    0.9829   -4.2177 C   0  0  0  0  0  0  0  0  0  0  0  0
   -8.1896   -0.2304   -3.6355 C   0  0  0  0  0  0  0  0  0  0  0  0
   -4.8188    3.1240   -0.1056 C   0  0  0  0  0  0  0  0  0  0  0  0
   -3.7201    4.0985   -0.2397 C   0  0  0  0  0  0  0  0  0  0  0  0
   -2.5039    3.8147   -0.2366 O   0  0  0  0  0  0  0  0  0  0  0  0
   -4.1096    5.4769   -0.3886 N   0  0  0  0  0  0  0  0  0  0  0  0
   -3.0877    6.5242   -0.5372 C   0  0  0  0  0  0  0  0  0  0  0  0
   -3.7329    7.8333   -0.6697 C   0  0  0  0  0  0  0  0  0  0  0  0
   -2.9986    8.8498   -0.8146 O   0  0  0  0  0  0  0  0  0  0  0  0
   -5.1436    8.0474   -0.6463 N   0  0  0  0  0  0  0  0  0  0  0  0
   -3.4627   -2.1876    1.2664 C   0  0  0  0  0  0  0  0  0  0  0  0
   -3.3318   -3.1382    2.4218 C   0  0  0  0  0  0  0  0  0  0  0  0
   -3.9576   -2.7068    3.7167 C   0  0  0  0  0  0  0  0  0  0  0  0
   -5.3733   -2.4959    3.5882 N   0  0  0  0  0  0  0  0  0  0  0  0
   -6.1829   -3.3828    4.0625 C   0  0  0  0  0  0  0  0  0  0  0  0
   -5.6337   -4.5537    4.7002 N   0  0  0  0  0  0  0  0  0  0  0  0
   -7.5893   -3.2854    4.0017 N   0  0  0  0  0  0  0  0  0  0  0  0
   -0.9844   -1.8953   -1.0526 C   0  0  0  0  0  0  0  0  0  0  0  0
   -0.4838   -3.1091   -1.7095 C   0  0  0  0  0  0  0  0  0  0  0  0
   -1.1169   -4.3065   -1.4195 C   0  0  0  0  0  0  0  0  0  0  0  0
   -0.7932   -5.5015   -2.0179 C   0  0  0  0  0  0  0  0  0  0  0  0
    0.2100   -5.5402   -2.9609 C   0  0  0  0  0  0  0  0  0  0  0  0
    0.8391   -4.3598   -3.2531 C   0  0  0  0  0  0  0  0  0  0  0  0
    0.5157   -3.1721   -2.6563 C   0  0  0  0  0  0  0  0  0  0  0  0
    4.2147   -1.0681   -0.3235 N   0  0  0  0  0  0  0  0  0  0  0  0
    4.8032   -2.0166   -1.1592 C   0  0  0  0  0  0  0  0  0  0  0  0
    4.3956   -3.2381   -0.9808 O   0  0  0  0  0  0  0  0  0  0  0  0
    5.8046   -1.8452   -2.1990 C   0  0  0  0  0  0  0  0  0  0  0  0
    6.3572   -0.5275   -2.3630 N   0  0  0  0  0  0  0  0  0  0  0  0
    7.0791    0.0767   -1.2776 C   0  0  0  0  0  0  0  0  0  0  0  0
    7.1608   -0.5745   -0.1825 O   0  0  0  0  0  0  0  0  0  0  0  0
    7.7435    1.3830   -1.3400 C   0  0  1  0  0  0  0  0  0  0  0  0
    7.4605    1.9599   -2.6478 N   0  0  0  0  0  0  0  0  0  0  0  0
    8.5579    2.1151   -3.5708 C   0  0  0  0  0  0  0  0  0  0  0  0
    9.7381    1.7550   -3.2506 O   0  0  0  0  0  0  0  0  0  0  0  0
    8.3222    2.7063   -4.9280 C   0  0  0  0  0  0  0  0  0  0  0  0
    7.4456    2.2876   -0.2243 C   0  0  0  0  0  0  0  0  0  0  0  0
    6.0430    2.7474   -0.0178 C   0  0  0  0  0  0  0  0  0  0  0  0
    5.9326    3.6723    1.1909 C   0  0  0  0  0  0  0  0  0  0  0  0
    6.8350    4.8724    1.0213 C   0  0  0  0  0  0  0  0  0  0  0  0
    4.1475   -4.7186    4.0362 H   0  0  0  0  0  0  0  0  0  0  0  0
    5.1738   -4.1862    5.2833 H   0  0  0  0  0  0  0  0  0  0  0  0
    4.7187   -1.9626    4.9413 H   0  0  0  0  0  0  0  0  0  0  0  0
    5.0001   -2.6116    3.3239 H   0  0  0  0  0  0  0  0  0  0  0  0
    2.3376   -2.2172    4.7694 H   0  0  0  0  0  0  0  0  0  0  0  0
    2.4187   -3.1255    3.2479 H   0  0  0  0  0  0  0  0  0  0  0  0
    1.7466   -0.6091    3.2026 H   0  0  0  0  0  0  0  0  0  0  0  0
    3.2943   -0.2410    3.9251 H   0  0  0  0  0  0  0  0  0  0  0  0
    3.4476    0.3725    1.6734 H   0  0  0  0  0  0  0  0  0  0  0  0
    4.6428   -0.8083    2.1662 H   0  0  0  0  0  0  0  0  0  0  0  0
    3.4185   -2.5969    0.8628 H   0  0  0  0  0  0  0  0  0  0  0  0
    0.9536   -2.2167    1.7225 H   0  0  0  0  0  0  0  0  0  0  0  0
   -1.0039   -2.8427    0.7740 H   0  0  0  0  0  0  0  0  0  0  0  0
   -4.2106   -0.1083    2.8770 H   0  0  0  0  0  0  0  0  0  0  0  0
   -2.6552    0.6761    2.8052 H   0  0  0  0  0  0  0  0  0  0  0  0
   -3.7669    1.8087   -2.0359 H   0  0  0  0  0  0  0  0  0  0  0  0
   -3.1853    0.3478   -1.1628 H   0  0  0  0  0  0  0  0  0  0  0  0
   -4.8454   -1.7203   -1.0602 H   0  0  0  0  0  0  0  0  0  0  0  0
   -6.9713   -2.4028   -2.2360 H   0  0  0  0  0  0  0  0  0  0  0  0
   -5.9701    2.7992   -3.0330 H   0  0  0  0  0  0  0  0  0  0  0  0
   -7.9575    2.9949   -4.4011 H   0  0  0  0  0  0  0  0  0  0  0  0
   -9.3974    1.1201   -4.8413 H   0  0  0  0  0  0  0  0  0  0  0  0
   -8.8228   -1.1146   -3.8095 H   0  0  0  0  0  0  0  0  0  0  0  0
   -5.5036    3.2136   -0.9203 H   0  0  0  0  0  0  0  0  0  0  0  0
   -5.4262    3.3479    0.8256 H   0  0  0  0  0  0  0  0  0  0  0  0
   -5.1204    5.7464   -0.3952 H   0  0  0  0  0  0  0  0  0  0  0  0
   -2.4236    6.4922    0.3659 H   0  0  0  0  0  0  0  0  0  0  0  0
   -2.4929    6.2364   -1.4334 H   0  0  0  0  0  0  0  0  0  0  0  0
   -5.6518    8.5805   -1.4000 H   0  0  0  0  0  0  0  0  0  0  0  0
   -5.7534    7.6866    0.1254 H   0  0  0  0  0  0  0  0  0  0  0  0
   -3.2508   -2.6692    0.3079 H   0  0  0  0  0  0  0  0  0  0  0  0
   -4.5915   -1.9853    1.2245 H   0  0  0  0  0  0  0  0  0  0  0  0
   -2.2530   -3.3534    2.6889 H   0  0  0  0  0  0  0  0  0  0  0  0
   -3.8285   -4.1064    2.1139 H   0  0  0  0  0  0  0  0  0  0  0  0
   -3.8189   -3.6162    4.3982 H   0  0  0  0  0  0  0  0  0  0  0  0
   -3.3922   -1.8579    4.1475 H   0  0  0  0  0  0  0  0  0  0  0  0
   -5.7002   -5.4931    4.2195 H   0  0  0  0  0  0  0  0  0  0  0  0
   -5.1632   -4.4537    5.6501 H   0  0  0  0  0  0  0  0  0  0  0  0
   -8.1995   -2.9686    4.7741 H   0  0  0  0  0  0  0  0  0  0  0  0
   -8.0621   -3.5521    3.1056 H   0  0  0  0  0  0  0  0  0  0  0  0
   -0.3627   -1.0520   -1.5025 H   0  0  0  0  0  0  0  0  0  0  0  0
   -2.0024   -1.6319   -1.3042 H   0  0  0  0  0  0  0  0  0  0  0  0
   -1.9167   -4.3554   -0.6769 H   0  0  0  0  0  0  0  0  0  0  0  0
   -1.3187   -6.4391   -1.7662 H   0  0  0  0  0  0  0  0  0  0  0  0
    0.4702   -6.4716   -3.4377 H   0  0  0  0  0  0  0  0  0  0  0  0
    1.6313   -4.3625   -3.9991 H   0  0  0  0  0  0  0  0  0  0  0  0
    1.0494   -2.2949   -2.9692 H   0  0  0  0  0  0  0  0  0  0  0  0
    4.4786   -0.0714   -0.4536 H   0  0  0  0  0  0  0  0  0  0  0  0
    5.3387   -2.2015   -3.1588 H   0  0  0  0  0  0  0  0  0  0  0  0
    6.6651   -2.5417   -1.9914 H   0  0  0  0  0  0  0  0  0  0  0  0
    6.2654    0.0349   -3.2445 H   0  0  0  0  0  0  0  0  0  0  0  0
    8.8695    1.2180   -1.3274 H   0  0  0  0  0  0  0  0  0  0  0  0
    6.5027    2.2657   -2.9435 H   0  0  0  0  0  0  0  0  0  0  0  0
    8.8193    3.6938   -5.0077 H   0  0  0  0  0  0  0  0  0  0  0  0
    7.2505    2.8103   -5.1114 H   0  0  0  0  0  0  0  0  0  0  0  0
    8.7381    1.9466   -5.6467 H   0  0  0  0  0  0  0  0  0  0  0  0
    8.1407    3.1722   -0.2184 H   0  0  0  0  0  0  0  0  0  0  0  0
    7.7668    1.7414    0.7309 H   0  0  0  0  0  0  0  0  0  0  0  0
    5.7447    3.3252   -0.9252 H   0  0  0  0  0  0  0  0  0  0  0  0
    5.3957    1.8874    0.1877 H   0  0  0  0  0  0  0  0  0  0  0  0
    4.8990    4.0755    1.2560 H   0  0  0  0  0  0  0  0  0  0  0  0
    6.1470    3.1312    2.1142 H   0  0  0  0  0  0  0  0  0  0  0  0
    6.9147    5.1362   -0.0637 H   0  0  0  0  0  0  0  0  0  0  0  0
    6.4073    5.7285    1.6148 H   0  0  0  0  0  0  0  0  0  0  0  0
    7.8549    4.5900    1.4168 H   0  0  0  0  0  0  0  0  0  0  0  0
  1  2  1  0
  2  3  1  0
  3  4  1  0
  4  5  1  0
  5  6  1  0
  6  7  1  0
  7  8  2  0
  7  9  1  0
  9 10  1  0
 10 11  1  0
 11 12  2  0
 11 13  1  0
 13 14  1  0
 14 15  1  0
 15 16  2  0
 15 17  1  0
 17 18  1  0
 18 19  1  0
 19 20  2  0
 20 21  1  0
 21 22  1  0
 22 23  2  0
 23 24  1  0
 24 25  2  0
 25 26  1  0
 26 27  2  0
 17 28  1  0
 28 29  1  0
 29 30  2  0
 29 31  1  0
 31 32  1  0
 32 33  1  0
 33 34  2  0
 33 35  1  0
 13 36  1  0
 36 37  1  0
 37 38  1  0
 38 39  1  0
 39 40  2  3
 40 41  1  0
 40 42  1  0
 10 43  1  0
 43 44  1  0
 44 45  2  0
 45 46  1  0
 46 47  2  0
 47 48  1  0
 48 49  2  0
  6 50  1  0
 50 51  1  0
 51 52  2  0
 51 53  1  0
 53 54  1  0
 54 55  1  0
 55 56  2  0
 55 57  1  0
 57 58  1  0
 58 59  1  0
 59 60  2  0
 59 61  1  0
 57 62  1  0
 62 63  1  0
 63 64  1  0
 64 65  1  0
 23 19  1  0
 49 44  1  0
 27 22  1  0
  1 66  1  0
  1 67  1  0
  2 68  1  0
  2 69  1  0
  3 70  1  0
  3 71  1  0
  4 72  1  0
  4 73  1  0
  5 74  1  0
  5 75  1  0
  6 76  1  1
  9 77  1  0
 10 78  1  1
 14 79  1  0
 14 80  1  0
 18 81  1  0
 18 82  1  0
 20 83  1  0
 21 84  1  0
 24 85  1  0
 25 86  1  0
 26 87  1  0
 27 88  1  0
 28 89  1  0
 28 90  1  0
 31 91  1  0
 32 92  1  0
 32 93  1  0
 35 94  1  0
 35 95  1  0
 36 96  1  0
 36 97  1  0
 37 98  1  0
 37 99  1  0
 38100  1  0
 38101  1  0
 41102  1  0
 41103  1  0
 42104  1  0
 42105  1  0
 43106  1  0
 43107  1  0
 45108  1  0
 46109  1  0
 47110  1  0
 48111  1  0
 49112  1  0
 50113  1  0
 53114  1  0
 53115  1  0
 54116  1  0
 57117  1  6
 58118  1  0
 61119  1  0
 61120  1  0
 61121  1  0
 62122  1  0
 62123  1  0
 63124  1  0
 63125  1  0
 64126  1  0
 64127  1  0
 65128  1  0
 65129  1  0
 65130  1  0
M  END
>  <Ligand ID>  (1) 
LIG0004162

>  <Ligand>  (1) 
CHEMBL191063

>  <SMILES>  (1) 
NCCCC[C@@H](C(=O)N[C@@H](C(=O)N(CC(=O)N(Cc1c[nH]c2c1cccc2)CC(=O)NCC(=O)N)CCCN=C(N)N)Cc1ccccc1)NC(=O)CNC(=O)[C@@H](NC(=O)C)CCCC

>  <CID>  (1) 
11468666.0

>  <ChEMBL ID>  (1) 
nan

>  <InChiKey>  (1) 
HXZUURPOFOTOOL-QGBCWPEESA-N

>  <InChi>  (1) 
InChI=1S/C44H65N13O8/c1-3-4-16-34(53-29(2)58)41(63)52-25-38(60)54-35(18-10-11-19-45)42(64)55-36(22-30-13-6-5-7-14-30)43(65)56(21-12-20-49-44(47)48)28-40(62)57(27-39(61)51-24-37(46)59)26-31-23-50-33-17-9-8-15-32(31)33/h5-9,13-15,17,23,34-36,50H,3-4,10-12,16,18-22,24-28,45H2,1-2H3,(H2,46,59)(H,51,61)(H,52,63)(H,53,58)(H,54,60)(H,55,64)(H4,47,48,49)/t34-,35-,36+/m0/s1

>  <IUPAC Name>  (1) 
(2S)-2-[[2-[[(2S)-2-acetamidohexanoyl]amino]acetyl]amino]-6-amino-N-[(2R)-1-[[2-[[2-[(2-amino-2-oxoethyl)amino]-2-oxoethyl]-(1H-indol-3-ylmethyl)amino]-2-oxoethyl]-[3-(diaminomethylideneamino)propyl]amino]-1-oxo-3-phenylpropan-2-yl]hexanamide

$$$$
