
     RDKit          3D

 57 59  0  0  0  0  0  0  0  0999 V2000
   -5.3328    0.9603    2.6530 O   0  0  0  0  0  0  0  0  0  0  0  0
   -4.3204    0.7072    1.6989 C   0  0  2  0  0  0  0  0  0  0  0  0
   -4.8885    1.1135    0.3343 C   0  0  0  0  0  0  0  0  0  0  0  0
   -6.0192    0.3038    0.1365 O   0  0  0  0  0  0  0  0  0  0  0  0
   -6.8529    0.3149   -0.9483 C   0  0  0  0  0  0  0  0  0  0  0  0
   -7.9226   -0.5847   -0.9268 C   0  0  0  0  0  0  0  0  0  0  0  0
   -8.8302   -0.6685   -1.9599 C   0  0  0  0  0  0  0  0  0  0  0  0
   -8.7189    0.1460   -3.0777 C   0  0  0  0  0  0  0  0  0  0  0  0
   -7.6582    1.0398   -3.1022 C   0  0  0  0  0  0  0  0  0  0  0  0
   -6.7468    1.1117   -2.0456 C   0  0  0  0  0  0  0  0  0  0  0  0
   -3.9804   -0.7585    1.7081 C   0  0  0  0  0  0  0  0  0  0  0  0
   -2.9577   -1.0422    0.7556 N   0  0  0  0  0  0  0  0  0  0  0  0
   -1.6856   -0.4863    1.1356 C   0  0  0  0  0  0  0  0  0  0  0  0
   -0.6509   -0.8720    0.0919 C   0  0  0  0  0  0  0  0  0  0  0  0
    0.6996   -0.3579    0.4058 C   0  0  0  0  0  0  0  0  0  0  0  0
    1.5028   -1.1991    1.1883 C   0  0  0  0  0  0  0  0  0  0  0  0
    2.7833   -0.8373    1.5481 C   0  0  0  0  0  0  0  0  0  0  0  0
    3.2720    0.3986    1.1131 C   0  0  0  0  0  0  0  0  0  0  0  0
    2.4865    1.2286    0.3441 C   0  0  0  0  0  0  0  0  0  0  0  0
    1.1848    0.8585   -0.0204 C   0  0  0  0  0  0  0  0  0  0  0  0
    4.5970    0.7115    1.5189 N   0  0  0  0  0  0  0  0  0  0  0  0
    5.6923    0.3312    0.7105 C   0  0  0  0  0  0  0  0  0  0  0  0
    5.4296   -0.2864   -0.3699 O   0  0  0  0  0  0  0  0  0  0  0  0
    7.1028    0.6319    1.0918 C   0  0  0  0  0  0  0  0  0  0  0  0
    7.9583    0.0672   -0.0123 C   0  0  0  0  0  0  0  0  0  0  0  0
    8.3783   -1.2511    0.0479 C   0  0  0  0  0  0  0  0  0  0  0  0
    9.1726   -1.7174   -1.0035 C   0  0  0  0  0  0  0  0  0  0  0  0
    9.5136   -0.8841   -2.0493 C   0  0  0  0  0  0  0  0  0  0  0  0
    9.0494    0.4056   -2.0196 C   0  0  0  0  0  0  0  0  0  0  0  0
    8.2911    0.8813   -1.0335 N   0  0  0  0  0  0  0  0  0  0  0  0
    9.4767    1.4764   -3.3404 Cl  0  0  0  0  0  0  0  0  0  0  0  0
   -5.5855    1.9047    2.5138 H   0  0  0  0  0  0  0  0  0  0  0  0
   -3.4809    1.3440    1.9433 H   0  0  0  0  0  0  0  0  0  0  0  0
   -5.2000    2.1744    0.3551 H   0  0  0  0  0  0  0  0  0  0  0  0
   -4.1509    0.9482   -0.4658 H   0  0  0  0  0  0  0  0  0  0  0  0
   -8.0553   -1.2441   -0.0756 H   0  0  0  0  0  0  0  0  0  0  0  0
   -9.6564   -1.3648   -1.9405 H   0  0  0  0  0  0  0  0  0  0  0  0
   -9.4428    0.0611   -3.8737 H   0  0  0  0  0  0  0  0  0  0  0  0
   -7.5818    1.6652   -3.9718 H   0  0  0  0  0  0  0  0  0  0  0  0
   -5.9175    1.8219   -2.0817 H   0  0  0  0  0  0  0  0  0  0  0  0
   -3.6101   -1.0412    2.7150 H   0  0  0  0  0  0  0  0  0  0  0  0
   -4.8910   -1.3663    1.4343 H   0  0  0  0  0  0  0  0  0  0  0  0
   -2.8020   -2.0486    0.5758 H   0  0  0  0  0  0  0  0  0  0  0  0
   -1.4056   -0.8612    2.1417 H   0  0  0  0  0  0  0  0  0  0  0  0
   -1.7638    0.6098    1.2351 H   0  0  0  0  0  0  0  0  0  0  0  0
   -1.0144   -0.5211   -0.9010 H   0  0  0  0  0  0  0  0  0  0  0  0
   -0.6688   -1.9792    0.0336 H   0  0  0  0  0  0  0  0  0  0  0  0
    1.1363   -2.1616    1.5327 H   0  0  0  0  0  0  0  0  0  0  0  0
    3.4012   -1.4885    2.1521 H   0  0  0  0  0  0  0  0  0  0  0  0
    2.8790    2.1786    0.0175 H   0  0  0  0  0  0  0  0  0  0  0  0
    0.5545    1.4952   -0.6221 H   0  0  0  0  0  0  0  0  0  0  0  0
    4.7564    1.2319    2.4325 H   0  0  0  0  0  0  0  0  0  0  0  0
    7.4100    0.1249    2.0311 H   0  0  0  0  0  0  0  0  0  0  0  0
    7.3053    1.6987    1.2458 H   0  0  0  0  0  0  0  0  0  0  0  0
    8.1015   -1.8949    0.8778 H   0  0  0  0  0  0  0  0  0  0  0  0
    9.5197   -2.7484   -0.9868 H   0  0  0  0  0  0  0  0  0  0  0  0
   10.1374   -1.2233   -2.8910 H   0  0  0  0  0  0  0  0  0  0  0  0
  1  2  1  0
  2  3  1  0
  3  4  1  0
  4  5  1  0
  5  6  2  0
  6  7  1  0
  7  8  2  0
  8  9  1  0
  9 10  2  0
  2 11  1  0
 11 12  1  0
 12 13  1  0
 13 14  1  0
 14 15  1  0
 15 16  2  0
 16 17  1  0
 17 18  2  0
 18 19  1  0
 19 20  2  0
 18 21  1  0
 21 22  1  0
 22 23  2  0
 22 24  1  0
 24 25  1  0
 25 26  2  0
 26 27  1  0
 27 28  2  0
 28 29  1  0
 29 30  2  0
 29 31  1  0
 10  5  1  0
 20 15  1  0
 30 25  1  0
  1 32  1  0
  2 33  1  1
  3 34  1  0
  3 35  1  0
  6 36  1  0
  7 37  1  0
  8 38  1  0
  9 39  1  0
 10 40  1  0
 11 41  1  0
 11 42  1  0
 12 43  1  0
 13 44  1  0
 13 45  1  0
 14 46  1  0
 14 47  1  0
 16 48  1  0
 17 49  1  0
 19 50  1  0
 20 51  1  0
 21 52  1  0
 24 53  1  0
 24 54  1  0
 26 55  1  0
 27 56  1  0
 28 57  1  0
M  END
>  <Ligand ID>  (1) 
LIG0002724

>  <Ligand>  (1) 
CHEMBL466726

>  <SMILES>  (1) 
O[C@H](COc1ccccc1)CNCCc1ccc(cc1)NC(=O)Cc1cccc(n1)Cl

>  <CID>  (1) 
44574723.0

>  <ChEMBL ID>  (1) 
nan

>  <InChiKey>  (1) 
ONPJRGJAQQIRSO-NRFANRHFSA-N

>  <InChi>  (1) 
InChI=1S/C24H26ClN3O3/c25-23-8-4-5-20(27-23)15-24(30)28-19-11-9-18(10-12-19)13-14-26-16-21(29)17-31-22-6-2-1-3-7-22/h1-12,21,26,29H,13-17H2,(H,28,30)/t21-/m0/s1

>  <IUPAC Name>  (1) 
2-(6-chloropyridin-2-yl)-N-[4-[2-[[(2S)-2-hydroxy-3-phenoxypropyl]amino]ethyl]phenyl]acetamide

$$$$
