
     RDKit          3D

 21 21  0  0  0  0  0  0  0  0999 V2000
    3.1294   -0.4264    0.6171 O   0  0  0  0  0  0  0  0  0  0  0  0
    2.1923    0.5101    0.2352 C   0  0  0  0  0  0  0  0  0  0  0  0
    2.5378    1.5282   -0.4268 O   0  0  0  0  0  0  0  0  0  0  0  0
    0.7497    0.2954    0.6227 C   0  0  0  0  0  0  0  0  0  0  0  0
    0.3809   -1.0318   -0.0345 C   0  0  0  0  0  0  0  0  0  0  0  0
   -1.0084   -1.4647    0.2881 C   0  0  0  0  0  0  0  0  0  0  0  0
   -1.9709   -0.3272    0.1206 C   0  0  0  0  0  0  0  0  0  0  0  0
   -1.3980    0.8830   -0.5477 C   0  0  0  0  0  0  0  0  0  0  0  0
   -0.1228    1.3696    0.0500 C   0  0  0  0  0  0  0  0  0  0  0  0
    4.0986   -0.4231    0.2598 H   0  0  0  0  0  0  0  0  0  0  0  0
    0.6037    0.2860    1.7117 H   0  0  0  0  0  0  0  0  0  0  0  0
    1.1235   -1.7617    0.3593 H   0  0  0  0  0  0  0  0  0  0  0  0
    0.5237   -0.9100   -1.1114 H   0  0  0  0  0  0  0  0  0  0  0  0
   -1.2555   -2.2903   -0.4255 H   0  0  0  0  0  0  0  0  0  0  0  0
   -1.0673   -1.9432    1.2974 H   0  0  0  0  0  0  0  0  0  0  0  0
   -2.3420   -0.0534    1.1264 H   0  0  0  0  0  0  0  0  0  0  0  0
   -2.8305   -0.6726   -0.4866 H   0  0  0  0  0  0  0  0  0  0  0  0
   -1.2574    0.6438   -1.6274 H   0  0  0  0  0  0  0  0  0  0  0  0
   -2.1598    1.6916   -0.4455 H   0  0  0  0  0  0  0  0  0  0  0  0
    0.4190    1.9373   -0.7589 H   0  0  0  0  0  0  0  0  0  0  0  0
   -0.3459    2.1594    0.8142 H   0  0  0  0  0  0  0  0  0  0  0  0
  1  2  1  0
  2  3  2  0
  2  4  1  0
  4  5  1  0
  5  6  1  0
  6  7  1  0
  7  8  1  0
  8  9  1  0
  9  4  1  0
  1 10  1  0
  4 11  1  0
  5 12  1  0
  5 13  1  0
  6 14  1  0
  6 15  1  0
  7 16  1  0
  7 17  1  0
  8 18  1  0
  8 19  1  0
  9 20  1  0
  9 21  1  0
M  END
>  <Ligand ID>  (1) 
LIG0000776

>  <Ligand>  (1) 
Cyclohexanecarboxylic acid

>  <SMILES>  (1) 
OC(=O)C1CCCCC1

>  <CID>  (1) 
7413.0

>  <ChEMBL ID>  (1) 
nan

>  <InChiKey>  (1) 
NZNMSOFKMUBTKW-UHFFFAOYSA-N

>  <InChi>  (1) 
InChI=1S/C7H12O2/c8-7(9)6-4-2-1-3-5-6/h6H,1-5H2,(H,8,9)

>  <IUPAC Name>  (1) 
cyclohexanecarboxylic acid

$$$$
