
     RDKit          3D

 35 34  0  0  0  0  0  0  0  0999 V2000
    4.7773    0.4978    0.1224 C   0  0  0  0  0  0  0  0  0  0  0  0
    3.5977    1.2995   -0.3135 C   0  0  0  0  0  0  0  0  0  0  0  0
    2.5931    0.5399   -1.1267 C   0  0  0  0  0  0  0  0  0  0  0  0
    2.0097   -0.6326   -0.3962 C   0  0  0  0  0  0  0  0  0  0  0  0
    1.2984   -0.2575    0.8590 C   0  0  0  0  0  0  0  0  0  0  0  0
    0.1478    0.6723    0.6718 C   0  0  0  0  0  0  0  0  0  0  0  0
   -0.9294    0.1009   -0.2278 C   0  0  0  0  0  0  0  0  0  0  0  0
   -1.4971   -1.1838    0.3346 C   0  0  0  0  0  0  0  0  0  0  0  0
   -2.5639   -1.8016   -0.5059 C   0  0  0  0  0  0  0  0  0  0  0  0
   -3.7589   -0.9794   -0.7231 C   0  0  0  0  0  0  0  0  0  0  0  0
   -4.6618   -1.4639   -1.4780 O   0  0  0  0  0  0  0  0  0  0  0  0
   -4.0001    0.2601   -0.1926 O   0  0  0  0  0  0  0  0  0  0  0  0
   -5.2035    0.9445   -0.4870 C   0  0  0  0  0  0  0  0  0  0  0  0
    4.5786    0.1458    1.1707 H   0  0  0  0  0  0  0  0  0  0  0  0
    5.0130   -0.3385   -0.5596 H   0  0  0  0  0  0  0  0  0  0  0  0
    5.6639    1.1934    0.1820 H   0  0  0  0  0  0  0  0  0  0  0  0
    3.9516    2.1694   -0.9114 H   0  0  0  0  0  0  0  0  0  0  0  0
    3.1076    1.7673    0.5818 H   0  0  0  0  0  0  0  0  0  0  0  0
    3.0727    0.2493   -2.0796 H   0  0  0  0  0  0  0  0  0  0  0  0
    1.7812    1.2603   -1.3823 H   0  0  0  0  0  0  0  0  0  0  0  0
    1.3962   -1.2341   -1.0849 H   0  0  0  0  0  0  0  0  0  0  0  0
    2.8904   -1.2654   -0.0815 H   0  0  0  0  0  0  0  0  0  0  0  0
    0.9460   -1.1436    1.4053 H   0  0  0  0  0  0  0  0  0  0  0  0
    2.0426    0.2882    1.4958 H   0  0  0  0  0  0  0  0  0  0  0  0
   -0.3214    0.8395    1.6588 H   0  0  0  0  0  0  0  0  0  0  0  0
    0.4648    1.6379    0.2507 H   0  0  0  0  0  0  0  0  0  0  0  0
   -1.7635    0.8252   -0.2979 H   0  0  0  0  0  0  0  0  0  0  0  0
   -0.5333   -0.0241   -1.2435 H   0  0  0  0  0  0  0  0  0  0  0  0
   -0.6310   -1.9109    0.3210 H   0  0  0  0  0  0  0  0  0  0  0  0
   -1.7814   -1.0931    1.3874 H   0  0  0  0  0  0  0  0  0  0  0  0
   -2.1698   -2.0678   -1.5237 H   0  0  0  0  0  0  0  0  0  0  0  0
   -2.9069   -2.7585   -0.0597 H   0  0  0  0  0  0  0  0  0  0  0  0
   -4.9784    1.9088   -1.0201 H   0  0  0  0  0  0  0  0  0  0  0  0
   -5.7495    1.1986    0.4482 H   0  0  0  0  0  0  0  0  0  0  0  0
   -5.8827    0.3559   -1.1434 H   0  0  0  0  0  0  0  0  0  0  0  0
  1  2  1  0
  2  3  1  0
  3  4  1  0
  4  5  1  0
  5  6  1  0
  6  7  1  0
  7  8  1  0
  8  9  1  0
  9 10  1  0
 10 11  2  0
 10 12  1  0
 12 13  1  0
  1 14  1  0
  1 15  1  0
  1 16  1  0
  2 17  1  0
  2 18  1  0
  3 19  1  0
  3 20  1  0
  4 21  1  0
  4 22  1  0
  5 23  1  0
  5 24  1  0
  6 25  1  0
  6 26  1  0
  7 27  1  0
  7 28  1  0
  8 29  1  0
  8 30  1  0
  9 31  1  0
  9 32  1  0
 13 33  1  0
 13 34  1  0
 13 35  1  0
M  END
>  <Ligand ID>  (1) 
LIG0000411

>  <Ligand>  (1) 
methyl decanoate

>  <SMILES>  (1) 
CCCCCCCCCC(=O)OC

>  <CID>  (1) 
8050.0

>  <ChEMBL ID>  (1) 
nan

>  <InChiKey>  (1) 
YRHYCMZPEVDGFQ-UHFFFAOYSA-N

>  <InChi>  (1) 
InChI=1S/C11H22O2/c1-3-4-5-6-7-8-9-10-11(12)13-2/h3-10H2,1-2H3

>  <IUPAC Name>  (1) 
methyl decanoate

$$$$
