
     RDKit          3D

142147  0  0  0  0  0  0  0  0999 V2000
    9.5405    1.8707    0.8231 C   0  0  0  0  0  0  0  0  0  0  0  0
    9.6924    0.4965    1.4513 C   0  0  0  0  0  0  0  0  0  0  0  0
    8.4887    0.0836    2.2205 C   0  0  0  0  0  0  0  0  0  0  0  0
    7.2041   -0.0121    1.4939 C   0  0  0  0  0  0  0  0  0  0  0  0
    7.1400   -0.9926    0.3816 C   0  0  1  0  0  0  0  0  0  0  0  0
    5.7397   -0.9375   -0.2017 C   0  0  0  0  0  0  0  0  0  0  0  0
    5.6393   -0.7225   -1.4352 O   0  0  0  0  0  0  0  0  0  0  0  0
    4.5918   -1.1226    0.6132 N   0  0  0  0  0  0  0  0  0  0  0  0
    3.2894   -1.0804    0.0727 C   0  0  1  0  0  0  0  0  0  0  0  0
    2.4288   -2.2823    0.2198 C   0  0  0  0  0  0  0  0  0  0  0  0
    2.9805   -3.5170   -0.4067 C   0  0  0  0  0  0  0  0  0  0  0  0
    1.9440   -4.6045   -0.3583 C   0  0  0  0  0  0  0  0  0  0  0  0
    1.9048   -5.9036   -0.6712 N   0  0  0  0  0  0  0  0  0  0  0  0
    0.6976   -6.4227   -0.4661 N   0  0  0  0  0  0  0  0  0  0  0  0
   -0.0935   -5.4790   -0.0114 N   0  0  0  0  0  0  0  0  0  0  0  0
    0.6424   -4.3332    0.0716 C   0  0  0  0  0  0  0  0  0  0  0  0
   -1.4711   -5.3579    0.3959 C   0  0  0  0  0  0  0  0  0  0  0  0
   -2.3786   -5.8407   -0.7223 C   0  0  0  0  0  0  0  0  0  0  0  0
   -3.8307   -5.5373   -0.3567 C   0  0  2  0  0  0  0  0  0  0  0  0
   -4.0271   -4.1145   -0.2820 N   0  0  0  0  0  0  0  0  0  0  0  0
   -5.2365   -3.3779   -0.2589 C   0  0  0  0  0  0  0  0  0  0  0  0
   -6.2685   -4.0783   -0.3136 O   0  0  0  0  0  0  0  0  0  0  0  0
   -5.3287   -1.9106   -0.1772 C   0  0  1  0  0  0  0  0  0  0  0  0
   -4.0337   -1.3337    0.1152 N   0  0  0  0  0  0  0  0  0  0  0  0
   -3.6495    0.0332    0.1734 C   0  0  0  0  0  0  0  0  0  0  0  0
   -4.4855    0.8821   -0.0237 O   0  0  0  0  0  0  0  0  0  0  0  0
   -2.1841    0.2356    0.4809 C   0  0  1  0  0  0  0  0  0  0  0  0
   -1.6826    1.5487    0.2239 N   0  0  0  0  0  0  0  0  0  0  0  0
   -1.5452    2.0638   -1.1318 C   0  0  0  0  0  0  0  0  0  0  0  0
   -2.0807    1.4019   -2.0013 O   0  0  0  0  0  0  0  0  0  0  0  0
   -0.7780    3.3652   -1.3944 C   0  0  2  0  0  0  0  0  0  0  0  0
   -0.0134    3.4465   -0.1468 N   0  0  0  0  0  0  0  0  0  0  0  0
    1.1691    2.6358   -0.1294 C   0  0  0  0  0  0  0  0  0  0  0  0
    1.5054    2.1301   -1.2000 O   0  0  0  0  0  0  0  0  0  0  0  0
    1.9706    2.4027    1.1320 C   0  0  1  0  0  0  0  0  0  0  0  0
    2.9825    1.3822    0.8055 N   0  0  0  0  0  0  0  0  0  0  0  0
    2.4773    0.1227    0.3771 C   0  0  0  0  0  0  0  0  0  0  0  0
    1.2543    0.0423    0.2428 O   0  0  0  0  0  0  0  0  0  0  0  0
    2.4724    3.6014    1.7929 C   0  0  0  0  0  0  0  0  0  0  0  0
    3.3880    4.4109    0.9164 C   0  0  0  0  0  0  0  0  0  0  0  0
    3.0173    5.4196    0.0746 N   0  0  0  0  0  0  0  0  0  0  0  0
    4.1210    5.8607   -0.5208 C   0  0  0  0  0  0  0  0  0  0  0  0
    5.2160    5.1888   -0.1118 N   0  0  0  0  0  0  0  0  0  0  0  0
    4.7634    4.2709    0.7950 C   0  0  0  0  0  0  0  0  0  0  0  0
   -1.7379    4.4457   -1.6496 C   0  0  0  0  0  0  0  0  0  0  0  0
   -1.2010    5.7807   -1.9350 C   0  0  0  0  0  0  0  0  0  0  0  0
   -0.8709    6.1749   -3.2292 C   0  0  0  0  0  0  0  0  0  0  0  0
   -0.3861    7.4362   -3.5065 C   0  0  0  0  0  0  0  0  0  0  0  0
   -0.2230    8.3316   -2.4703 C   0  0  0  0  0  0  0  0  0  0  0  0
   -0.5513    7.9424   -1.1812 C   0  0  0  0  0  0  0  0  0  0  0  0
   -1.0396    6.6805   -0.8829 C   0  0  0  0  0  0  0  0  0  0  0  0
   -1.8380   -0.3225    1.8153 C   0  0  0  0  0  0  0  0  0  0  0  0
   -2.5670    0.2091    3.0005 C   0  0  0  0  0  0  0  0  0  0  0  0
   -2.4625    1.6675    3.2557 C   0  0  0  0  0  0  0  0  0  0  0  0
   -3.1520    2.0929    4.4865 N   0  0  0  0  0  0  0  0  0  0  0  0
   -4.1041    2.9334    4.5204 C   0  0  0  0  0  0  0  0  0  0  0  0
   -4.7902    3.3668    5.6878 N   0  0  0  0  0  0  0  0  0  0  0  0
   -4.5185    3.4844    3.2512 N   0  0  0  0  0  0  0  0  0  0  0  0
   -5.7842   -1.3566   -1.5483 C   0  0  0  0  0  0  0  0  0  0  0  0
   -7.0709   -1.9646   -1.8952 C   0  0  0  0  0  0  0  0  0  0  0  0
   -8.3210   -1.5383   -1.4358 C   0  0  0  0  0  0  0  0  0  0  0  0
   -9.2784   -2.3877   -1.8976 N   0  0  0  0  0  0  0  0  0  0  0  0
   -8.6735   -3.3541   -2.6467 C   0  0  0  0  0  0  0  0  0  0  0  0
   -7.3261   -3.1081   -2.6543 C   0  0  0  0  0  0  0  0  0  0  0  0
   -6.5088   -3.9681   -3.3914 C   0  0  0  0  0  0  0  0  0  0  0  0
   -7.0869   -5.0176   -4.0732 C   0  0  0  0  0  0  0  0  0  0  0  0
   -8.4257   -5.2641   -4.0654 C   0  0  0  0  0  0  0  0  0  0  0  0
   -9.2267   -4.4079   -3.3331 C   0  0  0  0  0  0  0  0  0  0  0  0
   -4.0327   -6.0147    1.0835 C   0  0  0  0  0  0  0  0  0  0  0  0
   -3.9263   -7.2634    1.2740 O   0  0  0  0  0  0  0  0  0  0  0  0
   -4.3207   -5.1148    2.1301 N   0  0  0  0  0  0  0  0  0  0  0  0
    8.0064   -0.7541   -0.7355 N   0  0  0  0  0  0  0  0  0  0  0  0
    8.8498   -1.7313   -1.3341 C   0  0  0  0  0  0  0  0  0  0  0  0
    8.9325   -2.9190   -0.9473 O   0  0  0  0  0  0  0  0  0  0  0  0
    9.6865   -1.2822   -2.5093 C   0  0  0  0  0  0  0  0  0  0  0  0
   10.2133    1.8966   -0.0699 H   0  0  0  0  0  0  0  0  0  0  0  0
    9.8154    2.6304    1.5830 H   0  0  0  0  0  0  0  0  0  0  0  0
    8.5080    1.9869    0.4382 H   0  0  0  0  0  0  0  0  0  0  0  0
   10.5262    0.6107    2.2139 H   0  0  0  0  0  0  0  0  0  0  0  0
   10.0713   -0.2416    0.7421 H   0  0  0  0  0  0  0  0  0  0  0  0
    8.6884   -0.9212    2.6850 H   0  0  0  0  0  0  0  0  0  0  0  0
    8.3825    0.8233    3.0688 H   0  0  0  0  0  0  0  0  0  0  0  0
    6.8157    0.9810    1.1563 H   0  0  0  0  0  0  0  0  0  0  0  0
    6.4393   -0.3500    2.2571 H   0  0  0  0  0  0  0  0  0  0  0  0
    7.3444   -2.0331    0.7545 H   0  0  0  0  0  0  0  0  0  0  0  0
    4.6982   -1.2990    1.6532 H   0  0  0  0  0  0  0  0  0  0  0  0
    3.3865   -0.9838   -1.1029 H   0  0  0  0  0  0  0  0  0  0  0  0
    2.0452   -2.4239    1.2478 H   0  0  0  0  0  0  0  0  0  0  0  0
    1.4841   -2.0412   -0.3724 H   0  0  0  0  0  0  0  0  0  0  0  0
    3.9024   -3.7998    0.1428 H   0  0  0  0  0  0  0  0  0  0  0  0
    3.1992   -3.2774   -1.4777 H   0  0  0  0  0  0  0  0  0  0  0  0
    0.2847   -3.3633    0.4191 H   0  0  0  0  0  0  0  0  0  0  0  0
   -1.6816   -4.3420    0.6950 H   0  0  0  0  0  0  0  0  0  0  0  0
   -1.6367   -6.0004    1.3023 H   0  0  0  0  0  0  0  0  0  0  0  0
   -2.1174   -5.3265   -1.6457 H   0  0  0  0  0  0  0  0  0  0  0  0
   -2.2850   -6.9398   -0.7700 H   0  0  0  0  0  0  0  0  0  0  0  0
   -4.5531   -6.0620   -0.9414 H   0  0  0  0  0  0  0  0  0  0  0  0
   -3.1746   -3.5413   -0.2891 H   0  0  0  0  0  0  0  0  0  0  0  0
   -6.0396   -1.5803    0.5789 H   0  0  0  0  0  0  0  0  0  0  0  0
   -3.2682   -1.9812    0.3559 H   0  0  0  0  0  0  0  0  0  0  0  0
   -1.7232   -0.4849   -0.2995 H   0  0  0  0  0  0  0  0  0  0  0  0
   -1.3742    2.2359    0.9244 H   0  0  0  0  0  0  0  0  0  0  0  0
   -0.1210    3.0724   -2.2421 H   0  0  0  0  0  0  0  0  0  0  0  0
   -0.2034    3.9861    0.6647 H   0  0  0  0  0  0  0  0  0  0  0  0
    1.1757    1.9050    1.7809 H   0  0  0  0  0  0  0  0  0  0  0  0
    3.9760    1.4883    0.8533 H   0  0  0  0  0  0  0  0  0  0  0  0
    3.0017    3.3092    2.7293 H   0  0  0  0  0  0  0  0  0  0  0  0
    1.5994    4.2186    2.1184 H   0  0  0  0  0  0  0  0  0  0  0  0
    2.0117    5.7036   -0.0026 H   0  0  0  0  0  0  0  0  0  0  0  0
    4.0990    6.6751   -1.2538 H   0  0  0  0  0  0  0  0  0  0  0  0
    5.3111    3.5437    1.3498 H   0  0  0  0  0  0  0  0  0  0  0  0
   -2.4169    4.0858   -2.4895 H   0  0  0  0  0  0  0  0  0  0  0  0
   -2.4788    4.5873   -0.8066 H   0  0  0  0  0  0  0  0  0  0  0  0
   -0.9990    5.4749   -4.0715 H   0  0  0  0  0  0  0  0  0  0  0  0
   -0.1199    7.7721   -4.5126 H   0  0  0  0  0  0  0  0  0  0  0  0
    0.1592    9.3474   -2.6452 H   0  0  0  0  0  0  0  0  0  0  0  0
   -0.4395    8.6081   -0.3170 H   0  0  0  0  0  0  0  0  0  0  0  0
   -1.2961    6.3649    0.1183 H   0  0  0  0  0  0  0  0  0  0  0  0
   -1.9246   -1.4323    1.7716 H   0  0  0  0  0  0  0  0  0  0  0  0
   -0.7601   -0.1243    1.9892 H   0  0  0  0  0  0  0  0  0  0  0  0
   -2.1189   -0.3038    3.9047 H   0  0  0  0  0  0  0  0  0  0  0  0
   -3.6418   -0.0834    3.0254 H   0  0  0  0  0  0  0  0  0  0  0  0
   -1.4446    2.0605    3.3184 H   0  0  0  0  0  0  0  0  0  0  0  0
   -3.0483    2.2269    2.4536 H   0  0  0  0  0  0  0  0  0  0  0  0
   -5.8433    3.2300    5.6674 H   0  0  0  0  0  0  0  0  0  0  0  0
   -4.3032    3.7927    6.5061 H   0  0  0  0  0  0  0  0  0  0  0  0
   -5.3155    3.0277    2.7114 H   0  0  0  0  0  0  0  0  0  0  0  0
   -4.0217    4.3293    2.8860 H   0  0  0  0  0  0  0  0  0  0  0  0
   -4.9946   -1.4754   -2.2900 H   0  0  0  0  0  0  0  0  0  0  0  0
   -5.9351   -0.2648   -1.3863 H   0  0  0  0  0  0  0  0  0  0  0  0
   -8.5595   -0.6898   -0.8189 H   0  0  0  0  0  0  0  0  0  0  0  0
  -10.3230   -2.3089   -1.6988 H   0  0  0  0  0  0  0  0  0  0  0  0
   -5.4393   -3.7677   -3.4000 H   0  0  0  0  0  0  0  0  0  0  0  0
   -6.4189   -5.6699   -4.6305 H   0  0  0  0  0  0  0  0  0  0  0  0
   -8.8732   -6.0973   -4.6075 H   0  0  0  0  0  0  0  0  0  0  0  0
  -10.3032   -4.5634   -3.2955 H   0  0  0  0  0  0  0  0  0  0  0  0
   -3.5671   -4.6876    2.7094 H   0  0  0  0  0  0  0  0  0  0  0  0
   -5.3038   -4.8250    2.3872 H   0  0  0  0  0  0  0  0  0  0  0  0
    7.9994    0.2369   -1.1290 H   0  0  0  0  0  0  0  0  0  0  0  0
    9.3040   -0.3423   -2.9416 H   0  0  0  0  0  0  0  0  0  0  0  0
    9.6707   -2.1042   -3.2384 H   0  0  0  0  0  0  0  0  0  0  0  0
   10.7305   -1.1907   -2.1521 H   0  0  0  0  0  0  0  0  0  0  0  0
  1  2  1  0
  2  3  1  0
  3  4  1  0
  4  5  1  0
  5  6  1  0
  6  7  2  0
  6  8  1  0
  8  9  1  0
  9 10  1  0
 10 11  1  0
 11 12  1  0
 12 13  1  0
 13 14  2  0
 14 15  1  0
 15 16  1  0
 15 17  1  0
 17 18  1  0
 18 19  1  0
 19 20  1  0
 20 21  1  0
 21 22  2  0
 21 23  1  0
 23 24  1  0
 24 25  1  0
 25 26  2  0
 25 27  1  0
 27 28  1  0
 28 29  1  0
 29 30  2  0
 29 31  1  0
 31 32  1  0
 32 33  1  0
 33 34  2  0
 33 35  1  0
 35 36  1  0
 36 37  1  0
 37 38  2  0
 35 39  1  0
 39 40  1  0
 40 41  1  0
 41 42  1  0
 42 43  2  0
 43 44  1  0
 31 45  1  0
 45 46  1  0
 46 47  2  0
 47 48  1  0
 48 49  2  0
 49 50  1  0
 50 51  2  0
 27 52  1  0
 52 53  1  0
 53 54  1  0
 54 55  1  0
 55 56  2  3
 56 57  1  0
 56 58  1  0
 23 59  1  0
 59 60  1  0
 60 61  2  0
 61 62  1  0
 62 63  1  0
 63 64  2  0
 64 65  1  0
 65 66  2  0
 66 67  1  0
 67 68  2  0
 19 69  1  0
 69 70  2  0
 69 71  1  0
  5 72  1  0
 72 73  1  0
 73 74  2  0
 73 75  1  0
 37  9  1  0
 44 40  2  0
 51 46  1  0
 64 60  1  0
 16 12  2  0
 68 63  1  0
  1 76  1  0
  1 77  1  0
  1 78  1  0
  2 79  1  0
  2 80  1  0
  3 81  1  0
  3 82  1  0
  4 83  1  0
  4 84  1  0
  5 85  1  1
  8 86  1  0
  9 87  1  6
 10 88  1  0
 10 89  1  0
 11 90  1  0
 11 91  1  0
 16 92  1  0
 17 93  1  0
 17 94  1  0
 18 95  1  0
 18 96  1  0
 19 97  1  6
 20 98  1  0
 23 99  1  1
 24100  1  0
 27101  1  6
 28102  1  0
 31103  1  6
 32104  1  0
 35105  1  1
 36106  1  0
 39107  1  0
 39108  1  0
 41109  1  0
 42110  1  0
 44111  1  0
 45112  1  0
 45113  1  0
 47114  1  0
 48115  1  0
 49116  1  0
 50117  1  0
 51118  1  0
 52119  1  0
 52120  1  0
 53121  1  0
 53122  1  0
 54123  1  0
 54124  1  0
 57125  1  0
 57126  1  0
 58127  1  0
 58128  1  0
 59129  1  0
 59130  1  0
 61131  1  0
 62132  1  0
 65133  1  0
 66134  1  0
 67135  1  0
 68136  1  0
 71137  1  0
 71138  1  0
 72139  1  0
 75140  1  0
 75141  1  0
 75142  1  0
M  END
>  <Ligand ID>  (1) 
LIG0001789

>  <Ligand>  (1) 
CHEMBL3358551

>  <SMILES>  (1) 
CCCC[C@@H](C(=O)N[C@H]1CCc2nnn(c2)CC[C@H](NC(=O)[C@@H](NC(=O)[C@@H](NC(=O)[C@H](NC(=O)[C@@H](NC1=O)Cc1[nH]cnc1)Cc1ccccc1)CCCN=C(N)N)Cc1c[nH]c2c1cccc2)C(=O)N)NC(=O)C

>  <CID>  (1) 
118722943.0

>  <ChEMBL ID>  (1) 
nan

>  <InChiKey>  (1) 
WHCCJAAINZRHAM-PCYFNTAWSA-N

>  <InChi>  (1) 
InChI=1S/C50H67N17O8/c1-3-4-14-37(58-29(2)68)44(70)61-39-18-17-32-27-67(66-65-32)21-19-36(43(51)69)59-48(74)41(23-31-25-56-35-15-9-8-13-34(31)35)63-45(71)38(16-10-20-55-50(52)53)60-47(73)40(22-30-11-6-5-7-12-30)62-49(75)42(64-46(39)72)24-33-26-54-28-57-33/h5-9,11-13,15,25-28,36-42,56H,3-4,10,14,16-24H2,1-2H3,(H2,51,69)(H,54,57)(H,58,68)(H,59,74)(H,60,73)(H,61,70)(H,62,75)(H,63,71)(H,64,72)(H4,52,53,55)/t36-,37-,38-,39-,40+,41-,42-/m0/s1

>  <IUPAC Name>  (1) 
(4S,7S,10S,13R,16S,19S)-19-[[(2S)-2-acetamidohexanoyl]amino]-13-benzyl-10-[3-(diaminomethylideneamino)propyl]-16-(1H-imidazol-5-ylmethyl)-7-(1H-indol-3-ylmethyl)-6,9,12,15,18-pentaoxo-1,5,8,11,14,17,23,24-octazabicyclo[20.2.1]pentacosa-22(25),23-diene-4-carboxamide

$$$$
