
     RDKit          3D

 30 31  0  0  0  0  0  0  0  0999 V2000
   -0.5696    2.5708   -0.4457 C   0  0  0  0  0  0  0  0  0  0  0  0
   -1.0181    1.2790    0.1305 C   0  0  1  0  0  0  0  0  0  0  0  0
   -2.0695    0.7006   -0.7934 C   0  0  0  0  0  0  0  0  0  0  0  0
   -2.8635   -0.3306   -0.2285 N   0  0  0  0  0  0  0  0  0  0  0  0
   -2.2674   -1.6365   -0.1926 C   0  0  0  0  0  0  0  0  0  0  0  0
   -1.3695   -1.7434    1.0222 C   0  0  0  0  0  0  0  0  0  0  0  0
   -0.0917   -1.0412    0.6378 C   0  0  0  0  0  0  0  0  0  0  0  0
    0.0432    0.2721    0.2530 C   0  0  0  0  0  0  0  0  0  0  0  0
    1.3132    0.7144   -0.0580 C   0  0  0  0  0  0  0  0  0  0  0  0
    2.4186   -0.1058    0.0062 C   0  0  0  0  0  0  0  0  0  0  0  0
    2.2319   -1.4282    0.4012 C   0  0  0  0  0  0  0  0  0  0  0  0
    0.9814   -1.9048    0.7188 C   0  0  0  0  0  0  0  0  0  0  0  0
    3.7966    0.3755   -0.3315 C   0  0  0  0  0  0  0  0  0  0  0  0
    4.2651    1.2265    0.6585 F   0  0  0  0  0  0  0  0  0  0  0  0
    4.6471   -0.6916   -0.3658 F   0  0  0  0  0  0  0  0  0  0  0  0
    3.8423    1.0372   -1.5320 F   0  0  0  0  0  0  0  0  0  0  0  0
   -0.2481    2.4113   -1.4930 H   0  0  0  0  0  0  0  0  0  0  0  0
   -1.5009    3.2031   -0.5453 H   0  0  0  0  0  0  0  0  0  0  0  0
    0.1080    3.1758    0.1647 H   0  0  0  0  0  0  0  0  0  0  0  0
   -1.4455    1.4314    1.1321 H   0  0  0  0  0  0  0  0  0  0  0  0
   -1.6299    0.3656   -1.7376 H   0  0  0  0  0  0  0  0  0  0  0  0
   -2.7564    1.5567   -1.0258 H   0  0  0  0  0  0  0  0  0  0  0  0
   -3.4585   -0.0762    0.5610 H   0  0  0  0  0  0  0  0  0  0  0  0
   -3.0304   -2.4331   -0.1627 H   0  0  0  0  0  0  0  0  0  0  0  0
   -1.6760   -1.7764   -1.0967 H   0  0  0  0  0  0  0  0  0  0  0  0
   -1.8108   -1.0755    1.8131 H   0  0  0  0  0  0  0  0  0  0  0  0
   -1.1850   -2.7544    1.3728 H   0  0  0  0  0  0  0  0  0  0  0  0
    1.4543    1.7316   -0.3615 H   0  0  0  0  0  0  0  0  0  0  0  0
    3.0695   -2.1104    0.4667 H   0  0  0  0  0  0  0  0  0  0  0  0
    0.8196   -2.9435    1.0313 H   0  0  0  0  0  0  0  0  0  0  0  0
  1  2  1  0
  2  3  1  0
  3  4  1  0
  4  5  1  0
  5  6  1  0
  6  7  1  0
  7  8  2  0
  8  9  1  0
  9 10  2  0
 10 11  1  0
 11 12  2  0
 10 13  1  0
 13 14  1  0
 13 15  1  0
 13 16  1  0
  8  2  1  0
 12  7  1  0
  1 17  1  0
  1 18  1  0
  1 19  1  0
  2 20  1  1
  3 21  1  0
  3 22  1  0
  4 23  1  0
  5 24  1  0
  5 25  1  0
  6 26  1  0
  6 27  1  0
  9 28  1  0
 11 29  1  0
 12 30  1  0
M  END
>  <Ligand ID>  (1) 
LIG0002314

>  <Ligand>  (1) 
CHEMBL254009

>  <SMILES>  (1) 
C[C@H]1CNCCc2c1cc(cc2)C(F)(F)F

>  <CID>  (1) 
24773809.0

>  <ChEMBL ID>  (1) 
nan

>  <InChiKey>  (1) 
GBYLNYMTYZRQLE-QMMMGPOBSA-N

>  <InChi>  (1) 
InChI=1S/C12H14F3N/c1-8-7-16-5-4-9-2-3-10(6-11(8)9)12(13,14)15/h2-3,6,8,16H,4-5,7H2,1H3/t8-/m0/s1

>  <IUPAC Name>  (1) 
(5R)-5-methyl-7-(trifluoromethyl)-2,3,4,5-tetrahydro-1H-3-benzazepine

$$$$
