
     RDKit          3D

 51 54  0  0  0  0  0  0  0  0999 V2000
   -0.2037   -2.5807    2.2553 C   0  0  0  0  0  0  0  0  0  0  0  0
   -0.1347   -1.5795    1.2283 O   0  0  0  0  0  0  0  0  0  0  0  0
    0.4219   -0.3398    1.5150 C   0  0  0  0  0  0  0  0  0  0  0  0
    0.8504   -0.1273    2.6657 O   0  0  0  0  0  0  0  0  0  0  0  0
    0.4677    0.6669    0.4044 C   0  0  0  0  0  0  0  0  0  0  0  0
   -0.9632    0.8302    0.0630 C   0  0  0  0  0  0  0  0  0  0  0  0
   -1.4547    0.8693   -1.1150 N   0  0  0  0  0  0  0  0  0  0  0  0
   -0.5639    0.7465   -2.2094 C   0  0  0  0  0  0  0  0  0  0  0  0
   -1.0033    0.7799   -3.3908 O   0  0  0  0  0  0  0  0  0  0  0  0
    0.8221    0.5866   -1.9379 N   0  0  0  0  0  0  0  0  0  0  0  0
    1.2936    0.1134   -0.6538 C   0  0  0  0  0  0  0  0  0  0  0  0
    2.7184    0.1659   -0.6562 C   0  0  0  0  0  0  0  0  0  0  0  0
    3.5189   -0.9152   -0.2430 C   0  0  0  0  0  0  0  0  0  0  0  0
    4.8856   -0.8618   -0.2544 C   0  0  0  0  0  0  0  0  0  0  0  0
    5.7314   -2.0097    0.1852 C   0  0  0  0  0  0  0  0  0  0  0  0
    5.5530    0.2681   -0.6765 C   0  0  0  0  0  0  0  0  0  0  0  0
    4.7905    1.3412   -1.0863 C   0  0  0  0  0  0  0  0  0  0  0  0
    3.3878    1.2962   -1.0782 C   0  0  0  0  0  0  0  0  0  0  0  0
    2.7090    2.5297   -1.5353 C   0  0  0  0  0  0  0  0  0  0  0  0
   -1.9274    0.9651    1.2124 C   0  0  0  0  0  0  0  0  0  0  0  0
   -3.2817    1.1197    0.7283 N   0  0  0  0  0  0  0  0  0  0  0  0
   -3.8181    2.3472    0.4687 C   0  0  0  0  0  0  0  0  0  0  0  0
   -5.0861    2.1657    0.0347 N   0  0  0  0  0  0  0  0  0  0  0  0
   -5.3551    0.8411    0.0176 C   0  0  0  0  0  0  0  0  0  0  0  0
   -4.2133    0.1846    0.4562 C   0  0  0  0  0  0  0  0  0  0  0  0
   -4.1637   -1.2018    0.5543 C   0  0  0  0  0  0  0  0  0  0  0  0
   -5.2908   -1.9159    0.2008 C   0  0  0  0  0  0  0  0  0  0  0  0
   -6.4430   -1.2653   -0.2410 C   0  0  0  0  0  0  0  0  0  0  0  0
   -6.4835    0.1298   -0.3365 C   0  0  0  0  0  0  0  0  0  0  0  0
    0.8168   -2.9210    2.5362 H   0  0  0  0  0  0  0  0  0  0  0  0
   -0.6190   -2.0331    3.1516 H   0  0  0  0  0  0  0  0  0  0  0  0
   -0.8621   -3.4001    1.9611 H   0  0  0  0  0  0  0  0  0  0  0  0
    0.8601    1.5725    0.9168 H   0  0  0  0  0  0  0  0  0  0  0  0
    1.4688    0.8303   -2.7380 H   0  0  0  0  0  0  0  0  0  0  0  0
    1.0422   -0.9991   -0.6983 H   0  0  0  0  0  0  0  0  0  0  0  0
    3.0191   -1.8295    0.0989 H   0  0  0  0  0  0  0  0  0  0  0  0
    5.9632   -2.0021    1.2600 H   0  0  0  0  0  0  0  0  0  0  0  0
    6.6396   -2.0255   -0.4481 H   0  0  0  0  0  0  0  0  0  0  0  0
    5.1712   -2.9545   -0.0606 H   0  0  0  0  0  0  0  0  0  0  0  0
    6.6316    0.3105   -0.6862 H   0  0  0  0  0  0  0  0  0  0  0  0
    5.3184    2.2345   -1.4202 H   0  0  0  0  0  0  0  0  0  0  0  0
    3.2438    3.3664   -0.9802 H   0  0  0  0  0  0  0  0  0  0  0  0
    2.8692    2.8089   -2.5736 H   0  0  0  0  0  0  0  0  0  0  0  0
    1.6796    2.6576   -1.1397 H   0  0  0  0  0  0  0  0  0  0  0  0
   -1.8189    0.0277    1.7991 H   0  0  0  0  0  0  0  0  0  0  0  0
   -1.6244    1.7914    1.8884 H   0  0  0  0  0  0  0  0  0  0  0  0
   -3.3043    3.3094    0.5926 H   0  0  0  0  0  0  0  0  0  0  0  0
   -3.2598   -1.7063    0.9004 H   0  0  0  0  0  0  0  0  0  0  0  0
   -5.3080   -2.9895    0.2572 H   0  0  0  0  0  0  0  0  0  0  0  0
   -7.3283   -1.8564   -0.5169 H   0  0  0  0  0  0  0  0  0  0  0  0
   -7.3630    0.6579   -0.6759 H   0  0  0  0  0  0  0  0  0  0  0  0
  1  2  1  0
  2  3  1  0
  3  4  2  0
  3  5  1  0
  5  6  1  0
  6  7  2  0
  7  8  1  0
  8  9  2  0
  8 10  1  0
 10 11  1  0
 11 12  1  0
 12 13  2  0
 13 14  1  0
 14 15  1  0
 14 16  2  0
 16 17  1  0
 17 18  2  0
 18 19  1  0
  6 20  1  0
 20 21  1  0
 21 22  1  0
 22 23  2  0
 23 24  1  0
 24 25  2  0
 25 26  1  0
 26 27  2  0
 27 28  1  0
 28 29  2  0
 11  5  1  0
 18 12  1  0
 25 21  1  0
 29 24  1  0
  1 30  1  0
  1 31  1  0
  1 32  1  0
  5 33  1  0
 10 34  1  0
 11 35  1  0
 13 36  1  0
 15 37  1  0
 15 38  1  0
 15 39  1  0
 16 40  1  0
 17 41  1  0
 19 42  1  0
 19 43  1  0
 19 44  1  0
 20 45  1  0
 20 46  1  0
 22 47  1  0
 26 48  1  0
 27 49  1  0
 28 50  1  0
 29 51  1  0
M  END
>  <Ligand ID>  (1) 
LIG0001713

>  <Ligand>  (1) 
BDBM76106

>  <SMILES>  (1) 
COC(=O)C1C(=NC(=O)NC1c1cc(C)ccc1C)Cn1cnc2c1cccc2

>  <CID>  (1) 
91898155.0

>  <ChEMBL ID>  (1) 
nan

>  <InChiKey>  (1) 
XLHIDMIWDLJMDO-UHFFFAOYSA-N

>  <InChi>  (1) 
InChI=1S/C22H22N4O3/c1-13-8-9-14(2)15(10-13)20-19(21(27)29-3)17(24-22(28)25-20)11-26-12-23-16-6-4-5-7-18(16)26/h4-10,12,19-20H,11H2,1-3H3,(H,25,28)

>  <IUPAC Name>  (1) 
methyl 4-(benzimidazol-1-ylmethyl)-6-(2,5-dimethylphenyl)-2-oxo-5,6-dihydro-1H-pyrimidine-5-carboxylate

$$$$
