
     RDKit          3D

 44 46  0  0  0  0  0  0  0  0999 V2000
   -1.4306   -0.3845   -1.0280 C   0  0  0  0  0  0  0  0  0  0  0  0
   -1.9348    0.4553    0.0411 N   0  0  0  0  0  0  0  0  0  0  0  0
   -1.0835    1.2800    0.8280 C   0  0  0  0  0  0  0  0  0  0  0  0
   -1.5475    2.0085    1.7605 O   0  0  0  0  0  0  0  0  0  0  0  0
    0.3616    1.3517    0.6288 C   0  0  0  0  0  0  0  0  0  0  0  0
    1.0132    2.5047    0.3322 N   0  0  0  0  0  0  0  0  0  0  0  0
    2.2935    2.2305    0.2179 O   0  0  0  0  0  0  0  0  0  0  0  0
    2.5109    0.9579    0.4246 C   0  0  0  0  0  0  0  0  0  0  0  0
    1.3042    0.3457    0.6930 C   0  0  0  0  0  0  0  0  0  0  0  0
    3.8265    0.3294    0.3711 C   0  0  0  0  0  0  0  0  0  0  0  0
    4.9023    1.1441    0.0825 C   0  0  0  0  0  0  0  0  0  0  0  0
    6.1917    0.6253    0.0121 C   0  0  0  0  0  0  0  0  0  0  0  0
    6.3914   -0.7228    0.2348 C   0  0  0  0  0  0  0  0  0  0  0  0
    5.3019   -1.5184    0.5216 C   0  0  0  0  0  0  0  0  0  0  0  0
    4.0077   -1.0107    0.5946 C   0  0  0  0  0  0  0  0  0  0  0  0
    7.7800   -1.2337    0.1503 C   0  0  0  0  0  0  0  0  0  0  0  0
   -3.3386    0.4469    0.3052 C   0  0  0  0  0  0  0  0  0  0  0  0
   -4.1273    0.8617   -0.9073 C   0  0  0  0  0  0  0  0  0  0  0  0
   -5.5857    0.9505   -0.4381 C   0  0  0  0  0  0  0  0  0  0  0  0
   -6.0325   -0.4751   -0.1880 C   0  0  0  0  0  0  0  0  0  0  0  0
   -5.2622   -1.0017    0.9882 C   0  0  0  0  0  0  0  0  0  0  0  0
   -3.7665   -0.9423    0.7516 C   0  0  0  0  0  0  0  0  0  0  0  0
   -1.5024   -1.4309   -0.6804 H   0  0  0  0  0  0  0  0  0  0  0  0
   -0.3589   -0.1243   -1.2366 H   0  0  0  0  0  0  0  0  0  0  0  0
   -1.9503   -0.2040   -1.9799 H   0  0  0  0  0  0  0  0  0  0  0  0
    1.1075   -0.6753    0.9067 H   0  0  0  0  0  0  0  0  0  0  0  0
    4.8036    2.2102   -0.1010 H   0  0  0  0  0  0  0  0  0  0  0  0
    7.0206    1.2795   -0.2152 H   0  0  0  0  0  0  0  0  0  0  0  0
    5.5042   -2.5808    0.6912 H   0  0  0  0  0  0  0  0  0  0  0  0
    3.1678   -1.6471    0.8200 H   0  0  0  0  0  0  0  0  0  0  0  0
    7.9261   -2.0299    0.8984 H   0  0  0  0  0  0  0  0  0  0  0  0
    8.5025   -0.4248    0.3425 H   0  0  0  0  0  0  0  0  0  0  0  0
    7.9849   -1.5799   -0.8842 H   0  0  0  0  0  0  0  0  0  0  0  0
   -3.6329    1.1184    1.1381 H   0  0  0  0  0  0  0  0  0  0  0  0
   -3.7814    1.8134   -1.3060 H   0  0  0  0  0  0  0  0  0  0  0  0
   -4.1154    0.0165   -1.6401 H   0  0  0  0  0  0  0  0  0  0  0  0
   -5.6087    1.4886    0.5532 H   0  0  0  0  0  0  0  0  0  0  0  0
   -6.1955    1.4931   -1.1682 H   0  0  0  0  0  0  0  0  0  0  0  0
   -5.7878   -1.0908   -1.0788 H   0  0  0  0  0  0  0  0  0  0  0  0
   -7.1113   -0.5373    0.0628 H   0  0  0  0  0  0  0  0  0  0  0  0
   -5.5362   -2.0537    1.1691 H   0  0  0  0  0  0  0  0  0  0  0  0
   -5.4875   -0.3902    1.8872 H   0  0  0  0  0  0  0  0  0  0  0  0
   -3.2816   -1.1124    1.7398 H   0  0  0  0  0  0  0  0  0  0  0  0
   -3.4427   -1.7412    0.0826 H   0  0  0  0  0  0  0  0  0  0  0  0
  1  2  1  0
  2  3  1  0
  3  4  2  0
  3  5  1  0
  5  6  2  0
  6  7  1  0
  7  8  1  0
  8  9  2  0
  8 10  1  0
 10 11  2  0
 11 12  1  0
 12 13  2  0
 13 14  1  0
 14 15  2  0
 13 16  1  0
  2 17  1  0
 17 18  1  0
 18 19  1  0
 19 20  1  0
 20 21  1  0
 21 22  1  0
  9  5  1  0
 15 10  1  0
 22 17  1  0
  1 23  1  0
  1 24  1  0
  1 25  1  0
  9 26  1  0
 11 27  1  0
 12 28  1  0
 14 29  1  0
 15 30  1  0
 16 31  1  0
 16 32  1  0
 16 33  1  0
 17 34  1  0
 18 35  1  0
 18 36  1  0
 19 37  1  0
 19 38  1  0
 20 39  1  0
 20 40  1  0
 21 41  1  0
 21 42  1  0
 22 43  1  0
 22 44  1  0
M  END
>  <Ligand ID>  (1) 
LIG0003804

>  <Ligand>  (1) 
AC1LM0B5

>  <SMILES>  (1) 
CN(C(=O)c1noc(c1)c1ccc(cc1)C)C1CCCCC1

>  <CID>  (1) 
1093791.0

>  <ChEMBL ID>  (1) 
nan

>  <InChiKey>  (1) 
HFUHHXLCJAJWFV-UHFFFAOYSA-N

>  <InChi>  (1) 
InChI=1S/C18H22N2O2/c1-13-8-10-14(11-9-13)17-12-16(19-22-17)18(21)20(2)15-6-4-3-5-7-15/h8-12,15H,3-7H2,1-2H3

>  <IUPAC Name>  (1) 
N-cyclohexyl-N-methyl-5-(4-methylphenyl)-1,2-oxazole-3-carboxamide

$$$$
