
     RDKit          3D

 29 28  0  0  0  0  0  0  0  0999 V2000
    4.7662    1.6941   -0.7220 O   0  0  0  0  0  0  0  0  0  0  0  0
    4.2443    1.0550    0.2021 C   0  0  0  0  0  0  0  0  0  0  0  0
    2.7361    0.8291    0.1327 C   0  0  0  0  0  0  0  0  0  0  0  0
    2.5720   -0.3164   -0.7769 C   0  0  0  0  0  0  0  0  0  0  0  0
    1.2914   -0.8612   -1.1606 C   0  0  0  0  0  0  0  0  0  0  0  0
    0.3026   -1.4394   -0.2716 C   0  0  0  0  0  0  0  0  0  0  0  0
   -0.2694   -0.5428    0.7952 C   0  0  0  0  0  0  0  0  0  0  0  0
   -0.8863    0.6136    0.0971 C   0  0  0  0  0  0  0  0  0  0  0  0
   -2.1402    0.9749    0.1478 C   0  0  0  0  0  0  0  0  0  0  0  0
   -3.2305    0.3292    0.9012 C   0  0  0  0  0  0  0  0  0  0  0  0
   -4.2787   -0.1007   -0.1338 C   0  0  0  0  0  0  0  0  0  0  0  0
    4.8310    0.6705    1.0271 H   0  0  0  0  0  0  0  0  0  0  0  0
    2.4699    0.7096    1.1848 H   0  0  0  0  0  0  0  0  0  0  0  0
    2.2835    1.7606   -0.3188 H   0  0  0  0  0  0  0  0  0  0  0  0
    3.2495   -1.1350   -0.3495 H   0  0  0  0  0  0  0  0  0  0  0  0
    3.1626   -0.0477   -1.7177 H   0  0  0  0  0  0  0  0  0  0  0  0
    0.7299   -0.0795   -1.7898 H   0  0  0  0  0  0  0  0  0  0  0  0
    1.4945   -1.6415   -1.9797 H   0  0  0  0  0  0  0  0  0  0  0  0
   -0.6175   -1.7604   -0.8614 H   0  0  0  0  0  0  0  0  0  0  0  0
    0.5915   -2.3820    0.2439 H   0  0  0  0  0  0  0  0  0  0  0  0
    0.4855   -0.3043    1.5354 H   0  0  0  0  0  0  0  0  0  0  0  0
   -1.0762   -1.1621    1.3055 H   0  0  0  0  0  0  0  0  0  0  0  0
   -0.1917    1.2126   -0.5194 H   0  0  0  0  0  0  0  0  0  0  0  0
   -2.4251    1.8666   -0.4394 H   0  0  0  0  0  0  0  0  0  0  0  0
   -2.9682   -0.5582    1.4698 H   0  0  0  0  0  0  0  0  0  0  0  0
   -3.6778    1.1404    1.5452 H   0  0  0  0  0  0  0  0  0  0  0  0
   -4.7581    0.8425   -0.4773 H   0  0  0  0  0  0  0  0  0  0  0  0
   -3.7123   -0.5849   -0.9642 H   0  0  0  0  0  0  0  0  0  0  0  0
   -4.9786   -0.7825    0.3843 H   0  0  0  0  0  0  0  0  0  0  0  0
  1  2  2  0
  2  3  1  0
  3  4  1  0
  4  5  1  0
  5  6  1  0
  6  7  1  0
  7  8  1  0
  8  9  2  0
  9 10  1  0
 10 11  1  0
  2 12  1  0
  3 13  1  0
  3 14  1  0
  4 15  1  0
  4 16  1  0
  5 17  1  0
  5 18  1  0
  6 19  1  0
  6 20  1  0
  7 21  1  0
  7 22  1  0
  8 23  1  0
  9 24  1  0
 10 25  1  0
 10 26  1  0
 11 27  1  0
 11 28  1  0
 11 29  1  0
M  END
>  <Ligand ID>  (1) 
LIG0002099

>  <Ligand>  (1) 
Z-7-Decenal

>  <SMILES>  (1) 
O=CCCCCC/C=C\CC

>  <CID>  (1) 
5362695.0

>  <ChEMBL ID>  (1) 
nan

>  <InChiKey>  (1) 
UZFFFFWQKMPLAC-ARJAWSKDSA-N

>  <InChi>  (1) 
InChI=1S/C10H18O/c1-2-3-4-5-6-7-8-9-10-11/h3-4,10H,2,5-9H2,1H3/b4-3-

>  <IUPAC Name>  (1) 
(Z)-dec-7-enal

$$$$
