
     RDKit          3D

 43 44  0  0  0  0  0  0  0  0999 V2000
   -5.3352    0.2485   -1.4950 C   0  0  0  0  0  0  0  0  0  0  0  0
   -5.4822   -0.8843   -0.4937 C   0  0  0  0  0  0  0  0  0  0  0  0
   -4.9544   -0.3732    0.8470 C   0  0  0  0  0  0  0  0  0  0  0  0
   -3.5305   -0.0071    0.6257 C   0  0  0  0  0  0  0  0  0  0  0  0
   -3.1259    1.2507    0.2307 C   0  0  0  0  0  0  0  0  0  0  0  0
   -1.7931    1.5537    0.0351 C   0  0  0  0  0  0  0  0  0  0  0  0
   -1.4815    2.7140   -0.3243 O   0  0  0  0  0  0  0  0  0  0  0  0
   -0.8342    0.6192    0.2262 N   0  0  0  0  0  0  0  0  0  0  0  0
   -1.2375   -0.6039    0.6111 C   0  0  0  0  0  0  0  0  0  0  0  0
   -0.3993   -1.5180    0.8062 O   0  0  0  0  0  0  0  0  0  0  0  0
   -2.5384   -0.9205    0.8080 N   0  0  0  0  0  0  0  0  0  0  0  0
    0.5176    0.9352    0.0254 C   0  0  2  0  0  0  0  0  0  0  0  0
    1.1982    0.1169   -0.8732 O   0  0  0  0  0  0  0  0  0  0  0  0
    2.5048    0.5280   -0.8406 C   0  0  1  0  0  0  0  0  0  0  0  0
    2.7013    1.3036    0.4690 C   0  0  2  0  0  0  0  0  0  0  0  0
    1.4412    0.8238    1.2108 C   0  0  1  0  0  0  0  0  0  0  0  0
    1.1059    1.6324    2.2655 O   0  0  0  0  0  0  0  0  0  0  0  0
    2.5110    2.6660    0.2529 O   0  0  0  0  0  0  0  0  0  0  0  0
    3.3912   -0.7134   -0.6870 C   0  0  0  0  0  0  0  0  0  0  0  0
    4.7395   -0.3400   -0.6491 O   0  0  0  0  0  0  0  0  0  0  0  0
    5.7057   -1.7037   -0.4811 P   0  0  0  0  0  0  0  0  0  0  0  0
    6.4955   -2.0102   -1.7315 O   0  0  0  0  0  0  0  0  0  0  0  0
    6.7268   -1.4210    0.8487 O   0  0  0  0  0  0  0  0  0  0  0  0
    4.7600   -3.0644   -0.1019 O   0  0  0  0  0  0  0  0  0  0  0  0
   -4.2821    0.3595   -1.7552 H   0  0  0  0  0  0  0  0  0  0  0  0
   -5.8525   -0.0907   -2.4171 H   0  0  0  0  0  0  0  0  0  0  0  0
   -5.7934    1.1400   -1.0518 H   0  0  0  0  0  0  0  0  0  0  0  0
   -4.8488   -1.7081   -0.8755 H   0  0  0  0  0  0  0  0  0  0  0  0
   -6.5303   -1.2110   -0.3717 H   0  0  0  0  0  0  0  0  0  0  0  0
   -5.0616   -1.1566    1.6213 H   0  0  0  0  0  0  0  0  0  0  0  0
   -5.4680    0.5607    1.1431 H   0  0  0  0  0  0  0  0  0  0  0  0
   -3.8637    2.0237    0.0681 H   0  0  0  0  0  0  0  0  0  0  0  0
   -2.8256   -1.8745    1.1060 H   0  0  0  0  0  0  0  0  0  0  0  0
    0.6412    1.9679   -0.3678 H   0  0  0  0  0  0  0  0  0  0  0  0
    2.8175    1.1111   -1.7073 H   0  0  0  0  0  0  0  0  0  0  0  0
    3.6185    1.0419    0.9903 H   0  0  0  0  0  0  0  0  0  0  0  0
    1.6765   -0.2273    1.4735 H   0  0  0  0  0  0  0  0  0  0  0  0
    1.0583    1.1107    3.1240 H   0  0  0  0  0  0  0  0  0  0  0  0
    3.0078    3.0198   -0.5194 H   0  0  0  0  0  0  0  0  0  0  0  0
    3.2714   -1.4052   -1.5452 H   0  0  0  0  0  0  0  0  0  0  0  0
    3.1395   -1.2677    0.2255 H   0  0  0  0  0  0  0  0  0  0  0  0
    6.8428   -0.4633    1.0072 H   0  0  0  0  0  0  0  0  0  0  0  0
    5.3662   -3.7631    0.2548 H   0  0  0  0  0  0  0  0  0  0  0  0
  1  2  1  0
  2  3  1  0
  3  4  1  0
  4  5  2  0
  5  6  1  0
  6  7  2  0
  6  8  1  0
  8  9  1  0
  9 10  2  0
  9 11  1  0
  8 12  1  0
 12 13  1  0
 13 14  1  0
 14 15  1  0
 15 16  1  0
 16 17  1  0
 15 18  1  0
 14 19  1  0
 19 20  1  0
 20 21  1  0
 21 22  2  0
 21 23  1  0
 21 24  1  0
 11  4  1  0
 16 12  1  0
  1 25  1  0
  1 26  1  0
  1 27  1  0
  2 28  1  0
  2 29  1  0
  3 30  1  0
  3 31  1  0
  5 32  1  0
 11 33  1  0
 12 34  1  6
 14 35  1  6
 15 36  1  1
 16 37  1  1
 17 38  1  0
 18 39  1  0
 19 40  1  0
 19 41  1  0
 23 42  1  0
 24 43  1  0
M  END
>  <Ligand ID>  (1) 
LIG0004178

>  <Ligand>  (1) 
CHEMBL217391

>  <SMILES>  (1) 
CCCc1cc(=O)n(c(=O)[nH]1)[C@@H]1O[C@@H]([C@H]([C@H]1O)O)COP(=O)(O)O

>  <CID>  (1) 
11993887.0

>  <ChEMBL ID>  (1) 
nan

>  <InChiKey>  (1) 
XPXCQFUBYLUZRO-QCNRFFRDSA-N

>  <InChi>  (1) 
InChI=1S/C12H19N2O9P/c1-2-3-6-4-8(15)14(12(18)13-6)11-10(17)9(16)7(23-11)5-22-24(19,20)21/h4,7,9-11,16-17H,2-3,5H2,1H3,(H,13,18)(H2,19,20,21)/t7-,9-,10-,11-/m1/s1

>  <IUPAC Name>  (1) 
[(2R,3S,4R,5R)-5-(2,4-dioxo-6-propyl-1H-pyrimidin-3-yl)-3,4-dihydroxyoxolan-2-yl]methyl dihydrogen phosphate

$$$$
