
     RDKit          3D

 49 50  0  0  0  0  0  0  0  0999 V2000
    2.3063    0.6972   -1.3578 O   0  0  0  0  0  0  0  0  0  0  0  0
    2.2636    0.9297    0.0293 C   0  0  1  0  0  0  0  0  0  0  0  0
    3.2121    2.0869    0.2610 C   0  0  0  0  0  0  0  0  0  0  0  0
    4.4767    1.7727   -0.1578 O   0  0  0  0  0  0  0  0  0  0  0  0
    5.4173    0.8765    0.1758 C   0  0  0  0  0  0  0  0  0  0  0  0
    5.3805   -0.0758    1.1543 C   0  0  0  0  0  0  0  0  0  0  0  0
    6.4317   -0.9596    1.4040 C   0  0  0  0  0  0  0  0  0  0  0  0
    7.5648   -0.8913    0.6489 C   0  0  0  0  0  0  0  0  0  0  0  0
    7.6480    0.0523   -0.3485 C   0  0  0  0  0  0  0  0  0  0  0  0
    6.6089    0.9122   -0.5818 C   0  0  0  0  0  0  0  0  0  0  0  0
    8.5971   -1.7682    0.9039 O   0  0  0  0  0  0  0  0  0  0  0  0
    0.8557    1.2903    0.3934 C   0  0  0  0  0  0  0  0  0  0  0  0
   -0.1519    0.3390    0.1247 N   0  0  0  0  0  0  0  0  0  0  0  0
   -0.4582    0.0581   -1.2343 C   0  0  0  0  0  0  0  0  0  0  0  0
   -1.6228   -0.9238   -1.3515 C   0  0  0  0  0  0  0  0  0  0  0  0
   -2.8378   -0.4092   -0.7473 N   0  0  0  0  0  0  0  0  0  0  0  0
   -3.9914   -1.2619   -0.8210 C   0  0  0  0  0  0  0  0  0  0  0  0
   -3.8308   -2.3646   -1.3989 O   0  0  0  0  0  0  0  0  0  0  0  0
   -5.2341   -0.8524   -0.2614 N   0  0  0  0  0  0  0  0  0  0  0  0
   -5.4274    0.3912    0.3995 C   0  0  0  0  0  0  0  0  0  0  0  0
   -6.8530    0.8438    0.4812 C   0  0  0  0  0  0  0  0  0  0  0  0
   -7.7959   -0.1528    0.4747 O   0  0  0  0  0  0  0  0  0  0  0  0
   -7.2875   -1.4145    0.7551 C   0  0  0  0  0  0  0  0  0  0  0  0
   -6.3540   -1.7656   -0.3849 C   0  0  0  0  0  0  0  0  0  0  0  0
    3.1820    0.9328   -1.7428 H   0  0  0  0  0  0  0  0  0  0  0  0
    2.6475    0.0426    0.4993 H   0  0  0  0  0  0  0  0  0  0  0  0
    2.8283    2.9731   -0.3313 H   0  0  0  0  0  0  0  0  0  0  0  0
    3.1692    2.3457    1.3628 H   0  0  0  0  0  0  0  0  0  0  0  0
    4.5302   -0.1742    1.7899 H   0  0  0  0  0  0  0  0  0  0  0  0
    6.3658   -1.6941    2.1802 H   0  0  0  0  0  0  0  0  0  0  0  0
    8.5519    0.0932   -0.9369 H   0  0  0  0  0  0  0  0  0  0  0  0
    6.7302    1.6315   -1.3782 H   0  0  0  0  0  0  0  0  0  0  0  0
    9.5524   -1.4169    0.9975 H   0  0  0  0  0  0  0  0  0  0  0  0
    0.8739    1.5024    1.5021 H   0  0  0  0  0  0  0  0  0  0  0  0
    0.6300    2.2957   -0.0532 H   0  0  0  0  0  0  0  0  0  0  0  0
    0.0020   -0.5449    0.6377 H   0  0  0  0  0  0  0  0  0  0  0  0
    0.4074   -0.5296   -1.6686 H   0  0  0  0  0  0  0  0  0  0  0  0
   -0.6816    0.9761   -1.7864 H   0  0  0  0  0  0  0  0  0  0  0  0
   -1.2846   -1.8687   -0.8907 H   0  0  0  0  0  0  0  0  0  0  0  0
   -1.8017   -1.0917   -2.4252 H   0  0  0  0  0  0  0  0  0  0  0  0
   -2.8724    0.5344   -0.2815 H   0  0  0  0  0  0  0  0  0  0  0  0
   -4.7996    1.1584   -0.1417 H   0  0  0  0  0  0  0  0  0  0  0  0
   -5.0243    0.3554    1.4331 H   0  0  0  0  0  0  0  0  0  0  0  0
   -7.0301    1.5186    1.3436 H   0  0  0  0  0  0  0  0  0  0  0  0
   -7.0288    1.4790   -0.4292 H   0  0  0  0  0  0  0  0  0  0  0  0
   -6.7915   -1.5011    1.7278 H   0  0  0  0  0  0  0  0  0  0  0  0
   -8.1367   -2.1239    0.6806 H   0  0  0  0  0  0  0  0  0  0  0  0
   -6.0685   -2.8303   -0.4108 H   0  0  0  0  0  0  0  0  0  0  0  0
   -6.8692   -1.4739   -1.3350 H   0  0  0  0  0  0  0  0  0  0  0  0
  1  2  1  0
  2  3  1  0
  3  4  1  0
  4  5  1  0
  5  6  2  0
  6  7  1  0
  7  8  2  0
  8  9  1  0
  9 10  2  0
  8 11  1  0
  2 12  1  0
 12 13  1  0
 13 14  1  0
 14 15  1  0
 15 16  1  0
 16 17  1  0
 17 18  2  0
 17 19  1  0
 19 20  1  0
 20 21  1  0
 21 22  1  0
 22 23  1  0
 23 24  1  0
 10  5  1  0
 24 19  1  0
  1 25  1  0
  2 26  1  1
  3 27  1  0
  3 28  1  0
  6 29  1  0
  7 30  1  0
  9 31  1  0
 10 32  1  0
 11 33  1  0
 12 34  1  0
 12 35  1  0
 13 36  1  0
 14 37  1  0
 14 38  1  0
 15 39  1  0
 15 40  1  0
 16 41  1  0
 20 42  1  0
 20 43  1  0
 21 44  1  0
 21 45  1  0
 23 46  1  0
 23 47  1  0
 24 48  1  0
 24 49  1  0
M  END
>  <Ligand ID>  (1) 
LIG0003249

>  <Ligand>  (1) 
1229516-19-1

>  <SMILES>  (1) 
O[C@@H](COc1ccc(cc1)O)CNCCNC(=O)N1CCOCC1

>  <CID>  (1) 
6604049.0

>  <ChEMBL ID>  (1) 
nan

>  <InChiKey>  (1) 
DXPOSRCHIDYWHW-CQSZACIVSA-N

>  <InChi>  (1) 
InChI=1S/C16H25N3O5/c20-13-1-3-15(4-2-13)24-12-14(21)11-17-5-6-18-16(22)19-7-9-23-10-8-19/h1-4,14,17,20-21H,5-12H2,(H,18,22)/t14-/m1/s1

>  <IUPAC Name>  (1) 
N-[2-[[(2R)-2-hydroxy-3-(4-hydroxyphenoxy)propyl]amino]ethyl]morpholine-4-carboxamide

$$$$
