
     RDKit          3D

 36 38  0  0  0  0  0  0  0  0999 V2000
   -3.1285   -2.1017    0.2264 C   0  0  0  0  0  0  0  0  0  0  0  0
   -2.2016   -1.3585   -0.7163 C   0  0  0  0  0  0  0  0  0  0  0  0
   -2.7767   -0.1593   -1.0518 O   0  0  0  0  0  0  0  0  0  0  0  0
   -2.6222    0.8474   -0.1150 C   0  0  0  0  0  0  0  0  0  0  0  0
   -3.4193    2.0452   -0.5376 C   0  0  0  0  0  0  0  0  0  0  0  0
   -1.1317    1.1761   -0.0997 C   0  0  0  0  0  0  0  0  0  0  0  0
   -0.5462   -0.0231    0.5267 N   0  0  0  0  0  0  0  0  0  0  0  0
   -0.8158   -1.2741   -0.1629 C   0  0  0  0  0  0  0  0  0  0  0  0
    0.2257    0.0573    1.7171 C   0  0  0  0  0  0  0  0  0  0  0  0
   -0.2632    0.0418    2.9696 N   0  0  0  0  0  0  0  0  0  0  0  0
    0.7447    0.1282    3.8288 N   0  0  0  0  0  0  0  0  0  0  0  0
    1.8726    0.1984    3.1240 N   0  0  0  0  0  0  0  0  0  0  0  0
    1.5597    0.1552    1.8210 N   0  0  0  0  0  0  0  0  0  0  0  0
    2.5395    0.2035    0.7979 C   0  0  0  0  0  0  0  0  0  0  0  0
    2.5048    1.0366   -0.2828 C   0  0  0  0  0  0  0  0  0  0  0  0
    3.5145    0.9934   -1.2142 C   0  0  0  0  0  0  0  0  0  0  0  0
    4.5942    0.1381   -1.1276 C   0  0  0  0  0  0  0  0  0  0  0  0
    4.6336   -0.7143   -0.0257 C   0  0  0  0  0  0  0  0  0  0  0  0
    3.6161   -0.6809    0.9264 C   0  0  0  0  0  0  0  0  0  0  0  0
   -3.0644   -1.7281    1.2603 H   0  0  0  0  0  0  0  0  0  0  0  0
   -2.9508   -3.2094    0.1659 H   0  0  0  0  0  0  0  0  0  0  0  0
   -4.1616   -1.9383   -0.1416 H   0  0  0  0  0  0  0  0  0  0  0  0
   -2.1641   -1.9762   -1.6396 H   0  0  0  0  0  0  0  0  0  0  0  0
   -2.9807    0.5234    0.8616 H   0  0  0  0  0  0  0  0  0  0  0  0
   -4.4035    2.0009   -0.0610 H   0  0  0  0  0  0  0  0  0  0  0  0
   -3.5415    2.0010   -1.6360 H   0  0  0  0  0  0  0  0  0  0  0  0
   -2.8909    2.9854   -0.2585 H   0  0  0  0  0  0  0  0  0  0  0  0
   -0.8019    1.2760   -1.1640 H   0  0  0  0  0  0  0  0  0  0  0  0
   -0.9571    2.0879    0.5004 H   0  0  0  0  0  0  0  0  0  0  0  0
   -0.0420   -1.3416   -0.9663 H   0  0  0  0  0  0  0  0  0  0  0  0
   -0.6493   -2.1563    0.4908 H   0  0  0  0  0  0  0  0  0  0  0  0
    1.6873    1.7212   -0.3947 H   0  0  0  0  0  0  0  0  0  0  0  0
    3.4867    1.6490   -2.0652 H   0  0  0  0  0  0  0  0  0  0  0  0
    5.3544    0.1483   -1.8862 H   0  0  0  0  0  0  0  0  0  0  0  0
    5.4749   -1.3866    0.0504 H   0  0  0  0  0  0  0  0  0  0  0  0
    3.7041   -1.3659    1.7560 H   0  0  0  0  0  0  0  0  0  0  0  0
  1  2  1  0
  2  3  1  0
  3  4  1  0
  4  5  1  0
  4  6  1  0
  6  7  1  0
  7  8  1  0
  7  9  1  0
  9 10  2  0
 10 11  1  0
 11 12  2  0
 12 13  1  0
 13 14  1  0
 14 15  2  0
 15 16  1  0
 16 17  2  0
 17 18  1  0
 18 19  2  0
  8  2  1  0
 13  9  1  0
 19 14  1  0
  1 20  1  0
  1 21  1  0
  1 22  1  0
  2 23  1  0
  4 24  1  0
  5 25  1  0
  5 26  1  0
  5 27  1  0
  6 28  1  0
  6 29  1  0
  8 30  1  0
  8 31  1  0
 15 32  1  0
 16 33  1  0
 17 34  1  0
 18 35  1  0
 19 36  1  0
M  END
>  <Ligand ID>  (1) 
LIG0004014

>  <Ligand>  (1) 
MLS000113662

>  <SMILES>  (1) 
CC1OC(C)CN(C1)c1nnnn1c1ccccc1

>  <CID>  (1) 
2928885.0

>  <ChEMBL ID>  (1) 
nan

>  <InChiKey>  (1) 
WFWCVRYBUMNICH-UHFFFAOYSA-N

>  <InChi>  (1) 
InChI=1S/C13H17N5O/c1-10-8-17(9-11(2)19-10)13-14-15-16-18(13)12-6-4-3-5-7-12/h3-7,10-11H,8-9H2,1-2H3

>  <IUPAC Name>  (1) 
2,6-dimethyl-4-(1-phenyltetrazol-5-yl)morpholine

$$$$
