
     RDKit          3D

 42 43  0  0  0  0  0  0  0  0999 V2000
   -1.3294    0.5600    2.1200 O   0  0  0  0  0  0  0  0  0  0  0  0
   -0.2437    0.0191    1.8317 C   0  0  0  0  0  0  0  0  0  0  0  0
   -0.2312   -1.3771    1.5818 N   0  0  0  0  0  0  0  0  0  0  0  0
   -1.4320   -2.2102    1.6467 C   0  0  0  0  0  0  0  0  0  0  0  0
   -1.3643   -3.0638    2.9318 C   0  0  0  0  0  0  0  0  0  0  0  0
   -2.8268   -4.0681    2.9838 Cl  0  0  0  0  0  0  0  0  0  0  0  0
   -1.4194   -1.9349    4.3292 Cl  0  0  0  0  0  0  0  0  0  0  0  0
    0.1074   -4.0269    3.0083 Cl  0  0  0  0  0  0  0  0  0  0  0  0
   -1.6166   -3.0442    0.5072 N   0  0  0  0  0  0  0  0  0  0  0  0
   -1.8106   -2.6104   -0.8293 C   0  0  0  0  0  0  0  0  0  0  0  0
   -2.0065   -3.7252   -2.0381 S   0  0  0  0  0  0  0  0  0  0  0  0
   -1.8540   -1.2534   -1.2375 N   0  0  0  0  0  0  0  0  0  0  0  0
   -2.0515   -0.8343   -2.5790 C   0  0  0  0  0  0  0  0  0  0  0  0
   -3.3671   -0.6185   -2.9684 C   0  0  0  0  0  0  0  0  0  0  0  0
   -3.7232   -0.2057   -4.2300 C   0  0  0  0  0  0  0  0  0  0  0  0
   -2.7089   -0.0012   -5.1434 C   0  0  0  0  0  0  0  0  0  0  0  0
   -1.3991   -0.2168   -4.7550 C   0  0  0  0  0  0  0  0  0  0  0  0
   -1.0436   -0.6302   -3.4896 C   0  0  0  0  0  0  0  0  0  0  0  0
   -0.1452    0.0642   -5.9707 Cl  0  0  0  0  0  0  0  0  0  0  0  0
   -3.1464    0.5245   -6.7560 Cl  0  0  0  0  0  0  0  0  0  0  0  0
    0.9657    0.6897    1.7371 O   0  0  0  0  0  0  0  0  0  0  0  0
    1.0481    2.0813    1.9680 C   0  0  0  0  0  0  0  0  0  0  0  0
    2.5003    2.4241    1.7723 C   0  0  0  0  0  0  0  0  0  0  0  0
    3.3187    2.3589    2.8721 C   0  0  0  0  0  0  0  0  0  0  0  0
    4.6515    2.6570    2.7662 C   0  0  0  0  0  0  0  0  0  0  0  0
    5.1635    3.0280    1.5201 C   0  0  0  0  0  0  0  0  0  0  0  0
    4.3184    3.0869    0.4243 C   0  0  0  0  0  0  0  0  0  0  0  0
    2.9711    2.7905    0.5101 C   0  0  0  0  0  0  0  0  0  0  0  0
    0.6513   -1.9105    1.3317 H   0  0  0  0  0  0  0  0  0  0  0  0
   -2.2908   -1.5403    1.8215 H   0  0  0  0  0  0  0  0  0  0  0  0
   -1.6107   -4.0818    0.6578 H   0  0  0  0  0  0  0  0  0  0  0  0
   -1.7416   -0.4834   -0.5345 H   0  0  0  0  0  0  0  0  0  0  0  0
   -4.1926   -0.7745   -2.2579 H   0  0  0  0  0  0  0  0  0  0  0  0
   -4.7587   -0.0396   -4.5252 H   0  0  0  0  0  0  0  0  0  0  0  0
   -0.0157   -0.7992   -3.1857 H   0  0  0  0  0  0  0  0  0  0  0  0
    0.7124    2.3300    2.9954 H   0  0  0  0  0  0  0  0  0  0  0  0
    0.4101    2.6498    1.2751 H   0  0  0  0  0  0  0  0  0  0  0  0
    2.9319    2.0716    3.8430 H   0  0  0  0  0  0  0  0  0  0  0  0
    5.3450    2.6288    3.5721 H   0  0  0  0  0  0  0  0  0  0  0  0
    6.2199    3.2686    1.4121 H   0  0  0  0  0  0  0  0  0  0  0  0
    4.6914    3.3763   -0.5689 H   0  0  0  0  0  0  0  0  0  0  0  0
    2.3228    2.8409   -0.3500 H   0  0  0  0  0  0  0  0  0  0  0  0
  1  2  2  0
  2  3  1  0
  3  4  1  0
  4  5  1  0
  5  6  1  0
  5  7  1  0
  5  8  1  0
  4  9  1  0
  9 10  1  0
 10 11  2  0
 10 12  1  0
 12 13  1  0
 13 14  2  0
 14 15  1  0
 15 16  2  0
 16 17  1  0
 17 18  2  0
 17 19  1  0
 16 20  1  0
  2 21  1  0
 21 22  1  0
 22 23  1  0
 23 24  2  0
 24 25  1  0
 25 26  2  0
 26 27  1  0
 27 28  2  0
 18 13  1  0
 28 23  1  0
  3 29  1  0
  4 30  1  0
  9 31  1  0
 12 32  1  0
 14 33  1  0
 15 34  1  0
 18 35  1  0
 22 36  1  0
 22 37  1  0
 24 38  1  0
 25 39  1  0
 26 40  1  0
 27 41  1  0
 28 42  1  0
M  END
>  <Ligand ID>  (1) 
LIG0002697

>  <Ligand>  (1) 
MLS-0425696.0001

>  <SMILES>  (1) 
O=C(NC(C(Cl)(Cl)Cl)NC(=S)Nc1ccc(c(c1)Cl)Cl)OCc1ccccc1

>  <CID>  (1) 
3091266.0

>  <ChEMBL ID>  (1) 
nan

>  <InChiKey>  (1) 
JQBLCTIUZCSJLT-UHFFFAOYSA-N

>  <InChi>  (1) 
InChI=1S/C17H14Cl5N3O2S/c18-12-7-6-11(8-13(12)19)23-15(28)24-14(17(20,21)22)25-16(26)27-9-10-4-2-1-3-5-10/h1-8,14H,9H2,(H,25,26)(H2,23,24,28)

>  <IUPAC Name>  (1) 
benzyl N-[2,2,2-trichloro-1-[(3,4-dichlorophenyl)carbamothioylamino]ethyl]carbamate

$$$$
