
     RDKit          3D

 49 53  0  0  0  0  0  0  0  0999 V2000
    7.1532    3.8133   -0.0525 F   0  0  0  0  0  0  0  0  0  0  0  0
    6.0328    3.0598   -0.0047 C   0  0  0  0  0  0  0  0  0  0  0  0
    5.7594    2.1283   -1.0098 C   0  0  0  0  0  0  0  0  0  0  0  0
    4.6128    1.3782   -0.9324 C   0  0  0  0  0  0  0  0  0  0  0  0
    3.7368    1.5506    0.1410 C   0  0  0  0  0  0  0  0  0  0  0  0
    4.0038    2.4686    1.1340 C   0  0  0  0  0  0  0  0  0  0  0  0
    5.1548    3.2305    1.0683 C   0  0  0  0  0  0  0  0  0  0  0  0
    3.1433    2.6230    2.1679 F   0  0  0  0  0  0  0  0  0  0  0  0
    2.5647    0.7408    0.1618 N   0  0  0  0  0  0  0  0  0  0  0  0
    1.3963    1.0699   -0.4101 N   0  0  0  0  0  0  0  0  0  0  0  0
    0.4915    0.0867   -0.2074 C   0  0  0  0  0  0  0  0  0  0  0  0
    1.0940   -0.9157    0.5216 C   0  0  0  0  0  0  0  0  0  0  0  0
    2.3889   -0.4718    0.7340 C   0  0  0  0  0  0  0  0  0  0  0  0
    3.1632   -1.4582    1.5168 C   0  0  2  0  0  0  0  0  0  0  0  0
    3.4192   -2.7598    0.8869 C   0  0  0  0  0  0  0  0  0  0  0  0
    2.2173   -2.6095    1.7408 C   0  0  2  0  0  0  0  0  0  0  0  0
    0.8860   -2.2468    1.1417 C   0  0  0  0  0  0  0  0  0  0  0  0
   -0.8916    0.1528   -0.7153 C   0  0  0  0  0  0  0  0  0  0  0  0
   -1.1778    1.1832   -1.3672 O   0  0  0  0  0  0  0  0  0  0  0  0
   -1.8084   -0.8970   -0.4636 N   0  0  0  0  0  0  0  0  0  0  0  0
   -3.1878   -0.9188   -0.9164 C   0  0  0  0  0  0  0  0  0  0  0  0
   -4.0565    0.0545   -0.1721 C   0  0  0  0  0  0  0  0  0  0  0  0
   -4.2126    1.3574   -0.5289 C   0  0  0  0  0  0  0  0  0  0  0  0
   -5.0083    2.2529    0.1948 C   0  0  0  0  0  0  0  0  0  0  0  0
   -5.6689    1.8067    1.3204 C   0  0  0  0  0  0  0  0  0  0  0  0
   -5.5022    0.4914    1.6662 C   0  0  0  0  0  0  0  0  0  0  0  0
   -4.7336   -0.3404    0.9531 N   0  0  0  0  0  0  0  0  0  0  0  0
   -3.7047   -2.2996   -0.4439 C   0  0  0  0  0  0  0  0  0  0  0  0
   -3.3694   -0.8509   -2.3871 C   0  0  0  0  0  0  0  0  0  0  0  0
    6.4211    1.9802   -1.8449 H   0  0  0  0  0  0  0  0  0  0  0  0
    4.3734    0.6426   -1.7036 H   0  0  0  0  0  0  0  0  0  0  0  0
    5.3934    3.9705    1.8464 H   0  0  0  0  0  0  0  0  0  0  0  0
    3.6758   -1.1309    2.4502 H   0  0  0  0  0  0  0  0  0  0  0  0
    4.2499   -3.3636    1.3103 H   0  0  0  0  0  0  0  0  0  0  0  0
    3.3709   -2.8111   -0.2101 H   0  0  0  0  0  0  0  0  0  0  0  0
    2.1890   -3.1431    2.6986 H   0  0  0  0  0  0  0  0  0  0  0  0
    0.5781   -3.0120    0.3917 H   0  0  0  0  0  0  0  0  0  0  0  0
    0.1216   -2.2155    1.9214 H   0  0  0  0  0  0  0  0  0  0  0  0
   -1.3966   -1.7049    0.1085 H   0  0  0  0  0  0  0  0  0  0  0  0
   -3.7430    1.7690   -1.4026 H   0  0  0  0  0  0  0  0  0  0  0  0
   -5.1085    3.2899   -0.1217 H   0  0  0  0  0  0  0  0  0  0  0  0
   -6.2988    2.4430    1.9253 H   0  0  0  0  0  0  0  0  0  0  0  0
   -5.9965    0.0671    2.5477 H   0  0  0  0  0  0  0  0  0  0  0  0
   -4.2050   -2.2417    0.5278 H   0  0  0  0  0  0  0  0  0  0  0  0
   -2.8784   -3.0136   -0.3787 H   0  0  0  0  0  0  0  0  0  0  0  0
   -4.4122   -2.7062   -1.1902 H   0  0  0  0  0  0  0  0  0  0  0  0
   -3.6138    0.2001   -2.7085 H   0  0  0  0  0  0  0  0  0  0  0  0
   -2.4445   -1.1741   -2.9189 H   0  0  0  0  0  0  0  0  0  0  0  0
   -4.1721   -1.5258   -2.7840 H   0  0  0  0  0  0  0  0  0  0  0  0
  1  2  1  0
  2  3  2  0
  3  4  1  0
  4  5  2  0
  5  6  1  0
  6  7  2  0
  6  8  1  0
  5  9  1  0
  9 10  1  0
 10 11  2  0
 11 12  1  0
 12 13  2  0
 13 14  1  0
 14 15  1  0
 15 16  1  0
 16 17  1  0
 11 18  1  0
 18 19  2  0
 18 20  1  0
 20 21  1  0
 21 22  1  0
 22 23  2  0
 23 24  1  0
 24 25  2  0
 25 26  1  0
 26 27  2  0
 21 28  1  0
 21 29  1  0
  7  2  1  0
 13  9  1  0
 16 14  1  0
 27 22  1  0
 17 12  1  0
  3 30  1  0
  4 31  1  0
  7 32  1  0
 14 33  1  1
 15 34  1  0
 15 35  1  0
 16 36  1  1
 17 37  1  0
 17 38  1  0
 20 39  1  0
 23 40  1  0
 24 41  1  0
 25 42  1  0
 26 43  1  0
 28 44  1  0
 28 45  1  0
 28 46  1  0
 29 47  1  0
 29 48  1  0
 29 49  1  0
M  END
>  <Ligand ID>  (1) 
LIG0001481

>  <Ligand>  (1) 
CHEMBL3354949

>  <SMILES>  (1) 
Fc1ccc(c(c1)F)n1nc(c2c1[C@@H]1C[C@@H]1C2)C(=O)NC(c1ccccn1)(C)C

>  <CID>  (1) 
118720562.0

>  <ChEMBL ID>  (1) 
nan

>  <InChiKey>  (1) 
UZYLLYOBIXOBQF-TZMCWYRMSA-N

>  <InChi>  (1) 
InChI=1S/C22H20F2N4O/c1-22(2,18-5-3-4-8-25-18)26-21(29)19-15-10-12-9-14(12)20(15)28(27-19)17-7-6-13(23)11-16(17)24/h3-8,11-12,14H,9-10H2,1-2H3,(H,26,29)/t12-,14-/m1/s1

>  <IUPAC Name>  (1) 
(2R,4R)-9-(2,4-difluorophenyl)-N-(2-pyridin-2-ylpropan-2-yl)-8,9-diazatricyclo[4.3.0.02,4]nona-1(6),7-diene-7-carboxamide

$$$$
