
     RDKit          3D

 25 26  0  0  0  0  0  0  0  0999 V2000
   -3.6208    0.0210   -1.6250 N   0  0  0  0  0  0  0  0  0  0  0  0
   -2.5918    0.0151   -0.6218 C   0  0  0  0  0  0  0  0  0  0  0  0
   -1.4195   -0.4546   -0.8626 N   0  0  0  0  0  0  0  0  0  0  0  0
   -0.6028   -0.3264    0.3307 C   0  0  1  0  0  0  0  0  0  0  0  0
   -1.3384    0.8266    1.0242 C   0  0  0  0  0  0  0  0  0  0  0  0
   -2.6677    0.4790    0.6889 O   0  0  0  0  0  0  0  0  0  0  0  0
   -0.7392   -1.5868    1.1581 C   0  0  0  0  0  0  0  0  0  0  0  0
    0.7860    0.0412    0.0764 C   0  0  0  0  0  0  0  0  0  0  0  0
    1.3365    1.1918    0.5878 C   0  0  0  0  0  0  0  0  0  0  0  0
    2.6710    1.5096    0.3219 C   0  0  0  0  0  0  0  0  0  0  0  0
    3.4628    0.6873   -0.4517 C   0  0  0  0  0  0  0  0  0  0  0  0
    2.8945   -0.4668   -0.9592 C   0  0  0  0  0  0  0  0  0  0  0  0
    1.5613   -0.8023   -0.7046 C   0  0  0  0  0  0  0  0  0  0  0  0
    0.9432   -2.2848   -1.3950 Cl  0  0  0  0  0  0  0  0  0  0  0  0
   -3.4886    0.3989   -2.5685 H   0  0  0  0  0  0  0  0  0  0  0  0
   -4.5562   -0.3914   -1.3539 H   0  0  0  0  0  0  0  0  0  0  0  0
   -1.0978    1.7354    0.4283 H   0  0  0  0  0  0  0  0  0  0  0  0
   -1.1303    0.9112    2.0845 H   0  0  0  0  0  0  0  0  0  0  0  0
   -1.3555   -1.3638    2.0538 H   0  0  0  0  0  0  0  0  0  0  0  0
    0.2695   -1.8824    1.5043 H   0  0  0  0  0  0  0  0  0  0  0  0
   -1.1922   -2.4090    0.5558 H   0  0  0  0  0  0  0  0  0  0  0  0
    0.7866    1.8787    1.1957 H   0  0  0  0  0  0  0  0  0  0  0  0
    3.1061    2.4154    0.7240 H   0  0  0  0  0  0  0  0  0  0  0  0
    4.4838    0.9766   -0.6270 H   0  0  0  0  0  0  0  0  0  0  0  0
    3.4994   -1.1195   -1.5652 H   0  0  0  0  0  0  0  0  0  0  0  0
  1  2  1  0
  2  3  2  0
  3  4  1  0
  4  5  1  0
  5  6  1  0
  4  7  1  1
  4  8  1  0
  8  9  2  0
  9 10  1  0
 10 11  2  0
 11 12  1  0
 12 13  2  0
 13 14  1  0
  6  2  1  0
 13  8  1  0
  1 15  1  0
  1 16  1  0
  5 17  1  0
  5 18  1  0
  7 19  1  0
  7 20  1  0
  7 21  1  0
  9 22  1  0
 10 23  1  0
 11 24  1  0
 12 25  1  0
M  END
>  <Ligand ID>  (1) 
LIG0005142

>  <Ligand>  (1) 
SCHEMBL3607237

>  <SMILES>  (1) 
NC1=N[C@@](CO1)(C)c1ccccc1Cl

>  <CID>  (1) 
24966469.0

>  <ChEMBL ID>  (1) 
nan

>  <InChiKey>  (1) 
DHXYGMYUXSOEGU-SNVBAGLBSA-N

>  <InChi>  (1) 
InChI=1S/C10H11ClN2O/c1-10(6-14-9(12)13-10)7-4-2-3-5-8(7)11/h2-5H,6H2,1H3,(H2,12,13)/t10-/m1/s1

>  <IUPAC Name>  (1) 
(4S)-4-(2-chlorophenyl)-4-methyl-5H-1,3-oxazol-2-amine

$$$$
