
     RDKit          3D

 23 23  0  0  0  0  0  0  0  0999 V2000
   -3.9855    0.5595    0.0303 N   0  0  0  0  0  0  0  0  0  0  0  0
   -2.5735    0.7478    0.2496 C   0  0  0  0  0  0  0  0  0  0  0  0
   -1.7614   -0.4011   -0.3606 C   0  0  0  0  0  0  0  0  0  0  0  0
   -0.3259   -0.0587   -0.0491 C   0  0  0  0  0  0  0  0  0  0  0  0
    0.6717   -1.0603   -0.5587 C   0  0  0  0  0  0  0  0  0  0  0  0
    2.0198   -0.5629   -0.1632 C   0  0  0  0  0  0  0  0  0  0  0  0
    3.2291   -1.1851   -0.4341 C   0  0  0  0  0  0  0  0  0  0  0  0
    4.2090   -0.4061    0.0980 N   0  0  0  0  0  0  0  0  0  0  0  0
    3.6349    0.6754    0.6871 C   0  0  0  0  0  0  0  0  0  0  0  0
    2.3052    0.5802    0.5285 N   0  0  0  0  0  0  0  0  0  0  0  0
   -4.3107    1.3534   -0.5681 H   0  0  0  0  0  0  0  0  0  0  0  0
   -4.4489    0.7258    0.9667 H   0  0  0  0  0  0  0  0  0  0  0  0
   -2.2043    1.7099   -0.1629 H   0  0  0  0  0  0  0  0  0  0  0  0
   -2.2933    0.7508    1.3308 H   0  0  0  0  0  0  0  0  0  0  0  0
   -1.9533   -0.4233   -1.4534 H   0  0  0  0  0  0  0  0  0  0  0  0
   -2.0843   -1.3467    0.1118 H   0  0  0  0  0  0  0  0  0  0  0  0
   -0.0980    0.9256   -0.4833 H   0  0  0  0  0  0  0  0  0  0  0  0
   -0.2201   -0.0048    1.0435 H   0  0  0  0  0  0  0  0  0  0  0  0
    0.4955   -2.0622   -0.0929 H   0  0  0  0  0  0  0  0  0  0  0  0
    0.5919   -1.1688   -1.6677 H   0  0  0  0  0  0  0  0  0  0  0  0
    3.3573   -2.1313   -0.9784 H   0  0  0  0  0  0  0  0  0  0  0  0
    4.1446    1.4974    1.2080 H   0  0  0  0  0  0  0  0  0  0  0  0
    1.6003    1.2855    0.8872 H   0  0  0  0  0  0  0  0  0  0  0  0
  1  2  1  0
  2  3  1  0
  3  4  1  0
  4  5  1  0
  5  6  1  0
  6  7  2  0
  7  8  1  0
  8  9  2  0
  9 10  1  0
 10  6  1  0
  1 11  1  0
  1 12  1  0
  2 13  1  0
  2 14  1  0
  3 15  1  0
  3 16  1  0
  4 17  1  0
  4 18  1  0
  5 19  1  0
  5 20  1  0
  7 21  1  0
  9 22  1  0
 10 23  1  0
M  END
>  <Ligand ID>  (1) 
LIG0005759

>  <Ligand>  (1) 
imbutamine

>  <SMILES>  (1) 
NCCCCc1cnc[nH]1

>  <CID>  (1) 
13499360.0

>  <ChEMBL ID>  (1) 
nan

>  <InChiKey>  (1) 
VJSUMPPMFYQOMP-UHFFFAOYSA-N

>  <InChi>  (1) 
InChI=1S/C7H13N3/c8-4-2-1-3-7-5-9-6-10-7/h5-6H,1-4,8H2,(H,9,10)

>  <IUPAC Name>  (1) 
4-(1H-imidazol-5-yl)butan-1-amine

$$$$
