
     RDKit          3D

 78 79  0  0  0  0  0  0  0  0999 V2000
   -4.6849   -0.5179   -0.3082 O   0  0  0  0  0  0  0  0  0  0  0  0
   -3.8906   -0.6357    0.6569 C   0  0  0  0  0  0  0  0  0  0  0  0
   -4.3490   -0.1958    1.9237 N   0  0  0  0  0  0  0  0  0  0  0  0
   -5.6666    0.3589    2.0990 C   0  0  0  0  0  0  0  0  0  0  0  0
   -6.4850    0.5030    1.2559 N   0  0  0  0  0  0  0  0  0  0  0  0
   -7.3353    0.6150    0.2006 C   0  0  0  0  0  0  0  0  0  0  0  0
   -7.9999   -0.7075   -0.1313 C   0  0  0  0  0  0  0  0  0  0  0  0
   -8.9447   -0.6802   -1.2748 C   0  0  0  0  0  0  0  0  0  0  0  0
  -10.1288    0.1548   -1.1356 C   0  0  0  0  0  0  0  0  0  0  0  0
  -11.1873    0.4429   -1.9603 C   0  0  0  0  0  0  0  0  0  0  0  0
  -12.0745    1.2600   -1.4578 N   0  0  0  0  0  0  0  0  0  0  0  0
  -12.1077    1.7897   -0.4036 C   0  0  0  0  0  0  0  0  0  0  0  0
  -10.5390    1.1568    0.3924 S   0  0  0  0  0  0  0  0  0  0  0  0
  -12.9649    2.6819    0.2939 N   0  0  0  0  0  0  0  0  0  0  0  0
   -5.9382    0.7568    3.4754 N   0  0  0  0  0  0  0  0  0  0  0  0
   -2.5438   -1.1976    0.5226 C   0  0  0  0  0  0  0  0  0  0  0  0
   -2.1639   -1.6201   -0.8583 C   0  0  0  0  0  0  0  0  0  0  0  0
   -2.1669   -0.5362   -1.8822 C   0  0  0  0  0  0  0  0  0  0  0  0
   -1.2050    0.5934   -1.5742 C   0  0  0  0  0  0  0  0  0  0  0  0
    0.2227    0.0894   -1.4902 C   0  0  0  0  0  0  0  0  0  0  0  0
    1.1211    1.2441   -1.1913 C   0  0  0  0  0  0  0  0  0  0  0  0
    2.5864    0.8748   -1.0853 C   0  0  0  0  0  0  0  0  0  0  0  0
    2.8580   -0.1179    0.0030 C   0  0  0  0  0  0  0  0  0  0  0  0
    4.2965   -0.4808    0.0941 C   0  0  0  0  0  0  0  0  0  0  0  0
    5.1645   -0.0103   -0.6865 O   0  0  0  0  0  0  0  0  0  0  0  0
    4.7089   -1.3906    1.0948 N   0  0  0  0  0  0  0  0  0  0  0  0
    6.0756   -1.7630    1.2080 C   0  0  0  0  0  0  0  0  0  0  0  0
    6.9532   -1.2842    0.3997 N   0  0  0  0  0  0  0  0  0  0  0  0
    8.3381   -1.7054    0.5674 C   0  0  0  0  0  0  0  0  0  0  0  0
    9.0454   -1.8021   -0.7529 C   0  0  0  0  0  0  0  0  0  0  0  0
    9.1059   -0.5206   -1.5168 C   0  0  0  0  0  0  0  0  0  0  0  0
    9.8690    0.5382   -0.8459 C   0  0  0  0  0  0  0  0  0  0  0  0
   10.1025    1.8067   -1.2459 C   0  0  0  0  0  0  0  0  0  0  0  0
   10.8328    2.5228   -0.4212 N   0  0  0  0  0  0  0  0  0  0  0  0
   11.3054    2.2543    0.5805 C   0  0  0  0  0  0  0  0  0  0  0  0
   10.7328    0.4335    0.7389 S   0  0  0  0  0  0  0  0  0  0  0  0
   12.1057    2.7806    1.6482 N   0  0  0  0  0  0  0  0  0  0  0  0
    6.4314   -2.6791    2.2487 N   0  0  0  0  0  0  0  0  0  0  0  0
   -3.6804   -0.2952    2.7264 H   0  0  0  0  0  0  0  0  0  0  0  0
   -6.8639    1.0105   -0.7680 H   0  0  0  0  0  0  0  0  0  0  0  0
   -8.1205    1.4022    0.3818 H   0  0  0  0  0  0  0  0  0  0  0  0
   -8.6107   -0.9575    0.7867 H   0  0  0  0  0  0  0  0  0  0  0  0
   -7.2328   -1.4798   -0.2727 H   0  0  0  0  0  0  0  0  0  0  0  0
   -8.4093   -0.4809   -2.2553 H   0  0  0  0  0  0  0  0  0  0  0  0
   -9.3111   -1.7407   -1.4258 H   0  0  0  0  0  0  0  0  0  0  0  0
  -11.2586    0.0030   -2.9671 H   0  0  0  0  0  0  0  0  0  0  0  0
  -13.6170    2.3854    1.0491 H   0  0  0  0  0  0  0  0  0  0  0  0
  -12.9324    3.6745    0.0313 H   0  0  0  0  0  0  0  0  0  0  0  0
   -6.3141    1.7066    3.6903 H   0  0  0  0  0  0  0  0  0  0  0  0
   -5.7335    0.0392    4.2123 H   0  0  0  0  0  0  0  0  0  0  0  0
   -2.4797   -2.1294    1.1583 H   0  0  0  0  0  0  0  0  0  0  0  0
   -1.8121   -0.4998    0.9817 H   0  0  0  0  0  0  0  0  0  0  0  0
   -1.1863   -2.1456   -0.7778 H   0  0  0  0  0  0  0  0  0  0  0  0
   -2.8971   -2.3902   -1.1847 H   0  0  0  0  0  0  0  0  0  0  0  0
   -3.1734   -0.1521   -2.0291 H   0  0  0  0  0  0  0  0  0  0  0  0
   -1.8293   -0.9839   -2.8447 H   0  0  0  0  0  0  0  0  0  0  0  0
   -1.2601    1.2958   -2.4186 H   0  0  0  0  0  0  0  0  0  0  0  0
   -1.4297    1.1313   -0.6492 H   0  0  0  0  0  0  0  0  0  0  0  0
    0.3183   -0.6935   -0.7079 H   0  0  0  0  0  0  0  0  0  0  0  0
    0.5330   -0.3302   -2.4612 H   0  0  0  0  0  0  0  0  0  0  0  0
    1.0477    2.0028   -2.0133 H   0  0  0  0  0  0  0  0  0  0  0  0
    0.7977    1.8074   -0.2672 H   0  0  0  0  0  0  0  0  0  0  0  0
    3.1247    1.8333   -0.9395 H   0  0  0  0  0  0  0  0  0  0  0  0
    2.9101    0.5131   -2.0892 H   0  0  0  0  0  0  0  0  0  0  0  0
    2.5974    0.3699    0.9663 H   0  0  0  0  0  0  0  0  0  0  0  0
    2.2216   -1.0199   -0.0769 H   0  0  0  0  0  0  0  0  0  0  0  0
    4.0104   -1.7869    1.7474 H   0  0  0  0  0  0  0  0  0  0  0  0
    8.8208   -1.0038    1.2429 H   0  0  0  0  0  0  0  0  0  0  0  0
    8.3293   -2.7224    1.0205 H   0  0  0  0  0  0  0  0  0  0  0  0
    8.6813   -2.6537   -1.3645 H   0  0  0  0  0  0  0  0  0  0  0  0
   10.1091   -2.0918   -0.5034 H   0  0  0  0  0  0  0  0  0  0  0  0
    8.0235   -0.1946   -1.6379 H   0  0  0  0  0  0  0  0  0  0  0  0
    9.4859   -0.6704   -2.5549 H   0  0  0  0  0  0  0  0  0  0  0  0
    9.7074    2.2111   -2.1956 H   0  0  0  0  0  0  0  0  0  0  0  0
   11.9220    2.5679    2.6464 H   0  0  0  0  0  0  0  0  0  0  0  0
   12.8939    3.3951    1.3986 H   0  0  0  0  0  0  0  0  0  0  0  0
    6.7459   -2.2334    3.1442 H   0  0  0  0  0  0  0  0  0  0  0  0
    6.3921   -3.7056    2.1560 H   0  0  0  0  0  0  0  0  0  0  0  0
  1  2  2  0
  2  3  1  0
  3  4  1  0
  4  5  2  3
  5  6  1  0
  6  7  1  0
  7  8  1  0
  8  9  1  0
  9 10  2  0
 10 11  1  0
 11 12  2  0
 12 13  1  0
 12 14  1  0
  4 15  1  0
  2 16  1  0
 16 17  1  0
 17 18  1  0
 18 19  1  0
 19 20  1  0
 20 21  1  0
 21 22  1  0
 22 23  1  0
 23 24  1  0
 24 25  2  0
 24 26  1  0
 26 27  1  0
 27 28  2  3
 28 29  1  0
 29 30  1  0
 30 31  1  0
 31 32  1  0
 32 33  2  0
 33 34  1  0
 34 35  2  0
 35 36  1  0
 35 37  1  0
 27 38  1  0
 13  9  1  0
 36 32  1  0
  3 39  1  0
  6 40  1  0
  6 41  1  0
  7 42  1  0
  7 43  1  0
  8 44  1  0
  8 45  1  0
 10 46  1  0
 14 47  1  0
 14 48  1  0
 15 49  1  0
 15 50  1  0
 16 51  1  0
 16 52  1  0
 17 53  1  0
 17 54  1  0
 18 55  1  0
 18 56  1  0
 19 57  1  0
 19 58  1  0
 20 59  1  0
 20 60  1  0
 21 61  1  0
 21 62  1  0
 22 63  1  0
 22 64  1  0
 23 65  1  0
 23 66  1  0
 26 67  1  0
 29 68  1  0
 29 69  1  0
 30 70  1  0
 30 71  1  0
 31 72  1  0
 31 73  1  0
 33 74  1  0
 37 75  1  0
 37 76  1  0
 38 77  1  0
 38 78  1  0
M  END
>  <Ligand ID>  (1) 
LIG0005764

>  <Ligand>  (1) 
CHEMBL2165637

>  <SMILES>  (1) 
O=C(NC(=NCCCc1cnc(s1)N)N)CCCCCCCCC(=O)NC(=NCCCc1cnc(s1)N)N

>  <CID>  (1) 
56954227.0

>  <ChEMBL ID>  (1) 
nan

>  <InChiKey>  (1) 
MLVBVDKCQYPOBL-UHFFFAOYSA-N

>  <InChi>  (1) 
InChI=1S/C24H40N10O2S2/c25-21(29-13-7-9-17-15-31-23(27)37-17)33-19(35)11-5-3-1-2-4-6-12-20(36)34-22(26)30-14-8-10-18-16-32-24(28)38-18/h15-16H,1-14H2,(H2,27,31)(H2,28,32)(H3,25,29,33,35)(H3,26,30,34,36)

>  <IUPAC Name>  (1) 
N,N'-bis[N'-[3-(2-amino-1,3-thiazol-5-yl)propyl]carbamimidoyl]decanediamide

$$$$
