
     RDKit          3D

149152  0  0  0  0  0  0  0  0999 V2000
   -7.8813   -3.6132    6.1549 C   0  0  0  0  0  0  0  0  0  0  0  0
   -7.1673   -4.1604    5.0084 N   0  0  0  0  0  0  0  0  0  0  0  0
   -7.5479   -3.6723    3.7143 C   0  0  0  0  0  0  0  0  0  0  0  0
   -8.4552   -2.8248    3.6918 O   0  0  0  0  0  0  0  0  0  0  0  0
   -6.8258   -4.2256    2.5574 C   0  0  0  0  0  0  0  0  0  0  0  0
   -7.2507   -3.5200    1.2310 C   0  0  2  0  0  0  0  0  0  0  0  0
   -6.5033   -4.1107    0.1587 N   0  0  0  0  0  0  0  0  0  0  0  0
   -5.6817   -5.2427    0.1094 C   0  0  0  0  0  0  0  0  0  0  0  0
   -5.4115   -5.8266    1.1490 O   0  0  0  0  0  0  0  0  0  0  0  0
   -5.1060   -5.7447   -1.2001 C   0  0  2  0  0  0  0  0  0  0  0  0
   -6.1161   -6.6842   -1.8304 C   0  0  0  0  0  0  0  0  0  0  0  0
   -3.8822   -6.4613   -0.8397 N   0  0  0  0  0  0  0  0  0  0  0  0
   -2.7022   -5.9995   -1.4591 C   0  0  0  0  0  0  0  0  0  0  0  0
   -2.8850   -5.1021   -2.3437 O   0  0  0  0  0  0  0  0  0  0  0  0
   -1.3094   -6.3946   -1.2394 C   0  0  2  0  0  0  0  0  0  0  0  0
   -0.9949   -5.8979    0.2242 C   0  0  0  0  0  0  0  0  0  0  0  0
   -0.5075   -5.5997   -2.1430 N   0  0  0  0  0  0  0  0  0  0  0  0
    0.8937   -5.3804   -2.0967 C   0  0  0  0  0  0  0  0  0  0  0  0
    1.4935   -5.9121   -1.1598 O   0  0  0  0  0  0  0  0  0  0  0  0
    1.5273   -4.5279   -3.1513 C   0  0  2  0  0  0  0  0  0  0  0  0
    1.9740   -5.2897   -4.3579 C   0  0  0  0  0  0  0  0  0  0  0  0
    2.7127   -3.8083   -2.6298 N   0  0  0  0  0  0  0  0  0  0  0  0
    2.4149   -2.5623   -2.0517 C   0  0  0  0  0  0  0  0  0  0  0  0
    1.1630   -2.2881   -2.0154 O   0  0  0  0  0  0  0  0  0  0  0  0
    3.2772   -1.5185   -1.4755 C   0  0  2  0  0  0  0  0  0  0  0  0
    2.9059   -0.2612   -2.2463 C   0  0  0  0  0  0  0  0  0  0  0  0
    3.2671    0.9951   -1.5620 C   0  0  0  0  0  0  0  0  0  0  0  0
    3.9686    1.0863   -0.5654 O   0  0  0  0  0  0  0  0  0  0  0  0
    2.7335    2.2061   -2.1048 N   0  0  0  0  0  0  0  0  0  0  0  0
    2.8749    3.5180   -1.5800 C   0  0  0  0  0  0  0  0  0  0  0  0
    2.2692    3.6063   -0.1715 C   0  0  2  0  0  0  0  0  0  0  0  0
    0.8827    3.4301   -0.0304 N   0  0  0  0  0  0  0  0  0  0  0  0
   -0.0455    2.5211   -0.5586 C   0  0  0  0  0  0  0  0  0  0  0  0
    0.2947    1.7318   -1.4109 O   0  0  0  0  0  0  0  0  0  0  0  0
   -1.4723    2.4658   -0.1348 C   0  0  0  0  0  0  0  0  0  0  0  0
   -1.8279    3.1480    0.8774 O   0  0  0  0  0  0  0  0  0  0  0  0
   -2.4450    1.6210   -0.8983 C   0  0  1  0  0  0  0  0  0  0  0  0
   -3.6309    1.4779   -0.0774 N   0  0  0  0  0  0  0  0  0  0  0  0
   -4.1940    0.1585    0.0622 C   0  0  0  0  0  0  0  0  0  0  0  0
   -3.6511   -0.7154   -0.6210 O   0  0  0  0  0  0  0  0  0  0  0  0
   -5.3332   -0.1547    0.9433 C   0  0  1  0  0  0  0  0  0  0  0  0
   -5.6929   -1.5530    0.8369 N   0  0  0  0  0  0  0  0  0  0  0  0
   -6.9456   -2.0755    1.3722 C   0  0  0  0  0  0  0  0  0  0  0  0
   -7.6315   -1.2137    1.9162 O   0  0  0  0  0  0  0  0  0  0  0  0
   -4.6986    0.0329    2.3835 C   0  0  0  0  0  0  0  0  0  0  0  0
   -2.7792    2.3516   -2.1983 C   0  0  0  0  0  0  0  0  0  0  0  0
   -3.7446    1.5649   -2.9750 C   0  0  0  0  0  0  0  0  0  0  0  0
   -5.1109    1.7471   -2.7505 C   0  0  0  0  0  0  0  0  0  0  0  0
   -6.0425    1.0293   -3.4729 C   0  0  0  0  0  0  0  0  0  0  0  0
   -5.6323    0.1085   -4.4403 C   0  0  0  0  0  0  0  0  0  0  0  0
   -4.2830   -0.0742   -4.6656 C   0  0  0  0  0  0  0  0  0  0  0  0
   -3.3573    0.6440   -3.9429 C   0  0  0  0  0  0  0  0  0  0  0  0
    2.6998    4.8974    0.4161 C   0  0  0  0  0  0  0  0  0  0  0  0
    3.9663    5.0957    0.4316 O   0  0  0  0  0  0  0  0  0  0  0  0
    1.8527    5.8887    0.9323 N   0  0  0  0  0  0  0  0  0  0  0  0
    2.3090    7.1711    1.4923 C   0  0  2  0  0  0  0  0  0  0  0  0
    2.1077    7.1521    2.9415 C   0  0  0  0  0  0  0  0  0  0  0  0
    1.5818    6.0936    3.4368 O   0  0  0  0  0  0  0  0  0  0  0  0
    2.4496    8.2117    3.8262 N   0  0  0  0  0  0  0  0  0  0  0  0
    1.5355    8.2946    0.8634 C   0  0  0  0  0  0  0  0  0  0  0  0
    1.8635    9.6457    1.3197 C   0  0  0  0  0  0  0  0  0  0  0  0
    2.8623   10.3525    0.6925 C   0  0  0  0  0  0  0  0  0  0  0  0
    3.1730   11.6403    1.0863 C   0  0  0  0  0  0  0  0  0  0  0  0
    2.4715   12.2193    2.1197 C   0  0  0  0  0  0  0  0  0  0  0  0
    1.4742   11.5194    2.7500 C   0  0  0  0  0  0  0  0  0  0  0  0
    1.1480   10.2314    2.3717 C   0  0  0  0  0  0  0  0  0  0  0  0
    2.7760   13.5279    2.5317 O   0  0  0  0  0  0  0  0  0  0  0  0
    4.6731   -1.8147   -1.7191 N   0  0  0  0  0  0  0  0  0  0  0  0
    5.6219   -2.0690   -0.6920 C   0  0  0  0  0  0  0  0  0  0  0  0
    5.2200   -2.0428    0.5099 O   0  0  0  0  0  0  0  0  0  0  0  0
    7.0122   -2.3515   -1.0695 C   0  0  2  0  0  0  0  0  0  0  0  0
    8.0651   -1.6586   -0.2756 C   0  0  0  0  0  0  0  0  0  0  0  0
    8.0748   -1.9585    1.1659 C   0  0  0  0  0  0  0  0  0  0  0  0
    7.4315   -1.2419    2.1365 C   0  0  0  0  0  0  0  0  0  0  0  0
    7.5109   -1.6207    3.4789 C   0  0  0  0  0  0  0  0  0  0  0  0
    8.2349   -2.7235    3.8881 C   0  0  0  0  0  0  0  0  0  0  0  0
    8.8896   -3.4546    2.9032 C   0  0  0  0  0  0  0  0  0  0  0  0
    8.7999   -3.0650    1.5765 C   0  0  0  0  0  0  0  0  0  0  0  0
    8.3322   -3.1219    5.2129 O   0  0  0  0  0  0  0  0  0  0  0  0
    7.2537   -2.2321   -2.5039 N   0  0  0  0  0  0  0  0  0  0  0  0
    7.0693   -0.9504   -2.9767 N   0  0  0  0  0  0  0  0  0  0  0  0
   -7.4814   -2.5788    6.2704 H   0  0  0  0  0  0  0  0  0  0  0  0
   -7.6867   -4.1790    7.0668 H   0  0  0  0  0  0  0  0  0  0  0  0
   -8.9631   -3.5292    5.9270 H   0  0  0  0  0  0  0  0  0  0  0  0
   -6.4149   -4.8728    5.1175 H   0  0  0  0  0  0  0  0  0  0  0  0
   -5.7478   -4.0942    2.6439 H   0  0  0  0  0  0  0  0  0  0  0  0
   -7.0933   -5.3002    2.4056 H   0  0  0  0  0  0  0  0  0  0  0  0
   -8.2992   -3.7643    1.1921 H   0  0  0  0  0  0  0  0  0  0  0  0
   -6.5723   -3.6011   -0.7700 H   0  0  0  0  0  0  0  0  0  0  0  0
   -4.9712   -4.8956   -1.8476 H   0  0  0  0  0  0  0  0  0  0  0  0
   -6.7145   -7.2206   -1.0725 H   0  0  0  0  0  0  0  0  0  0  0  0
   -5.6766   -7.3342   -2.5778 H   0  0  0  0  0  0  0  0  0  0  0  0
   -6.8695   -6.0311   -2.3659 H   0  0  0  0  0  0  0  0  0  0  0  0
   -3.8062   -7.2374   -0.2039 H   0  0  0  0  0  0  0  0  0  0  0  0
   -1.1099   -7.4411   -1.2061 H   0  0  0  0  0  0  0  0  0  0  0  0
   -1.7659   -6.4408    0.8233 H   0  0  0  0  0  0  0  0  0  0  0  0
   -1.1882   -4.8381    0.2854 H   0  0  0  0  0  0  0  0  0  0  0  0
   -0.0340   -6.2885    0.5254 H   0  0  0  0  0  0  0  0  0  0  0  0
   -0.9948   -5.1303   -2.9195 H   0  0  0  0  0  0  0  0  0  0  0  0
    0.7148   -3.8311   -3.4463 H   0  0  0  0  0  0  0  0  0  0  0  0
    1.1398   -5.6847   -4.9760 H   0  0  0  0  0  0  0  0  0  0  0  0
    2.5782   -4.5405   -4.9631 H   0  0  0  0  0  0  0  0  0  0  0  0
    2.7096   -6.0513   -4.0566 H   0  0  0  0  0  0  0  0  0  0  0  0
    3.6545   -4.1255   -2.6572 H   0  0  0  0  0  0  0  0  0  0  0  0
    3.0734   -1.3824   -0.3832 H   0  0  0  0  0  0  0  0  0  0  0  0
    1.8197   -0.2667   -2.5205 H   0  0  0  0  0  0  0  0  0  0  0  0
    3.4409   -0.2495   -3.2451 H   0  0  0  0  0  0  0  0  0  0  0  0
    2.2365    2.0827   -3.0030 H   0  0  0  0  0  0  0  0  0  0  0  0
    2.4545    4.2679   -2.2417 H   0  0  0  0  0  0  0  0  0  0  0  0
    3.9701    3.6705   -1.3944 H   0  0  0  0  0  0  0  0  0  0  0  0
    2.8326    2.7777    0.3475 H   0  0  0  0  0  0  0  0  0  0  0  0
    0.3790    4.1112    0.6367 H   0  0  0  0  0  0  0  0  0  0  0  0
   -1.9801    0.6783   -1.2032 H   0  0  0  0  0  0  0  0  0  0  0  0
   -4.1257    2.2042    0.4219 H   0  0  0  0  0  0  0  0  0  0  0  0
   -6.1437    0.5528    0.9712 H   0  0  0  0  0  0  0  0  0  0  0  0
   -5.1137   -2.2614    0.3904 H   0  0  0  0  0  0  0  0  0  0  0  0
   -3.8518   -0.6757    2.4201 H   0  0  0  0  0  0  0  0  0  0  0  0
   -4.2820    1.0522    2.4493 H   0  0  0  0  0  0  0  0  0  0  0  0
   -5.4649   -0.0939    3.1390 H   0  0  0  0  0  0  0  0  0  0  0  0
   -3.2618    3.3387   -1.9503 H   0  0  0  0  0  0  0  0  0  0  0  0
   -1.8256    2.4646   -2.7377 H   0  0  0  0  0  0  0  0  0  0  0  0
   -5.3714    2.4754   -1.9919 H   0  0  0  0  0  0  0  0  0  0  0  0
   -7.1007    1.1925   -3.2752 H   0  0  0  0  0  0  0  0  0  0  0  0
   -6.3356   -0.4644   -5.0156 H   0  0  0  0  0  0  0  0  0  0  0  0
   -3.9993   -0.8003   -5.4314 H   0  0  0  0  0  0  0  0  0  0  0  0
   -2.3000    0.4609   -4.1666 H   0  0  0  0  0  0  0  0  0  0  0  0
    0.7919    5.8109    0.9576 H   0  0  0  0  0  0  0  0  0  0  0  0
    3.3900    7.2328    1.2730 H   0  0  0  0  0  0  0  0  0  0  0  0
    1.7593    8.4164    4.5860 H   0  0  0  0  0  0  0  0  0  0  0  0
    3.3428    8.7402    3.6996 H   0  0  0  0  0  0  0  0  0  0  0  0
    1.6188    8.1892   -0.2518 H   0  0  0  0  0  0  0  0  0  0  0  0
    0.4509    8.0866    1.1045 H   0  0  0  0  0  0  0  0  0  0  0  0
    3.4299    9.9229   -0.1275 H   0  0  0  0  0  0  0  0  0  0  0  0
    3.9623   12.1394    0.5595 H   0  0  0  0  0  0  0  0  0  0  0  0
    0.8887   11.9439    3.5846 H   0  0  0  0  0  0  0  0  0  0  0  0
    0.3565    9.7273    2.8898 H   0  0  0  0  0  0  0  0  0  0  0  0
    3.0954   13.7306    3.4825 H   0  0  0  0  0  0  0  0  0  0  0  0
    4.9415   -1.8364   -2.7524 H   0  0  0  0  0  0  0  0  0  0  0  0
    7.1609   -3.4662   -0.8841 H   0  0  0  0  0  0  0  0  0  0  0  0
    9.0954   -1.9070   -0.6649 H   0  0  0  0  0  0  0  0  0  0  0  0
    7.9329   -0.5612   -0.4202 H   0  0  0  0  0  0  0  0  0  0  0  0
    6.8629   -0.3698    1.8544 H   0  0  0  0  0  0  0  0  0  0  0  0
    7.0088   -1.0642    4.2546 H   0  0  0  0  0  0  0  0  0  0  0  0
    9.4718   -4.3314    3.1903 H   0  0  0  0  0  0  0  0  0  0  0  0
    9.3374   -3.6877    0.8725 H   0  0  0  0  0  0  0  0  0  0  0  0
    9.0955   -3.7175    5.5318 H   0  0  0  0  0  0  0  0  0  0  0  0
    6.6570   -2.8939   -3.0105 H   0  0  0  0  0  0  0  0  0  0  0  0
    6.8216   -0.2531   -2.2543 H   0  0  0  0  0  0  0  0  0  0  0  0
    7.7036   -0.6418   -3.7240 H   0  0  0  0  0  0  0  0  0  0  0  0
  1  2  1  0
  2  3  1  0
  3  4  2  0
  3  5  1  0
  5  6  1  0
  6  7  1  0
  7  8  1  0
  8  9  2  0
  8 10  1  0
 10 11  1  0
 10 12  1  0
 12 13  1  0
 13 14  2  0
 13 15  1  0
 15 16  1  0
 15 17  1  0
 17 18  1  0
 18 19  2  0
 18 20  1  0
 20 21  1  0
 20 22  1  0
 22 23  1  0
 23 24  2  0
 23 25  1  0
 25 26  1  0
 26 27  1  0
 27 28  2  0
 27 29  1  0
 29 30  1  0
 30 31  1  0
 31 32  1  0
 32 33  1  0
 33 34  2  0
 33 35  1  0
 35 36  2  0
 35 37  1  0
 37 38  1  0
 38 39  1  0
 39 40  2  0
 39 41  1  0
 41 42  1  0
 42 43  1  0
 43 44  2  0
 41 45  1  0
 37 46  1  0
 46 47  1  0
 47 48  2  0
 48 49  1  0
 49 50  2  0
 50 51  1  0
 51 52  2  0
 31 53  1  0
 53 54  2  0
 53 55  1  0
 55 56  1  0
 56 57  1  0
 57 58  2  0
 57 59  1  0
 56 60  1  0
 60 61  1  0
 61 62  2  0
 62 63  1  0
 63 64  2  0
 64 65  1  0
 65 66  2  0
 64 67  1  0
 25 68  1  0
 68 69  1  0
 69 70  2  0
 69 71  1  0
 71 72  1  0
 72 73  1  0
 73 74  2  0
 74 75  1  0
 75 76  2  0
 76 77  1  0
 77 78  2  0
 76 79  1  0
 71 80  1  0
 80 81  1  0
 43  6  1  0
 52 47  1  0
 66 61  1  0
 78 73  1  0
  1 82  1  0
  1 83  1  0
  1 84  1  0
  2 85  1  0
  5 86  1  0
  5 87  1  0
  6 88  1  6
  7 89  1  0
 10 90  1  6
 11 91  1  0
 11 92  1  0
 11 93  1  0
 12 94  1  0
 15 95  1  1
 16 96  1  0
 16 97  1  0
 16 98  1  0
 17 99  1  0
 20100  1  6
 21101  1  0
 21102  1  0
 21103  1  0
 22104  1  0
 25105  1  1
 26106  1  0
 26107  1  0
 29108  1  0
 30109  1  0
 30110  1  0
 31111  1  1
 32112  1  0
 37113  1  6
 38114  1  0
 41115  1  6
 42116  1  0
 45117  1  0
 45118  1  0
 45119  1  0
 46120  1  0
 46121  1  0
 48122  1  0
 49123  1  0
 50124  1  0
 51125  1  0
 52126  1  0
 55127  1  0
 56128  1  1
 59129  1  0
 59130  1  0
 60131  1  0
 60132  1  0
 62133  1  0
 63134  1  0
 65135  1  0
 66136  1  0
 67137  1  0
 68138  1  0
 71139  1  1
 72140  1  0
 72141  1  0
 74142  1  0
 75143  1  0
 77144  1  0
 78145  1  0
 79146  1  0
 80147  1  0
 81148  1  0
 81149  1  0
M  END
>  <Ligand ID>  (1) 
LIG0001154

>  <Ligand>  (1) 
CHEMBL2369483

>  <SMILES>  (1) 
CNC(=O)C[C@@H]1NC(=O)[C@H](C)NC(=O)[C@H](C)NC(=O)[C@H](C)NC(=O)[C@H](CC(=O)NC[C@H](NC(=O)C(=O)[C@@H](NC(=O)[C@@H](NC1=O)C)Cc1ccccc1)C(=O)N[C@H](C(=O)N)Cc1ccc(cc1)O)NC(=O)[C@H](Cc1ccc(cc1)O)NN

>  <CID>  (1) 
73345374.0

>  <ChEMBL ID>  (1) 
nan

>  <InChiKey>  (1) 
YUHAAKMAZYVMDB-RPYYGCMMSA-N

>  <InChi>  (1) 
InChI=1S/C52H68N14O15/c1-25-44(73)58-27(3)47(76)63-36(22-40(69)55-5)48(77)60-28(4)46(75)61-34(19-29-9-7-6-8-10-29)42(71)52(81)65-39(51(80)62-35(43(53)72)20-30-11-15-32(67)16-12-30)24-56-41(70)23-37(49(78)59-26(2)45(74)57-25)64-50(79)38(66-54)21-31-13-17-33(68)18-14-31/h6-18,25-28,34-39,66-68H,19-24,54H2,1-5H3,(H2,53,72)(H,55,69)(H,56,70)(H,57,74)(H,58,73)(H,59,78)(H,60,77)(H,61,75)(H,62,80)(H,63,76)(H,64,79)(H,65,81)/t25-,26-,27-,28-,34-,35-,36-,37-,38-,39-/m0/s1

>  <IUPAC Name>  (1) 
(2S,5S,8S,11S,14S,17S,21S,26S)-N-[(2S)-1-amino-3-(4-hydroxyphenyl)-1-oxopropan-2-yl]-17-benzyl-26-[[(2S)-2-hydrazinyl-3-(4-hydroxyphenyl)propanoyl]amino]-2,5,8,14-tetramethyl-11-[2-(methylamino)-2-oxoethyl]-3,6,9,12,15,18,19,24,27-nonaoxo-1,4,7,10,13,16,20,23-octazacycloheptacosane-21-carboxamide

$$$$
