
     RDKit          3D

 40 41  0  0  0  0  0  0  0  0999 V2000
    7.0434    2.4586   -1.9458 Cl  0  0  0  0  0  0  0  0  0  0  0  0
    5.5656    1.8377   -1.2431 C   0  0  0  0  0  0  0  0  0  0  0  0
    4.4586    1.5021   -2.0155 C   0  0  0  0  0  0  0  0  0  0  0  0
    3.3009    1.0109   -1.4155 C   0  0  0  0  0  0  0  0  0  0  0  0
    3.2652    0.8603   -0.0382 C   0  0  0  0  0  0  0  0  0  0  0  0
    4.3813    1.2021    0.7070 C   0  0  0  0  0  0  0  0  0  0  0  0
    5.5338    1.6890    0.1310 C   0  0  0  0  0  0  0  0  0  0  0  0
    2.0164    0.3271    0.6433 C   0  0  0  0  0  0  0  0  0  0  0  0
    2.1079   -1.0697    0.7155 N   0  0  0  0  0  0  0  0  0  0  0  0
    1.3699   -1.9022    1.2952 C   0  0  0  0  0  0  0  0  0  0  0  0
   -0.0815   -1.6877    2.2511 S   0  0  0  0  0  0  0  0  0  0  0  0
   -0.9540   -0.1583    2.0165 C   0  0  0  0  0  0  0  0  0  0  0  0
   -1.6470   -0.1194    0.6560 C   0  0  0  0  0  0  0  0  0  0  0  0
   -2.6402   -1.2739    0.6529 C   0  0  0  0  0  0  0  0  0  0  0  0
   -3.4068   -1.3544   -0.6438 C   0  0  0  0  0  0  0  0  0  0  0  0
   -4.1846   -0.1128   -0.9027 C   0  0  0  0  0  0  0  0  0  0  0  0
   -3.8106    1.0329   -1.5739 C   0  0  0  0  0  0  0  0  0  0  0  0
   -4.8575    1.8870   -1.5491 N   0  0  0  0  0  0  0  0  0  0  0  0
   -5.8487    1.2741   -0.8767 C   0  0  0  0  0  0  0  0  0  0  0  0
   -5.4636    0.0489   -0.4700 N   0  0  0  0  0  0  0  0  0  0  0  0
    1.8614   -3.2841    1.2105 N   0  0  0  0  0  0  0  0  0  0  0  0
    4.5291    1.6362   -3.0998 H   0  0  0  0  0  0  0  0  0  0  0  0
    2.4441    0.7517   -2.0224 H   0  0  0  0  0  0  0  0  0  0  0  0
    4.2941    1.0627    1.7793 H   0  0  0  0  0  0  0  0  0  0  0  0
    6.3590    1.9330    0.7700 H   0  0  0  0  0  0  0  0  0  0  0  0
    2.0486    0.8302    1.6589 H   0  0  0  0  0  0  0  0  0  0  0  0
    1.1292    0.6967    0.1317 H   0  0  0  0  0  0  0  0  0  0  0  0
   -0.2565    0.6988    2.0701 H   0  0  0  0  0  0  0  0  0  0  0  0
   -1.7005    0.0482    2.8297 H   0  0  0  0  0  0  0  0  0  0  0  0
   -0.8987   -0.3353   -0.1057 H   0  0  0  0  0  0  0  0  0  0  0  0
   -2.1803    0.8258    0.5823 H   0  0  0  0  0  0  0  0  0  0  0  0
   -3.2953   -1.1909    1.5325 H   0  0  0  0  0  0  0  0  0  0  0  0
   -2.0571   -2.2104    0.7460 H   0  0  0  0  0  0  0  0  0  0  0  0
   -2.7007   -1.4564   -1.4761 H   0  0  0  0  0  0  0  0  0  0  0  0
   -4.0796   -2.2316   -0.5577 H   0  0  0  0  0  0  0  0  0  0  0  0
   -2.8530    1.2039   -2.0313 H   0  0  0  0  0  0  0  0  0  0  0  0
   -6.8220    1.7339   -0.7014 H   0  0  0  0  0  0  0  0  0  0  0  0
   -6.0317   -0.6523    0.0753 H   0  0  0  0  0  0  0  0  0  0  0  0
    2.1409   -3.7563    2.1053 H   0  0  0  0  0  0  0  0  0  0  0  0
    1.9204   -3.7560    0.2813 H   0  0  0  0  0  0  0  0  0  0  0  0
  1  2  1  0
  2  3  2  0
  3  4  1  0
  4  5  2  0
  5  6  1  0
  6  7  2  0
  5  8  1  0
  8  9  1  0
  9 10  2  3
 10 11  1  0
 11 12  1  0
 12 13  1  0
 13 14  1  0
 14 15  1  0
 15 16  1  0
 16 17  2  0
 17 18  1  0
 18 19  2  0
 19 20  1  0
 10 21  1  0
  7  2  1  0
 20 16  1  0
  3 22  1  0
  4 23  1  0
  6 24  1  0
  7 25  1  0
  8 26  1  0
  8 27  1  0
 12 28  1  0
 12 29  1  0
 13 30  1  0
 13 31  1  0
 14 32  1  0
 14 33  1  0
 15 34  1  0
 15 35  1  0
 17 36  1  0
 19 37  1  0
 20 38  1  0
 21 39  1  0
 21 40  1  0
M  END
>  <Ligand ID>  (1) 
LIG0005940

>  <Ligand>  (1) 
Clobenprobit

>  <SMILES>  (1) 
Clc1ccc(cc1)CN=C(SCCCCc1cnc[nH]1)N

>  <CID>  (1) 
53321919.0

>  <ChEMBL ID>  (1) 
nan

>  <InChiKey>  (1) 
PLYSQHFCSVNUMZ-UHFFFAOYSA-N

>  <InChi>  (1) 
InChI=1S/C15H19ClN4S/c16-13-6-4-12(5-7-13)9-19-15(17)21-8-2-1-3-14-10-18-11-20-14/h4-7,10-11H,1-3,8-9H2,(H2,17,19)(H,18,20)

>  <IUPAC Name>  (1) 
4-(1H-imidazol-5-yl)butyl N'-[(4-chlorophenyl)methyl]carbamimidothioate

$$$$
