
     RDKit          3D

 45 48  0  0  0  0  0  0  0  0999 V2000
   -1.9208    1.9379    2.4337 C   0  0  0  0  0  0  0  0  0  0  0  0
   -1.7501    1.2328    1.1408 C   0  0  0  0  0  0  0  0  0  0  0  0
   -0.5753    0.8124    0.6539 N   0  0  0  0  0  0  0  0  0  0  0  0
   -0.6723    0.2153   -0.5049 N   0  0  0  0  0  0  0  0  0  0  0  0
   -2.0081    0.2397   -0.8119 C   0  0  0  0  0  0  0  0  0  0  0  0
   -2.6883    0.8703    0.2046 C   0  0  0  0  0  0  0  0  0  0  0  0
   -4.1266    0.9221   -0.0793 C   0  0  1  0  0  0  0  0  0  0  0  0
   -4.2538    0.3507   -1.4626 C   0  0  1  0  0  0  0  0  0  0  0  0
   -2.9385   -0.1970   -1.8854 C   0  0  0  0  0  0  0  0  0  0  0  0
   -4.8687   -0.3389   -0.2841 C   0  0  0  0  0  0  0  0  0  0  0  0
   -4.1826   -1.5889    0.2544 C   0  0  0  0  0  0  0  0  0  0  0  0
   -6.3692   -0.3654   -0.2822 C   0  0  0  0  0  0  0  0  0  0  0  0
    0.3628   -0.3467   -1.2974 C   0  0  0  0  0  0  0  0  0  0  0  0
    0.0112   -0.8833   -2.4089 O   0  0  0  0  0  0  0  0  0  0  0  0
    1.7595   -0.3690   -0.9700 C   0  0  0  0  0  0  0  0  0  0  0  0
    2.3244    0.1232    0.1136 C   0  0  0  0  0  0  0  0  0  0  0  0
    3.7474    0.0763    0.4012 C   0  0  0  0  0  0  0  0  0  0  0  0
    4.2522    0.6289    1.5835 C   0  0  0  0  0  0  0  0  0  0  0  0
    5.5890    0.6071    1.8959 C   0  0  0  0  0  0  0  0  0  0  0  0
    6.5126    0.0320    1.0490 C   0  0  0  0  0  0  0  0  0  0  0  0
    6.0330   -0.5162   -0.1182 C   0  0  0  0  0  0  0  0  0  0  0  0
    4.6851   -0.4931   -0.4311 C   0  0  0  0  0  0  0  0  0  0  0  0
    7.0042   -1.1513   -1.0661 C   0  0  0  0  0  0  0  0  0  0  0  0
    6.9052   -2.5201   -1.0391 F   0  0  0  0  0  0  0  0  0  0  0  0
    6.6526   -0.7298   -2.3435 F   0  0  0  0  0  0  0  0  0  0  0  0
    8.2667   -0.7116   -0.7774 F   0  0  0  0  0  0  0  0  0  0  0  0
   -1.6301    2.9899    2.3867 H   0  0  0  0  0  0  0  0  0  0  0  0
   -2.9698    1.8045    2.8282 H   0  0  0  0  0  0  0  0  0  0  0  0
   -1.2386    1.4472    3.1594 H   0  0  0  0  0  0  0  0  0  0  0  0
   -4.6988    1.8569    0.0909 H   0  0  0  0  0  0  0  0  0  0  0  0
   -4.8682    0.8784   -2.1963 H   0  0  0  0  0  0  0  0  0  0  0  0
   -2.5902    0.1635   -2.8725 H   0  0  0  0  0  0  0  0  0  0  0  0
   -2.9739   -1.3153   -1.9793 H   0  0  0  0  0  0  0  0  0  0  0  0
   -4.8386   -2.0180    1.0403 H   0  0  0  0  0  0  0  0  0  0  0  0
   -4.0890   -2.3110   -0.5897 H   0  0  0  0  0  0  0  0  0  0  0  0
   -3.1862   -1.3491    0.6602 H   0  0  0  0  0  0  0  0  0  0  0  0
   -6.7563   -0.7475    0.6818 H   0  0  0  0  0  0  0  0  0  0  0  0
   -6.7324   -0.9361   -1.1560 H   0  0  0  0  0  0  0  0  0  0  0  0
   -6.7016    0.6933   -0.4043 H   0  0  0  0  0  0  0  0  0  0  0  0
    2.4381   -0.8383   -1.6810 H   0  0  0  0  0  0  0  0  0  0  0  0
    1.6937    0.5968    0.8452 H   0  0  0  0  0  0  0  0  0  0  0  0
    3.5597    1.0862    2.2678 H   0  0  0  0  0  0  0  0  0  0  0  0
    5.8897    1.0661    2.8463 H   0  0  0  0  0  0  0  0  0  0  0  0
    7.5376    0.0391    1.3339 H   0  0  0  0  0  0  0  0  0  0  0  0
    4.4033   -0.9444   -1.3619 H   0  0  0  0  0  0  0  0  0  0  0  0
  1  2  1  0
  2  3  2  0
  3  4  1  0
  4  5  1  0
  5  6  2  0
  6  7  1  0
  7  8  1  0
  8  9  1  0
  8 10  1  0
 10 11  1  0
 10 12  1  0
  4 13  1  0
 13 14  2  0
 13 15  1  0
 15 16  2  0
 16 17  1  0
 17 18  2  0
 18 19  1  0
 19 20  2  0
 20 21  1  0
 21 22  2  0
 21 23  1  0
 23 24  1  0
 23 25  1  0
 23 26  1  0
  6  2  1  0
 10  7  1  0
 22 17  1  0
  9  5  1  0
  1 27  1  0
  1 28  1  0
  1 29  1  0
  7 30  1  6
  8 31  1  6
  9 32  1  0
  9 33  1  0
 11 34  1  0
 11 35  1  0
 11 36  1  0
 12 37  1  0
 12 38  1  0
 12 39  1  0
 15 40  1  0
 16 41  1  0
 18 42  1  0
 19 43  1  0
 20 44  1  0
 22 45  1  0
M  END
>  <Ligand ID>  (1) 
LIG0003965

>  <Ligand>  (1) 
CHEMBL590134

>  <SMILES>  (1) 
Cc1nn(c2c1[C@H]1[C@@H](C2)C1(C)C)C(=O)/C=C/c1cccc(c1)C(F)(F)F

>  <CID>  (1) 
46224714.0

>  <ChEMBL ID>  (1) 
nan

>  <InChiKey>  (1) 
RAEXFDVJMFJGFO-WXVPVVBVSA-N

>  <InChi>  (1) 
InChI=1S/C20H19F3N2O/c1-11-17-15(10-14-18(17)19(14,2)3)25(24-11)16(26)8-7-12-5-4-6-13(9-12)20(21,22)23/h4-9,14,18H,10H2,1-3H3/b8-7+/t14-,18-/m1/s1

>  <IUPAC Name>  (1) 
(E)-3-[3-(trifluoromethyl)phenyl]-1-[(2S,4R)-3,3,9-trimethyl-7,8-diazatricyclo[4.3.0.02,4]nona-1(6),8-dien-7-yl]prop-2-en-1-one

$$$$
