
     RDKit          3D

 66 68  0  0  0  0  0  0  0  0999 V2000
    1.4279    4.0462    1.1168 O   0  0  0  0  0  0  0  0  0  0  0  0
    0.7768    2.7873    1.1923 C   0  0  0  0  0  0  0  0  0  0  0  0
   -0.2665    2.9478    2.2694 C   0  0  0  0  0  0  0  0  0  0  0  0
   -1.0067    1.8019    2.4264 O   0  0  0  0  0  0  0  0  0  0  0  0
   -1.8520    1.2099    1.5505 C   0  0  0  0  0  0  0  0  0  0  0  0
   -2.4597    0.0228    1.9595 C   0  0  0  0  0  0  0  0  0  0  0  0
   -3.3321   -0.6595    1.1688 C   0  0  0  0  0  0  0  0  0  0  0  0
   -3.6878   -0.2170   -0.1264 C   0  0  0  0  0  0  0  0  0  0  0  0
   -3.0829    0.9490   -0.5148 C   0  0  0  0  0  0  0  0  0  0  0  0
   -2.1890    1.6514    0.2942 C   0  0  0  0  0  0  0  0  0  0  0  0
   -4.5599   -0.9838   -0.8041 O   0  0  0  0  0  0  0  0  0  0  0  0
   -5.1302   -0.8517   -2.0417 C   0  0  0  0  0  0  0  0  0  0  0  0
   -6.0002    0.3658   -2.1364 C   0  0  0  0  0  0  0  0  0  0  0  0
   -7.0243    0.3417   -1.2240 O   0  0  0  0  0  0  0  0  0  0  0  0
   -7.8629   -0.7242   -1.3885 C   0  0  0  0  0  0  0  0  0  0  0  0
   -8.9826   -0.6406   -0.3507 C   0  0  0  0  0  0  0  0  0  0  0  0
   -9.9994   -1.7133   -0.3744 C   0  0  0  0  0  0  0  0  0  0  0  0
   -8.9764   -1.6829    0.7597 C   0  0  0  0  0  0  0  0  0  0  0  0
    1.8438    1.8339    1.7422 C   0  0  0  0  0  0  0  0  0  0  0  0
    2.9894    1.7724    0.8964 N   0  0  0  0  0  0  0  0  0  0  0  0
    2.8111    1.1484   -0.3736 C   0  0  0  0  0  0  0  0  0  0  0  0
    2.5680   -0.3480   -0.2556 C   0  0  0  0  0  0  0  0  0  0  0  0
    3.7183   -0.9239    0.4065 N   0  0  0  0  0  0  0  0  0  0  0  0
    5.0406   -0.8691   -0.0929 C   0  0  0  0  0  0  0  0  0  0  0  0
    5.3194   -0.3151   -1.1703 O   0  0  0  0  0  0  0  0  0  0  0  0
    6.1224   -1.4569    0.6335 N   0  0  0  0  0  0  0  0  0  0  0  0
    7.4669   -1.4288    0.1703 C   0  0  0  0  0  0  0  0  0  0  0  0
    8.3500   -0.4127    0.4503 C   0  0  0  0  0  0  0  0  0  0  0  0
    9.6521   -0.4181   -0.0108 C   0  0  0  0  0  0  0  0  0  0  0  0
   10.1013   -1.4901   -0.7916 C   0  0  0  0  0  0  0  0  0  0  0  0
    9.2293   -2.5297   -1.0890 C   0  0  0  0  0  0  0  0  0  0  0  0
    7.9394   -2.4715   -0.6017 C   0  0  0  0  0  0  0  0  0  0  0  0
   11.4019   -1.5353   -1.2754 O   0  0  0  0  0  0  0  0  0  0  0  0
    2.2423    4.0772    1.6677 H   0  0  0  0  0  0  0  0  0  0  0  0
    0.4476    2.4797    0.2171 H   0  0  0  0  0  0  0  0  0  0  0  0
    0.2802    3.1156    3.2518 H   0  0  0  0  0  0  0  0  0  0  0  0
   -0.8800    3.8693    2.1093 H   0  0  0  0  0  0  0  0  0  0  0  0
   -2.2355   -0.3849    2.9493 H   0  0  0  0  0  0  0  0  0  0  0  0
   -3.7717   -1.5875    1.5545 H   0  0  0  0  0  0  0  0  0  0  0  0
   -3.2680    1.3600   -1.4862 H   0  0  0  0  0  0  0  0  0  0  0  0
   -1.7897    2.5566   -0.0900 H   0  0  0  0  0  0  0  0  0  0  0  0
   -5.6970   -1.7872   -2.2711 H   0  0  0  0  0  0  0  0  0  0  0  0
   -4.3439   -0.7812   -2.8593 H   0  0  0  0  0  0  0  0  0  0  0  0
   -6.4894    0.3420   -3.1575 H   0  0  0  0  0  0  0  0  0  0  0  0
   -5.4539    1.3054   -2.0353 H   0  0  0  0  0  0  0  0  0  0  0  0
   -7.3568   -1.6918   -1.1764 H   0  0  0  0  0  0  0  0  0  0  0  0
   -8.2755   -0.7210   -2.4168 H   0  0  0  0  0  0  0  0  0  0  0  0
   -9.2956    0.3912   -0.0778 H   0  0  0  0  0  0  0  0  0  0  0  0
   -9.8712   -2.5769   -1.0698 H   0  0  0  0  0  0  0  0  0  0  0  0
  -11.0402   -1.4755   -0.0400 H   0  0  0  0  0  0  0  0  0  0  0  0
   -9.3074   -1.3555    1.7642 H   0  0  0  0  0  0  0  0  0  0  0  0
   -8.1528   -2.4368    0.7350 H   0  0  0  0  0  0  0  0  0  0  0  0
    1.4085    0.8354    1.8551 H   0  0  0  0  0  0  0  0  0  0  0  0
    2.1717    2.1771    2.7449 H   0  0  0  0  0  0  0  0  0  0  0  0
    3.8579    1.4927    1.3960 H   0  0  0  0  0  0  0  0  0  0  0  0
    1.9495    1.5764   -0.9342 H   0  0  0  0  0  0  0  0  0  0  0  0
    3.6987    1.3148   -0.9992 H   0  0  0  0  0  0  0  0  0  0  0  0
    1.6746   -0.5663    0.3605 H   0  0  0  0  0  0  0  0  0  0  0  0
    2.4122   -0.8024   -1.2686 H   0  0  0  0  0  0  0  0  0  0  0  0
    3.6061   -1.4330    1.3361 H   0  0  0  0  0  0  0  0  0  0  0  0
    5.9559   -1.9388    1.5547 H   0  0  0  0  0  0  0  0  0  0  0  0
    8.0235    0.4210    1.0492 H   0  0  0  0  0  0  0  0  0  0  0  0
   10.3309    0.4107    0.2314 H   0  0  0  0  0  0  0  0  0  0  0  0
    9.5593   -3.3745   -1.6952 H   0  0  0  0  0  0  0  0  0  0  0  0
    7.2610   -3.3014   -0.8447 H   0  0  0  0  0  0  0  0  0  0  0  0
   12.0029   -0.7169   -1.1425 H   0  0  0  0  0  0  0  0  0  0  0  0
  1  2  1  0
  2  3  1  0
  3  4  1  0
  4  5  1  0
  5  6  2  0
  6  7  1  0
  7  8  2  0
  8  9  1  0
  9 10  2  0
  8 11  1  0
 11 12  1  0
 12 13  1  0
 13 14  1  0
 14 15  1  0
 15 16  1  0
 16 17  1  0
 17 18  1  0
  2 19  1  0
 19 20  1  0
 20 21  1  0
 21 22  1  0
 22 23  1  0
 23 24  1  0
 24 25  2  0
 24 26  1  0
 26 27  1  0
 27 28  2  0
 28 29  1  0
 29 30  2  0
 30 31  1  0
 31 32  2  0
 30 33  1  0
 10  5  1  0
 18 16  1  0
 32 27  1  0
  1 34  1  0
  2 35  1  0
  3 36  1  0
  3 37  1  0
  6 38  1  0
  7 39  1  0
  9 40  1  0
 10 41  1  0
 12 42  1  0
 12 43  1  0
 13 44  1  0
 13 45  1  0
 15 46  1  0
 15 47  1  0
 16 48  1  0
 17 49  1  0
 17 50  1  0
 18 51  1  0
 18 52  1  0
 19 53  1  0
 19 54  1  0
 20 55  1  0
 21 56  1  0
 21 57  1  0
 22 58  1  0
 22 59  1  0
 23 60  1  0
 26 61  1  0
 28 62  1  0
 29 63  1  0
 31 64  1  0
 32 65  1  0
 33 66  1  0
M  END
>  <Ligand ID>  (1) 
LIG0002969

>  <Ligand>  (1) 
CHEMBL2348220

>  <SMILES>  (1) 
OC(COc1ccc(cc1)OCCOCC1CC1)CNCCNC(=O)Nc1ccc(cc1)O

>  <CID>  (1) 
56598831.0

>  <ChEMBL ID>  (1) 
nan

>  <InChiKey>  (1) 
DDDPQBNOYIRDGL-UHFFFAOYSA-N

>  <InChi>  (1) 
InChI=1S/C24H33N3O6/c28-20-5-3-19(4-6-20)27-24(30)26-12-11-25-15-21(29)17-33-23-9-7-22(8-10-23)32-14-13-31-16-18-1-2-18/h3-10,18,21,25,28-29H,1-2,11-17H2,(H2,26,27,30)

>  <IUPAC Name>  (1) 
1-[2-[[3-[4-[2-(cyclopropylmethoxy)ethoxy]phenoxy]-2-hydroxypropyl]amino]ethyl]-3-(4-hydroxyphenyl)urea

$$$$
