
     RDKit          3D

 44 47  0  0  0  0  0  0  0  0999 V2000
    6.2736   -0.3743   -0.1824 O   0  0  0  0  0  0  0  0  0  0  0  0
    4.9023   -0.0850   -0.0995 C   0  0  0  0  0  0  0  0  0  0  0  0
    4.3773    1.0544   -0.6656 C   0  0  0  0  0  0  0  0  0  0  0  0
    3.0170    1.2867   -0.5515 C   0  0  0  0  0  0  0  0  0  0  0  0
    2.1588    0.4355    0.1004 C   0  0  0  0  0  0  0  0  0  0  0  0
    2.7299   -0.7056    0.6591 C   0  0  0  0  0  0  0  0  0  0  0  0
    4.0792   -0.9579    0.5587 C   0  0  0  0  0  0  0  0  0  0  0  0
    1.8320   -1.6569    1.3765 C   0  0  0  0  0  0  0  0  0  0  0  0
    0.5717   -1.8740    0.6157 C   0  0  0  0  0  0  0  0  0  0  0  0
   -0.0773   -0.6622    0.0567 C   0  0  2  0  0  0  0  0  0  0  0  0
    0.7213    0.6239    0.2541 C   0  0  2  0  0  0  0  0  0  0  0  0
    0.1139    1.6075   -0.7038 C   0  0  0  0  0  0  0  0  0  0  0  0
   -1.3041    1.8996   -0.3360 C   0  0  0  0  0  0  0  0  0  0  0  0
   -2.1218    0.6688   -0.2570 C   0  0  1  0  0  0  0  0  0  0  0  0
   -1.4167   -0.3492    0.5918 C   0  0  1  0  0  0  0  0  0  0  0  0
   -2.4319   -1.4203    0.6603 C   0  0  0  0  0  0  0  0  0  0  0  0
   -3.6637   -0.5992    1.0712 C   0  0  0  0  0  0  0  0  0  0  0  0
   -3.3727    0.8364    0.6145 C   0  0  2  0  0  0  0  0  0  0  0  0
   -4.4231    1.3475   -0.1563 O   0  0  0  0  0  0  0  0  0  0  0  0
   -2.6375    0.1442   -1.5665 C   0  0  0  0  0  0  0  0  0  0  0  0
    6.8499   -0.0121    0.5815 H   0  0  0  0  0  0  0  0  0  0  0  0
    5.0273    1.7607   -1.1952 H   0  0  0  0  0  0  0  0  0  0  0  0
    2.6188    2.1693   -0.9917 H   0  0  0  0  0  0  0  0  0  0  0  0
    4.5096   -1.8566    1.0022 H   0  0  0  0  0  0  0  0  0  0  0  0
    1.6402   -1.2162    2.3799 H   0  0  0  0  0  0  0  0  0  0  0  0
    2.3606   -2.6352    1.4633 H   0  0  0  0  0  0  0  0  0  0  0  0
   -0.1628   -2.3764    1.3096 H   0  0  0  0  0  0  0  0  0  0  0  0
    0.7896   -2.6700   -0.1535 H   0  0  0  0  0  0  0  0  0  0  0  0
   -0.0802   -0.7999   -1.0645 H   0  0  0  0  0  0  0  0  0  0  0  0
    0.4826    0.9719    1.3017 H   0  0  0  0  0  0  0  0  0  0  0  0
    0.1713    1.1351   -1.7067 H   0  0  0  0  0  0  0  0  0  0  0  0
    0.6352    2.5811   -0.7543 H   0  0  0  0  0  0  0  0  0  0  0  0
   -1.7261    2.5462   -1.1331 H   0  0  0  0  0  0  0  0  0  0  0  0
   -1.3452    2.4529    0.6199 H   0  0  0  0  0  0  0  0  0  0  0  0
   -1.3134    0.0952    1.6015 H   0  0  0  0  0  0  0  0  0  0  0  0
   -2.2111   -2.1939    1.4404 H   0  0  0  0  0  0  0  0  0  0  0  0
   -2.6116   -1.9593   -0.2828 H   0  0  0  0  0  0  0  0  0  0  0  0
   -4.5937   -0.9971    0.6670 H   0  0  0  0  0  0  0  0  0  0  0  0
   -3.6333   -0.5770    2.1944 H   0  0  0  0  0  0  0  0  0  0  0  0
   -3.0914    1.4859    1.4620 H   0  0  0  0  0  0  0  0  0  0  0  0
   -5.2196    0.7651   -0.1317 H   0  0  0  0  0  0  0  0  0  0  0  0
   -1.9024   -0.3876   -2.1828 H   0  0  0  0  0  0  0  0  0  0  0  0
   -3.0073    1.0056   -2.1385 H   0  0  0  0  0  0  0  0  0  0  0  0
   -3.5156   -0.5077   -1.3954 H   0  0  0  0  0  0  0  0  0  0  0  0
  1  2  1  0
  2  3  2  0
  3  4  1  0
  4  5  2  0
  5  6  1  0
  6  7  2  0
  6  8  1  0
  8  9  1  0
  9 10  1  0
 10 11  1  0
 11 12  1  0
 12 13  1  0
 13 14  1  0
 14 15  1  0
 15 16  1  0
 16 17  1  0
 17 18  1  0
 18 19  1  0
 14 20  1  6
  7  2  1  0
 15 10  1  0
 11  5  1  0
 18 14  1  0
  1 21  1  0
  3 22  1  0
  4 23  1  0
  7 24  1  0
  8 25  1  0
  8 26  1  0
  9 27  1  0
  9 28  1  0
 10 29  1  6
 11 30  1  1
 12 31  1  0
 12 32  1  0
 13 33  1  0
 13 34  1  0
 15 35  1  1
 16 36  1  0
 16 37  1  0
 17 38  1  0
 17 39  1  0
 18 40  1  1
 19 41  1  0
 20 42  1  0
 20 43  1  0
 20 44  1  0
M  END
>  <Ligand ID>  (1) 
LIG0000290

>  <Ligand>  (1) 
17beta;-estradiol

>  <SMILES>  (1) 
Oc1ccc2c(c1)CC[C@@H]1[C@@H]2CC[C@]2([C@H]1CC[C@@H]2O)C

>  <CID>  (1) 
5757.0

>  <ChEMBL ID>  (1) 
nan

>  <InChiKey>  (1) 
VOXZDWNPVJITMN-ZBRFXRBCSA-N

>  <InChi>  (1) 
InChI=1S/C18H24O2/c1-18-9-8-14-13-5-3-12(19)10-11(13)2-4-15(14)16(18)6-7-17(18)20/h3,5,10,14-17,19-20H,2,4,6-9H2,1H3/t14-,15-,16+,17+,18+/m1/s1

>  <IUPAC Name>  (1) 
(8R,9S,13S,14S,17S)-13-methyl-6,7,8,9,11,12,14,15,16,17-decahydrocyclopenta[a]phenanthrene-3,17-diol

$$$$
