
     RDKit          3D

111115  0  0  0  0  0  0  0  0999 V2000
    5.2516    0.4129    0.9046 O   0  0  0  0  0  0  0  0  0  0  0  0
    4.1276    0.1894    1.4190 C   0  0  0  0  0  0  0  0  0  0  0  0
    3.3646   -0.8537    0.7400 N   0  0  0  0  0  0  0  0  0  0  0  0
    4.0198   -1.4312   -0.4037 C   0  0  2  0  0  0  0  0  0  0  0  0
    3.1440   -1.9028   -1.4783 C   0  0  0  0  0  0  0  0  0  0  0  0
    3.7331   -2.2554   -2.5661 O   0  0  0  0  0  0  0  0  0  0  0  0
    1.7135   -1.9992   -1.4043 N   0  0  0  0  0  0  0  0  0  0  0  0
    1.0376   -2.4782   -2.5725 C   0  0  2  0  0  0  0  0  0  0  0  0
   -0.2308   -1.8869   -2.9270 C   0  0  0  0  0  0  0  0  0  0  0  0
   -0.7102   -2.1770   -4.0842 O   0  0  0  0  0  0  0  0  0  0  0  0
   -1.0306   -1.0100   -2.1488 N   0  0  0  0  0  0  0  0  0  0  0  0
   -2.2550   -0.5273   -2.7451 C   0  0  2  0  0  0  0  0  0  0  0  0
   -2.7768    0.7322   -2.2511 C   0  0  0  0  0  0  0  0  0  0  0  0
   -3.7893    1.2184   -2.8945 O   0  0  0  0  0  0  0  0  0  0  0  0
   -2.3310    1.5002   -1.1659 N   0  0  0  0  0  0  0  0  0  0  0  0
   -2.9360    2.7771   -0.7780 C   0  0  2  0  0  0  0  0  0  0  0  0
   -1.9799    3.8588   -0.6327 C   0  0  0  0  0  0  0  0  0  0  0  0
   -0.7442    3.6184   -0.6416 O   0  0  0  0  0  0  0  0  0  0  0  0
   -2.3813    5.2101   -0.4823 N   0  0  0  0  0  0  0  0  0  0  0  0
   -3.9378    2.6133    0.3016 C   0  0  0  0  0  0  0  0  0  0  0  0
   -4.5196    3.8944    0.7348 C   0  0  0  0  0  0  0  0  0  0  0  0
   -5.6629    4.5053    0.2125 C   0  0  0  0  0  0  0  0  0  0  0  0
   -5.8526    5.6975    0.8399 N   0  0  0  0  0  0  0  0  0  0  0  0
   -4.8850    5.8949    1.7515 C   0  0  0  0  0  0  0  0  0  0  0  0
   -4.0553    4.7934    1.7006 C   0  0  0  0  0  0  0  0  0  0  0  0
   -2.9748    4.7638    2.5838 C   0  0  0  0  0  0  0  0  0  0  0  0
   -2.7422    5.7919    3.4701 C   0  0  0  0  0  0  0  0  0  0  0  0
   -3.5877    6.8767    3.4941 C   0  0  0  0  0  0  0  0  0  0  0  0
   -4.6729    6.9488    2.6373 C   0  0  0  0  0  0  0  0  0  0  0  0
   -3.2832   -1.6344   -2.5515 C   0  0  0  0  0  0  0  0  0  0  0  0
   -3.5426   -2.0012   -1.1299 C   0  0  0  0  0  0  0  0  0  0  0  0
   -4.5994   -3.1173   -1.1105 C   0  0  0  0  0  0  0  0  0  0  0  0
   -4.9189   -3.5550    0.2109 N   0  0  0  0  0  0  0  0  0  0  0  0
   -5.9996   -4.2080    0.5008 C   0  0  0  0  0  0  0  0  0  0  0  0
   -6.2408   -4.6109    1.8583 N   0  0  0  0  0  0  0  0  0  0  0  0
   -6.9602   -4.5387   -0.4994 N   0  0  0  0  0  0  0  0  0  0  0  0
    0.9637   -4.0108   -2.4491 C   0  0  0  0  0  0  0  0  0  0  0  0
    0.2542   -4.4757   -1.2648 C   0  0  0  0  0  0  0  0  0  0  0  0
    0.9810   -4.6418   -0.0934 C   0  0  0  0  0  0  0  0  0  0  0  0
    0.4239   -5.0868    1.0846 C   0  0  0  0  0  0  0  0  0  0  0  0
   -0.9144   -5.3927    1.1485 C   0  0  0  0  0  0  0  0  0  0  0  0
   -1.6598   -5.2364   -0.0023 C   0  0  0  0  0  0  0  0  0  0  0  0
   -1.0880   -4.7832   -1.1983 C   0  0  0  0  0  0  0  0  0  0  0  0
    4.8081   -2.6375    0.2010 C   0  0  0  0  0  0  0  0  0  0  0  0
    5.5526   -3.3574   -0.8432 C   0  0  0  0  0  0  0  0  0  0  0  0
    5.0847   -4.4194   -1.5639 C   0  0  0  0  0  0  0  0  0  0  0  0
    5.8194   -5.0405   -2.5362 C   0  0  0  0  0  0  0  0  0  0  0  0
    7.0927   -4.5859   -2.8132 C   0  0  0  0  0  0  0  0  0  0  0  0
    7.6088   -3.5161   -2.1107 C   0  0  0  0  0  0  0  0  0  0  0  0
    6.8376   -2.9127   -1.1349 C   0  0  0  0  0  0  0  0  0  0  0  0
    8.0208   -5.3762   -4.0574 Cl  0  0  0  0  0  0  0  0  0  0  0  0
    3.5889    0.8891    2.5983 C   0  0  0  0  0  0  0  0  0  0  0  0
    4.6350    1.7866    3.1908 C   0  0  0  0  0  0  0  0  0  0  0  0
    5.1210    2.8344    2.2887 C   0  0  0  0  0  0  0  0  0  0  0  0
    6.1820    2.6733    1.5895 O   0  0  0  0  0  0  0  0  0  0  0  0
    4.4503    4.1361    2.1121 C   0  0  0  0  0  0  0  0  0  0  0  0
    5.0304    5.0475    1.2494 C   0  0  0  0  0  0  0  0  0  0  0  0
    4.4513    6.2978    1.0338 C   0  0  0  0  0  0  0  0  0  0  0  0
    5.0386    7.1915    0.1790 F   0  0  0  0  0  0  0  0  0  0  0  0
    3.2822    6.5903    1.7103 C   0  0  0  0  0  0  0  0  0  0  0  0
    2.6678    5.7140    2.5792 C   0  0  0  0  0  0  0  0  0  0  0  0
    3.2904    4.4723    2.7606 C   0  0  0  0  0  0  0  0  0  0  0  0
    1.5199    6.0378    3.2196 F   0  0  0  0  0  0  0  0  0  0  0  0
    2.4252   -1.1235    1.0896 H   0  0  0  0  0  0  0  0  0  0  0  0
    4.8586   -0.8137   -0.8082 H   0  0  0  0  0  0  0  0  0  0  0  0
    1.2549   -1.7176   -0.5093 H   0  0  0  0  0  0  0  0  0  0  0  0
    1.7629   -2.3669   -3.4375 H   0  0  0  0  0  0  0  0  0  0  0  0
   -0.6921   -0.7668   -1.2000 H   0  0  0  0  0  0  0  0  0  0  0  0
   -2.1132   -0.5485   -3.8793 H   0  0  0  0  0  0  0  0  0  0  0  0
   -1.5142    1.1108   -0.6159 H   0  0  0  0  0  0  0  0  0  0  0  0
   -3.5633    3.0372   -1.7068 H   0  0  0  0  0  0  0  0  0  0  0  0
   -1.8764    5.8972    0.1451 H   0  0  0  0  0  0  0  0  0  0  0  0
   -3.2187    5.5452   -1.0169 H   0  0  0  0  0  0  0  0  0  0  0  0
   -4.7981    2.0256   -0.1154 H   0  0  0  0  0  0  0  0  0  0  0  0
   -3.5391    2.1254    1.2191 H   0  0  0  0  0  0  0  0  0  0  0  0
   -6.3098    4.1136   -0.5672 H   0  0  0  0  0  0  0  0  0  0  0  0
   -6.6508    6.3682    0.6329 H   0  0  0  0  0  0  0  0  0  0  0  0
   -2.3347    3.8993    2.5378 H   0  0  0  0  0  0  0  0  0  0  0  0
   -1.8886    5.7709    4.1690 H   0  0  0  0  0  0  0  0  0  0  0  0
   -3.4257    7.7141    4.1913 H   0  0  0  0  0  0  0  0  0  0  0  0
   -5.3286    7.8100    2.6695 H   0  0  0  0  0  0  0  0  0  0  0  0
   -4.1897   -1.2857   -3.0805 H   0  0  0  0  0  0  0  0  0  0  0  0
   -2.9288   -2.5179   -3.1317 H   0  0  0  0  0  0  0  0  0  0  0  0
   -2.6608   -2.3535   -0.5892 H   0  0  0  0  0  0  0  0  0  0  0  0
   -4.0297   -1.1443   -0.6089 H   0  0  0  0  0  0  0  0  0  0  0  0
   -5.5064   -2.7421   -1.6586 H   0  0  0  0  0  0  0  0  0  0  0  0
   -4.2499   -4.0103   -1.7010 H   0  0  0  0  0  0  0  0  0  0  0  0
   -7.2177   -4.8141    2.1854 H   0  0  0  0  0  0  0  0  0  0  0  0
   -5.4879   -4.7177    2.5591 H   0  0  0  0  0  0  0  0  0  0  0  0
   -7.8645   -3.9843   -0.5258 H   0  0  0  0  0  0  0  0  0  0  0  0
   -6.8165   -5.2981   -1.2022 H   0  0  0  0  0  0  0  0  0  0  0  0
    0.5600   -4.4018   -3.3841 H   0  0  0  0  0  0  0  0  0  0  0  0
    2.0291   -4.3492   -2.4183 H   0  0  0  0  0  0  0  0  0  0  0  0
    2.0486   -4.4147   -0.0839 H   0  0  0  0  0  0  0  0  0  0  0  0
    1.0205   -5.2122    2.0007 H   0  0  0  0  0  0  0  0  0  0  0  0
   -1.4124   -5.7429    2.0326 H   0  0  0  0  0  0  0  0  0  0  0  0
   -2.7366   -5.4583   -0.0393 H   0  0  0  0  0  0  0  0  0  0  0  0
   -1.6856   -4.6692   -2.0861 H   0  0  0  0  0  0  0  0  0  0  0  0
    5.4520   -2.2750    1.0159 H   0  0  0  0  0  0  0  0  0  0  0  0
    4.0400   -3.2998    0.6190 H   0  0  0  0  0  0  0  0  0  0  0  0
    4.0941   -4.7923   -1.3554 H   0  0  0  0  0  0  0  0  0  0  0  0
    5.3697   -5.8885   -3.0751 H   0  0  0  0  0  0  0  0  0  0  0  0
    8.6126   -3.1894   -2.3578 H   0  0  0  0  0  0  0  0  0  0  0  0
    7.2588   -2.0861   -0.6020 H   0  0  0  0  0  0  0  0  0  0  0  0
    2.7534    1.5461    2.2630 H   0  0  0  0  0  0  0  0  0  0  0  0
    3.2482    0.1478    3.3508 H   0  0  0  0  0  0  0  0  0  0  0  0
    4.3047    2.2202    4.1675 H   0  0  0  0  0  0  0  0  0  0  0  0
    5.5145    1.1416    3.4617 H   0  0  0  0  0  0  0  0  0  0  0  0
    5.9430    4.8589    0.7004 H   0  0  0  0  0  0  0  0  0  0  0  0
    2.8346    7.5726    1.5346 H   0  0  0  0  0  0  0  0  0  0  0  0
    2.8200    3.7719    3.4404 H   0  0  0  0  0  0  0  0  0  0  0  0
  1  2  2  0
  2  3  1  0
  3  4  1  0
  4  5  1  0
  5  6  2  0
  5  7  1  0
  7  8  1  0
  8  9  1  0
  9 10  2  0
  9 11  1  0
 11 12  1  0
 12 13  1  0
 13 14  2  0
 13 15  1  0
 15 16  1  0
 16 17  1  0
 17 18  2  0
 17 19  1  0
 16 20  1  0
 20 21  1  0
 21 22  2  0
 22 23  1  0
 23 24  1  0
 24 25  2  0
 25 26  1  0
 26 27  2  0
 27 28  1  0
 28 29  2  0
 12 30  1  0
 30 31  1  0
 31 32  1  0
 32 33  1  0
 33 34  2  3
 34 35  1  0
 34 36  1  0
  8 37  1  0
 37 38  1  0
 38 39  2  0
 39 40  1  0
 40 41  2  0
 41 42  1  0
 42 43  2  0
  4 44  1  0
 44 45  1  0
 45 46  2  0
 46 47  1  0
 47 48  2  0
 48 49  1  0
 49 50  2  0
 48 51  1  0
  2 52  1  0
 52 53  1  0
 53 54  1  0
 54 55  2  0
 54 56  1  0
 56 57  2  0
 57 58  1  0
 58 59  1  0
 58 60  2  0
 60 61  1  0
 61 62  2  0
 61 63  1  0
 25 21  1  0
 43 38  1  0
 50 45  1  0
 62 56  1  0
 29 24  1  0
  3 64  1  0
  4 65  1  6
  7 66  1  0
  8 67  1  6
 11 68  1  0
 12 69  1  6
 15 70  1  0
 16 71  1  6
 19 72  1  0
 19 73  1  0
 20 74  1  0
 20 75  1  0
 22 76  1  0
 23 77  1  0
 26 78  1  0
 27 79  1  0
 28 80  1  0
 29 81  1  0
 30 82  1  0
 30 83  1  0
 31 84  1  0
 31 85  1  0
 32 86  1  0
 32 87  1  0
 35 88  1  0
 35 89  1  0
 36 90  1  0
 36 91  1  0
 37 92  1  0
 37 93  1  0
 39 94  1  0
 40 95  1  0
 41 96  1  0
 42 97  1  0
 43 98  1  0
 44 99  1  0
 44100  1  0
 46101  1  0
 47102  1  0
 49103  1  0
 50104  1  0
 52105  1  0
 52106  1  0
 53107  1  0
 53108  1  0
 57109  1  0
 60110  1  0
 62111  1  0
M  END
>  <Ligand ID>  (1) 
LIG0002629

>  <Ligand>  (1) 
CHEMBL363271

>  <SMILES>  (1) 
O=C(N[C@H](C(=O)N[C@H](C(=O)N[C@H](C(=O)N[C@H](C(=O)N)Cc1c[nH]c2c1cccc2)CCCN=C(N)N)Cc1ccccc1)Cc1ccc(cc1)Cl)CCC(=O)c1cc(F)cc(c1)F

>  <CID>  (1) 
44394786.0

>  <ChEMBL ID>  (1) 
nan

>  <InChiKey>  (1) 
JMYFAHGOQLWURN-ZQWQDMLBSA-N

>  <InChi>  (1) 
InChI=1S/C45H48ClF2N9O6/c46-30-14-12-27(13-15-30)20-37(54-40(59)17-16-39(58)28-21-31(47)24-32(48)22-28)43(62)57-38(19-26-7-2-1-3-8-26)44(63)55-35(11-6-18-52-45(50)51)42(61)56-36(41(49)60)23-29-25-53-34-10-5-4-9-33(29)34/h1-5,7-10,12-15,21-22,24-25,35-38,53H,6,11,16-20,23H2,(H2,49,60)(H,54,59)(H,55,63)(H,56,61)(H,57,62)(H4,50,51,52)/t35-,36-,37-,38-/m0/s1

>  <IUPAC Name>  (1) 
(2S)-N-[(2S)-1-amino-3-(1H-indol-3-yl)-1-oxopropan-2-yl]-2-[[(2S)-2-[[(2S)-3-(4-chlorophenyl)-2-[[4-(3,5-difluorophenyl)-4-oxobutanoyl]amino]propanoyl]amino]-3-phenylpropanoyl]amino]-5-(diaminomethylideneamino)pentanamide

$$$$
