
     RDKit          3D

 19 18  0  0  0  0  0  0  0  0999 V2000
    2.0362    1.5924   -0.7434 O   0  0  0  0  0  0  0  0  0  0  0  0
    1.9720    0.4249   -0.0193 C   0  0  0  0  0  0  0  0  0  0  0  0
    2.7747   -0.5194   -0.3454 O   0  0  0  0  0  0  0  0  0  0  0  0
    1.0299    0.2003    1.1095 C   0  0  0  0  0  0  0  0  0  0  0  0
    0.0077   -0.8643    0.7179 C   0  0  0  0  0  0  0  0  0  0  0  0
   -0.7981   -0.4953   -0.4700 C   0  0  2  0  0  0  0  0  0  0  0  0
   -1.5898    0.7497   -0.3190 C   0  0  0  0  0  0  0  0  0  0  0  0
   -2.8622    0.6783   -0.4168 O   0  0  0  0  0  0  0  0  0  0  0  0
   -0.9633    1.9630   -0.0783 O   0  0  0  0  0  0  0  0  0  0  0  0
   -1.7176   -1.6087   -0.7215 N   0  0  0  0  0  0  0  0  0  0  0  0
    2.8499    1.7427   -1.3348 H   0  0  0  0  0  0  0  0  0  0  0  0
    0.6036    1.1199    1.4959 H   0  0  0  0  0  0  0  0  0  0  0  0
    1.6206   -0.2573    1.9369 H   0  0  0  0  0  0  0  0  0  0  0  0
    0.6100   -1.7650    0.4295 H   0  0  0  0  0  0  0  0  0  0  0  0
   -0.6624   -1.0673    1.5724 H   0  0  0  0  0  0  0  0  0  0  0  0
   -0.1573   -0.4143   -1.3901 H   0  0  0  0  0  0  0  0  0  0  0  0
   -1.4594    2.8539   -0.1954 H   0  0  0  0  0  0  0  0  0  0  0  0
   -1.2806   -2.2749   -1.3830 H   0  0  0  0  0  0  0  0  0  0  0  0
   -2.0137   -2.0587    0.1548 H   0  0  0  0  0  0  0  0  0  0  0  0
  1  2  1  0
  2  3  2  0
  2  4  1  0
  4  5  1  0
  5  6  1  0
  6  7  1  0
  7  8  2  0
  7  9  1  0
  6 10  1  0
  1 11  1  0
  4 12  1  0
  4 13  1  0
  5 14  1  0
  5 15  1  0
  6 16  1  6
  9 17  1  0
 10 18  1  0
 10 19  1  0
M  END
>  <Ligand ID>  (1) 
LIG0000646

>  <Ligand>  (1) 
D-glutamic acid

>  <SMILES>  (1) 
OC(=O)CC[C@H](C(=O)O)N

>  <CID>  (1) 
23327.0

>  <ChEMBL ID>  (1) 
nan

>  <InChiKey>  (1) 
WHUUTDBJXJRKMK-GSVOUGTGSA-N

>  <InChi>  (1) 
InChI=1S/C5H9NO4/c6-3(5(9)10)1-2-4(7)8/h3H,1-2,6H2,(H,7,8)(H,9,10)/t3-/m1/s1

>  <IUPAC Name>  (1) 
(2R)-2-aminopentanedioic acid

$$$$
