
     RDKit          3D

 42 45  0  0  0  0  0  0  0  0999 V2000
   -7.1989    1.4512    0.3284 C   0  0  0  0  0  0  0  0  0  0  0  0
   -5.7920    1.5738    0.6562 N   0  0  0  0  0  0  0  0  0  0  0  0
   -4.8855    0.5386    0.3015 C   0  0  0  0  0  0  0  0  0  0  0  0
   -5.3295   -0.5574   -0.3391 N   0  0  0  0  0  0  0  0  0  0  0  0
   -4.4775   -1.5326   -0.6737 C   0  0  0  0  0  0  0  0  0  0  0  0
   -3.1676   -1.4441   -0.3815 N   0  0  0  0  0  0  0  0  0  0  0  0
   -2.6593   -0.3667    0.2618 C   0  0  0  0  0  0  0  0  0  0  0  0
   -3.5242    0.6322    0.6059 C   0  0  0  0  0  0  0  0  0  0  0  0
   -2.7965    1.5705    1.2199 N   0  0  0  0  0  0  0  0  0  0  0  0
   -1.5012    1.1398    1.2456 C   0  0  0  0  0  0  0  0  0  0  0  0
   -1.4091   -0.0604    0.6533 N   0  0  0  0  0  0  0  0  0  0  0  0
   -0.2002   -0.8034    0.5040 C   0  0  2  0  0  0  0  0  0  0  0  0
    0.9352   -0.0084    0.4143 O   0  0  0  0  0  0  0  0  0  0  0  0
    1.8578   -0.9234   -0.0961 C   0  0  1  0  0  0  0  0  0  0  0  0
    1.1191   -1.4149   -1.3311 C   0  0  2  0  0  0  0  0  0  0  0  0
   -0.2807   -1.6061   -0.7776 C   0  0  1  0  0  0  0  0  0  0  0  0
   -0.4702   -2.9529   -0.3934 O   0  0  0  0  0  0  0  0  0  0  0  0
    1.6640   -2.5918   -1.8372 O   0  0  0  0  0  0  0  0  0  0  0  0
    3.1445   -0.2868   -0.4453 C   0  0  0  0  0  0  0  0  0  0  0  0
    3.8527   -0.4967   -1.5860 N   0  0  0  0  0  0  0  0  0  0  0  0
    4.9457    0.2551   -1.5253 N   0  0  0  0  0  0  0  0  0  0  0  0
    4.9607    0.9322   -0.3959 N   0  0  0  0  0  0  0  0  0  0  0  0
    3.8593    0.5943    0.2536 N   0  0  0  0  0  0  0  0  0  0  0  0
    5.9859    1.8546    0.0286 C   0  0  0  0  0  0  0  0  0  0  0  0
    7.0658    1.1518    0.8124 C   0  0  0  0  0  0  0  0  0  0  0  0
   -7.7122    0.7217    0.9903 H   0  0  0  0  0  0  0  0  0  0  0  0
   -7.6451    2.4765    0.4860 H   0  0  0  0  0  0  0  0  0  0  0  0
   -7.2792    1.1510   -0.7468 H   0  0  0  0  0  0  0  0  0  0  0  0
   -5.3985    2.4209    1.1608 H   0  0  0  0  0  0  0  0  0  0  0  0
   -4.8452   -2.4116   -1.1896 H   0  0  0  0  0  0  0  0  0  0  0  0
   -0.6846    1.7170    1.6930 H   0  0  0  0  0  0  0  0  0  0  0  0
   -0.1232   -1.4585    1.4154 H   0  0  0  0  0  0  0  0  0  0  0  0
    2.0297   -1.7679    0.5794 H   0  0  0  0  0  0  0  0  0  0  0  0
    1.1402   -0.5821   -2.0762 H   0  0  0  0  0  0  0  0  0  0  0  0
   -1.0599   -1.2615   -1.4728 H   0  0  0  0  0  0  0  0  0  0  0  0
   -0.0706   -3.0945    0.5167 H   0  0  0  0  0  0  0  0  0  0  0  0
    1.9720   -2.3837   -2.7567 H   0  0  0  0  0  0  0  0  0  0  0  0
    6.4816    2.3417   -0.8472 H   0  0  0  0  0  0  0  0  0  0  0  0
    5.5591    2.6438    0.6828 H   0  0  0  0  0  0  0  0  0  0  0  0
    7.2041    0.1526    0.3469 H   0  0  0  0  0  0  0  0  0  0  0  0
    7.9897    1.7469    0.8659 H   0  0  0  0  0  0  0  0  0  0  0  0
    6.7435    0.9395    1.8654 H   0  0  0  0  0  0  0  0  0  0  0  0
  1  2  1  0
  2  3  1  0
  3  4  2  0
  4  5  1  0
  5  6  2  0
  6  7  1  0
  7  8  2  0
  8  9  1  0
  9 10  2  0
 10 11  1  0
 11 12  1  0
 12 13  1  0
 13 14  1  0
 14 15  1  0
 15 16  1  0
 16 17  1  0
 15 18  1  0
 14 19  1  0
 19 20  1  0
 20 21  2  0
 21 22  1  0
 22 23  1  0
 22 24  1  0
 24 25  1  0
  8  3  1  0
 16 12  1  0
 23 19  2  0
 11  7  1  0
  1 26  1  0
  1 27  1  0
  1 28  1  0
  2 29  1  0
  5 30  1  0
 10 31  1  0
 12 32  1  1
 14 33  1  1
 15 34  1  6
 16 35  1  6
 17 36  1  0
 18 37  1  0
 24 38  1  0
 24 39  1  0
 25 40  1  0
 25 41  1  0
 25 42  1  0
M  END
>  <Ligand ID>  (1) 
LIG0001926

>  <Ligand>  (1) 
CHEMBL3414938

>  <SMILES>  (1) 
CNc1ncnc2c1ncn2[C@@H]1O[C@@H]([C@H]([C@H]1O)O)c1nnn(n1)CC

>  <CID>  (1) 
118732972.0

>  <ChEMBL ID>  (1) 
nan

>  <InChiKey>  (1) 
XLNLUOHNKKMJIG-QRIDJOKKSA-N

>  <InChi>  (1) 
InChI=1S/C13H17N9O3/c1-3-22-19-11(18-20-22)9-7(23)8(24)13(25-9)21-5-17-6-10(14-2)15-4-16-12(6)21/h4-5,7-9,13,23-24H,3H2,1-2H3,(H,14,15,16)/t7-,8+,9-,13+/m0/s1

>  <IUPAC Name>  (1) 
(2R,3S,4R,5R)-2-(2-ethyltetrazol-5-yl)-5-[6-(methylamino)purin-9-yl]oxolane-3,4-diol

$$$$
