
     RDKit          3D

 43 45  0  0  0  0  0  0  0  0999 V2000
   -0.5020   -2.0098   -0.4394 O   0  0  0  0  0  0  0  0  0  0  0  0
   -0.5237   -0.7779   -0.4173 C   0  0  0  0  0  0  0  0  0  0  0  0
   -1.7310   -0.0094   -0.2789 C   0  0  0  0  0  0  0  0  0  0  0  0
   -1.8578    1.7750   -0.3465 S   0  0  0  0  0  0  0  0  0  0  0  0
   -3.7068    1.7122   -0.1190 C   0  0  0  0  0  0  0  0  0  0  0  0
   -4.0032    0.3800   -0.0191 C   0  0  0  0  0  0  0  0  0  0  0  0
   -3.0091   -0.5078   -0.0987 C   0  0  0  0  0  0  0  0  0  0  0  0
   -3.1922   -1.9517   -0.0045 N   0  0  0  0  0  0  0  0  0  0  0  0
   -5.3862    0.1340    0.1540 C   0  0  0  0  0  0  0  0  0  0  0  0
   -5.9211   -1.2288    0.2852 C   0  0  0  0  0  0  0  0  0  0  0  0
   -6.2331    1.2095    0.1991 C   0  0  0  0  0  0  0  0  0  0  0  0
   -5.8741    2.4873    0.0938 N   0  0  0  0  0  0  0  0  0  0  0  0
   -4.5735    2.7270   -0.0686 N   0  0  0  0  0  0  0  0  0  0  0  0
   -7.6955    0.9226    0.3850 C   0  0  0  0  0  0  0  0  0  0  0  0
    0.7615   -0.1132   -0.5429 N   0  0  0  0  0  0  0  0  0  0  0  0
    1.8743   -1.0304   -0.6874 C   0  0  0  0  0  0  0  0  0  0  0  0
    3.2032   -0.4631   -0.5957 C   0  0  0  0  0  0  0  0  0  0  0  0
    4.2754   -1.3697   -0.6071 C   0  0  0  0  0  0  0  0  0  0  0  0
    5.5707   -0.9560   -0.5168 C   0  0  0  0  0  0  0  0  0  0  0  0
    5.9288    0.3704   -0.4080 C   0  0  0  0  0  0  0  0  0  0  0  0
    4.8812    1.2825   -0.3948 C   0  0  0  0  0  0  0  0  0  0  0  0
    3.5477    0.8561   -0.4883 C   0  0  0  0  0  0  0  0  0  0  0  0
    7.5969    0.9006   -0.3019 S   0  0  0  0  0  0  0  0  0  0  0  0
    8.1746    1.7903    1.1426 F   0  0  0  0  0  0  0  0  0  0  0  0
    8.4111    2.2960   -0.3731 F   0  0  0  0  0  0  0  0  0  0  0  0
    8.8743    1.5960    0.2514 F   0  0  0  0  0  0  0  0  0  0  0  0
    8.8363   -0.1108    0.6839 F   0  0  0  0  0  0  0  0  0  0  0  0
    8.3724   -0.1618    1.6937 F   0  0  0  0  0  0  0  0  0  0  0  0
   -3.5324   -2.4181   -0.8711 H   0  0  0  0  0  0  0  0  0  0  0  0
   -2.9806   -2.4044    0.8917 H   0  0  0  0  0  0  0  0  0  0  0  0
   -5.8431   -1.7452   -0.6964 H   0  0  0  0  0  0  0  0  0  0  0  0
   -5.3283   -1.8111    1.0422 H   0  0  0  0  0  0  0  0  0  0  0  0
   -6.9798   -1.1986    0.5686 H   0  0  0  0  0  0  0  0  0  0  0  0
   -8.0062    0.2442   -0.4487 H   0  0  0  0  0  0  0  0  0  0  0  0
   -8.2922    1.8469    0.3575 H   0  0  0  0  0  0  0  0  0  0  0  0
   -7.8930    0.4457    1.3806 H   0  0  0  0  0  0  0  0  0  0  0  0
    0.8453    0.9150   -0.5279 H   0  0  0  0  0  0  0  0  0  0  0  0
    1.7705   -1.8442    0.0931 H   0  0  0  0  0  0  0  0  0  0  0  0
    1.7809   -1.5685   -1.6650 H   0  0  0  0  0  0  0  0  0  0  0  0
    4.0978   -2.4370   -0.6880 H   0  0  0  0  0  0  0  0  0  0  0  0
    6.3715   -1.6944   -0.5336 H   0  0  0  0  0  0  0  0  0  0  0  0
    5.1259    2.3379   -0.3064 H   0  0  0  0  0  0  0  0  0  0  0  0
    2.7647    1.5827   -0.4745 H   0  0  0  0  0  0  0  0  0  0  0  0
  1  2  2  0
  2  3  1  0
  3  4  1  0
  4  5  1  0
  5  6  2  0
  6  7  1  0
  7  8  1  0
  6  9  1  0
  9 10  1  0
  9 11  2  0
 11 12  1  0
 12 13  2  0
 11 14  1  0
  2 15  1  0
 15 16  1  0
 16 17  1  0
 17 18  2  0
 18 19  1  0
 19 20  2  0
 20 21  1  0
 21 22  2  0
 20 23  1  0
 23 24  1  0
 23 25  1  0
 23 26  1  0
 23 27  1  0
 23 28  1  0
  7  3  2  0
 22 17  1  0
 13  5  1  0
  8 29  1  0
  8 30  1  0
 10 31  1  0
 10 32  1  0
 10 33  1  0
 14 34  1  0
 14 35  1  0
 14 36  1  0
 15 37  1  0
 16 38  1  0
 16 39  1  0
 18 40  1  0
 19 41  1  0
 21 42  1  0
 22 43  1  0
M  END
>  <Ligand ID>  (1) 
LIG0000439

>  <Ligand>  (1) 
CHEMBL3942511

>  <SMILES>  (1) 
O=C(c1sc2c(c1N)c(C)c(nn2)C)NCc1ccc(cc1)S(F)(F)(F)(F)F

>  <CID>  (1) 
89768546.0

>  <ChEMBL ID>  (1) 
nan

>  <InChiKey>  (1) 
PSCQDXGBEMJRFR-UHFFFAOYSA-N

>  <InChi>  (1) 
InChI=1S/C16H15F5N4OS2/c1-8-9(2)24-25-16-12(8)13(22)14(27-16)15(26)23-7-10-3-5-11(6-4-10)28(17,18,19,20)21/h3-6H,7,22H2,1-2H3,(H,23,26)

>  <IUPAC Name>  (1) 
5-amino-3,4-dimethyl-N-[[4-(pentafluoro-lambda6-sulfanyl)phenyl]methyl]thieno[2,3-c]pyridazine-6-carboxamide

$$$$
