
     RDKit          3D

 66 71  0  0  0  0  0  0  0  0999 V2000
   -2.9476   -3.8353    5.5701 Cl  0  0  0  0  0  0  0  0  0  0  0  0
   -2.1315   -3.1087    4.1981 C   0  0  0  0  0  0  0  0  0  0  0  0
   -1.9397   -3.8345    3.0312 C   0  0  0  0  0  0  0  0  0  0  0  0
   -1.2925   -3.2198    1.9714 C   0  0  0  0  0  0  0  0  0  0  0  0
   -0.8410   -1.9037    2.0646 C   0  0  0  0  0  0  0  0  0  0  0  0
   -1.0324   -1.1721    3.2360 C   0  0  0  0  0  0  0  0  0  0  0  0
   -1.6869   -1.7899    4.3123 C   0  0  0  0  0  0  0  0  0  0  0  0
   -0.1676   -1.3573    0.9339 N   0  0  0  0  0  0  0  0  0  0  0  0
    1.1809   -1.3941    0.8768 N   0  0  0  0  0  0  0  0  0  0  0  0
    1.6093   -0.8392   -0.2689 C   0  0  0  0  0  0  0  0  0  0  0  0
    0.4875   -0.4512   -0.9329 C   0  0  0  0  0  0  0  0  0  0  0  0
   -0.6380   -0.7784   -0.1684 C   0  0  0  0  0  0  0  0  0  0  0  0
   -1.9900   -0.4877   -0.6068 C   0  0  0  0  0  0  0  0  0  0  0  0
   -3.0568   -0.6858    0.1412 C   0  0  0  0  0  0  0  0  0  0  0  0
   -4.4216   -0.4046   -0.2814 C   0  0  0  0  0  0  0  0  0  0  0  0
   -4.9276   -0.7291   -1.5147 C   0  0  0  0  0  0  0  0  0  0  0  0
   -6.2296   -0.4130   -1.8293 C   0  0  0  0  0  0  0  0  0  0  0  0
   -7.0837    0.2333   -0.9420 C   0  0  0  0  0  0  0  0  0  0  0  0
   -6.5587    0.5569    0.3069 C   0  0  0  0  0  0  0  0  0  0  0  0
   -5.2434    0.2379    0.6221 C   0  0  0  0  0  0  0  0  0  0  0  0
   -8.7270    0.6285   -1.3483 Cl  0  0  0  0  0  0  0  0  0  0  0  0
   -2.1355    0.0915   -1.9890 C   0  0  0  0  0  0  0  0  0  0  0  0
   -0.9658    0.9187   -2.2458 N   0  0  0  0  0  0  0  0  0  0  0  0
    0.3176    0.2224   -2.2429 C   0  0  0  0  0  0  0  0  0  0  0  0
   -1.0008    2.2956   -2.4880 C   0  0  0  0  0  0  0  0  0  0  0  0
    0.0870    2.9311   -2.7082 O   0  0  0  0  0  0  0  0  0  0  0  0
   -2.2067    3.1147   -2.5211 C   0  0  0  0  0  0  0  0  0  0  0  0
   -2.5826    3.8123   -3.6027 N   0  0  0  0  0  0  0  0  0  0  0  0
   -3.7220    4.4424   -3.2678 C   0  0  0  0  0  0  0  0  0  0  0  0
   -4.0173    4.1247   -2.0101 N   0  0  0  0  0  0  0  0  0  0  0  0
   -3.1022    3.3054   -1.5182 N   0  0  0  0  0  0  0  0  0  0  0  0
    2.9838   -0.6521   -0.7378 C   0  0  0  0  0  0  0  0  0  0  0  0
    3.2261   -0.1953   -1.8944 O   0  0  0  0  0  0  0  0  0  0  0  0
    4.0906   -0.9744    0.0939 N   0  0  0  0  0  0  0  0  0  0  0  0
    5.4706   -0.8155   -0.3073 C   0  0  1  0  0  0  0  0  0  0  0  0
    6.1156    0.3163    0.4275 C   0  0  0  0  0  0  0  0  0  0  0  0
    6.9103    1.2456   -0.2162 C   0  0  0  0  0  0  0  0  0  0  0  0
    7.4810    2.2713    0.5111 C   0  0  0  0  0  0  0  0  0  0  0  0
    7.2441    2.3446    1.8708 C   0  0  0  0  0  0  0  0  0  0  0  0
    6.4359    1.3894    2.4930 C   0  0  0  0  0  0  0  0  0  0  0  0
    5.8851    0.3924    1.7630 N   0  0  0  0  0  0  0  0  0  0  0  0
    6.1944   -2.1142   -0.0333 C   0  0  0  0  0  0  0  0  0  0  0  0
   -2.2908   -4.8573    2.9489 H   0  0  0  0  0  0  0  0  0  0  0  0
   -1.1550   -3.8112    1.0711 H   0  0  0  0  0  0  0  0  0  0  0  0
   -0.6754   -0.1427    3.3167 H   0  0  0  0  0  0  0  0  0  0  0  0
   -1.8484   -1.2428    5.2387 H   0  0  0  0  0  0  0  0  0  0  0  0
   -2.9455   -1.0781    1.1396 H   0  0  0  0  0  0  0  0  0  0  0  0
   -4.3433   -1.2305   -2.2613 H   0  0  0  0  0  0  0  0  0  0  0  0
   -6.6208   -0.6753   -2.8149 H   0  0  0  0  0  0  0  0  0  0  0  0
   -7.1630    1.0596    1.0419 H   0  0  0  0  0  0  0  0  0  0  0  0
   -4.8741    0.5121    1.6172 H   0  0  0  0  0  0  0  0  0  0  0  0
   -2.0623   -0.7532   -2.6969 H   0  0  0  0  0  0  0  0  0  0  0  0
   -3.0227    0.7158   -2.0858 H   0  0  0  0  0  0  0  0  0  0  0  0
    0.3437   -0.5732   -3.0336 H   0  0  0  0  0  0  0  0  0  0  0  0
    1.1323    0.9289   -2.4125 H   0  0  0  0  0  0  0  0  0  0  0  0
   -4.2957    5.0890   -3.9007 H   0  0  0  0  0  0  0  0  0  0  0  0
   -3.0643    2.8889   -0.5608 H   0  0  0  0  0  0  0  0  0  0  0  0
    3.8810   -1.3471    1.0523 H   0  0  0  0  0  0  0  0  0  0  0  0
    5.5685   -0.5764   -1.3747 H   0  0  0  0  0  0  0  0  0  0  0  0
    7.0616    1.1392   -1.2757 H   0  0  0  0  0  0  0  0  0  0  0  0
    8.1176    3.0187    0.0094 H   0  0  0  0  0  0  0  0  0  0  0  0
    7.6891    3.1429    2.4280 H   0  0  0  0  0  0  0  0  0  0  0  0
    6.2599    1.4688    3.5743 H   0  0  0  0  0  0  0  0  0  0  0  0
    7.3004   -1.9407    0.0975 H   0  0  0  0  0  0  0  0  0  0  0  0
    5.8582   -2.5714    0.9310 H   0  0  0  0  0  0  0  0  0  0  0  0
    6.0777   -2.8830   -0.7982 H   0  0  0  0  0  0  0  0  0  0  0  0
  1  2  1  0
  2  3  2  0
  3  4  1  0
  4  5  2  0
  5  6  1  0
  6  7  2  0
  5  8  1  0
  8  9  1  0
  9 10  2  0
 10 11  1  0
 11 12  2  0
 12 13  1  0
 13 14  2  0
 14 15  1  0
 15 16  2  0
 16 17  1  0
 17 18  2  0
 18 19  1  0
 19 20  2  0
 18 21  1  0
 13 22  1  0
 22 23  1  0
 23 24  1  0
 23 25  1  0
 25 26  2  0
 25 27  1  0
 27 28  2  0
 28 29  1  0
 29 30  2  0
 30 31  1  0
 10 32  1  0
 32 33  2  0
 32 34  1  0
 34 35  1  0
 35 36  1  0
 36 37  2  0
 37 38  1  0
 38 39  2  0
 39 40  1  0
 40 41  2  0
 35 42  1  0
  7  2  1  0
 12  8  1  0
 20 15  1  0
 31 27  1  0
 41 36  1  0
 24 11  1  0
  3 43  1  0
  4 44  1  0
  6 45  1  0
  7 46  1  0
 14 47  1  0
 16 48  1  0
 17 49  1  0
 19 50  1  0
 20 51  1  0
 22 52  1  0
 22 53  1  0
 24 54  1  0
 24 55  1  0
 29 56  1  0
 31 57  1  0
 34 58  1  0
 35 59  1  6
 37 60  1  0
 38 61  1  0
 39 62  1  0
 40 63  1  0
 42 64  1  0
 42 65  1  0
 42 66  1  0
M  END
>  <Ligand ID>  (1) 
LIG0005432

>  <Ligand>  (1) 
CHEMBL3930555

>  <SMILES>  (1) 
Clc1ccc(cc1)n1nc(c2c1/C(=C/c1ccc(cc1)Cl)/CN(C2)C(=O)c1ncn[nH]1)C(=O)N[C@@H](c1ccccn1)C

>  <CID>  (1) 
134138952.0

>  <ChEMBL ID>  (1) 
nan

>  <InChiKey>  (1) 
YXYWTRJMRSCHJZ-SQVRNEIYSA-N

>  <InChi>  (1) 
InChI=1S/C30H24Cl2N8O2/c1-18(25-4-2-3-13-33-25)36-29(41)26-24-16-39(30(42)28-34-17-35-37-28)15-20(14-19-5-7-21(31)8-6-19)27(24)40(38-26)23-11-9-22(32)10-12-23/h2-14,17-18H,15-16H2,1H3,(H,36,41)(H,34,35,37)/b20-14+/t18-/m1/s1

>  <IUPAC Name>  (1) 
(7E)-1-(4-chlorophenyl)-7-[(4-chlorophenyl)methylidene]-N-[(1R)-1-pyridin-2-ylethyl]-5-(1H-1,2,4-triazole-5-carbonyl)-4,6-dihydropyrazolo[4,3-c]pyridine-3-carboxamide

$$$$
