
     RDKit          3D

 14 13  0  0  0  0  0  0  0  0999 V2000
    2.4941   -0.1220   -0.2433 C   0  0  0  0  0  0  0  0  0  0  0  0
    1.1492    0.2658   -0.7566 C   0  0  0  0  0  0  0  0  0  0  0  0
    0.0861   -0.1221   -0.0772 C   0  0  0  0  0  0  0  0  0  0  0  0
   -1.2265    0.2600   -0.5839 C   0  0  0  0  0  0  0  0  0  0  0  0
   -1.2703    0.9414   -1.6456 O   0  0  0  0  0  0  0  0  0  0  0  0
   -2.4931   -0.1115    0.0839 C   0  0  0  0  0  0  0  0  0  0  0  0
    2.8155   -1.0169   -0.8048 H   0  0  0  0  0  0  0  0  0  0  0  0
    2.5093   -0.2694    0.8423 H   0  0  0  0  0  0  0  0  0  0  0  0
    3.1971    0.6970   -0.5646 H   0  0  0  0  0  0  0  0  0  0  0  0
    1.0689    0.8522   -1.6673 H   0  0  0  0  0  0  0  0  0  0  0  0
    0.2100   -0.7052    0.8254 H   0  0  0  0  0  0  0  0  0  0  0  0
   -2.9133    0.7226    0.6706 H   0  0  0  0  0  0  0  0  0  0  0  0
   -2.3794   -0.9704    0.7676 H   0  0  0  0  0  0  0  0  0  0  0  0
   -3.2477   -0.4215   -0.6895 H   0  0  0  0  0  0  0  0  0  0  0  0
  1  2  1  0
  2  3  2  0
  3  4  1  0
  4  5  2  0
  4  6  1  0
  1  7  1  0
  1  8  1  0
  1  9  1  0
  2 10  1  0
  3 11  1  0
  6 12  1  0
  6 13  1  0
  6 14  1  0
M  END
>  <Ligand ID>  (1) 
LIG0000523

>  <Ligand>  (1) 
(E)-pent-3-en-2-one

>  <SMILES>  (1) 
C/C=C/C(=O)C

>  <CID>  (1) 
637920.0

>  <ChEMBL ID>  (1) 
nan

>  <InChiKey>  (1) 
LABTWGUMFABVFG-ONEGZZNKSA-N

>  <InChi>  (1) 
InChI=1S/C5H8O/c1-3-4-5(2)6/h3-4H,1-2H3/b4-3+

>  <IUPAC Name>  (1) 
(E)-pent-3-en-2-one

$$$$
