
     RDKit          3D

136138  0  0  0  0  0  0  0  0999 V2000
   -8.9059   -2.0304   -1.5290 C   0  0  0  0  0  0  0  0  0  0  0  0
   -7.5460   -1.5530   -1.0417 C   0  0  0  0  0  0  0  0  0  0  0  0
   -7.5671   -1.5861    0.4575 C   0  0  1  0  0  0  0  0  0  0  0  0
   -6.2568   -1.1356    1.0739 C   0  0  2  0  0  0  0  0  0  0  0  0
   -5.9306    0.2283    0.6899 N   0  0  0  0  0  0  0  0  0  0  0  0
   -6.0012    1.3156    1.6500 C   0  0  0  0  0  0  0  0  0  0  0  0
   -6.4119    0.9766    2.7610 O   0  0  0  0  0  0  0  0  0  0  0  0
   -5.6030    2.7167    1.2787 C   0  0  1  0  0  0  0  0  0  0  0  0
   -4.9817    2.5721   -0.0434 N   0  0  0  0  0  0  0  0  0  0  0  0
   -3.5403    2.4570   -0.1626 C   0  0  0  0  0  0  0  0  0  0  0  0
   -2.9480    2.4920    0.9248 O   0  0  0  0  0  0  0  0  0  0  0  0
   -2.8613    2.3057   -1.4764 C   0  0  0  0  0  0  0  0  0  0  0  0
   -1.4165    1.8916   -1.2290 C   0  0  0  0  0  0  0  0  0  0  0  0
   -0.5631    3.1953   -0.3355 S   0  0  0  0  0  0  0  0  0  0  0  0
    1.1026    2.5835    0.7580 S   0  0  0  0  0  0  0  0  0  0  0  0
    2.6719    2.5805   -0.1017 C   0  0  0  0  0  0  0  0  0  0  0  0
    2.6753    1.4305   -1.1051 C   0  0  2  0  0  0  0  0  0  0  0  0
    2.4613    0.2320   -0.2713 N   0  0  0  0  0  0  0  0  0  0  0  0
    1.4238   -0.6718   -0.4913 C   0  0  0  0  0  0  0  0  0  0  0  0
    0.7505   -0.3877   -1.5598 O   0  0  0  0  0  0  0  0  0  0  0  0
    0.9405   -1.8583    0.2177 C   0  0  1  0  0  0  0  0  0  0  0  0
   -0.3263   -2.3077   -0.4508 N   0  0  0  0  0  0  0  0  0  0  0  0
   -1.5877   -1.8735    0.0566 C   0  0  0  0  0  0  0  0  0  0  0  0
   -1.5270   -1.1469    1.0594 O   0  0  0  0  0  0  0  0  0  0  0  0
   -2.8853   -2.2488   -0.5628 C   0  0  1  0  0  0  0  0  0  0  0  0
   -3.9828   -1.4853   -0.0568 N   0  0  0  0  0  0  0  0  0  0  0  0
   -5.1324   -1.9962    0.6135 C   0  0  0  0  0  0  0  0  0  0  0  0
   -5.1244   -3.2276    0.7862 O   0  0  0  0  0  0  0  0  0  0  0  0
   -2.7556   -2.1905   -2.0574 C   0  0  0  0  0  0  0  0  0  0  0  0
   -4.0239   -2.5482   -2.7922 C   0  0  0  0  0  0  0  0  0  0  0  0
   -4.4755   -3.9233   -2.5062 C   0  0  0  0  0  0  0  0  0  0  0  0
   -3.8417   -4.7693   -1.8332 O   0  0  0  0  0  0  0  0  0  0  0  0
   -5.7404   -4.3656   -3.0269 N   0  0  0  0  0  0  0  0  0  0  0  0
    1.8038   -3.0553    0.2785 C   0  0  0  0  0  0  0  0  0  0  0  0
    3.0818   -2.9672    0.9739 C   0  0  0  0  0  0  0  0  0  0  0  0
    3.5267   -2.0512    1.6804 O   0  0  0  0  0  0  0  0  0  0  0  0
    3.9660   -4.1121    0.8233 N   0  0  0  0  0  0  0  0  0  0  0  0
    3.8368    1.4243   -1.9593 C   0  0  0  0  0  0  0  0  0  0  0  0
    4.0197    2.5354   -2.6370 O   0  0  0  0  0  0  0  0  0  0  0  0
    4.8185    0.4650   -2.2216 N   0  0  0  0  0  0  0  0  0  0  0  0
    5.8466    0.8699   -3.2095 C   0  0  0  0  0  0  0  0  0  0  0  0
    5.4223    0.5032   -4.5776 C   0  0  0  0  0  0  0  0  0  0  0  0
    5.6078   -0.6620   -5.2894 C   0  0  0  0  0  0  0  0  0  0  0  0
    5.0118   -0.4875   -6.5351 C   0  0  0  0  0  0  0  0  0  0  0  0
    4.4868    0.7866   -6.5227 C   0  0  0  0  0  0  0  0  0  0  0  0
    4.7519    1.3208   -5.3622 O   0  0  0  0  0  0  0  0  0  0  0  0
    5.0064   -0.8368   -1.6636 C   0  0  0  0  0  0  0  0  0  0  0  0
    5.9437   -0.8484   -0.5102 C   0  0  0  0  0  0  0  0  0  0  0  0
    6.1340   -1.9844    0.0203 O   0  0  0  0  0  0  0  0  0  0  0  0
    6.6115    0.2693    0.0083 N   0  0  0  0  0  0  0  0  0  0  0  0
    7.5329    0.2966    1.1036 C   0  0  2  0  0  0  0  0  0  0  0  0
    8.8075   -0.2909    0.6050 C   0  0  0  0  0  0  0  0  0  0  0  0
    8.8083   -0.6372   -0.6233 O   0  0  0  0  0  0  0  0  0  0  0  0
    9.9561   -0.4631    1.4232 N   0  0  0  0  0  0  0  0  0  0  0  0
   11.1768   -1.0429    0.8766 C   0  0  0  0  0  0  0  0  0  0  0  0
   11.7003   -0.2309   -0.2391 C   0  0  0  0  0  0  0  0  0  0  0  0
   12.7569   -0.5889   -0.8308 O   0  0  0  0  0  0  0  0  0  0  0  0
   11.0594    0.9583   -0.6883 N   0  0  0  0  0  0  0  0  0  0  0  0
    6.9983   -0.4077    2.2959 C   0  0  0  0  0  0  0  0  0  0  0  0
    5.7143    0.2803    2.7314 C   0  0  0  0  0  0  0  0  0  0  0  0
    5.2288   -0.4965    3.9533 C   0  0  0  0  0  0  0  0  0  0  0  0
    6.0690    1.7153    3.1398 C   0  0  0  0  0  0  0  0  0  0  0  0
   -6.7670    3.6520    1.2308 C   0  0  0  0  0  0  0  0  0  0  0  0
   -7.4103    3.7042    2.5659 C   0  0  0  0  0  0  0  0  0  0  0  0
   -6.9726    4.6403    3.5091 C   0  0  0  0  0  0  0  0  0  0  0  0
   -7.5399    4.7351    4.7619 C   0  0  0  0  0  0  0  0  0  0  0  0
   -8.5672    3.8755    5.0792 C   0  0  0  0  0  0  0  0  0  0  0  0
   -9.0035    2.9485    4.1497 C   0  0  0  0  0  0  0  0  0  0  0  0
   -8.4545    2.8310    2.8882 C   0  0  0  0  0  0  0  0  0  0  0  0
   -9.1361    3.9791    6.3523 O   0  0  0  0  0  0  0  0  0  0  0  0
   -8.7073   -0.7377    0.9625 C   0  0  0  0  0  0  0  0  0  0  0  0
   -9.1650   -3.0257   -1.0764 H   0  0  0  0  0  0  0  0  0  0  0  0
   -9.7284   -1.3490   -1.2962 H   0  0  0  0  0  0  0  0  0  0  0  0
   -8.8789   -2.1534   -2.6421 H   0  0  0  0  0  0  0  0  0  0  0  0
   -6.8202   -2.3200   -1.4397 H   0  0  0  0  0  0  0  0  0  0  0  0
   -7.3807   -0.5541   -1.4695 H   0  0  0  0  0  0  0  0  0  0  0  0
   -7.7604   -2.6310    0.7711 H   0  0  0  0  0  0  0  0  0  0  0  0
   -6.3758   -1.2455    2.1603 H   0  0  0  0  0  0  0  0  0  0  0  0
   -5.6528    0.5345   -0.2414 H   0  0  0  0  0  0  0  0  0  0  0  0
   -4.8048    2.9965    1.9976 H   0  0  0  0  0  0  0  0  0  0  0  0
   -5.4753    2.5441   -0.9273 H   0  0  0  0  0  0  0  0  0  0  0  0
   -2.7991    3.2736   -2.0183 H   0  0  0  0  0  0  0  0  0  0  0  0
   -3.3106    1.5124   -2.0890 H   0  0  0  0  0  0  0  0  0  0  0  0
   -0.9243    1.7156   -2.2139 H   0  0  0  0  0  0  0  0  0  0  0  0
   -1.4413    0.9485   -0.6355 H   0  0  0  0  0  0  0  0  0  0  0  0
    3.4596    2.3379    0.6556 H   0  0  0  0  0  0  0  0  0  0  0  0
    2.8985    3.5463   -0.6074 H   0  0  0  0  0  0  0  0  0  0  0  0
    1.7303    1.5476   -1.7259 H   0  0  0  0  0  0  0  0  0  0  0  0
    3.1036    0.1042    0.4837 H   0  0  0  0  0  0  0  0  0  0  0  0
    0.6248   -1.5426    1.2734 H   0  0  0  0  0  0  0  0  0  0  0  0
   -0.3422   -2.9116   -1.2530 H   0  0  0  0  0  0  0  0  0  0  0  0
   -3.0624   -3.3008   -0.2712 H   0  0  0  0  0  0  0  0  0  0  0  0
   -3.9653   -0.4657   -0.1667 H   0  0  0  0  0  0  0  0  0  0  0  0
   -2.0204   -2.9963   -2.3569 H   0  0  0  0  0  0  0  0  0  0  0  0
   -2.3233   -1.2582   -2.4404 H   0  0  0  0  0  0  0  0  0  0  0  0
   -3.7312   -2.5365   -3.8873 H   0  0  0  0  0  0  0  0  0  0  0  0
   -4.8227   -1.7889   -2.6447 H   0  0  0  0  0  0  0  0  0  0  0  0
   -6.0741   -4.1192   -3.9796 H   0  0  0  0  0  0  0  0  0  0  0  0
   -6.3471   -4.9591   -2.4173 H   0  0  0  0  0  0  0  0  0  0  0  0
    2.0255   -3.3632   -0.8140 H   0  0  0  0  0  0  0  0  0  0  0  0
    1.2108   -3.9636    0.6156 H   0  0  0  0  0  0  0  0  0  0  0  0
    3.9391   -4.7070   -0.0295 H   0  0  0  0  0  0  0  0  0  0  0  0
    4.6510   -4.3624    1.5722 H   0  0  0  0  0  0  0  0  0  0  0  0
    5.9958    1.9647   -3.1756 H   0  0  0  0  0  0  0  0  0  0  0  0
    6.8159    0.4109   -2.9390 H   0  0  0  0  0  0  0  0  0  0  0  0
    6.1291   -1.5259   -4.8996 H   0  0  0  0  0  0  0  0  0  0  0  0
    4.9720   -1.1999   -7.3370 H   0  0  0  0  0  0  0  0  0  0  0  0
    3.9543    1.2320   -7.3512 H   0  0  0  0  0  0  0  0  0  0  0  0
    5.3738   -1.5479   -2.4654 H   0  0  0  0  0  0  0  0  0  0  0  0
    4.0458   -1.2123   -1.2743 H   0  0  0  0  0  0  0  0  0  0  0  0
    6.4119    1.1978   -0.4643 H   0  0  0  0  0  0  0  0  0  0  0  0
    7.7759    1.3526    1.4159 H   0  0  0  0  0  0  0  0  0  0  0  0
    9.8911   -0.1568    2.4403 H   0  0  0  0  0  0  0  0  0  0  0  0
   11.0191   -2.1052    0.6263 H   0  0  0  0  0  0  0  0  0  0  0  0
   11.9451   -1.0422    1.6841 H   0  0  0  0  0  0  0  0  0  0  0  0
   10.6207    1.6383   -0.0078 H   0  0  0  0  0  0  0  0  0  0  0  0
   10.9911    1.2120   -1.6964 H   0  0  0  0  0  0  0  0  0  0  0  0
    6.7506   -1.4704    2.1155 H   0  0  0  0  0  0  0  0  0  0  0  0
    7.6733   -0.3058    3.1910 H   0  0  0  0  0  0  0  0  0  0  0  0
    4.9707    0.3022    1.9294 H   0  0  0  0  0  0  0  0  0  0  0  0
    5.8345   -0.1894    4.8049 H   0  0  0  0  0  0  0  0  0  0  0  0
    4.1310   -0.4132    4.1017 H   0  0  0  0  0  0  0  0  0  0  0  0
    5.4773   -1.5695    3.7715 H   0  0  0  0  0  0  0  0  0  0  0  0
    5.9949    2.4091    2.2855 H   0  0  0  0  0  0  0  0  0  0  0  0
    7.1065    1.6910    3.5293 H   0  0  0  0  0  0  0  0  0  0  0  0
    5.3369    1.9894    3.9499 H   0  0  0  0  0  0  0  0  0  0  0  0
   -6.3724    4.6680    1.0276 H   0  0  0  0  0  0  0  0  0  0  0  0
   -7.5266    3.3421    0.4821 H   0  0  0  0  0  0  0  0  0  0  0  0
   -6.1564    5.2882    3.1836 H   0  0  0  0  0  0  0  0  0  0  0  0
   -7.1594    5.4829    5.4520 H   0  0  0  0  0  0  0  0  0  0  0  0
   -9.8214    2.3037    4.4793 H   0  0  0  0  0  0  0  0  0  0  0  0
   -8.8273    2.0970    2.1920 H   0  0  0  0  0  0  0  0  0  0  0  0
   -9.9246    4.6195    6.5149 H   0  0  0  0  0  0  0  0  0  0  0  0
   -9.6838   -1.2427    0.8125 H   0  0  0  0  0  0  0  0  0  0  0  0
   -8.6439   -0.5412    2.0576 H   0  0  0  0  0  0  0  0  0  0  0  0
   -8.7546    0.2518    0.4406 H   0  0  0  0  0  0  0  0  0  0  0  0
  1  2  1  0
  2  3  1  0
  3  4  1  0
  4  5  1  0
  5  6  1  0
  6  7  2  0
  6  8  1  0
  8  9  1  0
  9 10  1  0
 10 11  2  0
 10 12  1  0
 12 13  1  0
 13 14  1  0
 14 15  1  0
 15 16  1  0
 16 17  1  0
 17 18  1  0
 18 19  1  0
 19 20  2  0
 19 21  1  0
 21 22  1  0
 22 23  1  0
 23 24  2  0
 23 25  1  0
 25 26  1  0
 26 27  1  0
 27 28  2  0
 25 29  1  0
 29 30  1  0
 30 31  1  0
 31 32  2  0
 31 33  1  0
 21 34  1  0
 34 35  1  0
 35 36  2  0
 35 37  1  0
 17 38  1  0
 38 39  2  0
 38 40  1  0
 40 41  1  0
 41 42  1  0
 42 43  2  0
 43 44  1  0
 44 45  2  0
 45 46  1  0
 40 47  1  0
 47 48  1  0
 48 49  2  0
 48 50  1  0
 50 51  1  0
 51 52  1  0
 52 53  2  0
 52 54  1  0
 54 55  1  0
 55 56  1  0
 56 57  2  0
 56 58  1  0
 51 59  1  0
 59 60  1  0
 60 61  1  0
 60 62  1  0
  8 63  1  0
 63 64  1  0
 64 65  2  0
 65 66  1  0
 66 67  2  0
 67 68  1  0
 68 69  2  0
 67 70  1  0
  3 71  1  0
 27  4  1  0
 46 42  1  0
 69 64  1  0
  1 72  1  0
  1 73  1  0
  1 74  1  0
  2 75  1  0
  2 76  1  0
  3 77  1  6
  4 78  1  1
  5 79  1  0
  8 80  1  1
  9 81  1  0
 12 82  1  0
 12 83  1  0
 13 84  1  0
 13 85  1  0
 16 86  1  0
 16 87  1  0
 17 88  1  6
 18 89  1  0
 21 90  1  1
 22 91  1  0
 25 92  1  6
 26 93  1  0
 29 94  1  0
 29 95  1  0
 30 96  1  0
 30 97  1  0
 33 98  1  0
 33 99  1  0
 34100  1  0
 34101  1  0
 37102  1  0
 37103  1  0
 41104  1  0
 41105  1  0
 43106  1  0
 44107  1  0
 45108  1  0
 47109  1  0
 47110  1  0
 50111  1  0
 51112  1  1
 54113  1  0
 55114  1  0
 55115  1  0
 58116  1  0
 58117  1  0
 59118  1  0
 59119  1  0
 60120  1  0
 61121  1  0
 61122  1  0
 61123  1  0
 62124  1  0
 62125  1  0
 62126  1  0
 63127  1  0
 63128  1  0
 65129  1  0
 66130  1  0
 68131  1  0
 69132  1  0
 70133  1  0
 71134  1  0
 71135  1  0
 71136  1  0
M  END
>  <Ligand ID>  (1) 
LIG0001638

>  <Ligand>  (1) 
CHEMBL3354570

>  <SMILES>  (1) 
CC[C@@H]([C@@H]1NC(=O)[C@@H](NC(=O)CCSSC[C@H](NC(=O)[C@@H](NC(=O)[C@@H](NC1=O)CCC(=O)N)CC(=O)N)C(=O)N(Cc1ccco1)CC(=O)N[C@H](C(=O)NCC(=O)N)CC(C)C)Cc1ccc(cc1)O)C

>  <CID>  (1) 
118720259.0

>  <ChEMBL ID>  (1) 
nan

>  <InChiKey>  (1) 
ONRFGOYAIKHARA-WRLGQHNVSA-N

>  <InChi>  (1) 
InChI=1S/C45H65N11O13S2/c1-5-25(4)39-44(67)52-29(12-13-34(46)58)41(64)53-32(19-35(47)59)42(65)54-33(23-71-70-16-14-37(61)50-31(43(66)55-39)18-26-8-10-27(57)11-9-26)45(68)56(21-28-7-6-15-69-28)22-38(62)51-30(17-24(2)3)40(63)49-20-36(48)60/h6-11,15,24-25,29-33,39,57H,5,12-14,16-23H2,1-4H3,(H2,46,58)(H2,47,59)(H2,48,60)(H,49,63)(H,50,61)(H,51,62)(H,52,67)(H,53,64)(H,54,65)(H,55,66)/t25-,29-,30-,31-,32-,33-,39-/m0/s1

>  <IUPAC Name>  (1) 
(4R,7S,10S,13S,16S)-7-(2-amino-2-oxoethyl)-N-[2-[[(2S)-1-[(2-amino-2-oxoethyl)amino]-4-methyl-1-oxopentan-2-yl]amino]-2-oxoethyl]-10-(3-amino-3-oxopropyl)-13-[(2S)-butan-2-yl]-N-(furan-2-ylmethyl)-16-[(4-hydroxyphenyl)methyl]-6,9,12,15,18-pentaoxo-1,2-dithia-5,8,11,14,17-pentazacycloicosane-4-carboxamide

$$$$
