
     RDKit          3D

 48 50  0  0  0  0  0  0  0  0999 V2000
    7.1266    1.1287   -1.5064 C   0  0  0  0  0  0  0  0  0  0  0  0
    6.1030    0.1640   -1.4164 O   0  0  0  0  0  0  0  0  0  0  0  0
    5.0133    0.3665   -0.5841 C   0  0  0  0  0  0  0  0  0  0  0  0
    4.8438    1.4863    0.1957 C   0  0  0  0  0  0  0  0  0  0  0  0
    3.7505    1.6731    1.0203 C   0  0  0  0  0  0  0  0  0  0  0  0
    2.8067    0.6601    1.0307 C   0  0  0  0  0  0  0  0  0  0  0  0
    2.9468   -0.4681    0.2650 C   0  0  0  0  0  0  0  0  0  0  0  0
    4.0512   -0.6186   -0.5454 C   0  0  0  0  0  0  0  0  0  0  0  0
    3.9322   -1.8158   -1.1832 N   0  0  0  0  0  0  0  0  0  0  0  0
    2.7857   -2.3925   -0.7803 C   0  0  0  0  0  0  0  0  0  0  0  0
    2.1338   -1.5711    0.1358 C   0  0  0  0  0  0  0  0  0  0  0  0
    0.8589   -1.8949    0.7736 C   0  0  0  0  0  0  0  0  0  0  0  0
   -0.3077   -1.1119    0.1569 C   0  0  2  0  0  0  0  0  0  0  0  0
   -1.4673   -1.5005    0.8387 N   0  0  0  0  0  0  0  0  0  0  0  0
   -2.7204   -0.9482    0.4883 C   0  0  0  0  0  0  0  0  0  0  0  0
   -2.8823    0.5246    0.8063 C   0  0  1  0  0  0  0  0  0  0  0  0
   -4.3228    0.8539    0.5131 C   0  0  0  0  0  0  0  0  0  0  0  0
   -4.6963    1.5804   -0.5923 C   0  0  0  0  0  0  0  0  0  0  0  0
   -6.0430    1.8596   -0.8131 C   0  0  0  0  0  0  0  0  0  0  0  0
   -6.9641    1.3811    0.1135 C   0  0  0  0  0  0  0  0  0  0  0  0
   -6.5801    0.6557    1.2158 C   0  0  0  0  0  0  0  0  0  0  0  0
   -5.2410    0.3776    1.4354 C   0  0  0  0  0  0  0  0  0  0  0  0
   -7.7594    0.0593    2.3832 Cl  0  0  0  0  0  0  0  0  0  0  0  0
   -2.7315    0.7668    2.1699 O   0  0  0  0  0  0  0  0  0  0  0  0
   -0.2674   -1.2555   -1.3080 C   0  0  0  0  0  0  0  0  0  0  0  0
    6.7232    2.1610   -1.5214 H   0  0  0  0  0  0  0  0  0  0  0  0
    7.7452    0.9162   -2.4161 H   0  0  0  0  0  0  0  0  0  0  0  0
    7.7928    1.0258   -0.6300 H   0  0  0  0  0  0  0  0  0  0  0  0
    5.5998    2.2718    0.1736 H   0  0  0  0  0  0  0  0  0  0  0  0
    3.6458    2.5715    1.6247 H   0  0  0  0  0  0  0  0  0  0  0  0
    1.9325    0.7778    1.6697 H   0  0  0  0  0  0  0  0  0  0  0  0
    4.5915   -2.2464   -1.8705 H   0  0  0  0  0  0  0  0  0  0  0  0
    2.4348   -3.3643   -1.1330 H   0  0  0  0  0  0  0  0  0  0  0  0
    0.6238   -2.9761    0.7578 H   0  0  0  0  0  0  0  0  0  0  0  0
    0.9507   -1.6222    1.8641 H   0  0  0  0  0  0  0  0  0  0  0  0
   -0.0839   -0.0400    0.4170 H   0  0  0  0  0  0  0  0  0  0  0  0
   -1.3443   -1.3900    1.8648 H   0  0  0  0  0  0  0  0  0  0  0  0
   -3.0840   -1.1825   -0.5205 H   0  0  0  0  0  0  0  0  0  0  0  0
   -3.4735   -1.4586    1.1617 H   0  0  0  0  0  0  0  0  0  0  0  0
   -2.2238    1.1678    0.1983 H   0  0  0  0  0  0  0  0  0  0  0  0
   -3.9300    1.9368   -1.2956 H   0  0  0  0  0  0  0  0  0  0  0  0
   -6.3503    2.4314   -1.6873 H   0  0  0  0  0  0  0  0  0  0  0  0
   -8.0261    1.5666   -0.0067 H   0  0  0  0  0  0  0  0  0  0  0  0
   -4.9650   -0.1941    2.3074 H   0  0  0  0  0  0  0  0  0  0  0  0
   -2.3937    1.6692    2.3758 H   0  0  0  0  0  0  0  0  0  0  0  0
    0.3998   -0.4716   -1.7733 H   0  0  0  0  0  0  0  0  0  0  0  0
   -1.2049   -1.2967   -1.8541 H   0  0  0  0  0  0  0  0  0  0  0  0
    0.2705   -2.2140   -1.5689 H   0  0  0  0  0  0  0  0  0  0  0  0
  1  2  1  0
  2  3  1  0
  3  4  2  0
  4  5  1  0
  5  6  2  0
  6  7  1  0
  7  8  2  0
  8  9  1  0
  9 10  1  0
 10 11  2  0
 11 12  1  0
 12 13  1  0
 13 14  1  0
 14 15  1  0
 15 16  1  0
 16 17  1  0
 17 18  2  0
 18 19  1  0
 19 20  2  0
 20 21  1  0
 21 22  2  0
 21 23  1  0
 16 24  1  0
 13 25  1  0
  8  3  1  0
 22 17  1  0
 11  7  1  0
  1 26  1  0
  1 27  1  0
  1 28  1  0
  4 29  1  0
  5 30  1  0
  6 31  1  0
  9 32  1  0
 10 33  1  0
 12 34  1  0
 12 35  1  0
 13 36  1  6
 14 37  1  0
 15 38  1  0
 15 39  1  0
 16 40  1  6
 18 41  1  0
 19 42  1  0
 20 43  1  0
 22 44  1  0
 24 45  1  0
 25 46  1  0
 25 47  1  0
 25 48  1  0
M  END
>  <Ligand ID>  (1) 
LIG0002210

>  <Ligand>  (1) 
CHEMBL26183

>  <SMILES>  (1) 
COc1cccc2c1[nH]cc2C[C@H](NC[C@@H](c1cccc(c1)Cl)O)C

>  <CID>  (1) 
11268355.0

>  <ChEMBL ID>  (1) 
nan

>  <InChiKey>  (1) 
YJSBONOKYYPFLW-ACJLOTCBSA-N

>  <InChi>  (1) 
InChI=1S/C20H23ClN2O2/c1-13(22-12-18(24)14-5-3-6-16(21)10-14)9-15-11-23-20-17(15)7-4-8-19(20)25-2/h3-8,10-11,13,18,22-24H,9,12H2,1-2H3/t13-,18+/m1/s1

>  <IUPAC Name>  (1) 
(1R)-1-(3-chlorophenyl)-2-[[(2R)-1-(7-methoxy-1H-indol-3-yl)propan-2-yl]amino]ethanol

$$$$
