
     RDKit          3D

102106  0  0  0  0  0  0  0  0999 V2000
   -4.0282    1.7727   -6.3328 I   0  0  0  0  0  0  0  0  0  0  0  0
   -3.5234    2.1271   -4.3380 C   0  0  0  0  0  0  0  0  0  0  0  0
   -2.2296    2.5031   -4.0455 C   0  0  0  0  0  0  0  0  0  0  0  0
   -1.8706    2.7420   -2.7372 C   0  0  0  0  0  0  0  0  0  0  0  0
   -2.7228    2.6325   -1.6700 C   0  0  0  0  0  0  0  0  0  0  0  0
   -4.0333    2.2516   -1.9656 C   0  0  0  0  0  0  0  0  0  0  0  0
   -4.4119    2.0061   -3.2868 C   0  0  0  0  0  0  0  0  0  0  0  0
   -2.3944    2.8735   -0.2669 C   0  0  0  0  0  0  0  0  0  0  0  0
   -1.8872    1.6146    0.4502 C   0  0  2  0  0  0  0  0  0  0  0  0
   -0.6536    1.1413   -0.2123 C   0  0  0  0  0  0  0  0  0  0  0  0
   -0.7610    0.0990   -0.9278 O   0  0  0  0  0  0  0  0  0  0  0  0
    0.6134    1.7940   -0.0752 N   0  0  0  0  0  0  0  0  0  0  0  0
    1.7225    1.1960   -0.7925 C   0  0  2  0  0  0  0  0  0  0  0  0
    2.4621    0.3212    0.2200 C   0  0  0  0  0  0  0  0  0  0  0  0
    2.0751    0.2597    1.4109 O   0  0  0  0  0  0  0  0  0  0  0  0
    3.5772   -0.3830   -0.2969 N   0  0  0  0  0  0  0  0  0  0  0  0
    4.3931   -1.2701    0.5458 C   0  0  1  0  0  0  0  0  0  0  0  0
    4.2976   -2.6720    0.0704 C   0  0  0  0  0  0  0  0  0  0  0  0
    4.9070   -3.6260    0.6564 O   0  0  0  0  0  0  0  0  0  0  0  0
    3.5140   -3.0213   -1.0726 N   0  0  0  0  0  0  0  0  0  0  0  0
    5.7757   -0.7069    0.5341 C   0  0  0  0  0  0  0  0  0  0  0  0
    6.7444   -1.4786    1.3357 C   0  0  0  0  0  0  0  0  0  0  0  0
    6.9770   -1.2214    2.6812 C   0  0  0  0  0  0  0  0  0  0  0  0
    7.9073   -1.9915    3.3871 C   0  0  0  0  0  0  0  0  0  0  0  0
    8.5641   -2.9862    2.7126 C   0  0  0  0  0  0  0  0  0  0  0  0
    8.3664   -3.2778    1.3789 C   0  0  0  0  0  0  0  0  0  0  0  0
    7.4410   -2.5055    0.6921 C   0  0  0  0  0  0  0  0  0  0  0  0
    9.0247   -4.2774    0.7062 C   0  0  0  0  0  0  0  0  0  0  0  0
    9.9397   -5.0528    1.3642 C   0  0  0  0  0  0  0  0  0  0  0  0
   10.1805   -4.7996    2.7224 C   0  0  0  0  0  0  0  0  0  0  0  0
    9.4994   -3.7811    3.3785 C   0  0  0  0  0  0  0  0  0  0  0  0
    2.6716    2.1643   -1.4044 C   0  0  0  0  0  0  0  0  0  0  0  0
    2.0317    3.0777   -2.3931 C   0  0  0  0  0  0  0  0  0  0  0  0
    3.0368    4.0349   -3.0074 C   0  0  0  0  0  0  0  0  0  0  0  0
    3.6202    4.8261   -1.9662 N   0  0  0  0  0  0  0  0  0  0  0  0
    4.0054    6.0507   -2.0935 C   0  0  0  0  0  0  0  0  0  0  0  0
    4.5708    6.6886   -0.9359 N   0  0  0  0  0  0  0  0  0  0  0  0
    3.8841    6.7663   -3.3288 N   0  0  0  0  0  0  0  0  0  0  0  0
   -2.9719    0.6443    0.2512 N   0  0  0  0  0  0  0  0  0  0  0  0
   -3.7196    0.1722    1.3887 C   0  0  0  0  0  0  0  0  0  0  0  0
   -3.3954    0.6354    2.5201 O   0  0  0  0  0  0  0  0  0  0  0  0
   -4.8159   -0.8148    1.2062 C   0  0  2  0  0  0  0  0  0  0  0  0
   -5.6849   -0.4480    0.0637 C   0  0  0  0  0  0  0  0  0  0  0  0
   -6.7882   -1.4129   -0.1550 C   0  0  0  0  0  0  0  0  0  0  0  0
   -6.7968   -2.4364   -1.1132 C   0  0  0  0  0  0  0  0  0  0  0  0
   -7.9336   -3.1352   -1.0251 N   0  0  0  0  0  0  0  0  0  0  0  0
   -8.7085   -2.6170   -0.0296 C   0  0  0  0  0  0  0  0  0  0  0  0
   -7.9903   -1.5562    0.4974 C   0  0  0  0  0  0  0  0  0  0  0  0
   -8.5739   -0.8577    1.5275 C   0  0  0  0  0  0  0  0  0  0  0  0
   -9.8136   -1.1905    2.0187 C   0  0  0  0  0  0  0  0  0  0  0  0
  -10.5042   -2.2511    1.4745 C   0  0  0  0  0  0  0  0  0  0  0  0
   -9.9590   -2.9799    0.4410 C   0  0  0  0  0  0  0  0  0  0  0  0
   -5.4358   -1.1057    2.4480 N   0  0  0  0  0  0  0  0  0  0  0  0
   -5.3573   -2.4036    3.0146 C   0  0  0  0  0  0  0  0  0  0  0  0
   -4.7329   -3.3223    2.4216 O   0  0  0  0  0  0  0  0  0  0  0  0
   -5.9940   -2.7599    4.3194 C   0  0  0  0  0  0  0  0  0  0  0  0
   -1.4723    2.6191   -4.8196 H   0  0  0  0  0  0  0  0  0  0  0  0
   -0.8551    3.0341   -2.5321 H   0  0  0  0  0  0  0  0  0  0  0  0
   -4.7824    2.1361   -1.2123 H   0  0  0  0  0  0  0  0  0  0  0  0
   -5.4275    1.7086   -3.5416 H   0  0  0  0  0  0  0  0  0  0  0  0
   -3.3085    3.2307    0.2767 H   0  0  0  0  0  0  0  0  0  0  0  0
   -1.5876    3.6042   -0.1919 H   0  0  0  0  0  0  0  0  0  0  0  0
   -1.6980    1.8526    1.4864 H   0  0  0  0  0  0  0  0  0  0  0  0
    0.6924    2.6475    0.5171 H   0  0  0  0  0  0  0  0  0  0  0  0
    1.3174    0.4892   -1.5425 H   0  0  0  0  0  0  0  0  0  0  0  0
    3.8770   -0.3131   -1.2884 H   0  0  0  0  0  0  0  0  0  0  0  0
    3.9701   -1.2234    1.5592 H   0  0  0  0  0  0  0  0  0  0  0  0
    3.9306   -3.3304   -1.9792 H   0  0  0  0  0  0  0  0  0  0  0  0
    2.4596   -2.9532   -0.9609 H   0  0  0  0  0  0  0  0  0  0  0  0
    6.0991   -0.6286   -0.5435 H   0  0  0  0  0  0  0  0  0  0  0  0
    5.6917    0.3531    0.8853 H   0  0  0  0  0  0  0  0  0  0  0  0
    6.4253   -0.4130    3.1705 H   0  0  0  0  0  0  0  0  0  0  0  0
    8.0886   -1.7845    4.4485 H   0  0  0  0  0  0  0  0  0  0  0  0
    7.2731   -2.7198   -0.3737 H   0  0  0  0  0  0  0  0  0  0  0  0
    8.8080   -4.4427   -0.3529 H   0  0  0  0  0  0  0  0  0  0  0  0
   10.4561   -5.8397    0.8309 H   0  0  0  0  0  0  0  0  0  0  0  0
   10.9051   -5.4134    3.2410 H   0  0  0  0  0  0  0  0  0  0  0  0
    9.6756   -3.5673    4.4427 H   0  0  0  0  0  0  0  0  0  0  0  0
    3.1842    2.7477   -0.5963 H   0  0  0  0  0  0  0  0  0  0  0  0
    3.4822    1.6175   -1.9244 H   0  0  0  0  0  0  0  0  0  0  0  0
    1.4950    2.5200   -3.1607 H   0  0  0  0  0  0  0  0  0  0  0  0
    1.2886    3.7557   -1.8773 H   0  0  0  0  0  0  0  0  0  0  0  0
    3.7501    3.5236   -3.6606 H   0  0  0  0  0  0  0  0  0  0  0  0
    2.4504    4.7572   -3.6474 H   0  0  0  0  0  0  0  0  0  0  0  0
    5.2963    6.1303   -0.4270 H   0  0  0  0  0  0  0  0  0  0  0  0
    4.2707    7.6407   -0.6336 H   0  0  0  0  0  0  0  0  0  0  0  0
    4.7096    7.0851   -3.8838 H   0  0  0  0  0  0  0  0  0  0  0  0
    2.9254    6.9586   -3.6551 H   0  0  0  0  0  0  0  0  0  0  0  0
   -3.1649    0.3281   -0.7103 H   0  0  0  0  0  0  0  0  0  0  0  0
   -4.2877   -1.7737    0.8963 H   0  0  0  0  0  0  0  0  0  0  0  0
   -5.0439   -0.4693   -0.8518 H   0  0  0  0  0  0  0  0  0  0  0  0
   -6.0582    0.6014    0.1007 H   0  0  0  0  0  0  0  0  0  0  0  0
   -5.9972   -2.6514   -1.8400 H   0  0  0  0  0  0  0  0  0  0  0  0
   -8.2471   -3.9685   -1.6034 H   0  0  0  0  0  0  0  0  0  0  0  0
   -8.0511   -0.0190    1.9614 H   0  0  0  0  0  0  0  0  0  0  0  0
  -10.2824   -0.6470    2.8287 H   0  0  0  0  0  0  0  0  0  0  0  0
  -11.4780   -2.5324    1.8406 H   0  0  0  0  0  0  0  0  0  0  0  0
  -10.4725   -3.8187   -0.0075 H   0  0  0  0  0  0  0  0  0  0  0  0
   -5.9592   -0.3895    2.9894 H   0  0  0  0  0  0  0  0  0  0  0  0
   -6.1493   -3.8542    4.3813 H   0  0  0  0  0  0  0  0  0  0  0  0
   -6.9589   -2.2217    4.4310 H   0  0  0  0  0  0  0  0  0  0  0  0
   -5.3514   -2.4191    5.1632 H   0  0  0  0  0  0  0  0  0  0  0  0
  1  2  1  0
  2  3  2  0
  3  4  1  0
  4  5  2  0
  5  6  1  0
  6  7  2  0
  5  8  1  0
  8  9  1  0
  9 10  1  0
 10 11  2  0
 10 12  1  0
 12 13  1  0
 13 14  1  0
 14 15  2  0
 14 16  1  0
 16 17  1  0
 17 18  1  0
 18 19  2  0
 18 20  1  0
 17 21  1  0
 21 22  1  0
 22 23  2  0
 23 24  1  0
 24 25  2  0
 25 26  1  0
 26 27  2  0
 26 28  1  0
 28 29  2  0
 29 30  1  0
 30 31  2  0
 13 32  1  0
 32 33  1  0
 33 34  1  0
 34 35  1  0
 35 36  2  3
 36 37  1  0
 36 38  1  0
  9 39  1  0
 39 40  1  0
 40 41  2  0
 40 42  1  0
 42 43  1  0
 43 44  1  0
 44 45  2  0
 45 46  1  0
 46 47  1  0
 47 48  2  0
 48 49  1  0
 49 50  2  0
 50 51  1  0
 51 52  2  0
 42 53  1  0
 53 54  1  0
 54 55  2  0
 54 56  1  0
  7  2  1  0
 27 22  1  0
 48 44  1  0
 31 25  1  0
 52 47  1  0
  3 57  1  0
  4 58  1  0
  6 59  1  0
  7 60  1  0
  8 61  1  0
  8 62  1  0
  9 63  1  1
 12 64  1  0
 13 65  1  6
 16 66  1  0
 17 67  1  1
 20 68  1  0
 20 69  1  0
 21 70  1  0
 21 71  1  0
 23 72  1  0
 24 73  1  0
 27 74  1  0
 28 75  1  0
 29 76  1  0
 30 77  1  0
 31 78  1  0
 32 79  1  0
 32 80  1  0
 33 81  1  0
 33 82  1  0
 34 83  1  0
 34 84  1  0
 37 85  1  0
 37 86  1  0
 38 87  1  0
 38 88  1  0
 39 89  1  0
 42 90  1  6
 43 91  1  0
 43 92  1  0
 45 93  1  0
 46 94  1  0
 49 95  1  0
 50 96  1  0
 51 97  1  0
 52 98  1  0
 53 99  1  0
 56100  1  0
 56101  1  0
 56102  1  0
M  END
>  <Ligand ID>  (1) 
LIG0001451

>  <Ligand>  (1) 
CHEMBL3422433

>  <SMILES>  (1) 
Ic1ccc(cc1)C[C@H](C(=O)N[C@H](C(=O)N[C@@H](C(=O)N)Cc1ccc2c(c1)cccc2)CCCN=C(N)N)NC(=O)[C@H](Cc1c[nH]c2c1cccc2)NC(=O)C

>  <CID>  (1) 
118735610.0

>  <ChEMBL ID>  (1) 
nan

>  <InChiKey>  (1) 
CFEVUEANPOINQN-NZKHRDNMSA-N

>  <InChi>  (1) 
InChI=1S/C41H46IN9O5/c1-24(52)48-36(22-29-23-47-32-10-5-4-9-31(29)32)40(56)51-35(20-25-13-16-30(42)17-14-25)39(55)49-33(11-6-18-46-41(44)45)38(54)50-34(37(43)53)21-26-12-15-27-7-2-3-8-28(27)19-26/h2-5,7-10,12-17,19,23,33-36,47H,6,11,18,20-22H2,1H3,(H2,43,53)(H,48,52)(H,49,55)(H,50,54)(H,51,56)(H4,44,45,46)/t33-,34+,35+,36-/m0/s1

>  <IUPAC Name>  (1) 
(2S)-2-[[(2R)-2-[[(2S)-2-acetamido-3-(1H-indol-3-yl)propanoyl]amino]-3-(4-iodophenyl)propanoyl]amino]-N-[(2R)-1-amino-3-naphthalen-2-yl-1-oxopropan-2-yl]-5-(diaminomethylideneamino)pentanamide

$$$$
