
     RDKit          3D

 29 30  0  0  0  0  0  0  0  0999 V2000
   -3.6749    0.8928   -0.0505 C   0  0  0  0  0  0  0  0  0  0  0  0
   -2.4426    0.1822   -0.5145 C   0  0  0  0  0  0  0  0  0  0  0  0
   -1.7622    0.8602   -1.5145 O   0  0  0  0  0  0  0  0  0  0  0  0
   -0.5512    0.1984   -1.6152 C   0  0  0  0  0  0  0  0  0  0  0  0
   -0.2203   -0.3652   -0.2409 C   0  0  0  0  0  0  0  0  0  0  0  0
   -1.3552    0.1760    0.5716 C   0  0  0  0  0  0  0  0  0  0  0  0
   -0.3463   -1.8767   -0.2849 C   0  0  0  0  0  0  0  0  0  0  0  0
    1.1206   -0.0012    0.2054 C   0  0  0  0  0  0  0  0  0  0  0  0
    1.4532    1.1244    0.9218 C   0  0  0  0  0  0  0  0  0  0  0  0
    2.7469    1.4180    1.3194 C   0  0  0  0  0  0  0  0  0  0  0  0
    3.7696    0.5449    0.9874 C   0  0  0  0  0  0  0  0  0  0  0  0
    3.4736   -0.5967    0.2680 C   0  0  0  0  0  0  0  0  0  0  0  0
    2.1652   -0.8737   -0.1225 C   0  0  0  0  0  0  0  0  0  0  0  0
   -4.1434    1.3486   -0.9351 H   0  0  0  0  0  0  0  0  0  0  0  0
   -3.4513    1.6202    0.7497 H   0  0  0  0  0  0  0  0  0  0  0  0
   -4.3836    0.1337    0.3401 H   0  0  0  0  0  0  0  0  0  0  0  0
   -2.6881   -0.8193   -0.8587 H   0  0  0  0  0  0  0  0  0  0  0  0
    0.2396    0.9058   -1.9542 H   0  0  0  0  0  0  0  0  0  0  0  0
   -0.6904   -0.6257   -2.3250 H   0  0  0  0  0  0  0  0  0  0  0  0
   -1.7199   -0.5260    1.3472 H   0  0  0  0  0  0  0  0  0  0  0  0
   -1.2198    1.1979    0.9164 H   0  0  0  0  0  0  0  0  0  0  0  0
    0.2555   -2.3332    0.5369 H   0  0  0  0  0  0  0  0  0  0  0  0
    0.0411   -2.2200   -1.2667 H   0  0  0  0  0  0  0  0  0  0  0  0
   -1.3726   -2.2326   -0.2016 H   0  0  0  0  0  0  0  0  0  0  0  0
    0.6917    1.8109    1.1898 H   0  0  0  0  0  0  0  0  0  0  0  0
    2.9938    2.3096    1.8841 H   0  0  0  0  0  0  0  0  0  0  0  0
    4.7766    0.7944    1.3092 H   0  0  0  0  0  0  0  0  0  0  0  0
    4.2831   -1.2703    0.0154 H   0  0  0  0  0  0  0  0  0  0  0  0
    2.0113   -1.7775   -0.6780 H   0  0  0  0  0  0  0  0  0  0  0  0
  1  2  1  0
  2  3  1  0
  3  4  1  0
  4  5  1  0
  5  6  1  0
  5  7  1  0
  5  8  1  0
  8  9  2  0
  9 10  1  0
 10 11  2  0
 11 12  1  0
 12 13  2  0
  6  2  1  0
 13  8  1  0
  1 14  1  0
  1 15  1  0
  1 16  1  0
  2 17  1  0
  4 18  1  0
  4 19  1  0
  6 20  1  0
  6 21  1  0
  7 22  1  0
  7 23  1  0
  7 24  1  0
  9 25  1  0
 10 26  1  0
 11 27  1  0
 12 28  1  0
 13 29  1  0
M  END
>  <Ligand ID>  (1) 
LIG0000264

>  <Ligand>  (1) 
Rhubafuran

>  <SMILES>  (1) 
CC1OCC(C1)(C)c1ccccc1

>  <CID>  (1) 
113514.0

>  <ChEMBL ID>  (1) 
nan

>  <InChiKey>  (1) 
GPMLJOOQCIHFET-UHFFFAOYSA-N

>  <InChi>  (1) 
InChI=1S/C12H16O/c1-10-8-12(2,9-13-10)11-6-4-3-5-7-11/h3-7,10H,8-9H2,1-2H3

>  <IUPAC Name>  (1) 
2,4-dimethyl-4-phenyloxolane

$$$$
