
     RDKit          3D

140141  0  0  0  0  0  0  0  0999 V2000
    7.1607   -3.7784    3.0024 C   0  0  0  0  0  0  0  0  0  0  0  0
    6.4746   -3.1151    4.1919 C   0  0  0  0  0  0  0  0  0  0  0  0
    5.1573   -2.5454    3.7489 C   0  0  0  0  0  0  0  0  0  0  0  0
    5.4361   -1.4924    2.6861 C   0  0  0  0  0  0  0  0  0  0  0  0
    4.2283   -0.9296    2.1686 N   0  0  0  0  0  0  0  0  0  0  0  0
    3.4984    0.1773    2.6406 C   0  0  0  0  0  0  0  0  0  0  0  0
    4.0312    1.0442    3.3876 O   0  0  0  0  0  0  0  0  0  0  0  0
    2.0794    0.3741    2.3031 C   0  0  2  0  0  0  0  0  0  0  0  0
    1.4113    1.4114    3.2194 C   0  0  0  0  0  0  0  0  0  0  0  0
    1.8210    3.0460    2.6023 S   0  0  0  0  0  0  0  0  0  0  0  0
    1.0852    3.3150    0.9982 C   0  0  0  0  0  0  0  0  0  0  0  0
   -0.3978    3.5144    0.9804 C   0  0  0  0  0  0  0  0  0  0  0  0
   -1.2237    2.5273    1.6853 C   0  0  0  0  0  0  0  0  0  0  0  0
   -2.7089    2.5995    1.4173 C   0  0  0  0  0  0  0  0  0  0  0  0
   -3.2262    3.1462    0.4595 O   0  0  0  0  0  0  0  0  0  0  0  0
   -3.5672    1.9764    2.3756 N   0  0  0  0  0  0  0  0  0  0  0  0
   -4.9812    1.7902    2.2706 C   0  0  1  0  0  0  0  0  0  0  0  0
   -5.8643    2.9276    2.5245 C   0  0  0  0  0  0  0  0  0  0  0  0
   -5.7409    4.1196    1.6767 C   0  0  0  0  0  0  0  0  0  0  0  0
   -4.9927    5.2458    2.0221 C   0  0  0  0  0  0  0  0  0  0  0  0
   -4.9396    6.3088    1.1434 C   0  0  0  0  0  0  0  0  0  0  0  0
   -5.5931    6.3165   -0.0699 C   0  0  0  0  0  0  0  0  0  0  0  0
   -6.3318    5.2144   -0.4160 C   0  0  0  0  0  0  0  0  0  0  0  0
   -6.3797    4.1667    0.4597 C   0  0  0  0  0  0  0  0  0  0  0  0
   -5.4711    7.4488   -0.8960 O   0  0  0  0  0  0  0  0  0  0  0  0
   -5.2258    0.9937    1.0367 C   0  0  0  0  0  0  0  0  0  0  0  0
   -4.2163    0.7535    0.3378 O   0  0  0  0  0  0  0  0  0  0  0  0
   -6.4381    0.4731    0.5439 N   0  0  0  0  0  0  0  0  0  0  0  0
   -6.2901   -0.4025   -0.6500 C   0  0  2  0  0  0  0  0  0  0  0  0
   -5.1629   -1.3514   -0.3530 C   0  0  0  0  0  0  0  0  0  0  0  0
   -5.1052   -1.7740    0.8206 O   0  0  0  0  0  0  0  0  0  0  0  0
   -4.1702   -1.8023   -1.2163 N   0  0  0  0  0  0  0  0  0  0  0  0
   -3.1764   -2.8511   -0.8986 C   0  0  2  0  0  0  0  0  0  0  0  0
   -2.2672   -2.4220    0.1994 C   0  0  0  0  0  0  0  0  0  0  0  0
   -2.4556   -1.4528    0.9509 O   0  0  0  0  0  0  0  0  0  0  0  0
   -1.0276   -3.1152    0.4984 N   0  0  0  0  0  0  0  0  0  0  0  0
   -0.2481   -2.7149    1.6551 C   0  0  2  0  0  0  0  0  0  0  0  0
    0.4546   -1.3973    1.4031 C   0  0  0  0  0  0  0  0  0  0  0  0
    0.2842   -0.7133    0.3871 O   0  0  0  0  0  0  0  0  0  0  0  0
    1.3722   -0.8707    2.3558 N   0  0  0  0  0  0  0  0  0  0  0  0
    0.6765   -3.7702    2.1221 C   0  0  0  0  0  0  0  0  0  0  0  0
   -0.1056   -4.9777    2.5228 C   0  0  0  0  0  0  0  0  0  0  0  0
   -1.3459   -4.9616    2.3983 O   0  0  0  0  0  0  0  0  0  0  0  0
    0.5059   -6.1578    3.0474 N   0  0  0  0  0  0  0  0  0  0  0  0
   -2.4886   -3.3384   -2.1192 C   0  0  0  0  0  0  0  0  0  0  0  0
   -3.5497   -3.9263   -3.0424 C   0  0  0  0  0  0  0  0  0  0  0  0
   -4.2228   -5.0929   -2.4227 C   0  0  0  0  0  0  0  0  0  0  0  0
   -3.7541   -5.7229   -1.4318 O   0  0  0  0  0  0  0  0  0  0  0  0
   -5.4541   -5.5541   -2.9450 N   0  0  0  0  0  0  0  0  0  0  0  0
   -6.2259    0.2292   -1.9459 C   0  0  2  0  0  0  0  0  0  0  0  0
   -7.4556    1.0809   -2.2627 C   0  0  0  0  0  0  0  0  0  0  0  0
   -8.7296    0.2978   -2.2852 C   0  0  0  0  0  0  0  0  0  0  0  0
   -6.3386   -0.9079   -2.9991 C   0  0  0  0  0  0  0  0  0  0  0  0
    3.8703   -1.4107    0.7972 C   0  0  0  0  0  0  0  0  0  0  0  0
    4.9488   -0.7930   -0.0538 C   0  0  0  0  0  0  0  0  0  0  0  0
    5.8504   -0.1857    0.5529 O   0  0  0  0  0  0  0  0  0  0  0  0
    5.0090   -0.8554   -1.4543 N   0  0  0  0  0  0  0  0  0  0  0  0
    6.2198   -0.2227   -2.0490 C   0  0  2  0  0  0  0  0  0  0  0  0
    6.1591    1.2262   -1.6849 C   0  0  0  0  0  0  0  0  0  0  0  0
    7.1146    2.0216   -1.7896 O   0  0  0  0  0  0  0  0  0  0  0  0
    4.9421    1.8258   -1.1647 N   0  0  0  0  0  0  0  0  0  0  0  0
    4.9634    3.2311   -0.8158 C   0  0  0  0  0  0  0  0  0  0  0  0
    5.2397    4.1610   -1.8947 C   0  0  0  0  0  0  0  0  0  0  0  0
    5.4565    3.8856   -3.1049 O   0  0  0  0  0  0  0  0  0  0  0  0
    5.2756    5.5698   -1.5666 N   0  0  0  0  0  0  0  0  0  0  0  0
    6.3203   -0.5685   -3.4640 C   0  0  0  0  0  0  0  0  0  0  0  0
    7.4657   -0.1296   -4.2732 C   0  0  0  0  0  0  0  0  0  0  0  0
    7.7570    1.3089   -4.4532 C   0  0  0  0  0  0  0  0  0  0  0  0
    8.7340   -0.8724   -3.8379 C   0  0  0  0  0  0  0  0  0  0  0  0
    7.8609   -3.0793    2.5143 H   0  0  0  0  0  0  0  0  0  0  0  0
    6.3712   -4.0999    2.2805 H   0  0  0  0  0  0  0  0  0  0  0  0
    7.7321   -4.6731    3.3289 H   0  0  0  0  0  0  0  0  0  0  0  0
    7.1855   -2.3722    4.5811 H   0  0  0  0  0  0  0  0  0  0  0  0
    6.3147   -3.9073    4.9625 H   0  0  0  0  0  0  0  0  0  0  0  0
    4.6338   -2.1039    4.6316 H   0  0  0  0  0  0  0  0  0  0  0  0
    4.5373   -3.3468    3.3378 H   0  0  0  0  0  0  0  0  0  0  0  0
    6.0982   -0.7430    3.1555 H   0  0  0  0  0  0  0  0  0  0  0  0
    6.0563   -2.0110    1.9257 H   0  0  0  0  0  0  0  0  0  0  0  0
    1.9860    0.7826    1.2567 H   0  0  0  0  0  0  0  0  0  0  0  0
    1.9448    1.2839    4.2091 H   0  0  0  0  0  0  0  0  0  0  0  0
    0.3827    1.1353    3.3150 H   0  0  0  0  0  0  0  0  0  0  0  0
    1.2915    2.4420    0.3210 H   0  0  0  0  0  0  0  0  0  0  0  0
    1.6057    4.2220    0.5532 H   0  0  0  0  0  0  0  0  0  0  0  0
   -0.5739    4.5126    1.4968 H   0  0  0  0  0  0  0  0  0  0  0  0
   -0.7689    3.7288   -0.0659 H   0  0  0  0  0  0  0  0  0  0  0  0
   -1.1735    2.6549    2.8114 H   0  0  0  0  0  0  0  0  0  0  0  0
   -0.9569    1.4791    1.4750 H   0  0  0  0  0  0  0  0  0  0  0  0
   -3.0750    1.6533    3.2215 H   0  0  0  0  0  0  0  0  0  0  0  0
   -5.2179    1.0238    3.1137 H   0  0  0  0  0  0  0  0  0  0  0  0
   -6.9557    2.6036    2.5580 H   0  0  0  0  0  0  0  0  0  0  0  0
   -5.7006    3.2215    3.6190 H   0  0  0  0  0  0  0  0  0  0  0  0
   -4.4973    5.2097    2.9776 H   0  0  0  0  0  0  0  0  0  0  0  0
   -4.3569    7.1909    1.3961 H   0  0  0  0  0  0  0  0  0  0  0  0
   -6.8535    5.2065   -1.3657 H   0  0  0  0  0  0  0  0  0  0  0  0
   -6.9672    3.2820    0.2005 H   0  0  0  0  0  0  0  0  0  0  0  0
   -5.1394    7.2066   -1.8478 H   0  0  0  0  0  0  0  0  0  0  0  0
   -7.2966    0.7098    0.9914 H   0  0  0  0  0  0  0  0  0  0  0  0
   -7.1929   -1.0740   -0.5609 H   0  0  0  0  0  0  0  0  0  0  0  0
   -4.0766   -1.3835   -2.1333 H   0  0  0  0  0  0  0  0  0  0  0  0
   -3.7247   -3.7078   -0.4032 H   0  0  0  0  0  0  0  0  0  0  0  0
   -0.7885   -3.8551   -0.1453 H   0  0  0  0  0  0  0  0  0  0  0  0
   -0.9497   -2.4017    2.4944 H   0  0  0  0  0  0  0  0  0  0  0  0
    1.5326   -1.4806    3.1720 H   0  0  0  0  0  0  0  0  0  0  0  0
    1.4030   -3.4464    2.8791 H   0  0  0  0  0  0  0  0  0  0  0  0
    1.3121   -4.1308    1.2505 H   0  0  0  0  0  0  0  0  0  0  0  0
    1.3445   -6.5520    2.5689 H   0  0  0  0  0  0  0  0  0  0  0  0
    0.1440   -6.6585    3.8959 H   0  0  0  0  0  0  0  0  0  0  0  0
   -1.7375   -4.0985   -1.8544 H   0  0  0  0  0  0  0  0  0  0  0  0
   -2.0235   -2.4602   -2.6202 H   0  0  0  0  0  0  0  0  0  0  0  0
   -4.3063   -3.1277   -3.1909 H   0  0  0  0  0  0  0  0  0  0  0  0
   -3.0401   -4.2260   -3.9826 H   0  0  0  0  0  0  0  0  0  0  0  0
   -6.3452   -5.2854   -2.4287 H   0  0  0  0  0  0  0  0  0  0  0  0
   -5.5779   -6.1378   -3.7840 H   0  0  0  0  0  0  0  0  0  0  0  0
   -5.3463    0.8075   -2.2100 H   0  0  0  0  0  0  0  0  0  0  0  0
   -7.2562    1.4821   -3.2830 H   0  0  0  0  0  0  0  0  0  0  0  0
   -7.5854    1.9359   -1.6112 H   0  0  0  0  0  0  0  0  0  0  0  0
   -8.6793   -0.7130   -1.8526 H   0  0  0  0  0  0  0  0  0  0  0  0
   -9.5499    0.8622   -1.7734 H   0  0  0  0  0  0  0  0  0  0  0  0
   -9.1123    0.1254   -3.3404 H   0  0  0  0  0  0  0  0  0  0  0  0
   -5.6139   -0.8106   -3.7964 H   0  0  0  0  0  0  0  0  0  0  0  0
   -7.3474   -0.8668   -3.5105 H   0  0  0  0  0  0  0  0  0  0  0  0
   -6.2843   -1.8983   -2.5365 H   0  0  0  0  0  0  0  0  0  0  0  0
    2.9481   -0.9627    0.4605 H   0  0  0  0  0  0  0  0  0  0  0  0
    3.9040   -2.5059    0.7913 H   0  0  0  0  0  0  0  0  0  0  0  0
    4.2797   -1.3016   -2.0261 H   0  0  0  0  0  0  0  0  0  0  0  0
    7.0680   -0.6009   -1.4501 H   0  0  0  0  0  0  0  0  0  0  0  0
    4.0776    1.2452   -1.0538 H   0  0  0  0  0  0  0  0  0  0  0  0
    3.9592    3.4749   -0.3670 H   0  0  0  0  0  0  0  0  0  0  0  0
    5.7158    3.4142    0.0004 H   0  0  0  0  0  0  0  0  0  0  0  0
    4.7878    6.2926   -2.1381 H   0  0  0  0  0  0  0  0  0  0  0  0
    5.8403    5.8003   -0.7036 H   0  0  0  0  0  0  0  0  0  0  0  0
    5.3609   -0.2783   -4.0297 H   0  0  0  0  0  0  0  0  0  0  0  0
    6.2772   -1.7006   -3.5440 H   0  0  0  0  0  0  0  0  0  0  0  0
    7.2820   -0.5385   -5.3321 H   0  0  0  0  0  0  0  0  0  0  0  0
    8.6488    1.6623   -3.8655 H   0  0  0  0  0  0  0  0  0  0  0  0
    8.1307    1.4579   -5.5269 H   0  0  0  0  0  0  0  0  0  0  0  0
    6.8805    1.9480   -4.3702 H   0  0  0  0  0  0  0  0  0  0  0  0
    8.6724   -0.9044   -2.7249 H   0  0  0  0  0  0  0  0  0  0  0  0
    8.7762   -1.8998   -4.1899 H   0  0  0  0  0  0  0  0  0  0  0  0
    9.5943   -0.2662   -4.1617 H   0  0  0  0  0  0  0  0  0  0  0  0
  1  2  1  0
  2  3  1  0
  3  4  1  0
  4  5  1  0
  5  6  1  0
  6  7  2  0
  6  8  1  0
  8  9  1  0
  9 10  1  0
 10 11  1  0
 11 12  1  0
 12 13  1  0
 13 14  1  0
 14 15  2  0
 14 16  1  0
 16 17  1  0
 17 18  1  0
 18 19  1  0
 19 20  2  0
 20 21  1  0
 21 22  2  0
 22 23  1  0
 23 24  2  0
 22 25  1  0
 17 26  1  0
 26 27  2  0
 26 28  1  0
 28 29  1  0
 29 30  1  0
 30 31  2  0
 30 32  1  0
 32 33  1  0
 33 34  1  0
 34 35  2  0
 34 36  1  0
 36 37  1  0
 37 38  1  0
 38 39  2  0
 38 40  1  0
 37 41  1  0
 41 42  1  0
 42 43  2  0
 42 44  1  0
 33 45  1  0
 45 46  1  0
 46 47  1  0
 47 48  2  0
 47 49  1  0
 29 50  1  0
 50 51  1  0
 51 52  1  0
 50 53  1  0
  5 54  1  0
 54 55  1  0
 55 56  2  0
 55 57  1  0
 57 58  1  0
 58 59  1  0
 59 60  2  0
 59 61  1  0
 61 62  1  0
 62 63  1  0
 63 64  2  0
 63 65  1  0
 58 66  1  0
 66 67  1  0
 67 68  1  0
 67 69  1  0
 40  8  1  0
 24 19  1  0
  1 70  1  0
  1 71  1  0
  1 72  1  0
  2 73  1  0
  2 74  1  0
  3 75  1  0
  3 76  1  0
  4 77  1  0
  4 78  1  0
  8 79  1  6
  9 80  1  0
  9 81  1  0
 11 82  1  0
 11 83  1  0
 12 84  1  0
 12 85  1  0
 13 86  1  0
 13 87  1  0
 16 88  1  0
 17 89  1  1
 18 90  1  0
 18 91  1  0
 20 92  1  0
 21 93  1  0
 23 94  1  0
 24 95  1  0
 25 96  1  0
 28 97  1  0
 29 98  1  6
 32 99  1  0
 33100  1  1
 36101  1  0
 37102  1  1
 40103  1  0
 41104  1  0
 41105  1  0
 44106  1  0
 44107  1  0
 45108  1  0
 45109  1  0
 46110  1  0
 46111  1  0
 49112  1  0
 49113  1  0
 50114  1  1
 51115  1  0
 51116  1  0
 52117  1  0
 52118  1  0
 52119  1  0
 53120  1  0
 53121  1  0
 53122  1  0
 54123  1  0
 54124  1  0
 57125  1  0
 58126  1  1
 61127  1  0
 62128  1  0
 62129  1  0
 65130  1  0
 65131  1  0
 66132  1  0
 66133  1  0
 67134  1  0
 68135  1  0
 68136  1  0
 68137  1  0
 69138  1  0
 69139  1  0
 69140  1  0
M  END
>  <Ligand ID>  (1) 
LIG0001901

>  <Ligand>  (1) 
CHEMBL3354581

>  <SMILES>  (1) 
CCCCN(C(=O)[C@@H]1CSCCCC(=O)N[C@@H](Cc2ccc(cc2)O)C(=O)N[C@H](C(=O)N[C@H](C(=O)N[C@H](C(=O)N1)CC(=O)N)CCC(=O)N)[C@H](CC)C)CC(=O)N[C@H](C(=O)NCC(=O)N)CC(C)C

>  <CID>  (1) 
118720271.0

>  <ChEMBL ID>  (1) 
nan

>  <InChiKey>  (1) 
JDOLKKGNJDRGTJ-GESINAPRSA-N

>  <InChi>  (1) 
InChI=1S/C45H71N11O12S/c1-6-8-17-56(23-38(62)51-30(19-25(3)4)40(63)49-22-36(48)60)45(68)33-24-69-18-9-10-37(61)50-31(20-27-11-13-28(57)14-12-27)43(66)55-39(26(5)7-2)44(67)52-29(15-16-34(46)58)41(64)53-32(21-35(47)59)42(65)54-33/h11-14,25-26,29-33,39,57H,6-10,15-24H2,1-5H3,(H2,46,58)(H2,47,59)(H2,48,60)(H,49,63)(H,50,61)(H,51,62)(H,52,67)(H,53,64)(H,54,65)(H,55,66)/t26-,29-,30-,31-,32-,33-,39-/m0/s1

>  <IUPAC Name>  (1) 
(3R,6S,9S,12S,15S)-6-(2-amino-2-oxoethyl)-N-[2-[[(2S)-1-[(2-amino-2-oxoethyl)amino]-4-methyl-1-oxopentan-2-yl]amino]-2-oxoethyl]-9-(3-amino-3-oxopropyl)-12-[(2S)-butan-2-yl]-N-butyl-15-[(4-hydroxyphenyl)methyl]-5,8,11,14,17-pentaoxo-1-thia-4,7,10,13,16-pentazacycloicosane-3-carboxamide

$$$$
