
     RDKit          3D

155160  0  0  0  0  0  0  0  0999 V2000
   10.1242   -4.7357    2.3287 C   0  0  0  0  0  0  0  0  0  0  0  0
    8.7739   -4.1541    1.9895 C   0  0  0  0  0  0  0  0  0  0  0  0
    8.8792   -3.6575    0.5551 C   0  0  0  0  0  0  0  0  0  0  0  0
    7.5317   -3.0453    0.1298 C   0  0  0  0  0  0  0  0  0  0  0  0
    7.5989   -2.5199   -1.2692 C   0  0  2  0  0  0  0  0  0  0  0  0
    6.3530   -1.9086   -1.7772 C   0  0  0  0  0  0  0  0  0  0  0  0
    6.0392   -1.9488   -2.9921 O   0  0  0  0  0  0  0  0  0  0  0  0
    5.5056   -1.2680   -0.8433 N   0  0  0  0  0  0  0  0  0  0  0  0
    4.2297   -0.6130   -1.2936 C   0  0  1  0  0  0  0  0  0  0  0  0
    3.3129   -1.7226   -1.5608 C   0  0  0  0  0  0  0  0  0  0  0  0
    3.1118   -2.7124   -0.4525 C   0  0  0  0  0  0  0  0  0  0  0  0
    3.1259   -2.4339    0.7367 O   0  0  0  0  0  0  0  0  0  0  0  0
    2.9027   -4.0664   -0.8163 N   0  0  0  0  0  0  0  0  0  0  0  0
    2.6655   -5.2112   -0.0203 C   0  0  0  0  0  0  0  0  0  0  0  0
    1.3242   -5.3046    0.6355 C   0  0  0  0  0  0  0  0  0  0  0  0
    0.8900   -4.2433    1.5641 C   0  0  0  0  0  0  0  0  0  0  0  0
   -0.4966   -4.5404    2.1942 C   0  0  0  0  0  0  0  0  0  0  0  0
   -1.5826   -4.7098    1.1831 C   0  0  1  0  0  0  0  0  0  0  0  0
   -1.9852   -6.0360    0.7746 C   0  0  0  0  0  0  0  0  0  0  0  0
   -3.2885   -6.2293    0.7931 O   0  0  0  0  0  0  0  0  0  0  0  0
   -1.2741   -7.1513    0.3663 N   0  0  0  0  0  0  0  0  0  0  0  0
   -2.7286   -3.8407    1.5176 N   0  0  0  0  0  0  0  0  0  0  0  0
   -3.6289   -4.1191    2.5829 C   0  0  0  0  0  0  0  0  0  0  0  0
   -2.9793   -2.6380    0.7912 C   0  0  0  0  0  0  0  0  0  0  0  0
   -2.1355   -2.4059   -0.0623 O   0  0  0  0  0  0  0  0  0  0  0  0
   -4.1009   -1.7210    1.0027 C   0  0  1  0  0  0  0  0  0  0  0  0
   -3.5666   -0.3177    0.9640 N   0  0  0  0  0  0  0  0  0  0  0  0
   -3.7039    0.5656    2.0421 C   0  0  0  0  0  0  0  0  0  0  0  0
   -4.4003    0.0512    2.9563 O   0  0  0  0  0  0  0  0  0  0  0  0
   -3.2104    1.9116    2.2634 C   0  0  1  0  0  0  0  0  0  0  0  0
   -2.1445    2.4132    1.4736 N   0  0  0  0  0  0  0  0  0  0  0  0
   -1.8487    3.7695    1.1506 C   0  0  0  0  0  0  0  0  0  0  0  0
   -2.6964    4.5938    1.4920 O   0  0  0  0  0  0  0  0  0  0  0  0
   -0.6514    4.2362    0.4525 C   0  0  2  0  0  0  0  0  0  0  0  0
    0.4055    3.2656    0.2831 N   0  0  0  0  0  0  0  0  0  0  0  0
    1.7791    3.4393    0.5336 C   0  0  0  0  0  0  0  0  0  0  0  0
    2.0440    4.5484    1.1372 O   0  0  0  0  0  0  0  0  0  0  0  0
    2.9372    2.6246    0.2658 C   0  0  1  0  0  0  0  0  0  0  0  0
    2.8758    1.4868   -0.6100 N   0  0  0  0  0  0  0  0  0  0  0  0
    3.9408    0.5355   -0.4900 C   0  0  0  0  0  0  0  0  0  0  0  0
    4.7227    0.7864    0.4852 O   0  0  0  0  0  0  0  0  0  0  0  0
    4.0229    3.6091   -0.3250 C   0  0  0  0  0  0  0  0  0  0  0  0
    3.5229    4.2257   -1.5559 C   0  0  0  0  0  0  0  0  0  0  0  0
    2.8507    5.3576   -1.7929 N   0  0  0  0  0  0  0  0  0  0  0  0
    2.5854    5.5269   -3.0897 C   0  0  0  0  0  0  0  0  0  0  0  0
    3.1121    4.4492   -3.7280 N   0  0  0  0  0  0  0  0  0  0  0  0
    3.6848    3.6479   -2.8192 C   0  0  0  0  0  0  0  0  0  0  0  0
   -0.1679    5.5697    1.0241 C   0  0  0  0  0  0  0  0  0  0  0  0
   -1.2216    6.6391    0.8877 C   0  0  0  0  0  0  0  0  0  0  0  0
   -2.0132    7.0920    1.8959 C   0  0  0  0  0  0  0  0  0  0  0  0
   -2.9711    8.0513    1.5593 C   0  0  0  0  0  0  0  0  0  0  0  0
   -3.1169    8.5267    0.2752 C   0  0  0  0  0  0  0  0  0  0  0  0
   -2.3152    8.0684   -0.7424 C   0  0  0  0  0  0  0  0  0  0  0  0
   -1.3708    7.1222   -0.4167 C   0  0  0  0  0  0  0  0  0  0  0  0
   -2.4141    8.5020   -2.0529 C   0  0  0  0  0  0  0  0  0  0  0  0
   -3.3621    9.4478   -2.3835 C   0  0  0  0  0  0  0  0  0  0  0  0
   -4.1692    9.9146   -1.3774 C   0  0  0  0  0  0  0  0  0  0  0  0
   -4.0733    9.4831   -0.0676 C   0  0  0  0  0  0  0  0  0  0  0  0
   -4.3758    2.8714    2.4979 C   0  0  0  0  0  0  0  0  0  0  0  0
   -5.3603    2.9985    1.3987 C   0  0  0  0  0  0  0  0  0  0  0  0
   -6.3943    4.0226    1.9037 C   0  0  0  0  0  0  0  0  0  0  0  0
   -7.4432    4.2600    1.0140 N   0  0  0  0  0  0  0  0  0  0  0  0
   -7.4068    4.4663   -0.2227 C   0  0  0  0  0  0  0  0  0  0  0  0
   -8.6756    4.6838   -0.8854 N   0  0  0  0  0  0  0  0  0  0  0  0
   -6.2736    4.5163   -1.0665 N   0  0  0  0  0  0  0  0  0  0  0  0
   -2.9270    0.1000   -0.2144 C   0  0  0  0  0  0  0  0  0  0  0  0
   -5.2334   -1.8418    0.0320 C   0  0  0  0  0  0  0  0  0  0  0  0
   -5.8698   -3.1701   -0.0260 C   0  0  0  0  0  0  0  0  0  0  0  0
   -7.0051   -3.5954    0.6620 C   0  0  0  0  0  0  0  0  0  0  0  0
   -7.1934   -4.8700    0.3260 N   0  0  0  0  0  0  0  0  0  0  0  0
   -6.2562   -5.2967   -0.5350 C   0  0  0  0  0  0  0  0  0  0  0  0
   -5.4011   -4.2390   -0.7781 C   0  0  0  0  0  0  0  0  0  0  0  0
   -4.3555   -4.4391   -1.6518 C   0  0  0  0  0  0  0  0  0  0  0  0
   -4.1169   -5.6390   -2.2968 C   0  0  0  0  0  0  0  0  0  0  0  0
   -4.9857   -6.6773   -2.0360 C   0  0  0  0  0  0  0  0  0  0  0  0
   -6.0384   -6.5098   -1.1693 C   0  0  0  0  0  0  0  0  0  0  0  0
    8.2684   -3.3746   -2.2181 N   0  0  0  0  0  0  0  0  0  0  0  0
    9.5254   -3.0248   -2.8319 C   0  0  0  0  0  0  0  0  0  0  0  0
   10.0699   -1.9482   -2.5586 O   0  0  0  0  0  0  0  0  0  0  0  0
   10.0694   -4.0401   -3.7808 C   0  0  0  0  0  0  0  0  0  0  0  0
   10.1570   -5.1859    3.3374 H   0  0  0  0  0  0  0  0  0  0  0  0
   10.3715   -5.5034    1.5480 H   0  0  0  0  0  0  0  0  0  0  0  0
   10.8848   -3.9407    2.2402 H   0  0  0  0  0  0  0  0  0  0  0  0
    8.6094   -3.2986    2.6837 H   0  0  0  0  0  0  0  0  0  0  0  0
    8.0211   -4.9574    2.1015 H   0  0  0  0  0  0  0  0  0  0  0  0
    9.1388   -4.5034   -0.1296 H   0  0  0  0  0  0  0  0  0  0  0  0
    9.6914   -2.9104    0.5055 H   0  0  0  0  0  0  0  0  0  0  0  0
    7.3308   -2.2667    0.8801 H   0  0  0  0  0  0  0  0  0  0  0  0
    6.7884   -3.8658    0.1665 H   0  0  0  0  0  0  0  0  0  0  0  0
    8.3063   -1.6060   -1.1811 H   0  0  0  0  0  0  0  0  0  0  0  0
    5.7197   -1.2164    0.1963 H   0  0  0  0  0  0  0  0  0  0  0  0
    4.5300   -0.2629   -2.3760 H   0  0  0  0  0  0  0  0  0  0  0  0
    3.7213   -2.3165   -2.4316 H   0  0  0  0  0  0  0  0  0  0  0  0
    2.3053   -1.4040   -1.9357 H   0  0  0  0  0  0  0  0  0  0  0  0
    2.9368   -4.2175   -1.8643 H   0  0  0  0  0  0  0  0  0  0  0  0
    3.4880   -5.3072    0.7799 H   0  0  0  0  0  0  0  0  0  0  0  0
    2.7502   -6.1502   -0.6607 H   0  0  0  0  0  0  0  0  0  0  0  0
    0.5486   -5.3359   -0.2204 H   0  0  0  0  0  0  0  0  0  0  0  0
    1.1934   -6.3271    1.1109 H   0  0  0  0  0  0  0  0  0  0  0  0
    0.7163   -3.2730    0.9920 H   0  0  0  0  0  0  0  0  0  0  0  0
    1.6071   -4.0281    2.3486 H   0  0  0  0  0  0  0  0  0  0  0  0
   -0.3191   -5.4163    2.8497 H   0  0  0  0  0  0  0  0  0  0  0  0
   -0.7319   -3.6885    2.8583 H   0  0  0  0  0  0  0  0  0  0  0  0
   -1.0916   -4.2472    0.2354 H   0  0  0  0  0  0  0  0  0  0  0  0
   -1.0377   -7.9992    0.9452 H   0  0  0  0  0  0  0  0  0  0  0  0
   -0.9161   -7.1936   -0.6264 H   0  0  0  0  0  0  0  0  0  0  0  0
   -3.2047   -4.8930    3.2644 H   0  0  0  0  0  0  0  0  0  0  0  0
   -4.6690   -4.3042    2.3148 H   0  0  0  0  0  0  0  0  0  0  0  0
   -3.6597   -3.1941    3.2369 H   0  0  0  0  0  0  0  0  0  0  0  0
   -4.5276   -1.8407    2.0049 H   0  0  0  0  0  0  0  0  0  0  0  0
   -2.7663    1.9265    3.3385 H   0  0  0  0  0  0  0  0  0  0  0  0
   -1.4500    1.7538    1.0858 H   0  0  0  0  0  0  0  0  0  0  0  0
   -0.8484    4.5792   -0.6284 H   0  0  0  0  0  0  0  0  0  0  0  0
    0.1346    2.3341   -0.0520 H   0  0  0  0  0  0  0  0  0  0  0  0
    3.4985    2.3401    1.2326 H   0  0  0  0  0  0  0  0  0  0  0  0
    2.1724    1.2616   -1.3048 H   0  0  0  0  0  0  0  0  0  0  0  0
    4.1655    4.3431    0.4831 H   0  0  0  0  0  0  0  0  0  0  0  0
    4.9122    2.9854   -0.4784 H   0  0  0  0  0  0  0  0  0  0  0  0
    2.5657    6.0441   -1.0652 H   0  0  0  0  0  0  0  0  0  0  0  0
    2.0504    6.3591   -3.5775 H   0  0  0  0  0  0  0  0  0  0  0  0
    4.1850    2.7159   -3.0192 H   0  0  0  0  0  0  0  0  0  0  0  0
    0.1808    5.4364    2.0423 H   0  0  0  0  0  0  0  0  0  0  0  0
    0.6966    5.8873    0.3689 H   0  0  0  0  0  0  0  0  0  0  0  0
   -1.8817    6.7258    2.9002 H   0  0  0  0  0  0  0  0  0  0  0  0
   -3.6202    8.4300    2.3393 H   0  0  0  0  0  0  0  0  0  0  0  0
   -0.7334    6.7569   -1.2322 H   0  0  0  0  0  0  0  0  0  0  0  0
   -1.7390    8.0869   -2.8181 H   0  0  0  0  0  0  0  0  0  0  0  0
   -3.4087    9.7652   -3.4142 H   0  0  0  0  0  0  0  0  0  0  0  0
   -4.9101   10.6626   -1.6691 H   0  0  0  0  0  0  0  0  0  0  0  0
   -4.7170    9.8722    0.6793 H   0  0  0  0  0  0  0  0  0  0  0  0
   -4.9131    2.3853    3.4110 H   0  0  0  0  0  0  0  0  0  0  0  0
   -4.1008    3.8384    2.9007 H   0  0  0  0  0  0  0  0  0  0  0  0
   -5.9695    2.0866    1.2053 H   0  0  0  0  0  0  0  0  0  0  0  0
   -4.9153    3.4205    0.5065 H   0  0  0  0  0  0  0  0  0  0  0  0
   -5.7884    4.9574    2.0437 H   0  0  0  0  0  0  0  0  0  0  0  0
   -6.7387    3.7170    2.9319 H   0  0  0  0  0  0  0  0  0  0  0  0
   -9.3586    3.8855   -1.0039 H   0  0  0  0  0  0  0  0  0  0  0  0
   -8.8812    5.6573   -1.2343 H   0  0  0  0  0  0  0  0  0  0  0  0
   -5.6986    5.4105   -1.0650 H   0  0  0  0  0  0  0  0  0  0  0  0
   -6.0378    3.6922   -1.6544 H   0  0  0  0  0  0  0  0  0  0  0  0
   -1.8175   -0.1300   -0.2131 H   0  0  0  0  0  0  0  0  0  0  0  0
   -2.9804    1.1876   -0.4580 H   0  0  0  0  0  0  0  0  0  0  0  0
   -3.2772   -0.4929   -1.1059 H   0  0  0  0  0  0  0  0  0  0  0  0
   -6.0086   -1.0680    0.1692 H   0  0  0  0  0  0  0  0  0  0  0  0
   -4.8321   -1.6605   -0.9886 H   0  0  0  0  0  0  0  0  0  0  0  0
   -7.5648   -2.9459    1.3207 H   0  0  0  0  0  0  0  0  0  0  0  0
   -7.9909   -5.4412    0.7013 H   0  0  0  0  0  0  0  0  0  0  0  0
   -3.6719   -3.6368   -1.8791 H   0  0  0  0  0  0  0  0  0  0  0  0
   -3.2786   -5.7357   -2.9759 H   0  0  0  0  0  0  0  0  0  0  0  0
   -4.8412   -7.6548   -2.5177 H   0  0  0  0  0  0  0  0  0  0  0  0
   -6.7438   -7.2906   -0.9338 H   0  0  0  0  0  0  0  0  0  0  0  0
    7.7913   -4.2947   -2.4548 H   0  0  0  0  0  0  0  0  0  0  0  0
    9.5146   -4.0060   -4.7164 H   0  0  0  0  0  0  0  0  0  0  0  0
    9.9346   -5.0447   -3.3388 H   0  0  0  0  0  0  0  0  0  0  0  0
   11.1674   -3.9087   -3.9007 H   0  0  0  0  0  0  0  0  0  0  0  0
  1  2  1  0
  2  3  1  0
  3  4  1  0
  4  5  1  0
  5  6  1  0
  6  7  2  0
  6  8  1  0
  8  9  1  0
  9 10  1  0
 10 11  1  0
 11 12  2  0
 11 13  1  0
 13 14  1  0
 14 15  1  0
 15 16  1  0
 16 17  1  0
 17 18  1  0
 18 19  1  0
 19 20  2  0
 19 21  1  0
 18 22  1  0
 22 23  1  0
 22 24  1  0
 24 25  2  0
 24 26  1  0
 26 27  1  0
 27 28  1  0
 28 29  2  0
 28 30  1  0
 30 31  1  0
 31 32  1  0
 32 33  2  0
 32 34  1  0
 34 35  1  0
 35 36  1  0
 36 37  2  0
 36 38  1  0
 38 39  1  0
 39 40  1  0
 40 41  2  0
 38 42  1  0
 42 43  1  0
 43 44  1  0
 44 45  1  0
 45 46  2  0
 46 47  1  0
 34 48  1  0
 48 49  1  0
 49 50  2  0
 50 51  1  0
 51 52  2  0
 52 53  1  0
 53 54  2  0
 53 55  1  0
 55 56  2  0
 56 57  1  0
 57 58  2  0
 30 59  1  0
 59 60  1  0
 60 61  1  0
 61 62  1  0
 62 63  2  3
 63 64  1  0
 63 65  1  0
 27 66  1  0
 26 67  1  0
 67 68  1  0
 68 69  2  0
 69 70  1  0
 70 71  1  0
 71 72  2  0
 72 73  1  0
 73 74  2  0
 74 75  1  0
 75 76  2  0
  5 77  1  0
 77 78  1  0
 78 79  2  0
 78 80  1  0
 40  9  1  0
 47 43  2  0
 54 49  1  0
 72 68  1  0
 58 52  1  0
 76 71  1  0
  1 81  1  0
  1 82  1  0
  1 83  1  0
  2 84  1  0
  2 85  1  0
  3 86  1  0
  3 87  1  0
  4 88  1  0
  4 89  1  0
  5 90  1  1
  8 91  1  0
  9 92  1  6
 10 93  1  0
 10 94  1  0
 13 95  1  0
 14 96  1  0
 14 97  1  0
 15 98  1  0
 15 99  1  0
 16100  1  0
 16101  1  0
 17102  1  0
 17103  1  0
 18104  1  6
 21105  1  0
 21106  1  0
 23107  1  0
 23108  1  0
 23109  1  0
 26110  1  1
 30111  1  1
 31112  1  0
 34113  1  6
 35114  1  0
 38115  1  1
 39116  1  0
 42117  1  0
 42118  1  0
 44119  1  0
 45120  1  0
 47121  1  0
 48122  1  0
 48123  1  0
 50124  1  0
 51125  1  0
 54126  1  0
 55127  1  0
 56128  1  0
 57129  1  0
 58130  1  0
 59131  1  0
 59132  1  0
 60133  1  0
 60134  1  0
 61135  1  0
 61136  1  0
 64137  1  0
 64138  1  0
 65139  1  0
 65140  1  0
 66141  1  0
 66142  1  0
 66143  1  0
 67144  1  0
 67145  1  0
 69146  1  0
 70147  1  0
 73148  1  0
 74149  1  0
 75150  1  0
 76151  1  0
 77152  1  0
 80153  1  0
 80154  1  0
 80155  1  0
M  END
>  <Ligand ID>  (1) 
LIG0001807

>  <Ligand>  (1) 
CHEMBL3600836

>  <SMILES>  (1) 
CCCC[C@H](C(=O)N[C@H]1CC(=O)NCCCC[C@@H](C(=O)N)N(C)C(=O)[C@@H](N(C(=O)[C@@H](NC(=O)[C@H](NC(=O)[C@@H](NC1=O)Cc1[nH]cnc1)Cc1ccc2c(c1)cccc2)CCCN=C(N)N)C)Cc1c[nH]c2c1cccc2)NC(=O)C

>  <CID>  (1) 
122184575.0

>  <ChEMBL ID>  (1) 
nan

>  <InChiKey>  (1) 
UYKWHGIEHONMDL-STRGRRRESA-N

>  <InChi>  (1) 
InChI=1S/C56H75N15O9/c1-5-6-17-41(65-33(2)72)50(75)69-45-29-48(73)61-23-12-11-20-46(49(57)74)70(3)55(80)47(27-37-30-63-40-18-10-9-16-39(37)40)71(4)54(79)42(19-13-24-62-56(58)59)66-51(76)43(26-34-21-22-35-14-7-8-15-36(35)25-34)67-52(77)44(68-53(45)78)28-38-31-60-32-64-38/h7-10,14-16,18,21-22,25,30-32,41-47,63H,5-6,11-13,17,19-20,23-24,26-29H2,1-4H3,(H2,57,74)(H,60,64)(H,61,73)(H,65,72)(H,66,76)(H,67,77)(H,68,78)(H,69,75)(H4,58,59,62)/t41-,42+,43-,44+,45+,46+,47+/m1/s1

>  <IUPAC Name>  (1) 
(3S,6S,9R,12S,15S,23S)-15-[[(2R)-2-acetamidohexanoyl]amino]-6-[3-(diaminomethylideneamino)propyl]-12-(1H-imidazol-5-ylmethyl)-3-(1H-indol-3-ylmethyl)-1,4-dimethyl-9-(naphthalen-2-ylmethyl)-2,5,8,11,14,17-hexaoxo-1,4,7,10,13,18-hexazacyclotricosane-23-carboxamide

$$$$
