
     RDKit          3D

 61 63  0  0  0  0  0  0  0  0999 V2000
   -0.0855   -3.4047    2.4103 O   0  0  0  0  0  0  0  0  0  0  0  0
   -0.0939   -2.8742    1.1128 C   0  0  2  0  0  0  0  0  0  0  0  0
    1.2812   -2.2343    0.9031 C   0  0  2  0  0  0  0  0  0  0  0  0
    2.1996   -2.9693    1.6376 O   0  0  0  0  0  0  0  0  0  0  0  0
    1.0232   -0.8680    1.4893 C   0  0  2  0  0  0  0  0  0  0  0  0
   -0.2001   -0.5562    0.9006 O   0  0  0  0  0  0  0  0  0  0  0  0
   -0.9953   -1.6868    1.0106 C   0  0  1  0  0  0  0  0  0  0  0  0
   -1.9848   -1.8088   -0.0359 N   0  0  0  0  0  0  0  0  0  0  0  0
   -1.6810   -2.3487   -1.2278 C   0  0  0  0  0  0  0  0  0  0  0  0
   -2.5952   -2.4767   -2.2344 C   0  0  0  0  0  0  0  0  0  0  0  0
   -3.8859   -2.0358   -2.0266 C   0  0  0  0  0  0  0  0  0  0  0  0
   -4.7873   -2.1110   -2.8856 O   0  0  0  0  0  0  0  0  0  0  0  0
   -4.1891   -1.4976   -0.8388 N   0  0  0  0  0  0  0  0  0  0  0  0
   -3.2607   -1.3850    0.1380 C   0  0  0  0  0  0  0  0  0  0  0  0
   -3.5623   -0.8774    1.2470 O   0  0  0  0  0  0  0  0  0  0  0  0
   -5.5233   -1.0030   -0.5222 C   0  0  0  0  0  0  0  0  0  0  0  0
   -5.6365    0.4484   -0.8977 C   0  0  0  0  0  0  0  0  0  0  0  0
   -4.6669    1.0624   -1.4059 O   0  0  0  0  0  0  0  0  0  0  0  0
   -6.9116    1.1005   -0.6462 C   0  0  0  0  0  0  0  0  0  0  0  0
   -7.9983    0.4761   -0.0948 C   0  0  0  0  0  0  0  0  0  0  0  0
   -9.2016    1.1144    0.1360 C   0  0  0  0  0  0  0  0  0  0  0  0
   -9.3453    2.4567   -0.1980 C   0  0  0  0  0  0  0  0  0  0  0  0
   -8.2448    3.0847   -0.7552 C   0  0  0  0  0  0  0  0  0  0  0  0
   -7.0591    2.4465   -0.9800 C   0  0  0  0  0  0  0  0  0  0  0  0
    2.0720    0.1318    1.1263 C   0  0  0  0  0  0  0  0  0  0  0  0
    3.3105   -0.1228    1.6805 O   0  0  0  0  0  0  0  0  0  0  0  0
    4.4930    0.9876    1.2822 P   0  0  0  0  0  0  0  0  0  0  0  0
    5.5871    0.8470    2.3447 O   0  0  0  0  0  0  0  0  0  0  0  0
    5.2688    0.6314   -0.1916 O   0  0  0  0  0  0  0  0  0  0  0  0
    6.7283    1.4721   -0.2041 P   0  0  0  0  0  0  0  0  0  0  0  0
    7.0973    2.0313    1.1501 O   0  0  0  0  0  0  0  0  0  0  0  0
    8.0884    0.4350   -0.8030 C   0  0  0  0  0  0  0  0  0  0  0  0
    9.4868    1.4353   -1.3613 P   0  0  0  0  0  0  0  0  0  0  0  0
   10.1724    0.7905   -2.5444 O   0  0  0  0  0  0  0  0  0  0  0  0
    8.9050    2.9915   -1.7673 O   0  0  0  0  0  0  0  0  0  0  0  0
   10.6694    1.5543   -0.1305 O   0  0  0  0  0  0  0  0  0  0  0  0
    8.6623   -0.6570    0.4744 Cl  0  0  0  0  0  0  0  0  0  0  0  0
    7.5681   -0.5782   -2.1735 Cl  0  0  0  0  0  0  0  0  0  0  0  0
    6.5183    2.7937   -1.2434 O   0  0  0  0  0  0  0  0  0  0  0  0
    3.9326    2.5602    1.2146 O   0  0  0  0  0  0  0  0  0  0  0  0
   -0.3040   -2.7191    3.0943 H   0  0  0  0  0  0  0  0  0  0  0  0
   -0.3059   -3.6701    0.3739 H   0  0  0  0  0  0  0  0  0  0  0  0
    1.5328   -2.1476   -0.1549 H   0  0  0  0  0  0  0  0  0  0  0  0
    3.0281   -2.9834    1.0957 H   0  0  0  0  0  0  0  0  0  0  0  0
    0.9275   -0.9172    2.5765 H   0  0  0  0  0  0  0  0  0  0  0  0
   -1.5769   -1.6176    1.9654 H   0  0  0  0  0  0  0  0  0  0  0  0
   -0.6683   -2.7046   -1.4168 H   0  0  0  0  0  0  0  0  0  0  0  0
   -2.3481   -2.9128   -3.1958 H   0  0  0  0  0  0  0  0  0  0  0  0
   -6.2927   -1.5325   -1.1285 H   0  0  0  0  0  0  0  0  0  0  0  0
   -5.7286   -1.1366    0.5523 H   0  0  0  0  0  0  0  0  0  0  0  0
   -7.8934   -0.5679    0.1673 H   0  0  0  0  0  0  0  0  0  0  0  0
  -10.0597    0.6129    0.5738 H   0  0  0  0  0  0  0  0  0  0  0  0
  -10.2869    2.9598   -0.0184 H   0  0  0  0  0  0  0  0  0  0  0  0
   -8.3624    4.1406   -1.0163 H   0  0  0  0  0  0  0  0  0  0  0  0
   -6.2080    2.9442   -1.4143 H   0  0  0  0  0  0  0  0  0  0  0  0
    1.6954    1.1547    1.3145 H   0  0  0  0  0  0  0  0  0  0  0  0
    2.2021    0.0658    0.0095 H   0  0  0  0  0  0  0  0  0  0  0  0
    9.2591    3.6293   -1.1013 H   0  0  0  0  0  0  0  0  0  0  0  0
   10.2488    1.6504    0.7517 H   0  0  0  0  0  0  0  0  0  0  0  0
    6.0621    3.5018   -0.7150 H   0  0  0  0  0  0  0  0  0  0  0  0
    3.9227    2.8938    0.2967 H   0  0  0  0  0  0  0  0  0  0  0  0
  1  2  1  0
  2  3  1  0
  3  4  1  0
  3  5  1  0
  5  6  1  0
  6  7  1  0
  7  8  1  0
  8  9  1  0
  9 10  2  0
 10 11  1  0
 11 12  2  0
 11 13  1  0
 13 14  1  0
 14 15  2  0
 13 16  1  0
 16 17  1  0
 17 18  2  0
 17 19  1  0
 19 20  2  0
 20 21  1  0
 21 22  2  0
 22 23  1  0
 23 24  2  0
  5 25  1  0
 25 26  1  0
 26 27  1  0
 27 28  2  0
 27 29  1  0
 29 30  1  0
 30 31  2  0
 30 32  1  0
 32 33  1  0
 33 34  2  0
 33 35  1  0
 33 36  1  0
 32 37  1  0
 32 38  1  0
 30 39  1  0
 27 40  1  0
  7  2  1  0
 14  8  1  0
 24 19  1  0
  1 41  1  0
  2 42  1  6
  3 43  1  6
  4 44  1  0
  5 45  1  1
  7 46  1  1
  9 47  1  0
 10 48  1  0
 16 49  1  0
 16 50  1  0
 20 51  1  0
 21 52  1  0
 22 53  1  0
 23 54  1  0
 24 55  1  0
 25 56  1  0
 25 57  1  0
 35 58  1  0
 36 59  1  0
 39 60  1  0
 40 61  1  0
M  END
>  <Ligand ID>  (1) 
LIG0002599

>  <Ligand>  (1) 
CHEMBL1765115

>  <SMILES>  (1) 
O[C@@H]1[C@H](O)[C@H](O[C@H]1n1ccc(=O)n(c1=O)CC(=O)c1ccccc1)COP(=O)(OP(=O)(C(P(=O)(O)O)(Cl)Cl)O)O

>  <CID>  (1) 
52952497.0

>  <ChEMBL ID>  (1) 
nan

>  <InChiKey>  (1) 
VFXKDYBJGPCICW-DTZQCDIJSA-N

>  <InChi>  (1) 
InChI=1S/C18H21Cl2N2O15P3/c19-18(20,38(28,29)30)39(31,32)37-40(33,34)35-9-12-14(25)15(26)16(36-12)21-7-6-13(24)22(17(21)27)8-11(23)10-4-2-1-3-5-10/h1-7,12,14-16,25-26H,8-9H2,(H,31,32)(H,33,34)(H2,28,29,30)/t12-,14-,15-,16-/m1/s1

>  <IUPAC Name>  (1) 
[dichloro-[[[(2R,3S,4R,5R)-5-(2,4-dioxo-3-phenacylpyrimidin-1-yl)-3,4-dihydroxyoxolan-2-yl]methoxy-hydroxyphosphoryl]oxy-hydroxyphosphoryl]methyl]phosphonic acid

$$$$
