
     RDKit          3D

 30 32  0  0  0  0  0  0  0  0999 V2000
   -0.4727    1.3484   -1.8822 C   0  0  0  0  0  0  0  0  0  0  0  0
   -0.6076    0.3889   -0.7570 C   0  0  0  0  0  0  0  0  0  0  0  0
    0.5583   -0.1010   -0.1745 C   0  0  0  0  0  0  0  0  0  0  0  0
    0.4077   -0.9860    0.8716 C   0  0  0  0  0  0  0  0  0  0  0  0
   -0.8738   -1.3565    1.3044 C   0  0  0  0  0  0  0  0  0  0  0  0
   -1.9868   -0.8507    0.7022 C   0  0  0  0  0  0  0  0  0  0  0  0
   -1.8573    0.0347   -0.3426 C   0  0  0  0  0  0  0  0  0  0  0  0
   -2.9763    0.5665   -0.9741 O   0  0  0  0  0  0  0  0  0  0  0  0
   -4.2819    0.2300   -0.5577 C   0  0  0  0  0  0  0  0  0  0  0  0
   -4.2468   -0.1229    0.9140 C   0  0  0  0  0  0  0  0  0  0  0  0
   -3.2964   -1.1733    1.0780 O   0  0  0  0  0  0  0  0  0  0  0  0
    1.8242    0.3067   -0.6749 N   0  0  0  0  0  0  0  0  0  0  0  0
    3.0636   -0.1161   -0.1462 C   0  0  0  0  0  0  0  0  0  0  0  0
    3.6076   -1.3611   -0.1010 N   0  0  0  0  0  0  0  0  0  0  0  0
    4.8330   -1.2366    0.4944 C   0  0  0  0  0  0  0  0  0  0  0  0
    5.0330    0.0862    0.8114 C   0  0  0  0  0  0  0  0  0  0  0  0
    3.9401    0.7686    0.4145 N   0  0  0  0  0  0  0  0  0  0  0  0
    0.2035    2.1583   -1.5169 H   0  0  0  0  0  0  0  0  0  0  0  0
    0.0292    0.8414   -2.7099 H   0  0  0  0  0  0  0  0  0  0  0  0
   -1.4102    1.8479   -2.1515 H   0  0  0  0  0  0  0  0  0  0  0  0
    1.2978   -1.3857    1.3510 H   0  0  0  0  0  0  0  0  0  0  0  0
   -0.9923   -2.0563    2.1306 H   0  0  0  0  0  0  0  0  0  0  0  0
   -4.7171   -0.6033   -1.1444 H   0  0  0  0  0  0  0  0  0  0  0  0
   -4.9149    1.1536   -0.7055 H   0  0  0  0  0  0  0  0  0  0  0  0
   -3.9927    0.7750    1.4872 H   0  0  0  0  0  0  0  0  0  0  0  0
   -5.2582   -0.4734    1.2588 H   0  0  0  0  0  0  0  0  0  0  0  0
    1.8577    0.9644   -1.4829 H   0  0  0  0  0  0  0  0  0  0  0  0
    5.5520   -2.0291    0.6994 H   0  0  0  0  0  0  0  0  0  0  0  0
    5.8900    0.5648    1.2947 H   0  0  0  0  0  0  0  0  0  0  0  0
    3.7871    1.8166    0.5192 H   0  0  0  0  0  0  0  0  0  0  0  0
  1  2  1  0
  2  3  2  0
  3  4  1  0
  4  5  2  0
  5  6  1  0
  6  7  2  0
  7  8  1  0
  8  9  1  0
  9 10  1  0
 10 11  1  0
  3 12  1  0
 12 13  1  0
 13 14  2  0
 14 15  1  0
 15 16  2  0
 16 17  1  0
  7  2  1  0
 17 13  1  0
 11  6  1  0
  1 18  1  0
  1 19  1  0
  1 20  1  0
  4 21  1  0
  5 22  1  0
  9 23  1  0
  9 24  1  0
 10 25  1  0
 10 26  1  0
 12 27  1  0
 15 28  1  0
 16 29  1  0
 17 30  1  0
M  END
>  <Ligand ID>  (1) 
LIG0003663

>  <Ligand>  (1) 
AGN 192836

>  <SMILES>  (1) 
Cc1c(ccc2c1OCCO2)Nc1ncc[nH]1

>  <CID>  (1) 
10176999.0

>  <ChEMBL ID>  (1) 
nan

>  <InChiKey>  (1) 
NDFYRGCPDAFQDG-UHFFFAOYSA-N

>  <InChi>  (1) 
InChI=1S/C12H13N3O2/c1-8-9(15-12-13-4-5-14-12)2-3-10-11(8)17-7-6-16-10/h2-5H,6-7H2,1H3,(H2,13,14,15)

>  <IUPAC Name>  (1) 
N-(5-methyl-2,3-dihydro-1,4-benzodioxin-6-yl)-1H-imidazol-2-amine

$$$$
