
     RDKit          3D

 34 35  0  0  0  0  0  0  0  0999 V2000
    0.2245   -1.1813   -0.7906 C   0  0  0  0  0  0  0  0  0  0  0  0
   -0.0702   -0.1387    0.1742 N   0  0  0  0  0  0  0  0  0  0  0  0
    0.9652    0.4776    0.9688 C   0  0  0  0  0  0  0  0  0  0  0  0
    0.7191    1.3838    1.8015 O   0  0  0  0  0  0  0  0  0  0  0  0
    2.3526    0.0623    0.8285 C   0  0  0  0  0  0  0  0  0  0  0  0
    2.7894   -1.1813    1.1354 N   0  0  0  0  0  0  0  0  0  0  0  0
    4.0643   -1.2674    0.9130 O   0  0  0  0  0  0  0  0  0  0  0  0
    4.5051   -0.1076    0.4609 C   0  0  0  0  0  0  0  0  0  0  0  0
    3.4501    0.7739    0.3895 C   0  0  0  0  0  0  0  0  0  0  0  0
    5.9384    0.1136    0.1095 C   0  0  0  0  0  0  0  0  0  0  0  0
   -1.4405    0.3520    0.3881 C   0  0  0  0  0  0  0  0  0  0  0  0
   -2.0200    1.0196   -0.8009 C   0  0  0  0  0  0  0  0  0  0  0  0
   -3.1552    0.3125   -1.4818 C   0  0  0  0  0  0  0  0  0  0  0  0
   -4.1169   -0.2576   -0.4348 C   0  0  0  0  0  0  0  0  0  0  0  0
   -3.3075   -1.3614    0.2483 C   0  0  0  0  0  0  0  0  0  0  0  0
   -2.2726   -0.6826    1.0708 C   0  0  0  0  0  0  0  0  0  0  0  0
    1.1714   -1.6730   -0.4962 H   0  0  0  0  0  0  0  0  0  0  0  0
    0.4041   -0.6999   -1.7744 H   0  0  0  0  0  0  0  0  0  0  0  0
   -0.5244   -1.9812   -0.8330 H   0  0  0  0  0  0  0  0  0  0  0  0
    3.4726    1.7855    0.0670 H   0  0  0  0  0  0  0  0  0  0  0  0
    6.1628   -0.4111   -0.8508 H   0  0  0  0  0  0  0  0  0  0  0  0
    6.1253    1.1975   -0.0413 H   0  0  0  0  0  0  0  0  0  0  0  0
    6.6130   -0.2198    0.9417 H   0  0  0  0  0  0  0  0  0  0  0  0
   -1.2973    1.1575    1.1737 H   0  0  0  0  0  0  0  0  0  0  0  0
   -2.3528    2.0755   -0.6035 H   0  0  0  0  0  0  0  0  0  0  0  0
   -1.1951    1.1376   -1.5664 H   0  0  0  0  0  0  0  0  0  0  0  0
   -3.7409    1.0643   -2.0481 H   0  0  0  0  0  0  0  0  0  0  0  0
   -2.8494   -0.4417   -2.2230 H   0  0  0  0  0  0  0  0  0  0  0  0
   -4.3343    0.5514    0.2815 H   0  0  0  0  0  0  0  0  0  0  0  0
   -5.0137   -0.6829   -0.9145 H   0  0  0  0  0  0  0  0  0  0  0  0
   -4.0134   -1.8689    0.9402 H   0  0  0  0  0  0  0  0  0  0  0  0
   -2.8686   -2.0419   -0.4776 H   0  0  0  0  0  0  0  0  0  0  0  0
   -2.8041   -0.2676    1.9638 H   0  0  0  0  0  0  0  0  0  0  0  0
   -1.5811   -1.4770    1.4808 H   0  0  0  0  0  0  0  0  0  0  0  0
  1  2  1  0
  2  3  1  0
  3  4  2  0
  3  5  1  0
  5  6  2  0
  6  7  1  0
  7  8  1  0
  8  9  2  0
  8 10  1  0
  2 11  1  0
 11 12  1  0
 12 13  1  0
 13 14  1  0
 14 15  1  0
 15 16  1  0
  9  5  1  0
 16 11  1  0
  1 17  1  0
  1 18  1  0
  1 19  1  0
  9 20  1  0
 10 21  1  0
 10 22  1  0
 10 23  1  0
 11 24  1  0
 12 25  1  0
 12 26  1  0
 13 27  1  0
 13 28  1  0
 14 29  1  0
 14 30  1  0
 15 31  1  0
 15 32  1  0
 16 33  1  0
 16 34  1  0
M  END
>  <Ligand ID>  (1) 
LIG0003787

>  <Ligand>  (1) 
AC1MDOQV

>  <SMILES>  (1) 
CN(C(=O)c1noc(c1)C)C1CCCCC1

>  <CID>  (1) 
2814457.0

>  <ChEMBL ID>  (1) 
nan

>  <InChiKey>  (1) 
LVFOAWVOZPHELK-UHFFFAOYSA-N

>  <InChi>  (1) 
InChI=1S/C12H18N2O2/c1-9-8-11(13-16-9)12(15)14(2)10-6-4-3-5-7-10/h8,10H,3-7H2,1-2H3

>  <IUPAC Name>  (1) 
N-cyclohexyl-N,5-dimethyl-1,2-oxazole-3-carboxamide

$$$$
