
     RDKit          3D

 61 66  0  0  0  0  0  0  0  0999 V2000
    0.0453    5.9302    0.4752 O   0  0  0  0  0  0  0  0  0  0  0  0
   -0.4705    4.6507    0.5976 C   0  0  0  0  0  0  0  0  0  0  0  0
   -1.5724    4.4928    1.4094 C   0  0  0  0  0  0  0  0  0  0  0  0
   -2.0834    3.2204    1.5287 C   0  0  0  0  0  0  0  0  0  0  0  0
   -1.5154    2.1270    0.8587 C   0  0  0  0  0  0  0  0  0  0  0  0
   -0.4115    2.2820    0.0451 C   0  0  0  0  0  0  0  0  0  0  0  0
    0.0945    3.5625   -0.0691 C   0  0  0  0  0  0  0  0  0  0  0  0
    0.2289    1.1666   -0.6899 C   0  0  2  0  0  0  0  0  0  0  0  0
   -0.4019    1.1177   -2.0580 C   0  0  0  0  0  0  0  0  0  0  0  0
   -1.6536    0.3992   -2.2001 C   0  0  0  0  0  0  0  0  0  0  0  0
   -2.3464   -0.1547   -1.0811 N   0  0  0  0  0  0  0  0  0  0  0  0
   -1.6175   -0.1861    0.1631 C   0  0  2  0  0  0  0  0  0  0  0  0
   -2.1942    0.8258    1.0924 C   0  0  0  0  0  0  0  0  0  0  0  0
   -0.1528   -0.1145   -0.0116 C   0  0  1  0  0  0  0  0  0  0  0  0
    0.2459   -1.2035   -0.7894 O   0  0  0  0  0  0  0  0  0  0  0  0
    0.5813   -0.2327    1.3187 C   0  0  0  0  0  0  0  0  0  0  0  0
    1.9759   -0.6314    0.8633 C   0  0  0  0  0  0  0  0  0  0  0  0
    2.4543    0.1107   -0.1976 C   0  0  0  0  0  0  0  0  0  0  0  0
    1.6992    1.2306   -0.8231 C   0  0  0  0  0  0  0  0  0  0  0  0
    3.6736   -0.2265   -0.6603 N   0  0  0  0  0  0  0  0  0  0  0  0
    4.4132   -1.2259   -0.1415 C   0  0  0  0  0  0  0  0  0  0  0  0
    5.6479   -1.4952   -0.6930 C   0  0  0  0  0  0  0  0  0  0  0  0
    6.4109   -2.5218   -0.1711 C   0  0  0  0  0  0  0  0  0  0  0  0
    5.9009   -3.2475    0.8958 C   0  0  0  0  0  0  0  0  0  0  0  0
    4.6676   -2.9873    1.4549 C   0  0  0  0  0  0  0  0  0  0  0  0
    3.9156   -1.9564    0.9216 C   0  0  0  0  0  0  0  0  0  0  0  0
    2.6549   -1.6644    1.4576 C   0  0  0  0  0  0  0  0  0  0  0  0
   -2.9150   -1.4608   -1.3906 C   0  0  0  0  0  0  0  0  0  0  0  0
   -3.8343   -1.8590   -0.2570 C   0  0  0  0  0  0  0  0  0  0  0  0
   -4.5458   -3.1909   -0.2941 C   0  0  0  0  0  0  0  0  0  0  0  0
   -5.3075   -1.9486   -0.5922 C   0  0  0  0  0  0  0  0  0  0  0  0
    0.6924    0.0000    0.0000 Cl  0  0  0  0  0  0  0  0  0  0  0  0
   -0.0901    6.5168   -0.3511 H   0  0  0  0  0  0  0  0  0  0  0  0
   -2.0133    5.3320    1.9261 H   0  0  0  0  0  0  0  0  0  0  0  0
   -2.9484    3.1022    2.1652 H   0  0  0  0  0  0  0  0  0  0  0  0
    0.9574    3.8116   -0.6816 H   0  0  0  0  0  0  0  0  0  0  0  0
   -0.5234    2.1975   -2.3665 H   0  0  0  0  0  0  0  0  0  0  0  0
    0.3845    0.7463   -2.7791 H   0  0  0  0  0  0  0  0  0  0  0  0
   -2.4163    1.0588   -2.7279 H   0  0  0  0  0  0  0  0  0  0  0  0
   -1.5253   -0.4391   -2.9511 H   0  0  0  0  0  0  0  0  0  0  0  0
   -1.8104   -1.2090    0.6187 H   0  0  0  0  0  0  0  0  0  0  0  0
   -3.2785    0.9500    0.8192 H   0  0  0  0  0  0  0  0  0  0  0  0
   -2.1251    0.5358    2.1661 H   0  0  0  0  0  0  0  0  0  0  0  0
    0.4444   -0.9843   -1.7127 H   0  0  0  0  0  0  0  0  0  0  0  0
    0.6956    0.7688    1.7631 H   0  0  0  0  0  0  0  0  0  0  0  0
    0.1201   -0.9840    1.9557 H   0  0  0  0  0  0  0  0  0  0  0  0
    1.9689    1.2244   -1.9005 H   0  0  0  0  0  0  0  0  0  0  0  0
    2.1479    2.2029   -0.4596 H   0  0  0  0  0  0  0  0  0  0  0  0
    6.0333   -0.9251   -1.5205 H   0  0  0  0  0  0  0  0  0  0  0  0
    7.3887   -2.7561   -0.5874 H   0  0  0  0  0  0  0  0  0  0  0  0
    6.4713   -4.0452    1.3161 H   0  0  0  0  0  0  0  0  0  0  0  0
    4.2718   -3.5615    2.2929 H   0  0  0  0  0  0  0  0  0  0  0  0
    2.2391   -2.2054    2.2753 H   0  0  0  0  0  0  0  0  0  0  0  0
   -3.4504   -1.4781   -2.3393 H   0  0  0  0  0  0  0  0  0  0  0  0
   -2.1312   -2.2537   -1.4581 H   0  0  0  0  0  0  0  0  0  0  0  0
   -3.6779   -1.4627    0.7752 H   0  0  0  0  0  0  0  0  0  0  0  0
   -4.3167   -3.8810   -1.1145 H   0  0  0  0  0  0  0  0  0  0  0  0
   -4.7412   -3.6986    0.6966 H   0  0  0  0  0  0  0  0  0  0  0  0
   -5.6099   -1.7842   -1.6599 H   0  0  0  0  0  0  0  0  0  0  0  0
   -6.0527   -1.5882    0.1248 H   0  0  0  0  0  0  0  0  0  0  0  0
   -0.6924    0.0000    0.0000 H   0  0  0  0  0  0  0  0  0  0  0  0
  1  2  1  0
  2  3  2  0
  3  4  1  0
  4  5  2  0
  5  6  1  0
  6  7  2  0
  6  8  1  0
  8  9  1  6
  9 10  1  0
 10 11  1  0
 11 12  1  0
 12 13  1  0
 12 14  1  0
 14 15  1  6
 14 16  1  0
 16 17  1  0
 17 18  2  0
 18 19  1  0
 18 20  1  0
 20 21  2  0
 21 22  1  0
 22 23  2  0
 23 24  1  0
 24 25  2  0
 25 26  1  0
 26 27  2  0
 11 28  1  0
 28 29  1  0
 29 30  1  0
 30 31  1  0
  7  2  1  0
 19  8  1  0
 26 21  1  0
 31 29  1  0
 13  5  1  0
 27 17  1  0
 14  8  1  0
  1 33  1  0
  3 34  1  0
  4 35  1  0
  7 36  1  0
  9 37  1  0
  9 38  1  0
 10 39  1  0
 10 40  1  0
 12 41  1  1
 13 42  1  0
 13 43  1  0
 15 44  1  0
 16 45  1  0
 16 46  1  0
 19 47  1  0
 19 48  1  0
 22 49  1  0
 23 50  1  0
 24 51  1  0
 25 52  1  0
 27 53  1  0
 28 54  1  0
 28 55  1  0
 29 56  1  0
 30 57  1  0
 30 58  1  0
 31 59  1  0
 31 60  1  0
 32 61  1  0
M  END
>  <Ligand ID>  (1) 
LIG0002961

>  <Ligand>  (1) 
CHEMBL3092395

>  <SMILES>  (1) 
Oc1ccc2c(c1)[C@@]13CCN([C@H](C2)[C@]3(O)Cc2c(C1)nc1ccccc1c2)CC1CC1.Cl

>  <CID>  (1) 
76335380.0

>  <ChEMBL ID>  (1) 
nan

>  <InChiKey>  (1) 
SZFQQFDTLRYXDF-ABMDVLGUSA-N

>  <InChi>  (1) 
InChI=1S/C27H28N2O2.ClH/c30-21-8-7-18-12-25-27(31)14-20-11-19-3-1-2-4-23(19)28-24(20)15-26(27,22(18)13-21)9-10-29(25)16-17-5-6-17;/h1-4,7-8,11,13,17,25,30-31H,5-6,9-10,12,14-16H2;1H/t25-,26-,27-;/m1./s1

>  <IUPAC Name>  (1) 
(1R,14S,15R)-25-(cyclopropylmethyl)-4,25-diazahexacyclo[13.7.3.01,14.03,12.05,10.017,22]pentacosa-3,5,7,9,11,17(22),18,20-octaene-14,20-diol;hydrochloride

$$$$
