
     RDKit          3D

161166  0  0  0  0  0  0  0  0999 V2000
  -10.2679    0.9071    3.3783 C   0  0  0  0  0  0  0  0  0  0  0  0
  -10.6483   -0.3358    2.5822 C   0  0  0  0  0  0  0  0  0  0  0  0
   -9.6579   -1.4447    2.6998 C   0  0  0  0  0  0  0  0  0  0  0  0
   -8.2697   -1.1880    2.2497 C   0  0  0  0  0  0  0  0  0  0  0  0
   -8.1369   -0.8551    0.8099 C   0  0  2  0  0  0  0  0  0  0  0  0
   -6.6426   -0.6524    0.4904 C   0  0  0  0  0  0  0  0  0  0  0  0
   -6.2161    0.5048    0.3820 O   0  0  0  0  0  0  0  0  0  0  0  0
   -5.8558   -1.7964    0.3396 N   0  0  0  0  0  0  0  0  0  0  0  0
   -4.4377   -1.8720    0.0613 C   0  0  1  0  0  0  0  0  0  0  0  0
   -4.0692   -3.2599   -0.1227 C   0  0  0  0  0  0  0  0  0  0  0  0
   -2.7009   -3.4865   -0.5671 C   0  0  0  0  0  0  0  0  0  0  0  0
   -1.8745   -2.7259   -1.0657 O   0  0  0  0  0  0  0  0  0  0  0  0
   -2.1899   -4.8409   -0.4116 N   0  0  0  0  0  0  0  0  0  0  0  0
   -0.8484   -5.1811   -0.9188 C   0  0  0  0  0  0  0  0  0  0  0  0
   -0.5587   -6.5843   -0.3819 C   0  0  0  0  0  0  0  0  0  0  0  0
   -0.0643   -6.3614    1.0795 C   0  0  0  0  0  0  0  0  0  0  0  0
    1.3064   -5.7814    1.0126 C   0  0  0  0  0  0  0  0  0  0  0  0
    1.6063   -5.0085    2.3034 C   0  0  1  0  0  0  0  0  0  0  0  0
    1.5797   -5.8768    3.4359 C   0  0  0  0  0  0  0  0  0  0  0  0
    0.5597   -6.6110    3.6338 O   0  0  0  0  0  0  0  0  0  0  0  0
    2.6091   -6.0320    4.4280 N   0  0  0  0  0  0  0  0  0  0  0  0
    2.8374   -4.2410    2.0462 N   0  0  0  0  0  0  0  0  0  0  0  0
    4.1471   -4.7885    2.0792 C   0  0  0  0  0  0  0  0  0  0  0  0
    2.7566   -2.8621    1.6851 C   0  0  0  0  0  0  0  0  0  0  0  0
    1.6128   -2.4361    1.5975 O   0  0  0  0  0  0  0  0  0  0  0  0
    3.8878   -1.9491    1.4041 C   0  0  1  0  0  0  0  0  0  0  0  0
    3.3733   -0.9246    0.4290 N   0  0  0  0  0  0  0  0  0  0  0  0
    4.0366   -0.6661   -0.7526 C   0  0  0  0  0  0  0  0  0  0  0  0
    5.1991   -1.2382   -0.8392 O   0  0  0  0  0  0  0  0  0  0  0  0
    3.7019    0.1375   -1.9510 C   0  0  1  0  0  0  0  0  0  0  0  0
    2.2793    0.5247   -2.0179 N   0  0  0  0  0  0  0  0  0  0  0  0
    1.7127    1.5433   -1.2448 C   0  0  0  0  0  0  0  0  0  0  0  0
    2.6255    2.0081   -0.4558 O   0  0  0  0  0  0  0  0  0  0  0  0
    0.4186    2.1611   -1.1222 C   0  0  2  0  0  0  0  0  0  0  0  0
   -0.5909    1.7904   -2.1279 N   0  0  0  0  0  0  0  0  0  0  0  0
   -1.7777    1.0497   -1.7359 C   0  0  0  0  0  0  0  0  0  0  0  0
   -1.6687    0.7365   -0.5457 O   0  0  0  0  0  0  0  0  0  0  0  0
   -2.9116    0.6879   -2.5284 C   0  0  1  0  0  0  0  0  0  0  0  0
   -3.5573   -0.5803   -2.0516 N   0  0  0  0  0  0  0  0  0  0  0  0
   -3.9741   -0.7512   -0.7156 C   0  0  0  0  0  0  0  0  0  0  0  0
   -3.9229    0.3769   -0.1124 O   0  0  0  0  0  0  0  0  0  0  0  0
   -3.8822   -1.6104   -2.9787 C   0  0  0  0  0  0  0  0  0  0  0  0
   -3.9670    1.7778   -2.5216 C   0  0  0  0  0  0  0  0  0  0  0  0
   -3.5783    3.0788   -3.0307 C   0  0  0  0  0  0  0  0  0  0  0  0
   -3.6723    3.4528   -4.3253 N   0  0  0  0  0  0  0  0  0  0  0  0
   -3.2471    4.7235   -4.4252 C   0  0  0  0  0  0  0  0  0  0  0  0
   -2.8726    5.2046   -3.2256 N   0  0  0  0  0  0  0  0  0  0  0  0
   -3.0807    4.1718   -2.3456 C   0  0  0  0  0  0  0  0  0  0  0  0
   -0.4878    2.1128   -3.4975 C   0  0  0  0  0  0  0  0  0  0  0  0
    0.5452    3.6689   -1.0813 C   0  0  0  0  0  0  0  0  0  0  0  0
    1.3587    4.2267    0.0020 C   0  0  0  0  0  0  0  0  0  0  0  0
    2.6660    4.6598   -0.1426 C   0  0  0  0  0  0  0  0  0  0  0  0
    3.4094    5.1568    0.9019 C   0  0  0  0  0  0  0  0  0  0  0  0
    2.8571    5.2337    2.1362 C   0  0  0  0  0  0  0  0  0  0  0  0
    1.5583    4.8100    2.3075 C   0  0  0  0  0  0  0  0  0  0  0  0
    0.8145    4.3137    1.2642 C   0  0  0  0  0  0  0  0  0  0  0  0
    1.0234    4.9028    3.5822 C   0  0  0  0  0  0  0  0  0  0  0  0
    1.7634    5.4004    4.6281 C   0  0  0  0  0  0  0  0  0  0  0  0
    3.0587    5.8251    4.4650 C   0  0  0  0  0  0  0  0  0  0  0  0
    3.6065    5.7385    3.2059 C   0  0  0  0  0  0  0  0  0  0  0  0
    1.4605   -0.2717   -2.8655 C   0  0  0  0  0  0  0  0  0  0  0  0
    4.6539    1.2487   -2.1241 C   0  0  0  0  0  0  0  0  0  0  0  0
    4.2809    2.0502   -3.3599 C   0  0  0  0  0  0  0  0  0  0  0  0
    5.2146    3.2208   -3.5579 C   0  0  0  0  0  0  0  0  0  0  0  0
    6.5553    2.7154   -3.7008 N   0  0  0  0  0  0  0  0  0  0  0  0
    7.4843    2.7833   -2.8361 C   0  0  0  0  0  0  0  0  0  0  0  0
    8.7614    2.2089   -3.1924 N   0  0  0  0  0  0  0  0  0  0  0  0
    7.3447    3.3801   -1.5423 N   0  0  0  0  0  0  0  0  0  0  0  0
    4.4552   -1.2868    2.6191 C   0  0  0  0  0  0  0  0  0  0  0  0
    5.5929   -0.3765    2.2939 C   0  0  0  0  0  0  0  0  0  0  0  0
    5.5592    1.0192    2.3608 C   0  0  0  0  0  0  0  0  0  0  0  0
    6.7783    1.4727    2.0196 N   0  0  0  0  0  0  0  0  0  0  0  0
    7.6052    0.4562    1.7328 C   0  0  0  0  0  0  0  0  0  0  0  0
    6.8649   -0.6980    1.9033 C   0  0  0  0  0  0  0  0  0  0  0  0
    7.5024   -1.8995    1.6573 C   0  0  0  0  0  0  0  0  0  0  0  0
    8.8229   -1.9471    1.2573 C   0  0  0  0  0  0  0  0  0  0  0  0
    9.5290   -0.7687    1.0977 C   0  0  0  0  0  0  0  0  0  0  0  0
    8.9357    0.4453    1.3315 C   0  0  0  0  0  0  0  0  0  0  0  0
   -8.6965    0.4525    0.5255 N   0  0  0  0  0  0  0  0  0  0  0  0
   -9.4129    0.5495   -0.7193 C   0  0  0  0  0  0  0  0  0  0  0  0
   -9.5229   -0.4619   -1.4734 O   0  0  0  0  0  0  0  0  0  0  0  0
  -10.0524    1.8048   -1.1858 C   0  0  0  0  0  0  0  0  0  0  0  0
   -9.2472    0.8187    3.7629 H   0  0  0  0  0  0  0  0  0  0  0  0
  -10.9269    1.0416    4.2603 H   0  0  0  0  0  0  0  0  0  0  0  0
  -10.4037    1.8446    2.7582 H   0  0  0  0  0  0  0  0  0  0  0  0
  -10.9058   -0.1350    1.5415 H   0  0  0  0  0  0  0  0  0  0  0  0
  -11.6048   -0.7283    3.0353 H   0  0  0  0  0  0  0  0  0  0  0  0
   -9.6580   -1.7930    3.7776 H   0  0  0  0  0  0  0  0  0  0  0  0
  -10.1035   -2.3239    2.1637 H   0  0  0  0  0  0  0  0  0  0  0  0
   -7.6220   -2.0500    2.5582 H   0  0  0  0  0  0  0  0  0  0  0  0
   -7.8384   -0.3297    2.8606 H   0  0  0  0  0  0  0  0  0  0  0  0
   -8.5054   -1.5869    0.0912 H   0  0  0  0  0  0  0  0  0  0  0  0
   -6.3654   -2.7322    0.4515 H   0  0  0  0  0  0  0  0  0  0  0  0
   -4.0018   -1.5425    1.1454 H   0  0  0  0  0  0  0  0  0  0  0  0
   -4.1276   -3.8284    0.8882 H   0  0  0  0  0  0  0  0  0  0  0  0
   -4.8123   -3.8689   -0.7136 H   0  0  0  0  0  0  0  0  0  0  0  0
   -2.8118   -5.4873    0.0558 H   0  0  0  0  0  0  0  0  0  0  0  0
   -0.8033   -5.1875   -2.0138 H   0  0  0  0  0  0  0  0  0  0  0  0
   -0.1888   -4.4542   -0.4389 H   0  0  0  0  0  0  0  0  0  0  0  0
   -1.4911   -7.1436   -0.2918 H   0  0  0  0  0  0  0  0  0  0  0  0
    0.1847   -7.1332   -0.9490 H   0  0  0  0  0  0  0  0  0  0  0  0
   -0.8075   -5.7784    1.6258 H   0  0  0  0  0  0  0  0  0  0  0  0
   -0.0378   -7.3834    1.4951 H   0  0  0  0  0  0  0  0  0  0  0  0
    2.0425   -6.6415    1.0140 H   0  0  0  0  0  0  0  0  0  0  0  0
    1.4588   -5.1152    0.1774 H   0  0  0  0  0  0  0  0  0  0  0  0
    0.7527   -4.2543    2.2985 H   0  0  0  0  0  0  0  0  0  0  0  0
    2.9169   -5.1639    4.9427 H   0  0  0  0  0  0  0  0  0  0  0  0
    3.0372   -6.9812    4.6344 H   0  0  0  0  0  0  0  0  0  0  0  0
    4.9435   -4.0131    2.1036 H   0  0  0  0  0  0  0  0  0  0  0  0
    4.2809   -5.4142    1.1425 H   0  0  0  0  0  0  0  0  0  0  0  0
    4.2217   -5.4641    2.9262 H   0  0  0  0  0  0  0  0  0  0  0  0
    4.7173   -2.4344    0.8670 H   0  0  0  0  0  0  0  0  0  0  0  0
    2.5266   -0.4368    0.6718 H   0  0  0  0  0  0  0  0  0  0  0  0
    3.8478   -0.6187   -2.7937 H   0  0  0  0  0  0  0  0  0  0  0  0
    0.0598    1.8400   -0.0990 H   0  0  0  0  0  0  0  0  0  0  0  0
   -2.6659    0.5429   -3.6039 H   0  0  0  0  0  0  0  0  0  0  0  0
   -2.9683   -2.0444   -3.4495 H   0  0  0  0  0  0  0  0  0  0  0  0
   -4.4965   -1.2133   -3.8435 H   0  0  0  0  0  0  0  0  0  0  0  0
   -4.5343   -2.3908   -2.5495 H   0  0  0  0  0  0  0  0  0  0  0  0
   -4.4319    1.9508   -1.5236 H   0  0  0  0  0  0  0  0  0  0  0  0
   -4.8601    1.3545   -3.1127 H   0  0  0  0  0  0  0  0  0  0  0  0
   -4.0191    2.8385   -5.1175 H   0  0  0  0  0  0  0  0  0  0  0  0
   -3.2131    5.3049   -5.3663 H   0  0  0  0  0  0  0  0  0  0  0  0
   -2.8650    4.2637   -1.2905 H   0  0  0  0  0  0  0  0  0  0  0  0
    0.5980    2.2515   -3.8022 H   0  0  0  0  0  0  0  0  0  0  0  0
   -0.8523    1.3119   -4.1819 H   0  0  0  0  0  0  0  0  0  0  0  0
   -0.9513    3.0401   -3.8204 H   0  0  0  0  0  0  0  0  0  0  0  0
   -0.4384    4.1807   -1.0213 H   0  0  0  0  0  0  0  0  0  0  0  0
    0.9498    4.0381   -2.0712 H   0  0  0  0  0  0  0  0  0  0  0  0
    3.1103    4.6021   -1.1463 H   0  0  0  0  0  0  0  0  0  0  0  0
    4.4451    5.4929    0.7645 H   0  0  0  0  0  0  0  0  0  0  0  0
   -0.2062    3.9762    1.4108 H   0  0  0  0  0  0  0  0  0  0  0  0
   -0.0046    4.5830    3.7999 H   0  0  0  0  0  0  0  0  0  0  0  0
    1.3322    5.4735    5.6409 H   0  0  0  0  0  0  0  0  0  0  0  0
    3.6819    6.2230    5.2524 H   0  0  0  0  0  0  0  0  0  0  0  0
    4.6117    6.0487    2.9996 H   0  0  0  0  0  0  0  0  0  0  0  0
    1.9471   -1.3050   -2.9814 H   0  0  0  0  0  0  0  0  0  0  0  0
    0.4178   -0.3890   -2.6019 H   0  0  0  0  0  0  0  0  0  0  0  0
    1.5527    0.1375   -3.8896 H   0  0  0  0  0  0  0  0  0  0  0  0
    4.7928    1.8905   -1.2467 H   0  0  0  0  0  0  0  0  0  0  0  0
    5.6488    0.7877   -2.3617 H   0  0  0  0  0  0  0  0  0  0  0  0
    3.2192    2.3761   -3.3129 H   0  0  0  0  0  0  0  0  0  0  0  0
    4.3526    1.3633   -4.2257 H   0  0  0  0  0  0  0  0  0  0  0  0
    4.9024    3.6650   -4.5494 H   0  0  0  0  0  0  0  0  0  0  0  0
    5.0845    3.9579   -2.7495 H   0  0  0  0  0  0  0  0  0  0  0  0
    8.8204    1.1819   -3.1392 H   0  0  0  0  0  0  0  0  0  0  0  0
    9.5283    2.8586   -3.4777 H   0  0  0  0  0  0  0  0  0  0  0  0
    6.4466    3.6241   -1.1005 H   0  0  0  0  0  0  0  0  0  0  0  0
    8.2127    3.5943   -0.9807 H   0  0  0  0  0  0  0  0  0  0  0  0
    4.7565   -2.0530    3.3511 H   0  0  0  0  0  0  0  0  0  0  0  0
    3.6578   -0.6878    3.1664 H   0  0  0  0  0  0  0  0  0  0  0  0
    4.6696    1.5751    2.6440 H   0  0  0  0  0  0  0  0  0  0  0  0
    7.0262    2.4927    1.9886 H   0  0  0  0  0  0  0  0  0  0  0  0
    6.9666   -2.8236    1.7755 H   0  0  0  0  0  0  0  0  0  0  0  0
    9.3411   -2.8802    1.0519 H   0  0  0  0  0  0  0  0  0  0  0  0
   10.5505   -0.8333    0.7758 H   0  0  0  0  0  0  0  0  0  0  0  0
    9.4726    1.3773    1.2124 H   0  0  0  0  0  0  0  0  0  0  0  0
   -8.6034    1.2894    1.1264 H   0  0  0  0  0  0  0  0  0  0  0  0
  -11.1567    1.6858   -1.3034 H   0  0  0  0  0  0  0  0  0  0  0  0
   -9.8898    2.6486   -0.5151 H   0  0  0  0  0  0  0  0  0  0  0  0
   -9.6634    2.0742   -2.1926 H   0  0  0  0  0  0  0  0  0  0  0  0
  1  2  1  0
  2  3  1  0
  3  4  1  0
  4  5  1  0
  5  6  1  0
  6  7  2  0
  6  8  1  0
  8  9  1  0
  9 10  1  0
 10 11  1  0
 11 12  2  0
 11 13  1  0
 13 14  1  0
 14 15  1  0
 15 16  1  0
 16 17  1  0
 17 18  1  0
 18 19  1  0
 19 20  2  0
 19 21  1  0
 18 22  1  0
 22 23  1  0
 22 24  1  0
 24 25  2  0
 24 26  1  0
 26 27  1  0
 27 28  1  0
 28 29  2  0
 28 30  1  0
 30 31  1  0
 31 32  1  0
 32 33  2  0
 32 34  1  0
 34 35  1  0
 35 36  1  0
 36 37  2  0
 36 38  1  0
 38 39  1  0
 39 40  1  0
 40 41  2  0
 39 42  1  0
 38 43  1  0
 43 44  1  0
 44 45  1  0
 45 46  1  0
 46 47  2  0
 47 48  1  0
 35 49  1  0
 34 50  1  0
 50 51  1  0
 51 52  2  0
 52 53  1  0
 53 54  2  0
 54 55  1  0
 55 56  2  0
 55 57  1  0
 57 58  2  0
 58 59  1  0
 59 60  2  0
 31 61  1  0
 30 62  1  0
 62 63  1  0
 63 64  1  0
 64 65  1  0
 65 66  2  3
 66 67  1  0
 66 68  1  0
 26 69  1  0
 69 70  1  0
 70 71  2  0
 71 72  1  0
 72 73  1  0
 73 74  2  0
 74 75  1  0
 75 76  2  0
 76 77  1  0
 77 78  2  0
  5 79  1  0
 79 80  1  0
 80 81  2  0
 80 82  1  0
 40  9  1  0
 48 44  2  0
 56 51  1  0
 74 70  1  0
 60 54  1  0
 78 73  1  0
  1 83  1  0
  1 84  1  0
  1 85  1  0
  2 86  1  0
  2 87  1  0
  3 88  1  0
  3 89  1  0
  4 90  1  0
  4 91  1  0
  5 92  1  6
  8 93  1  0
  9 94  1  1
 10 95  1  0
 10 96  1  0
 13 97  1  0
 14 98  1  0
 14 99  1  0
 15100  1  0
 15101  1  0
 16102  1  0
 16103  1  0
 17104  1  0
 17105  1  0
 18106  1  1
 21107  1  0
 21108  1  0
 23109  1  0
 23110  1  0
 23111  1  0
 26112  1  6
 27113  1  0
 30114  1  6
 34115  1  1
 38116  1  6
 42117  1  0
 42118  1  0
 42119  1  0
 43120  1  0
 43121  1  0
 45122  1  0
 46123  1  0
 48124  1  0
 49125  1  0
 49126  1  0
 49127  1  0
 50128  1  0
 50129  1  0
 52130  1  0
 53131  1  0
 56132  1  0
 57133  1  0
 58134  1  0
 59135  1  0
 60136  1  0
 61137  1  0
 61138  1  0
 61139  1  0
 62140  1  0
 62141  1  0
 63142  1  0
 63143  1  0
 64144  1  0
 64145  1  0
 67146  1  0
 67147  1  0
 68148  1  0
 68149  1  0
 69150  1  0
 69151  1  0
 71152  1  0
 72153  1  0
 75154  1  0
 76155  1  0
 77156  1  0
 78157  1  0
 79158  1  0
 82159  1  0
 82160  1  0
 82161  1  0
M  END
>  <Ligand ID>  (1) 
LIG0001808

>  <Ligand>  (1) 
CHEMBL3601430

>  <SMILES>  (1) 
CCCC[C@H](C(=O)N[C@H]1CC(=O)NCCCC[C@@H](C(=O)N)N(C)C(=O)[C@@H](NC(=O)[C@@H](N(C(=O)[C@H](N(C(=O)[C@@H](N(C1=O)C)Cc1[nH]cnc1)C)Cc1ccc2c(c1)cccc2)C)CCCN=C(N)N)Cc1c[nH]c2c1cccc2)NC(=O)C

>  <CID>  (1) 
122184912.0

>  <ChEMBL ID>  (1) 
nan

>  <InChiKey>  (1) 
QMZLXRZBBXPTOQ-UKBISLOHSA-N

>  <InChi>  (1) 
InChI=1S/C58H79N15O9/c1-7-8-19-43(67-35(2)74)52(77)68-45-31-50(75)63-25-14-13-21-46(51(59)76)70(3)54(79)44(29-39-32-65-42-20-12-11-18-41(39)42)69-53(78)47(22-15-26-64-58(60)61)71(4)56(81)48(28-36-23-24-37-16-9-10-17-38(37)27-36)73(6)57(82)49(72(5)55(45)80)30-40-33-62-34-66-40/h9-12,16-18,20,23-24,27,32-34,43-49,65H,7-8,13-15,19,21-22,25-26,28-31H2,1-6H3,(H2,59,76)(H,62,66)(H,63,75)(H,67,74)(H,68,77)(H,69,78)(H4,60,61,64)/t43-,44+,45+,46+,47+,48-,49+/m1/s1

>  <IUPAC Name>  (1) 
(3S,6S,9R,12S,15S,23S)-15-[[(2R)-2-acetamidohexanoyl]amino]-6-[3-(diaminomethylideneamino)propyl]-12-(1H-imidazol-5-ylmethyl)-3-(1H-indol-3-ylmethyl)-1,7,10,13-tetramethyl-9-(naphthalen-2-ylmethyl)-2,5,8,11,14,17-hexaoxo-1,4,7,10,13,18-hexazacyclotricosane-23-carboxamide

$$$$
