
     RDKit          3D

 53 56  0  0  0  0  0  0  0  0999 V2000
   -8.1137    0.4372   -1.5747 O   0  0  0  0  0  0  0  0  0  0  0  0
   -7.1470    1.2534   -0.9922 C   0  0  0  0  0  0  0  0  0  0  0  0
   -6.6548    0.7176    0.3438 C   0  0  1  0  0  0  0  0  0  0  0  0
   -6.0909   -0.5161    0.2489 O   0  0  0  0  0  0  0  0  0  0  0  0
   -4.7741   -0.4644    0.6125 C   0  0  2  0  0  0  0  0  0  0  0  0
   -4.5113    0.8293    1.3082 C   0  0  1  0  0  0  0  0  0  0  0  0
   -5.6721    1.6869    0.9033 C   0  0  2  0  0  0  0  0  0  0  0  0
   -6.2322    2.3718    1.9992 O   0  0  0  0  0  0  0  0  0  0  0  0
   -4.5862    0.6637    2.7102 O   0  0  0  0  0  0  0  0  0  0  0  0
   -3.8954   -0.6601   -0.5461 N   0  0  0  0  0  0  0  0  0  0  0  0
   -4.2998   -0.8859   -1.8144 C   0  0  0  0  0  0  0  0  0  0  0  0
   -3.1947   -1.0143   -2.5994 N   0  0  0  0  0  0  0  0  0  0  0  0
   -2.1314   -0.8649   -1.7981 C   0  0  0  0  0  0  0  0  0  0  0  0
   -2.5499   -0.6378   -0.4835 C   0  0  0  0  0  0  0  0  0  0  0  0
   -1.6703   -0.4545    0.5198 N   0  0  0  0  0  0  0  0  0  0  0  0
   -0.3473   -0.4970    0.2139 C   0  0  0  0  0  0  0  0  0  0  0  0
    0.6330   -0.3112    1.2267 N   0  0  0  0  0  0  0  0  0  0  0  0
    2.0047   -0.3407    0.9922 N   0  0  0  0  0  0  0  0  0  0  0  0
    2.6888    0.7519    1.0531 C   0  0  0  0  0  0  0  0  0  0  0  0
    4.1189    0.7668    0.8159 C   0  0  0  0  0  0  0  0  0  0  0  0
    4.7665   -0.3445    0.5289 C   0  0  0  0  0  0  0  0  0  0  0  0
    6.1875   -0.4247    0.2779 C   0  0  0  0  0  0  0  0  0  0  0  0
    7.0205    0.6723    0.3146 C   0  0  0  0  0  0  0  0  0  0  0  0
    8.3923    0.5670    0.0678 C   0  0  0  0  0  0  0  0  0  0  0  0
    8.9599   -0.6554   -0.2236 C   0  0  0  0  0  0  0  0  0  0  0  0
    8.1404   -1.7633   -0.2643 C   0  0  0  0  0  0  0  0  0  0  0  0
    6.7728   -1.6390   -0.0152 C   0  0  0  0  0  0  0  0  0  0  0  0
   10.3611   -0.7149   -0.4680 N   0  0  0  0  0  0  0  0  0  0  0  0
   10.9287   -1.7891   -0.7356 O   0  0  0  0  0  0  0  0  0  0  0  0
   11.1544    0.4297   -0.4170 O   0  0  0  0  0  0  0  0  0  0  0  0
    0.0772   -0.7160   -1.0549 N   0  0  0  0  0  0  0  0  0  0  0  0
   -0.7756   -0.9043   -2.0880 C   0  0  0  0  0  0  0  0  0  0  0  0
   -0.2826   -1.1294   -3.3954 N   0  0  0  0  0  0  0  0  0  0  0  0
   -7.7312   -0.4065   -1.8701 H   0  0  0  0  0  0  0  0  0  0  0  0
   -7.6456    2.2293   -0.8145 H   0  0  0  0  0  0  0  0  0  0  0  0
   -6.3064    1.3918   -1.7019 H   0  0  0  0  0  0  0  0  0  0  0  0
   -7.5318    0.6553    1.0202 H   0  0  0  0  0  0  0  0  0  0  0  0
   -4.6171   -1.2851    1.3655 H   0  0  0  0  0  0  0  0  0  0  0  0
   -3.5412    1.2962    1.0429 H   0  0  0  0  0  0  0  0  0  0  0  0
   -5.3232    2.4463    0.1617 H   0  0  0  0  0  0  0  0  0  0  0  0
   -7.2277    2.3798    1.9350 H   0  0  0  0  0  0  0  0  0  0  0  0
   -5.5193    0.4837    2.9740 H   0  0  0  0  0  0  0  0  0  0  0  0
   -5.3484   -0.9512   -2.1364 H   0  0  0  0  0  0  0  0  0  0  0  0
    0.3287   -0.1411    2.2112 H   0  0  0  0  0  0  0  0  0  0  0  0
    2.1510    1.6591    1.2889 H   0  0  0  0  0  0  0  0  0  0  0  0
    4.6552    1.7016    0.8762 H   0  0  0  0  0  0  0  0  0  0  0  0
    4.1643   -1.2506    0.4842 H   0  0  0  0  0  0  0  0  0  0  0  0
    6.6493    1.6522    0.5342 H   0  0  0  0  0  0  0  0  0  0  0  0
    9.0227    1.4670    0.1068 H   0  0  0  0  0  0  0  0  0  0  0  0
    8.5954   -2.7199   -0.4942 H   0  0  0  0  0  0  0  0  0  0  0  0
    6.1990   -2.5535   -0.0660 H   0  0  0  0  0  0  0  0  0  0  0  0
    0.3167   -0.4280   -3.8651 H   0  0  0  0  0  0  0  0  0  0  0  0
   -0.5673   -2.0469   -3.8428 H   0  0  0  0  0  0  0  0  0  0  0  0
  1  2  1  0
  2  3  1  0
  3  4  1  0
  4  5  1  0
  5  6  1  0
  6  7  1  0
  7  8  1  0
  6  9  1  0
  5 10  1  0
 10 11  1  0
 11 12  2  0
 12 13  1  0
 13 14  2  0
 14 15  1  0
 15 16  2  0
 16 17  1  0
 17 18  1  0
 18 19  2  0
 19 20  1  0
 20 21  2  0
 21 22  1  0
 22 23  2  0
 23 24  1  0
 24 25  2  0
 25 26  1  0
 26 27  2  0
 25 28  1  0
 28 29  2  0
 28 30  1  0
 16 31  1  0
 31 32  2  0
 32 33  1  0
  7  3  1  0
 14 10  1  0
 27 22  1  0
 32 13  1  0
  1 34  1  0
  2 35  1  0
  2 36  1  0
  3 37  1  1
  5 38  1  1
  6 39  1  1
  7 40  1  6
  8 41  1  0
  9 42  1  0
 11 43  1  0
 17 44  1  0
 19 45  1  0
 20 46  1  0
 21 47  1  0
 23 48  1  0
 24 49  1  0
 26 50  1  0
 27 51  1  0
 33 52  1  0
 33 53  1  0
M  CHG  2  28   1  30  -1
M  END
>  <Ligand ID>  (1) 
LIG0005875

>  <Ligand>  (1) 
CHEMBL2113556

>  <SMILES>  (1) 
OC[C@H]1O[C@H]([C@@H]([C@@H]1O)O)n1cnc2c1nc(N/N=C/C=C/c1ccc(cc1)[N+](=O)[O-])nc2N

>  <CID>  (1) 
10434186.0

>  <ChEMBL ID>  (1) 
nan

>  <InChiKey>  (1) 
FDGIAKQQVTWQDR-BKVNXYFSSA-N

>  <InChi>  (1) 
InChI=1S/C19H20N8O6/c20-16-13-17(26(9-21-13)18-15(30)14(29)12(8-28)33-18)24-19(23-16)25-22-7-1-2-10-3-5-11(6-4-10)27(31)32/h1-7,9,12,14-15,18,28-30H,8H2,(H3,20,23,24,25)/b2-1+,22-7+/t12-,14-,15-,18-/m1/s1

>  <IUPAC Name>  (1) 
(2R,3R,4S,5R)-2-[6-amino-2-[(2E)-2-[(E)-3-(4-nitrophenyl)prop-2-enylidene]hydrazinyl]purin-9-yl]-5-(hydroxymethyl)oxolane-3,4-diol

$$$$
