
     RDKit          3D

 59 61  0  0  0  0  0  0  0  0999 V2000
    4.7544   -3.1467   -0.7054 O   0  0  0  0  0  0  0  0  0  0  0  0
    3.9653   -2.0729   -0.2098 C   0  0  2  0  0  0  0  0  0  0  0  0
    4.7104   -0.7855   -0.5916 C   0  0  0  0  0  0  0  0  0  0  0  0
    6.0109   -0.7967    0.0005 O   0  0  0  0  0  0  0  0  0  0  0  0
    6.8978    0.2412   -0.1901 C   0  0  0  0  0  0  0  0  0  0  0  0
    8.1507    0.1582    0.4207 C   0  0  0  0  0  0  0  0  0  0  0  0
    9.0918    1.1807    0.2607 C   0  0  0  0  0  0  0  0  0  0  0  0
    8.7569    2.2847   -0.5195 C   0  0  0  0  0  0  0  0  0  0  0  0
    7.5218    2.3918   -1.1361 C   0  0  0  0  0  0  0  0  0  0  0  0
    6.6395    1.3613   -0.9449 C   0  0  0  0  0  0  0  0  0  0  0  0
    9.7302    3.2821   -0.6517 O   0  0  0  0  0  0  0  0  0  0  0  0
    3.7466   -2.1908    1.2456 C   0  0  0  0  0  0  0  0  0  0  0  0
    3.0090   -1.2038    1.8605 N   0  0  0  0  0  0  0  0  0  0  0  0
    1.6568   -1.0210    1.7456 C   0  0  0  0  0  0  0  0  0  0  0  0
    0.9820   -0.5405    0.5128 C   0  0  0  0  0  0  0  0  0  0  0  0
   -0.5184   -0.4270    0.7474 C   0  0  0  0  0  0  0  0  0  0  0  0
   -1.3012   -1.5500    0.4615 C   0  0  0  0  0  0  0  0  0  0  0  0
   -2.6681   -1.4891    0.6775 C   0  0  0  0  0  0  0  0  0  0  0  0
   -3.2731   -0.3482    1.1671 C   0  0  0  0  0  0  0  0  0  0  0  0
   -2.4549    0.7296    1.4307 C   0  0  0  0  0  0  0  0  0  0  0  0
   -1.0933    0.7169    1.2328 C   0  0  0  0  0  0  0  0  0  0  0  0
   -4.6677   -0.2843    1.4064 N   0  0  0  0  0  0  0  0  0  0  0  0
   -5.6332    0.1382    0.4614 C   0  0  0  0  0  0  0  0  0  0  0  0
   -5.3668    0.5046   -0.7010 O   0  0  0  0  0  0  0  0  0  0  0  0
   -7.0509    0.1392    0.9016 C   0  0  0  0  0  0  0  0  0  0  0  0
   -8.0136    0.5720   -0.1011 C   0  0  0  0  0  0  0  0  0  0  0  0
   -8.5678   -0.3711   -0.9515 C   0  0  0  0  0  0  0  0  0  0  0  0
   -9.5009    0.0349   -1.9101 C   0  0  0  0  0  0  0  0  0  0  0  0
   -9.8526    1.3690   -1.9919 C   0  0  0  0  0  0  0  0  0  0  0  0
   -9.2945    2.3208   -1.1341 C   0  0  0  0  0  0  0  0  0  0  0  0
   -8.3658    1.9139   -0.1798 C   0  0  0  0  0  0  0  0  0  0  0  0
   -9.7534    4.0047   -1.2481 Cl  0  0  0  0  0  0  0  0  0  0  0  0
    5.2469   -3.5743    0.0349 H   0  0  0  0  0  0  0  0  0  0  0  0
    3.0597   -2.1184   -0.8105 H   0  0  0  0  0  0  0  0  0  0  0  0
    4.7890   -0.7951   -1.6958 H   0  0  0  0  0  0  0  0  0  0  0  0
    4.1607    0.1038   -0.2304 H   0  0  0  0  0  0  0  0  0  0  0  0
    8.3908   -0.7230    1.0280 H   0  0  0  0  0  0  0  0  0  0  0  0
   10.0458    1.0802    0.7480 H   0  0  0  0  0  0  0  0  0  0  0  0
    7.2679    3.2356   -1.7327 H   0  0  0  0  0  0  0  0  0  0  0  0
    5.6593    1.4580   -1.4399 H   0  0  0  0  0  0  0  0  0  0  0  0
   10.4206    3.1414   -1.3856 H   0  0  0  0  0  0  0  0  0  0  0  0
    3.2299   -3.2098    1.3836 H   0  0  0  0  0  0  0  0  0  0  0  0
    4.7630   -2.3461    1.7341 H   0  0  0  0  0  0  0  0  0  0  0  0
    3.5610   -0.3643    2.1710 H   0  0  0  0  0  0  0  0  0  0  0  0
    1.3158   -0.2734    2.5553 H   0  0  0  0  0  0  0  0  0  0  0  0
    1.1431   -1.9656    2.1318 H   0  0  0  0  0  0  0  0  0  0  0  0
    1.3164    0.4748    0.2337 H   0  0  0  0  0  0  0  0  0  0  0  0
    1.1477   -1.2337   -0.3237 H   0  0  0  0  0  0  0  0  0  0  0  0
   -0.8501   -2.4647    0.0727 H   0  0  0  0  0  0  0  0  0  0  0  0
   -3.3321   -2.3319    0.4717 H   0  0  0  0  0  0  0  0  0  0  0  0
   -2.9072    1.6122    1.8058 H   0  0  0  0  0  0  0  0  0  0  0  0
   -0.4951    1.5790    1.4522 H   0  0  0  0  0  0  0  0  0  0  0  0
   -4.9792   -0.5871    2.3768 H   0  0  0  0  0  0  0  0  0  0  0  0
   -7.1677    0.7593    1.8338 H   0  0  0  0  0  0  0  0  0  0  0  0
   -7.2932   -0.9086    1.2010 H   0  0  0  0  0  0  0  0  0  0  0  0
   -8.2892   -1.4195   -0.8852 H   0  0  0  0  0  0  0  0  0  0  0  0
   -9.9501   -0.6564   -2.5829 H   0  0  0  0  0  0  0  0  0  0  0  0
  -10.5707    1.7540   -2.7123 H   0  0  0  0  0  0  0  0  0  0  0  0
   -7.9309    2.6572    0.4897 H   0  0  0  0  0  0  0  0  0  0  0  0
  1  2  1  0
  2  3  1  0
  3  4  1  0
  4  5  1  0
  5  6  2  0
  6  7  1  0
  7  8  2  0
  8  9  1  0
  9 10  2  0
  8 11  1  0
  2 12  1  0
 12 13  1  0
 13 14  1  0
 14 15  1  0
 15 16  1  0
 16 17  2  0
 17 18  1  0
 18 19  2  0
 19 20  1  0
 20 21  2  0
 19 22  1  0
 22 23  1  0
 23 24  2  0
 23 25  1  0
 25 26  1  0
 26 27  2  0
 27 28  1  0
 28 29  2  0
 29 30  1  0
 30 31  2  0
 30 32  1  0
 10  5  1  0
 21 16  1  0
 31 26  1  0
  1 33  1  0
  2 34  1  6
  3 35  1  0
  3 36  1  0
  6 37  1  0
  7 38  1  0
  9 39  1  0
 10 40  1  0
 11 41  1  0
 12 42  1  0
 12 43  1  0
 13 44  1  0
 14 45  1  0
 14 46  1  0
 15 47  1  0
 15 48  1  0
 17 49  1  0
 18 50  1  0
 20 51  1  0
 21 52  1  0
 22 53  1  0
 25 54  1  0
 25 55  1  0
 27 56  1  0
 28 57  1  0
 29 58  1  0
 31 59  1  0
M  END
>  <Ligand ID>  (1) 
LIG0002498

>  <Ligand>  (1) 
CHEMBL561348

>  <SMILES>  (1) 
O[C@H](COc1ccc(cc1)O)CNCCc1ccc(cc1)NC(=O)Cc1cccc(c1)Cl

>  <CID>  (1) 
44127479.0

>  <ChEMBL ID>  (1) 
nan

>  <InChiKey>  (1) 
OGLACMRZFHCXHJ-QHCPKHFHSA-N

>  <InChi>  (1) 
InChI=1S/C25H27ClN2O4/c26-20-3-1-2-19(14-20)15-25(31)28-21-6-4-18(5-7-21)12-13-27-16-23(30)17-32-24-10-8-22(29)9-11-24/h1-11,14,23,27,29-30H,12-13,15-17H2,(H,28,31)/t23-/m0/s1

>  <IUPAC Name>  (1) 
2-(3-chlorophenyl)-N-[4-[2-[[(2S)-2-hydroxy-3-(4-hydroxyphenoxy)propyl]amino]ethyl]phenyl]acetamide

$$$$
