
     RDKit          3D

 36 37  0  0  0  0  0  0  0  0999 V2000
    6.3828   -2.8608   -1.9804 N   0  0  0  0  0  0  0  0  0  0  0  0
    5.8803   -1.9854   -1.4012 C   0  0  0  0  0  0  0  0  0  0  0  0
    5.2752   -0.8822   -0.6867 C   0  0  0  0  0  0  0  0  0  0  0  0
    6.0624    0.2413   -0.4941 C   0  0  0  0  0  0  0  0  0  0  0  0
    5.4744    1.3000    0.1943 C   0  0  0  0  0  0  0  0  0  0  0  0
    4.1781    1.1919    0.6410 C   0  0  0  0  0  0  0  0  0  0  0  0
    3.4085    0.0648    0.4401 C   0  0  0  0  0  0  0  0  0  0  0  0
    3.9835   -0.9868   -0.2402 C   0  0  0  0  0  0  0  0  0  0  0  0
    2.0119   -0.0006    0.9439 C   0  0  0  0  0  0  0  0  0  0  0  0
    1.1717    0.4945   -0.0835 O   0  0  0  0  0  0  0  0  0  0  0  0
   -0.1919    0.5891    0.0134 C   0  0  0  0  0  0  0  0  0  0  0  0
   -1.0124    1.0746   -0.9947 C   0  0  0  0  0  0  0  0  0  0  0  0
   -2.3833    1.1249   -0.7862 C   0  0  0  0  0  0  0  0  0  0  0  0
   -2.9834    0.7148    0.3786 C   0  0  0  0  0  0  0  0  0  0  0  0
   -2.1538    0.2269    1.3913 C   0  0  0  0  0  0  0  0  0  0  0  0
   -0.7864    0.1749    1.1884 C   0  0  0  0  0  0  0  0  0  0  0  0
   -4.4263    0.7306    0.6485 C   0  0  0  0  0  0  0  0  0  0  0  0
   -5.1685   -0.5211    0.3840 C   0  0  0  0  0  0  0  0  0  0  0  0
   -5.1647   -1.0452   -0.9749 C   0  0  0  0  0  0  0  0  0  0  0  0
   -4.6144   -0.5685   -1.9741 O   0  0  0  0  0  0  0  0  0  0  0  0
   -5.8775   -2.2498   -1.1866 O   0  0  0  0  0  0  0  0  0  0  0  0
    7.0848    0.3066   -0.8551 H   0  0  0  0  0  0  0  0  0  0  0  0
    6.0846    2.1752    0.3456 H   0  0  0  0  0  0  0  0  0  0  0  0
    3.7513    2.0203    1.1670 H   0  0  0  0  0  0  0  0  0  0  0  0
    3.3933   -1.8684   -0.4019 H   0  0  0  0  0  0  0  0  0  0  0  0
    1.9794    0.6398    1.8509 H   0  0  0  0  0  0  0  0  0  0  0  0
    1.7684   -1.0433    1.1895 H   0  0  0  0  0  0  0  0  0  0  0  0
   -0.5596    1.4006   -1.9160 H   0  0  0  0  0  0  0  0  0  0  0  0
   -2.9721    1.5187   -1.5912 H   0  0  0  0  0  0  0  0  0  0  0  0
   -2.5907   -0.1099    2.3356 H   0  0  0  0  0  0  0  0  0  0  0  0
   -0.1878   -0.2160    2.0154 H   0  0  0  0  0  0  0  0  0  0  0  0
   -4.6341    1.0010    1.7289 H   0  0  0  0  0  0  0  0  0  0  0  0
   -4.9154    1.5598    0.0841 H   0  0  0  0  0  0  0  0  0  0  0  0
   -4.7743   -1.3486    1.0511 H   0  0  0  0  0  0  0  0  0  0  0  0
   -6.2551   -0.3598    0.6581 H   0  0  0  0  0  0  0  0  0  0  0  0
   -6.2389   -2.5038   -2.0967 H   0  0  0  0  0  0  0  0  0  0  0  0
  1  2  3  0
  2  3  1  0
  3  4  2  0
  4  5  1  0
  5  6  2  0
  6  7  1  0
  7  8  2  0
  7  9  1  0
  9 10  1  0
 10 11  1  0
 11 12  2  0
 12 13  1  0
 13 14  2  0
 14 15  1  0
 15 16  2  0
 14 17  1  0
 17 18  1  0
 18 19  1  0
 19 20  2  0
 19 21  1  0
  8  3  1  0
 16 11  1  0
  4 22  1  0
  5 23  1  0
  6 24  1  0
  8 25  1  0
  9 26  1  0
  9 27  1  0
 12 28  1  0
 13 29  1  0
 15 30  1  0
 16 31  1  0
 17 32  1  0
 17 33  1  0
 18 34  1  0
 18 35  1  0
 21 36  1  0
M  END
>  <Ligand ID>  (1) 
LIG0005854

>  <Ligand>  (1) 
CHEMBL1773255

>  <SMILES>  (1) 
N#Cc1cccc(c1)COc1ccc(cc1)CCC(=O)O

>  <CID>  (1) 
54582149.0

>  <ChEMBL ID>  (1) 
nan

>  <InChiKey>  (1) 
YKKZNRIWXKPTPW-UHFFFAOYSA-N

>  <InChi>  (1) 
InChI=1S/C17H15NO3/c18-11-14-2-1-3-15(10-14)12-21-16-7-4-13(5-8-16)6-9-17(19)20/h1-5,7-8,10H,6,9,12H2,(H,19,20)

>  <IUPAC Name>  (1) 
3-[4-[(3-cyanophenyl)methoxy]phenyl]propanoic acid

$$$$
