
     RDKit          3D

145147  0  0  0  0  0  0  0  0999 V2000
  -10.3550    2.2693   -0.0073 C   0  0  0  0  0  0  0  0  0  0  0  0
   -9.4321    1.5778   -0.9915 C   0  0  0  0  0  0  0  0  0  0  0  0
   -8.3945    0.7963   -0.1894 C   0  0  1  0  0  0  0  0  0  0  0  0
   -7.4230    0.0783   -1.0869 C   0  0  2  0  0  0  0  0  0  0  0  0
   -6.4824   -0.6356   -0.2090 N   0  0  0  0  0  0  0  0  0  0  0  0
   -6.3806   -2.0349   -0.4219 C   0  0  0  0  0  0  0  0  0  0  0  0
   -7.1876   -2.5301   -1.2246 O   0  0  0  0  0  0  0  0  0  0  0  0
   -5.4116   -2.9452    0.2278 C   0  0  2  0  0  0  0  0  0  0  0  0
   -6.1620   -3.8976    1.1301 C   0  0  0  0  0  0  0  0  0  0  0  0
   -5.1703   -4.7898    1.7798 C   0  0  0  0  0  0  0  0  0  0  0  0
   -4.8051   -5.9475    1.1290 C   0  0  0  0  0  0  0  0  0  0  0  0
   -3.8977   -6.8035    1.6952 C   0  0  0  0  0  0  0  0  0  0  0  0
   -3.3649   -6.4832    2.9166 C   0  0  0  0  0  0  0  0  0  0  0  0
   -3.6954   -5.3404    3.6077 C   0  0  0  0  0  0  0  0  0  0  0  0
   -4.6106   -4.4979    3.0140 C   0  0  0  0  0  0  0  0  0  0  0  0
   -4.3944   -2.2916    1.0181 N   0  0  0  0  0  0  0  0  0  0  0  0
   -3.0865   -2.1351    0.4319 C   0  0  0  0  0  0  0  0  0  0  0  0
   -2.9985   -2.4819   -0.7507 O   0  0  0  0  0  0  0  0  0  0  0  0
   -1.9118   -1.5980    1.1468 C   0  0  1  0  0  0  0  0  0  0  0  0
   -2.0215   -1.7678    2.5664 N   0  0  0  0  0  0  0  0  0  0  0  0
   -0.6129   -2.1057    0.5444 C   0  0  0  0  0  0  0  0  0  0  0  0
    0.7605   -1.6078    1.5376 S   0  0  0  0  0  0  0  0  0  0  0  0
    1.0212    0.4293    1.6508 S   0  0  0  0  0  0  0  0  0  0  0  0
    2.0984    1.1471    0.4738 C   0  0  0  0  0  0  0  0  0  0  0  0
    1.6491    1.2125   -0.9813 C   0  0  2  0  0  0  0  0  0  0  0  0
    0.2895    1.7359   -1.0367 N   0  0  0  0  0  0  0  0  0  0  0  0
    0.1478    3.1073   -0.6877 C   0  0  0  0  0  0  0  0  0  0  0  0
    1.2021    3.6897   -0.3624 O   0  0  0  0  0  0  0  0  0  0  0  0
   -1.0906    3.8970   -0.6591 C   0  0  1  0  0  0  0  0  0  0  0  0
   -2.1627    3.3872   -1.4517 N   0  0  0  0  0  0  0  0  0  0  0  0
   -3.4079    2.8566   -1.1139 C   0  0  0  0  0  0  0  0  0  0  0  0
   -3.5855    2.5840    0.0926 O   0  0  0  0  0  0  0  0  0  0  0  0
   -4.5282    2.5646   -2.0254 C   0  0  1  0  0  0  0  0  0  0  0  0
   -5.4126    1.6544   -1.3187 N   0  0  0  0  0  0  0  0  0  0  0  0
   -6.6410    1.1505   -1.8270 C   0  0  0  0  0  0  0  0  0  0  0  0
   -7.0322    1.6429   -2.8896 O   0  0  0  0  0  0  0  0  0  0  0  0
   -5.2829    3.9168   -2.1862 C   0  0  0  0  0  0  0  0  0  0  0  0
   -4.3648    4.9170   -2.7845 C   0  0  0  0  0  0  0  0  0  0  0  0
   -5.1039    6.2476   -2.9716 C   0  0  0  0  0  0  0  0  0  0  0  0
   -6.2344    6.0783   -3.8937 C   0  0  0  0  0  0  0  0  0  0  0  0
   -6.5364    5.0642   -4.5303 O   0  0  0  0  0  0  0  0  0  0  0  0
   -7.0868    7.2259   -4.0749 N   0  0  0  0  0  0  0  0  0  0  0  0
   -1.4558    3.9850    0.8468 C   0  0  0  0  0  0  0  0  0  0  0  0
   -2.6153    4.8000    1.1510 C   0  0  0  0  0  0  0  0  0  0  0  0
   -3.2692    5.5408    0.4071 O   0  0  0  0  0  0  0  0  0  0  0  0
   -3.0814    4.7411    2.5306 N   0  0  0  0  0  0  0  0  0  0  0  0
    1.9959    0.0636   -1.7691 C   0  0  0  0  0  0  0  0  0  0  0  0
    1.2174   -0.7852   -2.2759 O   0  0  0  0  0  0  0  0  0  0  0  0
    3.4206   -0.1483   -2.0270 N   0  0  0  0  0  0  0  0  0  0  0  0
    4.5182    0.7012   -1.6159 C   0  0  0  0  0  0  0  0  0  0  0  0
    5.3570    0.7492   -2.8836 C   0  0  0  0  0  0  0  0  0  0  0  0
    5.0321   -0.4970   -3.6300 C   0  0  0  0  0  0  0  0  0  0  0  0
    4.0232   -1.2368   -2.7647 C   0  0  1  0  0  0  0  0  0  0  0  0
    4.6929   -2.1638   -1.8331 C   0  0  0  0  0  0  0  0  0  0  0  0
    4.0844   -3.2236   -1.4400 O   0  0  0  0  0  0  0  0  0  0  0  0
    5.9970   -1.9907   -1.3122 N   0  0  0  0  0  0  0  0  0  0  0  0
    6.6563   -2.8975   -0.4017 C   0  0  2  0  0  0  0  0  0  0  0  0
    6.2154   -2.6185    0.9980 C   0  0  0  0  0  0  0  0  0  0  0  0
    5.3177   -1.7407    1.2455 O   0  0  0  0  0  0  0  0  0  0  0  0
    6.7524   -3.2962    2.1134 N   0  0  0  0  0  0  0  0  0  0  0  0
    6.2505   -2.9588    3.4197 C   0  0  0  0  0  0  0  0  0  0  0  0
    6.9550   -3.7907    4.4316 C   0  0  0  0  0  0  0  0  0  0  0  0
    6.6812   -3.7038    5.6652 O   0  0  0  0  0  0  0  0  0  0  0  0
    7.9711   -4.7243    4.0861 N   0  0  0  0  0  0  0  0  0  0  0  0
    8.1140   -2.9900   -0.6010 C   0  0  0  0  0  0  0  0  0  0  0  0
    8.9103   -1.7417   -0.4520 C   0  0  0  0  0  0  0  0  0  0  0  0
    8.8476   -1.0792    0.8824 C   0  0  0  0  0  0  0  0  0  0  0  0
    9.6464    0.1160    0.9583 N   0  0  0  0  0  0  0  0  0  0  0  0
   11.0376   -0.2076    0.9043 C   0  0  0  0  0  0  0  0  0  0  0  0
   11.3568   -1.1413    2.0702 C   0  0  0  0  0  0  0  0  0  0  0  0
   11.8994    1.0501    1.0572 C   0  0  0  0  0  0  0  0  0  0  0  0
   -7.6437    1.8266    0.6209 C   0  0  0  0  0  0  0  0  0  0  0  0
   -9.9198    3.2879    0.2198 H   0  0  0  0  0  0  0  0  0  0  0  0
  -10.3806    1.7348    0.9686 H   0  0  0  0  0  0  0  0  0  0  0  0
  -11.3637    2.4719   -0.4255 H   0  0  0  0  0  0  0  0  0  0  0  0
   -9.9988    0.9271   -1.6661 H   0  0  0  0  0  0  0  0  0  0  0  0
   -8.8755    2.3420   -1.5691 H   0  0  0  0  0  0  0  0  0  0  0  0
   -8.9102    0.0728    0.4887 H   0  0  0  0  0  0  0  0  0  0  0  0
   -7.9419   -0.5716   -1.7871 H   0  0  0  0  0  0  0  0  0  0  0  0
   -5.9237   -0.2431    0.5221 H   0  0  0  0  0  0  0  0  0  0  0  0
   -4.9278   -3.5209   -0.6181 H   0  0  0  0  0  0  0  0  0  0  0  0
   -6.6483   -3.3051    1.9555 H   0  0  0  0  0  0  0  0  0  0  0  0
   -6.9537   -4.4678    0.6108 H   0  0  0  0  0  0  0  0  0  0  0  0
   -5.2512   -6.1506    0.1783 H   0  0  0  0  0  0  0  0  0  0  0  0
   -3.6420   -7.6972    1.1492 H   0  0  0  0  0  0  0  0  0  0  0  0
   -2.6410   -7.1569    3.3787 H   0  0  0  0  0  0  0  0  0  0  0  0
   -3.2815   -5.0768    4.5730 H   0  0  0  0  0  0  0  0  0  0  0  0
   -4.8765   -3.6076    3.5549 H   0  0  0  0  0  0  0  0  0  0  0  0
   -4.4815   -1.9109    1.9551 H   0  0  0  0  0  0  0  0  0  0  0  0
   -1.9573   -0.4565    1.0083 H   0  0  0  0  0  0  0  0  0  0  0  0
   -2.2520   -2.7397    2.8541 H   0  0  0  0  0  0  0  0  0  0  0  0
   -1.1852   -1.4723    3.1007 H   0  0  0  0  0  0  0  0  0  0  0  0
   -0.5430   -1.8646   -0.5202 H   0  0  0  0  0  0  0  0  0  0  0  0
   -0.7156   -3.2379    0.5624 H   0  0  0  0  0  0  0  0  0  0  0  0
    3.1162    0.6208    0.4328 H   0  0  0  0  0  0  0  0  0  0  0  0
    2.3909    2.1686    0.8164 H   0  0  0  0  0  0  0  0  0  0  0  0
    2.3187    2.0803   -1.3682 H   0  0  0  0  0  0  0  0  0  0  0  0
   -0.5507    1.2428   -1.2887 H   0  0  0  0  0  0  0  0  0  0  0  0
   -0.8881    4.9747   -0.9309 H   0  0  0  0  0  0  0  0  0  0  0  0
   -1.9842    3.3839   -2.5029 H   0  0  0  0  0  0  0  0  0  0  0  0
   -4.2474    2.2565   -3.0263 H   0  0  0  0  0  0  0  0  0  0  0  0
   -5.1655    1.3317   -0.3794 H   0  0  0  0  0  0  0  0  0  0  0  0
   -6.2508    3.7808   -2.6776 H   0  0  0  0  0  0  0  0  0  0  0  0
   -5.5324    4.2993   -1.1484 H   0  0  0  0  0  0  0  0  0  0  0  0
   -3.9854    4.5827   -3.7985 H   0  0  0  0  0  0  0  0  0  0  0  0
   -3.4508    5.1385   -2.2145 H   0  0  0  0  0  0  0  0  0  0  0  0
   -5.3882    6.6657   -2.0001 H   0  0  0  0  0  0  0  0  0  0  0  0
   -4.3815    6.9691   -3.4395 H   0  0  0  0  0  0  0  0  0  0  0  0
   -8.0867    7.2141   -3.7225 H   0  0  0  0  0  0  0  0  0  0  0  0
   -6.7697    8.0857   -4.5460 H   0  0  0  0  0  0  0  0  0  0  0  0
   -0.5641    4.3230    1.4148 H   0  0  0  0  0  0  0  0  0  0  0  0
   -1.6180    2.9410    1.1617 H   0  0  0  0  0  0  0  0  0  0  0  0
   -4.0857    4.4915    2.6532 H   0  0  0  0  0  0  0  0  0  0  0  0
   -2.4176    4.9418    3.3083 H   0  0  0  0  0  0  0  0  0  0  0  0
    5.0876    0.3059   -0.7935 H   0  0  0  0  0  0  0  0  0  0  0  0
    4.2090    1.7326   -1.3306 H   0  0  0  0  0  0  0  0  0  0  0  0
    6.3995    0.9313   -2.6362 H   0  0  0  0  0  0  0  0  0  0  0  0
    5.0344    1.6314   -3.5147 H   0  0  0  0  0  0  0  0  0  0  0  0
    4.4729   -0.2644   -4.5800 H   0  0  0  0  0  0  0  0  0  0  0  0
    5.8915   -1.0904   -3.9333 H   0  0  0  0  0  0  0  0  0  0  0  0
    3.2698   -1.7652   -3.4052 H   0  0  0  0  0  0  0  0  0  0  0  0
    6.5782   -1.1605   -1.6074 H   0  0  0  0  0  0  0  0  0  0  0  0
    6.1825   -3.9049   -0.6119 H   0  0  0  0  0  0  0  0  0  0  0  0
    7.4910   -4.0089    1.9334 H   0  0  0  0  0  0  0  0  0  0  0  0
    5.1589   -3.1282    3.5046 H   0  0  0  0  0  0  0  0  0  0  0  0
    6.4463   -1.8661    3.6149 H   0  0  0  0  0  0  0  0  0  0  0  0
    7.8409   -5.5016    3.3856 H   0  0  0  0  0  0  0  0  0  0  0  0
    8.8890   -4.5975    4.5850 H   0  0  0  0  0  0  0  0  0  0  0  0
    8.2789   -3.3444   -1.6597 H   0  0  0  0  0  0  0  0  0  0  0  0
    8.5595   -3.7948    0.0202 H   0  0  0  0  0  0  0  0  0  0  0  0
    9.9902   -2.0473   -0.5907 H   0  0  0  0  0  0  0  0  0  0  0  0
    8.7348   -0.9977   -1.2601 H   0  0  0  0  0  0  0  0  0  0  0  0
    9.2242   -1.7672    1.6975 H   0  0  0  0  0  0  0  0  0  0  0  0
    7.8057   -0.7386    1.1678 H   0  0  0  0  0  0  0  0  0  0  0  0
    9.3348    0.8015    0.2495 H   0  0  0  0  0  0  0  0  0  0  0  0
   11.3866   -0.6940   -0.0074 H   0  0  0  0  0  0  0  0  0  0  0  0
   12.3771   -0.8662    2.4394 H   0  0  0  0  0  0  0  0  0  0  0  0
   11.2960   -2.1849    1.7531 H   0  0  0  0  0  0  0  0  0  0  0  0
   10.6439   -0.9432    2.8755 H   0  0  0  0  0  0  0  0  0  0  0  0
   12.8246    1.0087    0.4806 H   0  0  0  0  0  0  0  0  0  0  0  0
   12.1441    1.1512    2.1345 H   0  0  0  0  0  0  0  0  0  0  0  0
   11.3025    1.9185    0.7220 H   0  0  0  0  0  0  0  0  0  0  0  0
   -6.8599    1.3910    1.2810 H   0  0  0  0  0  0  0  0  0  0  0  0
   -7.2057    2.5637   -0.0901 H   0  0  0  0  0  0  0  0  0  0  0  0
   -8.3626    2.4058    1.2700 H   0  0  0  0  0  0  0  0  0  0  0  0
  1  2  1  0
  2  3  1  0
  3  4  1  0
  4  5  1  0
  5  6  1  0
  6  7  2  0
  6  8  1  0
  8  9  1  0
  9 10  1  0
 10 11  2  0
 11 12  1  0
 12 13  2  0
 13 14  1  0
 14 15  2  0
  8 16  1  0
 16 17  1  0
 17 18  2  0
 17 19  1  0
 19 20  1  0
 19 21  1  0
 21 22  1  0
 22 23  1  0
 23 24  1  0
 24 25  1  0
 25 26  1  0
 26 27  1  0
 27 28  2  0
 27 29  1  0
 29 30  1  0
 30 31  1  0
 31 32  2  0
 31 33  1  0
 33 34  1  0
 34 35  1  0
 35 36  2  0
 33 37  1  0
 37 38  1  0
 38 39  1  0
 39 40  1  0
 40 41  2  0
 40 42  1  0
 29 43  1  0
 43 44  1  0
 44 45  2  0
 44 46  1  0
 25 47  1  0
 47 48  2  0
 47 49  1  0
 49 50  1  0
 50 51  1  0
 51 52  1  0
 52 53  1  0
 53 54  1  0
 54 55  2  0
 54 56  1  0
 56 57  1  0
 57 58  1  0
 58 59  2  0
 58 60  1  0
 60 61  1  0
 61 62  1  0
 62 63  2  0
 62 64  1  0
 57 65  1  0
 65 66  1  0
 66 67  1  0
 67 68  1  0
 68 69  1  0
 69 70  1  0
 69 71  1  0
  3 72  1  0
 35  4  1  0
 53 49  1  0
 15 10  1  0
  1 73  1  0
  1 74  1  0
  1 75  1  0
  2 76  1  0
  2 77  1  0
  3 78  1  1
  4 79  1  6
  5 80  1  0
  8 81  1  6
  9 82  1  0
  9 83  1  0
 11 84  1  0
 12 85  1  0
 13 86  1  0
 14 87  1  0
 15 88  1  0
 16 89  1  0
 19 90  1  1
 20 91  1  0
 20 92  1  0
 21 93  1  0
 21 94  1  0
 24 95  1  0
 24 96  1  0
 25 97  1  6
 26 98  1  0
 29 99  1  6
 30100  1  0
 33101  1  6
 34102  1  0
 37103  1  0
 37104  1  0
 38105  1  0
 38106  1  0
 39107  1  0
 39108  1  0
 42109  1  0
 42110  1  0
 43111  1  0
 43112  1  0
 46113  1  0
 46114  1  0
 50115  1  0
 50116  1  0
 51117  1  0
 51118  1  0
 52119  1  0
 52120  1  0
 53121  1  6
 56122  1  0
 57123  1  6
 60124  1  0
 61125  1  0
 61126  1  0
 64127  1  0
 64128  1  0
 65129  1  0
 65130  1  0
 66131  1  0
 66132  1  0
 67133  1  0
 67134  1  0
 68135  1  0
 69136  1  0
 70137  1  0
 70138  1  0
 70139  1  0
 71140  1  0
 71141  1  0
 71142  1  0
 72143  1  0
 72144  1  0
 72145  1  0
M  END
>  <Ligand ID>  (1) 
LIG0000922

>  <Ligand>  (1) 
selepressin

>  <SMILES>  (1) 
CC[C@@H]([C@@H]1NC(=O)[C@H](Cc2ccccc2)NC(=O)[C@@H](N)CSSC[C@H](NC(=O)[C@@H](NC(=O)[C@@H](NC1=O)CCCC(=O)N)CC(=O)N)C(=O)N1CCC[C@H]1C(=O)N[C@H](C(=O)NCC(=O)N)CCCNC(C)C)C

>  <CID>  (1) 
53330936.0

>  <ChEMBL ID>  (1) 
nan

>  <InChiKey>  (1) 
JCVQBJTWWDYUFQ-MRUTUVJXSA-N

>  <InChi>  (1) 
InChI=1S/C46H73N13O11S2/c1-5-26(4)38-45(69)54-30(14-9-17-35(48)60)41(65)56-32(21-36(49)61)42(66)57-33(24-72-71-23-28(47)39(63)55-31(43(67)58-38)20-27-12-7-6-8-13-27)46(70)59-19-11-16-34(59)44(68)53-29(15-10-18-51-25(2)3)40(64)52-22-37(50)62/h6-8,12-13,25-26,28-34,38,51H,5,9-11,14-24,47H2,1-4H3,(H2,48,60)(H2,49,61)(H2,50,62)(H,52,64)(H,53,68)(H,54,69)(H,55,63)(H,56,65)(H,57,66)(H,58,67)/t26-,28-,29-,30-,31-,32-,33-,34-,38-/m0/s1

>  <IUPAC Name>  (1) 
(2S)-1-[(4R,7S,10S,13S,16S,19R)-19-amino-10-(4-amino-4-oxobutyl)-7-(2-amino-2-oxoethyl)-16-benzyl-13-[(2S)-butan-2-yl]-6,9,12,15,18-pentaoxo-1,2-dithia-5,8,11,14,17-pentazacycloicosane-4-carbonyl]-N-[(2S)-1-[(2-amino-2-oxoethyl)amino]-1-oxo-5-(propan-2-ylamino)pentan-2-yl]pyrrolidine-2-carboxamide

$$$$
