
     RDKit          3D

 76 78  0  0  0  0  0  0  0  0999 V2000
    0.6126    6.6219   -0.3915 N   0  0  0  0  0  0  0  0  0  0  0  0
    1.4865    5.5561   -0.6983 C   0  0  0  0  0  0  0  0  0  0  0  0
    1.7572    4.6754    0.1794 N   0  0  0  0  0  0  0  0  0  0  0  0
    1.2293    4.6667    1.5164 C   0  0  0  0  0  0  0  0  0  0  0  0
    1.1130    3.2430    2.0361 C   0  0  0  0  0  0  0  0  0  0  0  0
    0.2023    2.4403    1.1584 C   0  0  0  0  0  0  0  0  0  0  0  0
    0.0816    0.9865    1.6321 C   0  0  1  0  0  0  0  0  0  0  0  0
   -0.9106    0.3545    0.7431 C   0  0  0  0  0  0  0  0  0  0  0  0
   -0.6414   -0.6437    0.0176 O   0  0  0  0  0  0  0  0  0  0  0  0
   -2.2318    0.8810    0.6909 N   0  0  0  0  0  0  0  0  0  0  0  0
   -3.2388    0.2658   -0.1869 C   0  0  2  0  0  0  0  0  0  0  0  0
   -3.6798    1.2570   -1.2214 C   0  0  0  0  0  0  0  0  0  0  0  0
   -3.2152    2.4230   -1.2698 O   0  0  0  0  0  0  0  0  0  0  0  0
   -4.6544    0.8146   -2.1518 N   0  0  0  0  0  0  0  0  0  0  0  0
   -4.3827   -0.1024    0.7329 C   0  0  0  0  0  0  0  0  0  0  0  0
   -5.5158   -0.7434    0.0463 C   0  0  0  0  0  0  0  0  0  0  0  0
   -6.7422   -0.1977   -0.2978 C   0  0  0  0  0  0  0  0  0  0  0  0
   -7.4566   -1.1502   -0.9082 N   0  0  0  0  0  0  0  0  0  0  0  0
   -6.7549   -2.3048   -0.9831 C   0  0  0  0  0  0  0  0  0  0  0  0
   -5.5234   -2.0558   -0.3804 C   0  0  0  0  0  0  0  0  0  0  0  0
   -4.6124   -3.1086   -0.3329 C   0  0  0  0  0  0  0  0  0  0  0  0
   -4.8820   -4.3472   -0.8461 C   0  0  0  0  0  0  0  0  0  0  0  0
   -6.1148   -4.5654   -1.4394 C   0  0  0  0  0  0  0  0  0  0  0  0
   -7.0577   -3.5538   -1.5137 C   0  0  0  0  0  0  0  0  0  0  0  0
    1.3231    0.2528    1.4793 N   0  0  0  0  0  0  0  0  0  0  0  0
    2.4761    0.6205    0.7897 C   0  0  0  0  0  0  0  0  0  0  0  0
    2.6526    1.6899    0.1350 O   0  0  0  0  0  0  0  0  0  0  0  0
    3.6543   -0.3042    0.7910 C   0  0  2  0  0  0  0  0  0  0  0  0
    4.0671   -0.5687   -0.6322 C   0  0  0  0  0  0  0  0  0  0  0  0
    5.2232   -1.4492   -0.7926 C   0  0  0  0  0  0  0  0  0  0  0  0
    6.4873   -0.8630   -0.7339 C   0  0  0  0  0  0  0  0  0  0  0  0
    7.6473   -1.5788   -0.8837 C   0  0  0  0  0  0  0  0  0  0  0  0
    7.6007   -2.9432   -1.1038 C   0  0  0  0  0  0  0  0  0  0  0  0
    6.3537   -3.5646   -1.1689 C   0  0  0  0  0  0  0  0  0  0  0  0
    5.1939   -2.8020   -1.0118 C   0  0  0  0  0  0  0  0  0  0  0  0
    3.4249   -1.5285    1.4849 N   0  0  0  0  0  0  0  0  0  0  0  0
    2.5577   -2.5710    1.0483 C   0  0  0  0  0  0  0  0  0  0  0  0
    1.8993   -2.4979   -0.0150 O   0  0  0  0  0  0  0  0  0  0  0  0
    2.3812   -3.8303    1.8452 C   0  0  0  0  0  0  0  0  0  0  0  0
    2.1093    5.4010   -1.9846 N   0  0  0  0  0  0  0  0  0  0  0  0
   -0.1629    6.8985   -1.0522 H   0  0  0  0  0  0  0  0  0  0  0  0
    0.7535    7.1254    0.5000 H   0  0  0  0  0  0  0  0  0  0  0  0
    0.2014    5.1152    1.5569 H   0  0  0  0  0  0  0  0  0  0  0  0
    1.9340    5.1820    2.2263 H   0  0  0  0  0  0  0  0  0  0  0  0
    0.4944    3.3875    3.0074 H   0  0  0  0  0  0  0  0  0  0  0  0
    2.0363    2.7812    2.3482 H   0  0  0  0  0  0  0  0  0  0  0  0
    0.4462    2.4715    0.0827 H   0  0  0  0  0  0  0  0  0  0  0  0
   -0.8220    2.8572    1.2511 H   0  0  0  0  0  0  0  0  0  0  0  0
   -0.1392    1.0884    2.6906 H   0  0  0  0  0  0  0  0  0  0  0  0
   -2.5551    1.6923    1.2405 H   0  0  0  0  0  0  0  0  0  0  0  0
   -2.8408   -0.6077   -0.7367 H   0  0  0  0  0  0  0  0  0  0  0  0
   -4.7653   -0.1781   -2.4567 H   0  0  0  0  0  0  0  0  0  0  0  0
   -5.3110    1.5204   -2.5669 H   0  0  0  0  0  0  0  0  0  0  0  0
   -4.6774    0.8587    1.2292 H   0  0  0  0  0  0  0  0  0  0  0  0
   -3.9481   -0.7185    1.5545 H   0  0  0  0  0  0  0  0  0  0  0  0
   -6.9996    0.8283   -0.0755 H   0  0  0  0  0  0  0  0  0  0  0  0
   -8.4394   -0.9743   -1.2687 H   0  0  0  0  0  0  0  0  0  0  0  0
   -3.6446   -2.9308    0.1358 H   0  0  0  0  0  0  0  0  0  0  0  0
   -4.1769   -5.1802   -0.8151 H   0  0  0  0  0  0  0  0  0  0  0  0
   -6.3933   -5.5204   -1.8649 H   0  0  0  0  0  0  0  0  0  0  0  0
   -8.0337   -3.7040   -1.9762 H   0  0  0  0  0  0  0  0  0  0  0  0
    1.3308   -0.6920    1.9752 H   0  0  0  0  0  0  0  0  0  0  0  0
    4.5394    0.1797    1.3201 H   0  0  0  0  0  0  0  0  0  0  0  0
    4.2301    0.4356   -1.1118 H   0  0  0  0  0  0  0  0  0  0  0  0
    3.2054   -1.0054   -1.1749 H   0  0  0  0  0  0  0  0  0  0  0  0
    6.5763    0.2006   -0.5635 H   0  0  0  0  0  0  0  0  0  0  0  0
    8.6049   -1.0623   -0.8271 H   0  0  0  0  0  0  0  0  0  0  0  0
    8.4840   -3.5420   -1.2266 H   0  0  0  0  0  0  0  0  0  0  0  0
    6.3132   -4.6309   -1.3408 H   0  0  0  0  0  0  0  0  0  0  0  0
    4.2712   -3.3316   -1.0817 H   0  0  0  0  0  0  0  0  0  0  0  0
    3.9132   -1.7353    2.4108 H   0  0  0  0  0  0  0  0  0  0  0  0
    3.1108   -4.5747    1.5107 H   0  0  0  0  0  0  0  0  0  0  0  0
    2.5561   -3.6284    2.9143 H   0  0  0  0  0  0  0  0  0  0  0  0
    1.3208   -4.1753    1.7394 H   0  0  0  0  0  0  0  0  0  0  0  0
    1.6094    5.7137   -2.8602 H   0  0  0  0  0  0  0  0  0  0  0  0
    3.0581    4.9797   -2.0737 H   0  0  0  0  0  0  0  0  0  0  0  0
  1  2  1  0
  2  3  2  3
  3  4  1  0
  4  5  1  0
  5  6  1  0
  6  7  1  0
  7  8  1  0
  8  9  2  0
  8 10  1  0
 10 11  1  0
 11 12  1  0
 12 13  2  0
 12 14  1  0
 11 15  1  0
 15 16  1  0
 16 17  2  0
 17 18  1  0
 18 19  1  0
 19 20  2  0
 20 21  1  0
 21 22  2  0
 22 23  1  0
 23 24  2  0
  7 25  1  0
 25 26  1  0
 26 27  2  0
 26 28  1  0
 28 29  1  0
 29 30  1  0
 30 31  2  0
 31 32  1  0
 32 33  2  0
 33 34  1  0
 34 35  2  0
 28 36  1  0
 36 37  1  0
 37 38  2  0
 37 39  1  0
  2 40  1  0
 20 16  1  0
 35 30  1  0
 24 19  1  0
  1 41  1  0
  1 42  1  0
  4 43  1  0
  4 44  1  0
  5 45  1  0
  5 46  1  0
  6 47  1  0
  6 48  1  0
  7 49  1  1
 10 50  1  0
 11 51  1  6
 14 52  1  0
 14 53  1  0
 15 54  1  0
 15 55  1  0
 17 56  1  0
 18 57  1  0
 21 58  1  0
 22 59  1  0
 23 60  1  0
 24 61  1  0
 25 62  1  0
 28 63  1  1
 29 64  1  0
 29 65  1  0
 31 66  1  0
 32 67  1  0
 33 68  1  0
 34 69  1  0
 35 70  1  0
 36 71  1  0
 39 72  1  0
 39 73  1  0
 39 74  1  0
 40 75  1  0
 40 76  1  0
M  END
>  <Ligand ID>  (1) 
LIG0001395

>  <Ligand>  (1) 
CHEMBL441988

>  <SMILES>  (1) 
NC(=NCCC[C@@H](C(=O)N[C@H](C(=O)N)Cc1c[nH]c2c1cccc2)NC(=O)[C@H](Cc1ccccc1)NC(=O)C)N

>  <CID>  (1) 
9828958.0

>  <ChEMBL ID>  (1) 
nan

>  <InChiKey>  (1) 
LUCUFURZWPZEOH-HJOGWXRNSA-N

>  <InChi>  (1) 
InChI=1S/C28H36N8O4/c1-17(37)34-24(14-18-8-3-2-4-9-18)27(40)35-22(12-7-13-32-28(30)31)26(39)36-23(25(29)38)15-19-16-33-21-11-6-5-10-20(19)21/h2-6,8-11,16,22-24,33H,7,12-15H2,1H3,(H2,29,38)(H,34,37)(H,35,40)(H,36,39)(H4,30,31,32)/t22-,23-,24-/m0/s1

>  <IUPAC Name>  (1) 
(2S)-2-[[(2S)-2-acetamido-3-phenylpropanoyl]amino]-N-[(2S)-1-amino-3-(1H-indol-3-yl)-1-oxopropan-2-yl]-5-(diaminomethylideneamino)pentanamide

$$$$
