
     RDKit          3D

 62 66  0  0  0  0  0  0  0  0999 V2000
    7.1720    3.7708   -0.7604 F   0  0  0  0  0  0  0  0  0  0  0  0
    7.1424    2.4531   -0.4651 C   0  0  0  0  0  0  0  0  0  0  0  0
    8.3326    1.7793   -0.4050 C   0  0  0  0  0  0  0  0  0  0  0  0
    8.3221    0.4379   -0.1058 C   0  0  0  0  0  0  0  0  0  0  0  0
    7.1223   -0.1899    0.1246 C   0  0  0  0  0  0  0  0  0  0  0  0
    5.8998    0.4640    0.0714 C   0  0  0  0  0  0  0  0  0  0  0  0
    5.9255    1.8035   -0.2287 C   0  0  0  0  0  0  0  0  0  0  0  0
    4.9073   -0.4051    0.3397 N   0  0  0  0  0  0  0  0  0  0  0  0
    3.4859   -0.1484    0.3906 C   0  0  0  0  0  0  0  0  0  0  0  0
    2.8863   -0.1545   -0.9954 C   0  0  0  0  0  0  0  0  0  0  0  0
    1.3939   -0.2298   -0.9891 C   0  0  0  0  0  0  0  0  0  0  0  0
    0.7574   -0.1486    0.2730 N   0  0  0  0  0  0  0  0  0  0  0  0
    1.3503   -0.9172    1.3347 C   0  0  0  0  0  0  0  0  0  0  0  0
    2.7791   -1.2770    1.1209 C   0  0  0  0  0  0  0  0  0  0  0  0
   -0.5969   -0.5898    0.1543 C   0  0  0  0  0  0  0  0  0  0  0  0
   -1.3890    0.2331   -0.8028 C   0  0  0  0  0  0  0  0  0  0  0  0
   -2.8424   -0.0173   -0.8317 C   0  0  0  0  0  0  0  0  0  0  0  0
   -3.4574   -0.6329    0.2802 N   0  0  0  0  0  0  0  0  0  0  0  0
   -2.6132   -1.4230    1.1209 C   0  0  0  0  0  0  0  0  0  0  0  0
   -1.3544   -0.6113    1.4569 C   0  0  0  0  0  0  0  0  0  0  0  0
   -4.3366    0.1820    1.0669 C   0  0  0  0  0  0  0  0  0  0  0  0
   -5.4817    0.7243    0.3347 C   0  0  0  0  0  0  0  0  0  0  0  0
   -5.4529    2.0534   -0.0354 C   0  0  0  0  0  0  0  0  0  0  0  0
   -6.4848    2.6515   -0.7268 C   0  0  0  0  0  0  0  0  0  0  0  0
   -7.5873    1.8905   -1.0604 C   0  0  0  0  0  0  0  0  0  0  0  0
   -7.6265    0.5617   -0.6954 C   0  0  0  0  0  0  0  0  0  0  0  0
   -6.5784   -0.0444    0.0064 C   0  0  0  0  0  0  0  0  0  0  0  0
   -6.6487   -1.4796    0.3875 C   0  0  0  0  0  0  0  0  0  0  0  0
   -7.8431   -2.0418   -0.0500 F   0  0  0  0  0  0  0  0  0  0  0  0
   -6.5813   -1.6983    1.7348 F   0  0  0  0  0  0  0  0  0  0  0  0
   -5.6389   -2.1947   -0.2101 F   0  0  0  0  0  0  0  0  0  0  0  0
    5.5069   -1.5969    0.5597 C   0  0  0  0  0  0  0  0  0  0  0  0
    4.9937   -2.7041    0.8448 O   0  0  0  0  0  0  0  0  0  0  0  0
    6.8559   -1.4572    0.4269 N   0  0  0  0  0  0  0  0  0  0  0  0
    9.2911    2.2814   -0.5893 H   0  0  0  0  0  0  0  0  0  0  0  0
    9.2497   -0.1149   -0.0525 H   0  0  0  0  0  0  0  0  0  0  0  0
    4.9919    2.3252   -0.2747 H   0  0  0  0  0  0  0  0  0  0  0  0
    3.2334    0.8128    0.8880 H   0  0  0  0  0  0  0  0  0  0  0  0
    3.2625   -1.0854   -1.4757 H   0  0  0  0  0  0  0  0  0  0  0  0
    3.3104    0.6813   -1.5528 H   0  0  0  0  0  0  0  0  0  0  0  0
    1.0238    0.6084   -1.6154 H   0  0  0  0  0  0  0  0  0  0  0  0
    1.0101   -1.1645   -1.4894 H   0  0  0  0  0  0  0  0  0  0  0  0
    0.8127   -1.9001    1.4813 H   0  0  0  0  0  0  0  0  0  0  0  0
    1.2376   -0.3795    2.2936 H   0  0  0  0  0  0  0  0  0  0  0  0
    3.2989   -1.4867    2.0568 H   0  0  0  0  0  0  0  0  0  0  0  0
    2.7707   -2.1445    0.3998 H   0  0  0  0  0  0  0  0  0  0  0  0
   -0.5398   -1.6680   -0.1774 H   0  0  0  0  0  0  0  0  0  0  0  0
   -0.9824    0.0154   -1.8333 H   0  0  0  0  0  0  0  0  0  0  0  0
   -1.1331    1.3053   -0.6144 H   0  0  0  0  0  0  0  0  0  0  0  0
   -3.3540    0.9783   -0.9923 H   0  0  0  0  0  0  0  0  0  0  0  0
   -3.1517   -0.6080   -1.7420 H   0  0  0  0  0  0  0  0  0  0  0  0
   -2.3232   -2.3972    0.7133 H   0  0  0  0  0  0  0  0  0  0  0  0
   -3.1379   -1.5917    2.0838 H   0  0  0  0  0  0  0  0  0  0  0  0
   -0.8112   -0.9977    2.3142 H   0  0  0  0  0  0  0  0  0  0  0  0
   -1.7299    0.4429    1.6084 H   0  0  0  0  0  0  0  0  0  0  0  0
   -4.6496   -0.4727    1.9330 H   0  0  0  0  0  0  0  0  0  0  0  0
   -3.7217    0.9773    1.5413 H   0  0  0  0  0  0  0  0  0  0  0  0
   -4.5811    2.6570    0.2275 H   0  0  0  0  0  0  0  0  0  0  0  0
   -6.3929    3.6951   -0.9834 H   0  0  0  0  0  0  0  0  0  0  0  0
   -8.3770    2.3909   -1.6026 H   0  0  0  0  0  0  0  0  0  0  0  0
   -8.5057    0.0076   -0.9771 H   0  0  0  0  0  0  0  0  0  0  0  0
    7.5782   -2.2109    0.5401 H   0  0  0  0  0  0  0  0  0  0  0  0
  1  2  1  0
  2  3  2  0
  3  4  1  0
  4  5  2  0
  5  6  1  0
  6  7  2  0
  6  8  1  0
  8  9  1  0
  9 10  1  0
 10 11  1  0
 11 12  1  0
 12 13  1  0
 13 14  1  0
 12 15  1  0
 15 16  1  0
 16 17  1  0
 17 18  1  0
 18 19  1  0
 19 20  1  0
 18 21  1  0
 21 22  1  0
 22 23  2  0
 23 24  1  0
 24 25  2  0
 25 26  1  0
 26 27  2  0
 27 28  1  0
 28 29  1  0
 28 30  1  0
 28 31  1  0
  8 32  1  0
 32 33  2  0
 32 34  1  0
  7  2  1  0
 14  9  1  0
 20 15  1  0
 27 22  1  0
 34  5  1  0
  3 35  1  0
  4 36  1  0
  7 37  1  0
  9 38  1  0
 10 39  1  0
 10 40  1  0
 11 41  1  0
 11 42  1  0
 13 43  1  0
 13 44  1  0
 14 45  1  0
 14 46  1  0
 15 47  1  0
 16 48  1  0
 16 49  1  0
 17 50  1  0
 17 51  1  0
 19 52  1  0
 19 53  1  0
 20 54  1  0
 20 55  1  0
 21 56  1  0
 21 57  1  0
 23 58  1  0
 24 59  1  0
 25 60  1  0
 26 61  1  0
 34 62  1  0
M  END
>  <Ligand ID>  (1) 
LIG0000870

>  <Ligand>  (1) 
CHEMBL491818

>  <SMILES>  (1) 
Fc1ccc2c(c1)n(C1CCN(CC1)C1CCN(CC1)Cc1ccccc1C(F)(F)F)c(=O)[nH]2

>  <CID>  (1) 
44579458.0

>  <ChEMBL ID>  (1) 
nan

>  <InChiKey>  (1) 
VGVQNTNYOVKGPI-UHFFFAOYSA-N

>  <InChi>  (1) 
InChI=1S/C25H28F4N4O/c26-18-5-6-22-23(15-18)33(24(34)30-22)20-9-13-32(14-10-20)19-7-11-31(12-8-19)16-17-3-1-2-4-21(17)25(27,28)29/h1-6,15,19-20H,7-14,16H2,(H,30,34)

>  <IUPAC Name>  (1) 
5-fluoro-3-[1-[1-[[2-(trifluoromethyl)phenyl]methyl]piperidin-4-yl]piperidin-4-yl]-1H-benzimidazol-2-one

$$$$
