
     RDKit          3D

 29 30  0  0  0  0  0  0  0  0999 V2000
    2.3540    0.9633    0.8415 C   0  0  0  0  0  0  0  0  0  0  0  0
    2.5384   -0.4049    0.2213 C   0  0  1  0  0  0  0  0  0  0  0  0
    1.3934   -0.7144   -0.7122 C   0  0  0  0  0  0  0  0  0  0  0  0
    0.1068   -0.7151   -0.0576 N   0  0  0  0  0  0  0  0  0  0  0  0
   -0.3044   -1.6874    0.9116 C   0  0  0  0  0  0  0  0  0  0  0  0
   -1.8049   -1.7319    0.7299 C   0  0  0  0  0  0  0  0  0  0  0  0
   -2.0861   -0.3727    0.2065 C   0  0  0  0  0  0  0  0  0  0  0  0
   -0.9400    0.2261   -0.2632 C   0  0  0  0  0  0  0  0  0  0  0  0
   -1.0018    1.4975   -0.7938 C   0  0  0  0  0  0  0  0  0  0  0  0
   -2.2104    2.1689   -0.8533 C   0  0  0  0  0  0  0  0  0  0  0  0
   -2.2818    3.7851   -1.5305 Cl  0  0  0  0  0  0  0  0  0  0  0  0
   -3.3501    1.5586   -0.3793 C   0  0  0  0  0  0  0  0  0  0  0  0
   -3.3110    0.2845    0.1565 C   0  0  0  0  0  0  0  0  0  0  0  0
    3.7278   -0.3545   -0.6104 N   0  0  0  0  0  0  0  0  0  0  0  0
    2.7779    1.7049    0.1268 H   0  0  0  0  0  0  0  0  0  0  0  0
    1.3022    1.1972    1.0855 H   0  0  0  0  0  0  0  0  0  0  0  0
    3.0180    1.0434    1.7433 H   0  0  0  0  0  0  0  0  0  0  0  0
    2.6749   -1.1829    0.9928 H   0  0  0  0  0  0  0  0  0  0  0  0
    1.5173   -1.6769   -1.2248 H   0  0  0  0  0  0  0  0  0  0  0  0
    1.3873    0.0576   -1.5147 H   0  0  0  0  0  0  0  0  0  0  0  0
    0.1673   -2.6778    0.7714 H   0  0  0  0  0  0  0  0  0  0  0  0
   -0.1261   -1.2919    1.9499 H   0  0  0  0  0  0  0  0  0  0  0  0
   -2.0919   -2.4660   -0.0639 H   0  0  0  0  0  0  0  0  0  0  0  0
   -2.3357   -1.9363    1.6836 H   0  0  0  0  0  0  0  0  0  0  0  0
   -0.0695    1.9351   -1.1573 H   0  0  0  0  0  0  0  0  0  0  0  0
   -4.3224    2.0546   -0.4085 H   0  0  0  0  0  0  0  0  0  0  0  0
   -4.2150   -0.1801    0.5237 H   0  0  0  0  0  0  0  0  0  0  0  0
    3.4699    0.2207   -1.4488 H   0  0  0  0  0  0  0  0  0  0  0  0
    4.0161   -1.3044   -0.9261 H   0  0  0  0  0  0  0  0  0  0  0  0
  1  2  1  0
  2  3  1  0
  3  4  1  0
  4  5  1  0
  5  6  1  0
  6  7  1  0
  7  8  2  0
  8  9  1  0
  9 10  2  0
 10 11  1  0
 10 12  1  0
 12 13  2  0
  2 14  1  0
  8  4  1  0
 13  7  1  0
  1 15  1  0
  1 16  1  0
  1 17  1  0
  2 18  1  1
  3 19  1  0
  3 20  1  0
  5 21  1  0
  5 22  1  0
  6 23  1  0
  6 24  1  0
  9 25  1  0
 12 26  1  0
 13 27  1  0
 14 28  1  0
 14 29  1  0
M  END
>  <Ligand ID>  (1) 
LIG0002157

>  <Ligand>  (1) 
CHEMBL76307

>  <SMILES>  (1) 
C[C@@H](CN1CCc2c1cc(Cl)cc2)N

>  <CID>  (1) 
18735313.0

>  <ChEMBL ID>  (1) 
nan

>  <InChiKey>  (1) 
XEAADXLKWPGODO-QMMMGPOBSA-N

>  <InChi>  (1) 
InChI=1S/C11H15ClN2/c1-8(13)7-14-5-4-9-2-3-10(12)6-11(9)14/h2-3,6,8H,4-5,7,13H2,1H3/t8-/m0/s1

>  <IUPAC Name>  (1) 
(2S)-1-(6-chloro-2,3-dihydroindol-1-yl)propan-2-amine

$$$$
