
     RDKit          3D

 57 62  0  0  0  0  0  0  0  0999 V2000
    6.3846    1.6596   -4.0115 F   0  0  0  0  0  0  0  0  0  0  0  0
    5.5459    1.1803   -3.0618 C   0  0  0  0  0  0  0  0  0  0  0  0
    5.5176   -0.1642   -2.7519 C   0  0  0  0  0  0  0  0  0  0  0  0
    4.6827   -0.7030   -1.7937 C   0  0  0  0  0  0  0  0  0  0  0  0
    3.8430    0.1630   -1.1243 C   0  0  0  0  0  0  0  0  0  0  0  0
    3.8401    1.5320   -1.4076 C   0  0  0  0  0  0  0  0  0  0  0  0
    4.6986    2.0313   -2.3816 C   0  0  0  0  0  0  0  0  0  0  0  0
    3.0049    2.3859   -0.7403 F   0  0  0  0  0  0  0  0  0  0  0  0
    2.9328   -0.2643   -0.1130 N   0  0  0  0  0  0  0  0  0  0  0  0
    1.6308   -0.0473   -0.1997 N   0  0  0  0  0  0  0  0  0  0  0  0
    1.0018   -0.5486    0.8807 C   0  0  0  0  0  0  0  0  0  0  0  0
    1.9778   -1.1129    1.6892 C   0  0  0  0  0  0  0  0  0  0  0  0
    3.1839   -0.9177    1.0361 C   0  0  0  0  0  0  0  0  0  0  0  0
    4.2995   -1.4996    1.8434 C   0  0  2  0  0  0  0  0  0  0  0  0
    4.2137   -2.9640    2.0015 C   0  0  0  0  0  0  0  0  0  0  0  0
    3.6340   -2.0352    3.0450 C   0  0  2  0  0  0  0  0  0  0  0  0
    2.1578   -1.8217    2.9580 C   0  0  0  0  0  0  0  0  0  0  0  0
   -0.4347   -0.5231    1.1808 C   0  0  0  0  0  0  0  0  0  0  0  0
   -0.9016   -1.0374    2.2462 O   0  0  0  0  0  0  0  0  0  0  0  0
   -1.2984    0.1081    0.2211 N   0  0  0  0  0  0  0  0  0  0  0  0
   -2.7151    0.1736    0.4424 C   0  0  2  0  0  0  0  0  0  0  0  0
   -3.5194   -0.5974   -0.5839 C   0  0  2  0  0  0  0  0  0  0  0  0
   -3.6135   -2.0542   -0.3532 C   0  0  0  0  0  0  0  0  0  0  0  0
   -3.0946   -0.1769   -1.9477 C   0  0  0  0  0  0  0  0  0  0  0  0
   -3.6330    1.2508   -2.0395 C   0  0  0  0  0  0  0  0  0  0  0  0
   -4.2751    1.5159   -0.6922 C   0  0  2  0  0  0  0  0  0  0  0  0
   -3.2695    1.5853    0.4172 C   0  0  0  0  0  0  0  0  0  0  0  0
   -2.2017    2.6146    0.1947 C   0  0  0  0  0  0  0  0  0  0  0  0
   -3.9895    1.8767    1.6996 C   0  0  0  0  0  0  0  0  0  0  0  0
   -4.8541    0.1313   -0.4417 C   0  0  0  0  0  0  0  0  0  0  0  0
    6.1842   -0.8079   -3.2925 H   0  0  0  0  0  0  0  0  0  0  0  0
    4.6557   -1.7559   -1.5462 H   0  0  0  0  0  0  0  0  0  0  0  0
    4.6793    3.1131   -2.5883 H   0  0  0  0  0  0  0  0  0  0  0  0
    5.2509   -0.9689    1.9205 H   0  0  0  0  0  0  0  0  0  0  0  0
    3.5544   -3.5989    1.3821 H   0  0  0  0  0  0  0  0  0  0  0  0
    5.1413   -3.4768    2.3359 H   0  0  0  0  0  0  0  0  0  0  0  0
    4.1697   -1.9089    4.0060 H   0  0  0  0  0  0  0  0  0  0  0  0
    1.7325   -1.3131    3.8429 H   0  0  0  0  0  0  0  0  0  0  0  0
    1.6930   -2.8470    2.9469 H   0  0  0  0  0  0  0  0  0  0  0  0
   -0.8683    0.5188   -0.6436 H   0  0  0  0  0  0  0  0  0  0  0  0
   -2.9482   -0.3223    1.4170 H   0  0  0  0  0  0  0  0  0  0  0  0
   -4.5262   -2.4497   -0.8115 H   0  0  0  0  0  0  0  0  0  0  0  0
   -3.6343   -2.2332    0.7531 H   0  0  0  0  0  0  0  0  0  0  0  0
   -2.6863   -2.5254   -0.7040 H   0  0  0  0  0  0  0  0  0  0  0  0
   -2.0241   -0.2372   -2.1516 H   0  0  0  0  0  0  0  0  0  0  0  0
   -3.5902   -0.8287   -2.7006 H   0  0  0  0  0  0  0  0  0  0  0  0
   -4.4799    1.2502   -2.7788 H   0  0  0  0  0  0  0  0  0  0  0  0
   -2.8499    1.9535   -2.3181 H   0  0  0  0  0  0  0  0  0  0  0  0
   -5.0161    2.3030   -0.7050 H   0  0  0  0  0  0  0  0  0  0  0  0
   -1.5808    2.4311   -0.6917 H   0  0  0  0  0  0  0  0  0  0  0  0
   -2.6886    3.5967    0.1106 H   0  0  0  0  0  0  0  0  0  0  0  0
   -1.5633    2.6350    1.1018 H   0  0  0  0  0  0  0  0  0  0  0  0
   -3.6999    2.8840    2.0859 H   0  0  0  0  0  0  0  0  0  0  0  0
   -3.7097    1.1487    2.5079 H   0  0  0  0  0  0  0  0  0  0  0  0
   -5.0968    1.8308    1.5624 H   0  0  0  0  0  0  0  0  0  0  0  0
   -5.5889   -0.1682   -1.1996 H   0  0  0  0  0  0  0  0  0  0  0  0
   -5.2586    0.0366    0.5910 H   0  0  0  0  0  0  0  0  0  0  0  0
  1  2  1  0
  2  3  2  0
  3  4  1  0
  4  5  2  0
  5  6  1  0
  6  7  2  0
  6  8  1  0
  5  9  1  0
  9 10  1  0
 10 11  2  0
 11 12  1  0
 12 13  2  0
 13 14  1  0
 14 15  1  0
 15 16  1  0
 16 17  1  0
 11 18  1  0
 18 19  2  0
 18 20  1  0
 20 21  1  0
 21 22  1  0
 22 23  1  6
 22 24  1  0
 24 25  1  0
 25 26  1  0
 26 27  1  0
 27 28  1  0
 27 29  1  0
 26 30  1  0
  7  2  1  0
 13  9  1  0
 16 14  1  0
 27 21  1  0
 17 12  1  0
 30 22  1  0
  3 31  1  0
  4 32  1  0
  7 33  1  0
 14 34  1  1
 15 35  1  0
 15 36  1  0
 16 37  1  1
 17 38  1  0
 17 39  1  0
 20 40  1  0
 21 41  1  1
 23 42  1  0
 23 43  1  0
 23 44  1  0
 24 45  1  0
 24 46  1  0
 25 47  1  0
 25 48  1  0
 26 49  1  6
 28 50  1  0
 28 51  1  0
 28 52  1  0
 29 53  1  0
 29 54  1  0
 29 55  1  0
 30 56  1  0
 30 57  1  0
M  END
>  <Ligand ID>  (1) 
LIG0001087

>  <Ligand>  (1) 
CHEMBL3354961

>  <SMILES>  (1) 
Fc1ccc(c(c1)F)n1nc(c2c1[C@@H]1C[C@@H]1C2)C(=O)N[C@@H]1[C@]2(C)CC[C@H](C1(C)C)C2

>  <CID>  (1) 
118720571.0

>  <ChEMBL ID>  (1) 
nan

>  <InChiKey>  (1) 
OADZFRLWRRTMDX-HTERXRQYSA-N

>  <InChi>  (1) 
InChI=1S/C24H27F2N3O/c1-23(2)13-6-7-24(3,11-13)22(23)27-21(30)19-16-9-12-8-15(12)20(16)29(28-19)18-5-4-14(25)10-17(18)26/h4-5,10,12-13,15,22H,6-9,11H2,1-3H3,(H,27,30)/t12-,13+,15-,22+,24-/m1/s1

>  <IUPAC Name>  (1) 
(2R,4R)-9-(2,4-difluorophenyl)-N-[(1R,2R,4S)-1,3,3-trimethyl-2-bicyclo[2.2.1]heptanyl]-8,9-diazatricyclo[4.3.0.02,4]nona-1(6),7-diene-7-carboxamide

$$$$
