
     RDKit          3D

 37 38  0  0  0  0  0  0  0  0999 V2000
    1.3825   -2.8705   -1.1752 O   0  0  0  0  0  0  0  0  0  0  0  0
    1.6194   -1.7998   -0.5823 C   0  0  0  0  0  0  0  0  0  0  0  0
    3.0042   -1.3979   -0.1487 C   0  0  0  0  0  0  0  0  0  0  0  0
    3.2126   -0.0225   -0.7387 C   0  0  0  0  0  0  0  0  0  0  0  0
    2.2590    0.9605   -0.1631 C   0  0  0  0  0  0  0  0  0  0  0  0
    0.8636    0.4387   -0.0633 C   0  0  0  0  0  0  0  0  0  0  0  0
    0.5604   -0.8362   -0.2557 C   0  0  0  0  0  0  0  0  0  0  0  0
   -0.9106   -1.0480   -0.0881 C   0  0  0  0  0  0  0  0  0  0  0  0
   -1.2271   -2.2981    0.7055 C   0  0  0  0  0  0  0  0  0  0  0  0
   -1.5782   -1.0853   -1.4221 C   0  0  0  0  0  0  0  0  0  0  0  0
   -1.2670    0.1334    0.7674 C   0  0  0  0  0  0  0  0  0  0  0  0
   -0.3733    1.1973    0.2505 C   0  0  0  0  0  0  0  0  0  0  0  0
   -0.1486    2.1888    1.3782 C   0  0  0  0  0  0  0  0  0  0  0  0
   -0.8432    1.9459   -0.9426 C   0  0  0  0  0  0  0  0  0  0  0  0
   -2.7001    0.4377    0.9126 C   0  0  0  0  0  0  0  0  0  0  0  0
    3.7453   -2.1238   -0.4869 H   0  0  0  0  0  0  0  0  0  0  0  0
    2.9781   -1.2927    0.9605 H   0  0  0  0  0  0  0  0  0  0  0  0
    3.2362   -0.0522   -1.8372 H   0  0  0  0  0  0  0  0  0  0  0  0
    4.2427    0.3195   -0.4283 H   0  0  0  0  0  0  0  0  0  0  0  0
    2.5772    1.3208    0.8256 H   0  0  0  0  0  0  0  0  0  0  0  0
    2.1900    1.8556   -0.8474 H   0  0  0  0  0  0  0  0  0  0  0  0
   -1.3099   -3.1957    0.0627 H   0  0  0  0  0  0  0  0  0  0  0  0
   -0.5780   -2.4479    1.5727 H   0  0  0  0  0  0  0  0  0  0  0  0
   -2.2636   -2.1390    1.0984 H   0  0  0  0  0  0  0  0  0  0  0  0
   -2.4280   -0.4082   -1.5542 H   0  0  0  0  0  0  0  0  0  0  0  0
   -0.8162   -0.9734   -2.2326 H   0  0  0  0  0  0  0  0  0  0  0  0
   -1.9854   -2.1193   -1.5857 H   0  0  0  0  0  0  0  0  0  0  0  0
   -0.8530   -0.1355    1.7854 H   0  0  0  0  0  0  0  0  0  0  0  0
   -1.1536    2.5806    1.6422 H   0  0  0  0  0  0  0  0  0  0  0  0
    0.2026    1.6154    2.2704 H   0  0  0  0  0  0  0  0  0  0  0  0
    0.5278    3.0046    1.0889 H   0  0  0  0  0  0  0  0  0  0  0  0
   -1.7950    2.4517   -0.7915 H   0  0  0  0  0  0  0  0  0  0  0  0
   -0.8821    1.4016   -1.8877 H   0  0  0  0  0  0  0  0  0  0  0  0
   -0.0884    2.7624   -1.1102 H   0  0  0  0  0  0  0  0  0  0  0  0
   -3.0765    0.2254    1.9581 H   0  0  0  0  0  0  0  0  0  0  0  0
   -2.9252    1.5285    0.7894 H   0  0  0  0  0  0  0  0  0  0  0  0
   -3.3988   -0.1224    0.2729 H   0  0  0  0  0  0  0  0  0  0  0  0
  1  2  2  0
  2  3  1  0
  3  4  1  0
  4  5  1  0
  5  6  1  0
  6  7  2  0
  7  8  1  0
  8  9  1  0
  8 10  1  0
  8 11  1  0
 11 12  1  0
 12 13  1  0
 12 14  1  0
 11 15  1  0
  7  2  1  0
 12  6  1  0
  3 16  1  0
  3 17  1  0
  4 18  1  0
  4 19  1  0
  5 20  1  0
  5 21  1  0
  9 22  1  0
  9 23  1  0
  9 24  1  0
 10 25  1  0
 10 26  1  0
 10 27  1  0
 11 28  1  0
 13 29  1  0
 13 30  1  0
 13 31  1  0
 14 32  1  0
 14 33  1  0
 14 34  1  0
 15 35  1  0
 15 36  1  0
 15 37  1  0
M  END
>  <Ligand ID>  (1) 
LIG0000272

>  <Ligand>  (1) 
(+-)-Cashmeran

>  <SMILES>  (1) 
O=C1CCCC2=C1C(C)(C)C(C2(C)C)C

>  <CID>  (1) 
92292.0

>  <ChEMBL ID>  (1) 
nan

>  <InChiKey>  (1) 
MIZGSAALSYARKU-UHFFFAOYSA-N

>  <InChi>  (1) 
InChI=1S/C14H22O/c1-9-13(2,3)10-7-6-8-11(15)12(10)14(9,4)5/h9H,6-8H2,1-5H3

>  <IUPAC Name>  (1) 
1,1,2,3,3-pentamethyl-2,5,6,7-tetrahydroinden-4-one

$$$$
