
     RDKit          3D

 26 26  0  0  0  0  0  0  0  0999 V2000
    3.4887   -0.7702    0.0507 C   0  0  0  0  0  0  0  0  0  0  0  0
    2.0355   -0.4711    0.1022 C   0  0  0  0  0  0  0  0  0  0  0  0
    1.1748   -1.4141   -0.2653 C   0  0  0  0  0  0  0  0  0  0  0  0
   -0.2959   -1.2417   -0.2594 C   0  0  0  0  0  0  0  0  0  0  0  0
   -0.6095    0.2289   -0.4066 C   0  0  2  0  0  0  0  0  0  0  0  0
    0.1208    1.0120    0.6537 C   0  0  0  0  0  0  0  0  0  0  0  0
    1.6233    0.8758    0.5651 C   0  0  0  0  0  0  0  0  0  0  0  0
   -2.0536    0.5144   -0.2672 C   0  0  0  0  0  0  0  0  0  0  0  0
   -2.5553    1.3299    0.6560 C   0  0  0  0  0  0  0  0  0  0  0  0
   -2.9767   -0.1677   -1.2343 C   0  0  0  0  0  0  0  0  0  0  0  0
    4.1062    0.1136    0.2524 H   0  0  0  0  0  0  0  0  0  0  0  0
    3.7255   -1.5048    0.8426 H   0  0  0  0  0  0  0  0  0  0  0  0
    3.7810   -1.1637   -0.9440 H   0  0  0  0  0  0  0  0  0  0  0  0
    1.5512   -2.3901   -0.5978 H   0  0  0  0  0  0  0  0  0  0  0  0
   -0.7182   -1.7994   -1.1255 H   0  0  0  0  0  0  0  0  0  0  0  0
   -0.6701   -1.6038    0.7174 H   0  0  0  0  0  0  0  0  0  0  0  0
   -0.2783    0.5996   -1.3829 H   0  0  0  0  0  0  0  0  0  0  0  0
   -0.2295    0.7639    1.6588 H   0  0  0  0  0  0  0  0  0  0  0  0
   -0.1256    2.0840    0.4660 H   0  0  0  0  0  0  0  0  0  0  0  0
    2.0359    0.9989    1.5845 H   0  0  0  0  0  0  0  0  0  0  0  0
    2.0946    1.6241   -0.0919 H   0  0  0  0  0  0  0  0  0  0  0  0
   -1.9374    1.8356    1.3630 H   0  0  0  0  0  0  0  0  0  0  0  0
   -3.6180    1.4941    0.7026 H   0  0  0  0  0  0  0  0  0  0  0  0
   -3.8666   -0.5362   -0.6509 H   0  0  0  0  0  0  0  0  0  0  0  0
   -3.3159    0.5888   -1.9864 H   0  0  0  0  0  0  0  0  0  0  0  0
   -2.4870   -1.0008   -1.7486 H   0  0  0  0  0  0  0  0  0  0  0  0
  1  2  1  0
  2  3  2  0
  3  4  1  0
  4  5  1  0
  5  6  1  0
  6  7  1  0
  5  8  1  0
  8  9  2  0
  8 10  1  0
  7  2  1  0
  1 11  1  0
  1 12  1  0
  1 13  1  0
  3 14  1  0
  4 15  1  0
  4 16  1  0
  5 17  1  6
  6 18  1  0
  6 19  1  0
  7 20  1  0
  7 21  1  0
  9 22  1  0
  9 23  1  0
 10 24  1  0
 10 25  1  0
 10 26  1  0
M  END
>  <Ligand ID>  (1) 
LIG0000224

>  <Ligand>  (1) 
Limonene, (-)-

>  <SMILES>  (1) 
CC1=CC[C@H](CC1)C(=C)C

>  <CID>  (1) 
439250.0

>  <ChEMBL ID>  (1) 
nan

>  <InChiKey>  (1) 
XMGQYMWWDOXHJM-SNVBAGLBSA-N

>  <InChi>  (1) 
InChI=1S/C10H16/c1-8(2)10-6-4-9(3)5-7-10/h4,10H,1,5-7H2,2-3H3/t10-/m1/s1

>  <IUPAC Name>  (1) 
(4S)-1-methyl-4-prop-1-en-2-ylcyclohexene

$$$$
