
     RDKit          3D

 42 43  0  0  0  0  0  0  0  0999 V2000
   -1.1074    1.1547    0.6465 O   0  0  0  0  0  0  0  0  0  0  0  0
   -1.5019    0.4047   -0.2863 C   0  0  0  0  0  0  0  0  0  0  0  0
   -0.6278   -0.0385   -1.2921 N   0  0  0  0  0  0  0  0  0  0  0  0
    0.7622    0.3004   -1.3679 C   0  0  0  0  0  0  0  0  0  0  0  0
    1.1300    1.1838   -2.5018 C   0  0  0  0  0  0  0  0  0  0  0  0
    0.3056    2.7604   -2.4429 Cl  0  0  0  0  0  0  0  0  0  0  0  0
    0.6922    0.3131   -4.0042 Cl  0  0  0  0  0  0  0  0  0  0  0  0
    2.8635    1.4856   -2.5964 Cl  0  0  0  0  0  0  0  0  0  0  0  0
    1.5819   -0.8284   -1.1144 N   0  0  0  0  0  0  0  0  0  0  0  0
    2.7971   -0.8592   -0.3907 C   0  0  0  0  0  0  0  0  0  0  0  0
    3.6144   -2.2953   -0.2520 S   0  0  0  0  0  0  0  0  0  0  0  0
    3.3976    0.2533    0.2435 N   0  0  0  0  0  0  0  0  0  0  0  0
    4.6536    0.1470    0.9566 C   0  0  0  0  0  0  0  0  0  0  0  0
    5.8218    0.3765    0.2345 C   0  0  0  0  0  0  0  0  0  0  0  0
    7.0320    0.2812    0.8894 C   0  0  0  0  0  0  0  0  0  0  0  0
    7.0753   -0.0353    2.2313 C   0  0  0  0  0  0  0  0  0  0  0  0
    5.9051   -0.2669    2.9625 C   0  0  0  0  0  0  0  0  0  0  0  0
    4.6800   -0.1723    2.3075 C   0  0  0  0  0  0  0  0  0  0  0  0
    5.9541   -0.6692    4.6689 Cl  0  0  0  0  0  0  0  0  0  0  0  0
   -2.8561    0.0514   -0.2461 O   0  0  0  0  0  0  0  0  0  0  0  0
   -3.6364    0.5667    0.8255 C   0  0  0  0  0  0  0  0  0  0  0  0
   -5.0174    0.0445    0.6313 C   0  0  0  0  0  0  0  0  0  0  0  0
   -5.3251   -1.1776    1.2412 C   0  0  0  0  0  0  0  0  0  0  0  0
   -6.5942   -1.7011    1.0875 C   0  0  0  0  0  0  0  0  0  0  0  0
   -7.5688   -1.0335    0.3371 C   0  0  0  0  0  0  0  0  0  0  0  0
   -7.2330    0.1818   -0.2585 C   0  0  0  0  0  0  0  0  0  0  0  0
   -5.9715    0.7209   -0.1166 C   0  0  0  0  0  0  0  0  0  0  0  0
   -1.0136   -0.6630   -2.0451 H   0  0  0  0  0  0  0  0  0  0  0  0
    0.9203    0.9689   -0.4393 H   0  0  0  0  0  0  0  0  0  0  0  0
    1.2411   -1.7601   -1.5155 H   0  0  0  0  0  0  0  0  0  0  0  0
    2.9877    1.2184    0.2678 H   0  0  0  0  0  0  0  0  0  0  0  0
    5.7736    0.6243   -0.8198 H   0  0  0  0  0  0  0  0  0  0  0  0
    7.9743    0.4509    0.3743 H   0  0  0  0  0  0  0  0  0  0  0  0
    8.0127   -0.1132    2.7556 H   0  0  0  0  0  0  0  0  0  0  0  0
    3.7546   -0.3467    2.8488 H   0  0  0  0  0  0  0  0  0  0  0  0
   -3.6145    1.6731    0.8904 H   0  0  0  0  0  0  0  0  0  0  0  0
   -3.2604    0.2171    1.8092 H   0  0  0  0  0  0  0  0  0  0  0  0
   -4.5678   -1.7115    1.8335 H   0  0  0  0  0  0  0  0  0  0  0  0
   -6.8218   -2.6617    1.5724 H   0  0  0  0  0  0  0  0  0  0  0  0
   -8.5663   -1.4529    0.2207 H   0  0  0  0  0  0  0  0  0  0  0  0
   -7.9541    0.7355   -0.8488 H   0  0  0  0  0  0  0  0  0  0  0  0
   -5.6927    1.6723   -0.5774 H   0  0  0  0  0  0  0  0  0  0  0  0
  1  2  2  0
  2  3  1  0
  3  4  1  0
  4  5  1  0
  5  6  1  0
  5  7  1  0
  5  8  1  0
  4  9  1  0
  9 10  1  0
 10 11  2  0
 10 12  1  0
 12 13  1  0
 13 14  2  0
 14 15  1  0
 15 16  2  0
 16 17  1  0
 17 18  2  0
 17 19  1  0
  2 20  1  0
 20 21  1  0
 21 22  1  0
 22 23  2  0
 23 24  1  0
 24 25  2  0
 25 26  1  0
 26 27  2  0
 18 13  1  0
 27 22  1  0
  3 28  1  0
  4 29  1  0
  9 30  1  0
 12 31  1  0
 14 32  1  0
 15 33  1  0
 16 34  1  0
 18 35  1  0
 21 36  1  0
 21 37  1  0
 23 38  1  0
 24 39  1  0
 25 40  1  0
 26 41  1  0
 27 42  1  0
M  END
>  <Ligand ID>  (1) 
LIG0002699

>  <Ligand>  (1) 
SMR000173874

>  <SMILES>  (1) 
O=C(NC(C(Cl)(Cl)Cl)NC(=S)Nc1cccc(c1)Cl)OCc1ccccc1

>  <CID>  (1) 
3091264.0

>  <ChEMBL ID>  (1) 
nan

>  <InChiKey>  (1) 
UXMOYMUVFYRMJA-UHFFFAOYSA-N

>  <InChi>  (1) 
InChI=1S/C17H15Cl4N3O2S/c18-12-7-4-8-13(9-12)22-15(27)23-14(17(19,20)21)24-16(25)26-10-11-5-2-1-3-6-11/h1-9,14H,10H2,(H,24,25)(H2,22,23,27)

>  <IUPAC Name>  (1) 
benzyl N-[2,2,2-trichloro-1-[(3-chlorophenyl)carbamothioylamino]ethyl]carbamate

$$$$
