
     RDKit          3D

 58 59  0  0  0  0  0  0  0  0999 V2000
   -6.3172    2.6616   -0.2235 C   0  0  0  0  0  0  0  0  0  0  0  0
   -5.1789    2.3270   -1.1618 C   0  0  0  0  0  0  0  0  0  0  0  0
   -4.3341    1.4080   -0.5298 O   0  0  0  0  0  0  0  0  0  0  0  0
   -3.1847    0.8752   -1.0813 C   0  0  0  0  0  0  0  0  0  0  0  0
   -2.8001    1.1862   -2.2298 O   0  0  0  0  0  0  0  0  0  0  0  0
   -2.4311   -0.0983   -0.2104 C   0  0  0  0  0  0  0  0  0  0  0  0
   -1.9790    0.6786    0.9828 C   0  0  0  0  0  0  0  0  0  0  0  0
   -0.4667    0.9704    0.8543 C   0  0  0  0  0  0  0  0  0  0  0  0
    0.1594   -0.3145    0.9825 N   0  0  0  0  0  0  0  0  0  0  0  0
   -0.3087   -1.2714    0.0142 C   0  0  0  0  0  0  0  0  0  0  0  0
   -1.2149   -0.6071   -0.9980 C   0  0  0  0  0  0  0  0  0  0  0  0
    1.5777   -0.2763    1.1326 C   0  0  0  0  0  0  0  0  0  0  0  0
    2.3465    0.1654   -0.0789 C   0  0  0  0  0  0  0  0  0  0  0  0
    3.8239    0.1701    0.1984 C   0  0  0  0  0  0  0  0  0  0  0  0
    4.2688   -0.1503    1.3536 O   0  0  0  0  0  0  0  0  0  0  0  0
    4.7831    0.5202   -0.7769 N   0  0  0  0  0  0  0  0  0  0  0  0
    6.1564    0.4839   -0.3743 C   0  0  0  0  0  0  0  0  0  0  0  0
    6.6627    1.6667    0.1419 C   0  0  0  0  0  0  0  0  0  0  0  0
    7.9741    1.7305    0.5607 C   0  0  0  0  0  0  0  0  0  0  0  0
    8.7689    0.5935    0.4544 C   0  0  0  0  0  0  0  0  0  0  0  0
    8.2702   -0.5992   -0.0625 C   0  0  0  0  0  0  0  0  0  0  0  0
    6.9385   -0.6440   -0.4816 C   0  0  0  0  0  0  0  0  0  0  0  0
    9.3810   -2.1627   -0.1987 Br  0  0  0  0  0  0  0  0  0  0  0  0
   -3.3273   -1.2204    0.0528 C   0  0  0  0  0  0  0  0  0  0  0  0
   -4.0442   -1.7309   -1.0260 C   0  0  0  0  0  0  0  0  0  0  0  0
   -4.9127   -2.7922   -0.9049 C   0  0  0  0  0  0  0  0  0  0  0  0
   -5.1169   -3.4095    0.3082 C   0  0  0  0  0  0  0  0  0  0  0  0
   -4.4136   -2.9149    1.3870 C   0  0  0  0  0  0  0  0  0  0  0  0
   -3.5327   -1.8370    1.2605 C   0  0  0  0  0  0  0  0  0  0  0  0
    0.6909    0.0000    0.0000 Cl  0  0  0  0  0  0  0  0  0  0  0  0
   -6.1343    3.6232    0.3128 H   0  0  0  0  0  0  0  0  0  0  0  0
   -6.3884    1.8663    0.5606 H   0  0  0  0  0  0  0  0  0  0  0  0
   -7.3014    2.6630   -0.7344 H   0  0  0  0  0  0  0  0  0  0  0  0
   -4.6129    3.2470   -1.4162 H   0  0  0  0  0  0  0  0  0  0  0  0
   -5.6538    1.9487   -2.0968 H   0  0  0  0  0  0  0  0  0  0  0  0
   -2.0505    0.1460    1.9452 H   0  0  0  0  0  0  0  0  0  0  0  0
   -2.4791    1.6735    1.0744 H   0  0  0  0  0  0  0  0  0  0  0  0
   -0.2071    1.5648    1.7581 H   0  0  0  0  0  0  0  0  0  0  0  0
   -0.3327    1.4897   -0.0879 H   0  0  0  0  0  0  0  0  0  0  0  0
   -0.9260   -2.0086    0.5645 H   0  0  0  0  0  0  0  0  0  0  0  0
    0.5206   -1.8312   -0.4688 H   0  0  0  0  0  0  0  0  0  0  0  0
   -0.7477    0.1815   -1.5867 H   0  0  0  0  0  0  0  0  0  0  0  0
   -1.6088   -1.3529   -1.7249 H   0  0  0  0  0  0  0  0  0  0  0  0
    2.0178   -1.1834    1.5570 H   0  0  0  0  0  0  0  0  0  0  0  0
    1.7758    0.5261    1.9041 H   0  0  0  0  0  0  0  0  0  0  0  0
    2.1853   -0.5755   -0.8879 H   0  0  0  0  0  0  0  0  0  0  0  0
    2.0049    1.1454   -0.4696 H   0  0  0  0  0  0  0  0  0  0  0  0
    4.4899    0.7871   -1.7300 H   0  0  0  0  0  0  0  0  0  0  0  0
    6.0321    2.5656    0.2242 H   0  0  0  0  0  0  0  0  0  0  0  0
    8.3503    2.6667    0.9625 H   0  0  0  0  0  0  0  0  0  0  0  0
    9.7913    0.6328    0.7776 H   0  0  0  0  0  0  0  0  0  0  0  0
    6.5228   -1.5552   -0.8870 H   0  0  0  0  0  0  0  0  0  0  0  0
   -3.9385   -1.2936   -2.0313 H   0  0  0  0  0  0  0  0  0  0  0  0
   -5.4493   -3.1525   -1.7855 H   0  0  0  0  0  0  0  0  0  0  0  0
   -5.7896   -4.2422    0.4345 H   0  0  0  0  0  0  0  0  0  0  0  0
   -4.5825   -3.4092    2.3362 H   0  0  0  0  0  0  0  0  0  0  0  0
   -3.0367   -1.5316    2.1499 H   0  0  0  0  0  0  0  0  0  0  0  0
   -0.6909    0.0000    0.0000 H   0  0  0  0  0  0  0  0  0  0  0  0
  1  2  1  0
  2  3  1  0
  3  4  1  0
  4  5  2  0
  4  6  1  0
  6  7  1  0
  7  8  1  0
  8  9  1  0
  9 10  1  0
 10 11  1  0
  9 12  1  0
 12 13  1  0
 13 14  1  0
 14 15  2  0
 14 16  1  0
 16 17  1  0
 17 18  2  0
 18 19  1  0
 19 20  2  0
 20 21  1  0
 21 22  2  0
 21 23  1  0
  6 24  1  0
 24 25  2  0
 25 26  1  0
 26 27  2  0
 27 28  1  0
 28 29  2  0
 11  6  1  0
 22 17  1  0
 29 24  1  0
  1 31  1  0
  1 32  1  0
  1 33  1  0
  2 34  1  0
  2 35  1  0
  7 36  1  0
  7 37  1  0
  8 38  1  0
  8 39  1  0
 10 40  1  0
 10 41  1  0
 11 42  1  0
 11 43  1  0
 12 44  1  0
 12 45  1  0
 13 46  1  0
 13 47  1  0
 16 48  1  0
 18 49  1  0
 19 50  1  0
 20 51  1  0
 22 52  1  0
 25 53  1  0
 26 54  1  0
 27 55  1  0
 28 56  1  0
 29 57  1  0
 30 58  1  0
M  END
>  <Ligand ID>  (1) 
LIG0004442

>  <Ligand>  (1) 
MLS001359881

>  <SMILES>  (1) 
CCOC(=O)C1(CCN(CC1)CCC(=O)Nc1cccc(c1)Br)c1ccccc1.Cl

>  <CID>  (1) 
25162947.0

>  <ChEMBL ID>  (1) 
nan

>  <InChiKey>  (1) 
KIXAZGZXBDFELC-UHFFFAOYSA-N

>  <InChi>  (1) 
InChI=1S/C23H27BrN2O3.ClH/c1-2-29-22(28)23(18-7-4-3-5-8-18)12-15-26(16-13-23)14-11-21(27)25-20-10-6-9-19(24)17-20;/h3-10,17H,2,11-16H2,1H3,(H,25,27);1H

>  <IUPAC Name>  (1) 
ethyl 1-[3-(3-bromoanilino)-3-oxopropyl]-4-phenylpiperidine-4-carboxylate;hydrochloride

$$$$
