
     RDKit          3D

 26 26  0  0  0  0  0  0  0  0999 V2000
    2.4574    1.2368   -0.0299 C   0  0  0  0  0  0  0  0  0  0  0  0
    2.6878   -0.1232   -0.6360 C   0  0  0  0  0  0  0  0  0  0  0  0
    1.3981   -0.8279   -0.9083 C   0  0  0  0  0  0  0  0  0  0  0  0
    0.5475   -1.0726    0.3150 C   0  0  0  0  0  0  0  0  0  0  0  0
   -0.7010   -1.8060   -0.2087 C   0  0  0  0  0  0  0  0  0  0  0  0
   -1.5901   -0.7246   -0.7800 C   0  0  0  0  0  0  0  0  0  0  0  0
   -2.5182   -0.3934    0.2013 O   0  0  0  0  0  0  0  0  0  0  0  0
   -1.9144    0.4041    1.1731 C   0  0  0  0  0  0  0  0  0  0  0  0
   -0.1182    0.4816    0.9687 S   0  0  0  0  0  0  0  0  0  0  0  0
   -2.5539    1.7728    1.0662 C   0  0  0  0  0  0  0  0  0  0  0  0
    3.3297    1.9227   -0.2424 H   0  0  0  0  0  0  0  0  0  0  0  0
    2.3023    1.2105    1.0693 H   0  0  0  0  0  0  0  0  0  0  0  0
    1.5591    1.7047   -0.4781 H   0  0  0  0  0  0  0  0  0  0  0  0
    3.3713   -0.7367   -0.0058 H   0  0  0  0  0  0  0  0  0  0  0  0
    3.2618    0.0657   -1.5724 H   0  0  0  0  0  0  0  0  0  0  0  0
    0.8096   -0.2569   -1.6677 H   0  0  0  0  0  0  0  0  0  0  0  0
    1.6559   -1.7748   -1.4337 H   0  0  0  0  0  0  0  0  0  0  0  0
    1.0587   -1.6644    1.0785 H   0  0  0  0  0  0  0  0  0  0  0  0
   -1.1313   -2.2880    0.6923 H   0  0  0  0  0  0  0  0  0  0  0  0
   -0.4036   -2.5703   -0.9634 H   0  0  0  0  0  0  0  0  0  0  0  0
   -2.0771   -1.0366   -1.7238 H   0  0  0  0  0  0  0  0  0  0  0  0
   -1.0589    0.2195   -1.0177 H   0  0  0  0  0  0  0  0  0  0  0  0
   -2.2258   -0.0116    2.1545 H   0  0  0  0  0  0  0  0  0  0  0  0
   -3.6479    1.6186    0.9901 H   0  0  0  0  0  0  0  0  0  0  0  0
   -2.2641    2.4625    1.8828 H   0  0  0  0  0  0  0  0  0  0  0  0
   -2.2345    2.1874    0.0761 H   0  0  0  0  0  0  0  0  0  0  0  0
  1  2  1  0
  2  3  1  0
  3  4  1  0
  4  5  1  0
  5  6  1  0
  6  7  1  0
  7  8  1  0
  8  9  1  0
  8 10  1  0
  9  4  1  0
  1 11  1  0
  1 12  1  0
  1 13  1  0
  2 14  1  0
  2 15  1  0
  3 16  1  0
  3 17  1  0
  4 18  1  0
  5 19  1  0
  5 20  1  0
  6 21  1  0
  6 22  1  0
  8 23  1  0
 10 24  1  0
 10 25  1  0
 10 26  1  0
M  END
>  <Ligand ID>  (1) 
LIG0000618

>  <Ligand>  (1) 
2-methyl-4-propyl-1,3-oxathiane

>  <SMILES>  (1) 
CCCC1CCOC(S1)C

>  <CID>  (1) 
101010.0

>  <ChEMBL ID>  (1) 
nan

>  <InChiKey>  (1) 
GKGOLPMYJJXRGD-UHFFFAOYSA-N

>  <InChi>  (1) 
InChI=1S/C8H16OS/c1-3-4-8-5-6-9-7(2)10-8/h7-8H,3-6H2,1-2H3

>  <IUPAC Name>  (1) 
2-methyl-4-propyl-1,3-oxathiane

$$$$
