
     RDKit          3D

 27 27  0  0  0  0  0  0  0  0999 V2000
   -4.5086   -0.8847   -0.1160 C   0  0  0  0  0  0  0  0  0  0  0  0
   -3.0394   -0.8158    0.0019 C   0  0  0  0  0  0  0  0  0  0  0  0
   -2.4054    0.3383    0.0807 C   0  0  0  0  0  0  0  0  0  0  0  0
   -0.9620    0.4712    0.1982 C   0  0  0  0  0  0  0  0  0  0  0  0
   -0.3789    1.7415    0.2759 C   0  0  0  0  0  0  0  0  0  0  0  0
    0.9875    1.9037    0.3879 C   0  0  0  0  0  0  0  0  0  0  0  0
    1.8285    0.8116    0.4273 C   0  0  0  0  0  0  0  0  0  0  0  0
    1.2810   -0.4478    0.3527 C   0  0  0  0  0  0  0  0  0  0  0  0
   -0.0953   -0.5890    0.2403 C   0  0  0  0  0  0  0  0  0  0  0  0
    2.1296   -1.5333    0.3928 O   0  0  0  0  0  0  0  0  0  0  0  0
    1.7367   -2.8756    0.3284 C   0  0  0  0  0  0  0  0  0  0  0  0
    3.2037    0.9476    0.5395 O   0  0  0  0  0  0  0  0  0  0  0  0
    3.7965    2.2390    0.6184 C   0  0  0  0  0  0  0  0  0  0  0  0
   -4.8476   -1.5924   -0.9109 H   0  0  0  0  0  0  0  0  0  0  0  0
   -4.8683    0.1104   -0.4422 H   0  0  0  0  0  0  0  0  0  0  0  0
   -4.9998   -1.2318    0.8111 H   0  0  0  0  0  0  0  0  0  0  0  0
   -2.4827   -1.7307    0.0232 H   0  0  0  0  0  0  0  0  0  0  0  0
   -3.0143    1.2293    0.0547 H   0  0  0  0  0  0  0  0  0  0  0  0
   -1.0128    2.5929    0.2469 H   0  0  0  0  0  0  0  0  0  0  0  0
    1.3628    2.9032    0.4425 H   0  0  0  0  0  0  0  0  0  0  0  0
   -0.4669   -1.5986    0.1859 H   0  0  0  0  0  0  0  0  0  0  0  0
    1.4157   -3.1881    1.3634 H   0  0  0  0  0  0  0  0  0  0  0  0
    0.9212   -3.0311   -0.4090 H   0  0  0  0  0  0  0  0  0  0  0  0
    2.6319   -3.4929    0.0288 H   0  0  0  0  0  0  0  0  0  0  0  0
    3.6223    2.6742    1.6025 H   0  0  0  0  0  0  0  0  0  0  0  0
    3.2979    2.8366   -0.2000 H   0  0  0  0  0  0  0  0  0  0  0  0
    4.8668    2.2123    0.3241 H   0  0  0  0  0  0  0  0  0  0  0  0
  1  2  1  0
  2  3  2  0
  3  4  1  0
  4  5  2  0
  5  6  1  0
  6  7  2  0
  7  8  1  0
  8  9  2  0
  8 10  1  0
 10 11  1  0
  7 12  1  0
 12 13  1  0
  9  4  1  0
  1 14  1  0
  1 15  1  0
  1 16  1  0
  2 17  1  0
  3 18  1  0
  5 19  1  0
  6 20  1  0
  9 21  1  0
 11 22  1  0
 11 23  1  0
 11 24  1  0
 13 25  1  0
 13 26  1  0
 13 27  1  0
M  END
>  <Ligand ID>  (1) 
LIG0000453

>  <Ligand>  (1) 
methyl isoeugenol

>  <SMILES>  (1) 
C/C=C/c1ccc(c(c1)OC)OC

>  <CID>  (1) 
637776.0

>  <ChEMBL ID>  (1) 
nan

>  <InChiKey>  (1) 
NNWHUJCUHAELCL-SNAWJCMRSA-N

>  <InChi>  (1) 
InChI=1S/C11H14O2/c1-4-5-9-6-7-10(12-2)11(8-9)13-3/h4-8H,1-3H3/b5-4+

>  <IUPAC Name>  (1) 
1,2-dimethoxy-4-[(E)-prop-1-enyl]benzene

$$$$
