
     RDKit          3D

 37 38  0  0  0  0  0  0  0  0999 V2000
    4.7037   -0.2245    0.7833 C   0  0  0  0  0  0  0  0  0  0  0  0
    3.6403    0.3697   -0.1304 C   0  0  0  0  0  0  0  0  0  0  0  0
    2.7512   -0.6283   -0.4936 O   0  0  0  0  0  0  0  0  0  0  0  0
    1.3842   -0.6633   -0.2734 C   0  0  0  0  0  0  0  0  0  0  0  0
    0.6895    0.3418    0.3695 C   0  0  0  0  0  0  0  0  0  0  0  0
   -0.6752    0.2813    0.5760 C   0  0  0  0  0  0  0  0  0  0  0  0
   -1.2429    1.4445    1.2789 C   0  0  0  0  0  0  0  0  0  0  0  0
   -2.4670    2.0272    0.6697 C   0  0  0  0  0  0  0  0  0  0  0  0
   -3.2538    1.0949   -0.0922 N   0  0  0  0  0  0  0  0  0  0  0  0
   -3.5279   -0.0327    0.7918 C   0  0  0  0  0  0  0  0  0  0  0  0
   -2.7902   -1.2023    0.1744 C   0  0  0  0  0  0  0  0  0  0  0  0
   -1.3576   -0.8327    0.1166 C   0  0  0  0  0  0  0  0  0  0  0  0
   -0.6546   -1.8189   -0.5180 C   0  0  0  0  0  0  0  0  0  0  0  0
    0.7083   -1.7831   -0.7370 C   0  0  0  0  0  0  0  0  0  0  0  0
    1.5932   -3.1938   -1.6237 Br  0  0  0  0  0  0  0  0  0  0  0  0
   -3.3027   -1.4139   -1.2357 C   0  0  0  0  0  0  0  0  0  0  0  0
    4.3826    0.8994   -1.3599 C   0  0  0  0  0  0  0  0  0  0  0  0
    5.4116   -0.7948    0.1858 H   0  0  0  0  0  0  0  0  0  0  0  0
    4.2531   -0.8433    1.5814 H   0  0  0  0  0  0  0  0  0  0  0  0
    5.2021    0.6190    1.2954 H   0  0  0  0  0  0  0  0  0  0  0  0
    3.2318    1.2377    0.3915 H   0  0  0  0  0  0  0  0  0  0  0  0
    1.2203    1.2119    0.7287 H   0  0  0  0  0  0  0  0  0  0  0  0
   -0.4519    2.2282    1.3170 H   0  0  0  0  0  0  0  0  0  0  0  0
   -1.4532    1.1765    2.3390 H   0  0  0  0  0  0  0  0  0  0  0  0
   -2.2106    2.8648   -0.0150 H   0  0  0  0  0  0  0  0  0  0  0  0
   -3.1328    2.4727    1.4393 H   0  0  0  0  0  0  0  0  0  0  0  0
   -4.1584    1.5278   -0.3220 H   0  0  0  0  0  0  0  0  0  0  0  0
   -3.1590    0.1139    1.8097 H   0  0  0  0  0  0  0  0  0  0  0  0
   -4.6082   -0.2714    0.8487 H   0  0  0  0  0  0  0  0  0  0  0  0
   -2.9836   -2.1218    0.7696 H   0  0  0  0  0  0  0  0  0  0  0  0
   -1.1750   -2.7063   -0.8881 H   0  0  0  0  0  0  0  0  0  0  0  0
   -4.3066   -0.9874   -1.4092 H   0  0  0  0  0  0  0  0  0  0  0  0
   -2.6192   -0.9530   -1.9944 H   0  0  0  0  0  0  0  0  0  0  0  0
   -3.3475   -2.5091   -1.4469 H   0  0  0  0  0  0  0  0  0  0  0  0
    3.6619    1.0032   -2.2222 H   0  0  0  0  0  0  0  0  0  0  0  0
    5.1688    0.1943   -1.7032 H   0  0  0  0  0  0  0  0  0  0  0  0
    4.8757    1.8719   -1.1399 H   0  0  0  0  0  0  0  0  0  0  0  0
  1  2  1  0
  2  3  1  0
  3  4  1  0
  4  5  2  0
  5  6  1  0
  6  7  1  0
  7  8  1  0
  8  9  1  0
  9 10  1  0
 10 11  1  0
 11 12  1  0
 12 13  1  0
 13 14  2  0
 14 15  1  0
 11 16  1  0
  2 17  1  0
 14  4  1  0
 12  6  2  0
  1 18  1  0
  1 19  1  0
  1 20  1  0
  2 21  1  0
  5 22  1  0
  7 23  1  0
  7 24  1  0
  8 25  1  0
  8 26  1  0
  9 27  1  0
 10 28  1  0
 10 29  1  0
 11 30  1  0
 13 31  1  0
 16 32  1  0
 16 33  1  0
 16 34  1  0
 17 35  1  0
 17 36  1  0
 17 37  1  0
M  END
>  <Ligand ID>  (1) 
LIG0004025

>  <Ligand>  (1) 
CHEMBL415029

>  <SMILES>  (1) 
CC(Oc1cc2CCNCC(c2cc1Br)C)C

>  <CID>  (1) 
10017556.0

>  <ChEMBL ID>  (1) 
nan

>  <InChiKey>  (1) 
OKANWZMGTYYNOW-UHFFFAOYSA-N

>  <InChi>  (1) 
InChI=1S/C14H20BrNO/c1-9(2)17-14-6-11-4-5-16-8-10(3)12(11)7-13(14)15/h6-7,9-10,16H,4-5,8H2,1-3H3

>  <IUPAC Name>  (1) 
7-bromo-5-methyl-8-propan-2-yloxy-2,3,4,5-tetrahydro-1H-3-benzazepine

$$$$
