
     RDKit          3D

 57 60  0  0  0  0  0  0  0  0999 V2000
   -1.3932    6.9525   -1.4641 C   0  0  0  0  0  0  0  0  0  0  0  0
   -0.9771    5.8493   -2.2536 O   0  0  0  0  0  0  0  0  0  0  0  0
   -1.1493    4.5519   -1.7919 C   0  0  0  0  0  0  0  0  0  0  0  0
   -1.7248    4.3003   -0.5633 C   0  0  0  0  0  0  0  0  0  0  0  0
   -1.8816    2.9895   -0.1330 C   0  0  0  0  0  0  0  0  0  0  0  0
   -1.4886    1.9108   -0.8753 C   0  0  0  0  0  0  0  0  0  0  0  0
   -0.9085    2.1878   -2.1158 C   0  0  0  0  0  0  0  0  0  0  0  0
   -0.7391    3.4788   -2.5712 C   0  0  0  0  0  0  0  0  0  0  0  0
   -0.1630    3.6744   -3.7960 F   0  0  0  0  0  0  0  0  0  0  0  0
   -1.6124    0.5255   -0.4826 C   0  0  0  0  0  0  0  0  0  0  0  0
   -2.1147   -0.4385   -1.2874 N   0  0  0  0  0  0  0  0  0  0  0  0
   -2.1062   -1.6184   -0.6913 N   0  0  0  0  0  0  0  0  0  0  0  0
   -1.5923   -1.4392    0.5242 C   0  0  0  0  0  0  0  0  0  0  0  0
   -1.2704   -0.0951    0.6859 C   0  0  0  0  0  0  0  0  0  0  0  0
   -0.6685    0.4716    1.9103 C   0  0  0  0  0  0  0  0  0  0  0  0
    0.7448    0.7453    1.7573 N   0  0  0  0  0  0  0  0  0  0  0  0
    1.4315   -0.4730    1.4289 C   0  0  0  0  0  0  0  0  0  0  0  0
    2.8797   -0.3278    1.2540 C   0  0  0  0  0  0  0  0  0  0  0  0
    3.5615   -0.0313    0.0736 C   0  0  0  0  0  0  0  0  0  0  0  0
    4.8747    0.0214    0.2924 N   0  0  0  0  0  0  0  0  0  0  0  0
    5.0905   -0.2315    1.5869 N   0  0  0  0  0  0  0  0  0  0  0  0
    3.8979   -0.4480    2.1990 C   0  0  0  0  0  0  0  0  0  0  0  0
    6.4213   -0.2497    2.1603 C   0  0  0  0  0  0  0  0  0  0  0  0
    7.0358   -1.6312    2.0931 C   0  0  0  0  0  0  0  0  0  0  0  0
   -2.5401   -2.8853   -1.1770 C   0  0  0  0  0  0  0  0  0  0  0  0
   -1.6580   -3.6461   -1.9256 C   0  0  0  0  0  0  0  0  0  0  0  0
   -2.0691   -4.8886   -2.4062 C   0  0  0  0  0  0  0  0  0  0  0  0
   -3.3453   -5.3349   -2.1268 C   0  0  0  0  0  0  0  0  0  0  0  0
   -4.2194   -4.5766   -1.3828 C   0  0  0  0  0  0  0  0  0  0  0  0
   -3.8130   -3.3460   -0.9063 C   0  0  0  0  0  0  0  0  0  0  0  0
   -4.7698   -2.5232   -0.0951 C   0  0  0  0  0  0  0  0  0  0  0  0
   -0.7652    7.0972   -0.5633 H   0  0  0  0  0  0  0  0  0  0  0  0
   -1.3867    7.8949   -2.0242 H   0  0  0  0  0  0  0  0  0  0  0  0
   -2.4285    6.7907   -1.0818 H   0  0  0  0  0  0  0  0  0  0  0  0
   -2.0475    5.1273    0.0518 H   0  0  0  0  0  0  0  0  0  0  0  0
   -2.3388    2.8510    0.8224 H   0  0  0  0  0  0  0  0  0  0  0  0
   -0.5797    1.3581   -2.7430 H   0  0  0  0  0  0  0  0  0  0  0  0
   -1.4436   -2.2042    1.2726 H   0  0  0  0  0  0  0  0  0  0  0  0
   -1.1459    1.4107    2.2402 H   0  0  0  0  0  0  0  0  0  0  0  0
   -0.8179   -0.2335    2.7787 H   0  0  0  0  0  0  0  0  0  0  0  0
    0.8495    1.4034    0.9439 H   0  0  0  0  0  0  0  0  0  0  0  0
    1.0075   -0.8121    0.4493 H   0  0  0  0  0  0  0  0  0  0  0  0
    1.1767   -1.3031    2.1282 H   0  0  0  0  0  0  0  0  0  0  0  0
    3.1187    0.1407   -0.9089 H   0  0  0  0  0  0  0  0  0  0  0  0
    3.7589   -0.6748    3.2394 H   0  0  0  0  0  0  0  0  0  0  0  0
    7.0955    0.4218    1.5983 H   0  0  0  0  0  0  0  0  0  0  0  0
    6.3057    0.0554    3.2218 H   0  0  0  0  0  0  0  0  0  0  0  0
    7.2730   -1.8968    1.0434 H   0  0  0  0  0  0  0  0  0  0  0  0
    6.4506   -2.3967    2.6153 H   0  0  0  0  0  0  0  0  0  0  0  0
    8.0249   -1.5782    2.6076 H   0  0  0  0  0  0  0  0  0  0  0  0
   -0.6527   -3.2794   -2.1372 H   0  0  0  0  0  0  0  0  0  0  0  0
   -1.3992   -5.5006   -2.9936 H   0  0  0  0  0  0  0  0  0  0  0  0
   -3.6175   -6.2983   -2.5173 H   0  0  0  0  0  0  0  0  0  0  0  0
   -5.2138   -4.9072   -1.1564 H   0  0  0  0  0  0  0  0  0  0  0  0
   -4.2386   -2.1574    0.8196 H   0  0  0  0  0  0  0  0  0  0  0  0
   -5.6126   -3.1546    0.2354 H   0  0  0  0  0  0  0  0  0  0  0  0
   -5.1060   -1.6288   -0.6387 H   0  0  0  0  0  0  0  0  0  0  0  0
  1  2  1  0
  2  3  1  0
  3  4  2  0
  4  5  1  0
  5  6  2  0
  6  7  1  0
  7  8  2  0
  8  9  1  0
  6 10  1  0
 10 11  2  0
 11 12  1  0
 12 13  1  0
 13 14  2  0
 14 15  1  0
 15 16  1  0
 16 17  1  0
 17 18  1  0
 18 19  1  0
 19 20  2  0
 20 21  1  0
 21 22  1  0
 21 23  1  0
 23 24  1  0
 12 25  1  0
 25 26  2  0
 26 27  1  0
 27 28  2  0
 28 29  1  0
 29 30  2  0
 30 31  1  0
  8  3  1  0
 14 10  1  0
 22 18  2  0
 30 25  1  0
  1 32  1  0
  1 33  1  0
  1 34  1  0
  4 35  1  0
  5 36  1  0
  7 37  1  0
 13 38  1  0
 15 39  1  0
 15 40  1  0
 16 41  1  0
 17 42  1  0
 17 43  1  0
 19 44  1  0
 22 45  1  0
 23 46  1  0
 23 47  1  0
 24 48  1  0
 24 49  1  0
 24 50  1  0
 26 51  1  0
 27 52  1  0
 28 53  1  0
 29 54  1  0
 31 55  1  0
 31 56  1  0
 31 57  1  0
M  END
>  <Ligand ID>  (1) 
LIG0004390

>  <Ligand>  (1) 
MLS000731922

>  <SMILES>  (1) 
COc1ccc(cc1F)c1nn(cc1CNCc1cnn(c1)CC)c1ccccc1C

>  <CID>  (1) 
16189942.0

>  <ChEMBL ID>  (1) 
nan

>  <InChiKey>  (1) 
QMUMNUDQNJPSSV-UHFFFAOYSA-N

>  <InChi>  (1) 
InChI=1S/C24H26FN5O/c1-4-29-15-18(13-27-29)12-26-14-20-16-30(22-8-6-5-7-17(22)2)28-24(20)19-9-10-23(31-3)21(25)11-19/h5-11,13,15-16,26H,4,12,14H2,1-3H3

>  <IUPAC Name>  (1) 
1-(1-ethylpyrazol-4-yl)-N-[[3-(3-fluoro-4-methoxyphenyl)-1-(2-methylphenyl)pyrazol-4-yl]methyl]methanamine

$$$$
