
     RDKit          3D

 44 46  0  0  0  0  0  0  0  0999 V2000
   -0.9821    0.3228   -0.3349 O   0  0  0  0  0  0  0  0  0  0  0  0
   -0.9255   -0.9347   -0.3611 C   0  0  0  0  0  0  0  0  0  0  0  0
   -1.9241   -1.6808   -1.1434 C   0  0  0  0  0  0  0  0  0  0  0  0
   -2.9006   -0.8281   -1.8210 C   0  0  0  0  0  0  0  0  0  0  0  0
   -3.0304   -0.4511   -3.1413 C   0  0  0  0  0  0  0  0  0  0  0  0
   -4.1110    0.3544   -3.2424 N   0  0  0  0  0  0  0  0  0  0  0  0
   -4.6968    0.5243   -2.0526 C   0  0  0  0  0  0  0  0  0  0  0  0
   -3.9583   -0.2038   -1.1542 C   0  0  0  0  0  0  0  0  0  0  0  0
   -4.3368   -0.2138    0.1723 C   0  0  0  0  0  0  0  0  0  0  0  0
   -5.4348    0.4836    0.6338 C   0  0  0  0  0  0  0  0  0  0  0  0
   -6.1830    1.2179   -0.2609 C   0  0  0  0  0  0  0  0  0  0  0  0
   -5.7945    1.2227   -1.5976 C   0  0  0  0  0  0  0  0  0  0  0  0
    0.0669   -1.6810    0.3355 N   0  0  0  0  0  0  0  0  0  0  0  0
    1.0638   -0.9866    1.1138 C   0  0  0  0  0  0  0  0  0  0  0  0
    0.9916    0.2825    1.1285 N   0  0  0  0  0  0  0  0  0  0  0  0
    1.8861    1.1733    1.8414 C   0  0  0  0  0  0  0  0  0  0  0  0
    2.6629    2.0626    0.9424 C   0  0  0  0  0  0  0  0  0  0  0  0
    3.5436    1.4160   -0.0588 C   0  0  0  0  0  0  0  0  0  0  0  0
    4.6569    0.6060    0.4463 C   0  0  0  0  0  0  0  0  0  0  0  0
    5.5035   -0.0904   -0.4329 C   0  0  0  0  0  0  0  0  0  0  0  0
    6.3976   -0.7431    0.2922 N   0  0  0  0  0  0  0  0  0  0  0  0
    6.1902   -0.5178    1.5928 C   0  0  0  0  0  0  0  0  0  0  0  0
    5.1148    0.3146    1.6575 N   0  0  0  0  0  0  0  0  0  0  0  0
    2.0764   -1.7073    1.8276 N   0  0  0  0  0  0  0  0  0  0  0  0
   -1.4783   -2.3703   -1.9043 H   0  0  0  0  0  0  0  0  0  0  0  0
   -2.5055   -2.3493   -0.4428 H   0  0  0  0  0  0  0  0  0  0  0  0
   -2.3640   -0.7673   -3.9244 H   0  0  0  0  0  0  0  0  0  0  0  0
   -4.4840    0.8141   -4.1244 H   0  0  0  0  0  0  0  0  0  0  0  0
   -3.7556   -0.7922    0.9027 H   0  0  0  0  0  0  0  0  0  0  0  0
   -5.6887    0.4429    1.6815 H   0  0  0  0  0  0  0  0  0  0  0  0
   -7.0591    1.7787    0.0847 H   0  0  0  0  0  0  0  0  0  0  0  0
   -6.3836    1.7992   -2.2958 H   0  0  0  0  0  0  0  0  0  0  0  0
    0.1162   -2.7289    0.3150 H   0  0  0  0  0  0  0  0  0  0  0  0
    2.4899    0.6849    2.6005 H   0  0  0  0  0  0  0  0  0  0  0  0
    1.1817    1.8458    2.4314 H   0  0  0  0  0  0  0  0  0  0  0  0
    1.9676    2.8140    0.4671 H   0  0  0  0  0  0  0  0  0  0  0  0
    3.3300    2.6992    1.6041 H   0  0  0  0  0  0  0  0  0  0  0  0
    3.9959    2.2404   -0.6890 H   0  0  0  0  0  0  0  0  0  0  0  0
    2.9324    0.7779   -0.7668 H   0  0  0  0  0  0  0  0  0  0  0  0
    5.4548   -0.1073   -1.5163 H   0  0  0  0  0  0  0  0  0  0  0  0
    6.7545   -0.9103    2.4426 H   0  0  0  0  0  0  0  0  0  0  0  0
    4.7598    0.6493    2.5693 H   0  0  0  0  0  0  0  0  0  0  0  0
    2.3165   -1.3436    2.7721 H   0  0  0  0  0  0  0  0  0  0  0  0
    2.5431   -2.5541    1.4095 H   0  0  0  0  0  0  0  0  0  0  0  0
  1  2  2  0
  2  3  1  0
  3  4  1  0
  4  5  2  0
  5  6  1  0
  6  7  1  0
  7  8  2  0
  8  9  1  0
  9 10  2  0
 10 11  1  0
 11 12  2  0
  2 13  1  0
 13 14  1  0
 14 15  2  3
 15 16  1  0
 16 17  1  0
 17 18  1  0
 18 19  1  0
 19 20  2  0
 20 21  1  0
 21 22  2  0
 22 23  1  0
 14 24  1  0
  8  4  1  0
 23 19  1  0
 12  7  1  0
  3 25  1  0
  3 26  1  0
  5 27  1  0
  6 28  1  0
  9 29  1  0
 10 30  1  0
 11 31  1  0
 12 32  1  0
 13 33  1  0
 16 34  1  0
 16 35  1  0
 17 36  1  0
 17 37  1  0
 18 38  1  0
 18 39  1  0
 20 40  1  0
 22 41  1  0
 23 42  1  0
 24 43  1  0
 24 44  1  0
M  END
>  <Ligand ID>  (1) 
LIG0002737

>  <Ligand>  (1) 
CHEMBL474447

>  <SMILES>  (1) 
O=C(Cc1c[nH]c2c1cccc2)NC(=NCCCc1cnc[nH]1)N

>  <CID>  (1) 
42626109.0

>  <ChEMBL ID>  (1) 
nan

>  <InChiKey>  (1) 
IACQTGSSMZJQPH-UHFFFAOYSA-N

>  <InChi>  (1) 
InChI=1S/C17H20N6O/c18-17(20-7-3-4-13-10-19-11-22-13)23-16(24)8-12-9-21-15-6-2-1-5-14(12)15/h1-2,5-6,9-11,21H,3-4,7-8H2,(H,19,22)(H3,18,20,23,24)

>  <IUPAC Name>  (1) 
N-[N'-[3-(1H-imidazol-5-yl)propyl]carbamimidoyl]-2-(1H-indol-3-yl)acetamide

$$$$
