
     RDKit          3D

 59 61  0  0  0  0  0  0  0  0999 V2000
   -6.6669    2.0537    2.9593 C   0  0  0  0  0  0  0  0  0  0  0  0
   -6.1404    1.6895    1.7795 C   0  0  0  0  0  0  0  0  0  0  0  0
   -6.9800    1.7832    0.5639 C   0  0  0  0  0  0  0  0  0  0  0  0
   -7.1684    0.5331   -0.0988 N   0  0  0  0  0  0  0  0  0  0  0  0
   -6.0596    0.1578   -1.3173 S   0  0  0  0  0  0  0  0  0  0  0  0
   -6.4598   -1.1834   -1.9241 O   0  0  0  0  0  0  0  0  0  0  0  0
   -6.1471    1.1923   -2.4279 O   0  0  0  0  0  0  0  0  0  0  0  0
   -4.4106    0.0139   -0.8329 C   0  0  0  0  0  0  0  0  0  0  0  0
   -3.8555   -1.2259   -0.5260 C   0  0  0  0  0  0  0  0  0  0  0  0
   -2.5347   -1.3713   -0.1598 C   0  0  0  0  0  0  0  0  0  0  0  0
   -1.7582   -0.2337   -0.1029 C   0  0  0  0  0  0  0  0  0  0  0  0
   -2.2539    1.0290   -0.3946 C   0  0  0  0  0  0  0  0  0  0  0  0
   -3.5929    1.1229   -0.7595 C   0  0  0  0  0  0  0  0  0  0  0  0
   -0.3496   -0.2809    0.2084 N   0  0  0  0  0  0  0  0  0  0  0  0
    0.5258    0.0559   -0.8567 C   0  0  0  0  0  0  0  0  0  0  0  0
   -0.1599    0.4904   -2.3103 S   0  0  0  0  0  0  0  0  0  0  0  0
    1.9252    0.0686   -0.7957 N   0  0  0  0  0  0  0  0  0  0  0  0
    2.7512   -0.2491    0.2763 C   0  0  0  0  0  0  0  0  0  0  0  0
    2.2300   -0.6021    1.3646 O   0  0  0  0  0  0  0  0  0  0  0  0
    4.2230   -0.2125    0.2444 C   0  0  0  0  0  0  0  0  0  0  0  0
    4.9917   -0.6583    1.2943 C   0  0  0  0  0  0  0  0  0  0  0  0
    6.3894   -0.6463    1.2623 C   0  0  0  0  0  0  0  0  0  0  0  0
    7.0359   -0.1706    0.1379 C   0  0  0  0  0  0  0  0  0  0  0  0
    6.2919    0.2844   -0.9305 C   0  0  0  0  0  0  0  0  0  0  0  0
    4.8963    0.2584   -0.8644 C   0  0  0  0  0  0  0  0  0  0  0  0
    8.4860   -0.1372   -0.0056 C   0  0  0  0  0  0  0  0  0  0  0  0
    9.2576   -1.1260    0.6103 C   0  0  0  0  0  0  0  0  0  0  0  0
   10.6294   -1.0884    0.4578 C   0  0  0  0  0  0  0  0  0  0  0  0
   11.1895   -0.0797   -0.2945 C   0  0  0  0  0  0  0  0  0  0  0  0
   10.4390    0.9109   -0.9128 C   0  0  0  0  0  0  0  0  0  0  0  0
    9.0618    0.8658   -0.7546 C   0  0  0  0  0  0  0  0  0  0  0  0
   -7.5716   -0.5521    0.7327 C   0  0  0  0  0  0  0  0  0  0  0  0
   -8.7820   -1.1592    0.0867 C   0  0  0  0  0  0  0  0  0  0  0  0
   -8.7421   -2.4332   -0.2766 C   0  0  0  0  0  0  0  0  0  0  0  0
   -7.7043    2.3957    2.9074 H   0  0  0  0  0  0  0  0  0  0  0  0
   -6.1285    2.0188    3.8856 H   0  0  0  0  0  0  0  0  0  0  0  0
   -5.1246    1.3475    1.7971 H   0  0  0  0  0  0  0  0  0  0  0  0
   -7.9929    2.1613    0.8226 H   0  0  0  0  0  0  0  0  0  0  0  0
   -6.5256    2.5340   -0.1480 H   0  0  0  0  0  0  0  0  0  0  0  0
   -4.4676   -2.1204   -0.5690 H   0  0  0  0  0  0  0  0  0  0  0  0
   -2.0858   -2.3067    0.0810 H   0  0  0  0  0  0  0  0  0  0  0  0
   -1.6352    1.9268   -0.3446 H   0  0  0  0  0  0  0  0  0  0  0  0
   -3.9933    2.1250   -0.9927 H   0  0  0  0  0  0  0  0  0  0  0  0
   -0.0758   -0.5500    1.1553 H   0  0  0  0  0  0  0  0  0  0  0  0
    2.4273    0.3607   -1.6977 H   0  0  0  0  0  0  0  0  0  0  0  0
    4.5259   -1.0387    2.1899 H   0  0  0  0  0  0  0  0  0  0  0  0
    6.9829   -0.9952    2.0861 H   0  0  0  0  0  0  0  0  0  0  0  0
    6.7907    0.6655   -1.8205 H   0  0  0  0  0  0  0  0  0  0  0  0
    4.3948    0.6298   -1.7341 H   0  0  0  0  0  0  0  0  0  0  0  0
    8.8253   -1.9097    1.1961 H   0  0  0  0  0  0  0  0  0  0  0  0
   11.2698   -1.8475    0.9222 H   0  0  0  0  0  0  0  0  0  0  0  0
   12.2670   -0.0019   -0.4487 H   0  0  0  0  0  0  0  0  0  0  0  0
   10.8898    1.7012   -1.5011 H   0  0  0  0  0  0  0  0  0  0  0  0
    8.4860    1.6471   -1.2469 H   0  0  0  0  0  0  0  0  0  0  0  0
   -6.7944   -1.3020    0.9503 H   0  0  0  0  0  0  0  0  0  0  0  0
   -7.9501   -0.2006    1.7370 H   0  0  0  0  0  0  0  0  0  0  0  0
   -9.6364   -0.5077   -0.0509 H   0  0  0  0  0  0  0  0  0  0  0  0
   -7.8177   -2.9640   -0.0796 H   0  0  0  0  0  0  0  0  0  0  0  0
   -9.6177   -2.8686   -0.7414 H   0  0  0  0  0  0  0  0  0  0  0  0
  1  2  2  0
  2  3  1  0
  3  4  1  0
  4  5  1  0
  5  6  2  0
  5  7  2  0
  5  8  1  0
  8  9  2  0
  9 10  1  0
 10 11  2  0
 11 12  1  0
 12 13  2  0
 11 14  1  0
 14 15  1  0
 15 16  2  0
 15 17  1  0
 17 18  1  0
 18 19  2  0
 18 20  1  0
 20 21  2  0
 21 22  1  0
 22 23  2  0
 23 24  1  0
 24 25  2  0
 23 26  1  0
 26 27  2  0
 27 28  1  0
 28 29  2  0
 29 30  1  0
 30 31  2  0
  4 32  1  0
 32 33  1  0
 33 34  2  0
 13  8  1  0
 25 20  1  0
 31 26  1  0
  1 35  1  0
  1 36  1  0
  2 37  1  0
  3 38  1  0
  3 39  1  0
  9 40  1  0
 10 41  1  0
 12 42  1  0
 13 43  1  0
 14 44  1  0
 17 45  1  0
 21 46  1  0
 22 47  1  0
 24 48  1  0
 25 49  1  0
 27 50  1  0
 28 51  1  0
 29 52  1  0
 30 53  1  0
 31 54  1  0
 32 55  1  0
 32 56  1  0
 33 57  1  0
 34 58  1  0
 34 59  1  0
M  END
>  <Ligand ID>  (1) 
LIG0005623

>  <Ligand>  (1) 
SMR000162378

>  <SMILES>  (1) 
C=CCN(S(=O)(=O)c1ccc(cc1)NC(=S)NC(=O)c1ccc(cc1)c1ccccc1)CC=C

>  <CID>  (1) 
1792579.0

>  <ChEMBL ID>  (1) 
nan

>  <InChiKey>  (1) 
ZWHGWVPWIBDREY-UHFFFAOYSA-N

>  <InChi>  (1) 
InChI=1S/C26H25N3O3S2/c1-3-18-29(19-4-2)34(31,32)24-16-14-23(15-17-24)27-26(33)28-25(30)22-12-10-21(11-13-22)20-8-6-5-7-9-20/h3-17H,1-2,18-19H2,(H2,27,28,30,33)

>  <IUPAC Name>  (1) 
N-[[4-[bis(prop-2-enyl)sulfamoyl]phenyl]carbamothioyl]-4-phenylbenzamide

$$$$
