
     RDKit          3D

 34 34  0  0  0  0  0  0  0  0999 V2000
    4.2520   -1.9343    0.1965 C   0  0  0  0  0  0  0  0  0  0  0  0
    3.2854   -0.9408   -0.3471 C   0  0  0  0  0  0  0  0  0  0  0  0
    2.1133   -0.7350    0.2636 C   0  0  0  0  0  0  0  0  0  0  0  0
    1.2014    0.2435   -0.3015 C   0  0  0  0  0  0  0  0  0  0  0  0
    1.6197    0.8380   -1.3563 O   0  0  0  0  0  0  0  0  0  0  0  0
   -0.1093    0.6086    0.2008 C   0  0  0  0  0  0  0  0  0  0  0  0
   -0.7363    1.7463   -0.5241 C   0  0  0  0  0  0  0  0  0  0  0  0
   -1.8651    2.2409    0.0185 C   0  0  0  0  0  0  0  0  0  0  0  0
   -2.2943    1.5348    1.2862 C   0  0  0  0  0  0  0  0  0  0  0  0
   -2.3928    0.0619    0.9296 C   0  0  0  0  0  0  0  0  0  0  0  0
   -1.1290   -0.4750    0.2902 C   0  0  0  0  0  0  0  0  0  0  0  0
   -0.6790   -1.6362    1.1456 C   0  0  0  0  0  0  0  0  0  0  0  0
   -1.5082   -1.0572   -1.0491 C   0  0  0  0  0  0  0  0  0  0  0  0
   -0.2451    2.3611   -1.7525 C   0  0  0  0  0  0  0  0  0  0  0  0
    3.7086   -2.6768    0.8372 H   0  0  0  0  0  0  0  0  0  0  0  0
    5.0338   -1.4084    0.7947 H   0  0  0  0  0  0  0  0  0  0  0  0
    4.7447   -2.4368   -0.6617 H   0  0  0  0  0  0  0  0  0  0  0  0
    3.5839   -0.4129   -1.2402 H   0  0  0  0  0  0  0  0  0  0  0  0
    1.9434   -1.3160    1.1417 H   0  0  0  0  0  0  0  0  0  0  0  0
    0.0259    0.9876    1.2480 H   0  0  0  0  0  0  0  0  0  0  0  0
   -2.4145    3.0598   -0.4035 H   0  0  0  0  0  0  0  0  0  0  0  0
   -1.6446    1.7489    2.1346 H   0  0  0  0  0  0  0  0  0  0  0  0
   -3.3313    1.8654    1.4726 H   0  0  0  0  0  0  0  0  0  0  0  0
   -2.6590   -0.4592    1.8692 H   0  0  0  0  0  0  0  0  0  0  0  0
   -3.2788   -0.0384    0.2537 H   0  0  0  0  0  0  0  0  0  0  0  0
   -1.6135   -2.2010    1.4681 H   0  0  0  0  0  0  0  0  0  0  0  0
   -0.0866   -2.3687    0.5640 H   0  0  0  0  0  0  0  0  0  0  0  0
   -0.2221   -1.3047    2.0740 H   0  0  0  0  0  0  0  0  0  0  0  0
   -1.7701   -2.1413   -0.9669 H   0  0  0  0  0  0  0  0  0  0  0  0
   -0.7076   -0.9763   -1.8033 H   0  0  0  0  0  0  0  0  0  0  0  0
   -2.4214   -0.5333   -1.4158 H   0  0  0  0  0  0  0  0  0  0  0  0
   -0.9699    3.1382   -2.1509 H   0  0  0  0  0  0  0  0  0  0  0  0
    0.6859    2.9391   -1.5970 H   0  0  0  0  0  0  0  0  0  0  0  0
   -0.1196    1.6782   -2.6192 H   0  0  0  0  0  0  0  0  0  0  0  0
  1  2  1  0
  2  3  2  0
  3  4  1  0
  4  5  2  0
  4  6  1  0
  6  7  1  0
  7  8  2  0
  8  9  1  0
  9 10  1  0
 10 11  1  0
 11 12  1  0
 11 13  1  0
  7 14  1  0
 11  6  1  0
  1 15  1  0
  1 16  1  0
  1 17  1  0
  2 18  1  0
  3 19  1  0
  6 20  1  0
  8 21  1  0
  9 22  1  0
  9 23  1  0
 10 24  1  0
 10 25  1  0
 12 26  1  0
 12 27  1  0
 12 28  1  0
 13 29  1  0
 13 30  1  0
 13 31  1  0
 14 32  1  0
 14 33  1  0
 14 34  1  0
M  END
>  <Ligand ID>  (1) 
LIG0000259

>  <Ligand>  (1) 
alpha-damascone

>  <SMILES>  (1) 
C/C=C/C(=O)C1C(=CCCC1(C)C)C

>  <CID>  (1) 
5366077.0

>  <ChEMBL ID>  (1) 
nan

>  <InChiKey>  (1) 
CRIGTVCBMUKRSL-FNORWQNLSA-N

>  <InChi>  (1) 
InChI=1S/C13H20O/c1-5-7-11(14)12-10(2)8-6-9-13(12,3)4/h5,7-8,12H,6,9H2,1-4H3/b7-5+

>  <IUPAC Name>  (1) 
(E)-1-(2,6,6-trimethylcyclohex-2-en-1-yl)but-2-en-1-one

$$$$
