
     RDKit          3D

 90 90  0  0  0  0  0  0  0  0999 V2000
   -0.9673   -0.0926    0.0267 C   0  0  0  0  0  0  0  0  0  0  0  0
    0.4656    0.3110   -0.0069 C   0  0  0  0  0  0  0  0  0  0  0  0
    0.7268    1.5402   -0.0717 O   0  0  0  0  0  0  0  0  0  0  0  0
    1.4325   -0.6804    0.0345 O   0  0  0  0  0  0  0  0  0  0  0  0
    3.6442    3.9918   -3.9500 C   0  0  0  0  0  0  0  0  0  0  0  0
    4.2284    4.3516   -2.6092 C   0  0  0  0  0  0  0  0  0  0  0  0
    5.3493    3.4805   -2.3508 N   0  0  0  0  0  0  0  0  0  0  0  0
    5.2264    2.0536   -2.2665 C   0  0  0  0  0  0  0  0  0  0  0  0
    4.0531    1.6058   -2.4277 O   0  0  0  0  0  0  0  0  0  0  0  0
    6.3269    1.1987   -2.0227 N   0  0  0  0  0  0  0  0  0  0  0  0
    6.2355   -0.2417   -1.9291 C   0  0  0  0  0  0  0  0  0  0  0  0
    5.7030   -0.6644   -0.6176 C   0  0  0  0  0  0  0  0  0  0  0  0
    6.6497   -0.8886    0.3881 C   0  0  0  0  0  0  0  0  0  0  0  0
    6.2902   -1.2938    1.6536 C   0  0  0  0  0  0  0  0  0  0  0  0
    4.9484   -1.4873    1.9458 C   0  0  0  0  0  0  0  0  0  0  0  0
    4.0075   -1.2679    0.9581 C   0  0  0  0  0  0  0  0  0  0  0  0
    4.4002   -0.8605   -0.3064 C   0  0  0  0  0  0  0  0  0  0  0  0
    2.5312   -1.4790    1.2481 C   0  0  0  0  0  0  0  0  0  0  0  0
    1.9693   -0.2105    1.7929 C   0  0  0  0  0  0  0  0  0  0  0  0
    0.5179   -0.2748    2.0748 C   0  0  0  0  0  0  0  0  0  0  0  0
    0.1687   -1.3318    3.0697 C   0  0  0  0  0  0  0  0  0  0  0  0
    0.4598   -2.6230    2.7045 O   0  0  0  0  0  0  0  0  0  0  0  0
    0.1037   -3.6134    3.5362 C   0  0  0  0  0  0  0  0  0  0  0  0
   -1.3189   -4.0026    3.7229 C   0  0  0  0  0  0  0  0  0  0  0  0
   -2.0107   -4.5820    2.5479 C   0  0  0  0  0  0  0  0  0  0  0  0
   -2.3033   -3.8575    1.3286 C   0  0  0  0  0  0  0  0  0  0  0  0
   -3.3025   -2.7849    1.2390 C   0  0  0  0  0  0  0  0  0  0  0  0
   -3.2394   -1.5398    1.9973 C   0  0  0  0  0  0  0  0  0  0  0  0
   -4.4054   -0.7082    1.6872 N   0  0  0  0  0  0  0  0  0  0  0  0
   -4.4302   -0.1824    0.3718 C   0  0  0  0  0  0  0  0  0  0  0  0
   -3.3594    0.8476    0.0927 C   0  0  1  0  0  0  0  0  0  0  0  0
   -3.6504    1.3639   -1.2834 C   0  0  0  0  0  0  0  0  0  0  0  0
   -2.8869    1.0259   -2.3799 C   0  0  0  0  0  0  0  0  0  0  0  0
   -3.2630    1.5701   -3.5973 C   0  0  0  0  0  0  0  0  0  0  0  0
   -4.3652    2.4203   -3.7000 C   0  0  0  0  0  0  0  0  0  0  0  0
   -5.1256    2.7516   -2.5845 C   0  0  0  0  0  0  0  0  0  0  0  0
   -4.7467    2.2107   -1.3916 C   0  0  0  0  0  0  0  0  0  0  0  0
   -6.3063    3.6514   -2.6631 C   0  0  0  0  0  0  0  0  0  0  0  0
   -7.4147    3.0079   -3.2021 O   0  0  0  0  0  0  0  0  0  0  0  0
   -4.7570    2.9753   -4.9096 O   0  0  0  0  0  0  0  0  0  0  0  0
   -3.4564    1.9443    0.9406 O   0  0  0  0  0  0  0  0  0  0  0  0
   -1.0651   -1.1825    0.2640 H   0  0  0  0  0  0  0  0  0  0  0  0
   -1.4812    0.0703   -0.9502 H   0  0  0  0  0  0  0  0  0  0  0  0
   -1.5051    0.4264    0.8540 H   0  0  0  0  0  0  0  0  0  0  0  0
    2.3938   -0.3924   -0.1503 H   0  0  0  0  0  0  0  0  0  0  0  0
    3.0431    3.0858   -3.9064 H   0  0  0  0  0  0  0  0  0  0  0  0
    3.0288    4.8372   -4.3381 H   0  0  0  0  0  0  0  0  0  0  0  0
    4.5094    3.8074   -4.6520 H   0  0  0  0  0  0  0  0  0  0  0  0
    3.4641    4.2495   -1.7915 H   0  0  0  0  0  0  0  0  0  0  0  0
    4.6278    5.3864   -2.6539 H   0  0  0  0  0  0  0  0  0  0  0  0
    6.3381    3.8409   -2.2072 H   0  0  0  0  0  0  0  0  0  0  0  0
    7.2728    1.6402   -1.9016 H   0  0  0  0  0  0  0  0  0  0  0  0
    5.5939   -0.6532   -2.7494 H   0  0  0  0  0  0  0  0  0  0  0  0
    7.2304   -0.7246   -2.1019 H   0  0  0  0  0  0  0  0  0  0  0  0
    7.7091   -0.7481    0.1987 H   0  0  0  0  0  0  0  0  0  0  0  0
    6.9964   -1.4746    2.4499 H   0  0  0  0  0  0  0  0  0  0  0  0
    4.5936   -1.8040    2.9150 H   0  0  0  0  0  0  0  0  0  0  0  0
    3.6480   -0.7022   -1.0479 H   0  0  0  0  0  0  0  0  0  0  0  0
    2.0136   -1.7403    0.3223 H   0  0  0  0  0  0  0  0  0  0  0  0
    2.5392   -2.3164    2.0039 H   0  0  0  0  0  0  0  0  0  0  0  0
    2.5003    0.0982    2.7242 H   0  0  0  0  0  0  0  0  0  0  0  0
    2.1869    0.5905    1.0312 H   0  0  0  0  0  0  0  0  0  0  0  0
    0.1210    0.6938    2.4813 H   0  0  0  0  0  0  0  0  0  0  0  0
   -0.0776   -0.4868    1.1421 H   0  0  0  0  0  0  0  0  0  0  0  0
   -0.8628   -1.2496    3.4160 H   0  0  0  0  0  0  0  0  0  0  0  0
    0.7970   -1.0478    3.9919 H   0  0  0  0  0  0  0  0  0  0  0  0
    0.5090   -3.3429    4.5680 H   0  0  0  0  0  0  0  0  0  0  0  0
    0.6948   -4.5459    3.3007 H   0  0  0  0  0  0  0  0  0  0  0  0
   -1.8466   -3.1043    4.1303 H   0  0  0  0  0  0  0  0  0  0  0  0
   -1.3027   -4.8051    4.5399 H   0  0  0  0  0  0  0  0  0  0  0  0
   -1.3143   -5.4588    2.2270 H   0  0  0  0  0  0  0  0  0  0  0  0
   -2.9083   -5.2157    2.8997 H   0  0  0  0  0  0  0  0  0  0  0  0
   -1.3122   -3.5492    0.8585 H   0  0  0  0  0  0  0  0  0  0  0  0
   -2.6442   -4.6432    0.5523 H   0  0  0  0  0  0  0  0  0  0  0  0
   -3.3147   -2.4884    0.1223 H   0  0  0  0  0  0  0  0  0  0  0  0
   -4.3720   -3.2143    1.3198 H   0  0  0  0  0  0  0  0  0  0  0  0
   -2.3282   -0.9521    1.6732 H   0  0  0  0  0  0  0  0  0  0  0  0
   -3.2194   -1.5856    3.0936 H   0  0  0  0  0  0  0  0  0  0  0  0
   -4.6901   -0.0758    2.4345 H   0  0  0  0  0  0  0  0  0  0  0  0
   -4.4321   -0.9140   -0.4312 H   0  0  0  0  0  0  0  0  0  0  0  0
   -5.4003    0.3834    0.2713 H   0  0  0  0  0  0  0  0  0  0  0  0
   -2.3411    0.4707    0.0963 H   0  0  0  0  0  0  0  0  0  0  0  0
   -2.0385    0.3642   -2.2641 H   0  0  0  0  0  0  0  0  0  0  0  0
   -2.6833    1.3294   -4.5033 H   0  0  0  0  0  0  0  0  0  0  0  0
   -5.3321    2.4627   -0.5187 H   0  0  0  0  0  0  0  0  0  0  0  0
   -6.0668    4.5915   -3.2235 H   0  0  0  0  0  0  0  0  0  0  0  0
   -6.5731    3.9650   -1.6316 H   0  0  0  0  0  0  0  0  0  0  0  0
   -8.0557    2.7676   -2.4890 H   0  0  0  0  0  0  0  0  0  0  0  0
   -5.7384    3.0085   -5.1797 H   0  0  0  0  0  0  0  0  0  0  0  0
   -3.0342    2.7130    0.4488 H   0  0  0  0  0  0  0  0  0  0  0  0
  1  2  1  0
  2  3  2  0
  2  4  1  0
  5  6  1  0
  6  7  1  0
  7  8  1  0
  8  9  2  0
  8 10  1  0
 10 11  1  0
 11 12  1  0
 12 13  2  0
 13 14  1  0
 14 15  2  0
 15 16  1  0
 16 17  2  0
 16 18  1  0
 18 19  1  0
 19 20  1  0
 20 21  1  0
 21 22  1  0
 22 23  1  0
 23 24  1  0
 24 25  1  0
 25 26  1  0
 26 27  1  0
 27 28  1  0
 28 29  1  0
 29 30  1  0
 30 31  1  0
 31 32  1  0
 32 33  2  0
 33 34  1  0
 34 35  2  0
 35 36  1  0
 36 37  2  0
 36 38  1  0
 38 39  1  0
 35 40  1  0
 31 41  1  0
 17 12  1  0
 37 32  1  0
  1 42  1  0
  1 43  1  0
  1 44  1  0
  4 45  1  0
  5 46  1  0
  5 47  1  0
  5 48  1  0
  6 49  1  0
  6 50  1  0
  7 51  1  0
 10 52  1  0
 11 53  1  0
 11 54  1  0
 13 55  1  0
 14 56  1  0
 15 57  1  0
 17 58  1  0
 18 59  1  0
 18 60  1  0
 19 61  1  0
 19 62  1  0
 20 63  1  0
 20 64  1  0
 21 65  1  0
 21 66  1  0
 23 67  1  0
 23 68  1  0
 24 69  1  0
 24 70  1  0
 25 71  1  0
 25 72  1  0
 26 73  1  0
 26 74  1  0
 27 75  1  0
 27 76  1  0
 28 77  1  0
 28 78  1  0
 29 79  1  0
 30 80  1  0
 30 81  1  0
 31 82  1  6
 33 83  1  0
 34 84  1  0
 37 85  1  0
 38 86  1  0
 38 87  1  0
 39 88  1  0
 40 89  1  0
 41 90  1  0
M  END
>  <Ligand ID>  (1) 
LIG0004419

>  <Ligand>  (1) 
CHEMBL1835858

>  <SMILES>  (1) 
CC(=O)O.CCNC(=O)NCc1cccc(c1)CCCCOCCCCCCNC[C@@H](c1ccc(c(c1)CO)O)O

>  <CID>  (1) 
56672268.0

>  <ChEMBL ID>  (1) 
nan

>  <InChiKey>  (1) 
DGKFZLACNWTHNL-JCOPYZAKSA-N

>  <InChi>  (1) 
InChI=1S/C29H45N3O5.C2H4O2/c1-2-31-29(36)32-20-24-12-9-11-23(18-24)10-5-8-17-37-16-7-4-3-6-15-30-21-28(35)25-13-14-27(34)26(19-25)22-33;1-2(3)4/h9,11-14,18-19,28,30,33-35H,2-8,10,15-17,20-22H2,1H3,(H2,31,32,36);1H3,(H,3,4)/t28-;/m0./s1

>  <IUPAC Name>  (1) 
acetic acid;1-ethyl-3-[[3-[4-[6-[[(2R)-2-hydroxy-2-[4-hydroxy-3-(hydroxymethyl)phenyl]ethyl]amino]hexoxy]butyl]phenyl]methyl]urea

$$$$
