
     RDKit          3D

 95 98  0  0  0  0  0  0  0  0999 V2000
    5.0474    2.7042    2.4435 C   0  0  0  0  0  0  0  0  0  0  0  0
    4.4620    1.3238    2.4601 C   0  0  0  0  0  0  0  0  0  0  0  0
    3.6776    1.0404    3.3950 O   0  0  0  0  0  0  0  0  0  0  0  0
    4.8167    0.3913    1.4223 N   0  0  0  0  0  0  0  0  0  0  0  0
    4.3137   -0.9490    1.3609 C   0  0  2  0  0  0  0  0  0  0  0  0
    3.2897   -1.2013    0.3326 C   0  0  0  0  0  0  0  0  0  0  0  0
    2.8980   -2.4251    0.2397 O   0  0  0  0  0  0  0  0  0  0  0  0
    2.7340   -0.2143   -0.5228 N   0  0  0  0  0  0  0  0  0  0  0  0
    1.7124   -0.6620   -1.5037 C   0  0  1  0  0  0  0  0  0  0  0  0
    0.3569   -0.2337   -0.9908 C   0  0  0  0  0  0  0  0  0  0  0  0
    0.4433    0.5904   -0.0281 O   0  0  0  0  0  0  0  0  0  0  0  0
   -0.8502   -0.7026   -1.5290 N   0  0  0  0  0  0  0  0  0  0  0  0
   -0.7481   -1.7709   -2.5629 C   0  0  0  0  0  0  0  0  0  0  0  0
   -1.5311   -2.9096   -1.9469 C   0  0  0  0  0  0  0  0  0  0  0  0
   -1.1780   -4.1748   -2.4210 C   0  0  0  0  0  0  0  0  0  0  0  0
   -1.8220   -5.3055   -1.9149 C   0  0  0  0  0  0  0  0  0  0  0  0
   -2.7950   -5.1192   -0.9529 C   0  0  0  0  0  0  0  0  0  0  0  0
   -3.1254   -3.8517   -0.5006 C   0  0  0  0  0  0  0  0  0  0  0  0
   -2.4940   -2.7329   -0.9960 C   0  0  0  0  0  0  0  0  0  0  0  0
   -2.9128   -1.4006   -0.4672 C   0  0  0  0  0  0  0  0  0  0  0  0
   -2.1752   -0.2888   -1.2352 C   0  0  0  0  0  0  0  0  0  0  0  0
   -2.4296    0.9662   -0.5598 C   0  0  0  0  0  0  0  0  0  0  0  0
   -1.6252    1.8683   -0.2471 O   0  0  0  0  0  0  0  0  0  0  0  0
   -3.8022    1.2392   -0.1802 N   0  0  0  0  0  0  0  0  0  0  0  0
   -4.1288    2.4533    0.5004 C   0  0  1  0  0  0  0  0  0  0  0  0
   -4.9295    3.3026   -0.4139 C   0  0  0  0  0  0  0  0  0  0  0  0
   -5.3477    4.4584   -0.0616 O   0  0  0  0  0  0  0  0  0  0  0  0
   -5.2862    2.8929   -1.7400 N   0  0  0  0  0  0  0  0  0  0  0  0
   -4.9428    2.2209    1.7535 C   0  0  0  0  0  0  0  0  0  0  0  0
   -6.2285    1.5416    1.4765 C   0  0  0  0  0  0  0  0  0  0  0  0
   -7.4114    2.1973    1.2189 C   0  0  0  0  0  0  0  0  0  0  0  0
   -8.5741    1.4981    0.9670 C   0  0  0  0  0  0  0  0  0  0  0  0
   -8.5726    0.0995    0.9688 C   0  0  0  0  0  0  0  0  0  0  0  0
   -7.3905   -0.5718    1.2267 C   0  0  0  0  0  0  0  0  0  0  0  0
   -6.2229    0.1358    1.4797 C   0  0  0  0  0  0  0  0  0  0  0  0
   -9.7572   -0.6444    0.7137 N   0  0  0  0  0  0  0  0  0  0  0  0
  -10.8327   -0.0617    0.4789 O   0  0  0  0  0  0  0  0  0  0  0  0
   -9.6715   -2.0099    0.7368 O   0  0  0  0  0  0  0  0  0  0  0  0
    1.9821   -0.0211   -2.8280 C   0  0  0  0  0  0  0  0  0  0  0  0
    1.9359    1.4866   -2.7675 C   0  0  0  0  0  0  0  0  0  0  0  0
    0.7035    2.0875   -2.9709 C   0  0  0  0  0  0  0  0  0  0  0  0
    0.5684    3.4549   -2.9534 C   0  0  0  0  0  0  0  0  0  0  0  0
    1.7058    4.1979   -2.7255 C   0  0  0  0  0  0  0  0  0  0  0  0
    2.9284    3.6040   -2.5232 C   0  0  0  0  0  0  0  0  0  0  0  0
    3.0937    2.2166   -2.5358 C   0  0  0  0  0  0  0  0  0  0  0  0
    1.5246    5.9434   -2.7077 Cl  0  0  0  0  0  0  0  0  0  0  0  0
    4.0641   -1.6409    2.6490 C   0  0  0  0  0  0  0  0  0  0  0  0
    5.2453   -1.9290    3.4570 C   0  0  0  0  0  0  0  0  0  0  0  0
    6.2280   -0.9271    3.8763 C   0  0  0  0  0  0  0  0  0  0  0  0
    7.0138   -0.3251    2.7912 N   0  0  0  0  0  0  0  0  0  0  0  0
    8.0324   -0.9835    2.2899 C   0  0  0  0  0  0  0  0  0  0  0  0
    8.8303   -0.4510    1.2384 N   0  0  0  0  0  0  0  0  0  0  0  0
    8.3449   -2.2687    2.8109 N   0  0  0  0  0  0  0  0  0  0  0  0
    6.1446    2.6969    2.2885 H   0  0  0  0  0  0  0  0  0  0  0  0
    4.5869    3.1805    1.5365 H   0  0  0  0  0  0  0  0  0  0  0  0
    4.7568    3.2683    3.3483 H   0  0  0  0  0  0  0  0  0  0  0  0
    5.4795    0.7706    0.7019 H   0  0  0  0  0  0  0  0  0  0  0  0
    5.2530   -1.5378    0.9905 H   0  0  0  0  0  0  0  0  0  0  0  0
    3.0391    0.7664   -0.4510 H   0  0  0  0  0  0  0  0  0  0  0  0
    1.7224   -1.7483   -1.4789 H   0  0  0  0  0  0  0  0  0  0  0  0
   -1.2259   -1.3790   -3.4734 H   0  0  0  0  0  0  0  0  0  0  0  0
    0.2608   -2.0785   -2.7729 H   0  0  0  0  0  0  0  0  0  0  0  0
   -0.3984   -4.2757   -3.1852 H   0  0  0  0  0  0  0  0  0  0  0  0
   -1.5366   -6.2802   -2.2904 H   0  0  0  0  0  0  0  0  0  0  0  0
   -3.2761   -6.0219   -0.5790 H   0  0  0  0  0  0  0  0  0  0  0  0
   -3.9014   -3.7382    0.2630 H   0  0  0  0  0  0  0  0  0  0  0  0
   -2.8151   -1.3057    0.6204 H   0  0  0  0  0  0  0  0  0  0  0  0
   -4.0148   -1.2956   -0.7041 H   0  0  0  0  0  0  0  0  0  0  0  0
   -2.7076   -0.2496   -2.2466 H   0  0  0  0  0  0  0  0  0  0  0  0
   -4.5763    0.5740   -0.3872 H   0  0  0  0  0  0  0  0  0  0  0  0
   -3.2079    3.0614    0.7260 H   0  0  0  0  0  0  0  0  0  0  0  0
   -6.2750    2.9580   -2.0326 H   0  0  0  0  0  0  0  0  0  0  0  0
   -4.5171    2.5414   -2.3642 H   0  0  0  0  0  0  0  0  0  0  0  0
   -5.1149    3.2290    2.2151 H   0  0  0  0  0  0  0  0  0  0  0  0
   -4.3931    1.5861    2.5045 H   0  0  0  0  0  0  0  0  0  0  0  0
   -7.4385    3.2575    1.2151 H   0  0  0  0  0  0  0  0  0  0  0  0
   -9.5116    1.9979    0.7619 H   0  0  0  0  0  0  0  0  0  0  0  0
   -7.3817   -1.6671    1.2306 H   0  0  0  0  0  0  0  0  0  0  0  0
   -5.3121   -0.4091    1.6778 H   0  0  0  0  0  0  0  0  0  0  0  0
    1.2395   -0.2836   -3.5907 H   0  0  0  0  0  0  0  0  0  0  0  0
    3.0109   -0.3059   -3.2096 H   0  0  0  0  0  0  0  0  0  0  0  0
   -0.1912    1.5049   -3.1494 H   0  0  0  0  0  0  0  0  0  0  0  0
   -0.3877    3.9010   -3.1121 H   0  0  0  0  0  0  0  0  0  0  0  0
    3.7679    4.2613   -2.3533 H   0  0  0  0  0  0  0  0  0  0  0  0
    4.0525    1.7453   -2.3811 H   0  0  0  0  0  0  0  0  0  0  0  0
    3.6294   -2.6607    2.3460 H   0  0  0  0  0  0  0  0  0  0  0  0
    3.2049   -1.2063    3.2253 H   0  0  0  0  0  0  0  0  0  0  0  0
    4.9419   -2.5443    4.3940 H   0  0  0  0  0  0  0  0  0  0  0  0
    5.8771   -2.7567    2.9337 H   0  0  0  0  0  0  0  0  0  0  0  0
    7.0252   -1.4261    4.5146 H   0  0  0  0  0  0  0  0  0  0  0  0
    5.8408   -0.1293    4.5565 H   0  0  0  0  0  0  0  0  0  0  0  0
    9.0823    0.5597    1.1536 H   0  0  0  0  0  0  0  0  0  0  0  0
    9.1726   -1.1525    0.5131 H   0  0  0  0  0  0  0  0  0  0  0  0
    8.1517   -3.1246    2.2539 H   0  0  0  0  0  0  0  0  0  0  0  0
    8.7758   -2.4221    3.7554 H   0  0  0  0  0  0  0  0  0  0  0  0
  1  2  1  0
  2  3  2  0
  2  4  1  0
  4  5  1  0
  5  6  1  0
  6  7  2  0
  6  8  1  0
  8  9  1  0
  9 10  1  0
 10 11  2  0
 10 12  1  0
 12 13  1  0
 13 14  1  0
 14 15  2  0
 15 16  1  0
 16 17  2  0
 17 18  1  0
 18 19  2  0
 19 20  1  0
 20 21  1  0
 21 22  1  0
 22 23  2  0
 22 24  1  0
 24 25  1  0
 25 26  1  0
 26 27  2  0
 26 28  1  0
 25 29  1  0
 29 30  1  0
 30 31  2  0
 31 32  1  0
 32 33  2  0
 33 34  1  0
 34 35  2  0
 33 36  1  0
 36 37  2  0
 36 38  1  0
  9 39  1  0
 39 40  1  0
 40 41  2  0
 41 42  1  0
 42 43  2  0
 43 44  1  0
 44 45  2  0
 43 46  1  0
  5 47  1  0
 47 48  1  0
 48 49  1  0
 49 50  1  0
 50 51  2  3
 51 52  1  0
 51 53  1  0
 21 12  1  0
 35 30  1  0
 45 40  1  0
 19 14  1  0
  1 54  1  0
  1 55  1  0
  1 56  1  0
  4 57  1  0
  5 58  1  6
  8 59  1  0
  9 60  1  6
 13 61  1  0
 13 62  1  0
 15 63  1  0
 16 64  1  0
 17 65  1  0
 18 66  1  0
 20 67  1  0
 20 68  1  0
 21 69  1  0
 24 70  1  0
 25 71  1  1
 28 72  1  0
 28 73  1  0
 29 74  1  0
 29 75  1  0
 31 76  1  0
 32 77  1  0
 34 78  1  0
 35 79  1  0
 39 80  1  0
 39 81  1  0
 41 82  1  0
 42 83  1  0
 44 84  1  0
 45 85  1  0
 47 86  1  0
 47 87  1  0
 48 88  1  0
 48 89  1  0
 49 90  1  0
 49 91  1  0
 52 92  1  0
 52 93  1  0
 53 94  1  0
 53 95  1  0
M  CHG  2  36   1  38  -1
M  END
>  <Ligand ID>  (1) 
LIG0000890

>  <Ligand>  (1) 
CHEMBL3287328

>  <SMILES>  (1) 
CC(=O)N[C@H](C(=O)N[C@@H](C(=O)N1Cc2ccccc2CC1C(=O)N[C@@H](C(=O)N)Cc1ccc(cc1)[N+](=O)[O-])Cc1ccc(cc1)Cl)CCCN=C(N)N

>  <CID>  (1) 
90643808.0

>  <ChEMBL ID>  (1) 
nan

>  <InChiKey>  (1) 
VUNSGMTWWHNMCR-LVCGBWMPSA-N

>  <InChi>  (1) 
InChI=1S/C36H42ClN9O7/c1-21(47)42-28(7-4-16-41-36(39)40)33(49)44-30(18-22-8-12-26(37)13-9-22)35(51)45-20-25-6-3-2-5-24(25)19-31(45)34(50)43-29(32(38)48)17-23-10-14-27(15-11-23)46(52)53/h2-3,5-6,8-15,28-31H,4,7,16-20H2,1H3,(H2,38,48)(H,42,47)(H,43,50)(H,44,49)(H4,39,40,41)/t28-,29+,30+,31?/m0/s1

>  <IUPAC Name>  (1) 
2-[(2R)-2-[[(2S)-2-acetamido-5-(diaminomethylideneamino)pentanoyl]amino]-3-(4-chlorophenyl)propanoyl]-N-[(2R)-1-amino-3-(4-nitrophenyl)-1-oxopropan-2-yl]-3,4-dihydro-1H-isoquinoline-3-carboxamide

$$$$
