
     RDKit          3D

 83 90  0  0  0  0  0  0  0  0999 V2000
   -2.6620    6.6424    0.0576 C   0  0  0  0  0  0  0  0  0  0  0  0
   -2.1536    5.4541    0.5998 O   0  0  0  0  0  0  0  0  0  0  0  0
   -2.5214    4.1920    0.1806 C   0  0  0  0  0  0  0  0  0  0  0  0
   -3.4520    3.9768   -0.8421 C   0  0  0  0  0  0  0  0  0  0  0  0
   -3.8131    2.6892   -1.2552 C   0  0  0  0  0  0  0  0  0  0  0  0
   -3.2201    1.5906   -0.6185 C   0  0  0  0  0  0  0  0  0  0  0  0
   -2.3399    1.8821    0.3535 C   0  0  0  0  0  0  0  0  0  0  0  0
   -1.9361    3.0952    0.8083 C   0  0  0  0  0  0  0  0  0  0  0  0
   -1.0123    2.8591    1.8074 O   0  0  0  0  0  0  0  0  0  0  0  0
   -0.5798    1.4947    1.8207 C   0  0  1  0  0  0  0  0  0  0  0  0
   -1.6927    0.7660    1.0937 C   0  0  1  0  0  0  0  0  0  0  0  0
   -2.6252    0.1305    2.0462 C   0  0  0  0  0  0  0  0  0  0  0  0
   -3.1547   -1.2113    1.7221 C   0  0  0  0  0  0  0  0  0  0  0  0
   -3.0922   -1.6793    0.4007 N   0  0  0  0  0  0  0  0  0  0  0  0
   -2.4597   -0.8139   -0.5464 C   0  0  1  0  0  0  0  0  0  0  0  0
   -3.4767    0.1910   -0.9820 C   0  0  0  0  0  0  0  0  0  0  0  0
   -1.2271   -0.1651    0.0071 C   0  0  1  0  0  0  0  0  0  0  0  0
   -0.5158    0.6351   -1.0651 C   0  0  0  0  0  0  0  0  0  0  0  0
    0.4561    1.5903   -0.4200 C   0  0  0  0  0  0  0  0  0  0  0  0
    0.6672    1.2316    1.0205 C   0  0  1  0  0  0  0  0  0  0  0  0
    1.7630    1.8348    1.5806 O   0  0  0  0  0  0  0  0  0  0  0  0
    1.7177    3.1977    1.7051 C   0  0  0  0  0  0  0  0  0  0  0  0
    0.9085   -0.2879    1.1685 C   0  0  1  0  0  0  0  0  0  0  0  0
   -0.1987   -1.1022    0.5661 C   0  0  0  0  0  0  0  0  0  0  0  0
    2.2686   -0.5548    0.5680 C   0  0  0  0  0  0  0  0  0  0  0  0
    2.6566   -1.9150    0.6203 N   0  0  0  0  0  0  0  0  0  0  0  0
    3.4610   -2.4240    2.0261 S   0  0  0  0  0  0  0  0  0  0  0  0
    3.7877   -3.9008    1.8344 O   0  0  0  0  0  0  0  0  0  0  0  0
    2.5984   -2.2929    3.2585 O   0  0  0  0  0  0  0  0  0  0  0  0
    4.9817   -1.6075    2.3242 C   0  0  0  0  0  0  0  0  0  0  0  0
    3.1031   -2.4612   -0.6024 C   0  0  0  0  0  0  0  0  0  0  0  0
    4.1758   -1.7724   -1.3105 C   0  0  0  0  0  0  0  0  0  0  0  0
    5.4923   -2.0885   -0.9637 C   0  0  0  0  0  0  0  0  0  0  0  0
    6.5721   -1.4910   -1.5925 C   0  0  0  0  0  0  0  0  0  0  0  0
    6.3965   -0.5568   -2.5893 C   0  0  0  0  0  0  0  0  0  0  0  0
    5.0991   -0.2450   -2.9317 C   0  0  0  0  0  0  0  0  0  0  0  0
    4.0185   -0.8385   -2.3075 C   0  0  0  0  0  0  0  0  0  0  0  0
   -3.0534   -3.0625    0.1877 C   0  0  0  0  0  0  0  0  0  0  0  0
   -2.9812   -3.3785   -1.2884 C   0  0  0  0  0  0  0  0  0  0  0  0
   -4.1320   -2.8773   -2.1787 C   0  0  0  0  0  0  0  0  0  0  0  0
   -3.9639   -4.3554   -1.8562 C   0  0  0  0  0  0  0  0  0  0  0  0
   -2.3578    6.8018   -1.0002 H   0  0  0  0  0  0  0  0  0  0  0  0
   -3.7817    6.6078    0.1504 H   0  0  0  0  0  0  0  0  0  0  0  0
   -2.3401    7.5065    0.6488 H   0  0  0  0  0  0  0  0  0  0  0  0
   -3.9078    4.8384   -1.3300 H   0  0  0  0  0  0  0  0  0  0  0  0
   -4.5242    2.5080   -2.0383 H   0  0  0  0  0  0  0  0  0  0  0  0
   -0.4600    1.1201    2.8391 H   0  0  0  0  0  0  0  0  0  0  0  0
   -2.2255    0.1693    3.1172 H   0  0  0  0  0  0  0  0  0  0  0  0
   -3.5168    0.8312    2.1284 H   0  0  0  0  0  0  0  0  0  0  0  0
   -2.6696   -1.9548    2.4125 H   0  0  0  0  0  0  0  0  0  0  0  0
   -4.2426   -1.2595    2.0442 H   0  0  0  0  0  0  0  0  0  0  0  0
   -2.1368   -1.4096   -1.4215 H   0  0  0  0  0  0  0  0  0  0  0  0
   -4.4866   -0.0528   -0.5289 H   0  0  0  0  0  0  0  0  0  0  0  0
   -3.6984    0.0916   -2.0927 H   0  0  0  0  0  0  0  0  0  0  0  0
   -1.1611    1.0678   -1.8253 H   0  0  0  0  0  0  0  0  0  0  0  0
    0.1113   -0.1284   -1.6158 H   0  0  0  0  0  0  0  0  0  0  0  0
    0.0538    2.6048   -0.4894 H   0  0  0  0  0  0  0  0  0  0  0  0
    1.4176    1.5806   -0.9800 H   0  0  0  0  0  0  0  0  0  0  0  0
    1.5907    3.7373    0.7307 H   0  0  0  0  0  0  0  0  0  0  0  0
    1.0684    3.5883    2.5101 H   0  0  0  0  0  0  0  0  0  0  0  0
    2.7633    3.5033    2.0244 H   0  0  0  0  0  0  0  0  0  0  0  0
    0.8963   -0.4385    2.2816 H   0  0  0  0  0  0  0  0  0  0  0  0
    0.2441   -1.6476   -0.3064 H   0  0  0  0  0  0  0  0  0  0  0  0
   -0.5734   -1.8394    1.2874 H   0  0  0  0  0  0  0  0  0  0  0  0
    2.9756    0.0901    1.1579 H   0  0  0  0  0  0  0  0  0  0  0  0
    2.2163   -0.2142   -0.4719 H   0  0  0  0  0  0  0  0  0  0  0  0
    5.0911   -0.7241    1.6445 H   0  0  0  0  0  0  0  0  0  0  0  0
    5.8675   -2.2725    2.2723 H   0  0  0  0  0  0  0  0  0  0  0  0
    4.9952   -1.1823    3.3463 H   0  0  0  0  0  0  0  0  0  0  0  0
    2.2340   -2.5308   -1.3008 H   0  0  0  0  0  0  0  0  0  0  0  0
    3.3689   -3.5416   -0.4125 H   0  0  0  0  0  0  0  0  0  0  0  0
    5.7302   -2.8088   -0.1967 H   0  0  0  0  0  0  0  0  0  0  0  0
    7.5806   -1.7550   -1.3034 H   0  0  0  0  0  0  0  0  0  0  0  0
    7.2687   -0.1203   -3.0477 H   0  0  0  0  0  0  0  0  0  0  0  0
    4.9784    0.5016   -3.7282 H   0  0  0  0  0  0  0  0  0  0  0  0
    3.0474   -0.5521   -2.6335 H   0  0  0  0  0  0  0  0  0  0  0  0
   -2.1991   -3.5977    0.6510 H   0  0  0  0  0  0  0  0  0  0  0  0
   -3.9856   -3.5348    0.5724 H   0  0  0  0  0  0  0  0  0  0  0  0
   -1.9583   -3.3731   -1.7474 H   0  0  0  0  0  0  0  0  0  0  0  0
   -3.8969   -2.5116   -3.1936 H   0  0  0  0  0  0  0  0  0  0  0  0
   -4.9548   -2.3316   -1.6592 H   0  0  0  0  0  0  0  0  0  0  0  0
   -4.6941   -4.7537   -1.1232 H   0  0  0  0  0  0  0  0  0  0  0  0
   -3.5886   -4.9849   -2.6746 H   0  0  0  0  0  0  0  0  0  0  0  0
  1  2  1  0
  2  3  1  0
  3  4  2  0
  4  5  1  0
  5  6  2  0
  6  7  1  0
  7  8  2  0
  8  9  1  0
  9 10  1  0
 10 11  1  0
 11 12  1  1
 12 13  1  0
 13 14  1  0
 14 15  1  0
 15 16  1  0
 15 17  1  0
 17 18  1  6
 18 19  1  0
 19 20  1  0
 20 21  1  1
 21 22  1  0
 20 23  1  0
 23 24  1  0
 23 25  1  0
 25 26  1  0
 26 27  1  0
 27 28  2  0
 27 29  2  0
 27 30  1  0
 26 31  1  0
 31 32  1  0
 32 33  2  0
 33 34  1  0
 34 35  2  0
 35 36  1  0
 36 37  2  0
 14 38  1  0
 38 39  1  0
 39 40  1  0
 40 41  1  0
  8  3  1  0
 20 10  1  0
 37 32  1  0
 41 39  1  0
 16  6  1  0
 24 17  1  0
 11  7  1  0
 17 11  1  0
  1 42  1  0
  1 43  1  0
  1 44  1  0
  4 45  1  0
  5 46  1  0
 10 47  1  1
 12 48  1  0
 12 49  1  0
 13 50  1  0
 13 51  1  0
 15 52  1  6
 16 53  1  0
 16 54  1  0
 18 55  1  0
 18 56  1  0
 19 57  1  0
 19 58  1  0
 22 59  1  0
 22 60  1  0
 22 61  1  0
 23 62  1  1
 24 63  1  0
 24 64  1  0
 25 65  1  0
 25 66  1  0
 30 67  1  0
 30 68  1  0
 30 69  1  0
 31 70  1  0
 31 71  1  0
 33 72  1  0
 34 73  1  0
 35 74  1  0
 36 75  1  0
 37 76  1  0
 38 77  1  0
 38 78  1  0
 39 79  1  0
 40 80  1  0
 40 81  1  0
 41 82  1  0
 41 83  1  0
M  END
>  <Ligand ID>  (1) 
LIG0004776

>  <Ligand>  (1) 
CHEMBL3927878

>  <SMILES>  (1) 
COc1ccc2c3c1O[C@H]1[C@]43CCN([C@@H](C2)[C@]24CC[C@]1(OC)[C@@H](C2)CN(S(=O)(=O)C)Cc1ccccc1)CC1CC1

>  <CID>  (1) 
134140922.0

>  <ChEMBL ID>  (1) 
nan

>  <InChiKey>  (1) 
DZQAFVKZCCYHNH-MFQPRELCSA-N

>  <InChi>  (1) 
InChI=1S/C33H42N2O5S/c1-38-26-12-11-24-17-27-31-13-14-33(39-2,25(18-31)21-35(41(3,36)37)20-22-7-5-4-6-8-22)30-32(31,28(24)29(26)40-30)15-16-34(27)19-23-9-10-23/h4-8,11-12,23,25,27,30H,9-10,13-21H2,1-3H3/t25-,27-,30-,31-,32+,33-/m0/s1

>  <IUPAC Name>  (1) 
N-benzyl-N-[[(1R,2R,6S,14S,15S,16S)-5-(cyclopropylmethyl)-11,15-dimethoxy-13-oxa-5-azahexacyclo[13.2.2.12,8.01,6.02,14.012,20]icosa-8(20),9,11-trien-16-yl]methyl]methanesulfonamide

$$$$
