
     RDKit          3D

 72 75  0  0  0  0  0  0  0  0999 V2000
    8.4894   -1.9843    0.4376 O   0  0  0  0  0  0  0  0  0  0  0  0
    7.3555   -1.2304    0.7769 C   0  0  0  0  0  0  0  0  0  0  0  0
    6.3346   -1.7820    1.4924 C   0  0  0  0  0  0  0  0  0  0  0  0
    5.2517   -1.0037    1.7971 C   0  0  0  0  0  0  0  0  0  0  0  0
    5.1299    0.3275    1.4169 C   0  0  0  0  0  0  0  0  0  0  0  0
    6.1733    0.8711    0.6924 C   0  0  0  0  0  0  0  0  0  0  0  0
    7.2770    0.0669    0.3855 C   0  0  0  0  0  0  0  0  0  0  0  0
    6.2175    2.2562    0.2085 C   0  0  0  0  0  0  0  0  0  0  0  0
    4.7008    3.1805    0.3699 S   0  0  0  0  0  0  0  0  0  0  0  0
    3.3929    2.0164    0.7723 C   0  0  2  0  0  0  0  0  0  0  0  0
    3.9181    1.0813    1.7978 C   0  0  0  0  0  0  0  0  0  0  0  0
    2.8156    1.3936   -0.4306 C   0  0  0  0  0  0  0  0  0  0  0  0
    3.3161    1.6358   -1.5589 O   0  0  0  0  0  0  0  0  0  0  0  0
    1.6791    0.5069   -0.3328 N   0  0  0  0  0  0  0  0  0  0  0  0
    1.1278   -0.0846   -1.4837 C   0  0  1  0  0  0  0  0  0  0  0  0
    1.1151   -1.6081   -1.3933 C   0  0  0  0  0  0  0  0  0  0  0  0
    0.3207   -2.1223   -0.2386 C   0  0  0  0  0  0  0  0  0  0  0  0
    2.5276   -2.1469   -1.2726 C   0  0  0  0  0  0  0  0  0  0  0  0
   -0.1524    0.3607   -2.0463 C   0  0  0  0  0  0  0  0  0  0  0  0
   -1.3358    0.3078   -1.2773 N   0  0  0  0  0  0  0  0  0  0  0  0
   -1.5108    1.1894   -0.1931 C   0  0  0  0  0  0  0  0  0  0  0  0
   -2.5922    0.5924    0.7261 C   0  0  0  0  0  0  0  0  0  0  0  0
   -3.6196   -0.0841   -0.1125 C   0  0  1  0  0  0  0  0  0  0  0  0
   -3.7277    0.5828   -1.4605 C   0  0  2  0  0  0  0  0  0  0  0  0
   -2.4435    0.5527   -2.2144 C   0  0  0  0  0  0  0  0  0  0  0  0
   -4.3108    1.9747   -1.3157 C   0  0  0  0  0  0  0  0  0  0  0  0
   -3.1494   -1.5212   -0.3534 C   0  0  0  0  0  0  0  0  0  0  0  0
   -4.9564   -0.2012    0.5216 C   0  0  0  0  0  0  0  0  0  0  0  0
   -5.9975   -0.8164   -0.1795 C   0  0  0  0  0  0  0  0  0  0  0  0
   -7.2576   -0.9376    0.3947 C   0  0  0  0  0  0  0  0  0  0  0  0
   -7.5358   -0.4688    1.6522 C   0  0  0  0  0  0  0  0  0  0  0  0
   -6.5222    0.1362    2.3486 C   0  0  0  0  0  0  0  0  0  0  0  0
   -5.2600    0.2577    1.7738 C   0  0  0  0  0  0  0  0  0  0  0  0
   -6.8064    0.6087    3.6189 O   0  0  0  0  0  0  0  0  0  0  0  0
    9.3343   -1.5319    0.1119 H   0  0  0  0  0  0  0  0  0  0  0  0
    6.3927   -2.8335    1.8125 H   0  0  0  0  0  0  0  0  0  0  0  0
    4.4492   -1.4864    2.3758 H   0  0  0  0  0  0  0  0  0  0  0  0
    8.1125    0.4772   -0.1862 H   0  0  0  0  0  0  0  0  0  0  0  0
    6.6220    2.2893   -0.8437 H   0  0  0  0  0  0  0  0  0  0  0  0
    7.0195    2.7834    0.8039 H   0  0  0  0  0  0  0  0  0  0  0  0
    2.5757    2.6032    1.2612 H   0  0  0  0  0  0  0  0  0  0  0  0
    4.2016    1.7246    2.6830 H   0  0  0  0  0  0  0  0  0  0  0  0
    3.1725    0.3923    2.1769 H   0  0  0  0  0  0  0  0  0  0  0  0
    1.3526    0.3601    0.6694 H   0  0  0  0  0  0  0  0  0  0  0  0
    1.8963    0.1209   -2.3194 H   0  0  0  0  0  0  0  0  0  0  0  0
    0.7105   -2.0589   -2.3224 H   0  0  0  0  0  0  0  0  0  0  0  0
   -0.5252   -2.7232   -0.6241 H   0  0  0  0  0  0  0  0  0  0  0  0
    0.8961   -2.8288    0.4056 H   0  0  0  0  0  0  0  0  0  0  0  0
   -0.1360   -1.3021    0.3683 H   0  0  0  0  0  0  0  0  0  0  0  0
    3.1133   -1.6731   -0.4643 H   0  0  0  0  0  0  0  0  0  0  0  0
    2.4098   -3.2399   -1.0245 H   0  0  0  0  0  0  0  0  0  0  0  0
    3.0738   -2.1408   -2.2296 H   0  0  0  0  0  0  0  0  0  0  0  0
   -0.3502   -0.3644   -2.9056 H   0  0  0  0  0  0  0  0  0  0  0  0
   -0.1140    1.3326   -2.5942 H   0  0  0  0  0  0  0  0  0  0  0  0
   -0.6826    1.4042    0.4665 H   0  0  0  0  0  0  0  0  0  0  0  0
   -1.9503    2.1466   -0.5764 H   0  0  0  0  0  0  0  0  0  0  0  0
   -2.9538    1.4520    1.3264 H   0  0  0  0  0  0  0  0  0  0  0  0
   -2.1005   -0.1774    1.3602 H   0  0  0  0  0  0  0  0  0  0  0  0
   -4.4954   -0.0261   -2.0224 H   0  0  0  0  0  0  0  0  0  0  0  0
   -2.4240   -0.2081   -3.0452 H   0  0  0  0  0  0  0  0  0  0  0  0
   -2.2309    1.5848   -2.6075 H   0  0  0  0  0  0  0  0  0  0  0  0
   -4.3136    2.3467   -0.2726 H   0  0  0  0  0  0  0  0  0  0  0  0
   -3.8156    2.7124   -1.9626 H   0  0  0  0  0  0  0  0  0  0  0  0
   -5.4033    1.9894   -1.6076 H   0  0  0  0  0  0  0  0  0  0  0  0
   -2.4798   -1.8575    0.4547 H   0  0  0  0  0  0  0  0  0  0  0  0
   -4.0095   -2.2359   -0.3305 H   0  0  0  0  0  0  0  0  0  0  0  0
   -2.6751   -1.6522   -1.3272 H   0  0  0  0  0  0  0  0  0  0  0  0
   -5.8861   -1.2174   -1.1644 H   0  0  0  0  0  0  0  0  0  0  0  0
   -8.0719   -1.4239   -0.1649 H   0  0  0  0  0  0  0  0  0  0  0  0
   -8.5346   -0.5899    2.0494 H   0  0  0  0  0  0  0  0  0  0  0  0
   -4.5158    0.7378    2.3711 H   0  0  0  0  0  0  0  0  0  0  0  0
   -7.6291    1.2064    3.7943 H   0  0  0  0  0  0  0  0  0  0  0  0
  1  2  1  0
  2  3  2  0
  3  4  1  0
  4  5  2  0
  5  6  1  0
  6  7  2  0
  6  8  1  0
  8  9  1  0
  9 10  1  0
 10 11  1  0
 10 12  1  0
 12 13  2  0
 12 14  1  0
 14 15  1  0
 15 16  1  0
 16 17  1  0
 16 18  1  0
 15 19  1  0
 19 20  1  0
 20 21  1  0
 21 22  1  0
 22 23  1  0
 23 24  1  0
 24 25  1  0
 24 26  1  0
 23 27  1  6
 23 28  1  0
 28 29  2  0
 29 30  1  0
 30 31  2  0
 31 32  1  0
 32 33  2  0
 32 34  1  0
  7  2  1  0
 25 20  1  0
 33 28  1  0
 11  5  1  0
  1 35  1  0
  3 36  1  0
  4 37  1  0
  7 38  1  0
  8 39  1  0
  8 40  1  0
 10 41  1  1
 11 42  1  0
 11 43  1  0
 14 44  1  0
 15 45  1  6
 16 46  1  0
 17 47  1  0
 17 48  1  0
 17 49  1  0
 18 50  1  0
 18 51  1  0
 18 52  1  0
 19 53  1  0
 19 54  1  0
 21 55  1  0
 21 56  1  0
 22 57  1  0
 22 58  1  0
 24 59  1  6
 25 60  1  0
 25 61  1  0
 26 62  1  0
 26 63  1  0
 26 64  1  0
 27 65  1  0
 27 66  1  0
 27 67  1  0
 29 68  1  0
 30 69  1  0
 31 70  1  0
 33 71  1  0
 34 72  1  0
M  END
>  <Ligand ID>  (1) 
LIG0002304

>  <Ligand>  (1) 
CHEMBL1083062

>  <SMILES>  (1) 
Oc1ccc2c(c1)CS[C@H](C2)C(=O)N[C@@H](C(C)C)CN1CC[C@@]([C@H](C1)C)(C)c1cccc(c1)O

>  <CID>  (1) 
11712760.0

>  <ChEMBL ID>  (1) 
nan

>  <InChiKey>  (1) 
GZAFXIZAXLELIO-VMGNSXQWSA-N

>  <InChi>  (1) 
InChI=1S/C28H38N2O3S/c1-18(2)25(29-27(33)26-13-20-8-9-24(32)12-21(20)17-34-26)16-30-11-10-28(4,19(3)15-30)22-6-5-7-23(31)14-22/h5-9,12,14,18-19,25-26,31-32H,10-11,13,15-17H2,1-4H3,(H,29,33)/t19-,25+,26+,28+/m0/s1

>  <IUPAC Name>  (1) 
(3R)-7-hydroxy-N-[(2S)-1-[(3R,4R)-4-(3-hydroxyphenyl)-3,4-dimethylpiperidin-1-yl]-3-methylbutan-2-yl]-3,4-dihydro-1H-isothiochromene-3-carboxamide

$$$$
