
     RDKit          3D

 24 23  0  0  0  0  0  0  0  0999 V2000
   -2.2993    0.5691    1.4391 C   0  0  0  0  0  0  0  0  0  0  0  0
   -2.8515   -0.4493    0.4626 C   0  0  0  0  0  0  0  0  0  0  0  0
   -1.8800   -0.6144   -0.6988 C   0  0  0  0  0  0  0  0  0  0  0  0
   -0.5620   -1.0904   -0.1240 C   0  0  0  0  0  0  0  0  0  0  0  0
    0.4417   -1.2767   -1.1908 C   0  0  0  0  0  0  0  0  0  0  0  0
    1.5843   -0.6505   -1.2752 C   0  0  0  0  0  0  0  0  0  0  0  0
    2.0080    0.3353   -0.2909 C   0  0  0  0  0  0  0  0  0  0  0  0
    3.1786    0.9268   -0.4442 C   0  0  0  0  0  0  0  0  0  0  0  0
    3.6391    1.9202    0.5205 C   0  0  0  0  0  0  0  0  0  0  0  0
    2.8918    2.2072    1.5139 O   0  0  0  0  0  0  0  0  0  0  0  0
   -3.1448    1.2128    1.7563 H   0  0  0  0  0  0  0  0  0  0  0  0
   -1.8274    0.0607    2.3257 H   0  0  0  0  0  0  0  0  0  0  0  0
   -1.5527    1.1744    0.8978 H   0  0  0  0  0  0  0  0  0  0  0  0
   -2.9554   -1.4041    1.0178 H   0  0  0  0  0  0  0  0  0  0  0  0
   -3.8622   -0.1496    0.0979 H   0  0  0  0  0  0  0  0  0  0  0  0
   -2.2725   -1.3519   -1.4132 H   0  0  0  0  0  0  0  0  0  0  0  0
   -1.7126    0.3563   -1.1771 H   0  0  0  0  0  0  0  0  0  0  0  0
   -0.7725   -2.1084    0.2741 H   0  0  0  0  0  0  0  0  0  0  0  0
   -0.2413   -0.4510    0.7135 H   0  0  0  0  0  0  0  0  0  0  0  0
    0.1799   -2.0110   -1.9677 H   0  0  0  0  0  0  0  0  0  0  0  0
    2.2245   -0.8865   -2.1135 H   0  0  0  0  0  0  0  0  0  0  0  0
    1.4312    0.6272    0.5696 H   0  0  0  0  0  0  0  0  0  0  0  0
    3.7753    0.6622   -1.2853 H   0  0  0  0  0  0  0  0  0  0  0  0
    4.5800    2.3913    0.3914 H   0  0  0  0  0  0  0  0  0  0  0  0
  1  2  1  0
  2  3  1  0
  3  4  1  0
  4  5  1  0
  5  6  2  0
  6  7  1  0
  7  8  2  0
  8  9  1  0
  9 10  2  0
  1 11  1  0
  1 12  1  0
  1 13  1  0
  2 14  1  0
  2 15  1  0
  3 16  1  0
  3 17  1  0
  4 18  1  0
  4 19  1  0
  5 20  1  0
  6 21  1  0
  7 22  1  0
  8 23  1  0
  9 24  1  0
M  END
>  <Ligand ID>  (1) 
LIG0002067

>  <Ligand>  (1) 
(2E,4Z)-nona-2,4-dienal

>  <SMILES>  (1) 
CCCC/C=C\C=C\C=O

>  <CID>  (1) 
6429282.0

>  <ChEMBL ID>  (1) 
nan

>  <InChiKey>  (1) 
ZHHYXNZJDGDGPJ-IGTJQSIKSA-N

>  <InChi>  (1) 
InChI=1S/C9H14O/c1-2-3-4-5-6-7-8-9-10/h5-9H,2-4H2,1H3/b6-5-,8-7+

>  <IUPAC Name>  (1) 
(2E,4Z)-nona-2,4-dienal

$$$$
