
     RDKit          3D

 46 47  0  0  0  0  0  0  0  0999 V2000
   -1.3222    3.0120    0.2596 O   0  0  0  0  0  0  0  0  0  0  0  0
   -1.7075    1.7013    0.5419 C   0  0  2  0  0  0  0  0  0  0  0  0
   -1.0902    0.7964   -0.4563 C   0  0  1  0  0  0  0  0  0  0  0  0
   -0.0462   -0.1126    0.1898 C   0  0  0  0  0  0  0  0  0  0  0  0
    0.9580    0.5833    0.8142 O   0  0  0  0  0  0  0  0  0  0  0  0
    2.1200   -0.3828    1.5328 P   0  0  0  0  0  0  0  0  0  0  0  0
    1.5560   -1.4908    2.3694 O   0  0  0  0  0  0  0  0  0  0  0  0
    3.0927   -1.1205    0.3505 O   0  0  0  0  0  0  0  0  0  0  0  0
    4.0974    0.0824   -0.2820 P   0  0  0  0  0  0  0  0  0  0  0  0
    3.3394    0.7760   -1.3919 O   0  0  0  0  0  0  0  0  0  0  0  0
    5.5544   -0.7305   -0.9983 C   0  0  0  0  0  0  0  0  0  0  0  0
    6.9745   -0.5304    0.1111 P   0  0  0  0  0  0  0  0  0  0  0  0
    7.2522    0.9305    0.3074 O   0  0  0  0  0  0  0  0  0  0  0  0
    8.3175   -1.2692   -0.6299 O   0  0  0  0  0  0  0  0  0  0  0  0
    6.6549   -1.2732    1.5908 O   0  0  0  0  0  0  0  0  0  0  0  0
    5.2026   -2.4416   -1.2833 Cl  0  0  0  0  0  0  0  0  0  0  0  0
    5.9133    0.0378   -2.5625 Cl  0  0  0  0  0  0  0  0  0  0  0  0
    4.5255    1.1815    0.9298 O   0  0  0  0  0  0  0  0  0  0  0  0
    3.1068    0.6202    2.4848 O   0  0  0  0  0  0  0  0  0  0  0  0
   -2.0834    0.0644   -1.0738 O   0  0  0  0  0  0  0  0  0  0  0  0
   -3.2888    0.6856   -0.8691 C   0  0  2  0  0  0  0  0  0  0  0  0
   -3.1946    1.5233    0.3707 C   0  0  2  0  0  0  0  0  0  0  0  0
   -3.8342    2.7353    0.2502 O   0  0  0  0  0  0  0  0  0  0  0  0
   -4.3697   -0.2743   -0.7330 N   0  0  0  0  0  0  0  0  0  0  0  0
   -4.1645   -1.4754   -0.1637 C   0  0  0  0  0  0  0  0  0  0  0  0
   -5.1792   -2.4013   -0.0252 C   0  0  0  0  0  0  0  0  0  0  0  0
   -6.4310   -2.0440   -0.4996 C   0  0  0  0  0  0  0  0  0  0  0  0
   -7.3829   -2.8534   -0.3952 O   0  0  0  0  0  0  0  0  0  0  0  0
   -6.6383   -0.8547   -1.0644 N   0  0  0  0  0  0  0  0  0  0  0  0
   -5.6278   -0.0012   -1.1728 C   0  0  0  0  0  0  0  0  0  0  0  0
   -5.7976    1.1304   -1.7032 O   0  0  0  0  0  0  0  0  0  0  0  0
   -0.7171    3.0562   -0.5249 H   0  0  0  0  0  0  0  0  0  0  0  0
   -1.4533    1.3783    1.5730 H   0  0  0  0  0  0  0  0  0  0  0  0
   -0.5350    1.3335   -1.2566 H   0  0  0  0  0  0  0  0  0  0  0  0
    0.4232   -0.6519   -0.6748 H   0  0  0  0  0  0  0  0  0  0  0  0
   -0.5141   -0.8857    0.8150 H   0  0  0  0  0  0  0  0  0  0  0  0
    9.1323   -0.8402   -0.2373 H   0  0  0  0  0  0  0  0  0  0  0  0
    6.1785   -2.1326    1.4621 H   0  0  0  0  0  0  0  0  0  0  0  0
    5.2404    0.8395    1.4942 H   0  0  0  0  0  0  0  0  0  0  0  0
    2.8107    1.5650    2.4711 H   0  0  0  0  0  0  0  0  0  0  0  0
   -3.4808    1.3829   -1.7226 H   0  0  0  0  0  0  0  0  0  0  0  0
   -3.6527    0.9667    1.2118 H   0  0  0  0  0  0  0  0  0  0  0  0
   -4.1696    3.0005    1.1424 H   0  0  0  0  0  0  0  0  0  0  0  0
   -3.1771   -1.6957    0.1841 H   0  0  0  0  0  0  0  0  0  0  0  0
   -5.0160   -3.3838    0.4393 H   0  0  0  0  0  0  0  0  0  0  0  0
   -7.5763   -0.5373   -1.4412 H   0  0  0  0  0  0  0  0  0  0  0  0
  1  2  1  0
  2  3  1  0
  3  4  1  0
  4  5  1  0
  5  6  1  0
  6  7  2  0
  6  8  1  0
  8  9  1  0
  9 10  2  0
  9 11  1  0
 11 12  1  0
 12 13  2  0
 12 14  1  0
 12 15  1  0
 11 16  1  0
 11 17  1  0
  9 18  1  0
  6 19  1  0
  3 20  1  0
 20 21  1  0
 21 22  1  0
 22 23  1  0
 21 24  1  0
 24 25  1  0
 25 26  2  0
 26 27  1  0
 27 28  2  0
 27 29  1  0
 29 30  1  0
 30 31  2  0
 22  2  1  0
 30 24  1  0
  1 32  1  0
  2 33  1  1
  3 34  1  6
  4 35  1  0
  4 36  1  0
 14 37  1  0
 15 38  1  0
 18 39  1  0
 19 40  1  0
 21 41  1  6
 22 42  1  1
 23 43  1  0
 25 44  1  0
 26 45  1  0
 29 46  1  0
M  END
>  <Ligand ID>  (1) 
LIG0002813

>  <Ligand>  (1) 
CHEMBL1765114

>  <SMILES>  (1) 
O[C@@H]1[C@@H](COP(=O)(OP(=O)(C(P(=O)(O)O)(Cl)Cl)O)O)O[C@H]([C@@H]1O)n1ccc(=O)[nH]c1=O

>  <CID>  (1) 
11534074.0

>  <ChEMBL ID>  (1) 
nan

>  <InChiKey>  (1) 
KPTMPYLAZMDWPG-XVFCMESISA-N

>  <InChi>  (1) 
InChI=1S/C10H15Cl2N2O14P3/c11-10(12,29(19,20)21)30(22,23)28-31(24,25)26-3-4-6(16)7(17)8(27-4)14-2-1-5(15)13-9(14)18/h1-2,4,6-8,16-17H,3H2,(H,22,23)(H,24,25)(H,13,15,18)(H2,19,20,21)/t4-,6-,7-,8-/m1/s1

>  <IUPAC Name>  (1) 
[dichloro-[[[(2R,3S,4R,5R)-5-(2,4-dioxopyrimidin-1-yl)-3,4-dihydroxyoxolan-2-yl]methoxy-hydroxyphosphoryl]oxy-hydroxyphosphoryl]methyl]phosphonic acid

$$$$
