
     RDKit          3D

 67 71  0  0  0  0  0  0  0  0999 V2000
   10.7396    0.3153   -0.3624 C   0  0  0  0  0  0  0  0  0  0  0  0
    9.6964   -0.6153   -0.5323 O   0  0  0  0  0  0  0  0  0  0  0  0
    8.4521   -0.3056   -0.0117 C   0  0  0  0  0  0  0  0  0  0  0  0
    8.1808    0.8686    0.6650 C   0  0  0  0  0  0  0  0  0  0  0  0
    6.9145    1.1427    1.1736 C   0  0  0  0  0  0  0  0  0  0  0  0
    5.9043    0.1933    0.9848 C   0  0  0  0  0  0  0  0  0  0  0  0
    6.1851   -0.9748    0.3084 C   0  0  0  0  0  0  0  0  0  0  0  0
    7.4377   -1.2459   -0.1950 C   0  0  0  0  0  0  0  0  0  0  0  0
    4.2971    0.5333    1.6286 S   0  0  0  0  0  0  0  0  0  0  0  0
    3.6971   -0.8346    1.9065 O   0  0  0  0  0  0  0  0  0  0  0  0
    4.3906    1.3464    2.8894 O   0  0  0  0  0  0  0  0  0  0  0  0
    3.4328    1.3592    0.3930 N   0  0  0  0  0  0  0  0  0  0  0  0
    3.3241    0.4997   -0.7479 C   0  0  0  0  0  0  0  0  0  0  0  0
    2.0064    0.6523   -1.4705 C   0  0  0  0  0  0  0  0  0  0  0  0
    0.8292    0.4113   -0.5358 C   0  0  0  0  0  0  0  0  0  0  0  0
    1.1960    0.7041    0.9226 C   0  0  0  0  0  0  0  0  0  0  0  0
    2.1936    1.8331    0.8991 C   0  0  0  0  0  0  0  0  0  0  0  0
    0.4404   -0.9474   -0.6437 N   0  0  0  0  0  0  0  0  0  0  0  0
   -0.5992   -1.4427    0.1618 C   0  0  0  0  0  0  0  0  0  0  0  0
   -1.9382   -0.8998   -0.2123 C   0  0  1  0  0  0  0  0  0  0  0  0
   -3.0261   -1.4053    0.7263 C   0  0  0  0  0  0  0  0  0  0  0  0
   -4.2436   -0.8765    0.3726 O   0  0  0  0  0  0  0  0  0  0  0  0
   -5.0494   -0.9748   -0.7052 C   0  0  0  0  0  0  0  0  0  0  0  0
   -4.8643   -1.7196   -1.8384 C   0  0  0  0  0  0  0  0  0  0  0  0
   -5.7773   -1.7427   -2.8932 C   0  0  0  0  0  0  0  0  0  0  0  0
   -6.9244   -0.9880   -2.8071 C   0  0  0  0  0  0  0  0  0  0  0  0
   -7.1456   -0.2269   -1.6822 C   0  0  0  0  0  0  0  0  0  0  0  0
   -6.2405   -0.2220   -0.6702 C   0  0  0  0  0  0  0  0  0  0  0  0
   -6.7641    0.6377    0.2968 C   0  0  0  0  0  0  0  0  0  0  0  0
   -6.2993    1.0480    1.5494 C   0  0  0  0  0  0  0  0  0  0  0  0
   -7.0482    1.9376    2.3191 C   0  0  0  0  0  0  0  0  0  0  0  0
   -8.2548    2.4191    1.8480 C   0  0  0  0  0  0  0  0  0  0  0  0
   -8.7324    2.0249    0.6101 C   0  0  0  0  0  0  0  0  0  0  0  0
   -7.9812    1.1342   -0.1591 C   0  0  0  0  0  0  0  0  0  0  0  0
   -8.1898    0.5843   -1.3799 N   0  0  0  0  0  0  0  0  0  0  0  0
   -1.9223    0.4861   -0.0688 O   0  0  0  0  0  0  0  0  0  0  0  0
   10.3691    1.3292   -0.6449 H   0  0  0  0  0  0  0  0  0  0  0  0
   11.5746    0.0212   -1.0331 H   0  0  0  0  0  0  0  0  0  0  0  0
   11.0375    0.2655    0.7036 H   0  0  0  0  0  0  0  0  0  0  0  0
    8.9700    1.6023    0.8093 H   0  0  0  0  0  0  0  0  0  0  0  0
    6.7004    2.0703    1.7086 H   0  0  0  0  0  0  0  0  0  0  0  0
    5.4230   -1.7254    0.1502 H   0  0  0  0  0  0  0  0  0  0  0  0
    7.6376   -2.1859   -0.7329 H   0  0  0  0  0  0  0  0  0  0  0  0
    4.1247    0.7599   -1.4688 H   0  0  0  0  0  0  0  0  0  0  0  0
    3.4313   -0.5785   -0.5121 H   0  0  0  0  0  0  0  0  0  0  0  0
    1.9898   -0.1109   -2.2746 H   0  0  0  0  0  0  0  0  0  0  0  0
    1.9880    1.6419   -1.9496 H   0  0  0  0  0  0  0  0  0  0  0  0
    0.0898    1.1752   -0.8183 H   0  0  0  0  0  0  0  0  0  0  0  0
    0.2837    1.1014    1.4325 H   0  0  0  0  0  0  0  0  0  0  0  0
    1.5176   -0.1950    1.4461 H   0  0  0  0  0  0  0  0  0  0  0  0
    1.7429    2.6290    0.2557 H   0  0  0  0  0  0  0  0  0  0  0  0
    2.3627    2.2298    1.9221 H   0  0  0  0  0  0  0  0  0  0  0  0
    0.3323   -1.2826   -1.6274 H   0  0  0  0  0  0  0  0  0  0  0  0
   -0.3415   -1.2565    1.2296 H   0  0  0  0  0  0  0  0  0  0  0  0
   -0.6424   -2.5520    0.0137 H   0  0  0  0  0  0  0  0  0  0  0  0
   -2.2054   -1.2062   -1.2354 H   0  0  0  0  0  0  0  0  0  0  0  0
   -2.7725   -1.0756    1.7800 H   0  0  0  0  0  0  0  0  0  0  0  0
   -3.0396   -2.5320    0.7173 H   0  0  0  0  0  0  0  0  0  0  0  0
   -4.0018   -2.3491   -1.9673 H   0  0  0  0  0  0  0  0  0  0  0  0
   -5.5852   -2.3544   -3.7830 H   0  0  0  0  0  0  0  0  0  0  0  0
   -7.6018   -1.0355   -3.6438 H   0  0  0  0  0  0  0  0  0  0  0  0
   -5.3401    0.6696    1.9308 H   0  0  0  0  0  0  0  0  0  0  0  0
   -6.6219    2.2035    3.2696 H   0  0  0  0  0  0  0  0  0  0  0  0
   -8.8102    3.1186    2.4898 H   0  0  0  0  0  0  0  0  0  0  0  0
   -9.6736    2.4018    0.2437 H   0  0  0  0  0  0  0  0  0  0  0  0
   -9.0276    0.7814   -1.9539 H   0  0  0  0  0  0  0  0  0  0  0  0
   -2.2287    0.7999    0.8035 H   0  0  0  0  0  0  0  0  0  0  0  0
  1  2  1  0
  2  3  1  0
  3  4  2  0
  4  5  1  0
  5  6  2  0
  6  7  1  0
  7  8  2  0
  6  9  1  0
  9 10  2  0
  9 11  2  0
  9 12  1  0
 12 13  1  0
 13 14  1  0
 14 15  1  0
 15 16  1  0
 16 17  1  0
 15 18  1  0
 18 19  1  0
 19 20  1  0
 20 21  1  0
 21 22  1  0
 22 23  1  0
 23 24  2  0
 24 25  1  0
 25 26  2  0
 26 27  1  0
 27 28  2  0
 28 29  1  0
 29 30  2  0
 30 31  1  0
 31 32  2  0
 32 33  1  0
 33 34  2  0
 34 35  1  0
 20 36  1  0
  8  3  1  0
 17 12  1  0
 28 23  1  0
 34 29  1  0
 35 27  1  0
  1 37  1  0
  1 38  1  0
  1 39  1  0
  4 40  1  0
  5 41  1  0
  7 42  1  0
  8 43  1  0
 13 44  1  0
 13 45  1  0
 14 46  1  0
 14 47  1  0
 15 48  1  0
 16 49  1  0
 16 50  1  0
 17 51  1  0
 17 52  1  0
 18 53  1  0
 19 54  1  0
 19 55  1  0
 20 56  1  6
 21 57  1  0
 21 58  1  0
 24 59  1  0
 25 60  1  0
 26 61  1  0
 30 62  1  0
 31 63  1  0
 32 64  1  0
 33 65  1  0
 35 66  1  0
 36 67  1  0
M  END
>  <Ligand ID>  (1) 
LIG0004827

>  <Ligand>  (1) 
CHEMBL306423

>  <SMILES>  (1) 
COc1ccc(cc1)S(=O)(=O)N1CCC(CC1)NC[C@@H](COc1cccc2c1c1ccccc1[nH]2)O

>  <CID>  (1) 
10301101.0

>  <ChEMBL ID>  (1) 
nan

>  <InChiKey>  (1) 
ZOLCDBJAUYIOTD-FQEVSTJZSA-N

>  <InChi>  (1) 
InChI=1S/C27H31N3O5S/c1-34-21-9-11-22(12-10-21)36(32,33)30-15-13-19(14-16-30)28-17-20(31)18-35-26-8-4-7-25-27(26)23-5-2-3-6-24(23)29-25/h2-12,19-20,28-29,31H,13-18H2,1H3/t20-/m0/s1

>  <IUPAC Name>  (1) 
(2S)-1-(9H-carbazol-4-yloxy)-3-[[1-(4-methoxyphenyl)sulfonylpiperidin-4-yl]amino]propan-2-ol

$$$$
