
     RDKit          3D

 96 99  0  0  0  0  0  0  0  0999 V2000
   -6.2335   -3.6453   -3.1341 C   0  0  0  0  0  0  0  0  0  0  0  0
   -6.4154   -2.1401   -2.8979 C   0  0  0  0  0  0  0  0  0  0  0  0
   -5.6394   -1.8015   -1.6793 C   0  0  0  0  0  0  0  0  0  0  0  0
   -4.9901   -2.7911   -1.1719 O   0  0  0  0  0  0  0  0  0  0  0  0
   -5.5924   -0.5112   -1.0943 N   0  0  0  0  0  0  0  0  0  0  0  0
   -4.8711   -0.1590    0.0874 C   0  0  2  0  0  0  0  0  0  0  0  0
   -3.6869    0.6527   -0.1063 C   0  0  0  0  0  0  0  0  0  0  0  0
   -3.4657    1.1033   -1.2883 O   0  0  0  0  0  0  0  0  0  0  0  0
   -2.7300    1.0067    0.8678 N   0  0  0  0  0  0  0  0  0  0  0  0
   -1.6125    1.8323    0.4355 C   0  0  2  0  0  0  0  0  0  0  0  0
   -0.5046    0.9440   -0.0527 C   0  0  0  0  0  0  0  0  0  0  0  0
   -0.6609   -0.3017   -0.0933 O   0  0  0  0  0  0  0  0  0  0  0  0
    0.7549    1.5088   -0.4862 N   0  0  0  0  0  0  0  0  0  0  0  0
    1.7274    0.5768   -0.9507 C   0  0  2  0  0  0  0  0  0  0  0  0
    2.7449    0.2492    0.1277 C   0  0  0  0  0  0  0  0  0  0  0  0
    2.7107    0.8282    1.2469 O   0  0  0  0  0  0  0  0  0  0  0  0
    3.6971   -0.7313   -0.2176 N   0  0  0  0  0  0  0  0  0  0  0  0
    4.7524   -1.2061    0.6739 C   0  0  2  0  0  0  0  0  0  0  0  0
    6.0864   -1.0677    0.1003 C   0  0  0  0  0  0  0  0  0  0  0  0
    7.1467   -1.2705    0.7436 O   0  0  0  0  0  0  0  0  0  0  0  0
    6.2111   -0.6818   -1.2711 N   0  0  0  0  0  0  0  0  0  0  0  0
    4.3754   -2.5297    1.2540 C   0  0  0  0  0  0  0  0  0  0  0  0
    5.3905   -3.0987    2.1359 C   0  0  0  0  0  0  0  0  0  0  0  0
    5.4368   -2.9318    3.5361 C   0  0  0  0  0  0  0  0  0  0  0  0
    6.5119   -3.5640    4.0220 N   0  0  0  0  0  0  0  0  0  0  0  0
    7.1985   -4.1517    3.0344 C   0  0  0  0  0  0  0  0  0  0  0  0
    6.5176   -3.8745    1.8481 C   0  0  0  0  0  0  0  0  0  0  0  0
    7.0280   -4.3879    0.7009 C   0  0  0  0  0  0  0  0  0  0  0  0
    8.1637   -5.1606    0.6012 C   0  0  0  0  0  0  0  0  0  0  0  0
    8.8445   -5.4361    1.7863 C   0  0  0  0  0  0  0  0  0  0  0  0
    8.3608   -4.9321    2.9939 C   0  0  0  0  0  0  0  0  0  0  0  0
    2.4153    1.0611   -2.1821 C   0  0  0  0  0  0  0  0  0  0  0  0
    1.5501    1.3121   -3.3703 C   0  0  0  0  0  0  0  0  0  0  0  0
    0.5160    2.3752   -3.2363 C   0  0  0  0  0  0  0  0  0  0  0  0
    1.0699    3.6822   -2.9761 N   0  0  0  0  0  0  0  0  0  0  0  0
    1.3854    4.5444   -3.8735 C   0  0  0  0  0  0  0  0  0  0  0  0
    1.2475    4.3650   -5.2612 N   0  0  0  0  0  0  0  0  0  0  0  0
    1.9131    5.7920   -3.3943 N   0  0  0  0  0  0  0  0  0  0  0  0
   -1.1885    2.7125    1.5532 C   0  0  0  0  0  0  0  0  0  0  0  0
   -2.2271    3.6249    2.0446 C   0  0  0  0  0  0  0  0  0  0  0  0
   -2.3972    4.8980    1.4890 C   0  0  0  0  0  0  0  0  0  0  0  0
   -3.3688    5.7705    1.9475 C   0  0  0  0  0  0  0  0  0  0  0  0
   -4.2063    5.3767    2.9926 C   0  0  0  0  0  0  0  0  0  0  0  0
   -4.0617    4.1184    3.5661 C   0  0  0  0  0  0  0  0  0  0  0  0
   -3.0907    3.2771    3.0909 C   0  0  0  0  0  0  0  0  0  0  0  0
   -4.7592   -1.2678    1.1295 C   0  0  0  0  0  0  0  0  0  0  0  0
   -6.0761   -1.6655    1.6278 C   0  0  0  0  0  0  0  0  0  0  0  0
   -6.9753   -2.5789    1.2619 N   0  0  0  0  0  0  0  0  0  0  0  0
   -8.0680   -2.5224    2.0869 C   0  0  0  0  0  0  0  0  0  0  0  0
   -7.8698   -1.5756    2.9794 N   0  0  0  0  0  0  0  0  0  0  0  0
   -6.6723   -1.0301    2.7368 C   0  0  0  0  0  0  0  0  0  0  0  0
   -5.2527   -4.0055   -2.7399 H   0  0  0  0  0  0  0  0  0  0  0  0
   -6.9910   -4.2420   -2.5673 H   0  0  0  0  0  0  0  0  0  0  0  0
   -6.3229   -3.9263   -4.1868 H   0  0  0  0  0  0  0  0  0  0  0  0
   -6.0705   -1.5858   -3.7950 H   0  0  0  0  0  0  0  0  0  0  0  0
   -7.4751   -1.9643   -2.7322 H   0  0  0  0  0  0  0  0  0  0  0  0
   -6.1555    0.2343   -1.6127 H   0  0  0  0  0  0  0  0  0  0  0  0
   -5.6390    0.5203    0.6473 H   0  0  0  0  0  0  0  0  0  0  0  0
   -2.8390    0.6784    1.8476 H   0  0  0  0  0  0  0  0  0  0  0  0
   -1.8669    2.4330   -0.4623 H   0  0  0  0  0  0  0  0  0  0  0  0
    0.8613    2.5420   -0.4285 H   0  0  0  0  0  0  0  0  0  0  0  0
    1.2723   -0.4257   -1.1818 H   0  0  0  0  0  0  0  0  0  0  0  0
    3.6846   -1.1758   -1.1815 H   0  0  0  0  0  0  0  0  0  0  0  0
    4.7016   -0.4666    1.5434 H   0  0  0  0  0  0  0  0  0  0  0  0
    6.2572    0.3690   -1.4282 H   0  0  0  0  0  0  0  0  0  0  0  0
    6.2501   -1.3717   -2.0520 H   0  0  0  0  0  0  0  0  0  0  0  0
    3.4607   -2.3384    1.8954 H   0  0  0  0  0  0  0  0  0  0  0  0
    4.1044   -3.2735    0.4656 H   0  0  0  0  0  0  0  0  0  0  0  0
    4.6847   -2.3632    4.0773 H   0  0  0  0  0  0  0  0  0  0  0  0
    6.8189   -3.6224    5.0276 H   0  0  0  0  0  0  0  0  0  0  0  0
    6.4849   -4.1638   -0.2243 H   0  0  0  0  0  0  0  0  0  0  0  0
    8.5503   -5.5568   -0.3272 H   0  0  0  0  0  0  0  0  0  0  0  0
    9.7623   -6.0501    1.7736 H   0  0  0  0  0  0  0  0  0  0  0  0
    8.8882   -5.1400    3.9410 H   0  0  0  0  0  0  0  0  0  0  0  0
    2.9680    2.0327   -1.9984 H   0  0  0  0  0  0  0  0  0  0  0  0
    3.2263    0.3643   -2.5148 H   0  0  0  0  0  0  0  0  0  0  0  0
    1.1334    0.3609   -3.7886 H   0  0  0  0  0  0  0  0  0  0  0  0
    2.2478    1.6626   -4.1884 H   0  0  0  0  0  0  0  0  0  0  0  0
    0.0084    2.4807   -4.2478 H   0  0  0  0  0  0  0  0  0  0  0  0
   -0.2905    2.1880   -2.5294 H   0  0  0  0  0  0  0  0  0  0  0  0
    0.6588    3.6480   -5.7303 H   0  0  0  0  0  0  0  0  0  0  0  0
    1.7762    4.9995   -5.9249 H   0  0  0  0  0  0  0  0  0  0  0  0
    1.2871    6.6207   -3.2408 H   0  0  0  0  0  0  0  0  0  0  0  0
    2.9447    5.9135   -3.1820 H   0  0  0  0  0  0  0  0  0  0  0  0
   -0.8036    2.0341    2.3645 H   0  0  0  0  0  0  0  0  0  0  0  0
   -0.2700    3.2518    1.2121 H   0  0  0  0  0  0  0  0  0  0  0  0
   -1.7726    5.2489    0.6785 H   0  0  0  0  0  0  0  0  0  0  0  0
   -3.4864    6.7705    1.4954 H   0  0  0  0  0  0  0  0  0  0  0  0
   -4.9890    6.0572    3.3707 H   0  0  0  0  0  0  0  0  0  0  0  0
   -4.7415    3.8757    4.3714 H   0  0  0  0  0  0  0  0  0  0  0  0
   -3.0095    2.2985    3.5714 H   0  0  0  0  0  0  0  0  0  0  0  0
   -4.2004   -0.7743    1.9815 H   0  0  0  0  0  0  0  0  0  0  0  0
   -4.0890   -2.0916    0.8296 H   0  0  0  0  0  0  0  0  0  0  0  0
   -6.9411   -3.2686    0.4939 H   0  0  0  0  0  0  0  0  0  0  0  0
   -8.9583   -3.1523    2.0217 H   0  0  0  0  0  0  0  0  0  0  0  0
   -6.2609   -0.2236    3.3285 H   0  0  0  0  0  0  0  0  0  0  0  0
  1  2  1  0
  2  3  1  0
  3  4  2  0
  3  5  1  0
  5  6  1  0
  6  7  1  0
  7  8  2  0
  7  9  1  0
  9 10  1  0
 10 11  1  0
 11 12  2  0
 11 13  1  0
 13 14  1  0
 14 15  1  0
 15 16  2  0
 15 17  1  0
 17 18  1  0
 18 19  1  0
 19 20  2  0
 19 21  1  0
 18 22  1  0
 22 23  1  0
 23 24  2  0
 24 25  1  0
 25 26  1  0
 26 27  2  0
 27 28  1  0
 28 29  2  0
 29 30  1  0
 30 31  2  0
 14 32  1  0
 32 33  1  0
 33 34  1  0
 34 35  1  0
 35 36  2  3
 36 37  1  0
 36 38  1  0
 10 39  1  0
 39 40  1  0
 40 41  2  0
 41 42  1  0
 42 43  2  0
 43 44  1  0
 44 45  2  0
  6 46  1  0
 46 47  1  0
 47 48  1  0
 48 49  1  0
 49 50  2  0
 50 51  1  0
 27 23  1  0
 45 40  1  0
 51 47  2  0
 31 26  1  0
  1 52  1  0
  1 53  1  0
  1 54  1  0
  2 55  1  0
  2 56  1  0
  5 57  1  0
  6 58  1  1
  9 59  1  0
 10 60  1  6
 13 61  1  0
 14 62  1  6
 17 63  1  0
 18 64  1  1
 21 65  1  0
 21 66  1  0
 22 67  1  0
 22 68  1  0
 24 69  1  0
 25 70  1  0
 28 71  1  0
 29 72  1  0
 30 73  1  0
 31 74  1  0
 32 75  1  0
 32 76  1  0
 33 77  1  0
 33 78  1  0
 34 79  1  0
 34 80  1  0
 37 81  1  0
 37 82  1  0
 38 83  1  0
 38 84  1  0
 39 85  1  0
 39 86  1  0
 41 87  1  0
 42 88  1  0
 43 89  1  0
 44 90  1  0
 45 91  1  0
 46 92  1  0
 46 93  1  0
 48 94  1  0
 49 95  1  0
 51 96  1  0
M  END
>  <Ligand ID>  (1) 
LIG0004039

>  <Ligand>  (1) 
CHEMBL407825

>  <SMILES>  (1) 
CCC(=O)N[C@H](C(=O)N[C@H](C(=O)N[C@H](C(=O)N[C@H](C(=O)N)Cc1c[nH]c2c1cccc2)CCCN=C(N)N)Cc1ccccc1)Cc1[nH]cnc1

>  <CID>  (1) 
44322788.0

>  <ChEMBL ID>  (1) 
nan

>  <InChiKey>  (1) 
RLWOSGQNOKLOKP-DZUOILHNSA-N

>  <InChi>  (1) 
InChI=1S/C35H45N11O5/c1-2-30(47)43-29(17-23-19-39-20-42-23)34(51)46-28(15-21-9-4-3-5-10-21)33(50)44-26(13-8-14-40-35(37)38)32(49)45-27(31(36)48)16-22-18-41-25-12-7-6-11-24(22)25/h3-7,9-12,18-20,26-29,41H,2,8,13-17H2,1H3,(H2,36,48)(H,39,42)(H,43,47)(H,44,50)(H,45,49)(H,46,51)(H4,37,38,40)/t26-,27-,28-,29-/m0/s1

>  <IUPAC Name>  (1) 
(2S)-N-[(2S)-1-amino-3-(1H-indol-3-yl)-1-oxopropan-2-yl]-5-(diaminomethylideneamino)-2-[[(2S)-2-[[(2S)-3-(1H-imidazol-5-yl)-2-(propanoylamino)propanoyl]amino]-3-phenylpropanoyl]amino]pentanamide

$$$$
