
     RDKit          3D

 30 30  0  0  0  0  0  0  0  0999 V2000
   -4.2506    0.4222    0.5461 C   0  0  0  0  0  0  0  0  0  0  0  0
   -3.2579    0.0150   -0.4935 C   0  0  0  0  0  0  0  0  0  0  0  0
   -1.8295   -0.0069    0.0676 C   0  0  0  0  0  0  0  0  0  0  0  0
   -0.8970   -0.4200   -1.0210 C   0  0  0  0  0  0  0  0  0  0  0  0
    0.4631   -0.4846   -0.6464 O   0  0  0  0  0  0  0  0  0  0  0  0
    1.1859    0.5782   -0.1747 C   0  0  0  0  0  0  0  0  0  0  0  0
    0.6594    1.7344   -0.0386 O   0  0  0  0  0  0  0  0  0  0  0  0
    2.5915    0.4572    0.1989 C   0  0  0  0  0  0  0  0  0  0  0  0
    3.2903    1.5327    0.6669 C   0  0  0  0  0  0  0  0  0  0  0  0
    4.6333    1.4299    1.0271 C   0  0  0  0  0  0  0  0  0  0  0  0
    5.2381    0.1758    0.8891 C   0  0  0  0  0  0  0  0  0  0  0  0
    4.5210   -0.8926    0.4177 C   0  0  0  0  0  0  0  0  0  0  0  0
    3.2002   -0.7778    0.0669 C   0  0  0  0  0  0  0  0  0  0  0  0
   -3.6390   -1.3742   -0.9858 C   0  0  0  0  0  0  0  0  0  0  0  0
   -5.0968   -0.3056    0.6272 H   0  0  0  0  0  0  0  0  0  0  0  0
   -4.7437    1.4032    0.3378 H   0  0  0  0  0  0  0  0  0  0  0  0
   -3.7406    0.4073    1.5300 H   0  0  0  0  0  0  0  0  0  0  0  0
   -3.2664    0.6648   -1.3808 H   0  0  0  0  0  0  0  0  0  0  0  0
   -1.7892   -0.7912    0.8694 H   0  0  0  0  0  0  0  0  0  0  0  0
   -1.6252    1.0008    0.4495 H   0  0  0  0  0  0  0  0  0  0  0  0
   -0.9457    0.3948   -1.8006 H   0  0  0  0  0  0  0  0  0  0  0  0
   -1.2541   -1.3188   -1.5199 H   0  0  0  0  0  0  0  0  0  0  0  0
    2.8006    2.4846    0.7628 H   0  0  0  0  0  0  0  0  0  0  0  0
    5.1927    2.2674    1.3959 H   0  0  0  0  0  0  0  0  0  0  0  0
    6.2722    0.0075    1.1443 H   0  0  0  0  0  0  0  0  0  0  0  0
    4.9642   -1.8928    0.2964 H   0  0  0  0  0  0  0  0  0  0  0  0
    2.6251   -1.6114   -0.3055 H   0  0  0  0  0  0  0  0  0  0  0  0
   -4.7584   -1.3893   -1.0168 H   0  0  0  0  0  0  0  0  0  0  0  0
   -3.2984   -2.1432   -0.2526 H   0  0  0  0  0  0  0  0  0  0  0  0
   -3.2450   -1.5673   -2.0068 H   0  0  0  0  0  0  0  0  0  0  0  0
  1  2  1  0
  2  3  1  0
  3  4  1  0
  4  5  1  0
  5  6  1  0
  6  7  2  0
  6  8  1  0
  8  9  2  0
  9 10  1  0
 10 11  2  0
 11 12  1  0
 12 13  2  0
  2 14  1  0
 13  8  1  0
  1 15  1  0
  1 16  1  0
  1 17  1  0
  2 18  1  0
  3 19  1  0
  3 20  1  0
  4 21  1  0
  4 22  1  0
  9 23  1  0
 10 24  1  0
 11 25  1  0
 12 26  1  0
 13 27  1  0
 14 28  1  0
 14 29  1  0
 14 30  1  0
M  END
>  <Ligand ID>  (1) 
LIG0004997

>  <Ligand>  (1) 
Isoamyl benzoate

>  <SMILES>  (1) 
CC(CCOC(=O)c1ccccc1)C

>  <CID>  (1) 
7193.0

>  <ChEMBL ID>  (1) 
nan

>  <InChiKey>  (1) 
MLLAPOCBLWUFAP-UHFFFAOYSA-N

>  <InChi>  (1) 
InChI=1S/C12H16O2/c1-10(2)8-9-14-12(13)11-6-4-3-5-7-11/h3-7,10H,8-9H2,1-2H3

>  <IUPAC Name>  (1) 
3-methylbutyl benzoate

$$$$
