
     RDKit          3D

 27 28  0  0  0  0  0  0  0  0999 V2000
   -4.4488    0.5660   -0.1998 N   0  0  0  0  0  0  0  0  0  0  0  0
   -3.1106    0.5787   -0.7483 C   0  0  0  0  0  0  0  0  0  0  0  0
   -2.0544    0.2528    0.2422 C   0  0  1  0  0  0  0  0  0  0  0  0
   -1.9994   -1.0280    0.9748 C   0  0  0  0  0  0  0  0  0  0  0  0
   -1.1091   -0.8795   -0.1809 C   0  0  2  0  0  0  0  0  0  0  0  0
    0.3053   -0.5198   -0.0823 C   0  0  0  0  0  0  0  0  0  0  0  0
    1.1930   -0.9011   -1.0616 C   0  0  0  0  0  0  0  0  0  0  0  0
    2.5435   -0.5855   -1.0152 C   0  0  0  0  0  0  0  0  0  0  0  0
    3.0205    0.1494    0.0708 C   0  0  0  0  0  0  0  0  0  0  0  0
    2.1273    0.5293    1.0498 C   0  0  0  0  0  0  0  0  0  0  0  0
    0.8101    0.2074    0.9803 C   0  0  0  0  0  0  0  0  0  0  0  0
    4.4708    0.4879    0.1199 C   0  0  0  0  0  0  0  0  0  0  0  0
   -4.9408    1.4841   -0.2629 H   0  0  0  0  0  0  0  0  0  0  0  0
   -4.4669    0.1789    0.7665 H   0  0  0  0  0  0  0  0  0  0  0  0
   -3.0679   -0.0917   -1.6071 H   0  0  0  0  0  0  0  0  0  0  0  0
   -2.9461    1.6312   -1.1066 H   0  0  0  0  0  0  0  0  0  0  0  0
   -1.6228    1.1142    0.7835 H   0  0  0  0  0  0  0  0  0  0  0  0
   -2.8803   -1.6755    0.8840 H   0  0  0  0  0  0  0  0  0  0  0  0
   -1.5485   -1.0595    1.9764 H   0  0  0  0  0  0  0  0  0  0  0  0
   -1.3673   -1.4581   -1.0789 H   0  0  0  0  0  0  0  0  0  0  0  0
    0.8742   -1.4741   -1.9277 H   0  0  0  0  0  0  0  0  0  0  0  0
    3.2363   -0.8914   -1.7938 H   0  0  0  0  0  0  0  0  0  0  0  0
    2.4745    1.0994    1.9006 H   0  0  0  0  0  0  0  0  0  0  0  0
    0.0987    0.5070    1.7549 H   0  0  0  0  0  0  0  0  0  0  0  0
    4.5979    1.3451    0.8205 H   0  0  0  0  0  0  0  0  0  0  0  0
    5.0330   -0.3768    0.5183 H   0  0  0  0  0  0  0  0  0  0  0  0
    4.7777    0.8096   -0.8911 H   0  0  0  0  0  0  0  0  0  0  0  0
  1  2  1  0
  2  3  1  0
  3  4  1  0
  4  5  1  0
  5  6  1  0
  6  7  2  0
  7  8  1  0
  8  9  2  0
  9 10  1  0
 10 11  2  0
  9 12  1  0
  5  3  1  0
 11  6  1  0
  1 13  1  0
  1 14  1  0
  2 15  1  0
  2 16  1  0
  3 17  1  1
  4 18  1  0
  4 19  1  0
  5 20  1  6
  7 21  1  0
  8 22  1  0
 10 23  1  0
 11 24  1  0
 12 25  1  0
 12 26  1  0
 12 27  1  0
M  END
>  <Ligand ID>  (1) 
LIG0003794

>  <Ligand>  (1) 
CHEMBL471202

>  <SMILES>  (1) 
NC[C@H]1C[C@@H]1c1ccc(cc1)C

>  <CID>  (1) 
44573004.0

>  <ChEMBL ID>  (1) 
nan

>  <InChiKey>  (1) 
LHTPQIPFVUFAOJ-GHMZBOCLSA-N

>  <InChi>  (1) 
InChI=1S/C11H15N/c1-8-2-4-9(5-3-8)11-6-10(11)7-12/h2-5,10-11H,6-7,12H2,1H3/t10-,11-/m1/s1

>  <IUPAC Name>  (1) 
[(1S,2S)-2-(4-methylphenyl)cyclopropyl]methanamine

$$$$
