
     RDKit          3D

 43 43  0  0  0  0  0  0  0  0999 V2000
   -7.2333    1.8725   -1.1693 O   0  0  0  0  0  0  0  0  0  0  0  0
   -6.6967    0.8600   -0.3555 C   0  0  0  0  0  0  0  0  0  0  0  0
   -7.3985    0.4147    0.6188 O   0  0  0  0  0  0  0  0  0  0  0  0
   -5.3425    0.2913   -0.5856 C   0  0  0  0  0  0  0  0  0  0  0  0
   -4.5247    0.4570    0.6978 C   0  0  0  0  0  0  0  0  0  0  0  0
   -3.1617   -0.1100    0.5144 C   0  0  0  0  0  0  0  0  0  0  0  0
   -2.9859   -1.4273    0.8802 C   0  0  0  0  0  0  0  0  0  0  0  0
   -1.7766   -2.0671    0.7694 C   0  0  0  0  0  0  0  0  0  0  0  0
   -0.6897   -1.3473    0.2631 C   0  0  0  0  0  0  0  0  0  0  0  0
   -0.8951   -0.0430   -0.0917 C   0  0  0  0  0  0  0  0  0  0  0  0
   -2.1033    0.6119    0.0155 C   0  0  0  0  0  0  0  0  0  0  0  0
    0.5884   -2.0668    0.1618 C   0  0  0  0  0  0  0  0  0  0  0  0
    1.9997   -1.0104   -0.1841 P   0  0  0  0  0  0  0  0  0  0  0  0
    1.9057   -0.2815   -1.4932 O   0  0  0  0  0  0  0  0  0  0  0  0
    2.3421    0.1823    1.1053 C   0  0  0  0  0  0  0  0  0  0  0  0
    3.3086    1.2244    0.5307 C   0  0  0  0  0  0  0  0  0  0  0  0
    4.6082    0.6325    0.0758 C   0  0  1  0  0  0  0  0  0  0  0  0
    5.4370    1.7800   -0.4574 C   0  0  0  0  0  0  0  0  0  0  0  0
    6.5721    1.9368    0.0752 O   0  0  0  0  0  0  0  0  0  0  0  0
    4.9577    2.5997   -1.4733 O   0  0  0  0  0  0  0  0  0  0  0  0
    5.3504   -0.0515    1.1005 N   0  0  0  0  0  0  0  0  0  0  0  0
    3.3737   -2.0256   -0.2934 O   0  0  0  0  0  0  0  0  0  0  0  0
    0.8419   -2.7996    1.3211 O   0  0  0  0  0  0  0  0  0  0  0  0
   -8.1166    2.3223   -0.9655 H   0  0  0  0  0  0  0  0  0  0  0  0
   -4.8652    0.8485   -1.4221 H   0  0  0  0  0  0  0  0  0  0  0  0
   -5.3858   -0.7929   -0.8294 H   0  0  0  0  0  0  0  0  0  0  0  0
   -5.0569   -0.0237    1.5235 H   0  0  0  0  0  0  0  0  0  0  0  0
   -4.4530    1.5599    0.9115 H   0  0  0  0  0  0  0  0  0  0  0  0
   -3.8078   -2.0002    1.2752 H   0  0  0  0  0  0  0  0  0  0  0  0
   -1.6857   -3.0978    1.0698 H   0  0  0  0  0  0  0  0  0  0  0  0
   -0.0719    0.5326   -0.4883 H   0  0  0  0  0  0  0  0  0  0  0  0
   -2.2519    1.6478   -0.2670 H   0  0  0  0  0  0  0  0  0  0  0  0
    0.5011   -2.8043   -0.6667 H   0  0  0  0  0  0  0  0  0  0  0  0
    1.4000    0.7138    1.3875 H   0  0  0  0  0  0  0  0  0  0  0  0
    2.7413   -0.2554    2.0312 H   0  0  0  0  0  0  0  0  0  0  0  0
    2.8508    1.7071   -0.3622 H   0  0  0  0  0  0  0  0  0  0  0  0
    3.4394    2.0533    1.2558 H   0  0  0  0  0  0  0  0  0  0  0  0
    4.4734   -0.0339   -0.8085 H   0  0  0  0  0  0  0  0  0  0  0  0
    5.5530    3.3050   -1.8650 H   0  0  0  0  0  0  0  0  0  0  0  0
    6.1727    0.5568    1.4087 H   0  0  0  0  0  0  0  0  0  0  0  0
    5.8455   -0.8922    0.6803 H   0  0  0  0  0  0  0  0  0  0  0  0
    3.0941   -2.8257   -0.8240 H   0  0  0  0  0  0  0  0  0  0  0  0
    1.1459   -2.1540    2.0042 H   0  0  0  0  0  0  0  0  0  0  0  0
  1  2  1  0
  2  3  2  0
  2  4  1  0
  4  5  1  0
  5  6  1  0
  6  7  2  0
  7  8  1  0
  8  9  2  0
  9 10  1  0
 10 11  2  0
  9 12  1  0
 12 13  1  0
 13 14  2  0
 13 15  1  0
 15 16  1  0
 16 17  1  0
 17 18  1  0
 18 19  2  0
 18 20  1  0
 17 21  1  0
 13 22  1  0
 12 23  1  0
 11  6  1  0
  1 24  1  0
  4 25  1  0
  4 26  1  0
  5 27  1  0
  5 28  1  0
  7 29  1  0
  8 30  1  0
 10 31  1  0
 11 32  1  0
 12 33  1  0
 15 34  1  0
 15 35  1  0
 16 36  1  0
 16 37  1  0
 17 38  1  6
 20 39  1  0
 21 40  1  0
 21 41  1  0
 22 42  1  0
 23 43  1  0
M  END
>  <Ligand ID>  (1) 
LIG0002544

>  <Ligand>  (1) 
CHEMBL3921507

>  <SMILES>  (1) 
OC(=O)CCc1ccc(cc1)C(P(=O)(CC[C@@H](C(=O)O)N)O)O

>  <CID>  (1) 
71041750.0

>  <ChEMBL ID>  (1) 
nan

>  <InChiKey>  (1) 
WQHZBTAYFHHLRA-ZSOXZCCMSA-N

>  <InChi>  (1) 
InChI=1S/C14H20NO7P/c15-11(13(18)19)7-8-23(21,22)14(20)10-4-1-9(2-5-10)3-6-12(16)17/h1-2,4-5,11,14,20H,3,6-8,15H2,(H,16,17)(H,18,19)(H,21,22)/t11-,14?/m0/s1

>  <IUPAC Name>  (1) 
(2S)-2-amino-4-[[[4-(2-carboxyethyl)phenyl]-hydroxymethyl]-hydroxyphosphoryl]butanoic acid

$$$$
