
     RDKit          3D

 79 86  0  0  0  0  0  0  0  0999 V2000
    1.1857    4.3541   -0.0469 C   0  0  0  0  0  0  0  0  0  0  0  0
    1.5069    3.0690   -0.2935 O   0  0  0  0  0  0  0  0  0  0  0  0
    0.5706    2.0927   -0.1571 C   0  0  2  0  0  0  0  0  0  0  0  0
    0.0563    2.0559    1.2686 C   0  0  0  0  0  0  0  0  0  0  0  0
   -0.6819    0.7698    1.5970 C   0  0  0  0  0  0  0  0  0  0  0  0
   -0.9919    0.1206    0.2690 C   0  0  2  0  0  0  0  0  0  0  0  0
    0.3055   -0.4076   -0.2482 C   0  0  0  0  0  0  0  0  0  0  0  0
    1.1605    0.7824   -0.6185 C   0  0  2  0  0  0  0  0  0  0  0  0
    2.6070    0.5213   -0.3991 C   0  0  1  0  0  0  0  0  0  0  0  0
    3.0981    0.5326    1.0004 C   0  0  0  0  0  0  0  0  0  0  0  0
    4.5656    0.2343    1.2010 C   0  0  0  0  0  0  0  0  0  0  0  0
    5.0053   -1.0779    0.7334 C   0  0  0  0  0  0  0  0  0  0  0  0
    5.5396   -1.3459   -0.5101 C   0  0  0  0  0  0  0  0  0  0  0  0
    5.9279   -2.6077   -0.9072 C   0  0  0  0  0  0  0  0  0  0  0  0
    5.7957   -3.6831   -0.0582 C   0  0  0  0  0  0  0  0  0  0  0  0
    5.2648   -3.4487    1.1932 C   0  0  0  0  0  0  0  0  0  0  0  0
    4.8786   -2.1796    1.5819 C   0  0  0  0  0  0  0  0  0  0  0  0
    2.7452   -0.8378   -0.8069 O   0  0  0  0  0  0  0  0  0  0  0  0
    3.4858    1.2926   -1.3502 C   0  0  0  0  0  0  0  0  0  0  0  0
   -1.5554    1.0945   -0.7108 C   0  0  2  0  0  0  0  0  0  0  0  0
   -0.6317    2.2608   -1.0533 C   0  0  1  0  0  0  0  0  0  0  0  0
   -1.3969    3.4060   -0.9365 O   0  0  0  0  0  0  0  0  0  0  0  0
   -2.4914    3.1800   -0.0933 C   0  0  0  0  0  0  0  0  0  0  0  0
   -2.5724    1.8335    0.0770 C   0  0  0  0  0  0  0  0  0  0  0  0
   -3.4630    1.1408    0.8228 C   0  0  0  0  0  0  0  0  0  0  0  0
   -3.3529   -0.3257    0.9395 C   0  0  0  0  0  0  0  0  0  0  0  0
   -2.0612   -0.9242    0.5122 C   0  0  1  0  0  0  0  0  0  0  0  0
   -2.3174   -1.6492   -0.7038 N   0  0  0  0  0  0  0  0  0  0  0  0
   -2.7227   -0.8595   -1.7832 C   0  0  0  0  0  0  0  0  0  0  0  0
   -2.1621    0.4957   -1.9068 C   0  0  0  0  0  0  0  0  0  0  0  0
   -2.3544   -3.0273   -0.6960 C   0  0  0  0  0  0  0  0  0  0  0  0
   -3.5720   -3.5252    0.0886 C   0  0  0  0  0  0  0  0  0  0  0  0
   -3.7096   -5.0051    0.1586 C   0  0  0  0  0  0  0  0  0  0  0  0
   -4.7015   -4.1474   -0.6110 C   0  0  0  0  0  0  0  0  0  0  0  0
   -4.4164    1.9005    1.4916 C   0  0  0  0  0  0  0  0  0  0  0  0
   -4.3900    3.2944    1.3535 C   0  0  0  0  0  0  0  0  0  0  0  0
   -3.4337    3.9401    0.5657 C   0  0  0  0  0  0  0  0  0  0  0  0
   -3.3940    5.3148    0.4196 O   0  0  0  0  0  0  0  0  0  0  0  0
    2.1221    4.9649   -0.2239 H   0  0  0  0  0  0  0  0  0  0  0  0
    0.8370    4.6448    0.9360 H   0  0  0  0  0  0  0  0  0  0  0  0
    0.4681    4.7905   -0.7989 H   0  0  0  0  0  0  0  0  0  0  0  0
    0.8437    2.2647    2.0298 H   0  0  0  0  0  0  0  0  0  0  0  0
   -0.6834    2.8651    1.4208 H   0  0  0  0  0  0  0  0  0  0  0  0
    0.0863    0.1221    2.1003 H   0  0  0  0  0  0  0  0  0  0  0  0
   -1.5113    0.8769    2.2816 H   0  0  0  0  0  0  0  0  0  0  0  0
    0.0985   -1.0755   -1.1049 H   0  0  0  0  0  0  0  0  0  0  0  0
    0.8068   -1.0550    0.5081 H   0  0  0  0  0  0  0  0  0  0  0  0
    1.0798    0.8264   -1.7581 H   0  0  0  0  0  0  0  0  0  0  0  0
    2.9879    1.5523    1.4885 H   0  0  0  0  0  0  0  0  0  0  0  0
    2.5554   -0.1524    1.6792 H   0  0  0  0  0  0  0  0  0  0  0  0
    5.2358    1.0493    0.8471 H   0  0  0  0  0  0  0  0  0  0  0  0
    4.6916    0.2447    2.3261 H   0  0  0  0  0  0  0  0  0  0  0  0
    5.6751   -0.5470   -1.2168 H   0  0  0  0  0  0  0  0  0  0  0  0
    6.3507   -2.7856   -1.9081 H   0  0  0  0  0  0  0  0  0  0  0  0
    6.1109   -4.6535   -0.4104 H   0  0  0  0  0  0  0  0  0  0  0  0
    5.1521   -4.2887    1.8809 H   0  0  0  0  0  0  0  0  0  0  0  0
    4.4578   -2.0210    2.5874 H   0  0  0  0  0  0  0  0  0  0  0  0
    2.9698   -0.8935   -1.7688 H   0  0  0  0  0  0  0  0  0  0  0  0
    4.3782    1.7478   -0.8956 H   0  0  0  0  0  0  0  0  0  0  0  0
    3.8369    0.6365   -2.1699 H   0  0  0  0  0  0  0  0  0  0  0  0
    2.8437    2.0441   -1.8776 H   0  0  0  0  0  0  0  0  0  0  0  0
   -0.2824    2.0528   -2.0867 H   0  0  0  0  0  0  0  0  0  0  0  0
   -3.6648   -0.6752    1.9659 H   0  0  0  0  0  0  0  0  0  0  0  0
   -4.1918   -0.7318    0.2935 H   0  0  0  0  0  0  0  0  0  0  0  0
   -1.7185   -1.6372    1.2836 H   0  0  0  0  0  0  0  0  0  0  0  0
   -2.5463   -1.4642   -2.7309 H   0  0  0  0  0  0  0  0  0  0  0  0
   -3.8551   -0.7861   -1.7545 H   0  0  0  0  0  0  0  0  0  0  0  0
   -1.4810    0.4876   -2.8018 H   0  0  0  0  0  0  0  0  0  0  0  0
   -3.0076    1.1929   -2.2256 H   0  0  0  0  0  0  0  0  0  0  0  0
   -1.4859   -3.4907   -0.1327 H   0  0  0  0  0  0  0  0  0  0  0  0
   -2.3936   -3.5231   -1.6877 H   0  0  0  0  0  0  0  0  0  0  0  0
   -3.7550   -2.9583    1.0363 H   0  0  0  0  0  0  0  0  0  0  0  0
   -4.0941   -5.4734    1.0897 H   0  0  0  0  0  0  0  0  0  0  0  0
   -2.9909   -5.6218   -0.4043 H   0  0  0  0  0  0  0  0  0  0  0  0
   -5.7033   -4.0241   -0.1276 H   0  0  0  0  0  0  0  0  0  0  0  0
   -4.7465   -4.2140   -1.7137 H   0  0  0  0  0  0  0  0  0  0  0  0
   -5.1538    1.3996    2.1016 H   0  0  0  0  0  0  0  0  0  0  0  0
   -5.1377    3.9131    1.8742 H   0  0  0  0  0  0  0  0  0  0  0  0
   -2.5119    5.7616    0.1964 H   0  0  0  0  0  0  0  0  0  0  0  0
  1  2  1  0
  3  2  1  1
  3  4  1  0
  4  5  1  0
  6  5  1  1
  6  7  1  0
  7  8  1  0
  8  9  1  0
  9 10  1  0
 10 11  1  0
 11 12  1  0
 12 13  2  0
 13 14  1  0
 14 15  2  0
 15 16  1  0
 16 17  2  0
  9 18  1  6
  9 19  1  0
  6 20  1  0
 20 21  1  0
 21 22  1  0
 22 23  1  0
 23 24  2  0
 24 25  1  0
 25 26  1  0
 26 27  1  0
 27 28  1  0
 28 29  1  0
 29 30  1  0
 28 31  1  0
 31 32  1  0
 32 33  1  0
 33 34  1  0
 25 35  2  0
 35 36  1  0
 36 37  2  0
 37 38  1  0
  8  3  1  0
 17 12  1  0
 20 30  1  6
 34 32  1  0
 21  3  1  0
 37 23  1  0
 27  6  1  0
 24 20  1  0
  1 39  1  0
  1 40  1  0
  1 41  1  0
  4 42  1  0
  4 43  1  0
  5 44  1  0
  5 45  1  0
  7 46  1  0
  7 47  1  0
  8 48  1  6
 10 49  1  0
 10 50  1  0
 11 51  1  0
 11 52  1  0
 13 53  1  0
 14 54  1  0
 15 55  1  0
 16 56  1  0
 17 57  1  0
 18 58  1  0
 19 59  1  0
 19 60  1  0
 19 61  1  0
 21 62  1  6
 26 63  1  0
 26 64  1  0
 27 65  1  1
 29 66  1  0
 29 67  1  0
 30 68  1  0
 30 69  1  0
 31 70  1  0
 31 71  1  0
 32 72  1  0
 33 73  1  0
 33 74  1  0
 34 75  1  0
 34 76  1  0
 35 77  1  0
 36 78  1  0
 38 79  1  0
M  END
>  <Ligand ID>  (1) 
LIG0005131

>  <Ligand>  (1) 
CHEMBL2338753

>  <SMILES>  (1) 
CO[C@]12CC[C@]3(C[C@@H]1[C@@](CCc1ccccc1)(O)C)[C@@]14[C@H]2Oc2c4c(C[C@H]3N(CC1)CC1CC1)ccc2O

>  <CID>  (1) 
71624663.0

>  <ChEMBL ID>  (1) 
nan

>  <InChiKey>  (1) 
GJCIZLCOLGPOTH-VTRXWXBFSA-N

>  <InChi>  (1) 
InChI=1S/C33H41NO4/c1-30(36,13-12-21-6-4-3-5-7-21)25-19-31-14-15-33(25,37-2)29-32(31)16-17-34(20-22-8-9-22)26(31)18-23-10-11-24(35)28(38-29)27(23)32/h3-7,10-11,22,25-26,29,35-36H,8-9,12-20H2,1-2H3/t25-,26-,29-,30-,31-,32+,33-/m1/s1

>  <IUPAC Name>  (1) 
(1S,2S,6R,14R,15R,16R)-5-(cyclopropylmethyl)-16-[(2R)-2-hydroxy-4-phenylbutan-2-yl]-15-methoxy-13-oxa-5-azahexacyclo[13.2.2.12,8.01,6.02,14.012,20]icosa-8(20),9,11-trien-11-ol

$$$$
