
     RDKit          3D

 18 19  0  0  0  0  0  0  0  0999 V2000
    1.7586   -0.0153    1.3321 N   0  0  0  0  0  0  0  0  0  0  0  0
    1.5336    0.8004    0.1791 C   0  0  1  0  0  0  0  0  0  0  0  0
    1.5255    0.0149   -1.1210 C   0  0  0  0  0  0  0  0  0  0  0  0
    0.3200    0.7727   -0.6315 C   0  0  1  0  0  0  0  0  0  0  0  0
   -0.8697   -0.0152   -0.1740 C   0  0  0  0  0  0  0  0  0  0  0  0
   -0.8630   -1.1745    0.6052 C   0  0  0  0  0  0  0  0  0  0  0  0
   -2.1656   -1.5418    0.7734 N   0  0  0  0  0  0  0  0  0  0  0  0
   -2.9362   -0.6543    0.1307 C   0  0  0  0  0  0  0  0  0  0  0  0
   -2.1557    0.2925   -0.4583 N   0  0  0  0  0  0  0  0  0  0  0  0
    2.5711   -0.6547    1.1874 H   0  0  0  0  0  0  0  0  0  0  0  0
    1.8307    0.5678    2.1954 H   0  0  0  0  0  0  0  0  0  0  0  0
    2.1239    1.7584    0.2155 H   0  0  0  0  0  0  0  0  0  0  0  0
    2.1727    0.4366   -1.8948 H   0  0  0  0  0  0  0  0  0  0  0  0
    1.5557   -1.0963   -1.0842 H   0  0  0  0  0  0  0  0  0  0  0  0
    0.1158    1.6775   -1.2516 H   0  0  0  0  0  0  0  0  0  0  0  0
    0.0208   -1.6480    0.9767 H   0  0  0  0  0  0  0  0  0  0  0  0
   -4.0343   -0.6253    0.0450 H   0  0  0  0  0  0  0  0  0  0  0  0
   -2.5041    1.1049   -1.0251 H   0  0  0  0  0  0  0  0  0  0  0  0
  1  2  1  0
  2  3  1  0
  3  4  1  0
  4  5  1  0
  5  6  2  0
  6  7  1  0
  7  8  2  0
  8  9  1  0
  4  2  1  0
  9  5  1  0
  1 10  1  0
  1 11  1  0
  2 12  1  6
  3 13  1  0
  3 14  1  0
  4 15  1  6
  6 16  1  0
  8 17  1  0
  9 18  1  0
M  END
>  <Ligand ID>  (1) 
LIG0001196

>  <Ligand>  (1) 
CHEMBL294061

>  <SMILES>  (1) 
N[C@H]1C[C@H]1c1cnc[nH]1

>  <CID>  (1) 
11804748.0

>  <ChEMBL ID>  (1) 
nan

>  <InChiKey>  (1) 
OWWNABDDYQLERE-UHNVWZDZSA-N

>  <InChi>  (1) 
InChI=1S/C6H9N3/c7-5-1-4(5)6-2-8-3-9-6/h2-5H,1,7H2,(H,8,9)/t4-,5+/m1/s1

>  <IUPAC Name>  (1) 
(1S,2R)-2-(1H-imidazol-5-yl)cyclopropan-1-amine

$$$$
