
     RDKit          3D

 26 26  0  0  0  0  0  0  0  0999 V2000
   -3.9480    0.0769   -0.3074 N   0  0  0  0  0  0  0  0  0  0  0  0
   -2.7530   -0.7536   -0.4337 C   0  0  0  0  0  0  0  0  0  0  0  0
   -1.5105    0.1078   -0.3036 C   0  0  1  0  0  0  0  0  0  0  0  0
   -1.2419    0.8842    0.9050 C   0  0  0  0  0  0  0  0  0  0  0  0
   -0.4353   -0.3356    0.6175 C   0  0  2  0  0  0  0  0  0  0  0  0
    1.0052   -0.1700    0.2149 C   0  0  0  0  0  0  0  0  0  0  0  0
    1.9451   -1.1216    0.6174 C   0  0  0  0  0  0  0  0  0  0  0  0
    3.2688   -0.9601    0.2415 C   0  0  0  0  0  0  0  0  0  0  0  0
    3.6660    0.1294   -0.5248 C   0  0  0  0  0  0  0  0  0  0  0  0
    2.7091    1.0555   -0.9078 C   0  0  0  0  0  0  0  0  0  0  0  0
    1.3777    0.9248   -0.5496 C   0  0  0  0  0  0  0  0  0  0  0  0
    0.6846    0.0000    0.0000 Cl  0  0  0  0  0  0  0  0  0  0  0  0
   -3.6509    1.0577   -0.1465 H   0  0  0  0  0  0  0  0  0  0  0  0
   -4.5203   -0.2996    0.4828 H   0  0  0  0  0  0  0  0  0  0  0  0
   -2.7158   -1.5271    0.3423 H   0  0  0  0  0  0  0  0  0  0  0  0
   -2.8048   -1.2336   -1.4291 H   0  0  0  0  0  0  0  0  0  0  0  0
   -1.2321    0.5674   -1.2889 H   0  0  0  0  0  0  0  0  0  0  0  0
   -1.8613    0.8410    1.8211 H   0  0  0  0  0  0  0  0  0  0  0  0
   -0.7194    1.8778    0.8306 H   0  0  0  0  0  0  0  0  0  0  0  0
   -0.6325   -1.2408    1.2250 H   0  0  0  0  0  0  0  0  0  0  0  0
    1.6571   -1.9789    1.2153 H   0  0  0  0  0  0  0  0  0  0  0  0
    3.9806   -1.7189    0.5702 H   0  0  0  0  0  0  0  0  0  0  0  0
    4.6980    0.2411   -0.8090 H   0  0  0  0  0  0  0  0  0  0  0  0
    3.0589    1.8952   -1.5075 H   0  0  0  0  0  0  0  0  0  0  0  0
    0.6594    1.6812   -0.8756 H   0  0  0  0  0  0  0  0  0  0  0  0
   -0.6846    0.0000    0.0000 H   0  0  0  0  0  0  0  0  0  0  0  0
  1  2  1  0
  2  3  1  0
  3  4  1  0
  4  5  1  0
  5  6  1  0
  6  7  2  0
  7  8  1  0
  8  9  2  0
  9 10  1  0
 10 11  2  0
  5  3  1  0
 11  6  1  0
  1 13  1  0
  1 14  1  0
  2 15  1  0
  2 16  1  0
  3 17  1  6
  4 18  1  0
  4 19  1  0
  5 20  1  1
  7 21  1  0
  8 22  1  0
  9 23  1  0
 10 24  1  0
 11 25  1  0
 12 26  1  0
M  END
>  <Ligand ID>  (1) 
LIG0002387

>  <Ligand>  (1) 
CHEMBL452719

>  <SMILES>  (1) 
NC[C@H]1C[C@@H]1c1ccccc1.Cl

>  <CID>  (1) 
44572656.0

>  <ChEMBL ID>  (1) 
nan

>  <InChiKey>  (1) 
IQFBVCYZPKNMIN-DHTOPLTISA-N

>  <InChi>  (1) 
InChI=1S/C10H13N.ClH/c11-7-9-6-10(9)8-4-2-1-3-5-8;/h1-5,9-10H,6-7,11H2;1H/t9-,10-;/m1./s1

>  <IUPAC Name>  (1) 
[(1S,2S)-2-phenylcyclopropyl]methanamine;hydrochloride

$$$$
