
     RDKit          3D

 25 26  0  0  0  0  0  0  0  0999 V2000
   -2.0569    0.5871    1.5880 N   0  0  0  0  0  0  0  0  0  0  0  0
   -2.6456    0.9232    0.3150 C   0  0  0  0  0  0  0  0  0  0  0  0
   -1.6749    1.2945   -0.7545 C   0  0  0  0  0  0  0  0  0  0  0  0
   -0.7011    0.2560   -1.0797 C   0  0  0  0  0  0  0  0  0  0  0  0
   -0.7281   -0.6454   -2.1526 C   0  0  0  0  0  0  0  0  0  0  0  0
    0.3708   -1.4418   -2.0394 N   0  0  0  0  0  0  0  0  0  0  0  0
    1.0763   -1.0817   -0.9546 C   0  0  0  0  0  0  0  0  0  0  0  0
    0.4294   -0.0322   -0.3472 C   0  0  0  0  0  0  0  0  0  0  0  0
    1.0165    0.4834    0.7954 C   0  0  0  0  0  0  0  0  0  0  0  0
    2.1941   -0.0183    1.3176 C   0  0  0  0  0  0  0  0  0  0  0  0
    2.7330    0.5436    2.4677 O   0  0  0  0  0  0  0  0  0  0  0  0
    2.8264   -1.0689    0.6978 C   0  0  0  0  0  0  0  0  0  0  0  0
    2.2647   -1.6140   -0.4567 C   0  0  0  0  0  0  0  0  0  0  0  0
   -2.7954    0.6419    2.3228 H   0  0  0  0  0  0  0  0  0  0  0  0
   -1.6452   -0.3777    1.5662 H   0  0  0  0  0  0  0  0  0  0  0  0
   -3.3866    1.7540    0.5021 H   0  0  0  0  0  0  0  0  0  0  0  0
   -3.3100    0.0654    0.0011 H   0  0  0  0  0  0  0  0  0  0  0  0
   -1.1587    2.2342   -0.4106 H   0  0  0  0  0  0  0  0  0  0  0  0
   -2.2668    1.5557   -1.6598 H   0  0  0  0  0  0  0  0  0  0  0  0
   -1.4841   -0.6986   -2.9285 H   0  0  0  0  0  0  0  0  0  0  0  0
    0.5939   -2.2138   -2.7268 H   0  0  0  0  0  0  0  0  0  0  0  0
    0.5752    1.3163    1.3278 H   0  0  0  0  0  0  0  0  0  0  0  0
    3.2646    1.4317    2.4392 H   0  0  0  0  0  0  0  0  0  0  0  0
    3.7541   -1.4521    1.1235 H   0  0  0  0  0  0  0  0  0  0  0  0
    2.7544   -2.4423   -0.9538 H   0  0  0  0  0  0  0  0  0  0  0  0
  1  2  1  0
  2  3  1  0
  3  4  1  0
  4  5  2  0
  5  6  1  0
  6  7  1  0
  7  8  2  0
  8  9  1  0
  9 10  2  0
 10 11  1  0
 10 12  1  0
 12 13  2  0
  8  4  1  0
 13  7  1  0
  1 14  1  0
  1 15  1  0
  2 16  1  0
  2 17  1  0
  3 18  1  0
  3 19  1  0
  5 20  1  0
  6 21  1  0
  9 22  1  0
 11 23  1  0
 12 24  1  0
 13 25  1  0
M  END
>  <Ligand ID>  (1) 
LIG0000273

>  <Ligand>  (1) 
5-hydroxytryptamine

>  <SMILES>  (1) 
NCCc1c[nH]c2c1cc(O)cc2

>  <CID>  (1) 
5202.0

>  <ChEMBL ID>  (1) 
nan

>  <InChiKey>  (1) 
QZAYGJVTTNCVMB-UHFFFAOYSA-N

>  <InChi>  (1) 
InChI=1S/C10H12N2O/c11-4-3-7-6-12-10-2-1-8(13)5-9(7)10/h1-2,5-6,12-13H,3-4,11H2

>  <IUPAC Name>  (1) 
3-(2-aminoethyl)-1H-indol-5-ol

$$$$
