
     RDKit          3D

163166  0  0  0  0  0  0  0  0999 V2000
   -9.3031    4.9090    0.4924 C   0  0  0  0  0  0  0  0  0  0  0  0
   -9.5418    4.4561   -0.7851 N   0  0  0  0  0  0  0  0  0  0  0  0
   -8.9669    4.0406   -1.7659 C   0  0  0  0  0  0  0  0  0  0  0  0
   -7.5823    3.8806   -1.8458 N   0  0  0  0  0  0  0  0  0  0  0  0
   -6.6847    2.8890   -1.4257 C   0  0  0  0  0  0  0  0  0  0  0  0
   -6.4598    2.5424   -0.0321 C   0  0  0  0  0  0  0  0  0  0  0  0
   -7.3877    1.8396    0.8483 C   0  0  0  0  0  0  0  0  0  0  0  0
   -7.7800    0.4595    0.6350 C   0  0  1  0  0  0  0  0  0  0  0  0
   -8.4805    0.0163   -0.5321 C   0  0  0  0  0  0  0  0  0  0  0  0
   -8.1113   -1.0580   -1.1013 O   0  0  0  0  0  0  0  0  0  0  0  0
   -9.6144    0.6523   -1.1697 N   0  0  0  0  0  0  0  0  0  0  0  0
  -10.1892   -0.0637   -2.2630 C   0  0  2  0  0  0  0  0  0  0  0  0
   -9.5247    0.2157   -3.5833 C   0  0  0  0  0  0  0  0  0  0  0  0
   -8.5781    1.0149   -3.7308 O   0  0  0  0  0  0  0  0  0  0  0  0
  -10.0083   -0.4742   -4.7290 N   0  0  0  0  0  0  0  0  0  0  0  0
  -11.6578    0.1259   -2.3666 C   0  0  0  0  0  0  0  0  0  0  0  0
  -12.4403   -0.2570   -1.1768 C   0  0  0  0  0  0  0  0  0  0  0  0
  -13.0200   -1.4954   -0.8750 C   0  0  0  0  0  0  0  0  0  0  0  0
  -13.6181   -1.4281    0.3211 N   0  0  0  0  0  0  0  0  0  0  0  0
  -13.4762   -0.2015    0.8542 C   0  0  0  0  0  0  0  0  0  0  0  0
  -12.7413    0.5450   -0.0734 C   0  0  0  0  0  0  0  0  0  0  0  0
  -12.4940    1.8554    0.2616 C   0  0  0  0  0  0  0  0  0  0  0  0
  -12.9081    2.4677    1.4188 C   0  0  0  0  0  0  0  0  0  0  0  0
  -13.6271    1.7258    2.3187 C   0  0  0  0  0  0  0  0  0  0  0  0
  -13.9019    0.4176    2.0371 C   0  0  0  0  0  0  0  0  0  0  0  0
   -6.5912   -0.3969    0.8965 N   0  0  0  0  0  0  0  0  0  0  0  0
   -6.8135   -1.7858    1.2462 C   0  0  0  0  0  0  0  0  0  0  0  0
   -8.0152   -2.1177    1.2803 O   0  0  0  0  0  0  0  0  0  0  0  0
   -5.6331   -2.6065    1.5002 C   0  0  1  0  0  0  0  0  0  0  0  0
   -4.5142   -1.7501    1.8511 N   0  0  0  0  0  0  0  0  0  0  0  0
   -3.3944   -1.4238    1.0470 C   0  0  0  0  0  0  0  0  0  0  0  0
   -3.3128   -1.8494   -0.1377 O   0  0  0  0  0  0  0  0  0  0  0  0
   -2.3950   -0.6274    1.6139 N   0  0  0  0  0  0  0  0  0  0  0  0
   -1.1997   -0.1688    1.0674 N   0  0  0  0  0  0  0  0  0  0  0  0
   -0.1423   -1.1306    1.0143 C   0  0  0  0  0  0  0  0  0  0  0  0
   -0.5330   -2.2947    1.4482 O   0  0  0  0  0  0  0  0  0  0  0  0
    1.2041   -1.0103    0.5844 C   0  0  1  0  0  0  0  0  0  0  0  0
    1.7532    0.2893    0.2116 N   0  0  0  0  0  0  0  0  0  0  0  0
    2.9571    0.1958   -0.5672 C   0  0  0  0  0  0  0  0  0  0  0  0
    3.3885   -0.9211   -0.8811 O   0  0  0  0  0  0  0  0  0  0  0  0
    3.7409    1.3796   -1.0126 C   0  0  2  0  0  0  0  0  0  0  0  0
    2.9362    2.3141   -1.7971 C   0  0  2  0  0  0  0  0  0  0  0  0
    1.7697    2.7561   -1.1703 O   0  0  0  0  0  0  0  0  0  0  0  0
    2.5158    1.8156   -3.1650 C   0  0  0  0  0  0  0  0  0  0  0  0
    4.9742    0.9145   -1.6523 N   0  0  0  0  0  0  0  0  0  0  0  0
    6.0591    0.5011   -0.7938 C   0  0  0  0  0  0  0  0  0  0  0  0
    5.8193    0.5842    0.4562 O   0  0  0  0  0  0  0  0  0  0  0  0
    7.3394    0.0147   -1.3412 C   0  0  1  0  0  0  0  0  0  0  0  0
    8.1870   -0.5824   -0.3667 N   0  0  0  0  0  0  0  0  0  0  0  0
    9.6479   -0.5636   -0.4475 C   0  0  0  0  0  0  0  0  0  0  0  0
   10.0900    0.0388   -1.4290 O   0  0  0  0  0  0  0  0  0  0  0  0
   10.3161   -1.2621    0.6331 C   0  0  0  0  0  0  0  0  0  0  0  0
   11.7532   -1.4947    0.6822 C   0  0  0  0  0  0  0  0  0  0  0  0
   12.7729   -0.5594    0.8483 N   0  0  0  0  0  0  0  0  0  0  0  0
   13.2319    0.5658    0.1586 C   0  0  0  0  0  0  0  0  0  0  0  0
   12.7075    0.9769   -0.8777 O   0  0  0  0  0  0  0  0  0  0  0  0
   14.4210    1.3510    0.6521 C   0  0  1  0  0  0  0  0  0  0  0  0
   14.0590    2.7306    1.0665 C   0  0  0  0  0  0  0  0  0  0  0  0
   13.4773    3.4831   -0.0580 C   0  0  0  0  0  0  0  0  0  0  0  0
   12.1108    3.5654   -0.3036 C   0  0  0  0  0  0  0  0  0  0  0  0
   11.6003    4.2731   -1.3605 C   0  0  0  0  0  0  0  0  0  0  0  0
   12.4388    4.9261   -2.2120 C   0  0  0  0  0  0  0  0  0  0  0  0
   13.7914    4.8633   -1.9991 C   0  0  0  0  0  0  0  0  0  0  0  0
   14.3225    4.1452   -0.9252 C   0  0  0  0  0  0  0  0  0  0  0  0
   11.9088    5.6357   -3.2671 O   0  0  0  0  0  0  0  0  0  0  0  0
   15.0847    0.6258    1.7376 N   0  0  0  0  0  0  0  0  0  0  0  0
   16.3867    0.0501    1.5107 C   0  0  0  0  0  0  0  0  0  0  0  0
   16.9622    0.1671    0.3872 O   0  0  0  0  0  0  0  0  0  0  0  0
   17.1030   -0.7050    2.5831 C   0  0  0  0  0  0  0  0  0  0  0  0
    6.9563   -1.1335   -2.3114 C   0  0  0  0  0  0  0  0  0  0  0  0
    6.2610   -2.2322   -1.6137 C   0  0  0  0  0  0  0  0  0  0  0  0
    6.0399   -2.3101   -0.3935 O   0  0  0  0  0  0  0  0  0  0  0  0
    5.8008   -3.3122   -2.4413 N   0  0  0  0  0  0  0  0  0  0  0  0
    2.1244   -1.3567    1.8126 C   0  0  0  0  0  0  0  0  0  0  0  0
    1.9360   -2.7151    2.3067 C   0  0  0  0  0  0  0  0  0  0  0  0
    2.6645   -3.7168    1.6440 C   0  0  0  0  0  0  0  0  0  0  0  0
    2.5946   -5.0393    2.0290 C   0  0  0  0  0  0  0  0  0  0  0  0
    1.7776   -5.4056    3.1088 C   0  0  0  0  0  0  0  0  0  0  0  0
    1.0464   -4.4283    3.7804 C   0  0  0  0  0  0  0  0  0  0  0  0
    1.1478   -3.1022    3.3578 C   0  0  0  0  0  0  0  0  0  0  0  0
   -5.7320   -3.7789    2.4016 C   0  0  0  0  0  0  0  0  0  0  0  0
   -6.6211   -4.9018    2.1114 C   0  0  0  0  0  0  0  0  0  0  0  0
   -6.3497   -5.5748    0.7742 C   0  0  0  0  0  0  0  0  0  0  0  0
   -8.0820   -4.7923    2.3246 C   0  0  0  0  0  0  0  0  0  0  0  0
   -9.7765    3.7840   -2.9630 N   0  0  0  0  0  0  0  0  0  0  0  0
   -9.8340    4.3314    1.2946 H   0  0  0  0  0  0  0  0  0  0  0  0
   -8.2257    4.8490    0.8145 H   0  0  0  0  0  0  0  0  0  0  0  0
   -9.5649    5.9966    0.5922 H   0  0  0  0  0  0  0  0  0  0  0  0
   -7.1090    4.7150   -2.4044 H   0  0  0  0  0  0  0  0  0  0  0  0
   -5.6434    3.3068   -1.7738 H   0  0  0  0  0  0  0  0  0  0  0  0
   -6.6899    1.9617   -2.0949 H   0  0  0  0  0  0  0  0  0  0  0  0
   -5.3938    2.1238    0.0583 H   0  0  0  0  0  0  0  0  0  0  0  0
   -6.2761    3.5638    0.5023 H   0  0  0  0  0  0  0  0  0  0  0  0
   -6.8755    1.8526    1.8878 H   0  0  0  0  0  0  0  0  0  0  0  0
   -8.2595    2.5170    1.0607 H   0  0  0  0  0  0  0  0  0  0  0  0
   -8.4760    0.1169    1.5081 H   0  0  0  0  0  0  0  0  0  0  0  0
   -9.8844    1.5560   -0.7772 H   0  0  0  0  0  0  0  0  0  0  0  0
   -9.9999   -1.1783   -2.1499 H   0  0  0  0  0  0  0  0  0  0  0  0
  -10.8215   -1.1577   -4.6659 H   0  0  0  0  0  0  0  0  0  0  0  0
   -9.6163   -0.3704   -5.6834 H   0  0  0  0  0  0  0  0  0  0  0  0
  -12.1029   -0.4588   -3.2156 H   0  0  0  0  0  0  0  0  0  0  0  0
  -11.9182    1.2026   -2.5980 H   0  0  0  0  0  0  0  0  0  0  0  0
  -12.9798   -2.3687   -1.5313 H   0  0  0  0  0  0  0  0  0  0  0  0
  -14.1499   -2.1814    0.8584 H   0  0  0  0  0  0  0  0  0  0  0  0
  -11.9417    2.4816   -0.4403 H   0  0  0  0  0  0  0  0  0  0  0  0
  -12.6629    3.5137    1.5880 H   0  0  0  0  0  0  0  0  0  0  0  0
  -13.9490    2.2357    3.2378 H   0  0  0  0  0  0  0  0  0  0  0  0
  -14.4729   -0.1580    2.7813 H   0  0  0  0  0  0  0  0  0  0  0  0
   -5.6322   -0.0017    0.8297 H   0  0  0  0  0  0  0  0  0  0  0  0
   -5.2842   -2.9890    0.4451 H   0  0  0  0  0  0  0  0  0  0  0  0
   -4.5924   -1.3428    2.8417 H   0  0  0  0  0  0  0  0  0  0  0  0
   -2.5289   -0.3047    2.6329 H   0  0  0  0  0  0  0  0  0  0  0  0
   -1.0013    0.7706    0.7081 H   0  0  0  0  0  0  0  0  0  0  0  0
    1.5584   -1.8055   -0.1511 H   0  0  0  0  0  0  0  0  0  0  0  0
    1.3408    1.1946    0.4600 H   0  0  0  0  0  0  0  0  0  0  0  0
    4.0490    1.8467   -0.0313 H   0  0  0  0  0  0  0  0  0  0  0  0
    3.5660    3.2329   -1.9841 H   0  0  0  0  0  0  0  0  0  0  0  0
    1.0398    2.8744   -1.8162 H   0  0  0  0  0  0  0  0  0  0  0  0
    2.9207    2.4413   -3.9855 H   0  0  0  0  0  0  0  0  0  0  0  0
    2.8165    0.7889   -3.3712 H   0  0  0  0  0  0  0  0  0  0  0  0
    1.4008    1.8561   -3.2930 H   0  0  0  0  0  0  0  0  0  0  0  0
    5.1057    0.8637   -2.6783 H   0  0  0  0  0  0  0  0  0  0  0  0
    7.8937    0.7723   -1.9097 H   0  0  0  0  0  0  0  0  0  0  0  0
    7.7228   -1.0571    0.4577 H   0  0  0  0  0  0  0  0  0  0  0  0
   10.0528   -0.6424    1.5811 H   0  0  0  0  0  0  0  0  0  0  0  0
    9.7590   -2.2428    0.8748 H   0  0  0  0  0  0  0  0  0  0  0  0
   11.9599   -2.3360    1.4431 H   0  0  0  0  0  0  0  0  0  0  0  0
   12.0479   -2.0705   -0.3087 H   0  0  0  0  0  0  0  0  0  0  0  0
   13.3917   -0.7366    1.7619 H   0  0  0  0  0  0  0  0  0  0  0  0
   15.1363    1.3906   -0.1865 H   0  0  0  0  0  0  0  0  0  0  0  0
   14.9856    3.2258    1.4546 H   0  0  0  0  0  0  0  0  0  0  0  0
   13.2744    2.7392    1.8726 H   0  0  0  0  0  0  0  0  0  0  0  0
   11.4111    3.0542    0.3606 H   0  0  0  0  0  0  0  0  0  0  0  0
   10.5074    4.2972   -1.4853 H   0  0  0  0  0  0  0  0  0  0  0  0
   14.5218    5.3627   -2.6545 H   0  0  0  0  0  0  0  0  0  0  0  0
   15.4074    4.1330   -0.8177 H   0  0  0  0  0  0  0  0  0  0  0  0
   11.1588    6.3075   -3.0727 H   0  0  0  0  0  0  0  0  0  0  0  0
   14.6771    0.5010    2.6825 H   0  0  0  0  0  0  0  0  0  0  0  0
   17.0810   -0.0088    3.4719 H   0  0  0  0  0  0  0  0  0  0  0  0
   16.5530   -1.6293    2.8948 H   0  0  0  0  0  0  0  0  0  0  0  0
   18.1389   -0.9220    2.3082 H   0  0  0  0  0  0  0  0  0  0  0  0
    7.9300   -1.5079   -2.6958 H   0  0  0  0  0  0  0  0  0  0  0  0
    6.3456   -0.6673   -3.1137 H   0  0  0  0  0  0  0  0  0  0  0  0
    6.1735   -3.4940   -3.3961 H   0  0  0  0  0  0  0  0  0  0  0  0
    5.0465   -3.9806   -2.1092 H   0  0  0  0  0  0  0  0  0  0  0  0
    3.1780   -1.2192    1.4859 H   0  0  0  0  0  0  0  0  0  0  0  0
    1.9261   -0.6514    2.6367 H   0  0  0  0  0  0  0  0  0  0  0  0
    3.3037   -3.4551    0.8060 H   0  0  0  0  0  0  0  0  0  0  0  0
    3.1703   -5.7658    1.4916 H   0  0  0  0  0  0  0  0  0  0  0  0
    1.7260   -6.4571    3.4153 H   0  0  0  0  0  0  0  0  0  0  0  0
    0.4080   -4.6961    4.6177 H   0  0  0  0  0  0  0  0  0  0  0  0
    0.5763   -2.3383    3.8968 H   0  0  0  0  0  0  0  0  0  0  0  0
   -5.9571   -3.4322    3.4698 H   0  0  0  0  0  0  0  0  0  0  0  0
   -4.6585   -4.1530    2.5234 H   0  0  0  0  0  0  0  0  0  0  0  0
   -6.2997   -5.7493    2.8475 H   0  0  0  0  0  0  0  0  0  0  0  0
   -5.3173   -6.0030    0.7156 H   0  0  0  0  0  0  0  0  0  0  0  0
   -6.5956   -4.9081   -0.0758 H   0  0  0  0  0  0  0  0  0  0  0  0
   -7.0472   -6.4304    0.7044 H   0  0  0  0  0  0  0  0  0  0  0  0
   -8.5867   -4.6916    1.3346 H   0  0  0  0  0  0  0  0  0  0  0  0
   -8.3485   -4.0452    3.0721 H   0  0  0  0  0  0  0  0  0  0  0  0
   -8.4771   -5.7965    2.6792 H   0  0  0  0  0  0  0  0  0  0  0  0
   -9.5826    4.4243   -3.7857 H   0  0  0  0  0  0  0  0  0  0  0  0
  -10.4824    3.0305   -2.9780 H   0  0  0  0  0  0  0  0  0  0  0  0
  1  2  1  0
  2  3  2  3
  3  4  1  0
  4  5  1  0
  5  6  1  0
  6  7  1  0
  7  8  1  0
  8  9  1  0
  9 10  2  0
  9 11  1  0
 11 12  1  0
 12 13  1  0
 13 14  2  0
 13 15  1  0
 12 16  1  0
 16 17  1  0
 17 18  2  0
 18 19  1  0
 19 20  1  0
 20 21  2  0
 21 22  1  0
 22 23  2  0
 23 24  1  0
 24 25  2  0
  8 26  1  0
 26 27  1  0
 27 28  2  0
 27 29  1  0
 29 30  1  0
 30 31  1  0
 31 32  2  0
 31 33  1  0
 33 34  1  0
 34 35  1  0
 35 36  2  0
 35 37  1  0
 37 38  1  0
 38 39  1  0
 39 40  2  0
 39 41  1  0
 41 42  1  0
 42 43  1  0
 42 44  1  0
 41 45  1  0
 45 46  1  0
 46 47  2  0
 46 48  1  0
 48 49  1  0
 49 50  1  0
 50 51  2  0
 50 52  1  0
 52 53  1  0
 53 54  1  0
 54 55  1  0
 55 56  2  0
 55 57  1  0
 57 58  1  0
 58 59  1  0
 59 60  2  0
 60 61  1  0
 61 62  2  0
 62 63  1  0
 63 64  2  0
 62 65  1  0
 57 66  1  0
 66 67  1  0
 67 68  2  0
 67 69  1  0
 48 70  1  0
 70 71  1  0
 71 72  2  0
 71 73  1  0
 37 74  1  0
 74 75  1  0
 75 76  2  0
 76 77  1  0
 77 78  2  0
 78 79  1  0
 79 80  2  0
 29 81  1  0
 81 82  1  0
 82 83  1  0
 82 84  1  0
  3 85  1  0
 21 17  1  0
 64 59  1  0
 80 75  1  0
 25 20  1  0
  1 86  1  0
  1 87  1  0
  1 88  1  0
  4 89  1  0
  5 90  1  0
  5 91  1  0
  6 92  1  0
  6 93  1  0
  7 94  1  0
  7 95  1  0
  8 96  1  1
 11 97  1  0
 12 98  1  1
 15 99  1  0
 15100  1  0
 16101  1  0
 16102  1  0
 18103  1  0
 19104  1  0
 22105  1  0
 23106  1  0
 24107  1  0
 25108  1  0
 26109  1  0
 29110  1  6
 30111  1  0
 33112  1  0
 34113  1  0
 37114  1  6
 38115  1  0
 41116  1  1
 42117  1  6
 43118  1  0
 44119  1  0
 44120  1  0
 44121  1  0
 45122  1  0
 48123  1  6
 49124  1  0
 52125  1  0
 52126  1  0
 53127  1  0
 53128  1  0
 54129  1  0
 57130  1  6
 58131  1  0
 58132  1  0
 60133  1  0
 61134  1  0
 63135  1  0
 64136  1  0
 65137  1  0
 66138  1  0
 69139  1  0
 69140  1  0
 69141  1  0
 70142  1  0
 70143  1  0
 73144  1  0
 73145  1  0
 74146  1  0
 74147  1  0
 76148  1  0
 77149  1  0
 78150  1  0
 79151  1  0
 80152  1  0
 81153  1  0
 81154  1  0
 82155  1  0
 83156  1  0
 83157  1  0
 83158  1  0
 84159  1  0
 84160  1  0
 84161  1  0
 85162  1  0
 85163  1  0
M  END
>  <Ligand ID>  (1) 
LIG0005354

>  <Ligand>  (1) 
CHEMBL3985323

>  <SMILES>  (1) 
CN=C(NCCC[C@@H](C(=O)N[C@H](C(=O)N)Cc1c[nH]c2c1cccc2)NC(=O)[C@@H](NC(=O)NNC(=O)[C@@H](NC(=O)[C@H]([C@H](O)C)NC(=O)[C@@H](NC(=O)CCNC(=O)[C@@H](Cc1ccc(cc1)O)NC(=O)C)CC(=O)N)Cc1ccccc1)CC(C)C)N

>  <CID>  (1) 
24993005.0

>  <ChEMBL ID>  (1) 
nan

>  <InChiKey>  (1) 
CCNHAEHVXAPUDE-HTRJDKQHSA-N

>  <InChi>  (1) 
InChI=1S/C56H78N16O13/c1-30(2)24-41(51(81)66-39(16-11-22-62-55(59)60-5)50(80)67-40(48(58)78)27-35-29-63-38-15-10-9-14-37(35)38)69-56(85)72-71-53(83)43(25-33-12-7-6-8-13-33)68-54(84)47(31(3)73)70-52(82)44(28-45(57)76)65-46(77)21-23-61-49(79)42(64-32(4)74)26-34-17-19-36(75)20-18-34/h6-10,12-15,17-20,29-31,39-44,47,63,73,75H,11,16,21-28H2,1-5H3,(H2,57,76)(H2,58,78)(H,61,79)(H,64,74)(H,65,77)(H,66,81)(H,67,80)(H,68,84)(H,70,82)(H,71,83)(H3,59,60,62)(H2,69,72,85)/t31-,39+,40+,41+,42-,43+,44+,47+/m1/s1

>  <IUPAC Name>  (1) 
(2S)-2-[3-[[(2R)-2-acetamido-3-(4-hydroxyphenyl)propanoyl]amino]propanoylamino]-N-[(2S,3R)-1-[[(2S)-1-[2-[[(2S)-1-[[(2S)-1-[[(2S)-1-amino-3-(1H-indol-3-yl)-1-oxopropan-2-yl]amino]-5-[(N'-methylcarbamimidoyl)amino]-1-oxopentan-2-yl]amino]-4-methyl-1-oxopentan-2-yl]carbamoyl]hydrazinyl]-1-oxo-3-phenylpropan-2-yl]amino]-3-hydroxy-1-oxobutan-2-yl]butanediamide

$$$$
