
     RDKit          3D

127129  0  0  0  0  0  0  0  0999 V2000
   10.3892   -3.6224   -0.5091 N   0  0  0  0  0  0  0  0  0  0  0  0
    9.0209   -4.0150   -0.5481 C   0  0  0  0  0  0  0  0  0  0  0  0
    8.2086   -3.5249    0.6219 C   0  0  0  0  0  0  0  0  0  0  0  0
    8.1842   -2.0238    0.7284 C   0  0  1  0  0  0  0  0  0  0  0  0
    9.5463   -1.4596    0.8969 C   0  0  0  0  0  0  0  0  0  0  0  0
   10.3536   -1.9144    1.7746 O   0  0  0  0  0  0  0  0  0  0  0  0
   10.0398   -0.3877    0.1030 N   0  0  0  0  0  0  0  0  0  0  0  0
   11.3795    0.1556    0.2790 C   0  0  0  0  0  0  0  0  0  0  0  0
   11.4882    0.6673    1.6706 C   0  0  0  0  0  0  0  0  0  0  0  0
   10.5461    0.6084    2.4959 O   0  0  0  0  0  0  0  0  0  0  0  0
   12.7599    1.2455    2.0256 N   0  0  0  0  0  0  0  0  0  0  0  0
    7.4172   -1.3879   -0.3125 N   0  0  0  0  0  0  0  0  0  0  0  0
    6.1748   -0.7202   -0.0665 C   0  0  0  0  0  0  0  0  0  0  0  0
    5.6993   -0.6637    1.1030 O   0  0  0  0  0  0  0  0  0  0  0  0
    5.5030   -0.1195   -1.2436 C   0  0  2  0  0  0  0  0  0  0  0  0
    6.2081    0.9959   -1.8909 C   0  0  0  0  0  0  0  0  0  0  0  0
    5.5046    2.2287   -1.3784 C   0  0  0  0  0  0  0  0  0  0  0  0
    4.0375    1.7902   -1.2364 C   0  0  0  0  0  0  0  0  0  0  0  0
    4.1853    0.3930   -0.9183 N   0  0  0  0  0  0  0  0  0  0  0  0
    3.1922   -0.5052   -0.3541 C   0  0  0  0  0  0  0  0  0  0  0  0
    3.5414   -1.7362   -0.1239 O   0  0  0  0  0  0  0  0  0  0  0  0
    1.8312   -0.1742   -0.0167 C   0  0  2  0  0  0  0  0  0  0  0  0
    0.9326   -1.1358   -0.7983 C   0  0  0  0  0  0  0  0  0  0  0  0
    0.8424   -2.7963   -0.1516 S   0  0  0  0  0  0  0  0  0  0  0  0
   -0.1995   -2.7459    1.7561 S   0  0  0  0  0  0  0  0  0  0  0  0
   -1.9531   -2.7820    1.4066 C   0  0  0  0  0  0  0  0  0  0  0  0
   -2.4838   -4.0423    0.7753 C   0  0  2  0  0  0  0  0  0  0  0  0
   -1.6007   -4.4768   -0.3075 N   0  0  0  0  0  0  0  0  0  0  0  0
   -3.7898   -3.6036    0.0844 C   0  0  0  0  0  0  0  0  0  0  0  0
   -4.0057   -3.8336   -1.1018 O   0  0  0  0  0  0  0  0  0  0  0  0
   -4.7979   -2.9084    0.8014 N   0  0  0  0  0  0  0  0  0  0  0  0
   -5.9724   -2.4009    0.0556 C   0  0  1  0  0  0  0  0  0  0  0  0
   -7.2465   -2.8606    0.6852 C   0  0  0  0  0  0  0  0  0  0  0  0
   -7.2230   -4.3576    0.6573 C   0  0  0  0  0  0  0  0  0  0  0  0
   -7.7405   -5.0295   -0.4333 C   0  0  0  0  0  0  0  0  0  0  0  0
   -7.7377   -6.4080   -0.4981 C   0  0  0  0  0  0  0  0  0  0  0  0
   -7.2132   -7.1735    0.5335 C   0  0  0  0  0  0  0  0  0  0  0  0
   -6.6988   -6.5000    1.6179 C   0  0  0  0  0  0  0  0  0  0  0  0
   -6.7005   -5.1079    1.6855 C   0  0  0  0  0  0  0  0  0  0  0  0
   -5.7694   -0.9172    0.1371 C   0  0  0  0  0  0  0  0  0  0  0  0
   -4.8654   -0.4514    0.8428 O   0  0  0  0  0  0  0  0  0  0  0  0
   -6.5592    0.0358   -0.5598 N   0  0  0  0  0  0  0  0  0  0  0  0
   -6.3030    1.4968   -0.4078 C   0  0  2  0  0  0  0  0  0  0  0  0
   -4.9480    1.7635   -0.9173 C   0  0  0  0  0  0  0  0  0  0  0  0
   -4.2855    0.7878   -1.3457 O   0  0  0  0  0  0  0  0  0  0  0  0
   -4.2658    2.9986   -0.9984 N   0  0  0  0  0  0  0  0  0  0  0  0
   -2.8725    3.0935   -1.4925 C   0  0  2  0  0  0  0  0  0  0  0  0
   -1.9684    3.2185   -0.2917 C   0  0  0  0  0  0  0  0  0  0  0  0
   -2.5058    3.3270    0.8002 O   0  0  0  0  0  0  0  0  0  0  0  0
   -0.5576    3.2102   -0.3591 N   0  0  0  0  0  0  0  0  0  0  0  0
    0.3488    3.2891    0.7656 C   0  0  2  0  0  0  0  0  0  0  0  0
    1.1394    2.0760    0.9370 C   0  0  0  0  0  0  0  0  0  0  0  0
    1.7441    1.7115    1.9595 O   0  0  0  0  0  0  0  0  0  0  0  0
    1.2968    1.1452   -0.1699 N   0  0  0  0  0  0  0  0  0  0  0  0
   -0.3324    3.7067    2.0789 C   0  0  0  0  0  0  0  0  0  0  0  0
   -0.8885    5.0531    1.8981 C   0  0  0  0  0  0  0  0  0  0  0  0
   -1.6177    5.5026    2.8365 O   0  0  0  0  0  0  0  0  0  0  0  0
   -0.6795    5.8867    0.7723 N   0  0  0  0  0  0  0  0  0  0  0  0
   -2.7789    4.2570   -2.4265 C   0  0  0  0  0  0  0  0  0  0  0  0
   -3.1199    5.5534   -1.8279 C   0  0  0  0  0  0  0  0  0  0  0  0
   -3.4633    5.7545   -0.6507 O   0  0  0  0  0  0  0  0  0  0  0  0
   -3.0515    6.7048   -2.6821 N   0  0  0  0  0  0  0  0  0  0  0  0
   -6.5420    1.8744    1.0259 C   0  0  2  0  0  0  0  0  0  0  0  0
   -7.9768    1.4990    1.3723 C   0  0  0  0  0  0  0  0  0  0  0  0
   -9.0003    2.1958    0.5216 C   0  0  0  0  0  0  0  0  0  0  0  0
   -6.5093    3.3810    1.1546 C   0  0  0  0  0  0  0  0  0  0  0  0
   10.7187   -3.5122   -1.5102 H   0  0  0  0  0  0  0  0  0  0  0  0
   11.0220   -4.3196   -0.0669 H   0  0  0  0  0  0  0  0  0  0  0  0
    8.5056   -3.6277   -1.4733 H   0  0  0  0  0  0  0  0  0  0  0  0
    8.9762   -5.1159   -0.6633 H   0  0  0  0  0  0  0  0  0  0  0  0
    7.1720   -3.9115    0.6085 H   0  0  0  0  0  0  0  0  0  0  0  0
    8.6757   -3.9522    1.5327 H   0  0  0  0  0  0  0  0  0  0  0  0
    7.6510   -1.8079    1.6816 H   0  0  0  0  0  0  0  0  0  0  0  0
    9.3720   -0.0064   -0.6270 H   0  0  0  0  0  0  0  0  0  0  0  0
   11.4652    1.0264   -0.3959 H   0  0  0  0  0  0  0  0  0  0  0  0
   12.1611   -0.6100    0.0983 H   0  0  0  0  0  0  0  0  0  0  0  0
   13.0837    2.1550    1.5899 H   0  0  0  0  0  0  0  0  0  0  0  0
   13.3463    0.7360    2.7247 H   0  0  0  0  0  0  0  0  0  0  0  0
    7.8105   -1.4321   -1.2858 H   0  0  0  0  0  0  0  0  0  0  0  0
    5.3326   -0.9131   -2.0193 H   0  0  0  0  0  0  0  0  0  0  0  0
    7.2576    1.0130   -1.5234 H   0  0  0  0  0  0  0  0  0  0  0  0
    6.2160    0.9594   -3.0059 H   0  0  0  0  0  0  0  0  0  0  0  0
    5.8458    2.4726   -0.3521 H   0  0  0  0  0  0  0  0  0  0  0  0
    5.5699    3.0873   -2.0783 H   0  0  0  0  0  0  0  0  0  0  0  0
    3.5865    1.8879   -2.2682 H   0  0  0  0  0  0  0  0  0  0  0  0
    3.5191    2.4009   -0.5048 H   0  0  0  0  0  0  0  0  0  0  0  0
    1.7271   -0.4833    1.0864 H   0  0  0  0  0  0  0  0  0  0  0  0
   -0.1017   -0.7010   -0.7412 H   0  0  0  0  0  0  0  0  0  0  0  0
    1.2578   -1.1568   -1.8712 H   0  0  0  0  0  0  0  0  0  0  0  0
   -2.1443   -1.9586    0.6533 H   0  0  0  0  0  0  0  0  0  0  0  0
   -2.5114   -2.5108    2.3288 H   0  0  0  0  0  0  0  0  0  0  0  0
   -2.6388   -4.8061    1.5112 H   0  0  0  0  0  0  0  0  0  0  0  0
   -1.7779   -5.4792   -0.5404 H   0  0  0  0  0  0  0  0  0  0  0  0
   -1.8308   -3.9239   -1.1619 H   0  0  0  0  0  0  0  0  0  0  0  0
   -4.6566   -2.8001    1.7960 H   0  0  0  0  0  0  0  0  0  0  0  0
   -5.8583   -2.6645   -1.0065 H   0  0  0  0  0  0  0  0  0  0  0  0
   -7.2760   -2.4932    1.7109 H   0  0  0  0  0  0  0  0  0  0  0  0
   -8.0760   -2.5260    0.0521 H   0  0  0  0  0  0  0  0  0  0  0  0
   -8.1567   -4.4648   -1.2541 H   0  0  0  0  0  0  0  0  0  0  0  0
   -8.1506   -6.8764   -1.3647 H   0  0  0  0  0  0  0  0  0  0  0  0
   -7.2291   -8.2527    0.4461 H   0  0  0  0  0  0  0  0  0  0  0  0
   -6.2886   -7.0905    2.4241 H   0  0  0  0  0  0  0  0  0  0  0  0
   -6.2868   -4.6034    2.5550 H   0  0  0  0  0  0  0  0  0  0  0  0
   -7.2905   -0.3406   -1.1531 H   0  0  0  0  0  0  0  0  0  0  0  0
   -7.0384    1.9962   -1.0404 H   0  0  0  0  0  0  0  0  0  0  0  0
   -4.7354    3.8362   -0.7316 H   0  0  0  0  0  0  0  0  0  0  0  0
   -2.6707    2.1268   -1.9939 H   0  0  0  0  0  0  0  0  0  0  0  0
   -0.1670    3.1461   -1.3046 H   0  0  0  0  0  0  0  0  0  0  0  0
    0.9601    4.2187    0.5562 H   0  0  0  0  0  0  0  0  0  0  0  0
    1.0025    1.5168   -1.0684 H   0  0  0  0  0  0  0  0  0  0  0  0
    0.5190    3.7885    2.8003 H   0  0  0  0  0  0  0  0  0  0  0  0
   -1.0007    2.9503    2.4807 H   0  0  0  0  0  0  0  0  0  0  0  0
   -0.3345    5.5782   -0.1537 H   0  0  0  0  0  0  0  0  0  0  0  0
   -0.8837    6.9234    0.8475 H   0  0  0  0  0  0  0  0  0  0  0  0
   -3.5594    4.0731   -3.2221 H   0  0  0  0  0  0  0  0  0  0  0  0
   -1.8099    4.2985   -2.9664 H   0  0  0  0  0  0  0  0  0  0  0  0
   -2.3488    6.7669   -3.4724 H   0  0  0  0  0  0  0  0  0  0  0  0
   -3.7018    7.5290   -2.5489 H   0  0  0  0  0  0  0  0  0  0  0  0
   -5.8566    1.4556    1.7534 H   0  0  0  0  0  0  0  0  0  0  0  0
   -8.1435    0.4225    1.3803 H   0  0  0  0  0  0  0  0  0  0  0  0
   -8.1330    1.8496    2.4150 H   0  0  0  0  0  0  0  0  0  0  0  0
   -9.4653    1.4386   -0.1733 H   0  0  0  0  0  0  0  0  0  0  0  0
   -9.8555    2.5677    1.1350 H   0  0  0  0  0  0  0  0  0  0  0  0
   -8.5588    2.9615   -0.1100 H   0  0  0  0  0  0  0  0  0  0  0  0
   -6.8115    3.9042    0.2298 H   0  0  0  0  0  0  0  0  0  0  0  0
   -5.5071    3.7367    1.4461 H   0  0  0  0  0  0  0  0  0  0  0  0
   -7.1895    3.6957    2.0066 H   0  0  0  0  0  0  0  0  0  0  0  0
  1  2  1  0
  2  3  1  0
  3  4  1  0
  4  5  1  0
  5  6  2  0
  5  7  1  0
  7  8  1  0
  8  9  1  0
  9 10  2  0
  9 11  1  0
  4 12  1  0
 12 13  1  0
 13 14  2  0
 13 15  1  0
 15 16  1  0
 16 17  1  0
 17 18  1  0
 18 19  1  0
 19 20  1  0
 20 21  2  0
 20 22  1  0
 22 23  1  0
 23 24  1  0
 24 25  1  0
 25 26  1  0
 26 27  1  0
 27 28  1  0
 27 29  1  0
 29 30  2  0
 29 31  1  0
 31 32  1  0
 32 33  1  0
 33 34  1  0
 34 35  2  0
 35 36  1  0
 36 37  2  0
 37 38  1  0
 38 39  2  0
 32 40  1  0
 40 41  2  0
 40 42  1  0
 42 43  1  0
 43 44  1  0
 44 45  2  0
 44 46  1  0
 46 47  1  0
 47 48  1  0
 48 49  2  0
 48 50  1  0
 50 51  1  0
 51 52  1  0
 52 53  2  0
 52 54  1  0
 51 55  1  0
 55 56  1  0
 56 57  2  0
 56 58  1  0
 47 59  1  0
 59 60  1  0
 60 61  2  0
 60 62  1  0
 43 63  1  0
 63 64  1  0
 64 65  1  0
 63 66  1  0
 19 15  1  0
 54 22  1  0
 39 34  1  0
  1 67  1  0
  1 68  1  0
  2 69  1  0
  2 70  1  0
  3 71  1  0
  3 72  1  0
  4 73  1  1
  7 74  1  0
  8 75  1  0
  8 76  1  0
 11 77  1  0
 11 78  1  0
 12 79  1  0
 15 80  1  6
 16 81  1  0
 16 82  1  0
 17 83  1  0
 17 84  1  0
 18 85  1  0
 18 86  1  0
 22 87  1  1
 23 88  1  0
 23 89  1  0
 26 90  1  0
 26 91  1  0
 27 92  1  1
 28 93  1  0
 28 94  1  0
 31 95  1  0
 32 96  1  6
 33 97  1  0
 33 98  1  0
 35 99  1  0
 36100  1  0
 37101  1  0
 38102  1  0
 39103  1  0
 42104  1  0
 43105  1  6
 46106  1  0
 47107  1  6
 50108  1  0
 51109  1  6
 54110  1  0
 55111  1  0
 55112  1  0
 58113  1  0
 58114  1  0
 59115  1  0
 59116  1  0
 62117  1  0
 62118  1  0
 63119  1  1
 64120  1  0
 64121  1  0
 65122  1  0
 65123  1  0
 65124  1  0
 66125  1  0
 66126  1  0
 66127  1  0
M  END
>  <Ligand ID>  (1) 
LIG0000926

>  <Ligand>  (1) 
CHEMBL1817749

>  <SMILES>  (1) 
NCC[C@@H](C(=O)NCC(=O)N)NC(=O)[C@@H]1CCCN1C(=O)[C@@H]1CSSC[C@H](N)C(=O)N[C@@H](Cc2ccccc2)C(=O)N[C@H](C(=O)N[C@H](C(=O)N[C@H](C(=O)N1)CC(=O)N)CC(=O)N)[C@H](CC)C

>  <CID>  (1) 
53362546.0

>  <ChEMBL ID>  (1) 
nan

>  <InChiKey>  (1) 
DTMFDVDEGLWDDP-LWHYKBHJSA-N

>  <InChi>  (1) 
InChI=1S/C40H61N13O11S2/c1-3-20(2)32-39(63)50-26(16-30(44)55)35(59)49-25(15-29(43)54)36(60)51-27(19-66-65-18-22(42)33(57)48-24(37(61)52-32)14-21-8-5-4-6-9-21)40(64)53-13-7-10-28(53)38(62)47-23(11-12-41)34(58)46-17-31(45)56/h4-6,8-9,20,22-28,32H,3,7,10-19,41-42H2,1-2H3,(H2,43,54)(H2,44,55)(H2,45,56)(H,46,58)(H,47,62)(H,48,57)(H,49,59)(H,50,63)(H,51,60)(H,52,61)/t20-,22-,23-,24-,25-,26-,27-,28-,32-/m0/s1

>  <IUPAC Name>  (1) 
(2S)-N-[(2S)-4-amino-1-[(2-amino-2-oxoethyl)amino]-1-oxobutan-2-yl]-1-[(4R,7S,10S,13S,16S,19R)-19-amino-7,10-bis(2-amino-2-oxoethyl)-16-benzyl-13-[(2S)-butan-2-yl]-6,9,12,15,18-pentaoxo-1,2-dithia-5,8,11,14,17-pentazacycloicosane-4-carbonyl]pyrrolidine-2-carboxamide

$$$$
