
     RDKit          3D

 97101  0  0  0  0  0  0  0  0999 V2000
   -2.1657    5.3181    3.5567 N   0  0  0  0  0  0  0  0  0  0  0  0
   -3.2987    4.7488    2.9028 C   0  0  0  0  0  0  0  0  0  0  0  0
   -3.8170    3.6165    3.2605 N   0  0  0  0  0  0  0  0  0  0  0  0
   -3.2705    2.8592    4.3533 C   0  0  0  0  0  0  0  0  0  0  0  0
   -2.9673    1.4544    3.8240 C   0  0  0  0  0  0  0  0  0  0  0  0
   -1.9752    1.6030    2.7063 C   0  0  0  0  0  0  0  0  0  0  0  0
   -1.5476    0.3360    2.0719 C   0  0  1  0  0  0  0  0  0  0  0  0
   -2.7072   -0.3637    1.4740 C   0  0  0  0  0  0  0  0  0  0  0  0
   -3.7454   -0.6821    2.1158 O   0  0  0  0  0  0  0  0  0  0  0  0
   -2.7126   -0.7293    0.0869 N   0  0  0  0  0  0  0  0  0  0  0  0
   -3.8875   -1.4224   -0.4667 C   0  0  2  0  0  0  0  0  0  0  0  0
   -3.4209   -2.7742   -0.8675 C   0  0  0  0  0  0  0  0  0  0  0  0
   -4.2041   -3.6394   -1.3854 O   0  0  0  0  0  0  0  0  0  0  0  0
   -2.0643   -3.2072   -0.7040 N   0  0  0  0  0  0  0  0  0  0  0  0
   -4.4741   -0.6856   -1.6296 C   0  0  0  0  0  0  0  0  0  0  0  0
   -5.6360   -1.4027   -2.1517 C   0  0  0  0  0  0  0  0  0  0  0  0
   -5.7809   -2.1830   -3.2697 C   0  0  0  0  0  0  0  0  0  0  0  0
   -7.0545   -2.6457   -3.3442 N   0  0  0  0  0  0  0  0  0  0  0  0
   -7.7658   -2.1891   -2.2964 C   0  0  0  0  0  0  0  0  0  0  0  0
   -6.8916   -1.4071   -1.5367 C   0  0  0  0  0  0  0  0  0  0  0  0
   -7.3573   -0.8065   -0.3911 C   0  0  0  0  0  0  0  0  0  0  0  0
   -8.6659   -0.9381    0.0558 C   0  0  0  0  0  0  0  0  0  0  0  0
   -9.5195   -1.7201   -0.7141 C   0  0  0  0  0  0  0  0  0  0  0  0
   -9.0863   -2.3449   -1.8809 C   0  0  0  0  0  0  0  0  0  0  0  0
   -0.5075    0.5400    1.0749 N   0  0  0  0  0  0  0  0  0  0  0  0
    0.6910   -0.2171    1.0522 C   0  0  0  0  0  0  0  0  0  0  0  0
    0.8998   -1.1215    1.8992 O   0  0  0  0  0  0  0  0  0  0  0  0
    1.7195    0.0987   -0.0255 C   0  0  1  0  0  0  0  0  0  0  0  0
    2.8375   -0.7888    0.0791 N   0  0  0  0  0  0  0  0  0  0  0  0
    3.6156   -0.6850    1.2813 C   0  0  0  0  0  0  0  0  0  0  0  0
    3.1785    0.2021    2.1018 O   0  0  0  0  0  0  0  0  0  0  0  0
    4.7859   -1.4607    1.6386 C   0  0  1  0  0  0  0  0  0  0  0  0
    5.4316   -2.2396    0.6224 N   0  0  0  0  0  0  0  0  0  0  0  0
    5.8760   -1.7249   -0.6368 C   0  0  0  0  0  0  0  0  0  0  0  0
    5.7338   -0.5272   -0.9799 O   0  0  0  0  0  0  0  0  0  0  0  0
    6.5526   -2.6171   -1.6277 C   0  0  0  0  0  0  0  0  0  0  0  0
    7.7867   -2.1165   -2.3061 C   0  0  0  0  0  0  0  0  0  0  0  0
    6.4750   -2.1997   -3.0912 C   0  0  0  0  0  0  0  0  0  0  0  0
    5.6816   -0.7401    2.5836 C   0  0  0  0  0  0  0  0  0  0  0  0
    6.2472    0.5315    2.1406 C   0  0  0  0  0  0  0  0  0  0  0  0
    5.8282    1.7983    2.2429 N   0  0  0  0  0  0  0  0  0  0  0  0
    6.7250    2.6470    1.6635 C   0  0  0  0  0  0  0  0  0  0  0  0
    7.7430    1.9029    1.1790 N   0  0  0  0  0  0  0  0  0  0  0  0
    7.4675    0.6266    1.4595 C   0  0  0  0  0  0  0  0  0  0  0  0
    1.1337    0.3048   -1.3419 C   0  0  0  0  0  0  0  0  0  0  0  0
    2.1389    0.5965   -2.3742 C   0  0  0  0  0  0  0  0  0  0  0  0
    2.6405   -0.4961   -3.0900 C   0  0  0  0  0  0  0  0  0  0  0  0
    3.5543   -0.2322   -4.0550 C   0  0  0  0  0  0  0  0  0  0  0  0
    4.0073    1.0227   -4.3618 C   0  0  0  0  0  0  0  0  0  0  0  0
    3.5175    2.1115   -3.6576 C   0  0  0  0  0  0  0  0  0  0  0  0
    2.5768    1.8692   -2.6619 C   0  0  0  0  0  0  0  0  0  0  0  0
   -3.9238    5.4342    1.7981 N   0  0  0  0  0  0  0  0  0  0  0  0
   -2.2214    5.6326    4.5543 H   0  0  0  0  0  0  0  0  0  0  0  0
   -1.2420    5.4491    3.0901 H   0  0  0  0  0  0  0  0  0  0  0  0
   -3.9428    2.8468    5.2253 H   0  0  0  0  0  0  0  0  0  0  0  0
   -2.2841    3.3050    4.6221 H   0  0  0  0  0  0  0  0  0  0  0  0
   -2.6202    0.8100    4.6430 H   0  0  0  0  0  0  0  0  0  0  0  0
   -3.9605    1.0808    3.4904 H   0  0  0  0  0  0  0  0  0  0  0  0
   -1.1380    2.2444    3.0591 H   0  0  0  0  0  0  0  0  0  0  0  0
   -2.5013    2.2706    1.9480 H   0  0  0  0  0  0  0  0  0  0  0  0
   -1.1447   -0.3546    2.8614 H   0  0  0  0  0  0  0  0  0  0  0  0
   -1.9110   -0.5205   -0.5540 H   0  0  0  0  0  0  0  0  0  0  0  0
   -4.6616   -1.5407    0.3046 H   0  0  0  0  0  0  0  0  0  0  0  0
   -1.4271   -3.2041   -1.5185 H   0  0  0  0  0  0  0  0  0  0  0  0
   -1.6996   -3.5323    0.2406 H   0  0  0  0  0  0  0  0  0  0  0  0
   -4.7700    0.3332   -1.2587 H   0  0  0  0  0  0  0  0  0  0  0  0
   -3.6924   -0.4896   -2.3830 H   0  0  0  0  0  0  0  0  0  0  0  0
   -5.0198   -2.4017   -3.9824 H   0  0  0  0  0  0  0  0  0  0  0  0
   -7.4381   -3.2612   -4.0934 H   0  0  0  0  0  0  0  0  0  0  0  0
   -6.6666   -0.1981    0.1925 H   0  0  0  0  0  0  0  0  0  0  0  0
   -9.0111   -0.4492    0.9684 H   0  0  0  0  0  0  0  0  0  0  0  0
  -10.5388   -1.8248   -0.3692 H   0  0  0  0  0  0  0  0  0  0  0  0
   -9.7527   -2.9578   -2.4833 H   0  0  0  0  0  0  0  0  0  0  0  0
   -0.7239    1.3036    0.3670 H   0  0  0  0  0  0  0  0  0  0  0  0
    2.1032    1.0958    0.3808 H   0  0  0  0  0  0  0  0  0  0  0  0
    3.1378   -1.4935   -0.6239 H   0  0  0  0  0  0  0  0  0  0  0  0
    4.3351   -2.3160    2.3218 H   0  0  0  0  0  0  0  0  0  0  0  0
    5.6333   -3.2915    0.7382 H   0  0  0  0  0  0  0  0  0  0  0  0
    6.5656   -3.6863   -1.3588 H   0  0  0  0  0  0  0  0  0  0  0  0
    8.5263   -2.8766   -2.6156 H   0  0  0  0  0  0  0  0  0  0  0  0
    8.2219   -1.1327   -2.0747 H   0  0  0  0  0  0  0  0  0  0  0  0
    6.1043   -1.1884   -3.3435 H   0  0  0  0  0  0  0  0  0  0  0  0
    6.3773   -3.0066   -3.8491 H   0  0  0  0  0  0  0  0  0  0  0  0
    6.5003   -1.4727    2.8746 H   0  0  0  0  0  0  0  0  0  0  0  0
    5.1043   -0.6356    3.5479 H   0  0  0  0  0  0  0  0  0  0  0  0
    4.9723    2.1346    2.6857 H   0  0  0  0  0  0  0  0  0  0  0  0
    6.6190    3.7370    1.6108 H   0  0  0  0  0  0  0  0  0  0  0  0
    8.0994   -0.2104    1.1963 H   0  0  0  0  0  0  0  0  0  0  0  0
    0.5025   -0.5335   -1.7212 H   0  0  0  0  0  0  0  0  0  0  0  0
    0.4081    1.1770   -1.2859 H   0  0  0  0  0  0  0  0  0  0  0  0
    2.2854   -1.5114   -2.8578 H   0  0  0  0  0  0  0  0  0  0  0  0
    3.9675   -1.0549   -4.6318 H   0  0  0  0  0  0  0  0  0  0  0  0
    4.7386    1.1918   -5.1376 H   0  0  0  0  0  0  0  0  0  0  0  0
    3.8282    3.1137   -3.8460 H   0  0  0  0  0  0  0  0  0  0  0  0
    2.1785    2.7034   -2.1016 H   0  0  0  0  0  0  0  0  0  0  0  0
   -4.8856    5.2462    1.4916 H   0  0  0  0  0  0  0  0  0  0  0  0
   -3.3538    6.1549    1.2987 H   0  0  0  0  0  0  0  0  0  0  0  0
  1  2  1  0
  2  3  2  3
  3  4  1  0
  4  5  1  0
  5  6  1  0
  6  7  1  0
  7  8  1  0
  8  9  2  0
  8 10  1  0
 10 11  1  0
 11 12  1  0
 12 13  2  0
 12 14  1  0
 11 15  1  0
 15 16  1  0
 16 17  2  0
 17 18  1  0
 18 19  1  0
 19 20  2  0
 20 21  1  0
 21 22  2  0
 22 23  1  0
 23 24  2  0
  7 25  1  0
 25 26  1  0
 26 27  2  0
 26 28  1  0
 28 29  1  0
 29 30  1  0
 30 31  2  0
 30 32  1  0
 32 33  1  0
 33 34  1  0
 34 35  2  0
 34 36  1  0
 36 37  1  0
 37 38  1  0
 32 39  1  0
 39 40  1  0
 40 41  1  0
 41 42  1  0
 42 43  2  0
 43 44  1  0
 28 45  1  0
 45 46  1  0
 46 47  2  0
 47 48  1  0
 48 49  2  0
 49 50  1  0
 50 51  2  0
  2 52  1  0
 20 16  1  0
 38 36  1  0
 44 40  2  0
 51 46  1  0
 24 19  1  0
  1 53  1  0
  1 54  1  0
  4 55  1  0
  4 56  1  0
  5 57  1  0
  5 58  1  0
  6 59  1  0
  6 60  1  0
  7 61  1  1
 10 62  1  0
 11 63  1  1
 14 64  1  0
 14 65  1  0
 15 66  1  0
 15 67  1  0
 17 68  1  0
 18 69  1  0
 21 70  1  0
 22 71  1  0
 23 72  1  0
 24 73  1  0
 25 74  1  0
 28 75  1  1
 29 76  1  0
 32 77  1  1
 33 78  1  0
 36 79  1  0
 37 80  1  0
 37 81  1  0
 38 82  1  0
 38 83  1  0
 39 84  1  0
 39 85  1  0
 41 86  1  0
 42 87  1  0
 44 88  1  0
 45 89  1  0
 45 90  1  0
 47 91  1  0
 48 92  1  0
 49 93  1  0
 50 94  1  0
 51 95  1  0
 52 96  1  0
 52 97  1  0
M  END
>  <Ligand ID>  (1) 
LIG0002946

>  <Ligand>  (1) 
CHEMBL329586

>  <SMILES>  (1) 
NC(=NCCC[C@@H](C(=O)N[C@H](C(=O)N)Cc1c[nH]c2c1cccc2)NC(=O)[C@@H](NC(=O)[C@@H](NC(=O)C1CC1)Cc1[nH]cnc1)Cc1ccccc1)N

>  <CID>  (1) 
44322812.0

>  <ChEMBL ID>  (1) 
nan

>  <InChiKey>  (1) 
PEOUPURBSIPXLE-KRCBVYEFSA-N

>  <InChi>  (1) 
InChI=1S/C36H45N11O5/c37-31(48)28(16-23-18-42-26-10-5-4-9-25(23)26)45-33(50)27(11-6-14-41-36(38)39)44-34(51)29(15-21-7-2-1-3-8-21)47-35(52)30(17-24-19-40-20-43-24)46-32(49)22-12-13-22/h1-5,7-10,18-20,22,27-30,42H,6,11-17H2,(H2,37,48)(H,40,43)(H,44,51)(H,45,50)(H,46,49)(H,47,52)(H4,38,39,41)/t27-,28-,29-,30-/m0/s1

>  <IUPAC Name>  (1) 
N-[(2S)-1-[[(2S)-1-[[(2S)-1-[[(2S)-1-amino-3-(1H-indol-3-yl)-1-oxopropan-2-yl]amino]-5-(diaminomethylideneamino)-1-oxopentan-2-yl]amino]-1-oxo-3-phenylpropan-2-yl]amino]-3-(1H-imidazol-5-yl)-1-oxopropan-2-yl]cyclopropanecarboxamide

$$$$
