
     RDKit          3D

 64 66  0  0  0  0  0  0  0  0999 V2000
   -3.1305   -2.2104    0.5629 O   0  0  0  0  0  0  0  0  0  0  0  0
   -2.0614   -1.3252    0.6004 C   0  0  2  0  0  0  0  0  0  0  0  0
   -2.0512   -0.4061   -0.6044 C   0  0  1  0  0  0  0  0  0  0  0  0
   -2.7547    0.8937   -0.3642 C   0  0  0  0  0  0  0  0  0  0  0  0
   -2.2199    1.6365    0.6549 O   0  0  0  0  0  0  0  0  0  0  0  0
   -3.1375    3.0722    0.7871 P   0  0  0  0  0  0  0  0  0  0  0  0
   -2.2294    4.2911    0.7661 O   0  0  0  0  0  0  0  0  0  0  0  0
   -4.1600    3.2392   -0.5641 O   0  0  0  0  0  0  0  0  0  0  0  0
   -5.7408    2.7768   -0.2338 P   0  0  0  0  0  0  0  0  0  0  0  0
   -6.2355    1.6883   -1.1576 O   0  0  0  0  0  0  0  0  0  0  0  0
   -5.8918    2.2129    1.3506 O   0  0  0  0  0  0  0  0  0  0  0  0
   -7.3017    1.2524    1.3961 P   0  0  0  0  0  0  0  0  0  0  0  0
   -7.5216    0.7240    2.7961 O   0  0  0  0  0  0  0  0  0  0  0  0
   -7.1495   -0.0820    0.3685 O   0  0  0  0  0  0  0  0  0  0  0  0
   -8.6527    2.1870    0.9934 O   0  0  0  0  0  0  0  0  0  0  0  0
   -6.7483    4.1348   -0.4070 O   0  0  0  0  0  0  0  0  0  0  0  0
   -4.0816    3.0869    2.1682 O   0  0  0  0  0  0  0  0  0  0  0  0
   -0.7006   -0.2415   -0.9387 O   0  0  0  0  0  0  0  0  0  0  0  0
   -0.3537   -1.5947   -0.9628 C   0  0  2  0  0  0  0  0  0  0  0  0
   -0.7320   -2.0366    0.3912 C   0  0  2  0  0  0  0  0  0  0  0  0
   -0.7675   -3.3710    0.6234 O   0  0  0  0  0  0  0  0  0  0  0  0
    0.1189   -4.0345    1.8223 P   0  0  0  0  0  0  0  0  0  0  0  0
    0.8280   -5.3161    1.4823 O   0  0  0  0  0  0  0  0  0  0  0  0
   -0.7732   -4.3682    3.2449 O   0  0  0  0  0  0  0  0  0  0  0  0
    1.3342   -2.9432    2.2756 O   0  0  0  0  0  0  0  0  0  0  0  0
    0.9444   -1.8652   -1.4423 N   0  0  0  0  0  0  0  0  0  0  0  0
    1.1597   -2.6796   -2.5187 C   0  0  0  0  0  0  0  0  0  0  0  0
    2.4304   -2.9432   -2.9866 C   0  0  0  0  0  0  0  0  0  0  0  0
    3.4914   -2.3518   -2.3261 C   0  0  0  0  0  0  0  0  0  0  0  0
    4.6799   -2.5638   -2.7190 O   0  0  0  0  0  0  0  0  0  0  0  0
    3.2860   -1.5486   -1.2652 N   0  0  0  0  0  0  0  0  0  0  0  0
    2.0209   -1.3134   -0.8346 C   0  0  0  0  0  0  0  0  0  0  0  0
    1.8313   -0.5591    0.1614 O   0  0  0  0  0  0  0  0  0  0  0  0
    4.3567   -0.9069   -0.5404 C   0  0  0  0  0  0  0  0  0  0  0  0
    4.6821    0.4304   -1.1064 C   0  0  0  0  0  0  0  0  0  0  0  0
    4.0594    0.8857   -2.0982 O   0  0  0  0  0  0  0  0  0  0  0  0
    5.7495    1.1863   -0.4636 C   0  0  0  0  0  0  0  0  0  0  0  0
    6.4574    0.7246    0.6253 C   0  0  0  0  0  0  0  0  0  0  0  0
    7.4646    1.4281    1.2386 C   0  0  0  0  0  0  0  0  0  0  0  0
    7.7843    2.6746    0.7291 C   0  0  0  0  0  0  0  0  0  0  0  0
    7.1034    3.1902   -0.3676 C   0  0  0  0  0  0  0  0  0  0  0  0
    6.0965    2.4343   -0.9445 C   0  0  0  0  0  0  0  0  0  0  0  0
   -3.8518   -1.8348    1.0986 H   0  0  0  0  0  0  0  0  0  0  0  0
   -2.1088   -0.7502    1.5371 H   0  0  0  0  0  0  0  0  0  0  0  0
   -2.4885   -0.9739   -1.4491 H   0  0  0  0  0  0  0  0  0  0  0  0
   -3.8270    0.6639   -0.2367 H   0  0  0  0  0  0  0  0  0  0  0  0
   -2.6849    1.4634   -1.3137 H   0  0  0  0  0  0  0  0  0  0  0  0
   -6.3613   -0.5819    0.6650 H   0  0  0  0  0  0  0  0  0  0  0  0
   -8.4485    3.1270    1.2871 H   0  0  0  0  0  0  0  0  0  0  0  0
   -6.1935    4.9089   -0.1002 H   0  0  0  0  0  0  0  0  0  0  0  0
   -4.2145    4.0331    2.4850 H   0  0  0  0  0  0  0  0  0  0  0  0
   -1.1118   -2.0311   -1.6777 H   0  0  0  0  0  0  0  0  0  0  0  0
   -0.0395   -1.5750    1.1265 H   0  0  0  0  0  0  0  0  0  0  0  0
   -0.1735   -4.4910    4.0095 H   0  0  0  0  0  0  0  0  0  0  0  0
    2.1317   -3.3821    2.6616 H   0  0  0  0  0  0  0  0  0  0  0  0
    0.2639   -3.0937   -2.9660 H   0  0  0  0  0  0  0  0  0  0  0  0
    2.5451   -3.5833   -3.8273 H   0  0  0  0  0  0  0  0  0  0  0  0
    5.2757   -1.5176   -0.6381 H   0  0  0  0  0  0  0  0  0  0  0  0
    4.1257   -0.8511    0.5337 H   0  0  0  0  0  0  0  0  0  0  0  0
    6.2191   -0.2516    1.0376 H   0  0  0  0  0  0  0  0  0  0  0  0
    7.9795    1.0001    2.0942 H   0  0  0  0  0  0  0  0  0  0  0  0
    8.5861    3.2472    1.2086 H   0  0  0  0  0  0  0  0  0  0  0  0
    7.3381    4.1559   -0.7766 H   0  0  0  0  0  0  0  0  0  0  0  0
    5.5547    2.8287   -1.8063 H   0  0  0  0  0  0  0  0  0  0  0  0
  1  2  1  0
  2  3  1  0
  3  4  1  0
  4  5  1  0
  5  6  1  0
  6  7  2  0
  6  8  1  0
  8  9  1  0
  9 10  2  0
  9 11  1  0
 11 12  1  0
 12 13  2  0
 12 14  1  0
 12 15  1  0
  9 16  1  0
  6 17  1  0
  3 18  1  0
 18 19  1  0
 19 20  1  0
 20 21  1  0
 21 22  1  0
 22 23  2  0
 22 24  1  0
 22 25  1  0
 19 26  1  0
 26 27  1  0
 27 28  2  0
 28 29  1  0
 29 30  2  0
 29 31  1  0
 31 32  1  0
 32 33  2  0
 31 34  1  0
 34 35  1  0
 35 36  2  0
 35 37  1  0
 37 38  2  0
 38 39  1  0
 39 40  2  0
 40 41  1  0
 41 42  2  0
 20  2  1  0
 32 26  1  0
 42 37  1  0
  1 43  1  0
  2 44  1  1
  3 45  1  6
  4 46  1  0
  4 47  1  0
 14 48  1  0
 15 49  1  0
 16 50  1  0
 17 51  1  0
 19 52  1  6
 20 53  1  1
 24 54  1  0
 25 55  1  0
 27 56  1  0
 28 57  1  0
 34 58  1  0
 34 59  1  0
 38 60  1  0
 39 61  1  0
 40 62  1  0
 41 63  1  0
 42 64  1  0
M  END
>  <Ligand ID>  (1) 
LIG0002602

>  <Ligand>  (1) 
CHEMBL265170

>  <SMILES>  (1) 
O[C@@H]1[C@@H](COP(=O)(OP(=O)(OP(=O)(O)O)O)O)O[C@H]([C@@H]1OP(=O)(O)O)n1ccc(=O)n(c1=O)CC(=O)c1ccccc1

>  <CID>  (1) 
11993889.0

>  <ChEMBL ID>  (1) 
nan

>  <InChiKey>  (1) 
QTOAFQFXYVDFKV-DTZQCDIJSA-N

>  <InChi>  (1) 
InChI=1S/C17H22N2O19P4/c20-11(10-4-2-1-3-5-10)8-19-13(21)6-7-18(17(19)23)16-15(36-39(24,25)26)14(22)12(35-16)9-34-41(30,31)38-42(32,33)37-40(27,28)29/h1-7,12,14-16,22H,8-9H2,(H,30,31)(H,32,33)(H2,24,25,26)(H2,27,28,29)/t12-,14-,15-,16-/m1/s1

>  <IUPAC Name>  (1) 
[[(2R,3R,4R,5R)-5-(2,4-dioxo-3-phenacylpyrimidin-1-yl)-3-hydroxy-4-phosphonooxyoxolan-2-yl]methoxy-hydroxyphosphoryl] phosphono hydrogen phosphate

$$$$
