
     RDKit          3D

 42 45  0  0  0  0  0  0  0  0999 V2000
   -7.7007   -0.7635   -0.4158 F   0  0  0  0  0  0  0  0  0  0  0  0
   -6.4747   -0.4274    0.0378 C   0  0  0  0  0  0  0  0  0  0  0  0
   -6.1220   -0.4602    1.3568 C   0  0  0  0  0  0  0  0  0  0  0  0
   -4.8450   -0.1044    1.7760 C   0  0  0  0  0  0  0  0  0  0  0  0
   -3.8921    0.2961    0.8490 C   0  0  0  0  0  0  0  0  0  0  0  0
   -4.2791    0.3185   -0.4736 C   0  0  0  0  0  0  0  0  0  0  0  0
   -5.5437   -0.0325   -0.9009 C   0  0  0  0  0  0  0  0  0  0  0  0
   -3.1657    0.7444   -1.1701 C   0  0  0  0  0  0  0  0  0  0  0  0
   -2.1166    0.9780   -0.2865 C   0  0  0  0  0  0  0  0  0  0  0  0
   -2.6039    0.6933    0.9207 N   0  0  0  0  0  0  0  0  0  0  0  0
   -0.7567    1.4492   -0.6873 C   0  0  0  0  0  0  0  0  0  0  0  0
    0.0364    0.2949   -0.9421 N   0  0  0  0  0  0  0  0  0  0  0  0
    0.2063   -0.6008    0.1442 C   0  0  0  0  0  0  0  0  0  0  0  0
    1.5550   -1.3128    0.0302 C   0  0  0  0  0  0  0  0  0  0  0  0
    2.6212   -0.3870   -0.1836 N   0  0  0  0  0  0  0  0  0  0  0  0
    2.4763    0.5648   -1.2785 C   0  0  0  0  0  0  0  0  0  0  0  0
    1.1098    0.4352   -1.8552 C   0  0  0  0  0  0  0  0  0  0  0  0
    3.8134   -0.3199    0.5875 C   0  0  0  0  0  0  0  0  0  0  0  0
    4.0668   -1.1669    1.6562 C   0  0  0  0  0  0  0  0  0  0  0  0
    5.2371   -1.0859    2.3970 C   0  0  0  0  0  0  0  0  0  0  0  0
    6.1959   -0.1509    2.0912 C   0  0  0  0  0  0  0  0  0  0  0  0
    5.9150    0.6868    1.0130 C   0  0  0  0  0  0  0  0  0  0  0  0
    4.7715    0.5845    0.3135 N   0  0  0  0  0  0  0  0  0  0  0  0
   -6.8853   -0.7771    2.0634 H   0  0  0  0  0  0  0  0  0  0  0  0
   -4.5995   -0.1412    2.8229 H   0  0  0  0  0  0  0  0  0  0  0  0
   -5.7607    0.0146   -1.9597 H   0  0  0  0  0  0  0  0  0  0  0  0
   -3.1234    0.8730   -2.2289 H   0  0  0  0  0  0  0  0  0  0  0  0
   -2.0837    0.7607    1.8036 H   0  0  0  0  0  0  0  0  0  0  0  0
   -0.8687    2.0301   -1.6087 H   0  0  0  0  0  0  0  0  0  0  0  0
   -0.3777    2.0864    0.1363 H   0  0  0  0  0  0  0  0  0  0  0  0
    0.1047   -0.1422    1.1579 H   0  0  0  0  0  0  0  0  0  0  0  0
   -0.5575   -1.4031    0.0796 H   0  0  0  0  0  0  0  0  0  0  0  0
    1.6861   -2.0376    0.8255 H   0  0  0  0  0  0  0  0  0  0  0  0
    1.4577   -1.9127   -0.9214 H   0  0  0  0  0  0  0  0  0  0  0  0
    2.7383    1.5582   -0.8761 H   0  0  0  0  0  0  0  0  0  0  0  0
    3.2046    0.2809   -2.0912 H   0  0  0  0  0  0  0  0  0  0  0  0
    1.1169   -0.4569   -2.5313 H   0  0  0  0  0  0  0  0  0  0  0  0
    0.8766    1.2896   -2.5265 H   0  0  0  0  0  0  0  0  0  0  0  0
    3.3557   -1.9236    1.9496 H   0  0  0  0  0  0  0  0  0  0  0  0
    5.4413   -1.7432    3.2315 H   0  0  0  0  0  0  0  0  0  0  0  0
    7.1303   -0.0414    2.6355 H   0  0  0  0  0  0  0  0  0  0  0  0
    6.6395    1.4522    0.7201 H   0  0  0  0  0  0  0  0  0  0  0  0
  1  2  1  0
  2  3  2  0
  3  4  1  0
  4  5  2  0
  5  6  1  0
  6  7  2  0
  6  8  1  0
  8  9  2  0
  9 10  1  0
  9 11  1  0
 11 12  1  0
 12 13  1  0
 13 14  1  0
 14 15  1  0
 15 16  1  0
 16 17  1  0
 15 18  1  0
 18 19  2  0
 19 20  1  0
 20 21  2  0
 21 22  1  0
 22 23  2  0
  7  2  1  0
 17 12  1  0
 23 18  1  0
 10  5  1  0
  3 24  1  0
  4 25  1  0
  7 26  1  0
  8 27  1  0
 10 28  1  0
 11 29  1  0
 11 30  1  0
 13 31  1  0
 13 32  1  0
 14 33  1  0
 14 34  1  0
 16 35  1  0
 16 36  1  0
 17 37  1  0
 17 38  1  0
 19 39  1  0
 20 40  1  0
 21 41  1  0
 22 42  1  0
M  END
>  <Ligand ID>  (1) 
LIG0003158

>  <Ligand>  (1) 
CP-226269

>  <SMILES>  (1) 
Fc1ccc2c(c1)cc([nH]2)CN1CCN(CC1)c1ccccn1

>  <CID>  (1) 
9796720.0

>  <ChEMBL ID>  (1) 
nan

>  <InChiKey>  (1) 
PQOIDBZLMJMYCD-UHFFFAOYSA-N

>  <InChi>  (1) 
InChI=1S/C18H19FN4/c19-15-4-5-17-14(11-15)12-16(21-17)13-22-7-9-23(10-8-22)18-3-1-2-6-20-18/h1-6,11-12,21H,7-10,13H2

>  <IUPAC Name>  (1) 
5-fluoro-2-[(4-pyridin-2-ylpiperazin-1-yl)methyl]-1H-indole

$$$$
