
     RDKit          3D

 22 21  0  0  0  0  0  0  0  0999 V2000
    1.4807    1.2105   -0.2725 C   0  0  0  0  0  0  0  0  0  0  0  0
    0.7186   -0.0993   -0.2731 C   0  0  0  0  0  0  0  0  0  0  0  0
   -0.6730    0.1759    0.2027 C   0  0  0  0  0  0  0  0  0  0  0  0
   -0.7083    0.6929    1.5094 O   0  0  0  0  0  0  0  0  0  0  0  0
   -1.5341   -1.0672    0.2223 C   0  0  0  0  0  0  0  0  0  0  0  0
   -1.2944    1.2218   -0.6886 C   0  0  0  0  0  0  0  0  0  0  0  0
    0.7465   -0.6141   -1.5751 O   0  0  0  0  0  0  0  0  0  0  0  0
    1.4668   -1.0682    0.5978 C   0  0  0  0  0  0  0  0  0  0  0  0
    0.9892    1.8486   -1.0641 H   0  0  0  0  0  0  0  0  0  0  0  0
    2.5620    1.0979   -0.4593 H   0  0  0  0  0  0  0  0  0  0  0  0
    1.2511    1.7035    0.7132 H   0  0  0  0  0  0  0  0  0  0  0  0
   -0.6822   -0.0295    2.1719 H   0  0  0  0  0  0  0  0  0  0  0  0
   -2.5538   -0.7708    0.5463 H   0  0  0  0  0  0  0  0  0  0  0  0
   -1.1637   -1.7961    0.9577 H   0  0  0  0  0  0  0  0  0  0  0  0
   -1.6553   -1.5058   -0.8011 H   0  0  0  0  0  0  0  0  0  0  0  0
   -0.9786    1.1546   -1.7284 H   0  0  0  0  0  0  0  0  0  0  0  0
   -1.0990    2.2611   -0.3128 H   0  0  0  0  0  0  0  0  0  0  0  0
   -2.3990    1.0626   -0.6285 H   0  0  0  0  0  0  0  0  0  0  0  0
    0.4021   -1.5580   -1.5235 H   0  0  0  0  0  0  0  0  0  0  0  0
    2.5261   -1.0638    0.2580 H   0  0  0  0  0  0  0  0  0  0  0  0
    1.4922   -0.7423    1.6618 H   0  0  0  0  0  0  0  0  0  0  0  0
    1.1060   -2.1145    0.4859 H   0  0  0  0  0  0  0  0  0  0  0  0
  1  2  1  0
  2  3  1  0
  3  4  1  0
  3  5  1  0
  3  6  1  0
  2  7  1  0
  2  8  1  0
  1  9  1  0
  1 10  1  0
  1 11  1  0
  4 12  1  0
  5 13  1  0
  5 14  1  0
  5 15  1  0
  6 16  1  0
  6 17  1  0
  6 18  1  0
  7 19  1  0
  8 20  1  0
  8 21  1  0
  8 22  1  0
M  END
>  <Ligand ID>  (1) 
LIG0001025

>  <Ligand>  (1) 
Pinacol

>  <SMILES>  (1) 
CC(C(O)(C)C)(O)C

>  <CID>  (1) 
6425.0

>  <ChEMBL ID>  (1) 
nan

>  <InChiKey>  (1) 
IVDFJHOHABJVEH-UHFFFAOYSA-N

>  <InChi>  (1) 
InChI=1S/C6H14O2/c1-5(2,7)6(3,4)8/h7-8H,1-4H3

>  <IUPAC Name>  (1) 
2,3-dimethylbutane-2,3-diol

$$$$
