
     RDKit          3D

 57 57  0  0  0  0  0  0  0  0999 V2000
    6.5405    2.6245   -0.9804 C   0  0  0  0  0  0  0  0  0  0  0  0
    5.1492    2.5962   -0.3377 C   0  0  0  0  0  0  0  0  0  0  0  0
    4.8543    1.1715   -0.0248 C   0  0  0  0  0  0  0  0  0  0  0  0
    3.5140    0.9235    0.6217 C   0  0  0  0  0  0  0  0  0  0  0  0
    2.3534    1.3594   -0.2065 C   0  0  0  0  0  0  0  0  0  0  0  0
    1.0045    1.1142    0.4350 C   0  0  1  0  0  0  0  0  0  0  0  0
    0.7561   -0.3029    0.7218 C   0  0  0  0  0  0  0  0  0  0  0  0
    0.2797   -1.1409   -0.1908 C   0  0  0  0  0  0  0  0  0  0  0  0
    0.0486   -2.5449    0.1425 C   0  0  1  0  0  0  0  0  0  0  0  0
   -0.2611   -2.8254    1.5867 C   0  0  0  0  0  0  0  0  0  0  0  0
   -0.6870   -4.2775    1.5364 C   0  0  0  0  0  0  0  0  0  0  0  0
   -1.2360   -4.4312    0.1420 C   0  0  0  0  0  0  0  0  0  0  0  0
   -1.7373   -5.4901   -0.3228 O   0  0  0  0  0  0  0  0  0  0  0  0
   -1.0761   -3.1614   -0.5303 N   0  0  0  0  0  0  0  0  0  0  0  0
   -1.9042   -2.7466   -1.6054 C   0  0  0  0  0  0  0  0  0  0  0  0
   -3.1430   -2.0040   -1.2601 C   0  0  0  0  0  0  0  0  0  0  0  0
   -2.9220   -0.7075   -0.5138 C   0  0  0  0  0  0  0  0  0  0  0  0
   -4.3055   -0.1016   -0.2598 C   0  0  0  0  0  0  0  0  0  0  0  0
   -4.1960    1.2008    0.4893 C   0  0  0  0  0  0  0  0  0  0  0  0
   -3.3908    2.2033   -0.2940 C   0  0  0  0  0  0  0  0  0  0  0  0
   -3.3211    3.4746    0.4916 C   0  0  0  0  0  0  0  0  0  0  0  0
   -2.6846    4.4517    0.0055 O   0  0  0  0  0  0  0  0  0  0  0  0
   -3.9129    3.6415    1.7183 O   0  0  0  0  0  0  0  0  0  0  0  0
    1.0323    1.7995    1.6562 O   0  0  0  0  0  0  0  0  0  0  0  0
    6.5598    1.7933   -1.7065 H   0  0  0  0  0  0  0  0  0  0  0  0
    6.7955    3.6097   -1.3830 H   0  0  0  0  0  0  0  0  0  0  0  0
    7.2556    2.4016   -0.1403 H   0  0  0  0  0  0  0  0  0  0  0  0
    4.4263    3.0222   -1.0586 H   0  0  0  0  0  0  0  0  0  0  0  0
    5.2059    3.2548    0.5359 H   0  0  0  0  0  0  0  0  0  0  0  0
    5.6280    0.8127    0.6926 H   0  0  0  0  0  0  0  0  0  0  0  0
    4.9568    0.5711   -0.9440 H   0  0  0  0  0  0  0  0  0  0  0  0
    3.4745   -0.1897    0.7840 H   0  0  0  0  0  0  0  0  0  0  0  0
    3.4670    1.3554    1.6396 H   0  0  0  0  0  0  0  0  0  0  0  0
    2.4777    2.3830   -0.5541 H   0  0  0  0  0  0  0  0  0  0  0  0
    2.3526    0.7242   -1.1403 H   0  0  0  0  0  0  0  0  0  0  0  0
    0.2505    1.5402   -0.2696 H   0  0  0  0  0  0  0  0  0  0  0  0
    0.9614   -0.7230    1.7230 H   0  0  0  0  0  0  0  0  0  0  0  0
    0.0716   -0.7559   -1.1743 H   0  0  0  0  0  0  0  0  0  0  0  0
    0.9913   -3.1237   -0.0763 H   0  0  0  0  0  0  0  0  0  0  0  0
    0.6264   -2.6844    2.2452 H   0  0  0  0  0  0  0  0  0  0  0  0
   -1.0823   -2.1719    1.9240 H   0  0  0  0  0  0  0  0  0  0  0  0
   -1.4723   -4.5271    2.2513 H   0  0  0  0  0  0  0  0  0  0  0  0
    0.2241   -4.9241    1.6436 H   0  0  0  0  0  0  0  0  0  0  0  0
   -2.1575   -3.5707   -2.3036 H   0  0  0  0  0  0  0  0  0  0  0  0
   -1.2781   -2.0456   -2.2341 H   0  0  0  0  0  0  0  0  0  0  0  0
   -3.7727   -1.8473   -2.1591 H   0  0  0  0  0  0  0  0  0  0  0  0
   -3.7817   -2.6255   -0.5812 H   0  0  0  0  0  0  0  0  0  0  0  0
   -2.2482   -0.0251   -1.0399 H   0  0  0  0  0  0  0  0  0  0  0  0
   -2.5086   -0.8844    0.4994 H   0  0  0  0  0  0  0  0  0  0  0  0
   -4.8698    0.0338   -1.1858 H   0  0  0  0  0  0  0  0  0  0  0  0
   -4.8291   -0.8202    0.4218 H   0  0  0  0  0  0  0  0  0  0  0  0
   -3.7263    1.0095    1.4906 H   0  0  0  0  0  0  0  0  0  0  0  0
   -5.2089    1.6155    0.6442 H   0  0  0  0  0  0  0  0  0  0  0  0
   -3.8610    2.3604   -1.2676 H   0  0  0  0  0  0  0  0  0  0  0  0
   -2.3227    1.8881   -0.4079 H   0  0  0  0  0  0  0  0  0  0  0  0
   -4.3812    4.5288    1.9145 H   0  0  0  0  0  0  0  0  0  0  0  0
    1.0206    1.1878    2.4239 H   0  0  0  0  0  0  0  0  0  0  0  0
  1  2  1  0
  2  3  1  0
  3  4  1  0
  4  5  1  0
  5  6  1  0
  6  7  1  0
  7  8  2  0
  8  9  1  0
  9 10  1  0
 10 11  1  0
 11 12  1  0
 12 13  2  0
 12 14  1  0
 14 15  1  0
 15 16  1  0
 16 17  1  0
 17 18  1  0
 18 19  1  0
 19 20  1  0
 20 21  1  0
 21 22  2  0
 21 23  1  0
  6 24  1  0
 14  9  1  0
  1 25  1  0
  1 26  1  0
  1 27  1  0
  2 28  1  0
  2 29  1  0
  3 30  1  0
  3 31  1  0
  4 32  1  0
  4 33  1  0
  5 34  1  0
  5 35  1  0
  6 36  1  6
  7 37  1  0
  8 38  1  0
  9 39  1  6
 10 40  1  0
 10 41  1  0
 11 42  1  0
 11 43  1  0
 15 44  1  0
 15 45  1  0
 16 46  1  0
 16 47  1  0
 17 48  1  0
 17 49  1  0
 18 50  1  0
 18 51  1  0
 19 52  1  0
 19 53  1  0
 20 54  1  0
 20 55  1  0
 23 56  1  0
 24 57  1  0
M  END
>  <Ligand ID>  (1) 
LIG0004191

>  <Ligand>  (1) 
CHEMBL42027

>  <SMILES>  (1) 
CCCCC[C@@H](/C=C/[C@H]1CCC(=O)N1CCCCCCC(=O)O)O

>  <CID>  (1) 
44289922.0

>  <ChEMBL ID>  (1) 
nan

>  <InChiKey>  (1) 
XOPMUDZOEKPBQZ-NSNJOPQOSA-N

>  <InChi>  (1) 
InChI=1S/C19H33NO4/c1-2-3-6-9-17(21)13-11-16-12-14-18(22)20(16)15-8-5-4-7-10-19(23)24/h11,13,16-17,21H,2-10,12,14-15H2,1H3,(H,23,24)/b13-11+/t16-,17-/m0/s1

>  <IUPAC Name>  (1) 
7-[(2R)-2-[(E,3S)-3-hydroxyoct-1-enyl]-5-oxopyrrolidin-1-yl]heptanoic acid

$$$$
