
     RDKit          3D

 41 41  0  0  0  0  0  0  0  0999 V2000
   -7.3696    1.9168    0.9354 O   0  0  0  0  0  0  0  0  0  0  0  0
   -6.6681    0.9019    0.3120 C   0  0  0  0  0  0  0  0  0  0  0  0
   -7.2859    0.0771   -0.4001 O   0  0  0  0  0  0  0  0  0  0  0  0
   -5.1963    0.7273    0.4384 C   0  0  0  0  0  0  0  0  0  0  0  0
   -4.8241   -0.4043   -0.3276 O   0  0  0  0  0  0  0  0  0  0  0  0
   -3.4814   -0.7552   -0.3530 C   0  0  0  0  0  0  0  0  0  0  0  0
   -3.0556   -1.6370    0.6248 C   0  0  0  0  0  0  0  0  0  0  0  0
   -4.1381   -2.2858    1.8374 Cl  0  0  0  0  0  0  0  0  0  0  0  0
   -1.7393   -2.0238    0.6548 C   0  0  0  0  0  0  0  0  0  0  0  0
   -0.8164   -1.5491   -0.2787 C   0  0  0  0  0  0  0  0  0  0  0  0
   -1.2350   -0.6699   -1.2557 C   0  0  0  0  0  0  0  0  0  0  0  0
   -2.5748   -0.2979   -1.2583 C   0  0  0  0  0  0  0  0  0  0  0  0
   -3.1527    0.8243   -2.4900 Cl  0  0  0  0  0  0  0  0  0  0  0  0
    0.5839   -2.0046   -0.1905 C   0  0  0  0  0  0  0  0  0  0  0  0
    1.6534   -0.7050    0.4878 P   0  0  0  0  0  0  0  0  0  0  0  0
    0.7697    0.2524    1.2531 O   0  0  0  0  0  0  0  0  0  0  0  0
    2.5040    0.1951   -0.8026 C   0  0  0  0  0  0  0  0  0  0  0  0
    3.9873    0.2461   -0.6359 C   0  0  0  0  0  0  0  0  0  0  0  0
    4.4763    0.8885    0.6165 C   0  0  2  0  0  0  0  0  0  0  0  0
    4.0198    2.2828    0.6878 C   0  0  0  0  0  0  0  0  0  0  0  0
    4.9003    3.1883    0.6762 O   0  0  0  0  0  0  0  0  0  0  0  0
    2.6989    2.6289    0.7650 O   0  0  0  0  0  0  0  0  0  0  0  0
    5.9458    0.8521    0.5460 N   0  0  0  0  0  0  0  0  0  0  0  0
    2.6884   -1.4061    1.6217 O   0  0  0  0  0  0  0  0  0  0  0  0
    1.0485   -2.3465   -1.4625 O   0  0  0  0  0  0  0  0  0  0  0  0
   -8.2864    2.1946    0.6029 H   0  0  0  0  0  0  0  0  0  0  0  0
   -4.8701    0.6035    1.4801 H   0  0  0  0  0  0  0  0  0  0  0  0
   -4.7190    1.6185   -0.0383 H   0  0  0  0  0  0  0  0  0  0  0  0
   -1.3827   -2.7080    1.4042 H   0  0  0  0  0  0  0  0  0  0  0  0
   -0.5464   -0.2778   -2.0006 H   0  0  0  0  0  0  0  0  0  0  0  0
    0.6385   -2.9226    0.4495 H   0  0  0  0  0  0  0  0  0  0  0  0
    2.0513    1.1813   -0.9501 H   0  0  0  0  0  0  0  0  0  0  0  0
    2.3337   -0.3711   -1.7665 H   0  0  0  0  0  0  0  0  0  0  0  0
    4.4251   -0.7451   -0.8352 H   0  0  0  0  0  0  0  0  0  0  0  0
    4.3661    0.8920   -1.4793 H   0  0  0  0  0  0  0  0  0  0  0  0
    4.2276    0.3557    1.5458 H   0  0  0  0  0  0  0  0  0  0  0  0
    2.4452    3.6233    0.7066 H   0  0  0  0  0  0  0  0  0  0  0  0
    6.2663    0.0639   -0.0619 H   0  0  0  0  0  0  0  0  0  0  0  0
    6.3629    0.7569    1.4812 H   0  0  0  0  0  0  0  0  0  0  0  0
    2.5628   -1.0711    2.5424 H   0  0  0  0  0  0  0  0  0  0  0  0
    0.3858   -2.0906   -2.1253 H   0  0  0  0  0  0  0  0  0  0  0  0
  1  2  1  0
  2  3  2  0
  2  4  1  0
  4  5  1  0
  5  6  1  0
  6  7  2  0
  7  8  1  0
  7  9  1  0
  9 10  2  0
 10 11  1  0
 11 12  2  0
 12 13  1  0
 10 14  1  0
 14 15  1  0
 15 16  2  0
 15 17  1  0
 17 18  1  0
 18 19  1  0
 19 20  1  0
 20 21  2  0
 20 22  1  0
 19 23  1  0
 15 24  1  0
 14 25  1  0
 12  6  1  0
  1 26  1  0
  4 27  1  0
  4 28  1  0
  9 29  1  0
 11 30  1  0
 14 31  1  0
 17 32  1  0
 17 33  1  0
 18 34  1  0
 18 35  1  0
 19 36  1  1
 22 37  1  0
 23 38  1  0
 23 39  1  0
 24 40  1  0
 25 41  1  0
M  END
>  <Ligand ID>  (1) 
LIG0002453

>  <Ligand>  (1) 
US9212196, Derivative 9

>  <SMILES>  (1) 
OC(=O)COc1c(Cl)cc(cc1Cl)C(P(=O)(CC[C@H](C(=O)O)N)O)O

>  <CID>  (1) 
122197941.0

>  <ChEMBL ID>  (1) 
nan

>  <InChiKey>  (1) 
ACWNTECWAQAJID-CGCSKFHYSA-N

>  <InChi>  (1) 
InChI=1S/C13H16Cl2NO8P/c14-7-3-6(4-8(15)11(7)24-5-10(17)18)13(21)25(22,23)2-1-9(16)12(19)20/h3-4,9,13,21H,1-2,5,16H2,(H,17,18)(H,19,20)(H,22,23)/t9-,13?/m1/s1

>  <IUPAC Name>  (1) 
(2R)-2-amino-4-[[[4-(carboxymethoxy)-3,5-dichlorophenyl]-hydroxymethyl]-hydroxyphosphoryl]butanoic acid

$$$$
