
     RDKit          3D

158163  0  0  0  0  0  0  0  0999 V2000
   10.8604   -3.1595    1.2334 C   0  0  0  0  0  0  0  0  0  0  0  0
    9.4127   -3.4715    1.4454 C   0  0  0  0  0  0  0  0  0  0  0  0
    8.6263   -2.2511    1.7760 C   0  0  0  0  0  0  0  0  0  0  0  0
    8.6110   -1.1523    0.7939 C   0  0  0  0  0  0  0  0  0  0  0  0
    8.0747   -1.4035   -0.5576 C   0  0  2  0  0  0  0  0  0  0  0  0
    6.6640   -1.8596   -0.6237 C   0  0  0  0  0  0  0  0  0  0  0  0
    6.3154   -2.6137   -1.5717 O   0  0  0  0  0  0  0  0  0  0  0  0
    5.7858   -1.4188    0.3947 N   0  0  0  0  0  0  0  0  0  0  0  0
    4.3708   -1.7928    0.4444 C   0  0  1  0  0  0  0  0  0  0  0  0
    4.0954   -3.0145    1.2465 C   0  0  0  0  0  0  0  0  0  0  0  0
    2.6975   -3.4872    1.0959 C   0  0  0  0  0  0  0  0  0  0  0  0
    1.8077   -2.8795    0.4777 O   0  0  0  0  0  0  0  0  0  0  0  0
    2.2266   -4.7355    1.6638 N   0  0  0  0  0  0  0  0  0  0  0  0
    0.8387   -5.0722    1.4186 C   0  0  0  0  0  0  0  0  0  0  0  0
    0.5472   -5.2151   -0.0234 C   0  0  0  0  0  0  0  0  0  0  0  0
   -0.9306   -5.4206   -0.3610 C   0  0  0  0  0  0  0  0  0  0  0  0
   -1.7628   -4.3392    0.2192 C   0  0  0  0  0  0  0  0  0  0  0  0
   -3.1881   -4.4294   -0.3470 C   0  0  1  0  0  0  0  0  0  0  0  0
   -3.7230   -5.7371   -0.0950 C   0  0  0  0  0  0  0  0  0  0  0  0
   -4.6565   -5.8529    0.7811 O   0  0  0  0  0  0  0  0  0  0  0  0
   -3.3427   -6.9601   -0.7116 N   0  0  0  0  0  0  0  0  0  0  0  0
   -3.9713   -3.3615    0.3318 N   0  0  0  0  0  0  0  0  0  0  0  0
   -4.2811   -3.4763    1.7082 C   0  0  0  0  0  0  0  0  0  0  0  0
   -4.3659   -2.1742   -0.3360 C   0  0  0  0  0  0  0  0  0  0  0  0
   -3.9013   -2.0818   -1.4685 O   0  0  0  0  0  0  0  0  0  0  0  0
   -5.2168   -1.1031    0.1964 C   0  0  1  0  0  0  0  0  0  0  0  0
   -4.8135    0.1972   -0.4511 N   0  0  0  0  0  0  0  0  0  0  0  0
   -3.9759    1.1036    0.2792 C   0  0  0  0  0  0  0  0  0  0  0  0
   -3.5843    0.6597    1.3779 O   0  0  0  0  0  0  0  0  0  0  0  0
   -3.5845    2.4460   -0.1967 C   0  0  1  0  0  0  0  0  0  0  0  0
   -2.3198    2.4341   -0.9511 N   0  0  0  0  0  0  0  0  0  0  0  0
   -1.1066    2.9551   -0.4385 C   0  0  0  0  0  0  0  0  0  0  0  0
   -1.1885    3.3251    0.7287 O   0  0  0  0  0  0  0  0  0  0  0  0
    0.1900    3.0789   -1.1433 C   0  0  2  0  0  0  0  0  0  0  0  0
    1.2867    3.1449   -0.1364 N   0  0  0  0  0  0  0  0  0  0  0  0
    2.2702    2.1142   -0.0887 C   0  0  0  0  0  0  0  0  0  0  0  0
    2.1765    1.3105   -1.0149 O   0  0  0  0  0  0  0  0  0  0  0  0
    3.3364    1.9266    0.9113 C   0  0  1  0  0  0  0  0  0  0  0  0
    4.1166    0.7145    0.5451 N   0  0  0  0  0  0  0  0  0  0  0  0
    3.5504   -0.6068    0.7507 C   0  0  0  0  0  0  0  0  0  0  0  0
    2.3916   -0.5707    1.1693 O   0  0  0  0  0  0  0  0  0  0  0  0
    4.2853    3.0043    1.1989 C   0  0  0  0  0  0  0  0  0  0  0  0
    5.1211    3.4678    0.0633 C   0  0  0  0  0  0  0  0  0  0  0  0
    6.3515    2.9782   -0.2953 N   0  0  0  0  0  0  0  0  0  0  0  0
    6.8106    3.6254   -1.3638 C   0  0  0  0  0  0  0  0  0  0  0  0
    5.9109    4.5432   -1.7303 N   0  0  0  0  0  0  0  0  0  0  0  0
    4.8829    4.4535   -0.8694 C   0  0  0  0  0  0  0  0  0  0  0  0
    1.4206    4.1860    0.7881 C   0  0  0  0  0  0  0  0  0  0  0  0
    0.2317    4.1661   -2.1456 C   0  0  0  0  0  0  0  0  0  0  0  0
    0.0048    5.5314   -1.7265 C   0  0  0  0  0  0  0  0  0  0  0  0
    0.9656    6.4595   -1.3872 C   0  0  0  0  0  0  0  0  0  0  0  0
    0.7151    7.7392   -0.9864 C   0  0  0  0  0  0  0  0  0  0  0  0
   -0.5890    8.1704   -0.9040 C   0  0  0  0  0  0  0  0  0  0  0  0
   -1.5944    7.2884   -1.2307 C   0  0  0  0  0  0  0  0  0  0  0  0
   -1.3163    5.9961   -1.6341 C   0  0  0  0  0  0  0  0  0  0  0  0
   -2.8900    7.7598   -1.1311 C   0  0  0  0  0  0  0  0  0  0  0  0
   -3.1203    9.0501   -0.7238 C   0  0  0  0  0  0  0  0  0  0  0  0
   -2.1065    9.9308   -0.3983 C   0  0  0  0  0  0  0  0  0  0  0  0
   -0.8175    9.4701   -0.4940 C   0  0  0  0  0  0  0  0  0  0  0  0
   -2.2885    1.8642   -2.2497 C   0  0  0  0  0  0  0  0  0  0  0  0
   -4.6108    3.2813   -0.8288 C   0  0  0  0  0  0  0  0  0  0  0  0
   -5.7887    3.7383   -0.0656 C   0  0  0  0  0  0  0  0  0  0  0  0
   -6.7299    2.8044    0.5687 C   0  0  0  0  0  0  0  0  0  0  0  0
   -6.2446    1.9838    1.6327 N   0  0  0  0  0  0  0  0  0  0  0  0
   -7.0280    1.6071    2.5820 C   0  0  0  0  0  0  0  0  0  0  0  0
   -8.3760    2.0201    2.5508 N   0  0  0  0  0  0  0  0  0  0  0  0
   -6.5448    0.7913    3.6511 N   0  0  0  0  0  0  0  0  0  0  0  0
   -6.6648   -1.3040   -0.1168 C   0  0  0  0  0  0  0  0  0  0  0  0
   -7.2236   -2.5330    0.3819 C   0  0  0  0  0  0  0  0  0  0  0  0
   -7.9253   -2.6706    1.5835 C   0  0  0  0  0  0  0  0  0  0  0  0
   -8.2774   -3.9616    1.7320 N   0  0  0  0  0  0  0  0  0  0  0  0
   -7.8302   -4.6851    0.6632 C   0  0  0  0  0  0  0  0  0  0  0  0
   -7.1754   -3.8109   -0.1815 C   0  0  0  0  0  0  0  0  0  0  0  0
   -6.6353   -4.3146   -1.3557 C   0  0  0  0  0  0  0  0  0  0  0  0
   -6.7420   -5.6506   -1.6808 C   0  0  0  0  0  0  0  0  0  0  0  0
   -7.4054   -6.5137   -0.8129 C   0  0  0  0  0  0  0  0  0  0  0  0
   -7.9537   -6.0436    0.3617 C   0  0  0  0  0  0  0  0  0  0  0  0
    8.9475   -2.0523   -1.5054 N   0  0  0  0  0  0  0  0  0  0  0  0
    9.4931   -1.3556   -2.6481 C   0  0  0  0  0  0  0  0  0  0  0  0
    9.2123   -0.1445   -2.8420 O   0  0  0  0  0  0  0  0  0  0  0  0
   10.3978   -2.0875   -3.6014 C   0  0  0  0  0  0  0  0  0  0  0  0
   11.4707   -3.9475    1.7177 H   0  0  0  0  0  0  0  0  0  0  0  0
   11.0418   -2.1573    1.6940 H   0  0  0  0  0  0  0  0  0  0  0  0
   11.1648   -3.1489    0.1780 H   0  0  0  0  0  0  0  0  0  0  0  0
    9.3598   -4.1185    2.3813 H   0  0  0  0  0  0  0  0  0  0  0  0
    8.9983   -4.1199    0.6614 H   0  0  0  0  0  0  0  0  0  0  0  0
    7.6021   -2.5388    2.1412 H   0  0  0  0  0  0  0  0  0  0  0  0
    9.1034   -1.8251    2.7126 H   0  0  0  0  0  0  0  0  0  0  0  0
    8.0523   -0.3019    1.2429 H   0  0  0  0  0  0  0  0  0  0  0  0
    9.6601   -0.7852    0.6715 H   0  0  0  0  0  0  0  0  0  0  0  0
    7.9929   -0.3322   -1.0137 H   0  0  0  0  0  0  0  0  0  0  0  0
    6.0903   -0.7876    1.1929 H   0  0  0  0  0  0  0  0  0  0  0  0
    4.1405   -2.1006   -0.6274 H   0  0  0  0  0  0  0  0  0  0  0  0
    4.1855   -2.7213    2.3331 H   0  0  0  0  0  0  0  0  0  0  0  0
    4.8369   -3.7854    1.0039 H   0  0  0  0  0  0  0  0  0  0  0  0
    2.9153   -5.2551    2.1794 H   0  0  0  0  0  0  0  0  0  0  0  0
    0.6967   -6.0664    1.9391 H   0  0  0  0  0  0  0  0  0  0  0  0
    0.1678   -4.3889    1.9824 H   0  0  0  0  0  0  0  0  0  0  0  0
    0.9578   -4.5065   -0.7283 H   0  0  0  0  0  0  0  0  0  0  0  0
    1.0074   -6.2118   -0.3309 H   0  0  0  0  0  0  0  0  0  0  0  0
   -0.9983   -5.4051   -1.4629 H   0  0  0  0  0  0  0  0  0  0  0  0
   -1.1956   -6.4345   -0.0201 H   0  0  0  0  0  0  0  0  0  0  0  0
   -1.7348   -4.2618    1.3057 H   0  0  0  0  0  0  0  0  0  0  0  0
   -1.3946   -3.3418   -0.1537 H   0  0  0  0  0  0  0  0  0  0  0  0
   -3.0449   -4.2185   -1.4137 H   0  0  0  0  0  0  0  0  0  0  0  0
   -3.1034   -7.0402   -1.7316 H   0  0  0  0  0  0  0  0  0  0  0  0
   -3.2890   -7.8381   -0.1551 H   0  0  0  0  0  0  0  0  0  0  0  0
   -3.4623   -4.0167    2.2603 H   0  0  0  0  0  0  0  0  0  0  0  0
   -5.2575   -3.9013    1.8985 H   0  0  0  0  0  0  0  0  0  0  0  0
   -4.2568   -2.4581    2.2078 H   0  0  0  0  0  0  0  0  0  0  0  0
   -5.0525   -0.9589    1.2699 H   0  0  0  0  0  0  0  0  0  0  0  0
   -5.0918    0.4750   -1.3681 H   0  0  0  0  0  0  0  0  0  0  0  0
   -3.2673    3.0145    0.7530 H   0  0  0  0  0  0  0  0  0  0  0  0
    0.3410    2.1422   -1.7146 H   0  0  0  0  0  0  0  0  0  0  0  0
    2.7629    1.6770    1.8719 H   0  0  0  0  0  0  0  0  0  0  0  0
    5.0392    0.7296    0.1477 H   0  0  0  0  0  0  0  0  0  0  0  0
    3.9205    3.8522    1.8276 H   0  0  0  0  0  0  0  0  0  0  0  0
    5.0602    2.5402    1.9173 H   0  0  0  0  0  0  0  0  0  0  0  0
    6.8927    2.2131    0.1742 H   0  0  0  0  0  0  0  0  0  0  0  0
    7.7494    3.4650   -1.8774 H   0  0  0  0  0  0  0  0  0  0  0  0
    4.0125    5.0744   -0.9228 H   0  0  0  0  0  0  0  0  0  0  0  0
    1.5622    3.7155    1.8052 H   0  0  0  0  0  0  0  0  0  0  0  0
    0.5063    4.7942    0.9136 H   0  0  0  0  0  0  0  0  0  0  0  0
    2.2276    4.8962    0.6444 H   0  0  0  0  0  0  0  0  0  0  0  0
   -0.5451    3.9234   -2.9183 H   0  0  0  0  0  0  0  0  0  0  0  0
    1.1985    4.0342   -2.7215 H   0  0  0  0  0  0  0  0  0  0  0  0
    1.9917    6.1365   -1.4512 H   0  0  0  0  0  0  0  0  0  0  0  0
    1.5497    8.3802   -0.7432 H   0  0  0  0  0  0  0  0  0  0  0  0
   -2.1048    5.3078   -1.8935 H   0  0  0  0  0  0  0  0  0  0  0  0
   -3.6840    7.0793   -1.3830 H   0  0  0  0  0  0  0  0  0  0  0  0
   -4.1274    9.4224   -0.6430 H   0  0  0  0  0  0  0  0  0  0  0  0
   -2.2835   10.9389   -0.0817 H   0  0  0  0  0  0  0  0  0  0  0  0
    0.0385   10.1064   -0.2550 H   0  0  0  0  0  0  0  0  0  0  0  0
   -2.8530    2.5935   -2.9064 H   0  0  0  0  0  0  0  0  0  0  0  0
   -1.3142    1.7028   -2.7089 H   0  0  0  0  0  0  0  0  0  0  0  0
   -2.9155    0.9393   -2.2429 H   0  0  0  0  0  0  0  0  0  0  0  0
   -4.0839    4.2471   -1.1660 H   0  0  0  0  0  0  0  0  0  0  0  0
   -4.9285    2.8629   -1.8416 H   0  0  0  0  0  0  0  0  0  0  0  0
   -6.3675    4.4581   -0.7576 H   0  0  0  0  0  0  0  0  0  0  0  0
   -5.4431    4.4785    0.7318 H   0  0  0  0  0  0  0  0  0  0  0  0
   -7.5445    3.4454    1.0398 H   0  0  0  0  0  0  0  0  0  0  0  0
   -7.2416    2.1696   -0.2194 H   0  0  0  0  0  0  0  0  0  0  0  0
   -9.1611    1.3797    2.2856 H   0  0  0  0  0  0  0  0  0  0  0  0
   -8.6212    3.0025    2.7979 H   0  0  0  0  0  0  0  0  0  0  0  0
   -6.7597    1.1085    4.6324 H   0  0  0  0  0  0  0  0  0  0  0  0
   -6.0027   -0.0833    3.5120 H   0  0  0  0  0  0  0  0  0  0  0  0
   -7.2744   -0.3945    0.1223 H   0  0  0  0  0  0  0  0  0  0  0  0
   -6.7214   -1.3475   -1.2512 H   0  0  0  0  0  0  0  0  0  0  0  0
   -8.1657   -1.8964    2.2987 H   0  0  0  0  0  0  0  0  0  0  0  0
   -8.8182   -4.3448    2.5576 H   0  0  0  0  0  0  0  0  0  0  0  0
   -6.1264   -3.6462   -2.0324 H   0  0  0  0  0  0  0  0  0  0  0  0
   -6.3276   -6.0769   -2.5962 H   0  0  0  0  0  0  0  0  0  0  0  0
   -7.4713   -7.5694   -1.1013 H   0  0  0  0  0  0  0  0  0  0  0  0
   -8.4761   -6.7316    1.0397 H   0  0  0  0  0  0  0  0  0  0  0  0
    9.2439   -3.0585   -1.4407 H   0  0  0  0  0  0  0  0  0  0  0  0
   10.2556   -1.6305   -4.5997 H   0  0  0  0  0  0  0  0  0  0  0  0
   11.4278   -1.9667   -3.2135 H   0  0  0  0  0  0  0  0  0  0  0  0
   10.0750   -3.1392   -3.6802 H   0  0  0  0  0  0  0  0  0  0  0  0
  1  2  1  0
  2  3  1  0
  3  4  1  0
  4  5  1  0
  5  6  1  0
  6  7  2  0
  6  8  1  0
  8  9  1  0
  9 10  1  0
 10 11  1  0
 11 12  2  0
 11 13  1  0
 13 14  1  0
 14 15  1  0
 15 16  1  0
 16 17  1  0
 17 18  1  0
 18 19  1  0
 19 20  2  0
 19 21  1  0
 18 22  1  0
 22 23  1  0
 22 24  1  0
 24 25  2  0
 24 26  1  0
 26 27  1  0
 27 28  1  0
 28 29  2  0
 28 30  1  0
 30 31  1  0
 31 32  1  0
 32 33  2  0
 32 34  1  0
 34 35  1  0
 35 36  1  0
 36 37  2  0
 36 38  1  0
 38 39  1  0
 39 40  1  0
 40 41  2  0
 38 42  1  0
 42 43  1  0
 43 44  1  0
 44 45  1  0
 45 46  2  0
 46 47  1  0
 35 48  1  0
 34 49  1  0
 49 50  1  0
 50 51  2  0
 51 52  1  0
 52 53  2  0
 53 54  1  0
 54 55  2  0
 54 56  1  0
 56 57  2  0
 57 58  1  0
 58 59  2  0
 31 60  1  0
 30 61  1  0
 61 62  1  0
 62 63  1  0
 63 64  1  0
 64 65  2  3
 65 66  1  0
 65 67  1  0
 26 68  1  0
 68 69  1  0
 69 70  2  0
 70 71  1  0
 71 72  1  0
 72 73  2  0
 73 74  1  0
 74 75  2  0
 75 76  1  0
 76 77  2  0
  5 78  1  0
 78 79  1  0
 79 80  2  0
 79 81  1  0
 40  9  1  0
 47 43  2  0
 55 50  1  0
 73 69  1  0
 59 53  1  0
 77 72  1  0
  1 82  1  0
  1 83  1  0
  1 84  1  0
  2 85  1  0
  2 86  1  0
  3 87  1  0
  3 88  1  0
  4 89  1  0
  4 90  1  0
  5 91  1  6
  8 92  1  0
  9 93  1  6
 10 94  1  0
 10 95  1  0
 13 96  1  0
 14 97  1  0
 14 98  1  0
 15 99  1  0
 15100  1  0
 16101  1  0
 16102  1  0
 17103  1  0
 17104  1  0
 18105  1  6
 21106  1  0
 21107  1  0
 23108  1  0
 23109  1  0
 23110  1  0
 26111  1  1
 27112  1  0
 30113  1  1
 34114  1  6
 38115  1  1
 39116  1  0
 42117  1  0
 42118  1  0
 44119  1  0
 45120  1  0
 47121  1  0
 48122  1  0
 48123  1  0
 48124  1  0
 49125  1  0
 49126  1  0
 51127  1  0
 52128  1  0
 55129  1  0
 56130  1  0
 57131  1  0
 58132  1  0
 59133  1  0
 60134  1  0
 60135  1  0
 60136  1  0
 61137  1  0
 61138  1  0
 62139  1  0
 62140  1  0
 63141  1  0
 63142  1  0
 66143  1  0
 66144  1  0
 67145  1  0
 67146  1  0
 68147  1  0
 68148  1  0
 70149  1  0
 71150  1  0
 74151  1  0
 75152  1  0
 76153  1  0
 77154  1  0
 78155  1  0
 81156  1  0
 81157  1  0
 81158  1  0
M  END
>  <Ligand ID>  (1) 
LIG0001809

>  <Ligand>  (1) 
CHEMBL3600917

>  <SMILES>  (1) 
CCCC[C@H](C(=O)N[C@H]1CC(=O)NCCCC[C@@H](C(=O)N)N(C)C(=O)[C@@H](NC(=O)[C@@H](N(C(=O)[C@H](N(C(=O)[C@@H](NC1=O)Cc1[nH]cnc1)C)Cc1ccc2c(c1)cccc2)C)CCCN=C(N)N)Cc1c[nH]c2c1cccc2)NC(=O)C

>  <CID>  (1) 
122184636.0

>  <ChEMBL ID>  (1) 
nan

>  <InChiKey>  (1) 
YENCSZMEVJAKQJ-YMSCLFLVSA-N

>  <InChi>  (1) 
InChI=1S/C57H77N15O9/c1-6-7-18-42(66-34(2)73)51(76)67-43-30-49(74)62-24-13-12-20-46(50(58)75)70(3)54(79)44(28-38-31-64-41-19-11-10-17-40(38)41)69-53(78)47(21-14-25-63-57(59)60)71(4)56(81)48(27-35-22-23-36-15-8-9-16-37(36)26-35)72(5)55(80)45(68-52(43)77)29-39-32-61-33-65-39/h8-11,15-17,19,22-23,26,31-33,42-48,64H,6-7,12-14,18,20-21,24-25,27-30H2,1-5H3,(H2,58,75)(H,61,65)(H,62,74)(H,66,73)(H,67,76)(H,68,77)(H,69,78)(H4,59,60,63)/t42-,43+,44+,45+,46+,47+,48-/m1/s1

>  <IUPAC Name>  (1) 
(3S,6S,9R,12S,15S,23S)-15-[[(2R)-2-acetamidohexanoyl]amino]-6-[3-(diaminomethylideneamino)propyl]-12-(1H-imidazol-5-ylmethyl)-3-(1H-indol-3-ylmethyl)-1,7,10-trimethyl-9-(naphthalen-2-ylmethyl)-2,5,8,11,14,17-hexaoxo-1,4,7,10,13,18-hexazacyclotricosane-23-carboxamide

$$$$
