
     RDKit          3D

 68 67  0  0  0  0  0  0  0  0999 V2000
    1.3864   -0.5627    0.5200 O   0  0  0  0  0  0  0  0  0  0  0  0
    0.4933    0.3494   -0.0232 C   0  0  0  0  0  0  0  0  0  0  0  0
    0.9497    1.4202   -0.4683 O   0  0  0  0  0  0  0  0  0  0  0  0
   -0.9416   -0.0226   -0.0318 C   0  0  0  0  0  0  0  0  0  0  0  0
   -1.0909   -1.1910   -0.7724 F   0  0  0  0  0  0  0  0  0  0  0  0
   -1.7066    0.9615   -0.6443 F   0  0  0  0  0  0  0  0  0  0  0  0
   -1.4304   -0.2908    1.2340 F   0  0  0  0  0  0  0  0  0  0  0  0
   -7.2748    3.0856    1.4785 C   0  0  0  0  0  0  0  0  0  0  0  0
   -6.0786    2.2507    0.9225 C   0  0  0  0  0  0  0  0  0  0  0  0
   -6.5511    1.3239   -0.1077 C   0  0  0  0  0  0  0  0  0  0  0  0
   -5.6934    0.4341   -0.8595 C   0  0  0  0  0  0  0  0  0  0  0  0
   -4.8575   -0.6191   -0.2815 C   0  0  0  0  0  0  0  0  0  0  0  0
   -3.7557   -0.2440    0.6591 C   0  0  0  0  0  0  0  0  0  0  0  0
   -2.9968   -1.4966    1.1538 C   0  0  0  0  0  0  0  0  0  0  0  0
   -2.3637   -2.2737    0.0544 C   0  0  0  0  0  0  0  0  0  0  0  0
   -1.6381   -3.4597    0.6374 C   0  0  0  0  0  0  0  0  0  0  0  0
   -0.5517   -2.9940    1.5442 C   0  0  0  0  0  0  0  0  0  0  0  0
    0.4647   -2.1688    0.8687 C   0  0  0  0  0  0  0  0  0  0  0  0
    0.4363   -0.8080    0.7514 C   0  0  0  0  0  0  0  0  0  0  0  0
    1.4178   -0.1047    0.1038 C   0  0  0  0  0  0  0  0  0  0  0  0
    2.5196   -0.7321   -0.4834 C   0  0  0  0  0  0  0  0  0  0  0  0
    2.5536   -2.0983   -0.3688 C   0  0  0  0  0  0  0  0  0  0  0  0
    1.5566   -2.8145    0.2891 C   0  0  0  0  0  0  0  0  0  0  0  0
    3.4811    0.0665   -1.1286 N   0  0  0  0  0  0  0  0  0  0  0  0
    4.6501   -0.3752   -1.7738 C   0  0  0  0  0  0  0  0  0  0  0  0
    4.9625   -1.5796   -1.8394 O   0  0  0  0  0  0  0  0  0  0  0  0
    5.5747    0.6009   -2.4146 C   0  0  1  0  0  0  0  0  0  0  0  0
    6.0181    1.5941   -1.3740 C   0  0  0  0  0  0  0  0  0  0  0  0
    6.7144    0.9325   -0.3763 O   0  0  0  0  0  0  0  0  0  0  0  0
    7.2556    1.9655    0.8430 P   0  0  0  0  0  0  0  0  0  0  0  0
    6.2130    1.9948    1.9496 O   0  0  0  0  0  0  0  0  0  0  0  0
    7.4685    3.5397    0.2880 O   0  0  0  0  0  0  0  0  0  0  0  0
    8.7380    1.3693    1.4449 O   0  0  0  0  0  0  0  0  0  0  0  0
    6.7063   -0.0817   -3.0178 N   0  0  0  0  0  0  0  0  0  0  0  0
    2.3401   -0.6640    0.1860 H   0  0  0  0  0  0  0  0  0  0  0  0
   -7.8508    2.3859    2.0818 H   0  0  0  0  0  0  0  0  0  0  0  0
   -6.7934    3.8328    2.1440 H   0  0  0  0  0  0  0  0  0  0  0  0
   -7.8185    3.5712    0.6615 H   0  0  0  0  0  0  0  0  0  0  0  0
   -5.6762    1.8225    1.8603 H   0  0  0  0  0  0  0  0  0  0  0  0
   -5.3764    3.0161    0.5402 H   0  0  0  0  0  0  0  0  0  0  0  0
   -7.1511    1.9390   -0.8652 H   0  0  0  0  0  0  0  0  0  0  0  0
   -7.4038    0.7245    0.3721 H   0  0  0  0  0  0  0  0  0  0  0  0
   -6.3319   -0.0877   -1.6599 H   0  0  0  0  0  0  0  0  0  0  0  0
   -4.9937    1.0354   -1.5492 H   0  0  0  0  0  0  0  0  0  0  0  0
   -4.3085   -1.0839   -1.1732 H   0  0  0  0  0  0  0  0  0  0  0  0
   -5.4358   -1.5092    0.0921 H   0  0  0  0  0  0  0  0  0  0  0  0
   -2.9367    0.3301    0.1204 H   0  0  0  0  0  0  0  0  0  0  0  0
   -4.0185    0.3851    1.5018 H   0  0  0  0  0  0  0  0  0  0  0  0
   -3.8281   -2.1190    1.6150 H   0  0  0  0  0  0  0  0  0  0  0  0
   -2.3672   -1.2179    1.9947 H   0  0  0  0  0  0  0  0  0  0  0  0
   -3.0879   -2.5828   -0.7297 H   0  0  0  0  0  0  0  0  0  0  0  0
   -1.5817   -1.6312   -0.4367 H   0  0  0  0  0  0  0  0  0  0  0  0
   -1.3024   -4.1758   -0.1274 H   0  0  0  0  0  0  0  0  0  0  0  0
   -2.4189   -4.0024    1.2496 H   0  0  0  0  0  0  0  0  0  0  0  0
   -0.0056   -3.8925    1.9480 H   0  0  0  0  0  0  0  0  0  0  0  0
   -0.8871   -2.4571    2.4514 H   0  0  0  0  0  0  0  0  0  0  0  0
   -0.3754   -0.2561    1.1769 H   0  0  0  0  0  0  0  0  0  0  0  0
    1.3211    0.9892    0.0530 H   0  0  0  0  0  0  0  0  0  0  0  0
    3.3485   -2.6678   -0.7809 H   0  0  0  0  0  0  0  0  0  0  0  0
    1.6231   -3.8931    0.3563 H   0  0  0  0  0  0  0  0  0  0  0  0
    3.3228    1.1189   -1.1390 H   0  0  0  0  0  0  0  0  0  0  0  0
    5.0139    1.1259   -3.2025 H   0  0  0  0  0  0  0  0  0  0  0  0
    5.1131    2.0772   -0.9575 H   0  0  0  0  0  0  0  0  0  0  0  0
    6.6666    2.3498   -1.8877 H   0  0  0  0  0  0  0  0  0  0  0  0
    8.4486    3.7478    0.2264 H   0  0  0  0  0  0  0  0  0  0  0  0
    8.6383    0.3868    1.5617 H   0  0  0  0  0  0  0  0  0  0  0  0
    6.4602   -0.2985   -3.9959 H   0  0  0  0  0  0  0  0  0  0  0  0
    7.0241   -0.9056   -2.4655 H   0  0  0  0  0  0  0  0  0  0  0  0
  1  2  1  0
  2  3  2  0
  2  4  1  0
  4  5  1  0
  4  6  1  0
  4  7  1  0
  8  9  1  0
  9 10  1  0
 10 11  1  0
 11 12  1  0
 12 13  1  0
 13 14  1  0
 14 15  1  0
 15 16  1  0
 16 17  1  0
 17 18  1  0
 18 19  2  0
 19 20  1  0
 20 21  2  0
 21 22  1  0
 22 23  2  0
 21 24  1  0
 24 25  1  0
 25 26  2  0
 25 27  1  0
 27 28  1  0
 28 29  1  0
 29 30  1  0
 30 31  2  0
 30 32  1  0
 30 33  1  0
 27 34  1  0
 23 18  1  0
  1 35  1  0
  8 36  1  0
  8 37  1  0
  8 38  1  0
  9 39  1  0
  9 40  1  0
 10 41  1  0
 10 42  1  0
 11 43  1  0
 11 44  1  0
 12 45  1  0
 12 46  1  0
 13 47  1  0
 13 48  1  0
 14 49  1  0
 14 50  1  0
 15 51  1  0
 15 52  1  0
 16 53  1  0
 16 54  1  0
 17 55  1  0
 17 56  1  0
 19 57  1  0
 20 58  1  0
 22 59  1  0
 23 60  1  0
 24 61  1  0
 27 62  1  6
 28 63  1  0
 28 64  1  0
 32 65  1  0
 33 66  1  0
 34 67  1  0
 34 68  1  0
M  END
>  <Ligand ID>  (1) 
LIG0004257

>  <Ligand>  (1) 
CHEMBL334038

>  <SMILES>  (1) 
OC(=O)C(F)(F)F.CCCCCCCCCCc1ccc(cc1)NC(=O)[C@@H](COP(=O)(O)O)N

>  <CID>  (1) 
44342191.0

>  <ChEMBL ID>  (1) 
nan

>  <InChiKey>  (1) 
WXQWUAYKXPTRAM-GMUIIQOCSA-N

>  <InChi>  (1) 
InChI=1S/C19H33N2O5P.C2HF3O2/c1-2-3-4-5-6-7-8-9-10-16-11-13-17(14-12-16)21-19(22)18(20)15-26-27(23,24)25;3-2(4,5)1(6)7/h11-14,18H,2-10,15,20H2,1H3,(H,21,22)(H2,23,24,25);(H,6,7)/t18-;/m1./s1

>  <IUPAC Name>  (1) 
[(2R)-2-amino-3-(4-decylanilino)-3-oxopropyl] dihydrogen phosphate;2,2,2-trifluoroacetic acid

$$$$
