
     RDKit          3D

 88 90  0  0  0  0  0  0  0  0999 V2000
    7.7597   -1.9799   -1.2238 C   0  0  0  0  0  0  0  0  0  0  0  0
    6.5914   -1.0601   -1.1382 C   0  0  0  0  0  0  0  0  0  0  0  0
    6.7418    0.1497   -1.4460 O   0  0  0  0  0  0  0  0  0  0  0  0
    5.3173   -1.5244   -0.7167 N   0  0  0  0  0  0  0  0  0  0  0  0
    4.2422   -0.5346   -0.6684 C   0  0  2  0  0  0  0  0  0  0  0  0
    3.6139   -0.6064    0.6751 C   0  0  0  0  0  0  0  0  0  0  0  0
    3.9439   -1.4575    1.5458 O   0  0  0  0  0  0  0  0  0  0  0  0
    2.5791    0.3623    0.9680 N   0  0  0  0  0  0  0  0  0  0  0  0
    1.8900    0.4134    2.2144 C   0  0  2  0  0  0  0  0  0  0  0  0
    0.4455    0.5631    2.1897 C   0  0  0  0  0  0  0  0  0  0  0  0
   -0.1541    0.5822    3.3259 O   0  0  0  0  0  0  0  0  0  0  0  0
   -0.3834    0.6941    1.0582 N   0  0  0  0  0  0  0  0  0  0  0  0
   -1.7919    0.8443    1.2357 C   0  0  2  0  0  0  0  0  0  0  0  0
   -2.6298   -0.1606    0.5527 C   0  0  0  0  0  0  0  0  0  0  0  0
   -3.8931   -0.0335    0.7007 O   0  0  0  0  0  0  0  0  0  0  0  0
   -2.1427   -1.2290   -0.2352 N   0  0  0  0  0  0  0  0  0  0  0  0
   -3.0350   -2.1724   -0.8716 C   0  0  1  0  0  0  0  0  0  0  0  0
   -2.8481   -2.2165   -2.3199 C   0  0  0  0  0  0  0  0  0  0  0  0
   -3.5385   -2.9779   -3.0563 O   0  0  0  0  0  0  0  0  0  0  0  0
   -1.8680   -1.3884   -2.9394 N   0  0  0  0  0  0  0  0  0  0  0  0
   -2.8189   -3.5021   -0.1744 C   0  0  0  0  0  0  0  0  0  0  0  0
   -3.6715   -4.5858   -0.7204 C   0  0  0  0  0  0  0  0  0  0  0  0
   -3.2762   -5.4169   -1.7520 C   0  0  0  0  0  0  0  0  0  0  0  0
   -4.1415   -6.3939   -2.1926 C   0  0  0  0  0  0  0  0  0  0  0  0
   -5.3700   -6.5838   -1.6629 N   0  0  0  0  0  0  0  0  0  0  0  0
   -5.7448   -5.7598   -0.6496 C   0  0  0  0  0  0  0  0  0  0  0  0
   -4.9250   -4.7635   -0.1642 C   0  0  0  0  0  0  0  0  0  0  0  0
   -2.2834    2.2177    0.7951 C   0  0  0  0  0  0  0  0  0  0  0  0
   -2.0211    2.5128   -0.6445 C   0  0  0  0  0  0  0  0  0  0  0  0
   -2.5643    3.9144   -0.9379 C   0  0  0  0  0  0  0  0  0  0  0  0
   -3.9927    3.9567   -0.6673 N   0  0  0  0  0  0  0  0  0  0  0  0
   -4.4156    4.9476    0.0476 C   0  0  0  0  0  0  0  0  0  0  0  0
   -3.4562    5.9018    0.5034 N   0  0  0  0  0  0  0  0  0  0  0  0
   -5.7813    5.1308    0.3997 N   0  0  0  0  0  0  0  0  0  0  0  0
    2.4459    1.4874    3.1339 C   0  0  0  0  0  0  0  0  0  0  0  0
    2.3775    2.8367    2.6060 C   0  0  0  0  0  0  0  0  0  0  0  0
    3.4032    3.4097    1.8505 C   0  0  0  0  0  0  0  0  0  0  0  0
    3.2992    4.7052    1.3616 C   0  0  0  0  0  0  0  0  0  0  0  0
    2.1834    5.4739    1.6020 C   0  0  0  0  0  0  0  0  0  0  0  0
    1.1597    4.9228    2.3476 C   0  0  0  0  0  0  0  0  0  0  0  0
    1.2705    3.6344    2.8300 C   0  0  0  0  0  0  0  0  0  0  0  0
    3.2044   -1.0149   -1.7035 C   0  0  0  0  0  0  0  0  0  0  0  0
    2.7307   -2.3747   -1.3402 C   0  0  0  0  0  0  0  0  0  0  0  0
    3.3234   -3.5315   -1.8065 C   0  0  0  0  0  0  0  0  0  0  0  0
    2.6531   -4.5800   -1.2983 N   0  0  0  0  0  0  0  0  0  0  0  0
    1.6561   -4.1063   -0.5261 C   0  0  0  0  0  0  0  0  0  0  0  0
    1.7107   -2.7569   -0.5567 N   0  0  0  0  0  0  0  0  0  0  0  0
    7.4838   -2.9591   -1.6691 H   0  0  0  0  0  0  0  0  0  0  0  0
    8.1763   -2.1837   -0.2060 H   0  0  0  0  0  0  0  0  0  0  0  0
    8.5842   -1.5131   -1.7974 H   0  0  0  0  0  0  0  0  0  0  0  0
    5.1431   -2.5156   -0.4517 H   0  0  0  0  0  0  0  0  0  0  0  0
    4.5903    0.4530   -0.9623 H   0  0  0  0  0  0  0  0  0  0  0  0
    2.3247    1.0582    0.2333 H   0  0  0  0  0  0  0  0  0  0  0  0
    2.1315   -0.5272    2.7573 H   0  0  0  0  0  0  0  0  0  0  0  0
    0.0557    0.6752    0.1258 H   0  0  0  0  0  0  0  0  0  0  0  0
   -2.0763    0.7907    2.3149 H   0  0  0  0  0  0  0  0  0  0  0  0
   -1.1168   -1.3119   -0.3439 H   0  0  0  0  0  0  0  0  0  0  0  0
   -4.0751   -1.8036   -0.6527 H   0  0  0  0  0  0  0  0  0  0  0  0
   -2.1039   -0.7827   -3.7694 H   0  0  0  0  0  0  0  0  0  0  0  0
   -0.8832   -1.3748   -2.5672 H   0  0  0  0  0  0  0  0  0  0  0  0
   -1.7782   -3.8211   -0.2385 H   0  0  0  0  0  0  0  0  0  0  0  0
   -3.0651   -3.3345    0.9010 H   0  0  0  0  0  0  0  0  0  0  0  0
   -2.2867   -5.2633   -2.1774 H   0  0  0  0  0  0  0  0  0  0  0  0
   -3.7914   -7.0385   -3.0159 H   0  0  0  0  0  0  0  0  0  0  0  0
   -6.7284   -5.8552   -0.1727 H   0  0  0  0  0  0  0  0  0  0  0  0
   -5.2451   -4.1069    0.6572 H   0  0  0  0  0  0  0  0  0  0  0  0
   -1.8608    3.0081    1.4267 H   0  0  0  0  0  0  0  0  0  0  0  0
   -3.3891    2.2080    0.9948 H   0  0  0  0  0  0  0  0  0  0  0  0
   -0.9195    2.5491   -0.7739 H   0  0  0  0  0  0  0  0  0  0  0  0
   -2.5135    1.7626   -1.2743 H   0  0  0  0  0  0  0  0  0  0  0  0
   -2.3777    4.1952   -2.0033 H   0  0  0  0  0  0  0  0  0  0  0  0
   -1.9977    4.6586   -0.3420 H   0  0  0  0  0  0  0  0  0  0  0  0
   -3.2517    6.0216    1.5358 H   0  0  0  0  0  0  0  0  0  0  0  0
   -2.9469    6.4917   -0.1911 H   0  0  0  0  0  0  0  0  0  0  0  0
   -6.0812    5.3194    1.3911 H   0  0  0  0  0  0  0  0  0  0  0  0
   -6.4951    5.0706   -0.3756 H   0  0  0  0  0  0  0  0  0  0  0  0
    1.8448    1.4320    4.0654 H   0  0  0  0  0  0  0  0  0  0  0  0
    3.4809    1.2000    3.4091 H   0  0  0  0  0  0  0  0  0  0  0  0
    4.3028    2.8383    1.6378 H   0  0  0  0  0  0  0  0  0  0  0  0
    4.1032    5.1594    0.7677 H   0  0  0  0  0  0  0  0  0  0  0  0
    2.0601    6.4878    1.2406 H   0  0  0  0  0  0  0  0  0  0  0  0
    0.2588    5.5136    2.5545 H   0  0  0  0  0  0  0  0  0  0  0  0
    0.4296    3.2662    3.4071 H   0  0  0  0  0  0  0  0  0  0  0  0
    3.6921   -1.0387   -2.6995 H   0  0  0  0  0  0  0  0  0  0  0  0
    2.3514   -0.3130   -1.7794 H   0  0  0  0  0  0  0  0  0  0  0  0
    4.1718   -3.6515   -2.4619 H   0  0  0  0  0  0  0  0  0  0  0  0
    0.9065   -4.6359    0.0458 H   0  0  0  0  0  0  0  0  0  0  0  0
    1.0962   -2.0790   -0.0711 H   0  0  0  0  0  0  0  0  0  0  0  0
  1  2  1  0
  2  3  2  0
  2  4  1  0
  4  5  1  0
  5  6  1  0
  6  7  2  0
  6  8  1  0
  8  9  1  0
  9 10  1  0
 10 11  2  0
 10 12  1  0
 12 13  1  0
 13 14  1  0
 14 15  2  0
 14 16  1  0
 16 17  1  0
 17 18  1  0
 18 19  2  0
 18 20  1  0
 17 21  1  0
 21 22  1  0
 22 23  2  0
 23 24  1  0
 24 25  2  0
 25 26  1  0
 26 27  2  0
 13 28  1  0
 28 29  1  0
 29 30  1  0
 30 31  1  0
 31 32  2  3
 32 33  1  0
 32 34  1  0
  9 35  1  0
 35 36  1  0
 36 37  2  0
 37 38  1  0
 38 39  2  0
 39 40  1  0
 40 41  2  0
  5 42  1  0
 42 43  1  0
 43 44  2  0
 44 45  1  0
 45 46  2  0
 46 47  1  0
 27 22  1  0
 41 36  1  0
 47 43  1  0
  1 48  1  0
  1 49  1  0
  1 50  1  0
  4 51  1  0
  5 52  1  6
  8 53  1  0
  9 54  1  1
 12 55  1  0
 13 56  1  1
 16 57  1  0
 17 58  1  6
 20 59  1  0
 20 60  1  0
 21 61  1  0
 21 62  1  0
 23 63  1  0
 24 64  1  0
 26 65  1  0
 27 66  1  0
 28 67  1  0
 28 68  1  0
 29 69  1  0
 29 70  1  0
 30 71  1  0
 30 72  1  0
 33 73  1  0
 33 74  1  0
 34 75  1  0
 34 76  1  0
 35 77  1  0
 35 78  1  0
 37 79  1  0
 38 80  1  0
 39 81  1  0
 40 82  1  0
 41 83  1  0
 42 84  1  0
 42 85  1  0
 44 86  1  0
 46 87  1  0
 47 88  1  0
M  END
>  <Ligand ID>  (1) 
LIG0001413

>  <Ligand>  (1) 
CHEMBL433522

>  <SMILES>  (1) 
CC(=O)N[C@H](C(=O)N[C@H](C(=O)N[C@H](C(=O)N[C@@H](C(=O)N)Cc1ccncc1)CCCN=C(N)N)Cc1ccccc1)Cc1cnc[nH]1

>  <CID>  (1) 
44369166.0

>  <ChEMBL ID>  (1) 
nan

>  <InChiKey>  (1) 
GVMPDJLBXVWWIQ-QYOOZWMWSA-N

>  <InChi>  (1) 
InChI=1S/C31H41N11O5/c1-19(43)39-26(16-22-17-36-18-38-22)30(47)42-25(15-20-6-3-2-4-7-20)29(46)40-23(8-5-11-37-31(33)34)28(45)41-24(27(32)44)14-21-9-12-35-13-10-21/h2-4,6-7,9-10,12-13,17-18,23-26H,5,8,11,14-16H2,1H3,(H2,32,44)(H,36,38)(H,39,43)(H,40,46)(H,41,45)(H,42,47)(H4,33,34,37)/t23-,24+,25-,26-/m0/s1

>  <IUPAC Name>  (1) 
(2S)-2-[[(2S)-2-[[(2S)-2-acetamido-3-(1H-imidazol-5-yl)propanoyl]amino]-3-phenylpropanoyl]amino]-N-[(2R)-1-amino-1-oxo-3-pyridin-4-ylpropan-2-yl]-5-(diaminomethylideneamino)pentanamide

$$$$
