
     RDKit          3D

 34 36  0  0  0  0  0  0  0  0999 V2000
    3.5528    1.5474    0.0466 C   0  0  0  0  0  0  0  0  0  0  0  0
    2.6805    0.2860    0.1140 C   0  0  1  0  0  0  0  0  0  0  0  0
    1.3846    0.6375    0.7595 C   0  0  0  0  0  0  0  0  0  0  0  0
    0.4477   -0.4233    0.9055 N   0  0  0  0  0  0  0  0  0  0  0  0
    0.5411   -1.5846    1.7575 C   0  0  0  0  0  0  0  0  0  0  0  0
   -0.0249   -2.6437    0.8043 C   0  0  0  0  0  0  0  0  0  0  0  0
   -1.1294   -1.8975    0.1386 C   0  0  0  0  0  0  0  0  0  0  0  0
   -0.8100   -0.5589    0.2224 C   0  0  0  0  0  0  0  0  0  0  0  0
   -1.6618    0.4068   -0.3163 C   0  0  0  0  0  0  0  0  0  0  0  0
   -1.5991    1.8898   -0.3797 C   0  0  0  0  0  0  0  0  0  0  0  0
   -3.0544    2.2378   -0.6375 C   0  0  0  0  0  0  0  0  0  0  0  0
   -3.4970    1.1252   -1.3831 O   0  0  0  0  0  0  0  0  0  0  0  0
   -2.8293   -0.0038   -0.9346 C   0  0  0  0  0  0  0  0  0  0  0  0
   -3.1810   -1.3363   -1.0367 C   0  0  0  0  0  0  0  0  0  0  0  0
   -2.3017   -2.2714   -0.4848 C   0  0  0  0  0  0  0  0  0  0  0  0
    2.5046   -0.1720   -1.2499 N   0  0  0  0  0  0  0  0  0  0  0  0
    4.0151    1.7335    1.0336 H   0  0  0  0  0  0  0  0  0  0  0  0
    4.3009    1.4838   -0.7775 H   0  0  0  0  0  0  0  0  0  0  0  0
    2.9087    2.4241   -0.1858 H   0  0  0  0  0  0  0  0  0  0  0  0
    3.2774   -0.4671    0.6553 H   0  0  0  0  0  0  0  0  0  0  0  0
    0.9680    1.5131    0.1974 H   0  0  0  0  0  0  0  0  0  0  0  0
    1.5892    1.0359    1.7913 H   0  0  0  0  0  0  0  0  0  0  0  0
    1.5499   -1.8643    2.0675 H   0  0  0  0  0  0  0  0  0  0  0  0
   -0.1908   -1.5358    2.6058 H   0  0  0  0  0  0  0  0  0  0  0  0
   -0.3673   -3.5480    1.3281 H   0  0  0  0  0  0  0  0  0  0  0  0
    0.7944   -2.8462    0.0750 H   0  0  0  0  0  0  0  0  0  0  0  0
   -1.2401    2.3221    0.5712 H   0  0  0  0  0  0  0  0  0  0  0  0
   -0.9817    2.1637   -1.2654 H   0  0  0  0  0  0  0  0  0  0  0  0
   -3.5935    2.2892    0.3316 H   0  0  0  0  0  0  0  0  0  0  0  0
   -3.1635    3.1518   -1.2239 H   0  0  0  0  0  0  0  0  0  0  0  0
   -4.1048   -1.6395   -1.5282 H   0  0  0  0  0  0  0  0  0  0  0  0
   -2.5783   -3.3294   -0.5633 H   0  0  0  0  0  0  0  0  0  0  0  0
    2.5032    0.6705   -1.8961 H   0  0  0  0  0  0  0  0  0  0  0  0
    3.2905   -0.7964   -1.5427 H   0  0  0  0  0  0  0  0  0  0  0  0
  1  2  1  0
  2  3  1  0
  3  4  1  0
  4  5  1  0
  5  6  1  0
  6  7  1  0
  7  8  2  0
  8  9  1  0
  9 10  1  0
 10 11  1  0
 11 12  1  0
 12 13  1  0
 13 14  1  0
 14 15  2  0
  2 16  1  0
  8  4  1  0
 13  9  2  0
 15  7  1  0
  1 17  1  0
  1 18  1  0
  1 19  1  0
  2 20  1  1
  3 21  1  0
  3 22  1  0
  5 23  1  0
  5 24  1  0
  6 25  1  0
  6 26  1  0
 10 27  1  0
 10 28  1  0
 11 29  1  0
 11 30  1  0
 14 31  1  0
 15 32  1  0
 16 33  1  0
 16 34  1  0
M  END
>  <Ligand ID>  (1) 
LIG0002159

>  <Ligand>  (1) 
VER-5384

>  <SMILES>  (1) 
C[C@@H](CN1CCc2c1c1CCOc1cc2)N

>  <CID>  (1) 
9859257.0

>  <ChEMBL ID>  (1) 
nan

>  <InChiKey>  (1) 
OBQZQQHWYDPMDY-VIFPVBQESA-N

>  <InChi>  (1) 
InChI=1S/C13H18N2O/c1-9(14)8-15-6-4-10-2-3-12-11(13(10)15)5-7-16-12/h2-3,9H,4-8,14H2,1H3/t9-/m0/s1

>  <IUPAC Name>  (1) 
(2S)-1-(2,3,7,8-tetrahydrofuro[2,3-g]indol-1-yl)propan-2-amine

$$$$
