
     RDKit          3D

 68 73  0  0  0  0  0  0  0  0999 V2000
   -8.3840   -0.5365    0.6187 F   0  0  0  0  0  0  0  0  0  0  0  0
   -7.0354   -0.6522    0.4184 C   0  0  0  0  0  0  0  0  0  0  0  0
   -6.1400   -0.6295    1.4907 C   0  0  0  0  0  0  0  0  0  0  0  0
   -4.7694   -0.7499    1.2495 C   0  0  0  0  0  0  0  0  0  0  0  0
   -4.2843   -0.8896   -0.0210 C   0  0  0  0  0  0  0  0  0  0  0  0
   -5.1993   -0.9094   -1.0767 C   0  0  0  0  0  0  0  0  0  0  0  0
   -6.5572   -0.7933   -0.8713 C   0  0  0  0  0  0  0  0  0  0  0  0
   -2.8675   -1.0080   -0.3508 C   0  0  0  0  0  0  0  0  0  0  0  0
   -1.9177   -0.2793    0.2009 C   0  0  0  0  0  0  0  0  0  0  0  0
   -2.1482    0.7633    1.2288 C   0  0  0  0  0  0  0  0  0  0  0  0
   -1.2578    1.8935    0.9995 N   0  0  0  0  0  0  0  0  0  0  0  0
    0.0534    1.7993    0.4469 C   0  0  0  0  0  0  0  0  0  0  0  0
    0.3926    0.4887   -0.0934 C   0  0  0  0  0  0  0  0  0  0  0  0
   -0.5412   -0.5156   -0.2151 C   0  0  0  0  0  0  0  0  0  0  0  0
    0.0721   -1.5913   -0.7350 N   0  0  0  0  0  0  0  0  0  0  0  0
    1.3542   -1.2726   -0.9348 N   0  0  0  0  0  0  0  0  0  0  0  0
    1.5904   -0.0096   -0.5554 C   0  0  0  0  0  0  0  0  0  0  0  0
    2.8604    0.7138   -0.6112 C   0  0  0  0  0  0  0  0  0  0  0  0
    2.8764    1.9112   -0.1946 O   0  0  0  0  0  0  0  0  0  0  0  0
    4.0229    0.0711   -1.1209 N   0  0  0  0  0  0  0  0  0  0  0  0
    5.3027    0.7503   -1.1946 C   0  0  1  0  0  0  0  0  0  0  0  0
    6.3563    0.0138   -0.4547 C   0  0  0  0  0  0  0  0  0  0  0  0
    7.2654    0.6074    0.3842 C   0  0  0  0  0  0  0  0  0  0  0  0
    8.2040   -0.1655    1.0226 C   0  0  0  0  0  0  0  0  0  0  0  0
    8.2578   -1.5328    0.8420 C   0  0  0  0  0  0  0  0  0  0  0  0
    7.3083   -2.0798   -0.0221 C   0  0  0  0  0  0  0  0  0  0  0  0
    6.3931   -1.3314   -0.6456 N   0  0  0  0  0  0  0  0  0  0  0  0
    5.7046    0.9499   -2.6525 C   0  0  0  0  0  0  0  0  0  0  0  0
   -0.4499   -2.8763   -1.0470 C   0  0  0  0  0  0  0  0  0  0  0  0
   -0.5829   -3.3392   -2.3477 C   0  0  0  0  0  0  0  0  0  0  0  0
   -1.1030   -4.6232   -2.5481 C   0  0  0  0  0  0  0  0  0  0  0  0
   -1.4721   -5.4014   -1.4461 C   0  0  0  0  0  0  0  0  0  0  0  0
   -1.3385   -4.9385   -0.1523 C   0  0  0  0  0  0  0  0  0  0  0  0
   -0.8241   -3.6682    0.0476 C   0  0  0  0  0  0  0  0  0  0  0  0
   -1.8006   -5.9086    1.2441 Cl  0  0  0  0  0  0  0  0  0  0  0  0
   -2.1280   -7.0146   -1.6617 Cl  0  0  0  0  0  0  0  0  0  0  0  0
   -1.7307    3.2021    1.3518 C   0  0  0  0  0  0  0  0  0  0  0  0
   -1.0242    4.2384    1.1849 O   0  0  0  0  0  0  0  0  0  0  0  0
   -3.0833    3.4248    1.9368 C   0  0  0  0  0  0  0  0  0  0  0  0
   -3.2955    4.8359    2.1858 N   0  0  0  0  0  0  0  0  0  0  0  0
   -3.8363    5.6722    1.2677 C   0  0  0  0  0  0  0  0  0  0  0  0
   -3.8840    6.8906    1.8279 N   0  0  0  0  0  0  0  0  0  0  0  0
   -3.3903    6.8089    3.0481 N   0  0  0  0  0  0  0  0  0  0  0  0
   -3.0272    5.5409    3.2685 N   0  0  0  0  0  0  0  0  0  0  0  0
   -6.5172   -0.5177    2.5135 H   0  0  0  0  0  0  0  0  0  0  0  0
   -4.1197   -0.7364    2.0900 H   0  0  0  0  0  0  0  0  0  0  0  0
   -4.8792   -1.0178   -2.1107 H   0  0  0  0  0  0  0  0  0  0  0  0
   -7.2539   -0.8117   -1.7180 H   0  0  0  0  0  0  0  0  0  0  0  0
   -2.6397   -1.7663   -1.1172 H   0  0  0  0  0  0  0  0  0  0  0  0
   -1.9793    0.3770    2.2511 H   0  0  0  0  0  0  0  0  0  0  0  0
   -3.1763    1.1505    1.0538 H   0  0  0  0  0  0  0  0  0  0  0  0
    0.2456    2.6252   -0.2976 H   0  0  0  0  0  0  0  0  0  0  0  0
    0.7936    2.0259    1.2686 H   0  0  0  0  0  0  0  0  0  0  0  0
    3.9988   -0.9219   -1.4647 H   0  0  0  0  0  0  0  0  0  0  0  0
    5.2000    1.7791   -0.7846 H   0  0  0  0  0  0  0  0  0  0  0  0
    7.2194    1.6739    0.5206 H   0  0  0  0  0  0  0  0  0  0  0  0
    8.9446    0.2621    1.6965 H   0  0  0  0  0  0  0  0  0  0  0  0
    8.9878   -2.1641    1.3329 H   0  0  0  0  0  0  0  0  0  0  0  0
    7.3130   -3.1580   -0.1963 H   0  0  0  0  0  0  0  0  0  0  0  0
    5.5197    0.0344   -3.2370 H   0  0  0  0  0  0  0  0  0  0  0  0
    5.0615    1.7936   -3.0341 H   0  0  0  0  0  0  0  0  0  0  0  0
    6.7642    1.2314   -2.7348 H   0  0  0  0  0  0  0  0  0  0  0  0
   -0.2863   -2.7075   -3.1757 H   0  0  0  0  0  0  0  0  0  0  0  0
   -1.2195   -5.0148   -3.5680 H   0  0  0  0  0  0  0  0  0  0  0  0
   -0.7126   -3.2896    1.0726 H   0  0  0  0  0  0  0  0  0  0  0  0
   -3.8301    3.0679    1.2004 H   0  0  0  0  0  0  0  0  0  0  0  0
   -3.2064    2.7947    2.8507 H   0  0  0  0  0  0  0  0  0  0  0  0
   -4.1702    5.4301    0.2752 H   0  0  0  0  0  0  0  0  0  0  0  0
  1  2  1  0
  2  3  2  0
  3  4  1  0
  4  5  2  0
  5  6  1  0
  6  7  2  0
  5  8  1  0
  8  9  2  0
  9 10  1  0
 10 11  1  0
 11 12  1  0
 12 13  1  0
 13 14  2  0
 14 15  1  0
 15 16  1  0
 16 17  2  0
 17 18  1  0
 18 19  2  0
 18 20  1  0
 20 21  1  0
 21 22  1  0
 22 23  2  0
 23 24  1  0
 24 25  2  0
 25 26  1  0
 26 27  2  0
 21 28  1  0
 15 29  1  0
 29 30  2  0
 30 31  1  0
 31 32  2  0
 32 33  1  0
 33 34  2  0
 33 35  1  0
 32 36  1  0
 11 37  1  0
 37 38  2  0
 37 39  1  0
 39 40  1  0
 40 41  1  0
 41 42  2  0
 42 43  1  0
 43 44  2  0
  7  2  1  0
 14  9  1  0
 27 22  1  0
 34 29  1  0
 44 40  1  0
 17 13  1  0
  3 45  1  0
  4 46  1  0
  6 47  1  0
  7 48  1  0
  8 49  1  0
 10 50  1  0
 10 51  1  0
 12 52  1  0
 12 53  1  0
 20 54  1  0
 21 55  1  1
 23 56  1  0
 24 57  1  0
 25 58  1  0
 26 59  1  0
 28 60  1  0
 28 61  1  0
 28 62  1  0
 30 63  1  0
 31 64  1  0
 34 65  1  0
 39 66  1  0
 39 67  1  0
 41 68  1  0
M  END
>  <Ligand ID>  (1) 
LIG0005438

>  <Ligand>  (1) 
CHEMBL3976516

>  <SMILES>  (1) 
Fc1ccc(cc1)/C=C/1\CN(Cc2c1n(nc2C(=O)N[C@@H](c1ccccn1)C)c1ccc(c(c1)Cl)Cl)C(=O)Cn1cnnn1

>  <CID>  (1) 
134152684.0

>  <ChEMBL ID>  (1) 
nan

>  <InChiKey>  (1) 
AVYOWJKCNOVUJC-BAOGCXAUSA-N

>  <InChi>  (1) 
InChI=1S/C30H24Cl2FN9O2/c1-18(26-4-2-3-11-34-26)36-30(44)28-23-15-40(27(43)16-41-17-35-38-39-41)14-20(12-19-5-7-21(33)8-6-19)29(23)42(37-28)22-9-10-24(31)25(32)13-22/h2-13,17-18H,14-16H2,1H3,(H,36,44)/b20-12+/t18-/m1/s1

>  <IUPAC Name>  (1) 
(7E)-1-(3,4-dichlorophenyl)-7-[(4-fluorophenyl)methylidene]-N-[(1R)-1-pyridin-2-ylethyl]-5-[2-(tetrazol-1-yl)acetyl]-4,6-dihydropyrazolo[4,3-c]pyridine-3-carboxamide

$$$$
