
     RDKit          3D

 35 38  0  0  0  0  0  0  0  0999 V2000
    5.1986   -1.0199    0.7251 C   0  0  0  0  0  0  0  0  0  0  0  0
    5.0349    0.3520    0.8587 C   0  0  0  0  0  0  0  0  0  0  0  0
    3.7902    0.9326    0.6080 C   0  0  0  0  0  0  0  0  0  0  0  0
    2.7155    0.1682    0.2287 C   0  0  0  0  0  0  0  0  0  0  0  0
    2.9113   -1.1538    0.1099 N   0  0  0  0  0  0  0  0  0  0  0  0
    4.0792   -1.7294    0.3412 C   0  0  0  0  0  0  0  0  0  0  0  0
    1.4044    0.7550   -0.0386 C   0  0  0  0  0  0  0  0  0  0  0  0
    1.1488    2.1063    0.0603 C   0  0  0  0  0  0  0  0  0  0  0  0
   -0.0951    2.6607   -0.1957 C   0  0  0  0  0  0  0  0  0  0  0  0
   -1.1167    1.8418   -0.5619 C   0  0  0  0  0  0  0  0  0  0  0  0
   -0.9005    0.4802   -0.6723 C   0  0  0  0  0  0  0  0  0  0  0  0
    0.3566   -0.0838   -0.4138 C   0  0  0  0  0  0  0  0  0  0  0  0
    0.2084   -1.5455   -0.6275 C   0  0  0  0  0  0  0  0  0  0  0  0
   -1.2699   -1.7949   -0.3872 C   0  0  0  0  0  0  0  0  0  0  0  0
   -1.8611   -0.5736   -1.0554 C   0  0  0  0  0  0  0  0  0  0  0  0
   -3.2256   -0.3239   -0.5322 C   0  0  0  0  0  0  0  0  0  0  0  0
   -4.2212    0.3681   -1.1535 N   0  0  0  0  0  0  0  0  0  0  0  0
   -5.2935    0.3445   -0.3101 C   0  0  0  0  0  0  0  0  0  0  0  0
   -4.9514   -0.3678    0.8366 C   0  0  0  0  0  0  0  0  0  0  0  0
   -3.6815   -0.7620    0.6683 N   0  0  0  0  0  0  0  0  0  0  0  0
    6.1494   -1.4917    0.9130 H   0  0  0  0  0  0  0  0  0  0  0  0
    5.8950    0.9393    1.1591 H   0  0  0  0  0  0  0  0  0  0  0  0
    3.7304    1.9850    0.7277 H   0  0  0  0  0  0  0  0  0  0  0  0
    4.1668   -2.8057    0.2257 H   0  0  0  0  0  0  0  0  0  0  0  0
    1.9239    2.7911    0.3458 H   0  0  0  0  0  0  0  0  0  0  0  0
   -0.2621    3.7246   -0.1090 H   0  0  0  0  0  0  0  0  0  0  0  0
   -2.1006    2.2735   -0.7653 H   0  0  0  0  0  0  0  0  0  0  0  0
    0.4734   -1.8820   -1.6320 H   0  0  0  0  0  0  0  0  0  0  0  0
    0.7455   -2.0850    0.1887 H   0  0  0  0  0  0  0  0  0  0  0  0
   -1.6120   -2.7340   -0.8364 H   0  0  0  0  0  0  0  0  0  0  0  0
   -1.5019   -1.7663    0.6810 H   0  0  0  0  0  0  0  0  0  0  0  0
   -1.8340   -0.6728   -2.1493 H   0  0  0  0  0  0  0  0  0  0  0  0
   -4.1674    0.8289   -2.0997 H   0  0  0  0  0  0  0  0  0  0  0  0
   -6.2604    0.8123   -0.5116 H   0  0  0  0  0  0  0  0  0  0  0  0
   -5.5775   -0.5721    1.7037 H   0  0  0  0  0  0  0  0  0  0  0  0
  1  2  2  0
  2  3  1  0
  3  4  2  0
  4  5  1  0
  5  6  2  0
  4  7  1  0
  7  8  2  0
  8  9  1  0
  9 10  2  0
 10 11  1  0
 11 12  2  0
 12 13  1  0
 13 14  1  0
 14 15  1  0
 15 16  1  0
 16 17  1  0
 17 18  1  0
 18 19  2  0
 19 20  1  0
  6  1  1  0
 12  7  1  0
 20 16  2  0
 15 11  1  0
  1 21  1  0
  2 22  1  0
  3 23  1  0
  6 24  1  0
  8 25  1  0
  9 26  1  0
 10 27  1  0
 13 28  1  0
 13 29  1  0
 14 30  1  0
 14 31  1  0
 15 32  1  0
 17 33  1  0
 18 34  1  0
 19 35  1  0
M  END
>  <Ligand ID>  (1) 
LIG0001338

>  <Ligand>  (1) 
CHEMBL260575

>  <SMILES>  (1) 
c1ccc(nc1)c1cccc2c1CCC2c1[nH]ccn1

>  <CID>  (1) 
44449690.0

>  <ChEMBL ID>  (1) 
nan

>  <InChiKey>  (1) 
WOAORDZNFUQOSX-UHFFFAOYSA-N

>  <InChi>  (1) 
InChI=1S/C17H15N3/c1-2-9-18-16(6-1)14-5-3-4-12-13(14)7-8-15(12)17-19-10-11-20-17/h1-6,9-11,15H,7-8H2,(H,19,20)

>  <IUPAC Name>  (1) 
2-[1-(1H-imidazol-2-yl)-2,3-dihydro-1H-inden-4-yl]pyridine

$$$$
