
     RDKit          3D

 35 36  0  0  0  0  0  0  0  0999 V2000
   -2.8587   -2.3270    2.3508 O   0  0  0  0  0  0  0  0  0  0  0  0
   -1.5872   -2.1225    1.7810 C   0  0  0  0  0  0  0  0  0  0  0  0
   -0.6368   -2.6915    2.3604 O   0  0  0  0  0  0  0  0  0  0  0  0
   -1.5192   -1.2796    0.5919 C   0  0  1  0  0  0  0  0  0  0  0  0
   -2.0755    0.1180    0.7781 C   0  0  0  0  0  0  0  0  0  0  0  0
   -1.6311    0.7539   -0.5214 C   0  0  2  0  0  0  0  0  0  0  0  0
   -0.5311   -0.1426   -1.0460 C   0  0  0  0  0  0  0  0  0  0  0  0
   -0.2089   -1.0221    0.0620 N   0  0  0  0  0  0  0  0  0  0  0  0
    0.6731   -0.4288    0.9965 C   0  0  0  0  0  0  0  0  0  0  0  0
    2.0012   -0.0662    0.3717 C   0  0  0  0  0  0  0  0  0  0  0  0
    3.0163   -1.0227    0.3385 C   0  0  0  0  0  0  0  0  0  0  0  0
    4.2493   -0.7251   -0.2199 C   0  0  0  0  0  0  0  0  0  0  0  0
    4.4930    0.5134   -0.7491 C   0  0  0  0  0  0  0  0  0  0  0  0
    3.4867    1.4612   -0.7160 C   0  0  0  0  0  0  0  0  0  0  0  0
    2.2373    1.1824   -0.1581 C   0  0  0  0  0  0  0  0  0  0  0  0
   -1.2673    2.1243   -0.3778 N   0  0  0  0  0  0  0  0  0  0  0  0
   -2.8280    0.7118   -1.4372 C   0  0  0  0  0  0  0  0  0  0  0  0
   -3.3689   -0.3823   -1.7444 O   0  0  0  0  0  0  0  0  0  0  0  0
   -3.3795    1.8652   -1.9754 O   0  0  0  0  0  0  0  0  0  0  0  0
   -3.0494   -3.0912    2.9757 H   0  0  0  0  0  0  0  0  0  0  0  0
   -2.1801   -1.7359   -0.2021 H   0  0  0  0  0  0  0  0  0  0  0  0
   -1.7073    0.6490    1.6488 H   0  0  0  0  0  0  0  0  0  0  0  0
   -3.1982    0.0932    0.8503 H   0  0  0  0  0  0  0  0  0  0  0  0
    0.3126    0.3722   -1.4911 H   0  0  0  0  0  0  0  0  0  0  0  0
   -1.0015   -0.8147   -1.8256 H   0  0  0  0  0  0  0  0  0  0  0  0
    0.9269   -1.1332    1.8024 H   0  0  0  0  0  0  0  0  0  0  0  0
    0.2718    0.5328    1.3795 H   0  0  0  0  0  0  0  0  0  0  0  0
    2.8016   -2.0008    0.7646 H   0  0  0  0  0  0  0  0  0  0  0  0
    4.9928   -1.5298   -0.2072 H   0  0  0  0  0  0  0  0  0  0  0  0
    5.4728    0.7202   -1.1824 H   0  0  0  0  0  0  0  0  0  0  0  0
    3.6960    2.4192   -1.1330 H   0  0  0  0  0  0  0  0  0  0  0  0
    1.5007    1.9459   -0.1539 H   0  0  0  0  0  0  0  0  0  0  0  0
   -0.6564    2.3643   -1.2146 H   0  0  0  0  0  0  0  0  0  0  0  0
   -2.0875    2.7482   -0.4536 H   0  0  0  0  0  0  0  0  0  0  0  0
   -4.3597    1.9407   -2.2437 H   0  0  0  0  0  0  0  0  0  0  0  0
  1  2  1  0
  2  3  2  0
  2  4  1  0
  4  5  1  0
  5  6  1  0
  6  7  1  0
  7  8  1  0
  8  9  1  0
  9 10  1  0
 10 11  2  0
 11 12  1  0
 12 13  2  0
 13 14  1  0
 14 15  2  0
  6 16  1  1
  6 17  1  0
 17 18  2  0
 17 19  1  0
  8  4  1  0
 15 10  1  0
  1 20  1  0
  4 21  1  6
  5 22  1  0
  5 23  1  0
  7 24  1  0
  7 25  1  0
  9 26  1  0
  9 27  1  0
 11 28  1  0
 12 29  1  0
 13 30  1  0
 14 31  1  0
 15 32  1  0
 16 33  1  0
 16 34  1  0
 19 35  1  0
M  END
>  <Ligand ID>  (1) 
LIG0005688

>  <Ligand>  (1) 
1-Benzyl-APDC

>  <SMILES>  (1) 
OC(=O)[C@H]1C[C@](CN1Cc1ccccc1)(N)C(=O)O

>  <CID>  (1) 
15508178.0

>  <ChEMBL ID>  (1) 
nan

>  <InChiKey>  (1) 
LYCSUAGKQMUTBR-ZWNOBZJWSA-N

>  <InChi>  (1) 
InChI=1S/C13H16N2O4/c14-13(12(18)19)6-10(11(16)17)15(8-13)7-9-4-2-1-3-5-9/h1-5,10H,6-8,14H2,(H,16,17)(H,18,19)/t10-,13-/m1/s1

>  <IUPAC Name>  (1) 
(2R,4R)-4-amino-1-benzylpyrrolidine-2,4-dicarboxylic acid

$$$$
