
     RDKit          3D

 52 55  0  0  0  0  0  0  0  0999 V2000
    0.1151   -2.8603   -0.4490 C   0  0  0  0  0  0  0  0  0  0  0  0
    0.0883   -1.7525    0.5633 C   0  0  2  0  0  0  0  0  0  0  0  0
   -0.8754   -0.6485    0.1495 C   0  0  2  0  0  0  0  0  0  0  0  0
   -0.4971   -0.1643   -1.2579 C   0  0  0  0  0  0  0  0  0  0  0  0
    0.9469    0.1806   -1.2654 C   0  0  0  0  0  0  0  0  0  0  0  0
    1.8348   -0.2704   -0.3034 C   0  0  0  0  0  0  0  0  0  0  0  0
    1.4228   -1.1295    0.8335 C   0  0  2  0  0  0  0  0  0  0  0  0
    2.4172   -2.2154    1.0863 C   0  0  0  0  0  0  0  0  0  0  0  0
    1.2363   -0.2812    2.0772 C   0  0  0  0  0  0  0  0  0  0  0  0
    0.0495    0.5645    2.0563 C   0  0  0  0  0  0  0  0  0  0  0  0
   -0.9113    0.4514    0.9936 N   0  0  0  0  0  0  0  0  0  0  0  0
   -2.1508    1.0601    1.3390 C   0  0  0  0  0  0  0  0  0  0  0  0
   -3.1762    1.2805    0.2981 C   0  0  1  0  0  0  0  0  0  0  0  0
   -3.8238    0.1139   -0.3354 C   0  0  0  0  0  0  0  0  0  0  0  0
   -5.1417    0.7547   -0.8399 C   0  0  0  0  0  0  0  0  0  0  0  0
   -5.4102    1.6832    0.2935 C   0  0  0  0  0  0  0  0  0  0  0  0
   -4.2576    1.9110    0.9698 O   0  0  0  0  0  0  0  0  0  0  0  0
    3.1869    0.0774   -0.3505 C   0  0  0  0  0  0  0  0  0  0  0  0
    3.6717    0.8736   -1.3491 C   0  0  0  0  0  0  0  0  0  0  0  0
    2.8103    1.3340   -2.3145 C   0  0  0  0  0  0  0  0  0  0  0  0
    1.4762    0.9920   -2.2695 C   0  0  0  0  0  0  0  0  0  0  0  0
    5.0889    1.2674   -1.4521 C   0  0  0  0  0  0  0  0  0  0  0  0
    5.5030    2.0211   -2.3613 O   0  0  0  0  0  0  0  0  0  0  0  0
    6.0192    0.7695   -0.4766 N   0  0  0  0  0  0  0  0  0  0  0  0
    0.5718   -3.7450    0.0248 H   0  0  0  0  0  0  0  0  0  0  0  0
   -0.9514   -3.1212   -0.6544 H   0  0  0  0  0  0  0  0  0  0  0  0
    0.6299   -2.5700   -1.3906 H   0  0  0  0  0  0  0  0  0  0  0  0
   -0.3062   -2.1582    1.5055 H   0  0  0  0  0  0  0  0  0  0  0  0
   -1.8580   -1.1650    0.1486 H   0  0  0  0  0  0  0  0  0  0  0  0
   -0.8057   -0.8625   -2.0342 H   0  0  0  0  0  0  0  0  0  0  0  0
   -1.0399    0.7779   -1.4334 H   0  0  0  0  0  0  0  0  0  0  0  0
    1.9388   -3.0254    1.7076 H   0  0  0  0  0  0  0  0  0  0  0  0
    3.3782   -1.9006    1.4918 H   0  0  0  0  0  0  0  0  0  0  0  0
    2.6189   -2.7256    0.0947 H   0  0  0  0  0  0  0  0  0  0  0  0
    2.1637    0.3188    2.1630 H   0  0  0  0  0  0  0  0  0  0  0  0
    1.2426   -0.9490    2.9719 H   0  0  0  0  0  0  0  0  0  0  0  0
    0.3736    1.6598    2.0168 H   0  0  0  0  0  0  0  0  0  0  0  0
   -0.5001    0.4998    3.0232 H   0  0  0  0  0  0  0  0  0  0  0  0
   -1.8925    2.0785    1.7678 H   0  0  0  0  0  0  0  0  0  0  0  0
   -2.6517    0.5413    2.2107 H   0  0  0  0  0  0  0  0  0  0  0  0
   -2.8063    1.9853   -0.5025 H   0  0  0  0  0  0  0  0  0  0  0  0
   -4.1488   -0.6495    0.3699 H   0  0  0  0  0  0  0  0  0  0  0  0
   -3.3558   -0.2603   -1.2768 H   0  0  0  0  0  0  0  0  0  0  0  0
   -4.8599    1.3170   -1.7549 H   0  0  0  0  0  0  0  0  0  0  0  0
   -5.9075   -0.0003   -1.0117 H   0  0  0  0  0  0  0  0  0  0  0  0
   -6.1510    1.1484    0.9616 H   0  0  0  0  0  0  0  0  0  0  0  0
   -5.9041    2.5987   -0.1226 H   0  0  0  0  0  0  0  0  0  0  0  0
    3.8891   -0.2667    0.3963 H   0  0  0  0  0  0  0  0  0  0  0  0
    3.1726    1.9544   -3.0960 H   0  0  0  0  0  0  0  0  0  0  0  0
    0.7603    1.3348   -3.0150 H   0  0  0  0  0  0  0  0  0  0  0  0
    6.8914    1.3034   -0.2211 H   0  0  0  0  0  0  0  0  0  0  0  0
    5.8852   -0.1319    0.0236 H   0  0  0  0  0  0  0  0  0  0  0  0
  1  2  1  0
  2  3  1  0
  3  4  1  0
  4  5  1  0
  5  6  2  0
  6  7  1  0
  7  8  1  1
  7  9  1  0
  9 10  1  0
 10 11  1  0
 11 12  1  0
 12 13  1  0
 13 14  1  0
 14 15  1  0
 15 16  1  0
 16 17  1  0
  6 18  1  0
 18 19  2  0
 19 20  1  0
 20 21  2  0
 19 22  1  0
 22 23  2  0
 22 24  1  0
  7  2  1  0
 17 13  1  0
 11  3  1  0
 21  5  1  0
  1 25  1  0
  1 26  1  0
  1 27  1  0
  2 28  1  1
  3 29  1  6
  4 30  1  0
  4 31  1  0
  8 32  1  0
  8 33  1  0
  8 34  1  0
  9 35  1  0
  9 36  1  0
 10 37  1  0
 10 38  1  0
 12 39  1  0
 12 40  1  0
 13 41  1  6
 14 42  1  0
 14 43  1  0
 15 44  1  0
 15 45  1  0
 16 46  1  0
 16 47  1  0
 18 48  1  0
 20 49  1  0
 21 50  1  0
 24 51  1  0
 24 52  1  0
M  END
>  <Ligand ID>  (1) 
LIG0005230

>  <Ligand>  (1) 
CHEMBL459746

>  <SMILES>  (1) 
C[C@@H]1[C@@H]2Cc3c([C@@]1(C)CCN2C[C@H]1CCCO1)cc(cc3)C(=O)N

>  <CID>  (1) 
44570027.0

>  <ChEMBL ID>  (1) 
nan

>  <InChiKey>  (1) 
OWRBBFHZDDJXIW-GNYRAKODSA-N

>  <InChi>  (1) 
InChI=1S/C20H28N2O2/c1-13-18-11-14-5-6-15(19(21)23)10-17(14)20(13,2)7-8-22(18)12-16-4-3-9-24-16/h5-6,10,13,16,18H,3-4,7-9,11-12H2,1-2H3,(H2,21,23)/t13-,16-,18+,20+/m1/s1

>  <IUPAC Name>  (1) 
(1S,9S,13S)-1,13-dimethyl-10-[[(2R)-oxolan-2-yl]methyl]-10-azatricyclo[7.3.1.02,7]trideca-2(7),3,5-triene-4-carboxamide

$$$$
