
     RDKit          3D

 46 47  0  0  0  0  0  0  0  0999 V2000
   -1.4764   -0.0701   -3.7156 O   0  0  0  0  0  0  0  0  0  0  0  0
   -1.7625    0.0484   -2.3388 C   0  0  2  0  0  0  0  0  0  0  0  0
   -0.5912   -0.3289   -1.5085 C   0  0  1  0  0  0  0  0  0  0  0  0
    0.1267    0.8568   -0.9060 C   0  0  0  0  0  0  0  0  0  0  0  0
    1.2695    0.4148   -0.2406 O   0  0  0  0  0  0  0  0  0  0  0  0
    2.0768    1.7281    0.4377 P   0  0  0  0  0  0  0  0  0  0  0  0
    1.1023    2.8140    0.8824 O   0  0  0  0  0  0  0  0  0  0  0  0
    2.9472    1.1390    1.7763 O   0  0  0  0  0  0  0  0  0  0  0  0
    4.0107   -0.0433    1.2070 P   0  0  0  0  0  0  0  0  0  0  0  0
    3.4327   -1.3919    1.6192 O   0  0  0  0  0  0  0  0  0  0  0  0
    5.5178    0.1435    1.9454 O   0  0  0  0  0  0  0  0  0  0  0  0
    6.7548    0.4090    0.8368 P   0  0  0  0  0  0  0  0  0  0  0  0
    7.0667    1.9008    0.8729 O   0  0  0  0  0  0  0  0  0  0  0  0
    8.1657   -0.3770    1.3151 O   0  0  0  0  0  0  0  0  0  0  0  0
    6.2989   -0.0017   -0.7285 O   0  0  0  0  0  0  0  0  0  0  0  0
    4.1446   -0.0118   -0.4669 O   0  0  0  0  0  0  0  0  0  0  0  0
    3.1773    2.4415   -0.6107 O   0  0  0  0  0  0  0  0  0  0  0  0
   -0.9570   -1.2111   -0.5371 O   0  0  0  0  0  0  0  0  0  0  0  0
   -2.2747   -1.5596   -0.7097 C   0  0  2  0  0  0  0  0  0  0  0  0
   -2.7770   -1.0182   -2.0049 C   0  0  2  0  0  0  0  0  0  0  0  0
   -2.7007   -2.0432   -2.9503 O   0  0  0  0  0  0  0  0  0  0  0  0
   -3.1129   -1.1619    0.4097 N   0  0  0  0  0  0  0  0  0  0  0  0
   -3.3934    0.1448    0.6500 C   0  0  0  0  0  0  0  0  0  0  0  0
   -4.1889    0.5436    1.7099 C   0  0  0  0  0  0  0  0  0  0  0  0
   -4.4489    1.9428    1.9110 N   0  0  0  0  0  0  0  0  0  0  0  0
   -4.7260   -0.3841    2.5627 C   0  0  0  0  0  0  0  0  0  0  0  0
   -5.4583   -0.0527    3.5425 O   0  0  0  0  0  0  0  0  0  0  0  0
   -4.4344   -1.6843    2.3062 N   0  0  0  0  0  0  0  0  0  0  0  0
   -3.6580   -2.0439    1.2683 C   0  0  0  0  0  0  0  0  0  0  0  0
   -3.4413   -3.2629    1.1067 O   0  0  0  0  0  0  0  0  0  0  0  0
   -2.3037   -0.3865   -4.1757 H   0  0  0  0  0  0  0  0  0  0  0  0
   -2.1322    1.0826   -2.2068 H   0  0  0  0  0  0  0  0  0  0  0  0
    0.1587   -0.8330   -2.1679 H   0  0  0  0  0  0  0  0  0  0  0  0
    0.3895    1.6142   -1.6713 H   0  0  0  0  0  0  0  0  0  0  0  0
   -0.4842    1.3663   -0.1322 H   0  0  0  0  0  0  0  0  0  0  0  0
    8.5765   -0.8781    0.5673 H   0  0  0  0  0  0  0  0  0  0  0  0
    6.8908    0.4634   -1.3818 H   0  0  0  0  0  0  0  0  0  0  0  0
    3.4101   -0.5886   -0.8462 H   0  0  0  0  0  0  0  0  0  0  0  0
    3.8847    2.8560   -0.0691 H   0  0  0  0  0  0  0  0  0  0  0  0
   -2.2907   -2.6896   -0.7116 H   0  0  0  0  0  0  0  0  0  0  0  0
   -3.8022   -0.5983   -1.9238 H   0  0  0  0  0  0  0  0  0  0  0  0
   -2.0448   -2.7342   -2.6777 H   0  0  0  0  0  0  0  0  0  0  0  0
   -3.0055    0.9226    0.0218 H   0  0  0  0  0  0  0  0  0  0  0  0
   -4.5355    2.3229    2.8761 H   0  0  0  0  0  0  0  0  0  0  0  0
   -4.5561    2.6045    1.1045 H   0  0  0  0  0  0  0  0  0  0  0  0
   -4.8454   -2.4048    2.9599 H   0  0  0  0  0  0  0  0  0  0  0  0
  1  2  1  0
  2  3  1  0
  3  4  1  0
  4  5  1  0
  5  6  1  0
  6  7  2  0
  6  8  1  0
  8  9  1  0
  9 10  2  0
  9 11  1  0
 11 12  1  0
 12 13  2  0
 12 14  1  0
 12 15  1  0
  9 16  1  0
  6 17  1  0
  3 18  1  0
 18 19  1  0
 19 20  1  0
 20 21  1  0
 19 22  1  0
 22 23  1  0
 23 24  2  0
 24 25  1  0
 24 26  1  0
 26 27  2  0
 26 28  1  0
 28 29  1  0
 29 30  2  0
 20  2  1  0
 29 22  1  0
  1 31  1  0
  2 32  1  6
  3 33  1  6
  4 34  1  0
  4 35  1  0
 14 36  1  0
 15 37  1  0
 16 38  1  0
 17 39  1  0
 19 40  1  6
 20 41  1  1
 21 42  1  0
 23 43  1  0
 25 44  1  0
 25 45  1  0
 28 46  1  0
M  END
>  <Ligand ID>  (1) 
LIG0005742

>  <Ligand>  (1) 
CHEMBL220011

>  <SMILES>  (1) 
O[C@@H]1[C@@H](COP(=O)(OP(=O)(OP(=O)(O)O)O)O)O[C@H]([C@@H]1O)n1cc(N)c(=O)[nH]c1=O

>  <CID>  (1) 
10207117.0

>  <ChEMBL ID>  (1) 
nan

>  <InChiKey>  (1) 
ZPXMYTAGGGFLIP-UAKXSSHOSA-N

>  <InChi>  (1) 
InChI=1S/C9H16N3O15P3/c10-3-1-12(9(16)11-7(3)15)8-6(14)5(13)4(25-8)2-24-29(20,21)27-30(22,23)26-28(17,18)19/h1,4-6,8,13-14H,2,10H2,(H,20,21)(H,22,23)(H,11,15,16)(H2,17,18,19)/t4-,5-,6-,8-/m1/s1

>  <IUPAC Name>  (1) 
[[(2R,3S,4R,5R)-5-(5-amino-2,4-dioxopyrimidin-1-yl)-3,4-dihydroxyoxolan-2-yl]methoxy-hydroxyphosphoryl] phosphono hydrogen phosphate

$$$$
