
     RDKit          3D

 10  9  0  0  0  0  0  0  0  0999 V2000
   -1.6499    0.3107   -0.2031 C   0  0  0  0  0  0  0  0  0  0  0  0
   -0.3992   -0.6586   -1.0386 S   0  0  0  0  0  0  0  0  0  0  0  0
    1.1362   -0.8185   -0.1179 C   0  0  0  0  0  0  0  0  0  0  0  0
    2.2770    0.5564   -0.4044 S   0  0  0  0  0  0  0  0  0  0  0  0
   -1.7538    0.0307    0.8647 H   0  0  0  0  0  0  0  0  0  0  0  0
   -1.3481    1.3813   -0.2666 H   0  0  0  0  0  0  0  0  0  0  0  0
   -2.6239    0.1058   -0.6915 H   0  0  0  0  0  0  0  0  0  0  0  0
    0.9605   -0.9819    0.9754 H   0  0  0  0  0  0  0  0  0  0  0  0
    1.6675   -1.7301   -0.4943 H   0  0  0  0  0  0  0  0  0  0  0  0
    1.7337    1.8042   -0.1160 H   0  0  0  0  0  0  0  0  0  0  0  0
  1  2  1  0
  2  3  1  0
  3  4  1  0
  1  5  1  0
  1  6  1  0
  1  7  1  0
  3  8  1  0
  3  9  1  0
  4 10  1  0
M  END
>  <Ligand ID>  (1) 
LIG0000157

>  <Ligand>  (1) 
Methylthiomethylmercaptan

>  <SMILES>  (1) 
CSCS

>  <CID>  (1) 
122370.0

>  <ChEMBL ID>  (1) 
nan

>  <InChiKey>  (1) 
IXBUFAUQDFHNGI-UHFFFAOYSA-N

>  <InChi>  (1) 
InChI=1S/C2H6S2/c1-4-2-3/h3H,2H2,1H3

>  <IUPAC Name>  (1) 
methylsulfanylmethanethiol

$$$$
