
     RDKit          3D

 50 52  0  0  0  0  0  0  0  0999 V2000
    7.9422    0.9948    0.4483 C   0  0  0  0  0  0  0  0  0  0  0  0
    7.1516    0.3714    1.5858 C   0  0  0  0  0  0  0  0  0  0  0  0
    5.9561   -0.2119    1.1450 O   0  0  0  0  0  0  0  0  0  0  0  0
    4.9577    0.5037    0.4909 C   0  0  0  0  0  0  0  0  0  0  0  0
    5.1622    1.7176    0.2995 O   0  0  0  0  0  0  0  0  0  0  0  0
    3.7544   -0.2042    0.0785 C   0  0  0  0  0  0  0  0  0  0  0  0
    3.4789   -1.5393    0.2670 C   0  0  0  0  0  0  0  0  0  0  0  0
    4.3910   -2.5064    0.9449 C   0  0  0  0  0  0  0  0  0  0  0  0
    2.2711   -1.8310   -0.2483 N   0  0  0  0  0  0  0  0  0  0  0  0
    1.7291   -0.6998   -0.7851 C   0  0  0  0  0  0  0  0  0  0  0  0
    2.6513    0.3098   -0.5811 C   0  0  0  0  0  0  0  0  0  0  0  0
    2.4887    1.7367   -0.9984 C   0  0  0  0  0  0  0  0  0  0  0  0
    0.4408   -0.6599   -1.4204 C   0  0  0  0  0  0  0  0  0  0  0  0
   -0.2219   -1.7582   -1.4568 O   0  0  0  0  0  0  0  0  0  0  0  0
   -0.1066    0.5121   -1.9922 O   0  0  0  0  0  0  0  0  0  0  0  0
   -1.3458    0.5193   -2.5896 C   0  0  0  0  0  0  0  0  0  0  0  0
   -2.5795    0.4057   -1.8702 C   0  0  0  0  0  0  0  0  0  0  0  0
   -2.7850    0.3076   -0.5693 C   0  0  0  0  0  0  0  0  0  0  0  0
   -4.1552    0.1881   -0.0299 C   0  0  0  0  0  0  0  0  0  0  0  0
   -5.0709   -0.6695   -0.5313 N   0  0  0  0  0  0  0  0  0  0  0  0
   -6.2356   -0.5113    0.1645 C   0  0  0  0  0  0  0  0  0  0  0  0
   -6.0156    0.4671    1.1087 C   0  0  0  0  0  0  0  0  0  0  0  0
   -4.7214    0.8860    0.9709 N   0  0  0  0  0  0  0  0  0  0  0  0
   -7.0137    0.8788    1.9883 C   0  0  0  0  0  0  0  0  0  0  0  0
   -8.2574    0.2815    1.9040 C   0  0  0  0  0  0  0  0  0  0  0  0
   -8.4868   -0.7175    0.9430 C   0  0  0  0  0  0  0  0  0  0  0  0
   -7.4837   -1.1185    0.0721 C   0  0  0  0  0  0  0  0  0  0  0  0
   -1.7331    0.3805    0.3764 C   0  0  0  0  0  0  0  0  0  0  0  0
   -0.8984    0.4304    1.1453 N   0  0  0  0  0  0  0  0  0  0  0  0
   -3.7736    0.3934   -2.6448 O   0  0  0  0  0  0  0  0  0  0  0  0
    7.3037    1.0040   -0.4578 H   0  0  0  0  0  0  0  0  0  0  0  0
    8.9093    0.4777    0.2784 H   0  0  0  0  0  0  0  0  0  0  0  0
    8.2342    2.0489    0.7135 H   0  0  0  0  0  0  0  0  0  0  0  0
    7.7621   -0.4863    1.9989 H   0  0  0  0  0  0  0  0  0  0  0  0
    7.0335    1.0969    2.4119 H   0  0  0  0  0  0  0  0  0  0  0  0
    4.5766   -2.1692    1.9747 H   0  0  0  0  0  0  0  0  0  0  0  0
    5.3483   -2.6211    0.3560 H   0  0  0  0  0  0  0  0  0  0  0  0
    3.9346   -3.5005    0.9907 H   0  0  0  0  0  0  0  0  0  0  0  0
    1.8499   -2.7982   -0.2196 H   0  0  0  0  0  0  0  0  0  0  0  0
    3.0237    1.9011   -1.9547 H   0  0  0  0  0  0  0  0  0  0  0  0
    1.4296    2.0146   -1.0697 H   0  0  0  0  0  0  0  0  0  0  0  0
    2.9944    2.4121   -0.2463 H   0  0  0  0  0  0  0  0  0  0  0  0
   -1.4094    1.5291   -3.1524 H   0  0  0  0  0  0  0  0  0  0  0  0
   -1.4059   -0.1966   -3.4670 H   0  0  0  0  0  0  0  0  0  0  0  0
   -4.2528    1.6414    1.5618 H   0  0  0  0  0  0  0  0  0  0  0  0
   -6.8233    1.6683    2.7368 H   0  0  0  0  0  0  0  0  0  0  0  0
   -9.0626    0.5910    2.5829 H   0  0  0  0  0  0  0  0  0  0  0  0
   -9.4385   -1.2029    0.8494 H   0  0  0  0  0  0  0  0  0  0  0  0
   -7.6565   -1.9084   -0.6802 H   0  0  0  0  0  0  0  0  0  0  0  0
   -3.8416   -0.3588   -3.3431 H   0  0  0  0  0  0  0  0  0  0  0  0
  1  2  1  0
  2  3  1  0
  3  4  1  0
  4  5  2  0
  4  6  1  0
  6  7  2  0
  7  8  1  0
  7  9  1  0
  9 10  1  0
 10 11  2  0
 11 12  1  0
 10 13  1  0
 13 14  2  0
 13 15  1  0
 15 16  1  0
 16 17  1  0
 17 18  2  0
 18 19  1  0
 19 20  2  0
 20 21  1  0
 21 22  2  0
 22 23  1  0
 22 24  1  0
 24 25  2  0
 25 26  1  0
 26 27  2  0
 18 28  1  0
 28 29  3  0
 17 30  1  0
 11  6  1  0
 23 19  1  0
 27 21  1  0
  1 31  1  0
  1 32  1  0
  1 33  1  0
  2 34  1  0
  2 35  1  0
  8 36  1  0
  8 37  1  0
  8 38  1  0
  9 39  1  0
 12 40  1  0
 12 41  1  0
 12 42  1  0
 16 43  1  0
 16 44  1  0
 23 45  1  0
 24 46  1  0
 25 47  1  0
 26 48  1  0
 27 49  1  0
 30 50  1  0
M  END
>  <Ligand ID>  (1) 
LIG0004445

>  <Ligand>  (1) 
AC1NX3II

>  <SMILES>  (1) 
CCOC(=O)c1c(C)[nH]c(c1C)C(=O)OC/C(=C(/c1nc2c([nH]1)cccc2)\C#N)/O

>  <CID>  (1) 
135415433.0

>  <ChEMBL ID>  (1) 
nan

>  <InChiKey>  (1) 
XDDCWRDHDZXOCH-SSZFMOIBSA-N

>  <InChi>  (1) 
InChI=1S/C21H20N4O5/c1-4-29-20(27)17-11(2)18(23-12(17)3)21(28)30-10-16(26)13(9-22)19-24-14-7-5-6-8-15(14)25-19/h5-8,23,26H,4,10H2,1-3H3,(H,24,25)/b16-13-

>  <IUPAC Name>  (1) 
2-O-[(Z)-3-(1H-benzimidazol-2-yl)-3-cyano-2-hydroxyprop-2-enyl] 4-O-ethyl 3,5-dimethyl-1H-pyrrole-2,4-dicarboxylate

$$$$
