
     RDKit          3D

201209  0  0  0  0  0  0  0  0999 V2000
   10.1970    1.9851    6.8225 O   0  0  0  0  0  0  0  0  0  0  0  0
    9.5567    1.9542    5.5849 C   0  0  0  0  0  0  0  0  0  0  0  0
    9.4760    3.0346    4.7439 C   0  0  0  0  0  0  0  0  0  0  0  0
    8.8421    2.9989    3.5231 C   0  0  0  0  0  0  0  0  0  0  0  0
    8.2526    1.8184    3.1142 C   0  0  0  0  0  0  0  0  0  0  0  0
    8.3362    0.7363    3.9623 C   0  0  0  0  0  0  0  0  0  0  0  0
    8.9723    0.7732    5.1853 C   0  0  0  0  0  0  0  0  0  0  0  0
    7.5334    1.7255    1.7818 C   0  0  0  0  0  0  0  0  0  0  0  0
    6.1034    2.0177    1.8845 C   0  0  2  0  0  0  0  0  0  0  0  0
    5.3224    1.9508    0.5851 N   0  0  0  0  0  0  0  0  0  0  0  0
    4.5997    0.7884    0.4257 C   0  0  0  0  0  0  0  0  0  0  0  0
    4.9695   -0.0305    1.3999 O   0  0  0  0  0  0  0  0  0  0  0  0
    3.6017    0.0864   -0.3765 C   0  0  0  0  0  0  0  0  0  0  0  0
    3.2868   -1.2682    0.1803 C   0  0  2  0  0  0  0  0  0  0  0  0
    4.3360   -2.2217   -0.0140 N   0  0  0  0  0  0  0  0  0  0  0  0
    4.2803   -2.9557   -1.2583 C   0  0  0  0  0  0  0  0  0  0  0  0
    3.3358   -2.7314   -2.0912 O   0  0  0  0  0  0  0  0  0  0  0  0
    5.2653   -3.9757   -1.6553 C   0  0  2  0  0  0  0  0  0  0  0  0
    6.6749   -3.4225   -1.8113 C   0  0  0  0  0  0  0  0  0  0  0  0
    7.6009   -4.5077   -2.2303 C   0  0  0  0  0  0  0  0  0  0  0  0
    7.7239   -4.6927   -3.6107 C   0  0  0  0  0  0  0  0  0  0  0  0
    8.5390   -5.6591   -4.1564 C   0  0  0  0  0  0  0  0  0  0  0  0
    9.2458   -6.4558   -3.2757 C   0  0  0  0  0  0  0  0  0  0  0  0
    9.1245   -6.2730   -1.9297 C   0  0  0  0  0  0  0  0  0  0  0  0
    8.3037   -5.2999   -1.3594 C   0  0  0  0  0  0  0  0  0  0  0  0
   10.0663   -7.4290   -3.8590 O   0  0  0  0  0  0  0  0  0  0  0  0
    4.8847   -4.4198   -3.0005 N   0  0  0  0  0  0  0  0  0  0  0  0
    1.9770   -1.8378   -0.0800 C   0  0  0  0  0  0  0  0  0  0  0  0
    1.0224   -1.0776   -0.3424 O   0  0  0  0  0  0  0  0  0  0  0  0
    1.6426   -3.2235   -0.0556 N   0  0  0  0  0  0  0  0  0  0  0  0
    0.2437   -3.5982   -0.3235 C   0  0  1  0  0  0  0  0  0  0  0  0
    0.0958   -5.0663   -0.4995 C   0  0  0  0  0  0  0  0  0  0  0  0
    0.8705   -5.6751   -1.5921 C   0  0  0  0  0  0  0  0  0  0  0  0
    2.1490   -6.2095   -1.4346 C   0  0  0  0  0  0  0  0  0  0  0  0
    2.5822   -6.7145   -2.6085 N   0  0  0  0  0  0  0  0  0  0  0  0
    1.6152   -6.5116   -3.4920 C   0  0  0  0  0  0  0  0  0  0  0  0
    0.5729   -5.8810   -2.8829 N   0  0  0  0  0  0  0  0  0  0  0  0
   -0.5233   -3.1683    0.9479 C   0  0  0  0  0  0  0  0  0  0  0  0
    0.0599   -2.5924    1.8663 O   0  0  0  0  0  0  0  0  0  0  0  0
   -1.9088   -3.4208    1.1028 N   0  0  0  0  0  0  0  0  0  0  0  0
   -2.5642   -2.9387    2.2989 C   0  0  2  0  0  0  0  0  0  0  0  0
   -2.8712   -3.9612    3.3413 C   0  0  0  0  0  0  0  0  0  0  0  0
   -3.7231   -5.0785    2.9740 C   0  0  0  0  0  0  0  0  0  0  0  0
   -5.1017   -5.0057    3.2200 C   0  0  0  0  0  0  0  0  0  0  0  0
   -5.9627   -6.0134    2.8517 C   0  0  0  0  0  0  0  0  0  0  0  0
   -5.5157   -7.1552    2.2179 C   0  0  0  0  0  0  0  0  0  0  0  0
   -4.1699   -7.2452    1.9704 C   0  0  0  0  0  0  0  0  0  0  0  0
   -3.3077   -6.2360    2.3401 C   0  0  0  0  0  0  0  0  0  0  0  0
   -1.9822   -6.4054    2.0850 C   0  0  0  0  0  0  0  0  0  0  0  0
   -1.5247   -7.5556    1.4706 C   0  0  0  0  0  0  0  0  0  0  0  0
   -2.3885   -8.5825    1.0898 C   0  0  0  0  0  0  0  0  0  0  0  0
   -3.7282   -8.4062    1.3520 C   0  0  0  0  0  0  0  0  0  0  0  0
   -3.7192   -2.0361    2.0172 C   0  0  0  0  0  0  0  0  0  0  0  0
   -4.2995   -1.5264    2.9688 O   0  0  0  0  0  0  0  0  0  0  0  0
   -4.1843   -1.7253    0.7159 N   0  0  0  0  0  0  0  0  0  0  0  0
   -5.2911   -0.9089    0.3330 C   0  0  1  0  0  0  0  0  0  0  0  0
   -6.2865   -0.5186    1.3545 C   0  0  0  0  0  0  0  0  0  0  0  0
   -7.0528   -1.6336    1.9514 C   0  0  0  0  0  0  0  0  0  0  0  0
   -7.9202   -2.4190    0.9476 C   0  0  0  0  0  0  0  0  0  0  0  0
   -8.6279   -3.4809    1.6795 N   0  0  0  0  0  0  0  0  0  0  0  0
   -9.5639   -4.0923    1.0437 C   0  0  0  0  0  0  0  0  0  0  0  0
  -10.3094   -5.1417    1.6727 N   0  0  0  0  0  0  0  0  0  0  0  0
   -9.9318   -3.7842   -0.3007 N   0  0  0  0  0  0  0  0  0  0  0  0
   -4.9430    0.1074   -0.6717 C   0  0  0  0  0  0  0  0  0  0  0  0
   -3.7945    0.0885   -1.1552 O   0  0  0  0  0  0  0  0  0  0  0  0
   -5.7805    1.1408   -1.1698 N   0  0  0  0  0  0  0  0  0  0  0  0
   -5.3951    2.0731   -2.1959 C   0  0  2  0  0  0  0  0  0  0  0  0
   -4.9300    3.3934   -1.7538 C   0  0  0  0  0  0  0  0  0  0  0  0
   -4.6629    4.2507   -2.5895 O   0  0  0  0  0  0  0  0  0  0  0  0
   -4.7494    3.7907   -0.3866 N   0  0  0  0  0  0  0  0  0  0  0  0
   -4.2496    5.1485   -0.0852 C   0  0  2  0  0  0  0  0  0  0  0  0
   -2.7846    5.0549    0.2233 C   0  0  0  0  0  0  0  0  0  0  0  0
   -2.2496    3.9506    0.4080 O   0  0  0  0  0  0  0  0  0  0  0  0
   -1.9219    6.1757    0.3192 N   0  0  0  0  0  0  0  0  0  0  0  0
   -0.4841    6.0502    0.5956 C   0  0  2  0  0  0  0  0  0  0  0  0
    0.1843    5.2809   -0.4748 C   0  0  0  0  0  0  0  0  0  0  0  0
   -0.5205    4.7447   -1.3426 O   0  0  0  0  0  0  0  0  0  0  0  0
    1.5885    5.0991   -0.6120 N   0  0  0  0  0  0  0  0  0  0  0  0
    2.0440    4.2443   -1.6902 C   0  0  2  0  0  0  0  0  0  0  0  0
    3.3055    3.5315   -1.4588 C   0  0  0  0  0  0  0  0  0  0  0  0
    3.5573    2.5463   -2.1644 O   0  0  0  0  0  0  0  0  0  0  0  0
    4.2841    3.8725   -0.4844 N   0  0  0  0  0  0  0  0  0  0  0  0
    5.5194    3.1033   -0.2431 C   0  0  1  0  0  0  0  0  0  0  0  0
    6.3245    4.1753    0.5107 C   0  0  0  0  0  0  0  0  0  0  0  0
    6.2523    2.8155   -1.5017 C   0  0  0  0  0  0  0  0  0  0  0  0
    5.9326    3.2512   -2.6337 O   0  0  0  0  0  0  0  0  0  0  0  0
    7.4084    1.9957   -1.5115 O   0  0  0  0  0  0  0  0  0  0  0  0
    2.1498    5.1769   -2.9300 C   0  0  0  0  0  0  0  0  0  0  0  0
    3.0713    6.2979   -2.7057 C   0  0  0  0  0  0  0  0  0  0  0  0
    4.3984    6.3445   -3.0256 C   0  0  0  0  0  0  0  0  0  0  0  0
    5.1909    7.4672   -2.7483 C   0  0  0  0  0  0  0  0  0  0  0  0
    4.6310    8.5883   -2.1266 C   0  0  0  0  0  0  0  0  0  0  0  0
    3.2918    8.5442   -1.8037 C   0  0  0  0  0  0  0  0  0  0  0  0
    2.5361    7.4325   -2.0848 C   0  0  0  0  0  0  0  0  0  0  0  0
   -0.4171    5.2970    1.9233 C   0  0  0  0  0  0  0  0  0  0  0  0
   -5.0246    5.8042    0.9826 C   0  0  0  0  0  0  0  0  0  0  0  0
   -4.5596    7.1686    1.3116 C   0  0  0  0  0  0  0  0  0  0  0  0
   -4.8291    8.1479    0.5328 O   0  0  0  0  0  0  0  0  0  0  0  0
   -3.8022    7.3903    2.5124 N   0  0  0  0  0  0  0  0  0  0  0  0
   -6.3304    2.1426   -3.3324 C   0  0  0  0  0  0  0  0  0  0  0  0
   -7.7139    2.5261   -3.0938 C   0  0  0  0  0  0  0  0  0  0  0  0
   -8.1891    3.8302   -3.2988 C   0  0  0  0  0  0  0  0  0  0  0  0
   -9.4820    3.9050   -2.9934 N   0  0  0  0  0  0  0  0  0  0  0  0
   -9.9021    2.6850   -2.5849 C   0  0  0  0  0  0  0  0  0  0  0  0
   -8.8161    1.8358   -2.6464 C   0  0  0  0  0  0  0  0  0  0  0  0
   -8.9857    0.5162   -2.2894 C   0  0  0  0  0  0  0  0  0  0  0  0
  -10.2368    0.1066   -1.8861 C   0  0  0  0  0  0  0  0  0  0  0  0
  -11.3310    0.9440   -1.8194 C   0  0  0  0  0  0  0  0  0  0  0  0
  -11.1558    2.2794   -2.1817 C   0  0  0  0  0  0  0  0  0  0  0  0
    5.5635    3.0112    2.8017 C   0  0  0  0  0  0  0  0  0  0  0  0
    4.4621    3.5849    2.4878 O   0  0  0  0  0  0  0  0  0  0  0  0
    6.1345    3.4198    4.0272 N   0  0  0  0  0  0  0  0  0  0  0  0
   10.8673    2.7310    6.9733 H   0  0  0  0  0  0  0  0  0  0  0  0
    9.9526    3.9593    5.0929 H   0  0  0  0  0  0  0  0  0  0  0  0
    8.7785    3.8533    2.8586 H   0  0  0  0  0  0  0  0  0  0  0  0
    7.8724   -0.2001    3.6427 H   0  0  0  0  0  0  0  0  0  0  0  0
    9.0317   -0.0735    5.8397 H   0  0  0  0  0  0  0  0  0  0  0  0
    8.1605    2.1828    1.0160 H   0  0  0  0  0  0  0  0  0  0  0  0
    7.6918    0.6032    1.5431 H   0  0  0  0  0  0  0  0  0  0  0  0
    5.7596    1.0425    2.4577 H   0  0  0  0  0  0  0  0  0  0  0  0
    2.6307    0.6160   -0.4269 H   0  0  0  0  0  0  0  0  0  0  0  0
    3.9293   -0.0852   -1.4216 H   0  0  0  0  0  0  0  0  0  0  0  0
    3.1897   -1.1331    1.3651 H   0  0  0  0  0  0  0  0  0  0  0  0
    5.1128   -2.4177    0.6548 H   0  0  0  0  0  0  0  0  0  0  0  0
    5.2752   -4.8474   -0.9849 H   0  0  0  0  0  0  0  0  0  0  0  0
    6.9921   -3.0778   -0.8037 H   0  0  0  0  0  0  0  0  0  0  0  0
    6.7158   -2.6145   -2.5503 H   0  0  0  0  0  0  0  0  0  0  0  0
    7.1733   -4.0768   -4.3046 H   0  0  0  0  0  0  0  0  0  0  0  0
    8.6046   -5.7673   -5.2222 H   0  0  0  0  0  0  0  0  0  0  0  0
    9.7079   -6.9348   -1.2800 H   0  0  0  0  0  0  0  0  0  0  0  0
    8.2043   -5.1520   -0.3091 H   0  0  0  0  0  0  0  0  0  0  0  0
    9.7139   -7.9750   -4.6579 H   0  0  0  0  0  0  0  0  0  0  0  0
    5.1095   -5.4253   -3.0787 H   0  0  0  0  0  0  0  0  0  0  0  0
    3.8591   -4.2965   -3.0803 H   0  0  0  0  0  0  0  0  0  0  0  0
    2.3924   -3.8667    0.1543 H   0  0  0  0  0  0  0  0  0  0  0  0
   -0.2367   -2.9971   -1.0840 H   0  0  0  0  0  0  0  0  0  0  0  0
   -1.0034   -5.3487   -0.5937 H   0  0  0  0  0  0  0  0  0  0  0  0
    0.3778   -5.6196    0.4560 H   0  0  0  0  0  0  0  0  0  0  0  0
    2.7100   -6.2125   -0.4873 H   0  0  0  0  0  0  0  0  0  0  0  0
    3.5256   -7.1638   -2.6903 H   0  0  0  0  0  0  0  0  0  0  0  0
    1.6795   -6.8190   -4.5433 H   0  0  0  0  0  0  0  0  0  0  0  0
   -2.3501   -3.9364    0.3385 H   0  0  0  0  0  0  0  0  0  0  0  0
   -1.8171   -2.2394    2.8368 H   0  0  0  0  0  0  0  0  0  0  0  0
   -1.9302   -4.2612    3.8617 H   0  0  0  0  0  0  0  0  0  0  0  0
   -3.4058   -3.3778    4.1571 H   0  0  0  0  0  0  0  0  0  0  0  0
   -5.4563   -4.1165    3.7211 H   0  0  0  0  0  0  0  0  0  0  0  0
   -7.0256   -5.8604    3.0920 H   0  0  0  0  0  0  0  0  0  0  0  0
   -6.2231   -7.9195    1.9458 H   0  0  0  0  0  0  0  0  0  0  0  0
   -1.2435   -5.6797    2.3630 H   0  0  0  0  0  0  0  0  0  0  0  0
   -0.4626   -7.7203    1.2537 H   0  0  0  0  0  0  0  0  0  0  0  0
   -1.9968   -9.4734    0.6082 H   0  0  0  0  0  0  0  0  0  0  0  0
   -4.4146   -9.1909    1.0657 H   0  0  0  0  0  0  0  0  0  0  0  0
   -3.6249   -2.1623   -0.0415 H   0  0  0  0  0  0  0  0  0  0  0  0
   -5.9475   -1.6608   -0.3022 H   0  0  0  0  0  0  0  0  0  0  0  0
   -7.0550    0.1158    0.8136 H   0  0  0  0  0  0  0  0  0  0  0  0
   -5.8891    0.1961    2.1165 H   0  0  0  0  0  0  0  0  0  0  0  0
   -7.7877   -1.1670    2.6881 H   0  0  0  0  0  0  0  0  0  0  0  0
   -6.5574   -2.4019    2.5190 H   0  0  0  0  0  0  0  0  0  0  0  0
   -8.6287   -1.7014    0.5150 H   0  0  0  0  0  0  0  0  0  0  0  0
   -7.3366   -2.8749    0.1438 H   0  0  0  0  0  0  0  0  0  0  0  0
   -9.9796   -6.1377    1.5497 H   0  0  0  0  0  0  0  0  0  0  0  0
  -11.1548   -4.9785    2.2427 H   0  0  0  0  0  0  0  0  0  0  0  0
   -9.5644   -4.3181   -1.1030 H   0  0  0  0  0  0  0  0  0  0  0  0
  -10.6072   -2.9713   -0.3963 H   0  0  0  0  0  0  0  0  0  0  0  0
   -6.7028    1.2128   -0.7555 H   0  0  0  0  0  0  0  0  0  0  0  0
   -4.4098    1.5986   -2.5909 H   0  0  0  0  0  0  0  0  0  0  0  0
   -4.9847    3.0909    0.3022 H   0  0  0  0  0  0  0  0  0  0  0  0
   -4.2942    5.7097   -1.0345 H   0  0  0  0  0  0  0  0  0  0  0  0
   -2.3526    7.0867    0.1772 H   0  0  0  0  0  0  0  0  0  0  0  0
   -0.0739    7.0425    0.8078 H   0  0  0  0  0  0  0  0  0  0  0  0
    2.1648    5.5891    0.0647 H   0  0  0  0  0  0  0  0  0  0  0  0
    1.1907    3.5691   -1.9839 H   0  0  0  0  0  0  0  0  0  0  0  0
    4.0386    4.7263    0.0450 H   0  0  0  0  0  0  0  0  0  0  0  0
    6.9216    3.9015    1.3309 H   0  0  0  0  0  0  0  0  0  0  0  0
    7.0651    4.5096   -0.2848 H   0  0  0  0  0  0  0  0  0  0  0  0
    5.7226    5.1043    0.6662 H   0  0  0  0  0  0  0  0  0  0  0  0
    8.0623    2.0513   -2.2982 H   0  0  0  0  0  0  0  0  0  0  0  0
    2.5173    4.5963   -3.8056 H   0  0  0  0  0  0  0  0  0  0  0  0
    1.1296    5.5127   -3.2090 H   0  0  0  0  0  0  0  0  0  0  0  0
    4.8347    5.5076   -3.5102 H   0  0  0  0  0  0  0  0  0  0  0  0
    6.2362    7.4677   -3.0135 H   0  0  0  0  0  0  0  0  0  0  0  0
    5.2429    9.4543   -1.9117 H   0  0  0  0  0  0  0  0  0  0  0  0
    2.8244    9.3979   -1.3200 H   0  0  0  0  0  0  0  0  0  0  0  0
    1.4899    7.4749   -1.8041 H   0  0  0  0  0  0  0  0  0  0  0  0
   -1.4152    5.0379    2.3247 H   0  0  0  0  0  0  0  0  0  0  0  0
    0.1711    4.3760    1.7513 H   0  0  0  0  0  0  0  0  0  0  0  0
    0.0812    5.8781    2.7221 H   0  0  0  0  0  0  0  0  0  0  0  0
   -4.9810    5.1870    1.9087 H   0  0  0  0  0  0  0  0  0  0  0  0
   -6.0757    5.9117    0.6234 H   0  0  0  0  0  0  0  0  0  0  0  0
   -2.8953    7.8887    2.4904 H   0  0  0  0  0  0  0  0  0  0  0  0
   -4.2260    7.0162    3.3869 H   0  0  0  0  0  0  0  0  0  0  0  0
   -6.3224    1.1303   -3.8508 H   0  0  0  0  0  0  0  0  0  0  0  0
   -5.8422    2.7924   -4.1286 H   0  0  0  0  0  0  0  0  0  0  0  0
   -7.6007    4.6754   -3.6550 H   0  0  0  0  0  0  0  0  0  0  0  0
  -10.1078    4.7563   -3.0476 H   0  0  0  0  0  0  0  0  0  0  0  0
   -8.1213   -0.1209   -2.3475 H   0  0  0  0  0  0  0  0  0  0  0  0
  -10.3752   -0.9251   -1.6055 H   0  0  0  0  0  0  0  0  0  0  0  0
  -12.3166    0.6012   -1.4961 H   0  0  0  0  0  0  0  0  0  0  0  0
  -11.9929    2.9485   -2.1364 H   0  0  0  0  0  0  0  0  0  0  0  0
    6.2698    2.7269    4.8003 H   0  0  0  0  0  0  0  0  0  0  0  0
    6.4152    4.4399    4.1367 H   0  0  0  0  0  0  0  0  0  0  0  0
  1  2  1  0
  2  3  2  0
  3  4  1  0
  4  5  2  0
  5  6  1  0
  6  7  2  0
  5  8  1  0
  8  9  1  0
  9 10  1  0
 10 11  1  0
 11 12  2  0
 11 13  1  0
 13 14  1  0
 14 15  1  0
 15 16  1  0
 16 17  2  0
 16 18  1  0
 18 19  1  0
 19 20  1  0
 20 21  2  0
 21 22  1  0
 22 23  2  0
 23 24  1  0
 24 25  2  0
 23 26  1  0
 18 27  1  0
 14 28  1  0
 28 29  2  0
 28 30  1  0
 30 31  1  0
 31 32  1  0
 32 33  1  0
 33 34  2  0
 34 35  1  0
 35 36  1  0
 36 37  2  0
 31 38  1  0
 38 39  2  0
 38 40  1  0
 40 41  1  0
 41 42  1  0
 42 43  1  0
 43 44  2  0
 44 45  1  0
 45 46  2  0
 46 47  1  0
 47 48  2  0
 48 49  1  0
 49 50  2  0
 50 51  1  0
 51 52  2  0
 41 53  1  0
 53 54  2  0
 53 55  1  0
 55 56  1  0
 56 57  1  0
 57 58  1  0
 58 59  1  0
 59 60  1  0
 60 61  2  3
 61 62  1  0
 61 63  1  0
 56 64  1  0
 64 65  2  0
 64 66  1  0
 66 67  1  0
 67 68  1  0
 68 69  2  0
 68 70  1  0
 70 71  1  0
 71 72  1  0
 72 73  2  0
 72 74  1  0
 74 75  1  0
 75 76  1  0
 76 77  2  0
 76 78  1  0
 78 79  1  0
 79 80  1  0
 80 81  2  0
 80 82  1  0
 82 83  1  0
 83 84  1  1
 83 85  1  0
 85 86  2  0
 85 87  1  0
 79 88  1  0
 88 89  1  0
 89 90  2  0
 90 91  1  0
 91 92  2  0
 92 93  1  0
 93 94  2  0
 75 95  1  0
 71 96  1  0
 96 97  1  0
 97 98  2  0
 97 99  1  0
 67100  1  0
100101  1  0
101102  2  0
102103  1  0
103104  1  0
104105  2  0
105106  1  0
106107  2  0
107108  1  0
108109  2  0
  9110  1  0
110111  2  0
110112  1  0
  7  2  1  0
 83 10  1  0
 94 89  1  0
105101  1  0
 25 20  1  0
 37 33  1  0
 48 43  1  0
109104  1  0
 52 47  1  0
  1113  1  0
  3114  1  0
  4115  1  0
  6116  1  0
  7117  1  0
  8118  1  0
  8119  1  0
  9120  1  1
 13121  1  0
 13122  1  0
 14123  1  1
 15124  1  0
 18125  1  1
 19126  1  0
 19127  1  0
 21128  1  0
 22129  1  0
 24130  1  0
 25131  1  0
 26132  1  0
 27133  1  0
 27134  1  0
 30135  1  0
 31136  1  6
 32137  1  0
 32138  1  0
 34139  1  0
 35140  1  0
 36141  1  0
 40142  1  0
 41143  1  1
 42144  1  0
 42145  1  0
 44146  1  0
 45147  1  0
 46148  1  0
 49149  1  0
 50150  1  0
 51151  1  0
 52152  1  0
 55153  1  0
 56154  1  6
 57155  1  0
 57156  1  0
 58157  1  0
 58158  1  0
 59159  1  0
 59160  1  0
 62161  1  0
 62162  1  0
 63163  1  0
 63164  1  0
 66165  1  0
 67166  1  6
 70167  1  0
 71168  1  6
 74169  1  0
 75170  1  1
 78171  1  0
 79172  1  6
 82173  1  0
 84174  1  0
 84175  1  0
 84176  1  0
 87177  1  0
 88178  1  0
 88179  1  0
 90180  1  0
 91181  1  0
 92182  1  0
 93183  1  0
 94184  1  0
 95185  1  0
 95186  1  0
 95187  1  0
 96188  1  0
 96189  1  0
 99190  1  0
 99191  1  0
100192  1  0
100193  1  0
102194  1  0
103195  1  0
106196  1  0
107197  1  0
108198  1  0
109199  1  0
112200  1  0
112201  1  0
M  END
>  <Ligand ID>  (1) 
LIG0001130

>  <Ligand>  (1) 
CHEMBL2369982

>  <SMILES>  (1) 
Oc1ccc(cc1)C[C@H](N1C(=O)C[C@H](NC(=O)[C@H](Cc2ccc(cc2)O)N)C(=O)N[C@@H](Cc2c[nH]cn2)C(=O)N[C@H](Cc2cccc3c2cccc3)C(=O)N[C@@H](CCCN=C(N)N)C(=O)N[C@H](C(=O)N[C@H](C(=O)N[C@H](C(=O)N[C@H](C(=O)N[C@]1(C)C(=O)O)Cc1ccccc1)C)CC(=O)N)Cc1c[nH]c2c1cccc2)C(=O)N

>  <CID>  (1) 
73350035.0

>  <ChEMBL ID>  (1) 
nan

>  <InChiKey>  (1) 
VFEXJLVWDIPOPO-GEGANOCCSA-N

>  <InChi>  (1) 
InChI=1S/C77H89N19O16/c1-41-66(102)89-56(31-42-12-4-3-5-13-42)74(110)95-77(2,75(111)112)96(62(65(80)101)32-44-23-27-50(98)28-24-44)64(100)37-61(90-67(103)53(78)30-43-21-25-49(97)26-22-43)73(109)93-59(35-48-39-83-40-86-48)72(108)92-57(33-46-16-10-15-45-14-6-7-17-51(45)46)70(106)88-55(20-11-29-84-76(81)82)68(104)91-58(34-47-38-85-54-19-9-8-18-52(47)54)71(107)94-60(36-63(79)99)69(105)87-41/h3-10,12-19,21-28,38-41,53,55-62,85,97-98H,11,20,29-37,78H2,1-2H3,(H2,79,99)(H2,80,101)(H,83,86)(H,87,105)(H,88,106)(H,89,102)(H,90,103)(H,91,104)(H,92,108)(H,93,109)(H,94,107)(H,95,110)(H,111,112)(H4,81,82,84)/t41-,53-,55-,56-,57+,58-,59-,60-,61-,62-,77-/m0/s1

>  <IUPAC Name>  (1) 
(2S,5S,8S,11S,14S,17S,20R,23S,26S)-1-[(2S)-1-amino-3-(4-hydroxyphenyl)-1-oxopropan-2-yl]-26-[[(2S)-2-amino-3-(4-hydroxyphenyl)propanoyl]amino]-11-(2-amino-2-oxoethyl)-5-benzyl-17-[3-(diaminomethylideneamino)propyl]-23-(1H-imidazol-4-ylmethyl)-14-(1H-indol-3-ylmethyl)-2,8-dimethyl-20-(naphthalen-1-ylmethyl)-4,7,10,13,16,19,22,25,28-nonaoxo-1,3,6,9,12,15,18,21,24-nonazacyclooctacosane-2-carboxylic acid

$$$$
