
     RDKit          3D

 52 54  0  0  0  0  0  0  0  0999 V2000
   -6.7272   -0.9523    1.4053 O   0  0  0  0  0  0  0  0  0  0  0  0
   -5.3576   -0.9678    1.5660 C   0  0  0  0  0  0  0  0  0  0  0  0
   -4.6248   -0.7663    0.2520 C   0  0  0  0  0  0  0  0  0  0  0  0
   -4.9772    0.5739   -0.3580 C   0  0  0  0  0  0  0  0  0  0  0  0
   -4.6443    1.6416    0.4676 O   0  0  0  0  0  0  0  0  0  0  0  0
   -5.0664    3.0936   -0.2783 P   0  0  0  0  0  0  0  0  0  0  0  0
   -6.5698    3.3300   -0.2480 O   0  0  0  0  0  0  0  0  0  0  0  0
   -4.2482    4.3408    0.5166 O   0  0  0  0  0  0  0  0  0  0  0  0
   -4.5329    3.0439   -1.8710 O   0  0  0  0  0  0  0  0  0  0  0  0
   -3.1416   -0.9201    0.5133 C   0  0  0  0  0  0  0  0  0  0  0  0
   -2.3881   -0.7243   -0.7786 C   0  0  0  0  0  0  0  0  0  0  0  0
   -0.9225   -0.8605   -0.6027 C   0  0  0  0  0  0  0  0  0  0  0  0
   -0.1579    0.2641   -0.2926 C   0  0  0  0  0  0  0  0  0  0  0  0
    1.2084    0.1494   -0.1263 C   0  0  0  0  0  0  0  0  0  0  0  0
    1.7728   -1.1002   -0.2771 C   0  0  0  0  0  0  0  0  0  0  0  0
    1.0337   -2.2244   -0.5836 C   0  0  0  0  0  0  0  0  0  0  0  0
   -0.3345   -2.1028   -0.7489 C   0  0  0  0  0  0  0  0  0  0  0  0
    3.2184   -1.2126   -0.0995 C   0  0  0  0  0  0  0  0  0  0  0  0
    4.0188   -2.3350   -0.1946 C   0  0  0  0  0  0  0  0  0  0  0  0
    5.2670   -1.9632    0.0443 O   0  0  0  0  0  0  0  0  0  0  0  0
    5.3223   -0.6769    0.2866 C   0  0  0  0  0  0  0  0  0  0  0  0
    4.0513   -0.1953    0.2003 N   0  0  0  0  0  0  0  0  0  0  0  0
    6.4925    0.1398    0.5960 C   0  0  0  0  0  0  0  0  0  0  0  0
    6.4110    1.5001    0.8330 C   0  0  0  0  0  0  0  0  0  0  0  0
    7.5237    2.2651    1.1251 C   0  0  0  0  0  0  0  0  0  0  0  0
    8.7437    1.6087    1.1727 C   0  0  0  0  0  0  0  0  0  0  0  0
    8.8824    0.2678    0.9471 C   0  0  0  0  0  0  0  0  0  0  0  0
    7.7324   -0.4717    0.6545 C   0  0  0  0  0  0  0  0  0  0  0  0
   10.1752    2.5609    1.5426 Cl  0  0  0  0  0  0  0  0  0  0  0  0
   -4.9980   -1.8453   -0.6631 N   0  0  0  0  0  0  0  0  0  0  0  0
   -6.9699   -1.0585    0.4522 H   0  0  0  0  0  0  0  0  0  0  0  0
   -5.0475   -0.2027    2.2956 H   0  0  0  0  0  0  0  0  0  0  0  0
   -5.0694   -1.9949    1.9008 H   0  0  0  0  0  0  0  0  0  0  0  0
   -4.6515    0.6678   -1.3946 H   0  0  0  0  0  0  0  0  0  0  0  0
   -6.1025    0.5809   -0.3973 H   0  0  0  0  0  0  0  0  0  0  0  0
   -4.1124    4.1292    1.4718 H   0  0  0  0  0  0  0  0  0  0  0  0
   -4.9710    3.7617   -2.4053 H   0  0  0  0  0  0  0  0  0  0  0  0
   -2.8304   -0.1100    1.1893 H   0  0  0  0  0  0  0  0  0  0  0  0
   -3.0128   -1.9276    0.9353 H   0  0  0  0  0  0  0  0  0  0  0  0
   -2.6645    0.2352   -1.2492 H   0  0  0  0  0  0  0  0  0  0  0  0
   -2.6994   -1.5137   -1.4997 H   0  0  0  0  0  0  0  0  0  0  0  0
   -0.6190    1.2515   -0.1755 H   0  0  0  0  0  0  0  0  0  0  0  0
    1.7901    1.0366    0.1154 H   0  0  0  0  0  0  0  0  0  0  0  0
    1.5160   -3.2016   -0.6959 H   0  0  0  0  0  0  0  0  0  0  0  0
   -0.9651   -2.9632   -0.9924 H   0  0  0  0  0  0  0  0  0  0  0  0
    3.6516   -3.3263   -0.4259 H   0  0  0  0  0  0  0  0  0  0  0  0
    5.4190    1.9475    0.7786 H   0  0  0  0  0  0  0  0  0  0  0  0
    7.4550    3.3292    1.3098 H   0  0  0  0  0  0  0  0  0  0  0  0
    9.8351   -0.2313    0.9867 H   0  0  0  0  0  0  0  0  0  0  0  0
    7.8241   -1.5282    0.4744 H   0  0  0  0  0  0  0  0  0  0  0  0
   -5.8780   -1.6308   -1.1737 H   0  0  0  0  0  0  0  0  0  0  0  0
   -5.0604   -2.7118   -0.0691 H   0  0  0  0  0  0  0  0  0  0  0  0
  1  2  1  0
  2  3  1  0
  3  4  1  0
  4  5  1  0
  5  6  1  0
  6  7  2  0
  6  8  1  0
  6  9  1  0
  3 10  1  0
 10 11  1  0
 11 12  1  0
 12 13  2  0
 13 14  1  0
 14 15  2  0
 15 16  1  0
 16 17  2  0
 15 18  1  0
 18 19  2  0
 19 20  1  0
 20 21  1  0
 21 22  2  0
 21 23  1  0
 23 24  2  0
 24 25  1  0
 25 26  2  0
 26 27  1  0
 27 28  2  0
 26 29  1  0
  3 30  1  0
 17 12  1  0
 22 18  1  0
 28 23  1  0
  1 31  1  0
  2 32  1  0
  2 33  1  0
  4 34  1  0
  4 35  1  0
  8 36  1  0
  9 37  1  0
 10 38  1  0
 10 39  1  0
 11 40  1  0
 11 41  1  0
 13 42  1  0
 14 43  1  0
 16 44  1  0
 17 45  1  0
 19 46  1  0
 24 47  1  0
 25 48  1  0
 27 49  1  0
 28 50  1  0
 30 51  1  0
 30 52  1  0
M  END
>  <Ligand ID>  (1) 
LIG0005922

>  <Ligand>  (1) 
CHEMBL3341920

>  <SMILES>  (1) 
OCC(COP(=O)(O)O)(CCc1ccc(cc1)c1coc(n1)c1ccc(cc1)Cl)N

>  <CID>  (1) 
118716142.0

>  <ChEMBL ID>  (1) 
nan

>  <InChiKey>  (1) 
ONZDQUQGLVVPEN-UHFFFAOYSA-N

>  <InChi>  (1) 
InChI=1S/C20H22ClN2O6P/c21-17-7-5-16(6-8-17)19-23-18(11-28-19)15-3-1-14(2-4-15)9-10-20(22,12-24)13-29-30(25,26)27/h1-8,11,24H,9-10,12-13,22H2,(H2,25,26,27)

>  <IUPAC Name>  (1) 
[2-amino-4-[4-[2-(4-chlorophenyl)-1,3-oxazol-4-yl]phenyl]-2-(hydroxymethyl)butyl] dihydrogen phosphate

$$$$
