
     RDKit          3D

 32 32  0  0  0  0  0  0  0  0999 V2000
    4.4676   -0.6138   -1.1031 C   0  0  0  0  0  0  0  0  0  0  0  0
    3.0108   -0.9766   -0.9538 C   0  0  0  0  0  0  0  0  0  0  0  0
    2.1477   -0.0674   -0.4309 C   0  0  0  0  0  0  0  0  0  0  0  0
    0.7930   -0.4682   -0.3166 C   0  0  0  0  0  0  0  0  0  0  0  0
    0.5369   -1.6684   -0.7292 O   0  0  0  0  0  0  0  0  0  0  0  0
   -0.3908    0.2358    0.1904 C   0  0  0  0  0  0  0  0  0  0  0  0
   -0.3598    1.4662    0.6575 C   0  0  0  0  0  0  0  0  0  0  0  0
    0.8724    2.2877    0.7266 C   0  0  0  0  0  0  0  0  0  0  0  0
   -1.5878    2.1042    1.1607 C   0  0  0  0  0  0  0  0  0  0  0  0
   -2.6783    1.3942    1.1176 C   0  0  0  0  0  0  0  0  0  0  0  0
   -2.8430    0.0320    0.6305 C   0  0  0  0  0  0  0  0  0  0  0  0
   -1.6427   -0.6011    0.1057 C   0  0  0  0  0  0  0  0  0  0  0  0
   -1.9095   -0.8923   -1.3906 C   0  0  0  0  0  0  0  0  0  0  0  0
   -1.3564   -1.9642    0.7415 C   0  0  0  0  0  0  0  0  0  0  0  0
    5.0747   -1.5261   -0.8712 H   0  0  0  0  0  0  0  0  0  0  0  0
    4.6643   -0.2117   -2.1066 H   0  0  0  0  0  0  0  0  0  0  0  0
    4.6826    0.1301   -0.3004 H   0  0  0  0  0  0  0  0  0  0  0  0
    2.7154   -1.9523   -1.2722 H   0  0  0  0  0  0  0  0  0  0  0  0
    2.6370    0.8477   -0.1741 H   0  0  0  0  0  0  0  0  0  0  0  0
    0.5696    3.2929    1.1698 H   0  0  0  0  0  0  0  0  0  0  0  0
    1.2479    2.5650   -0.2609 H   0  0  0  0  0  0  0  0  0  0  0  0
    1.5918    1.9131    1.4588 H   0  0  0  0  0  0  0  0  0  0  0  0
   -1.6200    3.1012    1.5501 H   0  0  0  0  0  0  0  0  0  0  0  0
   -3.5926    1.8921    1.5003 H   0  0  0  0  0  0  0  0  0  0  0  0
   -3.7198   -0.0309   -0.0991 H   0  0  0  0  0  0  0  0  0  0  0  0
   -3.2110   -0.6370    1.4788 H   0  0  0  0  0  0  0  0  0  0  0  0
   -1.4272   -0.1016   -1.9803 H   0  0  0  0  0  0  0  0  0  0  0  0
   -1.5926   -1.9219   -1.6484 H   0  0  0  0  0  0  0  0  0  0  0  0
   -2.9915   -0.8164   -1.6259 H   0  0  0  0  0  0  0  0  0  0  0  0
   -0.4572   -1.9492    1.3613 H   0  0  0  0  0  0  0  0  0  0  0  0
   -1.4222   -2.7223   -0.0309 H   0  0  0  0  0  0  0  0  0  0  0  0
   -2.2091   -2.1408    1.4448 H   0  0  0  0  0  0  0  0  0  0  0  0
  1  2  1  0
  2  3  2  0
  3  4  1  0
  4  5  2  0
  4  6  1  0
  6  7  2  0
  7  8  1  0
  7  9  1  0
  9 10  2  0
 10 11  1  0
 11 12  1  0
 12 13  1  0
 12 14  1  0
 12  6  1  0
  1 15  1  0
  1 16  1  0
  1 17  1  0
  2 18  1  0
  3 19  1  0
  8 20  1  0
  8 21  1  0
  8 22  1  0
  9 23  1  0
 10 24  1  0
 11 25  1  0
 11 26  1  0
 13 27  1  0
 13 28  1  0
 13 29  1  0
 14 30  1  0
 14 31  1  0
 14 32  1  0
M  END
>  <Ligand ID>  (1) 
LIG0002041

>  <Ligand>  (1) 
beta-Damascenone

>  <SMILES>  (1) 
C/C=C/C(=O)C1=C(C)C=CCC1(C)C

>  <CID>  (1) 
5366074.0

>  <ChEMBL ID>  (1) 
nan

>  <InChiKey>  (1) 
POIARNZEYGURDG-FNORWQNLSA-N

>  <InChi>  (1) 
InChI=1S/C13H18O/c1-5-7-11(14)12-10(2)8-6-9-13(12,3)4/h5-8H,9H2,1-4H3/b7-5+

>  <IUPAC Name>  (1) 
(E)-1-(2,6,6-trimethylcyclohexa-1,3-dien-1-yl)but-2-en-1-one

$$$$
