
     RDKit          3D

124126  0  0  0  0  0  0  0  0999 V2000
    6.6912   -4.2301   -2.8843 N   0  0  0  0  0  0  0  0  0  0  0  0
    7.1489   -3.0921   -3.6448 C   0  0  0  0  0  0  0  0  0  0  0  0
    6.1815   -1.9689   -3.6965 C   0  0  0  0  0  0  0  0  0  0  0  0
    5.8101   -1.3888   -2.3377 C   0  0  0  0  0  0  0  0  0  0  0  0
    7.0992   -0.8744   -1.6106 C   0  0  1  0  0  0  0  0  0  0  0  0
    7.7368    0.1437   -2.4022 C   0  0  0  0  0  0  0  0  0  0  0  0
    8.2388   -0.1608   -3.5415 O   0  0  0  0  0  0  0  0  0  0  0  0
    7.8887    1.5353   -2.0680 N   0  0  0  0  0  0  0  0  0  0  0  0
    8.5409    2.4772   -2.9528 C   0  0  0  0  0  0  0  0  0  0  0  0
    8.5222    3.8229   -2.3181 C   0  0  0  0  0  0  0  0  0  0  0  0
    9.0402    4.7768   -2.9813 O   0  0  0  0  0  0  0  0  0  0  0  0
    7.9539    4.0604   -1.0253 N   0  0  0  0  0  0  0  0  0  0  0  0
    6.7298   -0.5136   -0.2940 N   0  0  0  0  0  0  0  0  0  0  0  0
    5.9396   -1.1887    0.6560 C   0  0  0  0  0  0  0  0  0  0  0  0
    5.3875   -2.2817    0.3983 O   0  0  0  0  0  0  0  0  0  0  0  0
    5.7449   -0.6032    2.0100 C   0  0  2  0  0  0  0  0  0  0  0  0
    6.2629   -1.5890    3.0536 C   0  0  0  0  0  0  0  0  0  0  0  0
    5.3080   -1.4346    4.2128 C   0  0  0  0  0  0  0  0  0  0  0  0
    4.5307   -0.1724    3.9036 C   0  0  0  0  0  0  0  0  0  0  0  0
    4.4243   -0.3382    2.4358 N   0  0  0  0  0  0  0  0  0  0  0  0
    3.1978   -0.1755    1.6917 C   0  0  0  0  0  0  0  0  0  0  0  0
    3.2982   -0.3374    0.4396 O   0  0  0  0  0  0  0  0  0  0  0  0
    1.9339    0.1686    2.3728 C   0  0  2  0  0  0  0  0  0  0  0  0
    1.2516   -0.9355    3.0994 C   0  0  0  0  0  0  0  0  0  0  0  0
    0.9523   -2.4120    2.1013 S   0  0  0  0  0  0  0  0  0  0  0  0
   -0.2970   -2.2042    0.4848 S   0  0  0  0  0  0  0  0  0  0  0  0
   -2.0210   -2.4751    0.6327 C   0  0  0  0  0  0  0  0  0  0  0  0
   -2.4898   -3.9003    0.9226 C   0  0  2  0  0  0  0  0  0  0  0  0
   -1.8513   -4.7796   -0.1024 N   0  0  0  0  0  0  0  0  0  0  0  0
   -3.9144   -3.8865    0.4708 C   0  0  0  0  0  0  0  0  0  0  0  0
   -4.1584   -4.4269   -0.6267 O   0  0  0  0  0  0  0  0  0  0  0  0
   -5.0172   -3.3217    1.1379 N   0  0  0  0  0  0  0  0  0  0  0  0
   -6.3015   -3.4169    0.3615 C   0  0  0  0  0  0  0  0  0  0  0  0
   -6.7280   -4.7801    0.0579 C   0  0  0  0  0  0  0  0  0  0  0  0
   -7.9207   -4.5735    1.0090 C   0  0  0  0  0  0  0  0  0  0  0  0
   -7.5264   -3.1203    1.1249 C   0  0  0  0  0  0  0  0  0  0  0  0
   -5.9815   -2.4791   -0.7870 C   0  0  0  0  0  0  0  0  0  0  0  0
   -5.6592   -2.8197   -1.9203 O   0  0  0  0  0  0  0  0  0  0  0  0
   -6.0721   -1.0918   -0.5142 N   0  0  0  0  0  0  0  0  0  0  0  0
   -5.5447   -0.0254   -1.2846 C   0  0  2  0  0  0  0  0  0  0  0  0
   -5.1755    1.1273   -0.4308 C   0  0  0  0  0  0  0  0  0  0  0  0
   -6.0868    1.8685   -0.0349 O   0  0  0  0  0  0  0  0  0  0  0  0
   -3.8607    1.4573   -0.0143 N   0  0  0  0  0  0  0  0  0  0  0  0
   -3.7384    2.6379    0.8310 C   0  0  2  0  0  0  0  0  0  0  0  0
   -2.4215    3.2015    1.0077 C   0  0  0  0  0  0  0  0  0  0  0  0
   -2.2949    4.2823    1.5907 O   0  0  0  0  0  0  0  0  0  0  0  0
   -1.2023    2.5942    0.5625 N   0  0  0  0  0  0  0  0  0  0  0  0
    0.1231    3.0995    0.7026 C   0  0  2  0  0  0  0  0  0  0  0  0
    1.0756    2.2387    1.3508 C   0  0  0  0  0  0  0  0  0  0  0  0
    2.1353    2.6960    1.8164 O   0  0  0  0  0  0  0  0  0  0  0  0
    0.9451    0.8047    1.5241 N   0  0  0  0  0  0  0  0  0  0  0  0
    0.2768    4.4941    1.2845 C   0  0  0  0  0  0  0  0  0  0  0  0
   -0.3028    5.5649    0.4773 C   0  0  0  0  0  0  0  0  0  0  0  0
   -0.8084    5.3757   -0.6914 O   0  0  0  0  0  0  0  0  0  0  0  0
   -0.3487    6.9035    0.9365 N   0  0  0  0  0  0  0  0  0  0  0  0
   -4.2213    2.2407    2.2547 C   0  0  0  0  0  0  0  0  0  0  0  0
   -4.1503    3.3751    3.1865 C   0  0  0  0  0  0  0  0  0  0  0  0
   -3.1874    3.6808    3.9081 O   0  0  0  0  0  0  0  0  0  0  0  0
   -5.3159    4.2136    3.2711 N   0  0  0  0  0  0  0  0  0  0  0  0
   -6.3826    0.5589   -2.3833 C   0  0  2  0  0  0  0  0  0  0  0  0
   -6.8064   -0.3520   -3.4670 C   0  0  0  0  0  0  0  0  0  0  0  0
   -7.5900    0.4779   -4.4928 C   0  0  0  0  0  0  0  0  0  0  0  0
   -5.5285    1.6805   -2.9829 C   0  0  0  0  0  0  0  0  0  0  0  0
    7.0109   -5.1322   -3.2844 H   0  0  0  0  0  0  0  0  0  0  0  0
    6.9305   -4.1332   -1.8650 H   0  0  0  0  0  0  0  0  0  0  0  0
    7.3153   -3.4709   -4.6917 H   0  0  0  0  0  0  0  0  0  0  0  0
    8.1585   -2.8519   -3.2600 H   0  0  0  0  0  0  0  0  0  0  0  0
    6.4169   -1.1959   -4.4464 H   0  0  0  0  0  0  0  0  0  0  0  0
    5.2062   -2.4220   -4.0555 H   0  0  0  0  0  0  0  0  0  0  0  0
    5.3425   -2.2000   -1.7887 H   0  0  0  0  0  0  0  0  0  0  0  0
    5.1197   -0.5540   -2.5031 H   0  0  0  0  0  0  0  0  0  0  0  0
    7.6802   -1.8539   -1.5928 H   0  0  0  0  0  0  0  0  0  0  0  0
    7.5139    1.8702   -1.1686 H   0  0  0  0  0  0  0  0  0  0  0  0
    9.6006    2.2127   -3.1699 H   0  0  0  0  0  0  0  0  0  0  0  0
    7.9737    2.6074   -3.9224 H   0  0  0  0  0  0  0  0  0  0  0  0
    8.4465    4.5775   -0.2676 H   0  0  0  0  0  0  0  0  0  0  0  0
    6.9802    3.7243   -0.7650 H   0  0  0  0  0  0  0  0  0  0  0  0
    7.1329    0.4305    0.0533 H   0  0  0  0  0  0  0  0  0  0  0  0
    6.3666    0.2978    2.0927 H   0  0  0  0  0  0  0  0  0  0  0  0
    7.2771   -1.3155    3.3558 H   0  0  0  0  0  0  0  0  0  0  0  0
    6.1769   -2.6507    2.6847 H   0  0  0  0  0  0  0  0  0  0  0  0
    5.8110   -1.3849    5.1847 H   0  0  0  0  0  0  0  0  0  0  0  0
    4.5630   -2.2729    4.2146 H   0  0  0  0  0  0  0  0  0  0  0  0
    3.6075   -0.0712    4.4224 H   0  0  0  0  0  0  0  0  0  0  0  0
    5.2025    0.7336    3.9989 H   0  0  0  0  0  0  0  0  0  0  0  0
    2.2856    0.9215    3.1614 H   0  0  0  0  0  0  0  0  0  0  0  0
    1.6796   -1.2336    4.0776 H   0  0  0  0  0  0  0  0  0  0  0  0
    0.2087   -0.5797    3.3950 H   0  0  0  0  0  0  0  0  0  0  0  0
   -2.5473   -2.1292   -0.2871 H   0  0  0  0  0  0  0  0  0  0  0  0
   -2.4046   -1.8665    1.4959 H   0  0  0  0  0  0  0  0  0  0  0  0
   -2.3516   -4.2320    1.9238 H   0  0  0  0  0  0  0  0  0  0  0  0
   -0.8795   -4.9383    0.1897 H   0  0  0  0  0  0  0  0  0  0  0  0
   -1.8399   -4.2289   -1.0018 H   0  0  0  0  0  0  0  0  0  0  0  0
   -4.9143   -2.9144    2.0314 H   0  0  0  0  0  0  0  0  0  0  0  0
   -5.9957   -5.5459    0.4304 H   0  0  0  0  0  0  0  0  0  0  0  0
   -7.0590   -4.9889   -1.0026 H   0  0  0  0  0  0  0  0  0  0  0  0
   -8.8621   -4.7656    0.4715 H   0  0  0  0  0  0  0  0  0  0  0  0
   -7.7837   -5.0880    1.9867 H   0  0  0  0  0  0  0  0  0  0  0  0
   -8.2545   -2.5000    0.5317 H   0  0  0  0  0  0  0  0  0  0  0  0
   -7.4171   -2.7594    2.1713 H   0  0  0  0  0  0  0  0  0  0  0  0
   -6.6034   -0.8480    0.3554 H   0  0  0  0  0  0  0  0  0  0  0  0
   -4.6374   -0.4302   -1.8188 H   0  0  0  0  0  0  0  0  0  0  0  0
   -3.1203    0.8516   -0.3296 H   0  0  0  0  0  0  0  0  0  0  0  0
   -4.5226    3.3435    0.5226 H   0  0  0  0  0  0  0  0  0  0  0  0
   -1.3424    1.6885    0.0933 H   0  0  0  0  0  0  0  0  0  0  0  0
    0.4213    3.3441   -0.4013 H   0  0  0  0  0  0  0  0  0  0  0  0
    0.1829    0.3888    1.0233 H   0  0  0  0  0  0  0  0  0  0  0  0
    1.3866    4.6664    1.4490 H   0  0  0  0  0  0  0  0  0  0  0  0
   -0.1416    4.4757    2.3061 H   0  0  0  0  0  0  0  0  0  0  0  0
   -1.0004    7.2363    1.6878 H   0  0  0  0  0  0  0  0  0  0  0  0
    0.2849    7.6370    0.5245 H   0  0  0  0  0  0  0  0  0  0  0  0
   -5.2726    1.8814    2.2292 H   0  0  0  0  0  0  0  0  0  0  0  0
   -3.5498    1.4475    2.5936 H   0  0  0  0  0  0  0  0  0  0  0  0
   -6.1910    3.8574    3.7193 H   0  0  0  0  0  0  0  0  0  0  0  0
   -5.2039    5.1651    2.8623 H   0  0  0  0  0  0  0  0  0  0  0  0
   -7.2769    1.0817   -1.9748 H   0  0  0  0  0  0  0  0  0  0  0  0
   -5.9777   -0.8304   -4.0171 H   0  0  0  0  0  0  0  0  0  0  0  0
   -7.5205   -1.1563   -3.1679 H   0  0  0  0  0  0  0  0  0  0  0  0
   -8.0640    1.3704   -4.0256 H   0  0  0  0  0  0  0  0  0  0  0  0
   -8.3819   -0.0921   -5.0017 H   0  0  0  0  0  0  0  0  0  0  0  0
   -6.8847    0.8570   -5.2738 H   0  0  0  0  0  0  0  0  0  0  0  0
   -4.4948    1.2528   -3.0319 H   0  0  0  0  0  0  0  0  0  0  0  0
   -5.4343    2.5178   -2.2472 H   0  0  0  0  0  0  0  0  0  0  0  0
   -5.8174    1.9889   -3.9788 H   0  0  0  0  0  0  0  0  0  0  0  0
  1  2  1  0
  2  3  1  0
  3  4  1  0
  4  5  1  0
  5  6  1  0
  6  7  2  0
  6  8  1  0
  8  9  1  0
  9 10  1  0
 10 11  2  0
 10 12  1  0
  5 13  1  0
 13 14  1  0
 14 15  2  0
 14 16  1  0
 16 17  1  0
 17 18  1  0
 18 19  1  0
 19 20  1  0
 20 21  1  0
 21 22  2  0
 21 23  1  0
 23 24  1  0
 24 25  1  0
 25 26  1  0
 26 27  1  0
 27 28  1  0
 28 29  1  0
 28 30  1  0
 30 31  2  0
 30 32  1  0
 32 33  1  0
 33 34  1  0
 34 35  1  0
 35 36  1  0
 33 37  1  0
 37 38  2  0
 37 39  1  0
 39 40  1  0
 40 41  1  0
 41 42  2  0
 41 43  1  0
 43 44  1  0
 44 45  1  0
 45 46  2  0
 45 47  1  0
 47 48  1  0
 48 49  1  0
 49 50  2  0
 49 51  1  0
 48 52  1  0
 52 53  1  0
 53 54  2  0
 53 55  1  0
 44 56  1  0
 56 57  1  0
 57 58  2  0
 57 59  1  0
 40 60  1  0
 60 61  1  0
 61 62  1  0
 60 63  1  0
 20 16  1  0
 51 23  1  0
 36 33  1  0
  1 64  1  0
  1 65  1  0
  2 66  1  0
  2 67  1  0
  3 68  1  0
  3 69  1  0
  4 70  1  0
  4 71  1  0
  5 72  1  1
  8 73  1  0
  9 74  1  0
  9 75  1  0
 12 76  1  0
 12 77  1  0
 13 78  1  0
 16 79  1  6
 17 80  1  0
 17 81  1  0
 18 82  1  0
 18 83  1  0
 19 84  1  0
 19 85  1  0
 23 86  1  1
 24 87  1  0
 24 88  1  0
 27 89  1  0
 27 90  1  0
 28 91  1  1
 29 92  1  0
 29 93  1  0
 32 94  1  0
 34 95  1  0
 34 96  1  0
 35 97  1  0
 35 98  1  0
 36 99  1  0
 36100  1  0
 39101  1  0
 40102  1  6
 43103  1  0
 44104  1  6
 47105  1  0
 48106  1  6
 51107  1  0
 52108  1  0
 52109  1  0
 55110  1  0
 55111  1  0
 56112  1  0
 56113  1  0
 59114  1  0
 59115  1  0
 60116  1  1
 61117  1  0
 61118  1  0
 62119  1  0
 62120  1  0
 62121  1  0
 63122  1  0
 63123  1  0
 63124  1  0
M  END
>  <Ligand ID>  (1) 
LIG0001625

>  <Ligand>  (1) 
CHEMBL1817766

>  <SMILES>  (1) 
NCCC[C@@H](C(=O)NCC(=O)N)NC(=O)[C@@H]1CCCN1C(=O)[C@@H]1CSSC[C@H](N)C(=O)NC2(CCC2)C(=O)N[C@H](C(=O)N[C@H](C(=O)N[C@H](C(=O)N1)CC(=O)N)CC(=O)N)[C@H](CC)C

>  <CID>  (1) 
53362854.0

>  <ChEMBL ID>  (1) 
nan

>  <InChiKey>  (1) 
SVTIWZYXMBNYGF-YKRQYRESSA-N

>  <InChi>  (1) 
InChI=1S/C37H61N13O11S2/c1-3-18(2)28-34(59)46-22(14-26(41)52)31(56)45-21(13-25(40)51)32(57)47-23(17-63-62-16-19(39)29(54)49-37(9-6-10-37)36(61)48-28)35(60)50-12-5-8-24(50)33(58)44-20(7-4-11-38)30(55)43-15-27(42)53/h18-24,28H,3-17,38-39H2,1-2H3,(H2,40,51)(H2,41,52)(H2,42,53)(H,43,55)(H,44,58)(H,45,56)(H,46,59)(H,47,57)(H,48,61)(H,49,54)/t18-,19-,20-,21-,22-,23-,24-,28-/m0/s1

>  <IUPAC Name>  (1) 
(2S)-N-[(2S)-5-amino-1-[(2-amino-2-oxoethyl)amino]-1-oxopentan-2-yl]-1-[(7R,12R,15S,18S,21S)-7-amino-15,18-bis(2-amino-2-oxoethyl)-21-[(2S)-butan-2-yl]-6,14,17,20,23-pentaoxo-9,10-dithia-5,13,16,19,22-pentazaspiro[3.19]tricosane-12-carbonyl]pyrrolidine-2-carboxamide

$$$$
