
     RDKit          3D

 21 21  0  0  0  0  0  0  0  0999 V2000
    3.7456    0.7671    0.1690 C   0  0  0  0  0  0  0  0  0  0  0  0
    2.9786   -0.3401   -0.2127 O   0  0  0  0  0  0  0  0  0  0  0  0
    1.5899   -0.3339   -0.2075 C   0  0  0  0  0  0  0  0  0  0  0  0
    0.9477   -1.4783   -0.6024 C   0  0  0  0  0  0  0  0  0  0  0  0
   -0.4365   -1.5615   -0.6282 C   0  0  0  0  0  0  0  0  0  0  0  0
   -1.1952   -0.4727   -0.2496 C   0  0  0  0  0  0  0  0  0  0  0  0
   -0.5500    0.6728    0.1457 C   0  0  0  0  0  0  0  0  0  0  0  0
    0.8386    0.7592    0.1726 C   0  0  0  0  0  0  0  0  0  0  0  0
   -2.6399   -0.6054   -0.2923 C   0  0  0  0  0  0  0  0  0  0  0  0
   -3.1230   -1.7017   -0.6709 O   0  0  0  0  0  0  0  0  0  0  0  0
   -3.5636    0.4926    0.0899 C   0  0  0  0  0  0  0  0  0  0  0  0
    3.9375    1.4231   -0.7299 H   0  0  0  0  0  0  0  0  0  0  0  0
    4.7594    0.4231    0.4652 H   0  0  0  0  0  0  0  0  0  0  0  0
    3.2777    1.3428    0.9784 H   0  0  0  0  0  0  0  0  0  0  0  0
    1.5230   -2.3559   -0.9076 H   0  0  0  0  0  0  0  0  0  0  0  0
   -0.8879   -2.4959   -0.9508 H   0  0  0  0  0  0  0  0  0  0  0  0
   -1.1253    1.5374    0.4463 H   0  0  0  0  0  0  0  0  0  0  0  0
    1.3241    1.6599    0.4834 H   0  0  0  0  0  0  0  0  0  0  0  0
   -4.5123    0.4187   -0.4939 H   0  0  0  0  0  0  0  0  0  0  0  0
   -3.1182    1.4846   -0.0740 H   0  0  0  0  0  0  0  0  0  0  0  0
   -3.7701    0.3643    1.1792 H   0  0  0  0  0  0  0  0  0  0  0  0
  1  2  1  0
  2  3  1  0
  3  4  2  0
  4  5  1  0
  5  6  2  0
  6  7  1  0
  7  8  2  0
  6  9  1  0
  9 10  2  0
  9 11  1  0
  8  3  1  0
  1 12  1  0
  1 13  1  0
  1 14  1  0
  4 15  1  0
  5 16  1  0
  7 17  1  0
  8 18  1  0
 11 19  1  0
 11 20  1  0
 11 21  1  0
M  END
>  <Ligand ID>  (1) 
LIG0002085

>  <Ligand>  (1) 
4-Acetylanisole

>  <SMILES>  (1) 
COc1ccc(cc1)C(=O)C

>  <CID>  (1) 
7476.0

>  <ChEMBL ID>  (1) 
nan

>  <InChiKey>  (1) 
NTPLXRHDUXRPNE-UHFFFAOYSA-N

>  <InChi>  (1) 
InChI=1S/C9H10O2/c1-7(10)8-3-5-9(11-2)6-4-8/h3-6H,1-2H3

>  <IUPAC Name>  (1) 
1-(4-methoxyphenyl)ethanone

$$$$
