
     RDKit          3D

 55 57  0  0  0  0  0  0  0  0999 V2000
   -6.5699   -1.3987   -2.0588 C   0  0  0  0  0  0  0  0  0  0  0  0
   -6.8208   -0.5358   -0.9914 O   0  0  0  0  0  0  0  0  0  0  0  0
   -6.0956   -0.4479    0.1752 C   0  0  0  0  0  0  0  0  0  0  0  0
   -4.9924   -1.2130    0.4710 C   0  0  0  0  0  0  0  0  0  0  0  0
   -4.2883   -1.0954    1.6592 C   0  0  0  0  0  0  0  0  0  0  0  0
   -4.6922   -0.1778    2.6026 C   0  0  0  0  0  0  0  0  0  0  0  0
   -5.8024    0.5866    2.2948 C   0  0  0  0  0  0  0  0  0  0  0  0
   -6.5008    0.4696    1.1152 C   0  0  0  0  0  0  0  0  0  0  0  0
   -4.0503    0.0444    3.9022 C   0  0  0  0  0  0  0  0  0  0  0  0
   -2.8347    1.3536    3.9916 S   0  0  0  0  0  0  0  0  0  0  0  0
   -1.3546    1.0572    3.0270 C   0  0  0  0  0  0  0  0  0  0  0  0
   -1.5187    1.1650    1.5771 C   0  0  0  0  0  0  0  0  0  0  0  0
   -2.6574    1.5363    1.1502 O   0  0  0  0  0  0  0  0  0  0  0  0
   -0.5031    0.8898    0.5831 C   0  0  0  0  0  0  0  0  0  0  0  0
   -0.6821    1.0235   -0.7996 C   0  0  0  0  0  0  0  0  0  0  0  0
    0.4917    0.6953   -1.4281 C   0  0  0  0  0  0  0  0  0  0  0  0
    1.3979    0.3615   -0.4957 N   0  0  0  0  0  0  0  0  0  0  0  0
    0.7987    0.4773    0.7270 C   0  0  0  0  0  0  0  0  0  0  0  0
    1.5265    0.1755    1.9778 C   0  0  0  0  0  0  0  0  0  0  0  0
    2.7367   -0.0313   -0.7435 C   0  0  0  0  0  0  0  0  0  0  0  0
    3.2844   -1.2145   -0.3010 C   0  0  0  0  0  0  0  0  0  0  0  0
    4.6199   -1.5162   -0.5902 C   0  0  0  0  0  0  0  0  0  0  0  0
    5.4189   -0.6536   -1.3161 C   0  0  0  0  0  0  0  0  0  0  0  0
    4.8564    0.5305   -1.7540 C   0  0  0  0  0  0  0  0  0  0  0  0
    3.5267    0.8446   -1.4733 C   0  0  0  0  0  0  0  0  0  0  0  0
    6.8105   -1.0007   -1.5955 C   0  0  0  0  0  0  0  0  0  0  0  0
    7.2670   -2.0900   -1.1714 O   0  0  0  0  0  0  0  0  0  0  0  0
    7.6079   -0.1450   -2.3126 O   0  0  0  0  0  0  0  0  0  0  0  0
    8.9614   -0.3708   -2.6427 C   0  0  0  0  0  0  0  0  0  0  0  0
    0.7877    0.6912   -2.8900 C   0  0  0  0  0  0  0  0  0  0  0  0
   -5.4934   -1.5810   -2.2670 H   0  0  0  0  0  0  0  0  0  0  0  0
   -6.9585   -0.8791   -2.9816 H   0  0  0  0  0  0  0  0  0  0  0  0
   -7.1633   -2.3491   -1.9675 H   0  0  0  0  0  0  0  0  0  0  0  0
   -4.6812   -1.9363   -0.2833 H   0  0  0  0  0  0  0  0  0  0  0  0
   -3.4309   -1.6948    1.8784 H   0  0  0  0  0  0  0  0  0  0  0  0
   -6.1631    1.3275    3.0097 H   0  0  0  0  0  0  0  0  0  0  0  0
   -7.3544    1.0846    0.9260 H   0  0  0  0  0  0  0  0  0  0  0  0
   -4.8371    0.1695    4.6938 H   0  0  0  0  0  0  0  0  0  0  0  0
   -3.5512   -0.9516    4.1540 H   0  0  0  0  0  0  0  0  0  0  0  0
   -0.6140    1.8511    3.3484 H   0  0  0  0  0  0  0  0  0  0  0  0
   -0.9862    0.0441    3.3258 H   0  0  0  0  0  0  0  0  0  0  0  0
   -1.5776    1.3289   -1.3036 H   0  0  0  0  0  0  0  0  0  0  0  0
    1.0865   -0.6900    2.5487 H   0  0  0  0  0  0  0  0  0  0  0  0
    1.5141    1.0304    2.6793 H   0  0  0  0  0  0  0  0  0  0  0  0
    2.6121   -0.0091    1.7915 H   0  0  0  0  0  0  0  0  0  0  0  0
    2.6568   -1.8864    0.2676 H   0  0  0  0  0  0  0  0  0  0  0  0
    5.0643   -2.4586   -0.2388 H   0  0  0  0  0  0  0  0  0  0  0  0
    5.4826    1.2016   -2.3200 H   0  0  0  0  0  0  0  0  0  0  0  0
    3.1405    1.7945   -1.8469 H   0  0  0  0  0  0  0  0  0  0  0  0
    9.3435    0.5527   -3.1405 H   0  0  0  0  0  0  0  0  0  0  0  0
    9.6050   -0.5150   -1.7610 H   0  0  0  0  0  0  0  0  0  0  0  0
    9.1109   -1.1803   -3.3566 H   0  0  0  0  0  0  0  0  0  0  0  0
    0.6668    1.7255   -3.3185 H   0  0  0  0  0  0  0  0  0  0  0  0
    1.7635    0.2426   -3.1110 H   0  0  0  0  0  0  0  0  0  0  0  0
    0.0351    0.0701   -3.4172 H   0  0  0  0  0  0  0  0  0  0  0  0
  1  2  1  0
  2  3  1  0
  3  4  2  0
  4  5  1  0
  5  6  2  0
  6  7  1  0
  7  8  2  0
  6  9  1  0
  9 10  1  0
 10 11  1  0
 11 12  1  0
 12 13  2  0
 12 14  1  0
 14 15  1  0
 15 16  2  0
 16 17  1  0
 17 18  1  0
 18 19  1  0
 17 20  1  0
 20 21  2  0
 21 22  1  0
 22 23  2  0
 23 24  1  0
 24 25  2  0
 23 26  1  0
 26 27  2  0
 26 28  1  0
 28 29  1  0
 16 30  1  0
  8  3  1  0
 18 14  2  0
 25 20  1  0
  1 31  1  0
  1 32  1  0
  1 33  1  0
  4 34  1  0
  5 35  1  0
  7 36  1  0
  8 37  1  0
  9 38  1  0
  9 39  1  0
 11 40  1  0
 11 41  1  0
 15 42  1  0
 19 43  1  0
 19 44  1  0
 19 45  1  0
 21 46  1  0
 22 47  1  0
 24 48  1  0
 25 49  1  0
 29 50  1  0
 29 51  1  0
 29 52  1  0
 30 53  1  0
 30 54  1  0
 30 55  1  0
M  END
>  <Ligand ID>  (1) 
LIG0003722

>  <Ligand>  (1) 
CHEMBL3560239

>  <SMILES>  (1) 
COc1ccc(cc1)CSCC(=O)c1cc(n(c1C)c1ccc(cc1)C(=O)OC)C

>  <CID>  (1) 
73058498.0

>  <ChEMBL ID>  (1) 
nan

>  <InChiKey>  (1) 
MGZAYXLHYDPOOC-UHFFFAOYSA-N

>  <InChi>  (1) 
InChI=1S/C24H25NO4S/c1-16-13-22(23(26)15-30-14-18-5-11-21(28-3)12-6-18)17(2)25(16)20-9-7-19(8-10-20)24(27)29-4/h5-13H,14-15H2,1-4H3

>  <IUPAC Name>  (1) 
methyl 4-[3-[2-[(4-methoxyphenyl)methylsulfanyl]acetyl]-2,5-dimethylpyrrol-1-yl]benzoate

$$$$
