
     RDKit          3D

 34 36  0  0  0  0  0  0  0  0999 V2000
    3.4601   -2.7058   -1.8816 C   0  0  0  0  0  0  0  0  0  0  0  0
    3.5214   -1.7173   -0.7453 C   0  0  0  0  0  0  0  0  0  0  0  0
    4.6221   -1.6238    0.0665 C   0  0  0  0  0  0  0  0  0  0  0  0
    4.1421   -0.2863    1.2423 S   0  0  0  0  0  0  0  0  0  0  0  0
    2.4857   -0.0967    0.3870 C   0  0  0  0  0  0  0  0  0  0  0  0
    2.5582   -0.8855   -0.4417 N   0  0  0  0  0  0  0  0  0  0  0  0
    1.5597    0.9164    0.9157 C   0  0  0  0  0  0  0  0  0  0  0  0
    1.8764    1.7074    2.0000 C   0  0  0  0  0  0  0  0  0  0  0  0
    1.0186    2.6620    2.5069 C   0  0  0  0  0  0  0  0  0  0  0  0
   -0.2005    2.8047    1.8772 C   0  0  0  0  0  0  0  0  0  0  0  0
   -0.5135    2.0121    0.7933 C   0  0  0  0  0  0  0  0  0  0  0  0
    0.3625    1.0515    0.2920 C   0  0  0  0  0  0  0  0  0  0  0  0
    0.0592    0.2640   -0.7810 O   0  0  0  0  0  0  0  0  0  0  0  0
   -1.1110    0.2681   -1.5243 C   0  0  0  0  0  0  0  0  0  0  0  0
   -2.3430   -0.0583   -0.7763 C   0  0  0  0  0  0  0  0  0  0  0  0
   -2.4805   -0.4030    0.4773 N   0  0  0  0  0  0  0  0  0  0  0  0
   -3.8641   -0.6345    0.8046 C   0  0  0  0  0  0  0  0  0  0  0  0
   -4.5628   -0.7503   -0.5379 C   0  0  0  0  0  0  0  0  0  0  0  0
   -3.6394   -0.0386   -1.3999 N   0  0  0  0  0  0  0  0  0  0  0  0
    2.7893   -2.4143   -2.6834 H   0  0  0  0  0  0  0  0  0  0  0  0
    3.1459   -3.6662   -1.4304 H   0  0  0  0  0  0  0  0  0  0  0  0
    4.4900   -2.8125   -2.3250 H   0  0  0  0  0  0  0  0  0  0  0  0
    5.5514   -2.1245    0.1084 H   0  0  0  0  0  0  0  0  0  0  0  0
    2.8282    1.6050    2.5014 H   0  0  0  0  0  0  0  0  0  0  0  0
    1.2372    3.2896    3.3462 H   0  0  0  0  0  0  0  0  0  0  0  0
   -0.9125    3.5431    2.2377 H   0  0  0  0  0  0  0  0  0  0  0  0
   -1.4823    2.1775    0.3426 H   0  0  0  0  0  0  0  0  0  0  0  0
   -1.1886    1.2780   -1.9952 H   0  0  0  0  0  0  0  0  0  0  0  0
   -0.9899   -0.4680   -2.3502 H   0  0  0  0  0  0  0  0  0  0  0  0
   -4.2759    0.2352    1.3528 H   0  0  0  0  0  0  0  0  0  0  0  0
   -4.0184   -1.6043    1.3306 H   0  0  0  0  0  0  0  0  0  0  0  0
   -4.7427   -1.7932   -0.8480 H   0  0  0  0  0  0  0  0  0  0  0  0
   -5.5154   -0.1481   -0.5396 H   0  0  0  0  0  0  0  0  0  0  0  0
   -3.8675    0.4164   -2.3227 H   0  0  0  0  0  0  0  0  0  0  0  0
  1  2  1  0
  2  3  2  0
  3  4  1  0
  4  5  1  0
  5  6  2  0
  5  7  1  0
  7  8  2  0
  8  9  1  0
  9 10  2  0
 10 11  1  0
 11 12  2  0
 12 13  1  0
 13 14  1  0
 14 15  1  0
 15 16  2  0
 16 17  1  0
 17 18  1  0
 18 19  1  0
  6  2  1  0
 12  7  1  0
 19 15  1  0
  1 20  1  0
  1 21  1  0
  1 22  1  0
  3 23  1  0
  8 24  1  0
  9 25  1  0
 10 26  1  0
 11 27  1  0
 14 28  1  0
 14 29  1  0
 17 30  1  0
 17 31  1  0
 18 32  1  0
 18 33  1  0
 19 34  1  0
M  END
>  <Ligand ID>  (1) 
LIG0003912

>  <Ligand>  (1) 
CHEMBL344957

>  <SMILES>  (1) 
Cc1csc(n1)c1ccccc1OCC1=NCCN1

>  <CID>  (1) 
10084685.0

>  <ChEMBL ID>  (1) 
nan

>  <InChiKey>  (1) 
BWPVUBRWPURGHZ-UHFFFAOYSA-N

>  <InChi>  (1) 
InChI=1S/C14H15N3OS/c1-10-9-19-14(17-10)11-4-2-3-5-12(11)18-8-13-15-6-7-16-13/h2-5,9H,6-8H2,1H3,(H,15,16)

>  <IUPAC Name>  (1) 
2-[2-(4,5-dihydro-1H-imidazol-2-ylmethoxy)phenyl]-4-methyl-1,3-thiazole

$$$$
