
     RDKit          3D

 58 62  0  0  0  0  0  0  0  0999 V2000
   -6.4304   -2.1505    1.8158 N   0  0  0  0  0  0  0  0  0  0  0  0
   -5.3372   -1.4866    1.1879 C   0  0  0  0  0  0  0  0  0  0  0  0
   -4.0484   -1.7796    1.5204 N   0  0  0  0  0  0  0  0  0  0  0  0
   -3.0040   -1.1639    0.9393 C   0  0  0  0  0  0  0  0  0  0  0  0
   -3.2736   -0.2109   -0.0192 C   0  0  0  0  0  0  0  0  0  0  0  0
   -4.5813    0.0976   -0.3677 C   0  0  0  0  0  0  0  0  0  0  0  0
   -5.6032   -0.5490    0.2449 N   0  0  0  0  0  0  0  0  0  0  0  0
   -6.7315   -0.0720   -0.2659 N   0  0  0  0  0  0  0  0  0  0  0  0
   -6.4845    0.8561   -1.1834 C   0  0  0  0  0  0  0  0  0  0  0  0
   -5.1330    0.9681   -1.2527 N   0  0  0  0  0  0  0  0  0  0  0  0
   -7.4086    1.6362   -1.9902 C   0  0  0  0  0  0  0  0  0  0  0  0
   -7.1978    2.1760   -3.2423 C   0  0  0  0  0  0  0  0  0  0  0  0
   -8.3780    2.8297   -3.5871 C   0  0  0  0  0  0  0  0  0  0  0  0
   -9.2528    2.6532   -2.5199 C   0  0  0  0  0  0  0  0  0  0  0  0
   -8.6278    1.9459   -1.6147 O   0  0  0  0  0  0  0  0  0  0  0  0
   -1.6585   -1.5350    1.3522 C   0  0  0  0  0  0  0  0  0  0  0  0
   -1.5519   -2.5090    2.3276 C   0  0  0  0  0  0  0  0  0  0  0  0
   -0.3014   -2.9282    2.7858 C   0  0  0  0  0  0  0  0  0  0  0  0
    0.8320   -2.3310    2.2263 C   0  0  0  0  0  0  0  0  0  0  0  0
    0.7413   -1.3585    1.2529 C   0  0  0  0  0  0  0  0  0  0  0  0
   -0.5154   -0.9759    0.8309 C   0  0  0  0  0  0  0  0  0  0  0  0
    1.9435   -0.8011    0.7366 N   0  0  0  0  0  0  0  0  0  0  0  0
    3.1899   -1.2825    1.3042 C   0  0  0  0  0  0  0  0  0  0  0  0
    4.3622   -0.4249    0.9072 C   0  0  0  0  0  0  0  0  0  0  0  0
    4.4504   -0.1763   -0.4976 N   0  0  0  0  0  0  0  0  0  0  0  0
    3.2100   -0.0513   -1.1737 C   0  0  0  0  0  0  0  0  0  0  0  0
    2.0100    0.1888   -0.2921 C   0  0  0  0  0  0  0  0  0  0  0  0
    5.3373    1.3114   -0.7119 S   0  0  0  0  0  0  0  0  0  0  0  0
    5.3921    1.6951   -2.1438 O   0  0  0  0  0  0  0  0  0  0  0  0
    4.5947    2.3767    0.0417 O   0  0  0  0  0  0  0  0  0  0  0  0
    6.9758    1.0937   -0.0359 C   0  0  0  0  0  0  0  0  0  0  0  0
    7.7141    2.4001   -0.2193 C   0  0  0  0  0  0  0  0  0  0  0  0
    7.7108   -0.0120   -0.7502 C   0  0  0  0  0  0  0  0  0  0  0  0
   -7.0040   -1.7160    2.5728 H   0  0  0  0  0  0  0  0  0  0  0  0
   -6.6214   -3.1317    1.4532 H   0  0  0  0  0  0  0  0  0  0  0  0
   -2.4775    0.3004   -0.5041 H   0  0  0  0  0  0  0  0  0  0  0  0
   -6.2926    2.1001   -3.8296 H   0  0  0  0  0  0  0  0  0  0  0  0
   -8.5705    3.3694   -4.5097 H   0  0  0  0  0  0  0  0  0  0  0  0
  -10.2670    3.0334   -2.4527 H   0  0  0  0  0  0  0  0  0  0  0  0
   -2.4062   -2.9900    2.7802 H   0  0  0  0  0  0  0  0  0  0  0  0
   -0.2247   -3.6910    3.5493 H   0  0  0  0  0  0  0  0  0  0  0  0
    1.7751   -2.6978    2.6218 H   0  0  0  0  0  0  0  0  0  0  0  0
   -0.5960   -0.2144    0.0691 H   0  0  0  0  0  0  0  0  0  0  0  0
    3.0947   -1.1636    2.4062 H   0  0  0  0  0  0  0  0  0  0  0  0
    3.3175   -2.3537    1.1017 H   0  0  0  0  0  0  0  0  0  0  0  0
    5.2820   -0.9599    1.2258 H   0  0  0  0  0  0  0  0  0  0  0  0
    4.3364    0.5198    1.4790 H   0  0  0  0  0  0  0  0  0  0  0  0
    3.0049   -0.9764   -1.7478 H   0  0  0  0  0  0  0  0  0  0  0  0
    3.2430    0.7706   -1.9183 H   0  0  0  0  0  0  0  0  0  0  0  0
    2.0057    1.2154    0.1257 H   0  0  0  0  0  0  0  0  0  0  0  0
    1.1260    0.1144   -0.9636 H   0  0  0  0  0  0  0  0  0  0  0  0
    6.9292    0.8497    1.0340 H   0  0  0  0  0  0  0  0  0  0  0  0
    7.0124    3.2244   -0.4809 H   0  0  0  0  0  0  0  0  0  0  0  0
    8.2352    2.6424    0.7077 H   0  0  0  0  0  0  0  0  0  0  0  0
    8.4531    2.2673   -1.0607 H   0  0  0  0  0  0  0  0  0  0  0  0
    8.1112    0.2958   -1.7407 H   0  0  0  0  0  0  0  0  0  0  0  0
    8.5248   -0.3330   -0.0505 H   0  0  0  0  0  0  0  0  0  0  0  0
    7.0636   -0.9061   -0.8850 H   0  0  0  0  0  0  0  0  0  0  0  0
  1  2  1  0
  2  3  2  0
  3  4  1  0
  4  5  2  0
  5  6  1  0
  6  7  1  0
  7  8  1  0
  8  9  2  0
  9 10  1  0
  9 11  1  0
 11 12  2  0
 12 13  1  0
 13 14  2  0
 14 15  1  0
  4 16  1  0
 16 17  2  0
 17 18  1  0
 18 19  2  0
 19 20  1  0
 20 21  2  0
 20 22  1  0
 22 23  1  0
 23 24  1  0
 24 25  1  0
 25 26  1  0
 26 27  1  0
 25 28  1  0
 28 29  2  0
 28 30  2  0
 28 31  1  0
 31 32  1  0
 31 33  1  0
  7  2  1  0
 15 11  1  0
 21 16  1  0
 27 22  1  0
 10  6  2  0
  1 34  1  0
  1 35  1  0
  5 36  1  0
 12 37  1  0
 13 38  1  0
 14 39  1  0
 17 40  1  0
 18 41  1  0
 19 42  1  0
 21 43  1  0
 23 44  1  0
 23 45  1  0
 24 46  1  0
 24 47  1  0
 26 48  1  0
 26 49  1  0
 27 50  1  0
 27 51  1  0
 31 52  1  0
 32 53  1  0
 32 54  1  0
 32 55  1  0
 33 56  1  0
 33 57  1  0
 33 58  1  0
M  END
>  <Ligand ID>  (1) 
LIG0000914

>  <Ligand>  (1) 
CHEMBL435154

>  <SMILES>  (1) 
Nc1nc(cc2n1nc(n2)c1ccco1)c1cccc(c1)N1CCN(CC1)S(=O)(=O)C(C)C

>  <CID>  (1) 
10127804.0

>  <ChEMBL ID>  (1) 
nan

>  <InChiKey>  (1) 
YFZZDOMDUNZUPZ-UHFFFAOYSA-N

>  <InChi>  (1) 
InChI=1S/C22H25N7O3S/c1-15(2)33(30,31)28-10-8-27(9-11-28)17-6-3-5-16(13-17)18-14-20-25-21(19-7-4-12-32-19)26-29(20)22(23)24-18/h3-7,12-15H,8-11H2,1-2H3,(H2,23,24)

>  <IUPAC Name>  (1) 
2-(furan-2-yl)-7-[3-(4-propan-2-ylsulfonylpiperazin-1-yl)phenyl]-[1,2,4]triazolo[1,5-c]pyrimidin-5-amine

$$$$
