
     RDKit          3D

 94 97  0  0  0  0  0  0  0  0999 V2000
    0.6822   -2.1058    4.6661 N   0  0  0  0  0  0  0  0  0  0  0  0
    1.1850   -3.1472    3.8397 C   0  0  0  0  0  0  0  0  0  0  0  0
    0.9410   -3.0704    2.5773 N   0  0  0  0  0  0  0  0  0  0  0  0
    1.4325   -4.1019    1.7170 C   0  0  0  0  0  0  0  0  0  0  0  0
    1.0647   -3.8744    0.2914 C   0  0  0  0  0  0  0  0  0  0  0  0
    1.5994   -2.6334   -0.3500 C   0  0  0  0  0  0  0  0  0  0  0  0
    1.1927   -1.3355    0.2343 C   0  0  1  0  0  0  0  0  0  0  0  0
    1.7995   -0.1627   -0.4542 C   0  0  0  0  0  0  0  0  0  0  0  0
    1.0910    0.7847   -0.8793 O   0  0  0  0  0  0  0  0  0  0  0  0
    3.2023   -0.1548   -0.6114 N   0  0  0  0  0  0  0  0  0  0  0  0
    3.9233    0.9372   -1.2675 C   0  0  2  0  0  0  0  0  0  0  0  0
    4.5879    0.3320   -2.4708 C   0  0  0  0  0  0  0  0  0  0  0  0
    5.2604    1.1050   -3.1787 O   0  0  0  0  0  0  0  0  0  0  0  0
    4.4672   -1.0432   -2.7979 N   0  0  0  0  0  0  0  0  0  0  0  0
    4.9939    1.4552   -0.3651 C   0  0  0  0  0  0  0  0  0  0  0  0
    5.7447    2.5527   -0.9798 C   0  0  0  0  0  0  0  0  0  0  0  0
    7.0257    2.4163   -1.5102 C   0  0  0  0  0  0  0  0  0  0  0  0
    7.4268    3.6035   -1.9926 N   0  0  0  0  0  0  0  0  0  0  0  0
    6.4529    4.5178   -1.7967 C   0  0  0  0  0  0  0  0  0  0  0  0
    5.3972    3.8726   -1.1649 C   0  0  0  0  0  0  0  0  0  0  0  0
    4.2567    4.5844   -0.8435 C   0  0  0  0  0  0  0  0  0  0  0  0
    4.1845    5.9424   -1.1600 C   0  0  0  0  0  0  0  0  0  0  0  0
    5.2371    6.5709   -1.7862 C   0  0  0  0  0  0  0  0  0  0  0  0
    6.3583    5.8618   -2.0996 C   0  0  0  0  0  0  0  0  0  0  0  0
   -0.2190   -1.0837    0.2550 N   0  0  0  0  0  0  0  0  0  0  0  0
   -1.2056   -1.5522   -0.6278 C   0  0  0  0  0  0  0  0  0  0  0  0
   -1.0009   -2.2900   -1.6254 O   0  0  0  0  0  0  0  0  0  0  0  0
   -2.6456   -1.1709   -0.4118 C   0  0  2  0  0  0  0  0  0  0  0  0
   -2.7105   -0.2970    0.7418 N   0  0  0  0  0  0  0  0  0  0  0  0
   -3.0749    1.0564    0.5163 C   0  0  0  0  0  0  0  0  0  0  0  0
   -3.3427    1.5127   -0.6405 O   0  0  0  0  0  0  0  0  0  0  0  0
   -3.1736    2.0622    1.6276 C   0  0  2  0  0  0  0  0  0  0  0  0
   -3.8371    1.5066    2.8066 C   0  0  0  0  0  0  0  0  0  0  0  0
   -5.2032    1.0212    2.6613 C   0  0  0  0  0  0  0  0  0  0  0  0
   -6.0225    0.9818    1.5935 N   0  0  0  0  0  0  0  0  0  0  0  0
   -7.2072    0.4477    1.9039 C   0  0  0  0  0  0  0  0  0  0  0  0
   -7.1430    0.1380    3.2035 N   0  0  0  0  0  0  0  0  0  0  0  0
   -5.9388    0.4700    3.7070 C   0  0  0  0  0  0  0  0  0  0  0  0
   -3.5761    3.3358    1.1425 N   0  0  0  0  0  0  0  0  0  0  0  0
   -2.7477    4.4877    1.0550 C   0  0  0  0  0  0  0  0  0  0  0  0
   -1.5401    4.5057    1.4060 O   0  0  0  0  0  0  0  0  0  0  0  0
   -3.3278    5.7665    0.5155 C   0  0  0  0  0  0  0  0  0  0  0  0
   -3.5218   -2.3629   -0.2878 C   0  0  0  0  0  0  0  0  0  0  0  0
   -3.5550   -3.2723   -1.4387 C   0  0  0  0  0  0  0  0  0  0  0  0
   -2.7675   -4.3918   -1.5889 C   0  0  0  0  0  0  0  0  0  0  0  0
   -2.8329   -5.2112   -2.7084 C   0  0  0  0  0  0  0  0  0  0  0  0
   -3.7359   -4.8801   -3.7174 C   0  0  0  0  0  0  0  0  0  0  0  0
   -4.5331   -3.7607   -3.5824 C   0  0  0  0  0  0  0  0  0  0  0  0
   -4.4559   -2.9559   -2.4626 C   0  0  0  0  0  0  0  0  0  0  0  0
   -3.7861   -5.7142   -4.8310 O   0  0  0  0  0  0  0  0  0  0  0  0
    1.9099   -4.1816    4.4499 N   0  0  0  0  0  0  0  0  0  0  0  0
    1.1990   -1.7744    5.5313 H   0  0  0  0  0  0  0  0  0  0  0  0
   -0.2371   -1.6534    4.4022 H   0  0  0  0  0  0  0  0  0  0  0  0
    0.9723   -5.0599    2.0861 H   0  0  0  0  0  0  0  0  0  0  0  0
    2.5299   -4.2604    1.8546 H   0  0  0  0  0  0  0  0  0  0  0  0
   -0.0534   -3.8886    0.2093 H   0  0  0  0  0  0  0  0  0  0  0  0
    1.4847   -4.7550   -0.2897 H   0  0  0  0  0  0  0  0  0  0  0  0
    2.7153   -2.7021   -0.4977 H   0  0  0  0  0  0  0  0  0  0  0  0
    1.2285   -2.6721   -1.4180 H   0  0  0  0  0  0  0  0  0  0  0  0
    1.5643   -1.3326    1.2894 H   0  0  0  0  0  0  0  0  0  0  0  0
    3.7983   -0.9359   -0.2642 H   0  0  0  0  0  0  0  0  0  0  0  0
    3.2055    1.7089   -1.5840 H   0  0  0  0  0  0  0  0  0  0  0  0
    5.0168   -1.8065   -2.3497 H   0  0  0  0  0  0  0  0  0  0  0  0
    3.7769   -1.3285   -3.5449 H   0  0  0  0  0  0  0  0  0  0  0  0
    5.6561    0.6162   -0.0728 H   0  0  0  0  0  0  0  0  0  0  0  0
    4.5271    1.7988    0.5914 H   0  0  0  0  0  0  0  0  0  0  0  0
    7.5949    1.4775   -1.5208 H   0  0  0  0  0  0  0  0  0  0  0  0
    8.3527    3.8299   -2.4590 H   0  0  0  0  0  0  0  0  0  0  0  0
    3.4342    4.0746   -0.3503 H   0  0  0  0  0  0  0  0  0  0  0  0
    3.2982    6.5274   -0.9184 H   0  0  0  0  0  0  0  0  0  0  0  0
    5.2180    7.6331   -2.0495 H   0  0  0  0  0  0  0  0  0  0  0  0
    7.2196    6.3177   -2.5956 H   0  0  0  0  0  0  0  0  0  0  0  0
   -0.5613   -0.4561    1.0459 H   0  0  0  0  0  0  0  0  0  0  0  0
   -2.8894   -0.5417   -1.3082 H   0  0  0  0  0  0  0  0  0  0  0  0
   -2.5047   -0.6150    1.7163 H   0  0  0  0  0  0  0  0  0  0  0  0
   -2.0843    2.2144    1.9128 H   0  0  0  0  0  0  0  0  0  0  0  0
   -3.2155    0.6383    3.1522 H   0  0  0  0  0  0  0  0  0  0  0  0
   -3.7630    2.2319    3.6650 H   0  0  0  0  0  0  0  0  0  0  0  0
   -5.7579    1.3261    0.6494 H   0  0  0  0  0  0  0  0  0  0  0  0
   -8.0580    0.2933    1.2365 H   0  0  0  0  0  0  0  0  0  0  0  0
   -5.6554    0.3141    4.7317 H   0  0  0  0  0  0  0  0  0  0  0  0
   -4.5792    3.4477    0.8130 H   0  0  0  0  0  0  0  0  0  0  0  0
   -4.4287    5.6553    0.3758 H   0  0  0  0  0  0  0  0  0  0  0  0
   -2.8594    6.0498   -0.4497 H   0  0  0  0  0  0  0  0  0  0  0  0
   -3.1620    6.5833    1.2397 H   0  0  0  0  0  0  0  0  0  0  0  0
   -3.1252   -2.9862    0.5706 H   0  0  0  0  0  0  0  0  0  0  0  0
   -4.5571   -2.1100    0.0588 H   0  0  0  0  0  0  0  0  0  0  0  0
   -2.0715   -4.6556   -0.8060 H   0  0  0  0  0  0  0  0  0  0  0  0
   -2.2003   -6.0720   -2.7856 H   0  0  0  0  0  0  0  0  0  0  0  0
   -5.2381   -3.5005   -4.3706 H   0  0  0  0  0  0  0  0  0  0  0  0
   -5.1028   -2.0894   -2.4046 H   0  0  0  0  0  0  0  0  0  0  0  0
   -3.3477   -5.4759   -5.7226 H   0  0  0  0  0  0  0  0  0  0  0  0
    2.8574   -4.0011    4.8754 H   0  0  0  0  0  0  0  0  0  0  0  0
    1.4901   -5.1402    4.4742 H   0  0  0  0  0  0  0  0  0  0  0  0
  1  2  1  0
  2  3  2  3
  3  4  1  0
  4  5  1  0
  5  6  1  0
  6  7  1  0
  7  8  1  0
  8  9  2  0
  8 10  1  0
 10 11  1  0
 11 12  1  0
 12 13  2  0
 12 14  1  0
 11 15  1  0
 15 16  1  0
 16 17  2  0
 17 18  1  0
 18 19  1  0
 19 20  2  0
 20 21  1  0
 21 22  2  0
 22 23  1  0
 23 24  2  0
  7 25  1  0
 25 26  1  0
 26 27  2  0
 26 28  1  0
 28 29  1  0
 29 30  1  0
 30 31  2  0
 30 32  1  0
 32 33  1  0
 33 34  1  0
 34 35  1  0
 35 36  1  0
 36 37  2  0
 37 38  1  0
 32 39  1  0
 39 40  1  0
 40 41  2  0
 40 42  1  0
 28 43  1  0
 43 44  1  0
 44 45  2  0
 45 46  1  0
 46 47  2  0
 47 48  1  0
 48 49  2  0
 47 50  1  0
  2 51  1  0
 20 16  1  0
 38 34  2  0
 49 44  1  0
 24 19  1  0
  1 52  1  0
  1 53  1  0
  4 54  1  0
  4 55  1  0
  5 56  1  0
  5 57  1  0
  6 58  1  0
  6 59  1  0
  7 60  1  1
 10 61  1  0
 11 62  1  6
 14 63  1  0
 14 64  1  0
 15 65  1  0
 15 66  1  0
 17 67  1  0
 18 68  1  0
 21 69  1  0
 22 70  1  0
 23 71  1  0
 24 72  1  0
 25 73  1  0
 28 74  1  6
 29 75  1  0
 32 76  1  1
 33 77  1  0
 33 78  1  0
 35 79  1  0
 36 80  1  0
 38 81  1  0
 39 82  1  0
 42 83  1  0
 42 84  1  0
 42 85  1  0
 43 86  1  0
 43 87  1  0
 45 88  1  0
 46 89  1  0
 48 90  1  0
 49 91  1  0
 50 92  1  0
 51 93  1  0
 51 94  1  0
M  END
>  <Ligand ID>  (1) 
LIG0001433

>  <Ligand>  (1) 
CHEMBL105113

>  <SMILES>  (1) 
NC(=NCCC[C@@H](C(=O)N[C@H](C(=O)N)Cc1c[nH]c2c1cccc2)NC(=O)[C@H](NC(=O)[C@H](Cc1[nH]cnc1)NC(=O)C)Cc1ccc(cc1)O)N

>  <CID>  (1) 
11039787.0

>  <ChEMBL ID>  (1) 
nan

>  <InChiKey>  (1) 
FGCBZBMPOFJXID-FKWFRFQNSA-N

>  <InChi>  (1) 
InChI=1S/C34H43N11O6/c1-19(46)42-29(15-22-17-38-18-41-22)33(51)45-28(13-20-8-10-23(47)11-9-20)32(50)43-26(7-4-12-39-34(36)37)31(49)44-27(30(35)48)14-21-16-40-25-6-3-2-5-24(21)25/h2-3,5-6,8-11,16-18,26-29,40,47H,4,7,12-15H2,1H3,(H2,35,48)(H,38,41)(H,42,46)(H,43,50)(H,44,49)(H,45,51)(H4,36,37,39)/t26-,27-,28+,29-/m0/s1

>  <IUPAC Name>  (1) 
(2S)-2-[[(2R)-2-[[(2S)-2-acetamido-3-(1H-imidazol-5-yl)propanoyl]amino]-3-(4-hydroxyphenyl)propanoyl]amino]-N-[(2S)-1-amino-3-(1H-indol-3-yl)-1-oxopropan-2-yl]-5-(diaminomethylideneamino)pentanamide

$$$$
