
     RDKit          3D

 56 59  0  0  0  0  0  0  0  0999 V2000
   -3.9923    2.5375    0.3033 C   0  0  0  0  0  0  0  0  0  0  0  0
   -3.7075    1.1890   -0.2747 C   0  0  2  0  0  0  0  0  0  0  0  0
   -4.9821    0.4428   -0.6211 C   0  0  0  0  0  0  0  0  0  0  0  0
   -5.6450   -0.0942    0.5469 N   0  0  0  0  0  0  0  0  0  0  0  0
   -5.0218   -0.1166    1.8338 C   0  0  0  0  0  0  0  0  0  0  0  0
   -3.5674   -0.4148    1.6972 C   0  0  0  0  0  0  0  0  0  0  0  0
   -2.9339    0.3405    0.6338 N   0  0  0  0  0  0  0  0  0  0  0  0
   -1.5226    0.2458    0.4795 C   0  0  0  0  0  0  0  0  0  0  0  0
   -0.7920   -0.5114    1.2829 N   0  0  0  0  0  0  0  0  0  0  0  0
    0.5554   -0.5773    1.1049 C   0  0  0  0  0  0  0  0  0  0  0  0
    1.2063    0.1174    0.1127 C   0  0  0  0  0  0  0  0  0  0  0  0
    0.4063    0.9030   -0.7128 C   0  0  0  0  0  0  0  0  0  0  0  0
   -0.9079    0.9462   -0.5129 N   0  0  0  0  0  0  0  0  0  0  0  0
    2.5883    0.0394   -0.0568 O   0  0  0  0  0  0  0  0  0  0  0  0
    3.1608    0.7913   -1.1051 C   0  0  0  0  0  0  0  0  0  0  0  0
    4.6186    0.6576   -1.2196 C   0  0  0  0  0  0  0  0  0  0  0  0
    5.1837   -0.1185   -2.2119 C   0  0  0  0  0  0  0  0  0  0  0  0
    6.5725   -0.2407   -2.3138 C   0  0  0  0  0  0  0  0  0  0  0  0
    7.3898    0.4184   -1.4172 C   0  0  0  0  0  0  0  0  0  0  0  0
    6.7987    1.1870   -0.4357 C   0  0  0  0  0  0  0  0  0  0  0  0
    5.4249    1.3241   -0.3136 C   0  0  0  0  0  0  0  0  0  0  0  0
    4.8592    2.0841    0.6578 F   0  0  0  0  0  0  0  0  0  0  0  0
    8.7769    0.3393   -1.4630 O   0  0  0  0  0  0  0  0  0  0  0  0
    9.5375   -0.8969   -0.5808 S   0  0  0  0  0  0  0  0  0  0  0  0
    9.7247   -2.1354   -1.4249 O   0  0  0  0  0  0  0  0  0  0  0  0
    8.6665   -1.3081    0.5883 O   0  0  0  0  0  0  0  0  0  0  0  0
   11.0819   -0.3466    0.1004 C   0  0  0  0  0  0  0  0  0  0  0  0
   -6.9619   -0.6075    0.3616 C   0  0  0  0  0  0  0  0  0  0  0  0
   -7.5994   -0.6150   -0.8201 N   0  0  0  0  0  0  0  0  0  0  0  0
   -8.8162   -1.1545   -0.6957 N   0  0  0  0  0  0  0  0  0  0  0  0
   -8.8952   -1.4760    0.6115 C   0  0  0  0  0  0  0  0  0  0  0  0
   -7.7816   -1.1435    1.2282 O   0  0  0  0  0  0  0  0  0  0  0  0
  -10.0622   -2.1110    1.2641 C   0  0  0  0  0  0  0  0  0  0  0  0
  -10.2254   -1.5860    2.5325 F   0  0  0  0  0  0  0  0  0  0  0  0
  -11.1920   -1.7871    0.5283 F   0  0  0  0  0  0  0  0  0  0  0  0
   -9.8608   -3.4816    1.3400 F   0  0  0  0  0  0  0  0  0  0  0  0
   -5.0985    2.7163    0.4343 H   0  0  0  0  0  0  0  0  0  0  0  0
   -3.6690    3.3381   -0.3920 H   0  0  0  0  0  0  0  0  0  0  0  0
   -3.4595    2.7003    1.2532 H   0  0  0  0  0  0  0  0  0  0  0  0
   -3.1748    1.3214   -1.2418 H   0  0  0  0  0  0  0  0  0  0  0  0
   -5.6383    1.1295   -1.2154 H   0  0  0  0  0  0  0  0  0  0  0  0
   -4.6812   -0.3703   -1.3419 H   0  0  0  0  0  0  0  0  0  0  0  0
   -5.1365    0.8249    2.4179 H   0  0  0  0  0  0  0  0  0  0  0  0
   -5.4638   -0.9341    2.4575 H   0  0  0  0  0  0  0  0  0  0  0  0
   -3.4087   -1.5061    1.5302 H   0  0  0  0  0  0  0  0  0  0  0  0
   -3.0629   -0.1832    2.6565 H   0  0  0  0  0  0  0  0  0  0  0  0
    1.1071   -1.2016    1.7770 H   0  0  0  0  0  0  0  0  0  0  0  0
    0.8805    1.4588   -1.4973 H   0  0  0  0  0  0  0  0  0  0  0  0
    2.7022    0.4745   -2.0640 H   0  0  0  0  0  0  0  0  0  0  0  0
    2.9233    1.8651   -0.8751 H   0  0  0  0  0  0  0  0  0  0  0  0
    4.5390   -0.6379   -2.9181 H   0  0  0  0  0  0  0  0  0  0  0  0
    7.0348   -0.8420   -3.0811 H   0  0  0  0  0  0  0  0  0  0  0  0
    7.4128    1.7163    0.2821 H   0  0  0  0  0  0  0  0  0  0  0  0
   11.2925   -0.9900    0.9812 H   0  0  0  0  0  0  0  0  0  0  0  0
   11.8900   -0.4163   -0.6560 H   0  0  0  0  0  0  0  0  0  0  0  0
   10.9269    0.6845    0.4650 H   0  0  0  0  0  0  0  0  0  0  0  0
  1  2  1  0
  2  3  1  0
  3  4  1  0
  4  5  1  0
  5  6  1  0
  6  7  1  0
  7  8  1  0
  8  9  2  0
  9 10  1  0
 10 11  2  0
 11 12  1  0
 12 13  2  0
 11 14  1  0
 14 15  1  0
 15 16  1  0
 16 17  2  0
 17 18  1  0
 18 19  2  0
 19 20  1  0
 20 21  2  0
 21 22  1  0
 19 23  1  0
 23 24  1  0
 24 25  2  0
 24 26  2  0
 24 27  1  0
  4 28  1  0
 28 29  2  0
 29 30  1  0
 30 31  2  0
 31 32  1  0
 31 33  1  0
 33 34  1  0
 33 35  1  0
 33 36  1  0
  7  2  1  0
 13  8  1  0
 21 16  1  0
 32 28  1  0
  1 37  1  0
  1 38  1  0
  1 39  1  0
  2 40  1  6
  3 41  1  0
  3 42  1  0
  5 43  1  0
  5 44  1  0
  6 45  1  0
  6 46  1  0
 10 47  1  0
 12 48  1  0
 15 49  1  0
 15 50  1  0
 17 51  1  0
 18 52  1  0
 20 53  1  0
 27 54  1  0
 27 55  1  0
 27 56  1  0
M  END
>  <Ligand ID>  (1) 
LIG0005280

>  <Ligand>  (1) 
CHEMBL3358002

>  <SMILES>  (1) 
C[C@@H]1CN(CCN1c1ncc(cn1)OCc1ccc(cc1F)OS(=O)(=O)C)c1nnc(o1)C(F)(F)F

>  <CID>  (1) 
118722578.0

>  <ChEMBL ID>  (1) 
nan

>  <InChiKey>  (1) 
UTOPRESBQKAWRB-GFCCVEGCSA-N

>  <InChi>  (1) 
InChI=1S/C20H20F4N6O5S/c1-12-10-29(19-28-27-17(34-19)20(22,23)24)5-6-30(12)18-25-8-15(9-26-18)33-11-13-3-4-14(7-16(13)21)35-36(2,31)32/h3-4,7-9,12H,5-6,10-11H2,1-2H3/t12-/m1/s1

>  <IUPAC Name>  (1) 
[3-fluoro-4-[[2-[(2R)-2-methyl-4-[5-(trifluoromethyl)-1,3,4-oxadiazol-2-yl]piperazin-1-yl]pyrimidin-5-yl]oxymethyl]phenyl] methanesulfonate

$$$$
