
     RDKit          3D

 24 24  0  0  0  0  0  0  0  0999 V2000
    2.6705    1.5032   -1.5023 O   0  0  0  0  0  0  0  0  0  0  0  0
    2.1879    0.2532   -1.1425 C   0  0  0  0  0  0  0  0  0  0  0  0
    2.6257   -0.8209   -1.6785 O   0  0  0  0  0  0  0  0  0  0  0  0
    1.1253    0.2185   -0.0924 C   0  0  1  0  0  0  0  0  0  0  0  0
   -0.1436    0.8568   -0.6419 C   0  0  0  0  0  0  0  0  0  0  0  0
   -1.2765    0.0199   -0.1406 C   0  0  2  0  0  0  0  0  0  0  0  0
   -0.6005   -0.9937    0.7926 C   0  0  0  0  0  0  0  0  0  0  0  0
    0.7170   -1.1511    0.1831 N   0  0  0  0  0  0  0  0  0  0  0  0
    1.6322   -1.7190    1.0508 N   0  0  0  0  0  0  0  0  0  0  0  0
   -1.9564   -0.6945   -1.1842 N   0  0  0  0  0  0  0  0  0  0  0  0
   -2.2366    0.8742    0.6252 C   0  0  0  0  0  0  0  0  0  0  0  0
   -3.4622    0.9222    0.3498 O   0  0  0  0  0  0  0  0  0  0  0  0
   -1.7775    1.6465    1.6782 O   0  0  0  0  0  0  0  0  0  0  0  0
    3.5189    1.5612   -2.0333 H   0  0  0  0  0  0  0  0  0  0  0  0
    1.4836    0.7390    0.8078 H   0  0  0  0  0  0  0  0  0  0  0  0
   -0.1207    0.9771   -1.7265 H   0  0  0  0  0  0  0  0  0  0  0  0
   -0.1874    1.8764   -0.1915 H   0  0  0  0  0  0  0  0  0  0  0  0
   -1.1018   -1.9800    0.7425 H   0  0  0  0  0  0  0  0  0  0  0  0
   -0.5462   -0.6297    1.8223 H   0  0  0  0  0  0  0  0  0  0  0  0
    2.0137   -1.0747    1.7579 H   0  0  0  0  0  0  0  0  0  0  0  0
    1.2034   -2.5240    1.5544 H   0  0  0  0  0  0  0  0  0  0  0  0
   -1.3441   -0.8351   -2.0122 H   0  0  0  0  0  0  0  0  0  0  0  0
   -2.2775   -1.6134   -0.8564 H   0  0  0  0  0  0  0  0  0  0  0  0
   -2.1473    2.5882    1.8377 H   0  0  0  0  0  0  0  0  0  0  0  0
  1  2  1  0
  2  3  2  0
  2  4  1  0
  4  5  1  0
  5  6  1  0
  6  7  1  0
  7  8  1  0
  8  9  1  0
  6 10  1  6
  6 11  1  0
 11 12  2  0
 11 13  1  0
  8  4  1  0
  1 14  1  0
  4 15  1  1
  5 16  1  0
  5 17  1  0
  7 18  1  0
  7 19  1  0
  9 20  1  0
  9 21  1  0
 10 22  1  0
 10 23  1  0
 13 24  1  0
M  END
>  <Ligand ID>  (1) 
LIG0005693

>  <Ligand>  (1) 
CHEMBL297150

>  <SMILES>  (1) 
OC(=O)[C@H]1C[C@](CN1N)(N)C(=O)O

>  <CID>  (1) 
10330132.0

>  <ChEMBL ID>  (1) 
nan

>  <InChiKey>  (1) 
MJUZIVFENBZUFH-AWFVSMACSA-N

>  <InChi>  (1) 
InChI=1S/C6H11N3O4/c7-6(5(12)13)1-3(4(10)11)9(8)2-6/h3H,1-2,7-8H2,(H,10,11)(H,12,13)/t3-,6-/m1/s1

>  <IUPAC Name>  (1) 
(2R,4R)-1,4-diaminopyrrolidine-2,4-dicarboxylic acid

$$$$
