
     RDKit          3D

127129  0  0  0  0  0  0  0  0999 V2000
   11.3601   -2.5923    1.8236 N   0  0  0  0  0  0  0  0  0  0  0  0
   10.4439   -1.5563    2.2437 C   0  0  0  0  0  0  0  0  0  0  0  0
    9.8932   -0.7536    1.0833 C   0  0  0  0  0  0  0  0  0  0  0  0
    8.9760    0.2711    1.6604 C   0  0  0  0  0  0  0  0  0  0  0  0
    8.3143    1.1836    0.6945 C   0  0  1  0  0  0  0  0  0  0  0  0
    9.3425    1.9332   -0.0626 C   0  0  0  0  0  0  0  0  0  0  0  0
   10.2509    2.6055    0.5057 O   0  0  0  0  0  0  0  0  0  0  0  0
    9.3767    1.9466   -1.4973 N   0  0  0  0  0  0  0  0  0  0  0  0
   10.3804    2.6839   -2.2358 C   0  0  0  0  0  0  0  0  0  0  0  0
   11.7600    2.2721   -1.9510 C   0  0  0  0  0  0  0  0  0  0  0  0
   12.1036    1.3702   -1.1516 O   0  0  0  0  0  0  0  0  0  0  0  0
   12.8072    2.9594   -2.6448 N   0  0  0  0  0  0  0  0  0  0  0  0
    7.4251    0.5545   -0.2561 N   0  0  0  0  0  0  0  0  0  0  0  0
    6.0721    0.8995   -0.2263 C   0  0  0  0  0  0  0  0  0  0  0  0
    5.6890    1.7537    0.6418 O   0  0  0  0  0  0  0  0  0  0  0  0
    5.0114    0.3706   -1.1124 C   0  0  2  0  0  0  0  0  0  0  0  0
    5.2158    0.8474   -2.5187 C   0  0  0  0  0  0  0  0  0  0  0  0
    4.4960    2.1785   -2.6138 C   0  0  0  0  0  0  0  0  0  0  0  0
    3.7495    2.2918   -1.3003 C   0  0  0  0  0  0  0  0  0  0  0  0
    3.7157    0.9887   -0.7322 N   0  0  0  0  0  0  0  0  0  0  0  0
    2.7903    0.2810    0.0549 C   0  0  0  0  0  0  0  0  0  0  0  0
    2.9519   -0.9173    0.4397 O   0  0  0  0  0  0  0  0  0  0  0  0
    1.4760    0.8934    0.5382 C   0  0  2  0  0  0  0  0  0  0  0  0
    1.7942    2.0669    1.4290 C   0  0  0  0  0  0  0  0  0  0  0  0
    0.4228    2.8791    2.2000 S   0  0  0  0  0  0  0  0  0  0  0  0
   -0.8435    3.9788    0.9261 S   0  0  0  0  0  0  0  0  0  0  0  0
   -2.1534    2.9237    0.3206 C   0  0  0  0  0  0  0  0  0  0  0  0
   -3.2605    3.7099   -0.4148 C   0  0  2  0  0  0  0  0  0  0  0  0
   -3.8681    4.6496    0.5106 N   0  0  0  0  0  0  0  0  0  0  0  0
   -4.2771    2.6576   -0.7209 C   0  0  0  0  0  0  0  0  0  0  0  0
   -4.0270    1.8727   -1.6283 O   0  0  0  0  0  0  0  0  0  0  0  0
   -5.4956    2.5141   -0.0220 N   0  0  0  0  0  0  0  0  0  0  0  0
   -6.5389    1.5512   -0.2665 C   0  0  1  0  0  0  0  0  0  0  0  0
   -6.3753    0.8040   -1.6010 C   0  0  0  0  0  0  0  0  0  0  0  0
   -6.4464    1.7183   -2.7363 C   0  0  0  0  0  0  0  0  0  0  0  0
   -6.6741    3.0810   -2.8291 C   0  0  0  0  0  0  0  0  0  0  0  0
   -6.7083    3.6455   -4.0252 C   0  0  0  0  0  0  0  0  0  0  0  0
   -6.5198    2.8848   -5.1516 C   0  0  0  0  0  0  0  0  0  0  0  0
   -6.2634    1.1813   -4.4998 S   0  0  0  0  0  0  0  0  0  0  0  0
   -6.7240    0.6223    0.8425 C   0  0  0  0  0  0  0  0  0  0  0  0
   -6.1056    0.7916    1.9003 O   0  0  0  0  0  0  0  0  0  0  0  0
   -7.5919   -0.5316    0.8306 N   0  0  0  0  0  0  0  0  0  0  0  0
   -7.6561   -1.3851    1.9880 C   0  0  2  0  0  0  0  0  0  0  0  0
   -6.5117   -2.4070    1.8418 C   0  0  0  0  0  0  0  0  0  0  0  0
   -6.3569   -3.3432    2.6112 O   0  0  0  0  0  0  0  0  0  0  0  0
   -5.5876   -2.2689    0.7793 N   0  0  0  0  0  0  0  0  0  0  0  0
   -4.4426   -3.2356    0.5926 C   0  0  2  0  0  0  0  0  0  0  0  0
   -3.2597   -2.4990    1.1129 C   0  0  0  0  0  0  0  0  0  0  0  0
   -3.5504   -1.4091    1.7245 O   0  0  0  0  0  0  0  0  0  0  0  0
   -1.8992   -2.7597    1.0586 N   0  0  0  0  0  0  0  0  0  0  0  0
   -0.9121   -1.9063    1.7530 C   0  0  2  0  0  0  0  0  0  0  0  0
   -0.2753   -0.9313    0.8217 C   0  0  0  0  0  0  0  0  0  0  0  0
   -0.5733   -0.7561   -0.3583 O   0  0  0  0  0  0  0  0  0  0  0  0
    0.7825   -0.1165    1.3177 N   0  0  0  0  0  0  0  0  0  0  0  0
    0.0986   -2.7191    2.4776 C   0  0  0  0  0  0  0  0  0  0  0  0
    0.9012   -3.6138    1.6111 C   0  0  0  0  0  0  0  0  0  0  0  0
    0.7763   -3.6913    0.3655 O   0  0  0  0  0  0  0  0  0  0  0  0
    1.8763   -4.4388    2.2221 N   0  0  0  0  0  0  0  0  0  0  0  0
   -4.4480   -3.5599   -0.8490 C   0  0  0  0  0  0  0  0  0  0  0  0
   -3.4845   -4.5730   -1.2945 C   0  0  0  0  0  0  0  0  0  0  0  0
   -2.8182   -5.3515   -0.6116 O   0  0  0  0  0  0  0  0  0  0  0  0
   -3.2901   -4.6724   -2.7295 N   0  0  0  0  0  0  0  0  0  0  0  0
   -8.9170   -2.0464    2.3333 C   0  0  2  0  0  0  0  0  0  0  0  0
   -9.5351   -3.0003    1.3890 C   0  0  0  0  0  0  0  0  0  0  0  0
   -9.9401   -2.5077    0.0436 C   0  0  0  0  0  0  0  0  0  0  0  0
   -9.9073   -0.9354    2.7312 C   0  0  0  0  0  0  0  0  0  0  0  0
   12.1073   -2.1698    1.2035 H   0  0  0  0  0  0  0  0  0  0  0  0
   11.8991   -2.8359    2.7096 H   0  0  0  0  0  0  0  0  0  0  0  0
    9.6574   -2.0261    2.8560 H   0  0  0  0  0  0  0  0  0  0  0  0
   11.0136   -0.8621    2.8941 H   0  0  0  0  0  0  0  0  0  0  0  0
    9.4351   -1.3960    0.3120 H   0  0  0  0  0  0  0  0  0  0  0  0
   10.7686   -0.2316    0.6378 H   0  0  0  0  0  0  0  0  0  0  0  0
    9.6078    0.9265    2.3227 H   0  0  0  0  0  0  0  0  0  0  0  0
    8.2479   -0.1822    2.3978 H   0  0  0  0  0  0  0  0  0  0  0  0
    7.7611    1.9392    1.2996 H   0  0  0  0  0  0  0  0  0  0  0  0
    8.6300    1.3885   -1.9668 H   0  0  0  0  0  0  0  0  0  0  0  0
   10.1262    2.5471   -3.3298 H   0  0  0  0  0  0  0  0  0  0  0  0
   10.1919    3.7643   -2.0526 H   0  0  0  0  0  0  0  0  0  0  0  0
   13.7298    3.1380   -2.1549 H   0  0  0  0  0  0  0  0  0  0  0  0
   12.7042    3.2994   -3.6244 H   0  0  0  0  0  0  0  0  0  0  0  0
    7.7434   -0.1436   -0.9623 H   0  0  0  0  0  0  0  0  0  0  0  0
    4.9345   -0.7309   -1.1195 H   0  0  0  0  0  0  0  0  0  0  0  0
    4.7248    0.1921   -3.2861 H   0  0  0  0  0  0  0  0  0  0  0  0
    6.2551    0.9638   -2.8178 H   0  0  0  0  0  0  0  0  0  0  0  0
    5.2185    3.0247   -2.6485 H   0  0  0  0  0  0  0  0  0  0  0  0
    3.8476    2.2571   -3.4928 H   0  0  0  0  0  0  0  0  0  0  0  0
    4.2405    3.0472   -0.6337 H   0  0  0  0  0  0  0  0  0  0  0  0
    2.7529    2.7160   -1.5400 H   0  0  0  0  0  0  0  0  0  0  0  0
    0.9271    1.2414   -0.3485 H   0  0  0  0  0  0  0  0  0  0  0  0
    2.3944    2.8113    0.8251 H   0  0  0  0  0  0  0  0  0  0  0  0
    2.5054    1.7345    2.2263 H   0  0  0  0  0  0  0  0  0  0  0  0
   -2.6232    2.3132    1.1254 H   0  0  0  0  0  0  0  0  0  0  0  0
   -1.7114    2.2347   -0.4330 H   0  0  0  0  0  0  0  0  0  0  0  0
   -2.8730    4.1432   -1.3243 H   0  0  0  0  0  0  0  0  0  0  0  0
   -3.0715    5.0422    1.0905 H   0  0  0  0  0  0  0  0  0  0  0  0
   -4.3507    5.4112    0.0004 H   0  0  0  0  0  0  0  0  0  0  0  0
   -5.6356    3.1878    0.7453 H   0  0  0  0  0  0  0  0  0  0  0  0
   -7.4578    2.1945   -0.4588 H   0  0  0  0  0  0  0  0  0  0  0  0
   -7.2653    0.0996   -1.6369 H   0  0  0  0  0  0  0  0  0  0  0  0
   -5.5046    0.1557   -1.5605 H   0  0  0  0  0  0  0  0  0  0  0  0
   -6.8215    3.6463   -1.8782 H   0  0  0  0  0  0  0  0  0  0  0  0
   -6.8869    4.7457   -4.1622 H   0  0  0  0  0  0  0  0  0  0  0  0
   -6.5044    3.1118   -6.1637 H   0  0  0  0  0  0  0  0  0  0  0  0
   -8.1047   -0.6331   -0.0422 H   0  0  0  0  0  0  0  0  0  0  0  0
   -7.3485   -0.7204    2.8529 H   0  0  0  0  0  0  0  0  0  0  0  0
   -5.7277   -1.4915    0.1458 H   0  0  0  0  0  0  0  0  0  0  0  0
   -4.5710   -4.1049    1.2261 H   0  0  0  0  0  0  0  0  0  0  0  0
   -1.5297   -3.5310    0.5430 H   0  0  0  0  0  0  0  0  0  0  0  0
   -1.4462   -1.2537    2.4931 H   0  0  0  0  0  0  0  0  0  0  0  0
    1.0622   -0.2576    2.2795 H   0  0  0  0  0  0  0  0  0  0  0  0
   -0.4299   -3.3506    3.2605 H   0  0  0  0  0  0  0  0  0  0  0  0
    0.7873   -2.0849    3.0451 H   0  0  0  0  0  0  0  0  0  0  0  0
    2.2711   -5.3057    1.7827 H   0  0  0  0  0  0  0  0  0  0  0  0
    2.2598   -4.2019    3.1847 H   0  0  0  0  0  0  0  0  0  0  0  0
   -5.4638   -3.9229   -1.1954 H   0  0  0  0  0  0  0  0  0  0  0  0
   -4.2797   -2.6628   -1.4999 H   0  0  0  0  0  0  0  0  0  0  0  0
   -4.0181   -5.1693   -3.3036 H   0  0  0  0  0  0  0  0  0  0  0  0
   -2.4468   -4.2599   -3.1868 H   0  0  0  0  0  0  0  0  0  0  0  0
   -8.7422   -2.5758    3.3196 H   0  0  0  0  0  0  0  0  0  0  0  0
   -8.9374   -3.9411    1.2983 H   0  0  0  0  0  0  0  0  0  0  0  0
  -10.4947   -3.3587    1.8820 H   0  0  0  0  0  0  0  0  0  0  0  0
   -9.0916   -2.6337   -0.6560 H   0  0  0  0  0  0  0  0  0  0  0  0
  -10.2640   -1.4602    0.0134 H   0  0  0  0  0  0  0  0  0  0  0  0
  -10.7339   -3.1863   -0.3898 H   0  0  0  0  0  0  0  0  0  0  0  0
   -9.3885   -0.1073    3.2500 H   0  0  0  0  0  0  0  0  0  0  0  0
  -10.4118   -0.5014    1.8436 H   0  0  0  0  0  0  0  0  0  0  0  0
  -10.6837   -1.3226    3.4234 H   0  0  0  0  0  0  0  0  0  0  0  0
  1  2  1  0
  2  3  1  0
  3  4  1  0
  4  5  1  0
  5  6  1  0
  6  7  2  0
  6  8  1  0
  8  9  1  0
  9 10  1  0
 10 11  2  0
 10 12  1  0
  5 13  1  0
 13 14  1  0
 14 15  2  0
 14 16  1  0
 16 17  1  0
 17 18  1  0
 18 19  1  0
 19 20  1  0
 20 21  1  0
 21 22  2  0
 21 23  1  0
 23 24  1  0
 24 25  1  0
 25 26  1  0
 26 27  1  0
 27 28  1  0
 28 29  1  0
 28 30  1  0
 30 31  2  0
 30 32  1  0
 32 33  1  0
 33 34  1  0
 34 35  1  0
 35 36  2  0
 36 37  1  0
 37 38  2  0
 38 39  1  0
 33 40  1  0
 40 41  2  0
 40 42  1  0
 42 43  1  0
 43 44  1  0
 44 45  2  0
 44 46  1  0
 46 47  1  0
 47 48  1  0
 48 49  2  0
 48 50  1  0
 50 51  1  0
 51 52  1  0
 52 53  2  0
 52 54  1  0
 51 55  1  0
 55 56  1  0
 56 57  2  0
 56 58  1  0
 47 59  1  0
 59 60  1  0
 60 61  2  0
 60 62  1  0
 43 63  1  0
 63 64  1  0
 64 65  1  0
 63 66  1  0
 20 16  1  0
 54 23  1  0
 39 35  1  0
  1 67  1  0
  1 68  1  0
  2 69  1  0
  2 70  1  0
  3 71  1  0
  3 72  1  0
  4 73  1  0
  4 74  1  0
  5 75  1  1
  8 76  1  0
  9 77  1  0
  9 78  1  0
 12 79  1  0
 12 80  1  0
 13 81  1  0
 16 82  1  6
 17 83  1  0
 17 84  1  0
 18 85  1  0
 18 86  1  0
 19 87  1  0
 19 88  1  0
 23 89  1  6
 24 90  1  0
 24 91  1  0
 27 92  1  0
 27 93  1  0
 28 94  1  6
 29 95  1  0
 29 96  1  0
 32 97  1  0
 33 98  1  6
 34 99  1  0
 34100  1  0
 36101  1  0
 37102  1  0
 38103  1  0
 42104  1  0
 43105  1  1
 46106  1  0
 47107  1  1
 50108  1  0
 51109  1  1
 54110  1  0
 55111  1  0
 55112  1  0
 58113  1  0
 58114  1  0
 59115  1  0
 59116  1  0
 62117  1  0
 62118  1  0
 63119  1  1
 64120  1  0
 64121  1  0
 65122  1  0
 65123  1  0
 65124  1  0
 66125  1  0
 66126  1  0
 66127  1  0
M  END
>  <Ligand ID>  (1) 
LIG0001610

>  <Ligand>  (1) 
CHEMBL1817760

>  <SMILES>  (1) 
NCCC[C@@H](C(=O)NCC(=O)N)NC(=O)[C@@H]1CCCN1C(=O)[C@@H]1CSSC[C@H](N)C(=O)N[C@@H](Cc2cccs2)C(=O)N[C@H](C(=O)N[C@H](C(=O)N[C@H](C(=O)N1)CC(=O)N)CC(=O)N)[C@H](CC)C

>  <CID>  (1) 
53362732.0

>  <ChEMBL ID>  (1) 
nan

>  <InChiKey>  (1) 
PCZKLOSRDXWXQM-DSMBUKBGSA-N

>  <InChi>  (1) 
InChI=1S/C39H61N13O11S3/c1-3-19(2)31-38(62)49-25(15-29(43)54)34(58)48-24(14-28(42)53)35(59)50-26(18-66-65-17-21(41)32(56)47-23(36(60)51-31)13-20-7-6-12-64-20)39(63)52-11-5-9-27(52)37(61)46-22(8-4-10-40)33(57)45-16-30(44)55/h6-7,12,19,21-27,31H,3-5,8-11,13-18,40-41H2,1-2H3,(H2,42,53)(H2,43,54)(H2,44,55)(H,45,57)(H,46,61)(H,47,56)(H,48,58)(H,49,62)(H,50,59)(H,51,60)/t19-,21-,22-,23-,24-,25-,26-,27-,31-/m0/s1

>  <IUPAC Name>  (1) 
(2S)-N-[(2S)-5-amino-1-[(2-amino-2-oxoethyl)amino]-1-oxopentan-2-yl]-1-[(4R,7S,10S,13S,16S,19R)-19-amino-7,10-bis(2-amino-2-oxoethyl)-13-[(2S)-butan-2-yl]-6,9,12,15,18-pentaoxo-16-(thiophen-2-ylmethyl)-1,2-dithia-5,8,11,14,17-pentazacycloicosane-4-carbonyl]pyrrolidine-2-carboxamide

$$$$
