
     RDKit          3D

 14 14  0  0  0  0  0  0  0  0999 V2000
    2.8234    1.4108   -0.0062 O   0  0  0  0  0  0  0  0  0  0  0  0
    2.3044    0.2464   -0.0832 C   0  0  0  0  0  0  0  0  0  0  0  0
    0.8567    0.0691   -0.0329 C   0  0  0  0  0  0  0  0  0  0  0  0
    0.2850   -1.1914   -0.1159 C   0  0  0  0  0  0  0  0  0  0  0  0
   -1.0844   -1.3396   -0.0666 C   0  0  0  0  0  0  0  0  0  0  0  0
   -1.8837   -0.2209    0.0664 C   0  0  0  0  0  0  0  0  0  0  0  0
   -1.3317    1.0530    0.1514 C   0  0  0  0  0  0  0  0  0  0  0  0
    0.0570    1.1732    0.0988 C   0  0  0  0  0  0  0  0  0  0  0  0
    2.9885   -0.5855   -0.1861 H   0  0  0  0  0  0  0  0  0  0  0  0
    0.9237   -2.0669   -0.2205 H   0  0  0  0  0  0  0  0  0  0  0  0
   -1.5588   -2.3020   -0.1282 H   0  0  0  0  0  0  0  0  0  0  0  0
   -2.9628   -0.3491    0.1042 H   0  0  0  0  0  0  0  0  0  0  0  0
   -1.9493    1.9412    0.2561 H   0  0  0  0  0  0  0  0  0  0  0  0
    0.5321    2.1618    0.1626 H   0  0  0  0  0  0  0  0  0  0  0  0
  1  2  2  0
  2  3  1  0
  3  4  2  0
  4  5  1  0
  5  6  2  0
  6  7  1  0
  7  8  2  0
  8  3  1  0
  2  9  1  0
  4 10  1  0
  5 11  1  0
  6 12  1  0
  7 13  1  0
  8 14  1  0
M  END
>  <Ligand ID>  (1) 
LIG0000137

>  <Ligand>  (1) 
benzaldehyde

>  <SMILES>  (1) 
O=Cc1ccccc1

>  <CID>  (1) 
240.0

>  <ChEMBL ID>  (1) 
nan

>  <InChiKey>  (1) 
HUMNYLRZRPPJDN-UHFFFAOYSA-N

>  <InChi>  (1) 
InChI=1S/C7H6O/c8-6-7-4-2-1-3-5-7/h1-6H

>  <IUPAC Name>  (1) 
benzaldehyde

$$$$
