
     RDKit          3D

105108  0  0  0  0  0  0  0  0999 V2000
   -0.7299   -1.8757   -6.9902 N   0  0  0  0  0  0  0  0  0  0  0  0
    0.1477   -1.0193   -7.7138 C   0  0  0  0  0  0  0  0  0  0  0  0
    0.4921    0.1141   -7.1969 N   0  0  0  0  0  0  0  0  0  0  0  0
   -0.0073    0.5068   -5.9009 C   0  0  0  0  0  0  0  0  0  0  0  0
    0.7144   -0.2628   -4.7735 C   0  0  0  0  0  0  0  0  0  0  0  0
    0.1619    0.1741   -3.4549 C   0  0  0  0  0  0  0  0  0  0  0  0
    0.7869   -0.5392   -2.3184 C   0  0  1  0  0  0  0  0  0  0  0  0
    2.2388   -0.3147   -2.2355 C   0  0  0  0  0  0  0  0  0  0  0  0
    3.0657   -0.4658   -3.1585 O   0  0  0  0  0  0  0  0  0  0  0  0
    2.7647    0.1201   -0.9752 N   0  0  0  0  0  0  0  0  0  0  0  0
    4.1905    0.3829   -0.7721 C   0  0  2  0  0  0  0  0  0  0  0  0
    4.8727   -0.6126    0.0416 C   0  0  0  0  0  0  0  0  0  0  0  0
    4.2773   -1.5528    0.6291 O   0  0  0  0  0  0  0  0  0  0  0  0
    6.2855   -0.5318    0.1839 N   0  0  0  0  0  0  0  0  0  0  0  0
    4.4324    1.8185   -0.4382 C   0  0  0  0  0  0  0  0  0  0  0  0
    3.7564    2.3319    0.7498 C   0  0  0  0  0  0  0  0  0  0  0  0
    2.5728    3.0872    0.6731 C   0  0  0  0  0  0  0  0  0  0  0  0
    2.1625    3.4067    1.9091 N   0  0  0  0  0  0  0  0  0  0  0  0
    3.0176    2.9000    2.8011 C   0  0  0  0  0  0  0  0  0  0  0  0
    4.0032    2.2362    2.0939 C   0  0  0  0  0  0  0  0  0  0  0  0
    5.0155    1.6239    2.7895 C   0  0  0  0  0  0  0  0  0  0  0  0
    5.0568    1.6630    4.1655 C   0  0  0  0  0  0  0  0  0  0  0  0
    4.0613    2.3311    4.8510 C   0  0  0  0  0  0  0  0  0  0  0  0
    3.0115    2.9697    4.1879 C   0  0  0  0  0  0  0  0  0  0  0  0
    0.1454   -0.2469   -1.0472 N   0  0  0  0  0  0  0  0  0  0  0  0
   -0.6165   -1.1782   -0.3151 C   0  0  0  0  0  0  0  0  0  0  0  0
   -0.7511   -2.3488   -0.7958 O   0  0  0  0  0  0  0  0  0  0  0  0
   -1.2790   -0.9205    0.9768 C   0  0  2  0  0  0  0  0  0  0  0  0
   -1.8692   -2.1942    1.4642 N   0  0  0  0  0  0  0  0  0  0  0  0
   -1.4890   -2.7526    2.7144 C   0  0  0  0  0  0  0  0  0  0  0  0
   -0.6453   -2.2347    3.4854 O   0  0  0  0  0  0  0  0  0  0  0  0
   -2.1820   -4.0450    3.0715 C   0  0  2  0  0  0  0  0  0  0  0  0
   -3.6981   -3.7977    3.1026 C   0  0  0  0  0  0  0  0  0  0  0  0
   -4.3347   -5.0903    3.4559 C   0  0  0  0  0  0  0  0  0  0  0  0
   -4.6340   -5.5803    4.6732 N   0  0  0  0  0  0  0  0  0  0  0  0
   -5.2034   -6.7852    4.5032 C   0  0  0  0  0  0  0  0  0  0  0  0
   -5.2809   -7.0911    3.1827 N   0  0  0  0  0  0  0  0  0  0  0  0
   -4.7403   -6.0353    2.5394 C   0  0  0  0  0  0  0  0  0  0  0  0
   -1.7556   -4.5803    4.3223 N   0  0  0  0  0  0  0  0  0  0  0  0
   -1.2125   -5.8962    4.3432 C   0  0  0  0  0  0  0  0  0  0  0  0
   -1.1330   -6.5360    3.2389 O   0  0  0  0  0  0  0  0  0  0  0  0
   -0.7331   -6.5694    5.5655 C   0  0  0  0  0  0  0  0  0  0  0  0
   -2.4543   -0.0101    0.7974 C   0  0  0  0  0  0  0  0  0  0  0  0
   -2.2197    1.3064    0.2388 C   0  0  0  0  0  0  0  0  0  0  0  0
   -2.3465    1.6309   -1.1170 C   0  0  0  0  0  0  0  0  0  0  0  0
   -2.1072    2.9248   -1.5578 C   0  0  0  0  0  0  0  0  0  0  0  0
   -1.7352    3.9430   -0.6819 C   0  0  0  0  0  0  0  0  0  0  0  0
   -1.6111    3.6198    0.6518 C   0  0  0  0  0  0  0  0  0  0  0  0
   -1.8474    2.3365    1.0956 C   0  0  0  0  0  0  0  0  0  0  0  0
   -1.4903    5.3195   -1.1830 C   0  0  0  0  0  0  0  0  0  0  0  0
   -1.7140    5.3729   -2.6673 C   0  0  0  0  0  0  0  0  0  0  0  0
   -2.4664    6.2278   -0.4628 C   0  0  0  0  0  0  0  0  0  0  0  0
   -0.0821    5.7297   -0.8180 C   0  0  0  0  0  0  0  0  0  0  0  0
    0.6471   -1.4012   -8.9928 N   0  0  0  0  0  0  0  0  0  0  0  0
   -1.7000   -1.6220   -6.7532 H   0  0  0  0  0  0  0  0  0  0  0  0
   -0.3218   -2.8039   -6.7049 H   0  0  0  0  0  0  0  0  0  0  0  0
    0.2171    1.5827   -5.7476 H   0  0  0  0  0  0  0  0  0  0  0  0
   -1.0867    0.3652   -5.8475 H   0  0  0  0  0  0  0  0  0  0  0  0
    0.5385   -1.3418   -5.0063 H   0  0  0  0  0  0  0  0  0  0  0  0
    1.7713   -0.0646   -4.9525 H   0  0  0  0  0  0  0  0  0  0  0  0
    0.3105    1.2823   -3.4111 H   0  0  0  0  0  0  0  0  0  0  0  0
   -0.9410   -0.0661   -3.5005 H   0  0  0  0  0  0  0  0  0  0  0  0
    0.5845   -1.6369   -2.4822 H   0  0  0  0  0  0  0  0  0  0  0  0
    2.1666    0.2730   -0.1326 H   0  0  0  0  0  0  0  0  0  0  0  0
    4.6202    0.2597   -1.8197 H   0  0  0  0  0  0  0  0  0  0  0  0
    6.8208   -1.1191    0.8634 H   0  0  0  0  0  0  0  0  0  0  0  0
    6.8666    0.1329   -0.3972 H   0  0  0  0  0  0  0  0  0  0  0  0
    4.2012    2.4197   -1.3609 H   0  0  0  0  0  0  0  0  0  0  0  0
    5.5595    1.9212   -0.3644 H   0  0  0  0  0  0  0  0  0  0  0  0
    2.0481    3.3834   -0.2242 H   0  0  0  0  0  0  0  0  0  0  0  0
    1.2883    3.9770    2.1228 H   0  0  0  0  0  0  0  0  0  0  0  0
    5.7806    1.1208    2.2590 H   0  0  0  0  0  0  0  0  0  0  0  0
    5.8642    1.1743    4.7237 H   0  0  0  0  0  0  0  0  0  0  0  0
    4.1145    2.3492    5.9443 H   0  0  0  0  0  0  0  0  0  0  0  0
    2.2265    3.4956    4.7357 H   0  0  0  0  0  0  0  0  0  0  0  0
    0.2732    0.7006   -0.6678 H   0  0  0  0  0  0  0  0  0  0  0  0
   -0.5709   -0.5853    1.7489 H   0  0  0  0  0  0  0  0  0  0  0  0
   -2.5659   -2.6307    0.8242 H   0  0  0  0  0  0  0  0  0  0  0  0
   -2.0261   -4.7210    2.2114 H   0  0  0  0  0  0  0  0  0  0  0  0
   -3.9552   -3.0047    3.8127 H   0  0  0  0  0  0  0  0  0  0  0  0
   -4.0264   -3.5042    2.0695 H   0  0  0  0  0  0  0  0  0  0  0  0
   -4.4329   -5.0653    5.5585 H   0  0  0  0  0  0  0  0  0  0  0  0
   -5.5447   -7.4064    5.3205 H   0  0  0  0  0  0  0  0  0  0  0  0
   -4.6701   -6.0045    1.4619 H   0  0  0  0  0  0  0  0  0  0  0  0
   -1.8313   -4.0401    5.2015 H   0  0  0  0  0  0  0  0  0  0  0  0
    0.3440   -6.7524    5.5864 H   0  0  0  0  0  0  0  0  0  0  0  0
   -1.1347   -6.0859    6.4678 H   0  0  0  0  0  0  0  0  0  0  0  0
   -1.2108   -7.5912    5.5518 H   0  0  0  0  0  0  0  0  0  0  0  0
   -3.0017    0.0269    1.7889 H   0  0  0  0  0  0  0  0  0  0  0  0
   -3.1853   -0.5949    0.1535 H   0  0  0  0  0  0  0  0  0  0  0  0
   -2.6359    0.8318   -1.7864 H   0  0  0  0  0  0  0  0  0  0  0  0
   -2.2157    3.1453   -2.6221 H   0  0  0  0  0  0  0  0  0  0  0  0
   -1.3231    4.3868    1.3655 H   0  0  0  0  0  0  0  0  0  0  0  0
   -1.7239    2.1712    2.1751 H   0  0  0  0  0  0  0  0  0  0  0  0
   -2.7750    5.1766   -2.8597 H   0  0  0  0  0  0  0  0  0  0  0  0
   -1.0301    4.7082   -3.2127 H   0  0  0  0  0  0  0  0  0  0  0  0
   -1.4660    6.4224   -2.9863 H   0  0  0  0  0  0  0  0  0  0  0  0
   -3.5075    5.9040   -0.7017 H   0  0  0  0  0  0  0  0  0  0  0  0
   -2.3322    6.0430    0.6354 H   0  0  0  0  0  0  0  0  0  0  0  0
   -2.2935    7.2973   -0.7195 H   0  0  0  0  0  0  0  0  0  0  0  0
    0.0633    6.7391   -1.3031 H   0  0  0  0  0  0  0  0  0  0  0  0
    0.6664    5.0472   -1.2612 H   0  0  0  0  0  0  0  0  0  0  0  0
    0.0526    5.8031    0.2637 H   0  0  0  0  0  0  0  0  0  0  0  0
   -0.0080   -1.8832   -9.6446 H   0  0  0  0  0  0  0  0  0  0  0  0
    1.6267   -1.2258   -9.3080 H   0  0  0  0  0  0  0  0  0  0  0  0
  1  2  1  0
  2  3  2  3
  3  4  1  0
  4  5  1  0
  5  6  1  0
  6  7  1  0
  7  8  1  0
  8  9  2  0
  8 10  1  0
 10 11  1  0
 11 12  1  0
 12 13  2  0
 12 14  1  0
 11 15  1  0
 15 16  1  0
 16 17  2  0
 17 18  1  0
 18 19  1  0
 19 20  2  0
 20 21  1  0
 21 22  2  0
 22 23  1  0
 23 24  2  0
  7 25  1  0
 25 26  1  0
 26 27  2  0
 26 28  1  0
 28 29  1  0
 29 30  1  0
 30 31  2  0
 30 32  1  0
 32 33  1  0
 33 34  1  0
 34 35  1  0
 35 36  1  0
 36 37  2  0
 37 38  1  0
 32 39  1  0
 39 40  1  0
 40 41  2  0
 40 42  1  0
 28 43  1  0
 43 44  1  0
 44 45  2  0
 45 46  1  0
 46 47  2  0
 47 48  1  0
 48 49  2  0
 47 50  1  0
 50 51  1  0
 50 52  1  0
 50 53  1  0
  2 54  1  0
 20 16  1  0
 38 34  2  0
 49 44  1  0
 24 19  1  0
  1 55  1  0
  1 56  1  0
  4 57  1  0
  4 58  1  0
  5 59  1  0
  5 60  1  0
  6 61  1  0
  6 62  1  0
  7 63  1  6
 10 64  1  0
 11 65  1  6
 14 66  1  0
 14 67  1  0
 15 68  1  0
 15 69  1  0
 17 70  1  0
 18 71  1  0
 21 72  1  0
 22 73  1  0
 23 74  1  0
 24 75  1  0
 25 76  1  0
 28 77  1  1
 29 78  1  0
 32 79  1  6
 33 80  1  0
 33 81  1  0
 35 82  1  0
 36 83  1  0
 38 84  1  0
 39 85  1  0
 42 86  1  0
 42 87  1  0
 42 88  1  0
 43 89  1  0
 43 90  1  0
 45 91  1  0
 46 92  1  0
 48 93  1  0
 49 94  1  0
 51 95  1  0
 51 96  1  0
 51 97  1  0
 52 98  1  0
 52 99  1  0
 52100  1  0
 53101  1  0
 53102  1  0
 53103  1  0
 54104  1  0
 54105  1  0
M  END
>  <Ligand ID>  (1) 
LIG0003300

>  <Ligand>  (1) 
CHEMBL488355

>  <SMILES>  (1) 
NC(=NCCC[C@@H](C(=O)N[C@H](C(=O)N)Cc1c[nH]c2c1cccc2)NC(=O)[C@H](NC(=O)[C@H](Cc1[nH]cnc1)NC(=O)C)Cc1ccc(cc1)C(C)(C)C)N

>  <CID>  (1) 
25108087.0

>  <ChEMBL ID>  (1) 
nan

>  <InChiKey>  (1) 
MMUWWLSBKXUHNW-IHZBLBIESA-N

>  <InChi>  (1) 
InChI=1S/C38H51N11O5/c1-22(50)46-32(18-26-20-42-21-45-26)36(54)49-31(16-23-11-13-25(14-12-23)38(2,3)4)35(53)47-29(10-7-15-43-37(40)41)34(52)48-30(33(39)51)17-24-19-44-28-9-6-5-8-27(24)28/h5-6,8-9,11-14,19-21,29-32,44H,7,10,15-18H2,1-4H3,(H2,39,51)(H,42,45)(H,46,50)(H,47,53)(H,48,52)(H,49,54)(H4,40,41,43)/t29-,30-,31+,32-/m0/s1

>  <IUPAC Name>  (1) 
(2S)-2-[[(2R)-2-[[(2S)-2-acetamido-3-(1H-imidazol-5-yl)propanoyl]amino]-3-(4-tert-butylphenyl)propanoyl]amino]-N-[(2S)-1-amino-3-(1H-indol-3-yl)-1-oxopropan-2-yl]-5-(diaminomethylideneamino)pentanamide

$$$$
