
     RDKit          3D

 47 49  0  0  0  0  0  0  0  0999 V2000
   -8.4493    3.2648   -1.3059 Cl  0  0  0  0  0  0  0  0  0  0  0  0
   -7.4442    1.9020   -0.8081 C   0  0  0  0  0  0  0  0  0  0  0  0
   -7.8996    0.6430   -1.1123 C   0  0  0  0  0  0  0  0  0  0  0  0
   -7.1307   -0.4416   -0.7340 C   0  0  0  0  0  0  0  0  0  0  0  0
   -5.9211   -0.2475   -0.0589 C   0  0  0  0  0  0  0  0  0  0  0  0
   -5.4554    1.0086    0.2499 C   0  0  0  0  0  0  0  0  0  0  0  0
   -6.2486    2.0778   -0.1421 C   0  0  0  0  0  0  0  0  0  0  0  0
   -4.2367    1.2804    0.9046 N   0  0  0  0  0  0  0  0  0  0  0  0
   -3.0074    0.6200    0.6955 C   0  0  0  0  0  0  0  0  0  0  0  0
   -1.9462    0.8754    1.5222 N   0  0  0  0  0  0  0  0  0  0  0  0
   -0.7489    0.2901    1.3513 C   0  0  0  0  0  0  0  0  0  0  0  0
   -0.4879   -0.6157    0.3315 C   0  0  0  0  0  0  0  0  0  0  0  0
   -1.5391   -0.8919   -0.5176 C   0  0  0  0  0  0  0  0  0  0  0  0
   -2.7589   -0.2756   -0.3188 C   0  0  0  0  0  0  0  0  0  0  0  0
   -1.3590   -1.8253   -1.6422 C   0  0  0  0  0  0  0  0  0  0  0  0
   -2.5799   -1.9576   -2.3177 F   0  0  0  0  0  0  0  0  0  0  0  0
   -0.9257   -3.0658   -1.3170 F   0  0  0  0  0  0  0  0  0  0  0  0
   -0.5274   -1.1830   -2.5598 F   0  0  0  0  0  0  0  0  0  0  0  0
    0.8315   -1.2241    0.2126 C   0  0  0  0  0  0  0  0  0  0  0  0
    1.3244   -1.6111   -0.8772 O   0  0  0  0  0  0  0  0  0  0  0  0
    1.6462   -1.4131    1.3704 N   0  0  0  0  0  0  0  0  0  0  0  0
    2.9502   -1.9984    1.3658 C   0  0  0  0  0  0  0  0  0  0  0  0
    4.0288   -1.1309    0.8948 C   0  0  0  0  0  0  0  0  0  0  0  0
    4.4734   -1.0353   -0.4015 C   0  0  0  0  0  0  0  0  0  0  0  0
    5.4980   -0.1941   -0.7854 C   0  0  0  0  0  0  0  0  0  0  0  0
    6.1346    0.6059    0.1408 C   0  0  0  0  0  0  0  0  0  0  0  0
    5.7076    0.5283    1.4481 C   0  0  0  0  0  0  0  0  0  0  0  0
    4.6825   -0.3152    1.8217 C   0  0  0  0  0  0  0  0  0  0  0  0
    7.2145    1.4867   -0.2846 C   0  0  0  0  0  0  0  0  0  0  0  0
    7.5069    1.4885   -1.5060 O   0  0  0  0  0  0  0  0  0  0  0  0
    7.9178    2.3117    0.6149 N   0  0  0  0  0  0  0  0  0  0  0  0
   -8.8338    0.4763   -1.6352 H   0  0  0  0  0  0  0  0  0  0  0  0
   -7.4717   -1.4548   -0.9624 H   0  0  0  0  0  0  0  0  0  0  0  0
   -5.3905   -1.1299    0.2150 H   0  0  0  0  0  0  0  0  0  0  0  0
   -5.9413    3.0931    0.0684 H   0  0  0  0  0  0  0  0  0  0  0  0
   -4.2627    2.0616    1.6249 H   0  0  0  0  0  0  0  0  0  0  0  0
    0.0200    0.5722    2.0742 H   0  0  0  0  0  0  0  0  0  0  0  0
   -3.5377   -0.5182   -1.0216 H   0  0  0  0  0  0  0  0  0  0  0  0
    1.2061   -1.0766    2.2822 H   0  0  0  0  0  0  0  0  0  0  0  0
    3.1958   -2.2875    2.4285 H   0  0  0  0  0  0  0  0  0  0  0  0
    2.9902   -2.9627    0.8102 H   0  0  0  0  0  0  0  0  0  0  0  0
    4.0192   -1.6359   -1.1654 H   0  0  0  0  0  0  0  0  0  0  0  0
    5.8101   -0.1568   -1.8197 H   0  0  0  0  0  0  0  0  0  0  0  0
    6.1705    1.1324    2.2185 H   0  0  0  0  0  0  0  0  0  0  0  0
    4.3854   -0.3374    2.8665 H   0  0  0  0  0  0  0  0  0  0  0  0
    7.6623    2.3909    1.6211 H   0  0  0  0  0  0  0  0  0  0  0  0
    8.7279    2.8764    0.2876 H   0  0  0  0  0  0  0  0  0  0  0  0
  1  2  1  0
  2  3  2  0
  3  4  1  0
  4  5  2  0
  5  6  1  0
  6  7  2  0
  6  8  1  0
  8  9  1  0
  9 10  2  0
 10 11  1  0
 11 12  2  0
 12 13  1  0
 13 14  2  0
 13 15  1  0
 15 16  1  0
 15 17  1  0
 15 18  1  0
 12 19  1  0
 19 20  2  0
 19 21  1  0
 21 22  1  0
 22 23  1  0
 23 24  2  0
 24 25  1  0
 25 26  2  0
 26 27  1  0
 27 28  2  0
 26 29  1  0
 29 30  2  0
 29 31  1  0
  7  2  1  0
 14  9  1  0
 28 23  1  0
  3 32  1  0
  4 33  1  0
  5 34  1  0
  7 35  1  0
  8 36  1  0
 11 37  1  0
 14 38  1  0
 21 39  1  0
 22 40  1  0
 22 41  1  0
 24 42  1  0
 25 43  1  0
 27 44  1  0
 28 45  1  0
 31 46  1  0
 31 47  1  0
M  END
>  <Ligand ID>  (1) 
LIG0005847

>  <Ligand>  (1) 
CHEMBL464070

>  <SMILES>  (1) 
Clc1cccc(c1)Nc1ncc(c(c1)C(F)(F)F)C(=O)NCc1ccc(cc1)C(=O)N

>  <CID>  (1) 
44570613.0

>  <ChEMBL ID>  (1) 
nan

>  <InChiKey>  (1) 
LFYKFWKQCKTBNB-UHFFFAOYSA-N

>  <InChi>  (1) 
InChI=1S/C21H16ClF3N4O2/c22-14-2-1-3-15(8-14)29-18-9-17(21(23,24)25)16(11-27-18)20(31)28-10-12-4-6-13(7-5-12)19(26)30/h1-9,11H,10H2,(H2,26,30)(H,27,29)(H,28,31)

>  <IUPAC Name>  (1) 
N-[(4-carbamoylphenyl)methyl]-6-(3-chloroanilino)-4-(trifluoromethyl)pyridine-3-carboxamide

$$$$
