
     RDKit          3D

 47 49  0  0  0  0  0  0  0  0999 V2000
   -8.8110    0.1284   -0.0334 Cl  0  0  0  0  0  0  0  0  0  0  0  0
   -7.1552   -0.0516   -0.6103 C   0  0  0  0  0  0  0  0  0  0  0  0
   -6.8595   -0.2248   -1.9446 C   0  0  0  0  0  0  0  0  0  0  0  0
   -5.5270   -0.3579   -2.3142 C   0  0  0  0  0  0  0  0  0  0  0  0
   -4.5011   -0.3192   -1.3703 C   0  0  0  0  0  0  0  0  0  0  0  0
   -4.7910   -0.1476   -0.0473 C   0  0  0  0  0  0  0  0  0  0  0  0
   -6.1290   -0.0162    0.3067 C   0  0  0  0  0  0  0  0  0  0  0  0
   -3.8029   -0.0853    1.0423 C   0  0  2  0  0  0  0  0  0  0  0  0
   -2.4191   -0.4213    0.5781 C   0  0  0  0  0  0  0  0  0  0  0  0
   -1.4230   -0.2356    1.5884 N   0  0  0  0  0  0  0  0  0  0  0  0
   -1.1785    1.1231    1.9594 C   0  0  0  0  0  0  0  0  0  0  0  0
   -0.5062    1.8910    0.8311 C   0  0  0  0  0  0  0  0  0  0  0  0
    0.8106    1.2685    0.4918 C   0  0  0  0  0  0  0  0  0  0  0  0
    0.9476    0.2746   -0.4503 C   0  0  0  0  0  0  0  0  0  0  0  0
    2.2209   -0.2386   -0.6910 C   0  0  0  0  0  0  0  0  0  0  0  0
    3.3087    0.2209   -0.0202 C   0  0  0  0  0  0  0  0  0  0  0  0
    3.1645    1.2274    0.9330 C   0  0  0  0  0  0  0  0  0  0  0  0
    1.9038    1.7677    1.2027 C   0  0  0  0  0  0  0  0  0  0  0  0
    4.6693   -0.3041   -0.2530 C   0  0  0  0  0  0  0  0  0  0  0  0
    5.0736   -1.2544   -1.0874 C   0  0  0  0  0  0  0  0  0  0  0  0
    6.3818   -1.5780   -1.1371 C   0  0  0  0  0  0  0  0  0  0  0  0
    7.2143   -0.8718   -0.2899 C   0  0  0  0  0  0  0  0  0  0  0  0
    6.1359    0.2436    0.5688 S   0  0  0  0  0  0  0  0  0  0  0  0
    8.6709   -0.9895   -0.1138 C   0  0  0  0  0  0  0  0  0  0  0  0
    9.2620   -0.2638    0.6993 O   0  0  0  0  0  0  0  0  0  0  0  0
    9.3234   -1.9157   -0.8722 O   0  0  0  0  0  0  0  0  0  0  0  0
   -4.2063   -0.8755    2.1302 O   0  0  0  0  0  0  0  0  0  0  0  0
   -7.6748   -0.2497   -2.6510 H   0  0  0  0  0  0  0  0  0  0  0  0
   -5.3132   -0.4936   -3.3708 H   0  0  0  0  0  0  0  0  0  0  0  0
   -3.4702   -0.4252   -1.6743 H   0  0  0  0  0  0  0  0  0  0  0  0
   -6.3928    0.1229    1.3612 H   0  0  0  0  0  0  0  0  0  0  0  0
   -3.7876    0.9704    1.4392 H   0  0  0  0  0  0  0  0  0  0  0  0
   -2.3369   -1.4951    0.2470 H   0  0  0  0  0  0  0  0  0  0  0  0
   -2.1690    0.2462   -0.2702 H   0  0  0  0  0  0  0  0  0  0  0  0
   -1.4288   -0.9197    2.3640 H   0  0  0  0  0  0  0  0  0  0  0  0
   -2.0760    1.6782    2.2574 H   0  0  0  0  0  0  0  0  0  0  0  0
   -0.4880    1.1788    2.8436 H   0  0  0  0  0  0  0  0  0  0  0  0
   -1.1466    1.9796   -0.0419 H   0  0  0  0  0  0  0  0  0  0  0  0
   -0.3583    2.9373    1.2086 H   0  0  0  0  0  0  0  0  0  0  0  0
    0.0861   -0.0922   -0.9848 H   0  0  0  0  0  0  0  0  0  0  0  0
    2.3552   -1.0137   -1.4202 H   0  0  0  0  0  0  0  0  0  0  0  0
    4.0146    1.5948    1.4654 H   0  0  0  0  0  0  0  0  0  0  0  0
    1.7887    2.5521    1.9446 H   0  0  0  0  0  0  0  0  0  0  0  0
    4.3376   -1.7924   -1.7526 H   0  0  0  0  0  0  0  0  0  0  0  0
    6.8194   -2.3546   -1.7978 H   0  0  0  0  0  0  0  0  0  0  0  0
   10.3419   -2.0487   -0.8623 H   0  0  0  0  0  0  0  0  0  0  0  0
   -4.8786   -0.3695    2.6513 H   0  0  0  0  0  0  0  0  0  0  0  0
  1  2  1  0
  2  3  2  0
  3  4  1  0
  4  5  2  0
  5  6  1  0
  6  7  2  0
  6  8  1  0
  8  9  1  0
  9 10  1  0
 10 11  1  0
 11 12  1  0
 12 13  1  0
 13 14  2  0
 14 15  1  0
 15 16  2  0
 16 17  1  0
 17 18  2  0
 16 19  1  0
 19 20  2  0
 20 21  1  0
 21 22  2  0
 22 23  1  0
 22 24  1  0
 24 25  2  0
 24 26  1  0
  8 27  1  0
  7  2  1  0
 18 13  1  0
 23 19  1  0
  3 28  1  0
  4 29  1  0
  5 30  1  0
  7 31  1  0
  8 32  1  1
  9 33  1  0
  9 34  1  0
 10 35  1  0
 11 36  1  0
 11 37  1  0
 12 38  1  0
 12 39  1  0
 14 40  1  0
 15 41  1  0
 17 42  1  0
 18 43  1  0
 20 44  1  0
 21 45  1  0
 26 46  1  0
 27 47  1  0
M  END
>  <Ligand ID>  (1) 
LIG0005825

>  <Ligand>  (1) 
CHEMBL271765

>  <SMILES>  (1) 
Clc1cccc(c1)[C@H](CNCCc1ccc(cc1)c1ccc(s1)C(=O)O)O

>  <CID>  (1) 
24822469.0

>  <ChEMBL ID>  (1) 
nan

>  <InChiKey>  (1) 
CHSPXANSXHDQCC-SFHVURJKSA-N

>  <InChi>  (1) 
InChI=1S/C21H20ClNO3S/c22-17-3-1-2-16(12-17)18(24)13-23-11-10-14-4-6-15(7-5-14)19-8-9-20(27-19)21(25)26/h1-9,12,18,23-24H,10-11,13H2,(H,25,26)/t18-/m0/s1

>  <IUPAC Name>  (1) 
5-[4-[2-[[(2R)-2-(3-chlorophenyl)-2-hydroxyethyl]amino]ethyl]phenyl]thiophene-2-carboxylic acid

$$$$
