
     RDKit          3D

 84 84  0  0  0  0  0  0  0  0999 V2000
   -0.9704    0.1284   -0.0726 C   0  0  0  0  0  0  0  0  0  0  0  0
    0.4652    0.0213    0.3059 C   0  0  0  0  0  0  0  0  0  0  0  0
    0.8004   -0.1285    1.5271 O   0  0  0  0  0  0  0  0  0  0  0  0
    1.4873    0.0796   -0.6464 O   0  0  0  0  0  0  0  0  0  0  0  0
   -8.2790    4.2002   -1.1506 O   0  0  0  0  0  0  0  0  0  0  0  0
   -9.1387    3.6214   -0.2288 C   0  0  0  0  0  0  0  0  0  0  0  0
   -8.4247    2.5519    0.5210 C   0  0  0  0  0  0  0  0  0  0  0  0
   -7.1410    2.1479    0.2138 C   0  0  0  0  0  0  0  0  0  0  0  0
   -6.5997    1.1459    0.9818 C   0  0  0  0  0  0  0  0  0  0  0  0
   -7.2778    0.5541    2.0148 C   0  0  0  0  0  0  0  0  0  0  0  0
   -8.5793    0.9639    2.3266 C   0  0  0  0  0  0  0  0  0  0  0  0
   -9.1505    1.9716    1.5687 C   0  0  0  0  0  0  0  0  0  0  0  0
  -10.4448    2.3803    1.8756 O   0  0  0  0  0  0  0  0  0  0  0  0
   -5.2079    0.6015    0.7183 C   0  0  2  0  0  0  0  0  0  0  0  0
   -5.4449   -0.7252    0.0613 C   0  0  0  0  0  0  0  0  0  0  0  0
   -4.2941   -1.4831   -0.3072 N   0  0  0  0  0  0  0  0  0  0  0  0
   -3.5781   -1.9697    0.8227 C   0  0  0  0  0  0  0  0  0  0  0  0
   -2.4782   -2.9227    0.4098 C   0  0  0  0  0  0  0  0  0  0  0  0
   -1.4460   -2.2984   -0.4997 C   0  0  0  0  0  0  0  0  0  0  0  0
   -0.4464   -3.3663   -0.8286 C   0  0  0  0  0  0  0  0  0  0  0  0
    0.6748   -2.9830   -1.7119 C   0  0  0  0  0  0  0  0  0  0  0  0
    1.5671   -1.8942   -1.2114 C   0  0  0  0  0  0  0  0  0  0  0  0
    2.1955   -2.1073   -0.0457 O   0  0  0  0  0  0  0  0  0  0  0  0
    3.0369   -3.1326    0.1434 C   0  0  0  0  0  0  0  0  0  0  0  0
    4.2871   -3.2289   -0.6487 C   0  0  0  0  0  0  0  0  0  0  0  0
    5.2709   -2.1043   -0.4728 C   0  0  0  0  0  0  0  0  0  0  0  0
    4.7460   -0.7708   -0.8576 C   0  0  0  0  0  0  0  0  0  0  0  0
    5.8490    0.2246   -0.6075 C   0  0  0  0  0  0  0  0  0  0  0  0
    6.7827    0.4917   -1.5992 C   0  0  0  0  0  0  0  0  0  0  0  0
    7.7932    1.4124   -1.3776 C   0  0  0  0  0  0  0  0  0  0  0  0
    8.8227    1.7346   -2.4085 C   0  0  0  0  0  0  0  0  0  0  0  0
    7.8372    2.0398   -0.1651 C   0  0  0  0  0  0  0  0  0  0  0  0
    6.9147    1.7838    0.8302 C   0  0  0  0  0  0  0  0  0  0  0  0
    5.9063    0.8731    0.6274 C   0  0  0  0  0  0  0  0  0  0  0  0
    7.0556    2.5081    2.0722 N   0  0  0  0  0  0  0  0  0  0  0  0
    6.3973    3.7744    2.2180 C   0  0  0  0  0  0  0  0  0  0  0  0
    5.6996    4.2837    1.3047 O   0  0  0  0  0  0  0  0  0  0  0  0
    6.5304    4.5031    3.4531 N   0  0  0  0  0  0  0  0  0  0  0  0
   -4.5025    0.5233    1.9090 O   0  0  0  0  0  0  0  0  0  0  0  0
   -1.5979   -0.2393    0.7457 H   0  0  0  0  0  0  0  0  0  0  0  0
   -1.2494    1.1860   -0.3056 H   0  0  0  0  0  0  0  0  0  0  0  0
   -1.2030   -0.4665   -0.9950 H   0  0  0  0  0  0  0  0  0  0  0  0
    2.2678   -0.5810   -0.5590 H   0  0  0  0  0  0  0  0  0  0  0  0
   -8.3291    5.2042   -1.1301 H   0  0  0  0  0  0  0  0  0  0  0  0
   -9.4673    4.3769    0.5121 H   0  0  0  0  0  0  0  0  0  0  0  0
  -10.0178    3.1548   -0.7345 H   0  0  0  0  0  0  0  0  0  0  0  0
   -6.5966    2.6008   -0.5894 H   0  0  0  0  0  0  0  0  0  0  0  0
   -6.8841   -0.2352    2.6414 H   0  0  0  0  0  0  0  0  0  0  0  0
   -9.1163    0.4835    3.1550 H   0  0  0  0  0  0  0  0  0  0  0  0
  -11.1997    1.6972    1.9562 H   0  0  0  0  0  0  0  0  0  0  0  0
   -4.6591    1.2672    0.0288 H   0  0  0  0  0  0  0  0  0  0  0  0
   -6.1443   -1.3614    0.6664 H   0  0  0  0  0  0  0  0  0  0  0  0
   -6.0030   -0.5128   -0.8991 H   0  0  0  0  0  0  0  0  0  0  0  0
   -3.7329   -0.8959   -0.9570 H   0  0  0  0  0  0  0  0  0  0  0  0
   -4.2400   -2.4964    1.5056 H   0  0  0  0  0  0  0  0  0  0  0  0
   -3.0440   -1.1147    1.3072 H   0  0  0  0  0  0  0  0  0  0  0  0
   -2.0358   -3.3467    1.3240 H   0  0  0  0  0  0  0  0  0  0  0  0
   -3.0124   -3.7774   -0.0906 H   0  0  0  0  0  0  0  0  0  0  0  0
   -1.9123   -1.8980   -1.4210 H   0  0  0  0  0  0  0  0  0  0  0  0
   -1.0159   -1.4518    0.0638 H   0  0  0  0  0  0  0  0  0  0  0  0
   -1.0115   -4.2489   -1.1976 H   0  0  0  0  0  0  0  0  0  0  0  0
   -0.0007   -3.7393    0.1420 H   0  0  0  0  0  0  0  0  0  0  0  0
    1.2518   -3.8583   -2.0672 H   0  0  0  0  0  0  0  0  0  0  0  0
    0.2173   -2.5606   -2.6595 H   0  0  0  0  0  0  0  0  0  0  0  0
    0.9409   -0.9540   -1.1503 H   0  0  0  0  0  0  0  0  0  0  0  0
    2.2979   -1.6992   -2.0182 H   0  0  0  0  0  0  0  0  0  0  0  0
    3.3738   -3.0671    1.2287 H   0  0  0  0  0  0  0  0  0  0  0  0
    2.5568   -4.1467    0.1177 H   0  0  0  0  0  0  0  0  0  0  0  0
    4.8779   -4.1527   -0.3688 H   0  0  0  0  0  0  0  0  0  0  0  0
    4.0372   -3.2459   -1.7341 H   0  0  0  0  0  0  0  0  0  0  0  0
    6.1710   -2.4082   -1.0902 H   0  0  0  0  0  0  0  0  0  0  0  0
    5.6463   -2.1531    0.5718 H   0  0  0  0  0  0  0  0  0  0  0  0
    4.4594   -0.7618   -1.9299 H   0  0  0  0  0  0  0  0  0  0  0  0
    3.8939   -0.5061   -0.2200 H   0  0  0  0  0  0  0  0  0  0  0  0
    6.7479   -0.0033   -2.5530 H   0  0  0  0  0  0  0  0  0  0  0  0
    8.8813    2.8448   -2.4500 H   0  0  0  0  0  0  0  0  0  0  0  0
    9.8343    1.3974   -2.0870 H   0  0  0  0  0  0  0  0  0  0  0  0
    8.5604    1.3423   -3.4072 H   0  0  0  0  0  0  0  0  0  0  0  0
    8.6369    2.7631   -0.0038 H   0  0  0  0  0  0  0  0  0  0  0  0
    5.1769    0.6680    1.4077 H   0  0  0  0  0  0  0  0  0  0  0  0
    7.6390    2.0976    2.8525 H   0  0  0  0  0  0  0  0  0  0  0  0
    7.3053    4.2670    4.1113 H   0  0  0  0  0  0  0  0  0  0  0  0
    5.8401    5.2689    3.6778 H   0  0  0  0  0  0  0  0  0  0  0  0
   -4.8563   -0.1432    2.5379 H   0  0  0  0  0  0  0  0  0  0  0  0
  1  2  1  0
  2  3  2  0
  2  4  1  0
  5  6  1  0
  6  7  1  0
  7  8  2  0
  8  9  1  0
  9 10  2  0
 10 11  1  0
 11 12  2  0
 12 13  1  0
  9 14  1  0
 14 15  1  0
 15 16  1  0
 16 17  1  0
 17 18  1  0
 18 19  1  0
 19 20  1  0
 20 21  1  0
 21 22  1  0
 22 23  1  0
 23 24  1  0
 24 25  1  0
 25 26  1  0
 26 27  1  0
 27 28  1  0
 28 29  2  0
 29 30  1  0
 30 31  1  0
 30 32  2  0
 32 33  1  0
 33 34  2  0
 33 35  1  0
 35 36  1  0
 36 37  2  0
 36 38  1  0
 14 39  1  0
 12  7  1  0
 34 28  1  0
  1 40  1  0
  1 41  1  0
  1 42  1  0
  4 43  1  0
  5 44  1  0
  6 45  1  0
  6 46  1  0
  8 47  1  0
 10 48  1  0
 11 49  1  0
 13 50  1  0
 14 51  1  6
 15 52  1  0
 15 53  1  0
 16 54  1  0
 17 55  1  0
 17 56  1  0
 18 57  1  0
 18 58  1  0
 19 59  1  0
 19 60  1  0
 20 61  1  0
 20 62  1  0
 21 63  1  0
 21 64  1  0
 22 65  1  0
 22 66  1  0
 24 67  1  0
 24 68  1  0
 25 69  1  0
 25 70  1  0
 26 71  1  0
 26 72  1  0
 27 73  1  0
 27 74  1  0
 29 75  1  0
 31 76  1  0
 31 77  1  0
 31 78  1  0
 32 79  1  0
 34 80  1  0
 35 81  1  0
 38 82  1  0
 38 83  1  0
 39 84  1  0
M  END
>  <Ligand ID>  (1) 
LIG0001715

>  <Ligand>  (1) 
CHEMBL1835862

>  <SMILES>  (1) 
CC(=O)O.OCc1cc(ccc1O)[C@H](CNCCCCCCOCCCCc1cc(C)cc(c1)NC(=O)N)O

>  <CID>  (1) 
54754163.0

>  <ChEMBL ID>  (1) 
nan

>  <InChiKey>  (1) 
RPQAXQLHOQFGDI-SNYZSRNZSA-N

>  <InChi>  (1) 
InChI=1S/C27H41N3O5.C2H4O2/c1-20-14-21(16-24(15-20)30-27(28)34)8-4-7-13-35-12-6-3-2-5-11-29-18-26(33)22-9-10-25(32)23(17-22)19-31;1-2(3)4/h9-10,14-17,26,29,31-33H,2-8,11-13,18-19H2,1H3,(H3,28,30,34);1H3,(H,3,4)/t26-;/m0./s1

>  <IUPAC Name>  (1) 
acetic acid;[3-[4-[6-[[(2R)-2-hydroxy-2-[4-hydroxy-3-(hydroxymethyl)phenyl]ethyl]amino]hexoxy]butyl]-5-methylphenyl]urea

$$$$
