
     RDKit          3D

 45 48  0  0  0  0  0  0  0  0999 V2000
    3.9446    0.8357    2.4295 O   0  0  0  0  0  0  0  0  0  0  0  0
    4.2796    0.8396    1.0649 C   0  0  0  0  0  0  0  0  0  0  0  0
    5.0797    1.7053    0.6252 O   0  0  0  0  0  0  0  0  0  0  0  0
    3.6543   -0.2031    0.2033 C   0  0  1  0  0  0  0  0  0  0  0  0
    3.3267   -1.5310    0.7146 C   0  0  0  0  0  0  0  0  0  0  0  0
    2.2095   -0.5832    0.5604 C   0  0  2  0  0  0  0  0  0  0  0  0
    1.2821   -0.5476   -0.6161 C   0  0  1  0  0  0  0  0  0  0  0  0
    1.8420   -1.5743   -1.6350 C   0  0  0  0  0  0  0  0  0  0  0  0
    2.3500   -1.1328   -2.7062 O   0  0  0  0  0  0  0  0  0  0  0  0
    1.7640   -2.9255   -1.3349 O   0  0  0  0  0  0  0  0  0  0  0  0
   -0.1237   -0.8732   -0.3712 C   0  0  0  0  0  0  0  0  0  0  0  0
   -0.9615   -0.0941    0.5952 C   0  0  0  0  0  0  0  0  0  0  0  0
   -2.3073   -0.7918    0.4846 C   0  0  0  0  0  0  0  0  0  0  0  0
   -2.3768   -2.1389    0.8054 C   0  0  0  0  0  0  0  0  0  0  0  0
   -3.5611   -2.8681    0.6443 C   0  0  0  0  0  0  0  0  0  0  0  0
   -4.6961   -2.2666    0.1610 C   0  0  0  0  0  0  0  0  0  0  0  0
   -4.6170   -0.9275   -0.1524 C   0  0  0  0  0  0  0  0  0  0  0  0
   -3.4325   -0.1975    0.0103 C   0  0  0  0  0  0  0  0  0  0  0  0
   -3.5014    1.1371   -0.3280 O   0  0  0  0  0  0  0  0  0  0  0  0
   -2.3441    1.8793   -0.1553 C   0  0  0  0  0  0  0  0  0  0  0  0
   -1.1657    1.3195    0.3245 C   0  0  0  0  0  0  0  0  0  0  0  0
   -0.1089    2.1983    0.4699 C   0  0  0  0  0  0  0  0  0  0  0  0
   -0.2156    3.5561    0.1479 C   0  0  0  0  0  0  0  0  0  0  0  0
   -1.3859    4.0945   -0.3323 C   0  0  0  0  0  0  0  0  0  0  0  0
   -2.4489    3.2305   -0.4773 C   0  0  0  0  0  0  0  0  0  0  0  0
    1.4944    0.6956   -1.3233 N   0  0  0  0  0  0  0  0  0  0  0  0
    4.0807    1.6678    3.0137 H   0  0  0  0  0  0  0  0  0  0  0  0
    3.9603   -0.1373   -0.8386 H   0  0  0  0  0  0  0  0  0  0  0  0
    3.6558   -1.7252    1.7740 H   0  0  0  0  0  0  0  0  0  0  0  0
    3.5175   -2.4010    0.0834 H   0  0  0  0  0  0  0  0  0  0  0  0
    1.7640   -0.1706    1.4831 H   0  0  0  0  0  0  0  0  0  0  0  0
    2.0740   -3.6106   -1.9979 H   0  0  0  0  0  0  0  0  0  0  0  0
   -0.1365   -1.9310    0.0462 H   0  0  0  0  0  0  0  0  0  0  0  0
   -0.6495   -1.0186   -1.3556 H   0  0  0  0  0  0  0  0  0  0  0  0
   -0.5642   -0.2622    1.6154 H   0  0  0  0  0  0  0  0  0  0  0  0
   -1.5500   -2.7073    1.1986 H   0  0  0  0  0  0  0  0  0  0  0  0
   -3.5914   -3.9380    0.9059 H   0  0  0  0  0  0  0  0  0  0  0  0
   -5.5725   -2.8586    0.0535 H   0  0  0  0  0  0  0  0  0  0  0  0
   -5.5080   -0.4506   -0.5327 H   0  0  0  0  0  0  0  0  0  0  0  0
    0.8565    1.9245    0.8768 H   0  0  0  0  0  0  0  0  0  0  0  0
    0.6311    4.2348    0.2680 H   0  0  0  0  0  0  0  0  0  0  0  0
   -1.4259    5.1431   -0.5702 H   0  0  0  0  0  0  0  0  0  0  0  0
   -3.3712    3.6557   -0.8548 H   0  0  0  0  0  0  0  0  0  0  0  0
    1.4443    0.6002   -2.3512 H   0  0  0  0  0  0  0  0  0  0  0  0
    2.4043    1.1487   -1.0913 H   0  0  0  0  0  0  0  0  0  0  0  0
  1  2  1  0
  2  3  2  0
  2  4  1  0
  4  5  1  0
  5  6  1  0
  6  7  1  0
  7  8  1  0
  8  9  2  0
  8 10  1  0
  7 11  1  0
 11 12  1  0
 12 13  1  0
 13 14  2  0
 14 15  1  0
 15 16  2  0
 16 17  1  0
 17 18  2  0
 18 19  1  0
 19 20  1  0
 20 21  2  0
 21 22  1  0
 22 23  2  0
 23 24  1  0
 24 25  2  0
  7 26  1  6
  6  4  1  0
 21 12  1  0
 18 13  1  0
 25 20  1  0
  1 27  1  0
  4 28  1  6
  5 29  1  0
  5 30  1  0
  6 31  1  1
 10 32  1  0
 11 33  1  0
 11 34  1  0
 12 35  1  0
 14 36  1  0
 15 37  1  0
 16 38  1  0
 17 39  1  0
 22 40  1  0
 23 41  1  0
 24 42  1  0
 25 43  1  0
 26 44  1  0
 26 45  1  0
M  END
>  <Ligand ID>  (1) 
LIG0002351

>  <Ligand>  (1) 
CHEMBL144151

>  <SMILES>  (1) 
OC(=O)[C@H]1C[C@@H]1[C@@](C(=O)O)(CC1c2ccccc2Oc2c1cccc2)N

>  <CID>  (1) 
10807972.0

>  <ChEMBL ID>  (1) 
nan

>  <InChiKey>  (1) 
VLZBRVJVCCNPRJ-ZQGRQUNCSA-N

>  <InChi>  (1) 
InChI=1S/C20H19NO5/c21-20(19(24)25,15-9-13(15)18(22)23)10-14-11-5-1-3-7-16(11)26-17-8-4-2-6-12(14)17/h1-8,13-15H,9-10,21H2,(H,22,23)(H,24,25)/t13-,15-,20+/m0/s1

>  <IUPAC Name>  (1) 
(1S,2S)-2-[(1R)-1-amino-1-carboxy-2-(9H-xanthen-9-yl)ethyl]cyclopropane-1-carboxylic acid

$$$$
