
     RDKit          3D

 76 78  0  0  0  0  0  0  0  0999 V2000
    9.6259    2.5944    0.0147 O   0  0  0  0  0  0  0  0  0  0  0  0
    9.5453    1.7840   -1.1387 C   0  0  0  0  0  0  0  0  0  0  0  0
    8.9231    0.4752   -0.8107 C   0  0  0  0  0  0  0  0  0  0  0  0
    7.6008    0.1762   -1.1528 C   0  0  0  0  0  0  0  0  0  0  0  0
    7.1051   -1.0510   -0.8121 C   0  0  0  0  0  0  0  0  0  0  0  0
    7.8557   -2.0217   -0.1380 C   0  0  0  0  0  0  0  0  0  0  0  0
    9.1533   -1.7081    0.1896 C   0  0  0  0  0  0  0  0  0  0  0  0
    9.6856   -0.4733   -0.1415 C   0  0  0  0  0  0  0  0  0  0  0  0
   10.9946   -0.1444    0.1836 O   0  0  0  0  0  0  0  0  0  0  0  0
    5.6941   -1.4846   -1.1308 C   0  0  2  0  0  0  0  0  0  0  0  0
    4.9417   -1.3561    0.1629 C   0  0  0  0  0  0  0  0  0  0  0  0
    4.9397    0.0092    0.5951 N   0  0  0  0  0  0  0  0  0  0  0  0
    4.1244    0.8216   -0.2603 C   0  0  0  0  0  0  0  0  0  0  0  0
    2.6742    0.4330   -0.0639 C   0  0  0  0  0  0  0  0  0  0  0  0
    1.7871    1.2747   -0.9535 C   0  0  0  0  0  0  0  0  0  0  0  0
    0.3255    0.9066   -0.7773 C   0  0  0  0  0  0  0  0  0  0  0  0
   -0.1511    1.1047    0.6210 C   0  0  0  0  0  0  0  0  0  0  0  0
   -1.6128    0.6908    0.6888 C   0  0  0  0  0  0  0  0  0  0  0  0
   -1.6391   -0.6434    0.3156 O   0  0  0  0  0  0  0  0  0  0  0  0
   -2.8502   -1.2618    0.3469 C   0  0  0  0  0  0  0  0  0  0  0  0
   -3.8387   -0.6042   -0.5609 C   0  0  0  0  0  0  0  0  0  0  0  0
   -5.1861   -1.3147   -0.5113 C   0  0  0  0  0  0  0  0  0  0  0  0
   -5.8158   -1.2912    0.8569 C   0  0  0  0  0  0  0  0  0  0  0  0
   -6.1388    0.0508    1.3491 C   0  0  0  0  0  0  0  0  0  0  0  0
   -5.3234    0.7515    2.2151 C   0  0  0  0  0  0  0  0  0  0  0  0
   -5.6036    2.0194    2.6758 C   0  0  0  0  0  0  0  0  0  0  0  0
   -6.7480    2.6554    2.2740 C   0  0  0  0  0  0  0  0  0  0  0  0
   -7.5902    1.9990    1.4143 C   0  0  0  0  0  0  0  0  0  0  0  0
   -7.3031    0.7218    0.9542 C   0  0  0  0  0  0  0  0  0  0  0  0
   -8.2733    0.1321    0.1030 N   0  0  0  0  0  0  0  0  0  0  0  0
   -8.4619    0.1965   -1.2949 C   0  0  0  0  0  0  0  0  0  0  0  0
   -7.9211    1.0597   -2.0256 O   0  0  0  0  0  0  0  0  0  0  0  0
   -9.3812   -0.9166   -1.6597 C   0  0  0  0  0  0  0  0  0  0  0  0
  -10.1432   -1.1508   -0.4644 N   0  0  0  0  0  0  0  0  0  0  0  0
   -9.3202   -0.7076    0.6274 C   0  0  0  0  0  0  0  0  0  0  0  0
   -9.5185   -1.0264    1.8371 O   0  0  0  0  0  0  0  0  0  0  0  0
    5.7010   -2.7977   -1.6055 O   0  0  0  0  0  0  0  0  0  0  0  0
    9.2130    2.1613    0.8065 H   0  0  0  0  0  0  0  0  0  0  0  0
   10.5673    1.6264   -1.5500 H   0  0  0  0  0  0  0  0  0  0  0  0
    8.8634    2.3220   -1.8304 H   0  0  0  0  0  0  0  0  0  0  0  0
    6.9820    0.8939   -1.6726 H   0  0  0  0  0  0  0  0  0  0  0  0
    7.4537   -2.9850    0.1240 H   0  0  0  0  0  0  0  0  0  0  0  0
    9.7568   -2.4608    0.7187 H   0  0  0  0  0  0  0  0  0  0  0  0
   11.5238   -0.8110    0.7212 H   0  0  0  0  0  0  0  0  0  0  0  0
    5.3450   -0.8369   -1.9401 H   0  0  0  0  0  0  0  0  0  0  0  0
    3.9678   -1.8507    0.1063 H   0  0  0  0  0  0  0  0  0  0  0  0
    5.4827   -1.9222    0.9903 H   0  0  0  0  0  0  0  0  0  0  0  0
    4.5927    0.0388    1.5657 H   0  0  0  0  0  0  0  0  0  0  0  0
    4.2741    1.9125    0.0196 H   0  0  0  0  0  0  0  0  0  0  0  0
    4.3886    0.7936   -1.3304 H   0  0  0  0  0  0  0  0  0  0  0  0
    2.4569    0.5840    1.0086 H   0  0  0  0  0  0  0  0  0  0  0  0
    2.4643   -0.6089   -0.2962 H   0  0  0  0  0  0  0  0  0  0  0  0
    2.0461    1.0573   -2.0078 H   0  0  0  0  0  0  0  0  0  0  0  0
    1.9382    2.3478   -0.7825 H   0  0  0  0  0  0  0  0  0  0  0  0
    0.2099   -0.1477   -1.0292 H   0  0  0  0  0  0  0  0  0  0  0  0
   -0.2602    1.5880   -1.4422 H   0  0  0  0  0  0  0  0  0  0  0  0
    0.0185    2.1365    1.0118 H   0  0  0  0  0  0  0  0  0  0  0  0
    0.3702    0.3862    1.3182 H   0  0  0  0  0  0  0  0  0  0  0  0
   -2.0406    0.8756    1.6964 H   0  0  0  0  0  0  0  0  0  0  0  0
   -2.1123    1.2787   -0.1190 H   0  0  0  0  0  0  0  0  0  0  0  0
   -3.1802   -1.3284    1.4108 H   0  0  0  0  0  0  0  0  0  0  0  0
   -2.6989   -2.3046   -0.0274 H   0  0  0  0  0  0  0  0  0  0  0  0
   -3.9489    0.4764   -0.3950 H   0  0  0  0  0  0  0  0  0  0  0  0
   -3.4743   -0.7509   -1.5970 H   0  0  0  0  0  0  0  0  0  0  0  0
   -5.8273   -0.8333   -1.2423 H   0  0  0  0  0  0  0  0  0  0  0  0
   -5.0231   -2.3610   -0.8474 H   0  0  0  0  0  0  0  0  0  0  0  0
   -5.2362   -1.8957    1.5935 H   0  0  0  0  0  0  0  0  0  0  0  0
   -6.7764   -1.8762    0.7408 H   0  0  0  0  0  0  0  0  0  0  0  0
   -4.3817    0.3209    2.5937 H   0  0  0  0  0  0  0  0  0  0  0  0
   -4.9509    2.5598    3.3562 H   0  0  0  0  0  0  0  0  0  0  0  0
   -6.9804    3.6553    2.6300 H   0  0  0  0  0  0  0  0  0  0  0  0
   -8.4947    2.5073    1.0998 H   0  0  0  0  0  0  0  0  0  0  0  0
   -8.8361   -1.8397   -1.9400 H   0  0  0  0  0  0  0  0  0  0  0  0
  -10.1024   -0.5943   -2.4556 H   0  0  0  0  0  0  0  0  0  0  0  0
  -11.1087   -1.5589   -0.3397 H   0  0  0  0  0  0  0  0  0  0  0  0
    5.6613   -2.8684   -2.5911 H   0  0  0  0  0  0  0  0  0  0  0  0
  1  2  1  0
  2  3  1  0
  3  4  2  0
  4  5  1  0
  5  6  2  0
  6  7  1  0
  7  8  2  0
  8  9  1  0
  5 10  1  0
 10 11  1  0
 11 12  1  0
 12 13  1  0
 13 14  1  0
 14 15  1  0
 15 16  1  0
 16 17  1  0
 17 18  1  0
 18 19  1  0
 19 20  1  0
 20 21  1  0
 21 22  1  0
 22 23  1  0
 23 24  1  0
 24 25  2  0
 25 26  1  0
 26 27  2  0
 27 28  1  0
 28 29  2  0
 29 30  1  0
 30 31  1  0
 31 32  2  0
 31 33  1  0
 33 34  1  0
 34 35  1  0
 35 36  2  0
 10 37  1  0
  8  3  1  0
 29 24  1  0
 35 30  1  0
  1 38  1  0
  2 39  1  0
  2 40  1  0
  4 41  1  0
  6 42  1  0
  7 43  1  0
  9 44  1  0
 10 45  1  6
 11 46  1  0
 11 47  1  0
 12 48  1  0
 13 49  1  0
 13 50  1  0
 14 51  1  0
 14 52  1  0
 15 53  1  0
 15 54  1  0
 16 55  1  0
 16 56  1  0
 17 57  1  0
 17 58  1  0
 18 59  1  0
 18 60  1  0
 20 61  1  0
 20 62  1  0
 21 63  1  0
 21 64  1  0
 22 65  1  0
 22 66  1  0
 23 67  1  0
 23 68  1  0
 25 69  1  0
 26 70  1  0
 27 71  1  0
 28 72  1  0
 33 73  1  0
 33 74  1  0
 34 75  1  0
 37 76  1  0
M  END
>  <Ligand ID>  (1) 
LIG0002852

>  <Ligand>  (1) 
SCHEMBL5182272

>  <SMILES>  (1) 
OCc1cc(ccc1O)[C@H](CNCCCCCCOCCCCc1ccccc1N1C(=O)CNC1=O)O

>  <CID>  (1) 
56675509.0

>  <ChEMBL ID>  (1) 
nan

>  <InChiKey>  (1) 
GJLISRCTOUPOQN-SANMLTNESA-N

>  <InChi>  (1) 
InChI=1S/C28H39N3O6/c32-20-23-17-22(12-13-25(23)33)26(34)18-29-14-6-1-2-7-15-37-16-8-5-10-21-9-3-4-11-24(21)31-27(35)19-30-28(31)36/h3-4,9,11-13,17,26,29,32-34H,1-2,5-8,10,14-16,18-20H2,(H,30,36)/t26-/m0/s1

>  <IUPAC Name>  (1) 
3-[2-[4-[6-[[(2R)-2-hydroxy-2-[4-hydroxy-3-(hydroxymethyl)phenyl]ethyl]amino]hexoxy]butyl]phenyl]imidazolidine-2,4-dione

$$$$
