
     RDKit          3D

 69 68  0  0  0  0  0  0  0  0999 V2000
   -8.1668    2.0048   -2.5176 C   0  0  0  0  0  0  0  0  0  0  0  0
   -6.6581    2.0972   -2.5071 C   0  0  0  0  0  0  0  0  0  0  0  0
   -6.1001    2.2721   -1.1281 C   0  0  0  0  0  0  0  0  0  0  0  0
   -6.4572    1.1278   -0.2081 C   0  0  0  0  0  0  0  0  0  0  0  0
   -5.9346   -0.1908   -0.7159 C   0  0  0  0  0  0  0  0  0  0  0  0
   -4.4526   -0.2481   -0.8654 C   0  0  0  0  0  0  0  0  0  0  0  0
   -3.7153   -0.0122    0.4323 C   0  0  0  0  0  0  0  0  0  0  0  0
   -4.0814   -1.0463    1.4767 C   0  0  0  0  0  0  0  0  0  0  0  0
   -3.3590   -0.8146    2.7472 C   0  0  0  0  0  0  0  0  0  0  0  0
   -2.5374   -1.6229    3.3499 C   0  0  0  0  0  0  0  0  0  0  0  0
   -2.1195   -2.9731    2.9183 C   0  0  0  0  0  0  0  0  0  0  0  0
   -0.6113   -2.9700    2.7305 C   0  0  0  0  0  0  0  0  0  0  0  0
   -0.3258   -1.9318    1.6712 C   0  0  0  0  0  0  0  0  0  0  0  0
    1.1704   -1.8616    1.4108 C   0  0  0  0  0  0  0  0  0  0  0  0
    1.9423   -1.4918    2.6303 C   0  0  0  0  0  0  0  0  0  0  0  0
    3.4067   -1.4414    2.3401 C   0  0  0  0  0  0  0  0  0  0  0  0
    3.6981   -0.4132    1.2877 C   0  0  0  0  0  0  0  0  0  0  0  0
    5.1991   -0.4497    1.0983 C   0  0  0  0  0  0  0  0  0  0  0  0
    5.9133   -1.2478    1.7732 O   0  0  0  0  0  0  0  0  0  0  0  0
    5.8148    0.4173    0.1565 N   0  0  0  0  0  0  0  0  0  0  0  0
    7.2452    0.3483    0.0095 C   0  0  0  0  0  0  0  0  0  0  0  0
    7.6798    1.3447   -1.0349 C   0  0  0  0  0  0  0  0  0  0  0  0
    7.0324    1.0270   -2.3492 C   0  0  0  0  0  0  0  0  0  0  0  0
    7.5527    2.2242   -3.6123 P   0  0  0  0  0  0  0  0  0  0  0  0
    6.9274    1.8107   -4.9427 O   0  0  0  0  0  0  0  0  0  0  0  0
    7.0588    3.7761   -3.1824 O   0  0  0  0  0  0  0  0  0  0  0  0
    9.2377    2.1451   -3.7074 O   0  0  0  0  0  0  0  0  0  0  0  0
    7.4548   -0.2287   -2.7426 F   0  0  0  0  0  0  0  0  0  0  0  0
   -8.5747    2.3001   -1.5397 H   0  0  0  0  0  0  0  0  0  0  0  0
   -8.6373    2.6382   -3.3080 H   0  0  0  0  0  0  0  0  0  0  0  0
   -8.4263    0.9442   -2.7942 H   0  0  0  0  0  0  0  0  0  0  0  0
   -6.4199    3.0522   -3.0544 H   0  0  0  0  0  0  0  0  0  0  0  0
   -6.1845    1.2693   -3.0640 H   0  0  0  0  0  0  0  0  0  0  0  0
   -6.6304    3.1739   -0.7012 H   0  0  0  0  0  0  0  0  0  0  0  0
   -5.0165    2.4539   -1.2153 H   0  0  0  0  0  0  0  0  0  0  0  0
   -6.1890    1.3505    0.8388 H   0  0  0  0  0  0  0  0  0  0  0  0
   -7.5653    1.0505   -0.2269 H   0  0  0  0  0  0  0  0  0  0  0  0
   -6.3565   -0.2914   -1.7566 H   0  0  0  0  0  0  0  0  0  0  0  0
   -6.3570   -1.0364   -0.1569 H   0  0  0  0  0  0  0  0  0  0  0  0
   -4.1036    0.4775   -1.6006 H   0  0  0  0  0  0  0  0  0  0  0  0
   -4.1998   -1.2712   -1.2054 H   0  0  0  0  0  0  0  0  0  0  0  0
   -3.8586    1.0140    0.8130 H   0  0  0  0  0  0  0  0  0  0  0  0
   -2.6330   -0.1384    0.2220 H   0  0  0  0  0  0  0  0  0  0  0  0
   -3.9734   -2.0635    1.1261 H   0  0  0  0  0  0  0  0  0  0  0  0
   -5.1726   -0.8870    1.7327 H   0  0  0  0  0  0  0  0  0  0  0  0
   -3.5541    0.1679    3.2250 H   0  0  0  0  0  0  0  0  0  0  0  0
   -2.0886   -1.2722    4.3021 H   0  0  0  0  0  0  0  0  0  0  0  0
   -2.3435   -3.6882    3.7627 H   0  0  0  0  0  0  0  0  0  0  0  0
   -2.6490   -3.2471    2.0121 H   0  0  0  0  0  0  0  0  0  0  0  0
   -0.1872   -2.6350    3.7172 H   0  0  0  0  0  0  0  0  0  0  0  0
   -0.2452   -3.9448    2.3971 H   0  0  0  0  0  0  0  0  0  0  0  0
   -0.8732   -2.1912    0.7459 H   0  0  0  0  0  0  0  0  0  0  0  0
   -0.7206   -0.9619    2.0245 H   0  0  0  0  0  0  0  0  0  0  0  0
    1.5053   -2.8753    1.1025 H   0  0  0  0  0  0  0  0  0  0  0  0
    1.3236   -1.2141    0.5374 H   0  0  0  0  0  0  0  0  0  0  0  0
    1.7780   -2.2287    3.4606 H   0  0  0  0  0  0  0  0  0  0  0  0
    1.6300   -0.5181    3.0648 H   0  0  0  0  0  0  0  0  0  0  0  0
    3.9348   -1.2344    3.2956 H   0  0  0  0  0  0  0  0  0  0  0  0
    3.7915   -2.4548    2.0339 H   0  0  0  0  0  0  0  0  0  0  0  0
    3.1875   -0.5984    0.3440 H   0  0  0  0  0  0  0  0  0  0  0  0
    3.4635    0.6101    1.5959 H   0  0  0  0  0  0  0  0  0  0  0  0
    5.1861    1.0553   -0.3726 H   0  0  0  0  0  0  0  0  0  0  0  0
    7.5755   -0.6603   -0.3495 H   0  0  0  0  0  0  0  0  0  0  0  0
    7.7607    0.5535    0.9724 H   0  0  0  0  0  0  0  0  0  0  0  0
    8.7713    1.4371   -1.1099 H   0  0  0  0  0  0  0  0  0  0  0  0
    7.3207    2.3744   -0.7490 H   0  0  0  0  0  0  0  0  0  0  0  0
    5.9461    1.0077   -2.2536 H   0  0  0  0  0  0  0  0  0  0  0  0
    7.3593    3.9341   -2.2530 H   0  0  0  0  0  0  0  0  0  0  0  0
    9.6115    2.8964   -3.1854 H   0  0  0  0  0  0  0  0  0  0  0  0
  1  2  1  0
  2  3  1  0
  3  4  1  0
  4  5  1  0
  5  6  1  0
  6  7  1  0
  7  8  1  0
  8  9  1  0
  9 10  2  0
 10 11  1  0
 11 12  1  0
 12 13  1  0
 13 14  1  0
 14 15  1  0
 15 16  1  0
 16 17  1  0
 17 18  1  0
 18 19  2  0
 18 20  1  0
 20 21  1  0
 21 22  1  0
 22 23  1  0
 23 24  1  0
 24 25  2  0
 24 26  1  0
 24 27  1  0
 23 28  1  0
  1 29  1  0
  1 30  1  0
  1 31  1  0
  2 32  1  0
  2 33  1  0
  3 34  1  0
  3 35  1  0
  4 36  1  0
  4 37  1  0
  5 38  1  0
  5 39  1  0
  6 40  1  0
  6 41  1  0
  7 42  1  0
  7 43  1  0
  8 44  1  0
  8 45  1  0
  9 46  1  0
 10 47  1  0
 11 48  1  0
 11 49  1  0
 12 50  1  0
 12 51  1  0
 13 52  1  0
 13 53  1  0
 14 54  1  0
 14 55  1  0
 15 56  1  0
 15 57  1  0
 16 58  1  0
 16 59  1  0
 17 60  1  0
 17 61  1  0
 20 62  1  0
 21 63  1  0
 21 64  1  0
 22 65  1  0
 22 66  1  0
 23 67  1  0
 26 68  1  0
 27 69  1  0
M  END
>  <Ligand ID>  (1) 
LIG0004218

>  <Ligand>  (1) 
CHEMBL117663

>  <SMILES>  (1) 
CCCCCCCC/C=C\CCCCCCCC(=O)NCCC(P(=O)(O)O)F

>  <CID>  (1) 
44343880.0

>  <ChEMBL ID>  (1) 
nan

>  <InChiKey>  (1) 
FZRVIHRVKSRALK-KTKRTIGZSA-N

>  <InChi>  (1) 
InChI=1S/C21H41FNO4P/c1-2-3-4-5-6-7-8-9-10-11-12-13-14-15-16-17-21(24)23-19-18-20(22)28(25,26)27/h9-10,20H,2-8,11-19H2,1H3,(H,23,24)(H2,25,26,27)/b10-9-

>  <IUPAC Name>  (1) 
[1-fluoro-3-[[(Z)-octadec-9-enoyl]amino]propyl]phosphonic acid

$$$$
