
     RDKit          3D

 65 69  0  0  0  0  0  0  0  0999 V2000
    9.5967   -3.1319    0.4928 C   0  0  0  0  0  0  0  0  0  0  0  0
    9.4704   -1.9288   -0.2366 O   0  0  0  0  0  0  0  0  0  0  0  0
    8.1968   -1.4101   -0.4155 C   0  0  0  0  0  0  0  0  0  0  0  0
    7.0575   -2.0058    0.0774 C   0  0  0  0  0  0  0  0  0  0  0  0
    5.8006   -1.4475   -0.1270 C   0  0  0  0  0  0  0  0  0  0  0  0
    5.6575   -0.2624   -0.8406 C   0  0  0  0  0  0  0  0  0  0  0  0
    6.8042    0.3087   -1.3193 C   0  0  0  0  0  0  0  0  0  0  0  0
    8.0631   -0.2355   -1.1240 C   0  0  0  0  0  0  0  0  0  0  0  0
    4.3559    0.2647   -1.0186 N   0  0  0  0  0  0  0  0  0  0  0  0
    3.2558   -0.4558   -0.4092 C   0  0  0  0  0  0  0  0  0  0  0  0
    1.9879    0.4061   -0.3518 C   0  0  0  0  0  0  0  0  0  0  0  0
    2.2631    1.7562   -0.1138 N   0  0  0  0  0  0  0  0  0  0  0  0
    3.2877    2.3967   -0.8345 C   0  0  0  0  0  0  0  0  0  0  0  0
    4.0435    1.4559   -1.7571 C   0  0  0  0  0  0  0  0  0  0  0  0
    1.6708    2.3619    0.9832 C   0  0  0  0  0  0  0  0  0  0  0  0
    0.2196    2.6145    0.8647 C   0  0  0  0  0  0  0  0  0  0  0  0
   -0.6977    1.4544    0.6399 C   0  0  0  0  0  0  0  0  0  0  0  0
   -2.0610    2.0460    0.6235 N   0  0  0  0  0  0  0  0  0  0  0  0
   -3.1217    1.1347    0.4172 C   0  0  0  0  0  0  0  0  0  0  0  0
   -2.9168   -0.0971    0.2557 O   0  0  0  0  0  0  0  0  0  0  0  0
   -4.5135    1.6511    0.3914 C   0  0  0  0  0  0  0  0  0  0  0  0
   -5.4796    0.6074    0.1448 N   0  0  0  0  0  0  0  0  0  0  0  0
   -5.8263    0.3385   -1.1457 C   0  0  0  0  0  0  0  0  0  0  0  0
   -5.3186    0.9828   -2.0830 O   0  0  0  0  0  0  0  0  0  0  0  0
   -6.7525   -0.6589   -1.4479 C   0  0  0  0  0  0  0  0  0  0  0  0
   -7.2494   -1.0972   -2.6828 C   0  0  0  0  0  0  0  0  0  0  0  0
   -8.1450   -2.1126   -2.3881 C   0  0  0  0  0  0  0  0  0  0  0  0
   -8.1832   -2.2778   -1.0137 C   0  0  0  0  0  0  0  0  0  0  0  0
   -7.3251   -1.3790   -0.4673 N   0  0  0  0  0  0  0  0  0  0  0  0
   -6.9854   -1.1161    0.8058 C   0  0  0  0  0  0  0  0  0  0  0  0
   -6.0627   -0.1232    1.1112 C   0  0  0  0  0  0  0  0  0  0  0  0
   -5.7331    0.1275    2.3794 N   0  0  0  0  0  0  0  0  0  0  0  0
   -6.2983   -0.5876    3.3795 C   0  0  0  0  0  0  0  0  0  0  0  0
   -7.2288   -1.5928    3.1109 C   0  0  0  0  0  0  0  0  0  0  0  0
   -7.5958   -1.8801    1.7920 C   0  0  0  0  0  0  0  0  0  0  0  0
    9.0800   -3.9239   -0.0699 H   0  0  0  0  0  0  0  0  0  0  0  0
   10.6554   -3.3907    0.6985 H   0  0  0  0  0  0  0  0  0  0  0  0
    9.0743   -3.0343    1.4790 H   0  0  0  0  0  0  0  0  0  0  0  0
    7.1596   -2.9272    0.6334 H   0  0  0  0  0  0  0  0  0  0  0  0
    4.9744   -1.9889    0.2961 H   0  0  0  0  0  0  0  0  0  0  0  0
    6.7565    1.2292   -1.8799 H   0  0  0  0  0  0  0  0  0  0  0  0
    8.9279    0.2723   -1.5324 H   0  0  0  0  0  0  0  0  0  0  0  0
    3.5360   -0.6099    0.6498 H   0  0  0  0  0  0  0  0  0  0  0  0
    3.1067   -1.4007   -0.9442 H   0  0  0  0  0  0  0  0  0  0  0  0
    1.4849    0.2633   -1.3206 H   0  0  0  0  0  0  0  0  0  0  0  0
    1.3701   -0.0610    0.4446 H   0  0  0  0  0  0  0  0  0  0  0  0
    2.8069    3.1746   -1.4889 H   0  0  0  0  0  0  0  0  0  0  0  0
    3.9549    2.9642   -0.1548 H   0  0  0  0  0  0  0  0  0  0  0  0
    3.3362    1.2129   -2.5884 H   0  0  0  0  0  0  0  0  0  0  0  0
    4.9023    1.9956   -2.1495 H   0  0  0  0  0  0  0  0  0  0  0  0
    2.1433    3.4001    1.1065 H   0  0  0  0  0  0  0  0  0  0  0  0
    1.9406    1.8931    1.9774 H   0  0  0  0  0  0  0  0  0  0  0  0
   -0.1861    3.1796    1.7708 H   0  0  0  0  0  0  0  0  0  0  0  0
    0.0669    3.3941    0.0458 H   0  0  0  0  0  0  0  0  0  0  0  0
   -0.6268    0.7438    1.4574 H   0  0  0  0  0  0  0  0  0  0  0  0
   -0.5217    0.9833   -0.3554 H   0  0  0  0  0  0  0  0  0  0  0  0
   -2.2186    3.0635    0.7558 H   0  0  0  0  0  0  0  0  0  0  0  0
   -4.8169    2.1433    1.3376 H   0  0  0  0  0  0  0  0  0  0  0  0
   -4.5814    2.3766   -0.4445 H   0  0  0  0  0  0  0  0  0  0  0  0
   -6.9795   -0.7107   -3.6668 H   0  0  0  0  0  0  0  0  0  0  0  0
   -8.7087   -2.6687   -3.1304 H   0  0  0  0  0  0  0  0  0  0  0  0
   -8.8073   -3.0121   -0.5044 H   0  0  0  0  0  0  0  0  0  0  0  0
   -6.0712   -0.4295    4.4233 H   0  0  0  0  0  0  0  0  0  0  0  0
   -7.6862   -2.1704    3.9021 H   0  0  0  0  0  0  0  0  0  0  0  0
   -8.3091   -2.6479    1.5590 H   0  0  0  0  0  0  0  0  0  0  0  0
  1  2  1  0
  2  3  1  0
  3  4  2  0
  4  5  1  0
  5  6  2  0
  6  7  1  0
  7  8  2  0
  6  9  1  0
  9 10  1  0
 10 11  1  0
 11 12  1  0
 12 13  1  0
 13 14  1  0
 12 15  1  0
 15 16  1  0
 16 17  1  0
 17 18  1  0
 18 19  1  0
 19 20  2  0
 19 21  1  0
 21 22  1  0
 22 23  1  0
 23 24  2  0
 23 25  1  0
 25 26  2  0
 26 27  1  0
 27 28  2  0
 28 29  1  0
 29 30  1  0
 30 31  2  0
 31 32  1  0
 32 33  2  0
 33 34  1  0
 34 35  2  0
  8  3  1  0
 14  9  1  0
 31 22  1  0
 29 25  1  0
 35 30  1  0
  1 36  1  0
  1 37  1  0
  1 38  1  0
  4 39  1  0
  5 40  1  0
  7 41  1  0
  8 42  1  0
 10 43  1  0
 10 44  1  0
 11 45  1  0
 11 46  1  0
 13 47  1  0
 13 48  1  0
 14 49  1  0
 14 50  1  0
 15 51  1  0
 15 52  1  0
 16 53  1  0
 16 54  1  0
 17 55  1  0
 17 56  1  0
 18 57  1  0
 21 58  1  0
 21 59  1  0
 26 60  1  0
 27 61  1  0
 28 62  1  0
 33 63  1  0
 34 64  1  0
 35 65  1  0
M  END
>  <Ligand ID>  (1) 
LIG0004819

>  <Ligand>  (1) 
MLS001123392

>  <SMILES>  (1) 
COc1ccc(cc1)N1CCN(CC1)CCCNC(=O)Cn1c(=O)c2cccn2c2c1nccc2

>  <CID>  (1) 
22553442.0

>  <ChEMBL ID>  (1) 
nan

>  <InChiKey>  (1) 
AMWSWALKGNCXCX-UHFFFAOYSA-N

>  <InChi>  (1) 
InChI=1S/C26H30N6O3/c1-35-21-9-7-20(8-10-21)30-17-15-29(16-18-30)13-4-12-27-24(33)19-32-25-22(5-2-11-28-25)31-14-3-6-23(31)26(32)34/h2-3,5-11,14H,4,12-13,15-19H2,1H3,(H,27,33)

>  <IUPAC Name>  (1) 
N-[3-[4-(4-methoxyphenyl)piperazin-1-yl]propyl]-2-(7-oxo-2,8,10-triazatricyclo[7.4.0.02,6]trideca-1(9),3,5,10,12-pentaen-8-yl)acetamide

$$$$
