
     RDKit          3D

 71 74  0  0  0  0  0  0  0  0999 V2000
    7.6793   -3.9648    0.8499 O   0  0  0  0  0  0  0  0  0  0  0  0
    7.6444   -2.5578    0.8666 C   0  0  2  0  0  0  0  0  0  0  0  0
    6.7793   -2.1426   -0.2883 C   0  0  1  0  0  0  0  0  0  0  0  0
    5.3429   -1.8676    0.1765 C   0  0  0  0  0  0  0  0  0  0  0  0
    4.5965   -1.3789   -0.8727 O   0  0  0  0  0  0  0  0  0  0  0  0
    2.9916   -1.0420   -0.4609 P   0  0  0  0  0  0  0  0  0  0  0  0
    2.8011   -1.0862    1.0564 O   0  0  0  0  0  0  0  0  0  0  0  0
    2.5831    0.4693   -1.0617 O   0  0  0  0  0  0  0  0  0  0  0  0
    1.2150    0.4355   -2.0151 P   0  0  0  0  0  0  0  0  0  0  0  0
    1.5497    1.0867   -3.3551 O   0  0  0  0  0  0  0  0  0  0  0  0
   -0.0169    1.3750   -1.3289 O   0  0  0  0  0  0  0  0  0  0  0  0
   -1.5061    0.6544   -1.6790 P   0  0  0  0  0  0  0  0  0  0  0  0
   -1.5755    0.1983   -3.1294 O   0  0  0  0  0  0  0  0  0  0  0  0
   -2.7997    1.6753   -1.3937 O   0  0  0  0  0  0  0  0  0  0  0  0
   -2.9937    2.0036    0.2541 P   0  0  0  0  0  0  0  0  0  0  0  0
   -2.4817    0.8130    1.0288 O   0  0  0  0  0  0  0  0  0  0  0  0
   -4.5980    2.2570    0.6653 O   0  0  0  0  0  0  0  0  0  0  0  0
   -5.5025    1.7499   -0.2345 C   0  0  0  0  0  0  0  0  0  0  0  0
   -6.9070    2.0395    0.2312 C   0  0  1  0  0  0  0  0  0  0  0  0
   -7.8758    1.5589   -0.6240 O   0  0  0  0  0  0  0  0  0  0  0  0
   -8.9791    1.2089    0.1113 C   0  0  2  0  0  0  0  0  0  0  0  0
   -8.7365    1.5654    1.5572 C   0  0  1  0  0  0  0  0  0  0  0  0
   -7.2057    1.4781    1.6019 C   0  0  2  0  0  0  0  0  0  0  0  0
   -6.6935    2.2774    2.6208 O   0  0  0  0  0  0  0  0  0  0  0  0
   -9.1148    2.8925    1.7273 O   0  0  0  0  0  0  0  0  0  0  0  0
   -9.1959   -0.2127   -0.0666 N   0  0  0  0  0  0  0  0  0  0  0  0
  -10.1395   -0.7864    0.7028 C   0  0  0  0  0  0  0  0  0  0  0  0
  -10.4265   -2.1503    0.6099 C   0  0  0  0  0  0  0  0  0  0  0  0
   -9.6846   -2.8839   -0.3206 C   0  0  0  0  0  0  0  0  0  0  0  0
   -9.9223   -4.1036   -0.4224 O   0  0  0  0  0  0  0  0  0  0  0  0
   -8.7379   -2.2825   -1.0854 N   0  0  0  0  0  0  0  0  0  0  0  0
   -8.5021   -0.9568   -0.9528 C   0  0  0  0  0  0  0  0  0  0  0  0
   -7.6257   -0.4168   -1.6652 O   0  0  0  0  0  0  0  0  0  0  0  0
   -2.0466    3.3493    0.7015 O   0  0  0  0  0  0  0  0  0  0  0  0
   -1.6618   -0.6751   -0.6506 O   0  0  0  0  0  0  0  0  0  0  0  0
    0.6136   -1.0893   -2.3290 O   0  0  0  0  0  0  0  0  0  0  0  0
    2.0432   -2.2344   -1.1889 O   0  0  0  0  0  0  0  0  0  0  0  0
    7.2600   -0.9155   -0.7242 O   0  0  0  0  0  0  0  0  0  0  0  0
    8.6305   -0.9218   -0.5465 C   0  0  2  0  0  0  0  0  0  0  0  0
    8.9816   -1.9968    0.4422 C   0  0  2  0  0  0  0  0  0  0  0  0
    9.6532   -3.0204   -0.2406 O   0  0  0  0  0  0  0  0  0  0  0  0
    9.0438    0.4014   -0.1518 N   0  0  0  0  0  0  0  0  0  0  0  0
    9.0964    0.7941    1.1542 C   0  0  0  0  0  0  0  0  0  0  0  0
    9.4962    2.0683    1.5056 C   0  0  0  0  0  0  0  0  0  0  0  0
    9.8568    2.9867    0.5303 C   0  0  0  0  0  0  0  0  0  0  0  0
   10.2211    4.1491    0.8547 O   0  0  0  0  0  0  0  0  0  0  0  0
    9.7936    2.5674   -0.7447 N   0  0  0  0  0  0  0  0  0  0  0  0
    9.4010    1.3191   -1.0737 C   0  0  0  0  0  0  0  0  0  0  0  0
    9.3519    0.9527   -2.2928 O   0  0  0  0  0  0  0  0  0  0  0  0
    7.9138   -4.3430    1.7262 H   0  0  0  0  0  0  0  0  0  0  0  0
    7.3244   -2.1609    1.8323 H   0  0  0  0  0  0  0  0  0  0  0  0
    6.7318   -2.9017   -1.0803 H   0  0  0  0  0  0  0  0  0  0  0  0
    4.8623   -2.7864    0.5716 H   0  0  0  0  0  0  0  0  0  0  0  0
    5.3480   -1.0998    0.9772 H   0  0  0  0  0  0  0  0  0  0  0  0
   -5.3084    0.6654   -0.3630 H   0  0  0  0  0  0  0  0  0  0  0  0
   -5.3761    2.2879   -1.1961 H   0  0  0  0  0  0  0  0  0  0  0  0
   -6.9751    3.1524    0.3180 H   0  0  0  0  0  0  0  0  0  0  0  0
   -9.8285    1.8079   -0.2534 H   0  0  0  0  0  0  0  0  0  0  0  0
   -9.2150    0.8670    2.2645 H   0  0  0  0  0  0  0  0  0  0  0  0
   -6.8940    0.4335    1.6392 H   0  0  0  0  0  0  0  0  0  0  0  0
   -6.3617    1.6418    3.3104 H   0  0  0  0  0  0  0  0  0  0  0  0
  -10.0229    3.0758    1.3694 H   0  0  0  0  0  0  0  0  0  0  0  0
  -10.7277   -0.2267    1.4345 H   0  0  0  0  0  0  0  0  0  0  0  0
  -11.1750   -2.6013    1.2212 H   0  0  0  0  0  0  0  0  0  0  0  0
   -8.2309   -2.8949   -1.7517 H   0  0  0  0  0  0  0  0  0  0  0  0
    9.0937   -1.1246   -1.5388 H   0  0  0  0  0  0  0  0  0  0  0  0
    9.6290   -1.6854    1.2644 H   0  0  0  0  0  0  0  0  0  0  0  0
    9.0931   -3.4744   -0.8939 H   0  0  0  0  0  0  0  0  0  0  0  0
    8.8182    0.0903    1.9342 H   0  0  0  0  0  0  0  0  0  0  0  0
    9.5482    2.4089    2.5300 H   0  0  0  0  0  0  0  0  0  0  0  0
   10.0567    3.2271   -1.5132 H   0  0  0  0  0  0  0  0  0  0  0  0
  1  2  1  0
  2  3  1  0
  3  4  1  0
  4  5  1  0
  5  6  1  0
  6  7  2  0
  6  8  1  0
  8  9  1  0
  9 10  2  0
  9 11  1  0
 11 12  1  0
 12 13  2  0
 12 14  1  0
 14 15  1  0
 15 16  2  0
 15 17  1  0
 17 18  1  0
 18 19  1  0
 19 20  1  0
 20 21  1  0
 21 22  1  0
 22 23  1  0
 23 24  1  0
 22 25  1  0
 21 26  1  0
 26 27  1  0
 27 28  2  0
 28 29  1  0
 29 30  2  0
 29 31  1  0
 31 32  1  0
 32 33  2  0
 15 34  1  0
 12 35  1  0
  9 36  1  0
  6 37  1  0
  3 38  1  0
 38 39  1  0
 39 40  1  0
 40 41  1  0
 39 42  1  0
 42 43  1  0
 43 44  2  0
 44 45  1  0
 45 46  2  0
 45 47  1  0
 47 48  1  0
 48 49  2  0
 40  2  1  0
 48 42  1  0
 23 19  1  0
 32 26  1  0
  1 50  1  0
  2 51  1  1
  3 52  1  6
  4 53  1  0
  4 54  1  0
 18 55  1  0
 18 56  1  0
 19 57  1  1
 21 58  1  6
 22 59  1  1
 23 60  1  6
 24 61  1  0
 25 62  1  0
 27 63  1  0
 28 64  1  0
 31 65  1  0
 39 66  1  6
 40 67  1  1
 41 68  1  0
 43 69  1  0
 44 70  1  0
 47 71  1  0
M  CHG  4  34  -1  35  -1  36  -1  37  -1
M  END
>  <Ligand ID>  (1) 
LIG0002809

>  <Ligand>  (1) 
CHEMBL1767408

>  <SMILES>  (1) 
O[C@@H]1[C@@H](COP(=O)(OP(=O)(OP(=O)(OP(=O)(OC[C@H]2O[C@H]([C@@H]([C@@H]2O)O)n2ccc(=O)[nH]c2=O)[O-])[O-])[O-])[O-])O[C@H]([C@@H]1O)n1ccc(=O)[nH]c1=O

>  <CID>  (1) 
91932423.0

>  <ChEMBL ID>  (1) 
nan

>  <InChiKey>  (1) 
NMLMACJWHPHKGR-NCOIDOBVSA-J

>  <InChi>  (1) 
InChI=1S/C18H26N4O23P4/c23-9-1-3-21(17(29)19-9)15-13(27)11(25)7(41-15)5-39-46(31,32)43-48(35,36)45-49(37,38)44-47(33,34)40-6-8-12(26)14(28)16(42-8)22-4-2-10(24)20-18(22)30/h1-4,7-8,11-16,25-28H,5-6H2,(H,31,32)(H,33,34)(H,35,36)(H,37,38)(H,19,23,29)(H,20,24,30)/p-4/t7-,8-,11-,12-,13-,14-,15-,16-/m1/s1

>  <IUPAC Name>  (1) 
[[(2R,3S,4R,5R)-5-(2,4-dioxopyrimidin-1-yl)-3,4-dihydroxyoxolan-2-yl]methoxy-oxidophosphoryl] [[[(2R,3S,4R,5R)-5-(2,4-dioxopyrimidin-1-yl)-3,4-dihydroxyoxolan-2-yl]methoxy-oxidophosphoryl]oxy-oxidophosphoryl] phosphate

$$$$
