
     RDKit          3D

 71 73  0  0  0  0  0  0  0  0999 V2000
   -6.4760   -1.2205    2.1502 C   0  0  0  0  0  0  0  0  0  0  0  0
   -5.9037   -1.6729    0.8207 C   0  0  0  0  0  0  0  0  0  0  0  0
   -5.6278   -0.6464   -0.0462 O   0  0  0  0  0  0  0  0  0  0  0  0
   -4.5074   -0.2037   -0.6479 C   0  0  0  0  0  0  0  0  0  0  0  0
   -3.3050   -0.8694   -0.4010 C   0  0  0  0  0  0  0  0  0  0  0  0
   -2.1139   -0.4718   -0.9841 C   0  0  0  0  0  0  0  0  0  0  0  0
   -2.1709    0.6164   -1.8231 C   0  0  0  0  0  0  0  0  0  0  0  0
   -3.3534    1.2693   -2.0644 C   0  0  0  0  0  0  0  0  0  0  0  0
   -4.5623    0.8824   -1.4856 C   0  0  0  0  0  0  0  0  0  0  0  0
   -5.7378    1.6502   -1.8148 C   0  0  0  0  0  0  0  0  0  0  0  0
   -5.6095    2.6404   -2.6234 O   0  0  0  0  0  0  0  0  0  0  0  0
   -7.0414    1.4342   -1.3407 N   0  0  0  0  0  0  0  0  0  0  0  0
   -8.3895    2.4355   -1.8148 S   0  0  0  0  0  0  0  0  0  0  0  0
   -8.0696    2.9639   -3.1838 O   0  0  0  0  0  0  0  0  0  0  0  0
   -9.6441    1.6161   -1.9033 O   0  0  0  0  0  0  0  0  0  0  0  0
   -8.5481    3.7912   -0.7113 C   0  0  0  0  0  0  0  0  0  0  0  0
   -0.8823   -1.1782   -0.7136 C   0  0  0  0  0  0  0  0  0  0  0  0
    0.1352   -1.2756   -1.6530 C   0  0  0  0  0  0  0  0  0  0  0  0
    1.3134   -1.9495   -1.4049 C   0  0  0  0  0  0  0  0  0  0  0  0
    1.5170   -2.5603   -0.1849 C   0  0  0  0  0  0  0  0  0  0  0  0
    0.5032   -2.4735    0.7757 C   0  0  0  0  0  0  0  0  0  0  0  0
   -0.6697   -1.7927    0.5052 C   0  0  0  0  0  0  0  0  0  0  0  0
    2.7310   -3.3043    0.1806 C   0  0  0  0  0  0  0  0  0  0  0  0
    3.7966   -2.4390    0.8212 C   0  0  0  0  0  0  0  0  0  0  0  0
    4.2536   -1.3701   -0.0176 N   0  0  0  0  0  0  0  0  0  0  0  0
    5.2743   -0.5343    0.5690 C   0  0  2  0  0  0  0  0  0  0  0  0
    5.6198    0.5221   -0.4318 C   0  0  1  0  0  0  0  0  0  0  0  0
    6.5755    1.5442    0.1090 C   0  0  0  0  0  0  0  0  0  0  0  0
    7.9467    1.3112    0.0705 C   0  0  0  0  0  0  0  0  0  0  0  0
    8.8591    2.2236    0.5587 C   0  0  0  0  0  0  0  0  0  0  0  0
    8.4265    3.4126    1.1077 C   0  0  0  0  0  0  0  0  0  0  0  0
    7.0628    3.6447    1.1461 C   0  0  0  0  0  0  0  0  0  0  0  0
    6.1389    2.7317    0.6571 C   0  0  0  0  0  0  0  0  0  0  0  0
    9.3607    4.3165    1.5930 O   0  0  0  0  0  0  0  0  0  0  0  0
    6.0986    0.0596   -1.6333 O   0  0  0  0  0  0  0  0  0  0  0  0
    6.5101   -1.2756    0.9452 C   0  0  0  0  0  0  0  0  0  0  0  0
   -6.8705   -2.7034    0.2731 C   0  0  0  0  0  0  0  0  0  0  0  0
   -6.4390   -0.1116    2.1824 H   0  0  0  0  0  0  0  0  0  0  0  0
   -5.9820   -1.7068    3.0197 H   0  0  0  0  0  0  0  0  0  0  0  0
   -7.5620   -1.4763    2.2406 H   0  0  0  0  0  0  0  0  0  0  0  0
   -4.9830   -2.2320    1.0682 H   0  0  0  0  0  0  0  0  0  0  0  0
   -3.2388   -1.7265    0.2546 H   0  0  0  0  0  0  0  0  0  0  0  0
   -1.2641    0.9489   -2.2902 H   0  0  0  0  0  0  0  0  0  0  0  0
   -3.2982    2.1226   -2.7450 H   0  0  0  0  0  0  0  0  0  0  0  0
   -7.2562    0.6688   -0.6877 H   0  0  0  0  0  0  0  0  0  0  0  0
   -9.2953    3.5774    0.0643 H   0  0  0  0  0  0  0  0  0  0  0  0
   -8.7688    4.7520   -1.2535 H   0  0  0  0  0  0  0  0  0  0  0  0
   -7.5564    3.9712   -0.2352 H   0  0  0  0  0  0  0  0  0  0  0  0
   -0.0431   -0.7889   -2.6067 H   0  0  0  0  0  0  0  0  0  0  0  0
    2.0946   -2.0159   -2.1459 H   0  0  0  0  0  0  0  0  0  0  0  0
    0.6417   -2.9452    1.7400 H   0  0  0  0  0  0  0  0  0  0  0  0
   -1.4201   -1.7588    1.2890 H   0  0  0  0  0  0  0  0  0  0  0  0
    2.4738   -4.0845    0.9330 H   0  0  0  0  0  0  0  0  0  0  0  0
    3.1040   -3.8279   -0.7189 H   0  0  0  0  0  0  0  0  0  0  0  0
    3.2679   -1.9352    1.6839 H   0  0  0  0  0  0  0  0  0  0  0  0
    4.5925   -3.0220    1.2816 H   0  0  0  0  0  0  0  0  0  0  0  0
    3.4846   -0.7975   -0.4116 H   0  0  0  0  0  0  0  0  0  0  0  0
    4.8807   -0.0465    1.4655 H   0  0  0  0  0  0  0  0  0  0  0  0
    4.6846    1.1062   -0.6734 H   0  0  0  0  0  0  0  0  0  0  0  0
    8.3658    0.3968   -0.3480 H   0  0  0  0  0  0  0  0  0  0  0  0
    9.9233    2.0327    0.5239 H   0  0  0  0  0  0  0  0  0  0  0  0
    6.7528    4.5826    1.5809 H   0  0  0  0  0  0  0  0  0  0  0  0
    5.0916    2.9632    0.7122 H   0  0  0  0  0  0  0  0  0  0  0  0
    9.6406    4.1735    2.5732 H   0  0  0  0  0  0  0  0  0  0  0  0
    6.2991   -0.9034   -1.6385 H   0  0  0  0  0  0  0  0  0  0  0  0
    6.3351   -2.0723    1.7192 H   0  0  0  0  0  0  0  0  0  0  0  0
    7.1583   -0.5335    1.4998 H   0  0  0  0  0  0  0  0  0  0  0  0
    7.1220   -1.6397    0.1048 H   0  0  0  0  0  0  0  0  0  0  0  0
   -6.8337   -3.6365    0.8702 H   0  0  0  0  0  0  0  0  0  0  0  0
   -7.8913   -2.2856    0.3929 H   0  0  0  0  0  0  0  0  0  0  0  0
   -6.7213   -2.8736   -0.8134 H   0  0  0  0  0  0  0  0  0  0  0  0
  1  2  1  0
  2  3  1  0
  3  4  1  0
  4  5  2  0
  5  6  1  0
  6  7  2  0
  7  8  1  0
  8  9  2  0
  9 10  1  0
 10 11  2  0
 10 12  1  0
 12 13  1  0
 13 14  2  0
 13 15  2  0
 13 16  1  0
  6 17  1  0
 17 18  2  0
 18 19  1  0
 19 20  2  0
 20 21  1  0
 21 22  2  0
 20 23  1  0
 23 24  1  0
 24 25  1  0
 25 26  1  0
 26 27  1  0
 27 28  1  0
 28 29  2  0
 29 30  1  0
 30 31  2  0
 31 32  1  0
 32 33  2  0
 31 34  1  0
 27 35  1  0
 26 36  1  0
  2 37  1  0
  9  4  1  0
 22 17  1  0
 33 28  1  0
  1 38  1  0
  1 39  1  0
  1 40  1  0
  2 41  1  0
  5 42  1  0
  7 43  1  0
  8 44  1  0
 12 45  1  0
 16 46  1  0
 16 47  1  0
 16 48  1  0
 18 49  1  0
 19 50  1  0
 21 51  1  0
 22 52  1  0
 23 53  1  0
 23 54  1  0
 24 55  1  0
 24 56  1  0
 25 57  1  0
 26 58  1  1
 27 59  1  6
 29 60  1  0
 30 61  1  0
 32 62  1  0
 33 63  1  0
 34 64  1  0
 35 65  1  0
 36 66  1  0
 36 67  1  0
 36 68  1  0
 37 69  1  0
 37 70  1  0
 37 71  1  0
M  END
>  <Ligand ID>  (1) 
LIG0001088

>  <Ligand>  (1) 
CHEMBL551272

>  <SMILES>  (1) 
CC(Oc1cc(ccc1C(=O)NS(=O)(=O)C)c1ccc(cc1)CCN[C@H]([C@@H](c1ccc(cc1)O)O)C)C

>  <CID>  (1) 
45101537.0

>  <ChEMBL ID>  (1) 
nan

>  <InChiKey>  (1) 
RORJDCFUMCDAJV-PPHZAIPVSA-N

>  <InChi>  (1) 
InChI=1S/C28H34N2O6S/c1-18(2)36-26-17-23(11-14-25(26)28(33)30-37(4,34)35)21-7-5-20(6-8-21)15-16-29-19(3)27(32)22-9-12-24(31)13-10-22/h5-14,17-19,27,29,31-32H,15-16H2,1-4H3,(H,30,33)/t19-,27-/m0/s1

>  <IUPAC Name>  (1) 
4-[4-[2-[[(1R,2S)-1-hydroxy-1-(4-hydroxyphenyl)propan-2-yl]amino]ethyl]phenyl]-N-methylsulfonyl-2-propan-2-yloxybenzamide

$$$$
