
     RDKit          3D

120123  0  0  0  0  0  0  0  0999 V2000
   11.5422    6.1876   -1.6956 C   0  0  0  0  0  0  0  0  0  0  0  0
   10.1921    5.5144   -1.5486 C   0  0  0  0  0  0  0  0  0  0  0  0
   10.3641    4.0314   -1.2974 C   0  0  0  0  0  0  0  0  0  0  0  0
    8.9425    3.4087   -1.1545 C   0  0  0  0  0  0  0  0  0  0  0  0
    9.1632    1.9760   -0.9264 C   0  0  0  0  0  0  0  0  0  0  0  0
    8.0767    1.0058   -0.8033 C   0  0  0  0  0  0  0  0  0  0  0  0
    7.0990    1.1325    0.2802 C   0  0  0  0  0  0  0  0  0  0  0  0
    6.1931    2.3109    0.3269 C   0  0  0  0  0  0  0  0  0  0  0  0
    5.3100    2.1671    1.5603 C   0  0  0  0  0  0  0  0  0  0  0  0
    4.4673    0.9470    1.5764 C   0  0  0  0  0  0  0  0  0  0  0  0
    3.4884    0.8496    0.4475 C   0  0  0  0  0  0  0  0  0  0  0  0
    3.3439    1.7474   -0.4168 O   0  0  0  0  0  0  0  0  0  0  0  0
    2.7176   -0.3449    0.4160 N   0  0  0  0  0  0  0  0  0  0  0  0
    1.7059   -0.6523   -0.5712 C   0  0  2  0  0  0  0  0  0  0  0  0
    0.4147   -0.9231    0.0669 C   0  0  0  0  0  0  0  0  0  0  0  0
    0.3603   -0.6995    1.3345 O   0  0  0  0  0  0  0  0  0  0  0  0
   -0.7664   -1.3996   -0.5501 N   0  0  0  0  0  0  0  0  0  0  0  0
   -1.9150   -1.5707    0.3178 C   0  0  1  0  0  0  0  0  0  0  0  0
   -3.2199   -1.4136   -0.2761 C   0  0  0  0  0  0  0  0  0  0  0  0
   -4.2408   -1.5355    0.5000 O   0  0  0  0  0  0  0  0  0  0  0  0
   -3.4774   -1.1289   -1.6666 N   0  0  0  0  0  0  0  0  0  0  0  0
   -4.7910   -0.9665   -2.2125 C   0  0  2  0  0  0  0  0  0  0  0  0
   -5.6453    0.0366   -1.5120 C   0  0  0  0  0  0  0  0  0  0  0  0
   -6.8830    0.0977   -1.7598 O   0  0  0  0  0  0  0  0  0  0  0  0
   -5.1487    0.9596   -0.5580 N   0  0  0  0  0  0  0  0  0  0  0  0
   -6.0750    1.9139    0.0963 C   0  0  2  0  0  0  0  0  0  0  0  0
   -6.0256    3.1867   -0.6447 C   0  0  0  0  0  0  0  0  0  0  0  0
   -6.9310    4.0444   -0.3458 O   0  0  0  0  0  0  0  0  0  0  0  0
   -5.0558    3.4977   -1.6388 N   0  0  0  0  0  0  0  0  0  0  0  0
   -5.7124    2.0825    1.5288 C   0  0  0  0  0  0  0  0  0  0  0  0
   -4.3475    2.5637    1.7822 C   0  0  0  0  0  0  0  0  0  0  0  0
   -3.3001    1.6746    2.0866 C   0  0  0  0  0  0  0  0  0  0  0  0
   -2.1530    2.3774    2.2292 N   0  0  0  0  0  0  0  0  0  0  0  0
   -2.3949    3.7033    2.0322 C   0  0  0  0  0  0  0  0  0  0  0  0
   -3.7519    3.7892    1.7598 C   0  0  0  0  0  0  0  0  0  0  0  0
   -4.2530    5.0407    1.5305 C   0  0  0  0  0  0  0  0  0  0  0  0
   -3.4881    6.1948    1.5535 C   0  0  0  0  0  0  0  0  0  0  0  0
   -2.1478    6.0543    1.8261 C   0  0  0  0  0  0  0  0  0  0  0  0
   -1.5696    4.8165    2.0707 C   0  0  0  0  0  0  0  0  0  0  0  0
   -5.4978   -2.1666   -2.7013 C   0  0  0  0  0  0  0  0  0  0  0  0
   -5.7570   -3.2562   -1.7126 C   0  0  0  0  0  0  0  0  0  0  0  0
   -6.5019   -4.4300   -2.3087 C   0  0  0  0  0  0  0  0  0  0  0  0
   -5.7858   -5.0430   -3.3782 N   0  0  0  0  0  0  0  0  0  0  0  0
   -5.7996   -6.3266   -3.6269 C   0  0  0  0  0  0  0  0  0  0  0  0
   -5.0078   -6.7322   -4.7537 N   0  0  0  0  0  0  0  0  0  0  0  0
   -6.5412   -7.2471   -2.8400 N   0  0  0  0  0  0  0  0  0  0  0  0
   -1.7780   -2.9613    0.9621 C   0  0  0  0  0  0  0  0  0  0  0  0
   -2.8835   -3.2579    1.8963 C   0  0  0  0  0  0  0  0  0  0  0  0
   -2.7903   -2.7454    3.1921 C   0  0  0  0  0  0  0  0  0  0  0  0
   -3.7856   -3.0085    4.0999 C   0  0  0  0  0  0  0  0  0  0  0  0
   -4.8923   -3.7621    3.8056 C   0  0  0  0  0  0  0  0  0  0  0  0
   -4.9851   -4.2711    2.5216 C   0  0  0  0  0  0  0  0  0  0  0  0
   -3.9906   -4.0079    1.6153 C   0  0  0  0  0  0  0  0  0  0  0  0
    2.1431   -1.8422   -1.3721 C   0  0  0  0  0  0  0  0  0  0  0  0
    2.3591   -3.0750   -0.5883 C   0  0  0  0  0  0  0  0  0  0  0  0
    3.5243   -3.4674    0.0065 N   0  0  0  0  0  0  0  0  0  0  0  0
    3.3270   -4.6602    0.6233 C   0  0  0  0  0  0  0  0  0  0  0  0
    2.0519   -5.0510    0.4404 N   0  0  0  0  0  0  0  0  0  0  0  0
    1.4513   -4.0993   -0.2933 C   0  0  0  0  0  0  0  0  0  0  0  0
   11.3753    7.2464   -2.0127 H   0  0  0  0  0  0  0  0  0  0  0  0
   12.1634    5.6647   -2.4338 H   0  0  0  0  0  0  0  0  0  0  0  0
   12.0391    6.2123   -0.7101 H   0  0  0  0  0  0  0  0  0  0  0  0
    9.6003    5.6581   -2.4638 H   0  0  0  0  0  0  0  0  0  0  0  0
    9.6536    5.9611   -0.6966 H   0  0  0  0  0  0  0  0  0  0  0  0
   10.8579    3.4979   -2.1215 H   0  0  0  0  0  0  0  0  0  0  0  0
   10.8215    3.8654   -0.3014 H   0  0  0  0  0  0  0  0  0  0  0  0
    8.5505    3.9997   -0.2849 H   0  0  0  0  0  0  0  0  0  0  0  0
    8.3565    3.5914   -2.0663 H   0  0  0  0  0  0  0  0  0  0  0  0
    9.7808    1.8758    0.0465 H   0  0  0  0  0  0  0  0  0  0  0  0
    9.8731    1.6366   -1.7640 H   0  0  0  0  0  0  0  0  0  0  0  0
    8.5780   -0.0210   -0.6611 H   0  0  0  0  0  0  0  0  0  0  0  0
    7.5290    0.8731   -1.8016 H   0  0  0  0  0  0  0  0  0  0  0  0
    7.6151    1.0294    1.2978 H   0  0  0  0  0  0  0  0  0  0  0  0
    6.4330    0.2128    0.2744 H   0  0  0  0  0  0  0  0  0  0  0  0
    5.5785    2.2832   -0.6050 H   0  0  0  0  0  0  0  0  0  0  0  0
    6.6601    3.2945    0.4197 H   0  0  0  0  0  0  0  0  0  0  0  0
    4.6780    3.0697    1.7020 H   0  0  0  0  0  0  0  0  0  0  0  0
    6.0112    2.1722    2.4305 H   0  0  0  0  0  0  0  0  0  0  0  0
    5.0927    0.0491    1.6761 H   0  0  0  0  0  0  0  0  0  0  0  0
    3.8657    0.9553    2.5354 H   0  0  0  0  0  0  0  0  0  0  0  0
    2.8623   -1.1003    1.1551 H   0  0  0  0  0  0  0  0  0  0  0  0
    1.6566    0.2221   -1.2636 H   0  0  0  0  0  0  0  0  0  0  0  0
   -0.7401   -1.5924   -1.5603 H   0  0  0  0  0  0  0  0  0  0  0  0
   -1.8005   -0.8881    1.2052 H   0  0  0  0  0  0  0  0  0  0  0  0
   -2.5806   -1.0540   -2.2443 H   0  0  0  0  0  0  0  0  0  0  0  0
   -4.5604   -0.3805   -3.1987 H   0  0  0  0  0  0  0  0  0  0  0  0
   -4.1562    1.0144   -0.2899 H   0  0  0  0  0  0  0  0  0  0  0  0
   -7.1021    1.4815   -0.0494 H   0  0  0  0  0  0  0  0  0  0  0  0
   -4.1284    3.9367   -1.3872 H   0  0  0  0  0  0  0  0  0  0  0  0
   -5.2579    3.2886   -2.6560 H   0  0  0  0  0  0  0  0  0  0  0  0
   -6.3997    2.8886    1.9355 H   0  0  0  0  0  0  0  0  0  0  0  0
   -5.9582    1.1973    2.1542 H   0  0  0  0  0  0  0  0  0  0  0  0
   -3.3486    0.6193    2.2022 H   0  0  0  0  0  0  0  0  0  0  0  0
   -1.1856    2.0241    2.4558 H   0  0  0  0  0  0  0  0  0  0  0  0
   -5.2906    5.1573    1.3369 H   0  0  0  0  0  0  0  0  0  0  0  0
   -3.9328    7.1859    1.3629 H   0  0  0  0  0  0  0  0  0  0  0  0
   -1.5674    6.9822    1.8357 H   0  0  0  0  0  0  0  0  0  0  0  0
   -0.5067    4.7460    2.2842 H   0  0  0  0  0  0  0  0  0  0  0  0
   -4.9014   -2.5679   -3.5758 H   0  0  0  0  0  0  0  0  0  0  0  0
   -6.4833   -1.9259   -3.1701 H   0  0  0  0  0  0  0  0  0  0  0  0
   -6.2024   -2.9385   -0.7753 H   0  0  0  0  0  0  0  0  0  0  0  0
   -4.7329   -3.6864   -1.4572 H   0  0  0  0  0  0  0  0  0  0  0  0
   -6.5573   -5.1959   -1.4841 H   0  0  0  0  0  0  0  0  0  0  0  0
   -7.5535   -4.1646   -2.5490 H   0  0  0  0  0  0  0  0  0  0  0  0
   -5.2985   -6.5084   -5.7275 H   0  0  0  0  0  0  0  0  0  0  0  0
   -4.1160   -7.2677   -4.5257 H   0  0  0  0  0  0  0  0  0  0  0  0
   -6.0992   -8.1241   -2.4759 H   0  0  0  0  0  0  0  0  0  0  0  0
   -7.5540   -7.1014   -2.5846 H   0  0  0  0  0  0  0  0  0  0  0  0
   -1.8236   -3.7105    0.1244 H   0  0  0  0  0  0  0  0  0  0  0  0
   -0.7949   -3.0813    1.4365 H   0  0  0  0  0  0  0  0  0  0  0  0
   -1.9201   -2.1464    3.4439 H   0  0  0  0  0  0  0  0  0  0  0  0
   -3.7253   -2.6083    5.1174 H   0  0  0  0  0  0  0  0  0  0  0  0
   -5.6933   -3.9869    4.4905 H   0  0  0  0  0  0  0  0  0  0  0  0
   -5.8563   -4.8798    2.2402 H   0  0  0  0  0  0  0  0  0  0  0  0
   -4.0851   -4.4252    0.6372 H   0  0  0  0  0  0  0  0  0  0  0  0
    3.0742   -1.6412   -1.9507 H   0  0  0  0  0  0  0  0  0  0  0  0
    1.2944   -2.0707   -2.0724 H   0  0  0  0  0  0  0  0  0  0  0  0
    4.4109   -2.8958   -0.0360 H   0  0  0  0  0  0  0  0  0  0  0  0
    4.1314   -5.1499    1.1559 H   0  0  0  0  0  0  0  0  0  0  0  0
    0.4214   -4.0462   -0.6518 H   0  0  0  0  0  0  0  0  0  0  0  0
  1  2  1  0
  2  3  1  0
  3  4  1  0
  4  5  1  0
  5  6  1  0
  6  7  1  0
  7  8  1  0
  8  9  1  0
  9 10  1  0
 10 11  1  0
 11 12  2  0
 11 13  1  0
 13 14  1  0
 14 15  1  0
 15 16  2  0
 15 17  1  0
 17 18  1  0
 18 19  1  0
 19 20  2  0
 19 21  1  0
 21 22  1  0
 22 23  1  0
 23 24  2  0
 23 25  1  0
 25 26  1  0
 26 27  1  0
 27 28  2  0
 27 29  1  0
 26 30  1  0
 30 31  1  0
 31 32  2  0
 32 33  1  0
 33 34  1  0
 34 35  2  0
 35 36  1  0
 36 37  2  0
 37 38  1  0
 38 39  2  0
 22 40  1  0
 40 41  1  0
 41 42  1  0
 42 43  1  0
 43 44  2  3
 44 45  1  0
 44 46  1  0
 18 47  1  0
 47 48  1  0
 48 49  2  0
 49 50  1  0
 50 51  2  0
 51 52  1  0
 52 53  2  0
 14 54  1  0
 54 55  1  0
 55 56  1  0
 56 57  1  0
 57 58  2  0
 58 59  1  0
 35 31  1  0
 53 48  1  0
 59 55  2  0
 39 34  1  0
  1 60  1  0
  1 61  1  0
  1 62  1  0
  2 63  1  0
  2 64  1  0
  3 65  1  0
  3 66  1  0
  4 67  1  0
  4 68  1  0
  5 69  1  0
  5 70  1  0
  6 71  1  0
  6 72  1  0
  7 73  1  0
  7 74  1  0
  8 75  1  0
  8 76  1  0
  9 77  1  0
  9 78  1  0
 10 79  1  0
 10 80  1  0
 13 81  1  0
 14 82  1  6
 17 83  1  0
 18 84  1  1
 21 85  1  0
 22 86  1  6
 25 87  1  0
 26 88  1  1
 29 89  1  0
 29 90  1  0
 30 91  1  0
 30 92  1  0
 32 93  1  0
 33 94  1  0
 36 95  1  0
 37 96  1  0
 38 97  1  0
 39 98  1  0
 40 99  1  0
 40100  1  0
 41101  1  0
 41102  1  0
 42103  1  0
 42104  1  0
 45105  1  0
 45106  1  0
 46107  1  0
 46108  1  0
 47109  1  0
 47110  1  0
 49111  1  0
 50112  1  0
 51113  1  0
 52114  1  0
 53115  1  0
 54116  1  0
 54117  1  0
 56118  1  0
 57119  1  0
 59120  1  0
M  END
>  <Ligand ID>  (1) 
LIG0001884

>  <Ligand>  (1) 
CHEMBL194217

>  <SMILES>  (1) 
CCCCCCCCCCC(=O)N[C@H](C(=O)N[C@@H](C(=O)N[C@H](C(=O)N[C@H](C(=O)N)Cc1c[nH]c2c1cccc2)CCCN=C(N)N)Cc1ccccc1)Cc1[nH]cnc1

>  <CID>  (1) 
11787684.0

>  <ChEMBL ID>  (1) 
nan

>  <InChiKey>  (1) 
KKCJAOUVBPLGAL-FBBJYXRJSA-N

>  <InChi>  (1) 
InChI=1S/C43H61N11O5/c1-2-3-4-5-6-7-8-12-21-38(55)51-37(25-31-27-47-28-50-31)42(59)54-36(23-29-16-10-9-11-17-29)41(58)52-34(20-15-22-48-43(45)46)40(57)53-35(39(44)56)24-30-26-49-33-19-14-13-18-32(30)33/h9-11,13-14,16-19,26-28,34-37,49H,2-8,12,15,20-25H2,1H3,(H2,44,56)(H,47,50)(H,51,55)(H,52,58)(H,53,57)(H,54,59)(H4,45,46,48)/t34-,35-,36+,37-/m0/s1

>  <IUPAC Name>  (1) 
N-[(2S)-1-[[(2R)-1-[[(2S)-1-[[(2S)-1-amino-3-(1H-indol-3-yl)-1-oxopropan-2-yl]amino]-5-(diaminomethylideneamino)-1-oxopentan-2-yl]amino]-1-oxo-3-phenylpropan-2-yl]amino]-3-(1H-imidazol-5-yl)-1-oxopropan-2-yl]undecanamide

$$$$
