
     RDKit          3D

 29 30  0  0  0  0  0  0  0  0999 V2000
   -2.9850   -0.6775    0.5960 C   0  0  0  0  0  0  0  0  0  0  0  0
   -2.6617    0.8046    0.5024 C   0  0  0  0  0  0  0  0  0  0  0  0
   -1.7747    1.0137   -0.7069 C   0  0  0  0  0  0  0  0  0  0  0  0
   -0.5122    0.2549   -0.6129 C   0  0  0  0  0  0  0  0  0  0  0  0
   -0.3634   -1.0362   -1.0884 C   0  0  0  0  0  0  0  0  0  0  0  0
    0.8709   -1.6741   -0.9544 C   0  0  0  0  0  0  0  0  0  0  0  0
    1.9358   -1.0376   -0.3582 C   0  0  0  0  0  0  0  0  0  0  0  0
    1.7913    0.2581    0.1206 C   0  0  0  0  0  0  0  0  0  0  0  0
    0.5692    0.8808   -0.0157 C   0  0  0  0  0  0  0  0  0  0  0  0
    2.8492    0.9188    0.7243 C   0  0  0  0  0  0  0  0  0  0  0  0
    4.0806    0.3051    0.8672 C   0  0  0  0  0  0  0  0  0  0  0  0
    4.2303   -0.9920    0.3895 C   0  0  0  0  0  0  0  0  0  0  0  0
    3.1747   -1.6588   -0.2160 C   0  0  0  0  0  0  0  0  0  0  0  0
   -3.9195    1.4722    0.3519 N   0  0  0  0  0  0  0  0  0  0  0  0
   -3.5895   -0.8993   -0.3266 H   0  0  0  0  0  0  0  0  0  0  0  0
   -3.6911   -0.8806    1.4278 H   0  0  0  0  0  0  0  0  0  0  0  0
   -2.0738   -1.2742    0.6882 H   0  0  0  0  0  0  0  0  0  0  0  0
   -2.1871    1.1854    1.4293 H   0  0  0  0  0  0  0  0  0  0  0  0
   -2.2957    0.6961   -1.6272 H   0  0  0  0  0  0  0  0  0  0  0  0
   -1.5789    2.1045   -0.8056 H   0  0  0  0  0  0  0  0  0  0  0  0
   -1.1906   -1.5321   -1.5521 H   0  0  0  0  0  0  0  0  0  0  0  0
    1.0247   -2.6885   -1.3163 H   0  0  0  0  0  0  0  0  0  0  0  0
    0.4622    1.8876    0.3579 H   0  0  0  0  0  0  0  0  0  0  0  0
    2.7361    1.9287    1.0973 H   0  0  0  0  0  0  0  0  0  0  0  0
    4.8976    0.8397    1.3434 H   0  0  0  0  0  0  0  0  0  0  0  0
    5.1988   -1.4694    0.5040 H   0  0  0  0  0  0  0  0  0  0  0  0
    3.3145   -2.6631   -0.5782 H   0  0  0  0  0  0  0  0  0  0  0  0
   -4.4177    1.6595    1.2252 H   0  0  0  0  0  0  0  0  0  0  0  0
   -3.8948    2.2738   -0.3128 H   0  0  0  0  0  0  0  0  0  0  0  0
  1  2  1  0
  2  3  1  0
  3  4  1  0
  4  5  2  0
  5  6  1  0
  6  7  2  0
  7  8  1  0
  8  9  2  0
  8 10  1  0
 10 11  2  0
 11 12  1  0
 12 13  2  0
  2 14  1  0
  9  4  1  0
 13  7  1  0
  1 15  1  0
  1 16  1  0
  1 17  1  0
  2 18  1  0
  3 19  1  0
  3 20  1  0
  5 21  1  0
  6 22  1  0
  9 23  1  0
 10 24  1  0
 11 25  1  0
 12 26  1  0
 13 27  1  0
 14 28  1  0
 14 29  1  0
M  END
>  <Ligand ID>  (1) 
LIG0003526

>  <Ligand>  (1) 
1-(naphthalen-2-yl)propan-2-amine

>  <SMILES>  (1) 
CC(Cc1ccc2c(c1)cccc2)N

>  <CID>  (1) 
10219723.0

>  <ChEMBL ID>  (1) 
nan

>  <InChiKey>  (1) 
UPQSZFKXKRKCGZ-UHFFFAOYSA-N

>  <InChi>  (1) 
InChI=1S/C13H15N/c1-10(14)8-11-6-7-12-4-2-3-5-13(12)9-11/h2-7,9-10H,8,14H2,1H3

>  <IUPAC Name>  (1) 
1-naphthalen-2-ylpropan-2-amine

$$$$
