
     RDKit          3D

 75 79  0  0  0  0  0  0  0  0999 V2000
    9.7467    3.6150   -2.3060 N   0  0  0  0  0  0  0  0  0  0  0  0
   10.1883    2.5132   -1.4804 C   0  0  0  0  0  0  0  0  0  0  0  0
    8.9760    1.8038   -0.9906 C   0  0  0  0  0  0  0  0  0  0  0  0
    8.3631    2.1537    0.1961 C   0  0  0  0  0  0  0  0  0  0  0  0
    7.2362    1.5167    0.6787 C   0  0  0  0  0  0  0  0  0  0  0  0
    6.6715    0.4711   -0.0437 C   0  0  0  0  0  0  0  0  0  0  0  0
    7.2892    0.1239   -1.2317 C   0  0  0  0  0  0  0  0  0  0  0  0
    8.4076    0.7552   -1.7121 C   0  0  0  0  0  0  0  0  0  0  0  0
    5.4785   -0.2173    0.4462 C   0  0  0  0  0  0  0  0  0  0  0  0
    4.3811    0.4442    0.9519 C   0  0  0  0  0  0  0  0  0  0  0  0
    3.2565   -0.2352    1.4099 C   0  0  0  0  0  0  0  0  0  0  0  0
    3.3068   -1.6095    1.3281 C   0  0  0  0  0  0  0  0  0  0  0  0
    4.4060   -2.2923    0.8203 C   0  0  0  0  0  0  0  0  0  0  0  0
    5.5154   -1.6116    0.3687 C   0  0  0  0  0  0  0  0  0  0  0  0
    6.6196   -2.2688   -0.1399 O   0  0  0  0  0  0  0  0  0  0  0  0
    6.6177   -3.6646   -0.2003 C   0  0  0  0  0  0  0  0  0  0  0  0
    2.1653    0.4912    1.9370 N   0  0  0  0  0  0  0  0  0  0  0  0
    0.8265    0.0493    1.9932 C   0  0  0  0  0  0  0  0  0  0  0  0
   -0.0344    0.5495    2.9768 C   0  0  0  0  0  0  0  0  0  0  0  0
   -1.3514    0.1550    3.0562 C   0  0  0  0  0  0  0  0  0  0  0  0
   -1.9032   -0.7523    2.1770 C   0  0  0  0  0  0  0  0  0  0  0  0
   -1.0589   -1.2576    1.1929 C   0  0  0  0  0  0  0  0  0  0  0  0
    0.2653   -0.8555    1.1197 C   0  0  0  0  0  0  0  0  0  0  0  0
   -3.3069   -1.1446    2.3166 C   0  0  0  0  0  0  0  0  0  0  0  0
   -4.1954   -0.2126    1.5237 C   0  0  0  0  0  0  0  0  0  0  0  0
   -3.9472   -0.1648    0.1348 N   0  0  0  0  0  0  0  0  0  0  0  0
   -4.2182   -1.2819   -0.6667 C   0  0  0  0  0  0  0  0  0  0  0  0
   -5.6695   -1.6596   -0.8801 C   0  0  1  0  0  0  0  0  0  0  0  0
   -6.4336   -0.5838   -1.5362 C   0  0  0  0  0  0  0  0  0  0  0  0
   -6.0964   -0.3079   -2.8670 C   0  0  0  0  0  0  0  0  0  0  0  0
   -6.7455    0.7098   -3.5457 C   0  0  0  0  0  0  0  0  0  0  0  0
   -7.7242    1.4788   -2.9677 C   0  0  0  0  0  0  0  0  0  0  0  0
   -8.0493    1.1976   -1.6548 C   0  0  0  0  0  0  0  0  0  0  0  0
   -7.4078    0.1833   -0.9671 C   0  0  0  0  0  0  0  0  0  0  0  0
   -7.7897   -0.0454    0.3221 C   0  0  0  0  0  0  0  0  0  0  0  0
   -8.7828    0.7402    0.8626 C   0  0  0  0  0  0  0  0  0  0  0  0
   -9.4189    1.7507    0.1746 C   0  0  0  0  0  0  0  0  0  0  0  0
  -10.3229    2.4589    0.6834 O   0  0  0  0  0  0  0  0  0  0  0  0
   -9.0164    1.9494   -1.1011 N   0  0  0  0  0  0  0  0  0  0  0  0
   -8.3586    2.5000   -3.6857 O   0  0  0  0  0  0  0  0  0  0  0  0
   -5.6153   -2.8076   -1.7136 O   0  0  0  0  0  0  0  0  0  0  0  0
    9.2867    3.2416   -3.1424 H   0  0  0  0  0  0  0  0  0  0  0  0
    9.0598    4.1847   -1.7414 H   0  0  0  0  0  0  0  0  0  0  0  0
   10.7807    1.8186   -2.1376 H   0  0  0  0  0  0  0  0  0  0  0  0
   10.7927    2.8541   -0.6108 H   0  0  0  0  0  0  0  0  0  0  0  0
    8.7868    2.9640    0.7720 H   0  0  0  0  0  0  0  0  0  0  0  0
    6.7748    1.8146    1.6184 H   0  0  0  0  0  0  0  0  0  0  0  0
    6.8894   -0.6847   -1.8337 H   0  0  0  0  0  0  0  0  0  0  0  0
    8.8965    0.4837   -2.6485 H   0  0  0  0  0  0  0  0  0  0  0  0
    4.4479    1.5320    0.9702 H   0  0  0  0  0  0  0  0  0  0  0  0
    2.4921   -2.2141    1.6701 H   0  0  0  0  0  0  0  0  0  0  0  0
    4.3820   -3.3848    0.7822 H   0  0  0  0  0  0  0  0  0  0  0  0
    7.6679   -3.9955   -0.3930 H   0  0  0  0  0  0  0  0  0  0  0  0
    5.9361   -4.0181   -1.0164 H   0  0  0  0  0  0  0  0  0  0  0  0
    6.2842   -4.1102    0.7594 H   0  0  0  0  0  0  0  0  0  0  0  0
    2.3636    1.4549    2.3290 H   0  0  0  0  0  0  0  0  0  0  0  0
    0.3693    1.2647    3.6844 H   0  0  0  0  0  0  0  0  0  0  0  0
   -1.9784    0.5751    3.8407 H   0  0  0  0  0  0  0  0  0  0  0  0
   -1.4917   -1.9621    0.5121 H   0  0  0  0  0  0  0  0  0  0  0  0
    0.8472   -1.2883    0.3155 H   0  0  0  0  0  0  0  0  0  0  0  0
   -3.4888   -2.2108    2.1273 H   0  0  0  0  0  0  0  0  0  0  0  0
   -3.6038   -0.9820    3.3898 H   0  0  0  0  0  0  0  0  0  0  0  0
   -5.2477   -0.3655    1.7793 H   0  0  0  0  0  0  0  0  0  0  0  0
   -3.9357    0.8186    1.9256 H   0  0  0  0  0  0  0  0  0  0  0  0
   -3.1755    0.4416   -0.1831 H   0  0  0  0  0  0  0  0  0  0  0  0
   -3.7482   -1.0824   -1.6805 H   0  0  0  0  0  0  0  0  0  0  0  0
   -3.7153   -2.2245   -0.3476 H   0  0  0  0  0  0  0  0  0  0  0  0
   -6.0763   -1.9018    0.0924 H   0  0  0  0  0  0  0  0  0  0  0  0
   -5.3326   -0.8835   -3.3665 H   0  0  0  0  0  0  0  0  0  0  0  0
   -6.4396    0.8801   -4.5869 H   0  0  0  0  0  0  0  0  0  0  0  0
   -7.3729   -0.8061    0.9413 H   0  0  0  0  0  0  0  0  0  0  0  0
   -9.1213    0.5918    1.8960 H   0  0  0  0  0  0  0  0  0  0  0  0
   -9.5064    2.7214   -1.6183 H   0  0  0  0  0  0  0  0  0  0  0  0
   -8.5479    3.4123   -3.2862 H   0  0  0  0  0  0  0  0  0  0  0  0
   -5.5464   -3.5768   -1.0802 H   0  0  0  0  0  0  0  0  0  0  0  0
  1  2  1  0
  2  3  1  0
  3  4  2  0
  4  5  1  0
  5  6  2  0
  6  7  1  0
  7  8  2  0
  6  9  1  0
  9 10  2  0
 10 11  1  0
 11 12  2  0
 12 13  1  0
 13 14  2  0
 14 15  1  0
 15 16  1  0
 11 17  1  0
 17 18  1  0
 18 19  2  0
 19 20  1  0
 20 21  2  0
 21 22  1  0
 22 23  2  0
 21 24  1  0
 24 25  1  0
 25 26  1  0
 26 27  1  0
 27 28  1  0
 28 29  1  0
 29 30  2  0
 30 31  1  0
 31 32  2  0
 32 33  1  0
 33 34  2  0
 34 35  1  0
 35 36  2  0
 36 37  1  0
 37 38  2  0
 37 39  1  0
 32 40  1  0
 28 41  1  0
  8  3  1  0
 14  9  1  0
 23 18  1  0
 34 29  1  0
 39 33  1  0
  1 42  1  0
  1 43  1  0
  2 44  1  0
  2 45  1  0
  4 46  1  0
  5 47  1  0
  7 48  1  0
  8 49  1  0
 10 50  1  0
 12 51  1  0
 13 52  1  0
 16 53  1  0
 16 54  1  0
 16 55  1  0
 17 56  1  0
 19 57  1  0
 20 58  1  0
 22 59  1  0
 23 60  1  0
 24 61  1  0
 24 62  1  0
 25 63  1  0
 25 64  1  0
 26 65  1  0
 27 66  1  0
 27 67  1  0
 28 68  1  1
 30 69  1  0
 31 70  1  0
 35 71  1  0
 36 72  1  0
 39 73  1  0
 40 74  1  0
 41 75  1  0
M  END
>  <Ligand ID>  (1) 
LIG0004736

>  <Ligand>  (1) 
CHEMBL3298326

>  <SMILES>  (1) 
NCc1ccc(cc1)c1cc(ccc1OC)Nc1ccc(cc1)CCNC[C@@H](c1ccc(c2c1ccc(=O)[nH]2)O)O

>  <CID>  (1) 
10239722.0

>  <ChEMBL ID>  (1) 
nan

>  <InChiKey>  (1) 
SKADTYBOPRWKKH-PMERELPUSA-N

>  <InChi>  (1) 
InChI=1S/C33H34N4O4/c1-41-31-14-10-25(18-28(31)23-6-2-22(19-34)3-7-23)36-24-8-4-21(5-9-24)16-17-35-20-30(39)26-11-13-29(38)33-27(26)12-15-32(40)37-33/h2-15,18,30,35-36,38-39H,16-17,19-20,34H2,1H3,(H,37,40)/t30-/m0/s1

>  <IUPAC Name>  (1) 
5-[(1R)-2-[2-[4-[3-[4-(aminomethyl)phenyl]-4-methoxyanilino]phenyl]ethylamino]-1-hydroxyethyl]-8-hydroxy-1H-quinolin-2-one

$$$$
