
     RDKit          3D

 95100  0  0  0  0  0  0  0  0999 V2000
    3.6768   -1.2562   -2.4619 O   0  0  0  0  0  0  0  0  0  0  0  0
    4.1778   -0.9705   -1.3399 C   0  0  0  0  0  0  0  0  0  0  0  0
    5.4983   -1.5566   -0.9288 C   0  0  2  0  0  0  0  0  0  0  0  0
    5.9436   -1.1424    0.3462 N   0  0  0  0  0  0  0  0  0  0  0  0
    7.2575   -0.6753    0.5164 C   0  0  0  0  0  0  0  0  0  0  0  0
    8.2527   -1.1951   -0.4606 C   0  0  0  0  0  0  0  0  0  0  0  0
    7.8673   -1.6052   -1.7074 C   0  0  0  0  0  0  0  0  0  0  0  0
    6.4401   -1.5209   -2.0643 C   0  0  0  0  0  0  0  0  0  0  0  0
    8.7938   -2.0883   -2.6098 C   0  0  0  0  0  0  0  0  0  0  0  0
   10.1482   -2.1837   -2.3079 C   0  0  0  0  0  0  0  0  0  0  0  0
   10.5429   -1.7646   -1.0340 C   0  0  0  0  0  0  0  0  0  0  0  0
    9.5952   -1.2813   -0.1395 C   0  0  0  0  0  0  0  0  0  0  0  0
    3.4545   -0.0897   -0.4987 N   0  0  0  0  0  0  0  0  0  0  0  0
    2.1535    0.4829   -0.9127 C   0  0  1  0  0  0  0  0  0  0  0  0
    1.2019    0.0255    0.1066 C   0  0  0  0  0  0  0  0  0  0  0  0
    1.7179   -0.6522    1.0729 O   0  0  0  0  0  0  0  0  0  0  0  0
   -0.1730    0.2218    0.1680 N   0  0  0  0  0  0  0  0  0  0  0  0
   -0.8763   -0.3648    1.3285 C   0  0  0  0  0  0  0  0  0  0  0  0
   -1.8930   -1.2675    0.7224 C   0  0  0  0  0  0  0  0  0  0  0  0
   -3.0224   -0.5207   -0.0107 C   0  0  0  0  0  0  0  0  0  0  0  0
   -2.4256    0.8137   -0.3646 C   0  0  0  0  0  0  0  0  0  0  0  0
   -1.0107    0.9187   -0.7711 C   0  0  0  0  0  0  0  0  0  0  0  0
   -3.9634   -0.2644    1.1200 C   0  0  0  0  0  0  0  0  0  0  0  0
   -5.1799    0.3885    1.0220 N   0  0  0  0  0  0  0  0  0  0  0  0
   -5.3651    1.4656    1.9570 C   0  0  0  0  0  0  0  0  0  0  0  0
   -6.7281    1.5338    2.4976 C   0  0  0  0  0  0  0  0  0  0  0  0
   -7.1847    0.0969    2.7842 C   0  0  0  0  0  0  0  0  0  0  0  0
   -6.5720   -0.6067    1.2311 S   0  0  0  0  0  0  0  0  0  0  0  0
   -7.6165   -0.3203    0.1640 O   0  0  0  0  0  0  0  0  0  0  0  0
   -6.2621   -2.0475    1.3607 O   0  0  0  0  0  0  0  0  0  0  0  0
   -8.6694   -0.0381    2.8373 C   0  0  0  0  0  0  0  0  0  0  0  0
   -6.4517   -0.5071    3.9335 C   0  0  0  0  0  0  0  0  0  0  0  0
   -3.4225   -1.3400   -1.1721 C   0  0  0  0  0  0  0  0  0  0  0  0
   -2.3585   -1.7473   -2.1532 C   0  0  0  0  0  0  0  0  0  0  0  0
   -2.4354   -1.1579   -3.5223 C   0  0  0  0  0  0  0  0  0  0  0  0
   -3.1109    0.1533   -3.6547 C   0  0  0  0  0  0  0  0  0  0  0  0
   -4.4700    0.0594   -3.0285 C   0  0  0  0  0  0  0  0  0  0  0  0
   -4.6204   -1.0128   -1.9826 C   0  0  0  0  0  0  0  0  0  0  0  0
    2.2861    1.9938   -0.9696 C   0  0  0  0  0  0  0  0  0  0  0  0
    2.6454    2.5995    0.3176 C   0  0  0  0  0  0  0  0  0  0  0  0
    3.9629    2.7953    0.6982 C   0  0  0  0  0  0  0  0  0  0  0  0
    4.2711    3.3743    1.9305 C   0  0  0  0  0  0  0  0  0  0  0  0
    3.2999    3.7653    2.7985 C   0  0  0  0  0  0  0  0  0  0  0  0
    1.9858    3.5789    2.4381 C   0  0  0  0  0  0  0  0  0  0  0  0
    1.6726    3.0026    1.2109 C   0  0  0  0  0  0  0  0  0  0  0  0
    3.6389    4.5001    4.3661 Cl  0  0  0  0  0  0  0  0  0  0  0  0
    5.2366   -2.6526   -0.7943 H   0  0  0  0  0  0  0  0  0  0  0  0
    5.5277   -1.6469    1.1485 H   0  0  0  0  0  0  0  0  0  0  0  0
    7.3798    0.4171    0.5688 H   0  0  0  0  0  0  0  0  0  0  0  0
    7.6235   -1.0458    1.5177 H   0  0  0  0  0  0  0  0  0  0  0  0
    6.2650   -2.3543   -2.7951 H   0  0  0  0  0  0  0  0  0  0  0  0
    6.3276   -0.5926   -2.6688 H   0  0  0  0  0  0  0  0  0  0  0  0
    8.4234   -2.3967   -3.5822 H   0  0  0  0  0  0  0  0  0  0  0  0
   10.8318   -2.5629   -3.0336 H   0  0  0  0  0  0  0  0  0  0  0  0
   11.5949   -1.8282   -0.7693 H   0  0  0  0  0  0  0  0  0  0  0  0
    9.9130   -0.9566    0.8550 H   0  0  0  0  0  0  0  0  0  0  0  0
    3.8202    0.1699    0.4196 H   0  0  0  0  0  0  0  0  0  0  0  0
    1.8592    0.1409   -1.9193 H   0  0  0  0  0  0  0  0  0  0  0  0
   -1.3356    0.4546    1.8653 H   0  0  0  0  0  0  0  0  0  0  0  0
   -0.2045   -0.9942    1.9408 H   0  0  0  0  0  0  0  0  0  0  0  0
   -1.4546   -2.0733    0.0989 H   0  0  0  0  0  0  0  0  0  0  0  0
   -2.3694   -1.8233    1.5699 H   0  0  0  0  0  0  0  0  0  0  0  0
   -3.1198    1.4087   -1.0219 H   0  0  0  0  0  0  0  0  0  0  0  0
   -2.4758    1.4789    0.5729 H   0  0  0  0  0  0  0  0  0  0  0  0
   -0.7780    2.0251   -0.7527 H   0  0  0  0  0  0  0  0  0  0  0  0
   -0.7348    0.5593   -1.7785 H   0  0  0  0  0  0  0  0  0  0  0  0
   -4.1956   -1.2204    1.6956 H   0  0  0  0  0  0  0  0  0  0  0  0
   -3.3719    0.2675    1.9326 H   0  0  0  0  0  0  0  0  0  0  0  0
   -4.6397    1.3987    2.8036 H   0  0  0  0  0  0  0  0  0  0  0  0
   -5.1867    2.4435    1.4039 H   0  0  0  0  0  0  0  0  0  0  0  0
   -7.4656    2.0552    1.8670 H   0  0  0  0  0  0  0  0  0  0  0  0
   -6.6998    2.0471    3.4723 H   0  0  0  0  0  0  0  0  0  0  0  0
   -9.0666   -0.0680    1.8231 H   0  0  0  0  0  0  0  0  0  0  0  0
   -8.8902   -1.0084    3.3292 H   0  0  0  0  0  0  0  0  0  0  0  0
   -9.1066    0.7489    3.4830 H   0  0  0  0  0  0  0  0  0  0  0  0
   -5.4222   -0.1015    3.9346 H   0  0  0  0  0  0  0  0  0  0  0  0
   -6.9695   -0.2790    4.8661 H   0  0  0  0  0  0  0  0  0  0  0  0
   -6.3593   -1.6006    3.7493 H   0  0  0  0  0  0  0  0  0  0  0  0
   -3.7048   -2.3290   -0.6976 H   0  0  0  0  0  0  0  0  0  0  0  0
   -2.4496   -2.8742   -2.3609 H   0  0  0  0  0  0  0  0  0  0  0  0
   -1.3244   -1.6793   -1.8205 H   0  0  0  0  0  0  0  0  0  0  0  0
   -1.4101   -1.0367   -3.9894 H   0  0  0  0  0  0  0  0  0  0  0  0
   -2.9323   -1.8337   -4.2845 H   0  0  0  0  0  0  0  0  0  0  0  0
   -2.5174    1.0117   -3.2721 H   0  0  0  0  0  0  0  0  0  0  0  0
   -3.2614    0.3453   -4.7612 H   0  0  0  0  0  0  0  0  0  0  0  0
   -4.8293    1.0664   -2.6545 H   0  0  0  0  0  0  0  0  0  0  0  0
   -5.1873   -0.1089   -3.8872 H   0  0  0  0  0  0  0  0  0  0  0  0
   -5.5873   -0.9864   -1.4697 H   0  0  0  0  0  0  0  0  0  0  0  0
   -4.7903   -1.9393   -2.6412 H   0  0  0  0  0  0  0  0  0  0  0  0
    1.4014    2.4101   -1.4302 H   0  0  0  0  0  0  0  0  0  0  0  0
    3.1143    2.1619   -1.7322 H   0  0  0  0  0  0  0  0  0  0  0  0
    4.7464    2.4872    0.0159 H   0  0  0  0  0  0  0  0  0  0  0  0
    5.3043    3.5291    2.2318 H   0  0  0  0  0  0  0  0  0  0  0  0
    1.1873    3.8805    3.1123 H   0  0  0  0  0  0  0  0  0  0  0  0
    0.6106    2.8926    1.0064 H   0  0  0  0  0  0  0  0  0  0  0  0
  1  2  2  0
  2  3  1  0
  3  4  1  0
  4  5  1  0
  5  6  1  0
  6  7  2  0
  7  8  1  0
  7  9  1  0
  9 10  2  0
 10 11  1  0
 11 12  2  0
  2 13  1  0
 13 14  1  0
 14 15  1  0
 15 16  2  0
 15 17  1  0
 17 18  1  0
 18 19  1  0
 19 20  1  0
 20 21  1  0
 21 22  1  0
 20 23  1  0
 23 24  1  0
 24 25  1  0
 25 26  1  0
 26 27  1  0
 27 28  1  0
 28 29  2  0
 28 30  2  0
 27 31  1  0
 27 32  1  0
 20 33  1  0
 33 34  1  0
 34 35  1  0
 35 36  1  0
 36 37  1  0
 37 38  1  0
 14 39  1  0
 39 40  1  0
 40 41  2  0
 41 42  1  0
 42 43  2  0
 43 44  1  0
 44 45  2  0
 43 46  1  0
  8  3  1  0
 22 17  1  0
 28 24  1  0
 38 33  1  0
 45 40  1  0
 12  6  1  0
  3 47  1  1
  4 48  1  0
  5 49  1  0
  5 50  1  0
  8 51  1  0
  8 52  1  0
  9 53  1  0
 10 54  1  0
 11 55  1  0
 12 56  1  0
 13 57  1  0
 14 58  1  6
 18 59  1  0
 18 60  1  0
 19 61  1  0
 19 62  1  0
 21 63  1  0
 21 64  1  0
 22 65  1  0
 22 66  1  0
 23 67  1  0
 23 68  1  0
 25 69  1  0
 25 70  1  0
 26 71  1  0
 26 72  1  0
 31 73  1  0
 31 74  1  0
 31 75  1  0
 32 76  1  0
 32 77  1  0
 32 78  1  0
 33 79  1  0
 34 80  1  0
 34 81  1  0
 35 82  1  0
 35 83  1  0
 36 84  1  0
 36 85  1  0
 37 86  1  0
 37 87  1  0
 38 88  1  0
 38 89  1  0
 39 90  1  0
 39 91  1  0
 41 92  1  0
 42 93  1  0
 44 94  1  0
 45 95  1  0
M  END
>  <Ligand ID>  (1) 
LIG0001666

>  <Ligand>  (1) 
CHEMBL383719

>  <SMILES>  (1) 
O=C([C@@H]1NCc2c(C1)cccc2)N[C@@H](C(=O)N1CCC(CC1)(CN1CCC(S1(=O)=O)(C)C)C1CCCCC1)Cc1ccc(cc1)Cl

>  <CID>  (1) 
44408154.0

>  <ChEMBL ID>  (1) 
nan

>  <InChiKey>  (1) 
UHMCIGUGJPINOI-ROJLCIKYSA-N

>  <InChi>  (1) 
InChI=1S/C36H49ClN4O4S/c1-35(2)16-21-41(46(35,44)45)25-36(29-10-4-3-5-11-29)17-19-40(20-18-36)34(43)32(22-26-12-14-30(37)15-13-26)39-33(42)31-23-27-8-6-7-9-28(27)24-38-31/h6-9,12-15,29,31-32,38H,3-5,10-11,16-25H2,1-2H3,(H,39,42)/t31-,32-/m1/s1

>  <IUPAC Name>  (1) 
(3R)-N-[(2R)-3-(4-chlorophenyl)-1-[4-cyclohexyl-4-[(5,5-dimethyl-1,1-dioxo-1,2-thiazolidin-2-yl)methyl]piperidin-1-yl]-1-oxopropan-2-yl]-1,2,3,4-tetrahydroisoquinoline-3-carboxamide

$$$$
