
     RDKit          3D

 48 52  0  0  0  0  0  0  0  0999 V2000
    7.2258   -1.3113    2.3739 C   0  0  0  0  0  0  0  0  0  0  0  0
    6.3338   -1.2471    1.1850 C   0  0  0  0  0  0  0  0  0  0  0  0
    6.5423   -1.7426   -0.0895 C   0  0  0  0  0  0  0  0  0  0  0  0
    5.4090   -1.4168   -0.8109 C   0  0  0  0  0  0  0  0  0  0  0  0
    4.5513   -0.7529   -0.0083 N   0  0  0  0  0  0  0  0  0  0  0  0
    5.1264   -0.6676    1.1673 N   0  0  0  0  0  0  0  0  0  0  0  0
    3.2564   -0.2319   -0.3521 C   0  0  0  0  0  0  0  0  0  0  0  0
    2.5945   -0.6712   -1.4881 C   0  0  0  0  0  0  0  0  0  0  0  0
    1.3421   -0.1333   -1.7741 C   0  0  0  0  0  0  0  0  0  0  0  0
    0.7983    0.8104   -0.9316 C   0  0  0  0  0  0  0  0  0  0  0  0
    1.4343    1.2636    0.2018 C   0  0  0  0  0  0  0  0  0  0  0  0
    2.6829    0.7161    0.4718 C   0  0  0  0  0  0  0  0  0  0  0  0
    0.7563    2.4689    1.2732 Cl  0  0  0  0  0  0  0  0  0  0  0  0
   -0.5343    1.4062   -1.1878 C   0  0  0  0  0  0  0  0  0  0  0  0
   -0.5340    2.4568   -1.8493 O   0  0  0  0  0  0  0  0  0  0  0  0
   -1.6569    0.7254   -0.6600 N   0  0  0  0  0  0  0  0  0  0  0  0
   -1.4117   -0.4069    0.2103 C   0  0  0  0  0  0  0  0  0  0  0  0
   -2.5747   -0.8838    0.9518 C   0  0  0  0  0  0  0  0  0  0  0  0
   -2.6221   -2.2183    1.3872 C   0  0  0  0  0  0  0  0  0  0  0  0
   -3.8029   -2.4288    2.0590 C   0  0  0  0  0  0  0  0  0  0  0  0
   -4.4724   -1.2374    2.0360 C   0  0  0  0  0  0  0  0  0  0  0  0
   -3.7320   -0.3236    1.3739 N   0  0  0  0  0  0  0  0  0  0  0  0
   -4.2057    1.0380    1.1937 C   0  0  0  0  0  0  0  0  0  0  0  0
   -4.0748    1.4210   -0.2488 C   0  0  0  0  0  0  0  0  0  0  0  0
   -2.9418    1.2541   -1.0280 C   0  0  0  0  0  0  0  0  0  0  0  0
   -2.9115    1.6212   -2.3731 C   0  0  0  0  0  0  0  0  0  0  0  0
   -4.0657    2.1700   -2.9215 C   0  0  0  0  0  0  0  0  0  0  0  0
   -5.2039    2.3370   -2.1323 C   0  0  0  0  0  0  0  0  0  0  0  0
   -5.2143    1.9627   -0.7903 C   0  0  0  0  0  0  0  0  0  0  0  0
    7.8089   -0.3717    2.5191 H   0  0  0  0  0  0  0  0  0  0  0  0
    6.6035   -1.3920    3.3089 H   0  0  0  0  0  0  0  0  0  0  0  0
    7.8915   -2.1953    2.3593 H   0  0  0  0  0  0  0  0  0  0  0  0
    7.4335   -2.2723   -0.4058 H   0  0  0  0  0  0  0  0  0  0  0  0
    5.2501   -1.6606   -1.8471 H   0  0  0  0  0  0  0  0  0  0  0  0
    3.0568   -1.4124   -2.1213 H   0  0  0  0  0  0  0  0  0  0  0  0
    0.7911   -0.4590   -2.6654 H   0  0  0  0  0  0  0  0  0  0  0  0
    3.2109    1.0458    1.3500 H   0  0  0  0  0  0  0  0  0  0  0  0
   -1.0327   -1.2429   -0.4442 H   0  0  0  0  0  0  0  0  0  0  0  0
   -0.5429   -0.1759    0.8666 H   0  0  0  0  0  0  0  0  0  0  0  0
   -1.8557   -2.9835    1.2291 H   0  0  0  0  0  0  0  0  0  0  0  0
   -4.1038   -3.3820    2.5073 H   0  0  0  0  0  0  0  0  0  0  0  0
   -5.4461   -1.0996    2.4941 H   0  0  0  0  0  0  0  0  0  0  0  0
   -3.5903    1.7614    1.7593 H   0  0  0  0  0  0  0  0  0  0  0  0
   -5.2743    1.0906    1.4568 H   0  0  0  0  0  0  0  0  0  0  0  0
   -2.0074    1.4643   -2.9743 H   0  0  0  0  0  0  0  0  0  0  0  0
   -4.0902    2.4671   -3.9478 H   0  0  0  0  0  0  0  0  0  0  0  0
   -6.1175    2.7603   -2.5261 H   0  0  0  0  0  0  0  0  0  0  0  0
   -6.0801    2.0802   -0.1574 H   0  0  0  0  0  0  0  0  0  0  0  0
  1  2  1  0
  2  3  1  0
  3  4  2  0
  4  5  1  0
  5  6  1  0
  5  7  1  0
  7  8  2  0
  8  9  1  0
  9 10  2  0
 10 11  1  0
 11 12  2  0
 11 13  1  0
 10 14  1  0
 14 15  2  0
 14 16  1  0
 16 17  1  0
 17 18  1  0
 18 19  2  0
 19 20  1  0
 20 21  2  0
 21 22  1  0
 22 23  1  0
 23 24  1  0
 24 25  2  0
 25 26  1  0
 26 27  2  0
 27 28  1  0
 28 29  2  0
  6  2  2  0
 12  7  1  0
 25 16  1  0
 22 18  1  0
 29 24  1  0
  1 30  1  0
  1 31  1  0
  1 32  1  0
  3 33  1  0
  4 34  1  0
  8 35  1  0
  9 36  1  0
 12 37  1  0
 17 38  1  0
 17 39  1  0
 19 40  1  0
 20 41  1  0
 21 42  1  0
 23 43  1  0
 23 44  1  0
 26 45  1  0
 27 46  1  0
 28 47  1  0
 29 48  1  0
M  END
>  <Ligand ID>  (1) 
LIG0003962

>  <Ligand>  (1) 
VNA932

>  <SMILES>  (1) 
Cc1ccn(n1)c1ccc(c(c1)Cl)C(=O)N1Cc2cccn2Cc2c1cccc2

>  <CID>  (1) 
5311500.0

>  <ChEMBL ID>  (1) 
nan

>  <InChiKey>  (1) 
JXKQHDZUZGKDGO-UHFFFAOYSA-N

>  <InChi>  (1) 
InChI=1S/C23H19ClN4O/c1-16-10-12-28(25-16)18-8-9-20(21(24)13-18)23(29)27-15-19-6-4-11-26(19)14-17-5-2-3-7-22(17)27/h2-13H,14-15H2,1H3

>  <IUPAC Name>  (1) 
[2-chloro-4-(3-methylpyrazol-1-yl)phenyl]-(6,11-dihydropyrrolo[2,1-c][1,4]benzodiazepin-5-yl)methanone

$$$$
