
     RDKit          3D

 63 65  0  0  0  0  0  0  0  0999 V2000
   -5.8533    0.2792    1.9312 C   0  0  0  0  0  0  0  0  0  0  0  0
   -5.1814   -0.4494    0.9101 N   0  0  0  0  0  0  0  0  0  0  0  0
   -5.1792    0.1481   -0.3915 C   0  0  0  0  0  0  0  0  0  0  0  0
   -6.5449    0.2183   -0.9715 C   0  0  0  0  0  0  0  0  0  0  0  0
   -7.3057   -0.9501   -0.9169 C   0  0  0  0  0  0  0  0  0  0  0  0
   -8.5833   -1.0129   -1.4122 C   0  0  0  0  0  0  0  0  0  0  0  0
   -9.1360    0.1229   -1.9860 C   0  0  0  0  0  0  0  0  0  0  0  0
   -8.3989    1.2868   -2.0486 C   0  0  0  0  0  0  0  0  0  0  0  0
   -7.0979    1.3339   -1.5388 C   0  0  0  0  0  0  0  0  0  0  0  0
   -4.5548    1.5039   -0.3860 C   0  0  0  0  0  0  0  0  0  0  0  0
   -3.1729    1.5271    0.0564 N   0  0  0  0  0  0  0  0  0  0  0  0
   -2.1236    0.8372   -0.5850 C   0  0  0  0  0  0  0  0  0  0  0  0
   -2.3544    0.1331   -1.6273 O   0  0  0  0  0  0  0  0  0  0  0  0
   -0.7350    0.8576   -0.1431 C   0  0  0  0  0  0  0  0  0  0  0  0
    0.2077    0.1438   -0.8503 C   0  0  0  0  0  0  0  0  0  0  0  0
    1.5517    0.1212   -0.4813 C   0  0  0  0  0  0  0  0  0  0  0  0
    1.9405    0.8281    0.6128 C   0  0  0  0  0  0  0  0  0  0  0  0
    1.0355    1.5531    1.3468 C   0  0  0  0  0  0  0  0  0  0  0  0
   -0.2935    1.5576    0.9571 C   0  0  0  0  0  0  0  0  0  0  0  0
    3.3667    0.8706    1.0963 C   0  0  0  0  0  0  0  0  0  0  0  0
    3.4784   -0.2429    2.0281 N   0  0  0  0  0  0  0  0  0  0  0  0
    5.0734   -0.3215    2.6697 S   0  0  0  0  0  0  0  0  0  0  0  0
    5.4115    1.0478    3.2408 O   0  0  0  0  0  0  0  0  0  0  0  0
    5.1698   -1.3549    3.7252 O   0  0  0  0  0  0  0  0  0  0  0  0
    6.1846   -0.5920    1.3543 C   0  0  0  0  0  0  0  0  0  0  0  0
    6.7522    0.4847    0.6754 C   0  0  0  0  0  0  0  0  0  0  0  0
    7.6353    0.3133   -0.3701 C   0  0  0  0  0  0  0  0  0  0  0  0
    7.9936   -0.9565   -0.7874 C   0  0  0  0  0  0  0  0  0  0  0  0
    7.4327   -2.0379   -0.1163 C   0  0  0  0  0  0  0  0  0  0  0  0
    6.5471   -1.8570    0.9322 C   0  0  0  0  0  0  0  0  0  0  0  0
    8.9227   -1.1919   -1.8871 C   0  0  0  0  0  0  0  0  0  0  0  0
    9.2486   -2.3595   -2.2665 O   0  0  0  0  0  0  0  0  0  0  0  0
    9.4920    0.0234   -2.5690 C   0  0  0  0  0  0  0  0  0  0  0  0
   -3.9953   -1.1326    1.2833 C   0  0  0  0  0  0  0  0  0  0  0  0
   -5.3756    1.2942    2.0642 H   0  0  0  0  0  0  0  0  0  0  0  0
   -6.9491    0.3456    1.7845 H   0  0  0  0  0  0  0  0  0  0  0  0
   -5.6677   -0.2292    2.8966 H   0  0  0  0  0  0  0  0  0  0  0  0
   -4.5168   -0.4895   -1.0429 H   0  0  0  0  0  0  0  0  0  0  0  0
   -6.9010   -1.8548   -0.4742 H   0  0  0  0  0  0  0  0  0  0  0  0
   -9.1756   -1.9077   -1.3743 H   0  0  0  0  0  0  0  0  0  0  0  0
  -10.1368    0.1413   -2.3950 H   0  0  0  0  0  0  0  0  0  0  0  0
   -8.8447    2.1749   -2.5027 H   0  0  0  0  0  0  0  0  0  0  0  0
   -6.5701    2.2667   -1.6096 H   0  0  0  0  0  0  0  0  0  0  0  0
   -4.6408    1.8910   -1.4301 H   0  0  0  0  0  0  0  0  0  0  0  0
   -5.1233    2.2024    0.2560 H   0  0  0  0  0  0  0  0  0  0  0  0
   -2.8962    2.0902    0.9164 H   0  0  0  0  0  0  0  0  0  0  0  0
   -0.0376   -0.4395   -1.7307 H   0  0  0  0  0  0  0  0  0  0  0  0
    2.2934   -0.4395   -1.0364 H   0  0  0  0  0  0  0  0  0  0  0  0
    1.3354    2.1267    2.2299 H   0  0  0  0  0  0  0  0  0  0  0  0
   -0.9711    2.1277    1.5442 H   0  0  0  0  0  0  0  0  0  0  0  0
    3.5677    1.8240    1.5825 H   0  0  0  0  0  0  0  0  0  0  0  0
    4.0080    0.6308    0.2247 H   0  0  0  0  0  0  0  0  0  0  0  0
    3.2311   -1.1445    1.5783 H   0  0  0  0  0  0  0  0  0  0  0  0
    6.5137    1.5057    0.9521 H   0  0  0  0  0  0  0  0  0  0  0  0
    8.0789    1.1354   -0.9007 H   0  0  0  0  0  0  0  0  0  0  0  0
    7.6922   -3.0580   -0.4179 H   0  0  0  0  0  0  0  0  0  0  0  0
    6.1179   -2.7092    1.4458 H   0  0  0  0  0  0  0  0  0  0  0  0
    8.7169    0.6373   -3.0345 H   0  0  0  0  0  0  0  0  0  0  0  0
   10.0035    0.6784   -1.8069 H   0  0  0  0  0  0  0  0  0  0  0  0
   10.2891   -0.2531   -3.2868 H   0  0  0  0  0  0  0  0  0  0  0  0
   -3.2819   -0.4011    1.7487 H   0  0  0  0  0  0  0  0  0  0  0  0
   -3.5061   -1.5087    0.3665 H   0  0  0  0  0  0  0  0  0  0  0  0
   -4.1875   -1.9886    1.9676 H   0  0  0  0  0  0  0  0  0  0  0  0
  1  2  1  0
  2  3  1  0
  3  4  1  0
  4  5  2  0
  5  6  1  0
  6  7  2  0
  7  8  1  0
  8  9  2  0
  3 10  1  0
 10 11  1  0
 11 12  1  0
 12 13  2  0
 12 14  1  0
 14 15  2  0
 15 16  1  0
 16 17  2  0
 17 18  1  0
 18 19  2  0
 17 20  1  0
 20 21  1  0
 21 22  1  0
 22 23  2  0
 22 24  2  0
 22 25  1  0
 25 26  2  0
 26 27  1  0
 27 28  2  0
 28 29  1  0
 29 30  2  0
 28 31  1  0
 31 32  2  0
 31 33  1  0
  2 34  1  0
  9  4  1  0
 19 14  1  0
 30 25  1  0
  1 35  1  0
  1 36  1  0
  1 37  1  0
  3 38  1  0
  5 39  1  0
  6 40  1  0
  7 41  1  0
  8 42  1  0
  9 43  1  0
 10 44  1  0
 10 45  1  0
 11 46  1  0
 15 47  1  0
 16 48  1  0
 18 49  1  0
 19 50  1  0
 20 51  1  0
 20 52  1  0
 21 53  1  0
 26 54  1  0
 27 55  1  0
 29 56  1  0
 30 57  1  0
 33 58  1  0
 33 59  1  0
 33 60  1  0
 34 61  1  0
 34 62  1  0
 34 63  1  0
M  END
>  <Ligand ID>  (1) 
LIG0003272

>  <Ligand>  (1) 
MLS-0355913.0001

>  <SMILES>  (1) 
CN(C(c1ccccc1)CNC(=O)c1ccc(cc1)CNS(=O)(=O)c1ccc(cc1)C(=O)C)C

>  <CID>  (1) 
16294686.0

>  <ChEMBL ID>  (1) 
nan

>  <InChiKey>  (1) 
XERLWYQQSBUDCL-UHFFFAOYSA-N

>  <InChi>  (1) 
InChI=1S/C26H29N3O4S/c1-19(30)21-13-15-24(16-14-21)34(32,33)28-17-20-9-11-23(12-10-20)26(31)27-18-25(29(2)3)22-7-5-4-6-8-22/h4-16,25,28H,17-18H2,1-3H3,(H,27,31)

>  <IUPAC Name>  (1) 
4-[[(4-acetylphenyl)sulfonylamino]methyl]-N-[2-(dimethylamino)-2-phenylethyl]benzamide

$$$$
