
     RDKit          3D

 58 62  0  0  0  0  0  0  0  0999 V2000
   -8.1790    3.2790   -1.1732 C   0  0  0  0  0  0  0  0  0  0  0  0
   -6.9671    2.4640   -0.9044 C   0  0  0  0  0  0  0  0  0  0  0  0
   -7.0329    1.1238   -1.1849 C   0  0  0  0  0  0  0  0  0  0  0  0
   -5.9477    0.2937   -0.9682 C   0  0  0  0  0  0  0  0  0  0  0  0
   -4.7372    0.7962   -0.4517 C   0  0  0  0  0  0  0  0  0  0  0  0
   -4.6950    2.1274   -0.1783 C   0  0  0  0  0  0  0  0  0  0  0  0
   -5.7967    2.9753   -0.3981 C   0  0  0  0  0  0  0  0  0  0  0  0
   -3.5120    2.7761    0.4291 C   0  0  0  0  0  0  0  0  0  0  0  0
   -3.6919   -0.1752   -0.2521 C   0  0  0  0  0  0  0  0  0  0  0  0
   -4.0629   -1.4604   -0.1211 N   0  0  0  0  0  0  0  0  0  0  0  0
   -3.2561   -2.5127    0.0123 C   0  0  0  0  0  0  0  0  0  0  0  0
   -3.7708   -3.7907    0.1350 C   0  0  0  0  0  0  0  0  0  0  0  0
   -2.8757   -4.8338    0.2697 C   0  0  0  0  0  0  0  0  0  0  0  0
   -1.5062   -4.6356    0.2838 C   0  0  0  0  0  0  0  0  0  0  0  0
   -1.0322   -3.3575    0.1582 C   0  0  0  0  0  0  0  0  0  0  0  0
   -1.8984   -2.3040    0.0230 C   0  0  0  0  0  0  0  0  0  0  0  0
   -1.4514   -1.0053   -0.1076 C   0  0  0  0  0  0  0  0  0  0  0  0
   -2.3395    0.0701   -0.2455 C   0  0  0  0  0  0  0  0  0  0  0  0
   -0.0035   -0.8209   -0.1158 C   0  0  0  0  0  0  0  0  0  0  0  0
    0.5423   -0.5870   -1.2240 O   0  0  0  0  0  0  0  0  0  0  0  0
    0.8094   -0.8954    1.0509 N   0  0  0  0  0  0  0  0  0  0  0  0
    2.2071   -0.7349    1.0567 C   0  0  0  0  0  0  0  0  0  0  0  0
    2.8707    0.4619    1.1817 C   0  0  0  0  0  0  0  0  0  0  0  0
    4.2588    0.4897    1.1808 C   0  0  0  0  0  0  0  0  0  0  0  0
    5.0018   -0.6552    1.0569 C   0  0  0  0  0  0  0  0  0  0  0  0
    4.3488   -1.8777    0.9284 C   0  0  0  0  0  0  0  0  0  0  0  0
    2.9700   -1.8900    0.9310 C   0  0  0  0  0  0  0  0  0  0  0  0
    6.7419   -0.6910    1.0747 S   0  0  0  0  0  0  0  0  0  0  0  0
    7.2009   -2.0408    1.5859 O   0  0  0  0  0  0  0  0  0  0  0  0
    7.2444    0.3154    2.0737 O   0  0  0  0  0  0  0  0  0  0  0  0
    7.4545   -0.3779   -0.4477 N   0  0  0  0  0  0  0  0  0  0  0  0
    8.2367    0.7842   -0.7149 C   0  0  0  0  0  0  0  0  0  0  0  0
    8.8296    1.2910   -1.5603 N   0  0  0  0  0  0  0  0  0  0  0  0
    9.5240    2.3891   -1.6525 C   0  0  0  0  0  0  0  0  0  0  0  0
    9.5159    3.0971   -0.3652 C   0  0  0  0  0  0  0  0  0  0  0  0
    8.4956    2.0114    0.7063 S   0  0  0  0  0  0  0  0  0  0  0  0
   -8.3674    3.3934   -2.2616 H   0  0  0  0  0  0  0  0  0  0  0  0
   -7.9921    4.2794   -0.7040 H   0  0  0  0  0  0  0  0  0  0  0  0
   -9.0476    2.8537   -0.6661 H   0  0  0  0  0  0  0  0  0  0  0  0
   -7.9421    0.6514   -1.5912 H   0  0  0  0  0  0  0  0  0  0  0  0
   -6.0565   -0.7522   -1.2065 H   0  0  0  0  0  0  0  0  0  0  0  0
   -5.7545    4.0275   -0.1784 H   0  0  0  0  0  0  0  0  0  0  0  0
   -2.7804    3.1374   -0.3106 H   0  0  0  0  0  0  0  0  0  0  0  0
   -3.0705    2.1292    1.2396 H   0  0  0  0  0  0  0  0  0  0  0  0
   -3.8415    3.7271    0.9707 H   0  0  0  0  0  0  0  0  0  0  0  0
   -4.8454   -3.9271    0.1252 H   0  0  0  0  0  0  0  0  0  0  0  0
   -3.2437   -5.8638    0.3701 H   0  0  0  0  0  0  0  0  0  0  0  0
   -0.7925   -5.4363    0.3888 H   0  0  0  0  0  0  0  0  0  0  0  0
    0.0377   -3.1905    0.1665 H   0  0  0  0  0  0  0  0  0  0  0  0
   -1.9120    1.0168   -0.3561 H   0  0  0  0  0  0  0  0  0  0  0  0
    0.2810   -1.0866    1.9492 H   0  0  0  0  0  0  0  0  0  0  0  0
    2.2797    1.3582    1.2762 H   0  0  0  0  0  0  0  0  0  0  0  0
    4.8073    1.4206    1.2747 H   0  0  0  0  0  0  0  0  0  0  0  0
    4.8852   -2.8142    0.8284 H   0  0  0  0  0  0  0  0  0  0  0  0
    2.4705   -2.8501    0.8308 H   0  0  0  0  0  0  0  0  0  0  0  0
    7.3296   -1.0385   -1.2223 H   0  0  0  0  0  0  0  0  0  0  0  0
   10.0787    2.8527   -2.4553 H   0  0  0  0  0  0  0  0  0  0  0  0
    9.9800    4.0121   -0.1071 H   0  0  0  0  0  0  0  0  0  0  0  0
  1  2  1  0
  2  3  2  0
  3  4  1  0
  4  5  2  0
  5  6  1  0
  6  7  2  0
  6  8  1  0
  5  9  1  0
  9 10  2  0
 10 11  1  0
 11 12  2  0
 12 13  1  0
 13 14  2  0
 14 15  1  0
 15 16  2  0
 16 17  1  0
 17 18  2  0
 17 19  1  0
 19 20  2  0
 19 21  1  0
 21 22  1  0
 22 23  2  0
 23 24  1  0
 24 25  2  0
 25 26  1  0
 26 27  2  0
 25 28  1  0
 28 29  2  0
 28 30  2  0
 28 31  1  0
 31 32  1  0
 32 33  2  0
 33 34  1  0
 34 35  2  0
 35 36  1  0
  7  2  1  0
 18  9  1  0
 27 22  1  0
 36 32  1  0
 16 11  1  0
  1 37  1  0
  1 38  1  0
  1 39  1  0
  3 40  1  0
  4 41  1  0
  7 42  1  0
  8 43  1  0
  8 44  1  0
  8 45  1  0
 12 46  1  0
 13 47  1  0
 14 48  1  0
 15 49  1  0
 18 50  1  0
 21 51  1  0
 23 52  1  0
 24 53  1  0
 26 54  1  0
 27 55  1  0
 31 56  1  0
 34 57  1  0
 35 58  1  0
M  END
>  <Ligand ID>  (1) 
LIG0003712

>  <Ligand>  (1) 
MLS-0203836.0001

>  <SMILES>  (1) 
Cc1ccc(c(c1)C)c1nc2ccccc2c(c1)C(=O)Nc1ccc(cc1)S(=O)(=O)Nc1nccs1

>  <CID>  (1) 
1358622.0

>  <ChEMBL ID>  (1) 
nan

>  <InChiKey>  (1) 
BZRLSZPXWKJEHX-UHFFFAOYSA-N

>  <InChi>  (1) 
InChI=1S/C27H22N4O3S2/c1-17-7-12-21(18(2)15-17)25-16-23(22-5-3-4-6-24(22)30-25)26(32)29-19-8-10-20(11-9-19)36(33,34)31-27-28-13-14-35-27/h3-16H,1-2H3,(H,28,31)(H,29,32)

>  <IUPAC Name>  (1) 
2-(2,4-dimethylphenyl)-N-[4-(1,3-thiazol-2-ylsulfamoyl)phenyl]quinoline-4-carboxamide

$$$$
