
     RDKit          3D

 92 96  0  0  0  0  0  0  0  0999 V2000
    1.7887    6.2878   -2.1939 N   0  0  0  0  0  0  0  0  0  0  0  0
    1.8248    6.4350   -0.7714 C   0  0  0  0  0  0  0  0  0  0  0  0
    1.3618    5.4521   -0.0409 N   0  0  0  0  0  0  0  0  0  0  0  0
    1.3541    5.5047    1.3835 C   0  0  0  0  0  0  0  0  0  0  0  0
    2.1147    4.3627    1.9702 C   0  0  0  0  0  0  0  0  0  0  0  0
    1.5438    3.0434    1.6181 C   0  0  0  0  0  0  0  0  0  0  0  0
    1.4751    2.6744    0.1908 C   0  0  1  0  0  0  0  0  0  0  0  0
    2.7989    2.6425   -0.5183 C   0  0  0  0  0  0  0  0  0  0  0  0
    3.3736    1.3579   -0.0407 C   0  0  2  0  0  0  0  0  0  0  0  0
    2.2055    0.4122   -0.0142 C   0  0  0  0  0  0  0  0  0  0  0  0
    1.0506    1.2549    0.1204 N   0  0  0  0  0  0  0  0  0  0  0  0
   -0.3369    0.9412    0.1837 C   0  0  0  0  0  0  0  0  0  0  0  0
   -1.1938    1.9139    0.2874 O   0  0  0  0  0  0  0  0  0  0  0  0
   -0.9499   -0.3888    0.1429 C   0  0  2  0  0  0  0  0  0  0  0  0
   -2.4115   -0.2705    0.0403 N   0  0  0  0  0  0  0  0  0  0  0  0
   -3.1512   -0.8574   -1.0171 C   0  0  0  0  0  0  0  0  0  0  0  0
   -2.5275   -1.4999   -1.8774 O   0  0  0  0  0  0  0  0  0  0  0  0
   -4.6263   -0.7099   -1.0979 C   0  0  2  0  0  0  0  0  0  0  0  0
   -5.3496   -0.9322    0.1872 C   0  0  0  0  0  0  0  0  0  0  0  0
   -6.8158   -0.7463   -0.0418 C   0  0  0  0  0  0  0  0  0  0  0  0
   -7.4668    0.4395    0.0816 N   0  0  0  0  0  0  0  0  0  0  0  0
   -8.7771    0.2780   -0.1878 C   0  0  0  0  0  0  0  0  0  0  0  0
   -8.9351   -1.0202   -0.4800 N   0  0  0  0  0  0  0  0  0  0  0  0
   -7.7618   -1.6752   -0.4011 C   0  0  0  0  0  0  0  0  0  0  0  0
   -5.1939   -1.4183   -2.2198 N   0  0  0  0  0  0  0  0  0  0  0  0
   -5.8253   -0.7150   -3.2899 C   0  0  0  0  0  0  0  0  0  0  0  0
   -5.9061    0.5487   -3.2878 O   0  0  0  0  0  0  0  0  0  0  0  0
   -6.4175   -1.4491   -4.4582 C   0  0  0  0  0  0  0  0  0  0  0  0
   -0.6096   -1.2339    1.3625 C   0  0  0  0  0  0  0  0  0  0  0  0
   -1.3179   -2.5552    1.1633 C   0  0  0  0  0  0  0  0  0  0  0  0
   -2.5899   -2.7566    1.6375 C   0  0  0  0  0  0  0  0  0  0  0  0
   -3.2070   -3.9831    1.4400 C   0  0  0  0  0  0  0  0  0  0  0  0
   -2.5587   -5.0214    0.7661 C   0  0  0  0  0  0  0  0  0  0  0  0
   -1.2928   -4.8013    0.3015 C   0  0  0  0  0  0  0  0  0  0  0  0
   -0.6448   -3.5752    0.4855 C   0  0  0  0  0  0  0  0  0  0  0  0
    4.0706    1.4142    1.1150 O   0  0  0  0  0  0  0  0  0  0  0  0
    5.3773    1.0631    1.1526 C   0  0  0  0  0  0  0  0  0  0  0  0
    5.5520   -0.3354    0.6990 C   0  0  0  0  0  0  0  0  0  0  0  0
    5.9193   -0.6692   -0.5830 C   0  0  0  0  0  0  0  0  0  0  0  0
    6.0614   -1.9911   -0.9992 C   0  0  0  0  0  0  0  0  0  0  0  0
    5.8269   -3.0041   -0.0967 C   0  0  0  0  0  0  0  0  0  0  0  0
    5.4517   -2.7071    1.2176 C   0  0  0  0  0  0  0  0  0  0  0  0
    5.3253   -1.3810    1.5767 C   0  0  0  0  0  0  0  0  0  0  0  0
    5.2246   -3.7516    2.0913 C   0  0  0  0  0  0  0  0  0  0  0  0
    5.3813   -5.0591    1.6190 C   0  0  0  0  0  0  0  0  0  0  0  0
    5.7496   -5.3376    0.3294 C   0  0  0  0  0  0  0  0  0  0  0  0
    5.9770   -4.2963   -0.5464 C   0  0  0  0  0  0  0  0  0  0  0  0
    2.3485    7.6130   -0.1759 N   0  0  0  0  0  0  0  0  0  0  0  0
    2.5739    6.6739   -2.7577 H   0  0  0  0  0  0  0  0  0  0  0  0
    0.9922    5.8025   -2.6731 H   0  0  0  0  0  0  0  0  0  0  0  0
    1.7669    6.4888    1.7211 H   0  0  0  0  0  0  0  0  0  0  0  0
    0.2880    5.5331    1.7407 H   0  0  0  0  0  0  0  0  0  0  0  0
    2.1096    4.5307    3.0906 H   0  0  0  0  0  0  0  0  0  0  0  0
    3.1810    4.4058    1.6373 H   0  0  0  0  0  0  0  0  0  0  0  0
    0.4949    2.9201    2.0377 H   0  0  0  0  0  0  0  0  0  0  0  0
    2.1768    2.2495    2.1251 H   0  0  0  0  0  0  0  0  0  0  0  0
    0.7324    3.2894   -0.3859 H   0  0  0  0  0  0  0  0  0  0  0  0
    2.6507    2.6532   -1.6262 H   0  0  0  0  0  0  0  0  0  0  0  0
    3.3782    3.5368   -0.1853 H   0  0  0  0  0  0  0  0  0  0  0  0
    4.0568    0.9920   -0.8378 H   0  0  0  0  0  0  0  0  0  0  0  0
    2.2552   -0.2721    0.8509 H   0  0  0  0  0  0  0  0  0  0  0  0
    2.1622   -0.2348   -0.9156 H   0  0  0  0  0  0  0  0  0  0  0  0
   -0.6052   -0.9386   -0.7437 H   0  0  0  0  0  0  0  0  0  0  0  0
   -2.8879    0.2779    0.8014 H   0  0  0  0  0  0  0  0  0  0  0  0
   -4.7823    0.3880   -1.3447 H   0  0  0  0  0  0  0  0  0  0  0  0
   -5.1489   -1.9310    0.6391 H   0  0  0  0  0  0  0  0  0  0  0  0
   -5.0347   -0.1696    0.9174 H   0  0  0  0  0  0  0  0  0  0  0  0
   -7.0083    1.3621    0.3522 H   0  0  0  0  0  0  0  0  0  0  0  0
   -9.5224    1.0769   -0.1595 H   0  0  0  0  0  0  0  0  0  0  0  0
   -7.5674   -2.7297   -0.5793 H   0  0  0  0  0  0  0  0  0  0  0  0
   -5.1465   -2.4765   -2.2604 H   0  0  0  0  0  0  0  0  0  0  0  0
   -7.2647   -0.8742   -4.8962 H   0  0  0  0  0  0  0  0  0  0  0  0
   -6.8680   -2.4214   -4.1281 H   0  0  0  0  0  0  0  0  0  0  0  0
   -5.6748   -1.6631   -5.2398 H   0  0  0  0  0  0  0  0  0  0  0  0
    0.4517   -1.4940    1.4113 H   0  0  0  0  0  0  0  0  0  0  0  0
   -0.9532   -0.7388    2.2983 H   0  0  0  0  0  0  0  0  0  0  0  0
   -3.0867   -1.9505    2.1571 H   0  0  0  0  0  0  0  0  0  0  0  0
   -4.2117   -4.1182    1.8237 H   0  0  0  0  0  0  0  0  0  0  0  0
   -3.0776   -5.9763    0.6297 H   0  0  0  0  0  0  0  0  0  0  0  0
   -0.8036   -5.6226   -0.2202 H   0  0  0  0  0  0  0  0  0  0  0  0
    0.3673   -3.4288    0.1024 H   0  0  0  0  0  0  0  0  0  0  0  0
    5.8383    1.1708    2.1638 H   0  0  0  0  0  0  0  0  0  0  0  0
    6.0369    1.6790    0.4883 H   0  0  0  0  0  0  0  0  0  0  0  0
    6.1312    0.0745   -1.3395 H   0  0  0  0  0  0  0  0  0  0  0  0
    6.3520   -2.2302   -2.0192 H   0  0  0  0  0  0  0  0  0  0  0  0
    5.0335   -1.1493    2.5916 H   0  0  0  0  0  0  0  0  0  0  0  0
    4.9311   -3.5488    3.1210 H   0  0  0  0  0  0  0  0  0  0  0  0
    5.2115   -5.9087    2.2745 H   0  0  0  0  0  0  0  0  0  0  0  0
    5.8641   -6.3427   -0.0100 H   0  0  0  0  0  0  0  0  0  0  0  0
    6.2685   -4.5041   -1.5666 H   0  0  0  0  0  0  0  0  0  0  0  0
    1.6901    8.4148   -0.0015 H   0  0  0  0  0  0  0  0  0  0  0  0
    3.3589    7.7068    0.0919 H   0  0  0  0  0  0  0  0  0  0  0  0
  1  2  1  0
  2  3  2  3
  3  4  1  0
  4  5  1  0
  5  6  1  0
  6  7  1  0
  7  8  1  0
  8  9  1  0
  9 10  1  0
 10 11  1  0
 11 12  1  0
 12 13  2  0
 12 14  1  0
 14 15  1  0
 15 16  1  0
 16 17  2  0
 16 18  1  0
 18 19  1  0
 19 20  1  0
 20 21  1  0
 21 22  1  0
 22 23  2  0
 23 24  1  0
 18 25  1  0
 25 26  1  0
 26 27  2  0
 26 28  1  0
 14 29  1  0
 29 30  1  0
 30 31  2  0
 31 32  1  0
 32 33  2  0
 33 34  1  0
 34 35  2  0
  9 36  1  0
 36 37  1  0
 37 38  1  0
 38 39  2  0
 39 40  1  0
 40 41  2  0
 41 42  1  0
 42 43  2  0
 42 44  1  0
 44 45  2  0
 45 46  1  0
 46 47  2  0
  2 48  1  0
 11  7  1  0
 24 20  2  0
 35 30  1  0
 43 38  1  0
 47 41  1  0
  1 49  1  0
  1 50  1  0
  4 51  1  0
  4 52  1  0
  5 53  1  0
  5 54  1  0
  6 55  1  0
  6 56  1  0
  7 57  1  6
  8 58  1  0
  8 59  1  0
  9 60  1  6
 10 61  1  0
 10 62  1  0
 14 63  1  6
 15 64  1  0
 18 65  1  6
 19 66  1  0
 19 67  1  0
 21 68  1  0
 22 69  1  0
 24 70  1  0
 25 71  1  0
 28 72  1  0
 28 73  1  0
 28 74  1  0
 29 75  1  0
 29 76  1  0
 31 77  1  0
 32 78  1  0
 33 79  1  0
 34 80  1  0
 35 81  1  0
 37 82  1  0
 37 83  1  0
 39 84  1  0
 40 85  1  0
 43 86  1  0
 44 87  1  0
 45 88  1  0
 46 89  1  0
 47 90  1  0
 48 91  1  0
 48 92  1  0
M  END
>  <Ligand ID>  (1) 
LIG0003306

>  <Ligand>  (1) 
CHEMBL379508

>  <SMILES>  (1) 
NC(=NCCC[C@H]1C[C@H](CN1C(=O)[C@H](NC(=O)[C@H](Cc1[nH]cnc1)NC(=O)C)Cc1ccccc1)OCc1ccc2c(c1)cccc2)N

>  <CID>  (1) 
44413914.0

>  <ChEMBL ID>  (1) 
nan

>  <InChiKey>  (1) 
NSMUITYTUDRYSP-ISSPZXTRSA-N

>  <InChi>  (1) 
InChI=1S/C36H44N8O4/c1-24(45)42-32(18-29-20-39-23-41-29)34(46)43-33(17-25-8-3-2-4-9-25)35(47)44-21-31(19-30(44)12-7-15-40-36(37)38)48-22-26-13-14-27-10-5-6-11-28(27)16-26/h2-6,8-11,13-14,16,20,23,30-33H,7,12,15,17-19,21-22H2,1H3,(H,39,41)(H,42,45)(H,43,46)(H4,37,38,40)/t30-,31+,32-,33+/m0/s1

>  <IUPAC Name>  (1) 
(2S)-2-acetamido-N-[(2R)-1-[(2S,4R)-2-[3-(diaminomethylideneamino)propyl]-4-(naphthalen-2-ylmethoxy)pyrrolidin-1-yl]-1-oxo-3-phenylpropan-2-yl]-3-(1H-imidazol-5-yl)propanamide

$$$$
