
     RDKit          3D

 55 57  0  0  0  0  0  0  0  0999 V2000
    1.7053    2.3709   -0.6676 O   0  0  0  0  0  0  0  0  0  0  0  0
    1.3738    1.1814   -0.4040 C   0  0  0  0  0  0  0  0  0  0  0  0
    2.2978    0.2117    0.1770 C   0  0  0  0  0  0  0  0  0  0  0  0
    2.1393   -0.3105    1.4459 C   0  0  0  0  0  0  0  0  0  0  0  0
    3.0727   -1.2338    1.9023 C   0  0  0  0  0  0  0  0  0  0  0  0
    4.1379   -1.6296    1.1175 C   0  0  0  0  0  0  0  0  0  0  0  0
    4.2955   -1.0978   -0.1695 C   0  0  0  0  0  0  0  0  0  0  0  0
    3.3659   -0.1712   -0.6374 C   0  0  0  0  0  0  0  0  0  0  0  0
    5.6571   -1.6079   -1.1747 S   0  0  0  0  0  0  0  0  0  0  0  0
    6.0429   -3.0015   -0.8444 O   0  0  0  0  0  0  0  0  0  0  0  0
    5.2725   -1.4242   -2.6102 O   0  0  0  0  0  0  0  0  0  0  0  0
    6.9621   -0.5429   -0.7602 N   0  0  0  0  0  0  0  0  0  0  0  0
    7.2506   -0.7469    0.6637 C   0  0  0  0  0  0  0  0  0  0  0  0
    6.5806    0.8395   -0.9785 C   0  0  0  0  0  0  0  0  0  0  0  0
    0.0239    0.7789   -0.6949 N   0  0  0  0  0  0  0  0  0  0  0  0
   -0.9033    1.7258   -1.2730 C   0  0  0  0  0  0  0  0  0  0  0  0
   -2.1126    1.8053   -0.3547 C   0  0  0  0  0  0  0  0  0  0  0  0
   -2.5502    0.4774   -0.0728 N   0  0  0  0  0  0  0  0  0  0  0  0
   -1.6427   -0.4908    0.5220 C   0  0  0  0  0  0  0  0  0  0  0  0
   -0.4466   -0.5496   -0.4312 C   0  0  0  0  0  0  0  0  0  0  0  0
   -3.8814   -0.0028   -0.3371 C   0  0  0  0  0  0  0  0  0  0  0  0
   -3.9657   -0.9919   -1.3091 C   0  0  0  0  0  0  0  0  0  0  0  0
   -5.2029   -1.5201   -1.6543 C   0  0  0  0  0  0  0  0  0  0  0  0
   -6.3165   -1.0287   -1.0035 C   0  0  0  0  0  0  0  0  0  0  0  0
   -6.2147   -0.0367   -0.0311 C   0  0  0  0  0  0  0  0  0  0  0  0
   -4.9853    0.4945    0.3190 C   0  0  0  0  0  0  0  0  0  0  0  0
   -4.9150    1.5373    1.3626 C   0  0  0  0  0  0  0  0  0  0  0  0
   -7.4200    0.4864    0.6617 C   0  0  0  0  0  0  0  0  0  0  0  0
    1.3156   -0.0062    2.0558 H   0  0  0  0  0  0  0  0  0  0  0  0
    2.9936   -1.6701    2.8880 H   0  0  0  0  0  0  0  0  0  0  0  0
    4.8654   -2.3318    1.4369 H   0  0  0  0  0  0  0  0  0  0  0  0
    3.5009    0.2287   -1.6313 H   0  0  0  0  0  0  0  0  0  0  0  0
    7.3938   -1.8385    0.7985 H   0  0  0  0  0  0  0  0  0  0  0  0
    6.3523   -0.4560    1.2473 H   0  0  0  0  0  0  0  0  0  0  0  0
    8.0996   -0.1307    0.9876 H   0  0  0  0  0  0  0  0  0  0  0  0
    6.1385    0.9789   -1.9679 H   0  0  0  0  0  0  0  0  0  0  0  0
    5.8574    1.2051   -0.1966 H   0  0  0  0  0  0  0  0  0  0  0  0
    7.4857    1.4688   -0.8738 H   0  0  0  0  0  0  0  0  0  0  0  0
   -1.2921    1.3652   -2.2666 H   0  0  0  0  0  0  0  0  0  0  0  0
   -0.4582    2.7400   -1.3488 H   0  0  0  0  0  0  0  0  0  0  0  0
   -1.7406    2.2734    0.5830 H   0  0  0  0  0  0  0  0  0  0  0  0
   -2.9069    2.4454   -0.7986 H   0  0  0  0  0  0  0  0  0  0  0  0
   -2.0598   -1.5179    0.5380 H   0  0  0  0  0  0  0  0  0  0  0  0
   -1.3437   -0.2353    1.5415 H   0  0  0  0  0  0  0  0  0  0  0  0
   -0.7514   -1.0908   -1.3541 H   0  0  0  0  0  0  0  0  0  0  0  0
    0.3219   -1.1837    0.0483 H   0  0  0  0  0  0  0  0  0  0  0  0
   -3.0921   -1.3818   -1.8242 H   0  0  0  0  0  0  0  0  0  0  0  0
   -5.3175   -2.2932   -2.4067 H   0  0  0  0  0  0  0  0  0  0  0  0
   -7.2741   -1.4497   -1.2821 H   0  0  0  0  0  0  0  0  0  0  0  0
   -4.0277    2.1617    1.2633 H   0  0  0  0  0  0  0  0  0  0  0  0
   -5.8161    2.1895    1.3375 H   0  0  0  0  0  0  0  0  0  0  0  0
   -4.8768    1.0693    2.3786 H   0  0  0  0  0  0  0  0  0  0  0  0
   -7.6070    1.5315    0.3208 H   0  0  0  0  0  0  0  0  0  0  0  0
   -7.1351    0.6095    1.7492 H   0  0  0  0  0  0  0  0  0  0  0  0
   -8.2468   -0.2035    0.4991 H   0  0  0  0  0  0  0  0  0  0  0  0
  1  2  2  0
  2  3  1  0
  3  4  2  0
  4  5  1  0
  5  6  2  0
  6  7  1  0
  7  8  2  0
  7  9  1  0
  9 10  2  0
  9 11  2  0
  9 12  1  0
 12 13  1  0
 12 14  1  0
  2 15  1  0
 15 16  1  0
 16 17  1  0
 17 18  1  0
 18 19  1  0
 19 20  1  0
 18 21  1  0
 21 22  2  0
 22 23  1  0
 23 24  2  0
 24 25  1  0
 25 26  2  0
 26 27  1  0
 25 28  1  0
  8  3  1  0
 20 15  1  0
 26 21  1  0
  4 29  1  0
  5 30  1  0
  6 31  1  0
  8 32  1  0
 13 33  1  0
 13 34  1  0
 13 35  1  0
 14 36  1  0
 14 37  1  0
 14 38  1  0
 16 39  1  0
 16 40  1  0
 17 41  1  0
 17 42  1  0
 19 43  1  0
 19 44  1  0
 20 45  1  0
 20 46  1  0
 22 47  1  0
 23 48  1  0
 24 49  1  0
 27 50  1  0
 27 51  1  0
 27 52  1  0
 28 53  1  0
 28 54  1  0
 28 55  1  0
M  END
>  <Ligand ID>  (1) 
LIG0001670

>  <Ligand>  (1) 
MLS-0435526.0001

>  <SMILES>  (1) 
O=C(c1cccc(c1)S(=O)(=O)N(C)C)N1CCN(CC1)c1cccc(c1C)C

>  <CID>  (1) 
2090194.0

>  <ChEMBL ID>  (1) 
nan

>  <InChiKey>  (1) 
LLVSVPLTBJKUOS-UHFFFAOYSA-N

>  <InChi>  (1) 
InChI=1S/C21H27N3O3S/c1-16-7-5-10-20(17(16)2)23-11-13-24(14-12-23)21(25)18-8-6-9-19(15-18)28(26,27)22(3)4/h5-10,15H,11-14H2,1-4H3

>  <IUPAC Name>  (1) 
3-[4-(2,3-dimethylphenyl)piperazine-1-carbonyl]-N,N-dimethylbenzenesulfonamide

$$$$
