
     RDKit          3D

 58 63  0  0  0  0  0  0  0  0999 V2000
   -2.8683    4.9015   -0.1643 C   0  0  0  0  0  0  0  0  0  0  0  0
   -3.2241    3.4694   -0.0312 C   0  0  0  0  0  0  0  0  0  0  0  0
   -2.3178    2.5046   -0.1783 N   0  0  0  0  0  0  0  0  0  0  0  0
   -2.5950    1.1681   -0.0563 C   0  0  0  0  0  0  0  0  0  0  0  0
   -1.4571    0.3463   -0.2016 N   0  0  0  0  0  0  0  0  0  0  0  0
   -0.6369   -0.1623    0.8538 C   0  0  0  0  0  0  0  0  0  0  0  0
    0.8293    0.1572    0.6202 C   0  0  0  0  0  0  0  0  0  0  0  0
    1.1891    0.3558   -0.7445 N   0  0  0  0  0  0  0  0  0  0  0  0
    0.2212    0.7963   -1.7772 C   0  0  0  0  0  0  0  0  0  0  0  0
   -1.0294   -0.0211   -1.5686 C   0  0  0  0  0  0  0  0  0  0  0  0
    2.5185    0.1701   -1.2459 C   0  0  0  0  0  0  0  0  0  0  0  0
    2.7918    0.3591   -2.4813 O   0  0  0  0  0  0  0  0  0  0  0  0
    3.6484   -0.2387   -0.4307 C   0  0  0  0  0  0  0  0  0  0  0  0
    3.7794   -1.4410    0.2008 C   0  0  0  0  0  0  0  0  0  0  0  0
    4.9174   -1.7483    0.9430 C   0  0  0  0  0  0  0  0  0  0  0  0
    5.9266   -0.8375    1.0483 C   0  0  0  0  0  0  0  0  0  0  0  0
    5.7976    0.3972    0.4044 C   0  0  0  0  0  0  0  0  0  0  0  0
    4.6829    0.7004   -0.3242 C   0  0  0  0  0  0  0  0  0  0  0  0
    6.8827    1.2652    0.5678 O   0  0  0  0  0  0  0  0  0  0  0  0
    8.2100    0.7688    0.5497 C   0  0  0  0  0  0  0  0  0  0  0  0
    8.3507   -0.5297    1.2702 C   0  0  0  0  0  0  0  0  0  0  0  0
    7.1018   -1.0322    1.7541 O   0  0  0  0  0  0  0  0  0  0  0  0
   -3.8839    0.7238    0.2359 C   0  0  0  0  0  0  0  0  0  0  0  0
   -4.8009    1.7782    0.3814 C   0  0  0  0  0  0  0  0  0  0  0  0
   -4.4756    3.0699    0.2526 N   0  0  0  0  0  0  0  0  0  0  0  0
   -6.3804    1.0372    0.7333 S   0  0  0  0  0  0  0  0  0  0  0  0
   -5.7191   -0.6798    0.6645 C   0  0  0  0  0  0  0  0  0  0  0  0
   -4.3505   -0.5152    0.3780 C   0  0  0  0  0  0  0  0  0  0  0  0
   -3.6735   -1.8812    0.2744 C   0  0  0  0  0  0  0  0  0  0  0  0
   -4.4901   -2.8263   -0.5715 C   0  0  0  0  0  0  0  0  0  0  0  0
   -5.9324   -2.9312   -0.2463 C   0  0  0  0  0  0  0  0  0  0  0  0
   -6.3700   -1.9654    0.8407 C   0  0  0  0  0  0  0  0  0  0  0  0
   -3.5556    5.4968   -0.7613 H   0  0  0  0  0  0  0  0  0  0  0  0
   -1.7946    4.9707   -0.4740 H   0  0  0  0  0  0  0  0  0  0  0  0
   -2.8750    5.2984    0.8996 H   0  0  0  0  0  0  0  0  0  0  0  0
   -0.8217   -1.2164    1.0963 H   0  0  0  0  0  0  0  0  0  0  0  0
   -0.9463    0.4210    1.7751 H   0  0  0  0  0  0  0  0  0  0  0  0
    1.1598    1.0145    1.2688 H   0  0  0  0  0  0  0  0  0  0  0  0
    1.3801   -0.7141    1.0195 H   0  0  0  0  0  0  0  0  0  0  0  0
    0.0190    1.8653   -1.4795 H   0  0  0  0  0  0  0  0  0  0  0  0
    0.6277    0.7162   -2.7827 H   0  0  0  0  0  0  0  0  0  0  0  0
   -1.8052    0.2332   -2.3031 H   0  0  0  0  0  0  0  0  0  0  0  0
   -0.7419   -1.0893   -1.5961 H   0  0  0  0  0  0  0  0  0  0  0  0
    2.9960   -2.1743    0.1206 H   0  0  0  0  0  0  0  0  0  0  0  0
    5.0220   -2.7001    1.4443 H   0  0  0  0  0  0  0  0  0  0  0  0
    4.6237    1.6739   -0.8081 H   0  0  0  0  0  0  0  0  0  0  0  0
    8.8987    1.5138    0.9952 H   0  0  0  0  0  0  0  0  0  0  0  0
    8.4989    0.6890   -0.5417 H   0  0  0  0  0  0  0  0  0  0  0  0
    8.7319   -1.3093    0.5803 H   0  0  0  0  0  0  0  0  0  0  0  0
    9.0692   -0.4834    2.1134 H   0  0  0  0  0  0  0  0  0  0  0  0
   -3.6297   -2.2442    1.3222 H   0  0  0  0  0  0  0  0  0  0  0  0
   -2.6975   -1.8042   -0.2137 H   0  0  0  0  0  0  0  0  0  0  0  0
   -4.3210   -2.6650   -1.6767 H   0  0  0  0  0  0  0  0  0  0  0  0
   -4.0307   -3.8415   -0.3807 H   0  0  0  0  0  0  0  0  0  0  0  0
   -6.2852   -3.9310    0.0837 H   0  0  0  0  0  0  0  0  0  0  0  0
   -6.5375   -2.6717   -1.1671 H   0  0  0  0  0  0  0  0  0  0  0  0
   -7.4764   -1.8400    0.6963 H   0  0  0  0  0  0  0  0  0  0  0  0
   -6.1517   -2.3671    1.8369 H   0  0  0  0  0  0  0  0  0  0  0  0
  1  2  1  0
  2  3  2  0
  3  4  1  0
  4  5  1  0
  5  6  1  0
  6  7  1  0
  7  8  1  0
  8  9  1  0
  9 10  1  0
  8 11  1  0
 11 12  2  0
 11 13  1  0
 13 14  2  0
 14 15  1  0
 15 16  2  0
 16 17  1  0
 17 18  2  0
 17 19  1  0
 19 20  1  0
 20 21  1  0
 21 22  1  0
  4 23  2  0
 23 24  1  0
 24 25  2  0
 24 26  1  0
 26 27  1  0
 27 28  2  0
 28 29  1  0
 29 30  1  0
 30 31  1  0
 31 32  1  0
 25  2  1  0
 32 27  1  0
 10  5  1  0
 18 13  1  0
 28 23  1  0
 22 16  1  0
  1 33  1  0
  1 34  1  0
  1 35  1  0
  6 36  1  0
  6 37  1  0
  7 38  1  0
  7 39  1  0
  9 40  1  0
  9 41  1  0
 10 42  1  0
 10 43  1  0
 14 44  1  0
 15 45  1  0
 18 46  1  0
 20 47  1  0
 20 48  1  0
 21 49  1  0
 21 50  1  0
 29 51  1  0
 29 52  1  0
 30 53  1  0
 30 54  1  0
 31 55  1  0
 31 56  1  0
 32 57  1  0
 32 58  1  0
M  END
>  <Ligand ID>  (1) 
LIG0003917

>  <Ligand>  (1) 
MLS-0437137.0001

>  <SMILES>  (1) 
Cc1nc(N2CCN(CC2)C(=O)c2ccc3c(c2)OCCO3)c2c(n1)sc1c2CCCC1

>  <CID>  (1) 
1434989.0

>  <ChEMBL ID>  (1) 
nan

>  <InChiKey>  (1) 
UZKMXFJXIWPKIR-UHFFFAOYSA-N

>  <InChi>  (1) 
InChI=1S/C24H26N4O3S/c1-15-25-22(21-17-4-2-3-5-20(17)32-23(21)26-15)27-8-10-28(11-9-27)24(29)16-6-7-18-19(14-16)31-13-12-30-18/h6-7,14H,2-5,8-13H2,1H3

>  <IUPAC Name>  (1) 
2,3-dihydro-1,4-benzodioxin-6-yl-[4-(2-methyl-5,6,7,8-tetrahydro-[1]benzothiolo[2,3-d]pyrimidin-4-yl)piperazin-1-yl]methanone

$$$$
