
     RDKit          3D

 50 53  0  0  0  0  0  0  0  0999 V2000
  -11.0175   -0.2969   -1.2043 N   0  0  0  0  0  0  0  0  0  0  0  0
   -9.9169   -0.1798   -0.8676 C   0  0  0  0  0  0  0  0  0  0  0  0
   -8.5549   -0.0491   -0.4396 C   0  0  0  0  0  0  0  0  0  0  0  0
   -7.8620    1.0803   -0.8075 C   0  0  0  0  0  0  0  0  0  0  0  0
   -6.5487    1.2938   -0.4536 C   0  0  0  0  0  0  0  0  0  0  0  0
   -5.9468    0.3024    0.3030 C   0  0  0  0  0  0  0  0  0  0  0  0
   -6.6182   -0.8481    0.6908 C   0  0  0  0  0  0  0  0  0  0  0  0
   -7.9317   -1.0439    0.3271 C   0  0  0  0  0  0  0  0  0  0  0  0
   -6.0010   -1.8011    1.4362 F   0  0  0  0  0  0  0  0  0  0  0  0
   -4.5257    0.5312    0.6657 C   0  0  0  0  0  0  0  0  0  0  0  0
   -3.7648   -0.2744   -0.2504 O   0  0  0  0  0  0  0  0  0  0  0  0
   -2.3555   -0.2755   -0.1687 C   0  0  0  0  0  0  0  0  0  0  0  0
   -1.6126   -1.0441   -1.0403 C   0  0  0  0  0  0  0  0  0  0  0  0
   -0.2610   -1.0017   -0.9131 N   0  0  0  0  0  0  0  0  0  0  0  0
    0.3289   -0.2398    0.0273 C   0  0  0  0  0  0  0  0  0  0  0  0
   -0.4098    0.5191    0.8879 N   0  0  0  0  0  0  0  0  0  0  0  0
   -1.7638    0.5140    0.8045 C   0  0  0  0  0  0  0  0  0  0  0  0
    1.7391   -0.1563    0.1964 N   0  0  0  0  0  0  0  0  0  0  0  0
    2.2934   -0.8750    1.3361 C   0  0  0  0  0  0  0  0  0  0  0  0
    3.7689   -0.9082    1.4048 C   0  0  0  0  0  0  0  0  0  0  0  0
    4.4502   -0.2967    0.2649 N   0  0  0  0  0  0  0  0  0  0  0  0
    3.7875   -0.1756   -1.0210 C   0  0  0  0  0  0  0  0  0  0  0  0
    2.5301    0.6148   -0.7162 C   0  0  1  0  0  0  0  0  0  0  0  0
    1.8149    1.0643   -1.9418 C   0  0  0  0  0  0  0  0  0  0  0  0
    5.7740    0.1654    0.5086 C   0  0  0  0  0  0  0  0  0  0  0  0
    6.2349    1.4482    0.5089 N   0  0  0  0  0  0  0  0  0  0  0  0
    7.5152    1.4601    0.7798 N   0  0  0  0  0  0  0  0  0  0  0  0
    7.8878    0.1810    0.9569 C   0  0  0  0  0  0  0  0  0  0  0  0
    6.8102   -0.5750    0.7849 O   0  0  0  0  0  0  0  0  0  0  0  0
    9.2166   -0.3947    1.2849 C   0  0  0  0  0  0  0  0  0  0  0  0
    9.2099   -1.7696    1.0977 F   0  0  0  0  0  0  0  0  0  0  0  0
    9.5757   -0.0800    2.5892 F   0  0  0  0  0  0  0  0  0  0  0  0
   10.2208    0.0912    0.4837 F   0  0  0  0  0  0  0  0  0  0  0  0
   -8.3329    1.8732   -1.4069 H   0  0  0  0  0  0  0  0  0  0  0  0
   -6.0068    2.1911   -0.7472 H   0  0  0  0  0  0  0  0  0  0  0  0
   -8.5040   -1.9264    0.6066 H   0  0  0  0  0  0  0  0  0  0  0  0
   -4.2970    0.2353    1.7149 H   0  0  0  0  0  0  0  0  0  0  0  0
   -4.2057    1.5708    0.5272 H   0  0  0  0  0  0  0  0  0  0  0  0
   -2.0952   -1.6672   -1.8108 H   0  0  0  0  0  0  0  0  0  0  0  0
   -2.3769    1.1165    1.4792 H   0  0  0  0  0  0  0  0  0  0  0  0
    1.8804   -0.4762    2.2753 H   0  0  0  0  0  0  0  0  0  0  0  0
    1.8965   -1.9300    1.1990 H   0  0  0  0  0  0  0  0  0  0  0  0
    4.1189   -0.4714    2.3691 H   0  0  0  0  0  0  0  0  0  0  0  0
    4.1017   -1.9897    1.4322 H   0  0  0  0  0  0  0  0  0  0  0  0
    4.4229    0.3964   -1.7348 H   0  0  0  0  0  0  0  0  0  0  0  0
    3.5400   -1.1850   -1.4027 H   0  0  0  0  0  0  0  0  0  0  0  0
    2.8389    1.5349   -0.1324 H   0  0  0  0  0  0  0  0  0  0  0  0
    1.0795    0.3604   -2.3221 H   0  0  0  0  0  0  0  0  0  0  0  0
    2.5932    1.3836   -2.6797 H   0  0  0  0  0  0  0  0  0  0  0  0
    1.2793    2.0036   -1.6794 H   0  0  0  0  0  0  0  0  0  0  0  0
  1  2  3  0
  2  3  1  0
  3  4  2  0
  4  5  1  0
  5  6  2  0
  6  7  1  0
  7  8  2  0
  7  9  1  0
  6 10  1  0
 10 11  1  0
 11 12  1  0
 12 13  2  0
 13 14  1  0
 14 15  2  0
 15 16  1  0
 16 17  2  0
 15 18  1  0
 18 19  1  0
 19 20  1  0
 20 21  1  0
 21 22  1  0
 22 23  1  0
 23 24  1  0
 21 25  1  0
 25 26  2  0
 26 27  1  0
 27 28  2  0
 28 29  1  0
 28 30  1  0
 30 31  1  0
 30 32  1  0
 30 33  1  0
  8  3  1  0
 17 12  1  0
 23 18  1  0
 29 25  1  0
  4 34  1  0
  5 35  1  0
  8 36  1  0
 10 37  1  0
 10 38  1  0
 13 39  1  0
 17 40  1  0
 19 41  1  0
 19 42  1  0
 20 43  1  0
 20 44  1  0
 22 45  1  0
 22 46  1  0
 23 47  1  1
 24 48  1  0
 24 49  1  0
 24 50  1  0
M  END
>  <Ligand ID>  (1) 
LIG0005268

>  <Ligand>  (1) 
CHEMBL3357999

>  <SMILES>  (1) 
N#Cc1ccc(c(c1)F)COc1cnc(nc1)N1CCN(C[C@H]1C)c1nnc(o1)C(F)(F)F

>  <CID>  (1) 
118722575.0

>  <ChEMBL ID>  (1) 
nan

>  <InChiKey>  (1) 
DJPAKBMZZYZGIM-GFCCVEGCSA-N

>  <InChi>  (1) 
InChI=1S/C20H17F4N7O2/c1-12-10-30(19-29-28-17(33-19)20(22,23)24)4-5-31(12)18-26-8-15(9-27-18)32-11-14-3-2-13(7-25)6-16(14)21/h2-3,6,8-9,12H,4-5,10-11H2,1H3/t12-/m1/s1

>  <IUPAC Name>  (1) 
3-fluoro-4-[[2-[(2R)-2-methyl-4-[5-(trifluoromethyl)-1,3,4-oxadiazol-2-yl]piperazin-1-yl]pyrimidin-5-yl]oxymethyl]benzonitrile

$$$$
