
     RDKit          3D

 57 60  0  0  0  0  0  0  0  0999 V2000
    6.1354   -1.4049    1.0370 C   0  0  0  0  0  0  0  0  0  0  0  0
    5.1725   -1.0556    0.0965 O   0  0  0  0  0  0  0  0  0  0  0  0
    5.1609    0.2067   -0.5680 C   0  0  0  0  0  0  0  0  0  0  0  0
    6.0652    1.1512   -0.3456 C   0  0  0  0  0  0  0  0  0  0  0  0
    5.9681    2.3315   -1.0350 C   0  0  0  0  0  0  0  0  0  0  0  0
    4.4753    2.1012   -2.0924 S   0  0  0  0  0  0  0  0  0  0  0  0
    4.1579    0.4544   -1.4874 C   0  0  0  0  0  0  0  0  0  0  0  0
    3.0537   -0.3834   -1.9211 C   0  0  0  0  0  0  0  0  0  0  0  0
    2.0322   -0.3925   -0.8937 N   0  0  0  0  0  0  0  0  0  0  0  0
    1.5065    0.8989   -0.6054 C   0  0  0  0  0  0  0  0  0  0  0  0
    0.4632    0.9139    0.4408 C   0  0  0  0  0  0  0  0  0  0  0  0
   -0.7800    0.1454    0.2165 C   0  0  1  0  0  0  0  0  0  0  0  0
   -0.6819   -1.3147    0.0255 C   0  0  0  0  0  0  0  0  0  0  0  0
   -1.0323   -2.0543    1.3277 C   0  0  0  0  0  0  0  0  0  0  0  0
   -2.4067   -1.9542    1.4690 O   0  0  0  0  0  0  0  0  0  0  0  0
   -2.8113   -0.6320    1.5010 C   0  0  0  0  0  0  0  0  0  0  0  0
   -1.7353    0.3759    1.3953 C   0  0  0  0  0  0  0  0  0  0  0  0
   -3.9625   -0.4465    0.5275 C   0  0  0  0  0  0  0  0  0  0  0  0
   -4.9265   -1.4879    1.1088 C   0  0  0  0  0  0  0  0  0  0  0  0
   -4.8546   -1.1800    2.5805 C   0  0  0  0  0  0  0  0  0  0  0  0
   -3.5460   -0.4138    2.8058 C   0  0  0  0  0  0  0  0  0  0  0  0
   -1.4771    0.8037   -0.9545 C   0  0  0  0  0  0  0  0  0  0  0  0
   -1.1931    0.3522   -2.2146 C   0  0  0  0  0  0  0  0  0  0  0  0
   -1.8275    0.9513   -3.2946 C   0  0  0  0  0  0  0  0  0  0  0  0
   -2.7233    1.9764   -3.1163 C   0  0  0  0  0  0  0  0  0  0  0  0
   -2.9808    2.4017   -1.8223 C   0  0  0  0  0  0  0  0  0  0  0  0
   -2.3537    1.8075   -0.7737 N   0  0  0  0  0  0  0  0  0  0  0  0
    6.4282   -0.5265    1.6638 H   0  0  0  0  0  0  0  0  0  0  0  0
    7.0294   -1.7811    0.4865 H   0  0  0  0  0  0  0  0  0  0  0  0
    5.7535   -2.2275    1.6485 H   0  0  0  0  0  0  0  0  0  0  0  0
    6.9067    1.0289    0.3811 H   0  0  0  0  0  0  0  0  0  0  0  0
    6.5556    3.2421   -1.0446 H   0  0  0  0  0  0  0  0  0  0  0  0
    2.6023    0.0104   -2.8507 H   0  0  0  0  0  0  0  0  0  0  0  0
    3.4116   -1.3983   -2.1159 H   0  0  0  0  0  0  0  0  0  0  0  0
    2.3773   -0.8045   -0.0007 H   0  0  0  0  0  0  0  0  0  0  0  0
    1.2393    1.4840   -1.5196 H   0  0  0  0  0  0  0  0  0  0  0  0
    2.3760    1.4914   -0.1842 H   0  0  0  0  0  0  0  0  0  0  0  0
    0.9681    0.5746    1.3977 H   0  0  0  0  0  0  0  0  0  0  0  0
    0.2493    2.0023    0.6633 H   0  0  0  0  0  0  0  0  0  0  0  0
    0.2054   -1.7276   -0.4347 H   0  0  0  0  0  0  0  0  0  0  0  0
   -1.5263   -1.5991   -0.6773 H   0  0  0  0  0  0  0  0  0  0  0  0
   -0.5631   -1.6067    2.2089 H   0  0  0  0  0  0  0  0  0  0  0  0
   -0.7449   -3.1077    1.1873 H   0  0  0  0  0  0  0  0  0  0  0  0
   -1.1729    0.4130    2.3470 H   0  0  0  0  0  0  0  0  0  0  0  0
   -2.1841    1.3689    1.2652 H   0  0  0  0  0  0  0  0  0  0  0  0
   -4.4634    0.5349    0.7054 H   0  0  0  0  0  0  0  0  0  0  0  0
   -3.7110   -0.6278   -0.5134 H   0  0  0  0  0  0  0  0  0  0  0  0
   -5.9386   -1.4120    0.6774 H   0  0  0  0  0  0  0  0  0  0  0  0
   -4.4393   -2.4739    0.9683 H   0  0  0  0  0  0  0  0  0  0  0  0
   -5.7392   -0.5912    2.8785 H   0  0  0  0  0  0  0  0  0  0  0  0
   -4.7358   -2.1165    3.1949 H   0  0  0  0  0  0  0  0  0  0  0  0
   -3.0047   -0.7444    3.6949 H   0  0  0  0  0  0  0  0  0  0  0  0
   -3.7970    0.6695    2.8837 H   0  0  0  0  0  0  0  0  0  0  0  0
   -0.4898   -0.4577   -2.4017 H   0  0  0  0  0  0  0  0  0  0  0  0
   -1.5930    0.5839   -4.2818 H   0  0  0  0  0  0  0  0  0  0  0  0
   -3.2203    2.4454   -3.9660 H   0  0  0  0  0  0  0  0  0  0  0  0
   -3.6776    3.2010   -1.6692 H   0  0  0  0  0  0  0  0  0  0  0  0
  1  2  1  0
  2  3  1  0
  3  4  1  0
  4  5  2  0
  5  6  1  0
  6  7  1  0
  7  8  1  0
  8  9  1  0
  9 10  1  0
 10 11  1  0
 12 11  1  1
 12 13  1  0
 13 14  1  0
 14 15  1  0
 15 16  1  0
 16 17  1  0
 16 18  1  0
 18 19  1  0
 19 20  1  0
 20 21  1  0
 12 22  1  0
 22 23  2  0
 23 24  1  0
 24 25  2  0
 25 26  1  0
 26 27  2  0
  7  3  2  0
 17 12  1  0
 27 22  1  0
 21 16  1  0
  1 28  1  0
  1 29  1  0
  1 30  1  0
  4 31  1  0
  5 32  1  0
  8 33  1  0
  8 34  1  0
  9 35  1  0
 10 36  1  0
 10 37  1  0
 11 38  1  0
 11 39  1  0
 13 40  1  0
 13 41  1  0
 14 42  1  0
 14 43  1  0
 17 44  1  0
 17 45  1  0
 18 46  1  0
 18 47  1  0
 19 48  1  0
 19 49  1  0
 20 50  1  0
 20 51  1  0
 21 52  1  0
 21 53  1  0
 23 54  1  0
 24 55  1  0
 25 56  1  0
 26 57  1  0
M  END
>  <Ligand ID>  (1) 
LIG0004763

>  <Ligand>  (1) 
Oliceridine

>  <SMILES>  (1) 
COc1ccsc1CNCC[C@]1(CCOC2(C1)CCCC2)c1ccccn1

>  <CID>  (1) 
66553195.0

>  <ChEMBL ID>  (1) 
nan

>  <InChiKey>  (1) 
DMNOVGJWPASQDL-OAQYLSRUSA-N

>  <InChi>  (1) 
InChI=1S/C22H30N2O2S/c1-25-18-7-15-27-19(18)16-23-13-10-21(20-6-2-5-12-24-20)11-14-26-22(17-21)8-3-4-9-22/h2,5-7,12,15,23H,3-4,8-11,13-14,16-17H2,1H3/t21-/m1/s1

>  <IUPAC Name>  (1) 
N-[(3-methoxythiophen-2-yl)methyl]-2-[(9R)-9-pyridin-2-yl-6-oxaspiro[4.5]decan-9-yl]ethanamine

$$$$
