
     RDKit          3D

 37 39  0  0  0  0  0  0  0  0999 V2000
   -5.6583    0.5036   -0.0922 C   0  0  0  0  0  0  0  0  0  0  0  0
   -4.2879    0.7869   -0.5935 C   0  0  0  0  0  0  0  0  0  0  0  0
   -4.0509    1.8746   -1.4091 C   0  0  0  0  0  0  0  0  0  0  0  0
   -2.7497    2.0601   -1.8264 C   0  0  0  0  0  0  0  0  0  0  0  0
   -1.7627    1.1667   -1.4173 C   0  0  0  0  0  0  0  0  0  0  0  0
   -2.0047    0.0915   -0.6094 C   0  0  0  0  0  0  0  0  0  0  0  0
   -3.3058   -0.0605   -0.2156 N   0  0  0  0  0  0  0  0  0  0  0  0
   -1.0624   -0.8746   -0.1394 C   0  0  0  0  0  0  0  0  0  0  0  0
   -1.5432   -1.8987    0.6860 C   0  0  0  0  0  0  0  0  0  0  0  0
   -0.7083   -2.8783    1.1893 C   0  0  0  0  0  0  0  0  0  0  0  0
    0.6371   -2.9049    0.9104 C   0  0  0  0  0  0  0  0  0  0  0  0
    1.1270   -1.9029    0.0983 C   0  0  0  0  0  0  0  0  0  0  0  0
    0.2828   -0.9168   -0.4070 C   0  0  0  0  0  0  0  0  0  0  0  0
    0.8478    0.0389   -1.2045 O   0  0  0  0  0  0  0  0  0  0  0  0
    2.1776    0.1810   -1.5862 C   0  0  0  0  0  0  0  0  0  0  0  0
    3.1000    0.4006   -0.4141 C   0  0  0  0  0  0  0  0  0  0  0  0
    2.7871    0.5715    0.8222 N   0  0  0  0  0  0  0  0  0  0  0  0
    3.9664    0.7477    1.6292 C   0  0  0  0  0  0  0  0  0  0  0  0
    5.0419    1.0234    0.6120 C   0  0  0  0  0  0  0  0  0  0  0  0
    4.5104    0.4563   -0.5912 N   0  0  0  0  0  0  0  0  0  0  0  0
   -5.7361    0.9451    0.9421 H   0  0  0  0  0  0  0  0  0  0  0  0
   -5.8682   -0.5743    0.0157 H   0  0  0  0  0  0  0  0  0  0  0  0
   -6.4402    1.0243   -0.6705 H   0  0  0  0  0  0  0  0  0  0  0  0
   -4.8704    2.5248   -1.6844 H   0  0  0  0  0  0  0  0  0  0  0  0
   -2.5336    2.8983   -2.4623 H   0  0  0  0  0  0  0  0  0  0  0  0
   -0.7751    1.3656   -1.7748 H   0  0  0  0  0  0  0  0  0  0  0  0
   -2.5839   -1.9728    0.9680 H   0  0  0  0  0  0  0  0  0  0  0  0
   -1.1121   -3.6525    1.8223 H   0  0  0  0  0  0  0  0  0  0  0  0
    1.2997   -3.6645    1.2972 H   0  0  0  0  0  0  0  0  0  0  0  0
    2.1832   -1.9401   -0.1198 H   0  0  0  0  0  0  0  0  0  0  0  0
    2.2425    1.1005   -2.2015 H   0  0  0  0  0  0  0  0  0  0  0  0
    2.5351   -0.7077   -2.1505 H   0  0  0  0  0  0  0  0  0  0  0  0
    4.2282   -0.2171    2.1214 H   0  0  0  0  0  0  0  0  0  0  0  0
    3.8596    1.5662    2.3659 H   0  0  0  0  0  0  0  0  0  0  0  0
    5.1728    2.1318    0.4760 H   0  0  0  0  0  0  0  0  0  0  0  0
    5.9933    0.5472    0.9370 H   0  0  0  0  0  0  0  0  0  0  0  0
    5.0609    0.1590   -1.4021 H   0  0  0  0  0  0  0  0  0  0  0  0
  1  2  1  0
  2  3  2  0
  3  4  1  0
  4  5  2  0
  5  6  1  0
  6  7  2  0
  6  8  1  0
  8  9  2  0
  9 10  1  0
 10 11  2  0
 11 12  1  0
 12 13  2  0
 13 14  1  0
 14 15  1  0
 15 16  1  0
 16 17  2  0
 17 18  1  0
 18 19  1  0
 19 20  1  0
  7  2  1  0
 13  8  1  0
 20 16  1  0
  1 21  1  0
  1 22  1  0
  1 23  1  0
  3 24  1  0
  4 25  1  0
  5 26  1  0
  9 27  1  0
 10 28  1  0
 11 29  1  0
 12 30  1  0
 15 31  1  0
 15 32  1  0
 18 33  1  0
 18 34  1  0
 19 35  1  0
 19 36  1  0
 20 37  1  0
M  END
>  <Ligand ID>  (1) 
LIG0003852

>  <Ligand>  (1) 
CHEMBL342324

>  <SMILES>  (1) 
Cc1cccc(n1)c1ccccc1OCC1=NCCN1

>  <CID>  (1) 
44362510.0

>  <ChEMBL ID>  (1) 
nan

>  <InChiKey>  (1) 
GLMXXNANUJWHRB-UHFFFAOYSA-N

>  <InChi>  (1) 
InChI=1S/C16H17N3O/c1-12-5-4-7-14(19-12)13-6-2-3-8-15(13)20-11-16-17-9-10-18-16/h2-8H,9-11H2,1H3,(H,17,18)

>  <IUPAC Name>  (1) 
2-[2-(4,5-dihydro-1H-imidazol-2-ylmethoxy)phenyl]-6-methylpyridine

$$$$
