
     RDKit          3D

 57 64  0  0  0  0  0  0  0  0999 V2000
    1.7657    4.9165    0.7089 O   0  0  0  0  0  0  0  0  0  0  0  0
    0.9056    3.8701    0.9738 C   0  0  0  0  0  0  0  0  0  0  0  0
    0.1038    3.8482    2.1204 C   0  0  0  0  0  0  0  0  0  0  0  0
   -0.7606    2.7849    2.3770 C   0  0  0  0  0  0  0  0  0  0  0  0
   -0.8226    1.7347    1.4769 C   0  0  0  0  0  0  0  0  0  0  0  0
   -0.0270    1.8043    0.3819 C   0  0  0  0  0  0  0  0  0  0  0  0
    0.8379    2.8167    0.0791 C   0  0  0  0  0  0  0  0  0  0  0  0
    1.4375    2.4666   -1.1172 O   0  0  0  0  0  0  0  0  0  0  0  0
    1.3303    1.0356   -1.2888 C   0  0  2  0  0  0  0  0  0  0  0  0
   -0.0114    0.7498   -0.6640 C   0  0  2  0  0  0  0  0  0  0  0  0
   -1.1064    0.9378   -1.6506 C   0  0  0  0  0  0  0  0  0  0  0  0
   -2.4632    0.5633   -1.2059 C   0  0  0  0  0  0  0  0  0  0  0  0
   -2.5431   -0.5250   -0.2954 N   0  0  0  0  0  0  0  0  0  0  0  0
   -1.5249   -0.5163    0.7225 C   0  0  2  0  0  0  0  0  0  0  0  0
   -1.7121    0.5757    1.7263 C   0  0  0  0  0  0  0  0  0  0  0  0
   -0.1525   -0.5340    0.0561 C   0  0  1  0  0  0  0  0  0  0  0  0
   -0.1060   -1.5881   -0.8203 O   0  0  0  0  0  0  0  0  0  0  0  0
    0.9334   -0.7262    1.0856 C   0  0  0  0  0  0  0  0  0  0  0  0
    2.2347   -0.5141    0.4118 C   0  0  0  0  0  0  0  0  0  0  0  0
    2.4270    0.2939   -0.6772 C   0  0  0  0  0  0  0  0  0  0  0  0
    3.7357    0.2470   -1.0217 N   0  0  0  0  0  0  0  0  0  0  0  0
    4.3630   -0.5827   -0.1586 C   0  0  0  0  0  0  0  0  0  0  0  0
    3.4635   -1.0839    0.7585 C   0  0  0  0  0  0  0  0  0  0  0  0
    3.8595   -1.9617    1.7548 C   0  0  0  0  0  0  0  0  0  0  0  0
    5.1923   -2.3480    1.8351 C   0  0  0  0  0  0  0  0  0  0  0  0
    6.1206   -1.8606    0.9271 C   0  0  0  0  0  0  0  0  0  0  0  0
    5.6720   -0.9895   -0.0447 C   0  0  0  0  0  0  0  0  0  0  0  0
   -2.8787   -1.7978   -0.8285 C   0  0  0  0  0  0  0  0  0  0  0  0
   -4.3345   -1.7437   -1.3000 C   0  0  0  0  0  0  0  0  0  0  0  0
   -5.4144   -1.4348   -0.3235 C   0  0  0  0  0  0  0  0  0  0  0  0
   -5.2768   -2.8301   -0.9513 C   0  0  0  0  0  0  0  0  0  0  0  0
    1.5252    5.7412    0.2109 H   0  0  0  0  0  0  0  0  0  0  0  0
    0.1957    4.6955    2.7866 H   0  0  0  0  0  0  0  0  0  0  0  0
   -1.3564    2.8144    3.2728 H   0  0  0  0  0  0  0  0  0  0  0  0
    1.2109    0.8885   -2.3816 H   0  0  0  0  0  0  0  0  0  0  0  0
   -0.7971    0.4663   -2.6078 H   0  0  0  0  0  0  0  0  0  0  0  0
   -1.1227    2.0424   -1.8966 H   0  0  0  0  0  0  0  0  0  0  0  0
   -3.0662    0.2651   -2.1140 H   0  0  0  0  0  0  0  0  0  0  0  0
   -3.0246    1.4159   -0.7763 H   0  0  0  0  0  0  0  0  0  0  0  0
   -1.6067   -1.4939    1.2464 H   0  0  0  0  0  0  0  0  0  0  0  0
   -2.7848    0.8591    1.6935 H   0  0  0  0  0  0  0  0  0  0  0  0
   -1.4479    0.1417    2.7369 H   0  0  0  0  0  0  0  0  0  0  0  0
    0.7439   -1.5106   -1.3384 H   0  0  0  0  0  0  0  0  0  0  0  0
    0.8368   -1.7587    1.4887 H   0  0  0  0  0  0  0  0  0  0  0  0
    0.8823    0.0199    1.8996 H   0  0  0  0  0  0  0  0  0  0  0  0
    4.2140    0.7575   -1.8209 H   0  0  0  0  0  0  0  0  0  0  0  0
    3.1126   -2.3267    2.4511 H   0  0  0  0  0  0  0  0  0  0  0  0
    5.4747   -3.0447    2.6357 H   0  0  0  0  0  0  0  0  0  0  0  0
    7.1511   -2.1820    1.0178 H   0  0  0  0  0  0  0  0  0  0  0  0
    6.3748   -0.5985   -0.7602 H   0  0  0  0  0  0  0  0  0  0  0  0
   -2.2219   -2.0459   -1.6891 H   0  0  0  0  0  0  0  0  0  0  0  0
   -2.7399   -2.5681   -0.0459 H   0  0  0  0  0  0  0  0  0  0  0  0
   -4.4656   -1.2592   -2.3014 H   0  0  0  0  0  0  0  0  0  0  0  0
   -5.1193   -1.3573    0.7412 H   0  0  0  0  0  0  0  0  0  0  0  0
   -6.3006   -0.8307   -0.6540 H   0  0  0  0  0  0  0  0  0  0  0  0
   -6.0553   -3.1092   -1.6851 H   0  0  0  0  0  0  0  0  0  0  0  0
   -4.8615   -3.6305   -0.3022 H   0  0  0  0  0  0  0  0  0  0  0  0
  1  2  1  0
  2  3  2  0
  3  4  1  0
  4  5  2  0
  5  6  1  0
  6  7  2  0
  7  8  1  0
  8  9  1  0
  9 10  1  0
 10 11  1  6
 11 12  1  0
 12 13  1  0
 13 14  1  0
 14 15  1  0
 14 16  1  0
 16 17  1  6
 16 18  1  0
 18 19  1  0
 19 20  2  0
 20 21  1  0
 21 22  1  0
 22 23  2  0
 23 24  1  0
 24 25  2  0
 25 26  1  0
 26 27  2  0
 13 28  1  0
 28 29  1  0
 29 30  1  0
 30 31  1  0
  7  2  1  0
 20  9  1  0
 27 22  1  0
 31 29  1  0
 15  5  1  0
 23 19  1  0
 10  6  1  0
 16 10  1  0
  1 32  1  0
  3 33  1  0
  4 34  1  0
  9 35  1  6
 11 36  1  0
 11 37  1  0
 12 38  1  0
 12 39  1  0
 14 40  1  1
 15 41  1  0
 15 42  1  0
 17 43  1  0
 18 44  1  0
 18 45  1  0
 21 46  1  0
 24 47  1  0
 25 48  1  0
 26 49  1  0
 27 50  1  0
 28 51  1  0
 28 52  1  0
 29 53  1  0
 30 54  1  0
 30 55  1  0
 31 56  1  0
 31 57  1  0
M  END
>  <Ligand ID>  (1) 
LIG0001335

>  <Ligand>  (1) 
Naltrindole

>  <SMILES>  (1) 
Oc1ccc2c3c1O[C@@H]1[C@@]43CCN([C@H](C2)[C@]4(O)Cc2c1[nH]c1c2cccc1)CC1CC1

>  <CID>  (1) 
5497186.0

>  <ChEMBL ID>  (1) 
nan

>  <InChiKey>  (1) 
WIYUZYBFCWCCQJ-IFKAHUTRSA-N

>  <InChi>  (1) 
InChI=1S/C26H26N2O3/c29-19-8-7-15-11-20-26(30)12-17-16-3-1-2-4-18(16)27-22(17)24-25(26,21(15)23(19)31-24)9-10-28(20)13-14-5-6-14/h1-4,7-8,14,20,24,27,29-30H,5-6,9-13H2/t20-,24+,25+,26-/m1/s1

>  <IUPAC Name>  (1) 
(1S,2S,13R,21R)-22-(cyclopropylmethyl)-14-oxa-11,22-diazaheptacyclo[13.9.1.01,13.02,21.04,12.05,10.019,25]pentacosa-4(12),5,7,9,15,17,19(25)-heptaene-2,16-diol

$$$$
