
     RDKit          3D

 51 53  0  0  0  0  0  0  0  0999 V2000
   -4.2560    3.6662    1.3287 Cl  0  0  0  0  0  0  0  0  0  0  0  0
   -4.3001    2.1996    0.3735 C   0  0  0  0  0  0  0  0  0  0  0  0
   -3.9325    2.2589   -0.9493 C   0  0  0  0  0  0  0  0  0  0  0  0
   -3.9684    1.1045   -1.6979 C   0  0  0  0  0  0  0  0  0  0  0  0
   -4.3625   -0.1212   -1.1686 C   0  0  0  0  0  0  0  0  0  0  0  0
   -4.7316   -0.1823    0.1572 C   0  0  0  0  0  0  0  0  0  0  0  0
   -4.6934    0.9958    0.9164 C   0  0  0  0  0  0  0  0  0  0  0  0
   -5.1953   -1.3920    0.8292 C   0  0  2  0  0  0  0  0  0  0  0  0
   -4.2290   -2.4979    1.0253 C   0  0  0  0  0  0  0  0  0  0  0  0
   -3.0810   -2.2908    1.8071 N   0  0  0  0  0  0  0  0  0  0  0  0
   -2.0353   -1.4680    1.3216 C   0  0  0  0  0  0  0  0  0  0  0  0
   -1.3218   -2.1247    0.1250 C   0  0  0  0  0  0  0  0  0  0  0  0
   -0.2453   -1.1958   -0.2878 C   0  0  0  0  0  0  0  0  0  0  0  0
   -0.3966   -0.1986   -1.2218 C   0  0  0  0  0  0  0  0  0  0  0  0
    0.6583    0.6281   -1.5552 C   0  0  0  0  0  0  0  0  0  0  0  0
    1.9060    0.4714   -0.9514 C   0  0  0  0  0  0  0  0  0  0  0  0
    2.0641   -0.5300   -0.0113 C   0  0  0  0  0  0  0  0  0  0  0  0
    0.9933   -1.3603    0.3195 C   0  0  0  0  0  0  0  0  0  0  0  0
    3.2821   -0.7241    0.6134 O   0  0  0  0  0  0  0  0  0  0  0  0
    4.3378    0.1031    0.2675 C   0  0  0  0  0  0  0  0  0  0  0  0
    4.6290    1.2861    0.9081 C   0  0  0  0  0  0  0  0  0  0  0  0
    5.7103    2.0112    0.4591 C   0  0  0  0  0  0  0  0  0  0  0  0
    6.5041    1.5945   -0.6020 C   0  0  0  0  0  0  0  0  0  0  0  0
    6.2026    0.4052   -1.2379 C   0  0  0  0  0  0  0  0  0  0  0  0
    5.1241   -0.3359   -0.8038 C   0  0  0  0  0  0  0  0  0  0  0  0
    7.6445    2.3648   -1.0697 C   0  0  0  0  0  0  0  0  0  0  0  0
    8.3546    1.9816   -2.0318 O   0  0  0  0  0  0  0  0  0  0  0  0
    7.9936    3.5605   -0.4667 O   0  0  0  0  0  0  0  0  0  0  0  0
   -6.2182   -1.9448   -0.0036 O   0  0  0  0  0  0  0  0  0  0  0  0
   -3.6156    3.1781   -1.4267 H   0  0  0  0  0  0  0  0  0  0  0  0
   -3.6753    1.1694   -2.7396 H   0  0  0  0  0  0  0  0  0  0  0  0
   -4.3893   -1.0160   -1.7513 H   0  0  0  0  0  0  0  0  0  0  0  0
   -4.9846    0.9666    1.9781 H   0  0  0  0  0  0  0  0  0  0  0  0
   -5.7719   -1.1458    1.7713 H   0  0  0  0  0  0  0  0  0  0  0  0
   -4.8200   -3.3265    1.5367 H   0  0  0  0  0  0  0  0  0  0  0  0
   -4.0166   -2.9453    0.0170 H   0  0  0  0  0  0  0  0  0  0  0  0
   -2.7501   -3.0530    2.4069 H   0  0  0  0  0  0  0  0  0  0  0  0
   -2.2635   -0.4387    1.0639 H   0  0  0  0  0  0  0  0  0  0  0  0
   -1.2481   -1.4354    2.1385 H   0  0  0  0  0  0  0  0  0  0  0  0
   -0.9098   -3.1024    0.4319 H   0  0  0  0  0  0  0  0  0  0  0  0
   -2.0090   -2.2554   -0.7226 H   0  0  0  0  0  0  0  0  0  0  0  0
   -1.3393   -0.0689   -1.6906 H   0  0  0  0  0  0  0  0  0  0  0  0
    0.5684    1.4271   -2.2921 H   0  0  0  0  0  0  0  0  0  0  0  0
    2.7431    1.1144   -1.2043 H   0  0  0  0  0  0  0  0  0  0  0  0
    1.1433   -2.1396    1.0618 H   0  0  0  0  0  0  0  0  0  0  0  0
    4.0110    1.6083    1.7320 H   0  0  0  0  0  0  0  0  0  0  0  0
    5.9653    2.9400    0.9378 H   0  0  0  0  0  0  0  0  0  0  0  0
    6.7965    0.0481   -2.0676 H   0  0  0  0  0  0  0  0  0  0  0  0
    4.8956   -1.2650   -1.3072 H   0  0  0  0  0  0  0  0  0  0  0  0
    8.9428    3.9074   -0.5454 H   0  0  0  0  0  0  0  0  0  0  0  0
   -5.7104   -2.4324   -0.7217 H   0  0  0  0  0  0  0  0  0  0  0  0
  1  2  1  0
  2  3  2  0
  3  4  1  0
  4  5  2  0
  5  6  1  0
  6  7  2  0
  6  8  1  0
  8  9  1  0
  9 10  1  0
 10 11  1  0
 11 12  1  0
 12 13  1  0
 13 14  2  0
 14 15  1  0
 15 16  2  0
 16 17  1  0
 17 18  2  0
 17 19  1  0
 19 20  1  0
 20 21  2  0
 21 22  1  0
 22 23  2  0
 23 24  1  0
 24 25  2  0
 23 26  1  0
 26 27  2  0
 26 28  1  0
  8 29  1  0
  7  2  1  0
 18 13  1  0
 25 20  1  0
  3 30  1  0
  4 31  1  0
  5 32  1  0
  7 33  1  0
  8 34  1  1
  9 35  1  0
  9 36  1  0
 10 37  1  0
 11 38  1  0
 11 39  1  0
 12 40  1  0
 12 41  1  0
 14 42  1  0
 15 43  1  0
 16 44  1  0
 18 45  1  0
 21 46  1  0
 22 47  1  0
 24 48  1  0
 25 49  1  0
 28 50  1  0
 29 51  1  0
M  END
>  <Ligand ID>  (1) 
LIG0005869

>  <Ligand>  (1) 
CHEMBL491634

>  <SMILES>  (1) 
Clc1cccc(c1)[C@H](CNCCc1cccc(c1)Oc1ccc(cc1)C(=O)O)O

>  <CID>  (1) 
44579964.0

>  <ChEMBL ID>  (1) 
nan

>  <InChiKey>  (1) 
YTQSFJOJKVZOQU-QFIPXVFZSA-N

>  <InChi>  (1) 
InChI=1S/C23H22ClNO4/c24-19-5-2-4-18(14-19)22(26)15-25-12-11-16-3-1-6-21(13-16)29-20-9-7-17(8-10-20)23(27)28/h1-10,13-14,22,25-26H,11-12,15H2,(H,27,28)/t22-/m0/s1

>  <IUPAC Name>  (1) 
4-[3-[2-[[(2R)-2-(3-chlorophenyl)-2-hydroxyethyl]amino]ethyl]phenoxy]benzoic acid

$$$$
