
     RDKit          3D

 64 67  0  0  0  0  0  0  0  0999 V2000
    6.3014   -1.0664    2.6476 O   0  0  0  0  0  0  0  0  0  0  0  0
    6.0980   -1.5855    1.3613 C   0  0  0  0  0  0  0  0  0  0  0  0
    4.9134   -1.8016    1.0365 O   0  0  0  0  0  0  0  0  0  0  0  0
    7.2855   -1.8189    0.5377 C   0  0  0  0  0  0  0  0  0  0  0  0
    7.0016   -2.3354   -0.8299 C   0  0  0  0  0  0  0  0  0  0  0  0
    6.1587   -1.3891   -1.6382 C   0  0  0  0  0  0  0  0  0  0  0  0
    6.8255   -0.0468   -1.8160 C   0  0  0  0  0  0  0  0  0  0  0  0
    5.8929    0.8204   -2.6547 C   0  0  0  0  0  0  0  0  0  0  0  0
    4.5781    1.0269   -2.0298 C   0  0  0  0  0  0  0  0  0  0  0  0
    3.4827    0.2156   -2.2204 C   0  0  0  0  0  0  0  0  0  0  0  0
    2.2988    0.4909   -1.5931 C   0  0  0  0  0  0  0  0  0  0  0  0
    2.1367    1.5760   -0.7496 C   0  0  0  0  0  0  0  0  0  0  0  0
    3.2296    2.3930   -0.5540 C   0  0  0  0  0  0  0  0  0  0  0  0
    4.4192    2.1079   -1.1905 C   0  0  0  0  0  0  0  0  0  0  0  0
    3.0996    3.5789    0.3505 C   0  0  0  0  0  0  0  0  0  0  0  0
    0.8549    1.8370   -0.0972 C   0  0  0  0  0  0  0  0  0  0  0  0
    0.5560    2.8299    0.7298 N   0  0  0  0  0  0  0  0  0  0  0  0
   -0.6781    2.7213    1.0973 O   0  0  0  0  0  0  0  0  0  0  0  0
   -1.1753    1.6637    0.5112 C   0  0  0  0  0  0  0  0  0  0  0  0
   -0.2429    1.0887   -0.2422 N   0  0  0  0  0  0  0  0  0  0  0  0
   -2.5513    1.2242    0.6905 C   0  0  0  0  0  0  0  0  0  0  0  0
   -3.3809    1.9524    1.5180 C   0  0  0  0  0  0  0  0  0  0  0  0
   -4.6991    1.6201    1.7536 C   0  0  0  0  0  0  0  0  0  0  0  0
   -5.2167    0.4862    1.1189 C   0  0  0  0  0  0  0  0  0  0  0  0
   -4.3914   -0.2462    0.2899 C   0  0  0  0  0  0  0  0  0  0  0  0
   -3.0667    0.1054    0.0659 C   0  0  0  0  0  0  0  0  0  0  0  0
   -6.6504    0.0832    1.3447 C   0  0  0  0  0  0  0  0  0  0  0  0
   -7.4369    0.2419    0.0938 C   0  0  0  0  0  0  0  0  0  0  0  0
   -7.9402   -1.0143   -0.5412 C   0  0  0  0  0  0  0  0  0  0  0  0
   -8.4742   -1.9598    0.5318 C   0  0  0  0  0  0  0  0  0  0  0  0
   -7.2038   -2.3903    1.2766 C   0  0  0  0  0  0  0  0  0  0  0  0
   -6.7333   -1.2064    2.0587 C   0  0  0  0  0  0  0  0  0  0  0  0
    5.5107   -0.7749    3.2272 H   0  0  0  0  0  0  0  0  0  0  0  0
    7.9830   -2.5585    1.0298 H   0  0  0  0  0  0  0  0  0  0  0  0
    7.8908   -0.8708    0.4306 H   0  0  0  0  0  0  0  0  0  0  0  0
    6.5090   -3.3362   -0.7691 H   0  0  0  0  0  0  0  0  0  0  0  0
    7.9764   -2.4520   -1.3676 H   0  0  0  0  0  0  0  0  0  0  0  0
    5.1831   -1.2067   -1.1594 H   0  0  0  0  0  0  0  0  0  0  0  0
    5.9924   -1.8303   -2.6529 H   0  0  0  0  0  0  0  0  0  0  0  0
    7.0005    0.4183   -0.8239 H   0  0  0  0  0  0  0  0  0  0  0  0
    7.7639   -0.1785   -2.3906 H   0  0  0  0  0  0  0  0  0  0  0  0
    5.8141    0.3727   -3.6621 H   0  0  0  0  0  0  0  0  0  0  0  0
    6.3884    1.8136   -2.7963 H   0  0  0  0  0  0  0  0  0  0  0  0
    3.5890   -0.6527   -2.8868 H   0  0  0  0  0  0  0  0  0  0  0  0
    1.4588   -0.1682   -1.7661 H   0  0  0  0  0  0  0  0  0  0  0  0
    5.2434    2.7785   -1.0036 H   0  0  0  0  0  0  0  0  0  0  0  0
    2.9287    3.3230    1.3959 H   0  0  0  0  0  0  0  0  0  0  0  0
    2.2994    4.2212   -0.0992 H   0  0  0  0  0  0  0  0  0  0  0  0
    4.0239    4.1934    0.2996 H   0  0  0  0  0  0  0  0  0  0  0  0
   -3.0291    2.8536    2.0440 H   0  0  0  0  0  0  0  0  0  0  0  0
   -5.3288    2.2141    2.4118 H   0  0  0  0  0  0  0  0  0  0  0  0
   -4.7864   -1.1218   -0.2020 H   0  0  0  0  0  0  0  0  0  0  0  0
   -2.4190   -0.4734   -0.5876 H   0  0  0  0  0  0  0  0  0  0  0  0
   -7.0366    0.8727    2.0580 H   0  0  0  0  0  0  0  0  0  0  0  0
   -8.3386    0.9086    0.2179 H   0  0  0  0  0  0  0  0  0  0  0  0
   -6.8153    0.7745   -0.6561 H   0  0  0  0  0  0  0  0  0  0  0  0
   -7.1693   -1.5690   -1.1044 H   0  0  0  0  0  0  0  0  0  0  0  0
   -8.7506   -0.7562   -1.2455 H   0  0  0  0  0  0  0  0  0  0  0  0
   -9.1808   -1.4284    1.1892 H   0  0  0  0  0  0  0  0  0  0  0  0
   -8.9206   -2.8301    0.0521 H   0  0  0  0  0  0  0  0  0  0  0  0
   -7.5224   -3.1765    1.9967 H   0  0  0  0  0  0  0  0  0  0  0  0
   -6.5061   -2.7772    0.5279 H   0  0  0  0  0  0  0  0  0  0  0  0
   -7.3402   -1.1523    3.0016 H   0  0  0  0  0  0  0  0  0  0  0  0
   -5.7035   -1.4727    2.4337 H   0  0  0  0  0  0  0  0  0  0  0  0
  1  2  1  0
  2  3  2  0
  2  4  1  0
  4  5  1  0
  5  6  1  0
  6  7  1  0
  7  8  1  0
  8  9  1  0
  9 10  2  0
 10 11  1  0
 11 12  2  0
 12 13  1  0
 13 14  2  0
 13 15  1  0
 12 16  1  0
 16 17  2  0
 17 18  1  0
 18 19  1  0
 19 20  2  0
 19 21  1  0
 21 22  2  0
 22 23  1  0
 23 24  2  0
 24 25  1  0
 25 26  2  0
 24 27  1  0
 27 28  1  0
 28 29  1  0
 29 30  1  0
 30 31  1  0
 31 32  1  0
 14  9  1  0
 20 16  1  0
 26 21  1  0
 32 27  1  0
  1 33  1  0
  4 34  1  0
  4 35  1  0
  5 36  1  0
  5 37  1  0
  6 38  1  0
  6 39  1  0
  7 40  1  0
  7 41  1  0
  8 42  1  0
  8 43  1  0
 10 44  1  0
 11 45  1  0
 14 46  1  0
 15 47  1  0
 15 48  1  0
 15 49  1  0
 22 50  1  0
 23 51  1  0
 25 52  1  0
 26 53  1  0
 27 54  1  0
 28 55  1  0
 28 56  1  0
 29 57  1  0
 29 58  1  0
 30 59  1  0
 30 60  1  0
 31 61  1  0
 31 62  1  0
 32 63  1  0
 32 64  1  0
M  END
>  <Ligand ID>  (1) 
LIG0001696

>  <Ligand>  (1) 
CHEMBL209008

>  <SMILES>  (1) 
OC(=O)CCCCCc1ccc(c(c1)C)c1noc(n1)c1ccc(cc1)C1CCCCC1

>  <CID>  (1) 
44412827.0

>  <ChEMBL ID>  (1) 
nan

>  <InChiKey>  (1) 
NKSKKQUVMKMSNK-UHFFFAOYSA-N

>  <InChi>  (1) 
InChI=1S/C27H32N2O3/c1-19-18-20(8-4-2-7-11-25(30)31)12-17-24(19)26-28-27(32-29-26)23-15-13-22(14-16-23)21-9-5-3-6-10-21/h12-18,21H,2-11H2,1H3,(H,30,31)

>  <IUPAC Name>  (1) 
6-[4-[5-(4-cyclohexylphenyl)-1,2,4-oxadiazol-3-yl]-3-methylphenyl]hexanoic acid

$$$$
