
     RDKit          3D

 57 60  0  0  0  0  0  0  0  0999 V2000
    8.1182   -1.4534   -0.9588 N   0  0  0  0  0  0  0  0  0  0  0  0
    7.1041   -2.0955   -0.1283 C   0  0  0  0  0  0  0  0  0  0  0  0
    6.9582   -1.3666    1.1733 C   0  0  0  0  0  0  0  0  0  0  0  0
    6.5508    0.0495    0.9871 C   0  0  0  0  0  0  0  0  0  0  0  0
    7.3285    1.1933    1.0910 C   0  0  0  0  0  0  0  0  0  0  0  0
    6.5602    2.2623    0.8441 N   0  0  0  0  0  0  0  0  0  0  0  0
    5.2938    1.8965    0.5767 C   0  0  0  0  0  0  0  0  0  0  0  0
    5.2856    0.5195    0.6651 C   0  0  0  0  0  0  0  0  0  0  0  0
    4.1163   -0.1776    0.4418 C   0  0  0  0  0  0  0  0  0  0  0  0
    2.9467    0.5193    0.1270 C   0  0  0  0  0  0  0  0  0  0  0  0
    1.8184   -0.2651   -0.0810 O   0  0  0  0  0  0  0  0  0  0  0  0
    0.5462    0.2112   -0.4053 C   0  0  0  0  0  0  0  0  0  0  0  0
   -0.4365   -0.9164   -0.5562 C   0  0  0  0  0  0  0  0  0  0  0  0
    0.0450   -2.0778   -0.3682 O   0  0  0  0  0  0  0  0  0  0  0  0
   -1.7870   -0.6821   -0.8819 N   0  0  0  0  0  0  0  0  0  0  0  0
   -2.3146    0.6479   -1.0927 C   0  0  0  0  0  0  0  0  0  0  0  0
   -3.4703    0.8523   -0.1107 C   0  0  0  0  0  0  0  0  0  0  0  0
   -4.3866   -0.2277   -0.2919 N   0  0  0  0  0  0  0  0  0  0  0  0
   -4.0795   -1.3657   -1.1387 C   0  0  0  0  0  0  0  0  0  0  0  0
   -2.6622   -1.8294   -1.0045 C   0  0  0  0  0  0  0  0  0  0  0  0
   -5.6617   -0.2328    0.3614 C   0  0  0  0  0  0  0  0  0  0  0  0
   -5.8897   -1.2805    1.2571 C   0  0  0  0  0  0  0  0  0  0  0  0
   -7.1074   -1.3626    1.9438 C   0  0  0  0  0  0  0  0  0  0  0  0
   -8.0529   -0.3836    1.7024 C   0  0  0  0  0  0  0  0  0  0  0  0
   -7.8355    0.6611    0.8144 C   0  0  0  0  0  0  0  0  0  0  0  0
   -6.6176    0.7351    0.1333 C   0  0  0  0  0  0  0  0  0  0  0  0
   -6.3599    1.8408   -0.8261 C   0  0  0  0  0  0  0  0  0  0  0  0
    2.9310    1.8961    0.0330 C   0  0  0  0  0  0  0  0  0  0  0  0
    4.1210    2.5872    0.2616 C   0  0  0  0  0  0  0  0  0  0  0  0
    9.0711   -1.6114   -0.5853 H   0  0  0  0  0  0  0  0  0  0  0  0
    7.9323   -0.4467   -1.0360 H   0  0  0  0  0  0  0  0  0  0  0  0
    7.5126   -3.1115    0.1293 H   0  0  0  0  0  0  0  0  0  0  0  0
    6.1660   -2.2271   -0.6791 H   0  0  0  0  0  0  0  0  0  0  0  0
    6.2858   -1.9222    1.8331 H   0  0  0  0  0  0  0  0  0  0  0  0
    7.9849   -1.3464    1.6298 H   0  0  0  0  0  0  0  0  0  0  0  0
    8.3830    1.1910    1.3342 H   0  0  0  0  0  0  0  0  0  0  0  0
    6.9053    3.2561    0.8584 H   0  0  0  0  0  0  0  0  0  0  0  0
    4.1373   -1.2566    0.5173 H   0  0  0  0  0  0  0  0  0  0  0  0
    0.2076    0.9342    0.3779 H   0  0  0  0  0  0  0  0  0  0  0  0
    0.5697    0.7248   -1.3921 H   0  0  0  0  0  0  0  0  0  0  0  0
   -1.5439    1.4152   -1.0232 H   0  0  0  0  0  0  0  0  0  0  0  0
   -2.8033    0.6116   -2.1041 H   0  0  0  0  0  0  0  0  0  0  0  0
   -3.0339    0.7689    0.9288 H   0  0  0  0  0  0  0  0  0  0  0  0
   -3.8775    1.8585   -0.1626 H   0  0  0  0  0  0  0  0  0  0  0  0
   -4.7739   -2.2285   -0.9157 H   0  0  0  0  0  0  0  0  0  0  0  0
   -4.2778   -1.1549   -2.2258 H   0  0  0  0  0  0  0  0  0  0  0  0
   -2.4255   -2.4446   -1.8954 H   0  0  0  0  0  0  0  0  0  0  0  0
   -2.5700   -2.4041   -0.0533 H   0  0  0  0  0  0  0  0  0  0  0  0
   -5.1173   -2.0473    1.4299 H   0  0  0  0  0  0  0  0  0  0  0  0
   -7.2597   -2.1805    2.6301 H   0  0  0  0  0  0  0  0  0  0  0  0
   -9.0030   -0.4383    2.2317 H   0  0  0  0  0  0  0  0  0  0  0  0
   -8.5723    1.4245    0.6260 H   0  0  0  0  0  0  0  0  0  0  0  0
   -6.0834    2.7783   -0.3082 H   0  0  0  0  0  0  0  0  0  0  0  0
   -7.3557    2.0751   -1.3085 H   0  0  0  0  0  0  0  0  0  0  0  0
   -5.7125    1.5639   -1.6715 H   0  0  0  0  0  0  0  0  0  0  0  0
    2.0249    2.4011   -0.2087 H   0  0  0  0  0  0  0  0  0  0  0  0
    4.1666    3.6619    0.2020 H   0  0  0  0  0  0  0  0  0  0  0  0
  1  2  1  0
  2  3  1  0
  3  4  1  0
  4  5  2  0
  5  6  1  0
  6  7  1  0
  7  8  2  0
  8  9  1  0
  9 10  2  0
 10 11  1  0
 11 12  1  0
 12 13  1  0
 13 14  2  0
 13 15  1  0
 15 16  1  0
 16 17  1  0
 17 18  1  0
 18 19  1  0
 19 20  1  0
 18 21  1  0
 21 22  2  0
 22 23  1  0
 23 24  2  0
 24 25  1  0
 25 26  2  0
 26 27  1  0
 10 28  1  0
 28 29  2  0
  8  4  1  0
 20 15  1  0
 26 21  1  0
 29  7  1  0
  1 30  1  0
  1 31  1  0
  2 32  1  0
  2 33  1  0
  3 34  1  0
  3 35  1  0
  5 36  1  0
  6 37  1  0
  9 38  1  0
 12 39  1  0
 12 40  1  0
 16 41  1  0
 16 42  1  0
 17 43  1  0
 17 44  1  0
 19 45  1  0
 19 46  1  0
 20 47  1  0
 20 48  1  0
 22 49  1  0
 23 50  1  0
 24 51  1  0
 25 52  1  0
 27 53  1  0
 27 54  1  0
 27 55  1  0
 28 56  1  0
 29 57  1  0
M  END
>  <Ligand ID>  (1) 
LIG0003873

>  <Ligand>  (1) 
CHEMBL120055

>  <SMILES>  (1) 
NCCc1c[nH]c2c1cc(OCC(=O)N1CCN(CC1)c1ccccc1C)cc2

>  <CID>  (1) 
10385855.0

>  <ChEMBL ID>  (1) 
nan

>  <InChiKey>  (1) 
DWSOZYFSYVOVOC-UHFFFAOYSA-N

>  <InChi>  (1) 
InChI=1S/C23H28N4O2/c1-17-4-2-3-5-22(17)26-10-12-27(13-11-26)23(28)16-29-19-6-7-21-20(14-19)18(8-9-24)15-25-21/h2-7,14-15,25H,8-13,16,24H2,1H3

>  <IUPAC Name>  (1) 
2-[[3-(2-aminoethyl)-1H-indol-5-yl]oxy]-1-[4-(2-methylphenyl)piperazin-1-yl]ethanone

$$$$
