
     RDKit          3D

 36 36  0  0  0  0  0  0  0  0999 V2000
    4.4578   -1.3507   -0.3051 C   0  0  0  0  0  0  0  0  0  0  0  0
    3.8735   -0.0042   -0.5571 C   0  0  0  0  0  0  0  0  0  0  0  0
    2.6216    0.0012   -1.3817 C   0  0  0  0  0  0  0  0  0  0  0  0
    1.5024   -0.7909   -0.7467 C   0  0  0  0  0  0  0  0  0  0  0  0
    1.1115   -0.2660    0.6016 C   0  0  0  0  0  0  0  0  0  0  0  0
    0.6086    1.1108    0.6710 C   0  0  0  0  0  0  0  0  0  0  0  0
   -0.6427    1.5080   -0.0047 C   0  0  0  0  0  0  0  0  0  0  0  0
   -1.9429    0.9609    0.4609 C   0  0  0  0  0  0  0  0  0  0  0  0
   -2.0363   -0.5184    0.3734 C   0  0  0  0  0  0  0  0  0  0  0  0
   -3.4138   -1.0036   -0.0947 C   0  0  0  0  0  0  0  0  0  0  0  0
   -4.5110   -0.1830    0.6011 C   0  0  0  0  0  0  0  0  0  0  0  0
   -4.3192    1.2217    0.0666 C   0  0  0  0  0  0  0  0  0  0  0  0
   -5.2889    2.0255   -0.0131 O   0  0  0  0  0  0  0  0  0  0  0  0
   -3.0259    1.5208   -0.3107 O   0  0  0  0  0  0  0  0  0  0  0  0
    4.5571   -2.0085   -1.1722 H   0  0  0  0  0  0  0  0  0  0  0  0
    5.5112   -1.1736    0.0570 H   0  0  0  0  0  0  0  0  0  0  0  0
    3.9667   -1.8428    0.5806 H   0  0  0  0  0  0  0  0  0  0  0  0
    4.6294    0.5872   -1.1283 H   0  0  0  0  0  0  0  0  0  0  0  0
    3.7833    0.5044    0.4151 H   0  0  0  0  0  0  0  0  0  0  0  0
    2.3363    1.0286   -1.5953 H   0  0  0  0  0  0  0  0  0  0  0  0
    2.8599   -0.5182   -2.3335 H   0  0  0  0  0  0  0  0  0  0  0  0
    0.6510   -0.7452   -1.4416 H   0  0  0  0  0  0  0  0  0  0  0  0
    1.8042   -1.8486   -0.6479 H   0  0  0  0  0  0  0  0  0  0  0  0
    0.4580   -0.9640    1.1362 H   0  0  0  0  0  0  0  0  0  0  0  0
    2.0771   -0.2790    1.2256 H   0  0  0  0  0  0  0  0  0  0  0  0
    1.4277    1.8824    0.4868 H   0  0  0  0  0  0  0  0  0  0  0  0
    0.4168    1.3003    1.7887 H   0  0  0  0  0  0  0  0  0  0  0  0
   -0.7332    2.6415    0.1249 H   0  0  0  0  0  0  0  0  0  0  0  0
   -0.5485    1.4135   -1.1317 H   0  0  0  0  0  0  0  0  0  0  0  0
   -2.1277    1.3149    1.5340 H   0  0  0  0  0  0  0  0  0  0  0  0
   -1.8246   -0.9819    1.3762 H   0  0  0  0  0  0  0  0  0  0  0  0
   -1.3508   -0.8988   -0.3954 H   0  0  0  0  0  0  0  0  0  0  0  0
   -3.4714   -2.0660    0.1389 H   0  0  0  0  0  0  0  0  0  0  0  0
   -3.5249   -0.8083   -1.1805 H   0  0  0  0  0  0  0  0  0  0  0  0
   -4.3925   -0.2035    1.7017 H   0  0  0  0  0  0  0  0  0  0  0  0
   -5.4999   -0.5666    0.3377 H   0  0  0  0  0  0  0  0  0  0  0  0
  1  2  1  0
  2  3  1  0
  3  4  1  0
  4  5  1  0
  5  6  1  0
  6  7  1  0
  7  8  1  0
  8  9  1  0
  9 10  1  0
 10 11  1  0
 11 12  1  0
 12 13  2  0
 12 14  1  0
 14  8  1  0
  1 15  1  0
  1 16  1  0
  1 17  1  0
  2 18  1  0
  2 19  1  0
  3 20  1  0
  3 21  1  0
  4 22  1  0
  4 23  1  0
  5 24  1  0
  5 25  1  0
  6 26  1  0
  6 27  1  0
  7 28  1  0
  7 29  1  0
  8 30  1  0
  9 31  1  0
  9 32  1  0
 10 33  1  0
 10 34  1  0
 11 35  1  0
 11 36  1  0
M  END
>  <Ligand ID>  (1) 
LIG0001051

>  <Ligand>  (1) 
delta-Dodecalactone

>  <SMILES>  (1) 
CCCCCCCC1CCCC(=O)O1

>  <CID>  (1) 
12844.0

>  <ChEMBL ID>  (1) 
nan

>  <InChiKey>  (1) 
QRPLZGZHJABGRS-UHFFFAOYSA-N

>  <InChi>  (1) 
InChI=1S/C12H22O2/c1-2-3-4-5-6-8-11-9-7-10-12(13)14-11/h11H,2-10H2,1H3

>  <IUPAC Name>  (1) 
6-heptyloxan-2-one

$$$$
