
     RDKit          3D

 52 54  0  0  0  0  0  0  0  0999 V2000
    9.3192   -0.2749   -1.5709 Cl  0  0  0  0  0  0  0  0  0  0  0  0
    8.1251   -0.6860   -0.3462 C   0  0  0  0  0  0  0  0  0  0  0  0
    8.4348   -1.5230    0.7218 C   0  0  0  0  0  0  0  0  0  0  0  0
    7.4791   -1.8387    1.6820 C   0  0  0  0  0  0  0  0  0  0  0  0
    6.1814   -1.3236    1.5986 C   0  0  0  0  0  0  0  0  0  0  0  0
    5.8972   -0.5061    0.5457 C   0  0  0  0  0  0  0  0  0  0  0  0
    6.8332   -0.1859   -0.4098 C   0  0  0  0  0  0  0  0  0  0  0  0
    4.4973    0.1007    0.3714 C   0  0  2  0  0  0  0  0  0  0  0  0
    3.8850   -0.6570   -0.7496 C   0  0  0  0  0  0  0  0  0  0  0  0
    2.7004   -0.2092   -1.2931 N   0  0  0  0  0  0  0  0  0  0  0  0
    1.4962   -0.2659   -0.6117 C   0  0  0  0  0  0  0  0  0  0  0  0
    1.2301    0.6206    0.5528 C   0  0  0  0  0  0  0  0  0  0  0  0
   -0.1589    0.3255    0.9714 N   0  0  0  0  0  0  0  0  0  0  0  0
   -1.2744    0.7780    0.2305 C   0  0  0  0  0  0  0  0  0  0  0  0
   -1.1842    1.5836   -0.8846 C   0  0  0  0  0  0  0  0  0  0  0  0
   -2.2991    1.9918   -1.6070 C   0  0  0  0  0  0  0  0  0  0  0  0
   -3.5576    1.5895   -1.2137 C   0  0  0  0  0  0  0  0  0  0  0  0
   -3.6778    0.7809   -0.0968 C   0  0  0  0  0  0  0  0  0  0  0  0
   -2.5478    0.3893    0.6038 C   0  0  0  0  0  0  0  0  0  0  0  0
   -5.0257    0.3792    0.2828 C   0  0  0  0  0  0  0  0  0  0  0  0
   -5.4004    0.1495    1.5974 C   0  0  0  0  0  0  0  0  0  0  0  0
   -6.7012   -0.2346    1.9308 C   0  0  0  0  0  0  0  0  0  0  0  0
   -7.6288   -0.3842    0.8949 C   0  0  0  0  0  0  0  0  0  0  0  0
   -7.2868   -0.1636   -0.4215 C   0  0  0  0  0  0  0  0  0  0  0  0
   -5.9887    0.2163   -0.7157 C   0  0  0  0  0  0  0  0  0  0  0  0
   -8.2262   -0.3083   -1.5273 C   0  0  0  0  0  0  0  0  0  0  0  0
   -7.8755   -0.0995   -2.7219 O   0  0  0  0  0  0  0  0  0  0  0  0
   -9.5440   -0.6794   -1.3263 O   0  0  0  0  0  0  0  0  0  0  0  0
    4.7659    1.4322    0.0650 O   0  0  0  0  0  0  0  0  0  0  0  0
    9.4242   -1.9215    0.7936 H   0  0  0  0  0  0  0  0  0  0  0  0
    7.6984   -2.4906    2.5259 H   0  0  0  0  0  0  0  0  0  0  0  0
    5.4278   -1.5655    2.3453 H   0  0  0  0  0  0  0  0  0  0  0  0
    6.5648    0.4709   -1.2345 H   0  0  0  0  0  0  0  0  0  0  0  0
    3.9801   -0.0005    1.3035 H   0  0  0  0  0  0  0  0  0  0  0  0
    4.6814   -0.8726   -1.5436 H   0  0  0  0  0  0  0  0  0  0  0  0
    3.6890   -1.7108   -0.3293 H   0  0  0  0  0  0  0  0  0  0  0  0
    2.7514    0.2015   -2.2299 H   0  0  0  0  0  0  0  0  0  0  0  0
    0.6625   -0.1512   -1.3806 H   0  0  0  0  0  0  0  0  0  0  0  0
    1.2771   -1.3448   -0.2634 H   0  0  0  0  0  0  0  0  0  0  0  0
    1.2428    1.6708    0.1774 H   0  0  0  0  0  0  0  0  0  0  0  0
    1.8125    0.4624    1.4559 H   0  0  0  0  0  0  0  0  0  0  0  0
   -0.3455   -0.2358    1.8425 H   0  0  0  0  0  0  0  0  0  0  0  0
   -0.2372    1.9515   -1.2387 H   0  0  0  0  0  0  0  0  0  0  0  0
   -2.1766    2.6272   -2.4800 H   0  0  0  0  0  0  0  0  0  0  0  0
   -4.3865    1.9305   -1.8043 H   0  0  0  0  0  0  0  0  0  0  0  0
   -2.6604   -0.2469    1.4803 H   0  0  0  0  0  0  0  0  0  0  0  0
   -4.6434    0.2767    2.3839 H   0  0  0  0  0  0  0  0  0  0  0  0
   -6.9877   -0.4143    2.9750 H   0  0  0  0  0  0  0  0  0  0  0  0
   -8.6575   -0.6843    1.1158 H   0  0  0  0  0  0  0  0  0  0  0  0
   -5.7223    0.3896   -1.7573 H   0  0  0  0  0  0  0  0  0  0  0  0
  -10.0494   -1.1255   -2.1001 H   0  0  0  0  0  0  0  0  0  0  0  0
    4.1872    1.7858   -0.6424 H   0  0  0  0  0  0  0  0  0  0  0  0
  1  2  1  0
  2  3  2  0
  3  4  1  0
  4  5  2  0
  5  6  1  0
  6  7  2  0
  6  8  1  0
  8  9  1  0
  9 10  1  0
 10 11  1  0
 11 12  1  0
 12 13  1  0
 13 14  1  0
 14 15  2  0
 15 16  1  0
 16 17  2  0
 17 18  1  0
 18 19  2  0
 18 20  1  0
 20 21  2  0
 21 22  1  0
 22 23  2  0
 23 24  1  0
 24 25  2  0
 24 26  1  0
 26 27  2  0
 26 28  1  0
  8 29  1  0
  7  2  1  0
 19 14  1  0
 25 20  1  0
  3 30  1  0
  4 31  1  0
  5 32  1  0
  7 33  1  0
  8 34  1  1
  9 35  1  0
  9 36  1  0
 10 37  1  0
 11 38  1  0
 11 39  1  0
 12 40  1  0
 12 41  1  0
 13 42  1  0
 15 43  1  0
 16 44  1  0
 17 45  1  0
 19 46  1  0
 21 47  1  0
 22 48  1  0
 23 49  1  0
 25 50  1  0
 28 51  1  0
 29 52  1  0
M  END
>  <Ligand ID>  (1) 
LIG0002495

>  <Ligand>  (1) 
solabegron

>  <SMILES>  (1) 
Clc1cccc(c1)[C@H](CNCCNc1cccc(c1)c1cccc(c1)C(=O)O)O

>  <CID>  (1) 
9887812.0

>  <ChEMBL ID>  (1) 
nan

>  <InChiKey>  (1) 
LLDXOPKUNJTIRF-QFIPXVFZSA-N

>  <InChi>  (1) 
InChI=1S/C23H23ClN2O3/c24-20-8-2-6-18(13-20)22(27)15-25-10-11-26-21-9-3-5-17(14-21)16-4-1-7-19(12-16)23(28)29/h1-9,12-14,22,25-27H,10-11,15H2,(H,28,29)/t22-/m0/s1

>  <IUPAC Name>  (1) 
3-[3-[2-[[(2R)-2-(3-chlorophenyl)-2-hydroxyethyl]amino]ethylamino]phenyl]benzoic acid

$$$$
