
     RDKit          3D

 68 71  0  0  0  0  0  0  0  0999 V2000
    7.9869   -2.0558    0.2817 O   0  0  0  0  0  0  0  0  0  0  0  0
    7.6987   -1.1080   -0.6866 C   0  0  2  0  0  0  0  0  0  0  0  0
    8.4551    0.1450   -0.4989 C   0  0  0  0  0  0  0  0  0  0  0  0
    9.0137    0.8407   -1.5699 C   0  0  0  0  0  0  0  0  0  0  0  0
    9.7294    2.0153   -1.3849 C   0  0  0  0  0  0  0  0  0  0  0  0
    9.9061    2.5296   -0.1086 C   0  0  0  0  0  0  0  0  0  0  0  0
    9.3656    1.8615    0.9558 C   0  0  0  0  0  0  0  0  0  0  0  0
    8.6575    0.6947    0.7508 C   0  0  0  0  0  0  0  0  0  0  0  0
    6.2354   -0.8170   -0.7352 C   0  0  0  0  0  0  0  0  0  0  0  0
    5.7958   -0.3060    0.5459 N   0  0  0  0  0  0  0  0  0  0  0  0
    4.3454   -0.0396    0.5225 C   0  0  0  0  0  0  0  0  0  0  0  0
    3.5366   -1.2962    0.4213 C   0  0  0  0  0  0  0  0  0  0  0  0
    2.1059   -0.8867    0.4138 C   0  0  0  0  0  0  0  0  0  0  0  0
    1.4164   -0.5971   -0.7531 C   0  0  0  0  0  0  0  0  0  0  0  0
    0.0731   -0.2255   -0.6376 C   0  0  0  0  0  0  0  0  0  0  0  0
   -0.5620   -0.1432    0.5775 C   0  0  0  0  0  0  0  0  0  0  0  0
    0.1575   -0.4386    1.7144 C   0  0  0  0  0  0  0  0  0  0  0  0
    1.4830   -0.8105    1.6658 C   0  0  0  0  0  0  0  0  0  0  0  0
   -1.9594    0.2332    0.7430 C   0  0  0  0  0  0  0  0  0  0  0  0
   -2.3460    0.8970    1.8831 C   0  0  0  0  0  0  0  0  0  0  0  0
   -3.6592    1.2508    2.0506 C   0  0  0  0  0  0  0  0  0  0  0  0
   -4.6470    0.9596    1.0901 C   0  0  0  0  0  0  0  0  0  0  0  0
   -4.2707    0.2989   -0.0299 C   0  0  0  0  0  0  0  0  0  0  0  0
   -2.9188   -0.0552   -0.1919 C   0  0  0  0  0  0  0  0  0  0  0  0
   -5.0851   -0.0925   -1.0800 O   0  0  0  0  0  0  0  0  0  0  0  0
   -5.8492   -1.2365   -0.9234 C   0  0  0  0  0  0  0  0  0  0  0  0
   -7.1146   -1.4131   -0.5196 C   0  0  0  0  0  0  0  0  0  0  0  0
   -7.6925   -2.6958   -0.4348 C   0  0  0  0  0  0  0  0  0  0  0  0
   -6.9839   -3.8289   -0.7632 C   0  0  0  0  0  0  0  0  0  0  0  0
   -5.6896   -3.6618   -1.1777 C   0  0  0  0  0  0  0  0  0  0  0  0
   -5.1327   -2.4165   -1.2587 C   0  0  0  0  0  0  0  0  0  0  0  0
   -5.9235    1.6088    1.3009 C   0  0  0  0  0  0  0  0  0  0  0  0
   -6.1858    2.0984    2.4523 O   0  0  0  0  0  0  0  0  0  0  0  0
   -6.9462    1.7604    0.3460 N   0  0  0  0  0  0  0  0  0  0  0  0
   -8.4149    2.5337    0.7721 S   0  0  0  0  0  0  0  0  0  0  0  0
   -8.0547    3.9824    1.0737 O   0  0  0  0  0  0  0  0  0  0  0  0
   -9.0505    2.0047    2.0031 O   0  0  0  0  0  0  0  0  0  0  0  0
   -9.5579    2.5876   -0.5749 C   0  0  0  0  0  0  0  0  0  0  0  0
    7.3188   -2.0668    1.0083 H   0  0  0  0  0  0  0  0  0  0  0  0
    8.0457   -1.5306   -1.6617 H   0  0  0  0  0  0  0  0  0  0  0  0
    8.8810    0.4468   -2.5666 H   0  0  0  0  0  0  0  0  0  0  0  0
   10.1720    2.5748   -2.1912 H   0  0  0  0  0  0  0  0  0  0  0  0
   10.4509    3.4360    0.0905 H   0  0  0  0  0  0  0  0  0  0  0  0
    9.5028    2.2635    1.9579 H   0  0  0  0  0  0  0  0  0  0  0  0
    8.2659    0.2247    1.6653 H   0  0  0  0  0  0  0  0  0  0  0  0
    6.0603   -0.0983   -1.5673 H   0  0  0  0  0  0  0  0  0  0  0  0
    5.7238   -1.7676   -0.9960 H   0  0  0  0  0  0  0  0  0  0  0  0
    6.2025    0.6813    0.6004 H   0  0  0  0  0  0  0  0  0  0  0  0
    4.1625    0.6312   -0.3562 H   0  0  0  0  0  0  0  0  0  0  0  0
    4.1262    0.4417    1.4903 H   0  0  0  0  0  0  0  0  0  0  0  0
    3.7365   -1.9281    1.2956 H   0  0  0  0  0  0  0  0  0  0  0  0
    3.7484   -1.8669   -0.5075 H   0  0  0  0  0  0  0  0  0  0  0  0
    1.9332   -0.6686   -1.6783 H   0  0  0  0  0  0  0  0  0  0  0  0
   -0.4795    0.0048   -1.5408 H   0  0  0  0  0  0  0  0  0  0  0  0
   -0.2799   -0.3956    2.7210 H   0  0  0  0  0  0  0  0  0  0  0  0
    2.0467   -1.0447    2.5825 H   0  0  0  0  0  0  0  0  0  0  0  0
   -1.6236    1.1313    2.6258 H   0  0  0  0  0  0  0  0  0  0  0  0
   -3.9067    1.7722    2.9695 H   0  0  0  0  0  0  0  0  0  0  0  0
   -2.5804   -0.5812   -1.0851 H   0  0  0  0  0  0  0  0  0  0  0  0
   -7.7646   -0.6263   -0.2479 H   0  0  0  0  0  0  0  0  0  0  0  0
   -8.7136   -2.8130   -0.1069 H   0  0  0  0  0  0  0  0  0  0  0  0
   -7.4480   -4.7991   -0.6903 H   0  0  0  0  0  0  0  0  0  0  0  0
   -5.1140   -4.5416   -1.4426 H   0  0  0  0  0  0  0  0  0  0  0  0
   -4.1041   -2.3594   -1.5958 H   0  0  0  0  0  0  0  0  0  0  0  0
   -6.7996    1.4301   -0.6269 H   0  0  0  0  0  0  0  0  0  0  0  0
   -9.0398    2.7083   -1.5372 H   0  0  0  0  0  0  0  0  0  0  0  0
  -10.2277    1.7017   -0.5747 H   0  0  0  0  0  0  0  0  0  0  0  0
  -10.2138    3.4619   -0.4282 H   0  0  0  0  0  0  0  0  0  0  0  0
  1  2  1  0
  2  3  1  0
  3  4  2  0
  4  5  1  0
  5  6  2  0
  6  7  1  0
  7  8  2  0
  2  9  1  0
  9 10  1  0
 10 11  1  0
 11 12  1  0
 12 13  1  0
 13 14  2  0
 14 15  1  0
 15 16  2  0
 16 17  1  0
 17 18  2  0
 16 19  1  0
 19 20  2  0
 20 21  1  0
 21 22  2  0
 22 23  1  0
 23 24  2  0
 23 25  1  0
 25 26  1  0
 26 27  2  0
 27 28  1  0
 28 29  2  0
 29 30  1  0
 30 31  2  0
 22 32  1  0
 32 33  2  0
 32 34  1  0
 34 35  1  0
 35 36  2  0
 35 37  2  0
 35 38  1  0
  8  3  1  0
 18 13  1  0
 24 19  1  0
 31 26  1  0
  1 39  1  0
  2 40  1  6
  4 41  1  0
  5 42  1  0
  6 43  1  0
  7 44  1  0
  8 45  1  0
  9 46  1  0
  9 47  1  0
 10 48  1  0
 11 49  1  0
 11 50  1  0
 12 51  1  0
 12 52  1  0
 14 53  1  0
 15 54  1  0
 17 55  1  0
 18 56  1  0
 20 57  1  0
 21 58  1  0
 24 59  1  0
 27 60  1  0
 28 61  1  0
 29 62  1  0
 30 63  1  0
 31 64  1  0
 34 65  1  0
 38 66  1  0
 38 67  1  0
 38 68  1  0
M  END
>  <Ligand ID>  (1) 
LIG0004925

>  <Ligand>  (1) 
CHEMBL469396

>  <SMILES>  (1) 
O[C@H](c1ccccc1)CNCCc1ccc(cc1)c1ccc(c(c1)Oc1ccccc1)C(=O)NS(=O)(=O)C

>  <CID>  (1) 
42639810.0

>  <ChEMBL ID>  (1) 
nan

>  <InChiKey>  (1) 
QCWRHMIHPOHWFI-NDEPHWFRSA-N

>  <InChi>  (1) 
InChI=1S/C30H30N2O5S/c1-38(35,36)32-30(34)27-17-16-25(20-29(27)37-26-10-6-3-7-11-26)23-14-12-22(13-15-23)18-19-31-21-28(33)24-8-4-2-5-9-24/h2-17,20,28,31,33H,18-19,21H2,1H3,(H,32,34)/t28-/m0/s1

>  <IUPAC Name>  (1) 
4-[4-[2-[[(2R)-2-hydroxy-2-phenylethyl]amino]ethyl]phenyl]-N-methylsulfonyl-2-phenoxybenzamide

$$$$
