
     RDKit          3D

 57 63  0  0  0  0  0  0  0  0999 V2000
   -0.7750    5.8341    0.4321 O   0  0  0  0  0  0  0  0  0  0  0  0
   -1.1560    4.4873    0.4812 C   0  0  0  0  0  0  0  0  0  0  0  0
   -2.3758    4.1258    1.0325 C   0  0  0  0  0  0  0  0  0  0  0  0
   -2.6693    2.7778    1.0387 C   0  0  0  0  0  0  0  0  0  0  0  0
   -1.8159    1.8187    0.5317 C   0  0  0  0  0  0  0  0  0  0  0  0
   -0.6317    2.2071    0.0004 C   0  0  0  0  0  0  0  0  0  0  0  0
   -0.2814    3.5455   -0.0341 C   0  0  0  0  0  0  0  0  0  0  0  0
    0.3300    1.2230   -0.5637 C   0  0  2  0  0  0  0  0  0  0  0  0
    0.0184    1.1534   -2.0566 C   0  0  0  0  0  0  0  0  0  0  0  0
   -0.6508   -0.1286   -2.4144 C   0  0  0  0  0  0  0  0  0  0  0  0
   -1.7786   -0.4952   -1.5583 N   0  0  0  0  0  0  0  0  0  0  0  0
   -1.3757   -0.5301   -0.1652 C   0  0  2  0  0  0  0  0  0  0  0  0
   -2.2592    0.3982    0.5988 C   0  0  0  0  0  0  0  0  0  0  0  0
    0.0804   -0.1712   -0.0887 C   0  0  2  0  0  0  0  0  0  0  0  0
    0.6939   -0.4065    1.2725 C   0  0  0  0  0  0  0  0  0  0  0  0
    2.1702   -0.4081    0.9929 C   0  0  0  0  0  0  0  0  0  0  0  0
    2.6358    0.6487    0.2324 C   0  0  0  0  0  0  0  0  0  0  0  0
    1.7073    1.7210   -0.2640 C   0  0  0  0  0  0  0  0  0  0  0  0
    3.9674    0.4574    0.0952 N   0  0  0  0  0  0  0  0  0  0  0  0
    4.3356   -0.6777    0.7438 C   0  0  0  0  0  0  0  0  0  0  0  0
    3.2144   -1.2506    1.3243 C   0  0  0  0  0  0  0  0  0  0  0  0
    3.2691   -2.4198    2.0559 C   0  0  0  0  0  0  0  0  0  0  0  0
    4.4846   -3.0543    2.2235 C   0  0  0  0  0  0  0  0  0  0  0  0
    5.6138   -2.5013    1.6540 C   0  0  0  0  0  0  0  0  0  0  0  0
    5.5487   -1.3306    0.9235 C   0  0  0  0  0  0  0  0  0  0  0  0
   -2.1583   -1.8316   -1.9533 C   0  0  0  0  0  0  0  0  0  0  0  0
   -3.4878   -2.2371   -1.4833 C   0  0  0  0  0  0  0  0  0  0  0  0
   -3.9275   -2.3438   -0.1124 C   0  0  0  0  0  0  0  0  0  0  0  0
   -3.7742   -3.6053   -0.9770 C   0  0  0  0  0  0  0  0  0  0  0  0
   -1.1361    6.5481    1.0315 H   0  0  0  0  0  0  0  0  0  0  0  0
   -3.0612    4.8556    1.4362 H   0  0  0  0  0  0  0  0  0  0  0  0
   -3.6162    2.4715    1.4633 H   0  0  0  0  0  0  0  0  0  0  0  0
    0.6599    3.8931   -0.4540 H   0  0  0  0  0  0  0  0  0  0  0  0
    0.9700    1.1903   -2.6346 H   0  0  0  0  0  0  0  0  0  0  0  0
   -0.5898    2.0146   -2.3977 H   0  0  0  0  0  0  0  0  0  0  0  0
   -1.1610    0.0838   -3.4104 H   0  0  0  0  0  0  0  0  0  0  0  0
    0.0118   -0.9728   -2.6563 H   0  0  0  0  0  0  0  0  0  0  0  0
   -1.4367   -1.5381    0.2938 H   0  0  0  0  0  0  0  0  0  0  0  0
   -3.2734    0.4103    0.1155 H   0  0  0  0  0  0  0  0  0  0  0  0
   -2.4383    0.1042    1.6532 H   0  0  0  0  0  0  0  0  0  0  0  0
    0.6156   -0.8645   -0.7670 H   0  0  0  0  0  0  0  0  0  0  0  0
    0.4962    0.4656    1.9093 H   0  0  0  0  0  0  0  0  0  0  0  0
    0.3625   -1.3628    1.6954 H   0  0  0  0  0  0  0  0  0  0  0  0
    1.6954    2.4872    0.5671 H   0  0  0  0  0  0  0  0  0  0  0  0
    2.2009    2.2295   -1.1156 H   0  0  0  0  0  0  0  0  0  0  0  0
    4.6410    1.0653   -0.4209 H   0  0  0  0  0  0  0  0  0  0  0  0
    2.3494   -2.8230    2.4898 H   0  0  0  0  0  0  0  0  0  0  0  0
    4.5273   -3.9865    2.8077 H   0  0  0  0  0  0  0  0  0  0  0  0
    6.5770   -3.0184    1.7960 H   0  0  0  0  0  0  0  0  0  0  0  0
    6.4591   -0.9300    0.4930 H   0  0  0  0  0  0  0  0  0  0  0  0
   -2.0180   -1.9839   -3.0591 H   0  0  0  0  0  0  0  0  0  0  0  0
   -1.4191   -2.5859   -1.5124 H   0  0  0  0  0  0  0  0  0  0  0  0
   -4.2978   -1.8911   -2.2262 H   0  0  0  0  0  0  0  0  0  0  0  0
   -3.3832   -2.4543    0.8162 H   0  0  0  0  0  0  0  0  0  0  0  0
   -4.9940   -2.0116    0.0931 H   0  0  0  0  0  0  0  0  0  0  0  0
   -2.9632   -4.3153   -0.7534 H   0  0  0  0  0  0  0  0  0  0  0  0
   -4.7304   -4.0868   -1.2161 H   0  0  0  0  0  0  0  0  0  0  0  0
  1  2  1  0
  2  3  2  0
  3  4  1  0
  4  5  2  0
  5  6  1  0
  6  7  2  0
  6  8  1  0
  8  9  1  6
  9 10  1  0
 10 11  1  0
 11 12  1  0
 12 13  1  0
 12 14  1  0
 14 15  1  0
 15 16  1  0
 16 17  2  0
 17 18  1  0
 17 19  1  0
 19 20  1  0
 20 21  2  0
 21 22  1  0
 22 23  2  0
 23 24  1  0
 24 25  2  0
 11 26  1  0
 26 27  1  0
 27 28  1  0
 28 29  1  0
  7  2  1  0
 18  8  1  0
 25 20  1  0
 29 27  1  0
 13  5  1  0
 21 16  1  0
 14  8  1  0
  1 30  1  0
  3 31  1  0
  4 32  1  0
  7 33  1  0
  9 34  1  0
  9 35  1  0
 10 36  1  0
 10 37  1  0
 12 38  1  1
 13 39  1  0
 13 40  1  0
 14 41  1  6
 15 42  1  0
 15 43  1  0
 18 44  1  0
 18 45  1  0
 19 46  1  0
 22 47  1  0
 23 48  1  0
 24 49  1  0
 25 50  1  0
 26 51  1  0
 26 52  1  0
 27 53  1  0
 28 54  1  0
 28 55  1  0
 29 56  1  0
 29 57  1  0
M  END
>  <Ligand ID>  (1) 
LIG0002959

>  <Ligand>  (1) 
CHEMBL226166

>  <SMILES>  (1) 
Oc1ccc2c(c1)[C@@]13CCN([C@H](C2)[C@@H]3Cc2c(C1)[nH]c1c2cccc1)CC1CC1

>  <CID>  (1) 
16720745.0

>  <ChEMBL ID>  (1) 
nan

>  <InChiKey>  (1) 
HUJCCTOSCFPUOT-HDYLNDSGSA-N

>  <InChi>  (1) 
InChI=1S/C26H28N2O/c29-18-8-7-17-11-25-22-13-20-19-3-1-2-4-23(19)27-24(20)14-26(22,21(17)12-18)9-10-28(25)15-16-5-6-16/h1-4,7-8,12,16,22,25,27,29H,5-6,9-11,13-15H2/t22-,25+,26+/m0/s1

>  <IUPAC Name>  (1) 
(1S,13R,14R)-24-(cyclopropylmethyl)-4,24-diazahexacyclo[12.7.3.01,13.03,11.05,10.016,21]tetracosa-3(11),5,7,9,16(21),17,19-heptaen-19-ol

$$$$
