
     RDKit          3D

 50 52  0  0  0  0  0  0  0  0999 V2000
   -0.5587   -0.5285   -3.8459 O   0  0  0  0  0  0  0  0  0  0  0  0
   -1.4346   -0.4419   -2.7744 C   0  0  0  0  0  0  0  0  0  0  0  0
   -0.6895   -0.4526   -1.4629 C   0  0  0  0  0  0  0  0  0  0  0  0
   -1.6480   -0.3502   -0.2837 C   0  0  0  0  0  0  0  0  0  0  0  0
   -2.4918    0.8601   -0.2407 C   0  0  0  0  0  0  0  0  0  0  0  0
   -3.3548    0.7578    0.9901 C   0  0  0  0  0  0  0  0  0  0  0  0
   -2.9518    1.2602    2.2072 C   0  0  0  0  0  0  0  0  0  0  0  0
   -3.8073    1.1220    3.2875 C   0  0  0  0  0  0  0  0  0  0  0  0
   -5.0493    0.4921    3.1622 C   0  0  0  0  0  0  0  0  0  0  0  0
   -5.4534   -0.0138    1.9335 C   0  0  0  0  0  0  0  0  0  0  0  0
   -4.5749    0.1422    0.8790 C   0  0  0  0  0  0  0  0  0  0  0  0
   -0.0942   -1.8268   -1.2851 C   0  0  0  0  0  0  0  0  0  0  0  0
    1.2494   -1.8898   -1.9377 C   0  0  0  0  0  0  0  0  0  0  0  0
    2.0951   -0.9341   -1.3098 N   0  0  0  0  0  0  0  0  0  0  0  0
    1.7013    0.4081   -1.4644 C   0  0  0  0  0  0  0  0  0  0  0  0
    0.2408    0.6867   -1.3919 C   0  0  0  0  0  0  0  0  0  0  0  0
    2.5118   -1.3683   -0.0262 C   0  0  0  0  0  0  0  0  0  0  0  0
    3.4175   -0.3919    0.6726 C   0  0  0  0  0  0  0  0  0  0  0  0
    2.9534    0.4142    1.7019 C   0  0  0  0  0  0  0  0  0  0  0  0
    3.8576    1.2852    2.2891 C   0  0  0  0  0  0  0  0  0  0  0  0
    5.1745    1.3492    1.8652 C   0  0  0  0  0  0  0  0  0  0  0  0
    5.6206    0.5506    0.8503 C   0  0  0  0  0  0  0  0  0  0  0  0
    4.7309   -0.3331    0.2443 C   0  0  0  0  0  0  0  0  0  0  0  0
    5.2835   -1.3788   -1.0730 Cl  0  0  0  0  0  0  0  0  0  0  0  0
   -0.8548    0.0043   -4.6275 H   0  0  0  0  0  0  0  0  0  0  0  0
   -2.1517   -1.3057   -2.8413 H   0  0  0  0  0  0  0  0  0  0  0  0
   -2.0503    0.4600   -2.9269 H   0  0  0  0  0  0  0  0  0  0  0  0
   -2.2294   -1.2907   -0.2167 H   0  0  0  0  0  0  0  0  0  0  0  0
   -0.9924   -0.3270    0.6228 H   0  0  0  0  0  0  0  0  0  0  0  0
   -1.9161    1.7880   -0.1242 H   0  0  0  0  0  0  0  0  0  0  0  0
   -3.1880    0.9816   -1.0901 H   0  0  0  0  0  0  0  0  0  0  0  0
   -2.0062    1.7417    2.3096 H   0  0  0  0  0  0  0  0  0  0  0  0
   -3.5434    1.5017    4.2844 H   0  0  0  0  0  0  0  0  0  0  0  0
   -5.7171    0.3828    4.0007 H   0  0  0  0  0  0  0  0  0  0  0  0
   -6.4076   -0.4913    1.8616 H   0  0  0  0  0  0  0  0  0  0  0  0
   -4.9041   -0.2609   -0.0866 H   0  0  0  0  0  0  0  0  0  0  0  0
   -0.0407   -2.1176   -0.2128 H   0  0  0  0  0  0  0  0  0  0  0  0
   -0.7979   -2.5384   -1.7778 H   0  0  0  0  0  0  0  0  0  0  0  0
    1.1864   -1.7543   -3.0279 H   0  0  0  0  0  0  0  0  0  0  0  0
    1.6383   -2.9193   -1.7331 H   0  0  0  0  0  0  0  0  0  0  0  0
    2.2244    1.0189   -0.7009 H   0  0  0  0  0  0  0  0  0  0  0  0
    2.1498    0.7640   -2.4398 H   0  0  0  0  0  0  0  0  0  0  0  0
    0.0027    1.3942   -2.2430 H   0  0  0  0  0  0  0  0  0  0  0  0
    0.0282    1.3414   -0.4946 H   0  0  0  0  0  0  0  0  0  0  0  0
    1.6863   -1.5426    0.6737 H   0  0  0  0  0  0  0  0  0  0  0  0
    3.1463   -2.2902   -0.1480 H   0  0  0  0  0  0  0  0  0  0  0  0
    1.9220    0.3501    2.0191 H   0  0  0  0  0  0  0  0  0  0  0  0
    3.5451    1.9338    3.0945 H   0  0  0  0  0  0  0  0  0  0  0  0
    5.8844    2.0273    2.3196 H   0  0  0  0  0  0  0  0  0  0  0  0
    6.6577    0.6025    0.5180 H   0  0  0  0  0  0  0  0  0  0  0  0
  1  2  1  0
  2  3  1  0
  3  4  1  0
  4  5  1  0
  5  6  1  0
  6  7  2  0
  7  8  1  0
  8  9  2  0
  9 10  1  0
 10 11  2  0
  3 12  1  0
 12 13  1  0
 13 14  1  0
 14 15  1  0
 15 16  1  0
 14 17  1  0
 17 18  1  0
 18 19  2  0
 19 20  1  0
 20 21  2  0
 21 22  1  0
 22 23  2  0
 23 24  1  0
 16  3  1  0
 23 18  1  0
 11  6  1  0
  1 25  1  0
  2 26  1  0
  2 27  1  0
  4 28  1  0
  4 29  1  0
  5 30  1  0
  5 31  1  0
  7 32  1  0
  8 33  1  0
  9 34  1  0
 10 35  1  0
 11 36  1  0
 12 37  1  0
 12 38  1  0
 13 39  1  0
 13 40  1  0
 15 41  1  0
 15 42  1  0
 16 43  1  0
 16 44  1  0
 17 45  1  0
 17 46  1  0
 19 47  1  0
 20 48  1  0
 21 49  1  0
 22 50  1  0
M  END
>  <Ligand ID>  (1) 
LIG0003131

>  <Ligand>  (1) 
MLS000732657

>  <SMILES>  (1) 
OCC1(CCc2ccccc2)CCN(CC1)Cc1ccccc1Cl

>  <CID>  (1) 
16190448.0

>  <ChEMBL ID>  (1) 
nan

>  <InChiKey>  (1) 
OZWRNLUDQVRONC-UHFFFAOYSA-N

>  <InChi>  (1) 
InChI=1S/C21H26ClNO/c22-20-9-5-4-8-19(20)16-23-14-12-21(17-24,13-15-23)11-10-18-6-2-1-3-7-18/h1-9,24H,10-17H2

>  <IUPAC Name>  (1) 
[1-[(2-chlorophenyl)methyl]-4-(2-phenylethyl)piperidin-4-yl]methanol

$$$$
