
     RDKit          3D

 57 62  0  0  0  0  0  0  0  0999 V2000
   -3.2507   -2.3865   -0.3971 C   0  0  0  0  0  0  0  0  0  0  0  0
   -2.9818   -1.0677   -0.4154 O   0  0  0  0  0  0  0  0  0  0  0  0
   -1.8162   -0.5829    0.0538 C   0  0  2  0  0  0  0  0  0  0  0  0
   -1.4832   -0.8327    1.4674 C   0  0  0  0  0  0  0  0  0  0  0  0
   -1.5900   -2.1068    1.9461 O   0  0  0  0  0  0  0  0  0  0  0  0
   -0.0790   -0.3323    1.7929 C   0  0  0  0  0  0  0  0  0  0  0  0
    0.3416    0.5888    0.6851 C   0  0  2  0  0  0  0  0  0  0  0  0
   -0.7241    1.6402    0.5583 C   0  0  0  0  0  0  0  0  0  0  0  0
   -1.8969    0.9543   -0.1076 C   0  0  2  0  0  0  0  0  0  0  0  0
   -3.1754    1.5680    0.2794 C   0  0  1  0  0  0  0  0  0  0  0  0
   -3.5979    1.4178    1.5790 O   0  0  0  0  0  0  0  0  0  0  0  0
   -2.9911    3.0872    0.0863 C   0  0  0  0  0  0  0  0  0  0  0  0
    0.5383   -0.2127   -0.5669 C   0  0  2  0  0  0  0  0  0  0  0  0
   -0.7330   -0.9492   -0.9275 C   0  0  1  0  0  0  0  0  0  0  0  0
   -0.3869   -2.2756   -1.1040 O   0  0  0  0  0  0  0  0  0  0  0  0
    0.8413   -2.5452   -0.4959 C   0  0  0  0  0  0  0  0  0  0  0  0
    1.3669   -1.3559   -0.1272 C   0  0  0  0  0  0  0  0  0  0  0  0
    2.5376   -1.1038    0.5152 C   0  0  0  0  0  0  0  0  0  0  0  0
    2.8520    0.2717    0.9021 C   0  0  0  0  0  0  0  0  0  0  0  0
    1.6989    1.2363    0.9276 C   0  0  1  0  0  0  0  0  0  0  0  0
    1.7884    2.1811   -0.1861 N   0  0  0  0  0  0  0  0  0  0  0  0
    2.1105    1.5492   -1.4135 C   0  0  0  0  0  0  0  0  0  0  0  0
    1.1262    0.4633   -1.7274 C   0  0  0  0  0  0  0  0  0  0  0  0
    2.5724    3.3333    0.1322 C   0  0  0  0  0  0  0  0  0  0  0  0
    3.3018   -2.2258    0.8265 C   0  0  0  0  0  0  0  0  0  0  0  0
    2.8257   -3.4968    0.4708 C   0  0  0  0  0  0  0  0  0  0  0  0
    1.6006   -3.6649   -0.1876 C   0  0  0  0  0  0  0  0  0  0  0  0
    1.1176   -4.9118   -0.5433 O   0  0  0  0  0  0  0  0  0  0  0  0
   -3.2700   -2.9188    0.5469 H   0  0  0  0  0  0  0  0  0  0  0  0
   -2.6280   -2.9098   -1.1815 H   0  0  0  0  0  0  0  0  0  0  0  0
   -4.2947   -2.5132   -0.8178 H   0  0  0  0  0  0  0  0  0  0  0  0
   -2.1453   -0.1754    2.1061 H   0  0  0  0  0  0  0  0  0  0  0  0
   -1.0964   -2.8165    1.5442 H   0  0  0  0  0  0  0  0  0  0  0  0
    0.6136   -1.1723    1.9723 H   0  0  0  0  0  0  0  0  0  0  0  0
   -0.0451    0.2700    2.7285 H   0  0  0  0  0  0  0  0  0  0  0  0
   -0.3823    2.5079   -0.0471 H   0  0  0  0  0  0  0  0  0  0  0  0
   -0.9856    1.9714    1.5989 H   0  0  0  0  0  0  0  0  0  0  0  0
   -1.7332    1.1225   -1.2222 H   0  0  0  0  0  0  0  0  0  0  0  0
   -4.0304    1.3104   -0.3869 H   0  0  0  0  0  0  0  0  0  0  0  0
   -4.5130    1.0304    1.6796 H   0  0  0  0  0  0  0  0  0  0  0  0
   -2.2476    3.4612    0.8169 H   0  0  0  0  0  0  0  0  0  0  0  0
   -2.5683    3.2717   -0.9242 H   0  0  0  0  0  0  0  0  0  0  0  0
   -3.9516    3.6062    0.1311 H   0  0  0  0  0  0  0  0  0  0  0  0
   -1.0754   -0.4850   -1.9084 H   0  0  0  0  0  0  0  0  0  0  0  0
    3.2234    0.2285    1.9812 H   0  0  0  0  0  0  0  0  0  0  0  0
    3.7292    0.6187    0.3399 H   0  0  0  0  0  0  0  0  0  0  0  0
    1.7308    1.8419    1.8468 H   0  0  0  0  0  0  0  0  0  0  0  0
    2.0943    2.3566   -2.1993 H   0  0  0  0  0  0  0  0  0  0  0  0
    3.1345    1.1160   -1.4841 H   0  0  0  0  0  0  0  0  0  0  0  0
    1.6711   -0.3117   -2.3367 H   0  0  0  0  0  0  0  0  0  0  0  0
    0.3679    0.8818   -2.4446 H   0  0  0  0  0  0  0  0  0  0  0  0
    3.6245    3.2614   -0.2097 H   0  0  0  0  0  0  0  0  0  0  0  0
    2.4656    3.5446    1.2066 H   0  0  0  0  0  0  0  0  0  0  0  0
    2.1491    4.2064   -0.4059 H   0  0  0  0  0  0  0  0  0  0  0  0
    4.2332   -2.0757    1.3307 H   0  0  0  0  0  0  0  0  0  0  0  0
    3.4275   -4.3654    0.7153 H   0  0  0  0  0  0  0  0  0  0  0  0
    0.5885   -5.1046   -1.3658 H   0  0  0  0  0  0  0  0  0  0  0  0
  1  2  1  0
  3  2  1  6
  3  4  1  0
  4  5  1  0
  4  6  1  0
  7  6  1  1
  7  8  1  0
  8  9  1  0
  9 10  1  0
 10 11  1  0
 10 12  1  0
  7 13  1  0
 13 14  1  0
 14 15  1  0
 15 16  1  0
 16 17  2  0
 17 18  1  0
 18 19  1  0
 19 20  1  0
 20 21  1  0
 21 22  1  0
 22 23  1  0
 21 24  1  0
 18 25  2  0
 25 26  1  0
 26 27  2  0
 27 28  1  0
  9  3  1  0
 13 23  1  6
 14  3  1  0
 27 16  1  0
 20  7  1  0
 17 13  1  0
  1 29  1  0
  1 30  1  0
  1 31  1  0
  4 32  1  0
  5 33  1  0
  6 34  1  0
  6 35  1  0
  8 36  1  0
  8 37  1  0
  9 38  1  6
 10 39  1  6
 11 40  1  0
 12 41  1  0
 12 42  1  0
 12 43  1  0
 14 44  1  6
 19 45  1  0
 19 46  1  0
 20 47  1  1
 22 48  1  0
 22 49  1  0
 23 50  1  0
 23 51  1  0
 24 52  1  0
 24 53  1  0
 24 54  1  0
 25 55  1  0
 26 56  1  0
 28 57  1  0
M  END
>  <Ligand ID>  (1) 
LIG0002134

>  <Ligand>  (1) 
CHEMBL238017

>  <SMILES>  (1) 
CO[C@]12C(O)C[C@]3(C[C@@H]1[C@@H](O)C)[C@@]14[C@H]2Oc2c4c(C[C@H]3N(CC1)C)ccc2O

>  <CID>  (1) 
44433399.0

>  <ChEMBL ID>  (1) 
nan

>  <InChiKey>  (1) 
KVRXULLNGOYSQO-XOWRYXAESA-N

>  <InChi>  (1) 
InChI=1S/C22H29NO5/c1-11(24)13-9-20-10-16(26)22(13,27-3)19-21(20)6-7-23(2)15(20)8-12-4-5-14(25)18(28-19)17(12)21/h4-5,11,13,15-16,19,24-26H,6-10H2,1-3H3/t11-,13+,15+,16?,19+,20-,21-,22-/m0/s1

>  <IUPAC Name>  (1) 
(1R,2S,6R,14R,15S,19R)-19-[(1S)-1-hydroxyethyl]-15-methoxy-5-methyl-13-oxa-5-azahexacyclo[13.2.2.12,8.01,6.02,14.012,20]icosa-8(20),9,11-triene-11,16-diol

$$$$
