
     RDKit          3D

 29 31  0  0  0  0  0  0  0  0999 V2000
   -3.9647    0.4808   -0.5013 C   0  0  0  0  0  0  0  0  0  0  0  0
   -2.8466    0.7393   -1.2839 C   0  0  0  0  0  0  0  0  0  0  0  0
   -1.5889    0.4217   -0.8144 C   0  0  0  0  0  0  0  0  0  0  0  0
   -1.4324   -0.1581    0.4425 C   0  0  0  0  0  0  0  0  0  0  0  0
   -2.5201   -0.4160    1.2180 C   0  0  0  0  0  0  0  0  0  0  0  0
   -3.7882   -0.1011    0.7564 C   0  0  0  0  0  0  0  0  0  0  0  0
   -0.0251   -0.4571    0.8427 C   0  0  0  0  0  0  0  0  0  0  0  0
    0.5326   -1.5547   -0.0201 C   0  0  0  0  0  0  0  0  0  0  0  0
    2.0165   -1.7209    0.3440 C   0  0  0  0  0  0  0  0  0  0  0  0
    2.6569   -0.4931   -0.2557 C   0  0  0  0  0  0  0  0  0  0  0  0
    2.0251    0.6687    0.0244 N   0  0  0  0  0  0  0  0  0  0  0  0
    0.8365    0.7589    0.8336 C   0  0  0  0  0  0  0  0  0  0  0  0
    2.7429    1.6364   -0.5985 C   0  0  0  0  0  0  0  0  0  0  0  0
    3.8069    1.0770   -1.2562 C   0  0  0  0  0  0  0  0  0  0  0  0
    3.7162   -0.2514   -1.0167 N   0  0  0  0  0  0  0  0  0  0  0  0
   -4.9582    0.7258   -0.8590 H   0  0  0  0  0  0  0  0  0  0  0  0
   -2.9506    1.1964   -2.2784 H   0  0  0  0  0  0  0  0  0  0  0  0
   -0.7595    0.6430   -1.4603 H   0  0  0  0  0  0  0  0  0  0  0  0
   -2.3622   -0.8748    2.2061 H   0  0  0  0  0  0  0  0  0  0  0  0
   -4.6467   -0.3194    1.4012 H   0  0  0  0  0  0  0  0  0  0  0  0
   -0.1158   -0.9144    1.8739 H   0  0  0  0  0  0  0  0  0  0  0  0
   -0.0386   -2.4852    0.1152 H   0  0  0  0  0  0  0  0  0  0  0  0
    0.5285   -1.2413   -1.0933 H   0  0  0  0  0  0  0  0  0  0  0  0
    2.1032   -1.6620    1.4448 H   0  0  0  0  0  0  0  0  0  0  0  0
    2.4566   -2.6134   -0.1160 H   0  0  0  0  0  0  0  0  0  0  0  0
    1.1846    0.9155    1.8991 H   0  0  0  0  0  0  0  0  0  0  0  0
    0.2921    1.6792    0.5279 H   0  0  0  0  0  0  0  0  0  0  0  0
    2.5514    2.7130   -0.6102 H   0  0  0  0  0  0  0  0  0  0  0  0
    4.5479    1.6073   -1.8367 H   0  0  0  0  0  0  0  0  0  0  0  0
  1  2  2  0
  2  3  1  0
  3  4  2  0
  4  5  1  0
  5  6  2  0
  4  7  1  0
  7  8  1  0
  8  9  1  0
  9 10  1  0
 10 11  1  0
 11 12  1  0
 11 13  1  0
 13 14  2  0
 14 15  1  0
  6  1  1  0
 12  7  1  0
 15 10  2  0
  1 16  1  0
  2 17  1  0
  3 18  1  0
  5 19  1  0
  6 20  1  0
  7 21  1  0
  8 22  1  0
  8 23  1  0
  9 24  1  0
  9 25  1  0
 12 26  1  0
 12 27  1  0
 13 28  1  0
 14 29  1  0
M  END
>  <Ligand ID>  (1) 
LIG0001347

>  <Ligand>  (1) 
CHEMBL466914

>  <SMILES>  (1) 
c1ccc(cc1)C1CCc2n(C1)ccn2

>  <CID>  (1) 
12764880.0

>  <ChEMBL ID>  (1) 
nan

>  <InChiKey>  (1) 
BZMHRUWVNNKWDQ-UHFFFAOYSA-N

>  <InChi>  (1) 
InChI=1S/C13H14N2/c1-2-4-11(5-3-1)12-6-7-13-14-8-9-15(13)10-12/h1-5,8-9,12H,6-7,10H2

>  <IUPAC Name>  (1) 
6-phenyl-5,6,7,8-tetrahydroimidazo[1,2-a]pyridine

$$$$
