
     RDKit          3D

 56 58  0  0  0  0  0  0  0  0999 V2000
    7.5580    2.9734    1.7132 C   0  0  0  0  0  0  0  0  0  0  0  0
    7.2942    1.7937    0.9731 O   0  0  0  0  0  0  0  0  0  0  0  0
    6.1069    1.0733    1.1863 C   0  0  0  0  0  0  0  0  0  0  0  0
    5.3356    1.5444    2.0501 O   0  0  0  0  0  0  0  0  0  0  0  0
    5.9043   -0.1322    0.3865 C   0  0  0  0  0  0  0  0  0  0  0  0
    4.5586   -0.7534    0.6548 C   0  0  0  0  0  0  0  0  0  0  0  0
    3.4792    0.1923    0.2696 C   0  0  0  0  0  0  0  0  0  0  0  0
    2.0679   -0.3324    0.5065 C   0  0  0  0  0  0  0  0  0  0  0  0
    1.8342   -1.5783   -0.2983 C   0  0  0  0  0  0  0  0  0  0  0  0
    0.4314   -2.1200   -0.0780 C   0  0  0  0  0  0  0  0  0  0  0  0
   -0.5643   -1.0901   -0.4945 C   0  0  1  0  0  0  0  0  0  0  0  0
   -0.3296   -0.8034   -1.9327 C   0  0  0  0  0  0  0  0  0  0  0  0
    0.2562    0.1700   -2.4240 O   0  0  0  0  0  0  0  0  0  0  0  0
   -0.9576   -1.9521   -2.6663 C   0  0  0  0  0  0  0  0  0  0  0  0
   -2.0275   -2.4726   -1.7352 C   0  0  2  0  0  0  0  0  0  0  0  0
   -1.9790   -1.6438   -0.4971 C   0  0  2  0  0  0  0  0  0  0  0  0
   -2.9473   -0.5431   -0.5448 C   0  0  0  0  0  0  0  0  0  0  0  0
   -3.1067    0.3342   -1.5912 C   0  0  0  0  0  0  0  0  0  0  0  0
   -4.0326    1.3594   -1.5885 C   0  0  0  0  0  0  0  0  0  0  0  0
   -4.8656    1.5550   -0.5010 C   0  0  0  0  0  0  0  0  0  0  0  0
   -4.7232    0.6863    0.5604 C   0  0  0  0  0  0  0  0  0  0  0  0
   -3.7905   -0.3426    0.5523 C   0  0  0  0  0  0  0  0  0  0  0  0
   -5.6831    1.0240    1.6453 C   0  0  0  0  0  0  0  0  0  0  0  0
   -5.9666    2.4849    1.3643 C   0  0  0  0  0  0  0  0  0  0  0  0
   -5.9443    2.5154   -0.1494 C   0  0  0  0  0  0  0  0  0  0  0  0
   -1.8712   -3.8388   -1.4841 O   0  0  0  0  0  0  0  0  0  0  0  0
    7.1336    3.8234    1.1067 H   0  0  0  0  0  0  0  0  0  0  0  0
    7.0044    3.0195    2.6745 H   0  0  0  0  0  0  0  0  0  0  0  0
    8.6428    3.1370    1.8920 H   0  0  0  0  0  0  0  0  0  0  0  0
    5.9147    0.1101   -0.7016 H   0  0  0  0  0  0  0  0  0  0  0  0
    6.7025   -0.8922    0.5715 H   0  0  0  0  0  0  0  0  0  0  0  0
    4.4467   -0.9939    1.7530 H   0  0  0  0  0  0  0  0  0  0  0  0
    4.4641   -1.7444    0.1602 H   0  0  0  0  0  0  0  0  0  0  0  0
    3.5169    1.1608    0.7897 H   0  0  0  0  0  0  0  0  0  0  0  0
    3.5363    0.3441   -0.8445 H   0  0  0  0  0  0  0  0  0  0  0  0
    1.3976    0.5035    0.1501 H   0  0  0  0  0  0  0  0  0  0  0  0
    1.8877   -0.5510    1.5726 H   0  0  0  0  0  0  0  0  0  0  0  0
    2.5984   -2.3561   -0.1226 H   0  0  0  0  0  0  0  0  0  0  0  0
    1.9749   -1.2806   -1.3754 H   0  0  0  0  0  0  0  0  0  0  0  0
    0.3494   -3.0221   -0.7201 H   0  0  0  0  0  0  0  0  0  0  0  0
    0.3322   -2.4498    0.9540 H   0  0  0  0  0  0  0  0  0  0  0  0
   -0.4872   -0.1939    0.1577 H   0  0  0  0  0  0  0  0  0  0  0  0
   -1.3573   -1.5490   -3.6188 H   0  0  0  0  0  0  0  0  0  0  0  0
   -0.1533   -2.6985   -2.8343 H   0  0  0  0  0  0  0  0  0  0  0  0
   -2.9887   -2.3917   -2.2893 H   0  0  0  0  0  0  0  0  0  0  0  0
   -2.1265   -2.2709    0.4318 H   0  0  0  0  0  0  0  0  0  0  0  0
   -2.4845    0.2264   -2.4670 H   0  0  0  0  0  0  0  0  0  0  0  0
   -4.1574    2.0486   -2.4114 H   0  0  0  0  0  0  0  0  0  0  0  0
   -3.6880   -1.0218    1.3967 H   0  0  0  0  0  0  0  0  0  0  0  0
   -5.2512    0.8523    2.6497 H   0  0  0  0  0  0  0  0  0  0  0  0
   -6.6451    0.4666    1.5183 H   0  0  0  0  0  0  0  0  0  0  0  0
   -6.9467    2.8037    1.7731 H   0  0  0  0  0  0  0  0  0  0  0  0
   -5.1238    3.0675    1.8188 H   0  0  0  0  0  0  0  0  0  0  0  0
   -6.9391    2.1981   -0.5065 H   0  0  0  0  0  0  0  0  0  0  0  0
   -5.6823    3.5450   -0.4653 H   0  0  0  0  0  0  0  0  0  0  0  0
   -1.9085   -3.9941   -0.4972 H   0  0  0  0  0  0  0  0  0  0  0  0
  1  2  1  0
  2  3  1  0
  3  4  2  0
  3  5  1  0
  5  6  1  0
  6  7  1  0
  7  8  1  0
  8  9  1  0
  9 10  1  0
 10 11  1  0
 11 12  1  0
 12 13  2  0
 12 14  1  0
 14 15  1  0
 15 16  1  0
 16 17  1  0
 17 18  2  0
 18 19  1  0
 19 20  2  0
 20 21  1  0
 21 22  2  0
 21 23  1  0
 23 24  1  0
 24 25  1  0
 15 26  1  0
 16 11  1  0
 22 17  1  0
 25 20  1  0
  1 27  1  0
  1 28  1  0
  1 29  1  0
  5 30  1  0
  5 31  1  0
  6 32  1  0
  6 33  1  0
  7 34  1  0
  7 35  1  0
  8 36  1  0
  8 37  1  0
  9 38  1  0
  9 39  1  0
 10 40  1  0
 10 41  1  0
 11 42  1  1
 14 43  1  0
 14 44  1  0
 15 45  1  6
 16 46  1  1
 18 47  1  0
 19 48  1  0
 22 49  1  0
 23 50  1  0
 23 51  1  0
 24 52  1  0
 24 53  1  0
 25 54  1  0
 25 55  1  0
 26 56  1  0
M  END
>  <Ligand ID>  (1) 
LIG0001992

>  <Ligand>  (1) 
SCHEMBL5202120

>  <SMILES>  (1) 
COC(=O)CCCCCC[C@H]1C(=O)C[C@H]([C@@H]1c1ccc2c(c1)CCC2)O

>  <CID>  (1) 
11955278.0

>  <ChEMBL ID>  (1) 
nan

>  <InChiKey>  (1) 
IAYIDTHYSFIKFX-CZTZKLFOSA-N

>  <InChi>  (1) 
InChI=1S/C22H30O4/c1-26-21(25)10-5-3-2-4-9-18-19(23)14-20(24)22(18)17-12-11-15-7-6-8-16(15)13-17/h11-13,18,20,22,24H,2-10,14H2,1H3/t18-,20+,22+/m0/s1

>  <IUPAC Name>  (1) 
methyl 7-[(1R,2S,3R)-2-(2,3-dihydro-1H-inden-5-yl)-3-hydroxy-5-oxocyclopentyl]heptanoate

$$$$
