
     RDKit          3D

 80 82  0  0  0  0  0  0  0  0999 V2000
    9.9864    2.7440   -1.6485 C   0  0  0  0  0  0  0  0  0  0  0  0
    9.4656    1.7219   -0.5976 C   0  0  0  0  0  0  0  0  0  0  0  0
    9.3486    0.3787   -1.2296 C   0  0  0  0  0  0  0  0  0  0  0  0
    8.8251   -0.6994   -0.3537 C   0  0  1  0  0  0  0  0  0  0  0  0
    9.5564   -1.0382    0.8488 C   0  0  0  0  0  0  0  0  0  0  0  0
   10.7724   -1.3286    0.9428 O   0  0  0  0  0  0  0  0  0  0  0  0
    8.8462   -1.0519    2.0728 O   0  0  0  0  0  0  0  0  0  0  0  0
    7.3886   -0.4569   -0.0714 N   0  0  0  0  0  0  0  0  0  0  0  0
    6.3892   -1.1350   -0.8761 C   0  0  0  0  0  0  0  0  0  0  0  0
    6.7600   -1.9001   -1.7848 O   0  0  0  0  0  0  0  0  0  0  0  0
    4.9727   -0.9075   -0.6079 C   0  0  0  0  0  0  0  0  0  0  0  0
    4.4763   -0.2859    0.4915 C   0  0  0  0  0  0  0  0  0  0  0  0
    3.1442   -0.0634    0.7111 C   0  0  0  0  0  0  0  0  0  0  0  0
    2.2147   -0.4801   -0.2179 C   0  0  0  0  0  0  0  0  0  0  0  0
    2.6943   -1.1200   -1.3553 C   0  0  0  0  0  0  0  0  0  0  0  0
    4.0476   -1.3401   -1.5662 C   0  0  0  0  0  0  0  0  0  0  0  0
    0.8212   -0.2838   -0.0386 N   0  0  0  0  0  0  0  0  0  0  0  0
   -0.1436   -0.3780   -1.1344 C   0  0  0  0  0  0  0  0  0  0  0  0
   -1.0211    0.8722   -0.9427 C   0  0  0  0  0  0  0  0  0  0  0  0
   -1.9789    0.4764    0.1923 C   0  0  0  0  0  0  0  0  0  0  0  0
   -1.2572   -0.3262    1.2247 C   0  0  0  0  0  0  0  0  0  0  0  0
    0.2375    0.0225    1.2730 C   0  0  0  0  0  0  0  0  0  0  0  0
   -3.1098   -0.2520   -0.4934 C   0  0  0  0  0  0  0  0  0  0  0  0
   -4.1366   -0.7219    0.3977 N   0  0  0  0  0  0  0  0  0  0  0  0
   -4.8423    0.4083    0.9459 C   0  0  0  0  0  0  0  0  0  0  0  0
   -5.9276   -0.0654    1.8760 C   0  0  1  0  0  0  0  0  0  0  0  0
   -6.9358   -0.8189    1.1113 C   0  0  0  0  0  0  0  0  0  0  0  0
   -6.8571   -2.1600    0.8228 C   0  0  0  0  0  0  0  0  0  0  0  0
   -7.8147   -2.8351    0.0821 C   0  0  0  0  0  0  0  0  0  0  0  0
   -8.8842   -2.1114   -0.3764 C   0  0  0  0  0  0  0  0  0  0  0  0
   -9.0280   -0.7538   -0.1228 C   0  0  0  0  0  0  0  0  0  0  0  0
   -8.0486   -0.1403    0.6167 C   0  0  0  0  0  0  0  0  0  0  0  0
  -10.1420   -0.0379   -0.6157 N   0  0  0  0  0  0  0  0  0  0  0  0
  -10.2994    1.6605   -0.4086 S   0  0  0  0  0  0  0  0  0  0  0  0
   -9.0923    2.3026   -1.0178 O   0  0  0  0  0  0  0  0  0  0  0  0
  -11.5353    2.1807   -1.1072 O   0  0  0  0  0  0  0  0  0  0  0  0
  -10.3708    2.1436    1.3015 C   0  0  0  0  0  0  0  0  0  0  0  0
   -9.8416   -2.8131   -1.1250 O   0  0  0  0  0  0  0  0  0  0  0  0
   -5.3751   -0.7909    2.9168 O   0  0  0  0  0  0  0  0  0  0  0  0
   10.5231    1.6613    0.5030 C   0  0  0  0  0  0  0  0  0  0  0  0
    9.1296    3.1131   -2.2524 H   0  0  0  0  0  0  0  0  0  0  0  0
   10.5044    3.5716   -1.1437 H   0  0  0  0  0  0  0  0  0  0  0  0
   10.6427    2.1424   -2.2953 H   0  0  0  0  0  0  0  0  0  0  0  0
    8.5019    2.0922   -0.2717 H   0  0  0  0  0  0  0  0  0  0  0  0
   10.3034    0.0258   -1.6799 H   0  0  0  0  0  0  0  0  0  0  0  0
    8.6187    0.4580   -2.0938 H   0  0  0  0  0  0  0  0  0  0  0  0
    8.7848   -1.6229   -1.0163 H   0  0  0  0  0  0  0  0  0  0  0  0
    9.2597   -1.5417    2.8697 H   0  0  0  0  0  0  0  0  0  0  0  0
    7.1160    0.1963    0.6956 H   0  0  0  0  0  0  0  0  0  0  0  0
    5.1733    0.0618    1.2547 H   0  0  0  0  0  0  0  0  0  0  0  0
    2.7459    0.4348    1.5920 H   0  0  0  0  0  0  0  0  0  0  0  0
    2.0327   -1.4770   -2.1296 H   0  0  0  0  0  0  0  0  0  0  0  0
    4.4356   -1.8342   -2.4477 H   0  0  0  0  0  0  0  0  0  0  0  0
   -0.7514   -1.2795   -0.9241 H   0  0  0  0  0  0  0  0  0  0  0  0
    0.3195   -0.3821   -2.1282 H   0  0  0  0  0  0  0  0  0  0  0  0
   -0.4204    1.7116   -0.5301 H   0  0  0  0  0  0  0  0  0  0  0  0
   -1.5313    1.1462   -1.8616 H   0  0  0  0  0  0  0  0  0  0  0  0
   -2.3608    1.4413    0.5822 H   0  0  0  0  0  0  0  0  0  0  0  0
   -1.6823   -0.1216    2.2110 H   0  0  0  0  0  0  0  0  0  0  0  0
   -1.3426   -1.4251    1.0385 H   0  0  0  0  0  0  0  0  0  0  0  0
    0.4013    1.0485    1.5996 H   0  0  0  0  0  0  0  0  0  0  0  0
    0.7002   -0.7163    1.9860 H   0  0  0  0  0  0  0  0  0  0  0  0
   -3.5447    0.5101   -1.2093 H   0  0  0  0  0  0  0  0  0  0  0  0
   -2.7599   -1.0644   -1.1798 H   0  0  0  0  0  0  0  0  0  0  0  0
   -4.8354   -1.2330   -0.2219 H   0  0  0  0  0  0  0  0  0  0  0  0
   -4.1387    1.1110    1.4827 H   0  0  0  0  0  0  0  0  0  0  0  0
   -5.2999    1.0435    0.1545 H   0  0  0  0  0  0  0  0  0  0  0  0
   -6.4081    0.8828    2.2717 H   0  0  0  0  0  0  0  0  0  0  0  0
   -5.9991   -2.7385    1.1965 H   0  0  0  0  0  0  0  0  0  0  0  0
   -7.7331   -3.8918   -0.1338 H   0  0  0  0  0  0  0  0  0  0  0  0
   -8.1300    0.9020    0.8285 H   0  0  0  0  0  0  0  0  0  0  0  0
  -10.8996   -0.5395   -1.1227 H   0  0  0  0  0  0  0  0  0  0  0  0
   -9.4923    2.7106    1.6174 H   0  0  0  0  0  0  0  0  0  0  0  0
  -10.4203    1.2290    1.9513 H   0  0  0  0  0  0  0  0  0  0  0  0
  -11.2745    2.7777    1.4847 H   0  0  0  0  0  0  0  0  0  0  0  0
  -10.0256   -2.4922   -2.0692 H   0  0  0  0  0  0  0  0  0  0  0  0
   -5.8051   -1.6864    2.9251 H   0  0  0  0  0  0  0  0  0  0  0  0
   11.4298    1.1484    0.1664 H   0  0  0  0  0  0  0  0  0  0  0  0
   10.8675    2.7211    0.7184 H   0  0  0  0  0  0  0  0  0  0  0  0
   10.0597    1.2895    1.4003 H   0  0  0  0  0  0  0  0  0  0  0  0
  1  2  1  0
  2  3  1  0
  3  4  1  0
  4  5  1  0
  5  6  2  0
  5  7  1  0
  4  8  1  0
  8  9  1  0
  9 10  2  0
  9 11  1  0
 11 12  2  0
 12 13  1  0
 13 14  2  0
 14 15  1  0
 15 16  2  0
 14 17  1  0
 17 18  1  0
 18 19  1  0
 19 20  1  0
 20 21  1  0
 21 22  1  0
 20 23  1  0
 23 24  1  0
 24 25  1  0
 25 26  1  0
 26 27  1  0
 27 28  2  0
 28 29  1  0
 29 30  2  0
 30 31  1  0
 31 32  2  0
 31 33  1  0
 33 34  1  0
 34 35  2  0
 34 36  2  0
 34 37  1  0
 30 38  1  0
 26 39  1  0
  2 40  1  0
 16 11  1  0
 22 17  1  0
 32 27  1  0
  1 41  1  0
  1 42  1  0
  1 43  1  0
  2 44  1  0
  3 45  1  0
  3 46  1  0
  4 47  1  6
  7 48  1  0
  8 49  1  0
 12 50  1  0
 13 51  1  0
 15 52  1  0
 16 53  1  0
 18 54  1  0
 18 55  1  0
 19 56  1  0
 19 57  1  0
 20 58  1  0
 21 59  1  0
 21 60  1  0
 22 61  1  0
 22 62  1  0
 23 63  1  0
 23 64  1  0
 24 65  1  0
 25 66  1  0
 25 67  1  0
 26 68  1  1
 28 69  1  0
 29 70  1  0
 32 71  1  0
 33 72  1  0
 37 73  1  0
 37 74  1  0
 37 75  1  0
 38 76  1  0
 39 77  1  0
 40 78  1  0
 40 79  1  0
 40 80  1  0
M  END
>  <Ligand ID>  (1) 
LIG0003446

>  <Ligand>  (1) 
CHEMBL101630

>  <SMILES>  (1) 
CC(C[C@@H](C(=O)O)NC(=O)c1ccc(cc1)N1CCC(CC1)CNC[C@@H](c1ccc(c(c1)NS(=O)(=O)C)O)O)C

>  <CID>  (1) 
44331425.0

>  <ChEMBL ID>  (1) 
nan

>  <InChiKey>  (1) 
GNYDCKQBXGHOOR-AHWVRZQESA-N

>  <InChi>  (1) 
InChI=1S/C28H40N4O7S/c1-18(2)14-24(28(36)37)30-27(35)20-4-7-22(8-5-20)32-12-10-19(11-13-32)16-29-17-26(34)21-6-9-25(33)23(15-21)31-40(3,38)39/h4-9,15,18-19,24,26,29,31,33-34H,10-14,16-17H2,1-3H3,(H,30,35)(H,36,37)/t24-,26-/m0/s1

>  <IUPAC Name>  (1) 
(2S)-2-[[4-[4-[[[(2R)-2-hydroxy-2-[4-hydroxy-3-(methanesulfonamido)phenyl]ethyl]amino]methyl]piperidin-1-yl]benzoyl]amino]-4-methylpentanoic acid

$$$$
