
     RDKit          3D

 20 20  0  0  0  0  0  0  0  0999 V2000
    2.8722   -0.9400    0.3349 C   0  0  0  0  0  0  0  0  0  0  0  0
    2.1796    0.2446    0.0824 O   0  0  0  0  0  0  0  0  0  0  0  0
    0.8349    0.3989   -0.0495 C   0  0  0  0  0  0  0  0  0  0  0  0
   -0.0307   -0.6451    0.0566 C   0  0  0  0  0  0  0  0  0  0  0  0
   -1.3883   -0.4307   -0.0863 C   0  0  0  0  0  0  0  0  0  0  0  0
   -2.3057   -1.5951    0.0358 C   0  0  0  0  0  0  0  0  0  0  0  0
   -1.9176    0.8302   -0.3387 C   0  0  0  0  0  0  0  0  0  0  0  0
   -1.0181    1.8762   -0.4425 C   0  0  0  0  0  0  0  0  0  0  0  0
    0.3319    1.6591   -0.2997 C   0  0  0  0  0  0  0  0  0  0  0  0
    1.2111    2.7375   -0.4104 O   0  0  0  0  0  0  0  0  0  0  0  0
    3.0004   -1.5767   -0.5803 H   0  0  0  0  0  0  0  0  0  0  0  0
    3.9276   -0.6540    0.6193 H   0  0  0  0  0  0  0  0  0  0  0  0
    2.4776   -1.5299    1.1861 H   0  0  0  0  0  0  0  0  0  0  0  0
    0.3192   -1.6263    0.2481 H   0  0  0  0  0  0  0  0  0  0  0  0
   -3.2411   -1.2577    0.5727 H   0  0  0  0  0  0  0  0  0  0  0  0
   -2.6606   -1.9526   -0.9542 H   0  0  0  0  0  0  0  0  0  0  0  0
   -1.8921   -2.4084    0.6666 H   0  0  0  0  0  0  0  0  0  0  0  0
   -2.9823    0.9403   -0.4411 H   0  0  0  0  0  0  0  0  0  0  0  0
   -1.4079    2.8794   -0.6408 H   0  0  0  0  0  0  0  0  0  0  0  0
    1.6898    3.0503    0.4409 H   0  0  0  0  0  0  0  0  0  0  0  0
  1  2  1  0
  2  3  1  0
  3  4  2  0
  4  5  1  0
  5  6  1  0
  5  7  2  0
  7  8  1  0
  8  9  2  0
  9 10  1  0
  9  3  1  0
  1 11  1  0
  1 12  1  0
  1 13  1  0
  4 14  1  0
  6 15  1  0
  6 16  1  0
  6 17  1  0
  7 18  1  0
  8 19  1  0
 10 20  1  0
M  END
>  <Ligand ID>  (1) 
LIG0000048

>  <Ligand>  (1) 
Creosol

>  <SMILES>  (1) 
COc1cc(C)ccc1O

>  <CID>  (1) 
7144.0

>  <ChEMBL ID>  (1) 
nan

>  <InChiKey>  (1) 
PETRWTHZSKVLRE-UHFFFAOYSA-N

>  <InChi>  (1) 
InChI=1S/C8H10O2/c1-6-3-4-7(9)8(5-6)10-2/h3-5,9H,1-2H3

>  <IUPAC Name>  (1) 
2-methoxy-4-methylphenol

$$$$
