
     RDKit          3D

 60 62  0  0  0  0  0  0  0  0999 V2000
   -6.7170   -0.6698   -1.5150 O   0  0  0  0  0  0  0  0  0  0  0  0
   -6.7766    0.2052   -0.4219 C   0  0  0  0  0  0  0  0  0  0  0  0
   -5.4263    0.2521    0.2421 C   0  0  1  0  0  0  0  0  0  0  0  0
   -4.4304    0.7011   -0.6333 O   0  0  0  0  0  0  0  0  0  0  0  0
   -3.3023    1.0762    0.0957 C   0  0  2  0  0  0  0  0  0  0  0  0
   -2.9725    0.0681    0.9807 O   0  0  0  0  0  0  0  0  0  0  0  0
   -1.4690   -0.5881    0.5953 P   0  0  0  0  0  0  0  0  0  0  0  0
   -0.4201   -0.2025    1.6354 O   0  0  0  0  0  0  0  0  0  0  0  0
   -1.5199   -2.2820    0.5980 O   0  0  0  0  0  0  0  0  0  0  0  0
   -0.1185   -2.9045   -0.0843 P   0  0  0  0  0  0  0  0  0  0  0  0
    0.6429   -3.6721    0.9438 O   0  0  0  0  0  0  0  0  0  0  0  0
    0.7841   -1.6430   -0.7497 O   0  0  0  0  0  0  0  0  0  0  0  0
    2.0800   -2.0026   -1.0251 C   0  0  0  0  0  0  0  0  0  0  0  0
    2.8469   -0.8570   -1.6134 C   0  0  1  0  0  0  0  0  0  0  0  0
    2.9407    0.2564   -0.8274 O   0  0  0  0  0  0  0  0  0  0  0  0
    4.2224    0.7359   -0.8349 C   0  0  2  0  0  0  0  0  0  0  0  0
    4.9369    0.0790   -1.9677 C   0  0  1  0  0  0  0  0  0  0  0  0
    4.2398   -1.2659   -2.0173 C   0  0  2  0  0  0  0  0  0  0  0  0
    4.2973   -1.8311   -3.2810 O   0  0  0  0  0  0  0  0  0  0  0  0
    4.6344    0.7469   -3.1453 O   0  0  0  0  0  0  0  0  0  0  0  0
    4.8294    0.5108    0.4642 N   0  0  0  0  0  0  0  0  0  0  0  0
    4.1551   -0.0837    1.4848 C   0  0  0  0  0  0  0  0  0  0  0  0
    4.7728   -0.2846    2.7247 C   0  0  0  0  0  0  0  0  0  0  0  0
    6.0838    0.1234    2.9225 C   0  0  0  0  0  0  0  0  0  0  0  0
    6.6202   -0.0640    4.0371 O   0  0  0  0  0  0  0  0  0  0  0  0
    6.7184    0.7109    1.8804 N   0  0  0  0  0  0  0  0  0  0  0  0
    6.0992    0.8931    0.6932 C   0  0  0  0  0  0  0  0  0  0  0  0
    6.8095    1.4580   -0.2027 O   0  0  0  0  0  0  0  0  0  0  0  0
   -0.6120   -4.0011   -1.2923 O   0  0  0  0  0  0  0  0  0  0  0  0
   -0.9953   -0.1010   -0.9536 O   0  0  0  0  0  0  0  0  0  0  0  0
   -3.4906    2.4081    0.7675 C   0  0  1  0  0  0  0  0  0  0  0  0
   -4.9937    2.5586    0.9882 C   0  0  2  0  0  0  0  0  0  0  0  0
   -5.5141    1.2122    1.4257 C   0  0  1  0  0  0  0  0  0  0  0  0
   -6.8267    1.3256    1.8765 O   0  0  0  0  0  0  0  0  0  0  0  0
   -5.6146    2.9483   -0.2065 O   0  0  0  0  0  0  0  0  0  0  0  0
   -2.9057    2.4824    2.0308 O   0  0  0  0  0  0  0  0  0  0  0  0
   -7.6140   -0.7064   -1.9328 H   0  0  0  0  0  0  0  0  0  0  0  0
   -7.4689   -0.2706    0.3204 H   0  0  0  0  0  0  0  0  0  0  0  0
   -7.1472    1.1843   -0.7272 H   0  0  0  0  0  0  0  0  0  0  0  0
   -5.1577   -0.7684    0.5616 H   0  0  0  0  0  0  0  0  0  0  0  0
   -2.4733    1.1759   -0.6346 H   0  0  0  0  0  0  0  0  0  0  0  0
    2.6223   -2.4033   -0.1234 H   0  0  0  0  0  0  0  0  0  0  0  0
    2.0625   -2.8142   -1.7671 H   0  0  0  0  0  0  0  0  0  0  0  0
    2.3324   -0.5546   -2.5632 H   0  0  0  0  0  0  0  0  0  0  0  0
    4.1559    1.8426   -0.9418 H   0  0  0  0  0  0  0  0  0  0  0  0
    6.0243   -0.0482   -1.8108 H   0  0  0  0  0  0  0  0  0  0  0  0
    4.6967   -1.9020   -1.2404 H   0  0  0  0  0  0  0  0  0  0  0  0
    3.3574   -2.0381   -3.5380 H   0  0  0  0  0  0  0  0  0  0  0  0
    4.3650    0.0959   -3.8515 H   0  0  0  0  0  0  0  0  0  0  0  0
    3.1217   -0.4024    1.3205 H   0  0  0  0  0  0  0  0  0  0  0  0
    4.2501   -0.7560    3.5465 H   0  0  0  0  0  0  0  0  0  0  0  0
    7.7196    1.0199    2.0390 H   0  0  0  0  0  0  0  0  0  0  0  0
    0.0659   -3.8933   -2.0324 H   0  0  0  0  0  0  0  0  0  0  0  0
   -1.6151   -0.5467   -1.5876 H   0  0  0  0  0  0  0  0  0  0  0  0
   -3.1302    3.2704    0.1779 H   0  0  0  0  0  0  0  0  0  0  0  0
   -5.1482    3.3091    1.7700 H   0  0  0  0  0  0  0  0  0  0  0  0
   -4.8336    0.8475    2.2317 H   0  0  0  0  0  0  0  0  0  0  0  0
   -6.9153    0.6484    2.6068 H   0  0  0  0  0  0  0  0  0  0  0  0
   -4.9544    3.0039   -0.9221 H   0  0  0  0  0  0  0  0  0  0  0  0
   -1.9245    2.4071    1.9482 H   0  0  0  0  0  0  0  0  0  0  0  0
  1  2  1  0
  2  3  1  0
  3  4  1  0
  4  5  1  0
  5  6  1  0
  6  7  1  0
  7  8  2  0
  7  9  1  0
  9 10  1  0
 10 11  2  0
 10 12  1  0
 12 13  1  0
 13 14  1  0
 14 15  1  0
 15 16  1  0
 16 17  1  0
 17 18  1  0
 18 19  1  0
 17 20  1  0
 16 21  1  0
 21 22  1  0
 22 23  2  0
 23 24  1  0
 24 25  2  0
 24 26  1  0
 26 27  1  0
 27 28  2  0
 10 29  1  0
  7 30  1  0
  5 31  1  0
 31 32  1  0
 32 33  1  0
 33 34  1  0
 32 35  1  0
 31 36  1  0
 33  3  1  0
 18 14  1  0
 27 21  1  0
  1 37  1  0
  2 38  1  0
  2 39  1  0
  3 40  1  1
  5 41  1  6
 13 42  1  0
 13 43  1  0
 14 44  1  6
 16 45  1  6
 17 46  1  1
 18 47  1  1
 19 48  1  0
 20 49  1  0
 22 50  1  0
 23 51  1  0
 26 52  1  0
 29 53  1  0
 30 54  1  0
 31 55  1  6
 32 56  1  1
 33 57  1  1
 34 58  1  0
 35 59  1  0
 36 60  1  0
M  END
>  <Ligand ID>  (1) 
LIG0001284

>  <Ligand>  (1) 
UDP-galactose

>  <SMILES>  (1) 
OC[C@H]1O[C@H](OP(=O)(OP(=O)(OC[C@H]2O[C@H]([C@@H]([C@@H]2O)O)n2ccc(=O)[nH]c2=O)O)O)[C@@H]([C@H]([C@H]1O)O)O

>  <CID>  (1) 
18068.0

>  <ChEMBL ID>  (1) 
nan

>  <InChiKey>  (1) 
HSCJRCZFDFQWRP-ABVWGUQPSA-N

>  <InChi>  (1) 
InChI=1S/C15H24N2O17P2/c18-3-5-8(20)10(22)12(24)14(32-5)33-36(28,29)34-35(26,27)30-4-6-9(21)11(23)13(31-6)17-2-1-7(19)16-15(17)25/h1-2,5-6,8-14,18,20-24H,3-4H2,(H,26,27)(H,28,29)(H,16,19,25)/t5-,6-,8+,9-,10+,11-,12-,13-,14-/m1/s1

>  <IUPAC Name>  (1) 
[[(2R,3S,4R,5R)-5-(2,4-dioxopyrimidin-1-yl)-3,4-dihydroxyoxolan-2-yl]methoxy-hydroxyphosphoryl] [(2R,3R,4S,5R,6R)-3,4,5-trihydroxy-6-(hydroxymethyl)oxan-2-yl] hydrogen phosphate

$$$$
