
     RDKit          3D

 51 53  0  0  0  0  0  0  0  0999 V2000
    3.0341    0.2476   -3.7767 N   0  0  0  0  0  0  0  0  0  0  0  0
    3.4102    0.1343   -2.6981 C   0  0  0  0  0  0  0  0  0  0  0  0
    3.8956    0.0120   -1.3548 C   0  0  0  0  0  0  0  0  0  0  0  0
    5.2719    0.1688   -1.1908 C   0  0  0  0  0  0  0  0  0  0  0  0
    5.8459    0.0923    0.0495 C   0  0  0  0  0  0  0  0  0  0  0  0
    5.0166   -0.1445    1.1240 C   0  0  0  0  0  0  0  0  0  0  0  0
    3.6579   -0.2995    0.9595 C   0  0  0  0  0  0  0  0  0  0  0  0
    3.0476   -0.2256   -0.2996 C   0  0  0  0  0  0  0  0  0  0  0  0
    1.6443   -0.4191   -0.4327 N   0  0  0  0  0  0  0  0  0  0  0  0
    0.8608   -0.3716    0.7827 C   0  0  0  0  0  0  0  0  0  0  0  0
   -0.5908   -0.1563    0.6841 C   0  0  0  0  0  0  0  0  0  0  0  0
   -1.2723   -0.4168   -0.6056 C   0  0  0  0  0  0  0  0  0  0  0  0
   -0.3993   -1.3148   -1.4967 C   0  0  0  0  0  0  0  0  0  0  0  0
    0.9664   -0.6817   -1.6638 C   0  0  0  0  0  0  0  0  0  0  0  0
   -2.4811   -1.3354   -0.3606 C   0  0  0  0  0  0  0  0  0  0  0  0
   -3.4802   -0.5249    0.3803 C   0  0  0  0  0  0  0  0  0  0  0  0
   -4.0627    0.4596   -0.5966 C   0  0  0  0  0  0  0  0  0  0  0  0
   -3.0518    1.2433   -1.3573 C   0  0  0  0  0  0  0  0  0  0  0  0
   -1.6345    0.8520   -1.2849 C   0  0  0  0  0  0  0  0  0  0  0  0
   -5.0054    1.3189    0.2245 C   0  0  0  0  0  0  0  0  0  0  0  0
   -6.0287    0.3746    0.7958 C   0  0  0  0  0  0  0  0  0  0  0  0
   -6.9727   -0.0848    0.1146 O   0  0  0  0  0  0  0  0  0  0  0  0
   -5.9620   -0.0330    2.1343 O   0  0  0  0  0  0  0  0  0  0  0  0
    5.5880   -0.2218    2.3726 O   0  0  0  0  0  0  0  0  0  0  0  0
    5.7911    0.8349    3.2600 C   0  0  0  0  0  0  0  0  0  0  0  0
    6.5901    1.8316    2.7776 F   0  0  0  0  0  0  0  0  0  0  0  0
    4.5971    1.4599    3.6473 F   0  0  0  0  0  0  0  0  0  0  0  0
    6.2807    0.2734    4.4372 F   0  0  0  0  0  0  0  0  0  0  0  0
    5.9296    0.3550   -2.0281 H   0  0  0  0  0  0  0  0  0  0  0  0
    6.9000    0.2089    0.2017 H   0  0  0  0  0  0  0  0  0  0  0  0
    3.0878   -0.4853    1.8618 H   0  0  0  0  0  0  0  0  0  0  0  0
    1.0548   -1.3233    1.3216 H   0  0  0  0  0  0  0  0  0  0  0  0
    1.3446    0.4249    1.4268 H   0  0  0  0  0  0  0  0  0  0  0  0
   -1.1234   -0.7118    1.5149 H   0  0  0  0  0  0  0  0  0  0  0  0
   -0.7983    0.9203    0.9635 H   0  0  0  0  0  0  0  0  0  0  0  0
   -0.3760   -2.3285   -1.0825 H   0  0  0  0  0  0  0  0  0  0  0  0
   -0.8852   -1.2971   -2.4968 H   0  0  0  0  0  0  0  0  0  0  0  0
    0.7745    0.2684   -2.1861 H   0  0  0  0  0  0  0  0  0  0  0  0
    1.5141   -1.4450   -2.2922 H   0  0  0  0  0  0  0  0  0  0  0  0
   -2.8410   -1.7688   -1.2981 H   0  0  0  0  0  0  0  0  0  0  0  0
   -2.0850   -2.1352    0.2977 H   0  0  0  0  0  0  0  0  0  0  0  0
   -4.2995   -1.2081    0.7037 H   0  0  0  0  0  0  0  0  0  0  0  0
   -3.0382   -0.0705    1.2625 H   0  0  0  0  0  0  0  0  0  0  0  0
   -4.7150   -0.1346   -1.2772 H   0  0  0  0  0  0  0  0  0  0  0  0
   -3.3806    1.2754   -2.4211 H   0  0  0  0  0  0  0  0  0  0  0  0
   -3.1779    2.3026   -1.0193 H   0  0  0  0  0  0  0  0  0  0  0  0
   -1.1854    0.8089   -2.3225 H   0  0  0  0  0  0  0  0  0  0  0  0
   -1.0251    1.6834   -0.8191 H   0  0  0  0  0  0  0  0  0  0  0  0
   -5.5780    2.0217   -0.4096 H   0  0  0  0  0  0  0  0  0  0  0  0
   -4.4783    1.7824    1.0662 H   0  0  0  0  0  0  0  0  0  0  0  0
   -6.1754   -0.9975    2.4063 H   0  0  0  0  0  0  0  0  0  0  0  0
  1  2  3  0
  2  3  1  0
  3  4  2  0
  4  5  1  0
  5  6  2  0
  6  7  1  0
  7  8  2  0
  8  9  1  0
  9 10  1  0
 10 11  1  0
 11 12  1  0
 12 13  1  0
 13 14  1  0
 12 15  1  0
 15 16  1  0
 16 17  1  0
 17 18  1  0
 18 19  1  0
 17 20  1  0
 20 21  1  0
 21 22  2  0
 21 23  1  0
  6 24  1  0
 24 25  1  0
 25 26  1  0
 25 27  1  0
 25 28  1  0
  8  3  1  0
 14  9  1  0
 19 12  1  0
  4 29  1  0
  5 30  1  0
  7 31  1  0
 10 32  1  0
 10 33  1  0
 11 34  1  0
 11 35  1  0
 13 36  1  0
 13 37  1  0
 14 38  1  0
 14 39  1  0
 15 40  1  0
 15 41  1  0
 16 42  1  0
 16 43  1  0
 17 44  1  0
 18 45  1  0
 18 46  1  0
 19 47  1  0
 19 48  1  0
 20 49  1  0
 20 50  1  0
 23 51  1  0
M  END
>  <Ligand ID>  (1) 
LIG0002977

>  <Ligand>  (1) 
CHEMBL3973034

>  <SMILES>  (1) 
N#Cc1ccc(cc1N1CCC2(CC1)CCC(CC2)CC(=O)O)OC(F)(F)F

>  <CID>  (1) 
73777156.0

>  <ChEMBL ID>  (1) 
nan

>  <InChiKey>  (1) 
SXNLLFZBIQFVNA-UHFFFAOYSA-N

>  <InChi>  (1) 
InChI=1S/C20H23F3N2O3/c21-20(22,23)28-16-2-1-15(13-24)17(12-16)25-9-7-19(8-10-25)5-3-14(4-6-19)11-18(26)27/h1-2,12,14H,3-11H2,(H,26,27)

>  <IUPAC Name>  (1) 
2-[3-[2-cyano-5-(trifluoromethoxy)phenyl]-3-azaspiro[5.5]undecan-9-yl]acetic acid

$$$$
