
     RDKit          3D

 21 21  0  0  0  0  0  0  0  0999 V2000
    4.1379   -0.0027    0.7564 O   0  0  0  0  0  0  0  0  0  0  0  0
    3.3591   -0.8491    0.2560 C   0  0  0  0  0  0  0  0  0  0  0  0
    1.9309   -0.5840    0.1104 C   0  0  0  0  0  0  0  0  0  0  0  0
    1.0568   -1.5001   -0.4369 C   0  0  0  0  0  0  0  0  0  0  0  0
   -0.2892   -1.1917   -0.5492 C   0  0  0  0  0  0  0  0  0  0  0  0
   -0.7902    0.0216   -0.1242 C   0  0  0  0  0  0  0  0  0  0  0  0
    0.0816    0.9553    0.4301 C   0  0  0  0  0  0  0  0  0  0  0  0
    1.4403    0.6285    0.5369 C   0  0  0  0  0  0  0  0  0  0  0  0
   -0.4545    2.2494    0.8830 C   0  0  0  0  0  0  0  0  0  0  0  0
   -2.1347    0.3631   -0.2222 O   0  0  0  0  0  0  0  0  0  0  0  0
   -3.0249   -0.5851   -0.7860 C   0  0  0  0  0  0  0  0  0  0  0  0
    3.7743   -1.7931   -0.0701 H   0  0  0  0  0  0  0  0  0  0  0  0
    1.4300   -2.4582   -0.7765 H   0  0  0  0  0  0  0  0  0  0  0  0
   -0.9585   -1.9242   -0.9814 H   0  0  0  0  0  0  0  0  0  0  0  0
    2.1317    1.3413    0.9647 H   0  0  0  0  0  0  0  0  0  0  0  0
   -0.7365    2.8468   -0.0215 H   0  0  0  0  0  0  0  0  0  0  0  0
   -1.4197    2.1369    1.4427 H   0  0  0  0  0  0  0  0  0  0  0  0
    0.2859    2.8396    1.4257 H   0  0  0  0  0  0  0  0  0  0  0  0
   -3.2092   -1.4188   -0.0538 H   0  0  0  0  0  0  0  0  0  0  0  0
   -4.0071   -0.0948   -1.0422 H   0  0  0  0  0  0  0  0  0  0  0  0
   -2.6040   -0.9807   -1.7419 H   0  0  0  0  0  0  0  0  0  0  0  0
  1  2  2  0
  2  3  1  0
  3  4  2  0
  4  5  1  0
  5  6  2  0
  6  7  1  0
  7  8  2  0
  7  9  1  0
  6 10  1  0
 10 11  1  0
  8  3  1  0
  2 12  1  0
  4 13  1  0
  5 14  1  0
  8 15  1  0
  9 16  1  0
  9 17  1  0
  9 18  1  0
 11 19  1  0
 11 20  1  0
 11 21  1  0
M  END
>  <Ligand ID>  (1) 
LIG0005053

>  <Ligand>  (1) 
4-methoxy-3-methylbenzaldehyde

>  <SMILES>  (1) 
O=Cc1ccc(c(c1)C)OC

>  <CID>  (1) 
122936.0

>  <ChEMBL ID>  (1) 
nan

>  <InChiKey>  (1) 
MYLBIQHZWFWSMH-UHFFFAOYSA-N

>  <InChi>  (1) 
InChI=1S/C9H10O2/c1-7-5-8(6-10)3-4-9(7)11-2/h3-6H,1-2H3

>  <IUPAC Name>  (1) 
4-methoxy-3-methylbenzaldehyde

$$$$
