
     RDKit          3D

 47 50  0  0  0  0  0  0  0  0999 V2000
   -2.1247    2.3802    2.0150 C   0  0  0  0  0  0  0  0  0  0  0  0
   -2.0396    1.4103    0.8959 C   0  0  0  0  0  0  0  0  0  0  0  0
   -0.9220    0.8719    0.4042 N   0  0  0  0  0  0  0  0  0  0  0  0
   -1.1342    0.0395   -0.5906 N   0  0  0  0  0  0  0  0  0  0  0  0
   -2.4896    0.0327   -0.7626 C   0  0  0  0  0  0  0  0  0  0  0  0
   -3.0703    0.8806    0.1543 C   0  0  0  0  0  0  0  0  0  0  0  0
   -4.5303    0.9194    0.0215 C   0  0  1  0  0  0  0  0  0  0  0  0
   -4.8131    0.1271   -1.2308 C   0  0  1  0  0  0  0  0  0  0  0  0
   -3.5548   -0.5802   -1.6043 C   0  0  0  0  0  0  0  0  0  0  0  0
   -5.4125   -0.2410    0.0836 C   0  0  0  0  0  0  0  0  0  0  0  0
   -4.9718   -1.5643    0.6530 C   0  0  0  0  0  0  0  0  0  0  0  0
   -6.8880    0.0605    0.3197 C   0  0  0  0  0  0  0  0  0  0  0  0
   -0.1987   -0.7120   -1.3525 C   0  0  0  0  0  0  0  0  0  0  0  0
   -0.6719   -1.4591   -2.2796 O   0  0  0  0  0  0  0  0  0  0  0  0
    1.2289   -0.6979   -1.1635 C   0  0  0  0  0  0  0  0  0  0  0  0
    1.8984   -0.0072   -0.2784 C   0  0  0  0  0  0  0  0  0  0  0  0
    3.3574   -0.0372   -0.1369 C   0  0  0  0  0  0  0  0  0  0  0  0
    4.1787   -0.8002   -0.9259 C   0  0  0  0  0  0  0  0  0  0  0  0
    5.5590   -0.7815   -0.7374 C   0  0  0  0  0  0  0  0  0  0  0  0
    6.1565   -0.0138    0.2287 C   0  0  0  0  0  0  0  0  0  0  0  0
    5.3385    0.7552    1.0252 C   0  0  0  0  0  0  0  0  0  0  0  0
    3.9779    0.7341    0.8361 C   0  0  0  0  0  0  0  0  0  0  0  0
    7.8944    0.0004    0.4552 S   0  0  0  0  0  0  0  0  0  0  0  0
    8.5132   -0.3219   -0.8820 O   0  0  0  0  0  0  0  0  0  0  0  0
    8.3593    1.3274    0.9405 O   0  0  0  0  0  0  0  0  0  0  0  0
    8.3347   -1.2316    1.5912 N   0  0  0  0  0  0  0  0  0  0  0  0
   -1.2262    3.0454    2.0133 H   0  0  0  0  0  0  0  0  0  0  0  0
   -3.0029    3.0533    1.9255 H   0  0  0  0  0  0  0  0  0  0  0  0
   -2.1787    1.8997    2.9984 H   0  0  0  0  0  0  0  0  0  0  0  0
   -4.9846    1.9483    0.1171 H   0  0  0  0  0  0  0  0  0  0  0  0
   -5.4904    0.5443   -2.0011 H   0  0  0  0  0  0  0  0  0  0  0  0
   -3.5657   -1.6655   -1.4789 H   0  0  0  0  0  0  0  0  0  0  0  0
   -3.3165   -0.4000   -2.6785 H   0  0  0  0  0  0  0  0  0  0  0  0
   -5.6590   -1.9539    1.4332 H   0  0  0  0  0  0  0  0  0  0  0  0
   -3.9764   -1.4570    1.1341 H   0  0  0  0  0  0  0  0  0  0  0  0
   -4.9254   -2.3722   -0.1299 H   0  0  0  0  0  0  0  0  0  0  0  0
   -7.0269    1.1194    0.6343 H   0  0  0  0  0  0  0  0  0  0  0  0
   -7.2801   -0.5516    1.1510 H   0  0  0  0  0  0  0  0  0  0  0  0
   -7.4485   -0.1289   -0.6188 H   0  0  0  0  0  0  0  0  0  0  0  0
    1.8261   -1.3319   -1.8295 H   0  0  0  0  0  0  0  0  0  0  0  0
    1.3636    0.6226    0.3902 H   0  0  0  0  0  0  0  0  0  0  0  0
    3.8121   -1.4260   -1.6989 H   0  0  0  0  0  0  0  0  0  0  0  0
    6.1889   -1.3815   -1.3597 H   0  0  0  0  0  0  0  0  0  0  0  0
    5.7336    1.3772    1.7970 H   0  0  0  0  0  0  0  0  0  0  0  0
    3.3537    1.3452    1.4721 H   0  0  0  0  0  0  0  0  0  0  0  0
    8.2686   -2.1393    1.1041 H   0  0  0  0  0  0  0  0  0  0  0  0
    7.5592   -1.2391    2.3134 H   0  0  0  0  0  0  0  0  0  0  0  0
  1  2  1  0
  2  3  2  0
  3  4  1  0
  4  5  1  0
  5  6  2  0
  6  7  1  0
  7  8  1  0
  8  9  1  0
  8 10  1  0
 10 11  1  0
 10 12  1  0
  4 13  1  0
 13 14  2  0
 13 15  1  0
 15 16  2  0
 16 17  1  0
 17 18  2  0
 18 19  1  0
 19 20  2  0
 20 21  1  0
 21 22  2  0
 20 23  1  0
 23 24  2  0
 23 25  2  0
 23 26  1  0
  6  2  1  0
 10  7  1  0
 22 17  1  0
  9  5  1  0
  1 27  1  0
  1 28  1  0
  1 29  1  0
  7 30  1  6
  8 31  1  6
  9 32  1  0
  9 33  1  0
 11 34  1  0
 11 35  1  0
 11 36  1  0
 12 37  1  0
 12 38  1  0
 12 39  1  0
 15 40  1  0
 16 41  1  0
 18 42  1  0
 19 43  1  0
 21 44  1  0
 22 45  1  0
 26 46  1  0
 26 47  1  0
M  END
>  <Ligand ID>  (1) 
LIG0003968

>  <Ligand>  (1) 
CHEMBL601701

>  <SMILES>  (1) 
Cc1nn(c2c1[C@H]1[C@@H](C2)C1(C)C)C(=O)/C=C/c1ccc(cc1)S(=O)(=O)N

>  <CID>  (1) 
46224716.0

>  <ChEMBL ID>  (1) 
nan

>  <InChiKey>  (1) 
RAIDYGQDVPGIRK-NYBJAGPHSA-N

>  <InChi>  (1) 
InChI=1S/C19H21N3O3S/c1-11-17-15(10-14-18(17)19(14,2)3)22(21-11)16(23)9-6-12-4-7-13(8-5-12)26(20,24)25/h4-9,14,18H,10H2,1-3H3,(H2,20,24,25)/b9-6+/t14-,18-/m1/s1

>  <IUPAC Name>  (1) 
4-[(E)-3-oxo-3-[(2S,4R)-3,3,9-trimethyl-7,8-diazatricyclo[4.3.0.02,4]nona-1(6),8-dien-7-yl]prop-1-enyl]benzenesulfonamide

$$$$
