
     RDKit          3D

 18 17  0  0  0  0  0  0  0  0999 V2000
    1.3034   -0.5323   -1.0570 C   0  0  0  0  0  0  0  0  0  0  0  0
    0.6469   -0.8447    0.2460 C   0  0  0  0  0  0  0  0  0  0  0  0
   -0.6353   -0.0822    0.4708 C   0  0  0  0  0  0  0  0  0  0  0  0
   -1.6038   -0.4358   -0.6380 C   0  0  0  0  0  0  0  0  0  0  0  0
   -0.4426    1.3831    0.6297 C   0  0  0  0  0  0  0  0  0  0  0  0
    1.7973   -0.5329    1.6323 S   0  0  0  0  0  0  0  0  0  0  0  0
    0.5200   -0.1664   -1.7635 H   0  0  0  0  0  0  0  0  0  0  0  0
    1.8007   -1.4241   -1.4565 H   0  0  0  0  0  0  0  0  0  0  0  0
    2.0889    0.2334   -0.8625 H   0  0  0  0  0  0  0  0  0  0  0  0
    0.4597   -1.9374    0.2830 H   0  0  0  0  0  0  0  0  0  0  0  0
   -1.0562   -0.4455    1.4453 H   0  0  0  0  0  0  0  0  0  0  0  0
   -2.5928   -0.6489   -0.2295 H   0  0  0  0  0  0  0  0  0  0  0  0
   -1.6065    0.4323   -1.3490 H   0  0  0  0  0  0  0  0  0  0  0  0
   -1.2320   -1.2952   -1.2529 H   0  0  0  0  0  0  0  0  0  0  0  0
    0.5771    1.7589    0.4197 H   0  0  0  0  0  0  0  0  0  0  0  0
   -0.6881    1.7790    1.6513 H   0  0  0  0  0  0  0  0  0  0  0  0
   -1.1269    1.9094   -0.0648 H   0  0  0  0  0  0  0  0  0  0  0  0
    1.7900    0.8493    1.8956 H   0  0  0  0  0  0  0  0  0  0  0  0
  1  2  1  0
  2  3  1  0
  3  4  1  0
  3  5  1  0
  2  6  1  0
  1  7  1  0
  1  8  1  0
  1  9  1  0
  2 10  1  0
  3 11  1  0
  4 12  1  0
  4 13  1  0
  4 14  1  0
  5 15  1  0
  5 16  1  0
  5 17  1  0
  6 18  1  0
M  END
>  <Ligand ID>  (1) 
LIG0002054

>  <Ligand>  (1) 
3-Methyl-2-butanethiol

>  <SMILES>  (1) 
CC(C(C)C)S

>  <CID>  (1) 
519823.0

>  <ChEMBL ID>  (1) 
nan

>  <InChiKey>  (1) 
BFLXFRNPNMTTAA-UHFFFAOYSA-N

>  <InChi>  (1) 
InChI=1S/C5H12S/c1-4(2)5(3)6/h4-6H,1-3H3

>  <IUPAC Name>  (1) 
3-methylbutane-2-thiol

$$$$
