
     RDKit          3D

 58 62  0  0  0  0  0  0  0  0999 V2000
    9.9545   -0.7723   -1.2859 C   0  0  0  0  0  0  0  0  0  0  0  0
    8.8904   -0.1345   -1.9512 O   0  0  0  0  0  0  0  0  0  0  0  0
    7.6429   -0.1382   -1.3222 C   0  0  0  0  0  0  0  0  0  0  0  0
    7.4236   -0.7227   -0.0929 C   0  0  0  0  0  0  0  0  0  0  0  0
    6.1595   -0.7103    0.5039 C   0  0  0  0  0  0  0  0  0  0  0  0
    5.0708   -0.1071   -0.1172 C   0  0  0  0  0  0  0  0  0  0  0  0
    5.3010    0.4733   -1.3394 C   0  0  0  0  0  0  0  0  0  0  0  0
    6.5475    0.4723   -1.9489 C   0  0  0  0  0  0  0  0  0  0  0  0
    3.7872   -0.1653    0.5440 C   0  0  0  0  0  0  0  0  0  0  0  0
    3.7584   -0.8154    1.7445 N   0  0  0  0  0  0  0  0  0  0  0  0
    2.6280   -0.9742    2.4609 C   0  0  0  0  0  0  0  0  0  0  0  0
    2.6287   -1.6440    3.6560 C   0  0  0  0  0  0  0  0  0  0  0  0
    1.4475   -1.8040    4.3639 C   0  0  0  0  0  0  0  0  0  0  0  0
    0.2843   -1.2855    3.8609 C   0  0  0  0  0  0  0  0  0  0  0  0
    0.3040   -0.6182    2.6653 C   0  0  0  0  0  0  0  0  0  0  0  0
    1.4792   -0.4444    1.9284 C   0  0  0  0  0  0  0  0  0  0  0  0
    1.4559    0.2346    0.6981 C   0  0  0  0  0  0  0  0  0  0  0  0
    2.6224    0.3646    0.0189 C   0  0  0  0  0  0  0  0  0  0  0  0
    0.1507    0.7249    0.3009 C   0  0  0  0  0  0  0  0  0  0  0  0
   -0.2884    1.7711    0.8853 O   0  0  0  0  0  0  0  0  0  0  0  0
   -0.6870    0.1393   -0.6779 N   0  0  0  0  0  0  0  0  0  0  0  0
   -1.9486    0.7739   -0.8787 C   0  0  0  0  0  0  0  0  0  0  0  0
   -2.2942    1.6345   -1.8469 C   0  0  0  0  0  0  0  0  0  0  0  0
   -3.5659    2.2367   -1.8518 C   0  0  0  0  0  0  0  0  0  0  0  0
   -4.4979    1.9751   -0.8758 C   0  0  0  0  0  0  0  0  0  0  0  0
   -4.1241    1.0679    0.1361 C   0  0  0  0  0  0  0  0  0  0  0  0
   -2.8870    0.4813    0.1383 C   0  0  0  0  0  0  0  0  0  0  0  0
   -6.0507    2.7030   -0.7290 S   0  0  0  0  0  0  0  0  0  0  0  0
   -6.4030    2.8056    0.7673 O   0  0  0  0  0  0  0  0  0  0  0  0
   -5.9916    4.1065   -1.3016 O   0  0  0  0  0  0  0  0  0  0  0  0
   -7.2705    1.7933   -1.5082 N   0  0  0  0  0  0  0  0  0  0  0  0
   -7.6589    0.4842   -1.1956 C   0  0  0  0  0  0  0  0  0  0  0  0
   -8.6457   -0.1727   -1.8324 N   0  0  0  0  0  0  0  0  0  0  0  0
   -8.9875   -1.4457   -1.4912 C   0  0  0  0  0  0  0  0  0  0  0  0
   -8.3240   -2.1017   -0.4737 C   0  0  0  0  0  0  0  0  0  0  0  0
   -7.2969   -1.4013    0.1780 C   0  0  0  0  0  0  0  0  0  0  0  0
   -7.0266   -0.1639   -0.2152 N   0  0  0  0  0  0  0  0  0  0  0  0
   10.2071   -0.2751   -0.3384 H   0  0  0  0  0  0  0  0  0  0  0  0
   10.8610   -0.8162   -1.9255 H   0  0  0  0  0  0  0  0  0  0  0  0
    9.6753   -1.8283   -1.0663 H   0  0  0  0  0  0  0  0  0  0  0  0
    8.2470   -1.2145    0.4507 H   0  0  0  0  0  0  0  0  0  0  0  0
    6.0969   -1.1883    1.4613 H   0  0  0  0  0  0  0  0  0  0  0  0
    4.4485    0.9427   -1.8208 H   0  0  0  0  0  0  0  0  0  0  0  0
    6.6966    0.9342   -2.9108 H   0  0  0  0  0  0  0  0  0  0  0  0
    3.5632   -2.0504    4.0384 H   0  0  0  0  0  0  0  0  0  0  0  0
    1.4596   -2.3314    5.2927 H   0  0  0  0  0  0  0  0  0  0  0  0
   -0.6701   -1.3792    4.3778 H   0  0  0  0  0  0  0  0  0  0  0  0
   -0.6238   -0.2140    2.2818 H   0  0  0  0  0  0  0  0  0  0  0  0
    2.6170    0.8860   -0.9204 H   0  0  0  0  0  0  0  0  0  0  0  0
   -0.3643   -0.6993   -1.1947 H   0  0  0  0  0  0  0  0  0  0  0  0
   -1.5723    1.8579   -2.6362 H   0  0  0  0  0  0  0  0  0  0  0  0
   -3.8560    2.9333   -2.6342 H   0  0  0  0  0  0  0  0  0  0  0  0
   -4.7889    0.8151    0.9509 H   0  0  0  0  0  0  0  0  0  0  0  0
   -2.6527   -0.2075    0.9324 H   0  0  0  0  0  0  0  0  0  0  0  0
   -7.7850    2.2651   -2.2978 H   0  0  0  0  0  0  0  0  0  0  0  0
   -9.7817   -1.9862   -1.9865 H   0  0  0  0  0  0  0  0  0  0  0  0
   -8.5724   -3.1276   -0.1707 H   0  0  0  0  0  0  0  0  0  0  0  0
   -6.7929   -1.9369    0.9750 H   0  0  0  0  0  0  0  0  0  0  0  0
  1  2  1  0
  2  3  1  0
  3  4  2  0
  4  5  1  0
  5  6  2  0
  6  7  1  0
  7  8  2  0
  6  9  1  0
  9 10  2  0
 10 11  1  0
 11 12  2  0
 12 13  1  0
 13 14  2  0
 14 15  1  0
 15 16  2  0
 16 17  1  0
 17 18  2  0
 17 19  1  0
 19 20  2  0
 19 21  1  0
 21 22  1  0
 22 23  2  0
 23 24  1  0
 24 25  2  0
 25 26  1  0
 26 27  2  0
 25 28  1  0
 28 29  2  0
 28 30  2  0
 28 31  1  0
 31 32  1  0
 32 33  2  0
 33 34  1  0
 34 35  2  0
 35 36  1  0
 36 37  2  0
  8  3  1  0
 18  9  1  0
 27 22  1  0
 37 32  1  0
 16 11  1  0
  1 38  1  0
  1 39  1  0
  1 40  1  0
  4 41  1  0
  5 42  1  0
  7 43  1  0
  8 44  1  0
 12 45  1  0
 13 46  1  0
 14 47  1  0
 15 48  1  0
 18 49  1  0
 21 50  1  0
 23 51  1  0
 24 52  1  0
 26 53  1  0
 27 54  1  0
 31 55  1  0
 34 56  1  0
 35 57  1  0
 36 58  1  0
M  END
>  <Ligand ID>  (1) 
LIG0004801

>  <Ligand>  (1) 
MLS-0295687.0001

>  <SMILES>  (1) 
COc1ccc(cc1)c1nc2ccccc2c(c1)C(=O)Nc1ccc(cc1)S(=O)(=O)Nc1ncccn1

>  <CID>  (1) 
2330731.0

>  <ChEMBL ID>  (1) 
nan

>  <InChiKey>  (1) 
KZUBDNGKPYBRMI-UHFFFAOYSA-N

>  <InChi>  (1) 
InChI=1S/C27H21N5O4S/c1-36-20-11-7-18(8-12-20)25-17-23(22-5-2-3-6-24(22)31-25)26(33)30-19-9-13-21(14-10-19)37(34,35)32-27-28-15-4-16-29-27/h2-17H,1H3,(H,30,33)(H,28,29,32)

>  <IUPAC Name>  (1) 
2-(4-methoxyphenyl)-N-[4-(pyrimidin-2-ylsulfamoyl)phenyl]quinoline-4-carboxamide

$$$$
