
     RDKit          3D

 26 28  0  0  0  0  0  0  0  0999 V2000
    3.3086    0.8044    2.2111 F   0  0  0  0  0  0  0  0  0  0  0  0
    2.8390    0.3493    1.0123 C   0  0  0  0  0  0  0  0  0  0  0  0
    3.7278    0.1109   -0.0168 C   0  0  0  0  0  0  0  0  0  0  0  0
    3.2211   -0.3543   -1.2327 C   0  0  0  0  0  0  0  0  0  0  0  0
    1.8684   -0.5704   -1.4020 C   0  0  0  0  0  0  0  0  0  0  0  0
    0.9709   -0.3355   -0.3796 C   0  0  0  0  0  0  0  0  0  0  0  0
    1.4893    0.1236    0.8128 C   0  0  0  0  0  0  0  0  0  0  0  0
    0.3804    0.3121    1.7414 C   0  0  0  0  0  0  0  0  0  0  0  0
    0.4238    0.7194    2.9401 O   0  0  0  0  0  0  0  0  0  0  0  0
   -0.8120   -0.0499    1.0580 N   0  0  0  0  0  0  0  0  0  0  0  0
   -0.4982   -0.4918   -0.3026 C   0  0  0  0  0  0  0  0  0  0  0  0
   -1.2542    0.3172   -1.3269 C   0  0  0  0  0  0  0  0  0  0  0  0
   -2.4377    0.9371   -0.7526 N   0  0  0  0  0  0  0  0  0  0  0  0
   -3.0406   -0.0211    0.1424 C   0  0  0  0  0  0  0  0  0  0  0  0
   -2.2162   -0.0657    1.4162 C   0  0  0  0  0  0  0  0  0  0  0  0
    4.7884    0.2837    0.1266 H   0  0  0  0  0  0  0  0  0  0  0  0
    3.9177   -0.5422   -2.0428 H   0  0  0  0  0  0  0  0  0  0  0  0
    1.5155   -0.9339   -2.3673 H   0  0  0  0  0  0  0  0  0  0  0  0
   -0.7994   -1.5680   -0.3262 H   0  0  0  0  0  0  0  0  0  0  0  0
   -0.6060    1.0681   -1.8040 H   0  0  0  0  0  0  0  0  0  0  0  0
   -1.5987   -0.3732   -2.1270 H   0  0  0  0  0  0  0  0  0  0  0  0
   -3.0899    1.1145   -1.5620 H   0  0  0  0  0  0  0  0  0  0  0  0
   -4.0419    0.3817    0.4099 H   0  0  0  0  0  0  0  0  0  0  0  0
   -3.0753   -1.0491   -0.2668 H   0  0  0  0  0  0  0  0  0  0  0  0
   -2.4557   -0.9736    2.0074 H   0  0  0  0  0  0  0  0  0  0  0  0
   -2.5253    0.8067    2.0311 H   0  0  0  0  0  0  0  0  0  0  0  0
  1  2  1  0
  2  3  2  0
  3  4  1  0
  4  5  2  0
  5  6  1  0
  6  7  2  0
  7  8  1  0
  8  9  2  0
  8 10  1  0
 10 11  1  0
 11 12  1  0
 12 13  1  0
 13 14  1  0
 14 15  1  0
  7  2  1  0
 15 10  1  0
 11  6  1  0
  3 16  1  0
  4 17  1  0
  5 18  1  0
 11 19  1  0
 12 20  1  0
 12 21  1  0
 13 22  1  0
 14 23  1  0
 14 24  1  0
 15 25  1  0
 15 26  1  0
M  END
>  <Ligand ID>  (1) 
LIG0003223

>  <Ligand>  (1) 
CHEMBL223469

>  <SMILES>  (1) 
Fc1cccc2c1C(=O)N1C2CNCC1

>  <CID>  (1) 
16115148.0

>  <ChEMBL ID>  (1) 
nan

>  <InChiKey>  (1) 
JKMFEDKMWLQCNE-UHFFFAOYSA-N

>  <InChi>  (1) 
InChI=1S/C11H11FN2O/c12-8-3-1-2-7-9-6-13-4-5-14(9)11(15)10(7)8/h1-3,9,13H,4-6H2

>  <IUPAC Name>  (1) 
7-fluoro-2,3,4,10b-tetrahydro-1H-pyrazino[1,2-b]isoindol-6-one

$$$$
