
     RDKit          3D

 36 37  0  0  0  0  0  0  0  0999 V2000
    4.5062   -0.3161   -0.3173 C   0  0  0  0  0  0  0  0  0  0  0  0
    3.0923   -0.0696   -0.1293 N   0  0  0  0  0  0  0  0  0  0  0  0
    2.3681    0.0057   -1.3620 C   0  0  0  0  0  0  0  0  0  0  0  0
    0.8887    0.2661   -1.0948 C   0  0  0  0  0  0  0  0  0  0  0  0
    0.3360   -0.8331   -0.2783 C   0  0  0  0  0  0  0  0  0  0  0  0
    0.9212   -1.9622    0.2314 C   0  0  0  0  0  0  0  0  0  0  0  0
    0.0078   -2.6750    0.9193 N   0  0  0  0  0  0  0  0  0  0  0  0
   -1.1830   -2.0306    0.8730 C   0  0  0  0  0  0  0  0  0  0  0  0
   -0.9970   -0.8824    0.1317 C   0  0  0  0  0  0  0  0  0  0  0  0
   -2.0871   -0.0629   -0.0482 C   0  0  0  0  0  0  0  0  0  0  0  0
   -3.3386   -0.3389    0.4744 C   0  0  0  0  0  0  0  0  0  0  0  0
   -3.5035   -1.5072    1.2217 C   0  0  0  0  0  0  0  0  0  0  0  0
   -2.4211   -2.3449    1.4148 C   0  0  0  0  0  0  0  0  0  0  0  0
   -1.9305    1.0828   -0.7795 O   0  0  0  0  0  0  0  0  0  0  0  0
   -3.2068    2.1820   -1.0740 P   0  0  0  0  0  0  0  0  0  0  0  0
   -4.3452    1.5112   -1.8443 O   0  0  0  0  0  0  0  0  0  0  0  0
   -3.8151    2.7798    0.3839 O   0  0  0  0  0  0  0  0  0  0  0  0
   -2.7038    3.4656   -2.0495 O   0  0  0  0  0  0  0  0  0  0  0  0
    2.8231    1.0277    0.7520 C   0  0  0  0  0  0  0  0  0  0  0  0
    4.6215   -0.7500   -1.3369 H   0  0  0  0  0  0  0  0  0  0  0  0
    4.8148   -1.0710    0.4348 H   0  0  0  0  0  0  0  0  0  0  0  0
    5.1432    0.5679   -0.2288 H   0  0  0  0  0  0  0  0  0  0  0  0
    2.7555    0.7850   -2.0518 H   0  0  0  0  0  0  0  0  0  0  0  0
    2.4657   -0.9488   -1.9126 H   0  0  0  0  0  0  0  0  0  0  0  0
    0.3409    0.4367   -2.0263 H   0  0  0  0  0  0  0  0  0  0  0  0
    0.7947    1.2161   -0.5088 H   0  0  0  0  0  0  0  0  0  0  0  0
    1.9677   -2.2257    0.0906 H   0  0  0  0  0  0  0  0  0  0  0  0
    0.1495   -3.5775    1.4198 H   0  0  0  0  0  0  0  0  0  0  0  0
   -4.1862    0.3271    0.3172 H   0  0  0  0  0  0  0  0  0  0  0  0
   -4.4902   -1.7470    1.6471 H   0  0  0  0  0  0  0  0  0  0  0  0
   -2.5831   -3.2307    1.9919 H   0  0  0  0  0  0  0  0  0  0  0  0
   -3.0961    2.8092    1.0725 H   0  0  0  0  0  0  0  0  0  0  0  0
   -2.3297    4.1904   -1.5040 H   0  0  0  0  0  0  0  0  0  0  0  0
    1.8715    0.8357    1.2981 H   0  0  0  0  0  0  0  0  0  0  0  0
    2.7062    1.9376    0.1332 H   0  0  0  0  0  0  0  0  0  0  0  0
    3.6424    1.1470    1.4899 H   0  0  0  0  0  0  0  0  0  0  0  0
  1  2  1  0
  2  3  1  0
  3  4  1  0
  4  5  1  0
  5  6  2  0
  6  7  1  0
  7  8  1  0
  8  9  2  0
  9 10  1  0
 10 11  2  0
 11 12  1  0
 12 13  2  0
 10 14  1  0
 14 15  1  0
 15 16  2  0
 15 17  1  0
 15 18  1  0
  2 19  1  0
  9  5  1  0
 13  8  1  0
  1 20  1  0
  1 21  1  0
  1 22  1  0
  3 23  1  0
  3 24  1  0
  4 25  1  0
  4 26  1  0
  6 27  1  0
  7 28  1  0
 11 29  1  0
 12 30  1  0
 13 31  1  0
 17 32  1  0
 18 33  1  0
 19 34  1  0
 19 35  1  0
 19 36  1  0
M  END
>  <Ligand ID>  (1) 
LIG0004539

>  <Ligand>  (1) 
Psilocybin

>  <SMILES>  (1) 
CN(CCc1c[nH]c2c1c(ccc2)OP(=O)(O)O)C

>  <CID>  (1) 
10624.0

>  <ChEMBL ID>  (1) 
nan

>  <InChiKey>  (1) 
QVDSEJDULKLHCG-UHFFFAOYSA-N

>  <InChi>  (1) 
InChI=1S/C12H17N2O4P/c1-14(2)7-6-9-8-13-10-4-3-5-11(12(9)10)18-19(15,16)17/h3-5,8,13H,6-7H2,1-2H3,(H2,15,16,17)

>  <IUPAC Name>  (1) 
[3-[2-(dimethylamino)ethyl]-1H-indol-4-yl] dihydrogen phosphate

$$$$
