
     RDKit          3D

 43 44  0  0  0  0  0  0  0  0999 V2000
    0.8965   -0.1339   -0.7881 O   0  0  0  0  0  0  0  0  0  0  0  0
    0.7312    1.1095   -0.8648 C   0  0  0  0  0  0  0  0  0  0  0  0
    1.7196    2.1141   -0.4305 C   0  0  0  0  0  0  0  0  0  0  0  0
    2.9943    1.5539    0.0957 C   0  0  0  0  0  0  0  0  0  0  0  0
    2.8426    0.6879    1.2730 C   0  0  0  0  0  0  0  0  0  0  0  0
    2.2710    0.9615    2.4908 C   0  0  0  0  0  0  0  0  0  0  0  0
    2.2514    0.0075    3.4183 C   0  0  0  0  0  0  0  0  0  0  0  0
    2.8086   -1.2156    3.1100 C   0  0  0  0  0  0  0  0  0  0  0  0
    3.3973   -0.9951    1.3937 S   0  0  0  0  0  0  0  0  0  0  0  0
    3.8817    2.7010    0.5002 C   0  0  0  0  0  0  0  0  0  0  0  0
   -0.4958    1.5974   -1.4104 N   0  0  0  0  0  0  0  0  0  0  0  0
   -1.5212    0.7407   -1.8642 C   0  0  0  0  0  0  0  0  0  0  0  0
   -1.4066   -0.5643   -1.7982 N   0  0  0  0  0  0  0  0  0  0  0  0
   -2.4765   -1.3993   -2.2743 C   0  0  0  0  0  0  0  0  0  0  0  0
   -2.6673   -2.6728   -1.5339 C   0  0  0  0  0  0  0  0  0  0  0  0
   -3.0011   -2.5610   -0.0907 C   0  0  0  0  0  0  0  0  0  0  0  0
   -2.0331   -1.8782    0.7604 C   0  0  0  0  0  0  0  0  0  0  0  0
   -0.9836   -2.5410    1.4076 C   0  0  0  0  0  0  0  0  0  0  0  0
   -0.3029   -1.6100    2.0990 N   0  0  0  0  0  0  0  0  0  0  0  0
   -0.8579   -0.4046    1.9272 C   0  0  0  0  0  0  0  0  0  0  0  0
   -1.9091   -0.5865    1.1101 N   0  0  0  0  0  0  0  0  0  0  0  0
   -2.7147    1.3162   -2.4098 N   0  0  0  0  0  0  0  0  0  0  0  0
    1.2484    2.7943    0.3151 H   0  0  0  0  0  0  0  0  0  0  0  0
    2.0048    2.8068   -1.2740 H   0  0  0  0  0  0  0  0  0  0  0  0
    3.5286    1.0035   -0.7249 H   0  0  0  0  0  0  0  0  0  0  0  0
    1.8406    1.9779    2.6629 H   0  0  0  0  0  0  0  0  0  0  0  0
    1.8071    0.1501    4.4294 H   0  0  0  0  0  0  0  0  0  0  0  0
    2.9156   -2.1221    3.6683 H   0  0  0  0  0  0  0  0  0  0  0  0
    3.7951    2.9123    1.5942 H   0  0  0  0  0  0  0  0  0  0  0  0
    3.6145    3.6288   -0.0442 H   0  0  0  0  0  0  0  0  0  0  0  0
    4.9491    2.4970    0.2464 H   0  0  0  0  0  0  0  0  0  0  0  0
   -0.6591    2.6429   -1.4846 H   0  0  0  0  0  0  0  0  0  0  0  0
   -2.2643   -1.6215   -3.3581 H   0  0  0  0  0  0  0  0  0  0  0  0
   -3.4134   -0.7992   -2.3025 H   0  0  0  0  0  0  0  0  0  0  0  0
   -3.5390   -3.2102   -2.0152 H   0  0  0  0  0  0  0  0  0  0  0  0
   -1.8123   -3.3860   -1.7097 H   0  0  0  0  0  0  0  0  0  0  0  0
   -3.2198   -3.6115    0.2636 H   0  0  0  0  0  0  0  0  0  0  0  0
   -4.0025   -2.0465   -0.0025 H   0  0  0  0  0  0  0  0  0  0  0  0
   -0.7639   -3.6016    1.3592 H   0  0  0  0  0  0  0  0  0  0  0  0
   -0.5911    0.5662    2.3198 H   0  0  0  0  0  0  0  0  0  0  0  0
   -2.5588    0.1579    0.7765 H   0  0  0  0  0  0  0  0  0  0  0  0
   -3.2783    2.0208   -1.8829 H   0  0  0  0  0  0  0  0  0  0  0  0
   -3.0259    1.0127   -3.3744 H   0  0  0  0  0  0  0  0  0  0  0  0
  1  2  2  0
  2  3  1  0
  3  4  1  0
  4  5  1  0
  5  6  2  0
  6  7  1  0
  7  8  2  0
  8  9  1  0
  4 10  1  0
  2 11  1  0
 11 12  1  0
 12 13  2  3
 13 14  1  0
 14 15  1  0
 15 16  1  0
 16 17  1  0
 17 18  2  0
 18 19  1  0
 19 20  2  0
 20 21  1  0
 12 22  1  0
  9  5  1  0
 21 17  1  0
  3 23  1  0
  3 24  1  0
  4 25  1  0
  6 26  1  0
  7 27  1  0
  8 28  1  0
 10 29  1  0
 10 30  1  0
 10 31  1  0
 11 32  1  0
 14 33  1  0
 14 34  1  0
 15 35  1  0
 15 36  1  0
 16 37  1  0
 16 38  1  0
 18 39  1  0
 20 40  1  0
 21 41  1  0
 22 42  1  0
 22 43  1  0
M  END
>  <Ligand ID>  (1) 
LIG0001547

>  <Ligand>  (1) 
CHEMBL502339

>  <SMILES>  (1) 
O=C(CC(c1cccs1)C)NC(=NCCCc1cnc[nH]1)N

>  <CID>  (1) 
25149708.0

>  <ChEMBL ID>  (1) 
nan

>  <InChiKey>  (1) 
MCAARVUCNCRTPF-UHFFFAOYSA-N

>  <InChi>  (1) 
InChI=1S/C15H21N5OS/c1-11(13-5-3-7-22-13)8-14(21)20-15(16)18-6-2-4-12-9-17-10-19-12/h3,5,7,9-11H,2,4,6,8H2,1H3,(H,17,19)(H3,16,18,20,21)

>  <IUPAC Name>  (1) 
N-[N'-[3-(1H-imidazol-5-yl)propyl]carbamimidoyl]-3-thiophen-2-ylbutanamide

$$$$
