
     RDKit          3D

  9  8  0  0  0  0  0  0  0  0999 V2000
    0.8794   -0.1706   -0.0308 C   0  0  0  0  0  0  0  0  0  0  0  0
   -0.4697    0.5053   -0.0143 C   0  0  0  0  0  0  0  0  0  0  0  0
   -1.4242   -0.4152   -0.3856 O   0  0  0  0  0  0  0  0  0  0  0  0
    0.9013   -0.8803    0.8191 H   0  0  0  0  0  0  0  0  0  0  0  0
    1.7135    0.5659    0.0113 H   0  0  0  0  0  0  0  0  0  0  0  0
    1.0365   -0.7717   -0.9555 H   0  0  0  0  0  0  0  0  0  0  0  0
   -0.6011    0.9341    0.9860 H   0  0  0  0  0  0  0  0  0  0  0  0
   -0.4858    1.3496   -0.7289 H   0  0  0  0  0  0  0  0  0  0  0  0
   -1.5499   -1.1171    0.2989 H   0  0  0  0  0  0  0  0  0  0  0  0
  1  2  1  0
  2  3  1  0
  1  4  1  0
  1  5  1  0
  1  6  1  0
  2  7  1  0
  2  8  1  0
  3  9  1  0
M  END
>  <Ligand ID>  (1) 
LIG0000558

>  <Ligand>  (1) 
Ethanol

>  <SMILES>  (1) 
CCO

>  <CID>  (1) 
702.0

>  <ChEMBL ID>  (1) 
nan

>  <InChiKey>  (1) 
LFQSCWFLJHTTHZ-UHFFFAOYSA-N

>  <InChi>  (1) 
InChI=1S/C2H6O/c1-2-3/h3H,2H2,1H3

>  <IUPAC Name>  (1) 
ethanol

$$$$
