
     RDKit          3D

 29 31  0  0  0  0  0  0  0  0999 V2000
    3.0932    2.9422    1.3139 O   0  0  0  0  0  0  0  0  0  0  0  0
    2.9285    1.7329    0.9756 C   0  0  0  0  0  0  0  0  0  0  0  0
    4.0572    0.9492    0.8559 C   0  0  0  0  0  0  0  0  0  0  0  0
    3.8600   -0.3655    0.4866 C   0  0  0  0  0  0  0  0  0  0  0  0
    2.5790   -0.8146    0.2626 C   0  0  0  0  0  0  0  0  0  0  0  0
    1.4576    0.0036    0.3920 C   0  0  0  0  0  0  0  0  0  0  0  0
    1.6800    1.2621    0.7483 N   0  0  0  0  0  0  0  0  0  0  0  0
    0.3138   -0.7147    0.1076 C   0  0  0  0  0  0  0  0  0  0  0  0
    0.7877   -1.9926   -0.1967 C   0  0  0  0  0  0  0  0  0  0  0  0
    2.1138   -2.0174   -0.0970 N   0  0  0  0  0  0  0  0  0  0  0  0
   -1.0830   -0.2849    0.1045 C   0  0  0  0  0  0  0  0  0  0  0  0
   -1.9763   -1.2138   -0.1972 C   0  0  0  0  0  0  0  0  0  0  0  0
   -3.4419   -0.9900   -0.2571 C   0  0  0  0  0  0  0  0  0  0  0  0
   -3.6319    0.3846   -0.7093 N   0  0  0  0  0  0  0  0  0  0  0  0
   -3.0265    1.2959    0.2173 C   0  0  0  0  0  0  0  0  0  0  0  0
   -1.5484    1.0643    0.3992 C   0  0  0  0  0  0  0  0  0  0  0  0
    5.0570    1.3244    1.0373 H   0  0  0  0  0  0  0  0  0  0  0  0
    4.7367   -0.9923    0.3888 H   0  0  0  0  0  0  0  0  0  0  0  0
    0.9112    1.9289    0.8677 H   0  0  0  0  0  0  0  0  0  0  0  0
    0.2126   -2.8743   -0.4791 H   0  0  0  0  0  0  0  0  0  0  0  0
    2.7314   -2.8406   -0.2681 H   0  0  0  0  0  0  0  0  0  0  0  0
   -1.6688   -2.2504   -0.4307 H   0  0  0  0  0  0  0  0  0  0  0  0
   -3.9300   -1.6678   -0.9866 H   0  0  0  0  0  0  0  0  0  0  0  0
   -3.9183   -1.0542    0.7425 H   0  0  0  0  0  0  0  0  0  0  0  0
   -3.2416    0.4557   -1.6536 H   0  0  0  0  0  0  0  0  0  0  0  0
   -3.2153    2.3296   -0.1522 H   0  0  0  0  0  0  0  0  0  0  0  0
   -3.5361    1.2375    1.2015 H   0  0  0  0  0  0  0  0  0  0  0  0
   -1.0334    1.7489   -0.3332 H   0  0  0  0  0  0  0  0  0  0  0  0
   -1.2680    1.4130    1.4092 H   0  0  0  0  0  0  0  0  0  0  0  0
  1  2  2  0
  2  3  1  0
  3  4  2  0
  4  5  1  0
  5  6  2  0
  6  7  1  0
  6  8  1  0
  8  9  2  0
  9 10  1  0
  8 11  1  0
 11 12  2  0
 12 13  1  0
 13 14  1  0
 14 15  1  0
 15 16  1  0
  7  2  1  0
 16 11  1  0
 10  5  1  0
  3 17  1  0
  4 18  1  0
  7 19  1  0
  9 20  1  0
 10 21  1  0
 12 22  1  0
 13 23  1  0
 13 24  1  0
 14 25  1  0
 15 26  1  0
 15 27  1  0
 16 28  1  0
 16 29  1  0
M  END
>  <Ligand ID>  (1) 
LIG0003234

>  <Ligand>  (1) 
CP 93129

>  <SMILES>  (1) 
O=c1ccc2c([nH]1)c(c[nH]2)C1=CCNCC1

>  <CID>  (1) 
124007.0

>  <ChEMBL ID>  (1) 
nan

>  <InChiKey>  (1) 
PJYVGMRFPFNZCT-UHFFFAOYSA-N

>  <InChi>  (1) 
InChI=1S/C12H13N3O/c16-11-2-1-10-12(15-11)9(7-14-10)8-3-5-13-6-4-8/h1-3,7,13-14H,4-6H2,(H,15,16)

>  <IUPAC Name>  (1) 
3-(1,2,3,6-tetrahydropyridin-4-yl)-1,4-dihydropyrrolo[3,2-b]pyridin-5-one

$$$$
