
     RDKit          3D

 46 50  0  0  0  0  0  0  0  0999 V2000
    1.3542    2.1522   -2.0323 C   0  0  0  0  0  0  0  0  0  0  0  0
    1.4099    1.2414   -0.8446 C   0  0  0  0  0  0  0  0  0  0  0  0
    0.3581    0.6430   -0.2768 N   0  0  0  0  0  0  0  0  0  0  0  0
    0.6855   -0.1077    0.7571 N   0  0  0  0  0  0  0  0  0  0  0  0
    2.0417    0.0108    0.8688 C   0  0  0  0  0  0  0  0  0  0  0  0
    2.5056    0.8471   -0.1211 C   0  0  0  0  0  0  0  0  0  0  0  0
    3.9652    1.0149   -0.0516 C   0  0  1  0  0  0  0  0  0  0  0  0
    4.3894    0.2845    1.2009 C   0  0  1  0  0  0  0  0  0  0  0  0
    3.1841   -0.4586    1.6975 C   0  0  0  0  0  0  0  0  0  0  0  0
    4.8849   -0.1304   -0.1379 C   0  0  0  0  0  0  0  0  0  0  0  0
    4.4342   -1.4475   -0.7203 C   0  0  0  0  0  0  0  0  0  0  0  0
    6.3460    0.2012   -0.4047 C   0  0  0  0  0  0  0  0  0  0  0  0
   -0.1419   -0.8888    1.6046 C   0  0  0  0  0  0  0  0  0  0  0  0
    0.4174   -1.5296    2.5419 O   0  0  0  0  0  0  0  0  0  0  0  0
   -1.5790   -1.0093    1.4797 C   0  0  0  0  0  0  0  0  0  0  0  0
   -2.3402   -0.4363    0.5908 C   0  0  0  0  0  0  0  0  0  0  0  0
   -3.7917   -0.5914    0.5077 C   0  0  0  0  0  0  0  0  0  0  0  0
   -4.5233   -1.3723    1.3738 C   0  0  0  0  0  0  0  0  0  0  0  0
   -5.9095   -1.5029    1.2718 C   0  0  0  0  0  0  0  0  0  0  0  0
   -6.6013   -0.8399    0.2802 C   0  0  0  0  0  0  0  0  0  0  0  0
   -5.8880   -0.0533   -0.5967 C   0  0  0  0  0  0  0  0  0  0  0  0
   -4.5200    0.0646   -0.4819 C   0  0  0  0  0  0  0  0  0  0  0  0
   -4.1242    0.9228   -1.5134 C   0  0  0  0  0  0  0  0  0  0  0  0
   -5.2433    1.3043   -2.2248 C   0  0  0  0  0  0  0  0  0  0  0  0
   -6.2906    0.6914   -1.6374 N   0  0  0  0  0  0  0  0  0  0  0  0
    2.1375    1.9029   -2.7684 H   0  0  0  0  0  0  0  0  0  0  0  0
    1.3612    3.2264   -1.7369 H   0  0  0  0  0  0  0  0  0  0  0  0
    0.3843    1.9936   -2.5638 H   0  0  0  0  0  0  0  0  0  0  0  0
    4.3975    2.0446   -0.1535 H   0  0  0  0  0  0  0  0  0  0  0  0
    5.0321    0.8180    1.9182 H   0  0  0  0  0  0  0  0  0  0  0  0
    3.0419   -0.2653    2.7815 H   0  0  0  0  0  0  0  0  0  0  0  0
    3.3034   -1.5689    1.6089 H   0  0  0  0  0  0  0  0  0  0  0  0
    4.5108   -2.2537    0.0603 H   0  0  0  0  0  0  0  0  0  0  0  0
    3.4220   -1.3989   -1.1801 H   0  0  0  0  0  0  0  0  0  0  0  0
    5.1441   -1.7879   -1.5230 H   0  0  0  0  0  0  0  0  0  0  0  0
    6.6962   -0.2380   -1.3642 H   0  0  0  0  0  0  0  0  0  0  0  0
    6.5032    1.2933   -0.4079 H   0  0  0  0  0  0  0  0  0  0  0  0
    6.9198   -0.3119    0.4169 H   0  0  0  0  0  0  0  0  0  0  0  0
   -2.0932   -1.6529    2.2109 H   0  0  0  0  0  0  0  0  0  0  0  0
   -1.8853    0.1988   -0.1409 H   0  0  0  0  0  0  0  0  0  0  0  0
   -4.0653   -1.9226    2.1741 H   0  0  0  0  0  0  0  0  0  0  0  0
   -6.4589   -2.1218    1.9641 H   0  0  0  0  0  0  0  0  0  0  0  0
   -7.6676   -0.9167    0.1713 H   0  0  0  0  0  0  0  0  0  0  0  0
   -3.0990    1.2182   -1.6948 H   0  0  0  0  0  0  0  0  0  0  0  0
   -5.3106    1.9490   -3.0708 H   0  0  0  0  0  0  0  0  0  0  0  0
   -7.2972    0.7835   -1.9529 H   0  0  0  0  0  0  0  0  0  0  0  0
  1  2  1  0
  2  3  2  0
  3  4  1  0
  4  5  1  0
  5  6  2  0
  6  7  1  0
  7  8  1  0
  8  9  1  0
  8 10  1  0
 10 11  1  0
 10 12  1  0
  4 13  1  0
 13 14  2  0
 13 15  1  0
 15 16  2  0
 16 17  1  0
 17 18  2  0
 18 19  1  0
 19 20  2  0
 20 21  1  0
 21 22  2  0
 22 23  1  0
 23 24  2  0
 24 25  1  0
  6  2  1  0
 10  7  1  0
 22 17  1  0
  9  5  1  0
 25 21  1  0
  1 26  1  0
  1 27  1  0
  1 28  1  0
  7 29  1  1
  8 30  1  1
  9 31  1  0
  9 32  1  0
 11 33  1  0
 11 34  1  0
 11 35  1  0
 12 36  1  0
 12 37  1  0
 12 38  1  0
 15 39  1  0
 16 40  1  0
 18 41  1  0
 19 42  1  0
 20 43  1  0
 23 44  1  0
 24 45  1  0
 25 46  1  0
M  END
>  <Ligand ID>  (1) 
LIG0003963

>  <Ligand>  (1) 
CHEMBL601062

>  <SMILES>  (1) 
Cc1nn(c2c1[C@H]1[C@@H](C2)C1(C)C)C(=O)/C=C/c1cccc2c1cc[nH]2

>  <CID>  (1) 
46224769.0

>  <ChEMBL ID>  (1) 
nan

>  <InChiKey>  (1) 
FUKOIAOTNSHHJQ-VUPXXRIVSA-N

>  <InChi>  (1) 
InChI=1S/C21H21N3O/c1-12-19-17(11-15-20(19)21(15,2)3)24(23-12)18(25)8-7-13-5-4-6-16-14(13)9-10-22-16/h4-10,15,20,22H,11H2,1-3H3/b8-7+/t15-,20-/m1/s1

>  <IUPAC Name>  (1) 
(E)-3-(1H-indol-4-yl)-1-[(2S,4R)-3,3,9-trimethyl-7,8-diazatricyclo[4.3.0.02,4]nona-1(6),8-dien-7-yl]prop-2-en-1-one

$$$$
