
     RDKit          3D

110112  0  0  0  0  0  0  0  0999 V2000
   11.6727   -2.5605   -1.3837 C   0  0  0  0  0  0  0  0  0  0  0  0
   10.2692   -2.5563   -0.2443 S   0  0  0  0  0  0  0  0  0  0  0  0
    8.7676   -1.8785   -0.9914 C   0  0  0  0  0  0  0  0  0  0  0  0
    8.8866   -0.4195   -1.3041 C   0  0  0  0  0  0  0  0  0  0  0  0
    7.6520    0.1849   -1.9404 C   0  0  1  0  0  0  0  0  0  0  0  0
    7.2900   -0.4480   -3.2201 C   0  0  0  0  0  0  0  0  0  0  0  0
    6.1511   -0.8577   -3.4674 O   0  0  0  0  0  0  0  0  0  0  0  0
    8.3120   -0.5856   -4.2054 N   0  0  0  0  0  0  0  0  0  0  0  0
    6.5456    0.2349   -1.0061 N   0  0  0  0  0  0  0  0  0  0  0  0
    6.0706    1.4868   -0.4609 C   0  0  0  0  0  0  0  0  0  0  0  0
    6.6895    2.5046   -0.8716 O   0  0  0  0  0  0  0  0  0  0  0  0
    4.9597    1.4888    0.4873 C   0  0  1  0  0  0  0  0  0  0  0  0
    4.3672    0.1646    0.6838 N   0  0  0  0  0  0  0  0  0  0  0  0
    2.9616   -0.0643    0.4714 C   0  0  0  0  0  0  0  0  0  0  0  0
    2.2963    0.9295    0.1199 O   0  0  0  0  0  0  0  0  0  0  0  0
    2.4611   -1.4317    0.6925 C   0  0  1  0  0  0  0  0  0  0  0  0
    3.0037   -1.8612    2.0490 C   0  0  0  0  0  0  0  0  0  0  0  0
    1.8725   -2.4908    2.7781 C   0  0  0  0  0  0  0  0  0  0  0  0
    0.8018   -2.6602    1.7125 C   0  0  0  0  0  0  0  0  0  0  0  0
    1.0378   -1.5737    0.7420 N   0  0  0  0  0  0  0  0  0  0  0  0
   -0.0211   -0.8892    0.0624 C   0  0  0  0  0  0  0  0  0  0  0  0
    0.1369    0.0239   -0.7638 O   0  0  0  0  0  0  0  0  0  0  0  0
   -1.4628   -1.2543    0.3342 C   0  0  2  0  0  0  0  0  0  0  0  0
   -1.8445   -2.6104   -0.1583 C   0  0  0  0  0  0  0  0  0  0  0  0
   -3.2814   -2.8165    0.1947 C   0  0  0  0  0  0  0  0  0  0  0  0
   -3.5290   -3.3908    1.4210 C   0  0  0  0  0  0  0  0  0  0  0  0
   -4.7992   -3.6425    1.9058 C   0  0  0  0  0  0  0  0  0  0  0  0
   -5.8428   -3.2801    1.0762 C   0  0  0  0  0  0  0  0  0  0  0  0
   -5.5988   -2.7039   -0.1575 C   0  0  0  0  0  0  0  0  0  0  0  0
   -4.3242   -2.4637   -0.6184 C   0  0  0  0  0  0  0  0  0  0  0  0
   -2.3747   -0.2476   -0.2119 N   0  0  0  0  0  0  0  0  0  0  0  0
   -2.9084    0.7632    0.6047 C   0  0  0  0  0  0  0  0  0  0  0  0
   -2.5006    0.7575    1.8240 O   0  0  0  0  0  0  0  0  0  0  0  0
   -3.8623    1.8030    0.2401 C   0  0  2  0  0  0  0  0  0  0  0  0
   -4.8722    2.1119    1.2742 C   0  0  0  0  0  0  0  0  0  0  0  0
   -5.8234    1.1352    1.7521 C   0  0  0  0  0  0  0  0  0  0  0  0
   -7.1175    1.1588    1.2327 C   0  0  0  0  0  0  0  0  0  0  0  0
   -8.1085    0.2958    1.6173 C   0  0  0  0  0  0  0  0  0  0  0  0
   -7.8378   -0.6445    2.5576 C   0  0  0  0  0  0  0  0  0  0  0  0
   -6.5853   -0.7279    3.1156 C   0  0  0  0  0  0  0  0  0  0  0  0
   -5.5953    0.1646    2.7034 C   0  0  0  0  0  0  0  0  0  0  0  0
   -4.4116    1.6177   -1.0620 N   0  0  0  0  0  0  0  0  0  0  0  0
   -5.3693    2.3791   -1.7443 C   0  0  0  0  0  0  0  0  0  0  0  0
   -5.9527    3.3709   -1.2625 O   0  0  0  0  0  0  0  0  0  0  0  0
   -5.7420    2.0108   -3.1484 C   0  0  0  0  0  0  0  0  0  0  0  0
   -7.2530    2.0457   -3.3474 C   0  0  0  0  0  0  0  0  0  0  0  0
   -7.7954    0.9064   -2.4948 C   0  0  0  0  0  0  0  0  0  0  0  0
   -9.2715    0.7828   -2.4757 C   0  0  0  0  0  0  0  0  0  0  0  0
   -9.8482    0.5635   -3.7848 N   0  0  0  0  0  0  0  0  0  0  0  0
    5.3510    2.0790    1.8374 C   0  0  0  0  0  0  0  0  0  0  0  0
    5.8104    3.4975    1.7711 C   0  0  0  0  0  0  0  0  0  0  0  0
    6.1638    3.9575    3.1924 C   0  0  0  0  0  0  0  0  0  0  0  0
    4.6758    4.4017    1.3251 C   0  0  0  0  0  0  0  0  0  0  0  0
   12.5936   -2.6264   -0.7461 H   0  0  0  0  0  0  0  0  0  0  0  0
   11.6507   -3.4793   -2.0106 H   0  0  0  0  0  0  0  0  0  0  0  0
   11.7553   -1.6445   -1.9967 H   0  0  0  0  0  0  0  0  0  0  0  0
    7.9863   -1.9415   -0.1723 H   0  0  0  0  0  0  0  0  0  0  0  0
    8.3875   -2.4951   -1.8036 H   0  0  0  0  0  0  0  0  0  0  0  0
    9.0453    0.1871   -0.3649 H   0  0  0  0  0  0  0  0  0  0  0  0
    9.7905   -0.2569   -1.9181 H   0  0  0  0  0  0  0  0  0  0  0  0
    7.9483    1.2459   -2.1719 H   0  0  0  0  0  0  0  0  0  0  0  0
    8.3163   -1.4026   -4.8485 H   0  0  0  0  0  0  0  0  0  0  0  0
    9.0597    0.1631   -4.2551 H   0  0  0  0  0  0  0  0  0  0  0  0
    6.0961   -0.6697   -0.7307 H   0  0  0  0  0  0  0  0  0  0  0  0
    4.1541    2.1407    0.1057 H   0  0  0  0  0  0  0  0  0  0  0  0
    5.0188   -0.5905    0.9872 H   0  0  0  0  0  0  0  0  0  0  0  0
    2.9151   -2.1479   -0.0601 H   0  0  0  0  0  0  0  0  0  0  0  0
    3.9032   -2.4982    1.9474 H   0  0  0  0  0  0  0  0  0  0  0  0
    3.3155   -0.9695    2.6486 H   0  0  0  0  0  0  0  0  0  0  0  0
    1.4210   -1.8276    3.5543 H   0  0  0  0  0  0  0  0  0  0  0  0
    2.0551   -3.4872    3.1941 H   0  0  0  0  0  0  0  0  0  0  0  0
    0.8943   -3.6156    1.1862 H   0  0  0  0  0  0  0  0  0  0  0  0
   -0.1961   -2.4960    2.1395 H   0  0  0  0  0  0  0  0  0  0  0  0
   -1.5568   -1.2079    1.4216 H   0  0  0  0  0  0  0  0  0  0  0  0
   -1.2635   -3.3859    0.3353 H   0  0  0  0  0  0  0  0  0  0  0  0
   -1.6631   -2.7433   -1.2506 H   0  0  0  0  0  0  0  0  0  0  0  0
   -2.7143   -3.6880    2.0946 H   0  0  0  0  0  0  0  0  0  0  0  0
   -4.9995   -4.0894    2.8665 H   0  0  0  0  0  0  0  0  0  0  0  0
   -6.8487   -3.4748    1.4566 H   0  0  0  0  0  0  0  0  0  0  0  0
   -6.4519   -2.4470   -0.7475 H   0  0  0  0  0  0  0  0  0  0  0  0
   -4.1919   -2.0246   -1.5849 H   0  0  0  0  0  0  0  0  0  0  0  0
   -2.5721   -0.3412   -1.2299 H   0  0  0  0  0  0  0  0  0  0  0  0
   -3.2495    2.7953    0.1139 H   0  0  0  0  0  0  0  0  0  0  0  0
   -4.3830    2.5286    2.2187 H   0  0  0  0  0  0  0  0  0  0  0  0
   -5.4429    3.0172    0.8944 H   0  0  0  0  0  0  0  0  0  0  0  0
   -7.3747    1.9085    0.5054 H   0  0  0  0  0  0  0  0  0  0  0  0
   -9.0876    0.3462    1.1950 H   0  0  0  0  0  0  0  0  0  0  0  0
   -8.6456   -1.3249    2.8503 H   0  0  0  0  0  0  0  0  0  0  0  0
   -6.3383   -1.4795    3.8872 H   0  0  0  0  0  0  0  0  0  0  0  0
   -4.6450    0.0552    3.1800 H   0  0  0  0  0  0  0  0  0  0  0  0
   -4.0459    0.7694   -1.6088 H   0  0  0  0  0  0  0  0  0  0  0  0
   -5.3925    1.0086   -3.4487 H   0  0  0  0  0  0  0  0  0  0  0  0
   -5.2960    2.7342   -3.8678 H   0  0  0  0  0  0  0  0  0  0  0  0
   -7.6188    2.9807   -2.8804 H   0  0  0  0  0  0  0  0  0  0  0  0
   -7.5686    1.9759   -4.3827 H   0  0  0  0  0  0  0  0  0  0  0  0
   -7.4350   -0.0499   -3.0396 H   0  0  0  0  0  0  0  0  0  0  0  0
   -7.3334    0.8120   -1.5196 H   0  0  0  0  0  0  0  0  0  0  0  0
   -9.7714    1.6352   -1.9909 H   0  0  0  0  0  0  0  0  0  0  0  0
   -9.5946   -0.1145   -1.8619 H   0  0  0  0  0  0  0  0  0  0  0  0
   -9.2936   -0.1299   -4.3410 H   0  0  0  0  0  0  0  0  0  0  0  0
  -10.8608    0.3750   -3.7604 H   0  0  0  0  0  0  0  0  0  0  0  0
    4.4974    2.0221    2.5497 H   0  0  0  0  0  0  0  0  0  0  0  0
    6.1256    1.4097    2.2678 H   0  0  0  0  0  0  0  0  0  0  0  0
    6.7083    3.5697    1.1354 H   0  0  0  0  0  0  0  0  0  0  0  0
    5.2415    4.3183    3.7171 H   0  0  0  0  0  0  0  0  0  0  0  0
    6.5251    3.0863    3.7704 H   0  0  0  0  0  0  0  0  0  0  0  0
    6.9735    4.7091    3.1711 H   0  0  0  0  0  0  0  0  0  0  0  0
    3.8336    4.2075    2.0267 H   0  0  0  0  0  0  0  0  0  0  0  0
    5.0325    5.4527    1.4002 H   0  0  0  0  0  0  0  0  0  0  0  0
    4.3182    4.1537    0.3192 H   0  0  0  0  0  0  0  0  0  0  0  0
  1  2  1  0
  2  3  1  0
  3  4  1  0
  4  5  1  0
  5  6  1  0
  6  7  2  0
  6  8  1  0
  5  9  1  0
  9 10  1  0
 10 11  2  0
 10 12  1  0
 12 13  1  0
 13 14  1  0
 14 15  2  0
 14 16  1  0
 16 17  1  0
 17 18  1  0
 18 19  1  0
 19 20  1  0
 20 21  1  0
 21 22  2  0
 21 23  1  0
 23 24  1  0
 24 25  1  0
 25 26  2  0
 26 27  1  0
 27 28  2  0
 28 29  1  0
 29 30  2  0
 23 31  1  0
 31 32  1  0
 32 33  2  0
 32 34  1  0
 34 35  1  0
 35 36  1  0
 36 37  2  0
 37 38  1  0
 38 39  2  0
 39 40  1  0
 40 41  2  0
 34 42  1  0
 42 43  1  0
 43 44  2  0
 43 45  1  0
 45 46  1  0
 46 47  1  0
 47 48  1  0
 48 49  1  0
 12 50  1  0
 50 51  1  0
 51 52  1  0
 51 53  1  0
 20 16  1  0
 30 25  1  0
 41 36  1  0
  1 54  1  0
  1 55  1  0
  1 56  1  0
  3 57  1  0
  3 58  1  0
  4 59  1  0
  4 60  1  0
  5 61  1  6
  8 62  1  0
  8 63  1  0
  9 64  1  0
 12 65  1  6
 13 66  1  0
 16 67  1  6
 17 68  1  0
 17 69  1  0
 18 70  1  0
 18 71  1  0
 19 72  1  0
 19 73  1  0
 23 74  1  1
 24 75  1  0
 24 76  1  0
 26 77  1  0
 27 78  1  0
 28 79  1  0
 29 80  1  0
 30 81  1  0
 31 82  1  0
 34 83  1  6
 35 84  1  0
 35 85  1  0
 37 86  1  0
 38 87  1  0
 39 88  1  0
 40 89  1  0
 41 90  1  0
 42 91  1  0
 45 92  1  0
 45 93  1  0
 46 94  1  0
 46 95  1  0
 47 96  1  0
 47 97  1  0
 48 98  1  0
 48 99  1  0
 49100  1  0
 49101  1  0
 50102  1  0
 50103  1  0
 51104  1  0
 52105  1  0
 52106  1  0
 52107  1  0
 53108  1  0
 53109  1  0
 53110  1  0
M  END
>  <Ligand ID>  (1) 
LIG0003430

>  <Ligand>  (1) 
CHEMBL262048

>  <SMILES>  (1) 
CSCC[C@@H](C(=O)N)NC(=O)[C@@H](NC(=O)[C@H]1CCCN1C(=O)[C@H](Cc1ccccc1)NC(=O)[C@H](Cc1ccccc1)NC(=O)CCCCN)CC(C)C

>  <CID>  (1) 
11765601.0

>  <ChEMBL ID>  (1) 
nan

>  <InChiKey>  (1) 
BWXRCFNZBHEVIO-PMUGGPHNSA-N

>  <InChi>  (1) 
InChI=1S/C39H57N7O6S/c1-26(2)23-30(36(49)43-29(35(41)48)19-22-53-3)44-38(51)33-17-12-21-46(33)39(52)32(25-28-15-8-5-9-16-28)45-37(50)31(24-27-13-6-4-7-14-27)42-34(47)18-10-11-20-40/h4-9,13-16,26,29-33H,10-12,17-25,40H2,1-3H3,(H2,41,48)(H,42,47)(H,43,49)(H,44,51)(H,45,50)/t29-,30-,31-,32-,33+/m0/s1

>  <IUPAC Name>  (1) 
(2R)-N-[(2S)-1-[[(2S)-1-amino-4-methylsulfanyl-1-oxobutan-2-yl]amino]-4-methyl-1-oxopentan-2-yl]-1-[(2S)-2-[[(2S)-2-(5-aminopentanoylamino)-3-phenylpropanoyl]amino]-3-phenylpropanoyl]pyrrolidine-2-carboxamide

$$$$
