
     RDKit          3D

 54 58  0  0  0  0  0  0  0  0999 V2000
   -3.8698    4.2356    0.2559 C   0  0  0  0  0  0  0  0  0  0  0  0
   -3.3678    2.8977    0.1881 O   0  0  0  0  0  0  0  0  0  0  0  0
   -4.2487    1.8481    0.0145 C   0  0  0  0  0  0  0  0  0  0  0  0
   -5.6183    2.0595   -0.0966 C   0  0  0  0  0  0  0  0  0  0  0  0
   -6.5082    1.0256   -0.2697 C   0  0  0  0  0  0  0  0  0  0  0  0
   -5.9991   -0.2527   -0.3318 C   0  0  0  0  0  0  0  0  0  0  0  0
   -4.6414   -0.4713   -0.2224 C   0  0  0  0  0  0  0  0  0  0  0  0
   -3.7343    0.5774   -0.0464 C   0  0  0  0  0  0  0  0  0  0  0  0
   -2.3793    0.2402    0.0525 N   0  0  0  0  0  0  0  0  0  0  0  0
   -1.4049    0.7550   -0.9015 C   0  0  0  0  0  0  0  0  0  0  0  0
    0.0035    0.5906   -0.4143 C   0  0  0  0  0  0  0  0  0  0  0  0
    0.2899   -0.8229   -0.0495 N   0  0  0  0  0  0  0  0  0  0  0  0
   -0.8718   -1.5770    0.3388 C   0  0  0  0  0  0  0  0  0  0  0  0
   -1.8543   -0.6352    1.0988 C   0  0  0  0  0  0  0  0  0  0  0  0
    1.6325   -1.2045   -0.0794 C   0  0  0  0  0  0  0  0  0  0  0  0
    2.5459   -0.2278    0.2375 N   0  0  0  0  0  0  0  0  0  0  0  0
    3.8652   -0.4621    0.3021 C   0  0  0  0  0  0  0  0  0  0  0  0
    4.3641   -1.7080    0.0497 N   0  0  0  0  0  0  0  0  0  0  0  0
    3.5159   -2.7074   -0.2679 C   0  0  0  0  0  0  0  0  0  0  0  0
    2.1531   -2.4318   -0.3271 C   0  0  0  0  0  0  0  0  0  0  0  0
    1.3345   -3.4741   -0.6710 C   0  0  0  0  0  0  0  0  0  0  0  0
    1.8569   -4.7192   -0.9365 C   0  0  0  0  0  0  0  0  0  0  0  0
    3.2070   -4.9982   -0.8772 C   0  0  0  0  0  0  0  0  0  0  0  0
    4.0385   -3.9529   -0.5331 C   0  0  0  0  0  0  0  0  0  0  0  0
    4.7616    0.6764    0.6566 C   0  0  0  0  0  0  0  0  0  0  0  0
    4.3525    1.4482    1.8910 C   0  0  0  0  0  0  0  0  0  0  0  0
    4.6051    2.7435    1.1331 C   0  0  0  0  0  0  0  0  0  0  0  0
    4.5016    1.9394   -0.1371 C   0  0  0  0  0  0  0  0  0  0  0  0
   -4.7300    4.2532    0.9800 H   0  0  0  0  0  0  0  0  0  0  0  0
   -3.1120    4.9289    0.6632 H   0  0  0  0  0  0  0  0  0  0  0  0
   -4.2259    4.5006   -0.7601 H   0  0  0  0  0  0  0  0  0  0  0  0
   -6.0345    3.0639   -0.0494 H   0  0  0  0  0  0  0  0  0  0  0  0
   -7.5846    1.1672   -0.3592 H   0  0  0  0  0  0  0  0  0  0  0  0
   -6.6814   -1.0960   -0.4688 H   0  0  0  0  0  0  0  0  0  0  0  0
   -4.2672   -1.5056   -0.2761 H   0  0  0  0  0  0  0  0  0  0  0  0
   -1.5845    1.8514   -0.9244 H   0  0  0  0  0  0  0  0  0  0  0  0
   -1.5331    0.2556   -1.8846 H   0  0  0  0  0  0  0  0  0  0  0  0
    0.0689    1.1171    0.5589 H   0  0  0  0  0  0  0  0  0  0  0  0
    0.6871    0.9509   -1.1905 H   0  0  0  0  0  0  0  0  0  0  0  0
   -0.6805   -2.3673    1.0947 H   0  0  0  0  0  0  0  0  0  0  0  0
   -1.5032   -1.9126   -0.5207 H   0  0  0  0  0  0  0  0  0  0  0  0
   -2.6169   -1.2940    1.5127 H   0  0  0  0  0  0  0  0  0  0  0  0
   -1.2443   -0.1236    1.8414 H   0  0  0  0  0  0  0  0  0  0  0  0
    0.2922   -3.3415   -0.7565 H   0  0  0  0  0  0  0  0  0  0  0  0
    1.2018   -5.5539   -1.2111 H   0  0  0  0  0  0  0  0  0  0  0  0
    3.5648   -5.9956   -1.0950 H   0  0  0  0  0  0  0  0  0  0  0  0
    5.0969   -4.1741   -0.4877 H   0  0  0  0  0  0  0  0  0  0  0  0
    5.8154    0.3298    0.6699 H   0  0  0  0  0  0  0  0  0  0  0  0
    3.2931    1.3642    2.1648 H   0  0  0  0  0  0  0  0  0  0  0  0
    5.1017    1.3516    2.7069 H   0  0  0  0  0  0  0  0  0  0  0  0
    5.6027    3.1865    1.2866 H   0  0  0  0  0  0  0  0  0  0  0  0
    3.8171    3.5150    1.2328 H   0  0  0  0  0  0  0  0  0  0  0  0
    5.2622    2.2210   -0.8772 H   0  0  0  0  0  0  0  0  0  0  0  0
    3.4643    1.9151   -0.5528 H   0  0  0  0  0  0  0  0  0  0  0  0
  1  2  1  0
  2  3  1  0
  3  4  2  0
  4  5  1  0
  5  6  2  0
  6  7  1  0
  7  8  2  0
  8  9  1  0
  9 10  1  0
 10 11  1  0
 11 12  1  0
 12 13  1  0
 13 14  1  0
 12 15  1  0
 15 16  2  0
 16 17  1  0
 17 18  2  0
 18 19  1  0
 19 20  2  0
 20 21  1  0
 21 22  2  0
 22 23  1  0
 23 24  2  0
 17 25  1  0
 25 26  1  0
 26 27  1  0
 27 28  1  0
  8  3  1  0
 14  9  1  0
 20 15  1  0
 28 25  1  0
 24 19  1  0
  1 29  1  0
  1 30  1  0
  1 31  1  0
  4 32  1  0
  5 33  1  0
  6 34  1  0
  7 35  1  0
 10 36  1  0
 10 37  1  0
 11 38  1  0
 11 39  1  0
 13 40  1  0
 13 41  1  0
 14 42  1  0
 14 43  1  0
 21 44  1  0
 22 45  1  0
 23 46  1  0
 24 47  1  0
 25 48  1  0
 26 49  1  0
 26 50  1  0
 27 51  1  0
 27 52  1  0
 28 53  1  0
 28 54  1  0
M  END
>  <Ligand ID>  (1) 
LIG0004869

>  <Ligand>  (1) 
CHEMBL2431127

>  <SMILES>  (1) 
COc1ccccc1N1CCN(CC1)c1nc(nc2c1cccc2)C1CCC1

>  <CID>  (1) 
53245626.0

>  <ChEMBL ID>  (1) 
nan

>  <InChiKey>  (1) 
HOHUZHPCXFCPMJ-UHFFFAOYSA-N

>  <InChi>  (1) 
InChI=1S/C23H26N4O/c1-28-21-12-5-4-11-20(21)26-13-15-27(16-14-26)23-18-9-2-3-10-19(18)24-22(25-23)17-7-6-8-17/h2-5,9-12,17H,6-8,13-16H2,1H3

>  <IUPAC Name>  (1) 
2-cyclobutyl-4-[4-(2-methoxyphenyl)piperazin-1-yl]quinazoline

$$$$
