
     RDKit          3D

 65 67  0  0  0  0  0  0  0  0999 V2000
    8.9146    1.8428    0.3231 C   0  0  0  0  0  0  0  0  0  0  0  0
    8.6125    0.3986    0.1863 C   0  0  0  0  0  0  0  0  0  0  0  0
    7.3665   -0.0689    0.0613 C   0  0  0  0  0  0  0  0  0  0  0  0
    6.1700    0.8054    0.0470 C   0  0  0  0  0  0  0  0  0  0  0  0
    5.2810    0.4164    1.1951 C   0  0  0  0  0  0  0  0  0  0  0  0
    4.8380   -1.0057    1.0975 C   0  0  0  0  0  0  0  0  0  0  0  0
    4.0626   -1.3474   -0.1281 C   0  0  0  0  0  0  0  0  0  0  0  0
    2.8123   -0.4989   -0.1749 C   0  0  1  0  0  0  0  0  0  0  0  0
    1.9774   -0.7949   -1.3983 C   0  0  0  0  0  0  0  0  0  0  0  0
    0.9364    0.3337   -1.4523 C   0  0  0  0  0  0  0  0  0  0  0  0
    0.0881    0.0758   -0.2329 C   0  0  0  0  0  0  0  0  0  0  0  0
    0.6344   -0.4043    0.9351 C   0  0  0  0  0  0  0  0  0  0  0  0
    2.0695   -0.7098    1.1219 C   0  0  0  0  0  0  0  0  0  0  0  0
   -0.2227   -0.6122    2.0040 C   0  0  0  0  0  0  0  0  0  0  0  0
   -1.5859   -0.3486    1.9101 C   0  0  0  0  0  0  0  0  0  0  0  0
   -2.1164    0.1334    0.7287 C   0  0  0  0  0  0  0  0  0  0  0  0
   -1.2623    0.3425   -0.3424 C   0  0  0  0  0  0  0  0  0  0  0  0
   -3.5652    0.4350    0.5643 C   0  0  1  0  0  0  0  0  0  0  0  0
   -3.8380    1.8437    0.1483 C   0  0  0  0  0  0  0  0  0  0  0  0
   -4.5259    1.7345   -1.1989 C   0  0  0  0  0  0  0  0  0  0  0  0
   -5.1364    0.3584   -1.1951 C   0  0  2  0  0  0  0  0  0  0  0  0
   -4.0881   -0.4833   -0.5241 C   0  0  0  0  0  0  0  0  0  0  0  0
   -5.3304   -0.1747   -2.5270 N   0  0  0  0  0  0  0  0  0  0  0  0
   -6.3928    0.2938   -0.3666 C   0  0  0  0  0  0  0  0  0  0  0  0
   -6.7791   -1.0277   -0.2606 O   0  0  0  0  0  0  0  0  0  0  0  0
   -8.1671   -1.2821    0.6330 P   0  0  0  0  0  0  0  0  0  0  0  0
   -7.9742   -0.8233    2.0722 O   0  0  0  0  0  0  0  0  0  0  0  0
   -8.4641   -2.9480    0.6601 O   0  0  0  0  0  0  0  0  0  0  0  0
   -9.5353   -0.5288   -0.0040 O   0  0  0  0  0  0  0  0  0  0  0  0
    8.7304    2.2213    1.3671 H   0  0  0  0  0  0  0  0  0  0  0  0
    8.3419    2.4977   -0.3485 H   0  0  0  0  0  0  0  0  0  0  0  0
    9.9822    1.9939    0.0578 H   0  0  0  0  0  0  0  0  0  0  0  0
    9.4237   -0.3408    0.1843 H   0  0  0  0  0  0  0  0  0  0  0  0
    7.2211   -1.1394   -0.0349 H   0  0  0  0  0  0  0  0  0  0  0  0
    5.5715    0.6264   -0.8923 H   0  0  0  0  0  0  0  0  0  0  0  0
    6.3997    1.8680    0.0345 H   0  0  0  0  0  0  0  0  0  0  0  0
    5.9442    0.4621    2.1087 H   0  0  0  0  0  0  0  0  0  0  0  0
    4.4998    1.1558    1.3790 H   0  0  0  0  0  0  0  0  0  0  0  0
    5.7243   -1.6559    1.2484 H   0  0  0  0  0  0  0  0  0  0  0  0
    4.1856   -1.2224    1.9867 H   0  0  0  0  0  0  0  0  0  0  0  0
    4.6398   -1.3494   -1.0523 H   0  0  0  0  0  0  0  0  0  0  0  0
    3.6921   -2.4000    0.0231 H   0  0  0  0  0  0  0  0  0  0  0  0
    3.0547    0.5901   -0.2172 H   0  0  0  0  0  0  0  0  0  0  0  0
    2.6335   -0.7783   -2.2695 H   0  0  0  0  0  0  0  0  0  0  0  0
    1.4400   -1.7645   -1.3434 H   0  0  0  0  0  0  0  0  0  0  0  0
    0.3363    0.3158   -2.3646 H   0  0  0  0  0  0  0  0  0  0  0  0
    1.5139    1.2754   -1.3245 H   0  0  0  0  0  0  0  0  0  0  0  0
    2.1711   -1.7417    1.5095 H   0  0  0  0  0  0  0  0  0  0  0  0
    2.5131   -0.0649    1.9331 H   0  0  0  0  0  0  0  0  0  0  0  0
    0.1311   -0.9918    2.9673 H   0  0  0  0  0  0  0  0  0  0  0  0
   -2.2477   -0.5138    2.7497 H   0  0  0  0  0  0  0  0  0  0  0  0
   -1.6783    0.7167   -1.2574 H   0  0  0  0  0  0  0  0  0  0  0  0
   -4.0267    0.1880    1.5489 H   0  0  0  0  0  0  0  0  0  0  0  0
   -4.5284    2.3343    0.8954 H   0  0  0  0  0  0  0  0  0  0  0  0
   -2.9428    2.5021    0.1251 H   0  0  0  0  0  0  0  0  0  0  0  0
   -5.2560    2.5504   -1.2776 H   0  0  0  0  0  0  0  0  0  0  0  0
   -3.7448    1.7742   -1.9844 H   0  0  0  0  0  0  0  0  0  0  0  0
   -3.2661   -0.6685   -1.2273 H   0  0  0  0  0  0  0  0  0  0  0  0
   -4.4995   -1.4260   -0.1004 H   0  0  0  0  0  0  0  0  0  0  0  0
   -4.9373    0.4379   -3.2811 H   0  0  0  0  0  0  0  0  0  0  0  0
   -5.0873   -1.1733   -2.6283 H   0  0  0  0  0  0  0  0  0  0  0  0
   -6.1176    0.6404    0.6588 H   0  0  0  0  0  0  0  0  0  0  0  0
   -7.1816    0.9752   -0.7182 H   0  0  0  0  0  0  0  0  0  0  0  0
   -7.9061   -3.4366    0.0054 H   0  0  0  0  0  0  0  0  0  0  0  0
   -9.5091   -0.4140   -0.9855 H   0  0  0  0  0  0  0  0  0  0  0  0
  1  2  1  0
  2  3  2  0
  3  4  1  0
  4  5  1  0
  5  6  1  0
  6  7  1  0
  7  8  1  0
  8  9  1  0
  9 10  1  0
 10 11  1  0
 11 12  2  0
 12 13  1  0
 12 14  1  0
 14 15  2  0
 15 16  1  0
 16 17  2  0
 16 18  1  0
 18 19  1  0
 19 20  1  0
 20 21  1  0
 21 22  1  0
 21 23  1  6
 21 24  1  0
 24 25  1  0
 25 26  1  0
 26 27  2  0
 26 28  1  0
 26 29  1  0
 13  8  1  0
 22 18  1  0
 17 11  1  0
  1 30  1  0
  1 31  1  0
  1 32  1  0
  2 33  1  0
  3 34  1  0
  4 35  1  0
  4 36  1  0
  5 37  1  0
  5 38  1  0
  6 39  1  0
  6 40  1  0
  7 41  1  0
  7 42  1  0
  8 43  1  6
  9 44  1  0
  9 45  1  0
 10 46  1  0
 10 47  1  0
 13 48  1  0
 13 49  1  0
 14 50  1  0
 15 51  1  0
 17 52  1  0
 18 53  1  1
 19 54  1  0
 19 55  1  0
 20 56  1  0
 20 57  1  0
 22 58  1  0
 22 59  1  0
 23 60  1  0
 23 61  1  0
 24 62  1  0
 24 63  1  0
 28 64  1  0
 29 65  1  0
M  END
>  <Ligand ID>  (1) 
LIG0005592

>  <Ligand>  (1) 
BDBM65352

>  <SMILES>  (1) 
C/C=C\CCCC[C@H]1CCc2c(C1)ccc(c2)[C@H]1CC[C@](C1)(N)COP(=O)(O)O

>  <CID>  (1) 
131953783.0

>  <ChEMBL ID>  (1) 
nan

>  <InChiKey>  (1) 
FKTSGAYZGSDVPR-KNRHZFCNSA-N

>  <InChi>  (1) 
InChI=1S/C23H36NO4P/c1-2-3-4-5-6-7-18-8-9-20-15-21(11-10-19(20)14-18)22-12-13-23(24,16-22)17-28-29(25,26)27/h2-3,10-11,15,18,22H,4-9,12-14,16-17,24H2,1H3,(H2,25,26,27)/b3-2-/t18-,22-,23+/m0/s1

>  <IUPAC Name>  (1) 
[(1R,3S)-1-amino-3-[(6S)-6-[(Z)-hept-5-enyl]-5,6,7,8-tetrahydronaphthalen-2-yl]cyclopentyl]methyl dihydrogen phosphate

$$$$
