
     RDKit          3D

 25 25  0  0  0  0  0  0  0  0999 V2000
   -4.1856    0.9688   -1.0425 O   0  0  0  0  0  0  0  0  0  0  0  0
   -3.6052    0.4226   -0.0515 C   0  0  0  0  0  0  0  0  0  0  0  0
   -2.1730    0.0654   -0.1120 C   0  0  0  0  0  0  0  0  0  0  0  0
   -1.6201   -0.4935    0.9296 C   0  0  0  0  0  0  0  0  0  0  0  0
   -0.1997   -0.9073    1.0204 C   0  0  0  0  0  0  0  0  0  0  0  0
    0.5896   -0.5636   -0.1998 C   0  0  1  0  0  0  0  0  0  0  0  0
    0.0021    0.5590   -1.0046 C   0  0  0  0  0  0  0  0  0  0  0  0
   -1.4328    0.3617   -1.3595 C   0  0  0  0  0  0  0  0  0  0  0  0
    2.0024   -0.2245    0.1254 C   0  0  0  0  0  0  0  0  0  0  0  0
    2.9985   -1.0326   -0.2953 C   0  0  0  0  0  0  0  0  0  0  0  0
    2.2960    1.0069    0.9137 C   0  0  0  0  0  0  0  0  0  0  0  0
   -4.1970    0.2305    0.8323 H   0  0  0  0  0  0  0  0  0  0  0  0
   -2.2348   -0.6752    1.8027 H   0  0  0  0  0  0  0  0  0  0  0  0
   -0.2267   -2.0196    1.2053 H   0  0  0  0  0  0  0  0  0  0  0  0
    0.2096   -0.4682    1.9547 H   0  0  0  0  0  0  0  0  0  0  0  0
    0.5740   -1.4600   -0.8638 H   0  0  0  0  0  0  0  0  0  0  0  0
    0.0940    1.4882   -0.4119 H   0  0  0  0  0  0  0  0  0  0  0  0
    0.5923    0.5905   -1.9578 H   0  0  0  0  0  0  0  0  0  0  0  0
   -1.5867   -0.4658   -2.0810 H   0  0  0  0  0  0  0  0  0  0  0  0
   -1.7821    1.2830   -1.8711 H   0  0  0  0  0  0  0  0  0  0  0  0
    2.7025   -1.8908   -0.8520 H   0  0  0  0  0  0  0  0  0  0  0  0
    4.0160   -0.7571   -0.0417 H   0  0  0  0  0  0  0  0  0  0  0  0
    1.4918    1.2286    1.6469 H   0  0  0  0  0  0  0  0  0  0  0  0
    2.4512    1.8523    0.2096 H   0  0  0  0  0  0  0  0  0  0  0  0
    3.2239    0.9007    1.5039 H   0  0  0  0  0  0  0  0  0  0  0  0
  1  2  2  0
  2  3  1  0
  3  4  2  0
  4  5  1  0
  5  6  1  0
  6  7  1  0
  7  8  1  0
  6  9  1  0
  9 10  2  0
  9 11  1  0
  8  3  1  0
  2 12  1  0
  4 13  1  0
  5 14  1  0
  5 15  1  0
  6 16  1  6
  7 17  1  0
  7 18  1  0
  8 19  1  0
  8 20  1  0
 10 21  1  0
 10 22  1  0
 11 23  1  0
 11 24  1  0
 11 25  1  0
M  END
>  <Ligand ID>  (1) 
LIG0000215

>  <Ligand>  (1) 
(+)-Perillaaldehyde

>  <SMILES>  (1) 
O=CC1=CC[C@@H](CC1)C(=C)C

>  <CID>  (1) 
1548901.0

>  <ChEMBL ID>  (1) 
nan

>  <InChiKey>  (1) 
RUMOYJJNUMEFDD-JTQLQIEISA-N

>  <InChi>  (1) 
InChI=1S/C10H14O/c1-8(2)10-5-3-9(7-11)4-6-10/h3,7,10H,1,4-6H2,2H3/t10-/m0/s1

>  <IUPAC Name>  (1) 
(4R)-4-prop-1-en-2-ylcyclohexene-1-carbaldehyde

$$$$
