
     RDKit          3D

 40 42  0  0  0  0  0  0  0  0999 V2000
    1.8495   -2.0701    0.4197 O   0  0  0  0  0  0  0  0  0  0  0  0
    1.3868   -0.9278    0.2028 C   0  0  0  0  0  0  0  0  0  0  0  0
    2.1981    0.2009   -0.0464 N   0  0  0  0  0  0  0  0  0  0  0  0
    3.6073    0.2090   -0.0868 C   0  0  0  0  0  0  0  0  0  0  0  0
    4.4341   -0.8457    0.1026 C   0  0  0  0  0  0  0  0  0  0  0  0
    5.8312   -0.7495    0.0448 C   0  0  0  0  0  0  0  0  0  0  0  0
    6.4282    0.4639   -0.2157 C   0  0  0  0  0  0  0  0  0  0  0  0
    5.5874    1.5399   -0.4090 C   0  0  0  0  0  0  0  0  0  0  0  0
    4.2167    1.4409   -0.3514 C   0  0  0  0  0  0  0  0  0  0  0  0
    3.2699    2.8941   -0.6176 Cl  0  0  0  0  0  0  0  0  0  0  0  0
    7.8915    0.6642   -0.2963 C   0  0  0  0  0  0  0  0  0  0  0  0
    8.5889   -0.5027   -0.3494 F   0  0  0  0  0  0  0  0  0  0  0  0
    8.2937    1.3658    0.8444 F   0  0  0  0  0  0  0  0  0  0  0  0
    8.1910    1.5259   -1.3539 F   0  0  0  0  0  0  0  0  0  0  0  0
   -0.0965   -0.7925    0.2163 C   0  0  0  0  0  0  0  0  0  0  0  0
   -0.7715   -2.1154    0.5007 C   0  0  0  0  0  0  0  0  0  0  0  0
   -2.2507   -1.9715    0.5122 C   0  0  0  0  0  0  0  0  0  0  0  0
   -3.1565   -2.8875    0.7211 O   0  0  0  0  0  0  0  0  0  0  0  0
   -4.3363   -2.3352    0.6424 N   0  0  0  0  0  0  0  0  0  0  0  0
   -4.2197   -1.0317    0.3771 C   0  0  0  0  0  0  0  0  0  0  0  0
   -2.8983   -0.7937    0.2932 N   0  0  0  0  0  0  0  0  0  0  0  0
   -5.2358   -0.0041    0.1983 C   0  0  0  0  0  0  0  0  0  0  0  0
   -4.9069    1.3233   -0.0774 C   0  0  0  0  0  0  0  0  0  0  0  0
   -5.8377    2.3044   -0.2492 C   0  0  0  0  0  0  0  0  0  0  0  0
   -7.1816    2.0109   -0.1537 C   0  0  0  0  0  0  0  0  0  0  0  0
   -7.5446    0.7077    0.1180 C   0  0  0  0  0  0  0  0  0  0  0  0
   -6.5841   -0.2850    0.2914 C   0  0  0  0  0  0  0  0  0  0  0  0
   -7.1197   -1.9294    0.6364 Cl  0  0  0  0  0  0  0  0  0  0  0  0
   -8.0797    3.0103   -0.3301 F   0  0  0  0  0  0  0  0  0  0  0  0
    1.6740    1.1061   -0.2140 H   0  0  0  0  0  0  0  0  0  0  0  0
    4.0492   -1.8130    0.3078 H   0  0  0  0  0  0  0  0  0  0  0  0
    6.4523   -1.6200    0.2029 H   0  0  0  0  0  0  0  0  0  0  0  0
    6.0289    2.5030   -0.6149 H   0  0  0  0  0  0  0  0  0  0  0  0
   -0.4654   -0.0825    0.9653 H   0  0  0  0  0  0  0  0  0  0  0  0
   -0.4183   -0.4254   -0.7787 H   0  0  0  0  0  0  0  0  0  0  0  0
   -0.3913   -2.5822    1.4070 H   0  0  0  0  0  0  0  0  0  0  0  0
   -0.5551   -2.8422   -0.3305 H   0  0  0  0  0  0  0  0  0  0  0  0
   -3.8350    1.5338   -0.1488 H   0  0  0  0  0  0  0  0  0  0  0  0
   -5.4916    3.3026   -0.4592 H   0  0  0  0  0  0  0  0  0  0  0  0
   -8.6021    0.5003    0.1885 H   0  0  0  0  0  0  0  0  0  0  0  0
  1  2  2  0
  2  3  1  0
  3  4  1  0
  4  5  2  0
  5  6  1  0
  6  7  2  0
  7  8  1  0
  8  9  2  0
  9 10  1  0
  7 11  1  0
 11 12  1  0
 11 13  1  0
 11 14  1  0
  2 15  1  0
 15 16  1  0
 16 17  1  0
 17 18  1  0
 18 19  1  0
 19 20  2  0
 20 21  1  0
 20 22  1  0
 22 23  2  0
 23 24  1  0
 24 25  2  0
 25 26  1  0
 26 27  2  0
 27 28  1  0
 25 29  1  0
  9  4  1  0
 21 17  2  0
 27 22  1  0
  3 30  1  0
  5 31  1  0
  6 32  1  0
  8 33  1  0
 15 34  1  0
 15 35  1  0
 16 36  1  0
 16 37  1  0
 23 38  1  0
 24 39  1  0
 26 40  1  0
M  END
>  <Ligand ID>  (1) 
LIG0005781

>  <Ligand>  (1) 
CHEMBL500134

>  <SMILES>  (1) 
O=C(Nc1ccc(cc1Cl)C(F)(F)F)CCc1onc(n1)c1ccc(cc1Cl)F

>  <CID>  (1) 
25033943.0

>  <ChEMBL ID>  (1) 
nan

>  <InChiKey>  (1) 
WXRLDKFKDMBCCE-UHFFFAOYSA-N

>  <InChi>  (1) 
InChI=1S/C18H11Cl2F4N3O2/c19-12-8-10(21)2-3-11(12)17-26-16(29-27-17)6-5-15(28)25-14-4-1-9(7-13(14)20)18(22,23)24/h1-4,7-8H,5-6H2,(H,25,28)

>  <IUPAC Name>  (1) 
3-[3-(2-chloro-4-fluorophenyl)-1,2,4-oxadiazol-5-yl]-N-[2-chloro-4-(trifluoromethyl)phenyl]propanamide

$$$$
