
     RDKit          3D

 25 26  0  0  0  0  0  0  0  0999 V2000
    4.6817    1.4129   -2.2120 Cl  0  0  0  0  0  0  0  0  0  0  0  0
    3.8255    0.5044   -0.9568 C   0  0  0  0  0  0  0  0  0  0  0  0
    4.5171    0.0381    0.1671 C   0  0  0  0  0  0  0  0  0  0  0  0
    3.8316   -0.6686    1.1351 C   0  0  0  0  0  0  0  0  0  0  0  0
    2.4643   -0.9284    1.0178 C   0  0  0  0  0  0  0  0  0  0  0  0
    1.8098   -0.4555   -0.1024 C   0  0  0  0  0  0  0  0  0  0  0  0
    2.4614    0.2554   -1.0922 C   0  0  0  0  0  0  0  0  0  0  0  0
    0.3988   -0.6785   -0.3038 N   0  0  0  0  0  0  0  0  0  0  0  0
   -0.5350    0.2768    0.1957 C   0  0  0  0  0  0  0  0  0  0  0  0
   -0.0168    1.2780    0.7971 O   0  0  0  0  0  0  0  0  0  0  0  0
   -1.9682    0.1213    0.0318 C   0  0  0  0  0  0  0  0  0  0  0  0
   -2.7804    1.1125    0.5583 C   0  0  0  0  0  0  0  0  0  0  0  0
   -4.1577    1.0719    0.4632 C   0  0  0  0  0  0  0  0  0  0  0  0
   -4.7083   -0.0306   -0.1980 C   0  0  0  0  0  0  0  0  0  0  0  0
   -3.8711   -1.0192   -0.7217 C   0  0  0  0  0  0  0  0  0  0  0  0
   -2.5317   -0.9260   -0.5984 N   0  0  0  0  0  0  0  0  0  0  0  0
    5.5851    0.2427    0.2558 H   0  0  0  0  0  0  0  0  0  0  0  0
    4.3372   -1.0454    2.0209 H   0  0  0  0  0  0  0  0  0  0  0  0
    1.9326   -1.4812    1.7768 H   0  0  0  0  0  0  0  0  0  0  0  0
    1.9148    0.6125   -1.9602 H   0  0  0  0  0  0  0  0  0  0  0  0
    0.0529   -1.5333   -0.8123 H   0  0  0  0  0  0  0  0  0  0  0  0
   -2.3578    1.9737    1.0744 H   0  0  0  0  0  0  0  0  0  0  0  0
   -4.7735    1.8541    0.8800 H   0  0  0  0  0  0  0  0  0  0  0  0
   -5.8019   -0.1088   -0.2998 H   0  0  0  0  0  0  0  0  0  0  0  0
   -4.3103   -1.8790   -1.2379 H   0  0  0  0  0  0  0  0  0  0  0  0
  1  2  1  0
  2  3  2  0
  3  4  1  0
  4  5  2  0
  5  6  1  0
  6  7  2  0
  6  8  1  0
  8  9  1  0
  9 10  2  0
  9 11  1  0
 11 12  2  0
 12 13  1  0
 13 14  2  0
 14 15  1  0
 15 16  2  0
  7  2  1  0
 16 11  1  0
  3 17  1  0
  4 18  1  0
  5 19  1  0
  7 20  1  0
  8 21  1  0
 12 22  1  0
 13 23  1  0
 14 24  1  0
 15 25  1  0
M  END
>  <Ligand ID>  (1) 
LIG0000498

>  <Ligand>  (1) 
61350-00-3

>  <SMILES>  (1) 
Clc1cccc(c1)NC(=O)c1ccccn1

>  <CID>  (1) 
836002.0

>  <ChEMBL ID>  (1) 
nan

>  <InChiKey>  (1) 
SUYUTNCKIOLMAJ-UHFFFAOYSA-N

>  <InChi>  (1) 
InChI=1S/C12H9ClN2O/c13-9-4-3-5-10(8-9)15-12(16)11-6-1-2-7-14-11/h1-8H,(H,15,16)

>  <IUPAC Name>  (1) 
N-(3-chlorophenyl)pyridine-2-carboxamide

$$$$
