
     RDKit          3D

141146  0  0  0  0  0  0  0  0999 V2000
   -2.2795    3.3294    0.2250 C   0  0  0  0  0  0  0  0  0  0  0  0
   -3.5669    2.8791    0.8497 C   0  0  0  0  0  0  0  0  0  0  0  0
   -3.4295    2.0234    2.0562 C   0  0  0  0  0  0  0  0  0  0  0  0
   -2.7293    0.7269    1.9142 C   0  0  1  0  0  0  0  0  0  0  0  0
   -3.3688   -0.2080    0.9193 C   0  0  0  0  0  0  0  0  0  0  0  0
   -2.6614   -0.8841    0.1325 O   0  0  0  0  0  0  0  0  0  0  0  0
   -4.7892   -0.2621    0.9512 N   0  0  0  0  0  0  0  0  0  0  0  0
   -5.5416   -1.1579    0.0508 C   0  0  2  0  0  0  0  0  0  0  0  0
   -6.2176   -0.4757   -1.0296 C   0  0  0  0  0  0  0  0  0  0  0  0
   -6.2001    0.8065   -1.0206 O   0  0  0  0  0  0  0  0  0  0  0  0
   -6.9035   -1.0629   -2.1183 N   0  0  0  0  0  0  0  0  0  0  0  0
   -7.4924   -0.2003   -3.1160 C   0  0  0  0  0  0  0  0  0  0  0  0
   -8.8972    0.1622   -2.8857 C   0  0  0  0  0  0  0  0  0  0  0  0
   -9.3027    1.2712   -2.1551 C   0  0  0  0  0  0  0  0  0  0  0  0
  -10.6347    1.5835   -1.9840 C   0  0  0  0  0  0  0  0  0  0  0  0
  -11.5852    0.7827   -2.5470 C   0  0  0  0  0  0  0  0  0  0  0  0
  -11.2063   -0.3243   -3.2779 C   0  0  0  0  0  0  0  0  0  0  0  0
   -9.8830   -0.6437   -3.4534 C   0  0  0  0  0  0  0  0  0  0  0  0
  -12.2249   -1.2254   -3.9171 C   0  0  0  0  0  0  0  0  0  0  0  0
  -12.1734   -1.1228   -5.2952 F   0  0  0  0  0  0  0  0  0  0  0  0
  -13.4886   -0.9479   -3.4590 F   0  0  0  0  0  0  0  0  0  0  0  0
  -11.8918   -2.5336   -3.6169 F   0  0  0  0  0  0  0  0  0  0  0  0
  -10.9913    2.8034   -1.1833 C   0  0  0  0  0  0  0  0  0  0  0  0
   -9.8947    3.5952   -1.0449 F   0  0  0  0  0  0  0  0  0  0  0  0
  -11.4601    2.4392    0.0376 F   0  0  0  0  0  0  0  0  0  0  0  0
  -12.0183    3.4097   -1.8871 F   0  0  0  0  0  0  0  0  0  0  0  0
   -7.0383   -2.5018   -2.3104 C   0  0  0  0  0  0  0  0  0  0  0  0
   -6.2832   -2.1530    0.8712 C   0  0  0  0  0  0  0  0  0  0  0  0
   -7.2396   -1.5927    1.8341 C   0  0  0  0  0  0  0  0  0  0  0  0
   -6.9238   -1.3653    3.1735 C   0  0  0  0  0  0  0  0  0  0  0  0
   -8.0038   -0.8034    3.7757 N   0  0  0  0  0  0  0  0  0  0  0  0
   -9.0075   -0.6528    2.9028 C   0  0  0  0  0  0  0  0  0  0  0  0
   -8.5296   -1.1419    1.7057 C   0  0  0  0  0  0  0  0  0  0  0  0
   -9.3915   -1.1155    0.6365 C   0  0  0  0  0  0  0  0  0  0  0  0
  -10.6753   -0.6211    0.7549 C   0  0  0  0  0  0  0  0  0  0  0  0
  -11.1637   -0.1204    1.9711 C   0  0  0  0  0  0  0  0  0  0  0  0
  -10.2918   -0.1510    3.0447 C   0  0  0  0  0  0  0  0  0  0  0  0
   -1.3150    0.7541    1.8468 N   0  0  0  0  0  0  0  0  0  0  0  0
   -0.5391    0.0250    2.7486 C   0  0  0  0  0  0  0  0  0  0  0  0
   -1.1930   -0.6644    3.6286 O   0  0  0  0  0  0  0  0  0  0  0  0
    0.9148   -0.0977    2.8735 C   0  0  2  0  0  0  0  0  0  0  0  0
    1.3085    0.4587    4.2922 C   0  0  0  0  0  0  0  0  0  0  0  0
    1.1455    1.9361    4.0098 C   0  0  0  0  0  0  0  0  0  0  0  0
    1.5771    2.1507    2.5914 C   0  0  0  0  0  0  0  0  0  0  0  0
    1.7611    0.7455    2.1078 N   0  0  0  0  0  0  0  0  0  0  0  0
    2.7237    0.5276    1.0911 C   0  0  0  0  0  0  0  0  0  0  0  0
    3.3779    1.6246    0.7864 O   0  0  0  0  0  0  0  0  0  0  0  0
    3.1199   -0.6337    0.3413 C   0  0  2  0  0  0  0  0  0  0  0  0
    3.1692   -1.9721    0.9644 C   0  0  0  0  0  0  0  0  0  0  0  0
    3.6849   -2.9689   -0.0690 C   0  0  0  0  0  0  0  0  0  0  0  0
    2.8636   -3.5671   -0.9758 C   0  0  0  0  0  0  0  0  0  0  0  0
    3.4354   -4.4754   -1.8484 C   0  0  0  0  0  0  0  0  0  0  0  0
    4.7638   -4.8081   -1.8566 C   0  0  0  0  0  0  0  0  0  0  0  0
    5.5810   -4.1856   -0.9204 C   0  0  0  0  0  0  0  0  0  0  0  0
    5.0385   -3.2750   -0.0382 C   0  0  0  0  0  0  0  0  0  0  0  0
    4.3808   -0.3746   -0.3675 N   0  0  0  0  0  0  0  0  0  0  0  0
    4.4578    0.0292   -1.7149 C   0  0  0  0  0  0  0  0  0  0  0  0
    3.3880    0.1890   -2.3759 O   0  0  0  0  0  0  0  0  0  0  0  0
    5.7235    0.2883   -2.4469 C   0  0  0  0  0  0  0  0  0  0  0  0
    6.8470    0.0910   -1.5667 N   0  0  0  0  0  0  0  0  0  0  0  0
    7.1097    0.8672   -0.4093 C   0  0  0  0  0  0  0  0  0  0  0  0
    6.3509    1.8422   -0.0678 O   0  0  0  0  0  0  0  0  0  0  0  0
    8.2639    0.6103    0.4865 C   0  0  2  0  0  0  0  0  0  0  0  0
    9.1083   -0.4734    0.0047 N   0  0  0  0  0  0  0  0  0  0  0  0
   10.5302   -0.2626    0.0465 C   0  0  0  0  0  0  0  0  0  0  0  0
   10.9606    0.8264    0.4917 O   0  0  0  0  0  0  0  0  0  0  0  0
   11.5021   -1.2836   -0.4138 C   0  0  2  0  0  0  0  0  0  0  0  0
   12.2372   -0.8078   -1.6292 C   0  0  0  0  0  0  0  0  0  0  0  0
   12.9771    0.4425   -1.3530 C   0  0  0  0  0  0  0  0  0  0  0  0
   12.4692    1.7051   -1.5881 C   0  0  0  0  0  0  0  0  0  0  0  0
   13.2308    2.8101   -1.2906 C   0  0  0  0  0  0  0  0  0  0  0  0
   14.5143    2.7211   -0.7550 C   0  0  0  0  0  0  0  0  0  0  0  0
   15.0175    1.4707   -0.5233 C   0  0  0  0  0  0  0  0  0  0  0  0
   14.2503    0.3423   -0.8206 C   0  0  0  0  0  0  0  0  0  0  0  0
   15.2506    3.8561   -0.4682 O   0  0  0  0  0  0  0  0  0  0  0  0
   10.7355   -2.4562   -0.8279 N   0  0  0  0  0  0  0  0  0  0  0  0
    7.7053    0.1015    1.8366 C   0  0  0  0  0  0  0  0  0  0  0  0
   -4.3648    4.1098    1.2470 C   0  0  0  0  0  0  0  0  0  0  0  0
   -2.4060    4.3033   -0.3272 H   0  0  0  0  0  0  0  0  0  0  0  0
   -1.5432    3.5551    1.0140 H   0  0  0  0  0  0  0  0  0  0  0  0
   -1.9167    2.6300   -0.5591 H   0  0  0  0  0  0  0  0  0  0  0  0
   -4.1403    2.3724    0.0276 H   0  0  0  0  0  0  0  0  0  0  0  0
   -4.4329    1.8982    2.5733 H   0  0  0  0  0  0  0  0  0  0  0  0
   -2.8576    2.6398    2.8160 H   0  0  0  0  0  0  0  0  0  0  0  0
   -2.9948    0.1710    2.8998 H   0  0  0  0  0  0  0  0  0  0  0  0
   -5.3336    0.3339    1.6200 H   0  0  0  0  0  0  0  0  0  0  0  0
   -4.7060   -1.7534   -0.4494 H   0  0  0  0  0  0  0  0  0  0  0  0
   -7.4553   -0.6729   -4.1371 H   0  0  0  0  0  0  0  0  0  0  0  0
   -6.9272    0.7514   -3.2422 H   0  0  0  0  0  0  0  0  0  0  0  0
   -8.5783    1.9170   -1.7056 H   0  0  0  0  0  0  0  0  0  0  0  0
  -12.6253    1.0054   -2.4316 H   0  0  0  0  0  0  0  0  0  0  0  0
   -9.5879   -1.5160   -4.0302 H   0  0  0  0  0  0  0  0  0  0  0  0
   -7.1291   -2.6626   -3.4337 H   0  0  0  0  0  0  0  0  0  0  0  0
   -7.9363   -2.9367   -1.8798 H   0  0  0  0  0  0  0  0  0  0  0  0
   -6.1183   -3.0452   -2.0422 H   0  0  0  0  0  0  0  0  0  0  0  0
   -5.5208   -2.7698    1.4087 H   0  0  0  0  0  0  0  0  0  0  0  0
   -6.8022   -2.9020    0.2129 H   0  0  0  0  0  0  0  0  0  0  0  0
   -6.0123   -1.5714    3.7063 H   0  0  0  0  0  0  0  0  0  0  0  0
   -8.0587   -0.5164    4.7926 H   0  0  0  0  0  0  0  0  0  0  0  0
   -9.0197   -1.4980   -0.3015 H   0  0  0  0  0  0  0  0  0  0  0  0
  -11.3639   -0.6000   -0.0578 H   0  0  0  0  0  0  0  0  0  0  0  0
  -12.1632    0.2675    2.0628 H   0  0  0  0  0  0  0  0  0  0  0  0
  -10.6234    0.2297    4.0110 H   0  0  0  0  0  0  0  0  0  0  0  0
   -0.7960    1.3184    1.1089 H   0  0  0  0  0  0  0  0  0  0  0  0
    1.2357   -1.1690    2.8794 H   0  0  0  0  0  0  0  0  0  0  0  0
    2.3264    0.1384    4.4984 H   0  0  0  0  0  0  0  0  0  0  0  0
    0.5928    0.0988    5.0254 H   0  0  0  0  0  0  0  0  0  0  0  0
    1.8232    2.5072    4.6917 H   0  0  0  0  0  0  0  0  0  0  0  0
    0.0801    2.2175    4.1659 H   0  0  0  0  0  0  0  0  0  0  0  0
    2.5588    2.6969    2.5357 H   0  0  0  0  0  0  0  0  0  0  0  0
    0.8999    2.7194    1.9609 H   0  0  0  0  0  0  0  0  0  0  0  0
    2.3759   -0.6446   -0.5527 H   0  0  0  0  0  0  0  0  0  0  0  0
    2.1808   -2.3461    1.3135 H   0  0  0  0  0  0  0  0  0  0  0  0
    3.8665   -2.0451    1.8125 H   0  0  0  0  0  0  0  0  0  0  0  0
    1.8232   -3.3191   -0.9866 H   0  0  0  0  0  0  0  0  0  0  0  0
    2.7964   -4.9740   -2.5949 H   0  0  0  0  0  0  0  0  0  0  0  0
    5.1965   -5.5312   -2.5556 H   0  0  0  0  0  0  0  0  0  0  0  0
    6.6353   -4.4089   -0.8790 H   0  0  0  0  0  0  0  0  0  0  0  0
    5.7063   -2.8249    0.6706 H   0  0  0  0  0  0  0  0  0  0  0  0
    5.2351   -0.5354    0.1990 H   0  0  0  0  0  0  0  0  0  0  0  0
    5.7043    1.3513   -2.8145 H   0  0  0  0  0  0  0  0  0  0  0  0
    5.8268   -0.3519   -3.3369 H   0  0  0  0  0  0  0  0  0  0  0  0
    7.5315   -0.6919   -1.8029 H   0  0  0  0  0  0  0  0  0  0  0  0
    8.8801    1.4824    0.7066 H   0  0  0  0  0  0  0  0  0  0  0  0
    8.7499   -1.3738   -0.3572 H   0  0  0  0  0  0  0  0  0  0  0  0
   12.1691   -1.6182    0.3905 H   0  0  0  0  0  0  0  0  0  0  0  0
   12.9886   -1.5593   -1.9903 H   0  0  0  0  0  0  0  0  0  0  0  0
   11.5536   -0.6225   -2.4945 H   0  0  0  0  0  0  0  0  0  0  0  0
   11.4648    1.7947   -2.0108 H   0  0  0  0  0  0  0  0  0  0  0  0
   12.8592    3.8277   -1.4569 H   0  0  0  0  0  0  0  0  0  0  0  0
   16.0054    1.2905   -0.1081 H   0  0  0  0  0  0  0  0  0  0  0  0
   14.6782   -0.6521   -0.6170 H   0  0  0  0  0  0  0  0  0  0  0  0
   15.2468    4.6673   -1.0596 H   0  0  0  0  0  0  0  0  0  0  0  0
   10.1083   -2.2522   -1.6407 H   0  0  0  0  0  0  0  0  0  0  0  0
   10.2772   -2.8204    0.0120 H   0  0  0  0  0  0  0  0  0  0  0  0
    7.3932   -0.9543    1.6950 H   0  0  0  0  0  0  0  0  0  0  0  0
    6.8167    0.7091    2.0598 H   0  0  0  0  0  0  0  0  0  0  0  0
    8.4641    0.1994    2.6108 H   0  0  0  0  0  0  0  0  0  0  0  0
   -5.4591    3.9388    1.0822 H   0  0  0  0  0  0  0  0  0  0  0  0
   -4.0416    5.0247    0.7091 H   0  0  0  0  0  0  0  0  0  0  0  0
   -4.1841    4.3185    2.3404 H   0  0  0  0  0  0  0  0  0  0  0  0
  1  2  1  0
  2  3  1  0
  3  4  1  0
  4  5  1  0
  5  6  2  0
  5  7  1  0
  7  8  1  0
  8  9  1  0
  9 10  2  0
  9 11  1  0
 11 12  1  0
 12 13  1  0
 13 14  2  0
 14 15  1  0
 15 16  2  0
 16 17  1  0
 17 18  2  0
 17 19  1  0
 19 20  1  0
 19 21  1  0
 19 22  1  0
 15 23  1  0
 23 24  1  0
 23 25  1  0
 23 26  1  0
 11 27  1  0
  8 28  1  0
 28 29  1  0
 29 30  2  0
 30 31  1  0
 31 32  1  0
 32 33  2  0
 33 34  1  0
 34 35  2  0
 35 36  1  0
 36 37  2  0
  4 38  1  0
 38 39  1  0
 39 40  2  0
 39 41  1  0
 41 42  1  0
 42 43  1  0
 43 44  1  0
 44 45  1  0
 45 46  1  0
 46 47  2  0
 46 48  1  0
 48 49  1  0
 49 50  1  0
 50 51  2  0
 51 52  1  0
 52 53  2  0
 53 54  1  0
 54 55  2  0
 48 56  1  0
 56 57  1  0
 57 58  2  0
 57 59  1  0
 59 60  1  0
 60 61  1  0
 61 62  2  0
 61 63  1  0
 63 64  1  0
 64 65  1  0
 65 66  2  0
 65 67  1  0
 67 68  1  0
 68 69  1  0
 69 70  2  0
 70 71  1  0
 71 72  2  0
 72 73  1  0
 73 74  2  0
 72 75  1  0
 67 76  1  0
 63 77  1  0
  2 78  1  0
 18 13  1  0
 33 29  1  0
 45 41  1  0
 55 50  1  0
 74 69  1  0
 37 32  1  0
  1 79  1  0
  1 80  1  0
  1 81  1  0
  2 82  1  0
  3 83  1  0
  3 84  1  0
  4 85  1  1
  7 86  1  0
  8 87  1  6
 12 88  1  0
 12 89  1  0
 14 90  1  0
 16 91  1  0
 18 92  1  0
 27 93  1  0
 27 94  1  0
 27 95  1  0
 28 96  1  0
 28 97  1  0
 30 98  1  0
 31 99  1  0
 34100  1  0
 35101  1  0
 36102  1  0
 37103  1  0
 38104  1  0
 41105  1  1
 42106  1  0
 42107  1  0
 43108  1  0
 43109  1  0
 44110  1  0
 44111  1  0
 48112  1  6
 49113  1  0
 49114  1  0
 51115  1  0
 52116  1  0
 53117  1  0
 54118  1  0
 55119  1  0
 56120  1  0
 59121  1  0
 59122  1  0
 60123  1  0
 63124  1  1
 64125  1  0
 67126  1  1
 68127  1  0
 68128  1  0
 70129  1  0
 71130  1  0
 73131  1  0
 74132  1  0
 75133  1  0
 76134  1  0
 76135  1  0
 77136  1  0
 77137  1  0
 77138  1  0
 78139  1  0
 78140  1  0
 78141  1  0
M  END
>  <Ligand ID>  (1) 
LIG0005384

>  <Ligand>  (1) 
H-Tyr-D-Ala-Gly-Phe-Pro-Leu-Trp-NMe-3,5-Bzl(CF3)2

>  <SMILES>  (1) 
CC(C[C@@H](C(=O)N[C@H](C(=O)N(Cc1cc(cc(c1)C(F)(F)F)C(F)(F)F)C)Cc1c[nH]c2c1cccc2)NC(=O)[C@@H]1CCCN1C(=O)[C@H](Cc1ccccc1)NC(=O)CNC(=O)[C@H](NC(=O)[C@H](Cc1ccc(cc1)O)N)C)C

>  <CID>  (1) 
24768356.0

>  <ChEMBL ID>  (1) 
nan

>  <InChiKey>  (1) 
IRIFESWSRQBRPW-CKWXOEDFSA-N

>  <InChi>  (1) 
InChI=1S/C55H63F6N9O8/c1-31(2)21-43(50(75)68-45(26-36-28-63-42-14-9-8-13-40(36)42)52(77)69(4)30-35-22-37(54(56,57)58)27-38(23-35)55(59,60)61)67-51(76)46-15-10-20-70(46)53(78)44(25-33-11-6-5-7-12-33)66-47(72)29-64-48(73)32(3)65-49(74)41(62)24-34-16-18-39(71)19-17-34/h5-9,11-14,16-19,22-23,27-28,31-32,41,43-46,63,71H,10,15,20-21,24-26,29-30,62H2,1-4H3,(H,64,73)(H,65,74)(H,66,72)(H,67,76)(H,68,75)/t32-,41+,43+,44+,45+,46+/m1/s1

>  <IUPAC Name>  (1) 
(2S)-1-[(2S)-2-[[2-[[(2R)-2-[[(2S)-2-amino-3-(4-hydroxyphenyl)propanoyl]amino]propanoyl]amino]acetyl]amino]-3-phenylpropanoyl]-N-[(2S)-1-[[(2S)-1-[[3,5-bis(trifluoromethyl)phenyl]methyl-methylamino]-3-(1H-indol-3-yl)-1-oxopropan-2-yl]amino]-4-methyl-1-oxopentan-2-yl]pyrrolidine-2-carboxamide

$$$$
