
     RDKit          3D

158163  0  0  0  0  0  0  0  0999 V2000
   11.4022   -1.4222    1.9101 C   0  0  0  0  0  0  0  0  0  0  0  0
   11.0511   -2.8976    1.8831 C   0  0  0  0  0  0  0  0  0  0  0  0
   10.8397   -3.4201    0.5056 C   0  0  0  0  0  0  0  0  0  0  0  0
    9.7506   -2.8078   -0.2963 C   0  0  0  0  0  0  0  0  0  0  0  0
    8.3671   -2.9524    0.2078 C   0  0  2  0  0  0  0  0  0  0  0  0
    7.3537   -2.2952   -0.6979 C   0  0  0  0  0  0  0  0  0  0  0  0
    7.6869   -2.2471   -1.9156 O   0  0  0  0  0  0  0  0  0  0  0  0
    6.1070   -1.7721   -0.2248 N   0  0  0  0  0  0  0  0  0  0  0  0
    5.2584   -1.1816   -1.2005 C   0  0  1  0  0  0  0  0  0  0  0  0
    4.4867   -2.3446   -1.8795 C   0  0  0  0  0  0  0  0  0  0  0  0
    3.9481   -3.2666   -0.8572 C   0  0  0  0  0  0  0  0  0  0  0  0
    3.8126   -3.0470    0.3467 O   0  0  0  0  0  0  0  0  0  0  0  0
    3.5239   -4.6053   -1.2432 N   0  0  0  0  0  0  0  0  0  0  0  0
    3.0252   -5.5873   -0.3379 C   0  0  0  0  0  0  0  0  0  0  0  0
    1.7483   -5.2255    0.3613 C   0  0  0  0  0  0  0  0  0  0  0  0
    0.6167   -5.0357   -0.6550 C   0  0  0  0  0  0  0  0  0  0  0  0
   -0.7166   -4.8035    0.0084 C   0  0  0  0  0  0  0  0  0  0  0  0
   -1.7313   -4.4489   -1.0591 C   0  0  1  0  0  0  0  0  0  0  0  0
   -1.9023   -5.5296   -2.0099 C   0  0  0  0  0  0  0  0  0  0  0  0
   -1.0240   -5.9573   -2.8160 O   0  0  0  0  0  0  0  0  0  0  0  0
   -3.1621   -6.2349   -2.1098 N   0  0  0  0  0  0  0  0  0  0  0  0
   -3.0312   -4.1259   -0.4518 N   0  0  0  0  0  0  0  0  0  0  0  0
   -3.8978   -5.0635    0.1600 C   0  0  0  0  0  0  0  0  0  0  0  0
   -3.4401   -2.7646   -0.4154 C   0  0  0  0  0  0  0  0  0  0  0  0
   -2.5477   -1.9954   -0.7664 O   0  0  0  0  0  0  0  0  0  0  0  0
   -4.7459   -2.2246   -0.0058 C   0  0  1  0  0  0  0  0  0  0  0  0
   -4.6014   -0.8242    0.4460 N   0  0  0  0  0  0  0  0  0  0  0  0
   -4.0651    0.1980   -0.3794 C   0  0  0  0  0  0  0  0  0  0  0  0
   -3.8344   -0.1251   -1.5280 O   0  0  0  0  0  0  0  0  0  0  0  0
   -3.7735    1.5866    0.0621 C   0  0  1  0  0  0  0  0  0  0  0  0
   -2.7604    2.0482   -0.9080 N   0  0  0  0  0  0  0  0  0  0  0  0
   -1.4036    2.2020   -0.4829 C   0  0  0  0  0  0  0  0  0  0  0  0
   -1.1893    2.0073    0.7171 O   0  0  0  0  0  0  0  0  0  0  0  0
   -0.3027    2.5763   -1.4284 C   0  0  2  0  0  0  0  0  0  0  0  0
    0.9612    2.6854   -0.7410 N   0  0  0  0  0  0  0  0  0  0  0  0
    1.8945    1.6087   -0.5922 C   0  0  0  0  0  0  0  0  0  0  0  0
    1.5343    0.5183   -0.9971 O   0  0  0  0  0  0  0  0  0  0  0  0
    3.2264    1.9291    0.0533 C   0  0  1  0  0  0  0  0  0  0  0  0
    4.0333    0.6940    0.1467 N   0  0  0  0  0  0  0  0  0  0  0  0
    4.4216   -0.0550   -0.9936 C   0  0  0  0  0  0  0  0  0  0  0  0
    3.8544    0.4421   -2.0355 O   0  0  0  0  0  0  0  0  0  0  0  0
    4.4249    0.1779    1.4118 C   0  0  0  0  0  0  0  0  0  0  0  0
    3.8765    2.9972   -0.7668 C   0  0  0  0  0  0  0  0  0  0  0  0
    5.1551    3.4839   -0.2585 C   0  0  0  0  0  0  0  0  0  0  0  0
    5.8698    4.4367   -0.9505 N   0  0  0  0  0  0  0  0  0  0  0  0
    6.9797    4.7522   -0.2736 C   0  0  0  0  0  0  0  0  0  0  0  0
    7.0151    4.0283    0.8529 N   0  0  0  0  0  0  0  0  0  0  0  0
    5.8938    3.2491    0.8628 C   0  0  0  0  0  0  0  0  0  0  0  0
   -0.6076    3.7348   -2.2974 C   0  0  0  0  0  0  0  0  0  0  0  0
   -0.8936    4.9812   -1.5641 C   0  0  0  0  0  0  0  0  0  0  0  0
    0.1299    5.8410   -1.2198 C   0  0  0  0  0  0  0  0  0  0  0  0
   -0.1098    7.0305   -0.5231 C   0  0  0  0  0  0  0  0  0  0  0  0
   -1.3974    7.3753   -0.1577 C   0  0  0  0  0  0  0  0  0  0  0  0
   -2.4279    6.5315   -0.4920 C   0  0  0  0  0  0  0  0  0  0  0  0
   -2.1689    5.3687   -1.1773 C   0  0  0  0  0  0  0  0  0  0  0  0
   -3.7352    6.8626   -0.1303 C   0  0  0  0  0  0  0  0  0  0  0  0
   -4.0426    7.9977    0.5480 C   0  0  0  0  0  0  0  0  0  0  0  0
   -2.9954    8.8455    0.8825 C   0  0  0  0  0  0  0  0  0  0  0  0
   -1.6917    8.5277    0.5286 C   0  0  0  0  0  0  0  0  0  0  0  0
   -4.9051    2.5075    0.1935 C   0  0  0  0  0  0  0  0  0  0  0  0
   -5.6991    2.7943   -1.0219 C   0  0  0  0  0  0  0  0  0  0  0  0
   -6.8463    3.7516   -0.7076 C   0  0  0  0  0  0  0  0  0  0  0  0
   -7.7349    3.1834    0.2834 N   0  0  0  0  0  0  0  0  0  0  0  0
   -8.1334    3.9371    1.2446 C   0  0  0  0  0  0  0  0  0  0  0  0
   -7.7069    5.2979    1.3245 N   0  0  0  0  0  0  0  0  0  0  0  0
   -9.0032    3.3566    2.2055 N   0  0  0  0  0  0  0  0  0  0  0  0
   -5.0065   -0.4187    1.7383 C   0  0  0  0  0  0  0  0  0  0  0  0
   -5.7374   -2.4034   -1.1196 C   0  0  0  0  0  0  0  0  0  0  0  0
   -7.0994   -1.8928   -0.8115 C   0  0  0  0  0  0  0  0  0  0  0  0
   -7.7471   -0.7694   -1.2755 C   0  0  0  0  0  0  0  0  0  0  0  0
   -8.9768   -0.6607   -0.7627 N   0  0  0  0  0  0  0  0  0  0  0  0
   -9.1471   -1.7172    0.0452 C   0  0  0  0  0  0  0  0  0  0  0  0
   -8.0094   -2.5014    0.0411 C   0  0  0  0  0  0  0  0  0  0  0  0
   -7.9159   -3.6594    0.7900 C   0  0  0  0  0  0  0  0  0  0  0  0
   -9.0139   -4.0000    1.5475 C   0  0  0  0  0  0  0  0  0  0  0  0
  -10.1655   -3.2333    1.5721 C   0  0  0  0  0  0  0  0  0  0  0  0
  -10.2514   -2.0708    0.8154 C   0  0  0  0  0  0  0  0  0  0  0  0
    8.1045   -2.6999    1.5836 N   0  0  0  0  0  0  0  0  0  0  0  0
    8.0023   -1.3629    2.0651 C   0  0  0  0  0  0  0  0  0  0  0  0
    8.1390   -0.3546    1.3202 O   0  0  0  0  0  0  0  0  0  0  0  0
    7.7235   -1.1000    3.5037 C   0  0  0  0  0  0  0  0  0  0  0  0
   11.3713   -1.0200    0.8794 H   0  0  0  0  0  0  0  0  0  0  0  0
   12.4685   -1.2797    2.2355 H   0  0  0  0  0  0  0  0  0  0  0  0
   10.7683   -0.8364    2.6097 H   0  0  0  0  0  0  0  0  0  0  0  0
   10.2472   -3.0706    2.5990 H   0  0  0  0  0  0  0  0  0  0  0  0
   11.9418   -3.4386    2.3424 H   0  0  0  0  0  0  0  0  0  0  0  0
   10.7232   -4.5414    0.5375 H   0  0  0  0  0  0  0  0  0  0  0  0
   11.8016   -3.2439   -0.0614 H   0  0  0  0  0  0  0  0  0  0  0  0
   10.0102   -1.7175   -0.4278 H   0  0  0  0  0  0  0  0  0  0  0  0
    9.8531   -3.2288   -1.3412 H   0  0  0  0  0  0  0  0  0  0  0  0
    8.0967   -4.0685    0.0245 H   0  0  0  0  0  0  0  0  0  0  0  0
    5.9284   -1.8871    0.7908 H   0  0  0  0  0  0  0  0  0  0  0  0
    6.0003   -0.8527   -2.0766 H   0  0  0  0  0  0  0  0  0  0  0  0
    3.6839   -1.8682   -2.4439 H   0  0  0  0  0  0  0  0  0  0  0  0
    5.1665   -2.8698   -2.5880 H   0  0  0  0  0  0  0  0  0  0  0  0
    3.6186   -4.7805   -2.2462 H   0  0  0  0  0  0  0  0  0  0  0  0
    3.7994   -5.8944    0.4192 H   0  0  0  0  0  0  0  0  0  0  0  0
    2.8115   -6.5061   -0.9759 H   0  0  0  0  0  0  0  0  0  0  0  0
    1.4456   -6.0564    1.0126 H   0  0  0  0  0  0  0  0  0  0  0  0
    1.8620   -4.3382    0.9994 H   0  0  0  0  0  0  0  0  0  0  0  0
    0.6079   -5.9532   -1.3181 H   0  0  0  0  0  0  0  0  0  0  0  0
    0.9399   -4.2070   -1.3168 H   0  0  0  0  0  0  0  0  0  0  0  0
   -0.6439   -3.9305    0.6856 H   0  0  0  0  0  0  0  0  0  0  0  0
   -0.9958   -5.7366    0.5393 H   0  0  0  0  0  0  0  0  0  0  0  0
   -1.2762   -3.5253   -1.5069 H   0  0  0  0  0  0  0  0  0  0  0  0
   -3.2522   -7.0805   -1.4951 H   0  0  0  0  0  0  0  0  0  0  0  0
   -3.9135   -5.9063   -2.7580 H   0  0  0  0  0  0  0  0  0  0  0  0
   -4.6696   -5.4021   -0.5469 H   0  0  0  0  0  0  0  0  0  0  0  0
   -3.2965   -5.9155    0.6062 H   0  0  0  0  0  0  0  0  0  0  0  0
   -4.4586   -4.6578    1.0358 H   0  0  0  0  0  0  0  0  0  0  0  0
   -5.1421   -2.7749    0.8638 H   0  0  0  0  0  0  0  0  0  0  0  0
   -3.2482    1.4867    1.0198 H   0  0  0  0  0  0  0  0  0  0  0  0
   -2.9472    2.2736   -1.8776 H   0  0  0  0  0  0  0  0  0  0  0  0
   -0.1705    1.6599   -2.1000 H   0  0  0  0  0  0  0  0  0  0  0  0
    1.2360    3.5671   -0.3132 H   0  0  0  0  0  0  0  0  0  0  0  0
    3.0490    2.2860    1.0605 H   0  0  0  0  0  0  0  0  0  0  0  0
    5.5223    0.2396    1.5878 H   0  0  0  0  0  0  0  0  0  0  0  0
    4.0194   -0.7792    1.7216 H   0  0  0  0  0  0  0  0  0  0  0  0
    3.9847    0.9205    2.1595 H   0  0  0  0  0  0  0  0  0  0  0  0
    4.0272    2.7030   -1.8423 H   0  0  0  0  0  0  0  0  0  0  0  0
    3.1879    3.9100   -0.8036 H   0  0  0  0  0  0  0  0  0  0  0  0
    5.6098    4.8702   -1.8723 H   0  0  0  0  0  0  0  0  0  0  0  0
    7.7111    5.4712   -0.6002 H   0  0  0  0  0  0  0  0  0  0  0  0
    5.7005    2.5933    1.6857 H   0  0  0  0  0  0  0  0  0  0  0  0
   -1.4404    3.4786   -2.9868 H   0  0  0  0  0  0  0  0  0  0  0  0
    0.2749    3.9341   -2.9361 H   0  0  0  0  0  0  0  0  0  0  0  0
    1.1720    5.6591   -1.4636 H   0  0  0  0  0  0  0  0  0  0  0  0
    0.7013    7.7002   -0.2553 H   0  0  0  0  0  0  0  0  0  0  0  0
   -3.0167    4.7477   -1.4200 H   0  0  0  0  0  0  0  0  0  0  0  0
   -4.5577    6.1983   -0.3937 H   0  0  0  0  0  0  0  0  0  0  0  0
   -5.0808    8.2199    0.8137 H   0  0  0  0  0  0  0  0  0  0  0  0
   -3.2476    9.7466    1.4229 H   0  0  0  0  0  0  0  0  0  0  0  0
   -0.9040    9.2083    0.8037 H   0  0  0  0  0  0  0  0  0  0  0  0
   -4.5733    3.4941    0.5945 H   0  0  0  0  0  0  0  0  0  0  0  0
   -5.5788    2.1096    0.9935 H   0  0  0  0  0  0  0  0  0  0  0  0
   -6.1430    1.8893   -1.4714 H   0  0  0  0  0  0  0  0  0  0  0  0
   -5.1427    3.2861   -1.8390 H   0  0  0  0  0  0  0  0  0  0  0  0
   -7.4809    3.9015   -1.6282 H   0  0  0  0  0  0  0  0  0  0  0  0
   -6.4659    4.7569   -0.4406 H   0  0  0  0  0  0  0  0  0  0  0  0
   -6.8453    5.5403    1.8523 H   0  0  0  0  0  0  0  0  0  0  0  0
   -8.3011    6.0056    0.8313 H   0  0  0  0  0  0  0  0  0  0  0  0
   -9.5798    3.9516    2.8329 H   0  0  0  0  0  0  0  0  0  0  0  0
   -9.0916    2.3327    2.3123 H   0  0  0  0  0  0  0  0  0  0  0  0
   -4.8821   -1.2889    2.4229 H   0  0  0  0  0  0  0  0  0  0  0  0
   -6.0641   -0.1213    1.8265 H   0  0  0  0  0  0  0  0  0  0  0  0
   -4.4341    0.3988    2.2161 H   0  0  0  0  0  0  0  0  0  0  0  0
   -5.8707   -3.4984   -1.2358 H   0  0  0  0  0  0  0  0  0  0  0  0
   -5.3733   -2.0904   -2.1135 H   0  0  0  0  0  0  0  0  0  0  0  0
   -7.3144   -0.0707   -1.9721 H   0  0  0  0  0  0  0  0  0  0  0  0
   -9.6503    0.1101   -0.9715 H   0  0  0  0  0  0  0  0  0  0  0  0
   -7.0454   -4.2925    0.8074 H   0  0  0  0  0  0  0  0  0  0  0  0
   -8.9557   -4.9094    2.1405 H   0  0  0  0  0  0  0  0  0  0  0  0
  -11.0364   -3.4935    2.1640 H   0  0  0  0  0  0  0  0  0  0  0  0
  -11.1348   -1.4542    0.8148 H   0  0  0  0  0  0  0  0  0  0  0  0
    7.9653   -3.4778    2.2971 H   0  0  0  0  0  0  0  0  0  0  0  0
    8.6271   -0.5586    3.9051 H   0  0  0  0  0  0  0  0  0  0  0  0
    6.8302   -0.4541    3.5706 H   0  0  0  0  0  0  0  0  0  0  0  0
    7.5412   -2.0137    4.0813 H   0  0  0  0  0  0  0  0  0  0  0  0
  1  2  1  0
  2  3  1  0
  3  4  1  0
  4  5  1  0
  5  6  1  0
  6  7  2  0
  6  8  1  0
  8  9  1  0
  9 10  1  0
 10 11  1  0
 11 12  2  0
 11 13  1  0
 13 14  1  0
 14 15  1  0
 15 16  1  0
 16 17  1  0
 17 18  1  0
 18 19  1  0
 19 20  2  0
 19 21  1  0
 18 22  1  0
 22 23  1  0
 22 24  1  0
 24 25  2  0
 24 26  1  0
 26 27  1  0
 27 28  1  0
 28 29  2  0
 28 30  1  0
 30 31  1  0
 31 32  1  0
 32 33  2  0
 32 34  1  0
 34 35  1  0
 35 36  1  0
 36 37  2  0
 36 38  1  0
 38 39  1  0
 39 40  1  0
 40 41  2  0
 39 42  1  0
 38 43  1  0
 43 44  1  0
 44 45  1  0
 45 46  1  0
 46 47  2  0
 47 48  1  0
 34 49  1  0
 49 50  1  0
 50 51  2  0
 51 52  1  0
 52 53  2  0
 53 54  1  0
 54 55  2  0
 54 56  1  0
 56 57  2  0
 57 58  1  0
 58 59  2  0
 30 60  1  0
 60 61  1  0
 61 62  1  0
 62 63  1  0
 63 64  2  3
 64 65  1  0
 64 66  1  0
 27 67  1  0
 26 68  1  0
 68 69  1  0
 69 70  2  0
 70 71  1  0
 71 72  1  0
 72 73  2  0
 73 74  1  0
 74 75  2  0
 75 76  1  0
 76 77  2  0
  5 78  1  0
 78 79  1  0
 79 80  2  0
 79 81  1  0
 40  9  1  0
 48 44  2  0
 55 50  1  0
 73 69  1  0
 59 53  1  0
 77 72  1  0
  1 82  1  0
  1 83  1  0
  1 84  1  0
  2 85  1  0
  2 86  1  0
  3 87  1  0
  3 88  1  0
  4 89  1  0
  4 90  1  0
  5 91  1  1
  8 92  1  0
  9 93  1  6
 10 94  1  0
 10 95  1  0
 13 96  1  0
 14 97  1  0
 14 98  1  0
 15 99  1  0
 15100  1  0
 16101  1  0
 16102  1  0
 17103  1  0
 17104  1  0
 18105  1  6
 21106  1  0
 21107  1  0
 23108  1  0
 23109  1  0
 23110  1  0
 26111  1  1
 30112  1  1
 31113  1  0
 34114  1  6
 35115  1  0
 38116  1  1
 42117  1  0
 42118  1  0
 42119  1  0
 43120  1  0
 43121  1  0
 45122  1  0
 46123  1  0
 48124  1  0
 49125  1  0
 49126  1  0
 51127  1  0
 52128  1  0
 55129  1  0
 56130  1  0
 57131  1  0
 58132  1  0
 59133  1  0
 60134  1  0
 60135  1  0
 61136  1  0
 61137  1  0
 62138  1  0
 62139  1  0
 65140  1  0
 65141  1  0
 66142  1  0
 66143  1  0
 67144  1  0
 67145  1  0
 67146  1  0
 68147  1  0
 68148  1  0
 70149  1  0
 71150  1  0
 74151  1  0
 75152  1  0
 76153  1  0
 77154  1  0
 78155  1  0
 81156  1  0
 81157  1  0
 81158  1  0
M  END
>  <Ligand ID>  (1) 
LIG0001806

>  <Ligand>  (1) 
CHEMBL3600916

>  <SMILES>  (1) 
CCCC[C@H](C(=O)N[C@H]1CC(=O)NCCCC[C@@H](C(=O)N)N(C)C(=O)[C@@H](N(C(=O)[C@@H](NC(=O)[C@H](NC(=O)[C@@H](N(C1=O)C)Cc1[nH]cnc1)Cc1ccc2c(c1)cccc2)CCCN=C(N)N)C)Cc1c[nH]c2c1cccc2)NC(=O)C

>  <CID>  (1) 
122184635.0

>  <ChEMBL ID>  (1) 
nan

>  <InChiKey>  (1) 
WCVJJQCPIDBNFM-HEKKFFGGSA-N

>  <InChi>  (1) 
InChI=1S/C57H77N15O9/c1-6-7-18-42(66-34(2)73)51(76)69-45-30-49(74)62-24-13-12-21-46(50(58)75)70(3)56(81)48(28-38-31-64-41-19-11-10-17-40(38)41)72(5)54(79)43(20-14-25-63-57(59)60)67-52(77)44(27-35-22-23-36-15-8-9-16-37(36)26-35)68-53(78)47(71(4)55(45)80)29-39-32-61-33-65-39/h8-11,15-17,19,22-23,26,31-33,42-48,64H,6-7,12-14,18,20-21,24-25,27-30H2,1-5H3,(H2,58,75)(H,61,65)(H,62,74)(H,66,73)(H,67,77)(H,68,78)(H,69,76)(H4,59,60,63)/t42-,43+,44-,45+,46+,47+,48+/m1/s1

>  <IUPAC Name>  (1) 
(3S,6S,9R,12S,15S,23S)-15-[[(2R)-2-acetamidohexanoyl]amino]-6-[3-(diaminomethylideneamino)propyl]-12-(1H-imidazol-5-ylmethyl)-3-(1H-indol-3-ylmethyl)-1,4,13-trimethyl-9-(naphthalen-2-ylmethyl)-2,5,8,11,14,17-hexaoxo-1,4,7,10,13,18-hexazacyclotricosane-23-carboxamide

$$$$
