
     RDKit          3D

 25 25  0  0  0  0  0  0  0  0999 V2000
    4.9210    0.7163    0.7275 C   0  0  0  0  0  0  0  0  0  0  0  0
    4.0615   -0.0781   -0.1818 C   0  0  0  0  0  0  0  0  0  0  0  0
    4.6238   -0.9192   -0.9182 O   0  0  0  0  0  0  0  0  0  0  0  0
    2.6943    0.1204   -0.1978 O   0  0  0  0  0  0  0  0  0  0  0  0
    1.8153   -0.6037   -1.0414 C   0  0  0  0  0  0  0  0  0  0  0  0
    0.4496   -0.0877   -0.7464 C   0  0  0  0  0  0  0  0  0  0  0  0
   -0.5336   -0.8277   -0.3002 C   0  0  0  0  0  0  0  0  0  0  0  0
   -1.8743   -0.3412   -0.0063 C   0  0  0  0  0  0  0  0  0  0  0  0
   -2.8701   -1.2023    0.4690 C   0  0  0  0  0  0  0  0  0  0  0  0
   -4.1420   -0.7617    0.7522 C   0  0  0  0  0  0  0  0  0  0  0  0
   -4.4941    0.5582    0.5786 C   0  0  0  0  0  0  0  0  0  0  0  0
   -3.5363    1.4243    0.1134 C   0  0  0  0  0  0  0  0  0  0  0  0
   -2.2595    0.9736   -0.1691 C   0  0  0  0  0  0  0  0  0  0  0  0
    5.5711    1.4253    0.1388 H   0  0  0  0  0  0  0  0  0  0  0  0
    5.6245    0.0685    1.2992 H   0  0  0  0  0  0  0  0  0  0  0  0
    4.3764    1.3199    1.4534 H   0  0  0  0  0  0  0  0  0  0  0  0
    2.0628   -0.4761   -2.1098 H   0  0  0  0  0  0  0  0  0  0  0  0
    1.9227   -1.6723   -0.8018 H   0  0  0  0  0  0  0  0  0  0  0  0
    0.2822    0.9656   -0.9186 H   0  0  0  0  0  0  0  0  0  0  0  0
   -0.3330   -1.8776   -0.1385 H   0  0  0  0  0  0  0  0  0  0  0  0
   -2.6187   -2.2568    0.6165 H   0  0  0  0  0  0  0  0  0  0  0  0
   -4.8500   -1.4965    1.1159 H   0  0  0  0  0  0  0  0  0  0  0  0
   -5.5034    0.8550    0.8145 H   0  0  0  0  0  0  0  0  0  0  0  0
   -3.8289    2.4672   -0.0194 H   0  0  0  0  0  0  0  0  0  0  0  0
   -1.5612    1.7065   -0.5295 H   0  0  0  0  0  0  0  0  0  0  0  0
  1  2  1  0
  2  3  2  0
  2  4  1  0
  4  5  1  0
  5  6  1  0
  6  7  2  0
  7  8  1  0
  8  9  2  0
  9 10  1  0
 10 11  2  0
 11 12  1  0
 12 13  2  0
 13  8  1  0
  1 14  1  0
  1 15  1  0
  1 16  1  0
  5 17  1  0
  5 18  1  0
  6 19  1  0
  7 20  1  0
  9 21  1  0
 10 22  1  0
 11 23  1  0
 12 24  1  0
 13 25  1  0
M  END
>  <Ligand ID>  (1) 
LIG0000454

>  <Ligand>  (1) 
Cinnamyl acetate

>  <SMILES>  (1) 
CC(=O)OC/C=C/c1ccccc1

>  <CID>  (1) 
5282110.0

>  <ChEMBL ID>  (1) 
nan

>  <InChiKey>  (1) 
WJSDHUCWMSHDCR-VMPITWQZSA-N

>  <InChi>  (1) 
InChI=1S/C11H12O2/c1-10(12)13-9-5-8-11-6-3-2-4-7-11/h2-8H,9H2,1H3/b8-5+

>  <IUPAC Name>  (1) 
[(E)-3-phenylprop-2-enyl] acetate

$$$$
