
     RDKit          3D

117121  0  0  0  0  0  0  0  0999 V2000
    2.8181    6.7559   -2.4400 N   0  0  0  0  0  0  0  0  0  0  0  0
    2.0828    7.3445   -1.3591 C   0  0  0  0  0  0  0  0  0  0  0  0
    0.9075    6.8497   -1.1399 N   0  0  0  0  0  0  0  0  0  0  0  0
    0.4198    5.7774   -1.9603 C   0  0  0  0  0  0  0  0  0  0  0  0
    0.2292    4.5609   -1.0475 C   0  0  0  0  0  0  0  0  0  0  0  0
   -0.2795    3.4592   -1.9153 C   0  0  0  0  0  0  0  0  0  0  0  0
   -0.5452    2.1637   -1.2660 C   0  0  2  0  0  0  0  0  0  0  0  0
   -1.5308    2.1359   -0.2038 N   0  0  0  0  0  0  0  0  0  0  0  0
   -2.8052    1.5117   -0.3129 C   0  0  0  0  0  0  0  0  0  0  0  0
   -3.0566    1.0451   -1.4376 O   0  0  0  0  0  0  0  0  0  0  0  0
   -3.7936    1.3905    0.7819 C   0  0  1  0  0  0  0  0  0  0  0  0
   -4.3955    2.5882    1.3536 C   0  0  0  0  0  0  0  0  0  0  0  0
   -3.4477    3.5330    1.9393 C   0  0  0  0  0  0  0  0  0  0  0  0
   -2.9861    3.3409    3.2217 C   0  0  0  0  0  0  0  0  0  0  0  0
   -2.1379    4.2221    3.8599 C   0  0  0  0  0  0  0  0  0  0  0  0
   -1.7285    5.3477    3.1927 C   0  0  0  0  0  0  0  0  0  0  0  0
   -2.1910    5.5375    1.9108 C   0  0  0  0  0  0  0  0  0  0  0  0
   -3.0309    4.6817    1.2551 C   0  0  0  0  0  0  0  0  0  0  0  0
   -4.8540    0.5293    0.1716 N   0  0  0  0  0  0  0  0  0  0  0  0
   -4.6562   -0.8749   -0.0074 C   0  0  0  0  0  0  0  0  0  0  0  0
   -3.5358   -1.2835    0.3101 O   0  0  0  0  0  0  0  0  0  0  0  0
   -5.7681   -1.7009   -0.5529 C   0  0  1  0  0  0  0  0  0  0  0  0
   -5.3206   -2.9618   -1.0432 N   0  0  0  0  0  0  0  0  0  0  0  0
   -4.5370   -3.9445   -0.3745 C   0  0  0  0  0  0  0  0  0  0  0  0
   -4.2552   -3.7084    0.7976 O   0  0  0  0  0  0  0  0  0  0  0  0
   -4.1544   -5.1288   -1.1693 C   0  0  0  0  0  0  0  0  0  0  0  0
   -3.1150   -6.0268   -0.5894 C   0  0  0  0  0  0  0  0  0  0  0  0
   -1.8663   -5.3020   -0.2631 C   0  0  0  0  0  0  0  0  0  0  0  0
   -1.7992   -4.1262    0.1369 O   0  0  0  0  0  0  0  0  0  0  0  0
   -0.5512   -5.9111   -0.3922 N   0  0  0  0  0  0  0  0  0  0  0  0
    0.5524   -5.0671   -0.0145 C   0  0  0  0  0  0  0  0  0  0  0  0
    1.8325   -5.7357   -0.3783 C   0  0  0  0  0  0  0  0  0  0  0  0
    3.0429   -4.9138    0.0733 C   0  0  0  0  0  0  0  0  0  0  0  0
    2.8264   -3.4657   -0.1441 C   0  0  0  0  0  0  0  0  0  0  0  0
    4.1039   -2.6886    0.0886 C   0  0  1  0  0  0  0  0  0  0  0  0
    3.8080   -1.2766    0.2643 N   0  0  0  0  0  0  0  0  0  0  0  0
    3.2589   -0.4140   -0.7137 C   0  0  0  0  0  0  0  0  0  0  0  0
    2.9888   -0.9219   -1.8023 O   0  0  0  0  0  0  0  0  0  0  0  0
    3.0481    1.0041   -0.3337 C   0  0  2  0  0  0  0  0  0  0  0  0
    1.9497    1.4593   -1.2265 N   0  0  0  0  0  0  0  0  0  0  0  0
    0.6969    1.6782   -0.6128 C   0  0  0  0  0  0  0  0  0  0  0  0
    0.6295    1.4356    0.6058 O   0  0  0  0  0  0  0  0  0  0  0  0
    4.2552    1.8403   -0.5415 C   0  0  0  0  0  0  0  0  0  0  0  0
    5.4019    1.3568    0.2248 C   0  0  0  0  0  0  0  0  0  0  0  0
    5.7476    1.8361    1.4945 C   0  0  0  0  0  0  0  0  0  0  0  0
    6.8320    1.1665    1.9436 N   0  0  0  0  0  0  0  0  0  0  0  0
    7.2184    0.2636    1.0218 C   0  0  0  0  0  0  0  0  0  0  0  0
    6.3395    0.3817   -0.0335 C   0  0  0  0  0  0  0  0  0  0  0  0
    6.5482   -0.4430   -1.1190 C   0  0  0  0  0  0  0  0  0  0  0  0
    7.5993   -1.3323   -1.1079 C   0  0  0  0  0  0  0  0  0  0  0  0
    8.4798   -1.4482   -0.0430 C   0  0  0  0  0  0  0  0  0  0  0  0
    8.2731   -0.6266    1.0379 C   0  0  0  0  0  0  0  0  0  0  0  0
    5.0149   -3.2795    1.0230 C   0  0  0  0  0  0  0  0  0  0  0  0
    5.4466   -4.4765    1.0075 O   0  0  0  0  0  0  0  0  0  0  0  0
    5.5235   -2.4861    2.1077 N   0  0  0  0  0  0  0  0  0  0  0  0
   -6.7540   -1.8475    0.5985 C   0  0  0  0  0  0  0  0  0  0  0  0
   -7.9172   -2.6638    0.1615 C   0  0  0  0  0  0  0  0  0  0  0  0
   -8.0373   -4.0217    0.2469 N   0  0  0  0  0  0  0  0  0  0  0  0
   -9.2416   -4.3376   -0.2622 C   0  0  0  0  0  0  0  0  0  0  0  0
   -9.9002   -3.2443   -0.6703 N   0  0  0  0  0  0  0  0  0  0  0  0
   -9.0988   -2.1952   -0.4177 C   0  0  0  0  0  0  0  0  0  0  0  0
    2.6093    8.4090   -0.5737 N   0  0  0  0  0  0  0  0  0  0  0  0
    3.3072    5.8523   -2.2466 H   0  0  0  0  0  0  0  0  0  0  0  0
    2.8751    7.1967   -3.3895 H   0  0  0  0  0  0  0  0  0  0  0  0
    1.1167    5.5345   -2.7892 H   0  0  0  0  0  0  0  0  0  0  0  0
   -0.5323    6.1054   -2.4255 H   0  0  0  0  0  0  0  0  0  0  0  0
    1.2553    4.3538   -0.6571 H   0  0  0  0  0  0  0  0  0  0  0  0
   -0.3959    4.7913   -0.1905 H   0  0  0  0  0  0  0  0  0  0  0  0
    0.5547    3.2546   -2.6529 H   0  0  0  0  0  0  0  0  0  0  0  0
   -1.1062    3.7967   -2.5959 H   0  0  0  0  0  0  0  0  0  0  0  0
   -0.9048    1.4671   -2.0459 H   0  0  0  0  0  0  0  0  0  0  0  0
   -1.3216    2.5662    0.6912 H   0  0  0  0  0  0  0  0  0  0  0  0
   -3.3479    0.7225    1.5583 H   0  0  0  0  0  0  0  0  0  0  0  0
   -4.9689    3.1536    0.5664 H   0  0  0  0  0  0  0  0  0  0  0  0
   -5.1025    2.2783    2.1708 H   0  0  0  0  0  0  0  0  0  0  0  0
   -3.2833    2.4613    3.7941 H   0  0  0  0  0  0  0  0  0  0  0  0
   -1.7821    4.0465    4.8873 H   0  0  0  0  0  0  0  0  0  0  0  0
   -1.0668    6.0995    3.6035 H   0  0  0  0  0  0  0  0  0  0  0  0
   -1.8734    6.4343    1.3625 H   0  0  0  0  0  0  0  0  0  0  0  0
   -3.3979    4.8252    0.2469 H   0  0  0  0  0  0  0  0  0  0  0  0
   -5.7438    0.9007   -0.1391 H   0  0  0  0  0  0  0  0  0  0  0  0
   -6.2678   -1.0832   -1.3395 H   0  0  0  0  0  0  0  0  0  0  0  0
   -5.5942   -3.2178   -2.0103 H   0  0  0  0  0  0  0  0  0  0  0  0
   -3.6925   -4.7218   -2.1299 H   0  0  0  0  0  0  0  0  0  0  0  0
   -5.0510   -5.6900   -1.5305 H   0  0  0  0  0  0  0  0  0  0  0  0
   -3.5091   -6.5903    0.2849 H   0  0  0  0  0  0  0  0  0  0  0  0
   -2.8950   -6.7950   -1.3869 H   0  0  0  0  0  0  0  0  0  0  0  0
   -0.5552   -6.8555   -0.7317 H   0  0  0  0  0  0  0  0  0  0  0  0
    0.5271   -4.8313    1.0901 H   0  0  0  0  0  0  0  0  0  0  0  0
    0.4854   -4.0489   -0.4881 H   0  0  0  0  0  0  0  0  0  0  0  0
    1.8525   -5.9485   -1.4572 H   0  0  0  0  0  0  0  0  0  0  0  0
    1.8993   -6.7034    0.1578 H   0  0  0  0  0  0  0  0  0  0  0  0
    3.8976   -5.2807   -0.5199 H   0  0  0  0  0  0  0  0  0  0  0  0
    3.2652   -5.1237    1.1444 H   0  0  0  0  0  0  0  0  0  0  0  0
    2.4211   -3.3056   -1.1528 H   0  0  0  0  0  0  0  0  0  0  0  0
    2.1252   -3.1175    0.6552 H   0  0  0  0  0  0  0  0  0  0  0  0
    4.5668   -2.7095   -0.9692 H   0  0  0  0  0  0  0  0  0  0  0  0
    4.0126   -0.8657    1.1759 H   0  0  0  0  0  0  0  0  0  0  0  0
    2.7454    1.0845    0.7384 H   0  0  0  0  0  0  0  0  0  0  0  0
    2.0326    1.6179   -2.2107 H   0  0  0  0  0  0  0  0  0  0  0  0
    3.9902    2.8900   -0.1990 H   0  0  0  0  0  0  0  0  0  0  0  0
    4.4960    1.9557   -1.6388 H   0  0  0  0  0  0  0  0  0  0  0  0
    5.2215    2.6210    2.0238 H   0  0  0  0  0  0  0  0  0  0  0  0
    7.2575    1.3716    2.8809 H   0  0  0  0  0  0  0  0  0  0  0  0
    5.8607   -0.3489   -1.9511 H   0  0  0  0  0  0  0  0  0  0  0  0
    7.7401   -1.9702   -1.9765 H   0  0  0  0  0  0  0  0  0  0  0  0
    9.2953   -2.1672   -0.0804 H   0  0  0  0  0  0  0  0  0  0  0  0
    8.9257   -0.6738    1.8921 H   0  0  0  0  0  0  0  0  0  0  0  0
    6.5468   -2.5122    2.3715 H   0  0  0  0  0  0  0  0  0  0  0  0
    4.9333   -1.8593    2.6820 H   0  0  0  0  0  0  0  0  0  0  0  0
   -6.2531   -2.2993    1.4921 H   0  0  0  0  0  0  0  0  0  0  0  0
   -7.1503   -0.8689    0.9307 H   0  0  0  0  0  0  0  0  0  0  0  0
   -7.3391   -4.6787    0.6276 H   0  0  0  0  0  0  0  0  0  0  0  0
   -9.6050   -5.3519   -0.3226 H   0  0  0  0  0  0  0  0  0  0  0  0
   -9.2732   -1.1348   -0.6041 H   0  0  0  0  0  0  0  0  0  0  0  0
    3.2368    8.2323    0.2437 H   0  0  0  0  0  0  0  0  0  0  0  0
    2.3754    9.3882   -0.8027 H   0  0  0  0  0  0  0  0  0  0  0  0
  1  2  1  0
  2  3  2  3
  3  4  1  0
  4  5  1  0
  5  6  1  0
  6  7  1  0
  7  8  1  0
  8  9  1  0
  9 10  2  0
  9 11  1  0
 11 12  1  0
 12 13  1  0
 13 14  2  0
 14 15  1  0
 15 16  2  0
 16 17  1  0
 17 18  2  0
 11 19  1  0
 19 20  1  0
 20 21  2  0
 20 22  1  0
 22 23  1  0
 23 24  1  0
 24 25  2  0
 24 26  1  0
 26 27  1  0
 27 28  1  0
 28 29  2  0
 28 30  1  0
 30 31  1  0
 31 32  1  0
 32 33  1  0
 33 34  1  0
 34 35  1  0
 35 36  1  0
 36 37  1  0
 37 38  2  0
 37 39  1  0
 39 40  1  0
 40 41  1  0
 41 42  2  0
 39 43  1  0
 43 44  1  0
 44 45  2  0
 45 46  1  0
 46 47  1  0
 47 48  2  0
 48 49  1  0
 49 50  2  0
 50 51  1  0
 51 52  2  0
 35 53  1  0
 53 54  2  0
 53 55  1  0
 22 56  1  0
 56 57  1  0
 57 58  1  0
 58 59  1  0
 59 60  2  0
 60 61  1  0
  2 62  1  0
 41  7  1  0
 48 44  1  0
 61 57  2  0
 18 13  1  0
 52 47  1  0
  1 63  1  0
  1 64  1  0
  4 65  1  0
  4 66  1  0
  5 67  1  0
  5 68  1  0
  6 69  1  0
  6 70  1  0
  7 71  1  6
  8 72  1  0
 11 73  1  1
 12 74  1  0
 12 75  1  0
 14 76  1  0
 15 77  1  0
 16 78  1  0
 17 79  1  0
 18 80  1  0
 19 81  1  0
 22 82  1  6
 23 83  1  0
 26 84  1  0
 26 85  1  0
 27 86  1  0
 27 87  1  0
 30 88  1  0
 31 89  1  0
 31 90  1  0
 32 91  1  0
 32 92  1  0
 33 93  1  0
 33 94  1  0
 34 95  1  0
 34 96  1  0
 35 97  1  6
 36 98  1  0
 39 99  1  1
 40100  1  0
 43101  1  0
 43102  1  0
 45103  1  0
 46104  1  0
 49105  1  0
 50106  1  0
 51107  1  0
 52108  1  0
 55109  1  0
 55110  1  0
 56111  1  0
 56112  1  0
 58113  1  0
 59114  1  0
 61115  1  0
 62116  1  0
 62117  1  0
M  END
>  <Ligand ID>  (1) 
LIG0003109

>  <Ligand>  (1) 
CHEMBL91041

>  <SMILES>  (1) 
NC(=NCCC[C@@H]1NC(=O)[C@@H](Cc2ccccc2)NC(=O)[C@@H](NC(=O)CCC(=O)NCCCC[C@@H](NC(=O)[C@H](NC1=O)Cc1c[nH]c2c1cccc2)C(=O)N)Cc1[nH]cnc1)N

>  <CID>  (1) 
44322795.0

>  <ChEMBL ID>  (1) 
nan

>  <InChiKey>  (1) 
YDQIBTSSHWCIEQ-OHBKMZHCSA-N

>  <InChi>  (1) 
InChI=1S/C42H55N13O7/c43-37(58)30-13-6-7-17-47-35(56)15-16-36(57)51-34(21-27-23-46-24-50-27)41(62)54-32(19-25-9-2-1-3-10-25)39(60)53-31(14-8-18-48-42(44)45)38(59)55-33(40(61)52-30)20-26-22-49-29-12-5-4-11-28(26)29/h1-5,9-12,22-24,30-34,49H,6-8,13-21H2,(H2,43,58)(H,46,50)(H,47,56)(H,51,57)(H,52,61)(H,53,60)(H,54,62)(H,55,59)(H4,44,45,48)/t30-,31+,32-,33-,34+/m1/s1

>  <IUPAC Name>  (1) 
(3R,6S,9R,12S,23R)-9-benzyl-6-[3-(diaminomethylideneamino)propyl]-12-(1H-imidazol-5-ylmethyl)-3-(1H-indol-3-ylmethyl)-2,5,8,11,14,17-hexaoxo-1,4,7,10,13,18-hexazacyclotricosane-23-carboxamide

$$$$
