
     RDKit          3D

 29 29  0  0  0  0  0  0  0  0999 V2000
   -3.3733    0.0548   -0.5651 C   0  0  0  0  0  0  0  0  0  0  0  0
   -1.9345    0.4651   -0.2437 C   0  0  0  0  0  0  0  0  0  0  0  0
   -1.1359    0.6171   -1.5196 C   0  0  0  0  0  0  0  0  0  0  0  0
    0.3036    0.8689   -1.1143 C   0  0  0  0  0  0  0  0  0  0  0  0
    0.7949   -0.4194   -0.4926 C   0  0  0  0  0  0  0  0  0  0  0  0
    0.0861   -0.5792    0.8240 C   0  0  0  0  0  0  0  0  0  0  0  0
   -1.4090   -0.5793    0.6883 C   0  0  0  0  0  0  0  0  0  0  0  0
    0.5279    0.3279    1.7761 O   0  0  0  0  0  0  0  0  0  0  0  0
    2.2573   -0.4110   -0.2260 C   0  0  0  0  0  0  0  0  0  0  0  0
    3.0129   -1.3474   -0.7903 C   0  0  0  0  0  0  0  0  0  0  0  0
    2.8386    0.6175    0.6450 C   0  0  0  0  0  0  0  0  0  0  0  0
   -3.3741   -0.7076   -1.3717 H   0  0  0  0  0  0  0  0  0  0  0  0
   -3.8011   -0.3201    0.3893 H   0  0  0  0  0  0  0  0  0  0  0  0
   -3.9563    0.9589   -0.8180 H   0  0  0  0  0  0  0  0  0  0  0  0
   -2.0311    1.4564    0.2729 H   0  0  0  0  0  0  0  0  0  0  0  0
   -1.2237   -0.3204   -2.0940 H   0  0  0  0  0  0  0  0  0  0  0  0
   -1.5678    1.4746   -2.0634 H   0  0  0  0  0  0  0  0  0  0  0  0
    0.3285    1.6386   -0.3237 H   0  0  0  0  0  0  0  0  0  0  0  0
    0.9192    1.2074   -1.9492 H   0  0  0  0  0  0  0  0  0  0  0  0
    0.5000   -1.3080   -1.1034 H   0  0  0  0  0  0  0  0  0  0  0  0
    0.3601   -1.5871    1.2154 H   0  0  0  0  0  0  0  0  0  0  0  0
   -1.7560   -1.6009    0.3681 H   0  0  0  0  0  0  0  0  0  0  0  0
   -1.8406   -0.3889    1.6918 H   0  0  0  0  0  0  0  0  0  0  0  0
   -0.2334    0.8550    2.1536 H   0  0  0  0  0  0  0  0  0  0  0  0
    2.5115   -2.0732   -1.4212 H   0  0  0  0  0  0  0  0  0  0  0  0
    4.0851   -1.4001   -0.6388 H   0  0  0  0  0  0  0  0  0  0  0  0
    3.8741    0.8159    0.2676 H   0  0  0  0  0  0  0  0  0  0  0  0
    2.2518    1.5255    0.7447 H   0  0  0  0  0  0  0  0  0  0  0  0
    2.9852    0.1590    1.6623 H   0  0  0  0  0  0  0  0  0  0  0  0
  1  2  1  0
  2  3  1  0
  3  4  1  0
  4  5  1  0
  5  6  1  0
  6  7  1  0
  6  8  1  0
  5  9  1  0
  9 10  2  0
  9 11  1  0
  7  2  1  0
  1 12  1  0
  1 13  1  0
  1 14  1  0
  2 15  1  0
  3 16  1  0
  3 17  1  0
  4 18  1  0
  4 19  1  0
  5 20  1  0
  6 21  1  0
  7 22  1  0
  7 23  1  0
  8 24  1  0
 10 25  1  0
 10 26  1  0
 11 27  1  0
 11 28  1  0
 11 29  1  0
M  END
>  <Ligand ID>  (1) 
LIG0005005

>  <Ligand>  (1) 
Cyclohexanol, 5-methyl-2-(1-methylethenyl)-

>  <SMILES>  (1) 
CC1CCC(C(C1)O)C(=C)C

>  <CID>  (1) 
24585.0

>  <ChEMBL ID>  (1) 
nan

>  <InChiKey>  (1) 
ZYTMANIQRDEHIO-UHFFFAOYSA-N

>  <InChi>  (1) 
InChI=1S/C10H18O/c1-7(2)9-5-4-8(3)6-10(9)11/h8-11H,1,4-6H2,2-3H3

>  <IUPAC Name>  (1) 
5-methyl-2-prop-1-en-2-ylcyclohexan-1-ol

$$$$
