
     RDKit          3D

 29 28  0  0  0  0  0  0  0  0999 V2000
    3.8020   -2.0510    0.3855 O   0  0  0  0  0  0  0  0  0  0  0  0
    3.1422   -1.0255    0.4615 C   0  0  0  0  0  0  0  0  0  0  0  0
    2.6105   -0.4793   -0.8179 C   0  0  0  0  0  0  0  0  0  0  0  0
    1.8220    0.7796   -0.5693 C   0  0  1  0  0  0  0  0  0  0  0  0
    0.6647    0.5171    0.3409 C   0  0  0  0  0  0  0  0  0  0  0  0
   -0.3153   -0.5024   -0.1994 C   0  0  0  0  0  0  0  0  0  0  0  0
   -1.4365   -0.6892    0.7907 C   0  0  0  0  0  0  0  0  0  0  0  0
   -2.6895   -0.4439    0.4826 C   0  0  0  0  0  0  0  0  0  0  0  0
   -3.0545    0.0346   -0.8757 C   0  0  0  0  0  0  0  0  0  0  0  0
   -3.7340   -0.6480    1.4988 C   0  0  0  0  0  0  0  0  0  0  0  0
    2.6944    1.8448    0.0108 C   0  0  0  0  0  0  0  0  0  0  0  0
    2.9735   -0.5673    1.4194 H   0  0  0  0  0  0  0  0  0  0  0  0
    3.4665   -0.2659   -1.5031 H   0  0  0  0  0  0  0  0  0  0  0  0
    1.9216   -1.2271   -1.2614 H   0  0  0  0  0  0  0  0  0  0  0  0
    1.4653    1.1618   -1.5575 H   0  0  0  0  0  0  0  0  0  0  0  0
    1.0470    0.0954    1.3026 H   0  0  0  0  0  0  0  0  0  0  0  0
    0.1406    1.4608    0.5901 H   0  0  0  0  0  0  0  0  0  0  0  0
   -0.7401   -0.1984   -1.1569 H   0  0  0  0  0  0  0  0  0  0  0  0
    0.1545   -1.5036   -0.2864 H   0  0  0  0  0  0  0  0  0  0  0  0
   -1.1380   -1.0376    1.7675 H   0  0  0  0  0  0  0  0  0  0  0  0
   -2.6247    1.0673   -1.0295 H   0  0  0  0  0  0  0  0  0  0  0  0
   -4.1693    0.0787   -0.9795 H   0  0  0  0  0  0  0  0  0  0  0  0
   -2.6640   -0.6693   -1.6497 H   0  0  0  0  0  0  0  0  0  0  0  0
   -4.1980   -1.6597    1.3993 H   0  0  0  0  0  0  0  0  0  0  0  0
   -4.5669    0.0882    1.3371 H   0  0  0  0  0  0  0  0  0  0  0  0
   -3.3693   -0.5202    2.5293 H   0  0  0  0  0  0  0  0  0  0  0  0
    2.1927    2.8300    0.0126 H   0  0  0  0  0  0  0  0  0  0  0  0
    3.6417    1.9509   -0.5730 H   0  0  0  0  0  0  0  0  0  0  0  0
    2.9611    1.5793    1.0665 H   0  0  0  0  0  0  0  0  0  0  0  0
  1  2  2  0
  2  3  1  0
  3  4  1  0
  4  5  1  0
  5  6  1  0
  6  7  1  0
  7  8  2  3
  8  9  1  0
  8 10  1  0
  4 11  1  0
  2 12  1  0
  3 13  1  0
  3 14  1  0
  4 15  1  6
  5 16  1  0
  5 17  1  0
  6 18  1  0
  6 19  1  0
  7 20  1  0
  9 21  1  0
  9 22  1  0
  9 23  1  0
 10 24  1  0
 10 25  1  0
 10 26  1  0
 11 27  1  0
 11 28  1  0
 11 29  1  0
M  END
>  <Ligand ID>  (1) 
LIG0000257

>  <Ligand>  (1) 
6-Octenal, 3,7-dimethyl-, (3R)-

>  <SMILES>  (1) 
O=CC[C@@H](CCC=C(C)C)C

>  <CID>  (1) 
75427.0

>  <ChEMBL ID>  (1) 
nan

>  <InChiKey>  (1) 
NEHNMFOYXAPHSD-SNVBAGLBSA-N

>  <InChi>  (1) 
InChI=1S/C10H18O/c1-9(2)5-4-6-10(3)7-8-11/h5,8,10H,4,6-7H2,1-3H3/t10-/m1/s1

>  <IUPAC Name>  (1) 
(3R)-3,7-dimethyloct-6-enal

$$$$
