
     RDKit          3D

 45 45  0  0  0  0  0  0  0  0999 V2000
    4.3641   -2.3304    1.6650 C   0  0  0  0  0  0  0  0  0  0  0  0
    4.3904   -1.3329    0.6639 O   0  0  0  0  0  0  0  0  0  0  0  0
    3.1415   -0.8202    0.2716 C   0  0  0  0  0  0  0  0  0  0  0  0
    1.9964   -1.2928    0.8557 C   0  0  0  0  0  0  0  0  0  0  0  0
    0.7487   -0.8218    0.5050 C   0  0  0  0  0  0  0  0  0  0  0  0
    0.7027    0.1515   -0.4669 C   0  0  0  0  0  0  0  0  0  0  0  0
    1.8723    0.6348   -1.0657 C   0  0  0  0  0  0  0  0  0  0  0  0
    3.1196    0.1769   -0.7245 C   0  0  0  0  0  0  0  0  0  0  0  0
    4.3081    0.5603   -1.2274 O   0  0  0  0  0  0  0  0  0  0  0  0
    5.3117    1.3955   -0.8500 C   0  0  0  0  0  0  0  0  0  0  0  0
    5.1231    2.7992   -0.5777 C   0  0  0  0  0  0  0  0  0  0  0  0
    6.1958    3.4764   -0.3007 O   0  0  0  0  0  0  0  0  0  0  0  0
    3.9721    3.5468   -0.5616 O   0  0  0  0  0  0  0  0  0  0  0  0
    1.6144    2.0379   -2.6066 I   0  0  0  0  0  0  0  0  0  0  0  0
   -0.4210   -1.3878    1.1869 C   0  0  0  0  0  0  0  0  0  0  0  0
   -1.9960   -1.0639    0.3577 P   0  0  0  0  0  0  0  0  0  0  0  0
   -1.8603   -1.1135   -1.1356 O   0  0  0  0  0  0  0  0  0  0  0  0
   -2.6750    0.5196    0.8481 C   0  0  0  0  0  0  0  0  0  0  0  0
   -3.5926    1.1186   -0.1498 C   0  0  0  0  0  0  0  0  0  0  0  0
   -4.8226    0.3497   -0.4698 C   0  0  1  0  0  0  0  0  0  0  0  0
   -5.6803    1.0516   -1.4770 C   0  0  0  0  0  0  0  0  0  0  0  0
   -6.0307    0.4833   -2.5486 O   0  0  0  0  0  0  0  0  0  0  0  0
   -6.0866    2.3457   -1.2117 O   0  0  0  0  0  0  0  0  0  0  0  0
   -4.5068   -0.9905   -0.9342 N   0  0  0  0  0  0  0  0  0  0  0  0
   -3.0182   -2.3364    0.8220 O   0  0  0  0  0  0  0  0  0  0  0  0
   -0.2461   -2.7892    1.2228 O   0  0  0  0  0  0  0  0  0  0  0  0
    3.7338   -3.1758    1.2867 H   0  0  0  0  0  0  0  0  0  0  0  0
    3.8604   -1.9302    2.5650 H   0  0  0  0  0  0  0  0  0  0  0  0
    5.3843   -2.6726    1.9307 H   0  0  0  0  0  0  0  0  0  0  0  0
    2.0557   -2.0687    1.6268 H   0  0  0  0  0  0  0  0  0  0  0  0
   -0.2628    0.5384   -0.7607 H   0  0  0  0  0  0  0  0  0  0  0  0
    5.8376    0.9218    0.0605 H   0  0  0  0  0  0  0  0  0  0  0  0
    6.1608    1.2832   -1.6246 H   0  0  0  0  0  0  0  0  0  0  0  0
    3.9706    4.5540   -0.6814 H   0  0  0  0  0  0  0  0  0  0  0  0
   -0.5188   -1.0028    2.2282 H   0  0  0  0  0  0  0  0  0  0  0  0
   -3.1502    0.4370    1.8550 H   0  0  0  0  0  0  0  0  0  0  0  0
   -1.8001    1.2325    0.9334 H   0  0  0  0  0  0  0  0  0  0  0  0
   -3.9022    2.1250    0.2771 H   0  0  0  0  0  0  0  0  0  0  0  0
   -3.0037    1.3334   -1.0766 H   0  0  0  0  0  0  0  0  0  0  0  0
   -5.4288    0.2391    0.4531 H   0  0  0  0  0  0  0  0  0  0  0  0
   -6.9443    2.7259   -1.6252 H   0  0  0  0  0  0  0  0  0  0  0  0
   -5.2326   -1.6796   -0.6027 H   0  0  0  0  0  0  0  0  0  0  0  0
   -4.4368   -1.0172   -1.9855 H   0  0  0  0  0  0  0  0  0  0  0  0
   -2.6788   -3.1416    0.3348 H   0  0  0  0  0  0  0  0  0  0  0  0
    0.4313   -3.0699    0.5825 H   0  0  0  0  0  0  0  0  0  0  0  0
  1  2  1  0
  2  3  1  0
  3  4  2  0
  4  5  1  0
  5  6  2  0
  6  7  1  0
  7  8  2  0
  8  9  1  0
  9 10  1  0
 10 11  1  0
 11 12  2  0
 11 13  1  0
  7 14  1  0
  5 15  1  0
 15 16  1  0
 16 17  2  0
 16 18  1  0
 18 19  1  0
 19 20  1  0
 20 21  1  0
 21 22  2  0
 21 23  1  0
 20 24  1  0
 16 25  1  0
 15 26  1  0
  8  3  1  0
  1 27  1  0
  1 28  1  0
  1 29  1  0
  4 30  1  0
  6 31  1  0
 10 32  1  0
 10 33  1  0
 13 34  1  0
 15 35  1  0
 18 36  1  0
 18 37  1  0
 19 38  1  0
 19 39  1  0
 20 40  1  1
 23 41  1  0
 24 42  1  0
 24 43  1  0
 25 44  1  0
 26 45  1  0
M  END
>  <Ligand ID>  (1) 
LIG0004723

>  <Ligand>  (1) 
CHEMBL3907046

>  <SMILES>  (1) 
COc1cc(cc(c1OCC(=O)O)I)C(P(=O)(CC[C@@H](C(=O)O)N)O)O

>  <CID>  (1) 
71041982.0

>  <ChEMBL ID>  (1) 
nan

>  <InChiKey>  (1) 
ZSCCFTCROHWQGM-CUVJYRNJSA-N

>  <InChi>  (1) 
InChI=1S/C14H19INO9P/c1-24-10-5-7(4-8(15)12(10)25-6-11(17)18)14(21)26(22,23)3-2-9(16)13(19)20/h4-5,9,14,21H,2-3,6,16H2,1H3,(H,17,18)(H,19,20)(H,22,23)/t9-,14?/m0/s1

>  <IUPAC Name>  (1) 
(2S)-2-amino-4-[[[4-(carboxymethoxy)-3-iodo-5-methoxyphenyl]-hydroxymethyl]-hydroxyphosphoryl]butanoic acid

$$$$
