
     RDKit          3D

 50 52  0  0  0  0  0  0  0  0999 V2000
   -5.9270   -1.5218   -2.8690 N   0  0  0  0  0  0  0  0  0  0  0  0
   -6.5318   -1.0861   -1.9829 C   0  0  0  0  0  0  0  0  0  0  0  0
   -7.2613   -0.5541   -0.8724 C   0  0  0  0  0  0  0  0  0  0  0  0
   -8.6334   -0.3951   -0.9629 C   0  0  0  0  0  0  0  0  0  0  0  0
   -9.2830    0.0997    0.0819 N   0  0  0  0  0  0  0  0  0  0  0  0
   -8.6394    0.4477    1.2193 C   0  0  0  0  0  0  0  0  0  0  0  0
   -7.2715    0.2978    1.3322 C   0  0  0  0  0  0  0  0  0  0  0  0
   -6.5407   -0.2208    0.2563 C   0  0  0  0  0  0  0  0  0  0  0  0
   -5.0773   -0.3822    0.3779 C   0  0  0  0  0  0  0  0  0  0  0  0
   -4.3337    0.5898   -0.3146 O   0  0  0  0  0  0  0  0  0  0  0  0
   -2.9499    0.5070   -0.2422 C   0  0  0  0  0  0  0  0  0  0  0  0
   -2.1374    1.4178   -0.8926 C   0  0  0  0  0  0  0  0  0  0  0  0
   -0.7890    1.3625   -0.8396 N   0  0  0  0  0  0  0  0  0  0  0  0
   -0.1846    0.3997   -0.1376 C   0  0  0  0  0  0  0  0  0  0  0  0
   -0.9708   -0.4910    0.4986 N   0  0  0  0  0  0  0  0  0  0  0  0
   -2.2963   -0.4838    0.4805 C   0  0  0  0  0  0  0  0  0  0  0  0
    1.2332    0.2945   -0.0504 N   0  0  0  0  0  0  0  0  0  0  0  0
    1.8221   -0.7292    0.7659 C   0  0  0  0  0  0  0  0  0  0  0  0
    3.2650   -0.9636    0.5361 C   0  0  0  0  0  0  0  0  0  0  0  0
    4.0290    0.2096    0.1949 N   0  0  0  0  0  0  0  0  0  0  0  0
    3.3997    1.4679   -0.1025 C   0  0  0  0  0  0  0  0  0  0  0  0
    2.0810    1.2066   -0.7771 C   0  0  1  0  0  0  0  0  0  0  0  0
    2.3600    0.7158   -2.1868 C   0  0  0  0  0  0  0  0  0  0  0  0
    5.4681    0.1176    0.1537 C   0  0  0  0  0  0  0  0  0  0  0  0
    6.1407    1.1109   -0.1421 O   0  0  0  0  0  0  0  0  0  0  0  0
    6.0752   -1.0633    0.4412 O   0  0  0  0  0  0  0  0  0  0  0  0
    7.4172   -1.3931    0.4710 C   0  0  0  0  0  0  0  0  0  0  0  0
    8.2753   -0.6591    1.4434 C   0  0  0  0  0  0  0  0  0  0  0  0
    8.2562    0.6843    1.1874 F   0  0  0  0  0  0  0  0  0  0  0  0
    9.6081   -1.0540    1.2871 F   0  0  0  0  0  0  0  0  0  0  0  0
    7.8914   -0.8862    2.7589 F   0  0  0  0  0  0  0  0  0  0  0  0
   -9.1592   -0.6728   -1.8793 H   0  0  0  0  0  0  0  0  0  0  0  0
   -9.1874    0.8524    2.0695 H   0  0  0  0  0  0  0  0  0  0  0  0
   -6.7382    0.5755    2.2471 H   0  0  0  0  0  0  0  0  0  0  0  0
   -4.7973   -0.3266    1.4484 H   0  0  0  0  0  0  0  0  0  0  0  0
   -4.7568   -1.3886    0.0299 H   0  0  0  0  0  0  0  0  0  0  0  0
   -2.6653    2.1947   -1.4596 H   0  0  0  0  0  0  0  0  0  0  0  0
   -2.9245   -1.2011    0.9927 H   0  0  0  0  0  0  0  0  0  0  0  0
    1.2964   -1.7220    0.6591 H   0  0  0  0  0  0  0  0  0  0  0  0
    1.6334   -0.4240    1.8347 H   0  0  0  0  0  0  0  0  0  0  0  0
    3.4505   -1.7652   -0.2238 H   0  0  0  0  0  0  0  0  0  0  0  0
    3.7011   -1.3616    1.4914 H   0  0  0  0  0  0  0  0  0  0  0  0
    4.0318    2.0086   -0.8385 H   0  0  0  0  0  0  0  0  0  0  0  0
    3.2932    2.0861    0.7916 H   0  0  0  0  0  0  0  0  0  0  0  0
    1.5993    2.2149   -0.9216 H   0  0  0  0  0  0  0  0  0  0  0  0
    3.2382    1.2744   -2.5572 H   0  0  0  0  0  0  0  0  0  0  0  0
    1.5325    0.9091   -2.8920 H   0  0  0  0  0  0  0  0  0  0  0  0
    2.6130   -0.3698   -2.1247 H   0  0  0  0  0  0  0  0  0  0  0  0
    7.8793   -1.4063   -0.5554 H   0  0  0  0  0  0  0  0  0  0  0  0
    7.4650   -2.4828    0.7740 H   0  0  0  0  0  0  0  0  0  0  0  0
  1  2  3  0
  2  3  1  0
  3  4  2  0
  4  5  1  0
  5  6  2  0
  6  7  1  0
  7  8  2  0
  8  9  1  0
  9 10  1  0
 10 11  1  0
 11 12  2  0
 12 13  1  0
 13 14  2  0
 14 15  1  0
 15 16  2  0
 14 17  1  0
 17 18  1  0
 18 19  1  0
 19 20  1  0
 20 21  1  0
 21 22  1  0
 22 23  1  0
 20 24  1  0
 24 25  2  0
 24 26  1  0
 26 27  1  0
 27 28  1  0
 28 29  1  0
 28 30  1  0
 28 31  1  0
  8  3  1  0
 16 11  1  0
 22 17  1  0
  4 32  1  0
  6 33  1  0
  7 34  1  0
  9 35  1  0
  9 36  1  0
 12 37  1  0
 16 38  1  0
 18 39  1  0
 18 40  1  0
 19 41  1  0
 19 42  1  0
 21 43  1  0
 21 44  1  0
 22 45  1  6
 23 46  1  0
 23 47  1  0
 23 48  1  0
 27 49  1  0
 27 50  1  0
M  END
>  <Ligand ID>  (1) 
LIG0005301

>  <Ligand>  (1) 
CHEMBL2086687

>  <SMILES>  (1) 
N#Cc1cnccc1COc1cnc(nc1)N1CCN(C[C@H]1C)C(=O)OCC(F)(F)F

>  <CID>  (1) 
51030984.0

>  <ChEMBL ID>  (1) 
nan

>  <InChiKey>  (1) 
UFJZVFBUUIBTHV-CYBMUJFWSA-N

>  <InChi>  (1) 
InChI=1S/C19H19F3N6O3/c1-13-10-27(18(29)31-12-19(20,21)22)4-5-28(13)17-25-8-16(9-26-17)30-11-14-2-3-24-7-15(14)6-23/h2-3,7-9,13H,4-5,10-12H2,1H3/t13-/m1/s1

>  <IUPAC Name>  (1) 
2,2,2-trifluoroethyl (3R)-4-[5-[(3-cyanopyridin-4-yl)methoxy]pyrimidin-2-yl]-3-methylpiperazine-1-carboxylate

$$$$
