
     RDKit          3D

114118  0  0  0  0  0  0  0  0999 V2000
    1.7245    8.9903   -1.1390 N   0  0  0  0  0  0  0  0  0  0  0  0
    1.1626    7.6861   -1.3564 C   0  0  0  0  0  0  0  0  0  0  0  0
    1.1801    6.8751   -0.3807 N   0  0  0  0  0  0  0  0  0  0  0  0
    0.6481    5.5074   -0.4270 C   0  0  0  0  0  0  0  0  0  0  0  0
   -0.8003    5.4966   -0.6823 C   0  0  0  0  0  0  0  0  0  0  0  0
   -1.4504    4.1725   -0.7726 C   0  0  0  0  0  0  0  0  0  0  0  0
   -1.4295    3.2615    0.3669 C   0  0  2  0  0  0  0  0  0  0  0  0
   -0.3013    2.6545    0.9190 N   0  0  0  0  0  0  0  0  0  0  0  0
    0.9272    2.1856    0.3687 C   0  0  0  0  0  0  0  0  0  0  0  0
    1.1345    2.4130   -0.8077 O   0  0  0  0  0  0  0  0  0  0  0  0
    1.7926    1.4606    1.3302 C   0  0  0  0  0  0  0  0  0  0  0  0
    3.0313    0.9043    0.7902 N   0  0  0  0  0  0  0  0  0  0  0  0
    4.2388    1.5648    1.0828 C   0  0  0  0  0  0  0  0  0  0  0  0
    4.7008    1.2995    2.4865 C   0  0  0  0  0  0  0  0  0  0  0  0
    4.3328    2.2418    3.4637 C   0  0  0  0  0  0  0  0  0  0  0  0
    4.7044    2.0476    4.7944 C   0  0  0  0  0  0  0  0  0  0  0  0
    5.4229    0.9419    5.1237 C   0  0  0  0  0  0  0  0  0  0  0  0
    5.7959   -0.0032    4.1583 C   0  0  0  0  0  0  0  0  0  0  0  0
    5.4328    0.1727    2.8233 C   0  0  0  0  0  0  0  0  0  0  0  0
    2.9133   -0.2893    0.0996 C   0  0  0  0  0  0  0  0  0  0  0  0
    1.6158   -0.5425   -0.0175 O   0  0  0  0  0  0  0  0  0  0  0  0
    3.7026   -1.3158   -0.5228 C   0  0  1  0  0  0  0  0  0  0  0  0
    2.6808   -2.1466   -1.2340 N   0  0  0  0  0  0  0  0  0  0  0  0
    2.0423   -3.2841   -0.6091 C   0  0  0  0  0  0  0  0  0  0  0  0
    2.4964   -3.6250    0.4600 O   0  0  0  0  0  0  0  0  0  0  0  0
    0.9215   -3.8476   -1.3960 C   0  0  0  0  0  0  0  0  0  0  0  0
    0.0977   -4.8204   -0.6829 C   0  0  0  0  0  0  0  0  0  0  0  0
   -0.4249   -4.4754    0.6403 C   0  0  0  0  0  0  0  0  0  0  0  0
    0.2024   -3.8357    1.5030 O   0  0  0  0  0  0  0  0  0  0  0  0
   -1.7547   -4.8444    1.0931 N   0  0  0  0  0  0  0  0  0  0  0  0
   -2.2717   -4.5532    2.3854 C   0  0  0  0  0  0  0  0  0  0  0  0
   -2.3251   -3.1634    2.7716 C   0  0  0  0  0  0  0  0  0  0  0  0
   -3.0877   -2.1243    2.2116 N   0  0  0  0  0  0  0  0  0  0  0  0
   -2.6765   -1.2648    1.1336 C   0  0  0  0  0  0  0  0  0  0  0  0
   -1.5419   -1.5436    0.7399 O   0  0  0  0  0  0  0  0  0  0  0  0
   -3.3617   -0.1566    0.4891 C   0  0  1  0  0  0  0  0  0  0  0  0
   -2.2592    0.9113    0.3622 N   0  0  0  0  0  0  0  0  0  0  0  0
   -2.5970    2.2779    0.3063 C   0  0  0  0  0  0  0  0  0  0  0  0
   -3.7628    2.5909    0.2039 O   0  0  0  0  0  0  0  0  0  0  0  0
   -3.8822   -0.3095   -0.8950 C   0  0  0  0  0  0  0  0  0  0  0  0
   -4.8702   -1.3375   -1.1677 C   0  0  0  0  0  0  0  0  0  0  0  0
   -6.2488   -1.0369   -1.1829 C   0  0  0  0  0  0  0  0  0  0  0  0
   -6.9648   -2.1313   -1.4555 N   0  0  0  0  0  0  0  0  0  0  0  0
   -6.0979   -3.1560   -1.6213 C   0  0  0  0  0  0  0  0  0  0  0  0
   -4.7945   -2.6745   -1.4448 C   0  0  0  0  0  0  0  0  0  0  0  0
   -3.7119   -3.5155   -1.5664 C   0  0  0  0  0  0  0  0  0  0  0  0
   -3.9362   -4.8610   -1.8713 C   0  0  0  0  0  0  0  0  0  0  0  0
   -5.2394   -5.3042   -2.0391 C   0  0  0  0  0  0  0  0  0  0  0  0
   -6.3340   -4.4874   -1.9224 C   0  0  0  0  0  0  0  0  0  0  0  0
   -4.3499   -1.7574    2.7627 C   0  0  0  0  0  0  0  0  0  0  0  0
   -5.5394   -2.4393    2.2933 C   0  0  0  0  0  0  0  0  0  0  0  0
   -5.5604   -3.4071    1.4892 O   0  0  0  0  0  0  0  0  0  0  0  0
   -6.7976   -1.9841    2.7688 N   0  0  0  0  0  0  0  0  0  0  0  0
    4.9394   -1.1837   -1.2159 C   0  0  0  0  0  0  0  0  0  0  0  0
    5.1798   -0.4199   -2.4176 C   0  0  0  0  0  0  0  0  0  0  0  0
    4.8827   -1.0553   -3.6407 C   0  0  0  0  0  0  0  0  0  0  0  0
    5.0918   -0.4418   -4.8474 C   0  0  0  0  0  0  0  0  0  0  0  0
    5.6082    0.8385   -4.9333 C   0  0  0  0  0  0  0  0  0  0  0  0
    5.9061    1.4765   -3.7554 C   0  0  0  0  0  0  0  0  0  0  0  0
    5.6910    0.8473   -2.5315 C   0  0  0  0  0  0  0  0  0  0  0  0
    0.6478    7.4273   -2.6506 N   0  0  0  0  0  0  0  0  0  0  0  0
    1.0830    9.8037   -0.9385 H   0  0  0  0  0  0  0  0  0  0  0  0
    2.7543    9.1171   -1.1845 H   0  0  0  0  0  0  0  0  0  0  0  0
    1.0177    5.0245    0.4747 H   0  0  0  0  0  0  0  0  0  0  0  0
    1.1523    5.0551   -1.3266 H   0  0  0  0  0  0  0  0  0  0  0  0
   -0.9563    6.0366   -1.6713 H   0  0  0  0  0  0  0  0  0  0  0  0
   -1.3174    6.1010    0.1196 H   0  0  0  0  0  0  0  0  0  0  0  0
   -2.5357    4.3208   -1.1292 H   0  0  0  0  0  0  0  0  0  0  0  0
   -1.0038    3.7021   -1.7167 H   0  0  0  0  0  0  0  0  0  0  0  0
   -1.8096    3.9720    1.2388 H   0  0  0  0  0  0  0  0  0  0  0  0
   -0.3264    2.4970    1.9836 H   0  0  0  0  0  0  0  0  0  0  0  0
    1.9759    2.1885    2.1505 H   0  0  0  0  0  0  0  0  0  0  0  0
    1.1663    0.6737    1.8063 H   0  0  0  0  0  0  0  0  0  0  0  0
    5.0496    1.2694    0.3639 H   0  0  0  0  0  0  0  0  0  0  0  0
    4.1828    2.6633    0.9733 H   0  0  0  0  0  0  0  0  0  0  0  0
    3.7824    3.1234    3.2575 H   0  0  0  0  0  0  0  0  0  0  0  0
    4.4085    2.7930    5.5593 H   0  0  0  0  0  0  0  0  0  0  0  0
    5.7141    0.7779    6.1450 H   0  0  0  0  0  0  0  0  0  0  0  0
    6.3647   -0.8611    4.4441 H   0  0  0  0  0  0  0  0  0  0  0  0
    5.7115   -0.5373    2.0703 H   0  0  0  0  0  0  0  0  0  0  0  0
    3.9177   -2.0082    0.3622 H   0  0  0  0  0  0  0  0  0  0  0  0
    2.4102   -1.9379   -2.1663 H   0  0  0  0  0  0  0  0  0  0  0  0
    0.2676   -2.9650   -1.6736 H   0  0  0  0  0  0  0  0  0  0  0  0
    1.2844   -4.2476   -2.3773 H   0  0  0  0  0  0  0  0  0  0  0  0
   -0.6924   -5.1926   -1.3812 H   0  0  0  0  0  0  0  0  0  0  0  0
    0.7469   -5.7438   -0.5001 H   0  0  0  0  0  0  0  0  0  0  0  0
   -2.2921   -5.3495    0.3883 H   0  0  0  0  0  0  0  0  0  0  0  0
   -3.2040   -5.1473    2.6058 H   0  0  0  0  0  0  0  0  0  0  0  0
   -1.5500   -5.0802    3.1376 H   0  0  0  0  0  0  0  0  0  0  0  0
   -1.2677   -2.7119    2.9120 H   0  0  0  0  0  0  0  0  0  0  0  0
   -2.6353   -3.1316    3.9078 H   0  0  0  0  0  0  0  0  0  0  0  0
   -4.1116    0.3629    1.0748 H   0  0  0  0  0  0  0  0  0  0  0  0
   -1.2979    0.6382    0.3058 H   0  0  0  0  0  0  0  0  0  0  0  0
   -4.2882    0.6983   -1.2047 H   0  0  0  0  0  0  0  0  0  0  0  0
   -3.0150   -0.4322   -1.6311 H   0  0  0  0  0  0  0  0  0  0  0  0
   -6.7093   -0.0684   -1.0105 H   0  0  0  0  0  0  0  0  0  0  0  0
   -8.0221   -2.1484   -1.5209 H   0  0  0  0  0  0  0  0  0  0  0  0
   -2.7295   -3.1084   -1.4155 H   0  0  0  0  0  0  0  0  0  0  0  0
   -3.1021   -5.5547   -1.9740 H   0  0  0  0  0  0  0  0  0  0  0  0
   -5.4684   -6.3520   -2.2823 H   0  0  0  0  0  0  0  0  0  0  0  0
   -7.3633   -4.8114   -2.0473 H   0  0  0  0  0  0  0  0  0  0  0  0
   -4.4543   -0.6314    2.7339 H   0  0  0  0  0  0  0  0  0  0  0  0
   -4.1976   -1.9084    3.8941 H   0  0  0  0  0  0  0  0  0  0  0  0
   -6.8496   -1.8364    3.8212 H   0  0  0  0  0  0  0  0  0  0  0  0
   -7.6250   -1.8017    2.1649 H   0  0  0  0  0  0  0  0  0  0  0  0
    5.7218   -0.8286   -0.4664 H   0  0  0  0  0  0  0  0  0  0  0  0
    5.3463   -2.2450   -1.4030 H   0  0  0  0  0  0  0  0  0  0  0  0
    4.4804   -2.0602   -3.6480 H   0  0  0  0  0  0  0  0  0  0  0  0
    4.8610   -0.9319   -5.7890 H   0  0  0  0  0  0  0  0  0  0  0  0
    5.7864    1.3530   -5.8675 H   0  0  0  0  0  0  0  0  0  0  0  0
    6.3126    2.4884   -3.8094 H   0  0  0  0  0  0  0  0  0  0  0  0
    5.9629    1.4168   -1.6671 H   0  0  0  0  0  0  0  0  0  0  0  0
   -0.0821    8.0326   -3.0913 H   0  0  0  0  0  0  0  0  0  0  0  0
    0.9687    6.6161   -3.2360 H   0  0  0  0  0  0  0  0  0  0  0  0
  1  2  1  0
  2  3  2  3
  3  4  1  0
  4  5  1  0
  5  6  1  0
  6  7  1  0
  7  8  1  0
  8  9  1  0
  9 10  2  0
  9 11  1  0
 11 12  1  0
 12 13  1  0
 13 14  1  0
 14 15  2  0
 15 16  1  0
 16 17  2  0
 17 18  1  0
 18 19  2  0
 12 20  1  0
 20 21  2  0
 20 22  1  0
 22 23  1  0
 23 24  1  0
 24 25  2  0
 24 26  1  0
 26 27  1  0
 27 28  1  0
 28 29  2  0
 28 30  1  0
 30 31  1  0
 31 32  1  0
 32 33  1  0
 33 34  1  0
 34 35  2  0
 34 36  1  0
 36 37  1  0
 37 38  1  0
 38 39  2  0
 36 40  1  0
 40 41  1  0
 41 42  2  0
 42 43  1  0
 43 44  1  0
 44 45  2  0
 45 46  1  0
 46 47  2  0
 47 48  1  0
 48 49  2  0
 33 50  1  0
 50 51  1  0
 51 52  2  0
 51 53  1  0
 22 54  1  0
 54 55  1  0
 55 56  2  0
 56 57  1  0
 57 58  2  0
 58 59  1  0
 59 60  2  0
  2 61  1  0
 38  7  1  0
 45 41  1  0
 60 55  1  0
 19 14  1  0
 49 44  1  0
  1 62  1  0
  1 63  1  0
  4 64  1  0
  4 65  1  0
  5 66  1  0
  5 67  1  0
  6 68  1  0
  6 69  1  0
  7 70  1  1
  8 71  1  0
 11 72  1  0
 11 73  1  0
 13 74  1  0
 13 75  1  0
 15 76  1  0
 16 77  1  0
 17 78  1  0
 18 79  1  0
 19 80  1  0
 22 81  1  1
 23 82  1  0
 26 83  1  0
 26 84  1  0
 27 85  1  0
 27 86  1  0
 30 87  1  0
 31 88  1  0
 31 89  1  0
 32 90  1  0
 32 91  1  0
 36 92  1  1
 37 93  1  0
 40 94  1  0
 40 95  1  0
 42 96  1  0
 43 97  1  0
 46 98  1  0
 47 99  1  0
 48100  1  0
 49101  1  0
 50102  1  0
 50103  1  0
 53104  1  0
 53105  1  0
 54106  1  0
 54107  1  0
 56108  1  0
 57109  1  0
 58110  1  0
 59111  1  0
 60112  1  0
 61113  1  0
 61114  1  0
M  END
>  <Ligand ID>  (1) 
LIG0001322

>  <Ligand>  (1) 
CHEMBL589516

>  <SMILES>  (1) 
NC(=NCCC[C@@H]1NC(=O)CN(Cc2ccccc2)C(=O)[C@@H](NC(=O)CCC(=O)NCCN(C(=O)[C@@H](NC1=O)Cc1c[nH]c2c1cccc2)CC(=O)N)Cc1ccccc1)N

>  <CID>  (1) 
46232221.0

>  <ChEMBL ID>  (1) 
nan

>  <InChiKey>  (1) 
HJUBFBDOZXYEPW-IMKBVMFZSA-N

>  <InChi>  (1) 
InChI=1S/C43H53N11O7/c44-36(55)26-53-21-20-47-37(56)17-18-38(57)51-34(22-28-10-3-1-4-11-28)42(61)54(25-29-12-5-2-6-13-29)27-39(58)50-33(16-9-19-48-43(45)46)40(59)52-35(41(53)60)23-30-24-49-32-15-8-7-14-31(30)32/h1-8,10-15,24,33-35,49H,9,16-23,25-27H2,(H2,44,55)(H,47,56)(H,50,58)(H,51,57)(H,52,59)(H4,45,46,48)/t33-,34-,35-/m0/s1

>  <IUPAC Name>  (1) 
2-[(6S,9S,15S)-13,15-dibenzyl-9-[3-(diaminomethylideneamino)propyl]-6-(1H-indol-3-ylmethyl)-5,8,11,14,17,20-hexaoxo-1,4,7,10,13,16-hexazacycloicos-4-yl]acetamide

$$$$
