
     RDKit          3D

 66 72  0  0  0  0  0  0  0  0999 V2000
    1.7048   -2.6541    2.4599 O   0  0  0  0  0  0  0  0  0  0  0  0
    0.8585   -2.2628    1.6418 C   0  0  0  0  0  0  0  0  0  0  0  0
    1.0898   -2.3104    0.1979 C   0  0  0  0  0  0  0  0  0  0  0  0
    0.5670   -1.1411   -0.5894 C   0  0  0  0  0  0  0  0  0  0  0  0
   -0.3638   -0.2302    0.1200 C   0  0  2  0  0  0  0  0  0  0  0  0
   -1.1603   -1.0249    1.1018 C   0  0  0  0  0  0  0  0  0  0  0  0
   -0.3982   -1.7439    2.1743 C   0  0  0  0  0  0  0  0  0  0  0  0
   -1.2351   -2.8911    2.4473 O   0  0  0  0  0  0  0  0  0  0  0  0
   -1.7533   -3.2745    1.2191 C   0  0  0  0  0  0  0  0  0  0  0  0
   -1.7198   -2.1907    0.3734 C   0  0  0  0  0  0  0  0  0  0  0  0
   -2.1375   -2.1721   -0.9101 C   0  0  0  0  0  0  0  0  0  0  0  0
   -2.0160   -0.9285   -1.6920 C   0  0  0  0  0  0  0  0  0  0  0  0
   -1.4402    0.1865   -0.9163 C   0  0  1  0  0  0  0  0  0  0  0  0
   -2.4951    0.9404   -0.3282 N   0  0  0  0  0  0  0  0  0  0  0  0
   -3.1984    0.2939    0.7208 C   0  0  0  0  0  0  0  0  0  0  0  0
   -2.3071   -0.3224    1.7376 C   0  0  0  0  0  0  0  0  0  0  0  0
   -2.3190    2.3435   -0.2294 C   0  0  0  0  0  0  0  0  0  0  0  0
   -3.5492    2.9530    0.4175 C   0  0  0  0  0  0  0  0  0  0  0  0
   -4.8909    2.8249   -0.1784 C   0  0  0  0  0  0  0  0  0  0  0  0
   -4.1854    4.1430   -0.2818 C   0  0  0  0  0  0  0  0  0  0  0  0
   -2.6530   -3.3448   -1.4441 C   0  0  0  0  0  0  0  0  0  0  0  0
   -2.7120   -4.4735   -0.6340 C   0  0  0  0  0  0  0  0  0  0  0  0
   -2.2694   -4.4508    0.6861 C   0  0  0  0  0  0  0  0  0  0  0  0
    0.1458    0.9176    0.4635 O   0  0  0  0  0  0  0  0  0  0  0  0
    1.1055    1.3526    1.2024 C   0  0  0  0  0  0  0  0  0  0  0  0
    2.5590    1.0961    0.9165 C   0  0  0  0  0  0  0  0  0  0  0  0
    3.0920    1.6602   -0.3487 C   0  0  0  0  0  0  0  0  0  0  0  0
    4.5443    1.2543   -0.3958 C   0  0  0  0  0  0  0  0  0  0  0  0
    4.8971    0.0587   -0.9958 C   0  0  0  0  0  0  0  0  0  0  0  0
    6.1956   -0.3825   -1.0798 C   0  0  0  0  0  0  0  0  0  0  0  0
    7.1896    0.4131   -0.5361 C   0  0  0  0  0  0  0  0  0  0  0  0
    6.8518    1.6110    0.0669 C   0  0  0  0  0  0  0  0  0  0  0  0
    5.5354    2.0404    0.1424 C   0  0  0  0  0  0  0  0  0  0  0  0
    0.6623   -3.2823   -0.1530 H   0  0  0  0  0  0  0  0  0  0  0  0
    2.1944   -2.4505    0.0498 H   0  0  0  0  0  0  0  0  0  0  0  0
    0.1228   -1.5927   -1.5175 H   0  0  0  0  0  0  0  0  0  0  0  0
    1.4459   -0.5959   -0.9754 H   0  0  0  0  0  0  0  0  0  0  0  0
   -0.3416   -1.2295    3.1419 H   0  0  0  0  0  0  0  0  0  0  0  0
   -3.0534   -0.6632   -1.9948 H   0  0  0  0  0  0  0  0  0  0  0  0
   -1.5016   -1.1026   -2.6798 H   0  0  0  0  0  0  0  0  0  0  0  0
   -0.9285    0.8695   -1.6555 H   0  0  0  0  0  0  0  0  0  0  0  0
   -3.9604   -0.4279    0.3612 H   0  0  0  0  0  0  0  0  0  0  0  0
   -3.7935    1.0870    1.2617 H   0  0  0  0  0  0  0  0  0  0  0  0
   -2.0229    0.4301    2.4933 H   0  0  0  0  0  0  0  0  0  0  0  0
   -2.8943   -1.0858    2.3012 H   0  0  0  0  0  0  0  0  0  0  0  0
   -1.4713    2.5934    0.4190 H   0  0  0  0  0  0  0  0  0  0  0  0
   -2.2378    2.7752   -1.2476 H   0  0  0  0  0  0  0  0  0  0  0  0
   -3.5099    3.0906    1.5150 H   0  0  0  0  0  0  0  0  0  0  0  0
   -5.7687    2.7661    0.5232 H   0  0  0  0  0  0  0  0  0  0  0  0
   -5.0866    2.3255   -1.1347 H   0  0  0  0  0  0  0  0  0  0  0  0
   -3.7678    4.4386   -1.2840 H   0  0  0  0  0  0  0  0  0  0  0  0
   -4.5914    4.9820    0.2848 H   0  0  0  0  0  0  0  0  0  0  0  0
   -2.9997   -3.3708   -2.4717 H   0  0  0  0  0  0  0  0  0  0  0  0
   -3.1115   -5.3877   -1.0428 H   0  0  0  0  0  0  0  0  0  0  0  0
   -2.3154   -5.3296    1.3159 H   0  0  0  0  0  0  0  0  0  0  0  0
    1.0274    1.1996    2.3186 H   0  0  0  0  0  0  0  0  0  0  0  0
    1.0606    2.5022    1.1735 H   0  0  0  0  0  0  0  0  0  0  0  0
    3.1696    1.5589    1.7439 H   0  0  0  0  0  0  0  0  0  0  0  0
    2.7034   -0.0229    0.9356 H   0  0  0  0  0  0  0  0  0  0  0  0
    3.1311    2.7782   -0.2846 H   0  0  0  0  0  0  0  0  0  0  0  0
    2.6218    1.3658   -1.2826 H   0  0  0  0  0  0  0  0  0  0  0  0
    4.1013   -0.5500   -1.4159 H   0  0  0  0  0  0  0  0  0  0  0  0
    6.4806   -1.3166   -1.5474 H   0  0  0  0  0  0  0  0  0  0  0  0
    8.2369    0.1254   -0.5673 H   0  0  0  0  0  0  0  0  0  0  0  0
    7.6124    2.2557    0.5022 H   0  0  0  0  0  0  0  0  0  0  0  0
    5.2534    2.9734    0.6098 H   0  0  0  0  0  0  0  0  0  0  0  0
  1  2  2  0
  2  3  1  0
  3  4  1  0
  4  5  1  0
  5  6  1  0
  6  7  1  0
  7  8  1  0
  8  9  1  0
  9 10  2  0
 10 11  1  0
 11 12  1  0
 12 13  1  0
 13 14  1  0
 14 15  1  0
 15 16  1  0
 14 17  1  0
 17 18  1  0
 18 19  1  0
 19 20  1  0
 11 21  2  0
 21 22  1  0
 22 23  2  0
  5 24  1  1
 24 25  1  0
 25 26  1  0
 26 27  1  0
 27 28  1  0
 28 29  2  0
 29 30  1  0
 30 31  2  0
 31 32  1  0
 32 33  2  0
  7  2  1  0
 23  9  1  0
 33 28  1  0
 13  5  1  0
 20 18  1  0
 16  6  1  0
 10  6  1  0
  3 34  1  0
  3 35  1  0
  4 36  1  0
  4 37  1  0
  7 38  1  0
 12 39  1  0
 12 40  1  0
 13 41  1  6
 15 42  1  0
 15 43  1  0
 16 44  1  0
 16 45  1  0
 17 46  1  0
 17 47  1  0
 18 48  1  0
 19 49  1  0
 19 50  1  0
 20 51  1  0
 20 52  1  0
 21 53  1  0
 22 54  1  0
 23 55  1  0
 25 56  1  0
 25 57  1  0
 26 58  1  0
 26 59  1  0
 27 60  1  0
 27 61  1  0
 29 62  1  0
 30 63  1  0
 31 64  1  0
 32 65  1  0
 33 66  1  0
M  END
>  <Ligand ID>  (1) 
LIG0002965

>  <Ligand>  (1) 
CHEMBL321170

>  <SMILES>  (1) 
O=C1CC[C@@]2(C34C1Oc1c4c(C[C@H]2N(CC3)CC2CC2)ccc1)OCCCc1ccccc1

>  <CID>  (1) 
44339409.0

>  <ChEMBL ID>  (1) 
nan

>  <InChiKey>  (1) 
GJFLZGCDXSDABO-RFBOAJLRSA-N

>  <InChi>  (1) 
InChI=1S/C29H33NO3/c31-23-13-14-29(32-17-5-8-20-6-2-1-3-7-20)25-18-22-9-4-10-24-26(22)28(29,27(23)33-24)15-16-30(25)19-21-11-12-21/h1-4,6-7,9-10,21,25,27H,5,8,11-19H2/t25-,27?,28?,29-/m1/s1

>  <IUPAC Name>  (1) 
(4R,4aS)-3-(cyclopropylmethyl)-4a-(3-phenylpropoxy)-2,4,5,6,7a,13-hexahydro-1H-4,12-methanobenzofuro[3,2-e]isoquinolin-7-one

$$$$
