
     RDKit          3D

 56 56  0  0  0  0  0  0  0  0999 V2000
    1.5352    4.7614   -0.8610 C   0  0  0  0  0  0  0  0  0  0  0  0
    0.1012    4.4279   -0.5167 C   0  0  0  0  0  0  0  0  0  0  0  0
   -0.1953    2.9824   -0.8436 C   0  0  0  0  0  0  0  0  0  0  0  0
   -0.4222    2.7378   -2.0402 O   0  0  0  0  0  0  0  0  0  0  0  0
   -0.1954    2.0919    0.1284 O   0  0  0  0  0  0  0  0  0  0  0  0
   -0.4176    0.6563    0.1106 C   0  0  0  0  0  0  0  0  0  0  0  0
   -0.3999    0.3933    1.6011 C   0  0  0  0  0  0  0  0  0  0  0  0
   -0.0645    1.3356    2.5379 C   0  0  0  0  0  0  0  0  0  0  0  0
   -0.0476    1.0830    3.8912 C   0  0  0  0  0  0  0  0  0  0  0  0
   -0.3864   -0.1784    4.3050 C   0  0  0  0  0  0  0  0  0  0  0  0
   -0.7179   -1.1113    3.3724 C   0  0  0  0  0  0  0  0  0  0  0  0
   -0.7368   -0.8638    1.9998 C   0  0  0  0  0  0  0  0  0  0  0  0
    0.8850    0.1180   -0.3604 C   0  0  1  0  0  0  0  0  0  0  0  0
    1.0793   -1.3403   -0.4736 C   0  0  0  0  0  0  0  0  0  0  0  0
    2.4607   -1.5970   -0.9663 N   0  0  0  0  0  0  0  0  0  0  0  0
    2.5923   -3.0386   -1.2018 C   0  0  0  0  0  0  0  0  0  0  0  0
    3.4611   -1.2889    0.0302 C   0  0  0  0  0  0  0  0  0  0  0  0
    1.4887    0.7583   -1.5924 C   0  0  0  0  0  0  0  0  0  0  0  0
   -1.6667    0.4692   -0.5759 C   0  0  0  0  0  0  0  0  0  0  0  0
   -2.3537   -0.7949   -0.8279 C   0  0  0  0  0  0  0  0  0  0  0  0
   -3.3298   -1.2993    0.0536 C   0  0  0  0  0  0  0  0  0  0  0  0
   -4.0100   -2.4667   -0.1946 C   0  0  0  0  0  0  0  0  0  0  0  0
   -3.7615   -3.1933   -1.3215 C   0  0  0  0  0  0  0  0  0  0  0  0
   -2.8217   -2.7466   -2.2113 C   0  0  0  0  0  0  0  0  0  0  0  0
   -2.1501   -1.5827   -1.9549 C   0  0  0  0  0  0  0  0  0  0  0  0
    0.6874    0.0000    0.0000 Cl  0  0  0  0  0  0  0  0  0  0  0  0
    2.1789    3.9568   -0.4609 H   0  0  0  0  0  0  0  0  0  0  0  0
    1.6841    4.7884   -1.9447 H   0  0  0  0  0  0  0  0  0  0  0  0
    1.7743    5.7478   -0.4360 H   0  0  0  0  0  0  0  0  0  0  0  0
   -0.1253    4.6288    0.5468 H   0  0  0  0  0  0  0  0  0  0  0  0
   -0.5662    5.0432   -1.1386 H   0  0  0  0  0  0  0  0  0  0  0  0
    0.2047    2.3343    2.2282 H   0  0  0  0  0  0  0  0  0  0  0  0
    0.2203    1.8355    4.6162 H   0  0  0  0  0  0  0  0  0  0  0  0
   -0.3901   -0.4317    5.3473 H   0  0  0  0  0  0  0  0  0  0  0  0
   -0.9816   -2.0978    3.7048 H   0  0  0  0  0  0  0  0  0  0  0  0
   -0.9954   -1.6645    1.3738 H   0  0  0  0  0  0  0  0  0  0  0  0
    1.6214    0.4504    0.4481 H   0  0  0  0  0  0  0  0  0  0  0  0
    0.4600   -1.9146   -1.1403 H   0  0  0  0  0  0  0  0  0  0  0  0
    1.1575   -1.7731    0.5692 H   0  0  0  0  0  0  0  0  0  0  0  0
    2.8197   -3.5401   -0.2394 H   0  0  0  0  0  0  0  0  0  0  0  0
    1.6820   -3.4053   -1.6921 H   0  0  0  0  0  0  0  0  0  0  0  0
    3.4757   -3.1628   -1.8594 H   0  0  0  0  0  0  0  0  0  0  0  0
    4.2072   -0.5863   -0.3840 H   0  0  0  0  0  0  0  0  0  0  0  0
    4.0242   -2.1939    0.3760 H   0  0  0  0  0  0  0  0  0  0  0  0
    3.0372   -0.8498    0.9532 H   0  0  0  0  0  0  0  0  0  0  0  0
    2.4557    0.1563   -1.7485 H   0  0  0  0  0  0  0  0  0  0  0  0
    0.9588    0.5862   -2.5195 H   0  0  0  0  0  0  0  0  0  0  0  0
    1.9039    1.7576   -1.3882 H   0  0  0  0  0  0  0  0  0  0  0  0
   -1.6487    1.0383   -1.5674 H   0  0  0  0  0  0  0  0  0  0  0  0
   -2.4879    1.0537   -0.0198 H   0  0  0  0  0  0  0  0  0  0  0  0
   -3.4998   -0.6847    0.9485 H   0  0  0  0  0  0  0  0  0  0  0  0
   -4.7480   -2.7618    0.5636 H   0  0  0  0  0  0  0  0  0  0  0  0
   -4.3271   -4.1022   -1.4692 H   0  0  0  0  0  0  0  0  0  0  0  0
   -2.6303   -3.3275   -3.1075 H   0  0  0  0  0  0  0  0  0  0  0  0
   -1.3917   -1.1947   -2.6482 H   0  0  0  0  0  0  0  0  0  0  0  0
   -0.6874    0.0000    0.0000 H   0  0  0  0  0  0  0  0  0  0  0  0
  1  2  1  0
  2  3  1  0
  3  4  2  0
  3  5  1  0
  5  6  1  0
  6  7  1  0
  7  8  2  0
  8  9  1  0
  9 10  2  0
 10 11  1  0
 11 12  2  0
  6 13  1  0
 13 14  1  0
 14 15  1  0
 15 16  1  0
 15 17  1  0
 13 18  1  0
  6 19  1  0
 19 20  1  0
 20 21  2  0
 21 22  1  0
 22 23  2  0
 23 24  1  0
 24 25  2  0
 12  7  1  0
 25 20  1  0
  1 27  1  0
  1 28  1  0
  1 29  1  0
  2 30  1  0
  2 31  1  0
  8 32  1  0
  9 33  1  0
 10 34  1  0
 11 35  1  0
 12 36  1  0
 13 37  1  1
 14 38  1  0
 14 39  1  0
 16 40  1  0
 16 41  1  0
 16 42  1  0
 17 43  1  0
 17 44  1  0
 17 45  1  0
 18 46  1  0
 18 47  1  0
 18 48  1  0
 19 49  1  0
 19 50  1  0
 21 51  1  0
 22 52  1  0
 23 53  1  0
 24 54  1  0
 25 55  1  0
 26 56  1  0
M  END
>  <Ligand ID>  (1) 
LIG0004044

>  <Ligand>  (1) 
MLS002320725

>  <SMILES>  (1) 
CCC(=O)OC(c1ccccc1)([C@@H](CN(C)C)C)Cc1ccccc1.Cl

>  <CID>  (1) 
44246734.0

>  <ChEMBL ID>  (1) 
nan

>  <InChiKey>  (1) 
QMQBBUPJKANITL-PQMWQWLJSA-N

>  <InChi>  (1) 
InChI=1S/C22H29NO2.ClH/c1-5-21(24)25-22(18(2)17-23(3)4,20-14-10-7-11-15-20)16-19-12-8-6-9-13-19;/h6-15,18H,5,16-17H2,1-4H3;1H/t18-,22?;/m1./s1

>  <IUPAC Name>  (1) 
[(3R)-4-(dimethylamino)-3-methyl-1,2-diphenylbutan-2-yl] propanoate;hydrochloride

$$$$
