
     RDKit          3D

 49 53  0  0  0  0  0  0  0  0999 V2000
   -6.4183   -4.2151    1.2279 Cl  0  0  0  0  0  0  0  0  0  0  0  0
   -5.3713   -3.1590    0.3308 C   0  0  0  0  0  0  0  0  0  0  0  0
   -5.8832   -1.9851   -0.1795 C   0  0  0  0  0  0  0  0  0  0  0  0
   -5.1136   -1.1014   -0.8990 C   0  0  0  0  0  0  0  0  0  0  0  0
   -3.7476   -1.3485   -1.1571 C   0  0  0  0  0  0  0  0  0  0  0  0
   -3.2633   -2.5143   -0.6441 C   0  0  0  0  0  0  0  0  0  0  0  0
   -4.0400   -3.4147    0.0874 C   0  0  0  0  0  0  0  0  0  0  0  0
   -3.0999   -0.4067   -1.8762 O   0  0  0  0  0  0  0  0  0  0  0  0
   -1.7860   -0.3790   -2.2481 C   0  0  0  0  0  0  0  0  0  0  0  0
   -0.7821   -0.3108   -1.1592 C   0  0  0  0  0  0  0  0  0  0  0  0
   -0.0965   -1.2486   -0.5025 N   0  0  0  0  0  0  0  0  0  0  0  0
    0.6956   -0.6819    0.4027 N   0  0  0  0  0  0  0  0  0  0  0  0
    0.5318    0.6582    0.3448 C   0  0  0  0  0  0  0  0  0  0  0  0
   -0.3909    0.8808   -0.6313 N   0  0  0  0  0  0  0  0  0  0  0  0
   -0.8502    2.1946   -1.0096 C   0  0  0  0  0  0  0  0  0  0  0  0
   -2.0419    2.6033   -0.2040 C   0  0  0  0  0  0  0  0  0  0  0  0
   -2.0327    3.2803    0.9988 C   0  0  0  0  0  0  0  0  0  0  0  0
   -3.3722    3.4350    1.3628 C   0  0  0  0  0  0  0  0  0  0  0  0
   -4.1236    2.8463    0.3664 C   0  0  0  0  0  0  0  0  0  0  0  0
   -3.2931    2.3756   -0.5253 O   0  0  0  0  0  0  0  0  0  0  0  0
    1.3454    1.9174    1.3350 S   0  0  0  0  0  0  0  0  0  0  0  0
    2.8643    2.3848    0.4539 C   0  0  0  0  0  0  0  0  0  0  0  0
    3.7567    1.1847    0.4701 C   0  0  0  0  0  0  0  0  0  0  0  0
    3.8041    0.2069   -0.4444 N   0  0  0  0  0  0  0  0  0  0  0  0
    4.7377   -0.6892   -0.0674 C   0  0  0  0  0  0  0  0  0  0  0  0
    5.2629   -0.2141    1.1252 C   0  0  0  0  0  0  0  0  0  0  0  0
    4.6542    0.9414    1.4514 N   0  0  0  0  0  0  0  0  0  0  0  0
    6.2669   -0.9099    1.7989 C   0  0  0  0  0  0  0  0  0  0  0  0
    6.7405   -2.0801    1.2735 C   0  0  0  0  0  0  0  0  0  0  0  0
    6.2234   -2.5557    0.0914 C   0  0  0  0  0  0  0  0  0  0  0  0
    5.2385   -1.8669   -0.5631 C   0  0  0  0  0  0  0  0  0  0  0  0
   -6.9321   -1.7362   -0.0146 H   0  0  0  0  0  0  0  0  0  0  0  0
   -5.5862   -0.1917   -1.2724 H   0  0  0  0  0  0  0  0  0  0  0  0
   -2.2467   -2.7972   -0.8001 H   0  0  0  0  0  0  0  0  0  0  0  0
   -3.6042   -4.3334    0.4764 H   0  0  0  0  0  0  0  0  0  0  0  0
   -1.6725    0.5085   -2.9462 H   0  0  0  0  0  0  0  0  0  0  0  0
   -1.5243   -1.2412   -2.9257 H   0  0  0  0  0  0  0  0  0  0  0  0
   -1.1217    2.2630   -2.0834 H   0  0  0  0  0  0  0  0  0  0  0  0
   -0.0400    2.9145   -0.7842 H   0  0  0  0  0  0  0  0  0  0  0  0
   -1.1567    3.6202    1.5445 H   0  0  0  0  0  0  0  0  0  0  0  0
   -3.7225    3.9235    2.2542 H   0  0  0  0  0  0  0  0  0  0  0  0
   -5.1881    2.7639    0.2907 H   0  0  0  0  0  0  0  0  0  0  0  0
    2.5981    2.5689   -0.6114 H   0  0  0  0  0  0  0  0  0  0  0  0
    3.3596    3.2587    0.9171 H   0  0  0  0  0  0  0  0  0  0  0  0
    4.8271    1.5328    2.2797 H   0  0  0  0  0  0  0  0  0  0  0  0
    6.6652   -0.5141    2.7388 H   0  0  0  0  0  0  0  0  0  0  0  0
    7.5283   -2.6644    1.7637 H   0  0  0  0  0  0  0  0  0  0  0  0
    6.5836   -3.4803   -0.3427 H   0  0  0  0  0  0  0  0  0  0  0  0
    4.8178   -2.2238   -1.4946 H   0  0  0  0  0  0  0  0  0  0  0  0
  1  2  1  0
  2  3  2  0
  3  4  1  0
  4  5  2  0
  5  6  1  0
  6  7  2  0
  5  8  1  0
  8  9  1  0
  9 10  1  0
 10 11  2  0
 11 12  1  0
 12 13  2  0
 13 14  1  0
 14 15  1  0
 15 16  1  0
 16 17  2  0
 17 18  1  0
 18 19  2  0
 19 20  1  0
 13 21  1  0
 21 22  1  0
 22 23  1  0
 23 24  2  0
 24 25  1  0
 25 26  2  0
 26 27  1  0
 26 28  1  0
 28 29  2  0
 29 30  1  0
 30 31  2  0
  7  2  1  0
 14 10  1  0
 20 16  1  0
 27 23  1  0
 31 25  1  0
  3 32  1  0
  4 33  1  0
  6 34  1  0
  7 35  1  0
  9 36  1  0
  9 37  1  0
 15 38  1  0
 15 39  1  0
 17 40  1  0
 18 41  1  0
 19 42  1  0
 22 43  1  0
 22 44  1  0
 27 45  1  0
 28 46  1  0
 29 47  1  0
 30 48  1  0
 31 49  1  0
M  END
>  <Ligand ID>  (1) 
LIG0002752

>  <Ligand>  (1) 
SMR000048249

>  <SMILES>  (1) 
Clc1ccc(cc1)OCc1nnc(n1Cc1ccco1)SCc1nc2c([nH]1)cccc2

>  <CID>  (1) 
666902.0

>  <ChEMBL ID>  (1) 
nan

>  <InChiKey>  (1) 
IEGYGNTYKDDMDB-UHFFFAOYSA-N

>  <InChi>  (1) 
InChI=1S/C22H18ClN5O2S/c23-15-7-9-16(10-8-15)30-13-21-26-27-22(28(21)12-17-4-3-11-29-17)31-14-20-24-18-5-1-2-6-19(18)25-20/h1-11H,12-14H2,(H,24,25)

>  <IUPAC Name>  (1) 
2-[[5-[(4-chlorophenoxy)methyl]-4-(furan-2-ylmethyl)-1,2,4-triazol-3-yl]sulfanylmethyl]-1H-benzimidazole

$$$$
