
     RDKit          3D

 18 17  0  0  0  0  0  0  0  0999 V2000
    2.2493    0.4587    0.7757 S   0  0  0  0  0  0  0  0  0  0  0  0
    1.5015   -0.6846   -0.3764 C   0  0  0  0  0  0  0  0  0  0  0  0
    0.1769   -1.2383    0.0367 C   0  0  0  0  0  0  0  0  0  0  0  0
   -0.8888   -0.2234    0.2471 C   0  0  0  0  0  0  0  0  0  0  0  0
   -0.6262    0.8039    1.2893 C   0  0  0  0  0  0  0  0  0  0  0  0
   -1.2523    0.4314   -1.0769 C   0  0  0  0  0  0  0  0  0  0  0  0
    2.4943    1.7360    0.2276 H   0  0  0  0  0  0  0  0  0  0  0  0
    1.4597   -0.2482   -1.4073 H   0  0  0  0  0  0  0  0  0  0  0  0
    2.1996   -1.5505   -0.4731 H   0  0  0  0  0  0  0  0  0  0  0  0
    0.3192   -1.8614    0.9420 H   0  0  0  0  0  0  0  0  0  0  0  0
   -0.1617   -1.8830   -0.8050 H   0  0  0  0  0  0  0  0  0  0  0  0
   -1.8085   -0.7782    0.5542 H   0  0  0  0  0  0  0  0  0  0  0  0
   -0.2640    1.7264    0.7652 H   0  0  0  0  0  0  0  0  0  0  0  0
    0.0566    0.4517    2.0775 H   0  0  0  0  0  0  0  0  0  0  0  0
   -1.5767    1.0584    1.8430 H   0  0  0  0  0  0  0  0  0  0  0  0
   -2.3469    0.5833   -1.1614 H   0  0  0  0  0  0  0  0  0  0  0  0
   -0.6943    1.3994   -1.0928 H   0  0  0  0  0  0  0  0  0  0  0  0
   -0.8377   -0.1815   -1.8900 H   0  0  0  0  0  0  0  0  0  0  0  0
  1  2  1  0
  2  3  1  0
  3  4  1  0
  4  5  1  0
  4  6  1  0
  1  7  1  0
  2  8  1  0
  2  9  1  0
  3 10  1  0
  3 11  1  0
  4 12  1  0
  5 13  1  0
  5 14  1  0
  5 15  1  0
  6 16  1  0
  6 17  1  0
  6 18  1  0
M  END
>  <Ligand ID>  (1) 
LIG0001073

>  <Ligand>  (1) 
Isoamyl mercaptan

>  <SMILES>  (1) 
SCCC(C)C

>  <CID>  (1) 
10925.0

>  <ChEMBL ID>  (1) 
nan

>  <InChiKey>  (1) 
GIJGXNFNUUFEGH-UHFFFAOYSA-N

>  <InChi>  (1) 
InChI=1S/C5H12S/c1-5(2)3-4-6/h5-6H,3-4H2,1-2H3

>  <IUPAC Name>  (1) 
3-methylbutane-1-thiol

$$$$
