
     RDKit          3D

 42 43  0  0  0  0  0  0  0  0999 V2000
   -1.3489   -0.3814   -1.6187 O   0  0  0  0  0  0  0  0  0  0  0  0
   -1.5617    0.4751   -0.7115 C   0  0  0  0  0  0  0  0  0  0  0  0
   -0.5337    1.2725   -0.1417 N   0  0  0  0  0  0  0  0  0  0  0  0
    0.8505    1.1531   -0.5526 C   0  0  0  0  0  0  0  0  0  0  0  0
    1.1990    2.2293   -1.5890 C   0  0  0  0  0  0  0  0  0  0  0  0
    0.9333    3.8521   -0.8638 Cl  0  0  0  0  0  0  0  0  0  0  0  0
    0.1530    2.0466   -3.0239 Cl  0  0  0  0  0  0  0  0  0  0  0  0
    2.8831    2.1723   -2.0883 Cl  0  0  0  0  0  0  0  0  0  0  0  0
    1.7868    1.0731    0.5203 N   0  0  0  0  0  0  0  0  0  0  0  0
    2.9961    0.3495    0.5410 C   0  0  0  0  0  0  0  0  0  0  0  0
    3.9106    0.4704    1.9213 S   0  0  0  0  0  0  0  0  0  0  0  0
    3.5053   -0.4656   -0.4813 N   0  0  0  0  0  0  0  0  0  0  0  0
    4.7752   -1.1441   -0.3214 C   0  0  0  0  0  0  0  0  0  0  0  0
    4.7044   -2.3040    0.4534 C   0  0  0  0  0  0  0  0  0  0  0  0
    5.8553   -3.0122    0.6448 C   0  0  0  0  0  0  0  0  0  0  0  0
    7.0196   -2.5750    0.0845 C   0  0  0  0  0  0  0  0  0  0  0  0
    7.0955   -1.4171   -0.6910 C   0  0  0  0  0  0  0  0  0  0  0  0
    5.9294   -0.6844   -0.8938 C   0  0  0  0  0  0  0  0  0  0  0  0
    8.7717   -0.9239   -1.4186 Br  0  0  0  0  0  0  0  0  0  0  0  0
   -2.8559    0.6194   -0.2776 O   0  0  0  0  0  0  0  0  0  0  0  0
   -3.9376   -0.1299   -0.8088 C   0  0  0  0  0  0  0  0  0  0  0  0
   -5.2208    0.1907   -0.1408 C   0  0  0  0  0  0  0  0  0  0  0  0
   -5.5723   -0.6639    0.9206 C   0  0  0  0  0  0  0  0  0  0  0  0
   -6.7571   -0.4410    1.6224 C   0  0  0  0  0  0  0  0  0  0  0  0
   -7.5795    0.6184    1.2712 C   0  0  0  0  0  0  0  0  0  0  0  0
   -7.2378    1.4675    0.2229 C   0  0  0  0  0  0  0  0  0  0  0  0
   -6.0425    1.2263   -0.4702 C   0  0  0  0  0  0  0  0  0  0  0  0
   -0.7519    1.9831    0.6069 H   0  0  0  0  0  0  0  0  0  0  0  0
    0.8911    0.2031   -1.1800 H   0  0  0  0  0  0  0  0  0  0  0  0
    1.5182    1.6336    1.3968 H   0  0  0  0  0  0  0  0  0  0  0  0
    3.0388   -0.6640   -1.3964 H   0  0  0  0  0  0  0  0  0  0  0  0
    3.7735   -2.6316    0.8902 H   0  0  0  0  0  0  0  0  0  0  0  0
    5.8141   -3.9077    1.2403 H   0  0  0  0  0  0  0  0  0  0  0  0
    7.9174   -3.1859    0.2775 H   0  0  0  0  0  0  0  0  0  0  0  0
    5.9629    0.2144   -1.4883 H   0  0  0  0  0  0  0  0  0  0  0  0
   -3.7532   -1.2211   -0.7387 H   0  0  0  0  0  0  0  0  0  0  0  0
   -4.0828    0.1650   -1.8831 H   0  0  0  0  0  0  0  0  0  0  0  0
   -4.9132   -1.5047    1.1896 H   0  0  0  0  0  0  0  0  0  0  0  0
   -7.0055   -1.1131    2.4302 H   0  0  0  0  0  0  0  0  0  0  0  0
   -8.4944    0.7801    1.8235 H   0  0  0  0  0  0  0  0  0  0  0  0
   -7.8885    2.3025   -0.0511 H   0  0  0  0  0  0  0  0  0  0  0  0
   -5.7478    1.8726   -1.2961 H   0  0  0  0  0  0  0  0  0  0  0  0
  1  2  2  0
  2  3  1  0
  3  4  1  0
  4  5  1  0
  5  6  1  0
  5  7  1  0
  5  8  1  0
  4  9  1  0
  9 10  1  0
 10 11  2  0
 10 12  1  0
 12 13  1  0
 13 14  2  0
 14 15  1  0
 15 16  2  0
 16 17  1  0
 17 18  2  0
 17 19  1  0
  2 20  1  0
 20 21  1  0
 21 22  1  0
 22 23  2  0
 23 24  1  0
 24 25  2  0
 25 26  1  0
 26 27  2  0
 18 13  1  0
 27 22  1  0
  3 28  1  0
  4 29  1  0
  9 30  1  0
 12 31  1  0
 14 32  1  0
 15 33  1  0
 16 34  1  0
 18 35  1  0
 21 36  1  0
 21 37  1  0
 23 38  1  0
 24 39  1  0
 25 40  1  0
 26 41  1  0
 27 42  1  0
M  END
>  <Ligand ID>  (1) 
LIG0002698

>  <Ligand>  (1) 
MLS-0425698.0001

>  <SMILES>  (1) 
O=C(NC(C(Cl)(Cl)Cl)NC(=S)Nc1cccc(c1)Br)OCc1ccccc1

>  <CID>  (1) 
3091269.0

>  <ChEMBL ID>  (1) 
nan

>  <InChiKey>  (1) 
HKLRRVPCRDVDOT-UHFFFAOYSA-N

>  <InChi>  (1) 
InChI=1S/C17H15BrCl3N3O2S/c18-12-7-4-8-13(9-12)22-15(27)23-14(17(19,20)21)24-16(25)26-10-11-5-2-1-3-6-11/h1-9,14H,10H2,(H,24,25)(H2,22,23,27)

>  <IUPAC Name>  (1) 
benzyl N-[1-[(3-bromophenyl)carbamothioylamino]-2,2,2-trichloroethyl]carbamate

$$$$
