
     RDKit          3D

 57 61  0  0  0  0  0  0  0  0999 V2000
   -6.0053    4.6239   -0.2171 C   0  0  0  0  0  0  0  0  0  0  0  0
   -5.2673    3.3410   -0.0945 C   0  0  0  0  0  0  0  0  0  0  0  0
   -5.8838    2.1087   -0.0742 C   0  0  0  0  0  0  0  0  0  0  0  0
   -5.1242    0.9545    0.0452 C   0  0  0  0  0  0  0  0  0  0  0  0
   -3.7361    0.9915    0.1471 C   0  0  0  0  0  0  0  0  0  0  0  0
   -3.1773    2.2108    0.1225 N   0  0  0  0  0  0  0  0  0  0  0  0
   -3.8952    3.3516    0.0072 C   0  0  0  0  0  0  0  0  0  0  0  0
   -1.8468    2.3561    0.2205 C   0  0  0  0  0  0  0  0  0  0  0  0
   -1.3012    3.4987    0.1992 O   0  0  0  0  0  0  0  0  0  0  0  0
   -1.0954    1.2039    0.3464 C   0  0  0  0  0  0  0  0  0  0  0  0
   -1.6523   -0.0580    0.3736 C   0  0  0  0  0  0  0  0  0  0  0  0
   -2.9925   -0.1239    0.2699 N   0  0  0  0  0  0  0  0  0  0  0  0
   -0.8827   -1.1749    0.5061 N   0  0  0  0  0  0  0  0  0  0  0  0
   -1.4609   -2.4787    0.5405 C   0  0  0  0  0  0  0  0  0  0  0  0
   -2.7784   -2.6544   -0.1076 C   0  0  0  0  0  0  0  0  0  0  0  0
   -2.9341   -4.1543   -0.2688 C   0  0  0  0  0  0  0  0  0  0  0  0
   -1.5559   -4.5896   -0.6424 C   0  0  0  0  0  0  0  0  0  0  0  0
   -0.6050   -3.5532   -0.0950 C   0  0  0  0  0  0  0  0  0  0  0  0
    0.4761   -1.0294    0.6145 C   0  0  0  0  0  0  0  0  0  0  0  0
    1.2302   -2.0677    0.7421 N   0  0  0  0  0  0  0  0  0  0  0  0
    1.0550    0.2238    0.5902 C   0  0  0  0  0  0  0  0  0  0  0  0
    0.2543    1.3389    0.4546 C   0  0  0  0  0  0  0  0  0  0  0  0
    2.4847    0.4536    0.7112 C   0  0  0  0  0  0  0  0  0  0  0  0
    2.9037    1.0047    1.7644 O   0  0  0  0  0  0  0  0  0  0  0  0
    3.4430    0.1038   -0.2696 N   0  0  0  0  0  0  0  0  0  0  0  0
    4.8148    0.3970   -0.0101 C   0  0  0  0  0  0  0  0  0  0  0  0
    5.4428    1.3546   -1.0259 C   0  0  0  0  0  0  0  0  0  0  0  0
    6.8873    1.3511   -0.5069 C   0  0  0  0  0  0  0  0  0  0  0  0
    7.1225   -0.0758   -0.0439 C   0  0  0  0  0  0  0  0  0  0  0  0
    5.7580   -0.7759   -0.1498 C   0  0  0  0  0  0  0  0  0  0  0  0
   -6.9959    4.6244    0.2436 H   0  0  0  0  0  0  0  0  0  0  0  0
   -5.4078    5.4078    0.2728 H   0  0  0  0  0  0  0  0  0  0  0  0
   -6.0776    4.8582   -1.2921 H   0  0  0  0  0  0  0  0  0  0  0  0
   -6.9675    2.0849   -0.1516 H   0  0  0  0  0  0  0  0  0  0  0  0
   -5.6261   -0.0209    0.0621 H   0  0  0  0  0  0  0  0  0  0  0  0
   -3.3950    4.3223   -0.0099 H   0  0  0  0  0  0  0  0  0  0  0  0
   -1.5811   -2.7340    1.6347 H   0  0  0  0  0  0  0  0  0  0  0  0
   -3.6675   -2.3695    0.5293 H   0  0  0  0  0  0  0  0  0  0  0  0
   -2.8340   -2.2513   -1.1336 H   0  0  0  0  0  0  0  0  0  0  0  0
   -3.2714   -4.5635    0.7074 H   0  0  0  0  0  0  0  0  0  0  0  0
   -3.7040   -4.3861   -1.0594 H   0  0  0  0  0  0  0  0  0  0  0  0
   -1.4718   -4.7069   -1.7427 H   0  0  0  0  0  0  0  0  0  0  0  0
   -1.3389   -5.6147   -0.2385 H   0  0  0  0  0  0  0  0  0  0  0  0
   -0.0210   -3.1690   -0.9570 H   0  0  0  0  0  0  0  0  0  0  0  0
    0.0066   -4.0690    0.6712 H   0  0  0  0  0  0  0  0  0  0  0  0
    2.2575   -1.9342    0.8221 H   0  0  0  0  0  0  0  0  0  0  0  0
    0.7071    2.3355    0.4329 H   0  0  0  0  0  0  0  0  0  0  0  0
    3.1277   -0.3523   -1.1400 H   0  0  0  0  0  0  0  0  0  0  0  0
    4.9820    0.8691    0.9818 H   0  0  0  0  0  0  0  0  0  0  0  0
    5.3903    0.8569   -1.9958 H   0  0  0  0  0  0  0  0  0  0  0  0
    5.0026    2.3553   -0.9634 H   0  0  0  0  0  0  0  0  0  0  0  0
    7.6014    1.7071   -1.2476 H   0  0  0  0  0  0  0  0  0  0  0  0
    6.8860    1.9906    0.3990 H   0  0  0  0  0  0  0  0  0  0  0  0
    7.8778   -0.5259   -0.7024 H   0  0  0  0  0  0  0  0  0  0  0  0
    7.4513   -0.1284    1.0126 H   0  0  0  0  0  0  0  0  0  0  0  0
    5.7225   -1.1880   -1.1857 H   0  0  0  0  0  0  0  0  0  0  0  0
    5.6690   -1.5309    0.6381 H   0  0  0  0  0  0  0  0  0  0  0  0
  1  2  1  0
  2  3  1  0
  3  4  2  0
  4  5  1  0
  5  6  1  0
  6  7  1  0
  6  8  1  0
  8  9  2  0
  8 10  1  0
 10 11  2  0
 11 12  1  0
 11 13  1  0
 13 14  1  0
 14 15  1  0
 15 16  1  0
 16 17  1  0
 17 18  1  0
 13 19  1  0
 19 20  2  3
 19 21  1  0
 21 22  2  0
 21 23  1  0
 23 24  2  0
 23 25  1  0
 25 26  1  0
 26 27  1  0
 27 28  1  0
 28 29  1  0
 29 30  1  0
  7  2  2  0
 22 10  1  0
 30 26  1  0
 12  5  2  0
 18 14  1  0
  1 31  1  0
  1 32  1  0
  1 33  1  0
  3 34  1  0
  4 35  1  0
  7 36  1  0
 14 37  1  0
 15 38  1  0
 15 39  1  0
 16 40  1  0
 16 41  1  0
 17 42  1  0
 17 43  1  0
 18 44  1  0
 18 45  1  0
 20 46  1  0
 22 47  1  0
 25 48  1  0
 26 49  1  0
 27 50  1  0
 27 51  1  0
 28 52  1  0
 28 53  1  0
 29 54  1  0
 29 55  1  0
 30 56  1  0
 30 57  1  0
M  END
>  <Ligand ID>  (1) 
LIG0003910

>  <Ligand>  (1) 
MLS-0437148.0001

>  <SMILES>  (1) 
Cc1ccc2n(c1)c(=O)c1c(n2)n(C2CCCC2)c(=N)c(c1)C(=O)NC1CCCC1

>  <CID>  (1) 
3151387.0

>  <ChEMBL ID>  (1) 
nan

>  <InChiKey>  (1) 
DWDPGNXYRREXDD-UHFFFAOYSA-N

>  <InChi>  (1) 
InChI=1S/C23H27N5O2/c1-14-10-11-19-26-21-18(23(30)27(19)13-14)12-17(22(29)25-15-6-2-3-7-15)20(24)28(21)16-8-4-5-9-16/h10-13,15-16,24H,2-9H2,1H3,(H,25,29)

>  <IUPAC Name>  (1) 
N,7-dicyclopentyl-6-imino-13-methyl-2-oxo-1,7,9-triazatricyclo[8.4.0.03,8]tetradeca-3(8),4,9,11,13-pentaene-5-carboxamide

$$$$
