
     RDKit          3D

 54 55  0  0  0  0  0  0  0  0999 V2000
    8.5689    2.4332   -0.1354 C   0  0  0  0  0  0  0  0  0  0  0  0
    8.0901    1.0026    0.1262 C   0  0  0  0  0  0  0  0  0  0  0  0
    6.5671    1.0246   -0.0188 C   0  0  0  0  0  0  0  0  0  0  0  0
    6.0163   -0.3289    0.2196 C   0  0  0  0  0  0  0  0  0  0  0  0
    6.7727   -1.2825    0.4930 O   0  0  0  0  0  0  0  0  0  0  0  0
    4.5836   -0.5271    0.1300 C   0  0  0  0  0  0  0  0  0  0  0  0
    3.7260    0.5047   -0.1694 C   0  0  0  0  0  0  0  0  0  0  0  0
    2.3628    0.2417   -0.2388 C   0  0  0  0  0  0  0  0  0  0  0  0
    1.8262   -1.0018   -0.0219 C   0  0  0  0  0  0  0  0  0  0  0  0
    2.7415   -2.0202    0.2796 C   0  0  0  0  0  0  0  0  0  0  0  0
    4.0937   -1.7938    0.3555 C   0  0  0  0  0  0  0  0  0  0  0  0
    4.9609   -2.8292    0.6562 O   0  0  0  0  0  0  0  0  0  0  0  0
    2.2625   -3.4125    0.5329 C   0  0  0  0  0  0  0  0  0  0  0  0
    0.5165   -1.3534   -0.0691 O   0  0  0  0  0  0  0  0  0  0  0  0
   -0.6377   -0.6433   -0.3119 C   0  0  0  0  0  0  0  0  0  0  0  0
   -0.8956    0.4156    0.7177 C   0  0  0  0  0  0  0  0  0  0  0  0
   -2.1456    1.2030    0.4104 C   0  0  0  0  0  0  0  0  0  0  0  0
   -3.3387    0.3210    0.3866 C   0  0  0  0  0  0  0  0  0  0  0  0
   -4.5425    1.0784    0.1143 O   0  0  0  0  0  0  0  0  0  0  0  0
   -5.7570    0.4080    0.0558 C   0  0  0  0  0  0  0  0  0  0  0  0
   -5.8813   -0.9532    0.2445 C   0  0  0  0  0  0  0  0  0  0  0  0
   -7.1354   -1.5240    0.1657 C   0  0  0  0  0  0  0  0  0  0  0  0
   -8.2802   -0.7852   -0.0960 C   0  0  0  0  0  0  0  0  0  0  0  0
   -8.1099    0.5713   -0.2779 C   0  0  0  0  0  0  0  0  0  0  0  0
   -6.8752    1.1820   -0.2077 C   0  0  0  0  0  0  0  0  0  0  0  0
   -9.2909    1.3813   -0.5551 C   0  0  0  0  0  0  0  0  0  0  0  0
  -10.4241    0.8259   -0.6204 O   0  0  0  0  0  0  0  0  0  0  0  0
   -9.2227    2.7501   -0.7523 O   0  0  0  0  0  0  0  0  0  0  0  0
   -9.5077   -1.3704   -0.1691 F   0  0  0  0  0  0  0  0  0  0  0  0
    8.5859    2.6607   -1.2188 H   0  0  0  0  0  0  0  0  0  0  0  0
    7.8517    3.1476    0.3134 H   0  0  0  0  0  0  0  0  0  0  0  0
    9.5614    2.6135    0.3039 H   0  0  0  0  0  0  0  0  0  0  0  0
    8.3524    0.7284    1.1623 H   0  0  0  0  0  0  0  0  0  0  0  0
    8.5260    0.3649   -0.6418 H   0  0  0  0  0  0  0  0  0  0  0  0
    6.1263    1.7963    0.6436 H   0  0  0  0  0  0  0  0  0  0  0  0
    6.3255    1.3551   -1.0572 H   0  0  0  0  0  0  0  0  0  0  0  0
    4.1017    1.5200   -0.3517 H   0  0  0  0  0  0  0  0  0  0  0  0
    1.7345    1.0608   -0.4871 H   0  0  0  0  0  0  0  0  0  0  0  0
    4.7519   -3.4162    1.4337 H   0  0  0  0  0  0  0  0  0  0  0  0
    1.2482   -3.5899    0.1526 H   0  0  0  0  0  0  0  0  0  0  0  0
    2.9308   -4.1093   -0.0095 H   0  0  0  0  0  0  0  0  0  0  0  0
    2.2431   -3.6612    1.6128 H   0  0  0  0  0  0  0  0  0  0  0  0
   -1.5342   -1.3358   -0.3009 H   0  0  0  0  0  0  0  0  0  0  0  0
   -0.6166   -0.2069   -1.3514 H   0  0  0  0  0  0  0  0  0  0  0  0
   -1.1112   -0.1084    1.7128 H   0  0  0  0  0  0  0  0  0  0  0  0
   -0.0432    1.0610    0.9638 H   0  0  0  0  0  0  0  0  0  0  0  0
   -2.2819    1.9507    1.2270 H   0  0  0  0  0  0  0  0  0  0  0  0
   -2.0445    1.7649   -0.5478 H   0  0  0  0  0  0  0  0  0  0  0  0
   -3.4725   -0.1581    1.3775 H   0  0  0  0  0  0  0  0  0  0  0  0
   -3.2870   -0.4800   -0.3845 H   0  0  0  0  0  0  0  0  0  0  0  0
   -4.9801   -1.5041    0.4459 H   0  0  0  0  0  0  0  0  0  0  0  0
   -7.2194   -2.5922    0.3156 H   0  0  0  0  0  0  0  0  0  0  0  0
   -6.7765    2.2645   -0.3578 H   0  0  0  0  0  0  0  0  0  0  0  0
  -10.0166    3.3563   -0.8175 H   0  0  0  0  0  0  0  0  0  0  0  0
  1  2  1  0
  2  3  1  0
  3  4  1  0
  4  5  2  0
  4  6  1  0
  6  7  2  0
  7  8  1  0
  8  9  2  0
  9 10  1  0
 10 11  2  0
 11 12  1  0
 10 13  1  0
  9 14  1  0
 14 15  1  0
 15 16  1  0
 16 17  1  0
 17 18  1  0
 18 19  1  0
 19 20  1  0
 20 21  2  0
 21 22  1  0
 22 23  2  0
 23 24  1  0
 24 25  2  0
 24 26  1  0
 26 27  2  0
 26 28  1  0
 23 29  1  0
 11  6  1  0
 25 20  1  0
  1 30  1  0
  1 31  1  0
  1 32  1  0
  2 33  1  0
  2 34  1  0
  3 35  1  0
  3 36  1  0
  7 37  1  0
  8 38  1  0
 12 39  1  0
 13 40  1  0
 13 41  1  0
 13 42  1  0
 15 43  1  0
 15 44  1  0
 16 45  1  0
 16 46  1  0
 17 47  1  0
 17 48  1  0
 18 49  1  0
 18 50  1  0
 21 51  1  0
 22 52  1  0
 25 53  1  0
 28 54  1  0
M  END
>  <Ligand ID>  (1) 
LIG0004137

>  <Ligand>  (1) 
CHEMBL3287721

>  <SMILES>  (1) 
CCCC(=O)c1ccc(c(c1O)C)OCCCCOc1ccc(c(c1)C(=O)O)F

>  <CID>  (1) 
90643886.0

>  <ChEMBL ID>  (1) 
nan

>  <InChiKey>  (1) 
DTKQPIBBUQRAQX-UHFFFAOYSA-N

>  <InChi>  (1) 
InChI=1S/C22H25FO6/c1-3-6-19(24)16-8-10-20(14(2)21(16)25)29-12-5-4-11-28-15-7-9-18(23)17(13-15)22(26)27/h7-10,13,25H,3-6,11-12H2,1-2H3,(H,26,27)

>  <IUPAC Name>  (1) 
5-[4-(4-butanoyl-3-hydroxy-2-methylphenoxy)butoxy]-2-fluorobenzoic acid

$$$$
