
     RDKit          3D

 62 64  0  0  0  0  0  0  0  0999 V2000
    1.4741   -2.9290   -2.3043 O   0  0  0  0  0  0  0  0  0  0  0  0
    1.4996   -1.7584   -1.5474 C   0  0  2  0  0  0  0  0  0  0  0  0
    2.9144   -1.3620   -1.1787 C   0  0  2  0  0  0  0  0  0  0  0  0
    3.6563   -2.5472   -1.1622 O   0  0  0  0  0  0  0  0  0  0  0  0
    2.7396   -0.7924    0.2005 C   0  0  2  0  0  0  0  0  0  0  0  0
    1.3904   -0.8735    0.5080 O   0  0  0  0  0  0  0  0  0  0  0  0
    0.8916   -1.9760   -0.1772 C   0  0  1  0  0  0  0  0  0  0  0  0
   -0.5305   -1.9811   -0.2769 N   0  0  0  0  0  0  0  0  0  0  0  0
   -1.3133   -0.9096   -0.0750 C   0  0  0  0  0  0  0  0  0  0  0  0
   -2.7053   -0.9720   -0.1863 C   0  0  0  0  0  0  0  0  0  0  0  0
   -3.2503   -2.1957   -0.5165 C   0  0  0  0  0  0  0  0  0  0  0  0
   -2.4657   -3.2698   -0.7188 N   0  0  0  0  0  0  0  0  0  0  0  0
   -1.1268   -3.1660   -0.6014 C   0  0  0  0  0  0  0  0  0  0  0  0
   -0.4530   -4.2086   -0.8039 O   0  0  0  0  0  0  0  0  0  0  0  0
   -4.6611   -2.3240   -0.6447 N   0  0  0  0  0  0  0  0  0  0  0  0
   -5.4674   -1.2570   -0.4453 O   0  0  0  0  0  0  0  0  0  0  0  0
   -5.8247   -1.2348    0.8896 C   0  0  0  0  0  0  0  0  0  0  0  0
   -6.7350   -0.0159    1.0796 C   0  0  0  0  0  0  0  0  0  0  0  0
   -7.9580   -0.1132    0.2228 C   0  0  0  0  0  0  0  0  0  0  0  0
   -8.8527    1.0941    0.4155 C   0  0  0  0  0  0  0  0  0  0  0  0
   -9.8274    1.0612    1.4125 C   0  0  0  0  0  0  0  0  0  0  0  0
  -10.6718    2.6918    1.3091 S   0  0  0  0  0  0  0  0  0  0  0  0
   -9.5946    3.2519   -0.0978 C   0  0  0  0  0  0  0  0  0  0  0  0
   -8.7605    2.1999   -0.3214 C   0  0  0  0  0  0  0  0  0  0  0  0
    3.2987    0.6046    0.3571 C   0  0  0  0  0  0  0  0  0  0  0  0
    4.6568    0.6524    0.0404 O   0  0  0  0  0  0  0  0  0  0  0  0
    5.2882    2.2100    0.2168 P   0  0  0  0  0  0  0  0  0  0  0  0
    4.3930    3.0971    1.0464 O   0  0  0  0  0  0  0  0  0  0  0  0
    6.8287    2.1684    0.9227 O   0  0  0  0  0  0  0  0  0  0  0  0
    7.5878    0.6878    0.6515 P   0  0  0  0  0  0  0  0  0  0  0  0
    6.8511   -0.4200    1.3874 O   0  0  0  0  0  0  0  0  0  0  0  0
    9.1653    0.7933    1.2518 O   0  0  0  0  0  0  0  0  0  0  0  0
    9.8105    2.2955    0.7972 P   0  0  0  0  0  0  0  0  0  0  0  0
   11.1809    2.4818    1.4263 O   0  0  0  0  0  0  0  0  0  0  0  0
    8.7720    3.5560    1.2828 O   0  0  0  0  0  0  0  0  0  0  0  0
   10.0096    2.3809   -0.8797 O   0  0  0  0  0  0  0  0  0  0  0  0
    7.6610    0.2970   -0.9790 O   0  0  0  0  0  0  0  0  0  0  0  0
    5.5136    2.8236   -1.3481 O   0  0  0  0  0  0  0  0  0  0  0  0
    0.8991   -2.7520   -3.0884 H   0  0  0  0  0  0  0  0  0  0  0  0
    0.9832   -0.9196   -2.0712 H   0  0  0  0  0  0  0  0  0  0  0  0
    3.3305   -0.6256   -1.8947 H   0  0  0  0  0  0  0  0  0  0  0  0
    4.1852   -2.5952   -0.3099 H   0  0  0  0  0  0  0  0  0  0  0  0
    3.2560   -1.4525    0.9390 H   0  0  0  0  0  0  0  0  0  0  0  0
    1.2490   -2.9481    0.2158 H   0  0  0  0  0  0  0  0  0  0  0  0
   -0.8602    0.0262    0.1800 H   0  0  0  0  0  0  0  0  0  0  0  0
   -3.3143   -0.1093   -0.0222 H   0  0  0  0  0  0  0  0  0  0  0  0
   -5.0895   -3.2422   -0.8939 H   0  0  0  0  0  0  0  0  0  0  0  0
   -6.3215   -2.1794    1.1446 H   0  0  0  0  0  0  0  0  0  0  0  0
   -4.9132   -1.0915    1.4888 H   0  0  0  0  0  0  0  0  0  0  0  0
   -7.0029    0.0620    2.1495 H   0  0  0  0  0  0  0  0  0  0  0  0
   -6.1178    0.8584    0.7547 H   0  0  0  0  0  0  0  0  0  0  0  0
   -7.6821   -0.1659   -0.8630 H   0  0  0  0  0  0  0  0  0  0  0  0
   -8.5447   -0.9945    0.5290 H   0  0  0  0  0  0  0  0  0  0  0  0
  -10.0925    0.3031    2.1202 H   0  0  0  0  0  0  0  0  0  0  0  0
   -9.7132    4.2121   -0.5385 H   0  0  0  0  0  0  0  0  0  0  0  0
   -7.9973    2.2958   -1.1428 H   0  0  0  0  0  0  0  0  0  0  0  0
    3.2289    0.8337    1.4447 H   0  0  0  0  0  0  0  0  0  0  0  0
    2.6984    1.3606   -0.1738 H   0  0  0  0  0  0  0  0  0  0  0  0
    8.3173    3.9664    0.5100 H   0  0  0  0  0  0  0  0  0  0  0  0
    9.7558    3.2858   -1.2206 H   0  0  0  0  0  0  0  0  0  0  0  0
    8.4637   -0.2399   -1.2188 H   0  0  0  0  0  0  0  0  0  0  0  0
    5.8971    2.0707   -1.8907 H   0  0  0  0  0  0  0  0  0  0  0  0
  1  2  1  0
  2  3  1  0
  3  4  1  0
  3  5  1  0
  5  6  1  0
  6  7  1  0
  7  8  1  0
  8  9  1  0
  9 10  2  0
 10 11  1  0
 11 12  2  0
 12 13  1  0
 13 14  2  0
 11 15  1  0
 15 16  1  0
 16 17  1  0
 17 18  1  0
 18 19  1  0
 19 20  1  0
 20 21  2  0
 21 22  1  0
 22 23  1  0
 23 24  2  0
  5 25  1  0
 25 26  1  0
 26 27  1  0
 27 28  2  0
 27 29  1  0
 29 30  1  0
 30 31  2  0
 30 32  1  0
 32 33  1  0
 33 34  2  0
 33 35  1  0
 33 36  1  0
 30 37  1  0
 27 38  1  0
  7  2  1  0
 13  8  1  0
 24 20  1  0
  1 39  1  0
  2 40  1  6
  3 41  1  6
  4 42  1  0
  5 43  1  1
  7 44  1  1
  9 45  1  0
 10 46  1  0
 15 47  1  0
 17 48  1  0
 17 49  1  0
 18 50  1  0
 18 51  1  0
 19 52  1  0
 19 53  1  0
 21 54  1  0
 23 55  1  0
 24 56  1  0
 25 57  1  0
 25 58  1  0
 35 59  1  0
 36 60  1  0
 37 61  1  0
 38 62  1  0
M  END
>  <Ligand ID>  (1) 
LIG0002808

>  <Ligand>  (1) 
CHEMBL3261372

>  <SMILES>  (1) 
O[C@@H]1[C@H](O)[C@H](O[C@H]1n1ccc(nc1=O)NOCCCc1cscc1)COP(=O)(OP(=O)(OP(=O)(O)O)O)O

>  <CID>  (1) 
90656223.0

>  <ChEMBL ID>  (1) 
nan

>  <InChiKey>  (1) 
SGLXVPVUSHCSPV-NMFUWQPSSA-N

>  <InChi>  (1) 
InChI=1S/C16H24N3O15P3S/c20-13-11(8-31-36(26,27)34-37(28,29)33-35(23,24)25)32-15(14(13)21)19-5-3-12(17-16(19)22)18-30-6-1-2-10-4-7-38-9-10/h3-5,7,9,11,13-15,20-21H,1-2,6,8H2,(H,26,27)(H,28,29)(H,17,18,22)(H2,23,24,25)/t11-,13-,14-,15-/m1/s1

>  <IUPAC Name>  (1) 
[[(2R,3S,4R,5R)-3,4-dihydroxy-5-[2-oxo-4-(3-thiophen-3-ylpropoxyamino)pyrimidin-1-yl]oxolan-2-yl]methoxy-hydroxyphosphoryl] phosphono hydrogen phosphate

$$$$
