
     RDKit          3D

 45 46  0  0  0  0  0  0  0  0999 V2000
    8.0712   -2.1823    0.2196 C   0  0  0  0  0  0  0  0  0  0  0  0
    7.6120   -1.1956   -0.2899 C   0  0  0  0  0  0  0  0  0  0  0  0
    7.0709   -0.0048   -0.9214 C   0  0  0  0  0  0  0  0  0  0  0  0
    5.6121    0.1176   -0.5541 C   0  0  0  0  0  0  0  0  0  0  0  0
    5.5462    0.2151    0.8359 O   0  0  0  0  0  0  0  0  0  0  0  0
    3.9236    0.3556    1.3138 P   0  0  0  0  0  0  0  0  0  0  0  0
    3.8720    0.0130    2.7940 O   0  0  0  0  0  0  0  0  0  0  0  0
    3.3799    1.9227    1.1302 O   0  0  0  0  0  0  0  0  0  0  0  0
    2.1099    2.1113    0.0622 P   0  0  0  0  0  0  0  0  0  0  0  0
    2.5994    2.2879   -1.3738 O   0  0  0  0  0  0  0  0  0  0  0  0
    1.1069    0.7823    0.0904 O   0  0  0  0  0  0  0  0  0  0  0  0
   -0.1398    1.0300    0.6309 C   0  0  0  0  0  0  0  0  0  0  0  0
   -0.9459   -0.2625    0.5935 C   0  0  1  0  0  0  0  0  0  0  0  0
   -2.1807    0.0473    1.1460 O   0  0  0  0  0  0  0  0  0  0  0  0
   -3.1098   -0.8510    0.6317 C   0  0  2  0  0  0  0  0  0  0  0  0
   -2.6196   -1.2646   -0.7214 C   0  0  1  0  0  0  0  0  0  0  0  0
   -1.2096   -0.7172   -0.8064 C   0  0  2  0  0  0  0  0  0  0  0  0
   -0.3874   -1.7684   -1.2236 O   0  0  0  0  0  0  0  0  0  0  0  0
   -2.6502   -2.6478   -0.8079 O   0  0  0  0  0  0  0  0  0  0  0  0
   -4.3770   -0.1486    0.5260 N   0  0  0  0  0  0  0  0  0  0  0  0
   -5.5322   -0.8106    0.8007 C   0  0  0  0  0  0  0  0  0  0  0  0
   -6.7514   -0.1385    0.7000 C   0  0  0  0  0  0  0  0  0  0  0  0
   -6.7922    1.1874    0.3252 C   0  0  0  0  0  0  0  0  0  0  0  0
   -7.8543    1.8353    0.2198 O   0  0  0  0  0  0  0  0  0  0  0  0
   -5.6202    1.8057    0.0618 N   0  0  0  0  0  0  0  0  0  0  0  0
   -4.4768    1.1370    0.1671 C   0  0  0  0  0  0  0  0  0  0  0  0
   -3.4104    1.7511   -0.0874 O   0  0  0  0  0  0  0  0  0  0  0  0
    1.3137    3.5457    0.4570 O   0  0  0  0  0  0  0  0  0  0  0  0
    3.0414   -0.7912    0.4712 O   0  0  0  0  0  0  0  0  0  0  0  0
    8.4829   -3.0506    0.6593 H   0  0  0  0  0  0  0  0  0  0  0  0
    7.1321   -0.0636   -2.0336 H   0  0  0  0  0  0  0  0  0  0  0  0
    7.6505    0.8688   -0.5872 H   0  0  0  0  0  0  0  0  0  0  0  0
    5.1918    1.0618   -1.0064 H   0  0  0  0  0  0  0  0  0  0  0  0
    5.0901   -0.7828   -0.8850 H   0  0  0  0  0  0  0  0  0  0  0  0
   -0.0036    1.2617    1.7261 H   0  0  0  0  0  0  0  0  0  0  0  0
   -0.6718    1.8609    0.1741 H   0  0  0  0  0  0  0  0  0  0  0  0
   -0.4226   -1.0387    1.1681 H   0  0  0  0  0  0  0  0  0  0  0  0
   -3.1866   -1.6955    1.3549 H   0  0  0  0  0  0  0  0  0  0  0  0
   -3.2382   -0.8200   -1.5332 H   0  0  0  0  0  0  0  0  0  0  0  0
   -1.1695    0.1030   -1.5494 H   0  0  0  0  0  0  0  0  0  0  0  0
   -0.8381   -2.3543   -1.8866 H   0  0  0  0  0  0  0  0  0  0  0  0
   -2.3729   -3.0544    0.0483 H   0  0  0  0  0  0  0  0  0  0  0  0
   -5.5314   -1.8515    1.0972 H   0  0  0  0  0  0  0  0  0  0  0  0
   -7.6921   -0.6159    0.9061 H   0  0  0  0  0  0  0  0  0  0  0  0
   -5.6224    2.8090   -0.2240 H   0  0  0  0  0  0  0  0  0  0  0  0
  1  2  3  0
  2  3  1  0
  3  4  1  0
  4  5  1  0
  5  6  1  0
  6  7  2  0
  6  8  1  0
  8  9  1  0
  9 10  2  0
  9 11  1  0
 11 12  1  0
 12 13  1  0
 13 14  1  0
 14 15  1  0
 15 16  1  0
 16 17  1  0
 17 18  1  0
 16 19  1  0
 15 20  1  0
 20 21  1  0
 21 22  2  0
 22 23  1  0
 23 24  2  0
 23 25  1  0
 25 26  1  0
 26 27  2  0
  9 28  1  0
  6 29  1  0
 17 13  1  0
 26 20  1  0
  1 30  1  0
  3 31  1  0
  3 32  1  0
  4 33  1  0
  4 34  1  0
 12 35  1  0
 12 36  1  0
 13 37  1  1
 15 38  1  1
 16 39  1  6
 17 40  1  6
 18 41  1  0
 19 42  1  0
 21 43  1  0
 22 44  1  0
 25 45  1  0
M  CHG  2  28  -1  29  -1
M  END
>  <Ligand ID>  (1) 
LIG0005600

>  <Ligand>  (1) 
BDBM50303345

>  <SMILES>  (1) 
C#CCCOP(=O)(OP(=O)(OC[C@H]1O[C@H]([C@@H]([C@@H]1O)O)n1ccc(=O)[nH]c1=O)[O-])[O-]

>  <CID>  (1) 
91933956.0

>  <ChEMBL ID>  (1) 
nan

>  <InChiKey>  (1) 
FLMAOAJLSGOWQM-HJQYOEGKSA-L

>  <InChi>  (1) 
InChI=1S/C13H18N2O12P2/c1-2-3-6-24-28(20,21)27-29(22,23)25-7-8-10(17)11(18)12(26-8)15-5-4-9(16)14-13(15)19/h1,4-5,8,10-12,17-18H,3,6-7H2,(H,20,21)(H,22,23)(H,14,16,19)/p-2/t8-,10-,11-,12-/m1/s1

>  <IUPAC Name>  (1) 
[but-3-ynoxy(oxido)phosphoryl] [(2R,3S,4R,5R)-5-(2,4-dioxopyrimidin-1-yl)-3,4-dihydroxyoxolan-2-yl]methyl phosphate

$$$$
