
     RDKit          3D

 64 69  0  0  0  0  0  0  0  0999 V2000
   -7.0232    2.7595    0.4165 C   0  0  0  0  0  0  0  0  0  0  0  0
   -5.6654    2.6448    0.1057 O   0  0  0  0  0  0  0  0  0  0  0  0
   -4.9547    1.4728    0.2151 C   0  0  0  0  0  0  0  0  0  0  0  0
   -5.5513    0.2854    0.6546 C   0  0  0  0  0  0  0  0  0  0  0  0
   -4.8241   -0.9004    0.7635 C   0  0  0  0  0  0  0  0  0  0  0  0
   -3.4953   -0.9044    0.4326 C   0  0  0  0  0  0  0  0  0  0  0  0
   -2.9547    0.2819    0.0067 C   0  0  0  0  0  0  0  0  0  0  0  0
   -3.6152    1.4644   -0.1172 C   0  0  0  0  0  0  0  0  0  0  0  0
   -2.6849    2.4059   -0.5779 O   0  0  0  0  0  0  0  0  0  0  0  0
   -1.3518    1.8623   -0.4358 C   0  0  2  0  0  0  0  0  0  0  0  0
   -1.5289    0.3896   -0.3794 C   0  0  2  0  0  0  0  0  0  0  0  0
   -1.3588   -0.3071   -1.6944 C   0  0  0  0  0  0  0  0  0  0  0  0
   -0.5606   -1.5434   -1.7045 C   0  0  0  0  0  0  0  0  0  0  0  0
   -0.4893   -2.3291   -0.5245 N   0  0  0  0  0  0  0  0  0  0  0  0
   -1.1511   -1.7586    0.6247 C   0  0  2  0  0  0  0  0  0  0  0  0
   -2.5967   -2.0722    0.5057 C   0  0  0  0  0  0  0  0  0  0  0  0
   -0.7494   -0.3202    0.6652 C   0  0  2  0  0  0  0  0  0  0  0  0
   -1.0149    0.3367    1.9970 C   0  0  0  0  0  0  0  0  0  0  0  0
   -0.3158    1.6906    1.9502 C   0  0  0  0  0  0  0  0  0  0  0  0
   -0.7837    2.4792    0.7881 C   0  0  0  0  0  0  0  0  0  0  0  0
   -0.7007    3.6767    0.8358 O   0  0  0  0  0  0  0  0  0  0  0  0
    0.6806   -0.2344    0.4495 N   0  0  0  0  0  0  0  0  0  0  0  0
    1.6558   -0.8170    1.2772 C   0  0  0  0  0  0  0  0  0  0  0  0
    1.2433   -1.4635    2.2883 O   0  0  0  0  0  0  0  0  0  0  0  0
    3.0977   -0.7194    1.0391 C   0  0  0  0  0  0  0  0  0  0  0  0
    3.6430   -0.0879    0.0429 C   0  0  0  0  0  0  0  0  0  0  0  0
    5.0753    0.0176   -0.2066 C   0  0  0  0  0  0  0  0  0  0  0  0
    6.0316   -0.5547    0.6054 C   0  0  0  0  0  0  0  0  0  0  0  0
    7.3858   -0.4309    0.3329 C   0  0  0  0  0  0  0  0  0  0  0  0
    7.8395    0.2674   -0.7583 C   0  0  0  0  0  0  0  0  0  0  0  0
    6.8941    0.8491   -1.5854 C   0  0  0  0  0  0  0  0  0  0  0  0
    5.5590    0.7206   -1.3070 C   0  0  0  0  0  0  0  0  0  0  0  0
    4.5632    1.3549   -2.2109 C   0  0  0  0  0  0  0  0  0  0  0  0
   -0.7727   -3.7219   -0.6741 C   0  0  0  0  0  0  0  0  0  0  0  0
   -7.6624    1.9442   -0.0060 H   0  0  0  0  0  0  0  0  0  0  0  0
   -7.1641    2.7194    1.5141 H   0  0  0  0  0  0  0  0  0  0  0  0
   -7.3641    3.7324   -0.0024 H   0  0  0  0  0  0  0  0  0  0  0  0
   -6.6016    0.2748    0.9192 H   0  0  0  0  0  0  0  0  0  0  0  0
   -5.2665   -1.8255    1.1006 H   0  0  0  0  0  0  0  0  0  0  0  0
   -0.8207    2.1665   -1.3468 H   0  0  0  0  0  0  0  0  0  0  0  0
   -2.3439   -0.4537   -2.1999 H   0  0  0  0  0  0  0  0  0  0  0  0
   -0.8412    0.4437   -2.3624 H   0  0  0  0  0  0  0  0  0  0  0  0
   -0.9759   -2.2183   -2.5104 H   0  0  0  0  0  0  0  0  0  0  0  0
    0.4840   -1.3525   -2.0490 H   0  0  0  0  0  0  0  0  0  0  0  0
   -0.7559   -2.3170    1.5081 H   0  0  0  0  0  0  0  0  0  0  0  0
   -2.8478   -2.6806   -0.4140 H   0  0  0  0  0  0  0  0  0  0  0  0
   -2.9643   -2.7364    1.3419 H   0  0  0  0  0  0  0  0  0  0  0  0
   -2.0975    0.5742    2.1188 H   0  0  0  0  0  0  0  0  0  0  0  0
   -0.6639   -0.2323    2.8619 H   0  0  0  0  0  0  0  0  0  0  0  0
    0.7623    1.5106    1.8235 H   0  0  0  0  0  0  0  0  0  0  0  0
   -0.4869    2.2598    2.8928 H   0  0  0  0  0  0  0  0  0  0  0  0
    0.9889    0.3059   -0.3901 H   0  0  0  0  0  0  0  0  0  0  0  0
    3.7670   -1.2111    1.7471 H   0  0  0  0  0  0  0  0  0  0  0  0
    2.9866    0.4037   -0.6658 H   0  0  0  0  0  0  0  0  0  0  0  0
    5.7619   -1.1116    1.4701 H   0  0  0  0  0  0  0  0  0  0  0  0
    8.1315   -0.8919    0.9888 H   0  0  0  0  0  0  0  0  0  0  0  0
    8.8860    0.3786   -0.9926 H   0  0  0  0  0  0  0  0  0  0  0  0
    7.2219    1.4103   -2.4602 H   0  0  0  0  0  0  0  0  0  0  0  0
    3.9041    1.9874   -1.5654 H   0  0  0  0  0  0  0  0  0  0  0  0
    3.9147    0.5420   -2.6245 H   0  0  0  0  0  0  0  0  0  0  0  0
    5.0339    1.9490   -2.9978 H   0  0  0  0  0  0  0  0  0  0  0  0
    0.1414   -4.3151   -0.9163 H   0  0  0  0  0  0  0  0  0  0  0  0
   -1.1421   -4.1539    0.2822 H   0  0  0  0  0  0  0  0  0  0  0  0
   -1.5114   -3.8969   -1.4696 H   0  0  0  0  0  0  0  0  0  0  0  0
  1  2  1  0
  2  3  1  0
  3  4  2  0
  4  5  1  0
  5  6  2  0
  6  7  1  0
  7  8  2  0
  8  9  1  0
  9 10  1  0
 10 11  1  0
 11 12  1  6
 12 13  1  0
 13 14  1  0
 14 15  1  0
 15 16  1  0
 15 17  1  0
 17 18  1  0
 18 19  1  0
 19 20  1  0
 20 21  2  0
 17 22  1  6
 22 23  1  0
 23 24  2  0
 23 25  1  0
 25 26  2  0
 26 27  1  0
 27 28  2  0
 28 29  1  0
 29 30  2  0
 30 31  1  0
 31 32  2  0
 32 33  1  0
 14 34  1  0
  8  3  1  0
 20 10  1  0
 32 27  1  0
 16  6  1  0
 11  7  1  0
 17 11  1  0
  1 35  1  0
  1 36  1  0
  1 37  1  0
  4 38  1  0
  5 39  1  0
 10 40  1  6
 12 41  1  0
 12 42  1  0
 13 43  1  0
 13 44  1  0
 15 45  1  1
 16 46  1  0
 16 47  1  0
 18 48  1  0
 18 49  1  0
 19 50  1  0
 19 51  1  0
 22 52  1  0
 25 53  1  0
 26 54  1  0
 28 55  1  0
 29 56  1  0
 30 57  1  0
 31 58  1  0
 33 59  1  0
 33 60  1  0
 33 61  1  0
 34 62  1  0
 34 63  1  0
 34 64  1  0
M  END
>  <Ligand ID>  (1) 
LIG0003857

>  <Ligand>  (1) 
CHEMBL607017

>  <SMILES>  (1) 
COc1ccc2c3c1O[C@@H]1[C@@]43CCN([C@H](C2)[C@@]4(CCC1=O)NC(=O)/C=C/c1ccccc1C)C

>  <CID>  (1) 
11849284.0

>  <ChEMBL ID>  (1) 
nan

>  <InChiKey>  (1) 
SXVUBZDBQVNZMU-LRRKNOCQSA-N

>  <InChi>  (1) 
InChI=1S/C28H30N2O4/c1-17-6-4-5-7-18(17)9-11-23(32)29-28-13-12-20(31)26-27(28)14-15-30(2)22(28)16-19-8-10-21(33-3)25(34-26)24(19)27/h4-11,22,26H,12-16H2,1-3H3,(H,29,32)/b11-9+/t22-,26+,27+,28-/m1/s1

>  <IUPAC Name>  (1) 
(E)-N-[(4R,4aS,7aR,12bR)-9-methoxy-3-methyl-7-oxo-2,4,5,6,7a,13-hexahydro-1H-4,12-methanobenzofuro[3,2-e]isoquinolin-4a-yl]-3-(2-methylphenyl)prop-2-enamide

$$$$
