
     RDKit          3D

 34 35  0  0  0  0  0  0  0  0999 V2000
    3.8162    2.1680    0.4236 C   0  0  0  0  0  0  0  0  0  0  0  0
    3.0305    0.9973   -0.0843 C   0  0  0  0  0  0  0  0  0  0  0  0
    3.6491   -0.0064   -0.5097 O   0  0  0  0  0  0  0  0  0  0  0  0
    1.6302    1.0689   -0.0644 O   0  0  0  0  0  0  0  0  0  0  0  0
    0.8273    0.0054   -0.5265 C   0  0  2  0  0  0  0  0  0  0  0  0
   -0.0293    0.3630   -1.7263 C   0  0  0  0  0  0  0  0  0  0  0  0
   -1.2016   -0.5758   -1.4534 C   0  0  2  0  0  0  0  0  0  0  0  0
   -1.5441   -0.1028   -0.0495 C   0  0  0  0  0  0  0  0  0  0  0  0
   -0.1791   -0.4399    0.5191 C   0  0  2  0  0  0  0  0  0  0  0  0
    0.0780    0.0350    1.8748 C   0  0  0  0  0  0  0  0  0  0  0  0
   -0.2764   -1.9500    0.3424 C   0  0  0  0  0  0  0  0  0  0  0  0
   -0.6963   -1.9753   -1.1338 C   0  0  0  0  0  0  0  0  0  0  0  0
   -2.6347   -0.9390    0.5657 C   0  0  0  0  0  0  0  0  0  0  0  0
   -1.9379    1.3184    0.0293 C   0  0  0  0  0  0  0  0  0  0  0  0
    4.4600    1.7429    1.2388 H   0  0  0  0  0  0  0  0  0  0  0  0
    4.4786    2.5695   -0.3529 H   0  0  0  0  0  0  0  0  0  0  0  0
    3.1651    2.9028    0.9184 H   0  0  0  0  0  0  0  0  0  0  0  0
    1.4851   -0.8242   -0.8770 H   0  0  0  0  0  0  0  0  0  0  0  0
    0.4526    0.1626   -2.6827 H   0  0  0  0  0  0  0  0  0  0  0  0
   -0.3951    1.3997   -1.7058 H   0  0  0  0  0  0  0  0  0  0  0  0
   -2.0009   -0.5447   -2.1690 H   0  0  0  0  0  0  0  0  0  0  0  0
    0.7094    0.9681    1.8231 H   0  0  0  0  0  0  0  0  0  0  0  0
   -0.8403    0.3475    2.3993 H   0  0  0  0  0  0  0  0  0  0  0  0
    0.6503   -0.6858    2.4963 H   0  0  0  0  0  0  0  0  0  0  0  0
   -1.0039   -2.4226    1.0017 H   0  0  0  0  0  0  0  0  0  0  0  0
    0.7616   -2.3196    0.4623 H   0  0  0  0  0  0  0  0  0  0  0  0
   -1.4302   -2.7535   -1.3390 H   0  0  0  0  0  0  0  0  0  0  0  0
    0.2026   -2.1822   -1.7708 H   0  0  0  0  0  0  0  0  0  0  0  0
   -3.6010   -0.4122    0.3559 H   0  0  0  0  0  0  0  0  0  0  0  0
   -2.7590   -1.9346    0.0833 H   0  0  0  0  0  0  0  0  0  0  0  0
   -2.5411   -0.9955    1.6696 H   0  0  0  0  0  0  0  0  0  0  0  0
   -2.6286    1.5268   -0.8268 H   0  0  0  0  0  0  0  0  0  0  0  0
   -2.5780    1.4502    0.9502 H   0  0  0  0  0  0  0  0  0  0  0  0
   -1.1189    2.0380    0.1181 H   0  0  0  0  0  0  0  0  0  0  0  0
  1  2  1  0
  2  3  2  0
  2  4  1  0
  4  5  1  0
  5  6  1  0
  6  7  1  0
  7  8  1  0
  8  9  1  0
  9 10  1  1
  9 11  1  0
 11 12  1  0
  8 13  1  0
  8 14  1  0
  9  5  1  0
 12  7  1  0
  1 15  1  0
  1 16  1  0
  1 17  1  0
  5 18  1  6
  6 19  1  0
  6 20  1  0
  7 21  1  6
 10 22  1  0
 10 23  1  0
 10 24  1  0
 11 25  1  0
 11 26  1  0
 12 27  1  0
 12 28  1  0
 13 29  1  0
 13 30  1  0
 13 31  1  0
 14 32  1  0
 14 33  1  0
 14 34  1  0
M  END
>  <Ligand ID>  (1) 
LIG0004990

>  <Ligand>  (1) 
isobornyl acetate

>  <SMILES>  (1) 
CC(=O)O[C@@H]1C[C@@H]2C([C@@]1(C)CC2)(C)C

>  <CID>  (1) 
637531.0

>  <ChEMBL ID>  (1) 
nan

>  <InChiKey>  (1) 
KGEKLUUHTZCSIP-FOGDFJRCSA-N

>  <InChi>  (1) 
InChI=1S/C12H20O2/c1-8(13)14-10-7-9-5-6-12(10,4)11(9,2)3/h9-10H,5-7H2,1-4H3/t9-,10-,12+/m1/s1

>  <IUPAC Name>  (1) 
[(1R,2R,4R)-1,7,7-trimethyl-2-bicyclo[2.2.1]heptanyl] acetate

$$$$
