
     RDKit          3D

 33 33  0  0  0  0  0  0  0  0999 V2000
   -4.8036   -0.0461   -0.5937 C   0  0  0  0  0  0  0  0  0  0  0  0
   -4.1614    0.6297    0.5940 C   0  0  0  0  0  0  0  0  0  0  0  0
   -2.9857    1.4618    0.1732 C   0  0  0  0  0  0  0  0  0  0  0  0
   -1.9134    0.6284   -0.5066 C   0  0  0  0  0  0  0  0  0  0  0  0
   -1.3801   -0.4567    0.4023 C   0  0  0  0  0  0  0  0  0  0  0  0
   -0.3271   -1.3112   -0.1993 C   0  0  0  0  0  0  0  0  0  0  0  0
    0.8876   -0.5904   -0.6259 C   0  0  0  0  0  0  0  0  0  0  0  0
    1.0571    0.6505   -0.5029 O   0  0  0  0  0  0  0  0  0  0  0  0
    1.9083   -1.3321   -1.1998 O   0  0  0  0  0  0  0  0  0  0  0  0
    3.1191   -0.8173   -1.6576 C   0  0  0  0  0  0  0  0  0  0  0  0
    3.9365   -0.1405   -0.6325 C   0  0  0  0  0  0  0  0  0  0  0  0
    4.8801   -0.8215    0.1384 C   0  0  0  0  0  0  0  0  0  0  0  0
    5.4564    0.1048    0.9879 C   0  0  0  0  0  0  0  0  0  0  0  0
    4.8268    1.3138    0.6864 C   0  0  0  0  0  0  0  0  0  0  0  0
    3.9437    1.1267   -0.2676 O   0  0  0  0  0  0  0  0  0  0  0  0
   -4.9413    0.7212   -1.4065 H   0  0  0  0  0  0  0  0  0  0  0  0
   -4.2204   -0.9167   -0.9402 H   0  0  0  0  0  0  0  0  0  0  0  0
   -5.8114   -0.4282   -0.3399 H   0  0  0  0  0  0  0  0  0  0  0  0
   -4.9043    1.3185    1.0485 H   0  0  0  0  0  0  0  0  0  0  0  0
   -3.8613   -0.1100    1.3453 H   0  0  0  0  0  0  0  0  0  0  0  0
   -2.5342    1.9124    1.0623 H   0  0  0  0  0  0  0  0  0  0  0  0
   -3.3125    2.1949   -0.5983 H   0  0  0  0  0  0  0  0  0  0  0  0
   -1.1433    1.3496   -0.8308 H   0  0  0  0  0  0  0  0  0  0  0  0
   -2.4299    0.1409   -1.3650 H   0  0  0  0  0  0  0  0  0  0  0  0
   -2.2545   -1.1225    0.6019 H   0  0  0  0  0  0  0  0  0  0  0  0
   -1.1178   -0.0374    1.3953 H   0  0  0  0  0  0  0  0  0  0  0  0
   -0.0708   -2.1095    0.4970 H   0  0  0  0  0  0  0  0  0  0  0  0
   -0.8013   -1.7988   -1.1004 H   0  0  0  0  0  0  0  0  0  0  0  0
    3.6649   -1.6562   -2.1400 H   0  0  0  0  0  0  0  0  0  0  0  0
    2.8556   -0.1303   -2.5132 H   0  0  0  0  0  0  0  0  0  0  0  0
    5.1209   -1.8745    0.0870 H   0  0  0  0  0  0  0  0  0  0  0  0
    6.2259   -0.0764    1.7220 H   0  0  0  0  0  0  0  0  0  0  0  0
    5.0912    2.2231    1.2128 H   0  0  0  0  0  0  0  0  0  0  0  0
  1  2  1  0
  2  3  1  0
  3  4  1  0
  4  5  1  0
  5  6  1  0
  6  7  1  0
  7  8  2  0
  7  9  1  0
  9 10  1  0
 10 11  1  0
 11 12  2  0
 12 13  1  0
 13 14  2  0
 14 15  1  0
 15 11  1  0
  1 16  1  0
  1 17  1  0
  1 18  1  0
  2 19  1  0
  2 20  1  0
  3 21  1  0
  3 22  1  0
  4 23  1  0
  4 24  1  0
  5 25  1  0
  5 26  1  0
  6 27  1  0
  6 28  1  0
 10 29  1  0
 10 30  1  0
 12 31  1  0
 13 32  1  0
 14 33  1  0
M  END
>  <Ligand ID>  (1) 
LIG0001047

>  <Ligand>  (1) 
Heptanoic acid, 2-furanylmethyl ester

>  <SMILES>  (1) 
CCCCCCC(=O)OCc1ccco1

>  <CID>  (1) 
557223.0

>  <ChEMBL ID>  (1) 
nan

>  <InChiKey>  (1) 
VZRGLBPRLIGTPE-UHFFFAOYSA-N

>  <InChi>  (1) 
InChI=1S/C12H18O3/c1-2-3-4-5-8-12(13)15-10-11-7-6-9-14-11/h6-7,9H,2-5,8,10H2,1H3

>  <IUPAC Name>  (1) 
furan-2-ylmethyl heptanoate

$$$$
