
     RDKit          3D

 34 36  0  0  0  0  0  0  0  0999 V2000
    4.3877    3.2863   -1.1198 Br  0  0  0  0  0  0  0  0  0  0  0  0
    3.1253    1.8691   -0.9007 C   0  0  0  0  0  0  0  0  0  0  0  0
    3.3150    0.9925    0.1472 C   0  0  0  0  0  0  0  0  0  0  0  0
    2.4163   -0.0475    0.3341 C   0  0  0  0  0  0  0  0  0  0  0  0
    1.3309   -0.2137   -0.5214 C   0  0  0  0  0  0  0  0  0  0  0  0
    1.1844    0.6963   -1.5618 C   0  0  0  0  0  0  0  0  0  0  0  0
    2.0536    1.7317   -1.7719 C   0  0  0  0  0  0  0  0  0  0  0  0
    0.3946   -1.2988   -0.3254 C   0  0  0  0  0  0  0  0  0  0  0  0
    0.7467   -2.6532   -0.3752 C   0  0  0  0  0  0  0  0  0  0  0  0
    2.1230   -3.1647   -0.6348 C   0  0  0  0  0  0  0  0  0  0  0  0
   -0.3743   -3.3652   -0.1484 N   0  0  0  0  0  0  0  0  0  0  0  0
   -1.3893   -2.5651    0.0374 N   0  0  0  0  0  0  0  0  0  0  0  0
   -0.9602   -1.2743   -0.0633 C   0  0  0  0  0  0  0  0  0  0  0  0
   -1.7644   -0.0784    0.0765 C   0  0  0  0  0  0  0  0  0  0  0  0
   -2.8209    0.1541   -0.8025 C   0  0  0  0  0  0  0  0  0  0  0  0
   -3.6017    1.2966   -0.6807 C   0  0  0  0  0  0  0  0  0  0  0  0
   -3.3092    2.2031    0.3345 C   0  0  0  0  0  0  0  0  0  0  0  0
   -2.2692    1.9951    1.2165 C   0  0  0  0  0  0  0  0  0  0  0  0
   -1.4986    0.8528    1.0845 C   0  0  0  0  0  0  0  0  0  0  0  0
   -0.4641    0.6679    1.9793 O   0  0  0  0  0  0  0  0  0  0  0  0
   -4.1258    3.3340    0.4111 O   0  0  0  0  0  0  0  0  0  0  0  0
    4.1441    1.0832    0.8367 H   0  0  0  0  0  0  0  0  0  0  0  0
    2.5650   -0.7439    1.1646 H   0  0  0  0  0  0  0  0  0  0  0  0
    0.3307    0.5506   -2.2198 H   0  0  0  0  0  0  0  0  0  0  0  0
    1.9187    2.4299   -2.5914 H   0  0  0  0  0  0  0  0  0  0  0  0
    2.0814   -4.1044   -1.2240 H   0  0  0  0  0  0  0  0  0  0  0  0
    2.6925   -2.4461   -1.2781 H   0  0  0  0  0  0  0  0  0  0  0  0
    2.6751   -3.4237    0.2962 H   0  0  0  0  0  0  0  0  0  0  0  0
   -0.3590   -4.4278   -0.1369 H   0  0  0  0  0  0  0  0  0  0  0  0
   -3.0478   -0.5612   -1.5997 H   0  0  0  0  0  0  0  0  0  0  0  0
   -4.4364    1.4952   -1.3633 H   0  0  0  0  0  0  0  0  0  0  0  0
   -2.0669    2.7219    1.9980 H   0  0  0  0  0  0  0  0  0  0  0  0
    0.0526   -0.1745    2.0977 H   0  0  0  0  0  0  0  0  0  0  0  0
   -5.0495    3.1821    0.7491 H   0  0  0  0  0  0  0  0  0  0  0  0
  1  2  1  0
  2  3  2  0
  3  4  1  0
  4  5  2  0
  5  6  1  0
  6  7  2  0
  5  8  1  0
  8  9  2  0
  9 10  1  0
  9 11  1  0
 11 12  1  0
 12 13  2  0
 13 14  1  0
 14 15  2  0
 15 16  1  0
 16 17  2  0
 17 18  1  0
 18 19  2  0
 19 20  1  0
 17 21  1  0
  7  2  1  0
 13  8  1  0
 19 14  1  0
  3 22  1  0
  4 23  1  0
  6 24  1  0
  7 25  1  0
 10 26  1  0
 10 27  1  0
 10 28  1  0
 11 29  1  0
 15 30  1  0
 16 31  1  0
 18 32  1  0
 20 33  1  0
 21 34  1  0
M  END
>  <Ligand ID>  (1) 
LIG0003592

>  <Ligand>  (1) 
MLS-0437219.0001

>  <SMILES>  (1) 
Brc1ccc(cc1)c1c(C)[nH]nc1c1ccc(cc1O)O

>  <CID>  (1) 
888780.0

>  <ChEMBL ID>  (1) 
nan

>  <InChiKey>  (1) 
OSMQSYGTMQDQRQ-UHFFFAOYSA-N

>  <InChi>  (1) 
InChI=1S/C16H13BrN2O2/c1-9-15(10-2-4-11(17)5-3-10)16(19-18-9)13-7-6-12(20)8-14(13)21/h2-8,20-21H,1H3,(H,18,19)

>  <IUPAC Name>  (1) 
4-[4-(4-bromophenyl)-5-methyl-1H-pyrazol-3-yl]benzene-1,3-diol

$$$$
