
     RDKit          3D

145150  0  0  0  0  0  0  0  0999 V2000
   10.8183   -0.4140    4.2521 C   0  0  0  0  0  0  0  0  0  0  0  0
    9.9890   -0.6383    2.9797 C   0  0  0  0  0  0  0  0  0  0  0  0
    8.5673   -0.3062    3.2718 C   0  0  0  0  0  0  0  0  0  0  0  0
    7.7010   -0.4608    2.0639 C   0  0  0  0  0  0  0  0  0  0  0  0
    7.6152   -1.8148    1.4663 C   0  0  1  0  0  0  0  0  0  0  0  0
    6.6583   -1.6537    0.2797 C   0  0  0  0  0  0  0  0  0  0  0  0
    7.0924   -1.9171   -0.8769 O   0  0  0  0  0  0  0  0  0  0  0  0
    5.3103   -1.2130    0.5062 N   0  0  0  0  0  0  0  0  0  0  0  0
    4.4925   -1.0898   -0.6796 C   0  0  1  0  0  0  0  0  0  0  0  0
    3.2263   -1.9106   -0.6501 C   0  0  0  0  0  0  0  0  0  0  0  0
    3.5689   -3.3531   -0.4646 C   0  0  0  0  0  0  0  0  0  0  0  0
    2.3626   -4.1859   -0.5423 C   0  0  0  0  0  0  0  0  0  0  0  0
    1.7243   -4.5947   -1.6818 N   0  0  0  0  0  0  0  0  0  0  0  0
    0.6941   -5.3421   -1.3684 N   0  0  0  0  0  0  0  0  0  0  0  0
    0.6438   -5.4337   -0.0187 N   0  0  0  0  0  0  0  0  0  0  0  0
    1.6648   -4.7261    0.5058 C   0  0  0  0  0  0  0  0  0  0  0  0
   -0.3138   -6.1933    0.7308 C   0  0  0  0  0  0  0  0  0  0  0  0
   -1.6599   -5.5294    0.7073 C   0  0  0  0  0  0  0  0  0  0  0  0
   -2.0811   -5.2236   -0.6805 C   0  0  0  0  0  0  0  0  0  0  0  0
   -3.5392   -4.7957   -0.8293 C   0  0  2  0  0  0  0  0  0  0  0  0
   -3.9410   -3.7174    0.0095 N   0  0  0  0  0  0  0  0  0  0  0  0
   -3.8697   -2.3118   -0.3472 C   0  0  0  0  0  0  0  0  0  0  0  0
   -3.3181   -2.1205   -1.4433 O   0  0  0  0  0  0  0  0  0  0  0  0
   -4.4054   -1.2934    0.5581 C   0  0  1  0  0  0  0  0  0  0  0  0
   -3.7851    0.0198    0.2200 N   0  0  0  0  0  0  0  0  0  0  0  0
   -3.4778    0.8652    1.3118 C   0  0  0  0  0  0  0  0  0  0  0  0
   -3.7318    0.4285    2.4395 O   0  0  0  0  0  0  0  0  0  0  0  0
   -2.8759    2.2331    1.2066 C   0  0  1  0  0  0  0  0  0  0  0  0
   -2.6337    2.4522   -0.2127 N   0  0  0  0  0  0  0  0  0  0  0  0
   -1.3200    2.7732   -0.6648 C   0  0  0  0  0  0  0  0  0  0  0  0
   -0.4781    2.9411    0.2317 O   0  0  0  0  0  0  0  0  0  0  0  0
   -0.8939    2.9179   -2.0685 C   0  0  2  0  0  0  0  0  0  0  0  0
    0.5525    3.2136   -2.1301 N   0  0  0  0  0  0  0  0  0  0  0  0
    1.4571    2.1218   -2.1689 C   0  0  0  0  0  0  0  0  0  0  0  0
    0.9202    0.9896   -2.1508 O   0  0  0  0  0  0  0  0  0  0  0  0
    2.9223    2.1621   -2.2216 C   0  0  1  0  0  0  0  0  0  0  0  0
    3.3143    0.7363   -2.0368 N   0  0  0  0  0  0  0  0  0  0  0  0
    4.0927    0.3280   -0.9180 C   0  0  0  0  0  0  0  0  0  0  0  0
    4.4200    1.2446   -0.1454 O   0  0  0  0  0  0  0  0  0  0  0  0
    3.4525    2.6649   -3.5072 C   0  0  0  0  0  0  0  0  0  0  0  0
    3.1124    4.0173   -3.9259 C   0  0  0  0  0  0  0  0  0  0  0  0
    2.1079    4.5235   -4.6580 N   0  0  0  0  0  0  0  0  0  0  0  0
    2.2705    5.8738   -4.7788 C   0  0  0  0  0  0  0  0  0  0  0  0
    3.3704    6.2335   -4.1291 N   0  0  0  0  0  0  0  0  0  0  0  0
    3.9115    5.1252   -3.5953 C   0  0  0  0  0  0  0  0  0  0  0  0
   -1.7520    3.7156   -2.9384 C   0  0  0  0  0  0  0  0  0  0  0  0
   -1.9915    5.1095   -2.5769 C   0  0  0  0  0  0  0  0  0  0  0  0
   -3.0987    5.4866   -1.8580 C   0  0  0  0  0  0  0  0  0  0  0  0
   -3.3565    6.8025   -1.4971 C   0  0  0  0  0  0  0  0  0  0  0  0
   -2.4648    7.7886   -1.8721 C   0  0  0  0  0  0  0  0  0  0  0  0
   -1.3241    7.4449   -2.6046 C   0  0  0  0  0  0  0  0  0  0  0  0
   -1.1201    6.1366   -2.9330 C   0  0  0  0  0  0  0  0  0  0  0  0
   -3.7924    3.2138    1.8549 C   0  0  0  0  0  0  0  0  0  0  0  0
   -3.3162    4.6178    1.8734 C   0  0  0  0  0  0  0  0  0  0  0  0
   -4.3944    5.4610    2.5789 C   0  0  0  0  0  0  0  0  0  0  0  0
   -4.6174    5.0055    3.9130 N   0  0  0  0  0  0  0  0  0  0  0  0
   -5.1199    5.7516    4.8312 C   0  0  0  0  0  0  0  0  0  0  0  0
   -5.5093    7.1115    4.6173 N   0  0  0  0  0  0  0  0  0  0  0  0
   -5.2843    5.1638    6.1176 N   0  0  0  0  0  0  0  0  0  0  0  0
   -5.8969   -1.1266    0.2739 C   0  0  0  0  0  0  0  0  0  0  0  0
   -6.7546   -2.2700    0.4039 C   0  0  0  0  0  0  0  0  0  0  0  0
   -7.4958   -2.5903    1.5412 C   0  0  0  0  0  0  0  0  0  0  0  0
   -8.1780   -3.7275    1.3288 N   0  0  0  0  0  0  0  0  0  0  0  0
   -7.8978   -4.1509    0.0823 C   0  0  0  0  0  0  0  0  0  0  0  0
   -7.0171   -3.2769   -0.5310 C   0  0  0  0  0  0  0  0  0  0  0  0
   -6.5989   -3.5096   -1.8302 C   0  0  0  0  0  0  0  0  0  0  0  0
   -7.0235   -4.5981   -2.5694 C   0  0  0  0  0  0  0  0  0  0  0  0
   -7.8939   -5.4643   -1.9627 C   0  0  0  0  0  0  0  0  0  0  0  0
   -8.3252   -5.2502   -0.6656 C   0  0  0  0  0  0  0  0  0  0  0  0
   -4.3263   -6.0332   -0.6263 C   0  0  0  0  0  0  0  0  0  0  0  0
   -4.0222   -7.0117   -1.3921 O   0  0  0  0  0  0  0  0  0  0  0  0
   -5.3514   -6.1921    0.3292 N   0  0  0  0  0  0  0  0  0  0  0  0
    8.8584   -2.2685    0.8544 N   0  0  0  0  0  0  0  0  0  0  0  0
    9.2317   -3.6534    0.8902 C   0  0  0  0  0  0  0  0  0  0  0  0
    8.4663   -4.4507    1.4587 O   0  0  0  0  0  0  0  0  0  0  0  0
   10.5113   -4.0607    0.2447 C   0  0  0  0  0  0  0  0  0  0  0  0
   10.7627   -1.3299    4.8484 H   0  0  0  0  0  0  0  0  0  0  0  0
   10.4136    0.4324    4.8154 H   0  0  0  0  0  0  0  0  0  0  0  0
   11.8548   -0.1862    3.9132 H   0  0  0  0  0  0  0  0  0  0  0  0
   10.4290   -0.0243    2.1676 H   0  0  0  0  0  0  0  0  0  0  0  0
   10.1028   -1.6889    2.7075 H   0  0  0  0  0  0  0  0  0  0  0  0
    8.1591   -0.8971    4.1305 H   0  0  0  0  0  0  0  0  0  0  0  0
    8.5217    0.7590    3.6657 H   0  0  0  0  0  0  0  0  0  0  0  0
    6.6946   -0.0530    2.3446 H   0  0  0  0  0  0  0  0  0  0  0  0
    8.0283    0.2535    1.2400 H   0  0  0  0  0  0  0  0  0  0  0  0
    7.1423   -2.5938    2.0877 H   0  0  0  0  0  0  0  0  0  0  0  0
    4.9483   -0.9970    1.4576 H   0  0  0  0  0  0  0  0  0  0  0  0
    5.0638   -1.3972   -1.5960 H   0  0  0  0  0  0  0  0  0  0  0  0
    2.4955   -1.5266    0.0906 H   0  0  0  0  0  0  0  0  0  0  0  0
    2.7463   -1.7225   -1.6496 H   0  0  0  0  0  0  0  0  0  0  0  0
    4.2724   -3.6422   -1.2719 H   0  0  0  0  0  0  0  0  0  0  0  0
    4.0822   -3.4331    0.5248 H   0  0  0  0  0  0  0  0  0  0  0  0
    1.8188   -4.6588    1.5724 H   0  0  0  0  0  0  0  0  0  0  0  0
   -0.4404   -7.1877    0.1971 H   0  0  0  0  0  0  0  0  0  0  0  0
    0.0319   -6.4007    1.7735 H   0  0  0  0  0  0  0  0  0  0  0  0
   -2.4364   -6.1797    1.1677 H   0  0  0  0  0  0  0  0  0  0  0  0
   -1.5786   -4.6286    1.3591 H   0  0  0  0  0  0  0  0  0  0  0  0
   -1.9722   -6.1309   -1.3070 H   0  0  0  0  0  0  0  0  0  0  0  0
   -1.4206   -4.4452   -1.1722 H   0  0  0  0  0  0  0  0  0  0  0  0
   -3.5932   -4.5154   -1.9194 H   0  0  0  0  0  0  0  0  0  0  0  0
   -4.3068   -3.8929    0.9405 H   0  0  0  0  0  0  0  0  0  0  0  0
   -4.3264   -1.5244    1.6162 H   0  0  0  0  0  0  0  0  0  0  0  0
   -3.5755    0.3366   -0.7042 H   0  0  0  0  0  0  0  0  0  0  0  0
   -1.9117    2.2785    1.7592 H   0  0  0  0  0  0  0  0  0  0  0  0
   -3.3384    2.3976   -0.9489 H   0  0  0  0  0  0  0  0  0  0  0  0
   -1.0152    1.8230   -2.4534 H   0  0  0  0  0  0  0  0  0  0  0  0
    0.9548    4.1400   -2.1454 H   0  0  0  0  0  0  0  0  0  0  0  0
    3.3596    2.7447   -1.3600 H   0  0  0  0  0  0  0  0  0  0  0  0
    3.0503    0.0006   -2.6853 H   0  0  0  0  0  0  0  0  0  0  0  0
    4.5719    2.5411   -3.5916 H   0  0  0  0  0  0  0  0  0  0  0  0
    3.0905    1.9777   -4.3448 H   0  0  0  0  0  0  0  0  0  0  0  0
    1.3490    3.9426   -5.0517 H   0  0  0  0  0  0  0  0  0  0  0  0
    1.6340    6.5685   -5.3079 H   0  0  0  0  0  0  0  0  0  0  0  0
    4.8181    5.1404   -3.0123 H   0  0  0  0  0  0  0  0  0  0  0  0
   -2.7508    3.1720   -3.0216 H   0  0  0  0  0  0  0  0  0  0  0  0
   -1.3801    3.6498   -4.0171 H   0  0  0  0  0  0  0  0  0  0  0  0
   -3.7927    4.7046   -1.5678 H   0  0  0  0  0  0  0  0  0  0  0  0
   -4.2358    7.0834   -0.9293 H   0  0  0  0  0  0  0  0  0  0  0  0
   -2.6049    8.8420   -1.6235 H   0  0  0  0  0  0  0  0  0  0  0  0
   -0.6448    8.2594   -2.8782 H   0  0  0  0  0  0  0  0  0  0  0  0
   -0.2556    5.8339   -3.4981 H   0  0  0  0  0  0  0  0  0  0  0  0
   -4.8193    3.1976    1.4215 H   0  0  0  0  0  0  0  0  0  0  0  0
   -3.8891    2.8866    2.9264 H   0  0  0  0  0  0  0  0  0  0  0  0
   -3.1776    5.1095    0.9021 H   0  0  0  0  0  0  0  0  0  0  0  0
   -2.4061    4.7556    2.5036 H   0  0  0  0  0  0  0  0  0  0  0  0
   -5.3553    5.4006    2.0032 H   0  0  0  0  0  0  0  0  0  0  0  0
   -4.0802    6.5252    2.5200 H   0  0  0  0  0  0  0  0  0  0  0  0
   -6.5202    7.3626    4.7975 H   0  0  0  0  0  0  0  0  0  0  0  0
   -4.8072    7.8201    4.2935 H   0  0  0  0  0  0  0  0  0  0  0  0
   -6.2259    4.9996    6.5329 H   0  0  0  0  0  0  0  0  0  0  0  0
   -4.4435    4.8799    6.6810 H   0  0  0  0  0  0  0  0  0  0  0  0
   -6.2440   -0.2566    0.9082 H   0  0  0  0  0  0  0  0  0  0  0  0
   -6.0322   -0.7152   -0.7769 H   0  0  0  0  0  0  0  0  0  0  0  0
   -7.5114   -1.9989    2.4612 H   0  0  0  0  0  0  0  0  0  0  0  0
   -8.8164   -4.2061    2.0098 H   0  0  0  0  0  0  0  0  0  0  0  0
   -5.9250   -2.8138   -2.2801 H   0  0  0  0  0  0  0  0  0  0  0  0
   -6.6476   -4.7023   -3.5776 H   0  0  0  0  0  0  0  0  0  0  0  0
   -8.2253   -6.3195   -2.5499 H   0  0  0  0  0  0  0  0  0  0  0  0
   -9.0046   -5.9766   -0.2641 H   0  0  0  0  0  0  0  0  0  0  0  0
   -6.0038   -7.0070    0.2630 H   0  0  0  0  0  0  0  0  0  0  0  0
   -5.4987   -5.5285    1.1171 H   0  0  0  0  0  0  0  0  0  0  0  0
    9.4504   -1.5368    0.3980 H   0  0  0  0  0  0  0  0  0  0  0  0
   11.1676   -4.5209    0.9827 H   0  0  0  0  0  0  0  0  0  0  0  0
   10.3390   -4.7832   -0.5781 H   0  0  0  0  0  0  0  0  0  0  0  0
   11.0066   -3.1982   -0.1994 H   0  0  0  0  0  0  0  0  0  0  0  0
  1  2  1  0
  2  3  1  0
  3  4  1  0
  4  5  1  0
  5  6  1  0
  6  7  2  0
  6  8  1  0
  8  9  1  0
  9 10  1  0
 10 11  1  0
 11 12  1  0
 12 13  1  0
 13 14  2  0
 14 15  1  0
 15 16  1  0
 15 17  1  0
 17 18  1  0
 18 19  1  0
 19 20  1  0
 20 21  1  0
 21 22  1  0
 22 23  2  0
 22 24  1  0
 24 25  1  0
 25 26  1  0
 26 27  2  0
 26 28  1  0
 28 29  1  0
 29 30  1  0
 30 31  2  0
 30 32  1  0
 32 33  1  0
 33 34  1  0
 34 35  2  0
 34 36  1  0
 36 37  1  0
 37 38  1  0
 38 39  2  0
 36 40  1  0
 40 41  1  0
 41 42  1  0
 42 43  1  0
 43 44  2  0
 44 45  1  0
 32 46  1  0
 46 47  1  0
 47 48  2  0
 48 49  1  0
 49 50  2  0
 50 51  1  0
 51 52  2  0
 28 53  1  0
 53 54  1  0
 54 55  1  0
 55 56  1  0
 56 57  2  3
 57 58  1  0
 57 59  1  0
 24 60  1  0
 60 61  1  0
 61 62  2  0
 62 63  1  0
 63 64  1  0
 64 65  2  0
 65 66  1  0
 66 67  2  0
 67 68  1  0
 68 69  2  0
 20 70  1  0
 70 71  2  0
 70 72  1  0
  5 73  1  0
 73 74  1  0
 74 75  2  0
 74 76  1  0
 38  9  1  0
 45 41  2  0
 52 47  1  0
 65 61  1  0
 16 12  2  0
 69 64  1  0
  1 77  1  0
  1 78  1  0
  1 79  1  0
  2 80  1  0
  2 81  1  0
  3 82  1  0
  3 83  1  0
  4 84  1  0
  4 85  1  0
  5 86  1  1
  8 87  1  0
  9 88  1  6
 10 89  1  0
 10 90  1  0
 11 91  1  0
 11 92  1  0
 16 93  1  0
 17 94  1  0
 17 95  1  0
 18 96  1  0
 18 97  1  0
 19 98  1  0
 19 99  1  0
 20100  1  6
 21101  1  0
 24102  1  1
 25103  1  0
 28104  1  1
 29105  1  0
 32106  1  6
 33107  1  0
 36108  1  1
 37109  1  0
 40110  1  0
 40111  1  0
 42112  1  0
 43113  1  0
 45114  1  0
 46115  1  0
 46116  1  0
 48117  1  0
 49118  1  0
 50119  1  0
 51120  1  0
 52121  1  0
 53122  1  0
 53123  1  0
 54124  1  0
 54125  1  0
 55126  1  0
 55127  1  0
 58128  1  0
 58129  1  0
 59130  1  0
 59131  1  0
 60132  1  0
 60133  1  0
 62134  1  0
 63135  1  0
 66136  1  0
 67137  1  0
 68138  1  0
 69139  1  0
 72140  1  0
 72141  1  0
 73142  1  0
 76143  1  0
 76144  1  0
 76145  1  0
M  END
>  <Ligand ID>  (1) 
LIG0001790

>  <Ligand>  (1) 
CHEMBL3358544

>  <SMILES>  (1) 
CCCC[C@@H](C(=O)N[C@H]1CCc2nnn(c2)CCC[C@H](NC(=O)[C@@H](NC(=O)[C@@H](NC(=O)[C@H](NC(=O)[C@@H](NC1=O)Cc1[nH]cnc1)Cc1ccccc1)CCCN=C(N)N)Cc1c[nH]c2c1cccc2)C(=O)N)NC(=O)C

>  <CID>  (1) 
118722936.0

>  <ChEMBL ID>  (1) 
nan

>  <InChiKey>  (1) 
KRBJCNKRJSCANK-PMHRFVFWSA-N

>  <InChi>  (1) 
InChI=1S/C51H69N17O8/c1-3-4-15-38(59-30(2)69)45(71)62-40-20-19-33-28-68(67-66-33)22-11-18-37(44(52)70)60-49(75)42(24-32-26-57-36-16-9-8-14-35(32)36)64-46(72)39(17-10-21-56-51(53)54)61-48(74)41(23-31-12-6-5-7-13-31)63-50(76)43(65-47(40)73)25-34-27-55-29-58-34/h5-9,12-14,16,26-29,37-43,57H,3-4,10-11,15,17-25H2,1-2H3,(H2,52,70)(H,55,58)(H,59,69)(H,60,75)(H,61,74)(H,62,71)(H,63,76)(H,64,72)(H,65,73)(H4,53,54,56)/t37-,38-,39-,40-,41+,42-,43-/m0/s1

>  <IUPAC Name>  (1) 
(5S,8S,11S,14R,17S,20S)-20-[[(2S)-2-acetamidohexanoyl]amino]-14-benzyl-11-[3-(diaminomethylideneamino)propyl]-17-(1H-imidazol-5-ylmethyl)-8-(1H-indol-3-ylmethyl)-7,10,13,16,19-pentaoxo-1,6,9,12,15,18,24,25-octazabicyclo[21.2.1]hexacosa-23(26),24-diene-5-carboxamide

$$$$
