
     RDKit          3D

 33 34  0  0  0  0  0  0  0  0999 V2000
    4.4999    2.1479    0.9794 C   0  0  0  0  0  0  0  0  0  0  0  0
    3.8869    1.5254   -0.6089 S   0  0  0  0  0  0  0  0  0  0  0  0
    2.7423    0.1701   -0.4177 C   0  0  0  0  0  0  0  0  0  0  0  0
    1.3882    0.4432   -0.2895 C   0  0  0  0  0  0  0  0  0  0  0  0
    0.5154   -0.6363   -0.1469 C   0  0  0  0  0  0  0  0  0  0  0  0
   -0.9179   -0.6640    0.0058 N   0  0  0  0  0  0  0  0  0  0  0  0
   -1.3098   -1.9311   -0.6004 C   0  0  0  0  0  0  0  0  0  0  0  0
   -0.2475   -2.8422    0.0342 C   0  0  0  0  0  0  0  0  0  0  0  0
    0.9505   -1.9414   -0.1306 C   0  0  0  0  0  0  0  0  0  0  0  0
    2.2861   -2.2104   -0.2568 C   0  0  0  0  0  0  0  0  0  0  0  0
    3.1569   -1.1451   -0.3983 C   0  0  0  0  0  0  0  0  0  0  0  0
    4.4936   -1.3580   -0.5274 F   0  0  0  0  0  0  0  0  0  0  0  0
   -1.7239    0.3455    0.6195 C   0  0  0  0  0  0  0  0  0  0  0  0
   -2.6171    1.1040   -0.2917 C   0  0  1  0  0  0  0  0  0  0  0  0
   -3.5857    0.3177   -1.0076 N   0  0  0  0  0  0  0  0  0  0  0  0
   -3.3779    2.1195    0.5654 C   0  0  0  0  0  0  0  0  0  0  0  0
    4.5372    3.2738    0.8844 H   0  0  0  0  0  0  0  0  0  0  0  0
    5.5028    1.7427    1.1932 H   0  0  0  0  0  0  0  0  0  0  0  0
    3.7995    1.8662    1.7913 H   0  0  0  0  0  0  0  0  0  0  0  0
    1.0016    1.4726   -0.2984 H   0  0  0  0  0  0  0  0  0  0  0  0
   -2.3086   -2.2715   -0.3292 H   0  0  0  0  0  0  0  0  0  0  0  0
   -1.0917   -1.9266   -1.6885 H   0  0  0  0  0  0  0  0  0  0  0  0
   -0.1360   -3.7840   -0.5055 H   0  0  0  0  0  0  0  0  0  0  0  0
   -0.4931   -2.9916    1.0940 H   0  0  0  0  0  0  0  0  0  0  0  0
    2.6982   -3.2019   -0.2509 H   0  0  0  0  0  0  0  0  0  0  0  0
   -1.1136    1.0977    1.1776 H   0  0  0  0  0  0  0  0  0  0  0  0
   -2.3402   -0.1478    1.4185 H   0  0  0  0  0  0  0  0  0  0  0  0
   -1.9871    1.7170   -0.9799 H   0  0  0  0  0  0  0  0  0  0  0  0
   -4.2400    0.9432   -1.5293 H   0  0  0  0  0  0  0  0  0  0  0  0
   -3.1548   -0.3211   -1.7116 H   0  0  0  0  0  0  0  0  0  0  0  0
   -4.4395    1.8090    0.6354 H   0  0  0  0  0  0  0  0  0  0  0  0
   -2.9942    2.1467    1.6117 H   0  0  0  0  0  0  0  0  0  0  0  0
   -3.3805    3.1306    0.0843 H   0  0  0  0  0  0  0  0  0  0  0  0
  1  2  1  0
  2  3  1  0
  3  4  2  0
  4  5  1  0
  5  6  1  0
  6  7  1  0
  7  8  1  0
  8  9  1  0
  9 10  1  0
 10 11  2  0
 11 12  1  0
  6 13  1  0
 13 14  1  0
 14 15  1  0
 14 16  1  0
 11  3  1  0
  9  5  2  0
  1 17  1  0
  1 18  1  0
  1 19  1  0
  4 20  1  0
  7 21  1  0
  7 22  1  0
  8 23  1  0
  8 24  1  0
 10 25  1  0
 13 26  1  0
 13 27  1  0
 14 28  1  6
 15 29  1  0
 15 30  1  0
 16 31  1  0
 16 32  1  0
 16 33  1  0
M  END
>  <Ligand ID>  (1) 
LIG0002164

>  <Ligand>  (1) 
VER-5593

>  <SMILES>  (1) 
CSc1cc2N(CCc2cc1F)C[C@@H](N)C

>  <CID>  (1) 
11264955.0

>  <ChEMBL ID>  (1) 
nan

>  <InChiKey>  (1) 
IGAAICGMRRWZJW-QMMMGPOBSA-N

>  <InChi>  (1) 
InChI=1S/C12H17FN2S/c1-8(14)7-15-4-3-9-5-10(13)12(16-2)6-11(9)15/h5-6,8H,3-4,7,14H2,1-2H3/t8-/m0/s1

>  <IUPAC Name>  (1) 
(2S)-1-(5-fluoro-6-methylsulfanyl-2,3-dihydroindol-1-yl)propan-2-amine

$$$$
