
     RDKit          3D

 54 56  0  0  0  0  0  0  0  0999 V2000
    4.2160   -5.7461   -0.9132 N   0  0  0  0  0  0  0  0  0  0  0  0
    3.8591   -4.3617   -0.9407 C   0  0  0  0  0  0  0  0  0  0  0  0
    3.7052   -3.7073   -2.0663 O   0  0  0  0  0  0  0  0  0  0  0  0
    3.3866   -2.4889   -1.7449 N   0  0  0  0  0  0  0  0  0  0  0  0
    3.3256   -2.3212   -0.4116 C   0  0  0  0  0  0  0  0  0  0  0  0
    3.6352   -3.5475    0.1022 N   0  0  0  0  0  0  0  0  0  0  0  0
    3.0044   -1.1168    0.3841 C   0  0  0  0  0  0  0  0  0  0  0  0
    4.1371   -0.1155    0.3824 C   0  0  0  0  0  0  0  0  0  0  0  0
    4.4813    0.3675   -0.9967 C   0  0  0  0  0  0  0  0  0  0  0  0
    5.3894   -0.7525    0.9832 C   0  0  0  0  0  0  0  0  0  0  0  0
    3.7761    1.0889    1.2212 C   0  0  0  0  0  0  0  0  0  0  0  0
    1.8482   -0.4767   -0.2015 N   0  0  0  0  0  0  0  0  0  0  0  0
    0.6610   -0.2830    0.5211 C   0  0  0  0  0  0  0  0  0  0  0  0
    0.6061   -0.6816    1.7180 O   0  0  0  0  0  0  0  0  0  0  0  0
   -0.4857    0.3635   -0.0926 C   0  0  0  0  0  0  0  0  0  0  0  0
   -0.4376    0.7936   -1.3716 N   0  0  0  0  0  0  0  0  0  0  0  0
   -1.5258    1.3820   -1.8820 C   0  0  0  0  0  0  0  0  0  0  0  0
   -2.6963    1.5816   -1.1946 C   0  0  0  0  0  0  0  0  0  0  0  0
   -2.7730    1.1491    0.1221 C   0  0  0  0  0  0  0  0  0  0  0  0
   -1.6539    0.5469    0.6385 C   0  0  0  0  0  0  0  0  0  0  0  0
   -3.9525    1.3599    0.7871 O   0  0  0  0  0  0  0  0  0  0  0  0
   -4.2253    1.0032    2.0973 C   0  0  2  0  0  0  0  0  0  0  0  0
   -5.4126    0.0384    2.1069 C   0  0  0  0  0  0  0  0  0  0  0  0
   -5.6671   -0.3043    3.4263 F   0  0  0  0  0  0  0  0  0  0  0  0
   -5.0588   -1.1253    1.4372 F   0  0  0  0  0  0  0  0  0  0  0  0
   -6.5031    0.6151    1.4920 F   0  0  0  0  0  0  0  0  0  0  0  0
   -4.6543    2.2011    2.9422 C   0  0  0  0  0  0  0  0  0  0  0  0
   -3.8810    2.2482   -1.8247 C   0  0  0  0  0  0  0  0  0  0  0  0
   -4.8575    1.3050   -2.5295 C   0  0  0  0  0  0  0  0  0  0  0  0
   -4.0096    2.2573   -3.2990 C   0  0  0  0  0  0  0  0  0  0  0  0
    5.2022   -5.9619   -0.6259 H   0  0  0  0  0  0  0  0  0  0  0  0
    3.5463   -6.4864   -1.1601 H   0  0  0  0  0  0  0  0  0  0  0  0
    2.8164   -1.4121    1.4315 H   0  0  0  0  0  0  0  0  0  0  0  0
    4.5736   -0.4285   -1.7432 H   0  0  0  0  0  0  0  0  0  0  0  0
    5.4069    0.9854   -0.9104 H   0  0  0  0  0  0  0  0  0  0  0  0
    3.6865    1.1172   -1.2745 H   0  0  0  0  0  0  0  0  0  0  0  0
    5.3836   -1.8245    0.7427 H   0  0  0  0  0  0  0  0  0  0  0  0
    6.2651   -0.2485    0.5396 H   0  0  0  0  0  0  0  0  0  0  0  0
    5.4369   -0.6276    2.0834 H   0  0  0  0  0  0  0  0  0  0  0  0
    4.4466    1.9305    1.0555 H   0  0  0  0  0  0  0  0  0  0  0  0
    3.6734    0.7898    2.2864 H   0  0  0  0  0  0  0  0  0  0  0  0
    2.7493    1.4168    0.9054 H   0  0  0  0  0  0  0  0  0  0  0  0
    1.9339   -0.1605   -1.1967 H   0  0  0  0  0  0  0  0  0  0  0  0
   -1.4664    1.7185   -2.9060 H   0  0  0  0  0  0  0  0  0  0  0  0
   -1.6445    0.1900    1.6470 H   0  0  0  0  0  0  0  0  0  0  0  0
   -3.3815    0.5129    2.5882 H   0  0  0  0  0  0  0  0  0  0  0  0
   -4.2767    2.0566    3.9688 H   0  0  0  0  0  0  0  0  0  0  0  0
   -4.2280    3.1432    2.5239 H   0  0  0  0  0  0  0  0  0  0  0  0
   -5.7579    2.2543    3.0166 H   0  0  0  0  0  0  0  0  0  0  0  0
   -4.3012    3.0902   -1.2659 H   0  0  0  0  0  0  0  0  0  0  0  0
   -4.5958    0.2221   -2.5515 H   0  0  0  0  0  0  0  0  0  0  0  0
   -5.9261    1.5256   -2.3190 H   0  0  0  0  0  0  0  0  0  0  0  0
   -4.5616    3.0904   -3.7836 H   0  0  0  0  0  0  0  0  0  0  0  0
   -3.2184    1.8335   -3.9450 H   0  0  0  0  0  0  0  0  0  0  0  0
  1  2  1  0
  2  3  1  0
  3  4  1  0
  4  5  2  0
  5  6  1  0
  5  7  1  0
  7  8  1  0
  8  9  1  0
  8 10  1  0
  8 11  1  0
  7 12  1  0
 12 13  1  0
 13 14  2  0
 13 15  1  0
 15 16  2  0
 16 17  1  0
 17 18  2  0
 18 19  1  0
 19 20  2  0
 19 21  1  0
 21 22  1  0
 22 23  1  0
 23 24  1  0
 23 25  1  0
 23 26  1  0
 22 27  1  0
 18 28  1  0
 28 29  1  0
 29 30  1  0
  6  2  2  0
 20 15  1  0
 30 28  1  0
  1 31  1  0
  1 32  1  0
  7 33  1  0
  9 34  1  0
  9 35  1  0
  9 36  1  0
 10 37  1  0
 10 38  1  0
 10 39  1  0
 11 40  1  0
 11 41  1  0
 11 42  1  0
 12 43  1  0
 17 44  1  0
 20 45  1  0
 22 46  1  1
 27 47  1  0
 27 48  1  0
 27 49  1  0
 28 50  1  0
 29 51  1  0
 29 52  1  0
 30 53  1  0
 30 54  1  0
M  END
>  <Ligand ID>  (1) 
LIG0005190

>  <Ligand>  (1) 
CHEMBL3984692

>  <SMILES>  (1) 
Nc1onc(n1)C(C(C)(C)C)NC(=O)c1ncc(c(c1)O[C@H](C(F)(F)F)C)C1CC1

>  <CID>  (1) 
90203958.0

>  <ChEMBL ID>  (1) 
nan

>  <InChiKey>  (1) 
SPCIZGDSHYOPNO-CUVJYRNJSA-N

>  <InChi>  (1) 
InChI=1S/C19H24F3N5O3/c1-9(19(20,21)22)29-13-7-12(24-8-11(13)10-5-6-10)16(28)25-14(18(2,3)4)15-26-17(23)30-27-15/h7-10,14H,5-6H2,1-4H3,(H,25,28)(H2,23,26,27)/t9-,14?/m0/s1

>  <IUPAC Name>  (1) 
N-[1-(5-amino-1,2,4-oxadiazol-3-yl)-2,2-dimethylpropyl]-5-cyclopropyl-4-[(2S)-1,1,1-trifluoropropan-2-yl]oxypyridine-2-carboxamide

$$$$
