
     RDKit          3D

174179  0  0  0  0  0  0  0  0999 V2000
   13.4075   -0.4727   -3.1688 C   0  0  0  0  0  0  0  0  0  0  0  0
   12.0063   -0.7706   -3.1325 N   0  0  0  0  0  0  0  0  0  0  0  0
   11.4588   -1.7855   -3.6808 C   0  0  0  0  0  0  0  0  0  0  0  0
   10.0546   -1.9310   -3.5500 N   0  0  0  0  0  0  0  0  0  0  0  0
    9.2927   -1.6047   -2.3774 C   0  0  0  0  0  0  0  0  0  0  0  0
    9.2415   -0.1544   -2.0522 C   0  0  0  0  0  0  0  0  0  0  0  0
    8.4114    0.1965   -0.8762 C   0  0  0  0  0  0  0  0  0  0  0  0
    8.7880   -0.4108    0.4475 C   0  0  1  0  0  0  0  0  0  0  0  0
   10.0969   -0.0985    0.9725 C   0  0  0  0  0  0  0  0  0  0  0  0
   10.0905    0.6011    2.0698 O   0  0  0  0  0  0  0  0  0  0  0  0
   11.3576   -0.4378    0.4674 N   0  0  0  0  0  0  0  0  0  0  0  0
   12.6586   -0.1058    0.9797 C   0  0  2  0  0  0  0  0  0  0  0  0
   13.0911   -1.0149    2.0528 C   0  0  0  0  0  0  0  0  0  0  0  0
   14.2440   -0.8102    2.5688 O   0  0  0  0  0  0  0  0  0  0  0  0
   12.3343   -2.1009    2.5610 N   0  0  0  0  0  0  0  0  0  0  0  0
   12.7308    1.3399    1.4905 C   0  0  0  0  0  0  0  0  0  0  0  0
   12.4188    2.2848    0.4118 C   0  0  0  0  0  0  0  0  0  0  0  0
   11.2313    2.9504    0.1560 C   0  0  0  0  0  0  0  0  0  0  0  0
   11.3844    3.6994   -0.9583 N   0  0  0  0  0  0  0  0  0  0  0  0
   12.6275    3.5527   -1.4444 C   0  0  0  0  0  0  0  0  0  0  0  0
   13.2768    2.6823   -0.6082 C   0  0  0  0  0  0  0  0  0  0  0  0
   14.5929    2.3732   -0.8987 C   0  0  0  0  0  0  0  0  0  0  0  0
   15.1967    2.9458   -2.0099 C   0  0  0  0  0  0  0  0  0  0  0  0
   14.5110    3.8125   -2.8245 C   0  0  0  0  0  0  0  0  0  0  0  0
   13.1934    4.1373   -2.5524 C   0  0  0  0  0  0  0  0  0  0  0  0
    7.7760    0.1150    1.3875 N   0  0  0  0  0  0  0  0  0  0  0  0
    6.5485   -0.5467    1.4228 C   0  0  0  0  0  0  0  0  0  0  0  0
    6.4117   -1.5443    0.6260 O   0  0  0  0  0  0  0  0  0  0  0  0
    5.3876   -0.2297    2.2659 C   0  0  1  0  0  0  0  0  0  0  0  0
    4.2845   -1.0457    1.7378 N   0  0  0  0  0  0  0  0  0  0  0  0
    3.0081   -0.4799    1.4125 C   0  0  0  0  0  0  0  0  0  0  0  0
    2.7174    0.7202    1.5866 O   0  0  0  0  0  0  0  0  0  0  0  0
    2.0487   -1.3588    0.8598 N   0  0  0  0  0  0  0  0  0  0  0  0
    0.7438   -1.0039    0.4988 N   0  0  0  0  0  0  0  0  0  0  0  0
    0.0093   -1.9321   -0.2632 C   0  0  0  0  0  0  0  0  0  0  0  0
    0.6619   -3.0150   -0.5631 O   0  0  0  0  0  0  0  0  0  0  0  0
   -1.3476   -1.8765   -0.7631 C   0  0  1  0  0  0  0  0  0  0  0  0
   -2.2094   -0.8301   -0.2613 N   0  0  0  0  0  0  0  0  0  0  0  0
   -2.7267   -0.7850    1.0518 C   0  0  0  0  0  0  0  0  0  0  0  0
   -2.3336   -1.7032    1.8532 O   0  0  0  0  0  0  0  0  0  0  0  0
   -3.6718    0.1939    1.5907 C   0  0  2  0  0  0  0  0  0  0  0  0
   -4.6546   -0.5292    2.5629 C   0  0  2  0  0  0  0  0  0  0  0  0
   -3.9455   -1.0741    3.6158 O   0  0  0  0  0  0  0  0  0  0  0  0
   -5.4503   -1.5753    1.8668 C   0  0  0  0  0  0  0  0  0  0  0  0
   -4.4455    0.7551    0.5098 N   0  0  0  0  0  0  0  0  0  0  0  0
   -5.2543    1.9016    0.5606 C   0  0  0  0  0  0  0  0  0  0  0  0
   -5.3830    2.5998    1.5952 O   0  0  0  0  0  0  0  0  0  0  0  0
   -5.9874    2.2390   -0.7239 C   0  0  1  0  0  0  0  0  0  0  0  0
   -7.1152    3.1139   -0.4771 N   0  0  0  0  0  0  0  0  0  0  0  0
   -8.4018    2.5680   -0.7242 C   0  0  0  0  0  0  0  0  0  0  0  0
   -8.4004    1.3501   -1.1462 O   0  0  0  0  0  0  0  0  0  0  0  0
   -9.6837    3.2050   -0.5552 C   0  0  2  0  0  0  0  0  0  0  0  0
   -9.8280    4.3060    0.4470 C   0  0  0  0  0  0  0  0  0  0  0  0
  -11.2799    4.7024    0.5539 C   0  0  0  0  0  0  0  0  0  0  0  0
  -11.6235    5.7899    1.3287 C   0  0  0  0  0  0  0  0  0  0  0  0
  -12.9404    6.1869    1.4434 C   0  0  0  0  0  0  0  0  0  0  0  0
  -13.9612    5.5312    0.8027 C   0  0  0  0  0  0  0  0  0  0  0  0
  -13.6089    4.4398    0.0259 C   0  0  0  0  0  0  0  0  0  0  0  0
  -12.2959    4.0457   -0.0876 C   0  0  0  0  0  0  0  0  0  0  0  0
  -12.0731    2.8157   -0.9512 C   0  0  0  0  0  0  0  0  0  0  0  0
  -10.8178    2.2747   -0.3801 N   0  0  0  0  0  0  0  0  0  0  0  0
  -10.7317    1.0449    0.2710 C   0  0  0  0  0  0  0  0  0  0  0  0
   -9.6428    0.6423    0.8452 O   0  0  0  0  0  0  0  0  0  0  0  0
  -11.8395    0.0541    0.3975 C   0  0  1  0  0  0  0  0  0  0  0  0
  -12.0773   -0.7030   -0.9142 C   0  0  0  0  0  0  0  0  0  0  0  0
  -13.1974   -1.6601   -0.6287 C   0  0  0  0  0  0  0  0  0  0  0  0
  -14.5159   -1.3523   -0.8285 C   0  0  0  0  0  0  0  0  0  0  0  0
  -15.5557   -2.2278   -0.5533 C   0  0  0  0  0  0  0  0  0  0  0  0
  -15.1971   -3.4647   -0.0534 C   0  0  0  0  0  0  0  0  0  0  0  0
  -13.8746   -3.8174    0.1643 C   0  0  0  0  0  0  0  0  0  0  0  0
  -12.8552   -2.9174   -0.1220 C   0  0  0  0  0  0  0  0  0  0  0  0
  -16.1704   -4.4346    0.2616 O   0  0  0  0  0  0  0  0  0  0  0  0
  -11.4070   -1.0187    1.3205 N   0  0  0  0  0  0  0  0  0  0  0  0
  -12.2620   -1.2927    2.4243 C   0  0  0  0  0  0  0  0  0  0  0  0
  -13.3358   -0.6845    2.6459 O   0  0  0  0  0  0  0  0  0  0  0  0
  -11.8170   -2.3814    3.3572 C   0  0  0  0  0  0  0  0  0  0  0  0
   -4.9931    3.0172   -1.5775 C   0  0  0  0  0  0  0  0  0  0  0  0
   -5.6330    3.3899   -2.8832 C   0  0  0  0  0  0  0  0  0  0  0  0
   -6.8289    3.1187   -3.1471 O   0  0  0  0  0  0  0  0  0  0  0  0
   -4.8197    4.0787   -3.8409 N   0  0  0  0  0  0  0  0  0  0  0  0
   -1.4256   -1.8732   -2.2731 C   0  0  0  0  0  0  0  0  0  0  0  0
   -0.8411   -3.0359   -2.9247 C   0  0  0  0  0  0  0  0  0  0  0  0
   -1.5134   -4.1867   -3.2251 C   0  0  0  0  0  0  0  0  0  0  0  0
   -0.9701   -5.2761   -3.8661 C   0  0  0  0  0  0  0  0  0  0  0  0
    0.3729   -5.1710   -4.2242 C   0  0  0  0  0  0  0  0  0  0  0  0
    1.1218   -4.0405   -3.9537 C   0  0  0  0  0  0  0  0  0  0  0  0
    0.5042   -2.9698   -3.2999 C   0  0  0  0  0  0  0  0  0  0  0  0
    5.6453   -0.5398    3.6969 C   0  0  0  0  0  0  0  0  0  0  0  0
    5.9404   -1.9279    4.0992 C   0  0  0  0  0  0  0  0  0  0  0  0
    7.1638   -2.5783    3.5244 C   0  0  0  0  0  0  0  0  0  0  0  0
    6.1978   -1.8825    5.6281 C   0  0  0  0  0  0  0  0  0  0  0  0
   12.2911   -2.6926   -4.3762 N   0  0  0  0  0  0  0  0  0  0  0  0
   14.0428   -1.3251   -3.4148 H   0  0  0  0  0  0  0  0  0  0  0  0
   13.5518    0.3766   -3.9013 H   0  0  0  0  0  0  0  0  0  0  0  0
   13.6915   -0.0413   -2.1933 H   0  0  0  0  0  0  0  0  0  0  0  0
    9.5663   -2.3224   -4.4172 H   0  0  0  0  0  0  0  0  0  0  0  0
    8.2470   -2.0052   -2.5432 H   0  0  0  0  0  0  0  0  0  0  0  0
    9.6912   -2.2487   -1.5640 H   0  0  0  0  0  0  0  0  0  0  0  0
    8.7197    0.3326   -2.9403 H   0  0  0  0  0  0  0  0  0  0  0  0
   10.2415    0.2732   -2.0624 H   0  0  0  0  0  0  0  0  0  0  0  0
    7.3529   -0.1033   -1.1406 H   0  0  0  0  0  0  0  0  0  0  0  0
    8.3651    1.2848   -0.7575 H   0  0  0  0  0  0  0  0  0  0  0  0
    8.6212   -1.5149    0.4278 H   0  0  0  0  0  0  0  0  0  0  0  0
   11.3568   -1.0334   -0.4224 H   0  0  0  0  0  0  0  0  0  0  0  0
   13.4158   -0.1369    0.1411 H   0  0  0  0  0  0  0  0  0  0  0  0
   11.6323   -2.5367    1.9186 H   0  0  0  0  0  0  0  0  0  0  0  0
   12.5014   -2.4237    3.5478 H   0  0  0  0  0  0  0  0  0  0  0  0
   13.7958    1.5494    1.8130 H   0  0  0  0  0  0  0  0  0  0  0  0
   12.0731    1.4699    2.3358 H   0  0  0  0  0  0  0  0  0  0  0  0
   10.3095    2.9248    0.7042 H   0  0  0  0  0  0  0  0  0  0  0  0
   10.6387    4.3174   -1.3882 H   0  0  0  0  0  0  0  0  0  0  0  0
   15.1737    1.7001   -0.2897 H   0  0  0  0  0  0  0  0  0  0  0  0
   16.2224    2.7024   -2.2310 H   0  0  0  0  0  0  0  0  0  0  0  0
   15.0522    4.2232   -3.6884 H   0  0  0  0  0  0  0  0  0  0  0  0
   12.6562    4.8083   -3.1869 H   0  0  0  0  0  0  0  0  0  0  0  0
    7.9409    0.9308    1.9956 H   0  0  0  0  0  0  0  0  0  0  0  0
    5.1449    0.8454    2.1935 H   0  0  0  0  0  0  0  0  0  0  0  0
    4.5104   -2.0588    1.6233 H   0  0  0  0  0  0  0  0  0  0  0  0
    2.3662   -2.3566    0.7274 H   0  0  0  0  0  0  0  0  0  0  0  0
    0.2764   -0.1118    0.7487 H   0  0  0  0  0  0  0  0  0  0  0  0
   -1.8475   -2.8311   -0.3809 H   0  0  0  0  0  0  0  0  0  0  0  0
   -2.4694   -0.0486   -0.9046 H   0  0  0  0  0  0  0  0  0  0  0  0
   -3.1875    0.9086    2.2547 H   0  0  0  0  0  0  0  0  0  0  0  0
   -5.3066    0.2677    2.9483 H   0  0  0  0  0  0  0  0  0  0  0  0
   -4.1171   -0.6184    4.4907 H   0  0  0  0  0  0  0  0  0  0  0  0
   -6.3847   -1.1893    1.4640 H   0  0  0  0  0  0  0  0  0  0  0  0
   -5.7571   -2.3216    2.6601 H   0  0  0  0  0  0  0  0  0  0  0  0
   -4.8429   -2.1826    1.1567 H   0  0  0  0  0  0  0  0  0  0  0  0
   -4.4045    0.2432   -0.4231 H   0  0  0  0  0  0  0  0  0  0  0  0
   -6.3154    1.3207   -1.2135 H   0  0  0  0  0  0  0  0  0  0  0  0
   -7.0608    4.0876   -0.1440 H   0  0  0  0  0  0  0  0  0  0  0  0
   -9.9096    3.7178   -1.5602 H   0  0  0  0  0  0  0  0  0  0  0  0
   -9.5050    3.9708    1.4371 H   0  0  0  0  0  0  0  0  0  0  0  0
   -9.2503    5.2093    0.1637 H   0  0  0  0  0  0  0  0  0  0  0  0
  -10.8795    6.3665    1.8728 H   0  0  0  0  0  0  0  0  0  0  0  0
  -13.2148    7.0386    2.0525 H   0  0  0  0  0  0  0  0  0  0  0  0
  -15.0065    5.8529    0.9013 H   0  0  0  0  0  0  0  0  0  0  0  0
  -14.3915    3.9207   -0.4772 H   0  0  0  0  0  0  0  0  0  0  0  0
  -11.8606    3.1142   -1.9808 H   0  0  0  0  0  0  0  0  0  0  0  0
  -12.9146    2.1435   -0.8476 H   0  0  0  0  0  0  0  0  0  0  0  0
  -12.7802    0.4301    0.7572 H   0  0  0  0  0  0  0  0  0  0  0  0
  -11.1539   -1.2231   -1.2417 H   0  0  0  0  0  0  0  0  0  0  0  0
  -12.4677   -0.0011   -1.6663 H   0  0  0  0  0  0  0  0  0  0  0  0
  -14.7906   -0.3936   -1.2175 H   0  0  0  0  0  0  0  0  0  0  0  0
  -16.6015   -1.9619   -0.7172 H   0  0  0  0  0  0  0  0  0  0  0  0
  -13.6537   -4.8118    0.5547 H   0  0  0  0  0  0  0  0  0  0  0  0
  -11.8279   -3.2100    0.0571 H   0  0  0  0  0  0  0  0  0  0  0  0
  -16.5637   -4.3764    1.2128 H   0  0  0  0  0  0  0  0  0  0  0  0
  -10.5128   -1.5419    1.1547 H   0  0  0  0  0  0  0  0  0  0  0  0
  -10.7080   -2.3497    3.4300 H   0  0  0  0  0  0  0  0  0  0  0  0
  -12.2642   -2.2252    4.3480 H   0  0  0  0  0  0  0  0  0  0  0  0
  -12.1984   -3.3296    2.9282 H   0  0  0  0  0  0  0  0  0  0  0  0
   -4.8139    3.9872   -1.0624 H   0  0  0  0  0  0  0  0  0  0  0  0
   -4.0400    2.5003   -1.6951 H   0  0  0  0  0  0  0  0  0  0  0  0
   -5.2180    4.9374   -4.2759 H   0  0  0  0  0  0  0  0  0  0  0  0
   -3.8788    3.6841   -4.0484 H   0  0  0  0  0  0  0  0  0  0  0  0
   -2.5143   -1.8447   -2.5696 H   0  0  0  0  0  0  0  0  0  0  0  0
   -1.0261   -0.9070   -2.6734 H   0  0  0  0  0  0  0  0  0  0  0  0
   -2.5556   -4.2406   -2.9340 H   0  0  0  0  0  0  0  0  0  0  0  0
   -1.5268   -6.1622   -4.0875 H   0  0  0  0  0  0  0  0  0  0  0  0
    0.7816   -6.0420   -4.7354 H   0  0  0  0  0  0  0  0  0  0  0  0
    2.1539   -4.0106   -4.2456 H   0  0  0  0  0  0  0  0  0  0  0  0
    1.1129   -2.0908   -3.1003 H   0  0  0  0  0  0  0  0  0  0  0  0
    6.5761    0.0686    3.9650 H   0  0  0  0  0  0  0  0  0  0  0  0
    4.8735   -0.0559    4.3713 H   0  0  0  0  0  0  0  0  0  0  0  0
    5.0463   -2.6107    4.0366 H   0  0  0  0  0  0  0  0  0  0  0  0
    7.5960   -3.3274    4.2718 H   0  0  0  0  0  0  0  0  0  0  0  0
    7.0196   -3.1671    2.6241 H   0  0  0  0  0  0  0  0  0  0  0  0
    7.9244   -1.7971    3.3317 H   0  0  0  0  0  0  0  0  0  0  0  0
    6.9704   -1.1383    5.8478 H   0  0  0  0  0  0  0  0  0  0  0  0
    6.5222   -2.9333    5.8531 H   0  0  0  0  0  0  0  0  0  0  0  0
    5.2281   -1.7464    6.1042 H   0  0  0  0  0  0  0  0  0  0  0  0
   12.0917   -2.8694   -5.3818 H   0  0  0  0  0  0  0  0  0  0  0  0
   13.0796   -3.1497   -3.8421 H   0  0  0  0  0  0  0  0  0  0  0  0
  1  2  1  0
  2  3  2  3
  3  4  1  0
  4  5  1  0
  5  6  1  0
  6  7  1  0
  7  8  1  0
  8  9  1  0
  9 10  2  0
  9 11  1  0
 11 12  1  0
 12 13  1  0
 13 14  2  0
 13 15  1  0
 12 16  1  0
 16 17  1  0
 17 18  2  0
 18 19  1  0
 19 20  1  0
 20 21  2  0
 21 22  1  0
 22 23  2  0
 23 24  1  0
 24 25  2  0
  8 26  1  0
 26 27  1  0
 27 28  2  0
 27 29  1  0
 29 30  1  0
 30 31  1  0
 31 32  2  0
 31 33  1  0
 33 34  1  0
 34 35  1  0
 35 36  2  0
 35 37  1  0
 37 38  1  0
 38 39  1  0
 39 40  2  0
 39 41  1  0
 41 42  1  0
 42 43  1  0
 42 44  1  0
 41 45  1  0
 45 46  1  0
 46 47  2  0
 46 48  1  0
 48 49  1  0
 49 50  1  0
 50 51  2  0
 50 52  1  0
 52 53  1  0
 53 54  1  0
 54 55  2  0
 55 56  1  0
 56 57  2  0
 57 58  1  0
 58 59  2  0
 59 60  1  0
 60 61  1  0
 61 62  1  0
 62 63  2  0
 62 64  1  0
 64 65  1  0
 65 66  1  0
 66 67  2  0
 67 68  1  0
 68 69  2  0
 69 70  1  0
 70 71  2  0
 69 72  1  0
 64 73  1  0
 73 74  1  0
 74 75  2  0
 74 76  1  0
 48 77  1  0
 77 78  1  0
 78 79  2  0
 78 80  1  0
 37 81  1  0
 81 82  1  0
 82 83  2  0
 83 84  1  0
 84 85  2  0
 85 86  1  0
 86 87  2  0
 29 88  1  0
 88 89  1  0
 89 90  1  0
 89 91  1  0
  3 92  1  0
 21 17  1  0
 61 52  1  0
 71 66  1  0
 87 82  1  0
 25 20  1  0
 59 54  1  0
  1 93  1  0
  1 94  1  0
  1 95  1  0
  4 96  1  0
  5 97  1  0
  5 98  1  0
  6 99  1  0
  6100  1  0
  7101  1  0
  7102  1  0
  8103  1  6
 11104  1  0
 12105  1  6
 15106  1  0
 15107  1  0
 16108  1  0
 16109  1  0
 18110  1  0
 19111  1  0
 22112  1  0
 23113  1  0
 24114  1  0
 25115  1  0
 26116  1  0
 29117  1  1
 30118  1  0
 33119  1  0
 34120  1  0
 37121  1  1
 38122  1  0
 41123  1  1
 42124  1  1
 43125  1  0
 44126  1  0
 44127  1  0
 44128  1  0
 45129  1  0
 48130  1  6
 49131  1  0
 52132  1  6
 53133  1  0
 53134  1  0
 55135  1  0
 56136  1  0
 57137  1  0
 58138  1  0
 60139  1  0
 60140  1  0
 64141  1  1
 65142  1  0
 65143  1  0
 67144  1  0
 68145  1  0
 70146  1  0
 71147  1  0
 72148  1  0
 73149  1  0
 76150  1  0
 76151  1  0
 76152  1  0
 77153  1  0
 77154  1  0
 80155  1  0
 80156  1  0
 81157  1  0
 81158  1  0
 83159  1  0
 84160  1  0
 85161  1  0
 86162  1  0
 87163  1  0
 88164  1  0
 88165  1  0
 89166  1  0
 90167  1  0
 90168  1  0
 90169  1  0
 91170  1  0
 91171  1  0
 91172  1  0
 92173  1  0
 92174  1  0
M  END
>  <Ligand ID>  (1) 
LIG0005346

>  <Ligand>  (1) 
CHEMBL3964403

>  <SMILES>  (1) 
CN=C(NCCC[C@@H](C(=O)N[C@H](C(=O)N)Cc1c[nH]c2c1cccc2)NC(=O)[C@@H](NC(=O)NNC(=O)[C@@H](NC(=O)[C@H]([C@H](O)C)NC(=O)[C@@H](NC(=O)[C@@H]1Cc2ccccc2CN1C(=O)[C@@H](Cc1ccc(cc1)O)NC(=O)C)CC(=O)N)Cc1ccccc1)CC(C)C)N

>  <CID>  (1) 
134150351.0

>  <ChEMBL ID>  (1) 
nan

>  <InChiKey>  (1) 
FVUNQXKCUOSYTK-QEORBWQISA-N

>  <InChi>  (1) 
InChI=1S/C63H82N16O13/c1-34(2)26-47(56(86)71-45(20-13-25-68-62(66)67-5)55(85)72-46(54(65)84)29-41-32-69-44-19-12-11-18-43(41)44)75-63(92)78-77-58(88)48(27-37-14-7-6-8-15-37)74-60(90)53(35(3)80)76-57(87)49(31-52(64)83)73-59(89)51-30-39-16-9-10-17-40(39)33-79(51)61(91)50(70-36(4)81)28-38-21-23-42(82)24-22-38/h6-12,14-19,21-24,32,34-35,45-51,53,69,80,82H,13,20,25-31,33H2,1-5H3,(H2,64,83)(H2,65,84)(H,70,81)(H,71,86)(H,72,85)(H,73,89)(H,74,90)(H,76,87)(H,77,88)(H3,66,67,68)(H2,75,78,92)/t35-,45+,46+,47+,48+,49+,50-,51+,53+/m1/s1

>  <IUPAC Name>  (1) 
(2S)-2-[[(3S)-2-[(2R)-2-acetamido-3-(4-hydroxyphenyl)propanoyl]-3,4-dihydro-1H-isoquinoline-3-carbonyl]amino]-N-[(2S,3R)-1-[[(2S)-1-[2-[[(2S)-1-[[(2S)-1-[[(2S)-1-amino-3-(1H-indol-3-yl)-1-oxopropan-2-yl]amino]-5-[(N'-methylcarbamimidoyl)amino]-1-oxopentan-2-yl]amino]-4-methyl-1-oxopentan-2-yl]carbamoyl]hydrazinyl]-1-oxo-3-phenylpropan-2-yl]amino]-3-hydroxy-1-oxobutan-2-yl]butanediamide

$$$$
