
     RDKit          3D

 45 45  0  0  0  0  0  0  0  0999 V2000
   -4.4610   -2.4458    0.1902 C   0  0  0  0  0  0  0  0  0  0  0  0
   -4.1959   -1.0781    0.4882 O   0  0  0  0  0  0  0  0  0  0  0  0
   -2.9027   -0.5918    0.5877 C   0  0  0  0  0  0  0  0  0  0  0  0
   -1.7890   -1.3741    0.4106 C   0  0  0  0  0  0  0  0  0  0  0  0
   -0.5227   -0.8508    0.5184 C   0  0  0  0  0  0  0  0  0  0  0  0
   -0.4036    0.4886    0.8109 C   0  0  0  0  0  0  0  0  0  0  0  0
   -1.4812    1.3284    1.0005 C   0  0  0  0  0  0  0  0  0  0  0  0
   -2.7387    0.7446    0.8794 C   0  0  0  0  0  0  0  0  0  0  0  0
   -3.8786    1.5499    1.0618 O   0  0  0  0  0  0  0  0  0  0  0  0
   -4.4914    2.2332   -0.0054 C   0  0  0  0  0  0  0  0  0  0  0  0
   -5.6601    2.9854    0.5231 C   0  0  0  0  0  0  0  0  0  0  0  0
   -5.8866    2.8874    1.7591 O   0  0  0  0  0  0  0  0  0  0  0  0
   -6.4441    3.7459   -0.3135 O   0  0  0  0  0  0  0  0  0  0  0  0
   -1.2997    2.6244    1.2832 F   0  0  0  0  0  0  0  0  0  0  0  0
    0.6806   -1.6836    0.3296 C   0  0  0  0  0  0  0  0  0  0  0  0
    1.3070   -1.3334   -1.3315 P   0  0  0  0  0  0  0  0  0  0  0  0
    0.7403   -0.0379   -1.8667 O   0  0  0  0  0  0  0  0  0  0  0  0
    3.1229   -1.0770   -1.2139 C   0  0  0  0  0  0  0  0  0  0  0  0
    3.3373    0.2966   -0.6403 C   0  0  0  0  0  0  0  0  0  0  0  0
    4.7900    0.6451   -0.5026 C   0  0  2  0  0  0  0  0  0  0  0  0
    5.5255   -0.2747    0.3841 C   0  0  0  0  0  0  0  0  0  0  0  0
    5.6912   -1.5027    0.1635 O   0  0  0  0  0  0  0  0  0  0  0  0
    6.0919    0.2133    1.5595 O   0  0  0  0  0  0  0  0  0  0  0  0
    4.8889    2.0046    0.0290 N   0  0  0  0  0  0  0  0  0  0  0  0
    0.9652   -2.5796   -2.4137 O   0  0  0  0  0  0  0  0  0  0  0  0
    1.6254   -1.4378    1.3111 O   0  0  0  0  0  0  0  0  0  0  0  0
   -5.5710   -2.5729    0.3288 H   0  0  0  0  0  0  0  0  0  0  0  0
   -3.8983   -3.1193    0.8697 H   0  0  0  0  0  0  0  0  0  0  0  0
   -4.2104   -2.6573   -0.8617 H   0  0  0  0  0  0  0  0  0  0  0  0
   -1.9408   -2.4208    0.1822 H   0  0  0  0  0  0  0  0  0  0  0  0
    0.5959    0.9102    0.8979 H   0  0  0  0  0  0  0  0  0  0  0  0
   -4.8978    1.4554   -0.6919 H   0  0  0  0  0  0  0  0  0  0  0  0
   -3.7864    2.8840   -0.5608 H   0  0  0  0  0  0  0  0  0  0  0  0
   -7.0861    4.4415    0.0750 H   0  0  0  0  0  0  0  0  0  0  0  0
    0.3966   -2.7608    0.3728 H   0  0  0  0  0  0  0  0  0  0  0  0
    3.5610   -1.8649   -0.5694 H   0  0  0  0  0  0  0  0  0  0  0  0
    3.4991   -1.1392   -2.2643 H   0  0  0  0  0  0  0  0  0  0  0  0
    2.8725    0.3009    0.3703 H   0  0  0  0  0  0  0  0  0  0  0  0
    2.7875    1.0546   -1.2525 H   0  0  0  0  0  0  0  0  0  0  0  0
    5.2467    0.6634   -1.5238 H   0  0  0  0  0  0  0  0  0  0  0  0
    6.7402   -0.3553    2.0899 H   0  0  0  0  0  0  0  0  0  0  0  0
    4.5054    1.9847    0.9987 H   0  0  0  0  0  0  0  0  0  0  0  0
    5.9011    2.2562    0.0567 H   0  0  0  0  0  0  0  0  0  0  0  0
    1.5076   -3.3637   -2.1688 H   0  0  0  0  0  0  0  0  0  0  0  0
    1.1660   -1.1766    2.1528 H   0  0  0  0  0  0  0  0  0  0  0  0
  1  2  1  0
  2  3  1  0
  3  4  2  0
  4  5  1  0
  5  6  2  0
  6  7  1  0
  7  8  2  0
  8  9  1  0
  9 10  1  0
 10 11  1  0
 11 12  2  0
 11 13  1  0
  7 14  1  0
  5 15  1  0
 15 16  1  0
 16 17  2  0
 16 18  1  0
 18 19  1  0
 19 20  1  0
 20 21  1  0
 21 22  2  0
 21 23  1  0
 20 24  1  0
 16 25  1  0
 15 26  1  0
  8  3  1  0
  1 27  1  0
  1 28  1  0
  1 29  1  0
  4 30  1  0
  6 31  1  0
 10 32  1  0
 10 33  1  0
 13 34  1  0
 15 35  1  0
 18 36  1  0
 18 37  1  0
 19 38  1  0
 19 39  1  0
 20 40  1  6
 23 41  1  0
 24 42  1  0
 24 43  1  0
 25 44  1  0
 26 45  1  0
M  END
>  <Ligand ID>  (1) 
LIG0004725

>  <Ligand>  (1) 
US9212196, Derivative 6

>  <SMILES>  (1) 
COc1cc(cc(c1OCC(=O)O)F)C(P(=O)(CC[C@H](C(=O)O)N)O)O

>  <CID>  (1) 
122197938.0

>  <ChEMBL ID>  (1) 
nan

>  <InChiKey>  (1) 
CBQXGRKXMPLXLY-UCWRFOARSA-N

>  <InChi>  (1) 
InChI=1S/C14H19FNO9P/c1-24-10-5-7(4-8(15)12(10)25-6-11(17)18)14(21)26(22,23)3-2-9(16)13(19)20/h4-5,9,14,21H,2-3,6,16H2,1H3,(H,17,18)(H,19,20)(H,22,23)/t9-,14?/m1/s1

>  <IUPAC Name>  (1) 
(2R)-2-amino-4-[[[4-(carboxymethoxy)-3-fluoro-5-methoxyphenyl]-hydroxymethyl]-hydroxyphosphoryl]butanoic acid

$$$$
