
     RDKit          3D

 70 72  0  0  0  0  0  0  0  0999 V2000
    9.8590    0.4474   -3.2420 C   0  0  0  0  0  0  0  0  0  0  0  0
    9.1288   -0.0944   -2.0702 C   0  0  0  0  0  0  0  0  0  0  0  0
    8.6274   -1.3904   -2.0849 C   0  0  0  0  0  0  0  0  0  0  0  0
    7.9455   -1.8994   -0.9932 C   0  0  0  0  0  0  0  0  0  0  0  0
    7.7536   -1.1199    0.1326 C   0  0  0  0  0  0  0  0  0  0  0  0
    8.2518    0.1653    0.1446 C   0  0  0  0  0  0  0  0  0  0  0  0
    8.9347    0.6935   -0.9323 C   0  0  0  0  0  0  0  0  0  0  0  0
    6.8858   -1.7435    1.5428 S   0  0  0  0  0  0  0  0  0  0  0  0
    7.0675   -3.2178    1.6141 O   0  0  0  0  0  0  0  0  0  0  0  0
    7.4527   -1.0487    2.7460 O   0  0  0  0  0  0  0  0  0  0  0  0
    5.1935   -1.3999    1.3947 N   0  0  0  0  0  0  0  0  0  0  0  0
    4.9841    0.0369    1.3441 C   0  0  0  0  0  0  0  0  0  0  0  0
    3.5530    0.3842    1.2175 C   0  0  0  0  0  0  0  0  0  0  0  0
    2.7257    0.5865    2.2951 C   0  0  0  0  0  0  0  0  0  0  0  0
    1.3778    0.9139    2.1265 C   0  0  0  0  0  0  0  0  0  0  0  0
    0.8462    1.0416    0.8663 C   0  0  0  0  0  0  0  0  0  0  0  0
    1.7127    0.8298   -0.1932 C   0  0  0  0  0  0  0  0  0  0  0  0
    3.0306    0.5097   -0.0545 C   0  0  0  0  0  0  0  0  0  0  0  0
   -0.5744    1.3871    0.6329 C   0  0  0  0  0  0  0  0  0  0  0  0
   -0.9104    1.4669   -0.5673 O   0  0  0  0  0  0  0  0  0  0  0  0
   -1.4895    1.6115    1.6742 N   0  0  0  0  0  0  0  0  0  0  0  0
   -2.8612    1.9234    1.6294 C   0  0  0  0  0  0  0  0  0  0  0  0
   -3.8668    0.9515    1.1276 C   0  0  0  0  0  0  0  0  0  0  0  0
   -3.7758    0.4338   -0.2457 C   0  0  0  0  0  0  0  0  0  0  0  0
   -4.7609   -0.4499   -0.7304 N   0  0  0  0  0  0  0  0  0  0  0  0
   -4.5214   -0.8664   -2.0968 C   0  0  0  0  0  0  0  0  0  0  0  0
   -4.4821    0.2940   -3.0489 C   0  0  0  0  0  0  0  0  0  0  0  0
   -5.5337   -1.8390   -2.5791 C   0  0  0  0  0  0  0  0  0  0  0  0
   -5.6448   -1.1719    0.0371 C   0  0  0  0  0  0  0  0  0  0  0  0
   -6.6962   -0.5351    0.8201 C   0  0  0  0  0  0  0  0  0  0  0  0
   -6.7123   -0.3063    2.1711 C   0  0  0  0  0  0  0  0  0  0  0  0
   -7.7622    0.3275    2.8257 C   0  0  0  0  0  0  0  0  0  0  0  0
   -8.8605    0.7618    2.1123 C   0  0  0  0  0  0  0  0  0  0  0  0
   -8.8710    0.5468    0.7674 C   0  0  0  0  0  0  0  0  0  0  0  0
   -7.8267   -0.0827    0.1208 C   0  0  0  0  0  0  0  0  0  0  0  0
    9.3822    0.0739   -4.1704 H   0  0  0  0  0  0  0  0  0  0  0  0
   10.9181    0.1575   -3.1802 H   0  0  0  0  0  0  0  0  0  0  0  0
    9.8314    1.5599   -3.1575 H   0  0  0  0  0  0  0  0  0  0  0  0
    8.7848   -1.9891   -2.9716 H   0  0  0  0  0  0  0  0  0  0  0  0
    7.5610   -2.8943   -1.0053 H   0  0  0  0  0  0  0  0  0  0  0  0
    8.1000    0.7727    1.0268 H   0  0  0  0  0  0  0  0  0  0  0  0
    9.3052    1.7114   -0.8683 H   0  0  0  0  0  0  0  0  0  0  0  0
    4.8418   -1.9026    0.5535 H   0  0  0  0  0  0  0  0  0  0  0  0
    5.4556    0.4724    2.2312 H   0  0  0  0  0  0  0  0  0  0  0  0
    5.5414    0.4161    0.4596 H   0  0  0  0  0  0  0  0  0  0  0  0
    3.1543    0.4836    3.2761 H   0  0  0  0  0  0  0  0  0  0  0  0
    0.8171    1.0510    3.0261 H   0  0  0  0  0  0  0  0  0  0  0  0
    1.3259    0.9226   -1.2025 H   0  0  0  0  0  0  0  0  0  0  0  0
    3.6650    0.3546   -0.9228 H   0  0  0  0  0  0  0  0  0  0  0  0
   -1.0595    1.5282    2.6635 H   0  0  0  0  0  0  0  0  0  0  0  0
   -3.2468    2.2482    2.6508 H   0  0  0  0  0  0  0  0  0  0  0  0
   -3.0482    2.8715    0.9941 H   0  0  0  0  0  0  0  0  0  0  0  0
   -4.8529    1.5286    1.1760 H   0  0  0  0  0  0  0  0  0  0  0  0
   -3.8904    0.0859    1.8610 H   0  0  0  0  0  0  0  0  0  0  0  0
   -2.8138   -0.2036   -0.2632 H   0  0  0  0  0  0  0  0  0  0  0  0
   -3.5479    1.2461   -0.9988 H   0  0  0  0  0  0  0  0  0  0  0  0
   -3.5361   -1.3755   -2.0998 H   0  0  0  0  0  0  0  0  0  0  0  0
   -4.8019    1.2609   -2.6063 H   0  0  0  0  0  0  0  0  0  0  0  0
   -3.4532    0.3992   -3.4334 H   0  0  0  0  0  0  0  0  0  0  0  0
   -5.1392    0.1171   -3.9463 H   0  0  0  0  0  0  0  0  0  0  0  0
   -5.4293   -1.8863   -3.7139 H   0  0  0  0  0  0  0  0  0  0  0  0
   -6.5674   -1.4756   -2.4374 H   0  0  0  0  0  0  0  0  0  0  0  0
   -5.3369   -2.8424   -2.1488 H   0  0  0  0  0  0  0  0  0  0  0  0
   -5.0044   -1.8319    0.7443 H   0  0  0  0  0  0  0  0  0  0  0  0
   -6.1696   -1.9952   -0.5529 H   0  0  0  0  0  0  0  0  0  0  0  0
   -5.8991   -0.6303    2.7685 H   0  0  0  0  0  0  0  0  0  0  0  0
   -7.7235    0.4823    3.8906 H   0  0  0  0  0  0  0  0  0  0  0  0
   -9.6840    1.2532    2.5901 H   0  0  0  0  0  0  0  0  0  0  0  0
   -9.7331    0.8875    0.2084 H   0  0  0  0  0  0  0  0  0  0  0  0
   -7.9275   -0.2061   -0.9456 H   0  0  0  0  0  0  0  0  0  0  0  0
  1  2  1  0
  2  3  2  0
  3  4  1  0
  4  5  2  0
  5  6  1  0
  6  7  2  0
  5  8  1  0
  8  9  2  0
  8 10  2  0
  8 11  1  0
 11 12  1  0
 12 13  1  0
 13 14  2  0
 14 15  1  0
 15 16  2  0
 16 17  1  0
 17 18  2  0
 16 19  1  0
 19 20  2  0
 19 21  1  0
 21 22  1  0
 22 23  1  0
 23 24  1  0
 24 25  1  0
 25 26  1  0
 26 27  1  0
 26 28  1  0
 25 29  1  0
 29 30  1  0
 30 31  2  0
 31 32  1  0
 32 33  2  0
 33 34  1  0
 34 35  2  0
  7  2  1  0
 18 13  1  0
 35 30  1  0
  1 36  1  0
  1 37  1  0
  1 38  1  0
  3 39  1  0
  4 40  1  0
  6 41  1  0
  7 42  1  0
 11 43  1  0
 12 44  1  0
 12 45  1  0
 14 46  1  0
 15 47  1  0
 17 48  1  0
 18 49  1  0
 21 50  1  0
 22 51  1  0
 22 52  1  0
 23 53  1  0
 23 54  1  0
 24 55  1  0
 24 56  1  0
 26 57  1  0
 27 58  1  0
 27 59  1  0
 27 60  1  0
 28 61  1  0
 28 62  1  0
 28 63  1  0
 29 64  1  0
 29 65  1  0
 31 66  1  0
 32 67  1  0
 33 68  1  0
 34 69  1  0
 35 70  1  0
M  END
>  <Ligand ID>  (1) 
LIG0003837

>  <Ligand>  (1) 
KUC103906N

>  <SMILES>  (1) 
Cc1ccc(cc1)S(=O)(=O)NCc1ccc(cc1)C(=O)NCCCN(C(C)C)Cc1ccccc1

>  <CID>  (1) 
20968607.0

>  <ChEMBL ID>  (1) 
nan

>  <InChiKey>  (1) 
RTCICZVWOCFCPS-UHFFFAOYSA-N

>  <InChi>  (1) 
InChI=1S/C28H35N3O3S/c1-22(2)31(21-25-8-5-4-6-9-25)19-7-18-29-28(32)26-14-12-24(13-15-26)20-30-35(33,34)27-16-10-23(3)11-17-27/h4-6,8-17,22,30H,7,18-21H2,1-3H3,(H,29,32)

>  <IUPAC Name>  (1) 
N-[3-[benzyl(propan-2-yl)amino]propyl]-4-[[(4-methylphenyl)sulfonylamino]methyl]benzamide

$$$$
