
     RDKit          3D

139141  0  0  0  0  0  0  0  0999 V2000
   10.5028   -0.9056   -0.4063 C   0  0  0  0  0  0  0  0  0  0  0  0
    9.0632   -0.8200    0.0411 C   0  0  0  0  0  0  0  0  0  0  0  0
    8.1910   -0.7592   -1.1717 C   0  0  1  0  0  0  0  0  0  0  0  0
    6.7123   -0.6775   -0.8507 C   0  0  2  0  0  0  0  0  0  0  0  0
    6.3857    0.4833   -0.0846 N   0  0  0  0  0  0  0  0  0  0  0  0
    5.2743    1.2932   -0.3332 C   0  0  0  0  0  0  0  0  0  0  0  0
    4.4843    0.7465   -1.2153 O   0  0  0  0  0  0  0  0  0  0  0  0
    4.8063    2.5657    0.1715 C   0  0  1  0  0  0  0  0  0  0  0  0
    3.3633    2.5287    0.1191 N   0  0  0  0  0  0  0  0  0  0  0  0
    2.5178    3.4361   -0.5804 C   0  0  0  0  0  0  0  0  0  0  0  0
    3.0706    4.3602   -1.1685 O   0  0  0  0  0  0  0  0  0  0  0  0
    1.0775    3.1423   -0.4986 C   0  0  0  0  0  0  0  0  0  0  0  0
    0.0896    4.1530   -0.9312 C   0  0  0  0  0  0  0  0  0  0  0  0
   -1.5391    3.2280   -0.6618 S   0  0  0  0  0  0  0  0  0  0  0  0
   -1.3914    2.5391    1.4012 S   0  0  0  0  0  0  0  0  0  0  0  0
   -0.6393    0.9168    1.4249 C   0  0  0  0  0  0  0  0  0  0  0  0
   -1.6906   -0.1752    1.0732 C   0  0  2  0  0  0  0  0  0  0  0  0
   -0.9846   -1.3430    0.6493 N   0  0  0  0  0  0  0  0  0  0  0  0
    0.3058   -1.7685    1.0519 C   0  0  0  0  0  0  0  0  0  0  0  0
    0.9731   -1.0572    1.7724 O   0  0  0  0  0  0  0  0  0  0  0  0
    0.8641   -3.1128    0.5742 C   0  0  1  0  0  0  0  0  0  0  0  0
    2.2827   -3.1056    0.8282 N   0  0  0  0  0  0  0  0  0  0  0  0
    3.2638   -3.9829    0.2900 C   0  0  0  0  0  0  0  0  0  0  0  0
    2.7883   -5.0100   -0.2461 O   0  0  0  0  0  0  0  0  0  0  0  0
    4.7055   -3.8133    0.3155 C   0  0  1  0  0  0  0  0  0  0  0  0
    5.1467   -2.3809    0.3618 N   0  0  0  0  0  0  0  0  0  0  0  0
    6.0966   -1.9510   -0.5957 C   0  0  0  0  0  0  0  0  0  0  0  0
    6.4656   -2.9078   -1.3804 O   0  0  0  0  0  0  0  0  0  0  0  0
    5.5241   -4.4884    1.3779 C   0  0  0  0  0  0  0  0  0  0  0  0
    5.4786   -5.9740    1.4494 C   0  0  0  0  0  0  0  0  0  0  0  0
    4.1795   -6.5441    1.8519 C   0  0  0  0  0  0  0  0  0  0  0  0
    3.4793   -5.8230    2.6144 O   0  0  0  0  0  0  0  0  0  0  0  0
    3.8043   -7.8237    1.3838 N   0  0  0  0  0  0  0  0  0  0  0  0
    0.0412   -4.1827    1.2480 C   0  0  0  0  0  0  0  0  0  0  0  0
    0.2933   -5.5731    0.9014 C   0  0  0  0  0  0  0  0  0  0  0  0
    0.8400   -6.4589    1.5804 O   0  0  0  0  0  0  0  0  0  0  0  0
   -0.1547   -5.9957   -0.4151 N   0  0  0  0  0  0  0  0  0  0  0  0
   -2.7614    0.4021    0.3771 C   0  0  0  0  0  0  0  0  0  0  0  0
   -3.3734    1.3961    1.0112 O   0  0  0  0  0  0  0  0  0  0  0  0
   -3.4156    0.2118   -0.9020 N   0  0  0  0  0  0  0  0  0  0  0  0
   -4.5186    1.1685   -1.0598 C   0  0  0  0  0  0  0  0  0  0  0  0
   -5.8224    0.7399   -0.5552 C   0  0  0  0  0  0  0  0  0  0  0  0
   -6.0699   -0.3880   -0.0586 O   0  0  0  0  0  0  0  0  0  0  0  0
   -6.8710    1.7302   -0.6604 N   0  0  0  0  0  0  0  0  0  0  0  0
   -8.2580    1.4181   -0.2272 C   0  0  2  0  0  0  0  0  0  0  0  0
   -9.0786    2.4450   -0.8185 C   0  0  0  0  0  0  0  0  0  0  0  0
   -8.4497    3.4498   -1.3457 O   0  0  0  0  0  0  0  0  0  0  0  0
  -10.4839    2.5277   -0.9171 N   0  0  0  0  0  0  0  0  0  0  0  0
  -11.0494    3.6986   -1.5545 C   0  0  0  0  0  0  0  0  0  0  0  0
  -10.7011    4.9704   -0.9211 C   0  0  0  0  0  0  0  0  0  0  0  0
   -9.9827    5.1431    0.0851 O   0  0  0  0  0  0  0  0  0  0  0  0
  -11.2388    6.1760   -1.5127 N   0  0  0  0  0  0  0  0  0  0  0  0
   -8.2496    1.2900    1.2692 C   0  0  0  0  0  0  0  0  0  0  0  0
   -9.5121    0.9792    1.9696 C   0  0  0  0  0  0  0  0  0  0  0  0
  -10.2230   -0.2703    1.5657 C   0  0  0  0  0  0  0  0  0  0  0  0
  -10.4281    2.1322    2.1438 C   0  0  0  0  0  0  0  0  0  0  0  0
   -2.9786   -0.7177   -1.8749 C   0  0  0  0  0  0  0  0  0  0  0  0
   -3.5028   -2.0855   -1.9520 C   0  0  0  0  0  0  0  0  0  0  0  0
   -4.8725   -2.3362   -2.3933 C   0  0  0  0  0  0  0  0  0  0  0  0
   -5.9339   -1.6634   -2.8926 C   0  0  0  0  0  0  0  0  0  0  0  0
   -7.0520   -2.2974   -3.2249 C   0  0  0  0  0  0  0  0  0  0  0  0
   -7.1275   -3.6846   -3.0566 C   0  0  0  0  0  0  0  0  0  0  0  0
   -5.4192   -4.1020   -2.3504 S   0  0  0  0  0  0  0  0  0  0  0  0
    5.3884    3.2583    1.3252 C   0  0  0  0  0  0  0  0  0  0  0  0
    6.7950    3.6872    1.1997 C   0  0  0  0  0  0  0  0  0  0  0  0
    7.8993    3.0915    1.7233 C   0  0  0  0  0  0  0  0  0  0  0  0
    9.1328    3.6213    1.4554 C   0  0  0  0  0  0  0  0  0  0  0  0
    9.3533    4.7359    0.6796 C   0  0  0  0  0  0  0  0  0  0  0  0
    8.2382    5.3506    0.1432 C   0  0  0  0  0  0  0  0  0  0  0  0
    7.0020    4.8208    0.4109 C   0  0  0  0  0  0  0  0  0  0  0  0
   10.6378    5.2170    0.4466 O   0  0  0  0  0  0  0  0  0  0  0  0
    8.5350    0.4612   -1.9808 C   0  0  0  0  0  0  0  0  0  0  0  0
   10.6108   -1.2737   -1.4443 H   0  0  0  0  0  0  0  0  0  0  0  0
   11.1010   -1.6065    0.2165 H   0  0  0  0  0  0  0  0  0  0  0  0
   11.0300    0.0709   -0.3529 H   0  0  0  0  0  0  0  0  0  0  0  0
    8.8703   -1.6842    0.6949 H   0  0  0  0  0  0  0  0  0  0  0  0
    8.9643    0.1723    0.5732 H   0  0  0  0  0  0  0  0  0  0  0  0
    8.3565   -1.6549   -1.7840 H   0  0  0  0  0  0  0  0  0  0  0  0
    6.2672   -0.4014   -1.8768 H   0  0  0  0  0  0  0  0  0  0  0  0
    6.9820    0.7288    0.7029 H   0  0  0  0  0  0  0  0  0  0  0  0
    5.0800    3.3573   -0.7140 H   0  0  0  0  0  0  0  0  0  0  0  0
    2.8929    1.7797    0.6331 H   0  0  0  0  0  0  0  0  0  0  0  0
    0.8779    2.8635    0.5954 H   0  0  0  0  0  0  0  0  0  0  0  0
    0.9089    2.2185   -1.0835 H   0  0  0  0  0  0  0  0  0  0  0  0
    0.0431    4.9756   -0.1940 H   0  0  0  0  0  0  0  0  0  0  0  0
    0.1409    4.4438   -1.9769 H   0  0  0  0  0  0  0  0  0  0  0  0
    0.1380    0.7694    0.6602 H   0  0  0  0  0  0  0  0  0  0  0  0
   -0.2244    0.6585    2.4078 H   0  0  0  0  0  0  0  0  0  0  0  0
   -2.0349   -0.3899    2.1967 H   0  0  0  0  0  0  0  0  0  0  0  0
   -1.4310   -1.9780   -0.0204 H   0  0  0  0  0  0  0  0  0  0  0  0
    0.6968   -3.2473   -0.4872 H   0  0  0  0  0  0  0  0  0  0  0  0
    2.6625   -2.3998    1.4706 H   0  0  0  0  0  0  0  0  0  0  0  0
    5.0893   -4.2649   -0.6457 H   0  0  0  0  0  0  0  0  0  0  0  0
    4.8063   -1.7128    1.0261 H   0  0  0  0  0  0  0  0  0  0  0  0
    6.6254   -4.2329    1.2292 H   0  0  0  0  0  0  0  0  0  0  0  0
    5.2882   -4.0908    2.3996 H   0  0  0  0  0  0  0  0  0  0  0  0
    6.2128   -6.3038    2.2207 H   0  0  0  0  0  0  0  0  0  0  0  0
    5.8399   -6.4537    0.4960 H   0  0  0  0  0  0  0  0  0  0  0  0
    4.4129   -8.6405    1.6161 H   0  0  0  0  0  0  0  0  0  0  0  0
    2.9665   -8.0267    0.8168 H   0  0  0  0  0  0  0  0  0  0  0  0
   -1.0346   -3.9720    0.9616 H   0  0  0  0  0  0  0  0  0  0  0  0
    0.0856   -4.0677    2.3683 H   0  0  0  0  0  0  0  0  0  0  0  0
    0.4059   -6.6444   -0.9868 H   0  0  0  0  0  0  0  0  0  0  0  0
   -1.0746   -5.6244   -0.7935 H   0  0  0  0  0  0  0  0  0  0  0  0
   -4.6316    1.3183   -2.1795 H   0  0  0  0  0  0  0  0  0  0  0  0
   -4.2388    2.1603   -0.6759 H   0  0  0  0  0  0  0  0  0  0  0  0
   -6.6466    2.6948   -1.0484 H   0  0  0  0  0  0  0  0  0  0  0  0
   -8.4609    0.4007   -0.6024 H   0  0  0  0  0  0  0  0  0  0  0  0
  -11.0317    1.7277   -0.5505 H   0  0  0  0  0  0  0  0  0  0  0  0
  -10.7598    3.7333   -2.6437 H   0  0  0  0  0  0  0  0  0  0  0  0
  -12.1713    3.6455   -1.5791 H   0  0  0  0  0  0  0  0  0  0  0  0
  -12.1296    6.1801   -2.0123 H   0  0  0  0  0  0  0  0  0  0  0  0
  -10.6916    7.0882   -1.4330 H   0  0  0  0  0  0  0  0  0  0  0  0
   -7.7082    2.1647    1.7475 H   0  0  0  0  0  0  0  0  0  0  0  0
   -7.5433    0.4354    1.5034 H   0  0  0  0  0  0  0  0  0  0  0  0
   -9.2289    0.7136    3.0942 H   0  0  0  0  0  0  0  0  0  0  0  0
  -10.4737   -0.3539    0.4963 H   0  0  0  0  0  0  0  0  0  0  0  0
  -11.2310   -0.2213    2.0843 H   0  0  0  0  0  0  0  0  0  0  0  0
   -9.7566   -1.2007    1.9605 H   0  0  0  0  0  0  0  0  0  0  0  0
   -9.9727    3.0746    1.7720 H   0  0  0  0  0  0  0  0  0  0  0  0
  -10.6408    2.3756    3.2380 H   0  0  0  0  0  0  0  0  0  0  0  0
  -11.4624    1.9586    1.7394 H   0  0  0  0  0  0  0  0  0  0  0  0
   -3.1964   -0.1634   -2.8822 H   0  0  0  0  0  0  0  0  0  0  0  0
   -1.8537   -0.7780   -1.9534 H   0  0  0  0  0  0  0  0  0  0  0  0
   -2.8399   -2.7166   -2.6534 H   0  0  0  0  0  0  0  0  0  0  0  0
   -3.3265   -2.6631   -0.9761 H   0  0  0  0  0  0  0  0  0  0  0  0
   -5.8377   -0.5477   -3.0391 H   0  0  0  0  0  0  0  0  0  0  0  0
   -7.9492   -1.7860   -3.6327 H   0  0  0  0  0  0  0  0  0  0  0  0
   -7.8298   -4.4047   -3.2195 H   0  0  0  0  0  0  0  0  0  0  0  0
    4.8030    4.2272    1.4539 H   0  0  0  0  0  0  0  0  0  0  0  0
    5.2398    2.7299    2.2995 H   0  0  0  0  0  0  0  0  0  0  0  0
    7.7469    2.2128    2.3460 H   0  0  0  0  0  0  0  0  0  0  0  0
   10.0342    3.1498    1.8724 H   0  0  0  0  0  0  0  0  0  0  0  0
    8.3971    6.2206   -0.4582 H   0  0  0  0  0  0  0  0  0  0  0  0
    6.1529    5.3522   -0.0394 H   0  0  0  0  0  0  0  0  0  0  0  0
   10.6954    6.1423   -0.0064 H   0  0  0  0  0  0  0  0  0  0  0  0
    7.6392    0.8125   -2.5660 H   0  0  0  0  0  0  0  0  0  0  0  0
    8.7366    1.3205   -1.2742 H   0  0  0  0  0  0  0  0  0  0  0  0
    9.3322    0.2922   -2.7028 H   0  0  0  0  0  0  0  0  0  0  0  0
  1  2  1  0
  2  3  1  0
  3  4  1  0
  4  5  1  0
  5  6  1  0
  6  7  2  0
  6  8  1  0
  8  9  1  0
  9 10  1  0
 10 11  2  0
 10 12  1  0
 12 13  1  0
 13 14  1  0
 14 15  1  0
 15 16  1  0
 16 17  1  0
 17 18  1  0
 18 19  1  0
 19 20  2  0
 19 21  1  0
 21 22  1  0
 22 23  1  0
 23 24  2  0
 23 25  1  0
 25 26  1  0
 26 27  1  0
 27 28  2  0
 25 29  1  0
 29 30  1  0
 30 31  1  0
 31 32  2  0
 31 33  1  0
 21 34  1  0
 34 35  1  0
 35 36  2  0
 35 37  1  0
 17 38  1  0
 38 39  2  0
 38 40  1  0
 40 41  1  0
 41 42  1  0
 42 43  2  0
 42 44  1  0
 44 45  1  0
 45 46  1  0
 46 47  2  0
 46 48  1  0
 48 49  1  0
 49 50  1  0
 50 51  2  0
 50 52  1  0
 45 53  1  0
 53 54  1  0
 54 55  1  0
 54 56  1  0
 40 57  1  0
 57 58  1  0
 58 59  1  0
 59 60  2  0
 60 61  1  0
 61 62  2  0
 62 63  1  0
  8 64  1  0
 64 65  1  0
 65 66  2  0
 66 67  1  0
 67 68  2  0
 68 69  1  0
 69 70  2  0
 68 71  1  0
  3 72  1  0
 27  4  1  0
 63 59  1  0
 70 65  1  0
  1 73  1  0
  1 74  1  0
  1 75  1  0
  2 76  1  0
  2 77  1  0
  3 78  1  6
  4 79  1  6
  5 80  1  0
  8 81  1  6
  9 82  1  0
 12 83  1  0
 12 84  1  0
 13 85  1  0
 13 86  1  0
 16 87  1  0
 16 88  1  0
 17 89  1  1
 18 90  1  0
 21 91  1  6
 22 92  1  0
 25 93  1  6
 26 94  1  0
 29 95  1  0
 29 96  1  0
 30 97  1  0
 30 98  1  0
 33 99  1  0
 33100  1  0
 34101  1  0
 34102  1  0
 37103  1  0
 37104  1  0
 41105  1  0
 41106  1  0
 44107  1  0
 45108  1  6
 48109  1  0
 49110  1  0
 49111  1  0
 52112  1  0
 52113  1  0
 53114  1  0
 53115  1  0
 54116  1  0
 55117  1  0
 55118  1  0
 55119  1  0
 56120  1  0
 56121  1  0
 56122  1  0
 57123  1  0
 57124  1  0
 58125  1  0
 58126  1  0
 60127  1  0
 61128  1  0
 62129  1  0
 64130  1  0
 64131  1  0
 66132  1  0
 67133  1  0
 69134  1  0
 70135  1  0
 71136  1  0
 72137  1  0
 72138  1  0
 72139  1  0
M  END
>  <Ligand ID>  (1) 
LIG0001646

>  <Ligand>  (1) 
CHEMBL3354571

>  <SMILES>  (1) 
CC[C@@H]([C@@H]1NC(=O)[C@@H](NC(=O)CCSSC[C@H](NC(=O)[C@@H](NC(=O)[C@@H](NC1=O)CCC(=O)N)CC(=O)N)C(=O)N(CC(=O)N[C@H](C(=O)NCC(=O)N)CC(C)C)CCc1cccs1)Cc1ccc(cc1)O)C

>  <CID>  (1) 
118720260.0

>  <ChEMBL ID>  (1) 
nan

>  <InChiKey>  (1) 
IOKWOPSEQQGQGW-LZNUSVCISA-N

>  <InChi>  (1) 
InChI=1S/C46H67N11O12S3/c1-5-26(4)40-45(68)53-30(12-13-35(47)59)42(65)54-33(21-36(48)60)43(66)55-34(24-72-71-18-15-38(62)51-32(44(67)56-40)20-27-8-10-28(58)11-9-27)46(69)57(16-14-29-7-6-17-70-29)23-39(63)52-31(19-25(2)3)41(64)50-22-37(49)61/h6-11,17,25-26,30-34,40,58H,5,12-16,18-24H2,1-4H3,(H2,47,59)(H2,48,60)(H2,49,61)(H,50,64)(H,51,62)(H,52,63)(H,53,68)(H,54,65)(H,55,66)(H,56,67)/t26-,30-,31-,32-,33-,34-,40-/m0/s1

>  <IUPAC Name>  (1) 
(4R,7S,10S,13S,16S)-7-(2-amino-2-oxoethyl)-N-[2-[[(2S)-1-[(2-amino-2-oxoethyl)amino]-4-methyl-1-oxopentan-2-yl]amino]-2-oxoethyl]-10-(3-amino-3-oxopropyl)-13-[(2S)-butan-2-yl]-16-[(4-hydroxyphenyl)methyl]-6,9,12,15,18-pentaoxo-N-(2-thiophen-2-ylethyl)-1,2-dithia-5,8,11,14,17-pentazacycloicosane-4-carboxamide

$$$$
