
     RDKit          3D

 29 28  0  0  0  0  0  0  0  0999 V2000
   -3.2844   -2.3570   -0.5871 O   0  0  0  0  0  0  0  0  0  0  0  0
   -3.3966   -1.3922    0.3947 C   0  0  0  0  0  0  0  0  0  0  0  0
   -4.0239   -1.6752    1.4496 O   0  0  0  0  0  0  0  0  0  0  0  0
   -2.7888   -0.0613    0.1981 C   0  0  2  0  0  0  0  0  0  0  0  0
   -1.2918   -0.2135    0.0039 C   0  0  0  0  0  0  0  0  0  0  0  0
   -0.6726    1.1518   -0.1972 C   0  0  0  0  0  0  0  0  0  0  0  0
    1.1329    0.9362   -0.4283 P   0  0  0  0  0  0  0  0  0  0  0  0
    1.7724    2.2709   -0.7531 O   0  0  0  0  0  0  0  0  0  0  0  0
    1.8038    0.3219    1.1350 C   0  0  0  0  0  0  0  0  0  0  0  0
    2.9730   -0.5822    0.8823 C   0  0  0  0  0  0  0  0  0  0  0  0
    4.0399    0.1333    0.1725 C   0  0  0  0  0  0  0  0  0  0  0  0
    5.1677    0.2357    0.7168 O   0  0  0  0  0  0  0  0  0  0  0  0
    3.8580    0.6973   -1.0645 O   0  0  0  0  0  0  0  0  0  0  0  0
    2.4446   -1.9272   -0.1628 Cl  0  0  0  0  0  0  0  0  0  0  0  0
    1.4410   -0.1614   -1.6533 O   0  0  0  0  0  0  0  0  0  0  0  0
   -3.0161    0.7974    1.3314 N   0  0  0  0  0  0  0  0  0  0  0  0
   -3.8621   -3.1836   -0.6359 H   0  0  0  0  0  0  0  0  0  0  0  0
   -3.2294    0.4194   -0.6983 H   0  0  0  0  0  0  0  0  0  0  0  0
   -0.8185   -0.6981    0.8763 H   0  0  0  0  0  0  0  0  0  0  0  0
   -1.1299   -0.8103   -0.9259 H   0  0  0  0  0  0  0  0  0  0  0  0
   -0.8723    1.7893    0.6807 H   0  0  0  0  0  0  0  0  0  0  0  0
   -1.1190    1.6638   -1.0678 H   0  0  0  0  0  0  0  0  0  0  0  0
    0.9950   -0.2288    1.6830 H   0  0  0  0  0  0  0  0  0  0  0  0
    2.0898    1.2119    1.7379 H   0  0  0  0  0  0  0  0  0  0  0  0
    3.2936   -1.0387    1.8233 H   0  0  0  0  0  0  0  0  0  0  0  0
    4.5230    1.2241   -1.5875 H   0  0  0  0  0  0  0  0  0  0  0  0
    0.7448   -0.8451   -1.7249 H   0  0  0  0  0  0  0  0  0  0  0  0
   -2.9169    1.7995    1.1283 H   0  0  0  0  0  0  0  0  0  0  0  0
   -3.8572    0.5220    1.8683 H   0  0  0  0  0  0  0  0  0  0  0  0
  1  2  1  0
  2  3  2  0
  2  4  1  0
  4  5  1  0
  5  6  1  0
  6  7  1  0
  7  8  2  0
  7  9  1  0
  9 10  1  0
 10 11  1  0
 11 12  2  0
 11 13  1  0
 10 14  1  0
  7 15  1  0
  4 16  1  0
  1 17  1  0
  4 18  1  6
  5 19  1  0
  5 20  1  0
  6 21  1  0
  6 22  1  0
  9 23  1  0
  9 24  1  0
 10 25  1  0
 13 26  1  0
 15 27  1  0
 16 28  1  0
 16 29  1  0
M  END
>  <Ligand ID>  (1) 
LIG0000647

>  <Ligand>  (1) 
CHEMBL1076865

>  <SMILES>  (1) 
OC(=O)[C@H](CCP(=O)(CC(C(=O)O)Cl)O)N

>  <CID>  (1) 
46197780.0

>  <ChEMBL ID>  (1) 
nan

>  <InChiKey>  (1) 
FQUOPRSIELVFTB-AKGZTFGVSA-N

>  <InChi>  (1) 
InChI=1S/C7H13ClNO6P/c8-4(6(10)11)3-16(14,15)2-1-5(9)7(12)13/h4-5H,1-3,9H2,(H,10,11)(H,12,13)(H,14,15)/t4?,5-/m0/s1

>  <IUPAC Name>  (1) 
(2S)-2-amino-4-[(2-carboxy-2-chloroethyl)-hydroxyphosphoryl]butanoic acid

$$$$
