
     RDKit          3D

149152  0  0  0  0  0  0  0  0999 V2000
    9.3225   -2.1825   -3.4180 C   0  0  0  0  0  0  0  0  0  0  0  0
    9.4667   -1.2212   -2.3120 N   0  0  0  0  0  0  0  0  0  0  0  0
    8.3215   -1.0826   -1.4784 C   0  0  0  0  0  0  0  0  0  0  0  0
    7.3261   -1.7838   -1.7725 O   0  0  0  0  0  0  0  0  0  0  0  0
    8.3931   -0.1394   -0.3503 C   0  0  0  0  0  0  0  0  0  0  0  0
    7.1259   -0.1146    0.4957 C   0  0  1  0  0  0  0  0  0  0  0  0
    6.8257   -1.4085    1.0746 N   0  0  0  0  0  0  0  0  0  0  0  0
    5.5832   -2.0705    0.7401 C   0  0  0  0  0  0  0  0  0  0  0  0
    4.8549   -1.4302   -0.0315 O   0  0  0  0  0  0  0  0  0  0  0  0
    5.1983   -3.4007    1.2649 C   0  0  2  0  0  0  0  0  0  0  0  0
    6.3038   -4.4166    1.0436 C   0  0  0  0  0  0  0  0  0  0  0  0
    3.9602   -3.8552    0.5928 N   0  0  0  0  0  0  0  0  0  0  0  0
    4.0433   -4.1078   -0.8041 C   0  0  0  0  0  0  0  0  0  0  0  0
    5.1827   -3.9047   -1.2933 O   0  0  0  0  0  0  0  0  0  0  0  0
    2.9957   -4.5607   -1.7124 C   0  0  1  0  0  0  0  0  0  0  0  0
    3.4176   -5.7941   -2.5096 C   0  0  0  0  0  0  0  0  0  0  0  0
    1.7468   -4.8373   -1.0558 N   0  0  0  0  0  0  0  0  0  0  0  0
    0.5478   -4.1391   -1.4701 C   0  0  0  0  0  0  0  0  0  0  0  0
    0.7444   -3.2690   -2.3303 O   0  0  0  0  0  0  0  0  0  0  0  0
   -0.7877   -4.4195   -0.9295 C   0  0  2  0  0  0  0  0  0  0  0  0
   -1.1540   -5.8846   -1.2946 C   0  0  0  0  0  0  0  0  0  0  0  0
   -1.8013   -3.5418   -1.4701 N   0  0  0  0  0  0  0  0  0  0  0  0
   -3.0565   -3.2841   -0.8213 C   0  0  0  0  0  0  0  0  0  0  0  0
   -3.2414   -3.9789    0.1941 O   0  0  0  0  0  0  0  0  0  0  0  0
   -4.0440   -2.2860   -1.3398 C   0  0  2  0  0  0  0  0  0  0  0  0
   -3.8722   -1.0008   -0.5647 C   0  0  0  0  0  0  0  0  0  0  0  0
   -2.5413   -0.4024   -0.5460 C   0  0  0  0  0  0  0  0  0  0  0  0
   -1.5462   -0.7210   -1.1927 O   0  0  0  0  0  0  0  0  0  0  0  0
   -2.3218    0.7164    0.3523 N   0  0  0  0  0  0  0  0  0  0  0  0
   -1.0569    1.3788    0.4952 C   0  0  0  0  0  0  0  0  0  0  0  0
   -0.5264    2.0666   -0.7551 C   0  0  0  0  0  0  0  0  0  0  0  0
    0.8609    2.3800   -0.4799 N   0  0  0  0  0  0  0  0  0  0  0  0
    1.4357    2.7820    0.7380 C   0  0  0  0  0  0  0  0  0  0  0  0
    0.6971    3.0322    1.6827 O   0  0  0  0  0  0  0  0  0  0  0  0
    2.8580    2.9088    0.8925 C   0  0  0  0  0  0  0  0  0  0  0  0
    3.6203    2.6463   -0.1068 O   0  0  0  0  0  0  0  0  0  0  0  0
    3.5516    3.3163    2.1311 C   0  0  2  0  0  0  0  0  0  0  0  0
    4.9609    3.0500    1.9653 N   0  0  0  0  0  0  0  0  0  0  0  0
    6.0453    3.8591    2.3913 C   0  0  0  0  0  0  0  0  0  0  0  0
    5.7626    4.8999    2.9735 O   0  0  0  0  0  0  0  0  0  0  0  0
    7.4818    3.4116    2.1233 C   0  0  1  0  0  0  0  0  0  0  0  0
    7.3487    2.3060    1.2084 N   0  0  0  0  0  0  0  0  0  0  0  0
    7.2714    0.9314    1.5669 C   0  0  0  0  0  0  0  0  0  0  0  0
    7.3268    0.6926    2.7755 O   0  0  0  0  0  0  0  0  0  0  0  0
    8.3627    4.5157    1.6849 C   0  0  0  0  0  0  0  0  0  0  0  0
    3.0900    2.5374    3.3430 C   0  0  0  0  0  0  0  0  0  0  0  0
    3.8127    3.0183    4.5381 C   0  0  0  0  0  0  0  0  0  0  0  0
    5.0024    2.5022    5.0025 C   0  0  0  0  0  0  0  0  0  0  0  0
    5.6231    3.0011    6.1385 C   0  0  0  0  0  0  0  0  0  0  0  0
    5.0600    4.0429    6.8467 C   0  0  0  0  0  0  0  0  0  0  0  0
    3.8659    4.5717    6.3932 C   0  0  0  0  0  0  0  0  0  0  0  0
    3.2656    4.0586    5.2584 C   0  0  0  0  0  0  0  0  0  0  0  0
   -1.2926    3.2709   -1.0814 C   0  0  0  0  0  0  0  0  0  0  0  0
   -0.7190    4.3823   -0.9802 O   0  0  0  0  0  0  0  0  0  0  0  0
   -2.6593    3.2763   -1.5084 N   0  0  0  0  0  0  0  0  0  0  0  0
   -3.2144    4.6118   -1.7640 C   0  0  0  0  0  0  0  0  0  0  0  0
   -2.9937    4.9375   -3.2262 C   0  0  0  0  0  0  0  0  0  0  0  0
   -2.5320    3.9828   -3.9071 O   0  0  0  0  0  0  0  0  0  0  0  0
   -3.2758    6.2006   -3.7826 N   0  0  0  0  0  0  0  0  0  0  0  0
   -4.6535    4.6863   -1.3563 C   0  0  0  0  0  0  0  0  0  0  0  0
   -5.1757    6.0443   -1.6143 C   0  0  0  0  0  0  0  0  0  0  0  0
   -4.9905    6.9833   -0.6047 C   0  0  0  0  0  0  0  0  0  0  0  0
   -5.4684    8.2898   -0.7622 C   0  0  0  0  0  0  0  0  0  0  0  0
   -6.1137    8.5785   -1.9433 C   0  0  0  0  0  0  0  0  0  0  0  0
   -6.3160    7.6780   -2.9622 C   0  0  0  0  0  0  0  0  0  0  0  0
   -5.8370    6.3987   -2.7847 C   0  0  0  0  0  0  0  0  0  0  0  0
   -6.5838    9.8818   -2.0905 O   0  0  0  0  0  0  0  0  0  0  0  0
   -5.3993   -2.7144   -0.8714 N   0  0  0  0  0  0  0  0  0  0  0  0
   -6.4619   -2.9196   -1.7539 C   0  0  0  0  0  0  0  0  0  0  0  0
   -6.4342   -2.7792   -2.9979 O   0  0  0  0  0  0  0  0  0  0  0  0
   -7.7746   -3.3527   -1.1516 C   0  0  2  0  0  0  0  0  0  0  0  0
   -7.4972   -4.6470   -0.4255 C   0  0  0  0  0  0  0  0  0  0  0  0
   -8.7040   -5.2036    0.2313 C   0  0  0  0  0  0  0  0  0  0  0  0
   -8.9058   -4.7856    1.5563 C   0  0  0  0  0  0  0  0  0  0  0  0
  -10.0078   -5.2461    2.2698 C   0  0  0  0  0  0  0  0  0  0  0  0
  -10.8721   -6.1176    1.6233 C   0  0  0  0  0  0  0  0  0  0  0  0
  -10.6677   -6.5257    0.3209 C   0  0  0  0  0  0  0  0  0  0  0  0
   -9.5734   -6.0710   -0.3968 C   0  0  0  0  0  0  0  0  0  0  0  0
  -12.0050   -6.6218    2.2858 O   0  0  0  0  0  0  0  0  0  0  0  0
   -8.7776   -3.5264   -2.1843 N   0  0  0  0  0  0  0  0  0  0  0  0
   -8.9253   -2.2856   -2.8308 N   0  0  0  0  0  0  0  0  0  0  0  0
   10.2845   -2.7050   -3.5897 H   0  0  0  0  0  0  0  0  0  0  0  0
    8.6000   -2.9930   -3.1040 H   0  0  0  0  0  0  0  0  0  0  0  0
    8.9187   -1.7336   -4.3248 H   0  0  0  0  0  0  0  0  0  0  0  0
   10.3446   -0.6829   -2.1568 H   0  0  0  0  0  0  0  0  0  0  0  0
    8.6004    0.8860   -0.7180 H   0  0  0  0  0  0  0  0  0  0  0  0
    9.2552   -0.3977    0.3237 H   0  0  0  0  0  0  0  0  0  0  0  0
    6.3085    0.2148   -0.1713 H   0  0  0  0  0  0  0  0  0  0  0  0
    7.4092   -1.9365    1.7200 H   0  0  0  0  0  0  0  0  0  0  0  0
    4.9356   -3.2844    2.3319 H   0  0  0  0  0  0  0  0  0  0  0  0
    6.7918   -4.5732    2.0424 H   0  0  0  0  0  0  0  0  0  0  0  0
    5.8434   -5.3630    0.7022 H   0  0  0  0  0  0  0  0  0  0  0  0
    7.0504   -4.0048    0.3614 H   0  0  0  0  0  0  0  0  0  0  0  0
    3.0721   -3.9995    1.0367 H   0  0  0  0  0  0  0  0  0  0  0  0
    2.8596   -3.7703   -2.5151 H   0  0  0  0  0  0  0  0  0  0  0  0
    2.7014   -5.9218   -3.3502 H   0  0  0  0  0  0  0  0  0  0  0  0
    4.4483   -5.7477   -2.8615 H   0  0  0  0  0  0  0  0  0  0  0  0
    3.2625   -6.6461   -1.8074 H   0  0  0  0  0  0  0  0  0  0  0  0
    1.5834   -5.4938   -0.2937 H   0  0  0  0  0  0  0  0  0  0  0  0
   -0.7655   -4.4561    0.1687 H   0  0  0  0  0  0  0  0  0  0  0  0
   -2.0378   -6.1260   -0.7098 H   0  0  0  0  0  0  0  0  0  0  0  0
   -1.1944   -6.0376   -2.3713 H   0  0  0  0  0  0  0  0  0  0  0  0
   -0.3195   -6.4855   -0.8841 H   0  0  0  0  0  0  0  0  0  0  0  0
   -1.6843   -3.0689   -2.3666 H   0  0  0  0  0  0  0  0  0  0  0  0
   -4.0331   -2.2003   -2.4032 H   0  0  0  0  0  0  0  0  0  0  0  0
   -4.6838   -0.2922   -0.8287 H   0  0  0  0  0  0  0  0  0  0  0  0
   -4.1087   -1.2814    0.5103 H   0  0  0  0  0  0  0  0  0  0  0  0
   -3.1437    1.0042    0.8777 H   0  0  0  0  0  0  0  0  0  0  0  0
   -1.1654    2.1196    1.3490 H   0  0  0  0  0  0  0  0  0  0  0  0
   -0.2391    0.6965    0.8283 H   0  0  0  0  0  0  0  0  0  0  0  0
   -0.6062    1.3027   -1.5447 H   0  0  0  0  0  0  0  0  0  0  0  0
    1.5146    2.3029   -1.2771 H   0  0  0  0  0  0  0  0  0  0  0  0
    3.3865    4.3900    2.3051 H   0  0  0  0  0  0  0  0  0  0  0  0
    5.2206    2.1845    1.4852 H   0  0  0  0  0  0  0  0  0  0  0  0
    7.8220    2.9997    3.1152 H   0  0  0  0  0  0  0  0  0  0  0  0
    7.3027    2.5018    0.2068 H   0  0  0  0  0  0  0  0  0  0  0  0
    8.7772    5.0816    2.5314 H   0  0  0  0  0  0  0  0  0  0  0  0
    9.2371    4.0413    1.1461 H   0  0  0  0  0  0  0  0  0  0  0  0
    7.8267    5.1818    0.9664 H   0  0  0  0  0  0  0  0  0  0  0  0
    3.3937    1.4518    3.2536 H   0  0  0  0  0  0  0  0  0  0  0  0
    2.0080    2.4980    3.4874 H   0  0  0  0  0  0  0  0  0  0  0  0
    5.4592    1.6987    4.4855 H   0  0  0  0  0  0  0  0  0  0  0  0
    6.5673    2.5658    6.4779 H   0  0  0  0  0  0  0  0  0  0  0  0
    5.5424    4.4311    7.7345 H   0  0  0  0  0  0  0  0  0  0  0  0
    3.4531    5.3872    6.9693 H   0  0  0  0  0  0  0  0  0  0  0  0
    2.3282    4.5204    4.9627 H   0  0  0  0  0  0  0  0  0  0  0  0
   -3.1896    2.3986   -1.6186 H   0  0  0  0  0  0  0  0  0  0  0  0
   -2.6322    5.3803   -1.2272 H   0  0  0  0  0  0  0  0  0  0  0  0
   -3.0534    7.0427   -3.1898 H   0  0  0  0  0  0  0  0  0  0  0  0
   -3.6836    6.3420   -4.7248 H   0  0  0  0  0  0  0  0  0  0  0  0
   -5.2952    4.0006   -1.9633 H   0  0  0  0  0  0  0  0  0  0  0  0
   -4.7028    4.4390   -0.2759 H   0  0  0  0  0  0  0  0  0  0  0  0
   -4.4745    6.7351    0.3269 H   0  0  0  0  0  0  0  0  0  0  0  0
   -5.3242    9.0331    0.0183 H   0  0  0  0  0  0  0  0  0  0  0  0
   -6.8215    7.8995   -3.8900 H   0  0  0  0  0  0  0  0  0  0  0  0
   -5.9896    5.6693   -3.5756 H   0  0  0  0  0  0  0  0  0  0  0  0
   -6.0745   10.6343   -1.6967 H   0  0  0  0  0  0  0  0  0  0  0  0
   -5.4391   -2.8379    0.1670 H   0  0  0  0  0  0  0  0  0  0  0  0
   -8.1505   -2.6287   -0.4037 H   0  0  0  0  0  0  0  0  0  0  0  0
   -7.0929   -5.3595   -1.1812 H   0  0  0  0  0  0  0  0  0  0  0  0
   -6.6984   -4.4544    0.3091 H   0  0  0  0  0  0  0  0  0  0  0  0
   -8.2218   -4.1061    2.0422 H   0  0  0  0  0  0  0  0  0  0  0  0
  -10.1613   -4.9215    3.2950 H   0  0  0  0  0  0  0  0  0  0  0  0
  -11.3633   -7.2084   -0.1596 H   0  0  0  0  0  0  0  0  0  0  0  0
   -9.3883   -6.3745   -1.4263 H   0  0  0  0  0  0  0  0  0  0  0  0
  -12.0379   -7.6462    2.3745 H   0  0  0  0  0  0  0  0  0  0  0  0
   -8.4903   -4.2724   -2.8493 H   0  0  0  0  0  0  0  0  0  0  0  0
   -9.7491   -2.3130   -3.4637 H   0  0  0  0  0  0  0  0  0  0  0  0
   -8.9756   -1.5057   -2.1643 H   0  0  0  0  0  0  0  0  0  0  0  0
  1  2  1  0
  2  3  1  0
  3  4  2  0
  3  5  1  0
  5  6  1  0
  6  7  1  0
  7  8  1  0
  8  9  2  0
  8 10  1  0
 10 11  1  0
 10 12  1  0
 12 13  1  0
 13 14  2  0
 13 15  1  0
 15 16  1  0
 15 17  1  0
 17 18  1  0
 18 19  2  0
 18 20  1  0
 20 21  1  0
 20 22  1  0
 22 23  1  0
 23 24  2  0
 23 25  1  0
 25 26  1  0
 26 27  1  0
 27 28  2  0
 27 29  1  0
 29 30  1  0
 30 31  1  0
 31 32  1  0
 32 33  1  0
 33 34  2  0
 33 35  1  0
 35 36  2  0
 35 37  1  0
 37 38  1  0
 38 39  1  0
 39 40  2  0
 39 41  1  0
 41 42  1  0
 42 43  1  0
 43 44  2  0
 41 45  1  0
 37 46  1  0
 46 47  1  0
 47 48  2  0
 48 49  1  0
 49 50  2  0
 50 51  1  0
 51 52  2  0
 31 53  1  0
 53 54  2  0
 53 55  1  0
 55 56  1  0
 56 57  1  0
 57 58  2  0
 57 59  1  0
 56 60  1  0
 60 61  1  0
 61 62  2  0
 62 63  1  0
 63 64  2  0
 64 65  1  0
 65 66  2  0
 64 67  1  0
 25 68  1  0
 68 69  1  0
 69 70  2  0
 69 71  1  0
 71 72  1  0
 72 73  1  0
 73 74  2  0
 74 75  1  0
 75 76  2  0
 76 77  1  0
 77 78  2  0
 76 79  1  0
 71 80  1  0
 80 81  1  0
 43  6  1  0
 52 47  1  0
 66 61  1  0
 78 73  1  0
  1 82  1  0
  1 83  1  0
  1 84  1  0
  2 85  1  0
  5 86  1  0
  5 87  1  0
  6 88  1  6
  7 89  1  0
 10 90  1  1
 11 91  1  0
 11 92  1  0
 11 93  1  0
 12 94  1  0
 15 95  1  6
 16 96  1  0
 16 97  1  0
 16 98  1  0
 17 99  1  0
 20100  1  1
 21101  1  0
 21102  1  0
 21103  1  0
 22104  1  0
 25105  1  6
 26106  1  0
 26107  1  0
 29108  1  0
 30109  1  0
 30110  1  0
 31111  1  0
 32112  1  0
 37113  1  1
 38114  1  0
 41115  1  1
 42116  1  0
 45117  1  0
 45118  1  0
 45119  1  0
 46120  1  0
 46121  1  0
 48122  1  0
 49123  1  0
 50124  1  0
 51125  1  0
 52126  1  0
 55127  1  0
 56128  1  0
 59129  1  0
 59130  1  0
 60131  1  0
 60132  1  0
 62133  1  0
 63134  1  0
 65135  1  0
 66136  1  0
 67137  1  0
 68138  1  0
 71139  1  1
 72140  1  0
 72141  1  0
 74142  1  0
 75143  1  0
 77144  1  0
 78145  1  0
 79146  1  0
 80147  1  0
 81148  1  0
 81149  1  0
M  END
>  <Ligand ID>  (1) 
LIG0001098

>  <Ligand>  (1) 
CHEMBL384224

>  <SMILES>  (1) 
CNC(=O)C[C@H]1NC(=O)[C@H](C)NC(=O)[C@@H](C)NC(=O)[C@H](C)NC(=O)[C@H](CC(=O)NCC(NC(=O)C(=O)[C@H](NC(=O)[C@@H](NC1=O)C)Cc1ccccc1)C(=O)NC(C(=O)N)Cc1ccc(cc1)O)NC(=O)[C@H](Cc1ccc(cc1)O)NN

>  <CID>  (1) 
44310199.0

>  <ChEMBL ID>  (1) 
nan

>  <InChiKey>  (1) 
YUHAAKMAZYVMDB-ROAFZXINSA-N

>  <InChi>  (1) 
InChI=1S/C52H68N14O15/c1-25-44(73)58-27(3)47(76)63-36(22-40(69)55-5)48(77)60-28(4)46(75)61-34(19-29-9-7-6-8-10-29)42(71)52(81)65-39(51(80)62-35(43(53)72)20-30-11-15-32(67)16-12-30)24-56-41(70)23-37(49(78)59-26(2)45(74)57-25)64-50(79)38(66-54)21-31-13-17-33(68)18-14-31/h6-18,25-28,34-39,66-68H,19-24,54H2,1-5H3,(H2,53,72)(H,55,69)(H,56,70)(H,57,74)(H,58,73)(H,59,78)(H,60,77)(H,61,75)(H,62,80)(H,63,76)(H,64,79)(H,65,81)/t25-,26+,27+,28+,34-,35?,36-,37+,38+,39?/m1/s1

>  <IUPAC Name>  (1) 
(2S,5R,8S,11R,14S,17R,26S)-N-[1-amino-3-(4-hydroxyphenyl)-1-oxopropan-2-yl]-17-benzyl-26-[[(2S)-2-hydrazinyl-3-(4-hydroxyphenyl)propanoyl]amino]-2,5,8,14-tetramethyl-11-[2-(methylamino)-2-oxoethyl]-3,6,9,12,15,18,19,24,27-nonaoxo-1,4,7,10,13,16,20,23-octazacycloheptacosane-21-carboxamide

$$$$
