
     RDKit          3D

 40 42  0  0  0  0  0  0  0  0999 V2000
   -7.4010    1.8219   -1.7590 O   0  0  0  0  0  0  0  0  0  0  0  0
   -6.9086    1.1666   -0.6378 C   0  0  0  0  0  0  0  0  0  0  0  0
   -7.0941   -0.0744   -0.5807 O   0  0  0  0  0  0  0  0  0  0  0  0
   -6.2082    1.9512    0.4038 C   0  0  0  0  0  0  0  0  0  0  0  0
   -5.7473    1.0598    1.5290 C   0  0  0  0  0  0  0  0  0  0  0  0
   -4.8333    0.0586    1.0097 C   0  0  0  0  0  0  0  0  0  0  0  0
   -4.9052   -1.1398    0.5170 N   0  0  0  0  0  0  0  0  0  0  0  0
   -3.8584   -1.7564    0.1456 N   0  0  0  0  0  0  0  0  0  0  0  0
   -2.6925   -1.2669    0.2233 C   0  0  0  0  0  0  0  0  0  0  0  0
   -2.9926    0.3469    0.9300 S   0  0  0  0  0  0  0  0  0  0  0  0
   -1.3730   -1.8029   -0.1441 C   0  0  0  0  0  0  0  0  0  0  0  0
   -1.3614   -2.9557   -0.6269 O   0  0  0  0  0  0  0  0  0  0  0  0
   -0.2200   -1.0222    0.0567 N   0  0  0  0  0  0  0  0  0  0  0  0
    1.1062   -1.3989   -0.2449 C   0  0  0  0  0  0  0  0  0  0  0  0
    1.4861   -2.6007   -0.7884 C   0  0  0  0  0  0  0  0  0  0  0  0
    2.8190   -2.9170   -1.0654 C   0  0  0  0  0  0  0  0  0  0  0  0
    3.8249   -2.0089   -0.7952 C   0  0  0  0  0  0  0  0  0  0  0  0
    3.4276   -0.8034   -0.2483 C   0  0  0  0  0  0  0  0  0  0  0  0
    2.1128   -0.4949    0.0235 C   0  0  0  0  0  0  0  0  0  0  0  0
    4.4429    0.1936    0.0580 C   0  0  0  0  0  0  0  0  0  0  0  0
    4.3345    1.0850    1.0819 C   0  0  0  0  0  0  0  0  0  0  0  0
    5.3506    2.0158    1.3175 C   0  0  0  0  0  0  0  0  0  0  0  0
    6.4857    2.0506    0.5164 C   0  0  0  0  0  0  0  0  0  0  0  0
    6.5983    1.1524   -0.5177 C   0  0  0  0  0  0  0  0  0  0  0  0
    5.5857    0.2393   -0.7372 C   0  0  0  0  0  0  0  0  0  0  0  0
    7.4306    2.9815    0.8046 F   0  0  0  0  0  0  0  0  0  0  0  0
   -7.4273    1.3460   -2.6608 H   0  0  0  0  0  0  0  0  0  0  0  0
   -6.8161    2.8112    0.7400 H   0  0  0  0  0  0  0  0  0  0  0  0
   -5.3110    2.4102   -0.0993 H   0  0  0  0  0  0  0  0  0  0  0  0
   -5.3337    1.6336    2.3793 H   0  0  0  0  0  0  0  0  0  0  0  0
   -6.6236    0.5163    1.9370 H   0  0  0  0  0  0  0  0  0  0  0  0
   -0.3794   -0.0646    0.4740 H   0  0  0  0  0  0  0  0  0  0  0  0
    0.7745   -3.3659   -1.0309 H   0  0  0  0  0  0  0  0  0  0  0  0
    3.0790   -3.8775   -1.4951 H   0  0  0  0  0  0  0  0  0  0  0  0
    4.8285   -2.2789   -1.0171 H   0  0  0  0  0  0  0  0  0  0  0  0
    1.8916    0.4838    0.4566 H   0  0  0  0  0  0  0  0  0  0  0  0
    3.4594    1.0706    1.7126 H   0  0  0  0  0  0  0  0  0  0  0  0
    5.2706    2.7318    2.1347 H   0  0  0  0  0  0  0  0  0  0  0  0
    7.4748    1.1682   -1.1480 H   0  0  0  0  0  0  0  0  0  0  0  0
    5.7032   -0.4661   -1.5708 H   0  0  0  0  0  0  0  0  0  0  0  0
  1  2  1  0
  2  3  2  0
  2  4  1  0
  4  5  1  0
  5  6  1  0
  6  7  2  0
  7  8  1  0
  8  9  2  0
  9 10  1  0
  9 11  1  0
 11 12  2  0
 11 13  1  0
 13 14  1  0
 14 15  2  0
 15 16  1  0
 16 17  2  0
 17 18  1  0
 18 19  2  0
 18 20  1  0
 20 21  2  0
 21 22  1  0
 22 23  2  0
 23 24  1  0
 24 25  2  0
 23 26  1  0
 10  6  1  0
 19 14  1  0
 25 20  1  0
  1 27  1  0
  4 28  1  0
  4 29  1  0
  5 30  1  0
  5 31  1  0
 13 32  1  0
 15 33  1  0
 16 34  1  0
 17 35  1  0
 19 36  1  0
 21 37  1  0
 22 38  1  0
 24 39  1  0
 25 40  1  0
M  END
>  <Ligand ID>  (1) 
LIG0001228

>  <Ligand>  (1) 
CHEMBL3805879

>  <SMILES>  (1) 
OC(=O)CCc1nnc(s1)C(=O)Nc1cccc(c1)c1ccc(cc1)F

>  <CID>  (1) 
127048827.0

>  <ChEMBL ID>  (1) 
nan

>  <InChiKey>  (1) 
LBXXTDSJYRFPFG-UHFFFAOYSA-N

>  <InChi>  (1) 
InChI=1S/C18H14FN3O3S/c19-13-6-4-11(5-7-13)12-2-1-3-14(10-12)20-17(25)18-22-21-15(26-18)8-9-16(23)24/h1-7,10H,8-9H2,(H,20,25)(H,23,24)

>  <IUPAC Name>  (1) 
3-[5-[[3-(4-fluorophenyl)phenyl]carbamoyl]-1,3,4-thiadiazol-2-yl]propanoic acid

$$$$
