
     RDKit          3D

 44 48  0  0  0  0  0  0  0  0999 V2000
    0.1931   -1.3190   -2.2385 O   0  0  0  0  0  0  0  0  0  0  0  0
    0.1647   -0.7158   -1.0956 C   0  0  0  0  0  0  0  0  0  0  0  0
   -1.0896   -0.1678   -0.5631 C   0  0  0  0  0  0  0  0  0  0  0  0
   -1.4390   -0.6753    0.8220 C   0  0  0  0  0  0  0  0  0  0  0  0
   -2.8084   -0.2004    1.2003 C   0  0  0  0  0  0  0  0  0  0  0  0
   -2.9811    1.3003    1.1260 C   0  0  0  0  0  0  0  0  0  0  0  0
   -2.5699    1.7918   -0.2448 C   0  0  0  0  0  0  0  0  0  0  0  0
   -1.1621    1.3221   -0.5391 C   0  0  0  0  0  0  0  0  0  0  0  0
   -3.5477    1.2106   -1.2423 C   0  0  0  0  0  0  0  0  0  0  0  0
   -3.5519   -0.2961   -1.1017 C   0  0  0  0  0  0  0  0  0  0  0  0
   -2.1862   -0.7634   -1.4708 C   0  0  0  0  0  0  0  0  0  0  0  0
   -3.8769   -0.7681    0.2837 C   0  0  0  0  0  0  0  0  0  0  0  0
    1.4300   -0.6550   -0.4552 N   0  0  0  0  0  0  0  0  0  0  0  0
    2.6222   -1.2370   -1.0974 C   0  0  0  0  0  0  0  0  0  0  0  0
    3.7910   -0.7235   -0.3832 C   0  0  0  0  0  0  0  0  0  0  0  0
    3.3540   -0.0633    0.7345 C   0  0  0  0  0  0  0  0  0  0  0  0
    1.8651   -0.1163    0.7972 C   0  0  0  0  0  0  0  0  0  0  0  0
    4.2510    0.5210    1.5931 C   0  0  0  0  0  0  0  0  0  0  0  0
    5.5968    0.4550    1.3488 C   0  0  0  0  0  0  0  0  0  0  0  0
    6.0396   -0.2088    0.2246 C   0  0  0  0  0  0  0  0  0  0  0  0
    5.1218   -0.8018   -0.6460 C   0  0  0  0  0  0  0  0  0  0  0  0
   -0.7282   -0.2346    1.5512 H   0  0  0  0  0  0  0  0  0  0  0  0
   -1.4199   -1.7598    0.9212 H   0  0  0  0  0  0  0  0  0  0  0  0
   -3.0774   -0.5102    2.2290 H   0  0  0  0  0  0  0  0  0  0  0  0
   -2.5093    1.8465    1.9579 H   0  0  0  0  0  0  0  0  0  0  0  0
   -4.0831    1.4827    1.2082 H   0  0  0  0  0  0  0  0  0  0  0  0
   -2.5810    2.8916   -0.2535 H   0  0  0  0  0  0  0  0  0  0  0  0
   -0.8186    1.7392   -1.5047 H   0  0  0  0  0  0  0  0  0  0  0  0
   -0.5462    1.6962    0.2998 H   0  0  0  0  0  0  0  0  0  0  0  0
   -4.5263    1.6808   -1.1858 H   0  0  0  0  0  0  0  0  0  0  0  0
   -3.0871    1.4113   -2.2498 H   0  0  0  0  0  0  0  0  0  0  0  0
   -4.2499   -0.6858   -1.8514 H   0  0  0  0  0  0  0  0  0  0  0  0
   -1.8965   -0.5430   -2.5115 H   0  0  0  0  0  0  0  0  0  0  0  0
   -2.0948   -1.8635   -1.3168 H   0  0  0  0  0  0  0  0  0  0  0  0
   -4.8455   -0.3383    0.6156 H   0  0  0  0  0  0  0  0  0  0  0  0
   -3.9379   -1.8540    0.2740 H   0  0  0  0  0  0  0  0  0  0  0  0
    2.5946   -2.3470   -0.9750 H   0  0  0  0  0  0  0  0  0  0  0  0
    2.6657   -0.9860   -2.1747 H   0  0  0  0  0  0  0  0  0  0  0  0
    1.5975   -0.7652    1.6611 H   0  0  0  0  0  0  0  0  0  0  0  0
    1.5309    0.9012    1.0314 H   0  0  0  0  0  0  0  0  0  0  0  0
    3.9306    1.0474    2.4817 H   0  0  0  0  0  0  0  0  0  0  0  0
    6.3161    0.9125    2.0194 H   0  0  0  0  0  0  0  0  0  0  0  0
    7.0985   -0.2817   -0.0019 H   0  0  0  0  0  0  0  0  0  0  0  0
    5.4513   -1.3294   -1.5373 H   0  0  0  0  0  0  0  0  0  0  0  0
  1  2  2  0
  2  3  1  0
  3  4  1  0
  4  5  1  0
  5  6  1  0
  6  7  1  0
  7  8  1  0
  7  9  1  0
  9 10  1  0
 10 11  1  0
 10 12  1  0
  2 13  1  0
 13 14  1  0
 14 15  1  0
 15 16  2  0
 16 17  1  0
 16 18  1  0
 18 19  2  0
 19 20  1  0
 20 21  2  0
 11  3  1  0
 17 13  1  0
  8  3  1  0
 21 15  1  0
 12  5  1  0
  4 22  1  0
  4 23  1  0
  5 24  1  0
  6 25  1  0
  6 26  1  0
  7 27  1  0
  8 28  1  0
  8 29  1  0
  9 30  1  0
  9 31  1  0
 10 32  1  0
 11 33  1  0
 11 34  1  0
 12 35  1  0
 12 36  1  0
 14 37  1  0
 14 38  1  0
 17 39  1  0
 17 40  1  0
 18 41  1  0
 19 42  1  0
 20 43  1  0
 21 44  1  0
M  END
>  <Ligand ID>  (1) 
LIG0001312

>  <Ligand>  (1) 
CHEMBL2338179

>  <SMILES>  (1) 
O=C(C12CC3CC(C2)CC(C1)C3)N1Cc2c(C1)cccc2

>  <CID>  (1) 
71559523.0

>  <ChEMBL ID>  (1) 
nan

>  <InChiKey>  (1) 
GSTJEWFIXZLJGZ-UHFFFAOYSA-N

>  <InChi>  (1) 
InChI=1S/C19H23NO/c21-18(20-11-16-3-1-2-4-17(16)12-20)19-8-13-5-14(9-19)7-15(6-13)10-19/h1-4,13-15H,5-12H2

>  <IUPAC Name>  (1) 
1-adamantyl(1,3-dihydroisoindol-2-yl)methanone

$$$$
