
     RDKit          3D

 63 67  0  0  0  0  0  0  0  0999 V2000
    1.7848    5.8467   -0.5289 C   0  0  0  0  0  0  0  0  0  0  0  0
    1.2371    4.6336   -0.0154 O   0  0  0  0  0  0  0  0  0  0  0  0
    1.8504    3.4579   -0.4131 C   0  0  0  0  0  0  0  0  0  0  0  0
    2.8509    3.5350   -1.2015 O   0  0  0  0  0  0  0  0  0  0  0  0
    1.4216    2.1080    0.0180 C   0  0  2  0  0  0  0  0  0  0  0  0
    2.4051    1.1320   -0.6352 C   0  0  0  0  0  0  0  0  0  0  0  0
    2.0549   -0.2438   -0.1990 C   0  0  2  0  0  0  0  0  0  0  0  0
    2.8858   -1.2486   -0.7087 O   0  0  0  0  0  0  0  0  0  0  0  0
    3.5937   -2.0596    0.1401 C   0  0  0  0  0  0  0  0  0  0  0  0
    3.4669   -1.8654    1.3725 O   0  0  0  0  0  0  0  0  0  0  0  0
    4.4924   -3.1450   -0.3743 C   0  0  0  0  0  0  0  0  0  0  0  0
    5.1829   -3.9370    0.4253 C   0  0  0  0  0  0  0  0  0  0  0  0
    5.9893   -4.9138   -0.1139 C   0  0  0  0  0  0  0  0  0  0  0  0
    5.7588   -4.7055   -1.9662 S   0  0  0  0  0  0  0  0  0  0  0  0
    4.5911   -3.3108   -1.7451 C   0  0  0  0  0  0  0  0  0  0  0  0
    0.6100   -0.4869   -0.5721 C   0  0  0  0  0  0  0  0  0  0  0  0
    0.3196   -1.4202   -1.2740 O   0  0  0  0  0  0  0  0  0  0  0  0
   -0.3713    0.4779   -0.0246 C   0  0  1  0  0  0  0  0  0  0  0  0
    0.0079    1.8358   -0.5094 C   0  0  2  0  0  0  0  0  0  0  0  0
    0.1010    1.9547   -2.0099 C   0  0  0  0  0  0  0  0  0  0  0  0
   -0.9030    2.9201   -0.0313 C   0  0  0  0  0  0  0  0  0  0  0  0
   -2.3724    2.5310   -0.0838 C   0  0  0  0  0  0  0  0  0  0  0  0
   -2.5520    1.2189    0.5851 C   0  0  2  0  0  0  0  0  0  0  0  0
   -1.7977    0.0994   -0.1493 C   0  0  1  0  0  0  0  0  0  0  0  0
   -2.2803   -0.1006   -1.5490 C   0  0  0  0  0  0  0  0  0  0  0  0
   -2.0387   -1.1766    0.6198 C   0  0  0  0  0  0  0  0  0  0  0  0
   -3.4817   -1.4766    0.8399 C   0  0  2  0  0  0  0  0  0  0  0  0
   -4.2463   -0.4066    1.3521 O   0  0  0  0  0  0  0  0  0  0  0  0
   -3.9450    0.8627    0.8775 C   0  0  0  0  0  0  0  0  0  0  0  0
   -4.8394    1.7480    0.6810 O   0  0  0  0  0  0  0  0  0  0  0  0
   -3.5829   -2.6419    1.7539 C   0  0  0  0  0  0  0  0  0  0  0  0
   -3.7946   -3.9676    1.4083 C   0  0  0  0  0  0  0  0  0  0  0  0
   -3.8203   -4.7183    2.5624 C   0  0  0  0  0  0  0  0  0  0  0  0
   -3.6338   -3.8996    3.5761 O   0  0  0  0  0  0  0  0  0  0  0  0
   -3.4881   -2.6562    3.1423 C   0  0  0  0  0  0  0  0  0  0  0  0
    1.5582    6.6852    0.1651 H   0  0  0  0  0  0  0  0  0  0  0  0
    2.8628    5.7521   -0.7603 H   0  0  0  0  0  0  0  0  0  0  0  0
    1.2783    6.0416   -1.5037 H   0  0  0  0  0  0  0  0  0  0  0  0
    1.4644    2.0553    1.1049 H   0  0  0  0  0  0  0  0  0  0  0  0
    3.4046    1.4394   -0.2115 H   0  0  0  0  0  0  0  0  0  0  0  0
    2.3815    1.3307   -1.7054 H   0  0  0  0  0  0  0  0  0  0  0  0
    2.1080   -0.2681    0.9084 H   0  0  0  0  0  0  0  0  0  0  0  0
    5.1547   -3.8639    1.5428 H   0  0  0  0  0  0  0  0  0  0  0  0
    6.6335   -5.6651    0.2805 H   0  0  0  0  0  0  0  0  0  0  0  0
    4.1303   -2.7923   -2.5597 H   0  0  0  0  0  0  0  0  0  0  0  0
   -0.1576    0.4870    1.0865 H   0  0  0  0  0  0  0  0  0  0  0  0
    0.8061    2.7862   -2.2216 H   0  0  0  0  0  0  0  0  0  0  0  0
    0.5281    1.0723   -2.5147 H   0  0  0  0  0  0  0  0  0  0  0  0
   -0.8635    2.2888   -2.4599 H   0  0  0  0  0  0  0  0  0  0  0  0
   -0.6461    3.1822    1.0107 H   0  0  0  0  0  0  0  0  0  0  0  0
   -0.8078    3.8071   -0.7111 H   0  0  0  0  0  0  0  0  0  0  0  0
   -2.7650    2.6096   -1.1063 H   0  0  0  0  0  0  0  0  0  0  0  0
   -2.9000    3.2879    0.5327 H   0  0  0  0  0  0  0  0  0  0  0  0
   -2.0304    1.2832    1.5698 H   0  0  0  0  0  0  0  0  0  0  0  0
   -1.4581   -0.2550   -2.2934 H   0  0  0  0  0  0  0  0  0  0  0  0
   -2.9041   -1.0223   -1.6720 H   0  0  0  0  0  0  0  0  0  0  0  0
   -2.9570    0.7239   -1.8596 H   0  0  0  0  0  0  0  0  0  0  0  0
   -1.6604   -1.9953   -0.0617 H   0  0  0  0  0  0  0  0  0  0  0  0
   -1.4289   -1.2706    1.5228 H   0  0  0  0  0  0  0  0  0  0  0  0
   -3.9815   -1.7697   -0.1109 H   0  0  0  0  0  0  0  0  0  0  0  0
   -3.9169   -4.3282    0.3862 H   0  0  0  0  0  0  0  0  0  0  0  0
   -3.9681   -5.7880    2.6138 H   0  0  0  0  0  0  0  0  0  0  0  0
   -3.3219   -1.7952    3.7779 H   0  0  0  0  0  0  0  0  0  0  0  0
  1  2  1  0
  2  3  1  0
  3  4  2  0
  3  5  1  0
  5  6  1  0
  6  7  1  0
  7  8  1  0
  8  9  1  0
  9 10  2  0
  9 11  1  0
 11 12  1  0
 12 13  2  0
 13 14  1  0
 14 15  1  0
  7 16  1  0
 16 17  2  0
 16 18  1  0
 18 19  1  0
 19 20  1  6
 19 21  1  0
 21 22  1  0
 22 23  1  0
 23 24  1  0
 24 25  1  6
 24 26  1  0
 26 27  1  0
 27 28  1  0
 28 29  1  0
 29 30  2  0
 27 31  1  0
 31 32  1  0
 32 33  2  0
 33 34  1  0
 34 35  1  0
 19  5  1  0
 29 23  1  0
 35 31  2  0
 15 11  2  0
 24 18  1  0
  1 36  1  0
  1 37  1  0
  1 38  1  0
  5 39  1  1
  6 40  1  0
  6 41  1  0
  7 42  1  1
 12 43  1  0
 13 44  1  0
 15 45  1  0
 18 46  1  1
 20 47  1  0
 20 48  1  0
 20 49  1  0
 21 50  1  0
 21 51  1  0
 22 52  1  0
 22 53  1  0
 23 54  1  1
 25 55  1  0
 25 56  1  0
 25 57  1  0
 26 58  1  0
 26 59  1  0
 27 60  1  6
 32 61  1  0
 33 62  1  0
 35 63  1  0
M  END
>  <Ligand ID>  (1) 
LIG0005154

>  <Ligand>  (1) 
CHEMBL410436

>  <SMILES>  (1) 
COC(=O)[C@@H]1C[C@H](OC(=O)c2ccsc2)C(=O)[C@H]2[C@@]1(C)CC[C@@H]1[C@]2(C)C[C@H](OC1=O)c1ccoc1

>  <CID>  (1) 
24854260.0

>  <ChEMBL ID>  (1) 
nan

>  <InChiKey>  (1) 
MVYHSKAZPGLQBF-PEVIRZATSA-N

>  <InChi>  (1) 
InChI=1S/C26H28O8S/c1-25-7-4-16-24(30)34-19(14-5-8-32-12-14)11-26(16,2)21(25)20(27)18(10-17(25)23(29)31-3)33-22(28)15-6-9-35-13-15/h5-6,8-9,12-13,16-19,21H,4,7,10-11H2,1-3H3/t16-,17-,18-,19-,21-,25-,26-/m0/s1

>  <IUPAC Name>  (1) 
methyl (2S,4aR,6aR,7R,9S,10aS,10bR)-2-(furan-3-yl)-6a,10b-dimethyl-4,10-dioxo-9-(thiophene-3-carbonyloxy)-2,4a,5,6,7,8,9,10a-octahydro-1H-benzo[f]isochromene-7-carboxylate

$$$$
