
     RDKit          3D

 26 25  0  0  0  0  0  0  0  0999 V2000
    2.7498   -0.0864   -1.0082 C   0  0  0  0  0  0  0  0  0  0  0  0
    2.1892    0.9459   -0.0545 C   0  0  0  0  0  0  0  0  0  0  0  0
    1.4237    0.3055    1.0777 C   0  0  0  0  0  0  0  0  0  0  0  0
    0.2374   -0.5302    0.5611 C   0  0  0  0  0  0  0  0  0  0  0  0
   -0.4135   -1.0931    1.7700 C   0  0  0  0  0  0  0  0  0  0  0  0
    0.0847   -0.7604    2.8998 O   0  0  0  0  0  0  0  0  0  0  0  0
   -1.5062   -1.9410    1.7435 O   0  0  0  0  0  0  0  0  0  0  0  0
   -0.7470    0.3678   -0.1385 C   0  0  0  0  0  0  0  0  0  0  0  0
   -1.9511   -0.3052   -0.6972 C   0  0  0  0  0  0  0  0  0  0  0  0
   -2.8505    0.7122   -1.3799 C   0  0  0  0  0  0  0  0  0  0  0  0
    3.5938   -0.6291   -0.5159 H   0  0  0  0  0  0  0  0  0  0  0  0
    3.2296    0.5069   -1.8335 H   0  0  0  0  0  0  0  0  0  0  0  0
    2.0010   -0.7331   -1.4719 H   0  0  0  0  0  0  0  0  0  0  0  0
    1.6157    1.6984   -0.5953 H   0  0  0  0  0  0  0  0  0  0  0  0
    3.0804    1.4552    0.3861 H   0  0  0  0  0  0  0  0  0  0  0  0
    0.9716    1.1110    1.6919 H   0  0  0  0  0  0  0  0  0  0  0  0
    2.0840   -0.3208    1.7034 H   0  0  0  0  0  0  0  0  0  0  0  0
    0.5678   -1.3103   -0.1395 H   0  0  0  0  0  0  0  0  0  0  0  0
   -1.6867   -2.5042    2.5860 H   0  0  0  0  0  0  0  0  0  0  0  0
   -0.1926    0.8625   -0.9903 H   0  0  0  0  0  0  0  0  0  0  0  0
   -1.0734    1.2158    0.4949 H   0  0  0  0  0  0  0  0  0  0  0  0
   -1.6539   -1.0564   -1.4468 H   0  0  0  0  0  0  0  0  0  0  0  0
   -2.5726   -0.7825    0.0685 H   0  0  0  0  0  0  0  0  0  0  0  0
   -2.2522    1.2102   -2.1759 H   0  0  0  0  0  0  0  0  0  0  0  0
   -3.2331    1.4684   -0.6919 H   0  0  0  0  0  0  0  0  0  0  0  0
   -3.6959    0.1929   -1.8436 H   0  0  0  0  0  0  0  0  0  0  0  0
  1  2  1  0
  2  3  1  0
  3  4  1  0
  4  5  1  0
  5  6  2  0
  5  7  1  0
  4  8  1  0
  8  9  1  0
  9 10  1  0
  1 11  1  0
  1 12  1  0
  1 13  1  0
  2 14  1  0
  2 15  1  0
  3 16  1  0
  3 17  1  0
  4 18  1  0
  7 19  1  0
  8 20  1  0
  8 21  1  0
  9 22  1  0
  9 23  1  0
 10 24  1  0
 10 25  1  0
 10 26  1  0
M  END
>  <Ligand ID>  (1) 
LIG0000744

>  <Ligand>  (1) 
Valproic Acid

>  <SMILES>  (1) 
CCCC(C(=O)O)CCC

>  <CID>  (1) 
3121.0

>  <ChEMBL ID>  (1) 
nan

>  <InChiKey>  (1) 
NIJJYAXOARWZEE-UHFFFAOYSA-N

>  <InChi>  (1) 
InChI=1S/C8H16O2/c1-3-5-7(6-4-2)8(9)10/h7H,3-6H2,1-2H3,(H,9,10)

>  <IUPAC Name>  (1) 
2-propylpentanoic acid

$$$$
