
     RDKit          3D

 36 39  0  0  0  0  0  0  0  0999 V2000
    4.1790    2.1637   -0.2896 C   0  0  0  0  0  0  0  0  0  0  0  0
    2.9622    2.4053   -0.8933 C   0  0  0  0  0  0  0  0  0  0  0  0
    1.9779    1.4226   -0.8822 C   0  0  0  0  0  0  0  0  0  0  0  0
    2.1470    0.2023   -0.2946 C   0  0  0  0  0  0  0  0  0  0  0  0
    3.3869   -0.0274    0.3134 C   0  0  0  0  0  0  0  0  0  0  0  0
    4.3811    0.9301    0.3168 C   0  0  0  0  0  0  0  0  0  0  0  0
    1.1845   -0.8672   -0.2247 C   0  0  0  0  0  0  0  0  0  0  0  0
    1.6344   -2.1352   -0.6157 C   0  0  0  0  0  0  0  0  0  0  0  0
    0.8124   -3.2413   -0.5888 C   0  0  0  0  0  0  0  0  0  0  0  0
   -0.4963   -3.1264   -0.1691 C   0  0  0  0  0  0  0  0  0  0  0  0
   -0.9403   -1.8778    0.2161 C   0  0  0  0  0  0  0  0  0  0  0  0
   -0.1134   -0.7544    0.1910 C   0  0  0  0  0  0  0  0  0  0  0  0
   -0.6870    0.5190    0.6135 C   0  0  1  0  0  0  0  0  0  0  0  0
   -1.5614    1.0622   -0.5015 C   0  0  0  0  0  0  0  0  0  0  0  0
   -2.9233    0.7243   -0.1611 N   0  0  0  0  0  0  0  0  0  0  0  0
   -2.9902    0.3389    1.1048 C   0  0  0  0  0  0  0  0  0  0  0  0
   -1.6643    0.3784    1.7510 C   0  0  0  0  0  0  0  0  0  0  0  0
   -4.2672    0.0360    1.3767 N   0  0  0  0  0  0  0  0  0  0  0  0
   -5.0176    0.2263    0.2892 C   0  0  0  0  0  0  0  0  0  0  0  0
   -4.1421    0.6677   -0.6890 C   0  0  0  0  0  0  0  0  0  0  0  0
    4.9573    2.9196   -0.2894 H   0  0  0  0  0  0  0  0  0  0  0  0
    2.7825    3.3623   -1.3732 H   0  0  0  0  0  0  0  0  0  0  0  0
    1.0533    1.6615   -1.3745 H   0  0  0  0  0  0  0  0  0  0  0  0
    3.6057   -0.9786    0.8069 H   0  0  0  0  0  0  0  0  0  0  0  0
    5.3372    0.7073    0.8050 H   0  0  0  0  0  0  0  0  0  0  0  0
    2.6480   -2.2828   -0.9524 H   0  0  0  0  0  0  0  0  0  0  0  0
    1.1858   -4.2268   -0.8998 H   0  0  0  0  0  0  0  0  0  0  0  0
   -1.1624   -3.9926   -0.1411 H   0  0  0  0  0  0  0  0  0  0  0  0
   -1.9763   -1.8244    0.5408 H   0  0  0  0  0  0  0  0  0  0  0  0
    0.0741    1.2784    0.8859 H   0  0  0  0  0  0  0  0  0  0  0  0
   -1.3204    0.5965   -1.4755 H   0  0  0  0  0  0  0  0  0  0  0  0
   -1.4713    2.1539   -0.6377 H   0  0  0  0  0  0  0  0  0  0  0  0
   -1.4695   -0.5954    2.2712 H   0  0  0  0  0  0  0  0  0  0  0  0
   -1.5393    1.2079    2.4452 H   0  0  0  0  0  0  0  0  0  0  0  0
   -6.0956    0.0603    0.2150 H   0  0  0  0  0  0  0  0  0  0  0  0
   -4.4714    0.9057   -1.6895 H   0  0  0  0  0  0  0  0  0  0  0  0
  1  2  2  0
  2  3  1  0
  3  4  2  0
  4  5  1  0
  5  6  2  0
  4  7  1  0
  7  8  2  0
  8  9  1  0
  9 10  2  0
 10 11  1  0
 11 12  2  0
 12 13  1  0
 13 14  1  0
 14 15  1  0
 15 16  1  0
 16 17  1  0
 16 18  2  0
 18 19  1  0
 19 20  2  0
  6  1  1  0
 12  7  1  0
 17 13  1  0
 20 15  1  0
  1 21  1  0
  2 22  1  0
  3 23  1  0
  5 24  1  0
  6 25  1  0
  8 26  1  0
  9 27  1  0
 10 28  1  0
 11 29  1  0
 13 30  1  1
 14 31  1  0
 14 32  1  0
 17 33  1  0
 17 34  1  0
 19 35  1  0
 20 36  1  0
M  END
>  <Ligand ID>  (1) 
LIG0002428

>  <Ligand>  (1) 
CHEMBL512062

>  <SMILES>  (1) 
c1ccc(cc1)c1ccccc1[C@H]1Cn2c(C1)ncc2

>  <CID>  (1) 
44574045.0

>  <ChEMBL ID>  (1) 
nan

>  <InChiKey>  (1) 
NGKTVUYBFUWABZ-OAHLLOKOSA-N

>  <InChi>  (1) 
InChI=1S/C18H16N2/c1-2-6-14(7-3-1)16-8-4-5-9-17(16)15-12-18-19-10-11-20(18)13-15/h1-11,15H,12-13H2/t15-/m1/s1

>  <IUPAC Name>  (1) 
(6S)-6-(2-phenylphenyl)-6,7-dihydro-5H-pyrrolo[1,2-a]imidazole

$$$$
