
     RDKit          3D

106110  0  0  0  0  0  0  0  0999 V2000
   -3.8623    6.7443   -1.6971 N   0  0  0  0  0  0  0  0  0  0  0  0
   -4.4992    5.4779   -1.7179 C   0  0  0  0  0  0  0  0  0  0  0  0
   -3.8466    4.5225   -2.3339 N   0  0  0  0  0  0  0  0  0  0  0  0
   -4.4976    3.2359   -2.3522 C   0  0  0  0  0  0  0  0  0  0  0  0
   -4.0669    2.3394   -1.1787 C   0  0  0  0  0  0  0  0  0  0  0  0
   -2.6036    2.1100   -1.2962 C   0  0  0  0  0  0  0  0  0  0  0  0
   -2.0083    1.2699   -0.1576 C   0  0  1  0  0  0  0  0  0  0  0  0
   -2.6147   -0.0330   -0.0365 C   0  0  0  0  0  0  0  0  0  0  0  0
   -1.8784   -1.0428   -0.3804 O   0  0  0  0  0  0  0  0  0  0  0  0
   -3.9150   -0.3450    0.4134 N   0  0  0  0  0  0  0  0  0  0  0  0
   -4.4194   -1.7408    0.4683 C   0  0  2  0  0  0  0  0  0  0  0  0
   -5.6200   -1.8616   -0.3250 C   0  0  0  0  0  0  0  0  0  0  0  0
   -6.1209   -2.9983   -0.5958 O   0  0  0  0  0  0  0  0  0  0  0  0
   -6.3500   -0.7476   -0.8702 N   0  0  0  0  0  0  0  0  0  0  0  0
   -4.5371   -2.1903    1.8735 C   0  0  0  0  0  0  0  0  0  0  0  0
   -5.0742   -3.5523    1.9925 C   0  0  0  0  0  0  0  0  0  0  0  0
   -4.3094   -4.6966    2.0381 C   0  0  0  0  0  0  0  0  0  0  0  0
   -5.1379   -5.7507    2.1266 N   0  0  0  0  0  0  0  0  0  0  0  0
   -6.4301   -5.3376    2.1411 C   0  0  0  0  0  0  0  0  0  0  0  0
   -6.3927   -3.9399    2.0558 C   0  0  0  0  0  0  0  0  0  0  0  0
   -7.6178   -3.2830    2.0774 C   0  0  0  0  0  0  0  0  0  0  0  0
   -8.7726   -4.0125    2.1772 C   0  0  0  0  0  0  0  0  0  0  0  0
   -8.8036   -5.3928    2.2598 C   0  0  0  0  0  0  0  0  0  0  0  0
   -7.5951   -6.0369    2.2385 C   0  0  0  0  0  0  0  0  0  0  0  0
   -0.5883    1.2072   -0.4948 N   0  0  0  0  0  0  0  0  0  0  0  0
    0.3366    2.2363   -0.3498 C   0  0  0  0  0  0  0  0  0  0  0  0
   -0.0443    3.3818    0.0934 O   0  0  0  0  0  0  0  0  0  0  0  0
    1.7637    2.1195   -0.6747 C   0  0  1  0  0  0  0  0  0  0  0  0
    2.2221    0.7320   -0.7342 N   0  0  0  0  0  0  0  0  0  0  0  0
    3.5418    0.4346   -0.2739 C   0  0  0  0  0  0  0  0  0  0  0  0
    4.2457    1.4191    0.1398 O   0  0  0  0  0  0  0  0  0  0  0  0
    4.0886   -0.9459   -0.2633 C   0  0  1  0  0  0  0  0  0  0  0  0
    5.4879   -0.9712    0.1609 N   0  0  0  0  0  0  0  0  0  0  0  0
    6.3581   -1.9190   -0.3915 C   0  0  0  0  0  0  0  0  0  0  0  0
    5.8808   -2.7292   -1.2612 O   0  0  0  0  0  0  0  0  0  0  0  0
    7.7837   -2.0541   -0.0418 C   0  0  0  0  0  0  0  0  0  0  0  0
    8.4297   -3.1716   -0.7878 C   0  0  0  0  0  0  0  0  0  0  0  0
    9.1166   -2.9052   -1.9509 C   0  0  0  0  0  0  0  0  0  0  0  0
    9.6878   -3.9831   -2.6125 C   0  0  0  0  0  0  0  0  0  0  0  0
    9.5868   -5.2647   -2.1497 C   0  0  0  0  0  0  0  0  0  0  0  0
    8.8895   -5.5398   -0.9681 C   0  0  0  0  0  0  0  0  0  0  0  0
    8.3197   -4.4770   -0.3047 C   0  0  0  0  0  0  0  0  0  0  0  0
    3.3767   -1.6122    0.9595 C   0  0  0  0  0  0  0  0  0  0  0  0
    3.7394   -0.8547    2.1793 C   0  0  0  0  0  0  0  0  0  0  0  0
    4.8887   -1.2015    2.9105 C   0  0  0  0  0  0  0  0  0  0  0  0
    5.2935   -0.5357    4.0169 C   0  0  0  0  0  0  0  0  0  0  0  0
    4.5799    0.5598    4.5148 C   0  0  0  0  0  0  0  0  0  0  0  0
    3.4299    0.9208    3.8001 C   0  0  0  0  0  0  0  0  0  0  0  0
    3.0356    0.2209    2.6646 C   0  0  0  0  0  0  0  0  0  0  0  0
    5.1033    1.4380    5.9337 Cl  0  0  0  0  0  0  0  0  0  0  0  0
    1.9448    2.7324   -2.0884 C   0  0  0  0  0  0  0  0  0  0  0  0
    1.5235    4.1502   -2.0787 C   0  0  0  0  0  0  0  0  0  0  0  0
    2.3990    5.1698   -1.6850 C   0  0  0  0  0  0  0  0  0  0  0  0
    1.9409    6.4614   -1.7395 C   0  0  0  0  0  0  0  0  0  0  0  0
    0.6844    6.8375   -2.1496 C   0  0  0  0  0  0  0  0  0  0  0  0
   -0.1833    5.8063   -2.5415 C   0  0  0  0  0  0  0  0  0  0  0  0
    0.2596    4.4892   -2.4959 C   0  0  0  0  0  0  0  0  0  0  0  0
   -5.7760    5.2342   -1.1123 N   0  0  0  0  0  0  0  0  0  0  0  0
   -4.4307    7.5893   -1.9529 H   0  0  0  0  0  0  0  0  0  0  0  0
   -2.8645    6.8995   -1.4468 H   0  0  0  0  0  0  0  0  0  0  0  0
   -4.2877    2.6442   -3.2748 H   0  0  0  0  0  0  0  0  0  0  0  0
   -5.6064    3.3244   -2.2799 H   0  0  0  0  0  0  0  0  0  0  0  0
   -4.6214    1.3729   -1.4271 H   0  0  0  0  0  0  0  0  0  0  0  0
   -4.4041    2.8007   -0.2531 H   0  0  0  0  0  0  0  0  0  0  0  0
   -2.3644    1.6878   -2.2805 H   0  0  0  0  0  0  0  0  0  0  0  0
   -2.1247    3.1304   -1.2592 H   0  0  0  0  0  0  0  0  0  0  0  0
   -2.1289    1.8940    0.7223 H   0  0  0  0  0  0  0  0  0  0  0  0
   -4.5314    0.4498    0.7304 H   0  0  0  0  0  0  0  0  0  0  0  0
   -3.5762   -2.3355    0.0110 H   0  0  0  0  0  0  0  0  0  0  0  0
   -6.2652   -0.4550   -1.8645 H   0  0  0  0  0  0  0  0  0  0  0  0
   -7.0080   -0.2006   -0.2285 H   0  0  0  0  0  0  0  0  0  0  0  0
   -3.5161   -2.1169    2.3564 H   0  0  0  0  0  0  0  0  0  0  0  0
   -5.2053   -1.4612    2.4340 H   0  0  0  0  0  0  0  0  0  0  0  0
   -3.2174   -4.6944    1.9988 H   0  0  0  0  0  0  0  0  0  0  0  0
   -4.8316   -6.7465    2.1759 H   0  0  0  0  0  0  0  0  0  0  0  0
   -7.5898   -2.1928    2.0129 H   0  0  0  0  0  0  0  0  0  0  0  0
   -9.7376   -3.4931    2.1946 H   0  0  0  0  0  0  0  0  0  0  0  0
   -9.7050   -5.9750    2.3400 H   0  0  0  0  0  0  0  0  0  0  0  0
   -7.5463   -7.1142    2.2997 H   0  0  0  0  0  0  0  0  0  0  0  0
   -0.2834    0.2720   -0.8877 H   0  0  0  0  0  0  0  0  0  0  0  0
    2.4688    2.6743   -0.0397 H   0  0  0  0  0  0  0  0  0  0  0  0
    1.6665   -0.0559   -1.0862 H   0  0  0  0  0  0  0  0  0  0  0  0
    3.8998   -1.5432   -1.1329 H   0  0  0  0  0  0  0  0  0  0  0  0
    5.8411   -0.2865    0.8623 H   0  0  0  0  0  0  0  0  0  0  0  0
    8.3006   -1.0902   -0.2855 H   0  0  0  0  0  0  0  0  0  0  0  0
    7.8790   -2.2649    1.0361 H   0  0  0  0  0  0  0  0  0  0  0  0
    9.1999   -1.8812   -2.3257 H   0  0  0  0  0  0  0  0  0  0  0  0
   10.2380   -3.8291   -3.5328 H   0  0  0  0  0  0  0  0  0  0  0  0
   10.0526   -6.0943   -2.7071 H   0  0  0  0  0  0  0  0  0  0  0  0
    8.8283   -6.5665   -0.6341 H   0  0  0  0  0  0  0  0  0  0  0  0
    7.7742   -4.6591    0.6056 H   0  0  0  0  0  0  0  0  0  0  0  0
    2.2862   -1.5848    0.8431 H   0  0  0  0  0  0  0  0  0  0  0  0
    3.7582   -2.6383    1.0699 H   0  0  0  0  0  0  0  0  0  0  0  0
    5.4900   -2.0596    2.5634 H   0  0  0  0  0  0  0  0  0  0  0  0
    6.1810   -0.7924    4.5877 H   0  0  0  0  0  0  0  0  0  0  0  0
    2.8841    1.7650    4.1928 H   0  0  0  0  0  0  0  0  0  0  0  0
    2.1445    0.5571    2.1751 H   0  0  0  0  0  0  0  0  0  0  0  0
    2.9687    2.6385   -2.4383 H   0  0  0  0  0  0  0  0  0  0  0  0
    1.3120    2.1758   -2.8146 H   0  0  0  0  0  0  0  0  0  0  0  0
    3.4169    4.9355   -1.3474 H   0  0  0  0  0  0  0  0  0  0  0  0
    2.6408    7.2361   -1.4294 H   0  0  0  0  0  0  0  0  0  0  0  0
    0.3647    7.8856   -2.1784 H   0  0  0  0  0  0  0  0  0  0  0  0
   -1.1939    6.0455   -2.8816 H   0  0  0  0  0  0  0  0  0  0  0  0
   -0.4360    3.7173   -2.8127 H   0  0  0  0  0  0  0  0  0  0  0  0
   -6.5882    5.2468   -1.7994 H   0  0  0  0  0  0  0  0  0  0  0  0
   -5.9048    5.0642   -0.0965 H   0  0  0  0  0  0  0  0  0  0  0  0
  1  2  1  0
  2  3  2  3
  3  4  1  0
  4  5  1  0
  5  6  1  0
  6  7  1  0
  7  8  1  0
  8  9  2  0
  8 10  1  0
 10 11  1  0
 11 12  1  0
 12 13  2  0
 12 14  1  0
 11 15  1  0
 15 16  1  0
 16 17  2  0
 17 18  1  0
 18 19  1  0
 19 20  2  0
 20 21  1  0
 21 22  2  0
 22 23  1  0
 23 24  2  0
  7 25  1  0
 25 26  1  0
 26 27  2  0
 26 28  1  0
 28 29  1  0
 29 30  1  0
 30 31  2  0
 30 32  1  0
 32 33  1  0
 33 34  1  0
 34 35  2  0
 34 36  1  0
 36 37  1  0
 37 38  2  0
 38 39  1  0
 39 40  2  0
 40 41  1  0
 41 42  2  0
 32 43  1  0
 43 44  1  0
 44 45  2  0
 45 46  1  0
 46 47  2  0
 47 48  1  0
 48 49  2  0
 47 50  1  0
 28 51  1  0
 51 52  1  0
 52 53  2  0
 53 54  1  0
 54 55  2  0
 55 56  1  0
 56 57  2  0
  2 58  1  0
 20 16  1  0
 42 37  1  0
 49 44  1  0
 57 52  1  0
 24 19  1  0
  1 59  1  0
  1 60  1  0
  4 61  1  0
  4 62  1  0
  5 63  1  0
  5 64  1  0
  6 65  1  0
  6 66  1  0
  7 67  1  1
 10 68  1  0
 11 69  1  6
 14 70  1  0
 14 71  1  0
 15 72  1  0
 15 73  1  0
 17 74  1  0
 18 75  1  0
 21 76  1  0
 22 77  1  0
 23 78  1  0
 24 79  1  0
 25 80  1  0
 28 81  1  1
 29 82  1  0
 32 83  1  6
 33 84  1  0
 36 85  1  0
 36 86  1  0
 38 87  1  0
 39 88  1  0
 40 89  1  0
 41 90  1  0
 42 91  1  0
 43 92  1  0
 43 93  1  0
 45 94  1  0
 46 95  1  0
 48 96  1  0
 49 97  1  0
 51 98  1  0
 51 99  1  0
 53100  1  0
 54101  1  0
 55102  1  0
 56103  1  0
 57104  1  0
 58105  1  0
 58106  1  0
M  END
>  <Ligand ID>  (1) 
LIG0002628

>  <Ligand>  (1) 
CHEMBL263234

>  <SMILES>  (1) 
NC(=NCCC[C@@H](C(=O)N[C@H](C(=O)N)Cc1c[nH]c2c1cccc2)NC(=O)[C@@H](NC(=O)[C@@H](NC(=O)Cc1ccccc1)Cc1ccc(cc1)Cl)Cc1ccccc1)N

>  <CID>  (1) 
44394693.0

>  <ChEMBL ID>  (1) 
nan

>  <InChiKey>  (1) 
YHQGEUSAOKYJBE-BQYLNSIHSA-N

>  <InChi>  (1) 
InChI=1S/C43H48ClN9O5/c44-31-19-17-29(18-20-31)23-36(50-38(54)24-28-12-5-2-6-13-28)41(57)53-37(22-27-10-3-1-4-11-27)42(58)51-34(16-9-21-48-43(46)47)40(56)52-35(39(45)55)25-30-26-49-33-15-8-7-14-32(30)33/h1-8,10-15,17-20,26,34-37,49H,9,16,21-25H2,(H2,45,55)(H,50,54)(H,51,58)(H,52,56)(H,53,57)(H4,46,47,48)/t34-,35-,36-,37-/m0/s1

>  <IUPAC Name>  (1) 
(2S)-N-[(2S)-1-amino-3-(1H-indol-3-yl)-1-oxopropan-2-yl]-2-[[(2S)-2-[[(2S)-3-(4-chlorophenyl)-2-[(2-phenylacetyl)amino]propanoyl]amino]-3-phenylpropanoyl]amino]-5-(diaminomethylideneamino)pentanamide

$$$$
