
     RDKit          3D

 76 77  0  0  0  0  0  0  0  0999 V2000
    1.1237   -2.5416    2.4594 O   0  0  0  0  0  0  0  0  0  0  0  0
    0.9859   -2.1233    1.1387 C   0  0  2  0  0  0  0  0  0  0  0  0
    2.1635   -2.6433    0.3261 C   0  0  2  0  0  0  0  0  0  0  0  0
    2.6679   -3.8243    0.8573 O   0  0  0  0  0  0  0  0  0  0  0  0
    3.1371   -1.4930    0.4804 C   0  0  2  0  0  0  0  0  0  0  0  0
    2.2691   -0.4087    0.2327 O   0  0  0  0  0  0  0  0  0  0  0  0
    1.2302   -0.6375    1.1290 C   0  0  1  0  0  0  0  0  0  0  0  0
   -0.0045    0.0232    0.7622 N   0  0  0  0  0  0  0  0  0  0  0  0
   -0.3601    0.2744   -0.5121 C   0  0  0  0  0  0  0  0  0  0  0  0
   -1.5619    0.9152   -0.8249 C   0  0  0  0  0  0  0  0  0  0  0  0
   -2.3644    1.2769    0.2375 C   0  0  0  0  0  0  0  0  0  0  0  0
   -2.0035    1.0227    1.5185 N   0  0  0  0  0  0  0  0  0  0  0  0
   -0.8254    0.3966    1.7851 C   0  0  0  0  0  0  0  0  0  0  0  0
   -0.4773    0.1531    2.9864 O   0  0  0  0  0  0  0  0  0  0  0  0
   -3.5992    1.9328   -0.0342 N   0  0  0  0  0  0  0  0  0  0  0  0
   -3.9483    2.1806   -1.3073 O   0  0  0  0  0  0  0  0  0  0  0  0
   -4.7909    1.1976   -1.8242 C   0  0  0  0  0  0  0  0  0  0  0  0
   -6.0535    1.1013   -1.0293 C   0  0  0  0  0  0  0  0  0  0  0  0
   -7.1720    1.8391   -1.3247 C   0  0  0  0  0  0  0  0  0  0  0  0
   -8.2987    1.6812   -0.5281 C   0  0  0  0  0  0  0  0  0  0  0  0
   -8.3177    0.8154    0.5334 C   0  0  0  0  0  0  0  0  0  0  0  0
   -7.1797    0.0671    0.8310 C   0  0  0  0  0  0  0  0  0  0  0  0
   -6.0500    0.2210    0.0377 C   0  0  0  0  0  0  0  0  0  0  0  0
    4.2422   -1.5620   -0.5440 C   0  0  0  0  0  0  0  0  0  0  0  0
    4.9893   -0.4120   -0.5249 O   0  0  0  0  0  0  0  0  0  0  0  0
    6.2478   -0.4768   -1.6823 P   0  0  0  0  0  0  0  0  0  0  0  0
    5.6873   -0.7188   -3.0589 O   0  0  0  0  0  0  0  0  0  0  0  0
    7.0828    0.9934   -1.6691 O   0  0  0  0  0  0  0  0  0  0  0  0
    6.7784    1.7399   -0.1830 P   0  0  0  0  0  0  0  0  0  0  0  0
    6.5324    0.6409    0.8307 O   0  0  0  0  0  0  0  0  0  0  0  0
    5.3171    2.6106   -0.3496 O   0  0  0  0  0  0  0  0  0  0  0  0
    8.0409    2.7523    0.3004 O   0  0  0  0  0  0  0  0  0  0  0  0
    7.3088   -1.7367   -1.3223 O   0  0  0  0  0  0  0  0  0  0  0  0
    2.3093   -0.8501   -0.3291 C   0  0  0  0  0  0  0  0  0  0  0  0
    1.4585    0.1324    0.3360 C   0  0  0  0  0  0  0  0  0  0  0  0
    0.1358    0.3655   -0.0897 N   0  0  0  0  0  0  0  0  0  0  0  0
   -0.5047    1.3283    0.7079 C   0  0  0  0  0  0  0  0  0  0  0  0
   -1.8153    1.8501    0.1752 C   0  0  0  0  0  0  0  0  0  0  0  0
   -0.5381   -0.5130   -0.9021 C   0  0  0  0  0  0  0  0  0  0  0  0
   -0.7969   -1.8224   -0.1206 C   0  0  0  0  0  0  0  0  0  0  0  0
    1.8294   -3.2115    2.5532 H   0  0  0  0  0  0  0  0  0  0  0  0
    0.0169   -2.4094    0.6920 H   0  0  0  0  0  0  0  0  0  0  0  0
    1.9242   -2.7186   -0.7417 H   0  0  0  0  0  0  0  0  0  0  0  0
    3.0196   -4.3584    0.1015 H   0  0  0  0  0  0  0  0  0  0  0  0
    3.5089   -1.4353    1.5146 H   0  0  0  0  0  0  0  0  0  0  0  0
    1.5655   -0.2447    2.1052 H   0  0  0  0  0  0  0  0  0  0  0  0
    0.3133   -0.0346   -1.2994 H   0  0  0  0  0  0  0  0  0  0  0  0
   -1.8078    1.0965   -1.8530 H   0  0  0  0  0  0  0  0  0  0  0  0
   -4.2249    2.2159    0.7733 H   0  0  0  0  0  0  0  0  0  0  0  0
   -4.3477    0.2015   -1.8728 H   0  0  0  0  0  0  0  0  0  0  0  0
   -5.1048    1.4924   -2.8458 H   0  0  0  0  0  0  0  0  0  0  0  0
   -7.1293    2.5109   -2.1634 H   0  0  0  0  0  0  0  0  0  0  0  0
   -9.1715    2.2549   -0.7561 H   0  0  0  0  0  0  0  0  0  0  0  0
   -9.1672    0.6604    1.1776 H   0  0  0  0  0  0  0  0  0  0  0  0
   -7.1816   -0.6239    1.6711 H   0  0  0  0  0  0  0  0  0  0  0  0
   -5.1746   -0.3631    0.2769 H   0  0  0  0  0  0  0  0  0  0  0  0
    4.9040   -2.3928   -0.2250 H   0  0  0  0  0  0  0  0  0  0  0  0
    3.8248   -1.8298   -1.5190 H   0  0  0  0  0  0  0  0  0  0  0  0
    5.1740    2.8878   -1.3061 H   0  0  0  0  0  0  0  0  0  0  0  0
    7.6205    3.6197    0.5596 H   0  0  0  0  0  0  0  0  0  0  0  0
    6.8109   -2.5752   -1.1552 H   0  0  0  0  0  0  0  0  0  0  0  0
    1.9156   -1.3425   -1.2233 H   0  0  0  0  0  0  0  0  0  0  0  0
    2.6183   -1.6765    0.3535 H   0  0  0  0  0  0  0  0  0  0  0  0
    3.2916   -0.3949   -0.6743 H   0  0  0  0  0  0  0  0  0  0  0  0
    1.9885    1.1429    0.3108 H   0  0  0  0  0  0  0  0  0  0  0  0
    1.4292   -0.1142    1.4238 H   0  0  0  0  0  0  0  0  0  0  0  0
   -0.6911    0.8171    1.7187 H   0  0  0  0  0  0  0  0  0  0  0  0
    0.1343    2.1954    0.9694 H   0  0  0  0  0  0  0  0  0  0  0  0
   -2.6633    1.3498    0.6858 H   0  0  0  0  0  0  0  0  0  0  0  0
   -1.9596    2.9477    0.4311 H   0  0  0  0  0  0  0  0  0  0  0  0
   -1.8745    1.8555   -0.9339 H   0  0  0  0  0  0  0  0  0  0  0  0
   -0.1639   -0.7838   -1.8781 H   0  0  0  0  0  0  0  0  0  0  0  0
   -1.5999   -0.1248   -1.0887 H   0  0  0  0  0  0  0  0  0  0  0  0
   -1.3798   -1.5757    0.7820 H   0  0  0  0  0  0  0  0  0  0  0  0
   -1.4378   -2.4416   -0.7876 H   0  0  0  0  0  0  0  0  0  0  0  0
    0.1439   -2.3453    0.1332 H   0  0  0  0  0  0  0  0  0  0  0  0
  1  2  1  0
  2  3  1  0
  3  4  1  0
  3  5  1  0
  5  6  1  0
  6  7  1  0
  7  8  1  0
  8  9  1  0
  9 10  2  0
 10 11  1  0
 11 12  2  0
 12 13  1  0
 13 14  2  0
 11 15  1  0
 15 16  1  0
 16 17  1  0
 17 18  1  0
 18 19  2  0
 19 20  1  0
 20 21  2  0
 21 22  1  0
 22 23  2  0
  5 24  1  0
 24 25  1  0
 25 26  1  0
 26 27  2  0
 26 28  1  0
 28 29  1  0
 29 30  2  0
 29 31  1  0
 29 32  1  0
 26 33  1  0
 34 35  1  0
 35 36  1  0
 36 37  1  0
 37 38  1  0
 36 39  1  0
 39 40  1  0
  7  2  1  0
 13  8  1  0
 23 18  1  0
  1 41  1  0
  2 42  1  6
  3 43  1  6
  4 44  1  0
  5 45  1  1
  7 46  1  1
  9 47  1  0
 10 48  1  0
 15 49  1  0
 17 50  1  0
 17 51  1  0
 19 52  1  0
 20 53  1  0
 21 54  1  0
 22 55  1  0
 23 56  1  0
 24 57  1  0
 24 58  1  0
 31 59  1  0
 32 60  1  0
 33 61  1  0
 34 62  1  0
 34 63  1  0
 34 64  1  0
 35 65  1  0
 35 66  1  0
 37 67  1  0
 37 68  1  0
 38 69  1  0
 38 70  1  0
 38 71  1  0
 39 72  1  0
 39 73  1  0
 40 74  1  0
 40 75  1  0
 40 76  1  0
M  END
>  <Ligand ID>  (1) 
LIG0004375

>  <Ligand>  (1) 
CHEMBL1084612

>  <SMILES>  (1) 
O[C@@H]1[C@H](O)[C@H](O[C@H]1n1ccc(nc1=O)NOCc1ccccc1)COP(=O)(OP(=O)(O)O)O.CCN(CC)CC

>  <CID>  (1) 
46831685.0

>  <ChEMBL ID>  (1) 
nan

>  <InChiKey>  (1) 
AEIHJAGESPJDDO-MOAMTLHQSA-N

>  <InChi>  (1) 
InChI=1S/C16H21N3O12P2.C6H15N/c20-13-11(9-29-33(26,27)31-32(23,24)25)30-15(14(13)21)19-7-6-12(17-16(19)22)18-28-8-10-4-2-1-3-5-10;1-4-7(5-2)6-3/h1-7,11,13-15,20-21H,8-9H2,(H,26,27)(H,17,18,22)(H2,23,24,25);4-6H2,1-3H3/t11-,13-,14-,15-;/m1./s1

>  <IUPAC Name>  (1) 
N,N-diethylethanamine;[(2R,3S,4R,5R)-3,4-dihydroxy-5-[2-oxo-4-(phenylmethoxyamino)pyrimidin-1-yl]oxolan-2-yl]methyl phosphono hydrogen phosphate

$$$$
