
     RDKit          3D

 46 45  0  0  0  0  0  0  0  0999 V2000
   -6.7640   -0.8776   -0.1383 C   0  0  0  0  0  0  0  0  0  0  0  0
   -5.6761   -1.7057    0.5075 C   0  0  0  0  0  0  0  0  0  0  0  0
   -4.2957   -1.1357    0.1863 C   0  0  0  0  0  0  0  0  0  0  0  0
   -4.2197    0.2614    0.7052 C   0  0  0  0  0  0  0  0  0  0  0  0
   -2.8891    0.9366    0.4451 C   0  0  0  0  0  0  0  0  0  0  0  0
   -1.7435    0.2184    1.0722 C   0  0  0  0  0  0  0  0  0  0  0  0
   -0.4599    0.9592    0.7659 C   0  0  0  0  0  0  0  0  0  0  0  0
   -0.1625    1.0786   -0.6959 C   0  0  0  0  0  0  0  0  0  0  0  0
    1.1288    1.8222   -0.9639 C   0  0  0  0  0  0  0  0  0  0  0  0
    2.3186    1.1227   -0.3287 C   0  0  0  0  0  0  0  0  0  0  0  0
    2.4805   -0.2816   -0.8712 C   0  0  0  0  0  0  0  0  0  0  0  0
    3.6579   -0.9998   -0.2543 C   0  0  0  0  0  0  0  0  0  0  0  0
    4.9418   -0.2798   -0.5187 C   0  0  0  0  0  0  0  0  0  0  0  0
    6.0452   -1.0682    0.1312 C   0  0  0  0  0  0  0  0  0  0  0  0
    5.8343   -2.1004    0.7443 O   0  0  0  0  0  0  0  0  0  0  0  0
    7.4564   -0.6075    0.0466 C   0  0  0  0  0  0  0  0  0  0  0  0
   -6.8475    0.0912    0.3805 H   0  0  0  0  0  0  0  0  0  0  0  0
   -6.5489   -0.7266   -1.2103 H   0  0  0  0  0  0  0  0  0  0  0  0
   -7.7132   -1.4204    0.0260 H   0  0  0  0  0  0  0  0  0  0  0  0
   -5.8579   -1.6436    1.6019 H   0  0  0  0  0  0  0  0  0  0  0  0
   -5.8044   -2.7346    0.1663 H   0  0  0  0  0  0  0  0  0  0  0  0
   -4.2356   -1.1276   -0.9140 H   0  0  0  0  0  0  0  0  0  0  0  0
   -3.5541   -1.8185    0.6598 H   0  0  0  0  0  0  0  0  0  0  0  0
   -4.9666    0.8642    0.1455 H   0  0  0  0  0  0  0  0  0  0  0  0
   -4.5058    0.3413    1.7736 H   0  0  0  0  0  0  0  0  0  0  0  0
   -2.9555    1.9533    0.8848 H   0  0  0  0  0  0  0  0  0  0  0  0
   -2.7891    0.9934   -0.6582 H   0  0  0  0  0  0  0  0  0  0  0  0
   -1.8654    0.2373    2.1783 H   0  0  0  0  0  0  0  0  0  0  0  0
   -1.6616   -0.8118    0.6989 H   0  0  0  0  0  0  0  0  0  0  0  0
    0.4134    0.4572    1.2782 H   0  0  0  0  0  0  0  0  0  0  0  0
   -0.4616    1.9828    1.2078 H   0  0  0  0  0  0  0  0  0  0  0  0
   -0.2109    0.1099   -1.1891 H   0  0  0  0  0  0  0  0  0  0  0  0
   -0.9628    1.7251   -1.1627 H   0  0  0  0  0  0  0  0  0  0  0  0
    1.3461    1.8427   -2.0505 H   0  0  0  0  0  0  0  0  0  0  0  0
    1.0633    2.8455   -0.5959 H   0  0  0  0  0  0  0  0  0  0  0  0
    3.2123    1.7027   -0.6652 H   0  0  0  0  0  0  0  0  0  0  0  0
    2.3128    1.1362    0.7653 H   0  0  0  0  0  0  0  0  0  0  0  0
    2.6627   -0.2855   -1.9629 H   0  0  0  0  0  0  0  0  0  0  0  0
    1.5492   -0.8265   -0.6822 H   0  0  0  0  0  0  0  0  0  0  0  0
    3.5166   -1.0895    0.8361 H   0  0  0  0  0  0  0  0  0  0  0  0
    3.6848   -2.0123   -0.7015 H   0  0  0  0  0  0  0  0  0  0  0  0
    5.0882   -0.2507   -1.6173 H   0  0  0  0  0  0  0  0  0  0  0  0
    4.9067    0.7378   -0.0670 H   0  0  0  0  0  0  0  0  0  0  0  0
    7.8522   -0.3957    1.0584 H   0  0  0  0  0  0  0  0  0  0  0  0
    8.1190   -1.4104   -0.3770 H   0  0  0  0  0  0  0  0  0  0  0  0
    7.5605    0.2618   -0.6407 H   0  0  0  0  0  0  0  0  0  0  0  0
  1  2  1  0
  2  3  1  0
  3  4  1  0
  4  5  1  0
  5  6  1  0
  6  7  1  0
  7  8  1  0
  8  9  1  0
  9 10  1  0
 10 11  1  0
 11 12  1  0
 12 13  1  0
 13 14  1  0
 14 15  2  0
 14 16  1  0
  1 17  1  0
  1 18  1  0
  1 19  1  0
  2 20  1  0
  2 21  1  0
  3 22  1  0
  3 23  1  0
  4 24  1  0
  4 25  1  0
  5 26  1  0
  5 27  1  0
  6 28  1  0
  6 29  1  0
  7 30  1  0
  7 31  1  0
  8 32  1  0
  8 33  1  0
  9 34  1  0
  9 35  1  0
 10 36  1  0
 10 37  1  0
 11 38  1  0
 11 39  1  0
 12 40  1  0
 12 41  1  0
 13 42  1  0
 13 43  1  0
 16 44  1  0
 16 45  1  0
 16 46  1  0
M  END
>  <Ligand ID>  (1) 
LIG0000547

>  <Ligand>  (1) 
2-Pentadecanone

>  <SMILES>  (1) 
CCCCCCCCCCCCCC(=O)C

>  <CID>  (1) 
61303.0

>  <ChEMBL ID>  (1) 
nan

>  <InChiKey>  (1) 
CJPNOLIZCWDHJK-UHFFFAOYSA-N

>  <InChi>  (1) 
InChI=1S/C15H30O/c1-3-4-5-6-7-8-9-10-11-12-13-14-15(2)16/h3-14H2,1-2H3

>  <IUPAC Name>  (1) 
pentadecan-2-one

$$$$
