
     RDKit          3D

 73 76  0  0  0  0  0  0  0  0999 V2000
   -4.0622   -1.1044   -2.8267 O   0  0  0  0  0  0  0  0  0  0  0  0
   -2.9860   -1.1345   -1.8825 C   0  0  1  0  0  0  0  0  0  0  0  0
   -2.2014    0.0841   -2.0596 C   0  0  0  0  0  0  0  0  0  0  0  0
   -1.0901    0.3879   -1.2807 N   0  0  0  0  0  0  0  0  0  0  0  0
    0.1185   -0.2999   -1.3210 C   0  0  0  0  0  0  0  0  0  0  0  0
    1.1108    0.5706   -0.5264 C   0  0  0  0  0  0  0  0  0  0  0  0
    2.4558    0.0385   -0.4375 C   0  0  0  0  0  0  0  0  0  0  0  0
    2.9283   -0.7707    0.6010 C   0  0  0  0  0  0  0  0  0  0  0  0
    4.2307   -1.2302    0.5798 C   0  0  0  0  0  0  0  0  0  0  0  0
    5.1173   -0.9331   -0.4248 C   0  0  0  0  0  0  0  0  0  0  0  0
    4.6569   -0.1322   -1.4551 C   0  0  0  0  0  0  0  0  0  0  0  0
    3.3638    0.3401   -1.4619 C   0  0  0  0  0  0  0  0  0  0  0  0
    6.4251   -1.3773   -0.4723 O   0  0  0  0  0  0  0  0  0  0  0  0
    7.4752   -0.6339    0.0829 C   0  0  0  0  0  0  0  0  0  0  0  0
    8.7658   -1.1291    0.0003 C   0  0  0  0  0  0  0  0  0  0  0  0
    9.8048   -0.4046    0.5417 C   0  0  0  0  0  0  0  0  0  0  0  0
    9.5551    0.8137    1.1659 C   0  0  0  0  0  0  0  0  0  0  0  0
    8.2519    1.2588    1.2197 C   0  0  0  0  0  0  0  0  0  0  0  0
    7.2172    0.5635    0.6939 N   0  0  0  0  0  0  0  0  0  0  0  0
   10.6497    1.6031    1.7468 C   0  0  0  0  0  0  0  0  0  0  0  0
   10.4250    2.7125    2.3358 O   0  0  0  0  0  0  0  0  0  0  0  0
   11.9727    1.0898    1.6308 N   0  0  0  0  0  0  0  0  0  0  0  0
    0.6851   -0.5914   -2.6761 C   0  0  0  0  0  0  0  0  0  0  0  0
    0.0283   -1.5890   -0.5128 C   0  0  0  0  0  0  0  0  0  0  0  0
   -3.6312   -1.3895   -0.5652 C   0  0  0  0  0  0  0  0  0  0  0  0
   -4.5681   -0.5984   -0.0602 O   0  0  0  0  0  0  0  0  0  0  0  0
   -4.8511    0.5931    0.3802 C   0  0  0  0  0  0  0  0  0  0  0  0
   -4.0562    1.7128    0.5279 C   0  0  0  0  0  0  0  0  0  0  0  0
   -4.4671    2.9196    1.0091 C   0  0  0  0  0  0  0  0  0  0  0  0
   -5.7646    3.0851    1.3909 C   0  0  0  0  0  0  0  0  0  0  0  0
   -6.6236    2.0186    1.2776 C   0  0  0  0  0  0  0  0  0  0  0  0
   -6.1989    0.8164    0.7941 C   0  0  0  0  0  0  0  0  0  0  0  0
   -7.3013   -0.0204    0.8123 C   0  0  0  0  0  0  0  0  0  0  0  0
   -7.4418   -1.3332    0.4351 C   0  0  0  0  0  0  0  0  0  0  0  0
   -8.6717   -1.9417    0.5554 C   0  0  0  0  0  0  0  0  0  0  0  0
   -9.7817   -1.2685    1.0494 C   0  0  0  0  0  0  0  0  0  0  0  0
   -9.5992    0.0522    1.4179 C   0  0  0  0  0  0  0  0  0  0  0  0
   -8.3735    0.6935    1.3090 C   0  0  0  0  0  0  0  0  0  0  0  0
   -7.9411    1.9486    1.5912 N   0  0  0  0  0  0  0  0  0  0  0  0
    0.6869    0.0000    0.0000 Cl  0  0  0  0  0  0  0  0  0  0  0  0
   -4.7677   -1.7284   -2.5989 H   0  0  0  0  0  0  0  0  0  0  0  0
   -2.4481   -2.0748   -2.2092 H   0  0  0  0  0  0  0  0  0  0  0  0
   -2.9318    0.9474   -1.9772 H   0  0  0  0  0  0  0  0  0  0  0  0
   -1.9223    0.2235   -3.1833 H   0  0  0  0  0  0  0  0  0  0  0  0
   -1.0017    1.3626   -0.9495 H   0  0  0  0  0  0  0  0  0  0  0  0
    1.1455    1.5429   -1.0792 H   0  0  0  0  0  0  0  0  0  0  0  0
    0.6571    0.8240    0.4603 H   0  0  0  0  0  0  0  0  0  0  0  0
    2.2643   -1.0222    1.4137 H   0  0  0  0  0  0  0  0  0  0  0  0
    4.5695   -1.8586    1.3943 H   0  0  0  0  0  0  0  0  0  0  0  0
    5.3574    0.1089   -2.2605 H   0  0  0  0  0  0  0  0  0  0  0  0
    3.0174    0.9779   -2.2901 H   0  0  0  0  0  0  0  0  0  0  0  0
    8.8983   -2.0803   -0.4928 H   0  0  0  0  0  0  0  0  0  0  0  0
   10.8079   -0.7689    0.4880 H   0  0  0  0  0  0  0  0  0  0  0  0
    8.0382    2.2191    1.7088 H   0  0  0  0  0  0  0  0  0  0  0  0
   12.1973    0.2586    2.2492 H   0  0  0  0  0  0  0  0  0  0  0  0
   12.6772    1.5037    0.9801 H   0  0  0  0  0  0  0  0  0  0  0  0
    0.7708    0.3319   -3.2841 H   0  0  0  0  0  0  0  0  0  0  0  0
    1.7078   -1.0314   -2.6233 H   0  0  0  0  0  0  0  0  0  0  0  0
    0.0966   -1.3092   -3.2621 H   0  0  0  0  0  0  0  0  0  0  0  0
    1.0756   -2.0164   -0.3912 H   0  0  0  0  0  0  0  0  0  0  0  0
   -0.5053   -2.4108   -1.0277 H   0  0  0  0  0  0  0  0  0  0  0  0
   -0.4505   -1.4415    0.4626 H   0  0  0  0  0  0  0  0  0  0  0  0
   -2.7876   -1.6455    0.1679 H   0  0  0  0  0  0  0  0  0  0  0  0
   -4.1046   -2.4502   -0.6492 H   0  0  0  0  0  0  0  0  0  0  0  0
   -3.0242    1.6120    0.2529 H   0  0  0  0  0  0  0  0  0  0  0  0
   -3.7855    3.7788    1.1056 H   0  0  0  0  0  0  0  0  0  0  0  0
   -6.0920    4.0264    1.7683 H   0  0  0  0  0  0  0  0  0  0  0  0
   -6.5581   -1.8550    0.0463 H   0  0  0  0  0  0  0  0  0  0  0  0
   -8.7825   -2.9773    0.2570 H   0  0  0  0  0  0  0  0  0  0  0  0
  -10.7302   -1.7660    1.1319 H   0  0  0  0  0  0  0  0  0  0  0  0
  -10.4634    0.5961    1.8102 H   0  0  0  0  0  0  0  0  0  0  0  0
   -8.5526    2.7028    1.9833 H   0  0  0  0  0  0  0  0  0  0  0  0
   -0.6869    0.0000    0.0000 H   0  0  0  0  0  0  0  0  0  0  0  0
  1  2  1  0
  2  3  1  0
  3  4  1  0
  4  5  1  0
  5  6  1  0
  6  7  1  0
  7  8  2  0
  8  9  1  0
  9 10  2  0
 10 11  1  0
 11 12  2  0
 10 13  1  0
 13 14  1  0
 14 15  2  0
 15 16  1  0
 16 17  2  0
 17 18  1  0
 18 19  2  0
 17 20  1  0
 20 21  2  0
 20 22  1  0
  5 23  1  0
  5 24  1  0
  2 25  1  0
 25 26  1  0
 26 27  1  0
 27 28  2  0
 28 29  1  0
 29 30  2  0
 30 31  1  0
 31 32  2  0
 32 33  1  0
 33 34  2  0
 34 35  1  0
 35 36  2  0
 36 37  1  0
 37 38  2  0
 38 39  1  0
 12  7  1  0
 19 14  1  0
 32 27  1  0
 38 33  1  0
 39 31  1  0
  1 41  1  0
  2 42  1  6
  3 43  1  0
  3 44  1  0
  4 45  1  0
  6 46  1  0
  6 47  1  0
  8 48  1  0
  9 49  1  0
 11 50  1  0
 12 51  1  0
 15 52  1  0
 16 53  1  0
 18 54  1  0
 22 55  1  0
 22 56  1  0
 23 57  1  0
 23 58  1  0
 23 59  1  0
 24 60  1  0
 24 61  1  0
 24 62  1  0
 25 63  1  0
 25 64  1  0
 28 65  1  0
 29 66  1  0
 30 67  1  0
 34 68  1  0
 35 69  1  0
 36 70  1  0
 37 71  1  0
 39 72  1  0
 40 73  1  0
M  END
>  <Ligand ID>  (1) 
LIG0001484

>  <Ligand>  (1) 
CHEMBL2012521

>  <SMILES>  (1) 
O[C@@H](CNC(Cc1ccc(cc1)Oc1ccc(cn1)C(=O)N)(C)C)COc1cccc2c1c1ccccc1[nH]2.Cl

>  <CID>  (1) 
9872550.0

>  <ChEMBL ID>  (1) 
nan

>  <InChiKey>  (1) 
WXJMSVGWWYAGRR-FTBISJDPSA-N

>  <InChi>  (1) 
InChI=1S/C31H32N4O4.ClH/c1-31(2,16-20-10-13-23(14-11-20)39-28-15-12-21(17-33-28)30(32)37)34-18-22(36)19-38-27-9-5-8-26-29(27)24-6-3-4-7-25(24)35-26;/h3-15,17,22,34-36H,16,18-19H2,1-2H3,(H2,32,37);1H/t22-;/m0./s1

>  <IUPAC Name>  (1) 
6-[4-[2-[[(2S)-3-(9H-carbazol-4-yloxy)-2-hydroxypropyl]amino]-2-methylpropyl]phenoxy]pyridine-3-carboxamide;hydrochloride

$$$$
