
     RDKit          3D

147153  0  0  0  0  0  0  0  0999 V2000
  -10.2785   -2.8218   -1.4103 C   0  0  0  0  0  0  0  0  0  0  0  0
   -9.2829   -1.6920   -1.5571 C   0  0  0  0  0  0  0  0  0  0  0  0
   -9.3198   -0.7301   -0.3836 C   0  0  0  0  0  0  0  0  0  0  0  0
   -9.0057   -1.3903    0.9060 C   0  0  0  0  0  0  0  0  0  0  0  0
   -7.6635   -2.0615    1.0314 C   0  0  1  0  0  0  0  0  0  0  0  0
   -6.5652   -1.0392    0.8740 C   0  0  0  0  0  0  0  0  0  0  0  0
   -6.5788   -0.4291   -0.1984 O   0  0  0  0  0  0  0  0  0  0  0  0
   -5.6600   -0.8836    1.9255 N   0  0  0  0  0  0  0  0  0  0  0  0
   -4.5712   -0.0890    2.2168 C   0  0  1  0  0  0  0  0  0  0  0  0
   -3.3455   -0.9454    2.6853 C   0  0  0  0  0  0  0  0  0  0  0  0
   -3.0544   -1.9055    1.5594 C   0  0  0  0  0  0  0  0  0  0  0  0
   -3.9414   -2.6793    1.1482 O   0  0  0  0  0  0  0  0  0  0  0  0
   -1.8085   -1.9761    0.9086 N   0  0  0  0  0  0  0  0  0  0  0  0
   -1.4517   -2.8684   -0.1645 C   0  0  0  0  0  0  0  0  0  0  0  0
   -1.4298   -4.2876    0.3912 C   0  0  0  0  0  0  0  0  0  0  0  0
   -0.9072   -5.2636   -0.6434 C   0  0  0  0  0  0  0  0  0  0  0  0
    0.4362   -4.8715   -1.1779 C   0  0  0  0  0  0  0  0  0  0  0  0
    1.5228   -4.6539   -0.2029 C   0  0  2  0  0  0  0  0  0  0  0  0
    2.7765   -4.1866   -0.8373 N   0  0  0  0  0  0  0  0  0  0  0  0
    2.9489   -2.7824   -1.1499 C   0  0  0  0  0  0  0  0  0  0  0  0
    1.9469   -2.1146   -0.9629 O   0  0  0  0  0  0  0  0  0  0  0  0
    4.1762   -2.1788   -1.6572 C   0  0  1  0  0  0  0  0  0  0  0  0
    3.9814   -0.8067   -2.1422 N   0  0  0  0  0  0  0  0  0  0  0  0
    3.3802    0.2355   -1.3926 C   0  0  0  0  0  0  0  0  0  0  0  0
    3.0130   -0.0406   -0.2465 O   0  0  0  0  0  0  0  0  0  0  0  0
    3.1676    1.6136   -1.8871 C   0  0  1  0  0  0  0  0  0  0  0  0
    2.4692    2.4553   -0.9352 N   0  0  0  0  0  0  0  0  0  0  0  0
    1.1760    2.9089   -1.2497 C   0  0  0  0  0  0  0  0  0  0  0  0
    0.7311    2.4086   -2.3461 O   0  0  0  0  0  0  0  0  0  0  0  0
    0.2702    3.8206   -0.5528 C   0  0  2  0  0  0  0  0  0  0  0  0
   -1.1275    3.6489   -0.9274 N   0  0  0  0  0  0  0  0  0  0  0  0
   -2.0194    2.8624   -0.0317 C   0  0  0  0  0  0  0  0  0  0  0  0
   -1.3700    2.4221    0.9076 O   0  0  0  0  0  0  0  0  0  0  0  0
   -3.4375    2.7260   -0.3821 C   0  0  1  0  0  0  0  0  0  0  0  0
   -4.2398    1.7358    0.3426 N   0  0  0  0  0  0  0  0  0  0  0  0
   -3.9649    0.9900    1.4708 C   0  0  0  0  0  0  0  0  0  0  0  0
   -2.8406    1.3865    2.0240 O   0  0  0  0  0  0  0  0  0  0  0  0
   -4.2181    4.0063   -0.2089 C   0  0  0  0  0  0  0  0  0  0  0  0
   -3.7688    5.1673   -0.9855 C   0  0  0  0  0  0  0  0  0  0  0  0
   -4.0962    5.5578   -2.2517 N   0  0  0  0  0  0  0  0  0  0  0  0
   -3.4528    6.7357   -2.4573 C   0  0  0  0  0  0  0  0  0  0  0  0
   -2.7467    7.0857   -1.3831 N   0  0  0  0  0  0  0  0  0  0  0  0
   -2.9239    6.1380   -0.4614 C   0  0  0  0  0  0  0  0  0  0  0  0
    0.6251    5.2624   -0.8797 C   0  0  0  0  0  0  0  0  0  0  0  0
    1.9487    5.7086   -0.5221 C   0  0  0  0  0  0  0  0  0  0  0  0
    3.0521    5.6287   -1.3676 C   0  0  0  0  0  0  0  0  0  0  0  0
    4.3171    6.0600   -0.9653 C   0  0  0  0  0  0  0  0  0  0  0  0
    4.4938    6.5884    0.3206 C   0  0  0  0  0  0  0  0  0  0  0  0
    3.3962    6.6752    1.1792 C   0  0  0  0  0  0  0  0  0  0  0  0
    2.1865    6.2351    0.7229 C   0  0  0  0  0  0  0  0  0  0  0  0
    3.5074    7.1789    2.4606 C   0  0  0  0  0  0  0  0  0  0  0  0
    4.7829    7.6040    2.8663 C   0  0  0  0  0  0  0  0  0  0  0  0
    5.8689    7.5212    2.0212 C   0  0  0  0  0  0  0  0  0  0  0  0
    5.7176    7.0118    0.7491 C   0  0  0  0  0  0  0  0  0  0  0  0
    3.2691    2.6081    0.2248 C   0  0  0  0  0  0  0  0  0  0  0  0
    4.6771    2.2566   -0.1887 C   0  0  1  0  0  0  0  0  0  0  0  0
    4.5757    2.2816   -1.7058 C   0  0  0  0  0  0  0  0  0  0  0  0
    5.6456    3.1947    0.2749 N   0  0  0  0  0  0  0  0  0  0  0  0
    6.8612    2.7350    0.4139 C   0  0  0  0  0  0  0  0  0  0  0  0
    7.2388    1.4041    0.1330 N   0  0  0  0  0  0  0  0  0  0  0  0
    7.8929    3.6057    0.8903 N   0  0  0  0  0  0  0  0  0  0  0  0
    5.3335   -2.2210   -0.7079 C   0  0  0  0  0  0  0  0  0  0  0  0
    5.7308   -3.5832   -0.3277 C   0  0  0  0  0  0  0  0  0  0  0  0
    5.5152   -4.2076    0.8611 C   0  0  0  0  0  0  0  0  0  0  0  0
    6.0323   -5.4446    0.8656 N   0  0  0  0  0  0  0  0  0  0  0  0
    6.5910   -5.6070   -0.3577 C   0  0  0  0  0  0  0  0  0  0  0  0
    6.4347   -4.4919   -1.1340 C   0  0  0  0  0  0  0  0  0  0  0  0
    6.8979   -4.3687   -2.4217 C   0  0  0  0  0  0  0  0  0  0  0  0
    7.5666   -5.4580   -2.9632 C   0  0  0  0  0  0  0  0  0  0  0  0
    7.7620   -6.6340   -2.2255 C   0  0  0  0  0  0  0  0  0  0  0  0
    7.2651   -6.6771   -0.9294 C   0  0  0  0  0  0  0  0  0  0  0  0
    1.7641   -5.7715    0.7010 C   0  0  0  0  0  0  0  0  0  0  0  0
    2.9780   -6.1890    0.7975 O   0  0  0  0  0  0  0  0  0  0  0  0
    0.8283   -6.4597    1.4917 N   0  0  0  0  0  0  0  0  0  0  0  0
   -7.6401   -2.6901    2.3339 N   0  0  0  0  0  0  0  0  0  0  0  0
   -7.4361   -4.1145    2.4749 C   0  0  0  0  0  0  0  0  0  0  0  0
   -7.2830   -4.7657    1.4194 O   0  0  0  0  0  0  0  0  0  0  0  0
   -7.4190   -4.7204    3.8362 C   0  0  0  0  0  0  0  0  0  0  0  0
   -9.8593   -3.7263   -0.9290 H   0  0  0  0  0  0  0  0  0  0  0  0
  -10.5842   -3.1191   -2.4468 H   0  0  0  0  0  0  0  0  0  0  0  0
  -11.2198   -2.5044   -0.8982 H   0  0  0  0  0  0  0  0  0  0  0  0
   -9.5740   -1.1163   -2.4562 H   0  0  0  0  0  0  0  0  0  0  0  0
   -8.2792   -2.1031   -1.7479 H   0  0  0  0  0  0  0  0  0  0  0  0
   -8.6908    0.1168   -0.5890 H   0  0  0  0  0  0  0  0  0  0  0  0
  -10.3938   -0.4126   -0.3169 H   0  0  0  0  0  0  0  0  0  0  0  0
   -9.8528   -2.0261    1.2933 H   0  0  0  0  0  0  0  0  0  0  0  0
   -8.9944   -0.5480    1.6775 H   0  0  0  0  0  0  0  0  0  0  0  0
   -7.5414   -2.8736    0.2692 H   0  0  0  0  0  0  0  0  0  0  0  0
   -5.8707   -1.6048    2.7562 H   0  0  0  0  0  0  0  0  0  0  0  0
   -4.8887    0.4574    3.2016 H   0  0  0  0  0  0  0  0  0  0  0  0
   -3.5715   -1.4585    3.6384 H   0  0  0  0  0  0  0  0  0  0  0  0
   -2.5032   -0.2659    2.8731 H   0  0  0  0  0  0  0  0  0  0  0  0
   -1.0896   -1.3200    1.2457 H   0  0  0  0  0  0  0  0  0  0  0  0
   -2.3073   -2.8239   -0.9450 H   0  0  0  0  0  0  0  0  0  0  0  0
   -0.5482   -2.6512   -0.6907 H   0  0  0  0  0  0  0  0  0  0  0  0
   -2.4987   -4.5621    0.5500 H   0  0  0  0  0  0  0  0  0  0  0  0
   -0.9339   -4.2909    1.3455 H   0  0  0  0  0  0  0  0  0  0  0  0
   -0.8320   -6.2535   -0.1618 H   0  0  0  0  0  0  0  0  0  0  0  0
   -1.6349   -5.2579   -1.4804 H   0  0  0  0  0  0  0  0  0  0  0  0
    0.2922   -4.0493   -1.9074 H   0  0  0  0  0  0  0  0  0  0  0  0
    0.7584   -5.7562   -1.8114 H   0  0  0  0  0  0  0  0  0  0  0  0
    1.1964   -3.7668    0.4179 H   0  0  0  0  0  0  0  0  0  0  0  0
    3.5476   -4.7766   -1.0979 H   0  0  0  0  0  0  0  0  0  0  0  0
    4.4451   -2.8063   -2.5330 H   0  0  0  0  0  0  0  0  0  0  0  0
    4.2957   -0.5399   -3.0851 H   0  0  0  0  0  0  0  0  0  0  0  0
    2.9028    1.7340   -2.9134 H   0  0  0  0  0  0  0  0  0  0  0  0
    0.3809    3.6358    0.5165 H   0  0  0  0  0  0  0  0  0  0  0  0
   -1.5930    3.9889   -1.7477 H   0  0  0  0  0  0  0  0  0  0  0  0
   -3.4839    2.4535   -1.4997 H   0  0  0  0  0  0  0  0  0  0  0  0
   -5.1825    1.6128   -0.0803 H   0  0  0  0  0  0  0  0  0  0  0  0
   -5.2997    3.8639   -0.4613 H   0  0  0  0  0  0  0  0  0  0  0  0
   -4.2701    4.2718    0.8969 H   0  0  0  0  0  0  0  0  0  0  0  0
   -4.7043    5.0518   -2.9090 H   0  0  0  0  0  0  0  0  0  0  0  0
   -3.5721    7.2570   -3.4187 H   0  0  0  0  0  0  0  0  0  0  0  0
   -2.4843    6.1313    0.5378 H   0  0  0  0  0  0  0  0  0  0  0  0
    0.4237    5.4462   -1.9843 H   0  0  0  0  0  0  0  0  0  0  0  0
   -0.1133    5.9053   -0.3682 H   0  0  0  0  0  0  0  0  0  0  0  0
    2.8733    5.2110   -2.3593 H   0  0  0  0  0  0  0  0  0  0  0  0
    5.1537    5.9969   -1.6390 H   0  0  0  0  0  0  0  0  0  0  0  0
    1.3466    6.3111    1.4147 H   0  0  0  0  0  0  0  0  0  0  0  0
    2.6550    7.2459    3.1337 H   0  0  0  0  0  0  0  0  0  0  0  0
    4.8297    7.9907    3.8771 H   0  0  0  0  0  0  0  0  0  0  0  0
    6.8280    7.8619    2.3997 H   0  0  0  0  0  0  0  0  0  0  0  0
    6.6030    6.9605    0.1134 H   0  0  0  0  0  0  0  0  0  0  0  0
    3.2618    3.6230    0.6993 H   0  0  0  0  0  0  0  0  0  0  0  0
    2.9796    1.8841    1.0456 H   0  0  0  0  0  0  0  0  0  0  0  0
    4.9340    1.2214    0.1611 H   0  0  0  0  0  0  0  0  0  0  0  0
    4.5936    3.2955   -2.0925 H   0  0  0  0  0  0  0  0  0  0  0  0
    5.3718    1.5986   -2.0511 H   0  0  0  0  0  0  0  0  0  0  0  0
    7.3592    1.0380   -0.8330 H   0  0  0  0  0  0  0  0  0  0  0  0
    7.3968    0.7884    0.9928 H   0  0  0  0  0  0  0  0  0  0  0  0
    7.6131    4.2002    1.7176 H   0  0  0  0  0  0  0  0  0  0  0  0
    8.8421    3.6549    0.4652 H   0  0  0  0  0  0  0  0  0  0  0  0
    6.2181   -1.8207   -1.2896 H   0  0  0  0  0  0  0  0  0  0  0  0
    5.1964   -1.5669    0.1793 H   0  0  0  0  0  0  0  0  0  0  0  0
    4.9910   -3.7642    1.6876 H   0  0  0  0  0  0  0  0  0  0  0  0
    5.9964   -6.1258    1.6596 H   0  0  0  0  0  0  0  0  0  0  0  0
    6.7620   -3.4730   -3.0016 H   0  0  0  0  0  0  0  0  0  0  0  0
    7.9474   -5.4191   -3.9693 H   0  0  0  0  0  0  0  0  0  0  0  0
    8.2869   -7.4798   -2.6508 H   0  0  0  0  0  0  0  0  0  0  0  0
    7.3831   -7.5469   -0.3022 H   0  0  0  0  0  0  0  0  0  0  0  0
    0.3056   -6.0647    2.2924 H   0  0  0  0  0  0  0  0  0  0  0  0
    0.6307   -7.4698    1.2655 H   0  0  0  0  0  0  0  0  0  0  0  0
   -7.7719   -2.1584    3.2290 H   0  0  0  0  0  0  0  0  0  0  0  0
   -7.9926   -5.6610    3.7926 H   0  0  0  0  0  0  0  0  0  0  0  0
   -6.4104   -4.9528    4.2098 H   0  0  0  0  0  0  0  0  0  0  0  0
   -7.9593   -4.0565    4.5653 H   0  0  0  0  0  0  0  0  0  0  0  0
  1  2  1  0
  2  3  1  0
  3  4  1  0
  4  5  1  0
  5  6  1  0
  6  7  2  0
  6  8  1  0
  8  9  1  0
  9 10  1  0
 10 11  1  0
 11 12  2  0
 11 13  1  0
 13 14  1  0
 14 15  1  0
 15 16  1  0
 16 17  1  0
 17 18  1  0
 18 19  1  0
 19 20  1  0
 20 21  2  0
 20 22  1  0
 22 23  1  0
 23 24  1  0
 24 25  2  0
 24 26  1  0
 26 27  1  0
 27 28  1  0
 28 29  2  0
 28 30  1  0
 30 31  1  0
 31 32  1  0
 32 33  2  0
 32 34  1  0
 34 35  1  0
 35 36  1  0
 36 37  2  0
 34 38  1  0
 38 39  1  0
 39 40  1  0
 40 41  1  0
 41 42  2  0
 42 43  1  0
 30 44  1  0
 44 45  1  0
 45 46  2  0
 46 47  1  0
 47 48  2  0
 48 49  1  0
 49 50  2  0
 49 51  1  0
 51 52  2  0
 52 53  1  0
 53 54  2  0
 27 55  1  0
 55 56  1  0
 56 57  1  0
 56 58  1  0
 58 59  2  3
 59 60  1  0
 59 61  1  0
 22 62  1  0
 62 63  1  0
 63 64  2  0
 64 65  1  0
 65 66  1  0
 66 67  2  0
 67 68  1  0
 68 69  2  0
 69 70  1  0
 70 71  2  0
 18 72  1  0
 72 73  2  0
 72 74  1  0
  5 75  1  0
 75 76  1  0
 76 77  2  0
 76 78  1  0
 36  9  1  0
 43 39  2  0
 50 45  1  0
 67 63  1  0
 57 26  1  0
 71 66  1  0
 54 48  1  0
  1 79  1  0
  1 80  1  0
  1 81  1  0
  2 82  1  0
  2 83  1  0
  3 84  1  0
  3 85  1  0
  4 86  1  0
  4 87  1  0
  5 88  1  6
  8 89  1  0
  9 90  1  1
 10 91  1  0
 10 92  1  0
 13 93  1  0
 14 94  1  0
 14 95  1  0
 15 96  1  0
 15 97  1  0
 16 98  1  0
 16 99  1  0
 17100  1  0
 17101  1  0
 18102  1  1
 19103  1  0
 22104  1  6
 23105  1  0
 26106  1  6
 30107  1  1
 31108  1  0
 34109  1  6
 35110  1  0
 38111  1  0
 38112  1  0
 40113  1  0
 41114  1  0
 43115  1  0
 44116  1  0
 44117  1  0
 46118  1  0
 47119  1  0
 50120  1  0
 51121  1  0
 52122  1  0
 53123  1  0
 54124  1  0
 55125  1  0
 55126  1  0
 56127  1  1
 57128  1  0
 57129  1  0
 60130  1  0
 60131  1  0
 61132  1  0
 61133  1  0
 62134  1  0
 62135  1  0
 64136  1  0
 65137  1  0
 68138  1  0
 69139  1  0
 70140  1  0
 71141  1  0
 74142  1  0
 74143  1  0
 75144  1  0
 78145  1  0
 78146  1  0
 78147  1  0
M  END
>  <Ligand ID>  (1) 
LIG0001783

>  <Ligand>  (1) 
CHEMBL508501

>  <SMILES>  (1) 
CCCC[C@@H](C(=O)N[C@H]1CC(=O)NCCCC[C@H](NC(=O)[C@@H](NC(=O)[C@H]2N(C(=O)[C@H](NC(=O)[C@@H](NC1=O)Cc1[nH]cnc1)Cc1ccc3c(c1)cccc3)C[C@@H](C2)N=C(N)N)Cc1c[nH]c2c1cccc2)C(=O)N)NC(=O)C

>  <CID>  (1) 
44158255.0

>  <ChEMBL ID>  (1) 
nan

>  <InChiKey>  (1) 
AODONYDDQNDROG-KJOXKCFISA-N

>  <InChi>  (1) 
InChI=1S/C54H69N15O9/c1-3-4-14-40(62-30(2)70)48(73)66-43-25-46(71)59-19-10-9-16-39(47(55)72)64-49(74)41(22-34-26-60-38-15-8-7-13-37(34)38)67-52(77)45-24-36(63-54(56)57)28-69(45)53(78)44(21-31-17-18-32-11-5-6-12-33(32)20-31)68-50(75)42(65-51(43)76)23-35-27-58-29-61-35/h5-8,11-13,15,17-18,20,26-27,29,36,39-45,60H,3-4,9-10,14,16,19,21-25,28H2,1-2H3,(H2,55,72)(H,58,61)(H,59,71)(H,62,70)(H,64,74)(H,65,76)(H,66,73)(H,67,77)(H,68,75)(H4,56,57,63)/t36-,39+,40+,41+,42+,43+,44-,45+/m1/s1

>  <IUPAC Name>  (1) 
(3R,6S,9S,17S,20S,23S,25R)-9-[[(2S)-2-acetamidohexanoyl]amino]-25-(diaminomethylideneamino)-6-(1H-imidazol-5-ylmethyl)-20-(1H-indol-3-ylmethyl)-3-(naphthalen-2-ylmethyl)-2,5,8,11,19,22-hexaoxo-1,4,7,12,18,21-hexazabicyclo[21.3.0]hexacosane-17-carboxamide

$$$$
