
     RDKit          3D

 18 19  0  0  0  0  0  0  0  0999 V2000
   -2.8161    0.1184   -0.8961 N   0  0  0  0  0  0  0  0  0  0  0  0
   -1.6139   -0.3876   -0.2548 C   0  0  2  0  0  0  0  0  0  0  0  0
   -1.3374    0.1325    1.0960 C   0  0  0  0  0  0  0  0  0  0  0  0
   -0.4802    0.5178   -0.1290 C   0  0  1  0  0  0  0  0  0  0  0  0
    0.9228    0.0371   -0.0405 C   0  0  0  0  0  0  0  0  0  0  0  0
    1.2896   -1.2281    0.4138 C   0  0  0  0  0  0  0  0  0  0  0  0
    2.6442   -1.3200    0.3585 N   0  0  0  0  0  0  0  0  0  0  0  0
    3.0926   -0.1242   -0.1238 C   0  0  0  0  0  0  0  0  0  0  0  0
    2.0572    0.6869   -0.3618 N   0  0  0  0  0  0  0  0  0  0  0  0
   -3.2654    0.9032   -0.3864 H   0  0  0  0  0  0  0  0  0  0  0  0
   -2.5487    0.4377   -1.8527 H   0  0  0  0  0  0  0  0  0  0  0  0
   -1.4941   -1.4892   -0.4261 H   0  0  0  0  0  0  0  0  0  0  0  0
   -0.8999   -0.5726    1.8285 H   0  0  0  0  0  0  0  0  0  0  0  0
   -1.8813    0.9788    1.5509 H   0  0  0  0  0  0  0  0  0  0  0  0
   -0.5826    1.5400   -0.5088 H   0  0  0  0  0  0  0  0  0  0  0  0
    0.6720   -2.0349    0.7601 H   0  0  0  0  0  0  0  0  0  0  0  0
    4.1355    0.1451   -0.2951 H   0  0  0  0  0  0  0  0  0  0  0  0
    2.1056    1.6591   -0.7329 H   0  0  0  0  0  0  0  0  0  0  0  0
  1  2  1  0
  2  3  1  0
  3  4  1  0
  4  5  1  0
  5  6  2  0
  6  7  1  0
  7  8  2  0
  8  9  1  0
  4  2  1  0
  9  5  1  0
  1 10  1  0
  1 11  1  0
  2 12  1  1
  3 13  1  0
  3 14  1  0
  4 15  1  6
  6 16  1  0
  8 17  1  0
  9 18  1  0
M  END
>  <Ligand ID>  (1) 
LIG0002418

>  <Ligand>  (1) 
VUF-5296

>  <SMILES>  (1) 
N[C@@H]1C[C@H]1c1cnc[nH]1

>  <CID>  (1) 
10103168.0

>  <ChEMBL ID>  (1) 
nan

>  <InChiKey>  (1) 
OWWNABDDYQLERE-RFZPGFLSSA-N

>  <InChi>  (1) 
InChI=1S/C6H9N3/c7-5-1-4(5)6-2-8-3-9-6/h2-5H,1,7H2,(H,8,9)/t4-,5-/m1/s1

>  <IUPAC Name>  (1) 
(1R,2R)-2-(1H-imidazol-5-yl)cyclopropan-1-amine

$$$$
