
     RDKit          3D

 32 32  0  0  0  0  0  0  0  0999 V2000
   -0.3055   -1.5936   -1.3062 O   0  0  0  0  0  0  0  0  0  0  0  0
   -0.6118   -1.6486   -0.0909 C   0  0  0  0  0  0  0  0  0  0  0  0
    0.4966   -1.9226    0.8313 C   0  0  0  0  0  0  0  0  0  0  0  0
    1.8344   -1.8535    0.0967 C   0  0  0  0  0  0  0  0  0  0  0  0
    2.0043   -0.4997   -0.5479 C   0  0  0  0  0  0  0  0  0  0  0  0
    1.9938    0.6557    0.3943 C   0  0  0  0  0  0  0  0  0  0  0  0
    1.5395    1.9308   -0.3164 C   0  0  0  0  0  0  0  0  0  0  0  0
    0.0853    1.7237   -0.7773 C   0  0  0  0  0  0  0  0  0  0  0  0
   -0.7830    1.4721    0.3863 C   0  0  0  0  0  0  0  0  0  0  0  0
   -2.1937    1.1087    0.2207 C   0  0  0  0  0  0  0  0  0  0  0  0
   -2.5851   -0.1561   -0.4180 C   0  0  0  0  0  0  0  0  0  0  0  0
   -2.0327   -1.4225    0.1840 C   0  0  0  0  0  0  0  0  0  0  0  0
    0.3967   -3.0164    1.1071 H   0  0  0  0  0  0  0  0  0  0  0  0
    0.4534   -1.3656    1.7559 H   0  0  0  0  0  0  0  0  0  0  0  0
    1.7773   -2.5930   -0.7224 H   0  0  0  0  0  0  0  0  0  0  0  0
    2.6960   -2.0743    0.7127 H   0  0  0  0  0  0  0  0  0  0  0  0
    1.4288   -0.3232   -1.4554 H   0  0  0  0  0  0  0  0  0  0  0  0
    3.0798   -0.5748   -0.9710 H   0  0  0  0  0  0  0  0  0  0  0  0
    1.5397    0.4912    1.3737 H   0  0  0  0  0  0  0  0  0  0  0  0
    3.0745    0.9039    0.6521 H   0  0  0  0  0  0  0  0  0  0  0  0
    1.5381    2.7372    0.4043 H   0  0  0  0  0  0  0  0  0  0  0  0
    2.1814    2.0855   -1.1703 H   0  0  0  0  0  0  0  0  0  0  0  0
    0.0129    1.0731   -1.6460 H   0  0  0  0  0  0  0  0  0  0  0  0
   -0.1827    2.7482   -1.1840 H   0  0  0  0  0  0  0  0  0  0  0  0
   -0.3605    0.7808    1.1678 H   0  0  0  0  0  0  0  0  0  0  0  0
   -0.8078    2.4592    0.9904 H   0  0  0  0  0  0  0  0  0  0  0  0
   -2.6339    1.0804    1.2745 H   0  0  0  0  0  0  0  0  0  0  0  0
   -2.7442    2.0005   -0.2189 H   0  0  0  0  0  0  0  0  0  0  0  0
   -2.3756   -0.2198   -1.5061 H   0  0  0  0  0  0  0  0  0  0  0  0
   -3.7131   -0.2315   -0.3675 H   0  0  0  0  0  0  0  0  0  0  0  0
   -2.1705   -1.4369    1.2999 H   0  0  0  0  0  0  0  0  0  0  0  0
   -2.6323   -2.3190   -0.1535 H   0  0  0  0  0  0  0  0  0  0  0  0
  1  2  2  0
  2  3  1  0
  3  4  1  0
  4  5  1  0
  5  6  1  0
  6  7  1  0
  7  8  1  0
  8  9  1  0
  9 10  1  0
 10 11  1  0
 11 12  1  0
 12  2  1  0
  3 13  1  0
  3 14  1  0
  4 15  1  0
  4 16  1  0
  5 17  1  0
  5 18  1  0
  6 19  1  0
  6 20  1  0
  7 21  1  0
  7 22  1  0
  8 23  1  0
  8 24  1  0
  9 25  1  0
  9 26  1  0
 10 27  1  0
 10 28  1  0
 11 29  1  0
 11 30  1  0
 12 31  1  0
 12 32  1  0
M  END
>  <Ligand ID>  (1) 
LIG0000419

>  <Ligand>  (1) 
cycloundecanone

>  <SMILES>  (1) 
O=C1CCCCCCCCCC1

>  <CID>  (1) 
13420.0

>  <ChEMBL ID>  (1) 
nan

>  <InChiKey>  (1) 
UPOSSYJVWXLPTA-UHFFFAOYSA-N

>  <InChi>  (1) 
InChI=1S/C11H20O/c12-11-9-7-5-3-1-2-4-6-8-10-11/h1-10H2

>  <IUPAC Name>  (1) 
cycloundecanone

$$$$
