
     RDKit          3D

 20 20  0  0  0  0  0  0  0  0999 V2000
    3.9237   -1.0969    0.3195 O   0  0  0  0  0  0  0  0  0  0  0  0
    3.4347    0.0090    0.0552 C   0  0  0  0  0  0  0  0  0  0  0  0
    2.0350    0.3289    0.5135 C   0  0  0  0  0  0  0  0  0  0  0  0
    1.1086   -0.3405   -0.4457 C   0  0  0  0  0  0  0  0  0  0  0  0
   -0.3238   -0.1648   -0.1926 C   0  0  0  0  0  0  0  0  0  0  0  0
   -1.0137    0.8872   -0.7449 C   0  0  0  0  0  0  0  0  0  0  0  0
   -2.3642    1.0503   -0.5053 C   0  0  0  0  0  0  0  0  0  0  0  0
   -3.0469    0.1675    0.2880 C   0  0  0  0  0  0  0  0  0  0  0  0
   -2.3821   -0.9064    0.8624 C   0  0  0  0  0  0  0  0  0  0  0  0
   -1.0354   -1.0438    0.6058 C   0  0  0  0  0  0  0  0  0  0  0  0
    4.0104    0.7602   -0.5100 H   0  0  0  0  0  0  0  0  0  0  0  0
    1.8850    1.4007    0.6325 H   0  0  0  0  0  0  0  0  0  0  0  0
    1.9504   -0.1320    1.5306 H   0  0  0  0  0  0  0  0  0  0  0  0
    1.3550   -1.3955   -0.5440 H   0  0  0  0  0  0  0  0  0  0  0  0
    1.3275    0.1289   -1.4484 H   0  0  0  0  0  0  0  0  0  0  0  0
   -0.4899    1.5929   -1.3734 H   0  0  0  0  0  0  0  0  0  0  0  0
   -2.8614    1.8910   -0.9616 H   0  0  0  0  0  0  0  0  0  0  0  0
   -4.0973    0.3448    0.4392 H   0  0  0  0  0  0  0  0  0  0  0  0
   -2.9133   -1.5972    1.4832 H   0  0  0  0  0  0  0  0  0  0  0  0
   -0.5024   -1.8843    1.0515 H   0  0  0  0  0  0  0  0  0  0  0  0
  1  2  2  0
  2  3  1  0
  3  4  1  0
  4  5  1  0
  5  6  2  0
  6  7  1  0
  7  8  2  0
  8  9  1  0
  9 10  2  0
 10  5  1  0
  2 11  1  0
  3 12  1  0
  3 13  1  0
  4 14  1  0
  4 15  1  0
  6 16  1  0
  7 17  1  0
  8 18  1  0
  9 19  1  0
 10 20  1  0
M  END
>  <Ligand ID>  (1) 
LIG0000279

>  <Ligand>  (1) 
3-phenylpropanal

>  <SMILES>  (1) 
O=CCCc1ccccc1

>  <CID>  (1) 
7707.0

>  <ChEMBL ID>  (1) 
nan

>  <InChiKey>  (1) 
YGCZTXZTJXYWCO-UHFFFAOYSA-N

>  <InChi>  (1) 
InChI=1S/C9H10O/c10-8-4-7-9-5-2-1-3-6-9/h1-3,5-6,8H,4,7H2

>  <IUPAC Name>  (1) 
3-phenylpropanal

$$$$
