
     RDKit          3D

 19 19  0  0  0  0  0  0  0  0999 V2000
   -0.9502    2.6392   -0.0139 C   0  0  0  0  0  0  0  0  0  0  0  0
   -1.1782    1.2395   -0.0575 O   0  0  0  0  0  0  0  0  0  0  0  0
   -0.1228    0.3615    0.0059 C   0  0  0  0  0  0  0  0  0  0  0  0
    1.2028    0.7601    0.1137 C   0  0  0  0  0  0  0  0  0  0  0  0
    2.2241   -0.1725    0.1735 C   0  0  0  0  0  0  0  0  0  0  0  0
    1.9313   -1.5202    0.1260 C   0  0  0  0  0  0  0  0  0  0  0  0
    0.6154   -1.9489    0.0182 C   0  0  0  0  0  0  0  0  0  0  0  0
   -0.3836   -0.9914   -0.0394 C   0  0  0  0  0  0  0  0  0  0  0  0
   -1.8129   -1.4422   -0.1561 C   0  0  0  0  0  0  0  0  0  0  0  0
   -0.6811    2.9837   -1.0470 H   0  0  0  0  0  0  0  0  0  0  0  0
   -1.9317    3.1567    0.1859 H   0  0  0  0  0  0  0  0  0  0  0  0
   -0.1811    2.9239    0.7202 H   0  0  0  0  0  0  0  0  0  0  0  0
    1.4285    1.8072    0.1505 H   0  0  0  0  0  0  0  0  0  0  0  0
    3.2663    0.1150    0.2579 H   0  0  0  0  0  0  0  0  0  0  0  0
    2.7195   -2.2884    0.1712 H   0  0  0  0  0  0  0  0  0  0  0  0
    0.3682   -2.9984   -0.0202 H   0  0  0  0  0  0  0  0  0  0  0  0
   -2.3771   -1.0303    0.6997 H   0  0  0  0  0  0  0  0  0  0  0  0
   -2.2837   -1.0472   -1.0864 H   0  0  0  0  0  0  0  0  0  0  0  0
   -1.8539   -2.5472   -0.2021 H   0  0  0  0  0  0  0  0  0  0  0  0
  1  2  1  0
  2  3  1  0
  3  4  2  0
  4  5  1  0
  5  6  2  0
  6  7  1  0
  7  8  2  0
  8  9  1  0
  8  3  1  0
  1 10  1  0
  1 11  1  0
  1 12  1  0
  4 13  1  0
  5 14  1  0
  6 15  1  0
  7 16  1  0
  9 17  1  0
  9 18  1  0
  9 19  1  0
M  END
>  <Ligand ID>  (1) 
LIG0000319

>  <Ligand>  (1) 
2-Methylanisole

>  <SMILES>  (1) 
COc1ccccc1C

>  <CID>  (1) 
33637.0

>  <ChEMBL ID>  (1) 
nan

>  <InChiKey>  (1) 
DTFKRVXLBCAIOZ-UHFFFAOYSA-N

>  <InChi>  (1) 
InChI=1S/C8H10O/c1-7-5-3-4-6-8(7)9-2/h3-6H,1-2H3

>  <IUPAC Name>  (1) 
1-methoxy-2-methylbenzene

$$$$
