
     RDKit          3D

126127  0  0  0  0  0  0  0  0999 V2000
    2.1897   -5.3879   -3.0847 N   0  0  0  0  0  0  0  0  0  0  0  0
    1.3035   -4.2223   -2.9963 C   0  0  0  0  0  0  0  0  0  0  0  0
    1.7729   -3.1233   -3.8954 C   0  0  0  0  0  0  0  0  0  0  0  0
    0.9717   -1.8901   -3.8838 C   0  0  0  0  0  0  0  0  0  0  0  0
    0.8651   -1.1992   -2.5842 N   0  0  0  0  0  0  0  0  0  0  0  0
   -0.2466   -1.5310   -1.8114 C   0  0  0  0  0  0  0  0  0  0  0  0
   -1.0526   -2.3930   -2.2979 O   0  0  0  0  0  0  0  0  0  0  0  0
   -0.6465   -1.0094   -0.4772 C   0  0  2  0  0  0  0  0  0  0  0  0
    0.2434   -1.4208    0.6537 C   0  0  0  0  0  0  0  0  0  0  0  0
   -0.2456   -0.8440    1.9445 C   0  0  0  0  0  0  0  0  0  0  0  0
   -1.0981   -1.5387    2.7880 C   0  0  0  0  0  0  0  0  0  0  0  0
   -1.5330   -0.9683    3.9939 C   0  0  0  0  0  0  0  0  0  0  0  0
   -1.0838    0.2903    4.2972 C   0  0  0  0  0  0  0  0  0  0  0  0
   -0.2396    1.0240    3.4993 C   0  0  0  0  0  0  0  0  0  0  0  0
    0.1736    0.4330    2.3129 C   0  0  0  0  0  0  0  0  0  0  0  0
   -1.9902   -1.5373   -0.1888 N   0  0  0  0  0  0  0  0  0  0  0  0
   -3.0761   -0.6873   -0.4061 C   0  0  0  0  0  0  0  0  0  0  0  0
   -2.7303    0.5040   -0.8501 O   0  0  0  0  0  0  0  0  0  0  0  0
   -4.4940   -0.8687   -0.2406 C   0  0  2  0  0  0  0  0  0  0  0  0
   -5.1861   -1.9716   -0.9716 C   0  0  0  0  0  0  0  0  0  0  0  0
   -4.7578   -3.3420   -0.7179 C   0  0  0  0  0  0  0  0  0  0  0  0
   -3.8758   -4.0571   -1.5068 C   0  0  0  0  0  0  0  0  0  0  0  0
   -3.4959   -5.3493   -1.2524 C   0  0  0  0  0  0  0  0  0  0  0  0
   -4.0383   -5.9567   -0.1329 C   0  0  0  0  0  0  0  0  0  0  0  0
   -4.9140   -5.3172    0.6933 C   0  0  0  0  0  0  0  0  0  0  0  0
   -5.2663   -3.9981    0.3841 C   0  0  0  0  0  0  0  0  0  0  0  0
   -5.2008    0.4028   -0.5913 N   0  0  0  0  0  0  0  0  0  0  0  0
   -6.2074    0.9654    0.2071 C   0  0  0  0  0  0  0  0  0  0  0  0
   -6.6076    0.4381    1.3042 O   0  0  0  0  0  0  0  0  0  0  0  0
   -6.8619    2.2524   -0.2382 C   0  0  1  0  0  0  0  0  0  0  0  0
   -6.1424    2.6848   -1.4387 N   0  0  0  0  0  0  0  0  0  0  0  0
   -5.4083    3.8868   -1.3626 C   0  0  0  0  0  0  0  0  0  0  0  0
   -5.4048    4.5393   -0.2890 O   0  0  0  0  0  0  0  0  0  0  0  0
   -4.6545    4.3372   -2.5786 C   0  0  0  0  0  0  0  0  0  0  0  0
   -8.2998    2.0267   -0.5700 C   0  0  0  0  0  0  0  0  0  0  0  0
   -9.1334    1.5196    0.5826 C   0  0  0  0  0  0  0  0  0  0  0  0
   -9.0504    2.5941    1.6641 C   0  0  0  0  0  0  0  0  0  0  0  0
   -9.5851    3.7905    1.1267 N   0  0  0  0  0  0  0  0  0  0  0  0
   -9.4862    4.9736    1.5875 C   0  0  0  0  0  0  0  0  0  0  0  0
  -10.1371    6.0033    0.8223 N   0  0  0  0  0  0  0  0  0  0  0  0
   -8.7996    5.3481    2.7689 N   0  0  0  0  0  0  0  0  0  0  0  0
    1.9194   -0.2753   -2.3190 C   0  0  0  0  0  0  0  0  0  0  0  0
    3.1009   -0.8208   -1.6319 C   0  0  0  0  0  0  0  0  0  0  0  0
    3.2153   -1.9679   -1.1938 O   0  0  0  0  0  0  0  0  0  0  0  0
    4.2191    0.0723   -1.4718 N   0  0  0  0  0  0  0  0  0  0  0  0
    5.3977   -0.5202   -0.7908 C   0  0  2  0  0  0  0  0  0  0  0  0
    6.1377    0.4946   -0.0592 C   0  0  0  0  0  0  0  0  0  0  0  0
    5.9175    1.7153   -0.3412 O   0  0  0  0  0  0  0  0  0  0  0  0
    7.0958    0.2654    0.9581 N   0  0  0  0  0  0  0  0  0  0  0  0
    7.8164    1.3374    1.6279 C   0  0  2  0  0  0  0  0  0  0  0  0
    9.1761    0.9637    1.9870 C   0  0  0  0  0  0  0  0  0  0  0  0
    9.5771   -0.2224    1.6781 O   0  0  0  0  0  0  0  0  0  0  0  0
   10.1382    1.7593    2.6489 N   0  0  0  0  0  0  0  0  0  0  0  0
    6.9990    1.9429    2.7588 C   0  0  0  0  0  0  0  0  0  0  0  0
    7.6875    3.0476    3.4828 C   0  0  0  0  0  0  0  0  0  0  0  0
    8.1277    4.4302    2.4004 S   0  0  0  0  0  0  0  0  0  0  0  0
    8.9500    5.6798    3.4609 C   0  0  0  0  0  0  0  0  0  0  0  0
    6.2633   -1.1291   -1.9180 C   0  0  0  0  0  0  0  0  0  0  0  0
    7.5056   -1.8040   -1.4302 C   0  0  0  0  0  0  0  0  0  0  0  0
    8.3192   -2.3521   -2.6163 C   0  0  0  0  0  0  0  0  0  0  0  0
    7.1969   -2.9927   -0.5008 C   0  0  0  0  0  0  0  0  0  0  0  0
    3.1879   -5.0856   -3.0013 H   0  0  0  0  0  0  0  0  0  0  0  0
    1.9606   -6.1127   -2.3669 H   0  0  0  0  0  0  0  0  0  0  0  0
    0.2551   -4.5264   -3.2089 H   0  0  0  0  0  0  0  0  0  0  0  0
    1.3460   -3.8803   -1.9490 H   0  0  0  0  0  0  0  0  0  0  0  0
    2.8523   -2.9770   -3.6641 H   0  0  0  0  0  0  0  0  0  0  0  0
    1.6813   -3.5458   -4.9547 H   0  0  0  0  0  0  0  0  0  0  0  0
    1.3181   -1.1355   -4.6178 H   0  0  0  0  0  0  0  0  0  0  0  0
   -0.0659   -2.1618   -4.2552 H   0  0  0  0  0  0  0  0  0  0  0  0
   -0.6378    0.0838   -0.5802 H   0  0  0  0  0  0  0  0  0  0  0  0
    0.1997   -2.5347    0.8238 H   0  0  0  0  0  0  0  0  0  0  0  0
    1.2944   -1.0939    0.5610 H   0  0  0  0  0  0  0  0  0  0  0  0
   -1.3943   -2.5098    2.4667 H   0  0  0  0  0  0  0  0  0  0  0  0
   -2.1903   -1.5004    4.6500 H   0  0  0  0  0  0  0  0  0  0  0  0
   -1.4050    0.7449    5.2232 H   0  0  0  0  0  0  0  0  0  0  0  0
    0.0721    2.0150    3.8042 H   0  0  0  0  0  0  0  0  0  0  0  0
    0.8345    1.0025    1.6820 H   0  0  0  0  0  0  0  0  0  0  0  0
   -2.1713   -2.4873    0.1629 H   0  0  0  0  0  0  0  0  0  0  0  0
   -4.7410   -1.0246    0.8383 H   0  0  0  0  0  0  0  0  0  0  0  0
   -6.2945   -1.9495   -0.8117 H   0  0  0  0  0  0  0  0  0  0  0  0
   -5.0152   -1.7803   -2.0745 H   0  0  0  0  0  0  0  0  0  0  0  0
   -3.4613   -3.5887   -2.3852 H   0  0  0  0  0  0  0  0  0  0  0  0
   -2.8011   -5.8954   -1.8890 H   0  0  0  0  0  0  0  0  0  0  0  0
   -3.7524   -6.9741    0.0784 H   0  0  0  0  0  0  0  0  0  0  0  0
   -5.3007   -5.8360    1.5472 H   0  0  0  0  0  0  0  0  0  0  0  0
   -5.9672   -3.5414    1.0822 H   0  0  0  0  0  0  0  0  0  0  0  0
   -4.8423    0.8102   -1.4973 H   0  0  0  0  0  0  0  0  0  0  0  0
   -6.7240    3.0025    0.5452 H   0  0  0  0  0  0  0  0  0  0  0  0
   -6.1822    2.1029   -2.3251 H   0  0  0  0  0  0  0  0  0  0  0  0
   -3.8399    5.0447   -2.3354 H   0  0  0  0  0  0  0  0  0  0  0  0
   -5.3870    4.7245   -3.3022 H   0  0  0  0  0  0  0  0  0  0  0  0
   -4.2230    3.4031   -3.0050 H   0  0  0  0  0  0  0  0  0  0  0  0
   -8.7717    3.0101   -0.8632 H   0  0  0  0  0  0  0  0  0  0  0  0
   -8.3945    1.3145   -1.4142 H   0  0  0  0  0  0  0  0  0  0  0  0
   -8.8762    0.5275    0.9460 H   0  0  0  0  0  0  0  0  0  0  0  0
  -10.1983    1.5472    0.2334 H   0  0  0  0  0  0  0  0  0  0  0  0
   -8.0397    2.7391    2.0424 H   0  0  0  0  0  0  0  0  0  0  0  0
   -9.6375    2.1883    2.5241 H   0  0  0  0  0  0  0  0  0  0  0  0
  -11.0415    6.3610    1.2145 H   0  0  0  0  0  0  0  0  0  0  0  0
   -9.7468    6.3779   -0.0637 H   0  0  0  0  0  0  0  0  0  0  0  0
   -7.8139    5.7271    2.6997 H   0  0  0  0  0  0  0  0  0  0  0  0
   -9.2104    5.2781    3.7322 H   0  0  0  0  0  0  0  0  0  0  0  0
    2.2462    0.2078   -3.2528 H   0  0  0  0  0  0  0  0  0  0  0  0
    1.4729    0.5481   -1.6835 H   0  0  0  0  0  0  0  0  0  0  0  0
    4.2116    1.0510   -1.8083 H   0  0  0  0  0  0  0  0  0  0  0  0
    5.0597   -1.3580   -0.2131 H   0  0  0  0  0  0  0  0  0  0  0  0
    7.3169   -0.6992    1.2759 H   0  0  0  0  0  0  0  0  0  0  0  0
    7.8359    2.1680    0.8612 H   0  0  0  0  0  0  0  0  0  0  0  0
   10.5252    2.6233    2.2051 H   0  0  0  0  0  0  0  0  0  0  0  0
   10.4519    1.4438    3.6199 H   0  0  0  0  0  0  0  0  0  0  0  0
    6.6541    1.1851    3.4848 H   0  0  0  0  0  0  0  0  0  0  0  0
    6.0590    2.4071    2.3303 H   0  0  0  0  0  0  0  0  0  0  0  0
    8.5516    2.7804    4.0868 H   0  0  0  0  0  0  0  0  0  0  0  0
    6.9302    3.4415    4.2281 H   0  0  0  0  0  0  0  0  0  0  0  0
    8.2215    5.9264    4.2866 H   0  0  0  0  0  0  0  0  0  0  0  0
    9.8553    5.2815    3.9136 H   0  0  0  0  0  0  0  0  0  0  0  0
    9.1728    6.5889    2.8765 H   0  0  0  0  0  0  0  0  0  0  0  0
    5.5994   -1.8991   -2.3862 H   0  0  0  0  0  0  0  0  0  0  0  0
    6.5030   -0.3305   -2.6359 H   0  0  0  0  0  0  0  0  0  0  0  0
    8.1863   -1.1448   -0.8751 H   0  0  0  0  0  0  0  0  0  0  0  0
    9.3960   -2.4435   -2.3729 H   0  0  0  0  0  0  0  0  0  0  0  0
    8.2207   -1.6020   -3.4220 H   0  0  0  0  0  0  0  0  0  0  0  0
    7.9528   -3.3532   -2.8379 H   0  0  0  0  0  0  0  0  0  0  0  0
    6.5016   -2.6331    0.2676 H   0  0  0  0  0  0  0  0  0  0  0  0
    6.6953   -3.7689   -1.1236 H   0  0  0  0  0  0  0  0  0  0  0  0
    8.1746   -3.3088   -0.1116 H   0  0  0  0  0  0  0  0  0  0  0  0
  1  2  1  0
  2  3  1  0
  3  4  1  0
  4  5  1  0
  5  6  1  0
  6  7  2  0
  6  8  1  0
  8  9  1  0
  9 10  1  0
 10 11  2  0
 11 12  1  0
 12 13  2  0
 13 14  1  0
 14 15  2  0
  8 16  1  0
 16 17  1  0
 17 18  2  0
 17 19  1  0
 19 20  1  0
 20 21  1  0
 21 22  2  0
 22 23  1  0
 23 24  2  0
 24 25  1  0
 25 26  2  0
 19 27  1  0
 27 28  1  0
 28 29  2  0
 28 30  1  0
 30 31  1  0
 31 32  1  0
 32 33  2  0
 32 34  1  0
 30 35  1  0
 35 36  1  0
 36 37  1  0
 37 38  1  0
 38 39  2  3
 39 40  1  0
 39 41  1  0
  5 42  1  0
 42 43  1  0
 43 44  2  0
 43 45  1  0
 45 46  1  0
 46 47  1  0
 47 48  2  0
 47 49  1  0
 49 50  1  0
 50 51  1  0
 51 52  2  0
 51 53  1  0
 50 54  1  0
 54 55  1  0
 55 56  1  0
 56 57  1  0
 46 58  1  0
 58 59  1  0
 59 60  1  0
 59 61  1  0
 15 10  1  0
 26 21  1  0
  1 62  1  0
  1 63  1  0
  2 64  1  0
  2 65  1  0
  3 66  1  0
  3 67  1  0
  4 68  1  0
  4 69  1  0
  8 70  1  6
  9 71  1  0
  9 72  1  0
 11 73  1  0
 12 74  1  0
 13 75  1  0
 14 76  1  0
 15 77  1  0
 16 78  1  0
 19 79  1  1
 20 80  1  0
 20 81  1  0
 22 82  1  0
 23 83  1  0
 24 84  1  0
 25 85  1  0
 26 86  1  0
 27 87  1  0
 30 88  1  1
 31 89  1  0
 34 90  1  0
 34 91  1  0
 34 92  1  0
 35 93  1  0
 35 94  1  0
 36 95  1  0
 36 96  1  0
 37 97  1  0
 37 98  1  0
 40 99  1  0
 40100  1  0
 41101  1  0
 41102  1  0
 42103  1  0
 42104  1  0
 45105  1  0
 46106  1  1
 49107  1  0
 50108  1  6
 53109  1  0
 53110  1  0
 54111  1  0
 54112  1  0
 55113  1  0
 55114  1  0
 57115  1  0
 57116  1  0
 57117  1  0
 58118  1  0
 58119  1  0
 59120  1  0
 60121  1  0
 60122  1  0
 60123  1  0
 61124  1  0
 61125  1  0
 61126  1  0
M  END
>  <Ligand ID>  (1) 
LIG0003431

>  <Ligand>  (1) 
CHEMBL106184

>  <SMILES>  (1) 
NCCCN(C(=O)[C@H](Cc1ccccc1)NC(=O)[C@H](Cc1ccccc1)NC(=O)[C@@H](NC(=O)C)CCCN=C(N)N)CC(=O)N[C@H](C(=O)N[C@H](C(=O)N)CCSC)CC(C)C

>  <CID>  (1) 
10509839.0

>  <ChEMBL ID>  (1) 
nan

>  <InChiKey>  (1) 
QVIGVXISBGCZTI-ZZTWKDBPSA-N

>  <InChi>  (1) 
InChI=1S/C42H65N11O7S/c1-27(2)23-33(39(58)50-31(37(44)56)18-22-61-4)49-36(55)26-53(21-12-19-43)41(60)35(25-30-15-9-6-10-16-30)52-40(59)34(24-29-13-7-5-8-14-29)51-38(57)32(48-28(3)54)17-11-20-47-42(45)46/h5-10,13-16,27,31-35H,11-12,17-26,43H2,1-4H3,(H2,44,56)(H,48,54)(H,49,55)(H,50,58)(H,51,57)(H,52,59)(H4,45,46,47)/t31-,32-,33-,34-,35-/m0/s1

>  <IUPAC Name>  (1) 
(2S)-2-[[2-[[(2S)-2-[[(2S)-2-[[(2S)-2-acetamido-5-(diaminomethylideneamino)pentanoyl]amino]-3-phenylpropanoyl]amino]-3-phenylpropanoyl]-(3-aminopropyl)amino]acetyl]amino]-N-[(2S)-1-amino-4-methylsulfanyl-1-oxobutan-2-yl]-4-methylpentanamide

$$$$
