
     RDKit          3D

 67 66  0  0  0  0  0  0  0  0999 V2000
    7.8148    3.0000   -0.3330 C   0  0  0  0  0  0  0  0  0  0  0  0
    7.3566    1.6217    0.0426 C   0  0  0  0  0  0  0  0  0  0  0  0
    6.3036    1.6115    1.0990 C   0  0  0  0  0  0  0  0  0  0  0  0
    5.0535    2.3561    0.6899 C   0  0  0  0  0  0  0  0  0  0  0  0
    4.4734    1.7248   -0.5372 C   0  0  0  0  0  0  0  0  0  0  0  0
    4.0922    0.2593   -0.3349 C   0  0  0  0  0  0  0  0  0  0  0  0
    3.5339   -0.1801   -1.6733 C   0  0  0  0  0  0  0  0  0  0  0  0
    3.0985   -1.6172   -1.6690 C   0  0  0  0  0  0  0  0  0  0  0  0
    2.1229   -1.9408   -0.7699 O   0  0  0  0  0  0  0  0  0  0  0  0
    0.9360   -1.2499   -0.9399 C   0  0  0  0  0  0  0  0  0  0  0  0
   -0.1104   -1.6376    0.0718 C   0  0  2  0  0  0  0  0  0  0  0  0
   -0.4137   -3.1309    0.0150 C   0  0  0  0  0  0  0  0  0  0  0  0
   -1.2762   -3.4335    1.0665 O   0  0  0  0  0  0  0  0  0  0  0  0
   -1.6901   -5.0649    1.1141 P   0  0  0  0  0  0  0  0  0  0  0  0
   -2.7314   -5.2820    2.4880 S   0  0  0  0  0  0  0  0  0  0  0  0
   -0.3497   -6.0768    1.1954 O   0  0  0  0  0  0  0  0  0  0  0  0
   -2.6399   -5.4330   -0.2520 O   0  0  0  0  0  0  0  0  0  0  0  0
   -1.3048   -0.9786   -0.0572 O   0  0  0  0  0  0  0  0  0  0  0  0
   -1.7150   -0.2968    1.0575 C   0  0  0  0  0  0  0  0  0  0  0  0
   -3.0554    0.4019    0.8088 C   0  0  0  0  0  0  0  0  0  0  0  0
   -4.0776   -0.6391    0.4622 C   0  0  0  0  0  0  0  0  0  0  0  0
   -5.4227   -0.0057    0.2185 C   0  0  0  0  0  0  0  0  0  0  0  0
   -5.3802    0.9715   -0.9094 C   0  0  0  0  0  0  0  0  0  0  0  0
   -6.7476    1.5589   -1.1370 C   0  0  0  0  0  0  0  0  0  0  0  0
   -7.2100    2.2811    0.0910 C   0  0  0  0  0  0  0  0  0  0  0  0
   -6.2032    3.3835    0.4015 C   0  0  0  0  0  0  0  0  0  0  0  0
    8.6932    2.8835   -1.0112 H   0  0  0  0  0  0  0  0  0  0  0  0
    7.0576    3.5786   -0.8875 H   0  0  0  0  0  0  0  0  0  0  0  0
    8.2017    3.5595    0.5547 H   0  0  0  0  0  0  0  0  0  0  0  0
    8.2552    1.1052    0.4928 H   0  0  0  0  0  0  0  0  0  0  0  0
    7.0951    1.0680   -0.8637 H   0  0  0  0  0  0  0  0  0  0  0  0
    6.6797    2.1286    2.0044 H   0  0  0  0  0  0  0  0  0  0  0  0
    6.0936    0.5690    1.3903 H   0  0  0  0  0  0  0  0  0  0  0  0
    4.3131    2.4141    1.5007 H   0  0  0  0  0  0  0  0  0  0  0  0
    5.3153    3.3937    0.4118 H   0  0  0  0  0  0  0  0  0  0  0  0
    5.2435    1.7681   -1.3409 H   0  0  0  0  0  0  0  0  0  0  0  0
    3.6050    2.2819   -0.9405 H   0  0  0  0  0  0  0  0  0  0  0  0
    4.9427   -0.3437   -0.0192 H   0  0  0  0  0  0  0  0  0  0  0  0
    3.2710    0.2564    0.4167 H   0  0  0  0  0  0  0  0  0  0  0  0
    4.3793   -0.1038   -2.3887 H   0  0  0  0  0  0  0  0  0  0  0  0
    2.7830    0.5460   -1.9763 H   0  0  0  0  0  0  0  0  0  0  0  0
    2.8626   -1.8789   -2.7300 H   0  0  0  0  0  0  0  0  0  0  0  0
    3.9968   -2.2189   -1.4147 H   0  0  0  0  0  0  0  0  0  0  0  0
    1.1535   -0.1740   -0.7748 H   0  0  0  0  0  0  0  0  0  0  0  0
    0.5039   -1.4801   -1.9307 H   0  0  0  0  0  0  0  0  0  0  0  0
    0.2474   -1.4392    1.1177 H   0  0  0  0  0  0  0  0  0  0  0  0
    0.4960   -3.7402   -0.0078 H   0  0  0  0  0  0  0  0  0  0  0  0
   -1.0217   -3.2962   -0.9183 H   0  0  0  0  0  0  0  0  0  0  0  0
    0.0412   -6.0982    0.2902 H   0  0  0  0  0  0  0  0  0  0  0  0
   -2.4711   -6.3293   -0.6079 H   0  0  0  0  0  0  0  0  0  0  0  0
   -0.9925    0.5395    1.2047 H   0  0  0  0  0  0  0  0  0  0  0  0
   -1.8419   -0.8877    1.9684 H   0  0  0  0  0  0  0  0  0  0  0  0
   -2.9619    1.1063   -0.0548 H   0  0  0  0  0  0  0  0  0  0  0  0
   -3.3462    1.0173    1.6809 H   0  0  0  0  0  0  0  0  0  0  0  0
   -4.1171   -1.3437    1.3067 H   0  0  0  0  0  0  0  0  0  0  0  0
   -3.7248   -1.1325   -0.4666 H   0  0  0  0  0  0  0  0  0  0  0  0
   -6.1085   -0.8321   -0.1068 H   0  0  0  0  0  0  0  0  0  0  0  0
   -5.8109    0.4145    1.1634 H   0  0  0  0  0  0  0  0  0  0  0  0
   -4.7044    1.8375   -0.7056 H   0  0  0  0  0  0  0  0  0  0  0  0
   -5.0135    0.4312   -1.8205 H   0  0  0  0  0  0  0  0  0  0  0  0
   -6.6607    2.2360   -2.0187 H   0  0  0  0  0  0  0  0  0  0  0  0
   -7.4303    0.7019   -1.3804 H   0  0  0  0  0  0  0  0  0  0  0  0
   -8.2258    2.7496   -0.0757 H   0  0  0  0  0  0  0  0  0  0  0  0
   -7.3174    1.6665    0.9853 H   0  0  0  0  0  0  0  0  0  0  0  0
   -6.7789    4.2234    0.8494 H   0  0  0  0  0  0  0  0  0  0  0  0
   -5.4621    2.9614    1.1024 H   0  0  0  0  0  0  0  0  0  0  0  0
   -5.6984    3.6579   -0.5363 H   0  0  0  0  0  0  0  0  0  0  0  0
  1  2  1  0
  2  3  1  0
  3  4  1  0
  4  5  1  0
  5  6  1  0
  6  7  1  0
  7  8  1  0
  8  9  1  0
  9 10  1  0
 10 11  1  0
 11 12  1  0
 12 13  1  0
 13 14  1  0
 14 15  2  0
 14 16  1  0
 14 17  1  0
 11 18  1  0
 18 19  1  0
 19 20  1  0
 20 21  1  0
 21 22  1  0
 22 23  1  0
 23 24  1  0
 24 25  1  0
 25 26  1  0
  1 27  1  0
  1 28  1  0
  1 29  1  0
  2 30  1  0
  2 31  1  0
  3 32  1  0
  3 33  1  0
  4 34  1  0
  4 35  1  0
  5 36  1  0
  5 37  1  0
  6 38  1  0
  6 39  1  0
  7 40  1  0
  7 41  1  0
  8 42  1  0
  8 43  1  0
 10 44  1  0
 10 45  1  0
 11 46  1  1
 12 47  1  0
 12 48  1  0
 16 49  1  0
 17 50  1  0
 19 51  1  0
 19 52  1  0
 20 53  1  0
 20 54  1  0
 21 55  1  0
 21 56  1  0
 22 57  1  0
 22 58  1  0
 23 59  1  0
 23 60  1  0
 24 61  1  0
 24 62  1  0
 25 63  1  0
 25 64  1  0
 26 65  1  0
 26 66  1  0
 26 67  1  0
M  END
>  <Ligand ID>  (1) 
LIG0004291

>  <Ligand>  (1) 
CHEMBL201482

>  <SMILES>  (1) 
CCCCCCCCOC[C@H](COP(=S)(O)O)OCCCCCCCC

>  <CID>  (1) 
11625765.0

>  <ChEMBL ID>  (1) 
nan

>  <InChiKey>  (1) 
PLCCQSPJUXGEHV-LJQANCHMSA-N

>  <InChi>  (1) 
InChI=1S/C19H41O5PS/c1-3-5-7-9-11-13-15-22-17-19(18-24-25(20,21)26)23-16-14-12-10-8-6-4-2/h19H,3-18H2,1-2H3,(H2,20,21,26)/t19-/m1/s1

>  <IUPAC Name>  (1) 
[(2R)-2,3-dioctoxypropoxy]-dihydroxy-sulfanylidene-lambda5-phosphane

$$$$
