
     RDKit          3D

 68 71  0  0  0  0  0  0  0  0999 V2000
   -6.4452   -0.3515   -1.3579 O   0  0  0  0  0  0  0  0  0  0  0  0
   -5.6712    0.4553   -0.5134 C   0  0  2  0  0  0  0  0  0  0  0  0
   -4.8909    1.4592   -1.2625 C   0  0  0  0  0  0  0  0  0  0  0  0
   -3.4040    1.3940   -1.1554 C   0  0  0  0  0  0  0  0  0  0  0  0
   -2.8716    0.7786    0.0988 C   0  0  1  0  0  0  0  0  0  0  0  0
   -3.4817   -0.5976    0.1928 C   0  0  1  0  0  0  0  0  0  0  0  0
   -4.9493   -0.4288    0.4181 C   0  0  0  0  0  0  0  0  0  0  0  0
   -3.1930   -1.3947   -1.0476 C   0  0  0  0  0  0  0  0  0  0  0  0
   -1.7457   -1.3946   -1.4051 C   0  0  0  0  0  0  0  0  0  0  0  0
   -0.9365   -0.7660   -0.3042 C   0  0  2  0  0  0  0  0  0  0  0  0
   -1.3996    0.6564   -0.0048 C   0  0  2  0  0  0  0  0  0  0  0  0
   -0.7138    1.0680    1.2544 C   0  0  0  0  0  0  0  0  0  0  0  0
    0.7823    0.9667    1.1868 C   0  0  2  0  0  0  0  0  0  0  0  0
    1.2304    1.9405    0.3239 O   0  0  0  0  0  0  0  0  0  0  0  0
    1.2497   -0.3870    0.7031 C   0  0  1  0  0  0  0  0  0  0  0  0
    0.5082   -0.5885   -0.6299 C   0  0  1  0  0  0  0  0  0  0  0  0
    1.1920   -1.7330   -1.2474 C   0  0  0  0  0  0  0  0  0  0  0  0
    2.6230   -1.5723   -0.7774 C   0  0  0  0  0  0  0  0  0  0  0  0
    2.6440   -0.4378    0.2096 C   0  0  2  0  0  0  0  0  0  0  0  0
    3.7245   -0.5796    1.2348 C   0  0  1  0  0  0  0  0  0  0  0  0
    5.0821   -0.6171    0.5521 C   0  0  0  0  0  0  0  0  0  0  0  0
    5.4040    0.5984   -0.2439 C   0  0  0  0  0  0  0  0  0  0  0  0
    6.7620    0.4904   -0.8882 C   0  0  0  0  0  0  0  0  0  0  0  0
    7.4865   -0.5269   -0.7346 O   0  0  0  0  0  0  0  0  0  0  0  0
    7.2319    1.5231   -1.6658 O   0  0  0  0  0  0  0  0  0  0  0  0
    3.7786    0.5427    2.2244 C   0  0  0  0  0  0  0  0  0  0  0  0
    0.8552   -1.5120    1.6014 C   0  0  0  0  0  0  0  0  0  0  0  0
   -3.3190    1.6433    1.2491 C   0  0  0  0  0  0  0  0  0  0  0  0
   -6.9505   -0.9636   -0.7494 H   0  0  0  0  0  0  0  0  0  0  0  0
   -6.4461    1.0008    0.0980 H   0  0  0  0  0  0  0  0  0  0  0  0
   -5.1465    1.3681   -2.3444 H   0  0  0  0  0  0  0  0  0  0  0  0
   -5.1785    2.5039   -1.0062 H   0  0  0  0  0  0  0  0  0  0  0  0
   -2.9353    2.4124   -1.2280 H   0  0  0  0  0  0  0  0  0  0  0  0
   -2.9717    0.8392   -2.0169 H   0  0  0  0  0  0  0  0  0  0  0  0
   -3.1031   -1.1852    1.0746 H   0  0  0  0  0  0  0  0  0  0  0  0
   -5.0641   -0.1105    1.4949 H   0  0  0  0  0  0  0  0  0  0  0  0
   -5.3728   -1.4754    0.4290 H   0  0  0  0  0  0  0  0  0  0  0  0
   -3.8630   -1.0350   -1.8697 H   0  0  0  0  0  0  0  0  0  0  0  0
   -3.5859   -2.4307   -0.8246 H   0  0  0  0  0  0  0  0  0  0  0  0
   -1.5051   -1.0213   -2.4136 H   0  0  0  0  0  0  0  0  0  0  0  0
   -1.4107   -2.4712   -1.4228 H   0  0  0  0  0  0  0  0  0  0  0  0
   -1.1241   -1.3579    0.6045 H   0  0  0  0  0  0  0  0  0  0  0  0
   -1.0000    1.2900   -0.8485 H   0  0  0  0  0  0  0  0  0  0  0  0
   -1.1120    0.4869    2.0954 H   0  0  0  0  0  0  0  0  0  0  0  0
   -0.9320    2.1512    1.4807 H   0  0  0  0  0  0  0  0  0  0  0  0
    1.1391    1.0829    2.2300 H   0  0  0  0  0  0  0  0  0  0  0  0
    1.0363    2.8514    0.6007 H   0  0  0  0  0  0  0  0  0  0  0  0
    0.6796    0.3328   -1.2090 H   0  0  0  0  0  0  0  0  0  0  0  0
    1.1653   -1.5840   -2.3664 H   0  0  0  0  0  0  0  0  0  0  0  0
    0.7696   -2.7283   -1.0657 H   0  0  0  0  0  0  0  0  0  0  0  0
    2.9155   -2.5400   -0.3156 H   0  0  0  0  0  0  0  0  0  0  0  0
    3.2964   -1.2925   -1.6222 H   0  0  0  0  0  0  0  0  0  0  0  0
    2.8334    0.5096   -0.3446 H   0  0  0  0  0  0  0  0  0  0  0  0
    3.6676   -1.5250    1.8071 H   0  0  0  0  0  0  0  0  0  0  0  0
    5.8352   -0.6532    1.3917 H   0  0  0  0  0  0  0  0  0  0  0  0
    5.2452   -1.5302   -0.0158 H   0  0  0  0  0  0  0  0  0  0  0  0
    5.3131    1.5407    0.2919 H   0  0  0  0  0  0  0  0  0  0  0  0
    4.7045    0.6591   -1.1289 H   0  0  0  0  0  0  0  0  0  0  0  0
    8.2121    1.6862   -1.8610 H   0  0  0  0  0  0  0  0  0  0  0  0
    3.4655    1.5213    1.8595 H   0  0  0  0  0  0  0  0  0  0  0  0
    4.8321    0.5696    2.6373 H   0  0  0  0  0  0  0  0  0  0  0  0
    3.1826    0.2324    3.1333 H   0  0  0  0  0  0  0  0  0  0  0  0
    0.5567   -2.4292    1.0386 H   0  0  0  0  0  0  0  0  0  0  0  0
    1.6632   -1.8520    2.2774 H   0  0  0  0  0  0  0  0  0  0  0  0
    0.0344   -1.1904    2.2752 H   0  0  0  0  0  0  0  0  0  0  0  0
   -3.0749    1.2428    2.2329 H   0  0  0  0  0  0  0  0  0  0  0  0
   -4.4266    1.8154    1.1290 H   0  0  0  0  0  0  0  0  0  0  0  0
   -2.8775    2.6498    1.0883 H   0  0  0  0  0  0  0  0  0  0  0  0
  1  2  1  0
  2  3  1  0
  3  4  1  0
  4  5  1  0
  5  6  1  0
  6  7  1  0
  6  8  1  0
  8  9  1  0
  9 10  1  0
 10 11  1  0
 11 12  1  0
 12 13  1  0
 13 14  1  0
 13 15  1  0
 15 16  1  0
 16 17  1  0
 17 18  1  0
 18 19  1  0
 19 20  1  0
 20 21  1  0
 21 22  1  0
 22 23  1  0
 23 24  2  0
 23 25  1  0
 20 26  1  0
 15 27  1  1
  5 28  1  1
  7  2  1  0
 16 10  1  0
 11  5  1  0
 19 15  1  0
  1 29  1  0
  2 30  1  1
  3 31  1  0
  3 32  1  0
  4 33  1  0
  4 34  1  0
  6 35  1  1
  7 36  1  0
  7 37  1  0
  8 38  1  0
  8 39  1  0
  9 40  1  0
  9 41  1  0
 10 42  1  1
 11 43  1  6
 12 44  1  0
 12 45  1  0
 13 46  1  1
 14 47  1  0
 16 48  1  6
 17 49  1  0
 17 50  1  0
 18 51  1  0
 18 52  1  0
 19 53  1  6
 20 54  1  1
 21 55  1  0
 21 56  1  0
 22 57  1  0
 22 58  1  0
 25 59  1  0
 26 60  1  0
 26 61  1  0
 26 62  1  0
 27 63  1  0
 27 64  1  0
 27 65  1  0
 28 66  1  0
 28 67  1  0
 28 68  1  0
M  END
>  <Ligand ID>  (1) 
LIG0000716

>  <Ligand>  (1) 
deoxycholic acid

>  <SMILES>  (1) 
O[C@@H]1CC[C@]2([C@@H](C1)CC[C@@H]1[C@@H]2C[C@H](O)[C@]2([C@H]1CC[C@@H]2[C@@H](CCC(=O)O)C)C)C

>  <CID>  (1) 
222528.0

>  <ChEMBL ID>  (1) 
nan

>  <InChiKey>  (1) 
KXGVEGMKQFWNSR-LLQZFEROSA-N

>  <InChi>  (1) 
InChI=1S/C24H40O4/c1-14(4-9-22(27)28)18-7-8-19-17-6-5-15-12-16(25)10-11-23(15,2)20(17)13-21(26)24(18,19)3/h14-21,25-26H,4-13H2,1-3H3,(H,27,28)/t14-,15-,16-,17+,18-,19+,20+,21+,23+,24-/m1/s1

>  <IUPAC Name>  (1) 
(4R)-4-[(3R,5R,8R,9S,10S,12S,13R,14S,17R)-3,12-dihydroxy-10,13-dimethyl-2,3,4,5,6,7,8,9,11,12,14,15,16,17-tetradecahydro-1H-cyclopenta[a]phenanthren-17-yl]pentanoic acid

$$$$
