
     RDKit          3D

 76 78  0  0  0  0  0  0  0  0999 V2000
   -7.5319    3.2349   -2.8593 O   0  0  0  0  0  0  0  0  0  0  0  0
   -8.2255    3.1054   -1.6668 C   0  0  0  0  0  0  0  0  0  0  0  0
   -7.8654    1.7811   -1.0479 C   0  0  0  0  0  0  0  0  0  0  0  0
   -7.0022    1.7352    0.0225 C   0  0  0  0  0  0  0  0  0  0  0  0
   -6.6360    0.5348    0.6402 C   0  0  0  0  0  0  0  0  0  0  0  0
   -7.1838   -0.6066    0.1226 C   0  0  0  0  0  0  0  0  0  0  0  0
   -8.0565   -0.5801   -0.9574 C   0  0  0  0  0  0  0  0  0  0  0  0
   -8.4235    0.6111   -1.5746 C   0  0  0  0  0  0  0  0  0  0  0  0
   -9.2854    0.6713   -2.6457 O   0  0  0  0  0  0  0  0  0  0  0  0
   -5.7153    0.6298    1.7706 C   0  0  2  0  0  0  0  0  0  0  0  0
   -5.5203   -0.5859    2.5919 C   0  0  0  0  0  0  0  0  0  0  0  0
   -5.0694   -1.7633    1.8867 N   0  0  0  0  0  0  0  0  0  0  0  0
   -3.7365   -1.6526    1.3842 C   0  0  0  0  0  0  0  0  0  0  0  0
   -2.6577   -1.6070    2.4127 C   0  0  0  0  0  0  0  0  0  0  0  0
   -1.2701   -1.5137    1.8292 C   0  0  0  0  0  0  0  0  0  0  0  0
   -1.0594   -0.2970    0.9673 C   0  0  0  0  0  0  0  0  0  0  0  0
    0.3559   -0.2230    0.4200 C   0  0  0  0  0  0  0  0  0  0  0  0
    0.7154   -1.4125   -0.4157 C   0  0  0  0  0  0  0  0  0  0  0  0
    2.0374   -1.3031   -0.9117 O   0  0  0  0  0  0  0  0  0  0  0  0
    2.3653   -2.4111   -1.6481 C   0  0  0  0  0  0  0  0  0  0  0  0
    3.7408   -2.4273   -2.2431 C   0  0  0  0  0  0  0  0  0  0  0  0
    4.0372   -1.3172   -3.1760 C   0  0  0  0  0  0  0  0  0  0  0  0
    4.0522    0.0680   -2.6404 C   0  0  0  0  0  0  0  0  0  0  0  0
    5.0895    0.3513   -1.6326 C   0  0  0  0  0  0  0  0  0  0  0  0
    6.3376    0.7500   -2.1305 C   0  0  0  0  0  0  0  0  0  0  0  0
    7.3895    1.0567   -1.2932 C   0  0  0  0  0  0  0  0  0  0  0  0
    7.2531    0.9825    0.0775 C   0  0  0  0  0  0  0  0  0  0  0  0
    6.0218    0.5889    0.5855 C   0  0  0  0  0  0  0  0  0  0  0  0
    4.9682    0.2824   -0.2806 C   0  0  0  0  0  0  0  0  0  0  0  0
    8.3171    1.2930    0.9793 N   0  0  0  0  0  0  0  0  0  0  0  0
    9.1472    0.4968    1.6454 C   0  0  0  0  0  0  0  0  0  0  0  0
    9.1330   -0.8790    1.5843 O   0  0  0  0  0  0  0  0  0  0  0  0
    9.9785    1.3285    2.3709 C   0  0  0  0  0  0  0  0  0  0  0  0
    9.6485    2.6284    2.1412 N   0  0  0  0  0  0  0  0  0  0  0  0
    8.6169    2.5907    1.2765 C   0  0  0  0  0  0  0  0  0  0  0  0
    8.0332    3.6309    0.8251 O   0  0  0  0  0  0  0  0  0  0  0  0
   -6.1310    1.6876    2.6286 O   0  0  0  0  0  0  0  0  0  0  0  0
   -6.6257    3.6069   -2.7293 H   0  0  0  0  0  0  0  0  0  0  0  0
   -9.3202    3.2066   -1.8216 H   0  0  0  0  0  0  0  0  0  0  0  0
   -7.8701    3.8972   -0.9701 H   0  0  0  0  0  0  0  0  0  0  0  0
   -6.6089    2.6953    0.3748 H   0  0  0  0  0  0  0  0  0  0  0  0
   -6.9514   -1.5681    0.5467 H   0  0  0  0  0  0  0  0  0  0  0  0
   -8.4857   -1.4996   -1.3594 H   0  0  0  0  0  0  0  0  0  0  0  0
  -10.2552    0.8978   -2.4590 H   0  0  0  0  0  0  0  0  0  0  0  0
   -4.7243    0.9617    1.3868 H   0  0  0  0  0  0  0  0  0  0  0  0
   -6.4041   -0.8228    3.2458 H   0  0  0  0  0  0  0  0  0  0  0  0
   -4.7202   -0.3377    3.3466 H   0  0  0  0  0  0  0  0  0  0  0  0
   -5.0805   -2.5747    2.5541 H   0  0  0  0  0  0  0  0  0  0  0  0
   -3.6015   -0.7724    0.7211 H   0  0  0  0  0  0  0  0  0  0  0  0
   -3.5539   -2.5393    0.7204 H   0  0  0  0  0  0  0  0  0  0  0  0
   -2.6700   -2.5611    2.9977 H   0  0  0  0  0  0  0  0  0  0  0  0
   -2.7695   -0.7238    3.0695 H   0  0  0  0  0  0  0  0  0  0  0  0
   -0.5844   -1.3946    2.7147 H   0  0  0  0  0  0  0  0  0  0  0  0
   -0.9954   -2.4524    1.3004 H   0  0  0  0  0  0  0  0  0  0  0  0
   -1.2947    0.6174    1.5451 H   0  0  0  0  0  0  0  0  0  0  0  0
   -1.7334   -0.3478    0.0750 H   0  0  0  0  0  0  0  0  0  0  0  0
    0.4837    0.6819   -0.2063 H   0  0  0  0  0  0  0  0  0  0  0  0
    1.0763   -0.1875    1.2864 H   0  0  0  0  0  0  0  0  0  0  0  0
    0.0770   -1.4984   -1.3130 H   0  0  0  0  0  0  0  0  0  0  0  0
    0.6781   -2.3644    0.1750 H   0  0  0  0  0  0  0  0  0  0  0  0
    2.1837   -3.3456   -1.0410 H   0  0  0  0  0  0  0  0  0  0  0  0
    1.6007   -2.4841   -2.4801 H   0  0  0  0  0  0  0  0  0  0  0  0
    4.4893   -2.5445   -1.4278 H   0  0  0  0  0  0  0  0  0  0  0  0
    3.8054   -3.3815   -2.8395 H   0  0  0  0  0  0  0  0  0  0  0  0
    3.2229   -1.3455   -3.9677 H   0  0  0  0  0  0  0  0  0  0  0  0
    4.9645   -1.5154   -3.7971 H   0  0  0  0  0  0  0  0  0  0  0  0
    3.0224    0.3426   -2.2579 H   0  0  0  0  0  0  0  0  0  0  0  0
    4.1569    0.7474   -3.5405 H   0  0  0  0  0  0  0  0  0  0  0  0
    6.5106    0.8275   -3.2031 H   0  0  0  0  0  0  0  0  0  0  0  0
    8.3503    1.3644   -1.7198 H   0  0  0  0  0  0  0  0  0  0  0  0
    5.9052    0.5281    1.6532 H   0  0  0  0  0  0  0  0  0  0  0  0
    4.0510   -0.0063    0.1934 H   0  0  0  0  0  0  0  0  0  0  0  0
    9.8986   -1.4570    1.3100 H   0  0  0  0  0  0  0  0  0  0  0  0
   10.7653    0.9775    3.0172 H   0  0  0  0  0  0  0  0  0  0  0  0
   10.0928    3.4915    2.5437 H   0  0  0  0  0  0  0  0  0  0  0  0
   -6.9539    1.4205    3.1293 H   0  0  0  0  0  0  0  0  0  0  0  0
  1  2  1  0
  2  3  1  0
  3  4  2  0
  4  5  1  0
  5  6  2  0
  6  7  1  0
  7  8  2  0
  8  9  1  0
  5 10  1  0
 10 11  1  0
 11 12  1  0
 12 13  1  0
 13 14  1  0
 14 15  1  0
 15 16  1  0
 16 17  1  0
 17 18  1  0
 18 19  1  0
 19 20  1  0
 20 21  1  0
 21 22  1  0
 22 23  1  0
 23 24  1  0
 24 25  2  0
 25 26  1  0
 26 27  2  0
 27 28  1  0
 28 29  2  0
 27 30  1  0
 30 31  1  0
 31 32  1  0
 31 33  2  0
 33 34  1  0
 34 35  1  0
 35 36  2  0
 10 37  1  0
  8  3  1  0
 29 24  1  0
 35 30  1  0
  1 38  1  0
  2 39  1  0
  2 40  1  0
  4 41  1  0
  6 42  1  0
  7 43  1  0
  9 44  1  0
 10 45  1  6
 11 46  1  0
 11 47  1  0
 12 48  1  0
 13 49  1  0
 13 50  1  0
 14 51  1  0
 14 52  1  0
 15 53  1  0
 15 54  1  0
 16 55  1  0
 16 56  1  0
 17 57  1  0
 17 58  1  0
 18 59  1  0
 18 60  1  0
 20 61  1  0
 20 62  1  0
 21 63  1  0
 21 64  1  0
 22 65  1  0
 22 66  1  0
 23 67  1  0
 23 68  1  0
 25 69  1  0
 26 70  1  0
 28 71  1  0
 29 72  1  0
 32 73  1  0
 33 74  1  0
 34 75  1  0
 37 76  1  0
M  END
>  <Ligand ID>  (1) 
LIG0002546

>  <Ligand>  (1) 
BDBM50419013

>  <SMILES>  (1) 
OCc1cc(ccc1O)[C@H](CNCCCCCCOCCCCc1ccc(cc1)n1c(O)c[nH]c1=O)O

>  <CID>  (1) 
90710385.0

>  <ChEMBL ID>  (1) 
nan

>  <InChiKey>  (1) 
SKHNKEKIDWMDQR-SANMLTNESA-N

>  <InChi>  (1) 
InChI=1S/C28H39N3O6/c32-20-23-17-22(10-13-25(23)33)26(34)18-29-14-4-1-2-5-15-37-16-6-3-7-21-8-11-24(12-9-21)31-27(35)19-30-28(31)36/h8-13,17,19,26,29,32-35H,1-7,14-16,18,20H2,(H,30,36)/t26-/m0/s1

>  <IUPAC Name>  (1) 
4-hydroxy-3-[4-[4-[6-[[(2R)-2-hydroxy-2-[4-hydroxy-3-(hydroxymethyl)phenyl]ethyl]amino]hexoxy]butyl]phenyl]-1H-imidazol-2-one

$$$$
