
     RDKit          3D

 39 42  0  0  0  0  0  0  0  0999 V2000
   -1.4150   -1.9243   -1.9227 Cl  0  0  0  0  0  0  0  0  0  0  0  0
   -0.6016   -0.6644   -1.0522 C   0  0  0  0  0  0  0  0  0  0  0  0
    0.7652   -0.5113   -1.2118 C   0  0  0  0  0  0  0  0  0  0  0  0
    1.3836    0.5050   -0.5017 C   0  0  0  0  0  0  0  0  0  0  0  0
    0.6891    1.3493    0.3412 C   0  0  0  0  0  0  0  0  0  0  0  0
   -0.6691    1.1699    0.4773 C   0  0  0  0  0  0  0  0  0  0  0  0
   -1.3237    0.1689   -0.2126 C   0  0  0  0  0  0  0  0  0  0  0  0
   -2.7254   -0.0491   -0.0992 N   0  0  0  0  0  0  0  0  0  0  0  0
   -3.4535   -0.8630    0.7894 C   0  0  0  0  0  0  0  0  0  0  0  0
   -2.9395   -1.5824    1.6945 O   0  0  0  0  0  0  0  0  0  0  0  0
   -4.8653   -0.7177    0.4716 C   0  0  0  0  0  0  0  0  0  0  0  0
   -5.0148    0.1644   -0.5884 C   0  0  0  0  0  0  0  0  0  0  0  0
   -3.6693    0.5949   -0.9593 C   0  0  0  0  0  0  0  0  0  0  0  0
   -3.4519    1.4075   -1.8991 O   0  0  0  0  0  0  0  0  0  0  0  0
   -6.2625    0.4904   -1.1033 C   0  0  0  0  0  0  0  0  0  0  0  0
   -6.4007    1.6183   -2.4532 Cl  0  0  0  0  0  0  0  0  0  0  0  0
   -7.3657   -0.0859   -0.5347 C   0  0  0  0  0  0  0  0  0  0  0  0
   -7.2240   -0.9705    0.5274 C   0  0  0  0  0  0  0  0  0  0  0  0
   -5.9792   -1.2867    1.0304 C   0  0  0  0  0  0  0  0  0  0  0  0
    2.8019    0.6628   -0.6682 N   0  0  0  0  0  0  0  0  0  0  0  0
    3.6812   -0.0247    0.1759 C   0  0  0  0  0  0  0  0  0  0  0  0
    3.1153   -0.7665    1.0611 O   0  0  0  0  0  0  0  0  0  0  0  0
    5.1172   -0.0163    0.1899 C   0  0  0  0  0  0  0  0  0  0  0  0
    5.7144   -0.7918    1.1349 N   0  0  0  0  0  0  0  0  0  0  0  0
    7.0455   -0.8756    1.2583 C   0  0  0  0  0  0  0  0  0  0  0  0
    7.9328   -0.1975    0.4557 C   0  0  0  0  0  0  0  0  0  0  0  0
    7.3551    0.6080   -0.5250 C   0  0  0  0  0  0  0  0  0  0  0  0
    5.9557    0.6798   -0.6351 C   0  0  0  0  0  0  0  0  0  0  0  0
    5.3459    1.7091   -1.8862 Cl  0  0  0  0  0  0  0  0  0  0  0  0
    1.3203   -1.1699   -1.8720 H   0  0  0  0  0  0  0  0  0  0  0  0
    1.1996    2.1463    0.8927 H   0  0  0  0  0  0  0  0  0  0  0  0
   -1.2723    1.7911    1.1168 H   0  0  0  0  0  0  0  0  0  0  0  0
   -8.3422    0.1760   -0.9457 H   0  0  0  0  0  0  0  0  0  0  0  0
   -8.1265   -1.3935    0.9352 H   0  0  0  0  0  0  0  0  0  0  0  0
   -5.8725   -1.9803    1.8628 H   0  0  0  0  0  0  0  0  0  0  0  0
    3.1389    1.2704   -1.3955 H   0  0  0  0  0  0  0  0  0  0  0  0
    7.4217   -1.5191    2.0404 H   0  0  0  0  0  0  0  0  0  0  0  0
    8.9970   -0.2902    0.5854 H   0  0  0  0  0  0  0  0  0  0  0  0
    7.9941    1.1684   -1.1898 H   0  0  0  0  0  0  0  0  0  0  0  0
  1  2  1  0
  2  3  2  0
  3  4  1  0
  4  5  2  0
  5  6  1  0
  6  7  2  0
  7  8  1  0
  8  9  1  0
  9 10  2  0
  9 11  1  0
 11 12  2  0
 12 13  1  0
 13 14  2  0
 12 15  1  0
 15 16  1  0
 15 17  2  0
 17 18  1  0
 18 19  2  0
  4 20  1  0
 20 21  1  0
 21 22  2  0
 21 23  1  0
 23 24  2  0
 24 25  1  0
 25 26  2  0
 26 27  1  0
 27 28  2  0
 28 29  1  0
  7  2  1  0
 13  8  1  0
 28 23  1  0
 19 11  1  0
  3 30  1  0
  5 31  1  0
  6 32  1  0
 17 33  1  0
 18 34  1  0
 19 35  1  0
 20 36  1  0
 25 37  1  0
 26 38  1  0
 27 39  1  0
M  END
>  <Ligand ID>  (1) 
LIG0002786

>  <Ligand>  (1) 
1623101-11-0

>  <SMILES>  (1) 
Clc1cc(ccc1N1C(=O)c2c(C1=O)c(Cl)ccc2)NC(=O)c1ncccc1Cl

>  <CID>  (1) 
91885483.0

>  <ChEMBL ID>  (1) 
nan

>  <InChiKey>  (1) 
HJQXPBKPTGWZCF-UHFFFAOYSA-N

>  <InChi>  (1) 
InChI=1S/C20H10Cl3N3O3/c21-12-4-1-3-11-16(12)20(29)26(19(11)28)15-7-6-10(9-14(15)23)25-18(27)17-13(22)5-2-8-24-17/h1-9H,(H,25,27)

>  <IUPAC Name>  (1) 
3-chloro-N-[3-chloro-4-(4-chloro-1,3-dioxoisoindol-2-yl)phenyl]pyridine-2-carboxamide

$$$$
