
     RDKit          3D

 68 67  0  0  0  0  0  0  0  0999 V2000
   -6.6048   -2.0421    2.0924 C   0  0  0  0  0  0  0  0  0  0  0  0
   -5.6035   -1.8834    3.2178 C   0  0  0  0  0  0  0  0  0  0  0  0
   -5.2651   -0.4291    3.3534 C   0  0  0  0  0  0  0  0  0  0  0  0
   -4.6867    0.0878    2.0711 C   0  0  0  0  0  0  0  0  0  0  0  0
   -3.4331   -0.6343    1.6920 C   0  0  0  0  0  0  0  0  0  0  0  0
   -2.8453   -0.0924    0.4243 C   0  0  0  0  0  0  0  0  0  0  0  0
   -3.7349   -0.1916   -0.7817 C   0  0  0  0  0  0  0  0  0  0  0  0
   -3.0875    0.3623   -2.0451 C   0  0  0  0  0  0  0  0  0  0  0  0
   -1.8249   -0.3427   -2.4279 C   0  0  0  0  0  0  0  0  0  0  0  0
   -1.2539    0.2595   -3.6754 C   0  0  0  0  0  0  0  0  0  0  0  0
   -0.9325    1.6924   -3.6976 C   0  0  0  0  0  0  0  0  0  0  0  0
    0.0430    2.2938   -2.7851 C   0  0  0  0  0  0  0  0  0  0  0  0
   -0.2282    2.2650   -1.3370 C   0  0  0  0  0  0  0  0  0  0  0  0
    0.8974    2.9601   -0.5756 C   0  0  0  0  0  0  0  0  0  0  0  0
    2.2227    2.2978   -0.8078 C   0  0  0  0  0  0  0  0  0  0  0  0
    2.2341    0.8515   -0.3675 C   0  0  0  0  0  0  0  0  0  0  0  0
    3.5525    0.3155   -0.6361 N   0  0  0  0  0  0  0  0  0  0  0  0
    3.8309   -1.0509   -0.3079 C   0  0  0  0  0  0  0  0  0  0  0  0
    2.9349   -1.7869    0.2127 O   0  0  0  0  0  0  0  0  0  0  0  0
    5.1910   -1.5672   -0.5963 C   0  0  2  0  0  0  0  0  0  0  0  0
    5.8365   -1.8835    0.7559 C   0  0  0  0  0  0  0  0  0  0  0  0
    5.8374   -0.7012    1.4825 O   0  0  0  0  0  0  0  0  0  0  0  0
    6.5056   -0.8236    3.0074 P   0  0  0  0  0  0  0  0  0  0  0  0
    5.5718   -0.1245    3.9919 O   0  0  0  0  0  0  0  0  0  0  0  0
    8.0035   -0.0515    3.1225 O   0  0  0  0  0  0  0  0  0  0  0  0
    6.6111   -2.4426    3.5250 O   0  0  0  0  0  0  0  0  0  0  0  0
    6.0364   -0.5400   -1.1905 N   0  0  0  0  0  0  0  0  0  0  0  0
   -7.0762   -1.0602    1.8764 H   0  0  0  0  0  0  0  0  0  0  0  0
   -6.1141   -2.4754    1.1947 H   0  0  0  0  0  0  0  0  0  0  0  0
   -7.3798   -2.7642    2.4044 H   0  0  0  0  0  0  0  0  0  0  0  0
   -6.0704   -2.2484    4.1661 H   0  0  0  0  0  0  0  0  0  0  0  0
   -4.6966   -2.4583    3.0465 H   0  0  0  0  0  0  0  0  0  0  0  0
   -6.1432    0.1762    3.6636 H   0  0  0  0  0  0  0  0  0  0  0  0
   -4.4631   -0.3634    4.1259 H   0  0  0  0  0  0  0  0  0  0  0  0
   -4.4831    1.1807    2.2312 H   0  0  0  0  0  0  0  0  0  0  0  0
   -5.4265   -0.0003    1.2394 H   0  0  0  0  0  0  0  0  0  0  0  0
   -2.6544   -0.5083    2.4754 H   0  0  0  0  0  0  0  0  0  0  0  0
   -3.6246   -1.7374    1.5400 H   0  0  0  0  0  0  0  0  0  0  0  0
   -2.6739    1.0111    0.5811 H   0  0  0  0  0  0  0  0  0  0  0  0
   -1.8304   -0.5106    0.2589 H   0  0  0  0  0  0  0  0  0  0  0  0
   -4.6721    0.3602   -0.5653 H   0  0  0  0  0  0  0  0  0  0  0  0
   -3.9938   -1.2589   -0.9159 H   0  0  0  0  0  0  0  0  0  0  0  0
   -3.8237    0.1714   -2.8670 H   0  0  0  0  0  0  0  0  0  0  0  0
   -2.9507    1.4472   -1.8839 H   0  0  0  0  0  0  0  0  0  0  0  0
   -1.1303   -0.5961   -1.6378 H   0  0  0  0  0  0  0  0  0  0  0  0
   -2.1662   -1.4026   -2.7855 H   0  0  0  0  0  0  0  0  0  0  0  0
   -2.0701    0.1021   -4.4613 H   0  0  0  0  0  0  0  0  0  0  0  0
   -0.4253   -0.3834   -4.0946 H   0  0  0  0  0  0  0  0  0  0  0  0
   -1.8954    2.3192   -3.6522 H   0  0  0  0  0  0  0  0  0  0  0  0
   -0.5803    1.9771   -4.7555 H   0  0  0  0  0  0  0  0  0  0  0  0
    1.0629    1.8974   -3.0506 H   0  0  0  0  0  0  0  0  0  0  0  0
    0.1233    3.3908   -3.0698 H   0  0  0  0  0  0  0  0  0  0  0  0
   -0.4030    1.3316   -0.8354 H   0  0  0  0  0  0  0  0  0  0  0  0
   -1.1336    2.9181   -1.1593 H   0  0  0  0  0  0  0  0  0  0  0  0
    0.6651    2.8751    0.5066 H   0  0  0  0  0  0  0  0  0  0  0  0
    0.9880    4.0248   -0.8201 H   0  0  0  0  0  0  0  0  0  0  0  0
    2.9518    2.8152   -0.1468 H   0  0  0  0  0  0  0  0  0  0  0  0
    2.6071    2.4429   -1.8343 H   0  0  0  0  0  0  0  0  0  0  0  0
    1.9468    0.8034    0.6817 H   0  0  0  0  0  0  0  0  0  0  0  0
    1.5276    0.2297   -0.9517 H   0  0  0  0  0  0  0  0  0  0  0  0
    4.3141    0.8937   -1.0640 H   0  0  0  0  0  0  0  0  0  0  0  0
    5.2014   -2.4391   -1.2762 H   0  0  0  0  0  0  0  0  0  0  0  0
    5.1477   -2.5741    1.3056 H   0  0  0  0  0  0  0  0  0  0  0  0
    6.8001   -2.3836    0.6718 H   0  0  0  0  0  0  0  0  0  0  0  0
    8.4634    0.0122    2.2482 H   0  0  0  0  0  0  0  0  0  0  0  0
    7.4123   -2.8636    3.0807 H   0  0  0  0  0  0  0  0  0  0  0  0
    5.8144   -0.3544   -2.1785 H   0  0  0  0  0  0  0  0  0  0  0  0
    7.0465   -0.7346   -1.0101 H   0  0  0  0  0  0  0  0  0  0  0  0
  1  2  1  0
  2  3  1  0
  3  4  1  0
  4  5  1  0
  5  6  1  0
  6  7  1  0
  7  8  1  0
  8  9  1  0
  9 10  1  0
 10 11  1  0
 11 12  1  0
 12 13  1  0
 13 14  1  0
 14 15  1  0
 15 16  1  0
 16 17  1  0
 17 18  1  0
 18 19  2  0
 18 20  1  0
 20 21  1  0
 21 22  1  0
 22 23  1  0
 23 24  2  0
 23 25  1  0
 23 26  1  0
 20 27  1  0
  1 28  1  0
  1 29  1  0
  1 30  1  0
  2 31  1  0
  2 32  1  0
  3 33  1  0
  3 34  1  0
  4 35  1  0
  4 36  1  0
  5 37  1  0
  5 38  1  0
  6 39  1  0
  6 40  1  0
  7 41  1  0
  7 42  1  0
  8 43  1  0
  8 44  1  0
  9 45  1  0
  9 46  1  0
 10 47  1  0
 10 48  1  0
 11 49  1  0
 11 50  1  0
 12 51  1  0
 12 52  1  0
 13 53  1  0
 13 54  1  0
 14 55  1  0
 14 56  1  0
 15 57  1  0
 15 58  1  0
 16 59  1  0
 16 60  1  0
 17 61  1  0
 20 62  1  6
 21 63  1  0
 21 64  1  0
 25 65  1  0
 26 66  1  0
 27 67  1  0
 27 68  1  0
M  END
>  <Ligand ID>  (1) 
LIG0004267

>  <Ligand>  (1) 
N-Hexadecyl-O-phosphono-L-serinamide

>  <SMILES>  (1) 
CCCCCCCCCCCCCCCCNC(=O)[C@H](COP(=O)(O)O)N

>  <CID>  (1) 
44342231.0

>  <ChEMBL ID>  (1) 
nan

>  <InChiKey>  (1) 
UZJQLAQQWILMFK-SFHVURJKSA-N

>  <InChi>  (1) 
InChI=1S/C19H41N2O5P/c1-2-3-4-5-6-7-8-9-10-11-12-13-14-15-16-21-19(22)18(20)17-26-27(23,24)25/h18H,2-17,20H2,1H3,(H,21,22)(H2,23,24,25)/t18-/m0/s1

>  <IUPAC Name>  (1) 
[(2S)-2-amino-3-(hexadecylamino)-3-oxopropyl] dihydrogen phosphate

$$$$
