
     RDKit          3D

 50 52  0  0  0  0  0  0  0  0999 V2000
    6.7158    0.6309    0.1295 O   0  0  0  0  0  0  0  0  0  0  0  0
    5.4975    1.1423   -0.2977 C   0  0  0  0  0  0  0  0  0  0  0  0
    5.4650    2.1492   -1.2536 C   0  0  0  0  0  0  0  0  0  0  0  0
    4.2573    2.6664   -1.6871 C   0  0  0  0  0  0  0  0  0  0  0  0
    3.0612    2.1857   -1.1722 C   0  0  0  0  0  0  0  0  0  0  0  0
    3.1002    1.1840   -0.2215 C   0  0  0  0  0  0  0  0  0  0  0  0
    4.2983    0.6637    0.2154 C   0  0  0  0  0  0  0  0  0  0  0  0
    1.8089    0.6359    0.3613 C   0  0  0  0  0  0  0  0  0  0  0  0
    1.3106   -0.5154   -0.4413 C   0  0  0  0  0  0  0  0  0  0  0  0
    0.1152   -1.0441    0.1162 N   0  0  0  0  0  0  0  0  0  0  0  0
   -0.4030   -2.1704   -0.6007 C   0  0  0  0  0  0  0  0  0  0  0  0
   -1.6820   -2.7456   -0.0570 C   0  0  0  0  0  0  0  0  0  0  0  0
   -2.0998   -3.9519   -0.9281 C   0  0  0  0  0  0  0  0  0  0  0  0
   -1.3180   -4.8118    0.0431 C   0  0  0  0  0  0  0  0  0  0  0  0
   -1.5125   -3.7265    1.0823 C   0  0  0  0  0  0  0  0  0  0  0  0
   -0.8241   -0.1453    0.6684 C   0  0  0  0  0  0  0  0  0  0  0  0
   -1.4840    0.6989   -0.3606 C   0  0  0  0  0  0  0  0  0  0  0  0
   -2.4712    1.6505    0.2097 C   0  0  0  0  0  0  0  0  0  0  0  0
   -2.1513    2.9199    0.6127 C   0  0  0  0  0  0  0  0  0  0  0  0
   -3.0742    3.8089    1.1467 C   0  0  0  0  0  0  0  0  0  0  0  0
   -4.4018    3.4080    1.2887 C   0  0  0  0  0  0  0  0  0  0  0  0
   -4.7445    2.1361    0.8898 C   0  0  0  0  0  0  0  0  0  0  0  0
   -3.8037    1.2694    0.3602 C   0  0  0  0  0  0  0  0  0  0  0  0
    7.1423    1.0652    0.9378 H   0  0  0  0  0  0  0  0  0  0  0  0
    6.3676    2.5581   -1.6858 H   0  0  0  0  0  0  0  0  0  0  0  0
    4.2615    3.4571   -2.4393 H   0  0  0  0  0  0  0  0  0  0  0  0
    2.0993    2.5770   -1.4982 H   0  0  0  0  0  0  0  0  0  0  0  0
    4.3118   -0.1235    0.9635 H   0  0  0  0  0  0  0  0  0  0  0  0
    2.0366    0.2944    1.3904 H   0  0  0  0  0  0  0  0  0  0  0  0
    1.1107    1.5030    0.4204 H   0  0  0  0  0  0  0  0  0  0  0  0
    2.0858   -1.3198   -0.3757 H   0  0  0  0  0  0  0  0  0  0  0  0
    1.2429   -0.2954   -1.5314 H   0  0  0  0  0  0  0  0  0  0  0  0
   -0.4860   -1.9659   -1.6956 H   0  0  0  0  0  0  0  0  0  0  0  0
    0.3863   -2.9655   -0.5225 H   0  0  0  0  0  0  0  0  0  0  0  0
   -2.5272   -2.0360    0.0742 H   0  0  0  0  0  0  0  0  0  0  0  0
   -3.1831   -4.1395   -0.7965 H   0  0  0  0  0  0  0  0  0  0  0  0
   -1.7345   -3.9202   -1.9566 H   0  0  0  0  0  0  0  0  0  0  0  0
   -0.2619   -4.8869   -0.3117 H   0  0  0  0  0  0  0  0  0  0  0  0
   -1.7895   -5.7877    0.2826 H   0  0  0  0  0  0  0  0  0  0  0  0
   -0.6085   -3.5245    1.7136 H   0  0  0  0  0  0  0  0  0  0  0  0
   -2.4466   -3.8603    1.6573 H   0  0  0  0  0  0  0  0  0  0  0  0
   -0.2864    0.5293    1.3977 H   0  0  0  0  0  0  0  0  0  0  0  0
   -1.5919   -0.7316    1.2210 H   0  0  0  0  0  0  0  0  0  0  0  0
   -2.0791    0.0631   -1.0743 H   0  0  0  0  0  0  0  0  0  0  0  0
   -0.7863    1.2687   -0.9840 H   0  0  0  0  0  0  0  0  0  0  0  0
   -1.1259    3.2453    0.5088 H   0  0  0  0  0  0  0  0  0  0  0  0
   -2.7942    4.8177    1.4615 H   0  0  0  0  0  0  0  0  0  0  0  0
   -5.1623    4.0546    1.6971 H   0  0  0  0  0  0  0  0  0  0  0  0
   -5.7851    1.8107    0.9970 H   0  0  0  0  0  0  0  0  0  0  0  0
   -4.0563    0.2742    0.0447 H   0  0  0  0  0  0  0  0  0  0  0  0
  1  2  1  0
  2  3  2  0
  3  4  1  0
  4  5  2  0
  5  6  1  0
  6  7  2  0
  6  8  1  0
  8  9  1  0
  9 10  1  0
 10 11  1  0
 11 12  1  0
 12 13  1  0
 13 14  1  0
 14 15  1  0
 10 16  1  0
 16 17  1  0
 17 18  1  0
 18 19  2  0
 19 20  1  0
 20 21  2  0
 21 22  1  0
 22 23  2  0
  7  2  1  0
 15 12  1  0
 23 18  1  0
  1 24  1  0
  3 25  1  0
  4 26  1  0
  5 27  1  0
  7 28  1  0
  8 29  1  0
  8 30  1  0
  9 31  1  0
  9 32  1  0
 11 33  1  0
 11 34  1  0
 12 35  1  0
 13 36  1  0
 13 37  1  0
 14 38  1  0
 14 39  1  0
 15 40  1  0
 15 41  1  0
 16 42  1  0
 16 43  1  0
 17 44  1  0
 17 45  1  0
 19 46  1  0
 20 47  1  0
 21 48  1  0
 22 49  1  0
 23 50  1  0
M  END
>  <Ligand ID>  (1) 
LIG0002928

>  <Ligand>  (1) 
HS665

>  <SMILES>  (1) 
Oc1cccc(c1)CCN(CC1CCC1)CCc1ccccc1

>  <CID>  (1) 
71452041.0

>  <ChEMBL ID>  (1) 
nan

>  <InChiKey>  (1) 
YNVKFHIWFDRVNY-UHFFFAOYSA-N

>  <InChi>  (1) 
InChI=1S/C21H27NO/c23-21-11-5-8-19(16-21)13-15-22(17-20-9-4-10-20)14-12-18-6-2-1-3-7-18/h1-3,5-8,11,16,20,23H,4,9-10,12-15,17H2

>  <IUPAC Name>  (1) 
3-[2-[cyclobutylmethyl(2-phenylethyl)amino]ethyl]phenol

$$$$
