
     RDKit          3D

 76 83  0  0  0  0  0  0  0  0999 V2000
   -3.1408    6.2654   -1.3697 C   0  0  0  0  0  0  0  0  0  0  0  0
   -2.1005    5.3048   -1.4385 O   0  0  0  0  0  0  0  0  0  0  0  0
   -2.4838    3.9923   -1.1976 C   0  0  0  0  0  0  0  0  0  0  0  0
   -3.8144    3.6569   -0.9066 C   0  0  0  0  0  0  0  0  0  0  0  0
   -4.1879    2.3301   -0.6644 C   0  0  0  0  0  0  0  0  0  0  0  0
   -3.2409    1.3490   -0.7131 C   0  0  0  0  0  0  0  0  0  0  0  0
   -1.9544    1.7274   -1.0028 C   0  0  0  0  0  0  0  0  0  0  0  0
   -1.5226    2.9863   -1.2460 C   0  0  0  0  0  0  0  0  0  0  0  0
   -0.1643    2.9039   -1.4859 O   0  0  0  0  0  0  0  0  0  0  0  0
    0.3158    1.5756   -1.1847 C   0  0  2  0  0  0  0  0  0  0  0  0
   -0.9047    0.7219   -1.0813 C   0  0  2  0  0  0  0  0  0  0  0  0
   -1.1455   -0.1505   -2.2683 C   0  0  0  0  0  0  0  0  0  0  0  0
   -1.4297   -1.5751   -2.0377 C   0  0  0  0  0  0  0  0  0  0  0  0
   -1.8888   -1.9376   -0.7368 N   0  0  0  0  0  0  0  0  0  0  0  0
   -2.2942   -0.8284    0.0827 C   0  0  2  0  0  0  0  0  0  0  0  0
   -3.4775   -0.0919   -0.4557 C   0  0  0  0  0  0  0  0  0  0  0  0
   -1.0415    0.0044    0.2577 C   0  0  2  0  0  0  0  0  0  0  0  0
   -1.1390    1.0300    1.3406 C   0  0  0  0  0  0  0  0  0  0  0  0
    0.0187    1.9926    1.1909 C   0  0  0  0  0  0  0  0  0  0  0  0
    1.0263    1.5101    0.1418 C   0  0  2  0  0  0  0  0  0  0  0  0
    2.0966    2.3455    0.2298 O   0  0  0  0  0  0  0  0  0  0  0  0
    3.0837    2.2290   -0.7007 C   0  0  0  0  0  0  0  0  0  0  0  0
    1.3838    0.0946    0.4435 C   0  0  2  0  0  0  0  0  0  0  0  0
    0.1649   -0.8193    0.5310 C   0  0  0  0  0  0  0  0  0  0  0  0
    2.2587   -0.0798    1.6673 C   0  0  0  0  0  0  0  0  0  0  0  0
    2.6052   -1.8133    1.9863 S   0  0  0  0  0  0  0  0  0  0  0  0
    3.6272   -2.6356    0.7860 C   0  0  0  0  0  0  0  0  0  0  0  0
    5.0115   -2.1120    0.8545 C   0  0  0  0  0  0  0  0  0  0  0  0
    5.5191   -1.1099    0.0962 C   0  0  0  0  0  0  0  0  0  0  0  0
    6.8393   -0.6837    0.2537 C   0  0  0  0  0  0  0  0  0  0  0  0
    7.6557   -1.2951    1.2051 C   0  0  0  0  0  0  0  0  0  0  0  0
    7.1555   -2.3038    1.9723 C   0  0  0  0  0  0  0  0  0  0  0  0
    5.8468   -2.7062    1.7969 C   0  0  0  0  0  0  0  0  0  0  0  0
   -2.6613   -3.1184   -0.6279 C   0  0  0  0  0  0  0  0  0  0  0  0
   -3.0412   -3.3568    0.8183 C   0  0  0  0  0  0  0  0  0  0  0  0
   -3.8681   -4.5987    1.0163 C   0  0  0  0  0  0  0  0  0  0  0  0
   -4.4695   -3.2718    1.2527 C   0  0  0  0  0  0  0  0  0  0  0  0
   -3.6254    6.2805   -0.3529 H   0  0  0  0  0  0  0  0  0  0  0  0
   -2.7231    7.2742   -1.5332 H   0  0  0  0  0  0  0  0  0  0  0  0
   -3.9347    5.9665   -2.0708 H   0  0  0  0  0  0  0  0  0  0  0  0
   -4.5767    4.4292   -0.8651 H   0  0  0  0  0  0  0  0  0  0  0  0
   -5.2042    2.0478   -0.4381 H   0  0  0  0  0  0  0  0  0  0  0  0
    0.9280    1.2754   -2.0307 H   0  0  0  0  0  0  0  0  0  0  0  0
   -0.2398   -0.0264   -2.9312 H   0  0  0  0  0  0  0  0  0  0  0  0
   -1.9642    0.2680   -2.9048 H   0  0  0  0  0  0  0  0  0  0  0  0
   -0.5241   -2.1760   -2.2628 H   0  0  0  0  0  0  0  0  0  0  0  0
   -2.1924   -1.9664   -2.7701 H   0  0  0  0  0  0  0  0  0  0  0  0
   -2.5599   -1.2208    1.0752 H   0  0  0  0  0  0  0  0  0  0  0  0
   -4.3883   -0.1724    0.1694 H   0  0  0  0  0  0  0  0  0  0  0  0
   -3.7043   -0.5407   -1.4674 H   0  0  0  0  0  0  0  0  0  0  0  0
   -2.0504    1.6310    1.3644 H   0  0  0  0  0  0  0  0  0  0  0  0
   -1.0645    0.5232    2.3555 H   0  0  0  0  0  0  0  0  0  0  0  0
    0.5864    2.0305    2.1427 H   0  0  0  0  0  0  0  0  0  0  0  0
   -0.2980    3.0266    0.9457 H   0  0  0  0  0  0  0  0  0  0  0  0
    2.7154    2.4010   -1.7546 H   0  0  0  0  0  0  0  0  0  0  0  0
    3.7258    1.3614   -0.6236 H   0  0  0  0  0  0  0  0  0  0  0  0
    3.7637    3.1225   -0.5400 H   0  0  0  0  0  0  0  0  0  0  0  0
    2.0012   -0.3031   -0.4151 H   0  0  0  0  0  0  0  0  0  0  0  0
    0.2746   -1.7333   -0.0486 H   0  0  0  0  0  0  0  0  0  0  0  0
    0.0976   -1.1593    1.6070 H   0  0  0  0  0  0  0  0  0  0  0  0
    1.7871    0.3460    2.5763 H   0  0  0  0  0  0  0  0  0  0  0  0
    3.2150    0.4343    1.4721 H   0  0  0  0  0  0  0  0  0  0  0  0
    3.6351   -3.7393    0.9086 H   0  0  0  0  0  0  0  0  0  0  0  0
    3.2505   -2.4263   -0.2449 H   0  0  0  0  0  0  0  0  0  0  0  0
    4.9091   -0.6474   -0.6361 H   0  0  0  0  0  0  0  0  0  0  0  0
    7.2737    0.1061   -0.3284 H   0  0  0  0  0  0  0  0  0  0  0  0
    8.6822   -1.0017    1.3650 H   0  0  0  0  0  0  0  0  0  0  0  0
    7.7448   -2.8143    2.7260 H   0  0  0  0  0  0  0  0  0  0  0  0
    5.4710   -3.5193    2.4259 H   0  0  0  0  0  0  0  0  0  0  0  0
   -2.0469   -3.9974   -0.9548 H   0  0  0  0  0  0  0  0  0  0  0  0
   -3.5947   -3.1391   -1.2152 H   0  0  0  0  0  0  0  0  0  0  0  0
   -2.2847   -3.1506    1.6217 H   0  0  0  0  0  0  0  0  0  0  0  0
   -4.2156   -5.1689    0.1492 H   0  0  0  0  0  0  0  0  0  0  0  0
   -3.6052   -5.2401    1.8785 H   0  0  0  0  0  0  0  0  0  0  0  0
   -4.6917   -3.0189    2.2966 H   0  0  0  0  0  0  0  0  0  0  0  0
   -5.2104   -2.8943    0.5027 H   0  0  0  0  0  0  0  0  0  0  0  0
  1  2  1  0
  2  3  1  0
  3  4  2  0
  4  5  1  0
  5  6  2  0
  6  7  1  0
  7  8  2  0
  8  9  1  0
  9 10  1  0
 10 11  1  0
 11 12  1  6
 12 13  1  0
 13 14  1  0
 14 15  1  0
 15 16  1  0
 15 17  1  0
 17 18  1  1
 18 19  1  0
 19 20  1  0
 20 21  1  6
 21 22  1  0
 20 23  1  0
 23 24  1  0
 23 25  1  0
 25 26  1  0
 26 27  1  0
 27 28  1  0
 28 29  2  0
 29 30  1  0
 30 31  2  0
 31 32  1  0
 32 33  2  0
 14 34  1  0
 34 35  1  0
 35 36  1  0
 36 37  1  0
  8  3  1  0
 20 10  1  0
 33 28  1  0
 37 35  1  0
 16  6  1  0
 24 17  1  0
 11  7  1  0
 17 11  1  0
  1 38  1  0
  1 39  1  0
  1 40  1  0
  4 41  1  0
  5 42  1  0
 10 43  1  6
 12 44  1  0
 12 45  1  0
 13 46  1  0
 13 47  1  0
 15 48  1  1
 16 49  1  0
 16 50  1  0
 18 51  1  0
 18 52  1  0
 19 53  1  0
 19 54  1  0
 22 55  1  0
 22 56  1  0
 22 57  1  0
 23 58  1  6
 24 59  1  0
 24 60  1  0
 25 61  1  0
 25 62  1  0
 27 63  1  0
 27 64  1  0
 29 65  1  0
 30 66  1  0
 31 67  1  0
 32 68  1  0
 33 69  1  0
 34 70  1  0
 34 71  1  0
 35 72  1  0
 36 73  1  0
 36 74  1  0
 37 75  1  0
 37 76  1  0
M  END
>  <Ligand ID>  (1) 
LIG0004774

>  <Ligand>  (1) 
SCHEMBL15485714

>  <SMILES>  (1) 
COc1ccc2c3c1O[C@@H]1[C@@]43CCN([C@H](C2)[C@@]24CC[C@@]1(OC)[C@H](C2)CSCc1ccccc1)CC1CC1

>  <CID>  (1) 
86711656.0

>  <ChEMBL ID>  (1) 
nan

>  <InChiKey>  (1) 
JSYKYDORIGJAKS-BUVWRSTLSA-N

>  <InChi>  (1) 
InChI=1S/C32H39NO3S/c1-34-25-11-10-23-16-26-30-12-13-32(35-2,24(17-30)20-37-19-22-6-4-3-5-7-22)29-31(30,27(23)28(25)36-29)14-15-33(26)18-21-8-9-21/h3-7,10-11,21,24,26,29H,8-9,12-20H2,1-2H3/t24-,26-,29-,30-,31+,32-/m1/s1

>  <IUPAC Name>  (1) 
(1S,2S,6R,14R,15R,16S)-16-(benzylsulfanylmethyl)-5-(cyclopropylmethyl)-11,15-dimethoxy-13-oxa-5-azahexacyclo[13.2.2.12,8.01,6.02,14.012,20]icosa-8(20),9,11-triene

$$$$
