
     RDKit          3D

101105  0  0  0  0  0  0  0  0999 V2000
    0.8250   -5.5414   -2.7914 N   0  0  0  0  0  0  0  0  0  0  0  0
   -0.5275   -5.1766   -2.5462 C   0  0  0  0  0  0  0  0  0  0  0  0
   -0.9308   -3.9801   -2.3804 N   0  0  0  0  0  0  0  0  0  0  0  0
   -2.3346   -3.6490   -2.1276 C   0  0  0  0  0  0  0  0  0  0  0  0
   -2.6191   -2.3605   -2.8583 C   0  0  0  0  0  0  0  0  0  0  0  0
   -1.7829   -1.2072   -2.4994 C   0  0  0  0  0  0  0  0  0  0  0  0
   -1.7916   -0.6844   -1.1088 C   0  0  1  0  0  0  0  0  0  0  0  0
   -3.1080   -0.2315   -0.6206 C   0  0  0  0  0  0  0  0  0  0  0  0
   -3.6452   -0.7018    0.4363 O   0  0  0  0  0  0  0  0  0  0  0  0
   -3.7588    0.7823   -1.4010 N   0  0  0  0  0  0  0  0  0  0  0  0
   -5.0592    1.3225   -1.0474 C   0  0  2  0  0  0  0  0  0  0  0  0
   -5.7368    1.8358   -2.2140 C   0  0  0  0  0  0  0  0  0  0  0  0
   -5.0854    1.9061   -3.3095 O   0  0  0  0  0  0  0  0  0  0  0  0
   -7.0882    2.2775   -2.2753 N   0  0  0  0  0  0  0  0  0  0  0  0
   -4.9336    2.2272    0.1608 C   0  0  0  0  0  0  0  0  0  0  0  0
   -6.2341    2.8162    0.4944 C   0  0  0  0  0  0  0  0  0  0  0  0
   -7.2597    2.3614    1.3018 C   0  0  0  0  0  0  0  0  0  0  0  0
   -8.2855    3.2415    1.2616 N   0  0  0  0  0  0  0  0  0  0  0  0
   -7.9443    4.2630    0.4413 C   0  0  0  0  0  0  0  0  0  0  0  0
   -6.6689    4.0326   -0.0570 C   0  0  0  0  0  0  0  0  0  0  0  0
   -6.0793    4.9543   -0.9058 C   0  0  0  0  0  0  0  0  0  0  0  0
   -6.7148    6.1259   -1.2931 C   0  0  0  0  0  0  0  0  0  0  0  0
   -7.9805    6.3536   -0.7982 C   0  0  0  0  0  0  0  0  0  0  0  0
   -8.5853    5.4421    0.0507 C   0  0  0  0  0  0  0  0  0  0  0  0
   -1.0564   -1.4973   -0.1412 N   0  0  0  0  0  0  0  0  0  0  0  0
    0.3117   -1.2664   -0.0304 C   0  0  0  0  0  0  0  0  0  0  0  0
    0.8479   -0.3960   -0.7807 O   0  0  0  0  0  0  0  0  0  0  0  0
    1.2422   -1.9845    0.9408 C   0  0  1  0  0  0  0  0  0  0  0  0
    2.5712   -1.5560    0.7111 N   0  0  0  0  0  0  0  0  0  0  0  0
    3.0148   -0.1843    0.7489 C   0  0  0  0  0  0  0  0  0  0  0  0
    2.1882    0.7361    1.0732 O   0  0  0  0  0  0  0  0  0  0  0  0
    4.3765    0.2408    0.4135 C   0  0  1  0  0  0  0  0  0  0  0  0
    4.4019    1.6921    0.5869 N   0  0  0  0  0  0  0  0  0  0  0  0
    4.4996    2.5665   -0.8648 S   0  0  0  0  0  0  0  0  0  0  0  0
    3.2656    2.3994   -1.7171 O   0  0  0  0  0  0  0  0  0  0  0  0
    4.5332    4.0457   -0.5030 O   0  0  0  0  0  0  0  0  0  0  0  0
    5.9413    2.2339   -1.7801 C   0  0  0  0  0  0  0  0  0  0  0  0
    5.8770    1.2772   -2.7614 C   0  0  0  0  0  0  0  0  0  0  0  0
    6.9500    0.9343   -3.5638 C   0  0  0  0  0  0  0  0  0  0  0  0
    8.1652    1.5929   -3.3697 C   0  0  0  0  0  0  0  0  0  0  0  0
    8.2490    2.5518   -2.3922 C   0  0  0  0  0  0  0  0  0  0  0  0
    7.1429    2.8746   -1.5974 C   0  0  0  0  0  0  0  0  0  0  0  0
    9.4861    1.1305   -4.4093 Cl  0  0  0  0  0  0  0  0  0  0  0  0
    5.5392   -0.3687    1.0628 C   0  0  0  0  0  0  0  0  0  0  0  0
    5.6702   -0.2487    2.5274 C   0  0  0  0  0  0  0  0  0  0  0  0
    6.3023    0.7590    3.2011 N   0  0  0  0  0  0  0  0  0  0  0  0
    6.2361    0.5148    4.5346 C   0  0  0  0  0  0  0  0  0  0  0  0
    5.5659   -0.6420    4.7205 N   0  0  0  0  0  0  0  0  0  0  0  0
    5.2280   -1.0977    3.5124 C   0  0  0  0  0  0  0  0  0  0  0  0
    0.5944   -1.8691    2.2519 C   0  0  0  0  0  0  0  0  0  0  0  0
    1.2643   -2.4540    3.4314 C   0  0  0  0  0  0  0  0  0  0  0  0
    2.0139   -1.6094    4.2643 C   0  0  0  0  0  0  0  0  0  0  0  0
    2.6329   -2.1785    5.3741 C   0  0  0  0  0  0  0  0  0  0  0  0
    2.5179   -3.5377    5.6533 C   0  0  0  0  0  0  0  0  0  0  0  0
    1.7782   -4.3428    4.8219 C   0  0  0  0  0  0  0  0  0  0  0  0
    1.1536   -3.8040    3.7139 C   0  0  0  0  0  0  0  0  0  0  0  0
   -1.4718   -6.2408   -2.4943 N   0  0  0  0  0  0  0  0  0  0  0  0
    1.2212   -6.4782   -2.5822 H   0  0  0  0  0  0  0  0  0  0  0  0
    1.5288   -4.8589   -3.2096 H   0  0  0  0  0  0  0  0  0  0  0  0
   -2.9357   -4.4730   -2.5765 H   0  0  0  0  0  0  0  0  0  0  0  0
   -2.5120   -3.6597   -1.0690 H   0  0  0  0  0  0  0  0  0  0  0  0
   -2.3735   -2.5986   -3.9420 H   0  0  0  0  0  0  0  0  0  0  0  0
   -3.7127   -2.1441   -2.9036 H   0  0  0  0  0  0  0  0  0  0  0  0
   -2.0609   -0.3514   -3.1646 H   0  0  0  0  0  0  0  0  0  0  0  0
   -0.7158   -1.4849   -2.7297 H   0  0  0  0  0  0  0  0  0  0  0  0
   -1.1406    0.2585   -1.1924 H   0  0  0  0  0  0  0  0  0  0  0  0
   -3.3234    1.1853   -2.2670 H   0  0  0  0  0  0  0  0  0  0  0  0
   -5.6297    0.4275   -0.6137 H   0  0  0  0  0  0  0  0  0  0  0  0
   -7.3360    3.1540   -2.7991 H   0  0  0  0  0  0  0  0  0  0  0  0
   -7.8543    1.7346   -1.8002 H   0  0  0  0  0  0  0  0  0  0  0  0
   -4.1792    3.0228   -0.0771 H   0  0  0  0  0  0  0  0  0  0  0  0
   -4.6117    1.5829    1.0144 H   0  0  0  0  0  0  0  0  0  0  0  0
   -7.2443    1.4591    1.8657 H   0  0  0  0  0  0  0  0  0  0  0  0
   -9.1984    3.1472    1.7828 H   0  0  0  0  0  0  0  0  0  0  0  0
   -5.0694    4.7646   -1.2956 H   0  0  0  0  0  0  0  0  0  0  0  0
   -6.2000    6.8187   -1.9635 H   0  0  0  0  0  0  0  0  0  0  0  0
   -8.4814    7.2717   -1.0951 H   0  0  0  0  0  0  0  0  0  0  0  0
   -9.5981    5.6525    0.4310 H   0  0  0  0  0  0  0  0  0  0  0  0
   -1.4939   -2.2183    0.4612 H   0  0  0  0  0  0  0  0  0  0  0  0
    1.1502   -3.0578    0.5710 H   0  0  0  0  0  0  0  0  0  0  0  0
    3.3646   -2.2378    0.4895 H   0  0  0  0  0  0  0  0  0  0  0  0
    4.5222    0.0513   -0.7303 H   0  0  0  0  0  0  0  0  0  0  0  0
    4.9541    2.0253    1.3732 H   0  0  0  0  0  0  0  0  0  0  0  0
    4.9576    0.7414   -2.9585 H   0  0  0  0  0  0  0  0  0  0  0  0
    6.8666    0.1630   -4.3386 H   0  0  0  0  0  0  0  0  0  0  0  0
    9.2022    3.0399   -2.2683 H   0  0  0  0  0  0  0  0  0  0  0  0
    7.2034    3.6181   -0.8370 H   0  0  0  0  0  0  0  0  0  0  0  0
    6.5136   -0.0688    0.5796 H   0  0  0  0  0  0  0  0  0  0  0  0
    5.4803   -1.4894    0.8644 H   0  0  0  0  0  0  0  0  0  0  0  0
    6.7800    1.5998    2.8135 H   0  0  0  0  0  0  0  0  0  0  0  0
    6.6357    1.1141    5.3446 H   0  0  0  0  0  0  0  0  0  0  0  0
    4.6765   -2.0211    3.2720 H   0  0  0  0  0  0  0  0  0  0  0  0
    0.3531   -0.8118    2.5420 H   0  0  0  0  0  0  0  0  0  0  0  0
   -0.4410   -2.3463    2.2197 H   0  0  0  0  0  0  0  0  0  0  0  0
    2.0895   -0.5564    4.0292 H   0  0  0  0  0  0  0  0  0  0  0  0
    3.2096   -1.5860    6.0448 H   0  0  0  0  0  0  0  0  0  0  0  0
    3.0284   -3.9195    6.5402 H   0  0  0  0  0  0  0  0  0  0  0  0
    1.7097   -5.4119    5.0742 H   0  0  0  0  0  0  0  0  0  0  0  0
    0.5799   -4.4968    3.0933 H   0  0  0  0  0  0  0  0  0  0  0  0
   -1.7995   -6.5894   -3.4431 H   0  0  0  0  0  0  0  0  0  0  0  0
   -1.8196   -6.6533   -1.6007 H   0  0  0  0  0  0  0  0  0  0  0  0
  1  2  1  0
  2  3  2  3
  3  4  1  0
  4  5  1  0
  5  6  1  0
  6  7  1  0
  7  8  1  0
  8  9  2  0
  8 10  1  0
 10 11  1  0
 11 12  1  0
 12 13  2  0
 12 14  1  0
 11 15  1  0
 15 16  1  0
 16 17  2  0
 17 18  1  0
 18 19  1  0
 19 20  2  0
 20 21  1  0
 21 22  2  0
 22 23  1  0
 23 24  2  0
  7 25  1  0
 25 26  1  0
 26 27  2  0
 26 28  1  0
 28 29  1  0
 29 30  1  0
 30 31  2  0
 30 32  1  0
 32 33  1  0
 33 34  1  0
 34 35  2  0
 34 36  2  0
 34 37  1  0
 37 38  2  0
 38 39  1  0
 39 40  2  0
 40 41  1  0
 41 42  2  0
 40 43  1  0
 32 44  1  0
 44 45  1  0
 45 46  1  0
 46 47  1  0
 47 48  2  0
 48 49  1  0
 28 50  1  0
 50 51  1  0
 51 52  2  0
 52 53  1  0
 53 54  2  0
 54 55  1  0
 55 56  2  0
  2 57  1  0
 20 16  1  0
 42 37  1  0
 49 45  2  0
 56 51  1  0
 24 19  1  0
  1 58  1  0
  1 59  1  0
  4 60  1  0
  4 61  1  0
  5 62  1  0
  5 63  1  0
  6 64  1  0
  6 65  1  0
  7 66  1  6
 10 67  1  0
 11 68  1  1
 14 69  1  0
 14 70  1  0
 15 71  1  0
 15 72  1  0
 17 73  1  0
 18 74  1  0
 21 75  1  0
 22 76  1  0
 23 77  1  0
 24 78  1  0
 25 79  1  0
 28 80  1  6
 29 81  1  0
 32 82  1  6
 33 83  1  0
 38 84  1  0
 39 85  1  0
 41 86  1  0
 42 87  1  0
 44 88  1  0
 44 89  1  0
 46 90  1  0
 47 91  1  0
 49 92  1  0
 50 93  1  0
 50 94  1  0
 52 95  1  0
 53 96  1  0
 54 97  1  0
 55 98  1  0
 56 99  1  0
 57100  1  0
 57101  1  0
M  END
>  <Ligand ID>  (1) 
LIG0002648

>  <Ligand>  (1) 
CHEMBL91957

>  <SMILES>  (1) 
NC(=NCCC[C@@H](C(=O)N[C@H](C(=O)N)Cc1c[nH]c2c1cccc2)NC(=O)[C@@H](NC(=O)[C@@H](NS(=O)(=O)c1ccc(cc1)Cl)Cc1[nH]cnc1)Cc1ccccc1)N

>  <CID>  (1) 
44323016.0

>  <ChEMBL ID>  (1) 
nan

>  <InChiKey>  (1) 
NPVNOTIZHSHLKZ-YRCZKMHPSA-N

>  <InChi>  (1) 
InChI=1S/C38H44ClN11O6S/c39-25-12-14-27(15-13-25)57(55,56)50-33(19-26-21-43-22-46-26)37(54)49-32(17-23-7-2-1-3-8-23)36(53)47-30(11-6-16-44-38(41)42)35(52)48-31(34(40)51)18-24-20-45-29-10-5-4-9-28(24)29/h1-5,7-10,12-15,20-22,30-33,45,50H,6,11,16-19H2,(H2,40,51)(H,43,46)(H,47,53)(H,48,52)(H,49,54)(H4,41,42,44)/t30-,31-,32-,33-/m0/s1

>  <IUPAC Name>  (1) 
(2S)-N-[(2S)-1-amino-3-(1H-indol-3-yl)-1-oxopropan-2-yl]-2-[[(2S)-2-[[(2S)-2-[(4-chlorophenyl)sulfonylamino]-3-(1H-imidazol-5-yl)propanoyl]amino]-3-phenylpropanoyl]amino]-5-(diaminomethylideneamino)pentanamide

$$$$
