
     RDKit          3D

 44 44  0  0  0  0  0  0  0  0999 V2000
   -1.5160    0.0805    3.0019 C   0  0  0  0  0  0  0  0  0  0  0  0
   -2.3720   -0.1306    1.9182 O   0  0  0  0  0  0  0  0  0  0  0  0
   -2.0150   -0.0681    0.5791 C   0  0  0  0  0  0  0  0  0  0  0  0
   -0.7089    0.2246    0.1766 C   0  0  0  0  0  0  0  0  0  0  0  0
   -0.3446    0.2891   -1.1415 C   0  0  0  0  0  0  0  0  0  0  0  0
   -1.3624    0.0431   -2.0714 C   0  0  0  0  0  0  0  0  0  0  0  0
   -2.6498   -0.2456   -1.6886 C   0  0  0  0  0  0  0  0  0  0  0  0
   -2.9950   -0.3054   -0.3486 C   0  0  0  0  0  0  0  0  0  0  0  0
   -4.3053   -0.6005   -0.0402 O   0  0  0  0  0  0  0  0  0  0  0  0
   -5.3429    0.3156    0.1295 C   0  0  0  0  0  0  0  0  0  0  0  0
   -6.5752   -0.4515    0.4513 C   0  0  0  0  0  0  0  0  0  0  0  0
   -6.4806   -1.7236    0.5129 O   0  0  0  0  0  0  0  0  0  0  0  0
   -7.8030    0.1291    0.6848 O   0  0  0  0  0  0  0  0  0  0  0  0
   -3.8413   -0.5361   -2.9572 Cl  0  0  0  0  0  0  0  0  0  0  0  0
    1.0250    0.5946   -1.6181 C   0  0  0  0  0  0  0  0  0  0  0  0
    2.0497   -0.8783   -1.8300 P   0  0  0  0  0  0  0  0  0  0  0  0
    1.6752   -1.4912   -3.1950 O   0  0  0  0  0  0  0  0  0  0  0  0
    3.7861   -0.4354   -1.9115 C   0  0  0  0  0  0  0  0  0  0  0  0
    4.2721    0.5275   -0.8980 C   0  0  0  0  0  0  0  0  0  0  0  0
    4.1390    0.0300    0.5087 C   0  0  1  0  0  0  0  0  0  0  0  0
    4.6877    1.1187    1.3969 C   0  0  0  0  0  0  0  0  0  0  0  0
    5.8636    1.5061    1.1523 O   0  0  0  0  0  0  0  0  0  0  0  0
    3.9321    1.6622    2.4287 O   0  0  0  0  0  0  0  0  0  0  0  0
    2.8105   -0.2749    0.9315 N   0  0  0  0  0  0  0  0  0  0  0  0
    1.6879   -2.0135   -0.6580 O   0  0  0  0  0  0  0  0  0  0  0  0
   -2.0184   -0.4102    3.8847 H   0  0  0  0  0  0  0  0  0  0  0  0
   -0.5571   -0.4056    2.7978 H   0  0  0  0  0  0  0  0  0  0  0  0
   -1.4147    1.1672    3.1589 H   0  0  0  0  0  0  0  0  0  0  0  0
    0.0309    0.4050    0.9401 H   0  0  0  0  0  0  0  0  0  0  0  0
   -1.0853    0.0913   -3.1364 H   0  0  0  0  0  0  0  0  0  0  0  0
   -5.1325    1.1064    0.8703 H   0  0  0  0  0  0  0  0  0  0  0  0
   -5.5363    0.8497   -0.8281 H   0  0  0  0  0  0  0  0  0  0  0  0
   -8.5780   -0.4449    1.0154 H   0  0  0  0  0  0  0  0  0  0  0  0
    1.4776    1.3048   -0.9007 H   0  0  0  0  0  0  0  0  0  0  0  0
    0.8823    1.1174   -2.6054 H   0  0  0  0  0  0  0  0  0  0  0  0
    4.4000   -1.3784   -1.8383 H   0  0  0  0  0  0  0  0  0  0  0  0
    4.0070   -0.0418   -2.9465 H   0  0  0  0  0  0  0  0  0  0  0  0
    3.8072    1.5373   -0.9951 H   0  0  0  0  0  0  0  0  0  0  0  0
    5.3630    0.7035   -1.0669 H   0  0  0  0  0  0  0  0  0  0  0  0
    4.7867   -0.8582    0.6546 H   0  0  0  0  0  0  0  0  0  0  0  0
    4.3974    2.2132    3.1545 H   0  0  0  0  0  0  0  0  0  0  0  0
    2.3705    0.5416    1.4148 H   0  0  0  0  0  0  0  0  0  0  0  0
    2.8615   -1.0502    1.6302 H   0  0  0  0  0  0  0  0  0  0  0  0
    2.3214   -2.7751   -0.7182 H   0  0  0  0  0  0  0  0  0  0  0  0
  1  2  1  0
  2  3  1  0
  3  4  2  0
  4  5  1  0
  5  6  2  0
  6  7  1  0
  7  8  2  0
  8  9  1  0
  9 10  1  0
 10 11  1  0
 11 12  2  0
 11 13  1  0
  7 14  1  0
  5 15  1  0
 15 16  1  0
 16 17  2  0
 16 18  1  0
 18 19  1  0
 19 20  1  0
 20 21  1  0
 21 22  2  0
 21 23  1  0
 20 24  1  0
 16 25  1  0
  8  3  1  0
  1 26  1  0
  1 27  1  0
  1 28  1  0
  4 29  1  0
  6 30  1  0
 10 31  1  0
 10 32  1  0
 13 33  1  0
 15 34  1  0
 15 35  1  0
 18 36  1  0
 18 37  1  0
 19 38  1  0
 19 39  1  0
 20 40  1  6
 23 41  1  0
 24 42  1  0
 24 43  1  0
 25 44  1  0
M  END
>  <Ligand ID>  (1) 
LIG0004727

>  <Ligand>  (1) 
CHEMBL3909874

>  <SMILES>  (1) 
COc1cc(cc(c1OCC(=O)O)Cl)CP(=O)(CC[C@@H](C(=O)O)N)O

>  <CID>  (1) 
71041877.0

>  <ChEMBL ID>  (1) 
nan

>  <InChiKey>  (1) 
POSMNGDKSNBSGR-JTQLQIEISA-N

>  <InChi>  (1) 
InChI=1S/C14H19ClNO8P/c1-23-11-5-8(4-9(15)13(11)24-6-12(17)18)7-25(21,22)3-2-10(16)14(19)20/h4-5,10H,2-3,6-7,16H2,1H3,(H,17,18)(H,19,20)(H,21,22)/t10-/m0/s1

>  <IUPAC Name>  (1) 
(2S)-2-amino-4-[[4-(carboxymethoxy)-3-chloro-5-methoxyphenyl]methyl-hydroxyphosphoryl]butanoic acid

$$$$
