
     RDKit          3D

 35 35  0  0  0  0  0  0  0  0999 V2000
    3.1121    1.3146    1.9182 O   0  0  0  0  0  0  0  0  0  0  0  0
    3.4870    0.9545    0.8297 C   0  0  0  0  0  0  0  0  0  0  0  0
    3.5685   -0.4679    0.4125 C   0  0  0  0  0  0  0  0  0  0  0  0
    2.6887   -0.7305   -0.7854 C   0  0  0  0  0  0  0  0  0  0  0  0
    1.2618   -0.4502   -0.5597 C   0  0  0  0  0  0  0  0  0  0  0  0
    0.4409   -1.4538   -0.0869 C   0  0  0  0  0  0  0  0  0  0  0  0
   -0.9045   -1.2160    0.1337 C   0  0  0  0  0  0  0  0  0  0  0  0
   -1.4997    0.0067   -0.0977 C   0  0  0  0  0  0  0  0  0  0  0  0
   -0.6698    1.0153   -0.5740 C   0  0  0  0  0  0  0  0  0  0  0  0
    0.6755    0.7803   -0.7953 C   0  0  0  0  0  0  0  0  0  0  0  0
   -2.9237    0.2512    0.1379 C   0  0  0  0  0  0  0  0  0  0  0  0
   -3.6714   -0.0746   -1.1574 C   0  0  0  0  0  0  0  0  0  0  0  0
   -3.5092   -0.4971    1.2948 C   0  0  0  0  0  0  0  0  0  0  0  0
   -3.2126    1.7280    0.3970 C   0  0  0  0  0  0  0  0  0  0  0  0
    4.9995   -0.7041   -0.0216 C   0  0  0  0  0  0  0  0  0  0  0  0
    3.7908    1.7080    0.0879 H   0  0  0  0  0  0  0  0  0  0  0  0
    3.3449   -1.1181    1.2722 H   0  0  0  0  0  0  0  0  0  0  0  0
    2.8747   -1.7366   -1.2076 H   0  0  0  0  0  0  0  0  0  0  0  0
    3.0413   -0.0106   -1.5755 H   0  0  0  0  0  0  0  0  0  0  0  0
    0.8848   -2.4298    0.1046 H   0  0  0  0  0  0  0  0  0  0  0  0
   -1.4789   -2.0545    0.5046 H   0  0  0  0  0  0  0  0  0  0  0  0
   -1.0356    2.0124   -0.7885 H   0  0  0  0  0  0  0  0  0  0  0  0
    1.3099    1.5811   -1.1681 H   0  0  0  0  0  0  0  0  0  0  0  0
   -3.2056    0.5556   -1.9425 H   0  0  0  0  0  0  0  0  0  0  0  0
   -3.4951   -1.1394   -1.4060 H   0  0  0  0  0  0  0  0  0  0  0  0
   -4.7563    0.1104   -1.0496 H   0  0  0  0  0  0  0  0  0  0  0  0
   -4.6269   -0.3691    1.2181 H   0  0  0  0  0  0  0  0  0  0  0  0
   -3.2496    0.0577    2.2410 H   0  0  0  0  0  0  0  0  0  0  0  0
   -3.2729   -1.5597    1.3401 H   0  0  0  0  0  0  0  0  0  0  0  0
   -3.0305    2.3460   -0.4968 H   0  0  0  0  0  0  0  0  0  0  0  0
   -2.7009    2.1034    1.3105 H   0  0  0  0  0  0  0  0  0  0  0  0
   -4.3093    1.7504    0.6535 H   0  0  0  0  0  0  0  0  0  0  0  0
    5.2773   -1.7298    0.2750 H   0  0  0  0  0  0  0  0  0  0  0  0
    5.1015   -0.5593   -1.1358 H   0  0  0  0  0  0  0  0  0  0  0  0
    5.6933    0.0256    0.4889 H   0  0  0  0  0  0  0  0  0  0  0  0
  1  2  2  0
  2  3  1  0
  3  4  1  0
  4  5  1  0
  5  6  2  0
  6  7  1  0
  7  8  2  0
  8  9  1  0
  9 10  2  0
  8 11  1  0
 11 12  1  0
 11 13  1  0
 11 14  1  0
  3 15  1  0
 10  5  1  0
  2 16  1  0
  3 17  1  0
  4 18  1  0
  4 19  1  0
  6 20  1  0
  7 21  1  0
  9 22  1  0
 10 23  1  0
 12 24  1  0
 12 25  1  0
 12 26  1  0
 13 27  1  0
 13 28  1  0
 13 29  1  0
 14 30  1  0
 14 31  1  0
 14 32  1  0
 15 33  1  0
 15 34  1  0
 15 35  1  0
M  END
>  <Ligand ID>  (1) 
LIG0000222

>  <Ligand>  (1) 
Lilial

>  <SMILES>  (1) 
O=CC(Cc1ccc(cc1)C(C)(C)C)C

>  <CID>  (1) 
228987.0

>  <ChEMBL ID>  (1) 
nan

>  <InChiKey>  (1) 
SDQFDHOLCGWZPU-UHFFFAOYSA-N

>  <InChi>  (1) 
InChI=1S/C14H20O/c1-11(10-15)9-12-5-7-13(8-6-12)14(2,3)4/h5-8,10-11H,9H2,1-4H3

>  <IUPAC Name>  (1) 
3-(4-tert-butylphenyl)-2-methylpropanal

$$$$
