
     RDKit          3D

 77 78  0  0  0  0  0  0  0  0999 V2000
   -5.0426    1.9036   -3.6122 O   0  0  0  0  0  0  0  0  0  0  0  0
   -4.9800    1.2754   -2.4794 C   0  0  0  0  0  0  0  0  0  0  0  0
   -3.6892    1.1063   -1.9016 C   0  0  0  0  0  0  0  0  0  0  0  0
   -2.6166    1.7017   -2.5838 C   0  0  0  0  0  0  0  0  0  0  0  0
   -1.3268    1.6642   -2.1465 C   0  0  0  0  0  0  0  0  0  0  0  0
   -1.0321    1.0203   -0.9856 C   0  0  0  0  0  0  0  0  0  0  0  0
   -2.0266    0.4293   -0.2890 C   0  0  0  0  0  0  0  0  0  0  0  0
   -3.4081    0.4375   -0.7059 C   0  0  0  0  0  0  0  0  0  0  0  0
   -4.1929   -0.1862    0.0973 O   0  0  0  0  0  0  0  0  0  0  0  0
   -4.9808   -0.8098    0.8993 C   0  0  0  0  0  0  0  0  0  0  0  0
   -5.0846   -0.0418    2.2327 C   0  0  0  0  0  0  0  0  0  0  0  0
   -4.5783   -0.8992    3.3424 C   0  0  0  0  0  0  0  0  0  0  0  0
   -5.5118   -2.1036    3.4583 C   0  0  0  0  0  0  0  0  0  0  0  0
   -5.4722   -2.9203    2.1852 C   0  0  0  0  0  0  0  0  0  0  0  0
   -4.5480   -2.2573    1.2268 C   0  0  0  0  0  0  0  0  0  0  0  0
    0.3634    0.9830   -0.5361 C   0  0  0  0  0  0  0  0  0  0  0  0
    1.3255    0.9555   -1.5260 C   0  0  0  0  0  0  0  0  0  0  0  0
    2.6564    0.9225   -1.1037 C   0  0  0  0  0  0  0  0  0  0  0  0
    2.9589    0.9187    0.2425 C   0  0  0  0  0  0  0  0  0  0  0  0
    1.9876    0.9465    1.2230 C   0  0  0  0  0  0  0  0  0  0  0  0
    0.6700    0.9791    0.8131 C   0  0  0  0  0  0  0  0  0  0  0  0
    4.4240    0.8800    0.5978 C   0  0  0  0  0  0  0  0  0  0  0  0
    4.9417   -0.5068    0.7660 C   0  0  0  0  0  0  0  0  0  0  0  0
    4.8694   -1.3924   -0.3000 N   0  0  0  0  0  0  0  0  0  0  0  0
    5.6126   -1.3032   -1.4711 C   0  0  0  0  0  0  0  0  0  0  0  0
    7.0743   -1.5633   -1.3026 C   0  0  1  0  0  0  0  0  0  0  0  0
    7.8617   -0.6056   -0.5693 C   0  0  0  0  0  0  0  0  0  0  0  0
    8.9005   -0.9978    0.2676 C   0  0  0  0  0  0  0  0  0  0  0  0
    9.6826   -0.0669    0.9411 C   0  0  0  0  0  0  0  0  0  0  0  0
    9.4649    1.2992    0.8110 C   0  0  0  0  0  0  0  0  0  0  0  0
    8.4511    1.6536   -0.0072 N   0  0  0  0  0  0  0  0  0  0  0  0
    7.6798    0.7743   -0.6703 C   0  0  0  0  0  0  0  0  0  0  0  0
    7.1876   -2.8407   -0.7025 O   0  0  0  0  0  0  0  0  0  0  0  0
   -6.2301    0.8630   -2.0170 N   0  0  0  0  0  0  0  0  0  0  0  0
   -7.6316    1.2222   -2.9766 S   0  0  0  0  0  0  0  0  0  0  0  0
   -8.6083    0.1132   -2.7498 O   0  0  0  0  0  0  0  0  0  0  0  0
   -7.2245    1.2370   -4.4227 O   0  0  0  0  0  0  0  0  0  0  0  0
   -8.3560    2.7682   -2.5642 C   0  0  0  0  0  0  0  0  0  0  0  0
    0.6928    0.0000    0.0000 Cl  0  0  0  0  0  0  0  0  0  0  0  0
    0.6909    0.0000    0.0000 Cl  0  0  0  0  0  0  0  0  0  0  0  0
   -2.7813    2.2396   -3.5286 H   0  0  0  0  0  0  0  0  0  0  0  0
   -0.5468    2.1372   -2.7092 H   0  0  0  0  0  0  0  0  0  0  0  0
   -1.7648   -0.0799    0.6357 H   0  0  0  0  0  0  0  0  0  0  0  0
   -6.0657   -0.9811    0.5422 H   0  0  0  0  0  0  0  0  0  0  0  0
   -4.5032    0.9031    2.1261 H   0  0  0  0  0  0  0  0  0  0  0  0
   -6.1504    0.1900    2.3747 H   0  0  0  0  0  0  0  0  0  0  0  0
   -3.5202   -1.1777    3.2639 H   0  0  0  0  0  0  0  0  0  0  0  0
   -4.7321   -0.3007    4.2998 H   0  0  0  0  0  0  0  0  0  0  0  0
   -5.1946   -2.6797    4.3468 H   0  0  0  0  0  0  0  0  0  0  0  0
   -6.5605   -1.7126    3.5571 H   0  0  0  0  0  0  0  0  0  0  0  0
   -5.0105   -3.8955    2.4658 H   0  0  0  0  0  0  0  0  0  0  0  0
   -6.4906   -3.0705    1.7542 H   0  0  0  0  0  0  0  0  0  0  0  0
   -3.5283   -2.2441    1.6195 H   0  0  0  0  0  0  0  0  0  0  0  0
   -4.5089   -2.8498    0.2841 H   0  0  0  0  0  0  0  0  0  0  0  0
    1.1071    0.9565   -2.5811 H   0  0  0  0  0  0  0  0  0  0  0  0
    3.4514    0.8996   -1.8392 H   0  0  0  0  0  0  0  0  0  0  0  0
    2.2946    0.9423    2.2581 H   0  0  0  0  0  0  0  0  0  0  0  0
   -0.1280    1.0024    1.5506 H   0  0  0  0  0  0  0  0  0  0  0  0
    4.5523    1.3702    1.6123 H   0  0  0  0  0  0  0  0  0  0  0  0
    4.9525    1.5326   -0.0909 H   0  0  0  0  0  0  0  0  0  0  0  0
    5.9489   -0.4179    1.2373 H   0  0  0  0  0  0  0  0  0  0  0  0
    4.3146   -0.9415    1.6252 H   0  0  0  0  0  0  0  0  0  0  0  0
    4.5564   -2.3285   -0.0236 H   0  0  0  0  0  0  0  0  0  0  0  0
    5.5209   -0.3470   -2.0349 H   0  0  0  0  0  0  0  0  0  0  0  0
    5.2303   -2.1016   -2.1830 H   0  0  0  0  0  0  0  0  0  0  0  0
    7.4788   -1.6429   -2.3676 H   0  0  0  0  0  0  0  0  0  0  0  0
    9.1208   -2.0668    0.4101 H   0  0  0  0  0  0  0  0  0  0  0  0
   10.4967   -0.3469    1.5971 H   0  0  0  0  0  0  0  0  0  0  0  0
   10.0339    2.0500    1.3036 H   0  0  0  0  0  0  0  0  0  0  0  0
    6.8809    1.0802   -1.3307 H   0  0  0  0  0  0  0  0  0  0  0  0
    8.0127   -3.2336   -1.0675 H   0  0  0  0  0  0  0  0  0  0  0  0
   -6.3231    0.3792   -1.1478 H   0  0  0  0  0  0  0  0  0  0  0  0
   -9.4094    2.7431   -2.9580 H   0  0  0  0  0  0  0  0  0  0  0  0
   -7.8423    3.6456   -2.9562 H   0  0  0  0  0  0  0  0  0  0  0  0
   -8.4629    2.7873   -1.4459 H   0  0  0  0  0  0  0  0  0  0  0  0
   -0.6928    0.0000    0.0000 H   0  0  0  0  0  0  0  0  0  0  0  0
   -0.6909    0.0000    0.0000 H   0  0  0  0  0  0  0  0  0  0  0  0
  1  2  2  0
  2  3  1  0
  3  4  2  0
  4  5  1  0
  5  6  2  0
  6  7  1  0
  7  8  2  0
  8  9  1  0
  9 10  1  0
 10 11  1  0
 11 12  1  0
 12 13  1  0
 13 14  1  0
 14 15  1  0
  6 16  1  0
 16 17  2  0
 17 18  1  0
 18 19  2  0
 19 20  1  0
 20 21  2  0
 19 22  1  0
 22 23  1  0
 23 24  1  0
 24 25  1  0
 25 26  1  0
 26 27  1  0
 27 28  2  0
 28 29  1  0
 29 30  2  0
 30 31  1  0
 31 32  2  0
 26 33  1  0
  2 34  1  0
 34 35  1  0
 35 36  2  0
 35 37  2  0
 35 38  1  0
  8  3  1  0
 15 10  1  0
 21 16  1  0
 32 27  1  0
  4 41  1  0
  5 42  1  0
  7 43  1  0
 10 44  1  0
 11 45  1  0
 11 46  1  0
 12 47  1  0
 12 48  1  0
 13 49  1  0
 13 50  1  0
 14 51  1  0
 14 52  1  0
 15 53  1  0
 15 54  1  0
 17 55  1  0
 18 56  1  0
 20 57  1  0
 21 58  1  0
 22 59  1  0
 22 60  1  0
 23 61  1  0
 23 62  1  0
 24 63  1  0
 25 64  1  0
 25 65  1  0
 26 66  1  6
 28 67  1  0
 29 68  1  0
 30 69  1  0
 32 70  1  0
 33 71  1  0
 34 72  1  0
 38 73  1  0
 38 74  1  0
 38 75  1  0
 39 76  1  0
 40 77  1  0
M  END
>  <Ligand ID>  (1) 
LIG0002025

>  <Ligand>  (1) 
CHEMBL445481

>  <SMILES>  (1) 
O=C(c1ccc(cc1OC1CCCCC1)c1ccc(cc1)CCNC[C@@H](c1cccnc1)O)NS(=O)(=O)C.Cl.Cl

>  <CID>  (1) 
42639492.0

>  <ChEMBL ID>  (1) 
nan

>  <InChiKey>  (1) 
ZUIRACGVBZOKRD-LPCSYZHESA-N

>  <InChi>  (1) 
InChI=1S/C29H35N3O5S.2ClH/c1-38(35,36)32-29(34)26-14-13-23(18-28(26)37-25-7-3-2-4-8-25)22-11-9-21(10-12-22)15-17-31-20-27(33)24-6-5-16-30-19-24;;/h5-6,9-14,16,18-19,25,27,31,33H,2-4,7-8,15,17,20H2,1H3,(H,32,34);2*1H/t27-;;/m0../s1

>  <IUPAC Name>  (1) 
2-cyclohexyloxy-4-[4-[2-[[(2R)-2-hydroxy-2-pyridin-3-ylethyl]amino]ethyl]phenyl]-N-methylsulfonylbenzamide;dihydrochloride

$$$$
