
     RDKit          3D

 35 37  0  0  0  0  0  0  0  0999 V2000
   -4.3617    1.3691   -1.4679 C   0  0  0  0  0  0  0  0  0  0  0  0
   -3.0425    1.7483   -1.0214 N   0  0  0  0  0  0  0  0  0  0  0  0
   -2.6956    3.0481   -0.9122 N   0  0  0  0  0  0  0  0  0  0  0  0
   -1.4271    3.1031   -0.4791 C   0  0  0  0  0  0  0  0  0  0  0  0
   -1.0396    1.8508   -0.3377 N   0  0  0  0  0  0  0  0  0  0  0  0
   -2.0049    0.9705   -0.6613 C   0  0  0  0  0  0  0  0  0  0  0  0
   -1.8797   -0.4771   -0.6071 C   0  0  0  0  0  0  0  0  0  0  0  0
   -2.8883   -1.3500   -0.9485 C   0  0  0  0  0  0  0  0  0  0  0  0
   -2.7574   -2.7395   -0.8944 C   0  0  0  0  0  0  0  0  0  0  0  0
   -1.5828   -3.2934   -0.4866 C   0  0  0  0  0  0  0  0  0  0  0  0
   -0.5616   -2.4422   -0.1408 C   0  0  0  0  0  0  0  0  0  0  0  0
   -0.6919   -1.0424   -0.1947 C   0  0  0  0  0  0  0  0  0  0  0  0
    0.4604   -0.3221    0.1966 N   0  0  0  0  0  0  0  0  0  0  0  0
    1.6828   -1.0427    0.6232 C   0  0  0  0  0  0  0  0  0  0  0  0
    2.7768   -0.1426    0.9824 C   0  0  0  0  0  0  0  0  0  0  0  0
    2.7411    1.1259    0.9516 N   0  0  0  0  0  0  0  0  0  0  0  0
    3.9910    1.7252    1.3683 C   0  0  0  0  0  0  0  0  0  0  0  0
    4.9600    0.5609    1.4228 C   0  0  0  0  0  0  0  0  0  0  0  0
    4.0569   -0.5748    1.4244 N   0  0  0  0  0  0  0  0  0  0  0  0
   -4.9379    0.8403   -0.7071 H   0  0  0  0  0  0  0  0  0  0  0  0
   -4.2547    0.8567   -2.4514 H   0  0  0  0  0  0  0  0  0  0  0  0
   -4.9342    2.3395   -1.6305 H   0  0  0  0  0  0  0  0  0  0  0  0
   -0.8294    3.9958   -0.2813 H   0  0  0  0  0  0  0  0  0  0  0  0
   -3.8528   -1.0213   -1.2835 H   0  0  0  0  0  0  0  0  0  0  0  0
   -3.5654   -3.3953   -1.1682 H   0  0  0  0  0  0  0  0  0  0  0  0
   -1.4821   -4.3667   -0.4450 H   0  0  0  0  0  0  0  0  0  0  0  0
    0.3595   -2.9030    0.1785 H   0  0  0  0  0  0  0  0  0  0  0  0
    0.5773    0.7049    0.2289 H   0  0  0  0  0  0  0  0  0  0  0  0
    1.3432   -1.6822    1.4740 H   0  0  0  0  0  0  0  0  0  0  0  0
    1.9725   -1.6431   -0.2634 H   0  0  0  0  0  0  0  0  0  0  0  0
    4.3657    2.4303    0.5954 H   0  0  0  0  0  0  0  0  0  0  0  0
    3.9501    2.1971    2.3536 H   0  0  0  0  0  0  0  0  0  0  0  0
    5.6433    0.5486    0.5499 H   0  0  0  0  0  0  0  0  0  0  0  0
    5.5979    0.5832    2.3250 H   0  0  0  0  0  0  0  0  0  0  0  0
    4.3114   -1.5600    1.7079 H   0  0  0  0  0  0  0  0  0  0  0  0
  1  2  1  0
  2  3  1  0
  3  4  2  0
  4  5  1  0
  5  6  2  0
  6  7  1  0
  7  8  2  0
  8  9  1  0
  9 10  2  0
 10 11  1  0
 11 12  2  0
 12 13  1  0
 13 14  1  0
 14 15  1  0
 15 16  2  0
 16 17  1  0
 17 18  1  0
 18 19  1  0
  6  2  1  0
 12  7  1  0
 19 15  1  0
  1 20  1  0
  1 21  1  0
  1 22  1  0
  4 23  1  0
  8 24  1  0
  9 25  1  0
 10 26  1  0
 11 27  1  0
 13 28  1  0
 14 29  1  0
 14 30  1  0
 17 31  1  0
 17 32  1  0
 18 33  1  0
 18 34  1  0
 19 35  1  0
M  END
>  <Ligand ID>  (1) 
LIG0004561

>  <Ligand>  (1) 
CHEMBL18069

>  <SMILES>  (1) 
Cn1ncnc1c1ccccc1NCC1=NCCN1

>  <CID>  (1) 
22493343.0

>  <ChEMBL ID>  (1) 
nan

>  <InChiKey>  (1) 
PQDQNUQTCBVXHM-UHFFFAOYSA-N

>  <InChi>  (1) 
InChI=1S/C13H16N6/c1-19-13(17-9-18-19)10-4-2-3-5-11(10)16-8-12-14-6-7-15-12/h2-5,9,16H,6-8H2,1H3,(H,14,15)

>  <IUPAC Name>  (1) 
N-(4,5-dihydro-1H-imidazol-2-ylmethyl)-2-(2-methyl-1,2,4-triazol-3-yl)aniline

$$$$
