
     RDKit          3D

 78 81  0  0  0  0  0  0  0  0999 V2000
   -2.7139   -2.4440   -0.8561 O   0  0  0  0  0  0  0  0  0  0  0  0
   -2.3283   -1.4020   -0.0467 C   0  0  1  0  0  0  0  0  0  0  0  0
   -0.8097   -1.4735    0.1964 C   0  0  0  0  0  0  0  0  0  0  0  0
   -0.1781   -1.3821   -1.0739 N   0  0  0  0  0  0  0  0  0  0  0  0
    1.2516   -1.4288   -1.0754 C   0  0  0  0  0  0  0  0  0  0  0  0
    1.8903   -0.3167   -0.2955 C   0  0  0  0  0  0  0  0  0  0  0  0
    3.3679   -0.4621   -0.3656 C   0  0  0  0  0  0  0  0  0  0  0  0
    4.1183    0.1471   -1.3745 C   0  0  0  0  0  0  0  0  0  0  0  0
    5.4890    0.0172   -1.4481 C   0  0  0  0  0  0  0  0  0  0  0  0
    6.1797   -0.7278   -0.5176 C   0  0  0  0  0  0  0  0  0  0  0  0
    5.4669   -1.3384    0.4863 C   0  0  0  0  0  0  0  0  0  0  0  0
    4.0912   -1.2019    0.5515 C   0  0  0  0  0  0  0  0  0  0  0  0
    7.5509   -0.8087   -0.6616 O   0  0  0  0  0  0  0  0  0  0  0  0
    8.3448    0.1445   -0.0425 C   0  0  0  0  0  0  0  0  0  0  0  0
    7.8304    1.1792    0.7183 C   0  0  0  0  0  0  0  0  0  0  0  0
    8.7162    2.0901    1.3014 C   0  0  0  0  0  0  0  0  0  0  0  0
   10.0623    1.9540    1.1186 C   0  0  0  0  0  0  0  0  0  0  0  0
   10.5154    0.9041    0.3512 C   0  0  0  0  0  0  0  0  0  0  0  0
    9.6788    0.0200   -0.2162 N   0  0  0  0  0  0  0  0  0  0  0  0
   11.0122    2.8919    1.7161 C   0  0  0  0  0  0  0  0  0  0  0  0
   10.5346    3.8284    2.4080 O   0  0  0  0  0  0  0  0  0  0  0  0
   12.4061    2.7187    1.5010 N   0  0  0  0  0  0  0  0  0  0  0  0
    1.8185   -1.4243   -2.4729 C   0  0  0  0  0  0  0  0  0  0  0  0
    1.6253   -2.7856   -0.4808 C   0  0  0  0  0  0  0  0  0  0  0  0
   -2.7272   -0.0326   -0.4721 C   0  0  0  0  0  0  0  0  0  0  0  0
   -4.0221    0.2931   -0.6080 O   0  0  0  0  0  0  0  0  0  0  0  0
   -5.1180   -0.0051   -1.3085 C   0  0  0  0  0  0  0  0  0  0  0  0
   -5.2563   -0.9262   -2.3242 C   0  0  0  0  0  0  0  0  0  0  0  0
   -6.4380   -1.1613   -2.9918 C   0  0  0  0  0  0  0  0  0  0  0  0
   -7.5646   -0.4567   -2.6550 C   0  0  0  0  0  0  0  0  0  0  0  0
   -7.4784    0.4731   -1.6495 C   0  0  0  0  0  0  0  0  0  0  0  0
   -6.2963    0.6996   -0.9902 C   0  0  0  0  0  0  0  0  0  0  0  0
   -6.5562    1.7484    0.0194 C   0  0  0  0  0  0  0  0  0  0  0  0
   -6.1104    1.3891    1.3862 C   0  0  0  0  0  0  0  0  0  0  0  0
   -6.7115    0.1811    2.0024 C   0  0  0  0  0  0  0  0  0  0  0  0
   -8.1995    0.2059    2.1758 C   0  0  0  0  0  0  0  0  0  0  0  0
   -6.1271    0.0802    3.4186 C   0  0  0  0  0  0  0  0  0  0  0  0
   -7.9779    2.1155   -0.1098 C   0  0  0  0  0  0  0  0  0  0  0  0
   -8.6063    2.9730    0.5584 O   0  0  0  0  0  0  0  0  0  0  0  0
   -8.5112    1.3160   -1.1368 N   0  0  0  0  0  0  0  0  0  0  0  0
   -2.8410   -3.2642   -0.3115 H   0  0  0  0  0  0  0  0  0  0  0  0
   -2.8571   -1.5822    0.9392 H   0  0  0  0  0  0  0  0  0  0  0  0
   -0.4901   -0.7418    0.9327 H   0  0  0  0  0  0  0  0  0  0  0  0
   -0.6100   -2.4874    0.6156 H   0  0  0  0  0  0  0  0  0  0  0  0
   -0.6033   -1.9273   -1.8240 H   0  0  0  0  0  0  0  0  0  0  0  0
    1.5393   -0.2737    0.7573 H   0  0  0  0  0  0  0  0  0  0  0  0
    1.6669    0.6789   -0.7264 H   0  0  0  0  0  0  0  0  0  0  0  0
    3.6428    0.7397   -2.1276 H   0  0  0  0  0  0  0  0  0  0  0  0
    6.0280    0.5114   -2.2535 H   0  0  0  0  0  0  0  0  0  0  0  0
    6.0126   -1.9336    1.2312 H   0  0  0  0  0  0  0  0  0  0  0  0
    3.5590   -1.6833    1.3370 H   0  0  0  0  0  0  0  0  0  0  0  0
    6.7689    1.2730    0.8529 H   0  0  0  0  0  0  0  0  0  0  0  0
    8.3307    2.9034    1.8977 H   0  0  0  0  0  0  0  0  0  0  0  0
   11.5727    0.7487    0.1735 H   0  0  0  0  0  0  0  0  0  0  0  0
   12.9145    1.8391    1.7408 H   0  0  0  0  0  0  0  0  0  0  0  0
   12.9337    3.5156    1.0839 H   0  0  0  0  0  0  0  0  0  0  0  0
    2.8860   -1.7164   -2.4004 H   0  0  0  0  0  0  0  0  0  0  0  0
    1.7253   -0.4292   -2.9592 H   0  0  0  0  0  0  0  0  0  0  0  0
    1.3424   -2.2266   -3.0771 H   0  0  0  0  0  0  0  0  0  0  0  0
    1.4212   -2.7869    0.6028 H   0  0  0  0  0  0  0  0  0  0  0  0
    2.6532   -3.1003   -0.7440 H   0  0  0  0  0  0  0  0  0  0  0  0
    0.9008   -3.5098   -0.9199 H   0  0  0  0  0  0  0  0  0  0  0  0
   -2.1972    0.2212   -1.4555 H   0  0  0  0  0  0  0  0  0  0  0  0
   -2.2436    0.7361    0.2229 H   0  0  0  0  0  0  0  0  0  0  0  0
   -4.4049   -1.4975   -2.6407 H   0  0  0  0  0  0  0  0  0  0  0  0
   -6.4760   -1.9028   -3.7829 H   0  0  0  0  0  0  0  0  0  0  0  0
   -8.4647   -0.6674   -3.1969 H   0  0  0  0  0  0  0  0  0  0  0  0
   -5.9866    2.6854   -0.2607 H   0  0  0  0  0  0  0  0  0  0  0  0
   -5.0109    1.2436    1.3606 H   0  0  0  0  0  0  0  0  0  0  0  0
   -6.2952    2.2741    2.0468 H   0  0  0  0  0  0  0  0  0  0  0  0
   -6.3552   -0.7364    1.4929 H   0  0  0  0  0  0  0  0  0  0  0  0
   -8.5620    1.1536    2.5986 H   0  0  0  0  0  0  0  0  0  0  0  0
   -8.5199   -0.5708    2.9350 H   0  0  0  0  0  0  0  0  0  0  0  0
   -8.7042   -0.1183    1.2447 H   0  0  0  0  0  0  0  0  0  0  0  0
   -5.1556    0.5889    3.4923 H   0  0  0  0  0  0  0  0  0  0  0  0
   -6.0004   -0.9773    3.7215 H   0  0  0  0  0  0  0  0  0  0  0  0
   -6.8202    0.5941    4.1320 H   0  0  0  0  0  0  0  0  0  0  0  0
   -9.5198    1.3442   -1.4678 H   0  0  0  0  0  0  0  0  0  0  0  0
  1  2  1  0
  2  3  1  0
  3  4  1  0
  4  5  1  0
  5  6  1  0
  6  7  1  0
  7  8  2  0
  8  9  1  0
  9 10  2  0
 10 11  1  0
 11 12  2  0
 10 13  1  0
 13 14  1  0
 14 15  2  0
 15 16  1  0
 16 17  2  0
 17 18  1  0
 18 19  2  0
 17 20  1  0
 20 21  2  0
 20 22  1  0
  5 23  1  0
  5 24  1  0
  2 25  1  0
 25 26  1  0
 26 27  1  0
 27 28  2  0
 28 29  1  0
 29 30  2  0
 30 31  1  0
 31 32  2  0
 32 33  1  0
 33 34  1  0
 34 35  1  0
 35 36  1  0
 35 37  1  0
 33 38  1  0
 38 39  2  0
 38 40  1  0
 12  7  1  0
 19 14  1  0
 32 27  1  0
 40 31  1  0
  1 41  1  0
  2 42  1  1
  3 43  1  0
  3 44  1  0
  4 45  1  0
  6 46  1  0
  6 47  1  0
  8 48  1  0
  9 49  1  0
 11 50  1  0
 12 51  1  0
 15 52  1  0
 16 53  1  0
 18 54  1  0
 22 55  1  0
 22 56  1  0
 23 57  1  0
 23 58  1  0
 23 59  1  0
 24 60  1  0
 24 61  1  0
 24 62  1  0
 25 63  1  0
 25 64  1  0
 28 65  1  0
 29 66  1  0
 30 67  1  0
 33 68  1  0
 34 69  1  0
 34 70  1  0
 35 71  1  0
 36 72  1  0
 36 73  1  0
 36 74  1  0
 37 75  1  0
 37 76  1  0
 37 77  1  0
 40 78  1  0
M  END
>  <Ligand ID>  (1) 
LIG0003467

>  <Ligand>  (1) 
CHEMBL251177

>  <SMILES>  (1) 
O[C@@H](CNC(Cc1ccc(cc1)Oc1ccc(cn1)C(=O)N)(C)C)COc1cccc2c1C(CC(C)C)C(=O)N2

>  <CID>  (1) 
44444167.0

>  <ChEMBL ID>  (1) 
nan

>  <InChiKey>  (1) 
JSEVUWGJHDUHQY-OWJIYDKWSA-N

>  <InChi>  (1) 
InChI=1S/C31H38N4O5/c1-19(2)14-24-28-25(35-30(24)38)6-5-7-26(28)39-18-22(36)17-34-31(3,4)15-20-8-11-23(12-9-20)40-27-13-10-21(16-33-27)29(32)37/h5-13,16,19,22,24,34,36H,14-15,17-18H2,1-4H3,(H2,32,37)(H,35,38)/t22-,24?/m0/s1

>  <IUPAC Name>  (1) 
6-[4-[2-[[(2S)-2-hydroxy-3-[[3-(2-methylpropyl)-2-oxo-1,3-dihydroindol-4-yl]oxy]propyl]amino]-2-methylpropyl]phenoxy]pyridine-3-carboxamide

$$$$
