
     RDKit          3D

 17 16  0  0  0  0  0  0  0  0999 V2000
    2.8018   -0.1868    0.5962 C   0  0  0  0  0  0  0  0  0  0  0  0
    1.4971    0.3844    0.6424 O   0  0  0  0  0  0  0  0  0  0  0  0
    0.5341   -0.0650   -0.2825 C   0  0  0  0  0  0  0  0  0  0  0  0
    0.8526   -0.9635   -1.1294 O   0  0  0  0  0  0  0  0  0  0  0  0
   -0.8315    0.5222   -0.2457 C   0  0  0  0  0  0  0  0  0  0  0  0
   -1.6413   -0.1437   -1.3406 C   0  0  0  0  0  0  0  0  0  0  0  0
   -1.5047    0.1809    1.0644 C   0  0  0  0  0  0  0  0  0  0  0  0
    2.7853   -1.2266    0.2410 H   0  0  0  0  0  0  0  0  0  0  0  0
    3.3674    0.4122   -0.1433 H   0  0  0  0  0  0  0  0  0  0  0  0
    3.2858   -0.0485    1.5803 H   0  0  0  0  0  0  0  0  0  0  0  0
   -0.7953    1.6057   -0.3884 H   0  0  0  0  0  0  0  0  0  0  0  0
   -1.9385   -1.1447   -0.9896 H   0  0  0  0  0  0  0  0  0  0  0  0
   -2.5295    0.5151   -1.5494 H   0  0  0  0  0  0  0  0  0  0  0  0
   -0.9797   -0.2036   -2.2386 H   0  0  0  0  0  0  0  0  0  0  0  0
   -0.8570    0.5443    1.8920 H   0  0  0  0  0  0  0  0  0  0  0  0
   -2.4543    0.7283    1.1187 H   0  0  0  0  0  0  0  0  0  0  0  0
   -1.5923   -0.9105    1.1725 H   0  0  0  0  0  0  0  0  0  0  0  0
  1  2  1  0
  2  3  1  0
  3  4  2  0
  3  5  1  0
  5  6  1  0
  5  7  1  0
  1  8  1  0
  1  9  1  0
  1 10  1  0
  5 11  1  0
  6 12  1  0
  6 13  1  0
  6 14  1  0
  7 15  1  0
  7 16  1  0
  7 17  1  0
M  END
>  <Ligand ID>  (1) 
LIG0000633

>  <Ligand>  (1) 
Methyl isobutyrate

>  <SMILES>  (1) 
COC(=O)C(C)C

>  <CID>  (1) 
11039.0

>  <ChEMBL ID>  (1) 
nan

>  <InChiKey>  (1) 
BHIWKHZACMWKOJ-UHFFFAOYSA-N

>  <InChi>  (1) 
InChI=1S/C5H10O2/c1-4(2)5(6)7-3/h4H,1-3H3

>  <IUPAC Name>  (1) 
methyl 2-methylpropanoate

$$$$
