
     RDKit          3D

 59 62  0  0  0  0  0  0  0  0999 V2000
   -7.7020    2.8580   -0.4811 C   0  0  0  0  0  0  0  0  0  0  0  0
   -6.6404    3.0942    0.5458 C   0  0  0  0  0  0  0  0  0  0  0  0
   -5.6438    1.9699    0.6766 C   0  0  0  0  0  0  0  0  0  0  0  0
   -6.3585    0.7096    1.0663 C   0  0  0  0  0  0  0  0  0  0  0  0
   -5.7551   -0.5211    0.4294 C   0  0  0  0  0  0  0  0  0  0  0  0
   -4.3435   -0.3998    0.1440 C   0  0  0  0  0  0  0  0  0  0  0  0
   -3.8013    0.7718   -0.3847 C   0  0  0  0  0  0  0  0  0  0  0  0
   -4.8510    1.8524   -0.6065 C   0  0  0  0  0  0  0  0  0  0  0  0
   -2.4972    0.8142   -0.6222 C   0  0  0  0  0  0  0  0  0  0  0  0
   -1.7193   -0.2878   -0.3437 C   0  0  0  0  0  0  0  0  0  0  0  0
   -2.9361   -1.5241    0.3239 S   0  0  0  0  0  0  0  0  0  0  0  0
   -0.3204   -0.5538   -0.4823 C   0  0  0  0  0  0  0  0  0  0  0  0
    0.4620    0.3144   -0.9389 O   0  0  0  0  0  0  0  0  0  0  0  0
    0.1934   -1.8119   -0.1008 N   0  0  0  0  0  0  0  0  0  0  0  0
    1.6042   -2.0163   -0.2644 C   0  0  0  0  0  0  0  0  0  0  0  0
    2.5112   -1.7206    0.7264 C   0  0  0  0  0  0  0  0  0  0  0  0
    3.8821   -1.9347    0.5279 C   0  0  0  0  0  0  0  0  0  0  0  0
    4.3000   -2.4540   -0.6975 C   0  0  0  0  0  0  0  0  0  0  0  0
    3.3824   -2.7521   -1.6972 C   0  0  0  0  0  0  0  0  0  0  0  0
    2.0140   -2.5365   -1.4942 C   0  0  0  0  0  0  0  0  0  0  0  0
    1.0855   -2.8240   -2.4697 O   0  0  0  0  0  0  0  0  0  0  0  0
    1.3530   -3.3450   -3.7379 C   0  0  0  0  0  0  0  0  0  0  0  0
    5.0352   -1.5742    1.7488 S   0  0  0  0  0  0  0  0  0  0  0  0
    4.3621   -1.8460    3.0878 O   0  0  0  0  0  0  0  0  0  0  0  0
    6.1352   -2.5994    1.6562 O   0  0  0  0  0  0  0  0  0  0  0  0
    5.7057   -0.0578    1.7915 N   0  0  0  0  0  0  0  0  0  0  0  0
    4.8601    1.0612    1.9961 C   0  0  0  0  0  0  0  0  0  0  0  0
    4.8233    1.9755    0.7938 C   0  0  0  0  0  0  0  0  0  0  0  0
    5.2450    1.2767   -0.3349 O   0  0  0  0  0  0  0  0  0  0  0  0
    6.5743    0.8910   -0.2432 C   0  0  0  0  0  0  0  0  0  0  0  0
    6.9039    0.2098    1.0684 C   0  0  0  0  0  0  0  0  0  0  0  0
   -7.4667    2.1245   -1.2523 H   0  0  0  0  0  0  0  0  0  0  0  0
   -7.9757    3.8009   -1.0331 H   0  0  0  0  0  0  0  0  0  0  0  0
   -8.6623    2.5470    0.0256 H   0  0  0  0  0  0  0  0  0  0  0  0
   -7.1064    3.3315    1.5268 H   0  0  0  0  0  0  0  0  0  0  0  0
   -6.0960    4.0330    0.2462 H   0  0  0  0  0  0  0  0  0  0  0  0
   -4.9230    2.2995    1.4671 H   0  0  0  0  0  0  0  0  0  0  0  0
   -6.3731    0.6441    2.1746 H   0  0  0  0  0  0  0  0  0  0  0  0
   -7.4040    0.7917    0.7324 H   0  0  0  0  0  0  0  0  0  0  0  0
   -6.3031   -0.7643   -0.5041 H   0  0  0  0  0  0  0  0  0  0  0  0
   -5.9262   -1.3641    1.1299 H   0  0  0  0  0  0  0  0  0  0  0  0
   -4.3940    2.8281   -0.7809 H   0  0  0  0  0  0  0  0  0  0  0  0
   -5.5006    1.6026   -1.4629 H   0  0  0  0  0  0  0  0  0  0  0  0
   -1.9876    1.7159   -1.0452 H   0  0  0  0  0  0  0  0  0  0  0  0
   -0.3784   -2.5913    0.2869 H   0  0  0  0  0  0  0  0  0  0  0  0
    2.1499   -1.3124    1.6816 H   0  0  0  0  0  0  0  0  0  0  0  0
    5.3248   -2.6408   -0.9146 H   0  0  0  0  0  0  0  0  0  0  0  0
    3.6671   -3.1547   -2.6572 H   0  0  0  0  0  0  0  0  0  0  0  0
    0.4294   -3.2196   -4.3400 H   0  0  0  0  0  0  0  0  0  0  0  0
    1.5019   -4.4438   -3.6343 H   0  0  0  0  0  0  0  0  0  0  0  0
    2.2365   -2.8900   -4.2354 H   0  0  0  0  0  0  0  0  0  0  0  0
    5.1470    1.6116    2.9162 H   0  0  0  0  0  0  0  0  0  0  0  0
    3.8290    0.6571    2.2142 H   0  0  0  0  0  0  0  0  0  0  0  0
    5.4875    2.8308    0.9986 H   0  0  0  0  0  0  0  0  0  0  0  0
    3.8030    2.3320    0.6630 H   0  0  0  0  0  0  0  0  0  0  0  0
    6.7339    0.1060   -1.0372 H   0  0  0  0  0  0  0  0  0  0  0  0
    7.2792    1.7167   -0.4662 H   0  0  0  0  0  0  0  0  0  0  0  0
    7.4569    0.9958    1.6630 H   0  0  0  0  0  0  0  0  0  0  0  0
    7.5869   -0.6278    0.9962 H   0  0  0  0  0  0  0  0  0  0  0  0
  1  2  1  0
  2  3  1  0
  3  4  1  0
  4  5  1  0
  5  6  1  0
  6  7  2  0
  7  8  1  0
  7  9  1  0
  9 10  2  0
 10 11  1  0
 10 12  1  0
 12 13  2  0
 12 14  1  0
 14 15  1  0
 15 16  2  0
 16 17  1  0
 17 18  2  0
 18 19  1  0
 19 20  2  0
 20 21  1  0
 21 22  1  0
 17 23  1  0
 23 24  2  0
 23 25  2  0
 23 26  1  0
 26 27  1  0
 27 28  1  0
 28 29  1  0
 29 30  1  0
 30 31  1  0
  8  3  1  0
 20 15  1  0
 31 26  1  0
 11  6  1  0
  1 32  1  0
  1 33  1  0
  1 34  1  0
  2 35  1  0
  2 36  1  0
  3 37  1  0
  4 38  1  0
  4 39  1  0
  5 40  1  0
  5 41  1  0
  8 42  1  0
  8 43  1  0
  9 44  1  0
 14 45  1  0
 16 46  1  0
 18 47  1  0
 19 48  1  0
 22 49  1  0
 22 50  1  0
 22 51  1  0
 27 52  1  0
 27 53  1  0
 28 54  1  0
 28 55  1  0
 30 56  1  0
 30 57  1  0
 31 58  1  0
 31 59  1  0
M  END
>  <Ligand ID>  (1) 
LIG0001756

>  <Ligand>  (1) 
MLS-0435542.0001

>  <SMILES>  (1) 
CCC1CCc2c(C1)cc(s2)C(=O)Nc1cc(ccc1OC)S(=O)(=O)N1CCOCC1

>  <CID>  (1) 
24242928.0

>  <ChEMBL ID>  (1) 
nan

>  <InChiKey>  (1) 
HFHMZZBOHTVBEJ-UHFFFAOYSA-N

>  <InChi>  (1) 
InChI=1S/C22H28N2O5S2/c1-3-15-4-7-20-16(12-15)13-21(30-20)22(25)23-18-14-17(5-6-19(18)28-2)31(26,27)24-8-10-29-11-9-24/h5-6,13-15H,3-4,7-12H2,1-2H3,(H,23,25)

>  <IUPAC Name>  (1) 
5-ethyl-N-(2-methoxy-5-morpholin-4-ylsulfonylphenyl)-4,5,6,7-tetrahydro-1-benzothiophene-2-carboxamide

$$$$
