
     RDKit          3D

155160  0  0  0  0  0  0  0  0999 V2000
  -10.3796   -0.4236    4.9076 C   0  0  0  0  0  0  0  0  0  0  0  0
   -9.3141   -0.4765    3.7539 C   0  0  0  0  0  0  0  0  0  0  0  0
   -9.9483   -1.2347    2.6648 C   0  0  0  0  0  0  0  0  0  0  0  0
   -9.3316   -1.4554    1.3607 C   0  0  0  0  0  0  0  0  0  0  0  0
   -8.0603   -2.1666    1.1489 C   0  0  2  0  0  0  0  0  0  0  0  0
   -6.8328   -1.6343    1.6997 C   0  0  0  0  0  0  0  0  0  0  0  0
   -6.5193   -1.3468    2.8641 O   0  0  0  0  0  0  0  0  0  0  0  0
   -5.7557   -1.3807    0.7357 N   0  0  0  0  0  0  0  0  0  0  0  0
   -4.4827   -0.8661    1.1115 C   0  0  1  0  0  0  0  0  0  0  0  0
   -3.3545   -1.9193    1.0693 C   0  0  0  0  0  0  0  0  0  0  0  0
   -3.3546   -2.6216   -0.2166 C   0  0  0  0  0  0  0  0  0  0  0  0
   -4.3558   -2.9511   -0.8850 O   0  0  0  0  0  0  0  0  0  0  0  0
   -2.1252   -3.0356   -0.9163 N   0  0  0  0  0  0  0  0  0  0  0  0
   -2.4021   -3.7186   -2.1472 C   0  0  0  0  0  0  0  0  0  0  0  0
   -1.3173   -4.1106   -3.0412 C   0  0  0  0  0  0  0  0  0  0  0  0
   -0.2287   -5.0395   -2.6488 C   0  0  0  0  0  0  0  0  0  0  0  0
    0.6165   -4.4755   -1.5545 C   0  0  0  0  0  0  0  0  0  0  0  0
    1.8202   -5.2896   -1.3169 C   0  0  1  0  0  0  0  0  0  0  0  0
    2.5594   -5.5801   -2.5906 C   0  0  0  0  0  0  0  0  0  0  0  0
    2.1162   -6.4436   -3.4261 O   0  0  0  0  0  0  0  0  0  0  0  0
    3.7648   -4.9465   -2.9624 N   0  0  0  0  0  0  0  0  0  0  0  0
    2.8416   -4.5215   -0.5138 N   0  0  0  0  0  0  0  0  0  0  0  0
    3.3584   -5.1161    0.6588 C   0  0  0  0  0  0  0  0  0  0  0  0
    3.2774   -3.2528   -0.8969 C   0  0  0  0  0  0  0  0  0  0  0  0
    2.6349   -2.8446   -1.9332 O   0  0  0  0  0  0  0  0  0  0  0  0
    4.2596   -2.3239   -0.3925 C   0  0  1  0  0  0  0  0  0  0  0  0
    3.9115   -1.0326   -1.0257 N   0  0  0  0  0  0  0  0  0  0  0  0
    4.4023   -0.6264   -2.2950 C   0  0  0  0  0  0  0  0  0  0  0  0
    5.1372   -1.4416   -2.8687 O   0  0  0  0  0  0  0  0  0  0  0  0
    4.0348    0.7123   -2.8925 C   0  0  1  0  0  0  0  0  0  0  0  0
    3.4463    1.5682   -1.8868 N   0  0  0  0  0  0  0  0  0  0  0  0
    2.0716    1.9312   -1.8375 C   0  0  0  0  0  0  0  0  0  0  0  0
    1.4097    1.4174   -2.7336 O   0  0  0  0  0  0  0  0  0  0  0  0
    1.5047    2.8480   -0.7817 C   0  0  2  0  0  0  0  0  0  0  0  0
    0.0336    2.8954   -0.9074 N   0  0  0  0  0  0  0  0  0  0  0  0
   -0.7854    1.9999   -0.1210 C   0  0  0  0  0  0  0  0  0  0  0  0
   -0.1305    1.1661    0.5225 O   0  0  0  0  0  0  0  0  0  0  0  0
   -2.2681    2.0775   -0.0993 C   0  0  1  0  0  0  0  0  0  0  0  0
   -2.8322    0.9960    0.6812 N   0  0  0  0  0  0  0  0  0  0  0  0
   -4.0415    0.3018    0.3008 C   0  0  0  0  0  0  0  0  0  0  0  0
   -4.6112    0.7606   -0.6863 O   0  0  0  0  0  0  0  0  0  0  0  0
   -2.6744    3.4226    0.3936 C   0  0  0  0  0  0  0  0  0  0  0  0
   -2.2599    3.8170    1.7294 C   0  0  0  0  0  0  0  0  0  0  0  0
   -2.5863    5.0470    2.2498 N   0  0  0  0  0  0  0  0  0  0  0  0
   -2.0943    5.1369    3.4683 C   0  0  0  0  0  0  0  0  0  0  0  0
   -1.4413    4.0219    3.8120 N   0  0  0  0  0  0  0  0  0  0  0  0
   -1.5493    3.2121    2.7310 C   0  0  0  0  0  0  0  0  0  0  0  0
    1.9762    4.2342   -1.0167 C   0  0  0  0  0  0  0  0  0  0  0  0
    1.4729    5.2463   -0.0232 C   0  0  0  0  0  0  0  0  0  0  0  0
    2.1525    5.5113    1.1473 C   0  0  0  0  0  0  0  0  0  0  0  0
    1.7268    6.4464    2.0730 C   0  0  0  0  0  0  0  0  0  0  0  0
    0.5746    7.1265    1.7916 C   0  0  0  0  0  0  0  0  0  0  0  0
   -0.1637    6.9183    0.6407 C   0  0  0  0  0  0  0  0  0  0  0  0
    0.3176    5.9722   -0.2394 C   0  0  0  0  0  0  0  0  0  0  0  0
   -1.3203    7.5982    0.3511 C   0  0  0  0  0  0  0  0  0  0  0  0
   -1.7891    8.5370    1.2312 C   0  0  0  0  0  0  0  0  0  0  0  0
   -1.0919    8.7842    2.3935 C   0  0  0  0  0  0  0  0  0  0  0  0
    0.0778    8.0840    2.6676 C   0  0  0  0  0  0  0  0  0  0  0  0
    4.2823    2.0990   -0.8662 C   0  0  0  0  0  0  0  0  0  0  0  0
    5.1252    1.3424   -3.6583 C   0  0  0  0  0  0  0  0  0  0  0  0
    5.6577    0.6114   -4.8369 C   0  0  0  0  0  0  0  0  0  0  0  0
    6.7849    1.5048   -5.4057 C   0  0  0  0  0  0  0  0  0  0  0  0
    7.8054    1.6911   -4.3971 N   0  0  0  0  0  0  0  0  0  0  0  0
    8.9604    1.1292   -4.4931 C   0  0  0  0  0  0  0  0  0  0  0  0
    9.9346    1.3385   -3.4778 N   0  0  0  0  0  0  0  0  0  0  0  0
    9.2477    0.3100   -5.6177 N   0  0  0  0  0  0  0  0  0  0  0  0
    4.7904   -2.2824    0.9344 C   0  0  0  0  0  0  0  0  0  0  0  0
    3.9431   -2.0847    2.1087 C   0  0  0  0  0  0  0  0  0  0  0  0
    2.5896   -1.8694    2.2510 C   0  0  0  0  0  0  0  0  0  0  0  0
    2.2971   -1.7452    3.5501 N   0  0  0  0  0  0  0  0  0  0  0  0
    3.4335   -1.8758    4.2650 C   0  0  0  0  0  0  0  0  0  0  0  0
    4.4827   -2.0882    3.4136 C   0  0  0  0  0  0  0  0  0  0  0  0
    5.7965   -2.2612    3.8688 C   0  0  0  0  0  0  0  0  0  0  0  0
    6.0335   -2.2143    5.2264 C   0  0  0  0  0  0  0  0  0  0  0  0
    5.0127   -2.0050    6.1101 C   0  0  0  0  0  0  0  0  0  0  0  0
    3.7252   -1.8371    5.6327 C   0  0  0  0  0  0  0  0  0  0  0  0
   -7.9112   -2.4626   -0.3061 N   0  0  0  0  0  0  0  0  0  0  0  0
   -7.9157   -3.8075   -0.7705 C   0  0  0  0  0  0  0  0  0  0  0  0
   -8.0394   -4.8014   -0.0114 O   0  0  0  0  0  0  0  0  0  0  0  0
   -7.7648   -4.0660   -2.2384 C   0  0  0  0  0  0  0  0  0  0  0  0
  -11.2931    0.0580    4.5444 H   0  0  0  0  0  0  0  0  0  0  0  0
  -10.5133   -1.4955    5.1817 H   0  0  0  0  0  0  0  0  0  0  0  0
   -9.8596    0.0735    5.7342 H   0  0  0  0  0  0  0  0  0  0  0  0
   -9.0008    0.5402    3.5051 H   0  0  0  0  0  0  0  0  0  0  0  0
   -8.4827   -0.9936    4.2979 H   0  0  0  0  0  0  0  0  0  0  0  0
  -10.9483   -0.7134    2.4535 H   0  0  0  0  0  0  0  0  0  0  0  0
  -10.2792   -2.2644    3.0373 H   0  0  0  0  0  0  0  0  0  0  0  0
   -9.2522   -0.4652    0.7712 H   0  0  0  0  0  0  0  0  0  0  0  0
  -10.1455   -2.0072    0.7388 H   0  0  0  0  0  0  0  0  0  0  0  0
   -8.1856   -3.1953    1.6014 H   0  0  0  0  0  0  0  0  0  0  0  0
   -5.9327   -1.5673   -0.2731 H   0  0  0  0  0  0  0  0  0  0  0  0
   -4.5445   -0.5654    2.1926 H   0  0  0  0  0  0  0  0  0  0  0  0
   -2.4193   -1.3457    1.2351 H   0  0  0  0  0  0  0  0  0  0  0  0
   -3.4943   -2.5724    1.9462 H   0  0  0  0  0  0  0  0  0  0  0  0
   -1.2943   -2.7711   -0.4455 H   0  0  0  0  0  0  0  0  0  0  0  0
   -3.1072   -3.0686   -2.7904 H   0  0  0  0  0  0  0  0  0  0  0  0
   -3.0609   -4.6464   -1.9186 H   0  0  0  0  0  0  0  0  0  0  0  0
   -1.7646   -4.4586   -4.0329 H   0  0  0  0  0  0  0  0  0  0  0  0
   -0.8380   -3.1094   -3.3862 H   0  0  0  0  0  0  0  0  0  0  0  0
    0.4523   -5.0942   -3.5741 H   0  0  0  0  0  0  0  0  0  0  0  0
   -0.5757   -6.0547   -2.3934 H   0  0  0  0  0  0  0  0  0  0  0  0
   -0.0662   -4.6513   -0.6105 H   0  0  0  0  0  0  0  0  0  0  0  0
    0.6760   -3.3967   -1.5729 H   0  0  0  0  0  0  0  0  0  0  0  0
    1.5861   -6.2370   -0.8562 H   0  0  0  0  0  0  0  0  0  0  0  0
    3.8325   -4.5483   -3.9264 H   0  0  0  0  0  0  0  0  0  0  0  0
    4.5311   -4.9096   -2.2561 H   0  0  0  0  0  0  0  0  0  0  0  0
    2.8575   -4.6923    1.5840 H   0  0  0  0  0  0  0  0  0  0  0  0
    3.1112   -6.2169    0.5894 H   0  0  0  0  0  0  0  0  0  0  0  0
    4.4206   -5.0510    0.8388 H   0  0  0  0  0  0  0  0  0  0  0  0
    5.1982   -2.5978   -1.0538 H   0  0  0  0  0  0  0  0  0  0  0  0
    3.2805   -0.3828   -0.5578 H   0  0  0  0  0  0  0  0  0  0  0  0
    3.2243    0.4154   -3.6338 H   0  0  0  0  0  0  0  0  0  0  0  0
    1.7507    2.3708    0.1724 H   0  0  0  0  0  0  0  0  0  0  0  0
   -0.4812    3.5081   -1.5233 H   0  0  0  0  0  0  0  0  0  0  0  0
   -2.6645    1.9823   -1.1529 H   0  0  0  0  0  0  0  0  0  0  0  0
   -2.4139    0.6570    1.5460 H   0  0  0  0  0  0  0  0  0  0  0  0
   -3.7926    3.4737    0.3660 H   0  0  0  0  0  0  0  0  0  0  0  0
   -2.3295    4.1901   -0.3468 H   0  0  0  0  0  0  0  0  0  0  0  0
   -3.1330    5.8030    1.7776 H   0  0  0  0  0  0  0  0  0  0  0  0
   -2.1877    5.9879    4.1174 H   0  0  0  0  0  0  0  0  0  0  0  0
   -1.1168    2.2308    2.7275 H   0  0  0  0  0  0  0  0  0  0  0  0
    1.5738    4.5303   -2.0378 H   0  0  0  0  0  0  0  0  0  0  0  0
    3.0519    4.3901   -1.0743 H   0  0  0  0  0  0  0  0  0  0  0  0
    3.0597    4.9440    1.3216 H   0  0  0  0  0  0  0  0  0  0  0  0
    2.2445    6.6606    2.9768 H   0  0  0  0  0  0  0  0  0  0  0  0
   -0.2757    5.8233   -1.1563 H   0  0  0  0  0  0  0  0  0  0  0  0
   -1.8495    7.3906   -0.5620 H   0  0  0  0  0  0  0  0  0  0  0  0
   -2.7135    9.0651    0.9782 H   0  0  0  0  0  0  0  0  0  0  0  0
   -1.4879    9.5389    3.0804 H   0  0  0  0  0  0  0  0  0  0  0  0
    0.5654    8.3314    3.5933 H   0  0  0  0  0  0  0  0  0  0  0  0
    3.7427    2.4104    0.0271 H   0  0  0  0  0  0  0  0  0  0  0  0
    4.9597    1.2488   -0.5595 H   0  0  0  0  0  0  0  0  0  0  0  0
    4.8916    2.9612   -1.2228 H   0  0  0  0  0  0  0  0  0  0  0  0
    6.0134    1.5604   -2.9855 H   0  0  0  0  0  0  0  0  0  0  0  0
    4.8595    2.3724   -4.0258 H   0  0  0  0  0  0  0  0  0  0  0  0
    4.9324    0.5510   -5.6664 H   0  0  0  0  0  0  0  0  0  0  0  0
    6.1495   -0.3262   -4.5940 H   0  0  0  0  0  0  0  0  0  0  0  0
    6.4067    2.5081   -5.6819 H   0  0  0  0  0  0  0  0  0  0  0  0
    7.2515    1.0664   -6.2936 H   0  0  0  0  0  0  0  0  0  0  0  0
   10.4649    0.5631   -3.0131 H   0  0  0  0  0  0  0  0  0  0  0  0
   10.1610    2.2985   -3.1539 H   0  0  0  0  0  0  0  0  0  0  0  0
    9.2278   -0.7304   -5.6101 H   0  0  0  0  0  0  0  0  0  0  0  0
    9.4945    0.8303   -6.5092 H   0  0  0  0  0  0  0  0  0  0  0  0
    5.4751   -1.3387    0.9614 H   0  0  0  0  0  0  0  0  0  0  0  0
    5.5681   -3.0733    1.0854 H   0  0  0  0  0  0  0  0  0  0  0  0
    1.8965   -1.8138    1.4321 H   0  0  0  0  0  0  0  0  0  0  0  0
    1.3767   -1.5740    4.0300 H   0  0  0  0  0  0  0  0  0  0  0  0
    6.6182   -2.4303    3.1599 H   0  0  0  0  0  0  0  0  0  0  0  0
    7.0636   -2.3496    5.5401 H   0  0  0  0  0  0  0  0  0  0  0  0
    5.2528   -1.9763    7.1717 H   0  0  0  0  0  0  0  0  0  0  0  0
    2.8963   -1.6679    6.3094 H   0  0  0  0  0  0  0  0  0  0  0  0
   -7.8107   -1.6379   -0.9765 H   0  0  0  0  0  0  0  0  0  0  0  0
   -7.2236   -5.0375   -2.3472 H   0  0  0  0  0  0  0  0  0  0  0  0
   -8.7510   -4.1840   -2.6921 H   0  0  0  0  0  0  0  0  0  0  0  0
   -7.1985   -3.2634   -2.7429 H   0  0  0  0  0  0  0  0  0  0  0  0
  1  2  1  0
  2  3  1  0
  3  4  1  0
  4  5  1  0
  5  6  1  0
  6  7  2  0
  6  8  1  0
  8  9  1  0
  9 10  1  0
 10 11  1  0
 11 12  2  0
 11 13  1  0
 13 14  1  0
 14 15  1  0
 15 16  1  0
 16 17  1  0
 17 18  1  0
 18 19  1  0
 19 20  2  0
 19 21  1  0
 18 22  1  0
 22 23  1  0
 22 24  1  0
 24 25  2  0
 24 26  1  0
 26 27  1  0
 27 28  1  0
 28 29  2  0
 28 30  1  0
 30 31  1  0
 31 32  1  0
 32 33  2  0
 32 34  1  0
 34 35  1  0
 35 36  1  0
 36 37  2  0
 36 38  1  0
 38 39  1  0
 39 40  1  0
 40 41  2  0
 38 42  1  0
 42 43  1  0
 43 44  1  0
 44 45  1  0
 45 46  2  0
 46 47  1  0
 34 48  1  0
 48 49  1  0
 49 50  2  0
 50 51  1  0
 51 52  2  0
 52 53  1  0
 53 54  2  0
 53 55  1  0
 55 56  2  0
 56 57  1  0
 57 58  2  0
 31 59  1  0
 30 60  1  0
 60 61  1  0
 61 62  1  0
 62 63  1  0
 63 64  2  3
 64 65  1  0
 64 66  1  0
 26 67  1  0
 67 68  1  0
 68 69  2  0
 69 70  1  0
 70 71  1  0
 71 72  2  0
 72 73  1  0
 73 74  2  0
 74 75  1  0
 75 76  2  0
  5 77  1  0
 77 78  1  0
 78 79  2  0
 78 80  1  0
 40  9  1  0
 47 43  2  0
 54 49  1  0
 72 68  1  0
 58 52  1  0
 76 71  1  0
  1 81  1  0
  1 82  1  0
  1 83  1  0
  2 84  1  0
  2 85  1  0
  3 86  1  0
  3 87  1  0
  4 88  1  0
  4 89  1  0
  5 90  1  1
  8 91  1  0
  9 92  1  1
 10 93  1  0
 10 94  1  0
 13 95  1  0
 14 96  1  0
 14 97  1  0
 15 98  1  0
 15 99  1  0
 16100  1  0
 16101  1  0
 17102  1  0
 17103  1  0
 18104  1  1
 21105  1  0
 21106  1  0
 23107  1  0
 23108  1  0
 23109  1  0
 26110  1  6
 27111  1  0
 30112  1  6
 34113  1  1
 35114  1  0
 38115  1  6
 39116  1  0
 42117  1  0
 42118  1  0
 44119  1  0
 45120  1  0
 47121  1  0
 48122  1  0
 48123  1  0
 50124  1  0
 51125  1  0
 54126  1  0
 55127  1  0
 56128  1  0
 57129  1  0
 58130  1  0
 59131  1  0
 59132  1  0
 59133  1  0
 60134  1  0
 60135  1  0
 61136  1  0
 61137  1  0
 62138  1  0
 62139  1  0
 65140  1  0
 65141  1  0
 66142  1  0
 66143  1  0
 67144  1  0
 67145  1  0
 69146  1  0
 70147  1  0
 73148  1  0
 74149  1  0
 75150  1  0
 76151  1  0
 77152  1  0
 80153  1  0
 80154  1  0
 80155  1  0
M  END
>  <Ligand ID>  (1) 
LIG0001811

>  <Ligand>  (1) 
CHEMBL3600837

>  <SMILES>  (1) 
CCCC[C@H](C(=O)N[C@H]1CC(=O)NCCCC[C@@H](C(=O)N)N(C)C(=O)[C@@H](NC(=O)[C@@H](N(C(=O)[C@H](NC(=O)[C@@H](NC1=O)Cc1[nH]cnc1)Cc1ccc2c(c1)cccc2)C)CCCN=C(N)N)Cc1c[nH]c2c1cccc2)NC(=O)C

>  <CID>  (1) 
122184576.0

>  <ChEMBL ID>  (1) 
nan

>  <InChiKey>  (1) 
DLVAKQPHOINITK-KBPLZZKXSA-N

>  <InChi>  (1) 
InChI=1S/C56H75N15O9/c1-5-6-17-41(65-33(2)72)50(75)67-43-29-48(73)61-23-12-11-19-46(49(57)74)70(3)55(80)45(27-37-30-63-40-18-10-9-16-39(37)40)69-53(78)47(20-13-24-62-56(58)59)71(4)54(79)44(26-34-21-22-35-14-7-8-15-36(35)25-34)68-51(76)42(66-52(43)77)28-38-31-60-32-64-38/h7-10,14-16,18,21-22,25,30-32,41-47,63H,5-6,11-13,17,19-20,23-24,26-29H2,1-4H3,(H2,57,74)(H,60,64)(H,61,73)(H,65,72)(H,66,77)(H,67,75)(H,68,76)(H,69,78)(H4,58,59,62)/t41-,42+,43+,44-,45+,46+,47+/m1/s1

>  <IUPAC Name>  (1) 
(3S,6S,9R,12S,15S,23S)-15-[[(2R)-2-acetamidohexanoyl]amino]-6-[3-(diaminomethylideneamino)propyl]-12-(1H-imidazol-5-ylmethyl)-3-(1H-indol-3-ylmethyl)-1,7-dimethyl-9-(naphthalen-2-ylmethyl)-2,5,8,11,14,17-hexaoxo-1,4,7,10,13,18-hexazacyclotricosane-23-carboxamide

$$$$
