
     RDKit          3D

 79 84  0  0  0  0  0  0  0  0999 V2000
   -2.1093    0.1607   -3.0181 O   0  0  0  0  0  0  0  0  0  0  0  0
   -2.2062    0.0836   -1.7825 C   0  0  0  0  0  0  0  0  0  0  0  0
   -2.8499   -1.1262   -1.1913 C   0  0  2  0  0  0  0  0  0  0  0  0
   -3.2436   -1.9794   -2.2949 N   0  0  0  0  0  0  0  0  0  0  0  0
   -3.5244   -3.3142   -1.7758 C   0  0  0  0  0  0  0  0  0  0  0  0
   -4.6428   -3.1610   -0.7945 C   0  0  0  0  0  0  0  0  0  0  0  0
   -4.9111   -1.9402   -0.1776 C   0  0  0  0  0  0  0  0  0  0  0  0
   -4.1221   -0.7303   -0.4447 C   0  0  0  0  0  0  0  0  0  0  0  0
   -5.9656   -1.8821    0.7197 C   0  0  0  0  0  0  0  0  0  0  0  0
   -6.7451   -2.9827    1.0138 C   0  0  0  0  0  0  0  0  0  0  0  0
   -6.4815   -4.2062    0.3994 C   0  0  0  0  0  0  0  0  0  0  0  0
   -5.4298   -4.2561   -0.4925 C   0  0  0  0  0  0  0  0  0  0  0  0
   -1.7148    1.1294   -0.9321 N   0  0  0  0  0  0  0  0  0  0  0  0
   -1.1174    2.2549   -1.4982 C   0  0  2  0  0  0  0  0  0  0  0  0
    0.2868    2.4355   -1.1551 C   0  0  0  0  0  0  0  0  0  0  0  0
    0.8360    3.4860   -1.6914 O   0  0  0  0  0  0  0  0  0  0  0  0
    1.1328    1.6647   -0.3459 N   0  0  0  0  0  0  0  0  0  0  0  0
    0.8212    0.4669    0.3568 C   0  0  0  0  0  0  0  0  0  0  0  0
    1.9753   -0.3509    0.8477 C   0  0  0  0  0  0  0  0  0  0  0  0
    3.2989   -0.1645    0.2244 C   0  0  0  0  0  0  0  0  0  0  0  0
    3.3338    0.9648   -0.7378 C   0  0  0  0  0  0  0  0  0  0  0  0
    2.5338    2.1416   -0.1853 C   0  0  0  0  0  0  0  0  0  0  0  0
    3.7522   -1.4286   -0.4854 C   0  0  0  0  0  0  0  0  0  0  0  0
    2.8955   -1.8956   -1.5631 C   0  0  0  0  0  0  0  0  0  0  0  0
    1.7608   -1.4570   -2.1010 N   0  0  0  0  0  0  0  0  0  0  0  0
    1.3431   -2.2261   -3.0847 N   0  0  0  0  0  0  0  0  0  0  0  0
    2.2337   -3.1813   -3.1783 N   0  0  0  0  0  0  0  0  0  0  0  0
    3.1912   -3.0271   -2.2818 N   0  0  0  0  0  0  0  0  0  0  0  0
    4.3589   -3.8954   -2.0808 C   0  0  0  0  0  0  0  0  0  0  0  0
    4.3244    0.0053    1.3196 C   0  0  0  0  0  0  0  0  0  0  0  0
    5.4819    0.7280    1.1314 C   0  0  0  0  0  0  0  0  0  0  0  0
    6.4437    0.8610    2.1403 C   0  0  0  0  0  0  0  0  0  0  0  0
    6.2719    0.2714    3.3695 C   0  0  0  0  0  0  0  0  0  0  0  0
    5.1199   -0.4530    3.5677 C   0  0  0  0  0  0  0  0  0  0  0  0
    4.1587   -0.5858    2.5584 C   0  0  0  0  0  0  0  0  0  0  0  0
    7.4538    0.4245    4.6371 Cl  0  0  0  0  0  0  0  0  0  0  0  0
   -1.8163    3.5693   -1.2826 C   0  0  0  0  0  0  0  0  0  0  0  0
   -1.9536    3.9256    0.1480 C   0  0  0  0  0  0  0  0  0  0  0  0
   -1.0223    4.6641    0.8484 C   0  0  0  0  0  0  0  0  0  0  0  0
   -1.1983    4.9705    2.2005 C   0  0  0  0  0  0  0  0  0  0  0  0
   -2.3275    4.5270    2.8552 C   0  0  0  0  0  0  0  0  0  0  0  0
   -3.2653    3.7875    2.1626 C   0  0  0  0  0  0  0  0  0  0  0  0
   -3.0947    3.4804    0.8182 C   0  0  0  0  0  0  0  0  0  0  0  0
   -2.4940    4.9402    4.5451 Cl  0  0  0  0  0  0  0  0  0  0  0  0
   -2.1915   -1.6369   -0.4652 H   0  0  0  0  0  0  0  0  0  0  0  0
   -2.4964   -2.0290   -3.0249 H   0  0  0  0  0  0  0  0  0  0  0  0
   -2.6194   -3.7251   -1.2711 H   0  0  0  0  0  0  0  0  0  0  0  0
   -3.8035   -3.9551   -2.6318 H   0  0  0  0  0  0  0  0  0  0  0  0
   -3.8518   -0.2540    0.5249 H   0  0  0  0  0  0  0  0  0  0  0  0
   -4.6876    0.0401   -1.0175 H   0  0  0  0  0  0  0  0  0  0  0  0
   -6.1939   -0.9344    1.2175 H   0  0  0  0  0  0  0  0  0  0  0  0
   -7.5594   -2.9091    1.7148 H   0  0  0  0  0  0  0  0  0  0  0  0
   -7.0895   -5.0707    0.6257 H   0  0  0  0  0  0  0  0  0  0  0  0
   -5.2432   -5.2224   -0.9592 H   0  0  0  0  0  0  0  0  0  0  0  0
   -1.8686    0.9577    0.0981 H   0  0  0  0  0  0  0  0  0  0  0  0
   -1.1505    2.1168   -2.6297 H   0  0  0  0  0  0  0  0  0  0  0  0
    0.1815   -0.1768   -0.2696 H   0  0  0  0  0  0  0  0  0  0  0  0
    0.1458    0.7517    1.2319 H   0  0  0  0  0  0  0  0  0  0  0  0
    2.0613   -0.0627    1.9449 H   0  0  0  0  0  0  0  0  0  0  0  0
    1.6463   -1.4182    0.9053 H   0  0  0  0  0  0  0  0  0  0  0  0
    4.3070    1.2388   -1.1311 H   0  0  0  0  0  0  0  0  0  0  0  0
    2.7540    0.6346   -1.6572 H   0  0  0  0  0  0  0  0  0  0  0  0
    2.6963    2.2987    0.8869 H   0  0  0  0  0  0  0  0  0  0  0  0
    2.6910    3.0089   -0.8207 H   0  0  0  0  0  0  0  0  0  0  0  0
    4.8054   -1.2861   -0.7762 H   0  0  0  0  0  0  0  0  0  0  0  0
    3.7760   -2.2078    0.3262 H   0  0  0  0  0  0  0  0  0  0  0  0
    5.2922   -3.3612   -2.3870 H   0  0  0  0  0  0  0  0  0  0  0  0
    4.4227   -4.2092   -1.0278 H   0  0  0  0  0  0  0  0  0  0  0  0
    4.2791   -4.7839   -2.7127 H   0  0  0  0  0  0  0  0  0  0  0  0
    5.7146    1.2227    0.2176 H   0  0  0  0  0  0  0  0  0  0  0  0
    7.3555    1.4436    1.9624 H   0  0  0  0  0  0  0  0  0  0  0  0
    4.9614   -0.9357    4.5454 H   0  0  0  0  0  0  0  0  0  0  0  0
    3.3089   -1.1937    2.8305 H   0  0  0  0  0  0  0  0  0  0  0  0
   -2.7463    3.6904   -1.8647 H   0  0  0  0  0  0  0  0  0  0  0  0
   -1.1241    4.3389   -1.7226 H   0  0  0  0  0  0  0  0  0  0  0  0
   -0.1315    5.0208    0.3512 H   0  0  0  0  0  0  0  0  0  0  0  0
   -0.4215    5.5530    2.6700 H   0  0  0  0  0  0  0  0  0  0  0  0
   -4.1346    3.4625    2.7203 H   0  0  0  0  0  0  0  0  0  0  0  0
   -3.8585    2.8937    0.3067 H   0  0  0  0  0  0  0  0  0  0  0  0
  1  2  2  0
  2  3  1  0
  3  4  1  0
  4  5  1  0
  5  6  1  0
  6  7  2  0
  7  8  1  0
  7  9  1  0
  9 10  2  0
 10 11  1  0
 11 12  2  0
  2 13  1  0
 13 14  1  0
 14 15  1  0
 15 16  2  0
 15 17  1  0
 17 18  1  0
 18 19  1  0
 19 20  1  0
 20 21  1  0
 21 22  1  0
 20 23  1  0
 23 24  1  0
 24 25  2  0
 25 26  1  0
 26 27  2  0
 27 28  1  0
 28 29  1  0
 20 30  1  0
 30 31  2  0
 31 32  1  0
 32 33  2  0
 33 34  1  0
 34 35  2  0
 33 36  1  0
 14 37  1  0
 37 38  1  0
 38 39  2  0
 39 40  1  0
 40 41  2  0
 41 42  1  0
 42 43  2  0
 41 44  1  0
  8  3  1  0
 22 17  1  0
 28 24  1  0
 35 30  1  0
 43 38  1  0
 12  6  1  0
  3 45  1  1
  4 46  1  0
  5 47  1  0
  5 48  1  0
  8 49  1  0
  8 50  1  0
  9 51  1  0
 10 52  1  0
 11 53  1  0
 12 54  1  0
 13 55  1  0
 14 56  1  6
 18 57  1  0
 18 58  1  0
 19 59  1  0
 19 60  1  0
 21 61  1  0
 21 62  1  0
 22 63  1  0
 22 64  1  0
 23 65  1  0
 23 66  1  0
 29 67  1  0
 29 68  1  0
 29 69  1  0
 31 70  1  0
 32 71  1  0
 34 72  1  0
 35 73  1  0
 37 74  1  0
 37 75  1  0
 39 76  1  0
 40 77  1  0
 42 78  1  0
 43 79  1  0
M  END
>  <Ligand ID>  (1) 
LIG0004564

>  <Ligand>  (1) 
CHEMBL399714

>  <SMILES>  (1) 
O=C([C@@H]1NCc2c(C1)cccc2)N[C@H](C(=O)N1CCC(CC1)(Cc1nnnn1C)c1ccc(cc1)Cl)Cc1ccc(cc1)Cl

>  <CID>  (1) 
44441647.0

>  <ChEMBL ID>  (1) 
nan

>  <InChiKey>  (1) 
PFQKGIPLZOAHHD-WDYNHAJCSA-N

>  <InChi>  (1) 
InChI=1S/C33H35Cl2N7O2/c1-41-30(38-39-40-41)20-33(25-8-12-27(35)13-9-25)14-16-42(17-15-33)32(44)29(18-22-6-10-26(34)11-7-22)37-31(43)28-19-23-4-2-3-5-24(23)21-36-28/h2-13,28-29,36H,14-21H2,1H3,(H,37,43)/t28-,29+/m1/s1

>  <IUPAC Name>  (1) 
(3R)-N-[(2S)-3-(4-chlorophenyl)-1-[4-(4-chlorophenyl)-4-[(1-methyltetrazol-5-yl)methyl]piperidin-1-yl]-1-oxopropan-2-yl]-1,2,3,4-tetrahydroisoquinoline-3-carboxamide

$$$$
