
     RDKit          3D

 75 78  0  0  0  0  0  0  0  0999 V2000
  -11.2976   -0.5766    2.6608 N   0  0  0  0  0  0  0  0  0  0  0  0
  -10.2857   -0.6127    1.6560 C   0  0  0  0  0  0  0  0  0  0  0  0
   -9.2534   -1.5377    1.7117 C   0  0  0  0  0  0  0  0  0  0  0  0
   -8.2717   -1.5570    0.7181 C   0  0  0  0  0  0  0  0  0  0  0  0
   -8.3060   -0.6784   -0.3154 N   0  0  0  0  0  0  0  0  0  0  0  0
   -9.3156    0.1947   -0.3315 C   0  0  0  0  0  0  0  0  0  0  0  0
   -9.3944    1.0272   -1.2627 O   0  0  0  0  0  0  0  0  0  0  0  0
  -10.2818    0.2433    0.6105 N   0  0  0  0  0  0  0  0  0  0  0  0
   -7.2671   -0.7368   -1.3205 C   0  0  2  0  0  0  0  0  0  0  0  0
   -6.0408   -1.1533   -0.8352 O   0  0  0  0  0  0  0  0  0  0  0  0
   -5.0556   -0.5957   -1.6080 C   0  0  1  0  0  0  0  0  0  0  0  0
   -5.6390    0.4023   -2.5476 C   0  0  2  0  0  0  0  0  0  0  0  0
   -7.0412    0.5883   -2.0065 C   0  0  0  0  0  0  0  0  0  0  0  0
   -5.7206   -0.0920   -3.8549 O   0  0  0  0  0  0  0  0  0  0  0  0
   -4.0553    0.1087   -0.6909 C   0  0  0  0  0  0  0  0  0  0  0  0
   -4.6713    1.1070    0.0471 O   0  0  0  0  0  0  0  0  0  0  0  0
   -3.5568    1.8778    1.0579 P   0  0  0  0  0  0  0  0  0  0  0  0
   -2.3523    2.2981    0.2508 O   0  0  0  0  0  0  0  0  0  0  0  0
   -3.1000    0.8822    2.3401 O   0  0  0  0  0  0  0  0  0  0  0  0
   -1.4123    0.7915    2.3566 P   0  0  0  0  0  0  0  0  0  0  0  0
   -0.8857    0.5424    3.7429 O   0  0  0  0  0  0  0  0  0  0  0  0
   -0.7922    2.2261    1.7638 O   0  0  0  0  0  0  0  0  0  0  0  0
    0.7203    2.0209    1.0118 P   0  0  0  0  0  0  0  0  0  0  0  0
    0.6608    2.8769   -0.2566 O   0  0  0  0  0  0  0  0  0  0  0  0
    0.9834    0.4440    0.5187 O   0  0  0  0  0  0  0  0  0  0  0  0
    2.4892   -0.1653    0.9815 P   0  0  0  0  0  0  0  0  0  0  0  0
    2.3612   -1.6870    0.9339 O   0  0  0  0  0  0  0  0  0  0  0  0
    3.6761    0.3727   -0.0888 O   0  0  0  0  0  0  0  0  0  0  0  0
    4.9581    0.3172    0.4698 C   0  0  0  0  0  0  0  0  0  0  0  0
    5.8914    0.8367   -0.6304 C   0  0  1  0  0  0  0  0  0  0  0  0
    7.1991    0.8550   -0.2623 O   0  0  0  0  0  0  0  0  0  0  0  0
    7.9422    0.0026   -1.0660 C   0  0  2  0  0  0  0  0  0  0  0  0
    7.0556   -0.7778   -1.9383 C   0  0  1  0  0  0  0  0  0  0  0  0
    5.7126   -0.0837   -1.7956 C   0  0  2  0  0  0  0  0  0  0  0  0
    5.3867    0.7024   -2.8972 O   0  0  0  0  0  0  0  0  0  0  0  0
    7.3729   -0.6655   -3.3098 O   0  0  0  0  0  0  0  0  0  0  0  0
    8.8215   -0.7359   -0.1922 N   0  0  0  0  0  0  0  0  0  0  0  0
    9.0264   -0.3848    1.0952 C   0  0  0  0  0  0  0  0  0  0  0  0
    9.8519   -1.0616    1.9495 C   0  0  0  0  0  0  0  0  0  0  0  0
   10.5287   -2.1780    1.4869 C   0  0  0  0  0  0  0  0  0  0  0  0
   11.3074   -2.8505    2.2222 O   0  0  0  0  0  0  0  0  0  0  0  0
   10.3224   -2.5268    0.2007 N   0  0  0  0  0  0  0  0  0  0  0  0
    9.5035   -1.8374   -0.6098 C   0  0  0  0  0  0  0  0  0  0  0  0
    9.3405   -2.3606   -2.1387 S   0  0  0  0  0  0  0  0  0  0  0  0
    2.8133    0.2933    2.5550 O   0  0  0  0  0  0  0  0  0  0  0  0
    1.9767    2.6104    1.9549 O   0  0  0  0  0  0  0  0  0  0  0  0
   -0.9924   -0.5327    1.3866 O   0  0  0  0  0  0  0  0  0  0  0  0
   -4.3171    3.2366    1.7498 O   0  0  0  0  0  0  0  0  0  0  0  0
  -12.2645   -0.3116    2.3333 H   0  0  0  0  0  0  0  0  0  0  0  0
  -11.1283   -0.7921    3.6623 H   0  0  0  0  0  0  0  0  0  0  0  0
   -9.2143   -2.2498    2.5376 H   0  0  0  0  0  0  0  0  0  0  0  0
   -7.5083   -2.3023    0.8338 H   0  0  0  0  0  0  0  0  0  0  0  0
   -7.5836   -1.4839   -2.0946 H   0  0  0  0  0  0  0  0  0  0  0  0
   -4.5011   -1.3452   -2.2002 H   0  0  0  0  0  0  0  0  0  0  0  0
   -5.0974    1.3653   -2.5174 H   0  0  0  0  0  0  0  0  0  0  0  0
   -7.7313    0.6873   -2.8698 H   0  0  0  0  0  0  0  0  0  0  0  0
   -7.0387    1.4454   -1.3333 H   0  0  0  0  0  0  0  0  0  0  0  0
   -5.5574   -1.0704   -3.8109 H   0  0  0  0  0  0  0  0  0  0  0  0
   -3.6429   -0.6097    0.0480 H   0  0  0  0  0  0  0  0  0  0  0  0
   -3.2115    0.4994   -1.2864 H   0  0  0  0  0  0  0  0  0  0  0  0
    4.9478    1.0269    1.3303 H   0  0  0  0  0  0  0  0  0  0  0  0
    5.2450   -0.6902    0.7925 H   0  0  0  0  0  0  0  0  0  0  0  0
    5.5780    1.8866   -0.8207 H   0  0  0  0  0  0  0  0  0  0  0  0
    8.5668    0.6757   -1.7211 H   0  0  0  0  0  0  0  0  0  0  0  0
    6.8820   -1.8203   -1.6462 H   0  0  0  0  0  0  0  0  0  0  0  0
    4.8723   -0.7982   -1.6824 H   0  0  0  0  0  0  0  0  0  0  0  0
    5.8694    1.5590   -2.8226 H   0  0  0  0  0  0  0  0  0  0  0  0
    7.1574    0.2184   -3.6634 H   0  0  0  0  0  0  0  0  0  0  0  0
    8.4951    0.4913    1.4575 H   0  0  0  0  0  0  0  0  0  0  0  0
   10.0181   -0.7800    2.9870 H   0  0  0  0  0  0  0  0  0  0  0  0
   10.8403   -3.3766   -0.1443 H   0  0  0  0  0  0  0  0  0  0  0  0
    3.0809   -0.4788    3.0925 H   0  0  0  0  0  0  0  0  0  0  0  0
    1.6383    3.1175    2.7314 H   0  0  0  0  0  0  0  0  0  0  0  0
   -1.2614   -0.3659    0.4462 H   0  0  0  0  0  0  0  0  0  0  0  0
   -4.0465    4.0315    1.2340 H   0  0  0  0  0  0  0  0  0  0  0  0
  1  2  1  0
  2  3  1  0
  3  4  2  0
  4  5  1  0
  5  6  1  0
  6  7  2  0
  6  8  1  0
  5  9  1  0
  9 10  1  0
 10 11  1  0
 11 12  1  0
 12 13  1  0
 12 14  1  0
 11 15  1  0
 15 16  1  0
 16 17  1  0
 17 18  2  0
 17 19  1  0
 19 20  1  0
 20 21  2  0
 20 22  1  0
 22 23  1  0
 23 24  2  0
 23 25  1  0
 25 26  1  0
 26 27  2  0
 26 28  1  0
 28 29  1  0
 29 30  1  0
 30 31  1  0
 31 32  1  0
 32 33  1  0
 33 34  1  0
 34 35  1  0
 33 36  1  0
 32 37  1  0
 37 38  1  0
 38 39  2  0
 39 40  1  0
 40 41  2  0
 40 42  1  0
 42 43  1  0
 43 44  2  0
 26 45  1  0
 23 46  1  0
 20 47  1  0
 17 48  1  0
  8  2  2  0
 13  9  1  0
 34 30  1  0
 43 37  1  0
  1 49  1  0
  1 50  1  0
  3 51  1  0
  4 52  1  0
  9 53  1  6
 11 54  1  6
 12 55  1  6
 13 56  1  0
 13 57  1  0
 14 58  1  0
 15 59  1  0
 15 60  1  0
 29 61  1  0
 29 62  1  0
 30 63  1  6
 32 64  1  6
 33 65  1  1
 34 66  1  1
 35 67  1  0
 36 68  1  0
 38 69  1  0
 39 70  1  0
 42 71  1  0
 45 72  1  0
 46 73  1  0
 47 74  1  0
 48 75  1  0
M  END
>  <Ligand ID>  (1) 
LIG0002349

>  <Ligand>  (1) 
CHEMBL509434

>  <SMILES>  (1) 
Nc1ccn(c(=O)n1)[C@@H]1O[C@@H]([C@H](C1)O)COP(=O)(OP(=O)(OP(=O)(OP(=O)(OC[C@H]1O[C@H]([C@@H]([C@@H]1O)O)n1ccc(=O)[nH]c1=S)O)O)O)O

>  <CID>  (1) 
24857827.0

>  <ChEMBL ID>  (1) 
nan

>  <InChiKey>  (1) 
FYCRPTCGPHMUOQ-MIYUEGBISA-N

>  <InChi>  (1) 
InChI=1S/C18H27N5O20P4S/c19-11-1-3-22(17(28)20-11)13-5-8(24)9(39-13)6-37-44(29,30)41-46(33,34)43-47(35,36)42-45(31,32)38-7-10-14(26)15(27)16(40-10)23-4-2-12(25)21-18(23)48/h1-4,8-10,13-16,24,26-27H,5-7H2,(H,29,30)(H,31,32)(H,33,34)(H,35,36)(H2,19,20,28)(H,21,25,48)/t8-,9+,10+,13+,14+,15+,16+/m0/s1

>  <IUPAC Name>  (1) 
[[(2R,3S,5R)-5-(4-amino-2-oxopyrimidin-1-yl)-3-hydroxyoxolan-2-yl]methoxy-hydroxyphosphoryl] [[[(2R,3S,4R,5R)-3,4-dihydroxy-5-(4-oxo-2-sulfanylidenepyrimidin-1-yl)oxolan-2-yl]methoxy-hydroxyphosphoryl]oxy-hydroxyphosphoryl] hydrogen phosphate

$$$$
