
     RDKit          3D

 63 65  0  0  0  0  0  0  0  0999 V2000
    8.8643   -2.5685    1.2458 C   0  0  0  0  0  0  0  0  0  0  0  0
    8.3739   -1.2447    1.5000 O   0  0  0  0  0  0  0  0  0  0  0  0
    8.2728   -0.3087    0.4832 C   0  0  0  0  0  0  0  0  0  0  0  0
    8.6283   -0.6745   -0.6632 O   0  0  0  0  0  0  0  0  0  0  0  0
    7.7600    1.0505    0.7965 C   0  0  0  0  0  0  0  0  0  0  0  0
    7.6873    1.9506   -0.3646 C   0  0  0  0  0  0  0  0  0  0  0  0
    6.8317    1.5678   -1.4940 C   0  0  0  0  0  0  0  0  0  0  0  0
    5.4285    1.4213   -1.3460 N   0  0  0  0  0  0  0  0  0  0  0  0
    4.6587    0.5155   -0.6259 C   0  0  0  0  0  0  0  0  0  0  0  0
    5.1685   -0.4088    0.0510 O   0  0  0  0  0  0  0  0  0  0  0  0
    3.1772    0.5508   -0.5861 C   0  0  0  0  0  0  0  0  0  0  0  0
    2.5043   -0.4074    0.1402 C   0  0  0  0  0  0  0  0  0  0  0  0
    1.1184   -0.4248    0.2179 C   0  0  0  0  0  0  0  0  0  0  0  0
    0.3448    0.5408   -0.4459 C   0  0  0  0  0  0  0  0  0  0  0  0
    1.0462    1.4761   -1.1570 C   0  0  0  0  0  0  0  0  0  0  0  0
    2.4316    1.4958   -1.2363 C   0  0  0  0  0  0  0  0  0  0  0  0
   -1.0043    0.4368   -0.3073 O   0  0  0  0  0  0  0  0  0  0  0  0
   -1.9214    1.3121   -0.8903 C   0  0  0  0  0  0  0  0  0  0  0  0
   -2.7244    2.0661    0.1551 C   0  0  0  0  0  0  0  0  0  0  0  0
   -3.8174    1.2666    0.7761 C   0  0  0  0  0  0  0  0  0  0  0  0
   -4.3235    0.1877    0.0064 N   0  0  0  0  0  0  0  0  0  0  0  0
   -4.1615    0.2487   -1.3977 C   0  0  0  0  0  0  0  0  0  0  0  0
   -2.8216    0.6309   -1.8940 C   0  0  0  0  0  0  0  0  0  0  0  0
   -4.2880   -1.1043    0.6027 C   0  0  0  0  0  0  0  0  0  0  0  0
   -5.2264   -1.2831    1.7646 C   0  0  0  0  0  0  0  0  0  0  0  0
   -6.6246   -1.0624    1.3033 C   0  0  0  0  0  0  0  0  0  0  0  0
   -7.2537    0.1530    1.3248 C   0  0  0  0  0  0  0  0  0  0  0  0
   -8.5556    0.2180    0.8613 C   0  0  0  0  0  0  0  0  0  0  0  0
   -9.2436   -0.8692    0.3840 C   0  0  0  0  0  0  0  0  0  0  0  0
   -8.5952   -2.0926    0.3681 C   0  0  0  0  0  0  0  0  0  0  0  0
   -7.2877   -2.1933    0.8261 C   0  0  0  0  0  0  0  0  0  0  0  0
    8.5117   -2.7887    0.1957 H   0  0  0  0  0  0  0  0  0  0  0  0
    8.3774   -3.3265    1.8830 H   0  0  0  0  0  0  0  0  0  0  0  0
    9.9603   -2.6204    1.2352 H   0  0  0  0  0  0  0  0  0  0  0  0
    6.8585    0.9545    1.4166 H   0  0  0  0  0  0  0  0  0  0  0  0
    8.5185    1.4945    1.5589 H   0  0  0  0  0  0  0  0  0  0  0  0
    8.7690    2.1182   -0.7079 H   0  0  0  0  0  0  0  0  0  0  0  0
    7.4297    3.0123   -0.0079 H   0  0  0  0  0  0  0  0  0  0  0  0
    7.2380    0.6073   -2.0013 H   0  0  0  0  0  0  0  0  0  0  0  0
    7.0472    2.3180   -2.3218 H   0  0  0  0  0  0  0  0  0  0  0  0
    4.8425    2.1557   -1.8990 H   0  0  0  0  0  0  0  0  0  0  0  0
    3.0134   -1.1917    0.6851 H   0  0  0  0  0  0  0  0  0  0  0  0
    0.6203   -1.2042    0.8061 H   0  0  0  0  0  0  0  0  0  0  0  0
    0.5334    2.2538   -1.6971 H   0  0  0  0  0  0  0  0  0  0  0  0
    2.8883    2.2763   -1.8235 H   0  0  0  0  0  0  0  0  0  0  0  0
   -1.3729    2.0929   -1.4457 H   0  0  0  0  0  0  0  0  0  0  0  0
   -3.1304    3.0232   -0.2274 H   0  0  0  0  0  0  0  0  0  0  0  0
   -1.9645    2.3756    0.9285 H   0  0  0  0  0  0  0  0  0  0  0  0
   -4.6334    1.9611    1.0690 H   0  0  0  0  0  0  0  0  0  0  0  0
   -3.4494    0.8324    1.7432 H   0  0  0  0  0  0  0  0  0  0  0  0
   -4.5287   -0.7180   -1.8324 H   0  0  0  0  0  0  0  0  0  0  0  0
   -4.8919    1.0100   -1.7994 H   0  0  0  0  0  0  0  0  0  0  0  0
   -2.2875   -0.3293   -2.1571 H   0  0  0  0  0  0  0  0  0  0  0  0
   -2.8369    1.2016   -2.8309 H   0  0  0  0  0  0  0  0  0  0  0  0
   -4.6339   -1.8328   -0.1798 H   0  0  0  0  0  0  0  0  0  0  0  0
   -3.2651   -1.4429    0.8663 H   0  0  0  0  0  0  0  0  0  0  0  0
   -4.9647   -0.6324    2.6208 H   0  0  0  0  0  0  0  0  0  0  0  0
   -5.0891   -2.3250    2.1348 H   0  0  0  0  0  0  0  0  0  0  0  0
   -6.7372    1.0212    1.6962 H   0  0  0  0  0  0  0  0  0  0  0  0
   -9.0729    1.1645    0.8682 H   0  0  0  0  0  0  0  0  0  0  0  0
  -10.2636   -0.7941    0.0262 H   0  0  0  0  0  0  0  0  0  0  0  0
   -9.1320   -2.9495   -0.0066 H   0  0  0  0  0  0  0  0  0  0  0  0
   -6.8021   -3.1527    0.8050 H   0  0  0  0  0  0  0  0  0  0  0  0
  1  2  1  0
  2  3  1  0
  3  4  2  0
  3  5  1  0
  5  6  1  0
  6  7  1  0
  7  8  1  0
  8  9  1  0
  9 10  2  0
  9 11  1  0
 11 12  2  0
 12 13  1  0
 13 14  2  0
 14 15  1  0
 15 16  2  0
 14 17  1  0
 17 18  1  0
 18 19  1  0
 19 20  1  0
 20 21  1  0
 21 22  1  0
 22 23  1  0
 21 24  1  0
 24 25  1  0
 25 26  1  0
 26 27  2  0
 27 28  1  0
 28 29  2  0
 29 30  1  0
 30 31  2  0
 16 11  1  0
 23 18  1  0
 31 26  1  0
  1 32  1  0
  1 33  1  0
  1 34  1  0
  5 35  1  0
  5 36  1  0
  6 37  1  0
  6 38  1  0
  7 39  1  0
  7 40  1  0
  8 41  1  0
 12 42  1  0
 13 43  1  0
 15 44  1  0
 16 45  1  0
 18 46  1  0
 19 47  1  0
 19 48  1  0
 20 49  1  0
 20 50  1  0
 22 51  1  0
 22 52  1  0
 23 53  1  0
 23 54  1  0
 24 55  1  0
 24 56  1  0
 25 57  1  0
 25 58  1  0
 27 59  1  0
 28 60  1  0
 29 61  1  0
 30 62  1  0
 31 63  1  0
M  END
>  <Ligand ID>  (1) 
LIG0004714

>  <Ligand>  (1) 
MLS000735863

>  <SMILES>  (1) 
COC(=O)CCCNC(=O)c1ccc(cc1)OC1CCN(CC1)CCc1ccccc1

>  <CID>  (1) 
16192255.0

>  <ChEMBL ID>  (1) 
nan

>  <InChiKey>  (1) 
LIGDMZRPFHJYLS-UHFFFAOYSA-N

>  <InChi>  (1) 
InChI=1S/C25H32N2O4/c1-30-24(28)8-5-16-26-25(29)21-9-11-22(12-10-21)31-23-14-18-27(19-15-23)17-13-20-6-3-2-4-7-20/h2-4,6-7,9-12,23H,5,8,13-19H2,1H3,(H,26,29)

>  <IUPAC Name>  (1) 
methyl 4-[[4-[1-(2-phenylethyl)piperidin-4-yl]oxybenzoyl]amino]butanoate

$$$$
