
     RDKit          3D

 84 88  0  0  0  0  0  0  0  0999 V2000
   -5.4906   -4.5804    0.4641 C   0  0  0  0  0  0  0  0  0  0  0  0
   -5.8447   -3.2530   -0.2042 C   0  0  0  0  0  0  0  0  0  0  0  0
   -4.6396   -2.3614   -0.3016 C   0  0  0  0  0  0  0  0  0  0  0  0
   -4.9660   -1.0852   -0.9438 N   0  0  0  0  0  0  0  0  0  0  0  0
   -4.8035   -0.9671   -2.6482 S   0  0  0  0  0  0  0  0  0  0  0  0
   -3.8616    0.0801   -3.1163 O   0  0  0  0  0  0  0  0  0  0  0  0
   -4.4305   -2.3202   -3.2009 O   0  0  0  0  0  0  0  0  0  0  0  0
   -6.4395   -0.6029   -3.2882 C   0  0  0  0  0  0  0  0  0  0  0  0
   -5.3891   -0.0493   -0.0888 C   0  0  0  0  0  0  0  0  0  0  0  0
   -6.7668    0.0676    0.0878 C   0  0  0  0  0  0  0  0  0  0  0  0
   -7.3512    1.0435    0.8539 C   0  0  0  0  0  0  0  0  0  0  0  0
   -6.5463    1.9594    1.4850 C   0  0  0  0  0  0  0  0  0  0  0  0
   -5.1961    1.8528    1.3188 C   0  0  0  0  0  0  0  0  0  0  0  0
   -4.5902    0.8600    0.5395 C   0  0  0  0  0  0  0  0  0  0  0  0
   -3.1833    0.8821    0.5185 N   0  0  0  0  0  0  0  0  0  0  0  0
   -2.3189    1.1378   -0.5947 C   0  0  0  0  0  0  0  0  0  0  0  0
   -1.0014    1.7443   -0.1067 C   0  0  0  0  0  0  0  0  0  0  0  0
   -0.3619    0.7674    0.7407 N   0  0  0  0  0  0  0  0  0  0  0  0
   -1.2350   -0.1265    1.4913 C   0  0  0  0  0  0  0  0  0  0  0  0
   -2.5130    0.6129    1.8027 C   0  0  0  0  0  0  0  0  0  0  0  0
    1.0343    0.6126    0.8919 C   0  0  0  0  0  0  0  0  0  0  0  0
    1.4853   -0.2992    1.6696 O   0  0  0  0  0  0  0  0  0  0  0  0
    2.0621    1.4287    0.2146 C   0  0  1  0  0  0  0  0  0  0  0  0
    1.9345    2.8803    0.6009 C   0  0  0  0  0  0  0  0  0  0  0  0
    2.9624    3.7264   -0.0653 C   0  0  0  0  0  0  0  0  0  0  0  0
    4.1918    3.9524    0.5307 C   0  0  0  0  0  0  0  0  0  0  0  0
    5.1604    4.7359   -0.0732 C   0  0  0  0  0  0  0  0  0  0  0  0
    4.9364    5.3248   -1.2989 C   0  0  0  0  0  0  0  0  0  0  0  0
    3.7081    5.1042   -1.9036 C   0  0  0  0  0  0  0  0  0  0  0  0
    2.7333    4.3227   -1.3081 C   0  0  0  0  0  0  0  0  0  0  0  0
    6.1191    6.3230   -2.1119 Cl  0  0  0  0  0  0  0  0  0  0  0  0
    3.4025    0.9406    0.5324 N   0  0  0  0  0  0  0  0  0  0  0  0
    4.2257    0.4700   -0.5097 C   0  0  0  0  0  0  0  0  0  0  0  0
    3.8365    0.4558   -1.7258 O   0  0  0  0  0  0  0  0  0  0  0  0
    5.6115   -0.0478   -0.2832 C   0  0  1  0  0  0  0  0  0  0  0  0
    6.0330   -0.0254    1.0697 N   0  0  0  0  0  0  0  0  0  0  0  0
    5.7183   -1.1408    1.8870 C   0  0  0  0  0  0  0  0  0  0  0  0
    5.5977   -2.4208    1.1821 C   0  0  0  0  0  0  0  0  0  0  0  0
    5.6392   -2.5477   -0.1732 C   0  0  0  0  0  0  0  0  0  0  0  0
    5.8148   -1.3512   -1.0092 C   0  0  0  0  0  0  0  0  0  0  0  0
    5.5233   -3.7678   -0.8238 C   0  0  0  0  0  0  0  0  0  0  0  0
    5.3582   -4.9069   -0.0595 C   0  0  0  0  0  0  0  0  0  0  0  0
    5.3150   -4.7864    1.3194 C   0  0  0  0  0  0  0  0  0  0  0  0
    5.4320   -3.5649    1.9451 C   0  0  0  0  0  0  0  0  0  0  0  0
   -4.4512   -4.8898    0.2377 H   0  0  0  0  0  0  0  0  0  0  0  0
   -5.6305   -4.4128    1.5682 H   0  0  0  0  0  0  0  0  0  0  0  0
   -6.2257   -5.3403    0.1154 H   0  0  0  0  0  0  0  0  0  0  0  0
   -6.2698   -3.4106   -1.2102 H   0  0  0  0  0  0  0  0  0  0  0  0
   -6.6043   -2.7156    0.4203 H   0  0  0  0  0  0  0  0  0  0  0  0
   -4.1854   -2.1448    0.6808 H   0  0  0  0  0  0  0  0  0  0  0  0
   -3.8581   -2.9086   -0.8984 H   0  0  0  0  0  0  0  0  0  0  0  0
   -7.2310   -1.1694   -2.7468 H   0  0  0  0  0  0  0  0  0  0  0  0
   -6.6498    0.4790   -3.0924 H   0  0  0  0  0  0  0  0  0  0  0  0
   -6.5037   -0.8530   -4.3566 H   0  0  0  0  0  0  0  0  0  0  0  0
   -7.4624   -0.6360   -0.3939 H   0  0  0  0  0  0  0  0  0  0  0  0
   -8.4457    1.0931    0.9619 H   0  0  0  0  0  0  0  0  0  0  0  0
   -6.9785    2.7431    2.0969 H   0  0  0  0  0  0  0  0  0  0  0  0
   -4.5845    2.6031    1.8389 H   0  0  0  0  0  0  0  0  0  0  0  0
   -2.7373    1.8144   -1.3382 H   0  0  0  0  0  0  0  0  0  0  0  0
   -2.0773    0.1680   -1.0588 H   0  0  0  0  0  0  0  0  0  0  0  0
   -1.2913    2.6384    0.4933 H   0  0  0  0  0  0  0  0  0  0  0  0
   -0.4374    1.9827   -1.0257 H   0  0  0  0  0  0  0  0  0  0  0  0
   -0.7544   -0.5233    2.4011 H   0  0  0  0  0  0  0  0  0  0  0  0
   -1.5028   -0.9618    0.8146 H   0  0  0  0  0  0  0  0  0  0  0  0
   -3.1740    0.0380    2.4687 H   0  0  0  0  0  0  0  0  0  0  0  0
   -2.2265    1.5801    2.2763 H   0  0  0  0  0  0  0  0  0  0  0  0
    1.8905    1.3527   -0.8746 H   0  0  0  0  0  0  0  0  0  0  0  0
    2.0603    2.9893    1.7011 H   0  0  0  0  0  0  0  0  0  0  0  0
    0.9612    3.3297    0.3452 H   0  0  0  0  0  0  0  0  0  0  0  0
    4.4446    3.5251    1.4928 H   0  0  0  0  0  0  0  0  0  0  0  0
    6.1109    4.8945    0.4165 H   0  0  0  0  0  0  0  0  0  0  0  0
    3.4742    5.5361   -2.8589 H   0  0  0  0  0  0  0  0  0  0  0  0
    1.7735    4.1713   -1.8179 H   0  0  0  0  0  0  0  0  0  0  0  0
    3.7445    0.9413    1.5172 H   0  0  0  0  0  0  0  0  0  0  0  0
    6.2707    0.6810   -0.8449 H   0  0  0  0  0  0  0  0  0  0  0  0
    7.0495    0.2275    1.1223 H   0  0  0  0  0  0  0  0  0  0  0  0
    4.8403   -0.9567    2.5274 H   0  0  0  0  0  0  0  0  0  0  0  0
    6.5701   -1.2736    2.6181 H   0  0  0  0  0  0  0  0  0  0  0  0
    6.7683   -1.3838   -1.5972 H   0  0  0  0  0  0  0  0  0  0  0  0
    5.0085   -1.4063   -1.7967 H   0  0  0  0  0  0  0  0  0  0  0  0
    5.5644   -3.8087   -1.9200 H   0  0  0  0  0  0  0  0  0  0  0  0
    5.2675   -5.8649   -0.5583 H   0  0  0  0  0  0  0  0  0  0  0  0
    5.1845   -5.6825    1.9239 H   0  0  0  0  0  0  0  0  0  0  0  0
    5.3918   -3.5266    3.0441 H   0  0  0  0  0  0  0  0  0  0  0  0
  1  2  1  0
  2  3  1  0
  3  4  1  0
  4  5  1  0
  5  6  2  0
  5  7  2  0
  5  8  1  0
  4  9  1  0
  9 10  2  0
 10 11  1  0
 11 12  2  0
 12 13  1  0
 13 14  2  0
 14 15  1  0
 15 16  1  0
 16 17  1  0
 17 18  1  0
 18 19  1  0
 19 20  1  0
 18 21  1  0
 21 22  2  0
 21 23  1  0
 23 24  1  0
 24 25  1  0
 25 26  2  0
 26 27  1  0
 27 28  2  0
 28 29  1  0
 29 30  2  0
 28 31  1  0
 23 32  1  0
 32 33  1  0
 33 34  2  0
 33 35  1  0
 35 36  1  0
 36 37  1  0
 37 38  1  0
 38 39  2  0
 39 40  1  0
 39 41  1  0
 41 42  2  0
 42 43  1  0
 43 44  2  0
 14  9  1  0
 20 15  1  0
 30 25  1  0
 40 35  1  0
 44 38  1  0
  1 45  1  0
  1 46  1  0
  1 47  1  0
  2 48  1  0
  2 49  1  0
  3 50  1  0
  3 51  1  0
  8 52  1  0
  8 53  1  0
  8 54  1  0
 10 55  1  0
 11 56  1  0
 12 57  1  0
 13 58  1  0
 16 59  1  0
 16 60  1  0
 17 61  1  0
 17 62  1  0
 19 63  1  0
 19 64  1  0
 20 65  1  0
 20 66  1  0
 23 67  1  6
 24 68  1  0
 24 69  1  0
 26 70  1  0
 27 71  1  0
 29 72  1  0
 30 73  1  0
 32 74  1  0
 35 75  1  6
 36 76  1  0
 37 77  1  0
 37 78  1  0
 40 79  1  0
 40 80  1  0
 41 81  1  0
 42 82  1  0
 43 83  1  0
 44 84  1  0
M  END
>  <Ligand ID>  (1) 
LIG0004337

>  <Ligand>  (1) 
CHEMBL179836

>  <SMILES>  (1) 
CCCN(S(=O)(=O)C)c1ccccc1N1CCN(CC1)C(=O)[C@@H](Cc1ccc(cc1)Cl)NC(=O)[C@H]1NCc2c(C1)cccc2

>  <CID>  (1) 
6918780.0

>  <ChEMBL ID>  (1) 
nan

>  <InChiKey>  (1) 
XMTYQIRCWZBVAL-URLMMPGGSA-N

>  <InChi>  (1) 
InChI=1S/C33H40ClN5O4S/c1-3-16-39(44(2,42)43)31-11-7-6-10-30(31)37-17-19-38(20-18-37)33(41)29(21-24-12-14-27(34)15-13-24)36-32(40)28-22-25-8-4-5-9-26(25)23-35-28/h4-15,28-29,35H,3,16-23H2,1-2H3,(H,36,40)/t28-,29+/m0/s1

>  <IUPAC Name>  (1) 
(3S)-N-[(2R)-3-(4-chlorophenyl)-1-[4-[2-[methylsulfonyl(propyl)amino]phenyl]piperazin-1-yl]-1-oxopropan-2-yl]-1,2,3,4-tetrahydroisoquinoline-3-carboxamide

$$$$
