
     RDKit          3D

 45 47  0  0  0  0  0  0  0  0999 V2000
    8.1388   -0.7874    0.2960 C   0  0  0  0  0  0  0  0  0  0  0  0
    6.8101   -0.7501   -0.3042 N   0  0  0  0  0  0  0  0  0  0  0  0
    5.7892    0.0575    0.2531 C   0  0  0  0  0  0  0  0  0  0  0  0
    6.1157    0.7274    1.2888 O   0  0  0  0  0  0  0  0  0  0  0  0
    4.4400    0.1480   -0.2876 C   0  0  0  0  0  0  0  0  0  0  0  0
    4.0201   -0.5182   -1.3724 N   0  0  0  0  0  0  0  0  0  0  0  0
    2.7618   -0.4024   -1.8377 C   0  0  0  0  0  0  0  0  0  0  0  0
    1.8107    0.4094   -1.2347 C   0  0  0  0  0  0  0  0  0  0  0  0
    2.2143    1.1037   -0.1209 C   0  0  0  0  0  0  0  0  0  0  0  0
    3.5247    0.9651    0.3399 C   0  0  0  0  0  0  0  0  0  0  0  0
    1.3449    2.0195    0.6529 C   0  0  0  0  0  0  0  0  0  0  0  0
    0.4585    1.1018    1.9544 S   0  0  0  0  0  0  0  0  0  0  0  0
   -0.7038   -0.0256    1.1697 C   0  0  0  0  0  0  0  0  0  0  0  0
   -0.3676   -1.2792    0.8242 N   0  0  0  0  0  0  0  0  0  0  0  0
   -1.3159   -2.0617    0.2308 C   0  0  0  0  0  0  0  0  0  0  0  0
   -1.0492   -3.3984   -0.1683 N   0  0  0  0  0  0  0  0  0  0  0  0
   -2.5954   -1.5867   -0.0139 C   0  0  0  0  0  0  0  0  0  0  0  0
   -2.9449   -0.3096    0.3359 C   0  0  0  0  0  0  0  0  0  0  0  0
   -1.9704    0.4710    0.9370 C   0  0  0  0  0  0  0  0  0  0  0  0
   -2.3268    1.8220    1.3109 C   0  0  0  0  0  0  0  0  0  0  0  0
   -2.5985    2.9030    1.6078 N   0  0  0  0  0  0  0  0  0  0  0  0
   -4.2719    0.2622    0.1082 C   0  0  0  0  0  0  0  0  0  0  0  0
   -4.5219    0.9357   -1.0914 C   0  0  0  0  0  0  0  0  0  0  0  0
   -5.7970    1.4724   -1.2853 C   0  0  0  0  0  0  0  0  0  0  0  0
   -6.7805    1.3444   -0.3271 C   0  0  0  0  0  0  0  0  0  0  0  0
   -6.5403    0.6813    0.8585 C   0  0  0  0  0  0  0  0  0  0  0  0
   -5.2766    0.1517    1.0459 C   0  0  0  0  0  0  0  0  0  0  0  0
   -8.0237    1.8585   -0.4971 F   0  0  0  0  0  0  0  0  0  0  0  0
   -3.5988   -2.4076   -0.6384 C   0  0  0  0  0  0  0  0  0  0  0  0
   -4.4040   -3.0603   -1.1561 N   0  0  0  0  0  0  0  0  0  0  0  0
    8.7176    0.1528    0.0751 H   0  0  0  0  0  0  0  0  0  0  0  0
    8.0878   -0.9161    1.3922 H   0  0  0  0  0  0  0  0  0  0  0  0
    8.7200   -1.6144   -0.1660 H   0  0  0  0  0  0  0  0  0  0  0  0
    6.5914   -1.3138   -1.1473 H   0  0  0  0  0  0  0  0  0  0  0  0
    2.4767   -0.9549   -2.7081 H   0  0  0  0  0  0  0  0  0  0  0  0
    0.8049    0.5186   -1.5846 H   0  0  0  0  0  0  0  0  0  0  0  0
    3.8568    1.5176    1.2317 H   0  0  0  0  0  0  0  0  0  0  0  0
    1.9020    2.8396    1.1167 H   0  0  0  0  0  0  0  0  0  0  0  0
    0.6080    2.4531   -0.0788 H   0  0  0  0  0  0  0  0  0  0  0  0
   -0.6568   -4.1327    0.4559 H   0  0  0  0  0  0  0  0  0  0  0  0
   -1.2729   -3.6438   -1.1774 H   0  0  0  0  0  0  0  0  0  0  0  0
   -3.7428    1.0303   -1.8358 H   0  0  0  0  0  0  0  0  0  0  0  0
   -6.0425    2.0024   -2.1948 H   0  0  0  0  0  0  0  0  0  0  0  0
   -7.3232    0.5863    1.6073 H   0  0  0  0  0  0  0  0  0  0  0  0
   -5.0685   -0.3722    1.9697 H   0  0  0  0  0  0  0  0  0  0  0  0
  1  2  1  0
  2  3  1  0
  3  4  2  0
  3  5  1  0
  5  6  2  0
  6  7  1  0
  7  8  2  0
  8  9  1  0
  9 10  2  0
  9 11  1  0
 11 12  1  0
 12 13  1  0
 13 14  2  0
 14 15  1  0
 15 16  1  0
 15 17  2  0
 17 18  1  0
 18 19  2  0
 19 20  1  0
 20 21  3  0
 18 22  1  0
 22 23  2  0
 23 24  1  0
 24 25  2  0
 25 26  1  0
 26 27  2  0
 25 28  1  0
 17 29  1  0
 29 30  3  0
 10  5  1  0
 19 13  1  0
 27 22  1  0
  1 31  1  0
  1 32  1  0
  1 33  1  0
  2 34  1  0
  7 35  1  0
  8 36  1  0
 10 37  1  0
 11 38  1  0
 11 39  1  0
 16 40  1  0
 16 41  1  0
 23 42  1  0
 24 43  1  0
 26 44  1  0
 27 45  1  0
M  END
>  <Ligand ID>  (1) 
LIG0004663

>  <Ligand>  (1) 
SCHEMBL3374519

>  <SMILES>  (1) 
CNC(=O)c1nccc(c1)CSc1nc(N)c(c(c1C#N)c1ccc(cc1)F)C#N

>  <CID>  (1) 
68617983.0

>  <ChEMBL ID>  (1) 
nan

>  <InChiKey>  (1) 
BUPQTCPEJNYADY-UHFFFAOYSA-N

>  <InChi>  (1) 
InChI=1S/C21H15FN6OS/c1-26-20(29)17-8-12(6-7-27-17)11-30-21-16(10-24)18(15(9-23)19(25)28-21)13-2-4-14(22)5-3-13/h2-8H,11H2,1H3,(H2,25,28)(H,26,29)

>  <IUPAC Name>  (1) 
4-[[6-amino-3,5-dicyano-4-(4-fluorophenyl)pyridin-2-yl]sulfanylmethyl]-N-methylpyridine-2-carboxamide

$$$$
