
     RDKit          3D

 55 59  0  0  0  0  0  0  0  0999 V2000
   -0.9732   -4.2135    0.0625 C   0  0  0  0  0  0  0  0  0  0  0  0
   -2.2821   -3.7016    0.0026 O   0  0  0  0  0  0  0  0  0  0  0  0
   -2.5738   -2.3450   -0.0294 C   0  0  0  0  0  0  0  0  0  0  0  0
   -1.5395   -1.4411   -0.0017 C   0  0  0  0  0  0  0  0  0  0  0  0
   -1.8063   -0.1084   -0.0315 C   0  0  0  0  0  0  0  0  0  0  0  0
   -3.1406    0.2715   -0.0914 C   0  0  0  0  0  0  0  0  0  0  0  0
   -4.1670   -0.6213   -0.1191 C   0  0  0  0  0  0  0  0  0  0  0  0
   -3.9002   -1.9718   -0.0879 C   0  0  0  0  0  0  0  0  0  0  0  0
   -4.8795   -2.9496   -0.1120 O   0  0  0  0  0  0  0  0  0  0  0  0
   -6.2512   -2.6428   -0.1712 C   0  0  0  0  0  0  0  0  0  0  0  0
   -3.4345    1.5878   -0.1391 N   0  0  0  0  0  0  0  0  0  0  0  0
   -2.4468    2.5294   -0.1288 C   0  0  0  0  0  0  0  0  0  0  0  0
   -1.1715    2.1125   -0.0689 N   0  0  0  0  0  0  0  0  0  0  0  0
   -0.7973    0.8072   -0.0177 C   0  0  0  0  0  0  0  0  0  0  0  0
    0.5843    0.5552    0.1004 N   0  0  0  0  0  0  0  0  0  0  0  0
    1.4576    1.4808   -0.6440 C   0  0  0  0  0  0  0  0  0  0  0  0
    2.8573    1.0532   -0.8143 C   0  0  0  0  0  0  0  0  0  0  0  0
    3.4011    0.2910    0.3303 N   0  0  0  0  0  0  0  0  0  0  0  0
    2.5104    0.2387    1.4631 C   0  0  0  0  0  0  0  0  0  0  0  0
    1.2346   -0.4396    0.9016 C   0  0  0  0  0  0  0  0  0  0  0  0
    4.6727   -0.2528    0.1902 C   0  0  0  0  0  0  0  0  0  0  0  0
    5.5034    0.2789   -0.8117 C   0  0  0  0  0  0  0  0  0  0  0  0
    6.7880   -0.1673   -1.0133 C   0  0  0  0  0  0  0  0  0  0  0  0
    7.3404   -1.1650   -0.2440 C   0  0  0  0  0  0  0  0  0  0  0  0
    6.5457   -1.7024    0.7439 C   0  0  0  0  0  0  0  0  0  0  0  0
    5.2381   -1.2457    0.9459 C   0  0  0  0  0  0  0  0  0  0  0  0
    4.3365   -2.0443    2.2082 Cl  0  0  0  0  0  0  0  0  0  0  0  0
   -2.7834    3.9866   -0.1831 C   0  0  0  0  0  0  0  0  0  0  0  0
   -3.8871    4.4078   -1.1311 C   0  0  0  0  0  0  0  0  0  0  0  0
   -4.0693    4.4783    0.3634 C   0  0  0  0  0  0  0  0  0  0  0  0
   -0.5218   -4.1443    1.0821 H   0  0  0  0  0  0  0  0  0  0  0  0
   -0.3559   -3.7035   -0.7090 H   0  0  0  0  0  0  0  0  0  0  0  0
   -1.0577   -5.3117   -0.1762 H   0  0  0  0  0  0  0  0  0  0  0  0
   -0.5482   -1.8097    0.0257 H   0  0  0  0  0  0  0  0  0  0  0  0
   -5.1990   -0.3144   -0.1652 H   0  0  0  0  0  0  0  0  0  0  0  0
   -6.5787   -2.2986    0.8271 H   0  0  0  0  0  0  0  0  0  0  0  0
   -6.4394   -1.8328   -0.9341 H   0  0  0  0  0  0  0  0  0  0  0  0
   -6.8373   -3.5298   -0.4871 H   0  0  0  0  0  0  0  0  0  0  0  0
    1.4194    2.4143   -0.0392 H   0  0  0  0  0  0  0  0  0  0  0  0
    0.9861    1.6361   -1.6419 H   0  0  0  0  0  0  0  0  0  0  0  0
    3.4816    1.9966   -0.8286 H   0  0  0  0  0  0  0  0  0  0  0  0
    3.0611    0.5155   -1.7578 H   0  0  0  0  0  0  0  0  0  0  0  0
    2.8618   -0.1842    2.3785 H   0  0  0  0  0  0  0  0  0  0  0  0
    2.1949    1.3196    1.6287 H   0  0  0  0  0  0  0  0  0  0  0  0
    1.6473   -1.3065    0.3204 H   0  0  0  0  0  0  0  0  0  0  0  0
    0.6645   -0.8391    1.7408 H   0  0  0  0  0  0  0  0  0  0  0  0
    5.1597    1.0680   -1.4705 H   0  0  0  0  0  0  0  0  0  0  0  0
    7.4023    0.2790   -1.8106 H   0  0  0  0  0  0  0  0  0  0  0  0
    8.3463   -1.4640   -0.4549 H   0  0  0  0  0  0  0  0  0  0  0  0
    6.9782   -2.4832    1.3458 H   0  0  0  0  0  0  0  0  0  0  0  0
   -1.9441    4.7180   -0.1723 H   0  0  0  0  0  0  0  0  0  0  0  0
   -3.7864    5.3410   -1.7265 H   0  0  0  0  0  0  0  0  0  0  0  0
   -4.4230    3.6094   -1.6858 H   0  0  0  0  0  0  0  0  0  0  0  0
   -4.7727    3.7717    0.8480 H   0  0  0  0  0  0  0  0  0  0  0  0
   -4.1058    5.4863    0.8263 H   0  0  0  0  0  0  0  0  0  0  0  0
  1  2  1  0
  2  3  1  0
  3  4  2  0
  4  5  1  0
  5  6  2  0
  6  7  1  0
  7  8  2  0
  8  9  1  0
  9 10  1  0
  6 11  1  0
 11 12  2  0
 12 13  1  0
 13 14  2  0
 14 15  1  0
 15 16  1  0
 16 17  1  0
 17 18  1  0
 18 19  1  0
 19 20  1  0
 18 21  1  0
 21 22  2  0
 22 23  1  0
 23 24  2  0
 24 25  1  0
 25 26  2  0
 26 27  1  0
 12 28  1  0
 28 29  1  0
 29 30  1  0
  8  3  1  0
 20 15  1  0
 26 21  1  0
 30 28  1  0
 14  5  1  0
  1 31  1  0
  1 32  1  0
  1 33  1  0
  4 34  1  0
  7 35  1  0
 10 36  1  0
 10 37  1  0
 10 38  1  0
 16 39  1  0
 16 40  1  0
 17 41  1  0
 17 42  1  0
 19 43  1  0
 19 44  1  0
 20 45  1  0
 20 46  1  0
 22 47  1  0
 23 48  1  0
 24 49  1  0
 25 50  1  0
 28 51  1  0
 29 52  1  0
 29 53  1  0
 30 54  1  0
 30 55  1  0
M  END
>  <Ligand ID>  (1) 
LIG0004749

>  <Ligand>  (1) 
CHEMBL2431131

>  <SMILES>  (1) 
COc1cc2c(cc1OC)nc(nc2N1CCN(CC1)c1ccccc1Cl)C1CC1

>  <CID>  (1) 
56593272.0

>  <ChEMBL ID>  (1) 
nan

>  <InChiKey>  (1) 
KMQHCXSTAQSUDR-UHFFFAOYSA-N

>  <InChi>  (1) 
InChI=1S/C23H25ClN4O2/c1-29-20-13-16-18(14-21(20)30-2)25-22(15-7-8-15)26-23(16)28-11-9-27(10-12-28)19-6-4-3-5-17(19)24/h3-6,13-15H,7-12H2,1-2H3

>  <IUPAC Name>  (1) 
4-[4-(2-chlorophenyl)piperazin-1-yl]-2-cyclopropyl-6,7-dimethoxyquinazoline

$$$$
