
     RDKit          3D

 82 85  0  0  0  0  0  0  0  0999 V2000
   12.7621   -2.0146    0.1130 O   0  0  0  0  0  0  0  0  0  0  0  0
   12.0260   -0.8117    0.1392 C   0  0  0  0  0  0  0  0  0  0  0  0
   11.3433   -0.6233    1.1614 O   0  0  0  0  0  0  0  0  0  0  0  0
   12.1549    0.0590   -1.0293 C   0  0  0  0  0  0  0  0  0  0  0  0
   11.3283    1.2830   -0.9245 C   0  0  0  0  0  0  0  0  0  0  0  0
    9.8797    1.1083   -0.8021 C   0  0  0  0  0  0  0  0  0  0  0  0
    9.1476    1.1375    0.3533 C   0  0  0  0  0  0  0  0  0  0  0  0
    7.7625    0.9311    0.3644 C   0  0  0  0  0  0  0  0  0  0  0  0
    7.0912    0.6893   -0.8160 C   0  0  0  0  0  0  0  0  0  0  0  0
    7.8097    0.6567   -1.9918 C   0  0  0  0  0  0  0  0  0  0  0  0
    9.1718    0.8613   -1.9849 C   0  0  0  0  0  0  0  0  0  0  0  0
    5.7038    0.4761   -0.8542 O   0  0  0  0  0  0  0  0  0  0  0  0
    4.9204    0.4945    0.3042 C   0  0  0  0  0  0  0  0  0  0  0  0
    3.5115    0.2339   -0.0739 C   0  0  0  0  0  0  0  0  0  0  0  0
    3.1188   -1.1045   -0.0917 C   0  0  0  0  0  0  0  0  0  0  0  0
    1.8212   -1.3711   -0.4342 C   0  0  0  0  0  0  0  0  0  0  0  0
    0.9026   -0.3727   -0.7572 C   0  0  0  0  0  0  0  0  0  0  0  0
    1.2894    0.9497   -0.7403 C   0  0  0  0  0  0  0  0  0  0  0  0
    2.6080    1.2244   -0.3928 C   0  0  0  0  0  0  0  0  0  0  0  0
   -0.4611   -0.8305   -1.1118 C   0  0  0  0  0  0  0  0  0  0  0  0
   -1.2394   -0.9717    0.0626 N   0  0  0  0  0  0  0  0  0  0  0  0
   -1.4496    0.1568    0.8781 C   0  0  0  0  0  0  0  0  0  0  0  0
   -2.7586    0.8732    0.6201 C   0  0  0  0  0  0  0  0  0  0  0  0
   -3.8372   -0.1678    0.9576 C   0  0  0  0  0  0  0  0  0  0  0  0
   -3.6959   -1.1983   -0.1521 C   0  0  0  0  0  0  0  0  0  0  0  0
   -2.3508   -1.8709   -0.0527 C   0  0  0  0  0  0  0  0  0  0  0  0
   -3.4025   -0.7891    2.1027 O   0  0  0  0  0  0  0  0  0  0  0  0
   -4.3131   -1.5195    2.8036 C   0  0  0  0  0  0  0  0  0  0  0  0
   -5.4548   -0.5791    3.2147 C   0  0  0  0  0  0  0  0  0  0  0  0
   -6.1626   -0.2955    1.9020 C   0  0  0  0  0  0  0  0  0  0  0  0
   -5.2104    0.3707    0.9430 C   0  0  0  0  0  0  0  0  0  0  0  0
   -7.4367    0.4696    2.0534 C   0  0  0  0  0  0  0  0  0  0  0  0
   -8.0199    0.6748    0.6954 C   0  0  0  0  0  0  0  0  0  0  0  0
   -7.7303    1.7738   -0.0855 C   0  0  0  0  0  0  0  0  0  0  0  0
   -8.3518    1.8231   -1.3288 C   0  0  0  0  0  0  0  0  0  0  0  0
   -9.2094    0.8337   -1.7621 C   0  0  0  0  0  0  0  0  0  0  0  0
   -9.4922   -0.2571   -0.9781 C   0  0  0  0  0  0  0  0  0  0  0  0
   -8.8894   -0.3327    0.2616 C   0  0  0  0  0  0  0  0  0  0  0  0
   -9.8767    0.8929   -3.1054 C   0  0  0  0  0  0  0  0  0  0  0  0
    0.6836    0.0000    0.0000 Cl  0  0  0  0  0  0  0  0  0  0  0  0
   12.4882   -2.8048    0.7192 H   0  0  0  0  0  0  0  0  0  0  0  0
   13.2471    0.3694   -1.0990 H   0  0  0  0  0  0  0  0  0  0  0  0
   11.9783   -0.5104   -1.9751 H   0  0  0  0  0  0  0  0  0  0  0  0
   11.4899    1.9369   -1.8292 H   0  0  0  0  0  0  0  0  0  0  0  0
   11.6476    1.9481   -0.0724 H   0  0  0  0  0  0  0  0  0  0  0  0
    9.5972    1.3376    1.2900 H   0  0  0  0  0  0  0  0  0  0  0  0
    7.2144    0.9623    1.3072 H   0  0  0  0  0  0  0  0  0  0  0  0
    7.2986    0.4708   -2.9116 H   0  0  0  0  0  0  0  0  0  0  0  0
    9.6754    0.8221   -2.9471 H   0  0  0  0  0  0  0  0  0  0  0  0
    5.2730   -0.1628    1.1207 H   0  0  0  0  0  0  0  0  0  0  0  0
    4.9575    1.5294    0.7056 H   0  0  0  0  0  0  0  0  0  0  0  0
    3.8246   -1.8844    0.1575 H   0  0  0  0  0  0  0  0  0  0  0  0
    1.5167   -2.4232   -0.4475 H   0  0  0  0  0  0  0  0  0  0  0  0
    0.5830    1.7222   -0.9948 H   0  0  0  0  0  0  0  0  0  0  0  0
    2.9455    2.2634   -0.3703 H   0  0  0  0  0  0  0  0  0  0  0  0
   -0.8934   -0.1018   -1.8435 H   0  0  0  0  0  0  0  0  0  0  0  0
   -0.3821   -1.8398   -1.6071 H   0  0  0  0  0  0  0  0  0  0  0  0
   -0.5665    0.8115    0.8688 H   0  0  0  0  0  0  0  0  0  0  0  0
   -1.5303   -0.1944    1.9487 H   0  0  0  0  0  0  0  0  0  0  0  0
   -2.8114    1.7522    1.2651 H   0  0  0  0  0  0  0  0  0  0  0  0
   -2.8370    1.1737   -0.4413 H   0  0  0  0  0  0  0  0  0  0  0  0
   -4.4632   -1.9763    0.0400 H   0  0  0  0  0  0  0  0  0  0  0  0
   -3.8682   -0.6793   -1.1128 H   0  0  0  0  0  0  0  0  0  0  0  0
   -2.4043   -2.6269    0.7545 H   0  0  0  0  0  0  0  0  0  0  0  0
   -2.2163   -2.4638   -0.9982 H   0  0  0  0  0  0  0  0  0  0  0  0
   -3.8181   -1.8716    3.7319 H   0  0  0  0  0  0  0  0  0  0  0  0
   -4.7507   -2.3397    2.2078 H   0  0  0  0  0  0  0  0  0  0  0  0
   -5.0905    0.3185    3.7134 H   0  0  0  0  0  0  0  0  0  0  0  0
   -6.1149   -1.1935    3.8659 H   0  0  0  0  0  0  0  0  0  0  0  0
   -6.4119   -1.2908    1.4671 H   0  0  0  0  0  0  0  0  0  0  0  0
   -5.6118    0.3933   -0.0908 H   0  0  0  0  0  0  0  0  0  0  0  0
   -5.1539    1.4344    1.2767 H   0  0  0  0  0  0  0  0  0  0  0  0
   -8.1336   -0.0074    2.7408 H   0  0  0  0  0  0  0  0  0  0  0  0
   -7.1679    1.4731    2.4492 H   0  0  0  0  0  0  0  0  0  0  0  0
   -7.0622    2.5268    0.2730 H   0  0  0  0  0  0  0  0  0  0  0  0
   -8.1411    2.6748   -1.9609 H   0  0  0  0  0  0  0  0  0  0  0  0
  -10.1589   -1.0483   -1.2869 H   0  0  0  0  0  0  0  0  0  0  0  0
   -9.1079   -1.1891    0.8858 H   0  0  0  0  0  0  0  0  0  0  0  0
   -9.2720    0.2605   -3.7830 H   0  0  0  0  0  0  0  0  0  0  0  0
   -9.9022    1.9274   -3.4571 H   0  0  0  0  0  0  0  0  0  0  0  0
  -10.8771    0.4210   -3.0205 H   0  0  0  0  0  0  0  0  0  0  0  0
   -0.6836    0.0000    0.0000 H   0  0  0  0  0  0  0  0  0  0  0  0
  1  2  1  0
  2  3  2  0
  2  4  1  0
  4  5  1  0
  5  6  1  0
  6  7  2  0
  7  8  1  0
  8  9  2  0
  9 10  1  0
 10 11  2  0
  9 12  1  0
 12 13  1  0
 13 14  1  0
 14 15  2  0
 15 16  1  0
 16 17  2  0
 17 18  1  0
 18 19  2  0
 17 20  1  0
 20 21  1  0
 21 22  1  0
 22 23  1  0
 23 24  1  0
 24 25  1  0
 25 26  1  0
 24 27  1  0
 27 28  1  0
 28 29  1  0
 29 30  1  0
 30 31  1  0
 30 32  1  0
 32 33  1  0
 33 34  2  0
 34 35  1  0
 35 36  2  0
 36 37  1  0
 37 38  2  0
 36 39  1  0
 11  6  1  0
 19 14  1  0
 26 21  1  0
 38 33  1  0
 31 24  1  0
  1 41  1  0
  4 42  1  0
  4 43  1  0
  5 44  1  0
  5 45  1  0
  7 46  1  0
  8 47  1  0
 10 48  1  0
 11 49  1  0
 13 50  1  0
 13 51  1  0
 15 52  1  0
 16 53  1  0
 18 54  1  0
 19 55  1  0
 20 56  1  0
 20 57  1  0
 22 58  1  0
 22 59  1  0
 23 60  1  0
 23 61  1  0
 25 62  1  0
 25 63  1  0
 26 64  1  0
 26 65  1  0
 28 66  1  0
 28 67  1  0
 29 68  1  0
 29 69  1  0
 30 70  1  0
 31 71  1  0
 31 72  1  0
 32 73  1  0
 32 74  1  0
 34 75  1  0
 35 76  1  0
 37 77  1  0
 38 78  1  0
 39 79  1  0
 39 80  1  0
 39 81  1  0
 40 82  1  0
M  END
>  <Ligand ID>  (1) 
LIG0001725

>  <Ligand>  (1) 
CHEMBL3926143

>  <SMILES>  (1) 
OC(=O)CCc1ccc(cc1)OCc1ccc(cc1)CN1CCC2(CC1)OCCC(C2)Cc1ccc(cc1)C.Cl

>  <CID>  (1) 
134141489.0

>  <ChEMBL ID>  (1) 
nan

>  <InChiKey>  (1) 
RRAJXYIZBSSZOQ-UHFFFAOYSA-N

>  <InChi>  (1) 
InChI=1S/C34H41NO4.ClH/c1-26-2-4-28(5-3-26)22-31-16-21-39-34(23-31)17-19-35(20-18-34)24-29-6-8-30(9-7-29)25-38-32-13-10-27(11-14-32)12-15-33(36)37;/h2-11,13-14,31H,12,15-25H2,1H3,(H,36,37);1H

>  <IUPAC Name>  (1) 
3-[4-[[4-[[4-[(4-methylphenyl)methyl]-1-oxa-9-azaspiro[5.5]undecan-9-yl]methyl]phenyl]methoxy]phenyl]propanoic acid;hydrochloride

$$$$
