
     RDKit          3D

 26 25  0  0  0  0  0  0  0  0999 V2000
   -4.5578    2.4562    0.5281 N   0  0  0  0  0  0  0  0  0  0  0  0
   -3.5612    1.8662    0.5159 C   0  0  0  0  0  0  0  0  0  0  0  0
   -2.3202    1.1419    0.5149 C   0  0  0  0  0  0  0  0  0  0  0  0
   -2.2138   -0.0771    0.0078 C   0  0  0  0  0  0  0  0  0  0  0  0
   -0.9386   -0.8444   -0.0033 C   0  0  0  0  0  0  0  0  0  0  0  0
    0.1410   -0.0235    0.6314 C   0  0  0  0  0  0  0  0  0  0  0  0
    1.4511   -0.6920    0.6729 C   0  0  0  0  0  0  0  0  0  0  0  0
    2.5310   -0.1931    0.0819 C   0  0  0  0  0  0  0  0  0  0  0  0
    2.4201    1.0967   -0.6559 C   0  0  0  0  0  0  0  0  0  0  0  0
    3.8267   -0.9184    0.1611 C   0  0  0  0  0  0  0  0  0  0  0  0
   -3.4593   -0.6770   -0.5726 C   0  0  0  0  0  0  0  0  0  0  0  0
   -1.4499    1.6211    0.9468 H   0  0  0  0  0  0  0  0  0  0  0  0
   -0.6737   -0.9285   -1.0956 H   0  0  0  0  0  0  0  0  0  0  0  0
   -1.0673   -1.8278    0.4423 H   0  0  0  0  0  0  0  0  0  0  0  0
    0.2552    0.9233    0.0722 H   0  0  0  0  0  0  0  0  0  0  0  0
   -0.1491    0.2180    1.6736 H   0  0  0  0  0  0  0  0  0  0  0  0
    1.5170   -1.6343    1.2160 H   0  0  0  0  0  0  0  0  0  0  0  0
    3.3354    1.3654   -1.1797 H   0  0  0  0  0  0  0  0  0  0  0  0
    1.6214    0.9793   -1.4412 H   0  0  0  0  0  0  0  0  0  0  0  0
    2.0438    1.9020    0.0159 H   0  0  0  0  0  0  0  0  0  0  0  0
    3.8739   -1.6127    1.0123 H   0  0  0  0  0  0  0  0  0  0  0  0
    3.9571   -1.4390   -0.8325 H   0  0  0  0  0  0  0  0  0  0  0  0
    4.6596   -0.1582    0.2058 H   0  0  0  0  0  0  0  0  0  0  0  0
   -4.0659   -1.1126    0.2582 H   0  0  0  0  0  0  0  0  0  0  0  0
   -4.0286    0.0658   -1.1685 H   0  0  0  0  0  0  0  0  0  0  0  0
   -3.1476   -1.4974   -1.2510 H   0  0  0  0  0  0  0  0  0  0  0  0
  1  2  3  0
  2  3  1  0
  3  4  2  0
  4  5  1  0
  5  6  1  0
  6  7  1  0
  7  8  2  3
  8  9  1  0
  8 10  1  0
  4 11  1  0
  3 12  1  0
  5 13  1  0
  5 14  1  0
  6 15  1  0
  6 16  1  0
  7 17  1  0
  9 18  1  0
  9 19  1  0
  9 20  1  0
 10 21  1  0
 10 22  1  0
 10 23  1  0
 11 24  1  0
 11 25  1  0
 11 26  1  0
M  END
>  <Ligand ID>  (1) 
LIG0000763

>  <Ligand>  (1) 
Geranonitrile

>  <SMILES>  (1) 
N#C/C=C(/CCC=C(C)C)\C

>  <CID>  (1) 
1551246.0

>  <ChEMBL ID>  (1) 
nan

>  <InChiKey>  (1) 
HLCSDJLATUNSSI-JXMROGBWSA-N

>  <InChi>  (1) 
InChI=1S/C10H15N/c1-9(2)5-4-6-10(3)7-8-11/h5,7H,4,6H2,1-3H3/b10-7+

>  <IUPAC Name>  (1) 
(2E)-3,7-dimethylocta-2,6-dienenitrile

$$$$
