
     RDKit          3D

 22 21  0  0  0  0  0  0  0  0999 V2000
    1.8287   -0.9813    0.5459 C   0  0  0  0  0  0  0  0  0  0  0  0
    1.5384    0.4326    0.0983 C   0  0  0  0  0  0  0  0  0  0  0  0
    0.4399    0.5853   -0.8834 C   0  0  0  0  0  0  0  0  0  0  0  0
   -0.9024    0.1185   -0.4661 C   0  0  0  0  0  0  0  0  0  0  0  0
   -1.4585    0.8013    0.7459 C   0  0  0  0  0  0  0  0  0  0  0  0
   -2.7361    0.2544    1.0216 O   0  0  0  0  0  0  0  0  0  0  0  0
   -1.0471   -1.3782   -0.3540 C   0  0  0  0  0  0  0  0  0  0  0  0
    0.3154    2.3804   -1.2228 S   0  0  0  0  0  0  0  0  0  0  0  0
    2.7610   -0.8888    1.1786 H   0  0  0  0  0  0  0  0  0  0  0  0
    1.0822   -1.4227    1.2017 H   0  0  0  0  0  0  0  0  0  0  0  0
    2.1483   -1.6276   -0.2977 H   0  0  0  0  0  0  0  0  0  0  0  0
    2.4768    0.7584   -0.4274 H   0  0  0  0  0  0  0  0  0  0  0  0
    1.4793    1.1017    0.9603 H   0  0  0  0  0  0  0  0  0  0  0  0
    0.7036    0.1310   -1.8434 H   0  0  0  0  0  0  0  0  0  0  0  0
   -1.5992    0.4133   -1.3066 H   0  0  0  0  0  0  0  0  0  0  0  0
   -0.8189    0.5593    1.6209 H   0  0  0  0  0  0  0  0  0  0  0  0
   -1.6488    1.8646    0.6262 H   0  0  0  0  0  0  0  0  0  0  0  0
   -2.6613   -0.4391    1.7238 H   0  0  0  0  0  0  0  0  0  0  0  0
   -0.1880   -1.9450   -0.7662 H   0  0  0  0  0  0  0  0  0  0  0  0
   -1.9280   -1.7829   -0.9179 H   0  0  0  0  0  0  0  0  0  0  0  0
   -1.2539   -1.6769    0.7155 H   0  0  0  0  0  0  0  0  0  0  0  0
    1.4685    2.7414   -1.9531 H   0  0  0  0  0  0  0  0  0  0  0  0
  1  2  1  0
  2  3  1  0
  3  4  1  0
  4  5  1  0
  5  6  1  0
  4  7  1  0
  3  8  1  0
  1  9  1  0
  1 10  1  0
  1 11  1  0
  2 12  1  0
  2 13  1  0
  3 14  1  0
  4 15  1  0
  5 16  1  0
  5 17  1  0
  6 18  1  0
  7 19  1  0
  7 20  1  0
  7 21  1  0
  8 22  1  0
M  END
>  <Ligand ID>  (1) 
LIG0000035

>  <Ligand>  (1) 
3-Mercapto-2-methylpentan-1-ol

>  <SMILES>  (1) 
CCC(C(CO)C)S

>  <CID>  (1) 
6430888.0

>  <ChEMBL ID>  (1) 
nan

>  <InChiKey>  (1) 
HABNNYNSJFKZFE-UHFFFAOYSA-N

>  <InChi>  (1) 
InChI=1S/C6H14OS/c1-3-6(8)5(2)4-7/h5-8H,3-4H2,1-2H3

>  <IUPAC Name>  (1) 
2-methyl-3-sulfanylpentan-1-ol

$$$$
