
     RDKit          3D

 73 78  0  0  0  0  0  0  0  0999 V2000
   -8.5265   -2.4539    1.5877 C   0  0  0  0  0  0  0  0  0  0  0  0
   -7.9082   -1.4122    0.8532 O   0  0  0  0  0  0  0  0  0  0  0  0
   -6.5388   -1.3645    0.6339 C   0  0  0  0  0  0  0  0  0  0  0  0
   -5.6722   -2.3384    1.1195 C   0  0  0  0  0  0  0  0  0  0  0  0
   -4.3234   -2.2139    0.8563 C   0  0  0  0  0  0  0  0  0  0  0  0
   -3.7948   -1.1567    0.1269 C   0  0  0  0  0  0  0  0  0  0  0  0
   -4.6644   -0.2049   -0.3451 C   0  0  0  0  0  0  0  0  0  0  0  0
   -6.0270   -0.3099   -0.0921 C   0  0  0  0  0  0  0  0  0  0  0  0
   -2.3573   -1.1400   -0.0910 C   0  0  0  0  0  0  0  0  0  0  0  0
   -1.5971   -0.0648    0.0016 C   0  0  0  0  0  0  0  0  0  0  0  0
   -2.0856    1.2883    0.3411 C   0  0  0  0  0  0  0  0  0  0  0  0
   -1.0872    2.0773    1.0323 N   0  0  0  0  0  0  0  0  0  0  0  0
    0.1726    1.5183    1.4445 C   0  0  0  0  0  0  0  0  0  0  0  0
    0.7445    0.5681    0.4651 C   0  0  0  0  0  0  0  0  0  0  0  0
   -0.1615   -0.2122   -0.2435 C   0  0  0  0  0  0  0  0  0  0  0  0
    0.5221   -1.0178   -1.0863 N   0  0  0  0  0  0  0  0  0  0  0  0
    1.8091   -0.7576   -0.9179 N   0  0  0  0  0  0  0  0  0  0  0  0
    1.9817    0.2047    0.0210 C   0  0  0  0  0  0  0  0  0  0  0  0
    3.2384    0.7684    0.4997 C   0  0  0  0  0  0  0  0  0  0  0  0
    3.1795    1.6412    1.4042 O   0  0  0  0  0  0  0  0  0  0  0  0
    4.5020    0.3734   -0.0099 N   0  0  0  0  0  0  0  0  0  0  0  0
    5.7149    0.9636    0.5045 C   0  0  1  0  0  0  0  0  0  0  0  0
    6.5990   -0.0972    1.0364 C   0  0  0  0  0  0  0  0  0  0  0  0
    7.2389   -0.0229    2.2522 C   0  0  0  0  0  0  0  0  0  0  0  0
    8.0586   -1.0714    2.6719 C   0  0  0  0  0  0  0  0  0  0  0  0
    8.2548   -2.2009    1.8981 C   0  0  0  0  0  0  0  0  0  0  0  0
    7.6108   -2.2769    0.6738 C   0  0  0  0  0  0  0  0  0  0  0  0
    6.7927   -1.2325    0.2529 C   0  0  0  0  0  0  0  0  0  0  0  0
    6.4697    1.7282   -0.5615 C   0  0  0  0  0  0  0  0  0  0  0  0
   -0.0447   -1.9830   -1.9988 C   0  0  0  0  0  0  0  0  0  0  0  0
    0.2573   -3.3243   -1.8769 C   0  0  0  0  0  0  0  0  0  0  0  0
   -0.2605   -4.2767   -2.7276 C   0  0  0  0  0  0  0  0  0  0  0  0
   -1.1163   -3.8841   -3.7454 C   0  0  0  0  0  0  0  0  0  0  0  0
   -1.4208   -2.5396   -3.8696 C   0  0  0  0  0  0  0  0  0  0  0  0
   -0.9039   -1.5777   -3.0182 C   0  0  0  0  0  0  0  0  0  0  0  0
   -1.3244    0.1098   -3.2215 Cl  0  0  0  0  0  0  0  0  0  0  0  0
   -1.7962   -5.0694   -4.8495 Cl  0  0  0  0  0  0  0  0  0  0  0  0
   -1.4105    3.4467    1.2870 C   0  0  0  0  0  0  0  0  0  0  0  0
   -0.5430    4.1568    1.9026 O   0  0  0  0  0  0  0  0  0  0  0  0
   -2.6563    4.0962    0.8973 C   0  0  0  0  0  0  0  0  0  0  0  0
   -2.6313    4.7627   -0.3758 N   0  0  0  0  0  0  0  0  0  0  0  0
   -2.2785    6.0676   -0.5485 C   0  0  0  0  0  0  0  0  0  0  0  0
   -2.3705    6.3571   -1.8782 N   0  0  0  0  0  0  0  0  0  0  0  0
   -2.7692    5.2587   -2.5039 N   0  0  0  0  0  0  0  0  0  0  0  0
   -2.9139    4.3378   -1.5904 N   0  0  0  0  0  0  0  0  0  0  0  0
   -9.6207   -2.4332    1.4032 H   0  0  0  0  0  0  0  0  0  0  0  0
   -8.0783   -3.4382    1.4244 H   0  0  0  0  0  0  0  0  0  0  0  0
   -8.4013   -2.2295    2.6889 H   0  0  0  0  0  0  0  0  0  0  0  0
   -6.0639   -3.1797    1.6964 H   0  0  0  0  0  0  0  0  0  0  0  0
   -3.6423   -2.9876    1.2429 H   0  0  0  0  0  0  0  0  0  0  0  0
   -4.3145    0.6322   -0.9228 H   0  0  0  0  0  0  0  0  0  0  0  0
   -6.6964    0.4709   -0.4849 H   0  0  0  0  0  0  0  0  0  0  0  0
   -1.9185   -2.1217   -0.3515 H   0  0  0  0  0  0  0  0  0  0  0  0
   -2.9979    1.2937    0.9380 H   0  0  0  0  0  0  0  0  0  0  0  0
   -2.2873    1.8127   -0.6133 H   0  0  0  0  0  0  0  0  0  0  0  0
    0.0012    0.9576    2.3885 H   0  0  0  0  0  0  0  0  0  0  0  0
    0.9421    2.2734    1.6476 H   0  0  0  0  0  0  0  0  0  0  0  0
    4.5677   -0.3460   -0.7605 H   0  0  0  0  0  0  0  0  0  0  0  0
    5.5231    1.6868    1.3172 H   0  0  0  0  0  0  0  0  0  0  0  0
    7.0947    0.8649    2.8805 H   0  0  0  0  0  0  0  0  0  0  0  0
    8.5501   -1.0071    3.6129 H   0  0  0  0  0  0  0  0  0  0  0  0
    8.8783   -3.0283    2.1880 H   0  0  0  0  0  0  0  0  0  0  0  0
    7.7531   -3.1593    0.0507 H   0  0  0  0  0  0  0  0  0  0  0  0
    6.3275   -1.3660   -0.7108 H   0  0  0  0  0  0  0  0  0  0  0  0
    7.5137    1.8366   -0.1798 H   0  0  0  0  0  0  0  0  0  0  0  0
    6.0629    2.7767   -0.5735 H   0  0  0  0  0  0  0  0  0  0  0  0
    6.4444    1.2754   -1.5533 H   0  0  0  0  0  0  0  0  0  0  0  0
    0.9226   -3.6011   -1.0806 H   0  0  0  0  0  0  0  0  0  0  0  0
   -0.0243   -5.3443   -2.6363 H   0  0  0  0  0  0  0  0  0  0  0  0
   -2.0827   -2.1978   -4.6492 H   0  0  0  0  0  0  0  0  0  0  0  0
   -2.9078    4.8694    1.6756 H   0  0  0  0  0  0  0  0  0  0  0  0
   -3.5321    3.4006    0.9307 H   0  0  0  0  0  0  0  0  0  0  0  0
   -1.9759    6.7675    0.2189 H   0  0  0  0  0  0  0  0  0  0  0  0
  1  2  1  0
  2  3  1  0
  3  4  2  0
  4  5  1  0
  5  6  2  0
  6  7  1  0
  7  8  2  0
  6  9  1  0
  9 10  2  0
 10 11  1  0
 11 12  1  0
 12 13  1  0
 13 14  1  0
 14 15  2  0
 15 16  1  0
 16 17  1  0
 17 18  2  0
 18 19  1  0
 19 20  2  0
 19 21  1  0
 21 22  1  0
 22 23  1  0
 23 24  2  0
 24 25  1  0
 25 26  2  0
 26 27  1  0
 27 28  2  0
 22 29  1  0
 16 30  1  0
 30 31  2  0
 31 32  1  0
 32 33  2  0
 33 34  1  0
 34 35  2  0
 35 36  1  0
 33 37  1  0
 12 38  1  0
 38 39  2  0
 38 40  1  0
 40 41  1  0
 41 42  1  0
 42 43  2  0
 43 44  1  0
 44 45  2  0
  8  3  1  0
 15 10  1  0
 28 23  1  0
 35 30  1  0
 45 41  1  0
 18 14  1  0
  1 46  1  0
  1 47  1  0
  1 48  1  0
  4 49  1  0
  5 50  1  0
  7 51  1  0
  8 52  1  0
  9 53  1  0
 11 54  1  0
 11 55  1  0
 13 56  1  0
 13 57  1  0
 21 58  1  0
 22 59  1  1
 24 60  1  0
 25 61  1  0
 26 62  1  0
 27 63  1  0
 28 64  1  0
 29 65  1  0
 29 66  1  0
 29 67  1  0
 31 68  1  0
 32 69  1  0
 34 70  1  0
 40 71  1  0
 40 72  1  0
 42 73  1  0
M  END
>  <Ligand ID>  (1) 
LIG0005415

>  <Ligand>  (1) 
CHEMBL3939540

>  <SMILES>  (1) 
COc1ccc(cc1)/C=C/1\CN(Cc2c1n(nc2C(=O)N[C@@H](c1ccccc1)C)c1ccc(cc1Cl)Cl)C(=O)Cn1cnnn1

>  <CID>  (1) 
134149796.0

>  <ChEMBL ID>  (1) 
nan

>  <InChiKey>  (1) 
FYIZKKBMENMFBG-RXULLKCLSA-N

>  <InChi>  (1) 
InChI=1S/C32H28Cl2N8O3/c1-20(22-6-4-3-5-7-22)36-32(44)30-26-17-40(29(43)18-41-19-35-38-39-41)16-23(14-21-8-11-25(45-2)12-9-21)31(26)42(37-30)28-13-10-24(33)15-27(28)34/h3-15,19-20H,16-18H2,1-2H3,(H,36,44)/b23-14+/t20-/m1/s1

>  <IUPAC Name>  (1) 
(7E)-1-(2,4-dichlorophenyl)-7-[(4-methoxyphenyl)methylidene]-N-[(1R)-1-phenylethyl]-5-[2-(tetrazol-1-yl)acetyl]-4,6-dihydropyrazolo[4,3-c]pyridine-3-carboxamide

$$$$
