
     RDKit          3D

 27 29  0  0  0  0  0  0  0  0999 V2000
    3.1839    2.1461   -0.6530 O   0  0  0  0  0  0  0  0  0  0  0  0
    2.6932    0.8721   -0.3705 C   0  0  0  0  0  0  0  0  0  0  0  0
    3.5379   -0.2258   -0.4257 C   0  0  0  0  0  0  0  0  0  0  0  0
    3.0567   -1.4901   -0.1467 C   0  0  0  0  0  0  0  0  0  0  0  0
    1.7374   -1.7164    0.1939 C   0  0  0  0  0  0  0  0  0  0  0  0
    0.8853   -0.6258    0.2519 C   0  0  0  0  0  0  0  0  0  0  0  0
    1.3841    0.6295   -0.0301 C   0  0  0  0  0  0  0  0  0  0  0  0
    0.2871    1.5828    0.1036 C   0  0  0  0  0  0  0  0  0  0  0  0
    0.3424    2.8270   -0.0724 O   0  0  0  0  0  0  0  0  0  0  0  0
   -0.8686    0.8387    0.4735 N   0  0  0  0  0  0  0  0  0  0  0  0
   -0.5488   -0.5755    0.5833 C   0  0  0  0  0  0  0  0  0  0  0  0
   -1.3982   -1.2346   -0.5060 C   0  0  0  0  0  0  0  0  0  0  0  0
   -2.7800   -0.9885   -0.2511 N   0  0  0  0  0  0  0  0  0  0  0  0
   -3.1639    0.3738   -0.0884 C   0  0  0  0  0  0  0  0  0  0  0  0
   -2.2521    1.2091    0.7511 C   0  0  0  0  0  0  0  0  0  0  0  0
    2.8380    2.7189   -1.4117 H   0  0  0  0  0  0  0  0  0  0  0  0
    4.5823   -0.0914   -0.6895 H   0  0  0  0  0  0  0  0  0  0  0  0
    3.6921   -2.3786   -0.1800 H   0  0  0  0  0  0  0  0  0  0  0  0
    1.3616   -2.7113    0.4128 H   0  0  0  0  0  0  0  0  0  0  0  0
   -0.7935   -1.0003    1.5786 H   0  0  0  0  0  0  0  0  0  0  0  0
   -1.2343   -2.3290   -0.3947 H   0  0  0  0  0  0  0  0  0  0  0  0
   -1.0393   -0.8145   -1.4512 H   0  0  0  0  0  0  0  0  0  0  0  0
   -3.1149   -1.5516    0.5371 H   0  0  0  0  0  0  0  0  0  0  0  0
   -3.3740    0.9139   -1.0385 H   0  0  0  0  0  0  0  0  0  0  0  0
   -4.1617    0.3597    0.4369 H   0  0  0  0  0  0  0  0  0  0  0  0
   -2.4005    0.9848    1.8487 H   0  0  0  0  0  0  0  0  0  0  0  0
   -2.4523    2.2769    0.5380 H   0  0  0  0  0  0  0  0  0  0  0  0
  1  2  1  0
  2  3  2  0
  3  4  1  0
  4  5  2  0
  5  6  1  0
  6  7  2  0
  7  8  1  0
  8  9  2  0
  8 10  1  0
 10 11  1  0
 11 12  1  0
 12 13  1  0
 13 14  1  0
 14 15  1  0
  7  2  1  0
 15 10  1  0
 11  6  1  0
  1 16  1  0
  3 17  1  0
  4 18  1  0
  5 19  1  0
 11 20  1  0
 12 21  1  0
 12 22  1  0
 13 23  1  0
 14 24  1  0
 14 25  1  0
 15 26  1  0
 15 27  1  0
M  END
>  <Ligand ID>  (1) 
LIG0003224

>  <Ligand>  (1) 
CHEMBL387344

>  <SMILES>  (1) 
Oc1cccc2c1C(=O)N1C2CNCC1

>  <CID>  (1) 
11253485.0

>  <ChEMBL ID>  (1) 
nan

>  <InChiKey>  (1) 
NROXZHMZQQOHQD-UHFFFAOYSA-N

>  <InChi>  (1) 
InChI=1S/C11H12N2O2/c14-9-3-1-2-7-8-6-12-4-5-13(8)11(15)10(7)9/h1-3,8,12,14H,4-6H2

>  <IUPAC Name>  (1) 
7-hydroxy-2,3,4,10b-tetrahydro-1H-pyrazino[1,2-b]isoindol-6-one

$$$$
