
     RDKit          3D

 47 50  0  0  0  0  0  0  0  0999 V2000
   10.0603    0.6789   -0.4947 F   0  0  0  0  0  0  0  0  0  0  0  0
    9.9910   -0.7005   -0.5444 C   0  0  0  0  0  0  0  0  0  0  0  0
    9.0762   -1.1489   -2.0680 S   0  0  0  0  0  0  0  0  0  0  0  0
    7.3899   -0.5931   -1.9177 C   0  0  0  0  0  0  0  0  0  0  0  0
    6.9564    0.6485   -2.3220 C   0  0  0  0  0  0  0  0  0  0  0  0
    5.6619    1.0973   -2.2154 C   0  0  0  0  0  0  0  0  0  0  0  0
    4.6972    0.2544   -1.6612 C   0  0  0  0  0  0  0  0  0  0  0  0
    5.1454   -0.9829   -1.2619 C   0  0  0  0  0  0  0  0  0  0  0  0
    6.4371   -1.4458   -1.3622 C   0  0  0  0  0  0  0  0  0  0  0  0
    3.6378   -1.7813   -0.6048 S   0  0  0  0  0  0  0  0  0  0  0  0
    2.6110   -0.2835   -0.9805 C   0  0  0  0  0  0  0  0  0  0  0  0
    3.4119    0.4555   -1.4565 N   0  0  0  0  0  0  0  0  0  0  0  0
    1.1945   -0.2790   -0.6670 N   0  0  0  0  0  0  0  0  0  0  0  0
    0.8671    0.1931    0.6345 C   0  0  0  0  0  0  0  0  0  0  0  0
    1.8561    0.5495    1.3539 O   0  0  0  0  0  0  0  0  0  0  0  0
   -0.5077    0.2632    1.1102 C   0  0  0  0  0  0  0  0  0  0  0  0
   -1.5958   -0.1142    0.3519 C   0  0  0  0  0  0  0  0  0  0  0  0
   -2.8672   -0.0070    0.9043 C   0  0  0  0  0  0  0  0  0  0  0  0
   -3.1032    0.4554    2.1666 C   0  0  0  0  0  0  0  0  0  0  0  0
   -1.9744    0.8289    2.9069 C   0  0  0  0  0  0  0  0  0  0  0  0
   -0.7118    0.7344    2.3903 C   0  0  0  0  0  0  0  0  0  0  0  0
   -4.3433    0.5807    2.8063 N   0  0  0  0  0  0  0  0  0  0  0  0
   -5.7483    1.3409    2.1962 S   0  0  0  0  0  0  0  0  0  0  0  0
   -6.8385    1.3878    3.2400 O   0  0  0  0  0  0  0  0  0  0  0  0
   -5.4789    2.7885    1.8362 O   0  0  0  0  0  0  0  0  0  0  0  0
   -6.2807    0.5404    0.7559 C   0  0  0  0  0  0  0  0  0  0  0  0
   -7.0205   -0.6206    0.8619 C   0  0  0  0  0  0  0  0  0  0  0  0
   -7.4989   -1.2985   -0.2324 C   0  0  0  0  0  0  0  0  0  0  0  0
   -7.2280   -0.7969   -1.4947 C   0  0  0  0  0  0  0  0  0  0  0  0
   -6.4904    0.3641   -1.6579 C   0  0  0  0  0  0  0  0  0  0  0  0
   -6.0211    1.0258   -0.5298 C   0  0  0  0  0  0  0  0  0  0  0  0
   -6.2338    0.8427   -2.9081 F   0  0  0  0  0  0  0  0  0  0  0  0
   -7.7116   -1.4842   -2.5642 F   0  0  0  0  0  0  0  0  0  0  0  0
   11.2434   -1.2497   -0.6290 F   0  0  0  0  0  0  0  0  0  0  0  0
    9.4122   -1.0963    0.2997 H   0  0  0  0  0  0  0  0  0  0  0  0
    7.6902    1.3212   -2.7563 H   0  0  0  0  0  0  0  0  0  0  0  0
    5.4014    2.1021   -2.5628 H   0  0  0  0  0  0  0  0  0  0  0  0
    6.6751   -2.4304   -1.0180 H   0  0  0  0  0  0  0  0  0  0  0  0
    0.4762   -0.5907   -1.3271 H   0  0  0  0  0  0  0  0  0  0  0  0
   -1.4436   -0.4845   -0.6522 H   0  0  0  0  0  0  0  0  0  0  0  0
   -3.6892   -0.3187    0.2933 H   0  0  0  0  0  0  0  0  0  0  0  0
   -2.0699    1.2099    3.9273 H   0  0  0  0  0  0  0  0  0  0  0  0
    0.1401    1.0342    2.9954 H   0  0  0  0  0  0  0  0  0  0  0  0
   -4.4160    0.1575    3.7725 H   0  0  0  0  0  0  0  0  0  0  0  0
   -7.2490   -1.0388    1.8525 H   0  0  0  0  0  0  0  0  0  0  0  0
   -8.0739   -2.2011   -0.1452 H   0  0  0  0  0  0  0  0  0  0  0  0
   -5.4368    1.9432   -0.6215 H   0  0  0  0  0  0  0  0  0  0  0  0
  1  2  1  0
  2  3  1  0
  3  4  1  0
  4  5  2  0
  5  6  1  0
  6  7  2  0
  7  8  1  0
  8  9  2  0
  8 10  1  0
 10 11  1  0
 11 12  2  0
 11 13  1  0
 13 14  1  0
 14 15  2  0
 14 16  1  0
 16 17  2  0
 17 18  1  0
 18 19  2  0
 19 20  1  0
 20 21  2  0
 19 22  1  0
 22 23  1  0
 23 24  2  0
 23 25  2  0
 23 26  1  0
 26 27  2  0
 27 28  1  0
 28 29  2  0
 29 30  1  0
 30 31  2  0
 30 32  1  0
 29 33  1  0
  2 34  1  0
  9  4  1  0
 21 16  1  0
 31 26  1  0
 12  7  1  0
  2 35  1  0
  5 36  1  0
  6 37  1  0
  9 38  1  0
 13 39  1  0
 17 40  1  0
 18 41  1  0
 20 42  1  0
 21 43  1  0
 22 44  1  0
 27 45  1  0
 28 46  1  0
 31 47  1  0
M  END
>  <Ligand ID>  (1) 
LIG0005883

>  <Ligand>  (1) 
MLS000408886

>  <SMILES>  (1) 
FC(Sc1ccc2c(c1)sc(n2)NC(=O)c1ccc(cc1)NS(=O)(=O)c1ccc(c(c1)F)F)F

>  <CID>  (1) 
2412414.0

>  <ChEMBL ID>  (1) 
nan

>  <InChiKey>  (1) 
ICAKXFBXHQCVBO-UHFFFAOYSA-N

>  <InChi>  (1) 
InChI=1S/C21H13F4N3O3S3/c22-15-7-6-14(10-16(15)23)34(30,31)28-12-3-1-11(2-4-12)19(29)27-21-26-17-8-5-13(32-20(24)25)9-18(17)33-21/h1-10,20,28H,(H,26,27,29)

>  <IUPAC Name>  (1) 
N-[6-(difluoromethylsulfanyl)-1,3-benzothiazol-2-yl]-4-[(3,4-difluorophenyl)sulfonylamino]benzamide

$$$$
