
     RDKit          3D

 51 53  0  0  0  0  0  0  0  0999 V2000
   -2.0695   -2.8206   -2.1530 C   0  0  0  0  0  0  0  0  0  0  0  0
   -1.0942   -1.7912   -1.5571 C   0  0  2  0  0  0  0  0  0  0  0  0
    0.2638   -2.0526   -2.0921 C   0  0  0  0  0  0  0  0  0  0  0  0
    1.3471   -1.1632   -1.6372 C   0  0  0  0  0  0  0  0  0  0  0  0
    1.7299   -0.0432   -2.4018 C   0  0  0  0  0  0  0  0  0  0  0  0
    2.6944    0.5808   -1.7429 N   0  0  0  0  0  0  0  0  0  0  0  0
    2.9839   -0.0483   -0.5871 C   0  0  0  0  0  0  0  0  0  0  0  0
    2.1321   -1.1533   -0.5173 C   0  0  0  0  0  0  0  0  0  0  0  0
    2.1818   -2.0303    0.5561 C   0  0  0  0  0  0  0  0  0  0  0  0
    3.0923   -1.8205    1.5949 C   0  0  0  0  0  0  0  0  0  0  0  0
    3.9189   -0.7313    1.5091 C   0  0  0  0  0  0  0  0  0  0  0  0
    3.8865    0.1629    0.4400 C   0  0  0  0  0  0  0  0  0  0  0  0
    4.7280    1.2618    0.3661 O   0  0  0  0  0  0  0  0  0  0  0  0
    5.6435    1.4596    1.4263 C   0  0  0  0  0  0  0  0  0  0  0  0
    6.4858    2.6710    1.2223 C   0  0  0  0  0  0  0  0  0  0  0  0
    7.3668    3.0027    2.0850 O   0  0  0  0  0  0  0  0  0  0  0  0
    6.3751    3.4978    0.1170 O   0  0  0  0  0  0  0  0  0  0  0  0
   -1.2756   -1.7392   -0.1640 N   0  0  0  0  0  0  0  0  0  0  0  0
   -2.5652   -1.2394    0.2589 C   0  0  0  0  0  0  0  0  0  0  0  0
   -2.6448    0.2127   -0.0444 C   0  0  1  0  0  0  0  0  0  0  0  0
   -3.9011    0.8677    0.4689 C   0  0  0  0  0  0  0  0  0  0  0  0
   -5.0090    0.1381    0.8426 C   0  0  0  0  0  0  0  0  0  0  0  0
   -6.1232    0.8528    1.2974 C   0  0  0  0  0  0  0  0  0  0  0  0
   -6.0942    2.2370    1.3617 C   0  0  0  0  0  0  0  0  0  0  0  0
   -4.9894    2.9514    0.9887 C   0  0  0  0  0  0  0  0  0  0  0  0
   -3.8920    2.2530    0.5409 C   0  0  0  0  0  0  0  0  0  0  0  0
   -4.8869    4.6958    1.0420 Cl  0  0  0  0  0  0  0  0  0  0  0  0
   -1.6102    0.8664    0.6340 O   0  0  0  0  0  0  0  0  0  0  0  0
   -1.4261   -3.6770   -2.4995 H   0  0  0  0  0  0  0  0  0  0  0  0
   -2.5365   -2.4212   -3.0577 H   0  0  0  0  0  0  0  0  0  0  0  0
   -2.7528   -3.2409   -1.4143 H   0  0  0  0  0  0  0  0  0  0  0  0
   -1.4646   -0.8154   -1.9892 H   0  0  0  0  0  0  0  0  0  0  0  0
    0.5354   -3.1356   -1.8834 H   0  0  0  0  0  0  0  0  0  0  0  0
    0.1938   -2.0532   -3.2244 H   0  0  0  0  0  0  0  0  0  0  0  0
    1.3317    0.2785   -3.3493 H   0  0  0  0  0  0  0  0  0  0  0  0
    3.1904    1.4691   -2.0620 H   0  0  0  0  0  0  0  0  0  0  0  0
    1.5023   -2.8869    0.5790 H   0  0  0  0  0  0  0  0  0  0  0  0
    3.1329   -2.5076    2.4381 H   0  0  0  0  0  0  0  0  0  0  0  0
    4.6234   -0.5572    2.2966 H   0  0  0  0  0  0  0  0  0  0  0  0
    5.0869    1.5443    2.3687 H   0  0  0  0  0  0  0  0  0  0  0  0
    6.3297    0.5810    1.4888 H   0  0  0  0  0  0  0  0  0  0  0  0
    6.6403    4.4698    0.1338 H   0  0  0  0  0  0  0  0  0  0  0  0
   -0.5237   -1.2537    0.3536 H   0  0  0  0  0  0  0  0  0  0  0  0
   -3.4050   -1.7642   -0.2571 H   0  0  0  0  0  0  0  0  0  0  0  0
   -2.6753   -1.3787    1.3706 H   0  0  0  0  0  0  0  0  0  0  0  0
   -2.6222    0.4408   -1.1030 H   0  0  0  0  0  0  0  0  0  0  0  0
   -5.0059   -0.9434    0.7840 H   0  0  0  0  0  0  0  0  0  0  0  0
   -7.0161    0.3252    1.6036 H   0  0  0  0  0  0  0  0  0  0  0  0
   -6.9659    2.7961    1.7168 H   0  0  0  0  0  0  0  0  0  0  0  0
   -3.0114    2.7897    0.2448 H   0  0  0  0  0  0  0  0  0  0  0  0
   -1.8361    0.8619    1.6063 H   0  0  0  0  0  0  0  0  0  0  0  0
  1  2  1  0
  2  3  1  0
  3  4  1  0
  4  5  2  0
  5  6  1  0
  6  7  1  0
  7  8  2  0
  8  9  1  0
  9 10  2  0
 10 11  1  0
 11 12  2  0
 12 13  1  0
 13 14  1  0
 14 15  1  0
 15 16  2  0
 15 17  1  0
  2 18  1  0
 18 19  1  0
 19 20  1  0
 20 21  1  0
 21 22  2  0
 22 23  1  0
 23 24  2  0
 24 25  1  0
 25 26  2  0
 25 27  1  0
 20 28  1  0
  8  4  1  0
 26 21  1  0
 12  7  1  0
  1 29  1  0
  1 30  1  0
  1 31  1  0
  2 32  1  6
  3 33  1  0
  3 34  1  0
  5 35  1  0
  6 36  1  0
  9 37  1  0
 10 38  1  0
 11 39  1  0
 14 40  1  0
 14 41  1  0
 17 42  1  0
 18 43  1  0
 19 44  1  0
 19 45  1  0
 20 46  1  6
 22 47  1  0
 23 48  1  0
 24 49  1  0
 26 50  1  0
 28 51  1  0
M  END
>  <Ligand ID>  (1) 
LIG0002213

>  <Ligand>  (1) 
Rafabegron

>  <SMILES>  (1) 
C[C@H](Cc1c[nH]c2c1cccc2OCC(=O)O)NC[C@@H](c1cccc(c1)Cl)O

>  <CID>  (1) 
5493324.0

>  <ChEMBL ID>  (1) 
nan

>  <InChiKey>  (1) 
FHEYFIGWYQJVDR-ACJLOTCBSA-N

>  <InChi>  (1) 
InChI=1S/C21H23ClN2O4/c1-13(23-11-18(25)14-4-2-5-16(22)9-14)8-15-10-24-21-17(15)6-3-7-19(21)28-12-20(26)27/h2-7,9-10,13,18,23-25H,8,11-12H2,1H3,(H,26,27)/t13-,18+/m1/s1

>  <IUPAC Name>  (1) 
2-[[3-[(2R)-2-[[(2R)-2-(3-chlorophenyl)-2-hydroxyethyl]amino]propyl]-1H-indol-7-yl]oxy]acetic acid

$$$$
