
     RDKit          3D

 51 53  0  0  0  0  0  0  0  0999 V2000
    6.4947    2.4417   -1.2377 O   0  0  0  0  0  0  0  0  0  0  0  0
    7.6228    1.9192   -0.7106 C   0  0  0  0  0  0  0  0  0  0  0  0
    7.7286    0.4554   -0.4869 C   0  0  0  0  0  0  0  0  0  0  0  0
    6.8545   -0.1786    0.3363 O   0  0  0  0  0  0  0  0  0  0  0  0
    5.5360   -0.3964    0.2706 C   0  0  0  0  0  0  0  0  0  0  0  0
    4.6458   -0.0557   -0.7111 C   0  0  0  0  0  0  0  0  0  0  0  0
    3.2791   -0.3480   -0.6385 C   0  0  0  0  0  0  0  0  0  0  0  0
    2.7576   -1.0078    0.4487 C   0  0  0  0  0  0  0  0  0  0  0  0
    3.6323   -1.3627    1.4496 C   0  0  0  0  0  0  0  0  0  0  0  0
    4.9687   -1.0755    1.3771 C   0  0  0  0  0  0  0  0  0  0  0  0
    1.3639   -1.3240    0.5609 C   0  0  0  0  0  0  0  0  0  0  0  0
    0.7971   -2.5044    0.0915 C   0  0  0  0  0  0  0  0  0  0  0  0
    1.6539   -3.4659   -0.5460 C   0  0  0  0  0  0  0  0  0  0  0  0
    2.3439   -4.2375   -1.0429 N   0  0  0  0  0  0  0  0  0  0  0  0
   -0.5674   -2.7140    0.2525 C   0  0  0  0  0  0  0  0  0  0  0  0
   -1.3552   -1.7867    0.8597 N   0  0  0  0  0  0  0  0  0  0  0  0
   -0.8271   -0.6385    1.3208 C   0  0  0  0  0  0  0  0  0  0  0  0
    0.5287   -0.3865    1.1822 C   0  0  0  0  0  0  0  0  0  0  0  0
    1.1018    0.8496    1.6774 C   0  0  0  0  0  0  0  0  0  0  0  0
    1.5687    1.8286    2.0681 N   0  0  0  0  0  0  0  0  0  0  0  0
   -1.8011    0.6199    2.1284 S   0  0  0  0  0  0  0  0  0  0  0  0
   -2.4227    1.7705    0.8724 C   0  0  0  0  0  0  0  0  0  0  0  0
   -3.3790    1.0539   -0.0022 C   0  0  0  0  0  0  0  0  0  0  0  0
   -3.0192    0.3839   -1.1486 C   0  0  0  0  0  0  0  0  0  0  0  0
   -4.0194   -0.2346   -1.8612 C   0  0  0  0  0  0  0  0  0  0  0  0
   -5.3255   -0.1978   -1.4645 N   0  0  0  0  0  0  0  0  0  0  0  0
   -5.6952    0.4513   -0.3481 C   0  0  0  0  0  0  0  0  0  0  0  0
   -4.7208    1.0816    0.3898 C   0  0  0  0  0  0  0  0  0  0  0  0
   -7.0720    0.5265    0.1232 C   0  0  0  0  0  0  0  0  0  0  0  0
   -7.3958    1.1478    1.1854 O   0  0  0  0  0  0  0  0  0  0  0  0
   -8.1598   -0.0915   -0.5723 N   0  0  0  0  0  0  0  0  0  0  0  0
   -9.4742    0.0700    0.0176 C   0  0  0  0  0  0  0  0  0  0  0  0
    6.6039    3.1298   -1.9234 H   0  0  0  0  0  0  0  0  0  0  0  0
    7.8718    2.4939    0.2265 H   0  0  0  0  0  0  0  0  0  0  0  0
    8.4601    2.1735   -1.4410 H   0  0  0  0  0  0  0  0  0  0  0  0
    7.7594   -0.0228   -1.5338 H   0  0  0  0  0  0  0  0  0  0  0  0
    8.8093    0.2860   -0.1404 H   0  0  0  0  0  0  0  0  0  0  0  0
    4.9664    0.4290   -1.5918 H   0  0  0  0  0  0  0  0  0  0  0  0
    2.6214   -0.0522   -1.4476 H   0  0  0  0  0  0  0  0  0  0  0  0
    3.2397   -1.8852    2.3166 H   0  0  0  0  0  0  0  0  0  0  0  0
    5.5866   -1.3895    2.2065 H   0  0  0  0  0  0  0  0  0  0  0  0
   -0.9644   -3.6475   -0.1286 H   0  0  0  0  0  0  0  0  0  0  0  0
   -2.8929    2.6714    1.3456 H   0  0  0  0  0  0  0  0  0  0  0  0
   -1.5733    2.1984    0.2646 H   0  0  0  0  0  0  0  0  0  0  0  0
   -1.9748    0.3677   -1.4452 H   0  0  0  0  0  0  0  0  0  0  0  0
   -3.7420   -0.7651   -2.7675 H   0  0  0  0  0  0  0  0  0  0  0  0
   -5.0159    1.6165    1.3070 H   0  0  0  0  0  0  0  0  0  0  0  0
   -7.9763   -0.6201   -1.4518 H   0  0  0  0  0  0  0  0  0  0  0  0
   -9.6259   -0.6234    0.8604 H   0  0  0  0  0  0  0  0  0  0  0  0
  -10.2243   -0.0992   -0.7910 H   0  0  0  0  0  0  0  0  0  0  0  0
   -9.5724    1.1450    0.2932 H   0  0  0  0  0  0  0  0  0  0  0  0
  1  2  1  0
  2  3  1  0
  3  4  1  0
  4  5  1  0
  5  6  2  0
  6  7  1  0
  7  8  2  0
  8  9  1  0
  9 10  2  0
  8 11  1  0
 11 12  2  0
 12 13  1  0
 13 14  3  0
 12 15  1  0
 15 16  2  0
 16 17  1  0
 17 18  2  0
 18 19  1  0
 19 20  3  0
 17 21  1  0
 21 22  1  0
 22 23  1  0
 23 24  2  0
 24 25  1  0
 25 26  2  0
 26 27  1  0
 27 28  2  0
 27 29  1  0
 29 30  2  0
 29 31  1  0
 31 32  1  0
 10  5  1  0
 18 11  1  0
 28 23  1  0
  1 33  1  0
  2 34  1  0
  2 35  1  0
  3 36  1  0
  3 37  1  0
  6 38  1  0
  7 39  1  0
  9 40  1  0
 10 41  1  0
 15 42  1  0
 22 43  1  0
 22 44  1  0
 24 45  1  0
 25 46  1  0
 28 47  1  0
 31 48  1  0
 32 49  1  0
 32 50  1  0
 32 51  1  0
M  END
>  <Ligand ID>  (1) 
LIG0004678

>  <Ligand>  (1) 
CHEMBL3974782

>  <SMILES>  (1) 
OCCOc1ccc(cc1)c1c(C#N)cnc(c1C#N)SCc1ccnc(c1)C(=O)NC

>  <CID>  (1) 
68047402.0

>  <ChEMBL ID>  (1) 
nan

>  <InChiKey>  (1) 
AQBHPJGCFMEZLW-UHFFFAOYSA-N

>  <InChi>  (1) 
InChI=1S/C23H19N5O3S/c1-26-22(30)20-10-15(6-7-27-20)14-32-23-19(12-25)21(17(11-24)13-28-23)16-2-4-18(5-3-16)31-9-8-29/h2-7,10,13,29H,8-9,14H2,1H3,(H,26,30)

>  <IUPAC Name>  (1) 
4-[[3,5-dicyano-4-[4-(2-hydroxyethoxy)phenyl]pyridin-2-yl]sulfanylmethyl]-N-methylpyridine-2-carboxamide

$$$$
