
     RDKit          3D

 52 54  0  0  0  0  0  0  0  0999 V2000
    8.6743   -1.1350    1.6670 O   0  0  0  0  0  0  0  0  0  0  0  0
    7.9831   -0.3544    0.7232 C   0  0  0  0  0  0  0  0  0  0  0  0
    7.6575    0.7892    1.0995 O   0  0  0  0  0  0  0  0  0  0  0  0
    7.7265   -0.9639   -0.5791 C   0  0  0  0  0  0  0  0  0  0  0  0
    6.9804   -0.1382   -1.5691 C   0  0  0  0  0  0  0  0  0  0  0  0
    5.6390    0.2806   -1.1806 C   0  0  0  0  0  0  0  0  0  0  0  0
    5.2863    1.4770   -0.6135 C   0  0  0  0  0  0  0  0  0  0  0  0
    3.9887    1.8010   -0.2516 C   0  0  0  0  0  0  0  0  0  0  0  0
    2.9977    0.8904   -0.4657 C   0  0  0  0  0  0  0  0  0  0  0  0
    3.2933   -0.3330   -1.0350 C   0  0  0  0  0  0  0  0  0  0  0  0
    4.5960   -0.6305   -1.3862 C   0  0  0  0  0  0  0  0  0  0  0  0
    2.1874   -1.3026   -1.2546 C   0  0  0  0  0  0  0  0  0  0  0  0
    1.6315    1.2300   -0.0852 C   0  0  0  0  0  0  0  0  0  0  0  0
    1.2554    2.3917    0.4717 N   0  0  0  0  0  0  0  0  0  0  0  0
   -0.0384    2.3848    0.6933 O   0  0  0  0  0  0  0  0  0  0  0  0
   -0.5183    1.2218    0.2845 C   0  0  0  0  0  0  0  0  0  0  0  0
    0.5043    0.4987   -0.1989 N   0  0  0  0  0  0  0  0  0  0  0  0
   -1.9237    0.8393    0.3667 C   0  0  0  0  0  0  0  0  0  0  0  0
   -2.8377    1.7146    0.8960 C   0  0  0  0  0  0  0  0  0  0  0  0
   -4.1725    1.3173    0.9598 C   0  0  0  0  0  0  0  0  0  0  0  0
   -4.5903    0.0864    0.5114 C   0  0  0  0  0  0  0  0  0  0  0  0
   -3.6463   -0.7869   -0.0223 C   0  0  0  0  0  0  0  0  0  0  0  0
   -2.3276   -0.3998   -0.0876 C   0  0  0  0  0  0  0  0  0  0  0  0
   -4.0600   -2.1302   -0.5190 C   0  0  0  0  0  0  0  0  0  0  0  0
   -4.9910   -1.9235   -1.5426 F   0  0  0  0  0  0  0  0  0  0  0  0
   -2.9618   -2.8129   -0.9475 F   0  0  0  0  0  0  0  0  0  0  0  0
   -4.6373   -2.8318    0.5194 F   0  0  0  0  0  0  0  0  0  0  0  0
   -5.8939   -0.3624    0.5480 O   0  0  0  0  0  0  0  0  0  0  0  0
   -7.0070    0.3163    1.0290 C   0  0  0  0  0  0  0  0  0  0  0  0
   -7.7762   -0.4948    2.0700 C   0  0  0  0  0  0  0  0  0  0  0  0
   -8.0079    0.5419   -0.1100 C   0  0  0  0  0  0  0  0  0  0  0  0
    8.6783   -0.8539    2.6173 H   0  0  0  0  0  0  0  0  0  0  0  0
    8.7137   -1.2477   -1.0527 H   0  0  0  0  0  0  0  0  0  0  0  0
    7.2334   -1.9625   -0.4217 H   0  0  0  0  0  0  0  0  0  0  0  0
    6.9682   -0.6720   -2.5678 H   0  0  0  0  0  0  0  0  0  0  0  0
    7.5844    0.8040   -1.7478 H   0  0  0  0  0  0  0  0  0  0  0  0
    6.0308    2.2365   -0.4374 H   0  0  0  0  0  0  0  0  0  0  0  0
    3.7505    2.7433    0.1887 H   0  0  0  0  0  0  0  0  0  0  0  0
    4.8107   -1.6037   -1.8356 H   0  0  0  0  0  0  0  0  0  0  0  0
    1.6748   -1.5705   -0.3084 H   0  0  0  0  0  0  0  0  0  0  0  0
    2.6288   -2.2139   -1.7397 H   0  0  0  0  0  0  0  0  0  0  0  0
    1.4421   -0.8847   -1.9567 H   0  0  0  0  0  0  0  0  0  0  0  0
   -2.5160    2.6902    1.2529 H   0  0  0  0  0  0  0  0  0  0  0  0
   -4.8845    2.0124    1.3778 H   0  0  0  0  0  0  0  0  0  0  0  0
   -1.5888   -1.0725   -0.5008 H   0  0  0  0  0  0  0  0  0  0  0  0
   -6.7774    1.3156    1.4127 H   0  0  0  0  0  0  0  0  0  0  0  0
   -7.3011   -0.4957    3.0554 H   0  0  0  0  0  0  0  0  0  0  0  0
   -8.7675    0.0111    2.1880 H   0  0  0  0  0  0  0  0  0  0  0  0
   -7.9103   -1.5263    1.7275 H   0  0  0  0  0  0  0  0  0  0  0  0
   -9.0334    0.7327    0.2668 H   0  0  0  0  0  0  0  0  0  0  0  0
   -8.0140   -0.3116   -0.8238 H   0  0  0  0  0  0  0  0  0  0  0  0
   -7.7346    1.4544   -0.6860 H   0  0  0  0  0  0  0  0  0  0  0  0
  1  2  1  0
  2  3  2  0
  2  4  1  0
  4  5  1  0
  5  6  1  0
  6  7  2  0
  7  8  1  0
  8  9  2  0
  9 10  1  0
 10 11  2  0
 10 12  1  0
  9 13  1  0
 13 14  2  0
 14 15  1  0
 15 16  1  0
 16 17  2  0
 16 18  1  0
 18 19  2  0
 19 20  1  0
 20 21  2  0
 21 22  1  0
 22 23  2  0
 22 24  1  0
 24 25  1  0
 24 26  1  0
 24 27  1  0
 21 28  1  0
 28 29  1  0
 29 30  1  0
 29 31  1  0
 11  6  1  0
 17 13  1  0
 23 18  1  0
  1 32  1  0
  4 33  1  0
  4 34  1  0
  5 35  1  0
  5 36  1  0
  7 37  1  0
  8 38  1  0
 11 39  1  0
 12 40  1  0
 12 41  1  0
 12 42  1  0
 19 43  1  0
 20 44  1  0
 23 45  1  0
 29 46  1  0
 30 47  1  0
 30 48  1  0
 30 49  1  0
 31 50  1  0
 31 51  1  0
 31 52  1  0
M  END
>  <Ligand ID>  (1) 
LIG0001681

>  <Ligand>  (1) 
CHEMBL208924

>  <SMILES>  (1) 
OC(=O)CCc1ccc(c(c1)C)c1noc(n1)c1ccc(c(c1)C(F)(F)F)OC(C)C

>  <CID>  (1) 
24825338.0

>  <ChEMBL ID>  (1) 
nan

>  <InChiKey>  (1) 
XFZAVJIHTVSJPW-UHFFFAOYSA-N

>  <InChi>  (1) 
InChI=1S/C22H21F3N2O4/c1-12(2)30-18-8-6-15(11-17(18)22(23,24)25)21-26-20(27-31-21)16-7-4-14(10-13(16)3)5-9-19(28)29/h4,6-8,10-12H,5,9H2,1-3H3,(H,28,29)

>  <IUPAC Name>  (1) 
3-[3-methyl-4-[5-[4-propan-2-yloxy-3-(trifluoromethyl)phenyl]-1,2,4-oxadiazol-3-yl]phenyl]propanoic acid

$$$$
