
     RDKit          3D

 21 23  0  0  0  0  0  0  0  0999 V2000
    4.1546    0.4513   -0.8195 N   0  0  0  0  0  0  0  0  0  0  0  0
    4.2334    0.0097    0.4436 N   0  0  0  0  0  0  0  0  0  0  0  0
    3.0283   -0.4603    0.7761 N   0  0  0  0  0  0  0  0  0  0  0  0
    2.1887   -0.3172   -0.2725 C   0  0  0  0  0  0  0  0  0  0  0  0
    2.9017    0.2505   -1.2568 N   0  0  0  0  0  0  0  0  0  0  0  0
    0.7892   -0.7300   -0.2481 C   0  0  0  0  0  0  0  0  0  0  0  0
    0.3950   -2.0124   -0.2095 N   0  0  0  0  0  0  0  0  0  0  0  0
   -0.9089   -2.1179   -0.1944 N   0  0  0  0  0  0  0  0  0  0  0  0
   -1.3986   -0.8706   -0.2237 C   0  0  0  0  0  0  0  0  0  0  0  0
   -0.3516    0.0220   -0.2578 C   0  0  0  0  0  0  0  0  0  0  0  0
   -0.8782    1.3937   -0.2902 C   0  0  0  0  0  0  0  0  0  0  0  0
   -2.2214    1.2024    0.4229 C   0  0  0  0  0  0  0  0  0  0  0  0
   -2.6868   -0.0942   -0.2327 C   0  0  0  0  0  0  0  0  0  0  0  0
    5.1019    0.0349    1.0568 H   0  0  0  0  0  0  0  0  0  0  0  0
   -1.4662   -3.0000   -0.1652 H   0  0  0  0  0  0  0  0  0  0  0  0
   -0.3038    2.1464    0.2457 H   0  0  0  0  0  0  0  0  0  0  0  0
   -1.1727    1.7086   -1.3198 H   0  0  0  0  0  0  0  0  0  0  0  0
   -2.0381    0.9397    1.4757 H   0  0  0  0  0  0  0  0  0  0  0  0
   -2.9171    2.0211    0.2696 H   0  0  0  0  0  0  0  0  0  0  0  0
   -2.9744    0.0259   -1.2765 H   0  0  0  0  0  0  0  0  0  0  0  0
   -3.4751   -0.6034    0.3571 H   0  0  0  0  0  0  0  0  0  0  0  0
  1  2  1  0
  2  3  1  0
  3  4  2  0
  4  5  1  0
  4  6  1  0
  6  7  2  0
  7  8  1  0
  8  9  1  0
  9 10  2  0
 10 11  1  0
 11 12  1  0
 12 13  1  0
  5  1  2  0
 10  6  1  0
 13  9  1  0
  2 14  1  0
  8 15  1  0
 11 16  1  0
 11 17  1  0
 12 18  1  0
 12 19  1  0
 13 20  1  0
 13 21  1  0
M  END
>  <Ligand ID>  (1) 
LIG0003004

>  <Ligand>  (1) 
MK-0354

>  <SMILES>  (1) 
n1[nH]nc(n1)c1n[nH]c2c1CCC2

>  <CID>  (1) 
11159621.0

>  <ChEMBL ID>  (1) 
nan

>  <InChiKey>  (1) 
LTQYSJKGRPGMPO-UHFFFAOYSA-N

>  <InChi>  (1) 
InChI=1S/C7H8N6/c1-2-4-5(3-1)8-9-6(4)7-10-12-13-11-7/h1-3H2,(H,8,9)(H,10,11,12,13)

>  <IUPAC Name>  (1) 
3-(2H-tetrazol-5-yl)-1,4,5,6-tetrahydrocyclopenta[c]pyrazole

$$$$
