
     RDKit          3D

 45 48  0  0  0  0  0  0  0  0999 V2000
    6.9484    1.0113    0.8267 O   0  0  0  0  0  0  0  0  0  0  0  0
    5.6281    1.4305    1.0510 C   0  0  0  0  0  0  0  0  0  0  0  0
    4.7315    0.2505    0.7886 C   0  0  1  0  0  0  0  0  0  0  0  0
    3.3922    0.5383    0.9779 O   0  0  0  0  0  0  0  0  0  0  0  0
    2.7052   -0.5202    0.4322 C   0  0  2  0  0  0  0  0  0  0  0  0
    3.5596   -1.1212   -0.6485 C   0  0  1  0  0  0  0  0  0  0  0  0
    4.7201   -0.1410   -0.6745 C   0  0  2  0  0  0  0  0  0  0  0  0
    5.9051   -0.7662   -1.0508 O   0  0  0  0  0  0  0  0  0  0  0  0
    4.0952   -2.3206   -0.1524 O   0  0  0  0  0  0  0  0  0  0  0  0
    1.4471   -0.0835   -0.1470 N   0  0  0  0  0  0  0  0  0  0  0  0
    1.3575    0.7030   -1.2442 C   0  0  0  0  0  0  0  0  0  0  0  0
    0.0540    0.9199   -1.5148 N   0  0  0  0  0  0  0  0  0  0  0  0
   -0.6725    0.2712   -0.5901 C   0  0  0  0  0  0  0  0  0  0  0  0
    0.1990   -0.3549    0.2634 C   0  0  0  0  0  0  0  0  0  0  0  0
   -0.2858   -1.0812    1.2907 N   0  0  0  0  0  0  0  0  0  0  0  0
   -1.6340   -1.1772    1.4583 C   0  0  0  0  0  0  0  0  0  0  0  0
   -2.2357   -2.1343    2.8110 Cl  0  0  0  0  0  0  0  0  0  0  0  0
   -2.4825   -0.5520    0.6055 N   0  0  0  0  0  0  0  0  0  0  0  0
   -2.0600    0.1902   -0.4424 C   0  0  0  0  0  0  0  0  0  0  0  0
   -2.9618    0.8270   -1.3101 N   0  0  0  0  0  0  0  0  0  0  0  0
   -4.3796    0.7399   -1.1529 C   0  0  0  0  0  0  0  0  0  0  0  0
   -4.8806    1.2811    0.1787 C   0  0  0  0  0  0  0  0  0  0  0  0
   -5.8409    0.2305    0.7191 C   0  0  0  0  0  0  0  0  0  0  0  0
   -6.2866   -0.4565   -0.5712 C   0  0  0  0  0  0  0  0  0  0  0  0
   -4.9177   -0.6764   -1.2287 C   0  0  0  0  0  0  0  0  0  0  0  0
    7.2554    0.3221    1.4511 H   0  0  0  0  0  0  0  0  0  0  0  0
    5.4297    2.2415    0.3495 H   0  0  0  0  0  0  0  0  0  0  0  0
    5.5205    1.7601    2.0946 H   0  0  0  0  0  0  0  0  0  0  0  0
    4.9886   -0.6324    1.3795 H   0  0  0  0  0  0  0  0  0  0  0  0
    2.4983   -1.2431    1.2472 H   0  0  0  0  0  0  0  0  0  0  0  0
    3.0760   -1.2431   -1.6153 H   0  0  0  0  0  0  0  0  0  0  0  0
    4.4419    0.6880   -1.3258 H   0  0  0  0  0  0  0  0  0  0  0  0
    6.5511   -0.0365   -1.2459 H   0  0  0  0  0  0  0  0  0  0  0  0
    3.8302   -3.1113   -0.6846 H   0  0  0  0  0  0  0  0  0  0  0  0
    2.1420    1.1254   -1.8540 H   0  0  0  0  0  0  0  0  0  0  0  0
   -2.5387    1.3879   -2.1048 H   0  0  0  0  0  0  0  0  0  0  0  0
   -4.8812    1.2924   -1.9984 H   0  0  0  0  0  0  0  0  0  0  0  0
   -5.4261    2.2348    0.0183 H   0  0  0  0  0  0  0  0  0  0  0  0
   -4.0548    1.5001    0.8702 H   0  0  0  0  0  0  0  0  0  0  0  0
   -5.2396   -0.4626    1.3219 H   0  0  0  0  0  0  0  0  0  0  0  0
   -6.6796    0.6849    1.2683 H   0  0  0  0  0  0  0  0  0  0  0  0
   -6.8286   -1.3860   -0.4057 H   0  0  0  0  0  0  0  0  0  0  0  0
   -6.7939    0.2948   -1.2015 H   0  0  0  0  0  0  0  0  0  0  0  0
   -4.3683   -1.3883   -0.5814 H   0  0  0  0  0  0  0  0  0  0  0  0
   -5.0283   -1.0369   -2.2655 H   0  0  0  0  0  0  0  0  0  0  0  0
  1  2  1  0
  2  3  1  0
  3  4  1  0
  4  5  1  0
  5  6  1  0
  6  7  1  0
  7  8  1  0
  6  9  1  0
  5 10  1  0
 10 11  1  0
 11 12  2  0
 12 13  1  0
 13 14  2  0
 14 15  1  0
 15 16  2  0
 16 17  1  0
 16 18  1  0
 18 19  2  0
 19 20  1  0
 20 21  1  0
 21 22  1  0
 22 23  1  0
 23 24  1  0
 24 25  1  0
  7  3  1  0
 14 10  1  0
 25 21  1  0
 19 13  1  0
  1 26  1  0
  2 27  1  0
  2 28  1  0
  3 29  1  1
  5 30  1  1
  6 31  1  6
  7 32  1  6
  8 33  1  0
  9 34  1  0
 11 35  1  0
 20 36  1  0
 21 37  1  0
 22 38  1  0
 22 39  1  0
 23 40  1  0
 23 41  1  0
 24 42  1  0
 24 43  1  0
 25 44  1  0
 25 45  1  0
M  END
>  <Ligand ID>  (1) 
LIG0000672

>  <Ligand>  (1) 
CCPA

>  <SMILES>  (1) 
OC[C@H]1O[C@H]([C@@H]([C@@H]1O)O)n1cnc2c1nc(Cl)nc2NC1CCCC1

>  <CID>  (1) 
123807.0

>  <ChEMBL ID>  (1) 
nan

>  <InChiKey>  (1) 
XSMYYYQVWPZWIZ-IDTAVKCVSA-N

>  <InChi>  (1) 
InChI=1S/C15H20ClN5O4/c16-15-19-12(18-7-3-1-2-4-7)9-13(20-15)21(6-17-9)14-11(24)10(23)8(5-22)25-14/h6-8,10-11,14,22-24H,1-5H2,(H,18,19,20)/t8-,10-,11-,14-/m1/s1

>  <IUPAC Name>  (1) 
(2R,3R,4S,5R)-2-[2-chloro-6-(cyclopentylamino)purin-9-yl]-5-(hydroxymethyl)oxolane-3,4-diol

$$$$
