
     RDKit          3D

 63 66  0  0  0  0  0  0  0  0999 V2000
    3.4380    0.6030   -4.2276 C   0  0  0  0  0  0  0  0  0  0  0  0
    2.6847    1.6118   -3.4295 C   0  0  0  0  0  0  0  0  0  0  0  0
    2.3304    1.1482   -2.1403 O   0  0  0  0  0  0  0  0  0  0  0  0
    1.5451    0.0555   -1.9019 C   0  0  0  0  0  0  0  0  0  0  0  0
    1.1102   -0.5784   -2.9221 O   0  0  0  0  0  0  0  0  0  0  0  0
    1.2012   -0.3913   -0.5118 C   0  0  0  0  0  0  0  0  0  0  0  0
    2.5109   -0.6982    0.1678 C   0  0  0  0  0  0  0  0  0  0  0  0
    2.3848   -1.1609    1.5675 C   0  0  0  0  0  0  0  0  0  0  0  0
    3.6298   -1.3974    2.1313 O   0  0  0  0  0  0  0  0  0  0  0  0
    4.5895   -0.4685    2.3763 C   0  0  0  0  0  0  0  0  0  0  0  0
    4.5311    0.8779    2.1594 C   0  0  0  0  0  0  0  0  0  0  0  0
    5.6052    1.7137    2.4572 C   0  0  0  0  0  0  0  0  0  0  0  0
    6.7762    1.2276    2.9845 C   0  0  0  0  0  0  0  0  0  0  0  0
    6.8497   -0.1286    3.2100 C   0  0  0  0  0  0  0  0  0  0  0  0
    5.7959   -0.9472    2.9170 C   0  0  0  0  0  0  0  0  0  0  0  0
    0.3357   -1.6100   -0.5445 C   0  0  0  0  0  0  0  0  0  0  0  0
   -0.9389   -1.4346    0.2624 C   0  0  0  0  0  0  0  0  0  0  0  0
   -1.7135   -0.3177   -0.1601 N   0  0  0  0  0  0  0  0  0  0  0  0
   -0.9203    0.8142   -0.5185 C   0  0  0  0  0  0  0  0  0  0  0  0
    0.4462    0.7289    0.1354 C   0  0  0  0  0  0  0  0  0  0  0  0
   -2.7553   -0.6156   -1.1173 C   0  0  0  0  0  0  0  0  0  0  0  0
   -3.7437   -1.5713   -0.6124 C   0  0  0  0  0  0  0  0  0  0  0  0
   -3.7444   -2.9527   -0.6982 C   0  0  0  0  0  0  0  0  0  0  0  0
   -4.8771   -3.4574   -0.0829 C   0  0  0  0  0  0  0  0  0  0  0  0
   -5.5622   -2.3526    0.3773 C   0  0  0  0  0  0  0  0  0  0  0  0
   -4.8689   -1.2250    0.0518 N   0  0  0  0  0  0  0  0  0  0  0  0
   -5.3382    0.0731    0.4007 C   0  0  0  0  0  0  0  0  0  0  0  0
   -6.5476    0.4625   -0.1873 C   0  0  0  0  0  0  0  0  0  0  0  0
   -7.0910    1.7030    0.0843 C   0  0  0  0  0  0  0  0  0  0  0  0
   -6.3818    2.5160    0.9527 C   0  0  0  0  0  0  0  0  0  0  0  0
   -5.2223    2.1124    1.5012 N   0  0  0  0  0  0  0  0  0  0  0  0
   -4.6619    0.9135    1.2615 C   0  0  0  0  0  0  0  0  0  0  0  0
    4.4183    1.0755   -4.5318 H   0  0  0  0  0  0  0  0  0  0  0  0
    3.7439   -0.2937   -3.6511 H   0  0  0  0  0  0  0  0  0  0  0  0
    2.9300    0.3790   -5.1666 H   0  0  0  0  0  0  0  0  0  0  0  0
    3.1942    2.5933   -3.3914 H   0  0  0  0  0  0  0  0  0  0  0  0
    1.7091    1.8121   -3.9420 H   0  0  0  0  0  0  0  0  0  0  0  0
    3.2864    0.0418   -0.0024 H   0  0  0  0  0  0  0  0  0  0  0  0
    2.8989   -1.6165   -0.4061 H   0  0  0  0  0  0  0  0  0  0  0  0
    1.8369   -2.1538    1.6089 H   0  0  0  0  0  0  0  0  0  0  0  0
    1.8737   -0.4340    2.2407 H   0  0  0  0  0  0  0  0  0  0  0  0
    3.6609    1.3503    1.7775 H   0  0  0  0  0  0  0  0  0  0  0  0
    5.5498    2.7860    2.2800 H   0  0  0  0  0  0  0  0  0  0  0  0
    7.6354    1.8354    3.2315 H   0  0  0  0  0  0  0  0  0  0  0  0
    7.7671   -0.5309    3.6266 H   0  0  0  0  0  0  0  0  0  0  0  0
    5.9192   -2.0044    3.1185 H   0  0  0  0  0  0  0  0  0  0  0  0
    0.8505   -2.5054   -0.1408 H   0  0  0  0  0  0  0  0  0  0  0  0
    0.1160   -1.8579   -1.6046 H   0  0  0  0  0  0  0  0  0  0  0  0
   -0.6163   -1.2720    1.3244 H   0  0  0  0  0  0  0  0  0  0  0  0
   -1.4494   -2.3937    0.2441 H   0  0  0  0  0  0  0  0  0  0  0  0
   -1.3934    1.7302   -0.0604 H   0  0  0  0  0  0  0  0  0  0  0  0
   -0.8684    1.0173   -1.5970 H   0  0  0  0  0  0  0  0  0  0  0  0
    1.0223    1.6678   -0.0579 H   0  0  0  0  0  0  0  0  0  0  0  0
    0.2527    0.5735    1.2153 H   0  0  0  0  0  0  0  0  0  0  0  0
   -3.2173    0.3601   -1.3813 H   0  0  0  0  0  0  0  0  0  0  0  0
   -2.2237   -0.9618   -2.0438 H   0  0  0  0  0  0  0  0  0  0  0  0
   -2.9943   -3.5713   -1.1653 H   0  0  0  0  0  0  0  0  0  0  0  0
   -5.1359   -4.5062   -0.0006 H   0  0  0  0  0  0  0  0  0  0  0  0
   -6.4993   -2.4306    0.9076 H   0  0  0  0  0  0  0  0  0  0  0  0
   -7.0803   -0.2122   -0.8718 H   0  0  0  0  0  0  0  0  0  0  0  0
   -8.0347    2.0342   -0.3608 H   0  0  0  0  0  0  0  0  0  0  0  0
   -6.8169    3.4849    1.1580 H   0  0  0  0  0  0  0  0  0  0  0  0
   -3.7328    0.5856    1.6987 H   0  0  0  0  0  0  0  0  0  0  0  0
  1  2  1  0
  2  3  1  0
  3  4  1  0
  4  5  2  0
  4  6  1  0
  6  7  1  0
  7  8  1  0
  8  9  1  0
  9 10  1  0
 10 11  2  0
 11 12  1  0
 12 13  2  0
 13 14  1  0
 14 15  2  0
  6 16  1  0
 16 17  1  0
 17 18  1  0
 18 19  1  0
 19 20  1  0
 18 21  1  0
 21 22  1  0
 22 23  2  0
 23 24  1  0
 24 25  2  0
 25 26  1  0
 26 27  1  0
 27 28  2  0
 28 29  1  0
 29 30  2  0
 30 31  1  0
 31 32  2  0
 20  6  1  0
 26 22  1  0
 32 27  1  0
 15 10  1  0
  1 33  1  0
  1 34  1  0
  1 35  1  0
  2 36  1  0
  2 37  1  0
  7 38  1  0
  7 39  1  0
  8 40  1  0
  8 41  1  0
 11 42  1  0
 12 43  1  0
 13 44  1  0
 14 45  1  0
 15 46  1  0
 16 47  1  0
 16 48  1  0
 17 49  1  0
 17 50  1  0
 19 51  1  0
 19 52  1  0
 20 53  1  0
 20 54  1  0
 21 55  1  0
 21 56  1  0
 23 57  1  0
 24 58  1  0
 25 59  1  0
 28 60  1  0
 29 61  1  0
 30 62  1  0
 32 63  1  0
M  END
>  <Ligand ID>  (1) 
LIG0004435

>  <Ligand>  (1) 
MLS000735146

>  <SMILES>  (1) 
CCOC(=O)C1(CCOc2ccccc2)CCN(CC1)Cc1cccn1c1cccnc1

>  <CID>  (1) 
16188233.0

>  <ChEMBL ID>  (1) 
nan

>  <InChiKey>  (1) 
PWCMZCSGGQBVFY-UHFFFAOYSA-N

>  <InChi>  (1) 
InChI=1S/C26H31N3O3/c1-2-31-25(30)26(14-19-32-24-10-4-3-5-11-24)12-17-28(18-13-26)21-23-9-7-16-29(23)22-8-6-15-27-20-22/h3-11,15-16,20H,2,12-14,17-19,21H2,1H3

>  <IUPAC Name>  (1) 
ethyl 4-(2-phenoxyethyl)-1-[(1-pyridin-3-ylpyrrol-2-yl)methyl]piperidine-4-carboxylate

$$$$
