
     RDKit          3D

 17 17  0  0  0  0  0  0  0  0999 V2000
    2.7822    0.8884    0.4508 C   0  0  0  0  0  0  0  0  0  0  0  0
    2.7376   -0.7939   -0.1381 S   0  0  0  0  0  0  0  0  0  0  0  0
    1.1908   -2.0005    0.5055 S   0  0  0  0  0  0  0  0  0  0  0  0
   -0.2999   -2.0011   -0.5027 C   0  0  0  0  0  0  0  0  0  0  0  0
   -0.9041   -0.6421   -0.3979 C   0  0  0  0  0  0  0  0  0  0  0  0
   -1.8432   -0.3074    0.5755 C   0  0  0  0  0  0  0  0  0  0  0  0
   -2.1849    1.0234    0.3767 C   0  0  0  0  0  0  0  0  0  0  0  0
   -1.4359    1.4352   -0.7104 C   0  0  0  0  0  0  0  0  0  0  0  0
   -0.6979    0.4155   -1.1291 O   0  0  0  0  0  0  0  0  0  0  0  0
    2.0007    1.4566   -0.1394 H   0  0  0  0  0  0  0  0  0  0  0  0
    2.5602    1.0539    1.4988 H   0  0  0  0  0  0  0  0  0  0  0  0
    3.7685    1.3143    0.1355 H   0  0  0  0  0  0  0  0  0  0  0  0
   -1.0250   -2.7592   -0.1558 H   0  0  0  0  0  0  0  0  0  0  0  0
   -0.0400   -2.1318   -1.5735 H   0  0  0  0  0  0  0  0  0  0  0  0
   -2.2478   -0.9629    1.3559 H   0  0  0  0  0  0  0  0  0  0  0  0
   -2.8960    1.5857    0.9755 H   0  0  0  0  0  0  0  0  0  0  0  0
   -1.4651    2.4259   -1.1273 H   0  0  0  0  0  0  0  0  0  0  0  0
  1  2  1  0
  2  3  1  0
  3  4  1  0
  4  5  1  0
  5  6  2  0
  6  7  1  0
  7  8  2  0
  8  9  1  0
  9  5  1  0
  1 10  1  0
  1 11  1  0
  1 12  1  0
  4 13  1  0
  4 14  1  0
  6 15  1  0
  7 16  1  0
  8 17  1  0
M  END
>  <Ligand ID>  (1) 
LIG0000094

>  <Ligand>  (1) 
Furfuryl methyl disulfide

>  <SMILES>  (1) 
CSSCc1ccco1

>  <CID>  (1) 
62131.0

>  <ChEMBL ID>  (1) 
nan

>  <InChiKey>  (1) 
CLSLQQCDHOZMDT-UHFFFAOYSA-N

>  <InChi>  (1) 
InChI=1S/C6H8OS2/c1-8-9-5-6-3-2-4-7-6/h2-4H,5H2,1H3

>  <IUPAC Name>  (1) 
2-[(methyldisulfanyl)methyl]furan

$$$$
