
     RDKit          3D

 52 54  0  0  0  0  0  0  0  0999 V2000
    9.0281   -0.9569   -0.0076 C   0  0  0  0  0  0  0  0  0  0  0  0
    7.6483   -0.4582   -0.2776 C   0  0  0  0  0  0  0  0  0  0  0  0
    7.5037    0.4712   -1.1248 O   0  0  0  0  0  0  0  0  0  0  0  0
    6.4981   -0.9819    0.3742 N   0  0  0  0  0  0  0  0  0  0  0  0
    5.2123   -0.4602    0.0694 C   0  0  0  0  0  0  0  0  0  0  0  0
    4.4061   -0.9636   -0.9317 C   0  0  0  0  0  0  0  0  0  0  0  0
    3.1604   -0.4210   -1.1910 C   0  0  0  0  0  0  0  0  0  0  0  0
    2.7039    0.6419   -0.4430 C   0  0  0  0  0  0  0  0  0  0  0  0
    3.5280    1.1357    0.5599 C   0  0  0  0  0  0  0  0  0  0  0  0
    4.7713    0.6054    0.8294 C   0  0  0  0  0  0  0  0  0  0  0  0
    1.3863    1.2878   -0.6372 C   0  0  0  0  0  0  0  0  0  0  0  0
    0.3410    0.7807    0.1804 N   0  0  0  0  0  0  0  0  0  0  0  0
    0.0881   -0.5975   -0.0344 C   0  0  0  0  0  0  0  0  0  0  0  0
   -0.8392   -0.8938   -1.1626 C   0  0  0  0  0  0  0  0  0  0  0  0
   -1.6909    0.2676   -1.5620 C   0  0  0  0  0  0  0  0  0  0  0  0
   -2.0447    1.1246   -0.3923 C   0  0  0  0  0  0  0  0  0  0  0  0
   -0.8075    1.6162    0.2803 C   0  0  0  0  0  0  0  0  0  0  0  0
   -3.0391    0.5667    0.5284 C   0  0  0  0  0  0  0  0  0  0  0  0
   -2.6216    0.2557    1.6981 O   0  0  0  0  0  0  0  0  0  0  0  0
   -4.4388    0.3393    0.2348 C   0  0  0  0  0  0  0  0  0  0  0  0
   -5.0559    0.6761   -0.9480 C   0  0  0  0  0  0  0  0  0  0  0  0
   -6.3926    0.4341   -1.2054 C   0  0  0  0  0  0  0  0  0  0  0  0
   -7.1854   -0.1742   -0.2542 C   0  0  0  0  0  0  0  0  0  0  0  0
   -6.5960   -0.5238    0.9430 C   0  0  0  0  0  0  0  0  0  0  0  0
   -5.2615   -0.2766    1.1861 C   0  0  0  0  0  0  0  0  0  0  0  0
   -7.3982   -1.1911    2.0291 C   0  0  0  0  0  0  0  0  0  0  0  0
   -6.5488   -1.8784    2.8708 F   0  0  0  0  0  0  0  0  0  0  0  0
   -8.1931   -0.2789    2.6860 F   0  0  0  0  0  0  0  0  0  0  0  0
   -8.2542   -2.1400    1.4705 F   0  0  0  0  0  0  0  0  0  0  0  0
    9.0327   -1.9988    0.3641 H   0  0  0  0  0  0  0  0  0  0  0  0
    9.6258   -0.8624   -0.9323 H   0  0  0  0  0  0  0  0  0  0  0  0
    9.4809   -0.3146    0.7766 H   0  0  0  0  0  0  0  0  0  0  0  0
    6.6282   -1.7516    1.0743 H   0  0  0  0  0  0  0  0  0  0  0  0
    4.7590   -1.7954   -1.5195 H   0  0  0  0  0  0  0  0  0  0  0  0
    2.5454   -0.8265   -1.9826 H   0  0  0  0  0  0  0  0  0  0  0  0
    3.2034    1.9713    1.1693 H   0  0  0  0  0  0  0  0  0  0  0  0
    5.3706    1.0292    1.6218 H   0  0  0  0  0  0  0  0  0  0  0  0
    1.1509    1.1305   -1.7329 H   0  0  0  0  0  0  0  0  0  0  0  0
    1.5566    2.3890   -0.4873 H   0  0  0  0  0  0  0  0  0  0  0  0
    1.0671   -1.1274   -0.1508 H   0  0  0  0  0  0  0  0  0  0  0  0
   -0.3261   -1.0090    0.9370 H   0  0  0  0  0  0  0  0  0  0  0  0
   -0.3050   -1.3477   -2.0474 H   0  0  0  0  0  0  0  0  0  0  0  0
   -1.5195   -1.7302   -0.8310 H   0  0  0  0  0  0  0  0  0  0  0  0
   -2.5769   -0.0815   -2.1579 H   0  0  0  0  0  0  0  0  0  0  0  0
   -1.1582    0.9472   -2.2887 H   0  0  0  0  0  0  0  0  0  0  0  0
   -2.5195    2.0608   -0.8502 H   0  0  0  0  0  0  0  0  0  0  0  0
   -1.0051    1.7567    1.3835 H   0  0  0  0  0  0  0  0  0  0  0  0
   -0.5083    2.6399   -0.0808 H   0  0  0  0  0  0  0  0  0  0  0  0
   -4.4995    1.1642   -1.7312 H   0  0  0  0  0  0  0  0  0  0  0  0
   -6.8468    0.7130   -2.1504 H   0  0  0  0  0  0  0  0  0  0  0  0
   -8.2203   -0.3941   -0.3763 H   0  0  0  0  0  0  0  0  0  0  0  0
   -4.8440   -0.5697    2.1422 H   0  0  0  0  0  0  0  0  0  0  0  0
  1  2  1  0
  2  3  2  0
  2  4  1  0
  4  5  1  0
  5  6  2  0
  6  7  1  0
  7  8  2  0
  8  9  1  0
  9 10  2  0
  8 11  1  0
 11 12  1  0
 12 13  1  0
 13 14  1  0
 14 15  1  0
 15 16  1  0
 16 17  1  0
 16 18  1  0
 18 19  2  0
 18 20  1  0
 20 21  2  0
 21 22  1  0
 22 23  2  0
 23 24  1  0
 24 25  2  0
 24 26  1  0
 26 27  1  0
 26 28  1  0
 26 29  1  0
 10  5  1  0
 17 12  1  0
 25 20  1  0
  1 30  1  0
  1 31  1  0
  1 32  1  0
  4 33  1  0
  6 34  1  0
  7 35  1  0
  9 36  1  0
 10 37  1  0
 11 38  1  0
 11 39  1  0
 13 40  1  0
 13 41  1  0
 14 42  1  0
 14 43  1  0
 15 44  1  0
 15 45  1  0
 16 46  1  0
 17 47  1  0
 17 48  1  0
 21 49  1  0
 22 50  1  0
 23 51  1  0
 25 52  1  0
M  END
>  <Ligand ID>  (1) 
LIG0003326

>  <Ligand>  (1) 
MLS000773141

>  <SMILES>  (1) 
CC(=O)Nc1ccc(cc1)CN1CCCC(C1)C(=O)c1cccc(c1)C(F)(F)F

>  <CID>  (1) 
16191631.0

>  <ChEMBL ID>  (1) 
nan

>  <InChiKey>  (1) 
VDOVRAAWZVZWPS-UHFFFAOYSA-N

>  <InChi>  (1) 
InChI=1S/C22H23F3N2O2/c1-15(28)26-20-9-7-16(8-10-20)13-27-11-3-5-18(14-27)21(29)17-4-2-6-19(12-17)22(23,24)25/h2,4,6-10,12,18H,3,5,11,13-14H2,1H3,(H,26,28)

>  <IUPAC Name>  (1) 
N-[4-[[3-[3-(trifluoromethyl)benzoyl]piperidin-1-yl]methyl]phenyl]acetamide

$$$$
