
     RDKit          3D

 57 61  0  0  0  0  0  0  0  0999 V2000
    4.6223    1.5289   -1.3753 O   0  0  0  0  0  0  0  0  0  0  0  0
    4.8257    1.0973   -0.1913 C   0  0  0  0  0  0  0  0  0  0  0  0
    6.1738    1.0340    0.3723 C   0  0  2  0  0  0  0  0  0  0  0  0
    7.1979    1.3415   -0.6849 C   0  0  0  0  0  0  0  0  0  0  0  0
    8.4584    0.8639    0.0586 C   0  0  0  0  0  0  0  0  0  0  0  0
    7.9363   -0.4256    0.5736 C   0  0  0  0  0  0  0  0  0  0  0  0
    6.5811   -0.3861    0.7636 C   0  0  0  0  0  0  0  0  0  0  0  0
    5.9406   -1.4321    1.2056 N   0  0  0  0  0  0  0  0  0  0  0  0
    6.7044   -2.5660    1.4671 C   0  0  0  0  0  0  0  0  0  0  0  0
    8.4183   -2.0802    1.0500 S   0  0  0  0  0  0  0  0  0  0  0  0
    3.6790    0.6805    0.5553 N   0  0  0  0  0  0  0  0  0  0  0  0
    2.4201    0.7995   -0.1267 C   0  0  0  0  0  0  0  0  0  0  0  0
    1.6963    1.9700   -0.0226 C   0  0  0  0  0  0  0  0  0  0  0  0
    0.4737    2.1496   -0.6561 C   0  0  0  0  0  0  0  0  0  0  0  0
   -0.0423    1.1070   -1.4271 C   0  0  0  0  0  0  0  0  0  0  0  0
    0.6929   -0.0587   -1.5223 C   0  0  0  0  0  0  0  0  0  0  0  0
    1.9089   -0.2329   -0.8903 C   0  0  0  0  0  0  0  0  0  0  0  0
   -1.3301    1.2900   -2.0971 C   0  0  0  0  0  0  0  0  0  0  0  0
   -2.5203    0.8900   -1.3246 C   0  0  2  0  0  0  0  0  0  0  0  0
   -2.7711    1.5731   -0.0303 C   0  0  0  0  0  0  0  0  0  0  0  0
   -3.9985    0.7881    0.4638 C   0  0  0  0  0  0  0  0  0  0  0  0
   -3.9417   -0.4925   -0.3451 C   0  0  1  0  0  0  0  0  0  0  0  0
   -2.6117   -0.4932   -0.9690 N   0  0  0  0  0  0  0  0  0  0  0  0
   -4.1797   -1.7278    0.4851 C   0  0  1  0  0  0  0  0  0  0  0  0
   -5.6160   -1.6794    0.8897 C   0  0  0  0  0  0  0  0  0  0  0  0
   -6.0232   -1.4925    2.1886 C   0  0  0  0  0  0  0  0  0  0  0  0
   -7.3882   -1.4657    2.4413 C   0  0  0  0  0  0  0  0  0  0  0  0
   -8.3328   -1.6179    1.4480 C   0  0  0  0  0  0  0  0  0  0  0  0
   -7.8907   -1.7985    0.1899 N   0  0  0  0  0  0  0  0  0  0  0  0
   -6.5768   -1.8298   -0.0911 C   0  0  0  0  0  0  0  0  0  0  0  0
   -4.0666   -2.8125   -0.3831 O   0  0  0  0  0  0  0  0  0  0  0  0
    6.3612    1.7069    1.2334 H   0  0  0  0  0  0  0  0  0  0  0  0
    7.2639    2.3926   -0.9481 H   0  0  0  0  0  0  0  0  0  0  0  0
    7.0399    0.6388   -1.5102 H   0  0  0  0  0  0  0  0  0  0  0  0
    9.2802    0.6792   -0.6486 H   0  0  0  0  0  0  0  0  0  0  0  0
    8.7109    1.5542    0.8789 H   0  0  0  0  0  0  0  0  0  0  0  0
    6.3871   -3.5699    1.8469 H   0  0  0  0  0  0  0  0  0  0  0  0
    3.7579    0.3156    1.5291 H   0  0  0  0  0  0  0  0  0  0  0  0
    2.0978    2.7896    0.5810 H   0  0  0  0  0  0  0  0  0  0  0  0
   -0.0463    3.0921   -0.5356 H   0  0  0  0  0  0  0  0  0  0  0  0
    0.2737   -0.8619   -2.1289 H   0  0  0  0  0  0  0  0  0  0  0  0
    2.4758   -1.1530   -0.9733 H   0  0  0  0  0  0  0  0  0  0  0  0
   -1.4700    2.3641   -2.3723 H   0  0  0  0  0  0  0  0  0  0  0  0
   -1.3849    0.7550   -3.0695 H   0  0  0  0  0  0  0  0  0  0  0  0
   -3.4115    1.1031   -1.9723 H   0  0  0  0  0  0  0  0  0  0  0  0
   -2.0026    1.3398    0.7454 H   0  0  0  0  0  0  0  0  0  0  0  0
   -3.0042    2.6451   -0.1003 H   0  0  0  0  0  0  0  0  0  0  0  0
   -4.8689    1.3686    0.0756 H   0  0  0  0  0  0  0  0  0  0  0  0
   -3.9982    0.6378    1.5438 H   0  0  0  0  0  0  0  0  0  0  0  0
   -4.6669   -0.5115   -1.1830 H   0  0  0  0  0  0  0  0  0  0  0  0
   -2.6220   -1.1426   -1.7673 H   0  0  0  0  0  0  0  0  0  0  0  0
   -3.4929   -1.8573    1.3185 H   0  0  0  0  0  0  0  0  0  0  0  0
   -5.2842   -1.3724    2.9733 H   0  0  0  0  0  0  0  0  0  0  0  0
   -7.7567   -1.3203    3.4546 H   0  0  0  0  0  0  0  0  0  0  0  0
   -9.3933   -1.6020    1.6104 H   0  0  0  0  0  0  0  0  0  0  0  0
   -6.3229   -1.9822   -1.1460 H   0  0  0  0  0  0  0  0  0  0  0  0
   -4.3629   -2.5309   -1.2850 H   0  0  0  0  0  0  0  0  0  0  0  0
  1  2  2  0
  2  3  1  0
  3  4  1  0
  4  5  1  0
  5  6  1  0
  6  7  2  0
  7  8  1  0
  8  9  2  0
  9 10  1  0
  2 11  1  0
 11 12  1  0
 12 13  2  0
 13 14  1  0
 14 15  2  0
 15 16  1  0
 16 17  2  0
 15 18  1  0
 18 19  1  0
 19 20  1  0
 20 21  1  0
 21 22  1  0
 22 23  1  0
 22 24  1  0
 24 25  1  0
 25 26  2  0
 26 27  1  0
 27 28  2  0
 28 29  1  0
 29 30  2  0
 24 31  1  0
  7  3  1  0
 17 12  1  0
 23 19  1  0
 30 25  1  0
 10  6  1  0
  3 32  1  1
  4 33  1  0
  4 34  1  0
  5 35  1  0
  5 36  1  0
  9 37  1  0
 11 38  1  0
 13 39  1  0
 14 40  1  0
 16 41  1  0
 17 42  1  0
 18 43  1  0
 18 44  1  0
 19 45  1  6
 20 46  1  0
 20 47  1  0
 21 48  1  0
 21 49  1  0
 22 50  1  6
 23 51  1  0
 24 52  1  1
 26 53  1  0
 27 54  1  0
 28 55  1  0
 30 56  1  0
 31 57  1  0
M  END
>  <Ligand ID>  (1) 
LIG0001297

>  <Ligand>  (1) 
CHEMBL3128178

>  <SMILES>  (1) 
O=C([C@@H]1CCc2c1ncs2)Nc1ccc(cc1)C[C@@H]1CC[C@@H](N1)[C@@H](c1cccnc1)O

>  <CID>  (1) 
76322043.0

>  <ChEMBL ID>  (1) 
nan

>  <InChiKey>  (1) 
OYURTPRHVJSKRC-DZCCDHAISA-N

>  <InChi>  (1) 
InChI=1S/C24H26N4O2S/c29-23(16-2-1-11-25-13-16)20-9-7-18(27-20)12-15-3-5-17(6-4-15)28-24(30)19-8-10-21-22(19)26-14-31-21/h1-6,11,13-14,18-20,23,27,29H,7-10,12H2,(H,28,30)/t18-,19+,20+,23+/m0/s1

>  <IUPAC Name>  (1) 
(4R)-N-[4-[[(2S,5R)-5-[(R)-hydroxy(pyridin-3-yl)methyl]pyrrolidin-2-yl]methyl]phenyl]-5,6-dihydro-4H-cyclopenta[d][1,3]thiazole-4-carboxamide

$$$$
