
     RDKit          3D

 52 53  0  0  0  0  0  0  0  0999 V2000
   10.9716    0.0022    0.8481 C   0  0  0  0  0  0  0  0  0  0  0  0
   10.0105    0.7666    0.1531 O   0  0  0  0  0  0  0  0  0  0  0  0
    8.6608    0.4715    0.1703 C   0  0  0  0  0  0  0  0  0  0  0  0
    7.8138    1.3054   -0.5545 C   0  0  0  0  0  0  0  0  0  0  0  0
    6.4359    1.0555   -0.5719 C   0  0  0  0  0  0  0  0  0  0  0  0
    5.8795   -0.0024    0.1127 C   0  0  0  0  0  0  0  0  0  0  0  0
    6.7431   -0.8244    0.8304 C   0  0  0  0  0  0  0  0  0  0  0  0
    8.1158   -0.5866    0.8560 C   0  0  0  0  0  0  0  0  0  0  0  0
    4.4542   -0.2918    0.1376 C   0  0  0  0  0  0  0  0  0  0  0  0
    3.5394    0.4450   -0.4651 C   0  0  0  0  0  0  0  0  0  0  0  0
    2.1101    0.0669   -0.3813 C   0  0  0  0  0  0  0  0  0  0  0  0
    1.8401   -0.9557    0.2605 O   0  0  0  0  0  0  0  0  0  0  0  0
    1.1350    0.8624   -1.0172 N   0  0  0  0  0  0  0  0  0  0  0  0
   -0.2564    0.6211   -1.0206 C   0  0  0  0  0  0  0  0  0  0  0  0
   -1.2057    1.6885   -1.8244 S   0  0  0  0  0  0  0  0  0  0  0  0
   -0.9043   -0.4809   -0.4142 N   0  0  0  0  0  0  0  0  0  0  0  0
   -2.3459   -0.6706   -0.4370 C   0  0  0  0  0  0  0  0  0  0  0  0
   -3.0094    0.3601    0.4506 C   0  0  0  0  0  0  0  0  0  0  0  0
   -4.4751    0.1193    0.3943 C   0  0  0  0  0  0  0  0  0  0  0  0
   -4.9783   -0.7826    1.3347 C   0  0  0  0  0  0  0  0  0  0  0  0
   -6.3465   -1.0566    1.3442 C   0  0  0  0  0  0  0  0  0  0  0  0
   -7.1874   -0.4446    0.4383 C   0  0  0  0  0  0  0  0  0  0  0  0
   -6.6678    0.4557   -0.4961 C   0  0  0  0  0  0  0  0  0  0  0  0
   -5.3153    0.7290   -0.5092 C   0  0  0  0  0  0  0  0  0  0  0  0
   -7.5719    1.0339   -1.3749 O   0  0  0  0  0  0  0  0  0  0  0  0
   -7.0669    1.9522   -2.3253 C   0  0  0  0  0  0  0  0  0  0  0  0
   -8.5660   -0.7204    0.4473 O   0  0  0  0  0  0  0  0  0  0  0  0
   -9.0139   -1.6399    1.4209 C   0  0  0  0  0  0  0  0  0  0  0  0
   10.5763   -0.5506    1.7066 H   0  0  0  0  0  0  0  0  0  0  0  0
   11.7840    0.6463    1.2643 H   0  0  0  0  0  0  0  0  0  0  0  0
   11.4145   -0.7201    0.1173 H   0  0  0  0  0  0  0  0  0  0  0  0
    8.2317    2.1299   -1.0931 H   0  0  0  0  0  0  0  0  0  0  0  0
    5.8080    1.7152   -1.1411 H   0  0  0  0  0  0  0  0  0  0  0  0
    6.3158   -1.6612    1.3744 H   0  0  0  0  0  0  0  0  0  0  0  0
    8.7128   -1.2625    1.4305 H   0  0  0  0  0  0  0  0  0  0  0  0
    4.1046   -1.1565    0.6763 H   0  0  0  0  0  0  0  0  0  0  0  0
    3.8298    1.3186   -1.0142 H   0  0  0  0  0  0  0  0  0  0  0  0
    1.5089    1.7140   -1.5337 H   0  0  0  0  0  0  0  0  0  0  0  0
   -0.3762   -1.2472    0.1029 H   0  0  0  0  0  0  0  0  0  0  0  0
   -2.6240   -1.6619   -0.0581 H   0  0  0  0  0  0  0  0  0  0  0  0
   -2.7183   -0.5659   -1.4918 H   0  0  0  0  0  0  0  0  0  0  0  0
   -2.8538    1.3707    0.0318 H   0  0  0  0  0  0  0  0  0  0  0  0
   -2.6259    0.2757    1.4929 H   0  0  0  0  0  0  0  0  0  0  0  0
   -4.3364   -1.2733    2.0543 H   0  0  0  0  0  0  0  0  0  0  0  0
   -6.6986   -1.7564    2.0816 H   0  0  0  0  0  0  0  0  0  0  0  0
   -4.9060    1.4228   -1.2287 H   0  0  0  0  0  0  0  0  0  0  0  0
   -6.4060    1.3963   -3.0205 H   0  0  0  0  0  0  0  0  0  0  0  0
   -7.8857    2.4812   -2.8559 H   0  0  0  0  0  0  0  0  0  0  0  0
   -6.4119    2.6764   -1.7742 H   0  0  0  0  0  0  0  0  0  0  0  0
   -8.6564   -1.3114    2.4311 H   0  0  0  0  0  0  0  0  0  0  0  0
   -8.4750   -2.6036    1.2173 H   0  0  0  0  0  0  0  0  0  0  0  0
  -10.1114   -1.7528    1.4223 H   0  0  0  0  0  0  0  0  0  0  0  0
  1  2  1  0
  2  3  1  0
  3  4  2  0
  4  5  1  0
  5  6  2  0
  6  7  1  0
  7  8  2  0
  6  9  1  0
  9 10  2  0
 10 11  1  0
 11 12  2  0
 11 13  1  0
 13 14  1  0
 14 15  2  0
 14 16  1  0
 16 17  1  0
 17 18  1  0
 18 19  1  0
 19 20  2  0
 20 21  1  0
 21 22  2  0
 22 23  1  0
 23 24  2  0
 23 25  1  0
 25 26  1  0
 22 27  1  0
 27 28  1  0
  8  3  1  0
 24 19  1  0
  1 29  1  0
  1 30  1  0
  1 31  1  0
  4 32  1  0
  5 33  1  0
  7 34  1  0
  8 35  1  0
  9 36  1  0
 10 37  1  0
 13 38  1  0
 16 39  1  0
 17 40  1  0
 17 41  1  0
 18 42  1  0
 18 43  1  0
 20 44  1  0
 21 45  1  0
 24 46  1  0
 26 47  1  0
 26 48  1  0
 26 49  1  0
 28 50  1  0
 28 51  1  0
 28 52  1  0
M  END
>  <Ligand ID>  (1) 
LIG0004796

>  <Ligand>  (1) 
SMR000186174

>  <SMILES>  (1) 
COc1ccc(cc1)/C=C/C(=O)NC(=S)NCCc1ccc(c(c1)OC)OC

>  <CID>  (1) 
2248756.0

>  <ChEMBL ID>  (1) 
nan

>  <InChiKey>  (1) 
HBESTCBHMTZDAB-YRNVUSSQSA-N

>  <InChi>  (1) 
InChI=1S/C21H24N2O4S/c1-25-17-8-4-15(5-9-17)7-11-20(24)23-21(28)22-13-12-16-6-10-18(26-2)19(14-16)27-3/h4-11,14H,12-13H2,1-3H3,(H2,22,23,24,28)/b11-7+

>  <IUPAC Name>  (1) 
(E)-N-[2-(3,4-dimethoxyphenyl)ethylcarbamothioyl]-3-(4-methoxyphenyl)prop-2-enamide

$$$$
