
     RDKit          3D

 37 39  0  0  0  0  0  0  0  0999 V2000
   -2.9478   -0.3232    2.8302 C   0  0  0  0  0  0  0  0  0  0  0  0
   -3.7583   -0.6973    1.6570 C   0  0  0  0  0  0  0  0  0  0  0  0
   -4.9015   -1.2154    1.9069 O   0  0  0  0  0  0  0  0  0  0  0  0
   -3.3656   -0.5246    0.3102 N   0  0  0  0  0  0  0  0  0  0  0  0
   -4.2636   -0.9084   -0.7640 C   0  0  0  0  0  0  0  0  0  0  0  0
   -3.7775   -0.3027   -2.0448 C   0  0  0  0  0  0  0  0  0  0  0  0
   -3.1655    1.0616   -1.8341 C   0  0  0  0  0  0  0  0  0  0  0  0
   -1.9430    0.8468   -1.0656 N   0  0  0  0  0  0  0  0  0  0  0  0
   -2.0796    0.0349    0.0180 C   0  0  0  0  0  0  0  0  0  0  0  0
   -0.8620   -0.0877    0.6537 C   0  0  0  0  0  0  0  0  0  0  0  0
    0.0083    0.6894   -0.1013 C   0  0  0  0  0  0  0  0  0  0  0  0
   -0.6939    1.2365   -1.1343 N   0  0  0  0  0  0  0  0  0  0  0  0
    1.4552    0.8840    0.1784 C   0  0  0  0  0  0  0  0  0  0  0  0
    2.2351   -0.1001   -0.4772 O   0  0  0  0  0  0  0  0  0  0  0  0
    3.6114   -0.0312   -0.2973 C   0  0  0  0  0  0  0  0  0  0  0  0
    4.3898   -0.9830   -0.9290 C   0  0  0  0  0  0  0  0  0  0  0  0
    5.7556   -0.9802   -0.7990 C   0  0  0  0  0  0  0  0  0  0  0  0
    6.3644   -0.0084   -0.0224 C   0  0  0  0  0  0  0  0  0  0  0  0
    5.6108    0.9718    0.6327 C   0  0  0  0  0  0  0  0  0  0  0  0
    4.2253    0.9330    0.4742 C   0  0  0  0  0  0  0  0  0  0  0  0
   -3.6253   -0.0473    3.6758 H   0  0  0  0  0  0  0  0  0  0  0  0
   -2.3354    0.6054    2.6708 H   0  0  0  0  0  0  0  0  0  0  0  0
   -2.3083   -1.1409    3.2089 H   0  0  0  0  0  0  0  0  0  0  0  0
   -5.2610   -0.5173   -0.5242 H   0  0  0  0  0  0  0  0  0  0  0  0
   -4.2193   -2.0147   -0.8396 H   0  0  0  0  0  0  0  0  0  0  0  0
   -2.9841   -0.9351   -2.5126 H   0  0  0  0  0  0  0  0  0  0  0  0
   -4.5765   -0.2256   -2.8161 H   0  0  0  0  0  0  0  0  0  0  0  0
   -3.8583    1.7403   -1.3198 H   0  0  0  0  0  0  0  0  0  0  0  0
   -2.9365    1.4780   -2.8412 H   0  0  0  0  0  0  0  0  0  0  0  0
   -0.6720   -0.6702    1.5399 H   0  0  0  0  0  0  0  0  0  0  0  0
    1.6555    0.8293    1.2855 H   0  0  0  0  0  0  0  0  0  0  0  0
    1.8050    1.8675   -0.1627 H   0  0  0  0  0  0  0  0  0  0  0  0
    3.9265   -1.7554   -1.5442 H   0  0  0  0  0  0  0  0  0  0  0  0
    6.3234   -1.7498   -1.3156 H   0  0  0  0  0  0  0  0  0  0  0  0
    7.4567    0.0040    0.0891 H   0  0  0  0  0  0  0  0  0  0  0  0
    6.1028    1.7256    1.2369 H   0  0  0  0  0  0  0  0  0  0  0  0
    3.6091    1.6899    0.9768 H   0  0  0  0  0  0  0  0  0  0  0  0
  1  2  1  0
  2  3  2  0
  2  4  1  0
  4  5  1  0
  5  6  1  0
  6  7  1  0
  7  8  1  0
  8  9  1  0
  9 10  2  0
 10 11  1  0
 11 12  2  0
 11 13  1  0
 13 14  1  0
 14 15  1  0
 15 16  2  0
 16 17  1  0
 17 18  2  0
 18 19  1  0
 19 20  2  0
  9  4  1  0
 20 15  1  0
 12  8  1  0
  1 21  1  0
  1 22  1  0
  1 23  1  0
  5 24  1  0
  5 25  1  0
  6 26  1  0
  6 27  1  0
  7 28  1  0
  7 29  1  0
 10 30  1  0
 13 31  1  0
 13 32  1  0
 16 33  1  0
 17 34  1  0
 18 35  1  0
 19 36  1  0
 20 37  1  0
M  END
>  <Ligand ID>  (1) 
LIG0000434

>  <Ligand>  (1) 
CHEMBL3633943

>  <SMILES>  (1) 
CC(=O)N1CCCn2c1cc(n2)COc1ccccc1

>  <CID>  (1) 
122195692.0

>  <ChEMBL ID>  (1) 
nan

>  <InChiKey>  (1) 
RVWOJJBVBVIEID-UHFFFAOYSA-N

>  <InChi>  (1) 
InChI=1S/C15H17N3O2/c1-12(19)17-8-5-9-18-15(17)10-13(16-18)11-20-14-6-3-2-4-7-14/h2-4,6-7,10H,5,8-9,11H2,1H3

>  <IUPAC Name>  (1) 
1-[2-(phenoxymethyl)-6,7-dihydro-5H-pyrazolo[1,5-a]pyrimidin-4-yl]ethanone

$$$$
