
     RDKit          3D

 45 47  0  0  0  0  0  0  0  0999 V2000
   -2.2766    0.1921   -2.0122 C   0  0  0  0  0  0  0  0  0  0  0  0
   -2.1072    0.5341   -0.5580 C   0  0  0  0  0  0  0  0  0  0  0  0
   -2.8141    1.8800   -0.3584 C   0  0  0  0  0  0  0  0  0  0  0  0
   -2.8492   -0.4176    0.3436 C   0  0  0  0  0  0  0  0  0  0  0  0
   -2.1782   -1.7571    0.4839 C   0  0  0  0  0  0  0  0  0  0  0  0
   -0.8057   -1.5363    1.0679 C   0  0  0  0  0  0  0  0  0  0  0  0
    0.0207   -0.5958    0.1981 C   0  0  1  0  0  0  0  0  0  0  0  0
   -0.7316    0.6898   -0.0759 C   0  0  1  0  0  0  0  0  0  0  0  0
    0.1469    1.5652   -0.9300 C   0  0  0  0  0  0  0  0  0  0  0  0
    1.4480    1.8837   -0.2752 C   0  0  0  0  0  0  0  0  0  0  0  0
    2.1723    0.7061    0.2823 C   0  0  2  0  0  0  0  0  0  0  0  0
    1.1802   -0.1568    0.9958 C   0  0  2  0  0  0  0  0  0  0  0  0
    2.0547   -1.1454    1.6290 C   0  0  0  0  0  0  0  0  0  0  0  0
    3.2952   -0.2867    1.8693 C   0  0  0  0  0  0  0  0  0  0  0  0
    2.9639    1.0038    1.3993 O   0  0  0  0  0  0  0  0  0  0  0  0
    3.0667   -0.0188   -0.6704 C   0  0  0  0  0  0  0  0  0  0  0  0
    0.3475   -1.3566   -1.0445 C   0  0  0  0  0  0  0  0  0  0  0  0
   -3.0189    0.8469   -2.5374 H   0  0  0  0  0  0  0  0  0  0  0  0
   -2.7457   -0.8237   -2.0662 H   0  0  0  0  0  0  0  0  0  0  0  0
   -1.3543    0.2791   -2.6048 H   0  0  0  0  0  0  0  0  0  0  0  0
   -2.5282    2.5959   -1.1439 H   0  0  0  0  0  0  0  0  0  0  0  0
   -2.5563    2.2127    0.6632 H   0  0  0  0  0  0  0  0  0  0  0  0
   -3.9094    1.6460   -0.3735 H   0  0  0  0  0  0  0  0  0  0  0  0
   -2.8556    0.0321    1.3737 H   0  0  0  0  0  0  0  0  0  0  0  0
   -3.9289   -0.5016    0.0696 H   0  0  0  0  0  0  0  0  0  0  0  0
   -2.1906   -2.3658   -0.4283 H   0  0  0  0  0  0  0  0  0  0  0  0
   -2.7611   -2.3219    1.2387 H   0  0  0  0  0  0  0  0  0  0  0  0
   -0.9225   -1.0988    2.0706 H   0  0  0  0  0  0  0  0  0  0  0  0
   -0.2328   -2.4902    1.0962 H   0  0  0  0  0  0  0  0  0  0  0  0
   -0.8109    1.2161    0.9169 H   0  0  0  0  0  0  0  0  0  0  0  0
    0.3426    1.1912   -1.9340 H   0  0  0  0  0  0  0  0  0  0  0  0
   -0.3896    2.5512   -1.0391 H   0  0  0  0  0  0  0  0  0  0  0  0
    1.3106    2.6853    0.4807 H   0  0  0  0  0  0  0  0  0  0  0  0
    2.1054    2.3265   -1.0788 H   0  0  0  0  0  0  0  0  0  0  0  0
    0.7682    0.5042    1.8165 H   0  0  0  0  0  0  0  0  0  0  0  0
    2.2734   -2.0404    1.0265 H   0  0  0  0  0  0  0  0  0  0  0  0
    1.6138   -1.4524    2.6111 H   0  0  0  0  0  0  0  0  0  0  0  0
    4.1910   -0.7021    1.3887 H   0  0  0  0  0  0  0  0  0  0  0  0
    3.4557   -0.1734    2.9644 H   0  0  0  0  0  0  0  0  0  0  0  0
    4.1565    0.1594   -0.4613 H   0  0  0  0  0  0  0  0  0  0  0  0
    2.9354    0.4365   -1.6857 H   0  0  0  0  0  0  0  0  0  0  0  0
    2.9606   -1.1078   -0.6661 H   0  0  0  0  0  0  0  0  0  0  0  0
    0.8690   -2.2844   -0.7210 H   0  0  0  0  0  0  0  0  0  0  0  0
   -0.5870   -1.7140   -1.5083 H   0  0  0  0  0  0  0  0  0  0  0  0
    0.8762   -0.7902   -1.8131 H   0  0  0  0  0  0  0  0  0  0  0  0
  1  2  1  0
  2  3  1  0
  2  4  1  0
  4  5  1  0
  5  6  1  0
  6  7  1  0
  7  8  1  0
  8  9  1  0
  9 10  1  0
 10 11  1  0
 11 12  1  0
 12 13  1  0
 13 14  1  0
 14 15  1  0
 11 16  1  6
  7 17  1  6
  8  2  1  0
 15 11  1  0
 12  7  1  0
  1 18  1  0
  1 19  1  0
  1 20  1  0
  3 21  1  0
  3 22  1  0
  3 23  1  0
  4 24  1  0
  4 25  1  0
  5 26  1  0
  5 27  1  0
  6 28  1  0
  6 29  1  0
  8 30  1  1
  9 31  1  0
  9 32  1  0
 10 33  1  0
 10 34  1  0
 12 35  1  1
 13 36  1  0
 13 37  1  0
 14 38  1  0
 14 39  1  0
 16 40  1  0
 16 41  1  0
 16 42  1  0
 17 43  1  0
 17 44  1  0
 17 45  1  0
M  END
>  <Ligand ID>  (1) 
LIG0000734

>  <Ligand>  (1) 
(-)-Ambroxide

>  <SMILES>  (1) 
CC1(C)CCC[C@]2([C@H]1CC[C@@]1([C@@H]2CCO1)C)C

>  <CID>  (1) 
10857465.0

>  <ChEMBL ID>  (1) 
nan

>  <InChiKey>  (1) 
YPZUZOLGGMJZJO-LQKXBSAESA-N

>  <InChi>  (1) 
InChI=1S/C16H28O/c1-14(2)8-5-9-15(3)12(14)6-10-16(4)13(15)7-11-17-16/h12-13H,5-11H2,1-4H3/t12-,13+,15-,16+/m0/s1

>  <IUPAC Name>  (1) 
(3aR,5aS,9aS,9bR)-3a,6,6,9a-tetramethyl-2,4,5,5a,7,8,9,9b-octahydro-1H-benzo[e][1]benzofuran

$$$$
