
     RDKit          3D

 57 60  0  0  0  0  0  0  0  0999 V2000
   -2.9849   -1.2387   -1.8700 O   0  0  0  0  0  0  0  0  0  0  0  0
   -2.1575   -1.0865   -0.7335 C   0  0  0  0  0  0  0  0  0  0  0  0
   -1.9916    0.3898   -0.4075 C   0  0  0  0  0  0  0  0  0  0  0  0
   -1.1185    0.6020    0.7950 C   0  0  0  0  0  0  0  0  0  0  0  0
    0.3681    0.5182    0.4224 C   0  0  0  0  0  0  0  0  0  0  0  0
    0.6652    1.7136   -0.2945 N   0  0  0  0  0  0  0  0  0  0  0  0
   -0.4016    2.1554   -1.1389 C   0  0  0  0  0  0  0  0  0  0  0  0
   -1.2998    1.0297   -1.5929 C   0  0  0  0  0  0  0  0  0  0  0  0
    1.9756    1.8094   -0.8513 C   0  0  0  0  0  0  0  0  0  0  0  0
    2.3311    0.7683   -1.8215 C   0  0  0  0  0  0  0  0  0  0  0  0
    2.1459    0.7971   -3.1539 N   0  0  0  0  0  0  0  0  0  0  0  0
    2.5901   -0.3249   -3.7278 C   0  0  0  0  0  0  0  0  0  0  0  0
    3.0811   -1.1007   -2.6986 C   0  0  0  0  0  0  0  0  0  0  0  0
    2.9093   -0.4043   -1.5371 N   0  0  0  0  0  0  0  0  0  0  0  0
    3.3204   -0.9453   -0.2885 C   0  0  0  0  0  0  0  0  0  0  0  0
    2.7701   -2.0840    0.2633 C   0  0  0  0  0  0  0  0  0  0  0  0
    3.2641   -2.5018    1.4863 C   0  0  0  0  0  0  0  0  0  0  0  0
    4.2660   -1.8337    2.1582 C   0  0  0  0  0  0  0  0  0  0  0  0
    4.8155   -0.6988    1.6098 C   0  0  0  0  0  0  0  0  0  0  0  0
    4.3231   -0.2793    0.3872 C   0  0  0  0  0  0  0  0  0  0  0  0
    5.8935    0.0383    2.3113 C   0  0  0  0  0  0  0  0  0  0  0  0
   -3.3148    1.0735   -0.2265 C   0  0  0  0  0  0  0  0  0  0  0  0
   -4.1482    0.5288    0.8518 C   0  0  0  0  0  0  0  0  0  0  0  0
   -5.0693   -0.4863    0.6953 C   0  0  0  0  0  0  0  0  0  0  0  0
   -5.8279   -0.9656    1.7311 C   0  0  0  0  0  0  0  0  0  0  0  0
   -5.7042   -0.4452    3.0056 C   0  0  0  0  0  0  0  0  0  0  0  0
   -4.7873    0.5701    3.1770 C   0  0  0  0  0  0  0  0  0  0  0  0
   -4.0172    1.0555    2.1215 C   0  0  0  0  0  0  0  0  0  0  0  0
   -3.5644   -2.0401   -1.7518 H   0  0  0  0  0  0  0  0  0  0  0  0
   -1.1831   -1.5141   -1.0467 H   0  0  0  0  0  0  0  0  0  0  0  0
   -2.5000   -1.6893    0.1229 H   0  0  0  0  0  0  0  0  0  0  0  0
   -1.2683    1.6449    1.1601 H   0  0  0  0  0  0  0  0  0  0  0  0
   -1.3534   -0.0694    1.6346 H   0  0  0  0  0  0  0  0  0  0  0  0
    0.9391    0.4346    1.3470 H   0  0  0  0  0  0  0  0  0  0  0  0
    0.4503   -0.4046   -0.1871 H   0  0  0  0  0  0  0  0  0  0  0  0
   -1.0492    2.8158   -0.5007 H   0  0  0  0  0  0  0  0  0  0  0  0
   -0.0085    2.6971   -2.0071 H   0  0  0  0  0  0  0  0  0  0  0  0
   -2.0649    1.4465   -2.2628 H   0  0  0  0  0  0  0  0  0  0  0  0
   -0.7538    0.2613   -2.1737 H   0  0  0  0  0  0  0  0  0  0  0  0
    1.9926    2.7866   -1.4149 H   0  0  0  0  0  0  0  0  0  0  0  0
    2.7572    1.9278   -0.0812 H   0  0  0  0  0  0  0  0  0  0  0  0
    2.6046   -0.6426   -4.7532 H   0  0  0  0  0  0  0  0  0  0  0  0
    3.5287   -2.0991   -2.8037 H   0  0  0  0  0  0  0  0  0  0  0  0
    1.9846   -2.6075   -0.2638 H   0  0  0  0  0  0  0  0  0  0  0  0
    2.8454   -3.4030    1.9477 H   0  0  0  0  0  0  0  0  0  0  0  0
    4.6006   -2.2120    3.1004 H   0  0  0  0  0  0  0  0  0  0  0  0
    4.7583    0.6054   -0.0308 H   0  0  0  0  0  0  0  0  0  0  0  0
    6.8426   -0.5228    2.3222 H   0  0  0  0  0  0  0  0  0  0  0  0
    5.5514    0.3386    3.3375 H   0  0  0  0  0  0  0  0  0  0  0  0
    6.0436    1.0062    1.7628 H   0  0  0  0  0  0  0  0  0  0  0  0
   -3.9113    1.0791   -1.1640 H   0  0  0  0  0  0  0  0  0  0  0  0
   -3.0907    2.1562   -0.0364 H   0  0  0  0  0  0  0  0  0  0  0  0
   -5.2014   -0.9223   -0.2759 H   0  0  0  0  0  0  0  0  0  0  0  0
   -6.5414   -1.7579    1.5909 H   0  0  0  0  0  0  0  0  0  0  0  0
   -6.2840   -0.7962    3.8477 H   0  0  0  0  0  0  0  0  0  0  0  0
   -4.6847    0.9828    4.1721 H   0  0  0  0  0  0  0  0  0  0  0  0
   -3.3365    1.8436    2.3603 H   0  0  0  0  0  0  0  0  0  0  0  0
  1  2  1  0
  2  3  1  0
  3  4  1  0
  4  5  1  0
  5  6  1  0
  6  7  1  0
  7  8  1  0
  6  9  1  0
  9 10  1  0
 10 11  2  0
 11 12  1  0
 12 13  2  0
 13 14  1  0
 14 15  1  0
 15 16  2  0
 16 17  1  0
 17 18  2  0
 18 19  1  0
 19 20  2  0
 19 21  1  0
  3 22  1  0
 22 23  1  0
 23 24  2  0
 24 25  1  0
 25 26  2  0
 26 27  1  0
 27 28  2  0
  8  3  1  0
 14 10  1  0
 20 15  1  0
 28 23  1  0
  1 29  1  0
  2 30  1  0
  2 31  1  0
  4 32  1  0
  4 33  1  0
  5 34  1  0
  5 35  1  0
  7 36  1  0
  7 37  1  0
  8 38  1  0
  8 39  1  0
  9 40  1  0
  9 41  1  0
 12 42  1  0
 13 43  1  0
 16 44  1  0
 17 45  1  0
 18 46  1  0
 20 47  1  0
 21 48  1  0
 21 49  1  0
 21 50  1  0
 22 51  1  0
 22 52  1  0
 24 53  1  0
 25 54  1  0
 26 55  1  0
 27 56  1  0
 28 57  1  0
M  END
>  <Ligand ID>  (1) 
LIG0003774

>  <Ligand>  (1) 
MLS000735813

>  <SMILES>  (1) 
OCC1(CCN(CC1)Cc1nccn1c1cccc(c1)C)Cc1ccccc1

>  <CID>  (1) 
16192384.0

>  <ChEMBL ID>  (1) 
nan

>  <InChiKey>  (1) 
MMIVEZDJGWJOOL-UHFFFAOYSA-N

>  <InChi>  (1) 
InChI=1S/C24H29N3O/c1-20-6-5-9-22(16-20)27-15-12-25-23(27)18-26-13-10-24(19-28,11-14-26)17-21-7-3-2-4-8-21/h2-9,12,15-16,28H,10-11,13-14,17-19H2,1H3

>  <IUPAC Name>  (1) 
[4-benzyl-1-[[1-(3-methylphenyl)imidazol-2-yl]methyl]piperidin-4-yl]methanol

$$$$
