
     RDKit          3D

 25 24  0  0  0  0  0  0  0  0999 V2000
   -2.3603   -0.9758   -1.2376 C   0  0  0  0  0  0  0  0  0  0  0  0
   -2.1551   -0.3496    0.1013 C   0  0  0  0  0  0  0  0  0  0  0  0
   -0.8720    0.4286    0.2463 C   0  0  1  0  0  0  0  0  0  0  0  0
   -0.8903    0.9499    1.6400 C   0  0  0  0  0  0  0  0  0  0  0  0
   -0.0045    0.6662    2.4915 O   0  0  0  0  0  0  0  0  0  0  0  0
   -1.9497    1.7862    1.9824 O   0  0  0  0  0  0  0  0  0  0  0  0
    0.3497   -0.3787   -0.0549 C   0  0  0  0  0  0  0  0  0  0  0  0
    1.6531    0.3123    0.0639 C   0  0  1  0  0  0  0  0  0  0  0  0
    2.7911   -0.5968   -0.2612 C   0  0  0  0  0  0  0  0  0  0  0  0
    3.5305   -0.2737   -1.2511 O   0  0  0  0  0  0  0  0  0  0  0  0
    3.0605   -1.7514    0.4625 O   0  0  0  0  0  0  0  0  0  0  0  0
    1.7514    1.3822   -0.9427 N   0  0  0  0  0  0  0  0  0  0  0  0
   -1.5398   -1.5766   -1.6266 H   0  0  0  0  0  0  0  0  0  0  0  0
   -2.7686   -0.2355   -1.9727 H   0  0  0  0  0  0  0  0  0  0  0  0
   -3.2091   -1.7021   -1.1047 H   0  0  0  0  0  0  0  0  0  0  0  0
   -2.9809    0.3860    0.2480 H   0  0  0  0  0  0  0  0  0  0  0  0
   -2.2228   -1.1190    0.8812 H   0  0  0  0  0  0  0  0  0  0  0  0
   -0.9154    1.2743   -0.4709 H   0  0  0  0  0  0  0  0  0  0  0  0
   -1.8541    2.4595    2.7544 H   0  0  0  0  0  0  0  0  0  0  0  0
    0.2765   -0.8407   -1.0596 H   0  0  0  0  0  0  0  0  0  0  0  0
    0.3597   -1.2507    0.6477 H   0  0  0  0  0  0  0  0  0  0  0  0
    1.8410    0.8047    1.0203 H   0  0  0  0  0  0  0  0  0  0  0  0
    3.8193   -2.3410    0.1371 H   0  0  0  0  0  0  0  0  0  0  0  0
    2.5693    1.9786   -0.7903 H   0  0  0  0  0  0  0  0  0  0  0  0
    1.7204    0.9632   -1.9043 H   0  0  0  0  0  0  0  0  0  0  0  0
  1  2  1  0
  2  3  1  0
  3  4  1  0
  4  5  2  0
  4  6  1  0
  3  7  1  0
  7  8  1  0
  8  9  1  0
  9 10  2  0
  9 11  1  0
  8 12  1  0
  1 13  1  0
  1 14  1  0
  1 15  1  0
  2 16  1  0
  2 17  1  0
  3 18  1  6
  6 19  1  0
  7 20  1  0
  7 21  1  0
  8 22  1  1
 11 23  1  0
 12 24  1  0
 12 25  1  0
M  END
>  <Ligand ID>  (1) 
LIG0001654

>  <Ligand>  (1) 
CHEMBL372124

>  <SMILES>  (1) 
CC[C@@H](C(=O)O)C[C@@H](C(=O)O)N

>  <CID>  (1) 
9920506.0

>  <ChEMBL ID>  (1) 
nan

>  <InChiKey>  (1) 
JPMICTZIAZZHCD-UHNVWZDZSA-N

>  <InChi>  (1) 
InChI=1S/C7H13NO4/c1-2-4(6(9)10)3-5(8)7(11)12/h4-5H,2-3,8H2,1H3,(H,9,10)(H,11,12)/t4-,5+/m1/s1

>  <IUPAC Name>  (1) 
(2S,4R)-2-amino-4-ethylpentanedioic acid

$$$$
