
     RDKit          3D

 44 44  0  0  0  0  0  0  0  0999 V2000
    7.0011   -1.2767    0.2563 O   0  0  0  0  0  0  0  0  0  0  0  0
    6.2376   -1.7556   -0.7985 C   0  0  0  0  0  0  0  0  0  0  0  0
    6.7662   -2.5645   -1.6146 O   0  0  0  0  0  0  0  0  0  0  0  0
    4.8234   -1.3155   -0.9526 C   0  0  0  0  0  0  0  0  0  0  0  0
    4.4565   -0.4155    0.0730 O   0  0  0  0  0  0  0  0  0  0  0  0
    3.1674    0.1063    0.0961 C   0  0  0  0  0  0  0  0  0  0  0  0
    2.2017   -0.1932   -0.8229 C   0  0  0  0  0  0  0  0  0  0  0  0
    0.9358    0.3882   -0.7068 C   0  0  0  0  0  0  0  0  0  0  0  0
    0.6196    1.2590    0.3062 C   0  0  0  0  0  0  0  0  0  0  0  0
    1.6313    1.5370    1.2205 C   0  0  0  0  0  0  0  0  0  0  0  0
    2.8705    0.9830    1.1274 C   0  0  0  0  0  0  0  0  0  0  0  0
    3.8960    1.3208    2.1301 C   0  0  0  0  0  0  0  0  0  0  0  0
    3.6459    2.1151    3.0745 O   0  0  0  0  0  0  0  0  0  0  0  0
    5.1708    0.7561    2.0414 O   0  0  0  0  0  0  0  0  0  0  0  0
   -0.6728    1.9090    0.5014 C   0  0  0  0  0  0  0  0  0  0  0  0
   -2.0297    1.1784   -0.4011 P   0  0  0  0  0  0  0  0  0  0  0  0
   -3.2519    2.0093   -0.0969 O   0  0  0  0  0  0  0  0  0  0  0  0
   -2.3735   -0.5192    0.1176 C   0  0  0  0  0  0  0  0  0  0  0  0
   -3.3920   -1.1981   -0.7227 C   0  0  0  0  0  0  0  0  0  0  0  0
   -4.7500   -0.5836   -0.7476 C   0  0  2  0  0  0  0  0  0  0  0  0
   -5.3858   -0.5397    0.5929 C   0  0  0  0  0  0  0  0  0  0  0  0
   -4.8693    0.0306    1.5923 O   0  0  0  0  0  0  0  0  0  0  0  0
   -6.6272   -1.1456    0.8269 O   0  0  0  0  0  0  0  0  0  0  0  0
   -5.6273   -1.3464   -1.6202 N   0  0  0  0  0  0  0  0  0  0  0  0
   -1.8135    1.2610   -2.0754 O   0  0  0  0  0  0  0  0  0  0  0  0
   -0.9864    1.8010    1.8691 O   0  0  0  0  0  0  0  0  0  0  0  0
    7.8703   -1.7165    0.5499 H   0  0  0  0  0  0  0  0  0  0  0  0
    4.6711   -0.9252   -1.9724 H   0  0  0  0  0  0  0  0  0  0  0  0
    4.1430   -2.2014   -0.8511 H   0  0  0  0  0  0  0  0  0  0  0  0
    2.4378   -0.8769   -1.6247 H   0  0  0  0  0  0  0  0  0  0  0  0
    0.1534    0.1653   -1.4246 H   0  0  0  0  0  0  0  0  0  0  0  0
    1.4265    2.2298    2.0514 H   0  0  0  0  0  0  0  0  0  0  0  0
    5.7649    0.6650    2.8610 H   0  0  0  0  0  0  0  0  0  0  0  0
   -0.6251    2.9848    0.2869 H   0  0  0  0  0  0  0  0  0  0  0  0
   -2.6478   -0.5271    1.1841 H   0  0  0  0  0  0  0  0  0  0  0  0
   -1.4162   -1.0879    0.0014 H   0  0  0  0  0  0  0  0  0  0  0  0
   -3.0319   -1.2917   -1.7776 H   0  0  0  0  0  0  0  0  0  0  0  0
   -3.5288   -2.2381   -0.3097 H   0  0  0  0  0  0  0  0  0  0  0  0
   -4.7147    0.4921   -1.0894 H   0  0  0  0  0  0  0  0  0  0  0  0
   -7.1960   -0.7735    1.5610 H   0  0  0  0  0  0  0  0  0  0  0  0
   -5.1532   -1.7818   -2.4209 H   0  0  0  0  0  0  0  0  0  0  0  0
   -6.4914   -0.8064   -1.8655 H   0  0  0  0  0  0  0  0  0  0  0  0
   -2.1382    0.4115   -2.4551 H   0  0  0  0  0  0  0  0  0  0  0  0
   -1.1681    0.8430    2.0290 H   0  0  0  0  0  0  0  0  0  0  0  0
  1  2  1  0
  2  3  2  0
  2  4  1  0
  4  5  1  0
  5  6  1  0
  6  7  2  0
  7  8  1  0
  8  9  2  0
  9 10  1  0
 10 11  2  0
 11 12  1  0
 12 13  2  0
 12 14  1  0
  9 15  1  0
 15 16  1  0
 16 17  2  0
 16 18  1  0
 18 19  1  0
 19 20  1  0
 20 21  1  0
 21 22  2  0
 21 23  1  0
 20 24  1  0
 16 25  1  0
 15 26  1  0
 11  6  1  0
  1 27  1  0
  4 28  1  0
  4 29  1  0
  7 30  1  0
  8 31  1  0
 10 32  1  0
 14 33  1  0
 15 34  1  0
 18 35  1  0
 18 36  1  0
 19 37  1  0
 19 38  1  0
 20 39  1  6
 23 40  1  0
 24 41  1  0
 24 42  1  0
 25 43  1  0
 26 44  1  0
M  END
>  <Ligand ID>  (1) 
LIG0002476

>  <Ligand>  (1) 
US9212196, Derivative 23

>  <SMILES>  (1) 
OC(=O)COc1ccc(cc1C(=O)O)C(P(=O)(CC[C@H](C(=O)O)N)O)O

>  <CID>  (1) 
122197953.0

>  <ChEMBL ID>  (1) 
nan

>  <InChiKey>  (1) 
HLBMHNZCZUXUSO-UCWRFOARSA-N

>  <InChi>  (1) 
InChI=1S/C14H18NO10P/c15-9(13(20)21)3-4-26(23,24)14(22)7-1-2-10(25-6-11(16)17)8(5-7)12(18)19/h1-2,5,9,14,22H,3-4,6,15H2,(H,16,17)(H,18,19)(H,20,21)(H,23,24)/t9-,14?/m1/s1

>  <IUPAC Name>  (1) 
5-[[[(3R)-3-amino-3-carboxypropyl]-hydroxyphosphoryl]-hydroxymethyl]-2-(carboxymethoxy)benzoic acid

$$$$
