
     RDKit          3D

 44 48  0  0  0  0  0  0  0  0999 V2000
   -0.5460    1.6019    1.0224 O   0  0  0  0  0  0  0  0  0  0  0  0
   -0.4755    0.6913    0.1545 C   0  0  0  0  0  0  0  0  0  0  0  0
   -1.6421   -0.0586   -0.1501 N   0  0  0  0  0  0  0  0  0  0  0  0
   -1.8609   -1.1324   -1.0758 C   0  0  0  0  0  0  0  0  0  0  0  0
   -3.3014   -0.9650   -1.5142 C   0  0  0  0  0  0  0  0  0  0  0  0
   -3.9237   -0.3646   -0.3018 C   0  0  0  0  0  0  0  0  0  0  0  0
   -2.9129    0.1626    0.4829 C   0  0  0  0  0  0  0  0  0  0  0  0
   -3.2803    0.7737    1.6686 C   0  0  0  0  0  0  0  0  0  0  0  0
   -4.5864    0.8763    2.0911 C   0  0  0  0  0  0  0  0  0  0  0  0
   -5.5833    0.3458    1.2981 C   0  0  0  0  0  0  0  0  0  0  0  0
   -5.2547   -0.2748    0.1019 C   0  0  0  0  0  0  0  0  0  0  0  0
    0.8219    0.4613   -0.4933 C   0  0  0  0  0  0  0  0  0  0  0  0
    1.8676    1.4219    0.0307 C   0  0  0  0  0  0  0  0  0  0  0  0
    3.1114    1.3450   -0.8149 C   0  0  0  0  0  0  0  0  0  0  0  0
    3.6588   -0.0718   -0.7128 C   0  0  0  0  0  0  0  0  0  0  0  0
    2.6126   -1.0135   -1.2119 C   0  0  0  0  0  0  0  0  0  0  0  0
    1.3716   -0.9260   -0.3332 C   0  0  0  0  0  0  0  0  0  0  0  0
    1.7194   -1.2091    1.1102 C   0  0  0  0  0  0  0  0  0  0  0  0
    2.8206   -0.2960    1.5754 C   0  0  0  0  0  0  0  0  0  0  0  0
    2.2608    1.1248    1.4527 C   0  0  0  0  0  0  0  0  0  0  0  0
    4.0466   -0.3295    0.7144 C   0  0  0  0  0  0  0  0  0  0  0  0
   -1.6783   -2.1446   -0.6548 H   0  0  0  0  0  0  0  0  0  0  0  0
   -1.2432   -0.9908   -1.9844 H   0  0  0  0  0  0  0  0  0  0  0  0
   -3.3706   -0.2999   -2.3811 H   0  0  0  0  0  0  0  0  0  0  0  0
   -3.7996   -1.9391   -1.7214 H   0  0  0  0  0  0  0  0  0  0  0  0
   -2.5111    1.1921    2.2971 H   0  0  0  0  0  0  0  0  0  0  0  0
   -4.8440    1.3682    3.0388 H   0  0  0  0  0  0  0  0  0  0  0  0
   -6.6337    0.4100    1.6044 H   0  0  0  0  0  0  0  0  0  0  0  0
   -6.0106   -0.7009   -0.5433 H   0  0  0  0  0  0  0  0  0  0  0  0
    0.7242    0.6781   -1.5762 H   0  0  0  0  0  0  0  0  0  0  0  0
    1.4354    2.4324    0.0082 H   0  0  0  0  0  0  0  0  0  0  0  0
    3.8452    2.0426   -0.3162 H   0  0  0  0  0  0  0  0  0  0  0  0
    2.9557    1.6674   -1.8564 H   0  0  0  0  0  0  0  0  0  0  0  0
    4.5664   -0.1380   -1.3374 H   0  0  0  0  0  0  0  0  0  0  0  0
    2.9677   -2.0375   -1.3655 H   0  0  0  0  0  0  0  0  0  0  0  0
    2.2677   -0.6325   -2.2128 H   0  0  0  0  0  0  0  0  0  0  0  0
    0.6687   -1.6659   -0.7058 H   0  0  0  0  0  0  0  0  0  0  0  0
    1.9905   -2.2750    1.2088 H   0  0  0  0  0  0  0  0  0  0  0  0
    0.8194   -0.9642    1.7193 H   0  0  0  0  0  0  0  0  0  0  0  0
    3.0433   -0.4430    2.6314 H   0  0  0  0  0  0  0  0  0  0  0  0
    3.1159    1.7916    1.6874 H   0  0  0  0  0  0  0  0  0  0  0  0
    1.4447    1.1866    2.1715 H   0  0  0  0  0  0  0  0  0  0  0  0
    4.6418   -1.2392    0.8568 H   0  0  0  0  0  0  0  0  0  0  0  0
    4.6805    0.5383    1.0420 H   0  0  0  0  0  0  0  0  0  0  0  0
  1  2  2  0
  2  3  1  0
  3  4  1  0
  4  5  1  0
  5  6  1  0
  6  7  2  0
  7  8  1  0
  8  9  2  0
  9 10  1  0
 10 11  2  0
  2 12  1  0
 12 13  1  0
 13 14  1  0
 14 15  1  0
 15 16  1  0
 16 17  1  0
 17 18  1  0
 18 19  1  0
 19 20  1  0
 19 21  1  0
  7  3  1  0
 17 12  1  0
 11  6  1  0
 20 13  1  0
 21 15  1  0
  4 22  1  0
  4 23  1  0
  5 24  1  0
  5 25  1  0
  8 26  1  0
  9 27  1  0
 10 28  1  0
 11 29  1  0
 12 30  1  0
 13 31  1  0
 14 32  1  0
 14 33  1  0
 15 34  1  0
 16 35  1  0
 16 36  1  0
 17 37  1  0
 18 38  1  0
 18 39  1  0
 19 40  1  0
 20 41  1  0
 20 42  1  0
 21 43  1  0
 21 44  1  0
M  END
>  <Ligand ID>  (1) 
LIG0001379

>  <Ligand>  (1) 
CHEMBL2338188

>  <SMILES>  (1) 
O=C(N1CCc2c1cccc2)C1C2CC3CC1CC(C2)C3

>  <CID>  (1) 
71559641.0

>  <ChEMBL ID>  (1) 
nan

>  <InChiKey>  (1) 
RTHRVYFSGYJUOV-UHFFFAOYSA-N

>  <InChi>  (1) 
InChI=1S/C19H23NO/c21-19(20-6-5-14-3-1-2-4-17(14)20)18-15-8-12-7-13(10-15)11-16(18)9-12/h1-4,12-13,15-16,18H,5-11H2

>  <IUPAC Name>  (1) 
2-adamantyl(2,3-dihydroindol-1-yl)methanone

$$$$
