
     RDKit          3D

 60 63  0  0  0  0  0  0  0  0999 V2000
   -7.3664   -3.6054    0.1421 C   0  0  0  0  0  0  0  0  0  0  0  0
   -7.3047   -2.2124   -0.1375 O   0  0  0  0  0  0  0  0  0  0  0  0
   -6.0433   -1.6425   -0.2682 C   0  0  0  0  0  0  0  0  0  0  0  0
   -4.8759   -2.3767   -0.1361 C   0  0  0  0  0  0  0  0  0  0  0  0
   -3.6408   -1.7749   -0.2725 C   0  0  0  0  0  0  0  0  0  0  0  0
   -3.5036   -0.4288   -0.5440 C   0  0  0  0  0  0  0  0  0  0  0  0
   -4.6556    0.3060   -0.6769 C   0  0  0  0  0  0  0  0  0  0  0  0
   -5.9103   -0.2884   -0.5415 C   0  0  0  0  0  0  0  0  0  0  0  0
   -2.1380    0.1014   -0.6987 C   0  0  0  0  0  0  0  0  0  0  0  0
   -1.5442    0.4251    0.6176 C   0  0  2  0  0  0  0  0  0  0  0  0
   -2.3818    1.4624    1.3136 C   0  0  0  0  0  0  0  0  0  0  0  0
   -1.8714    2.6847    0.6742 N   0  0  0  0  0  0  0  0  0  0  0  0
   -0.4913    2.4454    0.4500 C   0  0  0  0  0  0  0  0  0  0  0  0
    0.1159    3.5587    0.2532 N   0  0  0  0  0  0  0  0  0  0  0  0
   -0.7887    4.6740    0.3248 C   0  0  0  0  0  0  0  0  0  0  0  0
   -2.1302    4.0083    0.1685 C   0  0  2  0  0  0  0  0  0  0  0  0
   -3.2177    4.7218    0.9344 C   0  0  0  0  0  0  0  0  0  0  0  0
   -0.2147    1.0250    0.5203 N   0  0  0  0  0  0  0  0  0  0  0  0
    1.0817    0.3751    0.5044 C   0  0  0  0  0  0  0  0  0  0  0  0
    1.3982   -0.4347   -0.6899 C   0  0  0  0  0  0  0  0  0  0  0  0
    2.7095   -1.0499   -0.6288 N   0  0  0  0  0  0  0  0  0  0  0  0
    3.9218   -0.3191   -0.5260 C   0  0  0  0  0  0  0  0  0  0  0  0
    3.8618    0.9325   -0.4878 O   0  0  0  0  0  0  0  0  0  0  0  0
    5.2369   -0.9427   -0.4614 C   0  0  0  0  0  0  0  0  0  0  0  0
    5.4371   -2.3047   -0.5138 C   0  0  0  0  0  0  0  0  0  0  0  0
    6.7014   -2.8814   -0.4469 C   0  0  0  0  0  0  0  0  0  0  0  0
    7.8225   -2.0856   -0.3227 C   0  0  0  0  0  0  0  0  0  0  0  0
    7.6421   -0.7279   -0.2691 C   0  0  0  0  0  0  0  0  0  0  0  0
    6.3786   -0.1631   -0.3365 C   0  0  0  0  0  0  0  0  0  0  0  0
    9.1794    0.3767   -0.0976 Br  0  0  0  0  0  0  0  0  0  0  0  0
    9.1352   -2.7520   -0.2567 C   0  0  0  0  0  0  0  0  0  0  0  0
   -7.0766   -4.1991   -0.7556 H   0  0  0  0  0  0  0  0  0  0  0  0
   -8.4165   -3.8806    0.4389 H   0  0  0  0  0  0  0  0  0  0  0  0
   -6.7042   -3.9153    0.9633 H   0  0  0  0  0  0  0  0  0  0  0  0
   -4.9259   -3.4386    0.0771 H   0  0  0  0  0  0  0  0  0  0  0  0
   -2.7683   -2.4088   -0.1570 H   0  0  0  0  0  0  0  0  0  0  0  0
   -4.6141    1.3522   -0.8979 H   0  0  0  0  0  0  0  0  0  0  0  0
   -6.8240    0.2842   -0.6453 H   0  0  0  0  0  0  0  0  0  0  0  0
   -1.5043   -0.5258   -1.3588 H   0  0  0  0  0  0  0  0  0  0  0  0
   -2.2783    1.0394   -1.3247 H   0  0  0  0  0  0  0  0  0  0  0  0
   -1.4483   -0.4372    1.2995 H   0  0  0  0  0  0  0  0  0  0  0  0
   -2.1867    1.4862    2.4043 H   0  0  0  0  0  0  0  0  0  0  0  0
   -3.4558    1.4242    1.1268 H   0  0  0  0  0  0  0  0  0  0  0  0
   -0.7786    5.1312    1.3430 H   0  0  0  0  0  0  0  0  0  0  0  0
   -0.5973    5.4325   -0.4629 H   0  0  0  0  0  0  0  0  0  0  0  0
   -2.3427    4.0107   -0.9257 H   0  0  0  0  0  0  0  0  0  0  0  0
   -3.4756    5.6518    0.3535 H   0  0  0  0  0  0  0  0  0  0  0  0
   -2.8997    5.0683    1.9162 H   0  0  0  0  0  0  0  0  0  0  0  0
   -4.1159    4.0749    0.9505 H   0  0  0  0  0  0  0  0  0  0  0  0
    1.0995   -0.2342    1.4575 H   0  0  0  0  0  0  0  0  0  0  0  0
    1.8787    1.1292    0.6658 H   0  0  0  0  0  0  0  0  0  0  0  0
    1.3170    0.0619   -1.6467 H   0  0  0  0  0  0  0  0  0  0  0  0
    0.6511   -1.2813   -0.7135 H   0  0  0  0  0  0  0  0  0  0  0  0
    2.8095   -2.0979   -0.6607 H   0  0  0  0  0  0  0  0  0  0  0  0
    4.6127   -2.9900   -0.6100 H   0  0  0  0  0  0  0  0  0  0  0  0
    6.8194   -3.9763   -0.4924 H   0  0  0  0  0  0  0  0  0  0  0  0
    6.3181    0.9087   -0.2875 H   0  0  0  0  0  0  0  0  0  0  0  0
    9.0115   -3.7531    0.2004 H   0  0  0  0  0  0  0  0  0  0  0  0
    9.5378   -2.8684   -1.2959 H   0  0  0  0  0  0  0  0  0  0  0  0
    9.8138   -2.1558    0.3973 H   0  0  0  0  0  0  0  0  0  0  0  0
  1  2  1  0
  2  3  1  0
  3  4  2  0
  4  5  1  0
  5  6  2  0
  6  7  1  0
  7  8  2  0
  6  9  1  0
  9 10  1  0
 10 11  1  0
 11 12  1  0
 12 13  1  0
 13 14  2  0
 14 15  1  0
 15 16  1  0
 16 17  1  0
 13 18  1  0
 18 19  1  0
 19 20  1  0
 20 21  1  0
 21 22  1  0
 22 23  2  0
 22 24  1  0
 24 25  2  0
 25 26  1  0
 26 27  2  0
 27 28  1  0
 28 29  2  0
 28 30  1  0
 27 31  1  0
  8  3  1  0
 18 10  1  0
 29 24  1  0
 16 12  1  0
  1 32  1  0
  1 33  1  0
  1 34  1  0
  4 35  1  0
  5 36  1  0
  7 37  1  0
  8 38  1  0
  9 39  1  0
  9 40  1  0
 10 41  1  1
 11 42  1  0
 11 43  1  0
 15 44  1  0
 15 45  1  0
 16 46  1  6
 17 47  1  0
 17 48  1  0
 17 49  1  0
 19 50  1  0
 19 51  1  0
 20 52  1  0
 20 53  1  0
 21 54  1  0
 25 55  1  0
 26 56  1  0
 29 57  1  0
 31 58  1  0
 31 59  1  0
 31 60  1  0
M  END
>  <Ligand ID>  (1) 
LIG0002309

>  <Ligand>  (1) 
MLS000697946

>  <SMILES>  (1) 
COc1ccc(cc1)C[C@@H]1CN2C(=NC[C@@H]2C)N1CCNC(=O)c1ccc(c(c1)Br)C

>  <CID>  (1) 
16195713.0

>  <ChEMBL ID>  (1) 
nan

>  <InChiKey>  (1) 
QKRDTRHILBXPIM-FXAWDEMLSA-N

>  <InChi>  (1) 
InChI=1S/C24H29BrN4O2/c1-16-4-7-19(13-22(16)25)23(30)26-10-11-28-20(15-29-17(2)14-27-24(28)29)12-18-5-8-21(31-3)9-6-18/h4-9,13,17,20H,10-12,14-15H2,1-3H3,(H,26,30)/t17-,20+/m0/s1

>  <IUPAC Name>  (1) 
3-bromo-N-[2-[(3S,6R)-6-[(4-methoxyphenyl)methyl]-3-methyl-2,3,5,6-tetrahydroimidazo[1,2-a]imidazol-7-yl]ethyl]-4-methylbenzamide

$$$$
