
     RDKit          3D

 71 77  0  0  0  0  0  0  0  0999 V2000
    7.3699    2.5005    0.8982 C   0  0  0  0  0  0  0  0  0  0  0  0
    5.9240    2.5756    0.3895 C   0  0  0  0  0  0  0  0  0  0  0  0
    5.8807    2.2655   -1.0767 C   0  0  0  0  0  0  0  0  0  0  0  0
    4.4963    2.3159   -1.6775 C   0  0  0  0  0  0  0  0  0  0  0  0
    3.6123    1.3220   -0.9997 C   0  0  0  0  0  0  0  0  0  0  0  0
    2.1945    1.3345   -1.5794 C   0  0  0  0  0  0  0  0  0  0  0  0
    1.4344    0.2937   -0.8030 C   0  0  0  0  0  0  0  0  0  0  0  0
    2.0436   -0.3389    0.0975 O   0  0  0  0  0  0  0  0  0  0  0  0
    0.0866    0.0510   -1.0902 N   0  0  0  0  0  0  0  0  0  0  0  0
   -0.7543   -0.9130   -0.4251 C   0  0  1  0  0  0  0  0  0  0  0  0
   -0.8239   -0.5682    1.0161 C   0  0  0  0  0  0  0  0  0  0  0  0
   -1.7522    0.5614    1.2187 C   0  0  0  0  0  0  0  0  0  0  0  0
   -2.7528    0.9512    0.3887 C   0  0  0  0  0  0  0  0  0  0  0  0
   -2.9866    0.2272   -0.8574 C   0  0  1  0  0  0  0  0  0  0  0  0
   -2.1198   -0.9951   -1.0018 C   0  0  1  0  0  0  0  0  0  0  0  0
   -2.1750   -1.4208   -2.4453 C   0  0  0  0  0  0  0  0  0  0  0  0
   -1.4977   -2.7463   -2.5731 C   0  0  0  0  0  0  0  0  0  0  0  0
   -0.1780   -2.6969   -2.0113 N   0  0  0  0  0  0  0  0  0  0  0  0
   -0.1470   -2.3101   -0.6308 C   0  0  0  0  0  0  0  0  0  0  0  0
   -0.8733   -3.3667    0.1536 C   0  0  0  0  0  0  0  0  0  0  0  0
   -2.3216   -3.1039    0.3292 C   0  0  0  0  0  0  0  0  0  0  0  0
   -2.8729   -1.9834   -0.1965 C   0  0  0  0  0  0  0  0  0  0  0  0
   -4.1880   -1.6009   -0.0860 C   0  0  0  0  0  0  0  0  0  0  0  0
   -4.2829   -0.3977   -0.7714 O   0  0  0  0  0  0  0  0  0  0  0  0
   -5.0206   -2.4339    0.6209 C   0  0  0  0  0  0  0  0  0  0  0  0
   -4.5055   -3.5969    1.1791 C   0  0  0  0  0  0  0  0  0  0  0  0
   -3.1606   -3.9476    1.0440 C   0  0  0  0  0  0  0  0  0  0  0  0
   -6.3493   -2.0677    0.7431 O   0  0  0  0  0  0  0  0  0  0  0  0
    0.7846   -2.0859   -2.8614 C   0  0  0  0  0  0  0  0  0  0  0  0
   -3.3698    2.0082    0.9218 N   0  0  0  0  0  0  0  0  0  0  0  0
   -2.8111    2.3475    2.0975 C   0  0  0  0  0  0  0  0  0  0  0  0
   -1.7943    1.4469    2.2952 C   0  0  0  0  0  0  0  0  0  0  0  0
   -1.0420    1.5684    3.4493 C   0  0  0  0  0  0  0  0  0  0  0  0
   -1.3136    2.5745    4.3757 C   0  0  0  0  0  0  0  0  0  0  0  0
   -2.3470    3.4739    4.1544 C   0  0  0  0  0  0  0  0  0  0  0  0
   -3.1028    3.3589    3.0041 C   0  0  0  0  0  0  0  0  0  0  0  0
    7.3908    2.1998    1.9573 H   0  0  0  0  0  0  0  0  0  0  0  0
    7.8255    3.5212    0.8753 H   0  0  0  0  0  0  0  0  0  0  0  0
    7.8912    1.7829    0.2329 H   0  0  0  0  0  0  0  0  0  0  0  0
    5.5719    3.5809    0.6372 H   0  0  0  0  0  0  0  0  0  0  0  0
    5.3725    1.8499    1.0164 H   0  0  0  0  0  0  0  0  0  0  0  0
    6.5677    2.9959   -1.5835 H   0  0  0  0  0  0  0  0  0  0  0  0
    6.3222    1.2721   -1.2844 H   0  0  0  0  0  0  0  0  0  0  0  0
    4.1342    3.3667   -1.4849 H   0  0  0  0  0  0  0  0  0  0  0  0
    4.5669    2.1884   -2.7619 H   0  0  0  0  0  0  0  0  0  0  0  0
    3.6025    1.5292    0.0782 H   0  0  0  0  0  0  0  0  0  0  0  0
    4.0230    0.3092   -1.1961 H   0  0  0  0  0  0  0  0  0  0  0  0
    1.7836    2.3466   -1.3568 H   0  0  0  0  0  0  0  0  0  0  0  0
    2.1950    1.0608   -2.6331 H   0  0  0  0  0  0  0  0  0  0  0  0
   -0.3709    0.6201   -1.8632 H   0  0  0  0  0  0  0  0  0  0  0  0
   -1.2390   -1.3911    1.6733 H   0  0  0  0  0  0  0  0  0  0  0  0
    0.1695   -0.3674    1.4805 H   0  0  0  0  0  0  0  0  0  0  0  0
   -2.9737    0.8390   -1.7716 H   0  0  0  0  0  0  0  0  0  0  0  0
   -1.7542   -0.6611   -3.1354 H   0  0  0  0  0  0  0  0  0  0  0  0
   -3.2554   -1.5146   -2.7052 H   0  0  0  0  0  0  0  0  0  0  0  0
   -2.1353   -3.5457   -2.1619 H   0  0  0  0  0  0  0  0  0  0  0  0
   -1.3939   -2.9748   -3.6545 H   0  0  0  0  0  0  0  0  0  0  0  0
    0.9214   -2.3425   -0.3317 H   0  0  0  0  0  0  0  0  0  0  0  0
   -0.7367   -4.3417   -0.4014 H   0  0  0  0  0  0  0  0  0  0  0  0
   -0.3564   -3.4512    1.1379 H   0  0  0  0  0  0  0  0  0  0  0  0
   -5.1740   -4.2588    1.7420 H   0  0  0  0  0  0  0  0  0  0  0  0
   -2.7583   -4.8528    1.4786 H   0  0  0  0  0  0  0  0  0  0  0  0
   -7.0079   -2.7454    1.1291 H   0  0  0  0  0  0  0  0  0  0  0  0
    1.7870   -2.0996   -2.3967 H   0  0  0  0  0  0  0  0  0  0  0  0
    0.5032   -1.1007   -3.2806 H   0  0  0  0  0  0  0  0  0  0  0  0
    0.8611   -2.7530   -3.7715 H   0  0  0  0  0  0  0  0  0  0  0  0
   -4.1733    2.5114    0.4989 H   0  0  0  0  0  0  0  0  0  0  0  0
   -0.2228    0.8629    3.6343 H   0  0  0  0  0  0  0  0  0  0  0  0
   -0.7199    2.6680    5.2834 H   0  0  0  0  0  0  0  0  0  0  0  0
   -2.5774    4.2648    4.8601 H   0  0  0  0  0  0  0  0  0  0  0  0
   -3.9246    4.0282    2.7692 H   0  0  0  0  0  0  0  0  0  0  0  0
  1  2  1  0
  2  3  1  0
  3  4  1  0
  4  5  1  0
  5  6  1  0
  6  7  1  0
  7  8  2  0
  7  9  1  0
 10  9  1  6
 10 11  1  0
 11 12  1  0
 12 13  2  0
 13 14  1  0
 14 15  1  0
 15 16  1  6
 16 17  1  0
 17 18  1  0
 18 19  1  0
 19 20  1  0
 20 21  1  0
 21 22  2  0
 22 23  1  0
 23 24  1  0
 23 25  2  0
 25 26  1  0
 26 27  2  0
 25 28  1  0
 18 29  1  0
 13 30  1  0
 30 31  1  0
 31 32  2  0
 32 33  1  0
 33 34  2  0
 34 35  1  0
 35 36  2  0
 19 10  1  0
 27 21  1  0
 36 31  1  0
 15 10  1  0
 32 12  1  0
 24 14  1  0
 22 15  1  0
  1 37  1  0
  1 38  1  0
  1 39  1  0
  2 40  1  0
  2 41  1  0
  3 42  1  0
  3 43  1  0
  4 44  1  0
  4 45  1  0
  5 46  1  0
  5 47  1  0
  6 48  1  0
  6 49  1  0
  9 50  1  0
 11 51  1  0
 11 52  1  0
 14 53  1  6
 16 54  1  0
 16 55  1  0
 17 56  1  0
 17 57  1  0
 19 58  1  0
 20 59  1  0
 20 60  1  0
 26 61  1  0
 27 62  1  0
 28 63  1  0
 29 64  1  0
 29 65  1  0
 29 66  1  0
 30 67  1  0
 33 68  1  0
 34 69  1  0
 35 70  1  0
 36 71  1  0
M  END
>  <Ligand ID>  (1) 
LIG0004209

>  <Ligand>  (1) 
CHEMBL2113372

>  <SMILES>  (1) 
CCCCCCC(=O)N[C@]12Cc3c([C@H]4[C@]52CCN(C1Cc1c5c(O4)c(cc1)O)C)[nH]c1c3cccc1

>  <CID>  (1) 
71456256.0

>  <ChEMBL ID>  (1) 
nan

>  <InChiKey>  (1) 
PAARPNZJZZBXBY-ZLPQYYEYSA-N

>  <InChi>  (1) 
InChI=1S/C30H35N3O3/c1-3-4-5-6-11-24(35)32-30-17-20-19-9-7-8-10-21(19)31-26(20)28-29(30)14-15-33(2)23(30)16-18-12-13-22(34)27(36-28)25(18)29/h7-10,12-13,23,28,31,34H,3-6,11,14-17H2,1-2H3,(H,32,35)/t23?,28-,29-,30+/m0/s1

>  <IUPAC Name>  (1) 
N-[(1R,2S,13R)-16-hydroxy-22-methyl-14-oxa-11,22-diazaheptacyclo[13.9.1.01,13.02,21.04,12.05,10.019,25]pentacosa-4(12),5,7,9,15,17,19(25)-heptaen-2-yl]heptanamide

$$$$
