
     RDKit          3D

 50 52  0  0  0  0  0  0  0  0999 V2000
    0.8255    1.4004   -1.3237 O   0  0  0  0  0  0  0  0  0  0  0  0
   -0.0669    0.6778   -0.5730 C   0  0  2  0  0  0  0  0  0  0  0  0
    0.1741   -0.8344   -0.6460 C   0  0  1  0  0  0  0  0  0  0  0  0
    1.4100   -1.1227    0.1629 C   0  0  0  0  0  0  0  0  0  0  0  0
    2.5016   -0.6709   -0.5315 O   0  0  0  0  0  0  0  0  0  0  0  0
    3.9611   -0.9085    0.2187 P   0  0  0  0  0  0  0  0  0  0  0  0
    5.0655   -0.6346   -0.8044 O   0  0  0  0  0  0  0  0  0  0  0  0
    4.1723    0.1983    1.4696 O   0  0  0  0  0  0  0  0  0  0  0  0
    5.7170    0.9200    1.3876 P   0  0  0  0  0  0  0  0  0  0  0  0
    5.6499    2.1372    2.3124 O   0  0  0  0  0  0  0  0  0  0  0  0
    6.0398    1.3989   -0.1867 O   0  0  0  0  0  0  0  0  0  0  0  0
    7.6590    1.3747   -0.5951 P   0  0  0  0  0  0  0  0  0  0  0  0
    7.9965    2.7568   -1.1492 O   0  0  0  0  0  0  0  0  0  0  0  0
    7.8610    0.2854   -1.8981 O   0  0  0  0  0  0  0  0  0  0  0  0
    8.6870    0.9920    0.6658 O   0  0  0  0  0  0  0  0  0  0  0  0
    6.9218   -0.1130    1.9422 O   0  0  0  0  0  0  0  0  0  0  0  0
    4.1854   -2.4653    0.8060 O   0  0  0  0  0  0  0  0  0  0  0  0
   -1.0001   -1.2718    0.0042 O   0  0  0  0  0  0  0  0  0  0  0  0
   -1.9664   -0.6991   -0.8182 C   0  0  2  0  0  0  0  0  0  0  0  0
   -1.4935    0.7231   -1.1213 C   0  0  2  0  0  0  0  0  0  0  0  0
   -1.4126    0.8635   -2.5173 O   0  0  0  0  0  0  0  0  0  0  0  0
   -3.2463   -0.5987   -0.1795 N   0  0  0  0  0  0  0  0  0  0  0  0
   -3.5271   -1.1358    1.0112 C   0  0  0  0  0  0  0  0  0  0  0  0
   -4.7577   -1.0360    1.6191 C   0  0  0  0  0  0  0  0  0  0  0  0
   -5.7663   -0.3450    0.9727 C   0  0  0  0  0  0  0  0  0  0  0  0
   -5.4891    0.2163   -0.2613 C   0  0  0  0  0  0  0  0  0  0  0  0
   -4.2203    0.0725   -0.8114 C   0  0  0  0  0  0  0  0  0  0  0  0
   -4.0401    0.6099   -1.9377 O   0  0  0  0  0  0  0  0  0  0  0  0
   -6.4811    0.9188   -0.9402 C   0  0  0  0  0  0  0  0  0  0  0  0
   -7.7448    1.0638   -0.3958 C   0  0  0  0  0  0  0  0  0  0  0  0
   -7.9892    0.4942    0.8326 C   0  0  0  0  0  0  0  0  0  0  0  0
   -7.0377   -0.2058    1.5329 C   0  0  0  0  0  0  0  0  0  0  0  0
   -8.9947    1.9532   -1.2591 Cl  0  0  0  0  0  0  0  0  0  0  0  0
    0.7890    2.3379   -0.9651 H   0  0  0  0  0  0  0  0  0  0  0  0
   -0.0565    0.9507    0.4960 H   0  0  0  0  0  0  0  0  0  0  0  0
    0.2426   -1.1862   -1.6861 H   0  0  0  0  0  0  0  0  0  0  0  0
    1.2876   -0.5751    1.1408 H   0  0  0  0  0  0  0  0  0  0  0  0
    1.4109   -2.1973    0.4202 H   0  0  0  0  0  0  0  0  0  0  0  0
    7.8442   -0.6597   -1.5816 H   0  0  0  0  0  0  0  0  0  0  0  0
    9.1500    0.1273    0.4503 H   0  0  0  0  0  0  0  0  0  0  0  0
    6.8747   -0.9797    1.4644 H   0  0  0  0  0  0  0  0  0  0  0  0
    4.3236   -3.1367    0.0995 H   0  0  0  0  0  0  0  0  0  0  0  0
   -2.0648   -1.3026   -1.7293 H   0  0  0  0  0  0  0  0  0  0  0  0
   -2.1123    1.4943   -0.6517 H   0  0  0  0  0  0  0  0  0  0  0  0
   -1.1833   -0.0281   -2.8718 H   0  0  0  0  0  0  0  0  0  0  0  0
   -2.7502   -1.6751    1.5225 H   0  0  0  0  0  0  0  0  0  0  0  0
   -4.9362   -1.4885    2.5848 H   0  0  0  0  0  0  0  0  0  0  0  0
   -6.2551    1.3620   -1.9192 H   0  0  0  0  0  0  0  0  0  0  0  0
   -8.9671    0.6000    1.2659 H   0  0  0  0  0  0  0  0  0  0  0  0
   -7.1908   -0.6585    2.4826 H   0  0  0  0  0  0  0  0  0  0  0  0
  1  2  1  0
  2  3  1  0
  3  4  1  0
  4  5  1  0
  5  6  1  0
  6  7  2  0
  6  8  1  0
  8  9  1  0
  9 10  2  0
  9 11  1  0
 11 12  1  0
 12 13  2  0
 12 14  1  0
 12 15  1  0
  9 16  1  0
  6 17  1  0
  3 18  1  0
 18 19  1  0
 19 20  1  0
 20 21  1  0
 19 22  1  0
 22 23  1  0
 23 24  2  0
 24 25  1  0
 25 26  2  0
 26 27  1  0
 27 28  2  0
 26 29  1  0
 29 30  2  0
 30 31  1  0
 31 32  2  0
 30 33  1  0
 20  2  1  0
 27 22  1  0
 32 25  1  0
  1 34  1  0
  2 35  1  1
  3 36  1  6
  4 37  1  0
  4 38  1  0
 14 39  1  0
 15 40  1  0
 16 41  1  0
 17 42  1  0
 19 43  1  6
 20 44  1  1
 21 45  1  0
 23 46  1  0
 24 47  1  0
 29 48  1  0
 31 49  1  0
 32 50  1  0
M  END
>  <Ligand ID>  (1) 
LIG0001239

>  <Ligand>  (1) 
CHEMBL240201

>  <SMILES>  (1) 
O[C@@H]1[C@@H](COP(=O)(OP(=O)(OP(=O)(O)O)O)O)O[C@H]([C@@H]1O)n1ccc2c(c1=O)cc(cc2)Cl

>  <CID>  (1) 
44439758.0

>  <ChEMBL ID>  (1) 
nan

>  <InChiKey>  (1) 
OIBMBKVCJFCFMA-HKUMRIAESA-N

>  <InChi>  (1) 
InChI=1S/C14H17ClNO14P3/c15-8-2-1-7-3-4-16(13(19)9(7)5-8)14-12(18)11(17)10(28-14)6-27-32(23,24)30-33(25,26)29-31(20,21)22/h1-5,10-12,14,17-18H,6H2,(H,23,24)(H,25,26)(H2,20,21,22)/t10-,11-,12-,14-/m1/s1

>  <IUPAC Name>  (1) 
[[(2R,3S,4R,5R)-5-(7-chloro-1-oxoisoquinolin-2-yl)-3,4-dihydroxyoxolan-2-yl]methoxy-hydroxyphosphoryl] phosphono hydrogen phosphate

$$$$
