
     RDKit          3D

 42 45  0  0  0  0  0  0  0  0999 V2000
   -1.4404   -0.8858   -1.5776 O   0  0  0  0  0  0  0  0  0  0  0  0
   -1.6822   -0.6468   -0.3618 C   0  0  0  0  0  0  0  0  0  0  0  0
   -0.6278   -0.7550    0.6645 C   0  0  1  0  0  0  0  0  0  0  0  0
    0.5959   -1.1329    0.1463 O   0  0  0  0  0  0  0  0  0  0  0  0
    1.5801   -0.7048    1.0163 C   0  0  2  0  0  0  0  0  0  0  0  0
    0.8977    0.1163    2.1041 C   0  0  1  0  0  0  0  0  0  0  0  0
   -0.2939    0.6018    1.3012 C   0  0  2  0  0  0  0  0  0  0  0  0
   -1.3187    1.0644    2.0989 O   0  0  0  0  0  0  0  0  0  0  0  0
    0.3558   -0.7573    3.0695 O   0  0  0  0  0  0  0  0  0  0  0  0
    2.6189    0.0792    0.3843 N   0  0  0  0  0  0  0  0  0  0  0  0
    2.8838    1.3955    0.5115 C   0  0  0  0  0  0  0  0  0  0  0  0
    3.9542    1.6863   -0.2734 N   0  0  0  0  0  0  0  0  0  0  0  0
    4.3357    0.5614   -0.8706 C   0  0  0  0  0  0  0  0  0  0  0  0
    3.5113   -0.4702   -0.4749 C   0  0  0  0  0  0  0  0  0  0  0  0
    3.7046   -1.7135   -0.9514 N   0  0  0  0  0  0  0  0  0  0  0  0
    4.6991   -1.9923   -1.8226 C   0  0  0  0  0  0  0  0  0  0  0  0
    5.5266   -1.0021   -2.2316 N   0  0  0  0  0  0  0  0  0  0  0  0
    5.3434    0.2424   -1.7628 C   0  0  0  0  0  0  0  0  0  0  0  0
    6.2461    1.2458   -2.2289 N   0  0  0  0  0  0  0  0  0  0  0  0
   -2.9830   -0.2628    0.0686 N   0  0  0  0  0  0  0  0  0  0  0  0
   -4.1085   -0.1187   -0.8332 C   0  0  0  0  0  0  0  0  0  0  0  0
   -4.9069    1.1361   -0.6373 C   0  0  0  0  0  0  0  0  0  0  0  0
   -5.8310    0.3494    0.2932 C   0  0  0  0  0  0  0  0  0  0  0  0
   -5.2788   -0.9283   -0.2825 C   0  0  0  0  0  0  0  0  0  0  0  0
   -0.8937   -1.4086    1.5214 H   0  0  0  0  0  0  0  0  0  0  0  0
    2.0197   -1.6407    1.4549 H   0  0  0  0  0  0  0  0  0  0  0  0
    1.5208    0.8847    2.5301 H   0  0  0  0  0  0  0  0  0  0  0  0
   -0.0180    1.2888    0.4875 H   0  0  0  0  0  0  0  0  0  0  0  0
   -1.3713    2.0433    2.0232 H   0  0  0  0  0  0  0  0  0  0  0  0
    0.9080   -1.5777    3.1595 H   0  0  0  0  0  0  0  0  0  0  0  0
    2.3567    2.0965    1.1163 H   0  0  0  0  0  0  0  0  0  0  0  0
    4.7986   -3.0161   -2.1671 H   0  0  0  0  0  0  0  0  0  0  0  0
    6.2223    1.5673   -3.2213 H   0  0  0  0  0  0  0  0  0  0  0  0
    6.9266    1.6338   -1.5163 H   0  0  0  0  0  0  0  0  0  0  0  0
   -3.1747   -0.0658    1.0834 H   0  0  0  0  0  0  0  0  0  0  0  0
   -3.8801   -0.3315   -1.8932 H   0  0  0  0  0  0  0  0  0  0  0  0
   -4.3591    1.9365   -0.1075 H   0  0  0  0  0  0  0  0  0  0  0  0
   -5.4374    1.4790   -1.5672 H   0  0  0  0  0  0  0  0  0  0  0  0
   -5.5569    0.4891    1.3437 H   0  0  0  0  0  0  0  0  0  0  0  0
   -6.8914    0.5453    0.0217 H   0  0  0  0  0  0  0  0  0  0  0  0
   -4.9883   -1.6945    0.4522 H   0  0  0  0  0  0  0  0  0  0  0  0
   -5.9638   -1.3374   -1.0505 H   0  0  0  0  0  0  0  0  0  0  0  0
  1  2  2  0
  2  3  1  0
  3  4  1  0
  4  5  1  0
  5  6  1  0
  6  7  1  0
  7  8  1  0
  6  9  1  0
  5 10  1  0
 10 11  1  0
 11 12  2  0
 12 13  1  0
 13 14  2  0
 14 15  1  0
 15 16  2  0
 16 17  1  0
 17 18  2  0
 18 19  1  0
  2 20  1  0
 20 21  1  0
 21 22  1  0
 22 23  1  0
 23 24  1  0
  7  3  1  0
 14 10  1  0
 24 21  1  0
 18 13  1  0
  3 25  1  1
  5 26  1  1
  6 27  1  1
  7 28  1  6
  8 29  1  0
  9 30  1  0
 11 31  1  0
 16 32  1  0
 19 33  1  0
 19 34  1  0
 20 35  1  0
 21 36  1  0
 22 37  1  0
 22 38  1  0
 23 39  1  0
 23 40  1  0
 24 41  1  0
 24 42  1  0
M  END
>  <Ligand ID>  (1) 
LIG0002932

>  <Ligand>  (1) 
CHEMBL2070507

>  <SMILES>  (1) 
O=C([C@H]1O[C@H]([C@@H]([C@@H]1O)O)n1cnc2c1ncnc2N)NC1CCC1

>  <CID>  (1) 
10449535.0

>  <ChEMBL ID>  (1) 
nan

>  <InChiKey>  (1) 
CGYRWWMWNACLSU-AEISUSGSSA-N

>  <InChi>  (1) 
InChI=1S/C14H18N6O4/c15-11-7-12(17-4-16-11)20(5-18-7)14-9(22)8(21)10(24-14)13(23)19-6-2-1-3-6/h4-6,8-10,14,21-22H,1-3H2,(H,19,23)(H2,15,16,17)/t8-,9+,10-,14+/m0/s1

>  <IUPAC Name>  (1) 
(2S,3S,4R,5R)-5-(6-aminopurin-9-yl)-N-cyclobutyl-3,4-dihydroxyoxolane-2-carboxamide

$$$$
