
     RDKit          3D

 45 46  0  0  0  0  0  0  0  0999 V2000
   -3.5861    1.6461    0.2483 C   0  0  0  0  0  0  0  0  0  0  0  0
   -2.1171    1.4100    0.6150 C   0  0  0  0  0  0  0  0  0  0  0  0
   -1.4364    0.6868   -0.5048 C   0  0  0  0  0  0  0  0  0  0  0  0
    0.0030    0.3999   -0.2618 C   0  0  0  0  0  0  0  0  0  0  0  0
    1.0872    1.2446   -0.2831 C   0  0  0  0  0  0  0  0  0  0  0  0
    2.3960    0.8112   -0.0294 C   0  0  0  0  0  0  0  0  0  0  0  0
    3.4513    1.7670   -0.0892 C   0  0  0  0  0  0  0  0  0  0  0  0
    3.1244    2.9832   -0.3497 O   0  0  0  0  0  0  0  0  0  0  0  0
    4.8973    1.5494    0.1096 C   0  0  0  0  0  0  0  0  0  0  0  0
    2.5254   -0.5309    0.2461 C   0  0  0  0  0  0  0  0  0  0  0  0
    1.4276   -1.3963    0.2695 C   0  0  0  0  0  0  0  0  0  0  0  0
    0.1592   -0.9364    0.0156 C   0  0  0  0  0  0  0  0  0  0  0  0
   -1.1346   -1.6572   -0.0149 C   0  0  0  0  0  0  0  0  0  0  0  0
   -2.0708   -0.6767   -0.6692 C   0  0  0  0  0  0  0  0  0  0  0  0
   -2.2953   -0.9345   -2.1240 C   0  0  0  0  0  0  0  0  0  0  0  0
   -1.5078   -2.0160    1.3948 C   0  0  0  0  0  0  0  0  0  0  0  0
   -1.0224   -2.9456   -0.8110 C   0  0  0  0  0  0  0  0  0  0  0  0
    3.8490   -1.1258    0.5419 C   0  0  0  0  0  0  0  0  0  0  0  0
   -1.4751    2.7293    0.9440 C   0  0  0  0  0  0  0  0  0  0  0  0
   -3.9358    2.5654    0.7699 H   0  0  0  0  0  0  0  0  0  0  0  0
   -4.1827    0.7855    0.6056 H   0  0  0  0  0  0  0  0  0  0  0  0
   -3.6810    1.8184   -0.8472 H   0  0  0  0  0  0  0  0  0  0  0  0
   -2.1319    0.7987    1.5411 H   0  0  0  0  0  0  0  0  0  0  0  0
   -1.4985    1.2942   -1.4243 H   0  0  0  0  0  0  0  0  0  0  0  0
    0.8825    2.2997   -0.5128 H   0  0  0  0  0  0  0  0  0  0  0  0
    5.3326    0.7099   -0.4456 H   0  0  0  0  0  0  0  0  0  0  0  0
    5.4738    2.4447   -0.3187 H   0  0  0  0  0  0  0  0  0  0  0  0
    5.1877    1.6021    1.1901 H   0  0  0  0  0  0  0  0  0  0  0  0
    1.5601   -2.4631    0.4920 H   0  0  0  0  0  0  0  0  0  0  0  0
   -3.0367   -0.7575   -0.0935 H   0  0  0  0  0  0  0  0  0  0  0  0
   -1.3319   -0.9473   -2.6461 H   0  0  0  0  0  0  0  0  0  0  0  0
   -2.8596   -1.8849   -2.2096 H   0  0  0  0  0  0  0  0  0  0  0  0
   -2.9425   -0.1123   -2.4961 H   0  0  0  0  0  0  0  0  0  0  0  0
   -0.9765   -2.9860    1.6079 H   0  0  0  0  0  0  0  0  0  0  0  0
   -2.5995   -2.1633    1.5375 H   0  0  0  0  0  0  0  0  0  0  0  0
   -1.0514   -1.2772    2.0722 H   0  0  0  0  0  0  0  0  0  0  0  0
   -0.4418   -2.8376   -1.7403 H   0  0  0  0  0  0  0  0  0  0  0  0
   -2.0401   -3.3341   -1.0089 H   0  0  0  0  0  0  0  0  0  0  0  0
   -0.5312   -3.7117   -0.1769 H   0  0  0  0  0  0  0  0  0  0  0  0
    3.6642   -2.1366    1.0420 H   0  0  0  0  0  0  0  0  0  0  0  0
    4.4056   -1.4224   -0.3874 H   0  0  0  0  0  0  0  0  0  0  0  0
    4.4438   -0.5961    1.2893 H   0  0  0  0  0  0  0  0  0  0  0  0
   -2.1775    3.4120    1.4641 H   0  0  0  0  0  0  0  0  0  0  0  0
   -1.2706    3.2464   -0.0386 H   0  0  0  0  0  0  0  0  0  0  0  0
   -0.5360    2.6448    1.4865 H   0  0  0  0  0  0  0  0  0  0  0  0
  1  2  1  0
  2  3  1  0
  3  4  1  0
  4  5  2  0
  5  6  1  0
  6  7  1  0
  7  8  2  0
  7  9  1  0
  6 10  2  0
 10 11  1  0
 11 12  2  0
 12 13  1  0
 13 14  1  0
 14 15  1  0
 13 16  1  0
 13 17  1  0
 10 18  1  0
  2 19  1  0
 14  3  1  0
 12  4  1  0
  1 20  1  0
  1 21  1  0
  1 22  1  0
  2 23  1  0
  3 24  1  0
  5 25  1  0
  9 26  1  0
  9 27  1  0
  9 28  1  0
 11 29  1  0
 14 30  1  0
 15 31  1  0
 15 32  1  0
 15 33  1  0
 16 34  1  0
 16 35  1  0
 16 36  1  0
 17 37  1  0
 17 38  1  0
 17 39  1  0
 18 40  1  0
 18 41  1  0
 18 42  1  0
 19 43  1  0
 19 44  1  0
 19 45  1  0
M  END
>  <Ligand ID>  (1) 
LIG0004995

>  <Ligand>  (1) 
1-(1,1,2,6-tetramethyl-3-propan-2-yl-2,3-dihydroinden-5-yl)ethanone

>  <SMILES>  (1) 
CC(C1c2cc(C(=O)C)c(cc2C(C1C)(C)C)C)C

>  <CID>  (1) 
91696.0

>  <ChEMBL ID>  (1) 
nan

>  <InChiKey>  (1) 
IMRYETFJNLKUHK-UHFFFAOYSA-N

>  <InChi>  (1) 
InChI=1S/C18H26O/c1-10(2)17-12(4)18(6,7)16-8-11(3)14(13(5)19)9-15(16)17/h8-10,12,17H,1-7H3

>  <IUPAC Name>  (1) 
1-(1,1,2,6-tetramethyl-3-propan-2-yl-2,3-dihydroinden-5-yl)ethanone

$$$$
