
     RDKit          3D

142144  0  0  0  0  0  0  0  0999 V2000
    6.5828   -5.0226    2.3162 C   0  0  0  0  0  0  0  0  0  0  0  0
    6.1252   -3.5613    3.3110 S   0  0  0  0  0  0  0  0  0  0  0  0
    5.7654   -2.2265    2.1096 C   0  0  2  0  0  0  0  0  0  0  0  0
    5.3820   -0.9694    2.7804 C   0  0  0  0  0  0  0  0  0  0  0  0
    4.4910   -0.2875    1.7545 C   0  0  2  0  0  0  0  0  0  0  0  0
    3.7398   -1.3426    1.1398 N   0  0  0  0  0  0  0  0  0  0  0  0
    4.5924   -2.5691    1.2740 C   0  0  0  0  0  0  0  0  0  0  0  0
    2.5292   -1.4591    0.4577 C   0  0  0  0  0  0  0  0  0  0  0  0
    2.1647   -2.6704    0.1574 O   0  0  0  0  0  0  0  0  0  0  0  0
    1.5430   -0.4523   -0.0092 C   0  0  2  0  0  0  0  0  0  0  0  0
    1.3896    0.6496    0.9224 C   0  0  0  0  0  0  0  0  0  0  0  0
    0.1864    1.9418    0.4691 S   0  0  0  0  0  0  0  0  0  0  0  0
    0.6743    2.9222   -0.9261 C   0  0  0  0  0  0  0  0  0  0  0  0
   -0.0884    4.1825   -1.1883 C   0  0  0  0  0  0  0  0  0  0  0  0
   -1.5597    4.0477   -1.4175 C   0  0  0  0  0  0  0  0  0  0  0  0
   -2.2398    3.6521   -0.1683 C   0  0  0  0  0  0  0  0  0  0  0  0
   -1.7494    3.6598    0.9679 O   0  0  0  0  0  0  0  0  0  0  0  0
   -3.5994    3.2106   -0.2202 N   0  0  0  0  0  0  0  0  0  0  0  0
   -4.3276    2.7377    0.9660 C   0  0  1  0  0  0  0  0  0  0  0  0
   -5.5280    3.5315    1.2861 C   0  0  0  0  0  0  0  0  0  0  0  0
   -6.5873    3.6082    0.2900 C   0  0  0  0  0  0  0  0  0  0  0  0
   -6.6147    4.5400   -0.7286 C   0  0  0  0  0  0  0  0  0  0  0  0
   -7.6644    4.5568   -1.6154 C   0  0  0  0  0  0  0  0  0  0  0  0
   -8.7053    3.6392   -1.4966 C   0  0  0  0  0  0  0  0  0  0  0  0
   -8.6963    2.7063   -0.4918 C   0  0  0  0  0  0  0  0  0  0  0  0
   -7.6392    2.7053    0.3853 C   0  0  0  0  0  0  0  0  0  0  0  0
   -9.7846    3.6334   -2.3848 O   0  0  0  0  0  0  0  0  0  0  0  0
   -9.7888    4.6082   -3.4325 C   0  0  0  0  0  0  0  0  0  0  0  0
   -4.4968    1.2670    0.8627 C   0  0  0  0  0  0  0  0  0  0  0  0
   -3.8804    0.6968   -0.0514 O   0  0  0  0  0  0  0  0  0  0  0  0
   -5.2897    0.4517    1.6953 N   0  0  0  0  0  0  0  0  0  0  0  0
   -5.3525   -1.0308    1.5079 C   0  0  2  0  0  0  0  0  0  0  0  0
   -4.0234   -1.6071    1.6360 C   0  0  0  0  0  0  0  0  0  0  0  0
   -3.0408   -0.8433    1.8038 O   0  0  0  0  0  0  0  0  0  0  0  0
   -3.6690   -2.9773    1.6028 N   0  0  0  0  0  0  0  0  0  0  0  0
   -2.3318   -3.5194    1.6912 C   0  0  2  0  0  0  0  0  0  0  0  0
   -1.5538   -3.4554    0.4549 C   0  0  0  0  0  0  0  0  0  0  0  0
   -0.4918   -4.0803    0.2859 O   0  0  0  0  0  0  0  0  0  0  0  0
   -1.9206   -2.6536   -0.6962 N   0  0  0  0  0  0  0  0  0  0  0  0
   -1.1085   -2.6676   -1.9149 C   0  0  2  0  0  0  0  0  0  0  0  0
    0.0843   -1.7830   -1.6119 C   0  0  0  0  0  0  0  0  0  0  0  0
    0.9561   -1.5041   -2.4492 O   0  0  0  0  0  0  0  0  0  0  0  0
    0.2965   -1.2031   -0.3278 N   0  0  0  0  0  0  0  0  0  0  0  0
   -1.8341   -2.2864   -3.1384 C   0  0  0  0  0  0  0  0  0  0  0  0
   -1.0406   -2.3268   -4.3781 C   0  0  0  0  0  0  0  0  0  0  0  0
    0.1240   -2.7306   -4.5158 O   0  0  0  0  0  0  0  0  0  0  0  0
   -1.6882   -1.8406   -5.5677 N   0  0  0  0  0  0  0  0  0  0  0  0
   -2.1570   -4.7193    2.5136 C   0  0  0  0  0  0  0  0  0  0  0  0
   -2.9390   -5.9376    2.2509 C   0  0  0  0  0  0  0  0  0  0  0  0
   -2.8718   -6.6190    0.9700 C   0  0  0  0  0  0  0  0  0  0  0  0
   -2.3646   -6.2477   -0.1009 O   0  0  0  0  0  0  0  0  0  0  0  0
   -3.4897   -7.9344    0.9174 N   0  0  0  0  0  0  0  0  0  0  0  0
   -6.3113   -1.4086    0.4857 C   0  0  2  0  0  0  0  0  0  0  0  0
   -6.4410   -2.8727    0.2400 C   0  0  0  0  0  0  0  0  0  0  0  0
   -7.5231   -3.1451   -0.8325 C   0  0  0  0  0  0  0  0  0  0  0  0
   -6.2477   -0.6573   -0.8407 C   0  0  0  0  0  0  0  0  0  0  0  0
    5.2306    0.4471    0.7290 C   0  0  0  0  0  0  0  0  0  0  0  0
    5.0306    0.2687   -0.5143 O   0  0  0  0  0  0  0  0  0  0  0  0
    6.2098    1.3896    1.1418 N   0  0  0  0  0  0  0  0  0  0  0  0
    6.9898    2.1584    0.1149 C   0  0  2  0  0  0  0  0  0  0  0  0
    8.3167    1.5243    0.1607 C   0  0  0  0  0  0  0  0  0  0  0  0
    8.5933    0.8774    1.2273 O   0  0  0  0  0  0  0  0  0  0  0  0
    9.2939    1.5488   -0.8375 N   0  0  0  0  0  0  0  0  0  0  0  0
   10.5602    0.8793   -0.6531 C   0  0  0  0  0  0  0  0  0  0  0  0
   10.3128   -0.5665   -0.4499 C   0  0  0  0  0  0  0  0  0  0  0  0
   11.2742   -1.3567   -0.2640 O   0  0  0  0  0  0  0  0  0  0  0  0
    9.0082   -1.1482   -0.4500 N   0  0  0  0  0  0  0  0  0  0  0  0
    6.9840    3.5726    0.5603 C   0  0  0  0  0  0  0  0  0  0  0  0
    7.6666    4.6314   -0.1973 C   0  0  0  0  0  0  0  0  0  0  0  0
    9.1350    4.5693   -0.3718 C   0  0  0  0  0  0  0  0  0  0  0  0
    7.0665    4.8283   -1.5914 C   0  0  0  0  0  0  0  0  0  0  0  0
    7.0371   -4.6814    1.3560 H   0  0  0  0  0  0  0  0  0  0  0  0
    7.3258   -5.6429    2.8410 H   0  0  0  0  0  0  0  0  0  0  0  0
    5.7074   -5.6718    2.1138 H   0  0  0  0  0  0  0  0  0  0  0  0
    6.6817   -2.0438    1.5034 H   0  0  0  0  0  0  0  0  0  0  0  0
    4.7404   -1.1953    3.6739 H   0  0  0  0  0  0  0  0  0  0  0  0
    6.1940   -0.3202    3.1266 H   0  0  0  0  0  0  0  0  0  0  0  0
    3.8366    0.3841    2.3870 H   0  0  0  0  0  0  0  0  0  0  0  0
    3.9824   -3.3776    1.7126 H   0  0  0  0  0  0  0  0  0  0  0  0
    4.9230   -2.8587    0.2363 H   0  0  0  0  0  0  0  0  0  0  0  0
    1.9504   -0.1032   -1.0004 H   0  0  0  0  0  0  0  0  0  0  0  0
    2.3988    1.1541    1.0266 H   0  0  0  0  0  0  0  0  0  0  0  0
    1.1073    0.2974    1.9311 H   0  0  0  0  0  0  0  0  0  0  0  0
    1.7552    3.2461   -0.7848 H   0  0  0  0  0  0  0  0  0  0  0  0
    0.6496    2.3499   -1.8921 H   0  0  0  0  0  0  0  0  0  0  0  0
    0.1217    4.9454   -0.3689 H   0  0  0  0  0  0  0  0  0  0  0  0
    0.3180    4.7140   -2.0993 H   0  0  0  0  0  0  0  0  0  0  0  0
   -1.7821    3.2801   -2.2167 H   0  0  0  0  0  0  0  0  0  0  0  0
   -1.9964    5.0350   -1.7452 H   0  0  0  0  0  0  0  0  0  0  0  0
   -4.0412    3.2439   -1.1346 H   0  0  0  0  0  0  0  0  0  0  0  0
   -3.5586    2.8524    1.8043 H   0  0  0  0  0  0  0  0  0  0  0  0
   -5.9174    3.1653    2.2856 H   0  0  0  0  0  0  0  0  0  0  0  0
   -5.1707    4.5750    1.5470 H   0  0  0  0  0  0  0  0  0  0  0  0
   -5.7910    5.2571   -0.8123 H   0  0  0  0  0  0  0  0  0  0  0  0
   -7.6993    5.2689   -2.4044 H   0  0  0  0  0  0  0  0  0  0  0  0
   -9.5109    1.9882   -0.3953 H   0  0  0  0  0  0  0  0  0  0  0  0
   -7.6566    1.9471    1.1842 H   0  0  0  0  0  0  0  0  0  0  0  0
   -9.7385    5.6451   -3.0289 H   0  0  0  0  0  0  0  0  0  0  0  0
  -10.7460    4.5419   -3.9793 H   0  0  0  0  0  0  0  0  0  0  0  0
   -8.9398    4.4320   -4.1306 H   0  0  0  0  0  0  0  0  0  0  0  0
   -5.8132    0.9369    2.4242 H   0  0  0  0  0  0  0  0  0  0  0  0
   -5.8514   -1.3280    2.5043 H   0  0  0  0  0  0  0  0  0  0  0  0
   -4.4325   -3.6463    1.5543 H   0  0  0  0  0  0  0  0  0  0  0  0
   -1.7294   -2.6953    2.3246 H   0  0  0  0  0  0  0  0  0  0  0  0
   -2.7683   -2.1104   -0.5668 H   0  0  0  0  0  0  0  0  0  0  0  0
   -0.6302   -3.6911   -2.0293 H   0  0  0  0  0  0  0  0  0  0  0  0
   -0.4554   -1.3271    0.3437 H   0  0  0  0  0  0  0  0  0  0  0  0
   -2.8069   -2.8300   -3.2502 H   0  0  0  0  0  0  0  0  0  0  0  0
   -2.1704   -1.2112   -3.0272 H   0  0  0  0  0  0  0  0  0  0  0  0
   -1.1112   -1.3087   -6.2779 H   0  0  0  0  0  0  0  0  0  0  0  0
   -2.7036   -1.9919   -5.7538 H   0  0  0  0  0  0  0  0  0  0  0  0
   -1.0628   -5.0287    2.3621 H   0  0  0  0  0  0  0  0  0  0  0  0
   -2.1360   -4.4660    3.6266 H   0  0  0  0  0  0  0  0  0  0  0  0
   -2.5696   -6.7038    3.0258 H   0  0  0  0  0  0  0  0  0  0  0  0
   -4.0246   -5.8325    2.5760 H   0  0  0  0  0  0  0  0  0  0  0  0
   -3.3563   -8.6131    1.7089 H   0  0  0  0  0  0  0  0  0  0  0  0
   -4.0720   -8.2237    0.1045 H   0  0  0  0  0  0  0  0  0  0  0  0
   -7.3400   -1.0975    0.8795 H   0  0  0  0  0  0  0  0  0  0  0  0
   -5.5398   -3.3214   -0.2328 H   0  0  0  0  0  0  0  0  0  0  0  0
   -6.7223   -3.4580    1.1132 H   0  0  0  0  0  0  0  0  0  0  0  0
   -8.4327   -2.5595   -0.6533 H   0  0  0  0  0  0  0  0  0  0  0  0
   -7.7876   -4.2265   -0.7012 H   0  0  0  0  0  0  0  0  0  0  0  0
   -7.0484   -3.0273   -1.7987 H   0  0  0  0  0  0  0  0  0  0  0  0
   -6.4590    0.3832   -0.6760 H   0  0  0  0  0  0  0  0  0  0  0  0
   -5.4268   -0.9505   -1.4876 H   0  0  0  0  0  0  0  0  0  0  0  0
   -7.1714   -1.0513   -1.3843 H   0  0  0  0  0  0  0  0  0  0  0  0
    6.4205    1.5740    2.1556 H   0  0  0  0  0  0  0  0  0  0  0  0
    6.5834    1.9950   -0.8848 H   0  0  0  0  0  0  0  0  0  0  0  0
    9.0885    2.0390   -1.7249 H   0  0  0  0  0  0  0  0  0  0  0  0
   11.0786    1.2239    0.2773 H   0  0  0  0  0  0  0  0  0  0  0  0
   11.2035    1.1011   -1.5182 H   0  0  0  0  0  0  0  0  0  0  0  0
    8.8179   -1.8930    0.2303 H   0  0  0  0  0  0  0  0  0  0  0  0
    8.3114   -0.7767   -1.1534 H   0  0  0  0  0  0  0  0  0  0  0  0
    5.9116    3.8983    0.7875 H   0  0  0  0  0  0  0  0  0  0  0  0
    7.4244    3.5884    1.6250 H   0  0  0  0  0  0  0  0  0  0  0  0
    7.4224    5.6116    0.3399 H   0  0  0  0  0  0  0  0  0  0  0  0
    9.5524    5.6353   -0.2701 H   0  0  0  0  0  0  0  0  0  0  0  0
    9.4754    4.2818   -1.3827 H   0  0  0  0  0  0  0  0  0  0  0  0
    9.6651    3.9376    0.3740 H   0  0  0  0  0  0  0  0  0  0  0  0
    7.5079    5.7613   -1.9963 H   0  0  0  0  0  0  0  0  0  0  0  0
    5.9784    4.9919   -1.5040 H   0  0  0  0  0  0  0  0  0  0  0  0
    7.3404    4.0216   -2.2854 H   0  0  0  0  0  0  0  0  0  0  0  0
  1  2  1  0
  2  3  1  0
  3  4  1  0
  4  5  1  0
  5  6  1  0
  6  7  1  0
  6  8  1  0
  8  9  2  0
  8 10  1  0
 10 11  1  0
 11 12  1  0
 12 13  1  0
 13 14  1  0
 14 15  1  0
 15 16  1  0
 16 17  2  0
 16 18  1  0
 18 19  1  0
 19 20  1  0
 20 21  1  0
 21 22  2  0
 22 23  1  0
 23 24  2  0
 24 25  1  0
 25 26  2  0
 24 27  1  0
 27 28  1  0
 19 29  1  0
 29 30  2  0
 29 31  1  0
 31 32  1  0
 32 33  1  0
 33 34  2  0
 33 35  1  0
 35 36  1  0
 36 37  1  0
 37 38  2  0
 37 39  1  0
 39 40  1  0
 40 41  1  0
 41 42  2  0
 41 43  1  0
 40 44  1  0
 44 45  1  0
 45 46  2  0
 45 47  1  0
 36 48  1  0
 48 49  1  0
 49 50  1  0
 50 51  2  0
 50 52  1  0
 32 53  1  0
 53 54  1  0
 54 55  1  0
 53 56  1  0
  5 57  1  0
 57 58  2  0
 57 59  1  0
 59 60  1  0
 60 61  1  0
 61 62  2  0
 61 63  1  0
 63 64  1  0
 64 65  1  0
 65 66  2  0
 65 67  1  0
 60 68  1  0
 68 69  1  0
 69 70  1  0
 69 71  1  0
  7  3  1  0
 43 10  1  0
 26 21  1  0
  1 72  1  0
  1 73  1  0
  1 74  1  0
  3 75  1  6
  4 76  1  0
  4 77  1  0
  5 78  1  1
  7 79  1  0
  7 80  1  0
 10 81  1  6
 11 82  1  0
 11 83  1  0
 13 84  1  0
 13 85  1  0
 14 86  1  0
 14 87  1  0
 15 88  1  0
 15 89  1  0
 18 90  1  0
 19 91  1  1
 20 92  1  0
 20 93  1  0
 22 94  1  0
 23 95  1  0
 25 96  1  0
 26 97  1  0
 28 98  1  0
 28 99  1  0
 28100  1  0
 31101  1  0
 32102  1  1
 35103  1  0
 36104  1  1
 39105  1  0
 40106  1  6
 43107  1  0
 44108  1  0
 44109  1  0
 47110  1  0
 47111  1  0
 48112  1  0
 48113  1  0
 49114  1  0
 49115  1  0
 52116  1  0
 52117  1  0
 53118  1  1
 54119  1  0
 54120  1  0
 55121  1  0
 55122  1  0
 55123  1  0
 56124  1  0
 56125  1  0
 56126  1  0
 59127  1  0
 60128  1  6
 63129  1  0
 64130  1  0
 64131  1  0
 67132  1  0
 67133  1  0
 68134  1  0
 68135  1  0
 69136  1  0
 70137  1  0
 70138  1  0
 70139  1  0
 71140  1  0
 71141  1  0
 71142  1  0
M  END
>  <Ligand ID>  (1) 
LIG0001576

>  <Ligand>  (1) 
CHEMBL3353934

>  <SMILES>  (1) 
CS[C@@H]1C[C@H](N(C1)C(=O)[C@@H]1CSCCCC(=O)N[C@@H](Cc2ccc(cc2)OC)C(=O)N[C@H](C(=O)N[C@H](C(=O)N[C@H](C(=O)N1)CC(=O)N)CCC(=O)N)[C@H](CC)C)C(=O)N[C@H](C(=O)NCC(=O)N)CC(C)C

>  <CID>  (1) 
118719823.0

>  <ChEMBL ID>  (1) 
nan

>  <InChiKey>  (1) 
QQKYQAUXDYEBPZ-AXFZOFTKSA-N

>  <InChi>  (1) 
InChI=1S/C46H71N11O12S2/c1-7-25(4)39-45(67)52-29(14-15-35(47)58)41(63)53-32(20-36(48)59)42(64)55-33(23-71-16-8-9-38(61)51-31(43(65)56-39)18-26-10-12-27(69-5)13-11-26)46(68)57-22-28(70-6)19-34(57)44(66)54-30(17-24(2)3)40(62)50-21-37(49)60/h10-13,24-25,28-34,39H,7-9,14-23H2,1-6H3,(H2,47,58)(H2,48,59)(H2,49,60)(H,50,62)(H,51,61)(H,52,67)(H,53,63)(H,54,66)(H,55,64)(H,56,65)/t25-,28+,29-,30-,31-,32-,33-,34-,39-/m0/s1

>  <IUPAC Name>  (1) 
(2S,4R)-N-[(2S)-1-[(2-amino-2-oxoethyl)amino]-4-methyl-1-oxopentan-2-yl]-1-[(3R,6S,9S,12S,15S)-6-(2-amino-2-oxoethyl)-9-(3-amino-3-oxopropyl)-12-[(2S)-butan-2-yl]-15-[(4-methoxyphenyl)methyl]-5,8,11,14,17-pentaoxo-1-thia-4,7,10,13,16-pentazacycloicosane-3-carbonyl]-4-methylsulfanylpyrrolidine-2-carboxamide

$$$$
