
     RDKit          3D

 60 61  0  0  0  0  0  0  0  0999 V2000
   -0.2447   -2.1002   -1.7836 C   0  0  0  0  0  0  0  0  0  0  0  0
   -1.0536   -0.9417   -1.2590 C   0  0  0  0  0  0  0  0  0  0  0  0
   -0.3851    0.2300   -0.8468 C   0  0  0  0  0  0  0  0  0  0  0  0
    0.9636    0.2231   -0.9583 O   0  0  0  0  0  0  0  0  0  0  0  0
    1.8919    1.1919   -0.6317 C   0  0  0  0  0  0  0  0  0  0  0  0
    1.9858    1.5712    0.8172 C   0  0  0  0  0  0  0  0  0  0  0  0
    2.3363    0.3648    1.6609 C   0  0  0  0  0  0  0  0  0  0  0  0
    3.6543   -0.1957    1.2422 C   0  0  0  0  0  0  0  0  0  0  0  0
    4.7116    0.7188    1.3498 O   0  0  0  0  0  0  0  0  0  0  0  0
    6.0304    0.3823    1.0055 C   0  0  0  0  0  0  0  0  0  0  0  0
    7.0242    1.3303    1.1318 C   0  0  0  0  0  0  0  0  0  0  0  0
    8.3045    0.9232    0.7721 C   0  0  0  0  0  0  0  0  0  0  0  0
    8.5754   -0.3487    0.3155 C   0  0  0  0  0  0  0  0  0  0  0  0
    7.5531   -1.2668    0.2039 C   0  0  0  0  0  0  0  0  0  0  0  0
    6.2601   -0.8890    0.5565 C   0  0  0  0  0  0  0  0  0  0  0  0
    7.7901   -2.6429   -0.2800 C   0  0  0  0  0  0  0  0  0  0  0  0
    6.8621   -3.4827   -0.3820 O   0  0  0  0  0  0  0  0  0  0  0  0
    9.1177   -2.9667   -0.6233 O   0  0  0  0  0  0  0  0  0  0  0  0
    9.8156   -0.7594   -0.0384 F   0  0  0  0  0  0  0  0  0  0  0  0
   -1.1924    1.2329   -0.3858 C   0  0  0  0  0  0  0  0  0  0  0  0
   -2.5701    1.1540   -0.3079 C   0  0  0  0  0  0  0  0  0  0  0  0
   -3.2115   -0.0222   -0.7239 C   0  0  0  0  0  0  0  0  0  0  0  0
   -2.4131   -1.0200   -1.1827 C   0  0  0  0  0  0  0  0  0  0  0  0
   -3.0273   -2.2008   -1.6026 O   0  0  0  0  0  0  0  0  0  0  0  0
   -4.6647   -0.1454   -0.6634 C   0  0  0  0  0  0  0  0  0  0  0  0
   -5.1529   -1.2340   -1.0622 O   0  0  0  0  0  0  0  0  0  0  0  0
   -5.4426    0.9893   -0.1513 C   0  0  0  0  0  0  0  0  0  0  0  0
   -6.9307    0.7218   -0.1959 C   0  0  0  0  0  0  0  0  0  0  0  0
   -7.2963   -0.5018    0.6437 C   0  0  0  0  0  0  0  0  0  0  0  0
   -7.5904    1.9625    0.3851 C   0  0  0  0  0  0  0  0  0  0  0  0
   -7.3332    0.4766   -1.6103 C   0  0  0  0  0  0  0  0  0  0  0  0
    0.5749   -1.7381   -2.4339 H   0  0  0  0  0  0  0  0  0  0  0  0
   -0.9585   -2.7464   -2.3324 H   0  0  0  0  0  0  0  0  0  0  0  0
    0.1707   -2.6353   -0.9034 H   0  0  0  0  0  0  0  0  0  0  0  0
    2.8998    0.8216   -0.9829 H   0  0  0  0  0  0  0  0  0  0  0  0
    1.6431    2.1368   -1.2083 H   0  0  0  0  0  0  0  0  0  0  0  0
    2.8210    2.3448    0.9450 H   0  0  0  0  0  0  0  0  0  0  0  0
    1.0952    2.0147    1.2521 H   0  0  0  0  0  0  0  0  0  0  0  0
    1.5064   -0.3689    1.5863 H   0  0  0  0  0  0  0  0  0  0  0  0
    2.3746    0.6524    2.7510 H   0  0  0  0  0  0  0  0  0  0  0  0
    3.6191   -0.5762    0.2066 H   0  0  0  0  0  0  0  0  0  0  0  0
    3.9386   -1.0635    1.9253 H   0  0  0  0  0  0  0  0  0  0  0  0
    6.8193    2.3391    1.4916 H   0  0  0  0  0  0  0  0  0  0  0  0
    9.1020    1.6467    0.8612 H   0  0  0  0  0  0  0  0  0  0  0  0
    5.4451   -1.5817    0.4798 H   0  0  0  0  0  0  0  0  0  0  0  0
    9.3663   -3.9335   -0.8607 H   0  0  0  0  0  0  0  0  0  0  0  0
   -0.7553    2.1657   -0.0686 H   0  0  0  0  0  0  0  0  0  0  0  0
   -3.1559    1.9970    0.0734 H   0  0  0  0  0  0  0  0  0  0  0  0
   -2.7606   -3.0363   -1.0675 H   0  0  0  0  0  0  0  0  0  0  0  0
   -5.1776    1.2055    0.9243 H   0  0  0  0  0  0  0  0  0  0  0  0
   -5.2747    1.9260   -0.7230 H   0  0  0  0  0  0  0  0  0  0  0  0
   -7.2776   -1.3664   -0.0501 H   0  0  0  0  0  0  0  0  0  0  0  0
   -6.5986   -0.6084    1.4931 H   0  0  0  0  0  0  0  0  0  0  0  0
   -8.3383   -0.3682    0.9693 H   0  0  0  0  0  0  0  0  0  0  0  0
   -7.5507    1.8410    1.4888 H   0  0  0  0  0  0  0  0  0  0  0  0
   -6.9960    2.8277    0.0911 H   0  0  0  0  0  0  0  0  0  0  0  0
   -8.6643    2.0222    0.1230 H   0  0  0  0  0  0  0  0  0  0  0  0
   -8.0120   -0.3872   -1.7598 H   0  0  0  0  0  0  0  0  0  0  0  0
   -6.4356    0.3018   -2.2359 H   0  0  0  0  0  0  0  0  0  0  0  0
   -7.7885    1.4125   -2.0464 H   0  0  0  0  0  0  0  0  0  0  0  0
  1  2  1  0
  2  3  2  0
  3  4  1  0
  4  5  1  0
  5  6  1  0
  6  7  1  0
  7  8  1  0
  8  9  1  0
  9 10  1  0
 10 11  2  0
 11 12  1  0
 12 13  2  0
 13 14  1  0
 14 15  2  0
 14 16  1  0
 16 17  2  0
 16 18  1  0
 13 19  1  0
  3 20  1  0
 20 21  2  0
 21 22  1  0
 22 23  2  0
 23 24  1  0
 22 25  1  0
 25 26  2  0
 25 27  1  0
 27 28  1  0
 28 29  1  0
 28 30  1  0
 28 31  1  0
 23  2  1  0
 15 10  1  0
  1 32  1  0
  1 33  1  0
  1 34  1  0
  5 35  1  0
  5 36  1  0
  6 37  1  0
  6 38  1  0
  7 39  1  0
  7 40  1  0
  8 41  1  0
  8 42  1  0
 11 43  1  0
 12 44  1  0
 15 45  1  0
 18 46  1  0
 20 47  1  0
 21 48  1  0
 24 49  1  0
 27 50  1  0
 27 51  1  0
 29 52  1  0
 29 53  1  0
 29 54  1  0
 30 55  1  0
 30 56  1  0
 30 57  1  0
 31 58  1  0
 31 59  1  0
 31 60  1  0
M  END
>  <Ligand ID>  (1) 
LIG0003638

>  <Ligand>  (1) 
CHEMBL3287726

>  <SMILES>  (1) 
Cc1c(OCCCCOc2ccc(c(c2)C(=O)O)F)ccc(c1O)C(=O)CC(C)(C)C

>  <CID>  (1) 
90643889.0

>  <ChEMBL ID>  (1) 
nan

>  <InChiKey>  (1) 
CWZPRSAZWABAER-UHFFFAOYSA-N

>  <InChi>  (1) 
InChI=1S/C24H29FO6/c1-15-21(10-8-17(22(15)27)20(26)14-24(2,3)4)31-12-6-5-11-30-16-7-9-19(25)18(13-16)23(28)29/h7-10,13,27H,5-6,11-12,14H2,1-4H3,(H,28,29)

>  <IUPAC Name>  (1) 
5-[4-[4-(3,3-dimethylbutanoyl)-3-hydroxy-2-methylphenoxy]butoxy]-2-fluorobenzoic acid

$$$$
