
     RDKit          3D

 35 37  0  0  0  0  0  0  0  0999 V2000
    4.7513    0.0077   -0.9100 C   0  0  0  0  0  0  0  0  0  0  0  0
    4.2518    0.7214    0.3433 C   0  0  0  0  0  0  0  0  0  0  0  0
    2.8973    0.2317    0.6168 C   0  0  0  0  0  0  0  0  0  0  0  0
    2.6037   -0.8618    1.4084 C   0  0  0  0  0  0  0  0  0  0  0  0
    1.3102   -1.2820    1.6346 C   0  0  0  0  0  0  0  0  0  0  0  0
    0.2268   -0.6012    1.0582 C   0  0  0  0  0  0  0  0  0  0  0  0
    0.5480    0.4760    0.2802 C   0  0  0  0  0  0  0  0  0  0  0  0
    1.8328    0.9112    0.0424 C   0  0  0  0  0  0  0  0  0  0  0  0
   -0.5335    1.2194   -0.3539 C   0  0  0  0  0  0  0  0  0  0  0  0
   -0.3309    2.2238   -1.0855 O   0  0  0  0  0  0  0  0  0  0  0  0
   -1.8523    0.7571   -0.1093 N   0  0  0  0  0  0  0  0  0  0  0  0
   -2.1706   -0.4709    0.5799 C   0  0  2  0  0  0  0  0  0  0  0  0
   -1.1081   -1.1147    1.3612 C   0  0  0  0  0  0  0  0  0  0  0  0
   -2.7574   -1.3714   -0.5102 C   0  0  0  0  0  0  0  0  0  0  0  0
   -4.0171   -0.6972   -0.8670 N   0  0  0  0  0  0  0  0  0  0  0  0
   -3.7790    0.5762   -1.4709 C   0  0  0  0  0  0  0  0  0  0  0  0
   -3.0144    1.5382   -0.5755 C   0  0  0  0  0  0  0  0  0  0  0  0
    4.6496    0.6876   -1.8012 H   0  0  0  0  0  0  0  0  0  0  0  0
    4.1483   -0.8932   -1.1417 H   0  0  0  0  0  0  0  0  0  0  0  0
    5.8071   -0.3063   -0.8270 H   0  0  0  0  0  0  0  0  0  0  0  0
    4.9192    0.3691    1.1603 H   0  0  0  0  0  0  0  0  0  0  0  0
    4.3290    1.8057    0.2408 H   0  0  0  0  0  0  0  0  0  0  0  0
    3.4136   -1.3991    1.8603 H   0  0  0  0  0  0  0  0  0  0  0  0
    1.1318   -2.1605    2.2744 H   0  0  0  0  0  0  0  0  0  0  0  0
    2.0019    1.7895   -0.5978 H   0  0  0  0  0  0  0  0  0  0  0  0
   -3.0518   -0.3119    1.2794 H   0  0  0  0  0  0  0  0  0  0  0  0
   -1.2931   -0.9659    2.4552 H   0  0  0  0  0  0  0  0  0  0  0  0
   -1.0671   -2.2325    1.1650 H   0  0  0  0  0  0  0  0  0  0  0  0
   -2.1122   -1.2641   -1.4017 H   0  0  0  0  0  0  0  0  0  0  0  0
   -2.9547   -2.3886   -0.1791 H   0  0  0  0  0  0  0  0  0  0  0  0
   -4.5268   -0.6110    0.0557 H   0  0  0  0  0  0  0  0  0  0  0  0
   -3.1709    0.4267   -2.3716 H   0  0  0  0  0  0  0  0  0  0  0  0
   -4.7563    1.0409   -1.6639 H   0  0  0  0  0  0  0  0  0  0  0  0
   -2.7100    2.4115   -1.1401 H   0  0  0  0  0  0  0  0  0  0  0  0
   -3.6162    1.7389    0.3366 H   0  0  0  0  0  0  0  0  0  0  0  0
  1  2  1  0
  2  3  1  0
  3  4  2  0
  4  5  1  0
  5  6  2  0
  6  7  1  0
  7  8  2  0
  7  9  1  0
  9 10  2  0
  9 11  1  0
 11 12  1  0
 12 13  1  0
 12 14  1  0
 14 15  1  0
 15 16  1  0
 16 17  1  0
  8  3  1  0
 17 11  1  0
 13  6  1  0
  1 18  1  0
  1 19  1  0
  1 20  1  0
  2 21  1  0
  2 22  1  0
  4 23  1  0
  5 24  1  0
  8 25  1  0
 12 26  1  1
 13 27  1  0
 13 28  1  0
 14 29  1  0
 14 30  1  0
 15 31  1  0
 16 32  1  0
 16 33  1  0
 17 34  1  0
 17 35  1  0
M  END
>  <Ligand ID>  (1) 
LIG0004119

>  <Ligand>  (1) 
SCHEMBL3555297

>  <SMILES>  (1) 
CCc1ccc2c(c1)C(=O)N1[C@H](C2)CNCC1

>  <CID>  (1) 
24826869.0

>  <ChEMBL ID>  (1) 
nan

>  <InChiKey>  (1) 
HXKWNDDYELCXPF-GFCCVEGCSA-N

>  <InChi>  (1) 
InChI=1S/C14H18N2O/c1-2-10-3-4-11-8-12-9-15-5-6-16(12)14(17)13(11)7-10/h3-4,7,12,15H,2,5-6,8-9H2,1H3/t12-/m1/s1

>  <IUPAC Name>  (1) 
(11aR)-8-ethyl-1,2,3,4,11,11a-hexahydropyrazino[1,2-b]isoquinolin-6-one

$$$$
