
     RDKit          3D

 10 10  0  0  0  0  0  0  0  0999 V2000
   -1.0047   -0.3926   -0.2049 C   0  0  0  0  0  0  0  0  0  0  0  0
   -0.0841    0.7310    0.2141 C   0  0  0  0  0  0  0  0  0  0  0  0
    1.0835   -0.2339    0.0512 C   0  0  0  0  0  0  0  0  0  0  0  0
    0.2531   -0.9238   -1.3854 S   0  0  0  0  0  0  0  0  0  0  0  0
   -1.9575   -0.0283   -0.6408 H   0  0  0  0  0  0  0  0  0  0  0  0
   -1.2029   -1.1648    0.5453 H   0  0  0  0  0  0  0  0  0  0  0  0
   -0.0600    1.5106   -0.5720 H   0  0  0  0  0  0  0  0  0  0  0  0
   -0.2274    1.1006    1.2446 H   0  0  0  0  0  0  0  0  0  0  0  0
    1.1542   -0.8765    0.9470 H   0  0  0  0  0  0  0  0  0  0  0  0
    2.0457    0.2776   -0.1992 H   0  0  0  0  0  0  0  0  0  0  0  0
  1  2  1  0
  2  3  1  0
  3  4  1  0
  4  1  1  0
  1  5  1  0
  1  6  1  0
  2  7  1  0
  2  8  1  0
  3  9  1  0
  3 10  1  0
M  END
>  <Ligand ID>  (1) 
LIG0002047

>  <Ligand>  (1) 
thietane

>  <SMILES>  (1) 
C1CCS1

>  <CID>  (1) 
9251.0

>  <ChEMBL ID>  (1) 
nan

>  <InChiKey>  (1) 
XSROQCDVUIHRSI-UHFFFAOYSA-N

>  <InChi>  (1) 
InChI=1S/C3H6S/c1-2-4-3-1/h1-3H2

>  <IUPAC Name>  (1) 
thietane

$$$$
