
     RDKit          3D

 80 81  0  0  0  0  0  0  0  0999 V2000
   -3.0835   -1.6323    0.7163 O   0  0  0  0  0  0  0  0  0  0  0  0
   -2.7156   -2.3775    1.6468 C   0  0  0  0  0  0  0  0  0  0  0  0
   -3.6319   -2.7307    2.6407 N   0  0  0  0  0  0  0  0  0  0  0  0
   -4.9742   -2.1973    2.6018 C   0  0  0  0  0  0  0  0  0  0  0  0
   -5.4150   -1.3885    1.8532 N   0  0  0  0  0  0  0  0  0  0  0  0
   -5.8289   -0.4660    0.9612 C   0  0  0  0  0  0  0  0  0  0  0  0
   -6.4269    0.7815    1.6065 C   0  0  0  0  0  0  0  0  0  0  0  0
   -6.8122    1.8120    0.6109 C   0  0  0  0  0  0  0  0  0  0  0  0
   -7.8163    1.4883   -0.3557 C   0  0  0  0  0  0  0  0  0  0  0  0
   -9.5255    1.9940    0.1363 S   0  0  0  0  0  0  0  0  0  0  0  0
  -10.2165    1.2672   -1.4698 C   0  0  0  0  0  0  0  0  0  0  0  0
   -9.2305    0.8496   -1.9976 N   0  0  0  0  0  0  0  0  0  0  0  0
   -7.9968    0.9020   -1.5479 C   0  0  0  0  0  0  0  0  0  0  0  0
   -6.8294    0.4082   -2.3836 C   0  0  0  0  0  0  0  0  0  0  0  0
  -11.6511    1.3820   -1.6697 N   0  0  0  0  0  0  0  0  0  0  0  0
   -5.8292   -2.7806    3.6313 N   0  0  0  0  0  0  0  0  0  0  0  0
   -1.2864   -2.8213    1.5876 C   0  0  0  0  0  0  0  0  0  0  0  0
   -0.8692   -2.6108    0.1410 C   0  0  0  0  0  0  0  0  0  0  0  0
    0.5851   -2.9063   -0.0428 C   0  0  0  0  0  0  0  0  0  0  0  0
    1.4615   -1.9334    0.7480 C   0  0  0  0  0  0  0  0  0  0  0  0
    1.1473   -0.5774    0.1836 C   0  0  0  0  0  0  0  0  0  0  0  0
    1.9678    0.4959    0.8312 C   0  0  0  0  0  0  0  0  0  0  0  0
    1.6230    1.8547    0.1799 C   0  0  0  0  0  0  0  0  0  0  0  0
    1.9224    1.7360   -1.3155 C   0  0  0  0  0  0  0  0  0  0  0  0
    3.3562    1.4544   -1.5360 C   0  0  0  0  0  0  0  0  0  0  0  0
    4.2229    1.8182   -0.7307 O   0  0  0  0  0  0  0  0  0  0  0  0
    3.8250    0.7368   -2.6936 N   0  0  0  0  0  0  0  0  0  0  0  0
    5.2485    0.5115   -2.8421 C   0  0  0  0  0  0  0  0  0  0  0  0
    6.1463    0.9083   -2.1985 N   0  0  0  0  0  0  0  0  0  0  0  0
    7.0424    1.4475   -1.3606 C   0  0  0  0  0  0  0  0  0  0  0  0
    8.3346    0.5723   -1.3661 C   0  0  0  0  0  0  0  0  0  0  0  0
    9.3270    1.1822   -0.4130 C   0  0  0  0  0  0  0  0  0  0  0  0
    8.8502    1.0986    0.9738 C   0  0  0  0  0  0  0  0  0  0  0  0
    9.5631    1.6889    2.0299 C   0  0  0  0  0  0  0  0  0  0  0  0
    8.9132    1.4940    3.1841 N   0  0  0  0  0  0  0  0  0  0  0  0
    7.8135    0.7962    2.8668 C   0  0  0  0  0  0  0  0  0  0  0  0
    7.7725    0.5553    1.5322 N   0  0  0  0  0  0  0  0  0  0  0  0
    5.5253   -0.3927   -3.9751 N   0  0  0  0  0  0  0  0  0  0  0  0
   -3.3157   -3.3809    3.3944 H   0  0  0  0  0  0  0  0  0  0  0  0
   -6.6524   -0.8708    0.3119 H   0  0  0  0  0  0  0  0  0  0  0  0
   -5.0662   -0.0531    0.2454 H   0  0  0  0  0  0  0  0  0  0  0  0
   -7.3546    0.4329    2.1298 H   0  0  0  0  0  0  0  0  0  0  0  0
   -5.7401    1.1688    2.3947 H   0  0  0  0  0  0  0  0  0  0  0  0
   -5.8596    2.2099    0.0872 H   0  0  0  0  0  0  0  0  0  0  0  0
   -7.0748    2.7369    1.2333 H   0  0  0  0  0  0  0  0  0  0  0  0
   -5.9900    0.0642   -1.8088 H   0  0  0  0  0  0  0  0  0  0  0  0
   -6.4473    1.2753   -2.9927 H   0  0  0  0  0  0  0  0  0  0  0  0
   -7.2216   -0.3021   -3.1147 H   0  0  0  0  0  0  0  0  0  0  0  0
  -12.1686    2.1743   -1.2278 H   0  0  0  0  0  0  0  0  0  0  0  0
  -12.0873    0.6452   -2.2586 H   0  0  0  0  0  0  0  0  0  0  0  0
   -6.1342   -2.2696    4.4600 H   0  0  0  0  0  0  0  0  0  0  0  0
   -6.0881   -3.7870    3.4123 H   0  0  0  0  0  0  0  0  0  0  0  0
   -0.7264   -2.1953    2.2792 H   0  0  0  0  0  0  0  0  0  0  0  0
   -1.1954   -3.8882    1.8087 H   0  0  0  0  0  0  0  0  0  0  0  0
   -1.1804   -1.6552   -0.2806 H   0  0  0  0  0  0  0  0  0  0  0  0
   -1.4228   -3.3828   -0.4859 H   0  0  0  0  0  0  0  0  0  0  0  0
    0.8689   -2.7661   -1.1120 H   0  0  0  0  0  0  0  0  0  0  0  0
    0.7846   -3.9569    0.2186 H   0  0  0  0  0  0  0  0  0  0  0  0
    2.5088   -2.1542    0.4656 H   0  0  0  0  0  0  0  0  0  0  0  0
    1.3720   -2.0333    1.8259 H   0  0  0  0  0  0  0  0  0  0  0  0
    0.0844   -0.2764    0.3247 H   0  0  0  0  0  0  0  0  0  0  0  0
    1.3038   -0.6507   -0.9046 H   0  0  0  0  0  0  0  0  0  0  0  0
    1.6733    0.5910    1.8902 H   0  0  0  0  0  0  0  0  0  0  0  0
    3.0448    0.3189    0.7846 H   0  0  0  0  0  0  0  0  0  0  0  0
    2.3183    2.6033    0.5862 H   0  0  0  0  0  0  0  0  0  0  0  0
    0.6015    2.1605    0.3450 H   0  0  0  0  0  0  0  0  0  0  0  0
    1.2306    1.1058   -1.8617 H   0  0  0  0  0  0  0  0  0  0  0  0
    1.7470    2.7828   -1.7047 H   0  0  0  0  0  0  0  0  0  0  0  0
    3.1308    0.4083   -3.3790 H   0  0  0  0  0  0  0  0  0  0  0  0
    6.8265    1.7209   -0.3177 H   0  0  0  0  0  0  0  0  0  0  0  0
    7.4221    2.4893   -1.7666 H   0  0  0  0  0  0  0  0  0  0  0  0
    8.6599    0.5423   -2.4074 H   0  0  0  0  0  0  0  0  0  0  0  0
    7.9841   -0.4077   -0.9540 H   0  0  0  0  0  0  0  0  0  0  0  0
   10.2862    0.6073   -0.5462 H   0  0  0  0  0  0  0  0  0  0  0  0
    9.5014    2.2557   -0.7323 H   0  0  0  0  0  0  0  0  0  0  0  0
   10.5127    2.2331    1.9334 H   0  0  0  0  0  0  0  0  0  0  0  0
    7.0895    0.4940    3.6234 H   0  0  0  0  0  0  0  0  0  0  0  0
    7.0003    0.0111    1.1099 H   0  0  0  0  0  0  0  0  0  0  0  0
    4.9746   -0.3019   -4.8524 H   0  0  0  0  0  0  0  0  0  0  0  0
    6.2907   -1.1208   -3.8548 H   0  0  0  0  0  0  0  0  0  0  0  0
  1  2  2  0
  2  3  1  0
  3  4  1  0
  4  5  2  3
  5  6  1  0
  6  7  1  0
  7  8  1  0
  8  9  1  0
  9 10  1  0
 10 11  1  0
 11 12  2  0
 12 13  1  0
 13 14  1  0
 11 15  1  0
  4 16  1  0
  2 17  1  0
 17 18  1  0
 18 19  1  0
 19 20  1  0
 20 21  1  0
 21 22  1  0
 22 23  1  0
 23 24  1  0
 24 25  1  0
 25 26  2  0
 25 27  1  0
 27 28  1  0
 28 29  2  3
 29 30  1  0
 30 31  1  0
 31 32  1  0
 32 33  1  0
 33 34  2  0
 34 35  1  0
 35 36  2  0
 36 37  1  0
 28 38  1  0
 13  9  2  0
 37 33  1  0
  3 39  1  0
  6 40  1  0
  6 41  1  0
  7 42  1  0
  7 43  1  0
  8 44  1  0
  8 45  1  0
 14 46  1  0
 14 47  1  0
 14 48  1  0
 15 49  1  0
 15 50  1  0
 16 51  1  0
 16 52  1  0
 17 53  1  0
 17 54  1  0
 18 55  1  0
 18 56  1  0
 19 57  1  0
 19 58  1  0
 20 59  1  0
 20 60  1  0
 21 61  1  0
 21 62  1  0
 22 63  1  0
 22 64  1  0
 23 65  1  0
 23 66  1  0
 24 67  1  0
 24 68  1  0
 27 69  1  0
 30 70  1  0
 30 71  1  0
 31 72  1  0
 31 73  1  0
 32 74  1  0
 32 75  1  0
 34 76  1  0
 36 77  1  0
 37 78  1  0
 38 79  1  0
 38 80  1  0
M  END
>  <Ligand ID>  (1) 
LIG0001709

>  <Ligand>  (1) 
CHEMBL2165628

>  <SMILES>  (1) 
O=C(NC(=NCCCc1sc(nc1C)N)N)CCCCCCCCC(=O)NC(=NCCCc1cnc[nH]1)N

>  <CID>  (1) 
56954515.0

>  <ChEMBL ID>  (1) 
nan

>  <InChiKey>  (1) 
QWDSWUASBPMPBR-UHFFFAOYSA-N

>  <InChi>  (1) 
InChI=1S/C25H42N10O2S/c1-18-20(38-25(28)33-18)11-9-15-31-24(27)35-22(37)13-7-5-3-2-4-6-12-21(36)34-23(26)30-14-8-10-19-16-29-17-32-19/h16-17H,2-15H2,1H3,(H2,28,33)(H,29,32)(H3,26,30,34,36)(H3,27,31,35,37)

>  <IUPAC Name>  (1) 
N'-[N'-[3-(2-amino-4-methyl-1,3-thiazol-5-yl)propyl]carbamimidoyl]-N-[N'-[3-(1H-imidazol-5-yl)propyl]carbamimidoyl]decanediamide

$$$$
