
     RDKit          3D

 54 56  0  0  0  0  0  0  0  0999 V2000
    5.9416    3.2004    0.3497 C   0  0  0  0  0  0  0  0  0  0  0  0
    5.2774    2.0990    0.4034 O   0  0  0  0  0  0  0  0  0  0  0  0
    4.5953    1.0348    0.3958 C   0  0  0  0  0  0  0  0  0  0  0  0
    3.6976    0.7229   -0.6377 C   0  0  0  0  0  0  0  0  0  0  0  0
    2.9513   -0.4251   -0.6610 C   0  0  0  0  0  0  0  0  0  0  0  0
    2.0388   -0.6544   -1.8056 C   0  0  0  0  0  0  0  0  0  0  0  0
    0.7647   -0.0600   -1.4995 N   0  0  0  0  0  0  0  0  0  0  0  0
   -0.1926   -0.2379   -2.5315 C   0  0  0  0  0  0  0  0  0  0  0  0
   -1.5713    0.2035   -2.2248 C   0  0  0  0  0  0  0  0  0  0  0  0
   -1.9050    0.1829   -0.8200 N   0  0  0  0  0  0  0  0  0  0  0  0
   -0.8904    0.5847    0.1195 C   0  0  0  0  0  0  0  0  0  0  0  0
    0.3394   -0.2921   -0.1628 C   0  0  0  0  0  0  0  0  0  0  0  0
   -3.1831   -0.2135   -0.3282 C   0  0  0  0  0  0  0  0  0  0  0  0
   -3.3628   -1.2746    0.5279 C   0  0  0  0  0  0  0  0  0  0  0  0
   -4.5617   -1.6889    1.0220 C   0  0  0  0  0  0  0  0  0  0  0  0
   -5.7025   -0.9823    0.6305 C   0  0  0  0  0  0  0  0  0  0  0  0
   -5.5794    0.1035   -0.2370 C   0  0  0  0  0  0  0  0  0  0  0  0
   -4.3291    0.4796   -0.7086 C   0  0  0  0  0  0  0  0  0  0  0  0
   -4.2286    1.6403   -1.6323 C   0  0  0  0  0  0  0  0  0  0  0  0
   -6.7568    0.8836   -0.6805 C   0  0  0  0  0  0  0  0  0  0  0  0
    3.0961   -1.3060    0.3813 C   0  0  0  0  0  0  0  0  0  0  0  0
    3.9517   -1.0767    1.4302 C   0  0  0  0  0  0  0  0  0  0  0  0
    4.6867    0.0801    1.4287 C   0  0  0  0  0  0  0  0  0  0  0  0
    5.5699    0.3706    2.4607 O   0  0  0  0  0  0  0  0  0  0  0  0
    4.1033   -1.9632    2.4881 O   0  0  0  0  0  0  0  0  0  0  0  0
    3.3304   -3.1480    2.4609 C   0  0  0  0  0  0  0  0  0  0  0  0
    6.2323    3.4772   -0.7280 H   0  0  0  0  0  0  0  0  0  0  0  0
    6.9331    3.2528    0.8916 H   0  0  0  0  0  0  0  0  0  0  0  0
    5.4189    4.1321    0.7452 H   0  0  0  0  0  0  0  0  0  0  0  0
    3.5939    1.4332   -1.4588 H   0  0  0  0  0  0  0  0  0  0  0  0
    1.9647   -1.7680   -1.9289 H   0  0  0  0  0  0  0  0  0  0  0  0
    2.4748   -0.2904   -2.7492 H   0  0  0  0  0  0  0  0  0  0  0  0
   -0.1802   -1.3195   -2.8559 H   0  0  0  0  0  0  0  0  0  0  0  0
    0.2084    0.2957   -3.4400 H   0  0  0  0  0  0  0  0  0  0  0  0
   -1.6774    1.2772   -2.5580 H   0  0  0  0  0  0  0  0  0  0  0  0
   -2.3577   -0.3602   -2.7658 H   0  0  0  0  0  0  0  0  0  0  0  0
   -1.1865    0.3463    1.1793 H   0  0  0  0  0  0  0  0  0  0  0  0
   -0.5802    1.6372    0.0163 H   0  0  0  0  0  0  0  0  0  0  0  0
    1.1241    0.1380    0.5103 H   0  0  0  0  0  0  0  0  0  0  0  0
    0.1572   -1.3298    0.1156 H   0  0  0  0  0  0  0  0  0  0  0  0
   -2.4718   -1.8132    0.8242 H   0  0  0  0  0  0  0  0  0  0  0  0
   -4.7248   -2.5124    1.6895 H   0  0  0  0  0  0  0  0  0  0  0  0
   -6.6887   -1.2353    0.9681 H   0  0  0  0  0  0  0  0  0  0  0  0
   -3.4230    2.3417   -1.2976 H   0  0  0  0  0  0  0  0  0  0  0  0
   -4.0773    1.3120   -2.6881 H   0  0  0  0  0  0  0  0  0  0  0  0
   -5.1732    2.2223   -1.5967 H   0  0  0  0  0  0  0  0  0  0  0  0
   -6.6662    1.9077   -0.2434 H   0  0  0  0  0  0  0  0  0  0  0  0
   -6.8216    0.8949   -1.7788 H   0  0  0  0  0  0  0  0  0  0  0  0
   -7.6951    0.4539   -0.2780 H   0  0  0  0  0  0  0  0  0  0  0  0
    2.5152   -2.2032    0.3668 H   0  0  0  0  0  0  0  0  0  0  0  0
    5.5944   -0.1064    3.3463 H   0  0  0  0  0  0  0  0  0  0  0  0
    3.6562   -3.7955    1.5952 H   0  0  0  0  0  0  0  0  0  0  0  0
    3.4988   -3.7787    3.3548 H   0  0  0  0  0  0  0  0  0  0  0  0
    2.2707   -2.8726    2.3088 H   0  0  0  0  0  0  0  0  0  0  0  0
  1  2  1  0
  2  3  1  0
  3  4  2  0
  4  5  1  0
  5  6  1  0
  6  7  1  0
  7  8  1  0
  8  9  1  0
  9 10  1  0
 10 11  1  0
 11 12  1  0
 10 13  1  0
 13 14  2  0
 14 15  1  0
 15 16  2  0
 16 17  1  0
 17 18  2  0
 18 19  1  0
 17 20  1  0
  5 21  2  0
 21 22  1  0
 22 23  2  0
 23 24  1  0
 22 25  1  0
 25 26  1  0
 23  3  1  0
 12  7  1  0
 18 13  1  0
  1 27  1  0
  1 28  1  0
  1 29  1  0
  4 30  1  0
  6 31  1  0
  6 32  1  0
  8 33  1  0
  8 34  1  0
  9 35  1  0
  9 36  1  0
 11 37  1  0
 11 38  1  0
 12 39  1  0
 12 40  1  0
 14 41  1  0
 15 42  1  0
 16 43  1  0
 19 44  1  0
 19 45  1  0
 19 46  1  0
 20 47  1  0
 20 48  1  0
 20 49  1  0
 21 50  1  0
 24 51  1  0
 26 52  1  0
 26 53  1  0
 26 54  1  0
M  END
>  <Ligand ID>  (1) 
LIG0003589

>  <Ligand>  (1) 
SMR000102200

>  <SMILES>  (1) 
COc1cc(CN2CCN(CC2)c2cccc(c2C)C)cc(c1O)OC

>  <CID>  (1) 
1377033.0

>  <ChEMBL ID>  (1) 
nan

>  <InChiKey>  (1) 
FMKSCNHGTVSCMD-UHFFFAOYSA-N

>  <InChi>  (1) 
InChI=1S/C21H28N2O3/c1-15-6-5-7-18(16(15)2)23-10-8-22(9-11-23)14-17-12-19(25-3)21(24)20(13-17)26-4/h5-7,12-13,24H,8-11,14H2,1-4H3

>  <IUPAC Name>  (1) 
4-[[4-(2,3-dimethylphenyl)piperazin-1-yl]methyl]-2,6-dimethoxyphenol

$$$$
