
     RDKit          3D

 62 64  0  0  0  0  0  0  0  0999 V2000
   -7.6469   -3.6655    0.3127 N   0  0  0  0  0  0  0  0  0  0  0  0
   -7.0054   -2.7168    0.1950 C   0  0  0  0  0  0  0  0  0  0  0  0
   -6.1844   -1.5431    0.0371 C   0  0  0  0  0  0  0  0  0  0  0  0
   -4.8200   -1.6718    0.1818 C   0  0  0  0  0  0  0  0  0  0  0  0
   -3.9905   -0.5798    0.0392 C   0  0  0  0  0  0  0  0  0  0  0  0
   -4.5695    0.6346   -0.2504 C   0  0  0  0  0  0  0  0  0  0  0  0
   -5.9372    0.7511   -0.3927 C   0  0  0  0  0  0  0  0  0  0  0  0
   -6.7900   -0.3165   -0.2572 C   0  0  0  0  0  0  0  0  0  0  0  0
   -8.1406   -0.3037   -0.3779 O   0  0  0  0  0  0  0  0  0  0  0  0
   -8.8632    0.8566   -0.6654 C   0  0  0  0  0  0  0  0  0  0  0  0
   -9.8414    1.0881    0.4893 C   0  0  0  0  0  0  0  0  0  0  0  0
   -9.6324    0.7200   -1.9741 C   0  0  0  0  0  0  0  0  0  0  0  0
   -2.5455   -0.6997    0.1886 C   0  0  0  0  0  0  0  0  0  0  0  0
   -1.8367   -1.7700    0.4583 O   0  0  0  0  0  0  0  0  0  0  0  0
   -0.5545   -1.4508    0.5085 N   0  0  0  0  0  0  0  0  0  0  0  0
   -0.4136   -0.1347    0.2654 C   0  0  0  0  0  0  0  0  0  0  0  0
   -1.6657    0.3182    0.0678 N   0  0  0  0  0  0  0  0  0  0  0  0
    0.7917    0.6824    0.2146 C   0  0  0  0  0  0  0  0  0  0  0  0
    0.7210    2.0168   -0.0474 C   0  0  0  0  0  0  0  0  0  0  0  0
    1.7998    2.8643   -0.1118 C   0  0  0  0  0  0  0  0  0  0  0  0
    3.0455    2.3128    0.1068 C   0  0  0  0  0  0  0  0  0  0  0  0
    3.1290    0.9479    0.3754 C   0  0  0  0  0  0  0  0  0  0  0  0
    2.0392    0.1262    0.4339 C   0  0  0  0  0  0  0  0  0  0  0  0
    2.4917   -1.2535    0.7362 C   0  0  0  0  0  0  0  0  0  0  0  0
    3.9064   -1.0659    1.2619 C   0  0  0  0  0  0  0  0  0  0  0  0
    4.4001    0.1846    0.6342 C   0  0  1  0  0  0  0  0  0  0  0  0
    4.9821   -0.0382   -0.6471 N   0  0  0  0  0  0  0  0  0  0  0  0
    6.1903   -0.8017   -0.7050 C   0  0  0  0  0  0  0  0  0  0  0  0
    7.2819   -0.0020   -0.0945 C   0  0  0  0  0  0  0  0  0  0  0  0
    7.0963    1.1691    0.3746 O   0  0  0  0  0  0  0  0  0  0  0  0
    8.6192   -0.4867    0.0114 N   0  0  0  0  0  0  0  0  0  0  0  0
    9.5764    0.4266    0.6406 C   0  0  0  0  0  0  0  0  0  0  0  0
    9.0517   -1.7705   -0.4519 C   0  0  0  0  0  0  0  0  0  0  0  0
    0.6863    0.0000    0.0000 Cl  0  0  0  0  0  0  0  0  0  0  0  0
   -4.3835   -2.6290    0.4082 H   0  0  0  0  0  0  0  0  0  0  0  0
   -3.9218    1.4884   -0.3618 H   0  0  0  0  0  0  0  0  0  0  0  0
   -6.3146    1.7337   -0.6198 H   0  0  0  0  0  0  0  0  0  0  0  0
   -8.2837    1.7781   -0.7657 H   0  0  0  0  0  0  0  0  0  0  0  0
  -10.7819    0.5893    0.1573 H   0  0  0  0  0  0  0  0  0  0  0  0
   -9.4663    0.5410    1.3623 H   0  0  0  0  0  0  0  0  0  0  0  0
   -9.9791    2.1664    0.6451 H   0  0  0  0  0  0  0  0  0  0  0  0
  -10.4473    1.4484   -1.9620 H   0  0  0  0  0  0  0  0  0  0  0  0
   -8.9311    0.9865   -2.7920 H   0  0  0  0  0  0  0  0  0  0  0  0
   -9.9537   -0.3335   -2.1315 H   0  0  0  0  0  0  0  0  0  0  0  0
   -0.2653    2.4431   -0.2184 H   0  0  0  0  0  0  0  0  0  0  0  0
    1.6584    3.9078   -0.3244 H   0  0  0  0  0  0  0  0  0  0  0  0
    3.9161    2.9502    0.0629 H   0  0  0  0  0  0  0  0  0  0  0  0
    1.8143   -1.6632    1.5215 H   0  0  0  0  0  0  0  0  0  0  0  0
    2.4740   -1.9158   -0.1524 H   0  0  0  0  0  0  0  0  0  0  0  0
    4.4922   -1.9284    0.9327 H   0  0  0  0  0  0  0  0  0  0  0  0
    3.8933   -1.0103    2.3861 H   0  0  0  0  0  0  0  0  0  0  0  0
    5.0576    0.7816    1.3171 H   0  0  0  0  0  0  0  0  0  0  0  0
    5.0279    0.8425   -1.2310 H   0  0  0  0  0  0  0  0  0  0  0  0
    6.4118   -0.9082   -1.8191 H   0  0  0  0  0  0  0  0  0  0  0  0
    6.0486   -1.7721   -0.2460 H   0  0  0  0  0  0  0  0  0  0  0  0
    9.4418    1.4485    0.2153 H   0  0  0  0  0  0  0  0  0  0  0  0
   10.6004    0.0555    0.4337 H   0  0  0  0  0  0  0  0  0  0  0  0
    9.4267    0.4439    1.7331 H   0  0  0  0  0  0  0  0  0  0  0  0
    9.2047   -2.4581    0.4131 H   0  0  0  0  0  0  0  0  0  0  0  0
   10.0943   -1.6102   -0.8561 H   0  0  0  0  0  0  0  0  0  0  0  0
    8.4812   -2.2048   -1.2695 H   0  0  0  0  0  0  0  0  0  0  0  0
   -0.6863    0.0000    0.0000 H   0  0  0  0  0  0  0  0  0  0  0  0
  1  2  3  0
  2  3  1  0
  3  4  2  0
  4  5  1  0
  5  6  2  0
  6  7  1  0
  7  8  2  0
  8  9  1  0
  9 10  1  0
 10 11  1  0
 10 12  1  0
  5 13  1  0
 13 14  1  0
 14 15  1  0
 15 16  2  0
 16 17  1  0
 16 18  1  0
 18 19  2  0
 19 20  1  0
 20 21  2  0
 21 22  1  0
 22 23  2  0
 23 24  1  0
 24 25  1  0
 25 26  1  0
 26 27  1  0
 27 28  1  0
 28 29  1  0
 29 30  2  0
 29 31  1  0
 31 32  1  0
 31 33  1  0
  8  3  1  0
 17 13  2  0
 23 18  1  0
 26 22  1  0
  4 35  1  0
  6 36  1  0
  7 37  1  0
 10 38  1  0
 11 39  1  0
 11 40  1  0
 11 41  1  0
 12 42  1  0
 12 43  1  0
 12 44  1  0
 19 45  1  0
 20 46  1  0
 21 47  1  0
 24 48  1  0
 24 49  1  0
 25 50  1  0
 25 51  1  0
 26 52  1  1
 27 53  1  0
 28 54  1  0
 28 55  1  0
 32 56  1  0
 32 57  1  0
 32 58  1  0
 33 59  1  0
 33 60  1  0
 33 61  1  0
 34 62  1  0
M  END
>  <Ligand ID>  (1) 
LIG0001531

>  <Ligand>  (1) 
SCHEMBL1886769

>  <SMILES>  (1) 
N#Cc1cc(ccc1OC(C)C)c1onc(n1)c1cccc2c1CC[C@H]2NCC(=O)N(C)C.Cl

>  <CID>  (1) 
67200606.0

>  <ChEMBL ID>  (1) 
nan

>  <InChiKey>  (1) 
IANYXLDHLUODAK-ZMBIFBSDSA-N

>  <InChi>  (1) 
InChI=1S/C25H27N5O3.ClH/c1-15(2)32-22-11-8-16(12-17(22)13-26)25-28-24(29-33-25)20-7-5-6-19-18(20)9-10-21(19)27-14-23(31)30(3)4;/h5-8,11-12,15,21,27H,9-10,14H2,1-4H3;1H/t21-;/m1./s1

>  <IUPAC Name>  (1) 
2-[[(1R)-4-[5-(3-cyano-4-propan-2-yloxyphenyl)-1,2,4-oxadiazol-3-yl]-2,3-dihydro-1H-inden-1-yl]amino]-N,N-dimethylacetamide;hydrochloride

$$$$
