
     RDKit          3D

 32 31  0  0  0  0  0  0  0  0999 V2000
    3.0611    1.4688   -0.0390 C   0  0  0  0  0  0  0  0  0  0  0  0
    3.1188    0.2611   -0.9649 C   0  0  0  0  0  0  0  0  0  0  0  0
    2.9170   -1.0202   -0.2840 C   0  0  0  0  0  0  0  0  0  0  0  0
    1.7144   -1.3243    0.4864 C   0  0  0  0  0  0  0  0  0  0  0  0
    0.3697   -1.3494   -0.1436 C   0  0  0  0  0  0  0  0  0  0  0  0
   -0.1542   -0.1034   -0.7402 C   0  0  0  0  0  0  0  0  0  0  0  0
   -1.5526   -0.3087   -1.3114 C   0  0  0  0  0  0  0  0  0  0  0  0
   -2.5521   -0.7407   -0.2664 C   0  0  0  0  0  0  0  0  0  0  0  0
   -2.6368    0.2971    0.8091 C   0  0  0  0  0  0  0  0  0  0  0  0
   -3.7580    0.9310    1.1008 C   0  0  0  0  0  0  0  0  0  0  0  0
   -3.7741    1.9374    2.1663 C   0  0  0  0  0  0  0  0  0  0  0  0
   -4.8267    2.5325    2.4401 O   0  0  0  0  0  0  0  0  0  0  0  0
    2.1828    1.4732    0.6135 H   0  0  0  0  0  0  0  0  0  0  0  0
    3.0045    2.3657   -0.6900 H   0  0  0  0  0  0  0  0  0  0  0  0
    3.9949    1.5675    0.5669 H   0  0  0  0  0  0  0  0  0  0  0  0
    4.2421    0.2543   -1.2653 H   0  0  0  0  0  0  0  0  0  0  0  0
    2.6215    0.4947   -1.8883 H   0  0  0  0  0  0  0  0  0  0  0  0
    3.8599   -1.1927    0.3444 H   0  0  0  0  0  0  0  0  0  0  0  0
    3.0187   -1.8417   -1.0765 H   0  0  0  0  0  0  0  0  0  0  0  0
    1.8584   -2.3916    0.8873 H   0  0  0  0  0  0  0  0  0  0  0  0
    1.6476   -0.7486    1.4576 H   0  0  0  0  0  0  0  0  0  0  0  0
   -0.3347   -1.7047    0.6833 H   0  0  0  0  0  0  0  0  0  0  0  0
    0.3176   -2.1449   -0.9339 H   0  0  0  0  0  0  0  0  0  0  0  0
   -0.2049    0.6626    0.0751 H   0  0  0  0  0  0  0  0  0  0  0  0
    0.4540    0.2313   -1.5841 H   0  0  0  0  0  0  0  0  0  0  0  0
   -1.5342   -1.1103   -2.0741 H   0  0  0  0  0  0  0  0  0  0  0  0
   -1.9288    0.6472   -1.7390 H   0  0  0  0  0  0  0  0  0  0  0  0
   -3.5774   -0.8464   -0.7285 H   0  0  0  0  0  0  0  0  0  0  0  0
   -2.2575   -1.7007    0.1467 H   0  0  0  0  0  0  0  0  0  0  0  0
   -1.7648    0.5550    1.3819 H   0  0  0  0  0  0  0  0  0  0  0  0
   -4.6462    0.6910    0.5420 H   0  0  0  0  0  0  0  0  0  0  0  0
   -2.8800    2.1579    2.7064 H   0  0  0  0  0  0  0  0  0  0  0  0
  1  2  1  0
  2  3  1  0
  3  4  1  0
  4  5  1  0
  5  6  1  0
  6  7  1  0
  7  8  1  0
  8  9  1  0
  9 10  2  0
 10 11  1  0
 11 12  2  0
  1 13  1  0
  1 14  1  0
  1 15  1  0
  2 16  1  0
  2 17  1  0
  3 18  1  0
  3 19  1  0
  4 20  1  0
  4 21  1  0
  5 22  1  0
  5 23  1  0
  6 24  1  0
  6 25  1  0
  7 26  1  0
  7 27  1  0
  8 28  1  0
  8 29  1  0
  9 30  1  0
 10 31  1  0
 11 32  1  0
M  END
>  <Ligand ID>  (1) 
LIG0000159

>  <Ligand>  (1) 
(E)-undec-2-enal

>  <SMILES>  (1) 
CCCCCCCC/C=C/C=O

>  <CID>  (1) 
5283356.0

>  <ChEMBL ID>  (1) 
nan

>  <InChiKey>  (1) 
PANBRUWVURLWGY-MDZDMXLPSA-N

>  <InChi>  (1) 
InChI=1S/C11H20O/c1-2-3-4-5-6-7-8-9-10-11-12/h9-11H,2-8H2,1H3/b10-9+

>  <IUPAC Name>  (1) 
(E)-undec-2-enal

$$$$
