
     RDKit          3D

 35 37  0  0  0  0  0  0  0  0999 V2000
    4.3147   -1.0165    0.0782 C   0  0  0  0  0  0  0  0  0  0  0  0
    3.5407   -0.4526    1.2259 C   0  0  0  0  0  0  0  0  0  0  0  0
    2.2173    0.0612    0.7951 C   0  0  0  0  0  0  0  0  0  0  0  0
    1.0758   -0.7216    0.7726 C   0  0  0  0  0  0  0  0  0  0  0  0
   -0.1241   -0.1461    0.3508 C   0  0  0  0  0  0  0  0  0  0  0  0
   -1.4502   -0.7711    0.2437 C   0  0  2  0  0  0  0  0  0  0  0  0
   -1.5262   -1.9487   -0.6792 C   0  0  0  0  0  0  0  0  0  0  0  0
   -2.9119   -2.3418   -0.7441 N   0  0  0  0  0  0  0  0  0  0  0  0
   -3.8055   -1.4831   -0.0248 C   0  0  0  0  0  0  0  0  0  0  0  0
   -3.6969   -0.0144   -0.4552 C   0  0  0  0  0  0  0  0  0  0  0  0
   -2.2797    0.3141   -0.2438 N   0  0  0  0  0  0  0  0  0  0  0  0
   -1.5144    1.4979   -0.4162 C   0  0  0  0  0  0  0  0  0  0  0  0
   -1.9270    2.6077   -0.8209 O   0  0  0  0  0  0  0  0  0  0  0  0
   -0.1483    1.1769   -0.0311 C   0  0  0  0  0  0  0  0  0  0  0  0
    0.9790    1.9807   -0.0176 C   0  0  0  0  0  0  0  0  0  0  0  0
    2.1610    1.3915    0.4043 C   0  0  0  0  0  0  0  0  0  0  0  0
    0.9032    3.4076   -0.4401 C   0  0  0  0  0  0  0  0  0  0  0  0
    0.4818    3.5503   -1.7287 F   0  0  0  0  0  0  0  0  0  0  0  0
    0.1379    4.1515    0.4620 F   0  0  0  0  0  0  0  0  0  0  0  0
    2.1933    3.9264   -0.3731 F   0  0  0  0  0  0  0  0  0  0  0  0
    3.7816   -0.8618   -0.8987 H   0  0  0  0  0  0  0  0  0  0  0  0
    4.4841   -2.1157    0.1528 H   0  0  0  0  0  0  0  0  0  0  0  0
    5.3052   -0.4947    0.0077 H   0  0  0  0  0  0  0  0  0  0  0  0
    4.1385    0.3231    1.7736 H   0  0  0  0  0  0  0  0  0  0  0  0
    3.3761   -1.2595    1.9838 H   0  0  0  0  0  0  0  0  0  0  0  0
    1.1550   -1.7465    1.0815 H   0  0  0  0  0  0  0  0  0  0  0  0
   -1.7555   -1.1064    1.2551 H   0  0  0  0  0  0  0  0  0  0  0  0
   -1.0844   -1.7450   -1.6712 H   0  0  0  0  0  0  0  0  0  0  0  0
   -0.9381   -2.7739   -0.2281 H   0  0  0  0  0  0  0  0  0  0  0  0
   -3.2703   -2.5686   -1.6757 H   0  0  0  0  0  0  0  0  0  0  0  0
   -3.7329   -1.5788    1.0870 H   0  0  0  0  0  0  0  0  0  0  0  0
   -4.8364   -1.8356   -0.2641 H   0  0  0  0  0  0  0  0  0  0  0  0
   -3.9161   -0.0053   -1.5420 H   0  0  0  0  0  0  0  0  0  0  0  0
   -4.3738    0.5682    0.1677 H   0  0  0  0  0  0  0  0  0  0  0  0
    3.0466    2.0308    0.4126 H   0  0  0  0  0  0  0  0  0  0  0  0
  1  2  1  0
  2  3  1  0
  3  4  2  0
  4  5  1  0
  5  6  1  0
  6  7  1  0
  7  8  1  0
  8  9  1  0
  9 10  1  0
 10 11  1  0
 11 12  1  0
 12 13  2  0
 12 14  1  0
 14 15  1  0
 15 16  2  0
 15 17  1  0
 17 18  1  0
 17 19  1  0
 17 20  1  0
 16  3  1  0
 14  5  2  0
 11  6  1  0
  1 21  1  0
  1 22  1  0
  1 23  1  0
  2 24  1  0
  2 25  1  0
  4 26  1  0
  6 27  1  1
  7 28  1  0
  7 29  1  0
  8 30  1  0
  9 31  1  0
  9 32  1  0
 10 33  1  0
 10 34  1  0
 16 35  1  0
M  END
>  <Ligand ID>  (1) 
LIG0004098

>  <Ligand>  (1) 
CHEMBL221113

>  <SMILES>  (1) 
CCc1cc2[C@@H]3CNCCN3C(=O)c2c(c1)C(F)(F)F

>  <CID>  (1) 
11302765.0

>  <ChEMBL ID>  (1) 
nan

>  <InChiKey>  (1) 
AZBGLEQDAYJKBP-NSHDSACASA-N

>  <InChi>  (1) 
InChI=1S/C14H15F3N2O/c1-2-8-5-9-11-7-18-3-4-19(11)13(20)12(9)10(6-8)14(15,16)17/h5-6,11,18H,2-4,7H2,1H3/t11-/m0/s1

>  <IUPAC Name>  (1) 
(10bR)-9-ethyl-7-(trifluoromethyl)-2,3,4,10b-tetrahydro-1H-pyrazino[1,2-b]isoindol-6-one

$$$$
