
     RDKit          3D

 53 55  0  0  0  0  0  0  0  0999 V2000
   -2.7912   -0.6249   -4.2665 C   0  0  0  0  0  0  0  0  0  0  0  0
   -1.9320   -0.4299   -3.0292 C   0  0  2  0  0  0  0  0  0  0  0  0
   -0.5436   -0.9498   -3.3928 C   0  0  0  0  0  0  0  0  0  0  0  0
    0.3296   -0.7776   -2.2251 C   0  0  0  0  0  0  0  0  0  0  0  0
    0.5226   -1.7285   -1.2426 C   0  0  0  0  0  0  0  0  0  0  0  0
    1.3819   -1.4474   -0.1754 C   0  0  0  0  0  0  0  0  0  0  0  0
    2.0483   -0.2485   -0.0667 C   0  0  0  0  0  0  0  0  0  0  0  0
    1.8570    0.6993   -1.0445 C   0  0  0  0  0  0  0  0  0  0  0  0
    1.0107    0.4082   -2.0849 C   0  0  0  0  0  0  0  0  0  0  0  0
    2.9489    0.0663    1.0350 C   0  0  0  0  0  0  0  0  0  0  0  0
    3.6837   -0.9324    1.6387 C   0  0  0  0  0  0  0  0  0  0  0  0
    4.5529   -0.7128    2.6839 C   0  0  0  0  0  0  0  0  0  0  0  0
    4.6897    0.5792    3.1453 C   0  0  0  0  0  0  0  0  0  0  0  0
    3.9752    1.6119    2.5729 C   0  0  0  0  0  0  0  0  0  0  0  0
    3.1114    1.3523    1.5246 C   0  0  0  0  0  0  0  0  0  0  0  0
    5.5935    0.9163    4.2573 C   0  0  0  0  0  0  0  0  0  0  0  0
    5.7210    2.0910    4.6830 O   0  0  0  0  0  0  0  0  0  0  0  0
    6.3454   -0.0653    4.8812 O   0  0  0  0  0  0  0  0  0  0  0  0
   -2.4129   -1.1288   -1.8985 N   0  0  0  0  0  0  0  0  0  0  0  0
   -3.7368   -0.9034   -1.4611 C   0  0  0  0  0  0  0  0  0  0  0  0
   -3.9572    0.4538   -0.8831 C   0  0  1  0  0  0  0  0  0  0  0  0
   -3.1573    0.6607    0.3675 C   0  0  0  0  0  0  0  0  0  0  0  0
   -3.7498    0.4893    1.6078 C   0  0  0  0  0  0  0  0  0  0  0  0
   -3.0497    0.6736    2.7882 C   0  0  0  0  0  0  0  0  0  0  0  0
   -1.7210    1.0390    2.7410 C   0  0  0  0  0  0  0  0  0  0  0  0
   -1.1206    1.2122    1.5202 C   0  0  0  0  0  0  0  0  0  0  0  0
   -1.8326    1.0248    0.3578 C   0  0  0  0  0  0  0  0  0  0  0  0
   -3.6984    1.4575   -1.7876 O   0  0  0  0  0  0  0  0  0  0  0  0
   -2.1345   -0.4210   -5.1384 H   0  0  0  0  0  0  0  0  0  0  0  0
   -3.5747    0.1574   -4.2957 H   0  0  0  0  0  0  0  0  0  0  0  0
   -3.1677   -1.6500   -4.3915 H   0  0  0  0  0  0  0  0  0  0  0  0
   -1.8727    0.6508   -2.8386 H   0  0  0  0  0  0  0  0  0  0  0  0
   -0.5912   -1.9926   -3.7354 H   0  0  0  0  0  0  0  0  0  0  0  0
   -0.1161   -0.3573   -4.2339 H   0  0  0  0  0  0  0  0  0  0  0  0
    0.0140   -2.6796   -1.3071 H   0  0  0  0  0  0  0  0  0  0  0  0
    1.5604   -2.1707    0.6185 H   0  0  0  0  0  0  0  0  0  0  0  0
    2.3620    1.6453   -0.9896 H   0  0  0  0  0  0  0  0  0  0  0  0
    0.8835    1.1798   -2.8368 H   0  0  0  0  0  0  0  0  0  0  0  0
    3.5850   -1.9536    1.2847 H   0  0  0  0  0  0  0  0  0  0  0  0
    5.1168   -1.5144    3.1380 H   0  0  0  0  0  0  0  0  0  0  0  0
    4.0882    2.6201    2.9397 H   0  0  0  0  0  0  0  0  0  0  0  0
    2.5391    2.1401    1.0559 H   0  0  0  0  0  0  0  0  0  0  0  0
    7.2981    0.1046    5.1922 H   0  0  0  0  0  0  0  0  0  0  0  0
   -2.2185   -2.1604   -1.9157 H   0  0  0  0  0  0  0  0  0  0  0  0
   -3.9787   -1.6437   -0.6352 H   0  0  0  0  0  0  0  0  0  0  0  0
   -4.5159   -1.1267   -2.2262 H   0  0  0  0  0  0  0  0  0  0  0  0
   -5.0472    0.5050   -0.5935 H   0  0  0  0  0  0  0  0  0  0  0  0
   -4.7849    0.2049    1.6929 H   0  0  0  0  0  0  0  0  0  0  0  0
   -3.5618    0.5269    3.7318 H   0  0  0  0  0  0  0  0  0  0  0  0
   -1.2049    1.1745    3.6930 H   0  0  0  0  0  0  0  0  0  0  0  0
   -0.0735    1.4998    1.4617 H   0  0  0  0  0  0  0  0  0  0  0  0
   -1.3235    1.1739   -0.5731 H   0  0  0  0  0  0  0  0  0  0  0  0
   -3.3498    2.2590   -1.3441 H   0  0  0  0  0  0  0  0  0  0  0  0
  1  2  1  0
  2  3  1  0
  3  4  1  0
  4  5  2  0
  5  6  1  0
  6  7  2  0
  7  8  1  0
  8  9  2  0
  7 10  1  0
 10 11  2  0
 11 12  1  0
 12 13  2  0
 13 14  1  0
 14 15  2  0
 13 16  1  0
 16 17  2  0
 16 18  1  0
  2 19  1  0
 19 20  1  0
 20 21  1  0
 21 22  1  0
 22 23  2  0
 23 24  1  0
 24 25  2  0
 25 26  1  0
 26 27  2  0
 21 28  1  0
  9  4  1  0
 15 10  1  0
 27 22  1  0
  1 29  1  0
  1 30  1  0
  1 31  1  0
  2 32  1  1
  3 33  1  0
  3 34  1  0
  5 35  1  0
  6 36  1  0
  8 37  1  0
  9 38  1  0
 11 39  1  0
 12 40  1  0
 14 41  1  0
 15 42  1  0
 18 43  1  0
 19 44  1  0
 20 45  1  0
 20 46  1  0
 21 47  1  1
 23 48  1  0
 24 49  1  0
 25 50  1  0
 26 51  1  0
 27 52  1  0
 28 53  1  0
M  END
>  <Ligand ID>  (1) 
LIG0002204

>  <Ligand>  (1) 
CHEMBL507003

>  <SMILES>  (1) 
C[C@H](Cc1ccc(cc1)c1ccc(cc1)C(=O)O)NC[C@@H](c1ccccc1)O

>  <CID>  (1) 
24895789.0

>  <ChEMBL ID>  (1) 
nan

>  <InChiKey>  (1) 
MGNBJHRLGKVHMH-HXOBKFHXSA-N

>  <InChi>  (1) 
InChI=1S/C24H25NO3/c1-17(25-16-23(26)21-5-3-2-4-6-21)15-18-7-9-19(10-8-18)20-11-13-22(14-12-20)24(27)28/h2-14,17,23,25-26H,15-16H2,1H3,(H,27,28)/t17-,23+/m1/s1

>  <IUPAC Name>  (1) 
4-[4-[(2R)-2-[[(2R)-2-hydroxy-2-phenylethyl]amino]propyl]phenyl]benzoic acid

$$$$
