
     RDKit          3D

 17 17  0  0  0  0  0  0  0  0999 V2000
   -1.7571    1.5696   -1.0228 O   0  0  0  0  0  0  0  0  0  0  0  0
   -1.8236    0.3503   -0.3717 C   0  0  0  0  0  0  0  0  0  0  0  0
   -2.8323    0.1271    0.3825 O   0  0  0  0  0  0  0  0  0  0  0  0
   -0.8013   -0.7090   -0.4941 C   0  0  0  0  0  0  0  0  0  0  0  0
    0.5339   -0.2885   -0.0580 C   0  0  0  0  0  0  0  0  0  0  0  0
    1.5179   -1.1203    0.1953 O   0  0  0  0  0  0  0  0  0  0  0  0
    2.5660   -0.4550    0.5576 N   0  0  0  0  0  0  0  0  0  0  0  0
    2.2976    0.8601    0.5533 C   0  0  0  0  0  0  0  0  0  0  0  0
    3.1133    1.7614    0.8581 O   0  0  0  0  0  0  0  0  0  0  0  0
    0.9681    1.0077    0.1528 C   0  0  0  0  0  0  0  0  0  0  0  0
   -1.2212   -1.8299    0.3336 N   0  0  0  0  0  0  0  0  0  0  0  0
   -2.2902    2.3853   -0.7686 H   0  0  0  0  0  0  0  0  0  0  0  0
   -0.8141   -1.1223   -1.5345 H   0  0  0  0  0  0  0  0  0  0  0  0
    3.4834   -0.9259    0.8120 H   0  0  0  0  0  0  0  0  0  0  0  0
    0.4252    1.9133    0.0396 H   0  0  0  0  0  0  0  0  0  0  0  0
   -1.1121   -1.5229    1.3457 H   0  0  0  0  0  0  0  0  0  0  0  0
   -2.2536   -2.0011    0.2212 H   0  0  0  0  0  0  0  0  0  0  0  0
  1  2  1  0
  2  3  2  0
  2  4  1  0
  4  5  1  0
  5  6  1  0
  6  7  1  0
  7  8  1  0
  8  9  2  0
  8 10  1  0
  4 11  1  0
 10  5  2  0
  1 12  1  0
  4 13  1  0
  7 14  1  0
 10 15  1  0
 11 16  1  0
 11 17  1  0
M  END
>  <Ligand ID>  (1) 
LIG0002463

>  <Ligand>  (1) 
Ibotenic acid

>  <SMILES>  (1) 
OC(=O)C(c1o[nH]c(=O)c1)N

>  <CID>  (1) 
1233.0

>  <ChEMBL ID>  (1) 
nan

>  <InChiKey>  (1) 
IRJCBFDCFXCWGO-UHFFFAOYSA-N

>  <InChi>  (1) 
InChI=1S/C5H6N2O4/c6-4(5(9)10)2-1-3(8)7-11-2/h1,4H,6H2,(H,7,8)(H,9,10)

>  <IUPAC Name>  (1) 
2-amino-2-(3-oxo-1,2-oxazol-5-yl)acetic acid

$$$$
