
     RDKit          3D

 55 58  0  0  0  0  0  0  0  0999 V2000
    7.4674   -2.0431    2.7887 Br  0  0  0  0  0  0  0  0  0  0  0  0
    6.0411   -1.4260    1.7041 C   0  0  0  0  0  0  0  0  0  0  0  0
    5.3937   -2.2574    0.8127 C   0  0  0  0  0  0  0  0  0  0  0  0
    4.3521   -1.8264    0.0170 C   0  0  0  0  0  0  0  0  0  0  0  0
    3.9787   -0.5064    0.1518 C   0  0  0  0  0  0  0  0  0  0  0  0
    4.6101    0.3397    1.0329 C   0  0  0  0  0  0  0  0  0  0  0  0
    5.6589   -0.1025    1.8314 C   0  0  0  0  0  0  0  0  0  0  0  0
    2.9031    0.0658   -0.6120 N   0  0  0  0  0  0  0  0  0  0  0  0
    1.6168   -0.0111   -0.0177 C   0  0  0  0  0  0  0  0  0  0  0  0
    1.5330   -0.5680    1.1137 O   0  0  0  0  0  0  0  0  0  0  0  0
    0.3901    0.5488   -0.7042 C   0  0  0  0  0  0  0  0  0  0  0  0
    0.2118   -0.3232   -1.9160 C   0  0  0  0  0  0  0  0  0  0  0  0
    0.3914    0.3894   -3.2374 C   0  0  0  0  0  0  0  0  0  0  0  0
   -0.5630    1.5706   -3.1522 C   0  0  0  0  0  0  0  0  0  0  0  0
    0.1961    2.5414   -2.2772 C   0  0  0  0  0  0  0  0  0  0  0  0
    0.6172    1.9698   -0.9519 C   0  0  0  0  0  0  0  0  0  0  0  0
   -0.6883    0.2035    0.2241 N   0  0  0  0  0  0  0  0  0  0  0  0
   -0.8898   -1.1998    0.4204 C   0  0  0  0  0  0  0  0  0  0  0  0
   -0.1773   -2.0724   -0.1761 O   0  0  0  0  0  0  0  0  0  0  0  0
   -1.9126   -1.7398    1.3070 C   0  0  0  0  0  0  0  0  0  0  0  0
   -1.7826   -1.7314    2.6866 C   0  0  0  0  0  0  0  0  0  0  0  0
   -2.8093   -2.2726    3.4311 C   0  0  0  0  0  0  0  0  0  0  0  0
   -3.9381   -2.8102    2.8253 C   0  0  0  0  0  0  0  0  0  0  0  0
   -4.0082   -2.7894    1.4506 C   0  0  0  0  0  0  0  0  0  0  0  0
   -3.0177   -2.2658    0.7135 N   0  0  0  0  0  0  0  0  0  0  0  0
   -1.5057    1.1278    0.9160 C   0  0  0  0  0  0  0  0  0  0  0  0
   -2.7356    1.5499    0.2189 C   0  0  0  0  0  0  0  0  0  0  0  0
   -4.0171    1.0054    0.2687 C   0  0  0  0  0  0  0  0  0  0  0  0
   -4.8413    1.7594   -0.5677 C   0  0  0  0  0  0  0  0  0  0  0  0
   -4.0125    2.7312   -1.0866 C   0  0  0  0  0  0  0  0  0  0  0  0
   -2.8256    2.5774   -0.6159 O   0  0  0  0  0  0  0  0  0  0  0  0
    5.7181   -3.3045    0.7348 H   0  0  0  0  0  0  0  0  0  0  0  0
    3.8326   -2.4744   -0.6884 H   0  0  0  0  0  0  0  0  0  0  0  0
    4.3119    1.3939    1.1401 H   0  0  0  0  0  0  0  0  0  0  0  0
    6.1347    0.5881    2.5150 H   0  0  0  0  0  0  0  0  0  0  0  0
    3.0458    0.5103   -1.5428 H   0  0  0  0  0  0  0  0  0  0  0  0
   -0.8056   -0.7615   -1.9783 H   0  0  0  0  0  0  0  0  0  0  0  0
    0.9237   -1.1826   -1.9735 H   0  0  0  0  0  0  0  0  0  0  0  0
    1.4180    0.7712   -3.4014 H   0  0  0  0  0  0  0  0  0  0  0  0
    0.0497   -0.2814   -4.0312 H   0  0  0  0  0  0  0  0  0  0  0  0
   -0.7379    2.0468   -4.1151 H   0  0  0  0  0  0  0  0  0  0  0  0
   -1.4908    1.2865   -2.6175 H   0  0  0  0  0  0  0  0  0  0  0  0
   -0.4361    3.4497   -2.2023 H   0  0  0  0  0  0  0  0  0  0  0  0
    1.0665    2.8622   -2.9002 H   0  0  0  0  0  0  0  0  0  0  0  0
    1.7254    2.2229   -0.8691 H   0  0  0  0  0  0  0  0  0  0  0  0
    0.1859    2.6543   -0.1970 H   0  0  0  0  0  0  0  0  0  0  0  0
   -0.9003   -1.3110    3.1457 H   0  0  0  0  0  0  0  0  0  0  0  0
   -2.6959   -2.2649    4.5235 H   0  0  0  0  0  0  0  0  0  0  0  0
   -4.7047   -3.2226    3.4634 H   0  0  0  0  0  0  0  0  0  0  0  0
   -4.9097   -3.2190    0.9887 H   0  0  0  0  0  0  0  0  0  0  0  0
   -1.8913    0.5661    1.8406 H   0  0  0  0  0  0  0  0  0  0  0  0
   -0.8754    1.9766    1.2710 H   0  0  0  0  0  0  0  0  0  0  0  0
   -4.3401    0.1653    0.8392 H   0  0  0  0  0  0  0  0  0  0  0  0
   -5.8919    1.6005   -0.7558 H   0  0  0  0  0  0  0  0  0  0  0  0
   -4.3697    3.4925   -1.7892 H   0  0  0  0  0  0  0  0  0  0  0  0
  1  2  1  0
  2  3  2  0
  3  4  1  0
  4  5  2  0
  5  6  1  0
  6  7  2  0
  5  8  1  0
  8  9  1  0
  9 10  2  0
  9 11  1  0
 11 12  1  0
 12 13  1  0
 13 14  1  0
 14 15  1  0
 15 16  1  0
 11 17  1  0
 17 18  1  0
 18 19  2  0
 18 20  1  0
 20 21  2  0
 21 22  1  0
 22 23  2  0
 23 24  1  0
 24 25  2  0
 17 26  1  0
 26 27  1  0
 27 28  2  0
 28 29  1  0
 29 30  2  0
 30 31  1  0
  7  2  1  0
 16 11  1  0
 25 20  1  0
 31 27  1  0
  3 32  1  0
  4 33  1  0
  6 34  1  0
  7 35  1  0
  8 36  1  0
 12 37  1  0
 12 38  1  0
 13 39  1  0
 13 40  1  0
 14 41  1  0
 14 42  1  0
 15 43  1  0
 15 44  1  0
 16 45  1  0
 16 46  1  0
 21 47  1  0
 22 48  1  0
 23 49  1  0
 24 50  1  0
 26 51  1  0
 26 52  1  0
 28 53  1  0
 29 54  1  0
 30 55  1  0
M  END
>  <Ligand ID>  (1) 
LIG0003044

>  <Ligand>  (1) 
MLS002699340

>  <SMILES>  (1) 
Brc1ccc(cc1)NC(=O)C1(CCCCC1)N(C(=O)c1ccccn1)Cc1ccco1

>  <CID>  (1) 
1282817.0

>  <ChEMBL ID>  (1) 
nan

>  <InChiKey>  (1) 
DUDMBDIWEXXQRP-UHFFFAOYSA-N

>  <InChi>  (1) 
InChI=1S/C24H24BrN3O3/c25-18-9-11-19(12-10-18)27-23(30)24(13-3-1-4-14-24)28(17-20-7-6-16-31-20)22(29)21-8-2-5-15-26-21/h2,5-12,15-16H,1,3-4,13-14,17H2,(H,27,30)

>  <IUPAC Name>  (1) 
N-[1-[(4-bromophenyl)carbamoyl]cyclohexyl]-N-(furan-2-ylmethyl)pyridine-2-carboxamide

$$$$
