
     RDKit          3D

 18 18  0  0  0  0  0  0  0  0999 V2000
   -3.2550    0.4875    0.5730 O   0  0  0  0  0  0  0  0  0  0  0  0
   -2.4273   -0.0720   -0.4203 C   0  0  0  0  0  0  0  0  0  0  0  0
   -2.6665    0.2570   -1.6192 O   0  0  0  0  0  0  0  0  0  0  0  0
   -1.3457   -1.0027   -0.0313 C   0  0  0  0  0  0  0  0  0  0  0  0
    0.0093   -0.4003   -0.0070 C   0  0  0  0  0  0  0  0  0  0  0  0
    1.0702   -1.2551    0.1869 C   0  0  0  0  0  0  0  0  0  0  0  0
    2.3344   -0.7210    0.2650 C   0  0  0  0  0  0  0  0  0  0  0  0
    2.5674    0.6563    0.1554 C   0  0  0  0  0  0  0  0  0  0  0  0
    1.4721    1.4901   -0.0444 C   0  0  0  0  0  0  0  0  0  0  0  0
    0.1638    0.9745   -0.1294 C   0  0  0  0  0  0  0  0  0  0  0  0
   -3.6320    1.3991    0.3903 H   0  0  0  0  0  0  0  0  0  0  0  0
   -1.6274   -1.4516    0.9484 H   0  0  0  0  0  0  0  0  0  0  0  0
   -1.2875   -1.8508   -0.7798 H   0  0  0  0  0  0  0  0  0  0  0  0
    0.9035   -2.3611    0.2778 H   0  0  0  0  0  0  0  0  0  0  0  0
    3.2259   -1.3444    0.4259 H   0  0  0  0  0  0  0  0  0  0  0  0
    3.5665    1.0041    0.2382 H   0  0  0  0  0  0  0  0  0  0  0  0
    1.6247    2.5859   -0.1474 H   0  0  0  0  0  0  0  0  0  0  0  0
   -0.6963    1.6045   -0.2822 H   0  0  0  0  0  0  0  0  0  0  0  0
  1  2  1  0
  2  3  2  0
  2  4  1  0
  4  5  1  0
  5  6  2  0
  6  7  1  0
  7  8  2  0
  8  9  1  0
  9 10  2  0
 10  5  1  0
  1 11  1  0
  4 12  1  0
  4 13  1  0
  6 14  1  0
  7 15  1  0
  8 16  1  0
  9 17  1  0
 10 18  1  0
M  END
>  <Ligand ID>  (1) 
LIG0000245

>  <Ligand>  (1) 
Phenylacetic Acid

>  <SMILES>  (1) 
OC(=O)Cc1ccccc1

>  <CID>  (1) 
999.0

>  <ChEMBL ID>  (1) 
nan

>  <InChiKey>  (1) 
WLJVXDMOQOGPHL-UHFFFAOYSA-N

>  <InChi>  (1) 
InChI=1S/C8H8O2/c9-8(10)6-7-4-2-1-3-5-7/h1-5H,6H2,(H,9,10)

>  <IUPAC Name>  (1) 
2-phenylacetic acid

$$$$
