
     RDKit          3D

 24 24  0  0  0  0  0  0  0  0999 V2000
   -2.9070    0.5820    0.6415 C   0  0  0  0  0  0  0  0  0  0  0  0
   -2.4634   -0.4785   -0.3219 C   0  0  0  0  0  0  0  0  0  0  0  0
   -1.1640   -1.1097    0.0491 C   0  0  0  0  0  0  0  0  0  0  0  0
   -0.0061   -0.1564    0.1230 C   0  0  0  0  0  0  0  0  0  0  0  0
    1.2248   -0.9836    0.5129 C   0  0  0  0  0  0  0  0  0  0  0  0
    2.2890    0.0087    0.9050 C   0  0  0  0  0  0  0  0  0  0  0  0
    2.6291    0.8946   -0.2423 C   0  0  0  0  0  0  0  0  0  0  0  0
    1.5086    1.1596   -1.1624 C   0  0  0  0  0  0  0  0  0  0  0  0
    1.6692    2.0613   -2.0280 O   0  0  0  0  0  0  0  0  0  0  0  0
    0.3144    0.4541   -1.0944 O   0  0  0  0  0  0  0  0  0  0  0  0
   -3.9398    0.4638    1.0094 H   0  0  0  0  0  0  0  0  0  0  0  0
   -2.2625    0.6113    1.5500 H   0  0  0  0  0  0  0  0  0  0  0  0
   -2.8904    1.5510    0.0891 H   0  0  0  0  0  0  0  0  0  0  0  0
   -2.4570   -0.1082   -1.3863 H   0  0  0  0  0  0  0  0  0  0  0  0
   -3.2329   -1.2770   -0.2902 H   0  0  0  0  0  0  0  0  0  0  0  0
   -1.2930   -1.5230    1.0825 H   0  0  0  0  0  0  0  0  0  0  0  0
   -0.9659   -1.9451   -0.6515 H   0  0  0  0  0  0  0  0  0  0  0  0
   -0.1289    0.6118    0.9078 H   0  0  0  0  0  0  0  0  0  0  0  0
    1.5720   -1.4933   -0.3840 H   0  0  0  0  0  0  0  0  0  0  0  0
    0.8974   -1.6247    1.3273 H   0  0  0  0  0  0  0  0  0  0  0  0
    3.1642   -0.6205    1.2348 H   0  0  0  0  0  0  0  0  0  0  0  0
    1.9606    0.5742    1.7930 H   0  0  0  0  0  0  0  0  0  0  0  0
    2.9550    1.8813    0.1899 H   0  0  0  0  0  0  0  0  0  0  0  0
    3.5264    0.4662   -0.7548 H   0  0  0  0  0  0  0  0  0  0  0  0
  1  2  1  0
  2  3  1  0
  3  4  1  0
  4  5  1  0
  5  6  1  0
  6  7  1  0
  7  8  1  0
  8  9  2  0
  8 10  1  0
 10  4  1  0
  1 11  1  0
  1 12  1  0
  1 13  1  0
  2 14  1  0
  2 15  1  0
  3 16  1  0
  3 17  1  0
  4 18  1  0
  5 19  1  0
  5 20  1  0
  6 21  1  0
  6 22  1  0
  7 23  1  0
  7 24  1  0
M  END
>  <Ligand ID>  (1) 
LIG0001044

>  <Ligand>  (1) 
Delta-Octalactone

>  <SMILES>  (1) 
CCCC1CCCC(=O)O1

>  <CID>  (1) 
12777.0

>  <ChEMBL ID>  (1) 
nan

>  <InChiKey>  (1) 
FYTRVXSHONWYNE-UHFFFAOYSA-N

>  <InChi>  (1) 
InChI=1S/C8H14O2/c1-2-4-7-5-3-6-8(9)10-7/h7H,2-6H2,1H3

>  <IUPAC Name>  (1) 
6-propyloxan-2-one

$$$$
