
     RDKit          3D

 22 22  0  0  0  0  0  0  0  0999 V2000
    2.0933   -1.9845    0.8236 O   0  0  0  0  0  0  0  0  0  0  0  0
    1.5565   -0.9074    0.7409 C   0  0  0  0  0  0  0  0  0  0  0  0
    2.3106    0.3189    0.2866 C   0  0  0  0  0  0  0  0  0  0  0  0
    1.5485    0.8518   -0.8487 C   0  0  0  0  0  0  0  0  0  0  0  0
    2.1284    1.6138   -1.6170 O   0  0  0  0  0  0  0  0  0  0  0  0
    0.1330    0.5490   -1.1501 C   0  0  0  0  0  0  0  0  0  0  0  0
   -0.6456   -0.0570   -0.0480 C   0  0  0  0  0  0  0  0  0  0  0  0
    0.1107   -0.6749    1.0739 C   0  0  0  0  0  0  0  0  0  0  0  0
   -1.6387    0.9252    0.5881 C   0  0  0  0  0  0  0  0  0  0  0  0
   -1.5531   -1.1161   -0.6942 C   0  0  0  0  0  0  0  0  0  0  0  0
    3.3644    0.1220    0.0819 H   0  0  0  0  0  0  0  0  0  0  0  0
    2.2011    1.0547    1.1368 H   0  0  0  0  0  0  0  0  0  0  0  0
   -0.3486    1.5485   -1.3672 H   0  0  0  0  0  0  0  0  0  0  0  0
    0.0558    0.0142   -2.1216 H   0  0  0  0  0  0  0  0  0  0  0  0
    0.1370    0.0143    1.9683 H   0  0  0  0  0  0  0  0  0  0  0  0
   -0.3795   -1.5863    1.4292 H   0  0  0  0  0  0  0  0  0  0  0  0
   -1.1494    1.7949    1.0329 H   0  0  0  0  0  0  0  0  0  0  0  0
   -2.4575    1.1732   -0.1052 H   0  0  0  0  0  0  0  0  0  0  0  0
   -2.0926    0.3164    1.4253 H   0  0  0  0  0  0  0  0  0  0  0  0
   -2.3332   -0.5253   -1.2203 H   0  0  0  0  0  0  0  0  0  0  0  0
   -1.0135   -1.6930   -1.4700 H   0  0  0  0  0  0  0  0  0  0  0  0
   -2.0275   -1.7525    0.0548 H   0  0  0  0  0  0  0  0  0  0  0  0
  1  2  2  0
  2  3  1  0
  3  4  1  0
  4  5  2  0
  4  6  1  0
  6  7  1  0
  7  8  1  0
  7  9  1  0
  7 10  1  0
  8  2  1  0
  3 11  1  0
  3 12  1  0
  6 13  1  0
  6 14  1  0
  8 15  1  0
  8 16  1  0
  9 17  1  0
  9 18  1  0
  9 19  1  0
 10 20  1  0
 10 21  1  0
 10 22  1  0
M  END
>  <Ligand ID>  (1) 
LIG0000182

>  <Ligand>  (1) 
Dimedone

>  <SMILES>  (1) 
O=C1CC(=O)CC(C1)(C)C

>  <CID>  (1) 
31358.0

>  <ChEMBL ID>  (1) 
nan

>  <InChiKey>  (1) 
BADXJIPKFRBFOT-UHFFFAOYSA-N

>  <InChi>  (1) 
InChI=1S/C8H12O2/c1-8(2)4-6(9)3-7(10)5-8/h3-5H2,1-2H3

>  <IUPAC Name>  (1) 
5,5-dimethylcyclohexane-1,3-dione

$$$$
