
     RDKit          3D

 38 40  0  0  0  0  0  0  0  0999 V2000
    4.9616    0.5105   -2.0717 O   0  0  0  0  0  0  0  0  0  0  0  0
    3.8794    0.4080   -1.1998 C   0  0  0  0  0  0  0  0  0  0  0  0
    3.3581    1.5280   -0.5709 C   0  0  0  0  0  0  0  0  0  0  0  0
    2.2718    1.4305    0.3026 C   0  0  0  0  0  0  0  0  0  0  0  0
    1.6897    0.1753    0.5573 C   0  0  0  0  0  0  0  0  0  0  0  0
    2.2117   -0.9389   -0.0704 C   0  0  0  0  0  0  0  0  0  0  0  0
    3.2906   -0.8229   -0.9365 C   0  0  0  0  0  0  0  0  0  0  0  0
    3.8272   -2.0596   -1.6088 C   0  0  0  0  0  0  0  0  0  0  0  0
    1.6233   -2.1759    0.1913 O   0  0  0  0  0  0  0  0  0  0  0  0
    0.5844    0.0913    1.4915 C   0  0  0  0  0  0  0  0  0  0  0  0
    0.5971   -0.6366    2.6341 N   0  0  0  0  0  0  0  0  0  0  0  0
   -0.5782   -0.5027    3.2783 N   0  0  0  0  0  0  0  0  0  0  0  0
   -1.3902    0.3091    2.5813 C   0  0  0  0  0  0  0  0  0  0  0  0
   -0.6434    0.6791    1.4526 C   0  0  0  0  0  0  0  0  0  0  0  0
   -1.2133    1.5301    0.5038 O   0  0  0  0  0  0  0  0  0  0  0  0
   -2.1519    0.9069   -0.3618 C   0  0  0  0  0  0  0  0  0  0  0  0
   -2.8049    1.6170   -1.3419 C   0  0  0  0  0  0  0  0  0  0  0  0
   -3.6983    0.9604   -2.1353 C   0  0  0  0  0  0  0  0  0  0  0  0
   -3.9868   -0.4041   -2.0025 C   0  0  0  0  0  0  0  0  0  0  0  0
   -3.3370   -1.1108   -1.0286 C   0  0  0  0  0  0  0  0  0  0  0  0
   -2.4410   -0.4408   -0.2376 C   0  0  0  0  0  0  0  0  0  0  0  0
   -2.7888    0.7325    2.8837 C   0  0  0  0  0  0  0  0  0  0  0  0
    5.4133    1.4052   -2.1989 H   0  0  0  0  0  0  0  0  0  0  0  0
    3.8319    2.4803   -0.7886 H   0  0  0  0  0  0  0  0  0  0  0  0
    1.8711    2.3350    0.7883 H   0  0  0  0  0  0  0  0  0  0  0  0
    4.8361   -2.2891   -1.2362 H   0  0  0  0  0  0  0  0  0  0  0  0
    3.1649   -2.8815   -1.3436 H   0  0  0  0  0  0  0  0  0  0  0  0
    3.8796   -1.8964   -2.7188 H   0  0  0  0  0  0  0  0  0  0  0  0
    0.9931   -2.5239   -0.5509 H   0  0  0  0  0  0  0  0  0  0  0  0
   -0.8251   -0.9661    4.1907 H   0  0  0  0  0  0  0  0  0  0  0  0
   -2.6030    2.6657   -1.4698 H   0  0  0  0  0  0  0  0  0  0  0  0
   -4.2625    1.4549   -2.9402 H   0  0  0  0  0  0  0  0  0  0  0  0
   -4.7146   -0.8895   -2.6569 H   0  0  0  0  0  0  0  0  0  0  0  0
   -3.5080   -2.1838   -0.8642 H   0  0  0  0  0  0  0  0  0  0  0  0
   -1.9358   -1.0064    0.5211 H   0  0  0  0  0  0  0  0  0  0  0  0
   -3.4500   -0.1599    2.9305 H   0  0  0  0  0  0  0  0  0  0  0  0
   -3.1232    1.4639    2.1484 H   0  0  0  0  0  0  0  0  0  0  0  0
   -2.8291    1.2050    3.8783 H   0  0  0  0  0  0  0  0  0  0  0  0
  1  2  1  0
  2  3  2  0
  3  4  1  0
  4  5  2  0
  5  6  1  0
  6  7  2  0
  7  8  1  0
  6  9  1  0
  5 10  1  0
 10 11  2  0
 11 12  1  0
 12 13  1  0
 13 14  2  0
 14 15  1  0
 15 16  1  0
 16 17  2  0
 17 18  1  0
 18 19  2  0
 19 20  1  0
 20 21  2  0
 13 22  1  0
  7  2  1  0
 14 10  1  0
 21 16  1  0
  1 23  1  0
  3 24  1  0
  4 25  1  0
  8 26  1  0
  8 27  1  0
  8 28  1  0
  9 29  1  0
 12 30  1  0
 17 31  1  0
 18 32  1  0
 19 33  1  0
 20 34  1  0
 21 35  1  0
 22 36  1  0
 22 37  1  0
 22 38  1  0
M  END
>  <Ligand ID>  (1) 
LIG0003655

>  <Ligand>  (1) 
MLS000530748

>  <SMILES>  (1) 
Oc1ccc(c(c1C)O)c1n[nH]c(c1Oc1ccccc1)C

>  <CID>  (1) 
764670.0

>  <ChEMBL ID>  (1) 
nan

>  <InChiKey>  (1) 
HXVFRQYCTJRNBG-UHFFFAOYSA-N

>  <InChi>  (1) 
InChI=1S/C17H16N2O3/c1-10-14(20)9-8-13(16(10)21)15-17(11(2)18-19-15)22-12-6-4-3-5-7-12/h3-9,20-21H,1-2H3,(H,18,19)

>  <IUPAC Name>  (1) 
2-methyl-4-(5-methyl-4-phenoxy-1H-pyrazol-3-yl)benzene-1,3-diol

$$$$
