
     RDKit          3D

 55 58  0  0  0  0  0  0  0  0999 V2000
    4.8280   -4.3991    1.6259 C   0  0  0  0  0  0  0  0  0  0  0  0
    4.8916   -3.0065    1.5463 O   0  0  0  0  0  0  0  0  0  0  0  0
    4.3124   -2.2159    0.5714 C   0  0  0  0  0  0  0  0  0  0  0  0
    4.5092   -0.8385    0.6946 C   0  0  0  0  0  0  0  0  0  0  0  0
    3.9569    0.0054   -0.2467 C   0  0  0  0  0  0  0  0  0  0  0  0
    3.2084   -0.4801   -1.3163 C   0  0  0  0  0  0  0  0  0  0  0  0
    3.0255   -1.8419   -1.4207 C   0  0  0  0  0  0  0  0  0  0  0  0
    3.5722   -2.7262   -0.4828 C   0  0  0  0  0  0  0  0  0  0  0  0
    2.6697    0.5116   -2.2589 C   0  0  0  0  0  0  0  0  0  0  0  0
    1.3593    1.0591   -1.8418 C   0  0  0  0  0  0  0  0  0  0  0  0
    1.2784    2.3342   -1.2815 C   0  0  0  0  0  0  0  0  0  0  0  0
    0.0820    2.8819   -0.8754 C   0  0  0  0  0  0  0  0  0  0  0  0
   -1.0302    2.1436   -1.0347 N   0  0  0  0  0  0  0  0  0  0  0  0
   -1.0106    0.9125   -1.5675 N   0  0  0  0  0  0  0  0  0  0  0  0
    0.1663    0.3802   -1.9643 C   0  0  0  0  0  0  0  0  0  0  0  0
    0.1580   -0.7746   -2.4605 O   0  0  0  0  0  0  0  0  0  0  0  0
   -2.2114    0.1505   -1.7222 C   0  0  0  0  0  0  0  0  0  0  0  0
   -2.5038   -0.6926   -0.5252 C   0  0  0  0  0  0  0  0  0  0  0  0
   -1.6876   -0.6275    0.4170 O   0  0  0  0  0  0  0  0  0  0  0  0
   -3.6560   -1.5083   -0.5005 N   0  0  0  0  0  0  0  0  0  0  0  0
   -4.0586   -2.3513    0.5514 C   0  0  0  0  0  0  0  0  0  0  0  0
   -5.2320   -3.0692    0.3832 C   0  0  0  0  0  0  0  0  0  0  0  0
   -5.6874   -3.9154    1.3709 C   0  0  0  0  0  0  0  0  0  0  0  0
   -5.0223   -4.0949    2.5542 C   0  0  0  0  0  0  0  0  0  0  0  0
   -3.8552   -3.3908    2.7398 C   0  0  0  0  0  0  0  0  0  0  0  0
   -3.3951   -2.5325    1.7359 C   0  0  0  0  0  0  0  0  0  0  0  0
   -5.6993   -5.2791    3.8856 Br  0  0  0  0  0  0  0  0  0  0  0  0
   -0.0404    4.2081   -0.2857 C   0  0  0  0  0  0  0  0  0  0  0  0
   -1.2963    4.6416    0.0816 C   0  0  0  0  0  0  0  0  0  0  0  0
   -1.5078    5.8815    0.6462 C   0  0  0  0  0  0  0  0  0  0  0  0
   -0.4415    6.7201    0.8541 C   0  0  0  0  0  0  0  0  0  0  0  0
    0.8253    6.2847    0.4844 C   0  0  0  0  0  0  0  0  0  0  0  0
    1.0319    5.0479   -0.0780 C   0  0  0  0  0  0  0  0  0  0  0  0
   -0.6086    8.3189    1.5666 Cl  0  0  0  0  0  0  0  0  0  0  0  0
    3.9912   -4.8687    1.0891 H   0  0  0  0  0  0  0  0  0  0  0  0
    4.7847   -4.7665    2.6899 H   0  0  0  0  0  0  0  0  0  0  0  0
    5.7568   -4.8191    1.2047 H   0  0  0  0  0  0  0  0  0  0  0  0
    5.0874   -0.4336    1.5169 H   0  0  0  0  0  0  0  0  0  0  0  0
    4.1389    1.0661   -0.1047 H   0  0  0  0  0  0  0  0  0  0  0  0
    2.4615   -2.2363   -2.2271 H   0  0  0  0  0  0  0  0  0  0  0  0
    3.4344   -3.7955   -0.5548 H   0  0  0  0  0  0  0  0  0  0  0  0
    3.3696    1.3686   -2.3887 H   0  0  0  0  0  0  0  0  0  0  0  0
    2.5253    0.0935   -3.2822 H   0  0  0  0  0  0  0  0  0  0  0  0
    2.1959    2.8942   -1.1711 H   0  0  0  0  0  0  0  0  0  0  0  0
   -2.0926   -0.5445   -2.5802 H   0  0  0  0  0  0  0  0  0  0  0  0
   -3.1067    0.7635   -1.9290 H   0  0  0  0  0  0  0  0  0  0  0  0
   -4.2609   -1.4630   -1.3744 H   0  0  0  0  0  0  0  0  0  0  0  0
   -5.8310   -2.9854   -0.5366 H   0  0  0  0  0  0  0  0  0  0  0  0
   -6.5985   -4.4487    1.1944 H   0  0  0  0  0  0  0  0  0  0  0  0
   -3.3151   -3.5136    3.6582 H   0  0  0  0  0  0  0  0  0  0  0  0
   -2.4857   -2.0201    1.9476 H   0  0  0  0  0  0  0  0  0  0  0  0
   -2.1911    4.0192   -0.0572 H   0  0  0  0  0  0  0  0  0  0  0  0
   -2.4873    6.2373    0.9403 H   0  0  0  0  0  0  0  0  0  0  0  0
    1.6669    6.9718    0.6590 H   0  0  0  0  0  0  0  0  0  0  0  0
    2.0252    4.7430   -0.3524 H   0  0  0  0  0  0  0  0  0  0  0  0
  1  2  1  0
  2  3  1  0
  3  4  2  0
  4  5  1  0
  5  6  2  0
  6  7  1  0
  7  8  2  0
  6  9  1  0
  9 10  1  0
 10 11  2  0
 11 12  1  0
 12 13  2  0
 13 14  1  0
 14 15  1  0
 15 16  2  0
 14 17  1  0
 17 18  1  0
 18 19  2  0
 18 20  1  0
 20 21  1  0
 21 22  2  0
 22 23  1  0
 23 24  2  0
 24 25  1  0
 25 26  2  0
 24 27  1  0
 12 28  1  0
 28 29  2  0
 29 30  1  0
 30 31  2  0
 31 32  1  0
 32 33  2  0
 31 34  1  0
  8  3  1  0
 15 10  1  0
 26 21  1  0
 33 28  1  0
  1 35  1  0
  1 36  1  0
  1 37  1  0
  4 38  1  0
  5 39  1  0
  7 40  1  0
  8 41  1  0
  9 42  1  0
  9 43  1  0
 11 44  1  0
 17 45  1  0
 17 46  1  0
 20 47  1  0
 22 48  1  0
 23 49  1  0
 25 50  1  0
 26 51  1  0
 29 52  1  0
 30 53  1  0
 32 54  1  0
 33 55  1  0
M  END
>  <Ligand ID>  (1) 
LIG0004808

>  <Ligand>  (1) 
CHEMBL2391267

>  <SMILES>  (1) 
COc1ccc(cc1)Cc1cc(nn(c1=O)CC(=O)Nc1ccc(cc1)Br)c1ccc(cc1)Cl

>  <CID>  (1) 
71698711.0

>  <ChEMBL ID>  (1) 
nan

>  <InChiKey>  (1) 
WULQXLHBKOYXTP-UHFFFAOYSA-N

>  <InChi>  (1) 
InChI=1S/C26H21BrClN3O3/c1-34-23-12-2-17(3-13-23)14-19-15-24(18-4-8-21(28)9-5-18)30-31(26(19)33)16-25(32)29-22-10-6-20(27)7-11-22/h2-13,15H,14,16H2,1H3,(H,29,32)

>  <IUPAC Name>  (1) 
N-(4-bromophenyl)-2-[3-(4-chlorophenyl)-5-[(4-methoxyphenyl)methyl]-6-oxopyridazin-1-yl]acetamide

$$$$
