
     RDKit          3D

 13 12  0  0  0  0  0  0  0  0999 V2000
    1.3267   -0.4852    0.0936 C   0  0  0  0  0  0  0  0  0  0  0  0
   -0.0084   -0.0755   -0.3974 C   0  0  0  0  0  0  0  0  0  0  0  0
   -1.0990   -1.0263   -0.0790 C   0  0  0  0  0  0  0  0  0  0  0  0
   -2.2063   -0.8235   -0.6833 O   0  0  0  0  0  0  0  0  0  0  0  0
   -0.9970   -2.0749    0.7944 O   0  0  0  0  0  0  0  0  0  0  0  0
   -0.4654    1.2599    0.1847 C   0  0  0  0  0  0  0  0  0  0  0  0
    1.8725    0.4188    0.4955 H   0  0  0  0  0  0  0  0  0  0  0  0
    1.2895   -1.2350    0.9243 H   0  0  0  0  0  0  0  0  0  0  0  0
    1.9745   -0.8250   -0.7476 H   0  0  0  0  0  0  0  0  0  0  0  0
    0.0194    0.0696   -1.5068 H   0  0  0  0  0  0  0  0  0  0  0  0
   -0.2937    1.3421    1.2692 H   0  0  0  0  0  0  0  0  0  0  0  0
   -1.5469    1.3922   -0.0240 H   0  0  0  0  0  0  0  0  0  0  0  0
    0.1341    2.0626   -0.3238 H   0  0  0  0  0  0  0  0  0  0  0  0
  1  2  1  0
  2  3  1  0
  3  4  2  0
  3  5  1  0
  2  6  1  0
  1  7  1  0
  1  8  1  0
  1  9  1  0
  2 10  1  0
  6 11  1  0
  6 12  1  0
  6 13  1  0
M  CHG  1   5  -1
M  END
>  <Ligand ID>  (1) 
LIG0000729

>  <Ligand>  (1) 
Isobutyrate

>  <SMILES>  (1) 
CC(C(=O)[O-])C

>  <CID>  (1) 
165337.0

>  <ChEMBL ID>  (1) 
nan

>  <InChiKey>  (1) 
KQNPFQTWMSNSAP-UHFFFAOYSA-M

>  <InChi>  (1) 
InChI=1S/C4H8O2/c1-3(2)4(5)6/h3H,1-2H3,(H,5,6)/p-1

>  <IUPAC Name>  (1) 
2-methylpropanoate

$$$$
