
     RDKit          3D

 31 32  0  0  0  0  0  0  0  0999 V2000
   -2.9828    0.2180    0.8621 C   0  0  0  0  0  0  0  0  0  0  0  0
   -2.6557    1.2732   -0.1607 C   0  0  0  0  0  0  0  0  0  0  0  0
   -1.1772    1.5873   -0.0616 C   0  0  0  0  0  0  0  0  0  0  0  0
   -0.4398    0.8301   -1.1309 C   0  0  0  0  0  0  0  0  0  0  0  0
   -0.3991   -0.6456   -0.9586 C   0  0  0  0  0  0  0  0  0  0  0  0
   -0.8935   -1.1059    0.3938 C   0  0  0  0  0  0  0  0  0  0  0  0
   -2.3928   -1.0843    0.3752 C   0  0  0  0  0  0  0  0  0  0  0  0
    0.9231   -1.1877   -1.2526 N   0  0  0  0  0  0  0  0  0  0  0  0
    2.0578   -0.7493   -0.4889 C   0  0  0  0  0  0  0  0  0  0  0  0
    2.0130   -0.4783    0.7709 N   0  0  0  0  0  0  0  0  0  0  0  0
    3.3171   -0.0620    1.2565 C   0  0  0  0  0  0  0  0  0  0  0  0
    4.1608    0.0344    0.0091 C   0  0  0  0  0  0  0  0  0  0  0  0
    3.3406   -0.5588   -0.9911 O   0  0  0  0  0  0  0  0  0  0  0  0
   -4.0585    0.0847    0.9938 H   0  0  0  0  0  0  0  0  0  0  0  0
   -2.4510    0.5112    1.7872 H   0  0  0  0  0  0  0  0  0  0  0  0
   -3.2523    2.1972    0.0901 H   0  0  0  0  0  0  0  0  0  0  0  0
   -2.9113    0.8886   -1.1633 H   0  0  0  0  0  0  0  0  0  0  0  0
   -0.7696    1.4798    0.9461 H   0  0  0  0  0  0  0  0  0  0  0  0
   -1.0637    2.6710   -0.3326 H   0  0  0  0  0  0  0  0  0  0  0  0
    0.5913    1.2390   -1.2102 H   0  0  0  0  0  0  0  0  0  0  0  0
   -0.9426    1.1270   -2.0974 H   0  0  0  0  0  0  0  0  0  0  0  0
   -1.1060   -1.1029   -1.6891 H   0  0  0  0  0  0  0  0  0  0  0  0
   -0.4504   -0.5217    1.2219 H   0  0  0  0  0  0  0  0  0  0  0  0
   -0.5635   -2.1551    0.5334 H   0  0  0  0  0  0  0  0  0  0  0  0
   -2.7998   -1.9463    0.9228 H   0  0  0  0  0  0  0  0  0  0  0  0
   -2.7444   -1.1781   -0.6917 H   0  0  0  0  0  0  0  0  0  0  0  0
    1.0747   -1.9027   -2.0203 H   0  0  0  0  0  0  0  0  0  0  0  0
    3.2801    0.8816    1.8287 H   0  0  0  0  0  0  0  0  0  0  0  0
    3.7926   -0.8391    1.8915 H   0  0  0  0  0  0  0  0  0  0  0  0
    5.0889   -0.5898    0.0611 H   0  0  0  0  0  0  0  0  0  0  0  0
    4.4141    1.0845   -0.1883 H   0  0  0  0  0  0  0  0  0  0  0  0
  1  2  1  0
  2  3  1  0
  3  4  1  0
  4  5  1  0
  5  6  1  0
  6  7  1  0
  5  8  1  0
  8  9  1  0
  9 10  2  0
 10 11  1  0
 11 12  1  0
 12 13  1  0
  7  1  1  0
 13  9  1  0
  1 14  1  0
  1 15  1  0
  2 16  1  0
  2 17  1  0
  3 18  1  0
  3 19  1  0
  4 20  1  0
  4 21  1  0
  5 22  1  0
  6 23  1  0
  6 24  1  0
  7 25  1  0
  7 26  1  0
  8 27  1  0
 11 28  1  0
 11 29  1  0
 12 30  1  0
 12 31  1  0
M  END
>  <Ligand ID>  (1) 
LIG0003077

>  <Ligand>  (1) 
CHEMBL305928

>  <SMILES>  (1) 
C1CCCC(CC1)NC1=NCCO1

>  <CID>  (1) 
294234.0

>  <ChEMBL ID>  (1) 
nan

>  <InChiKey>  (1) 
DAIRUBYTBODIKT-UHFFFAOYSA-N

>  <InChi>  (1) 
InChI=1S/C10H18N2O/c1-2-4-6-9(5-3-1)12-10-11-7-8-13-10/h9H,1-8H2,(H,11,12)

>  <IUPAC Name>  (1) 
N-cycloheptyl-4,5-dihydro-1,3-oxazol-2-amine

$$$$
