
     RDKit          3D

 74 77  0  0  0  0  0  0  0  0999 V2000
   -0.7551    0.5998   -2.3157 O   0  0  0  0  0  0  0  0  0  0  0  0
   -1.2176    0.4188   -1.1551 C   0  0  0  0  0  0  0  0  0  0  0  0
   -2.5154    1.0556   -0.8099 C   0  0  2  0  0  0  0  0  0  0  0  0
   -3.5333   -0.0196   -0.4695 C   0  0  0  0  0  0  0  0  0  0  0  0
   -4.8193    0.6146   -0.1289 C   0  0  0  0  0  0  0  0  0  0  0  0
   -4.9964    1.2464    1.0814 C   0  0  0  0  0  0  0  0  0  0  0  0
   -3.9593    1.3567    2.1261 C   0  0  0  0  0  0  0  0  0  0  0  0
   -6.2285    1.8322    1.3655 C   0  0  0  0  0  0  0  0  0  0  0  0
   -7.2644    1.7936    0.4688 C   0  0  0  0  0  0  0  0  0  0  0  0
   -7.0558    1.1580   -0.7246 C   0  0  0  0  0  0  0  0  0  0  0  0
   -5.8461    0.5535   -1.0649 C   0  0  0  0  0  0  0  0  0  0  0  0
   -5.7023   -0.1197   -2.3747 C   0  0  0  0  0  0  0  0  0  0  0  0
   -8.4838    2.3890    0.7813 O   0  0  0  0  0  0  0  0  0  0  0  0
   -2.9807    1.7808   -1.9489 N   0  0  0  0  0  0  0  0  0  0  0  0
   -0.5014   -0.3728   -0.2248 N   0  0  0  0  0  0  0  0  0  0  0  0
    0.7753   -0.9543   -0.6710 C   0  0  2  0  0  0  0  0  0  0  0  0
    0.6055   -2.4521   -0.6328 C   0  0  0  0  0  0  0  0  0  0  0  0
    1.9823   -3.1317   -0.6628 C   0  0  0  0  0  0  0  0  0  0  0  0
    2.6391   -2.7719    0.5725 N   0  0  0  0  0  0  0  0  0  0  0  0
    2.7950   -1.3509    0.7911 C   0  0  0  0  0  0  0  0  0  0  0  0
    1.8847   -0.5072    0.1941 C   0  0  0  0  0  0  0  0  0  0  0  0
    2.0068    0.8674    0.3927 C   0  0  0  0  0  0  0  0  0  0  0  0
    3.0240    1.3825    1.1750 C   0  0  0  0  0  0  0  0  0  0  0  0
    3.9342    0.5351    1.7703 C   0  0  0  0  0  0  0  0  0  0  0  0
    3.7857   -0.8219    1.5539 C   0  0  0  0  0  0  0  0  0  0  0  0
    3.0659    2.8613    1.3267 C   0  0  0  0  0  0  0  0  0  0  0  0
    3.8624    3.5153    0.2757 C   0  0  0  0  0  0  0  0  0  0  0  0
    5.2205    3.7656    0.3777 C   0  0  0  0  0  0  0  0  0  0  0  0
    5.8223    4.3871   -0.6949 C   0  0  0  0  0  0  0  0  0  0  0  0
    5.1652    4.7634   -1.8330 C   0  0  0  0  0  0  0  0  0  0  0  0
    3.8165    4.5163   -1.9372 C   0  0  0  0  0  0  0  0  0  0  0  0
    3.1825    3.8957   -0.8822 C   0  0  0  0  0  0  0  0  0  0  0  0
    3.1036   -3.6649    1.5444 C   0  0  0  0  0  0  0  0  0  0  0  0
    3.5964   -3.3095    2.6660 O   0  0  0  0  0  0  0  0  0  0  0  0
    3.0628   -5.1482    1.3434 C   0  0  0  0  0  0  0  0  0  0  0  0
    1.6156   -5.5603    1.2609 C   0  0  0  0  0  0  0  0  0  0  0  0
    3.7650   -5.5471    0.0802 C   0  0  0  0  0  0  0  0  0  0  0  0
   -2.3732    1.7708    0.0047 H   0  0  0  0  0  0  0  0  0  0  0  0
   -3.6313   -0.7060   -1.3459 H   0  0  0  0  0  0  0  0  0  0  0  0
   -3.1517   -0.5786    0.3915 H   0  0  0  0  0  0  0  0  0  0  0  0
   -3.2551    0.5355    2.0367 H   0  0  0  0  0  0  0  0  0  0  0  0
   -4.4740    1.2794    3.1158 H   0  0  0  0  0  0  0  0  0  0  0  0
   -3.3898    2.3118    2.0966 H   0  0  0  0  0  0  0  0  0  0  0  0
   -6.3891    2.3310    2.3043 H   0  0  0  0  0  0  0  0  0  0  0  0
   -7.8559    1.1111   -1.4542 H   0  0  0  0  0  0  0  0  0  0  0  0
   -6.7394   -0.2128   -2.8153 H   0  0  0  0  0  0  0  0  0  0  0  0
   -5.3549   -1.1720   -2.3044 H   0  0  0  0  0  0  0  0  0  0  0  0
   -5.1483    0.4794   -3.1136 H   0  0  0  0  0  0  0  0  0  0  0  0
   -9.0177    2.9135    0.0815 H   0  0  0  0  0  0  0  0  0  0  0  0
   -3.5715    2.5964   -1.7063 H   0  0  0  0  0  0  0  0  0  0  0  0
   -2.1961    2.0731   -2.5827 H   0  0  0  0  0  0  0  0  0  0  0  0
   -0.8513   -0.5457    0.7405 H   0  0  0  0  0  0  0  0  0  0  0  0
    0.9711   -0.6669   -1.7290 H   0  0  0  0  0  0  0  0  0  0  0  0
    0.0104   -2.7879    0.2270 H   0  0  0  0  0  0  0  0  0  0  0  0
    0.1243   -2.7437   -1.5918 H   0  0  0  0  0  0  0  0  0  0  0  0
    1.9012   -4.1962   -0.8623 H   0  0  0  0  0  0  0  0  0  0  0  0
    2.4963   -2.6208   -1.5337 H   0  0  0  0  0  0  0  0  0  0  0  0
    1.2831    1.5508   -0.0804 H   0  0  0  0  0  0  0  0  0  0  0  0
    4.7250    0.9542    2.3790 H   0  0  0  0  0  0  0  0  0  0  0  0
    4.4986   -1.4695    2.0042 H   0  0  0  0  0  0  0  0  0  0  0  0
    2.0666    3.3107    1.3743 H   0  0  0  0  0  0  0  0  0  0  0  0
    3.5279    3.0413    2.3241 H   0  0  0  0  0  0  0  0  0  0  0  0
    5.7426    3.4689    1.2770 H   0  0  0  0  0  0  0  0  0  0  0  0
    6.8747    4.5842   -0.6231 H   0  0  0  0  0  0  0  0  0  0  0  0
    5.6650    5.2567   -2.6730 H   0  0  0  0  0  0  0  0  0  0  0  0
    3.2234    4.7855   -2.8092 H   0  0  0  0  0  0  0  0  0  0  0  0
    2.1030    3.6987   -0.9673 H   0  0  0  0  0  0  0  0  0  0  0  0
    3.5356   -5.6847    2.1929 H   0  0  0  0  0  0  0  0  0  0  0  0
    0.9464   -4.6869    1.2690 H   0  0  0  0  0  0  0  0  0  0  0  0
    1.3962   -6.2583    2.1072 H   0  0  0  0  0  0  0  0  0  0  0  0
    1.4609   -6.1874    0.3420 H   0  0  0  0  0  0  0  0  0  0  0  0
    3.1354   -6.2195   -0.5526 H   0  0  0  0  0  0  0  0  0  0  0  0
    4.2050   -4.6962   -0.4893 H   0  0  0  0  0  0  0  0  0  0  0  0
    4.6547   -6.1766    0.3491 H   0  0  0  0  0  0  0  0  0  0  0  0
  1  2  2  0
  2  3  1  0
  3  4  1  0
  4  5  1  0
  5  6  2  0
  6  7  1  0
  6  8  1  0
  8  9  2  0
  9 10  1  0
 10 11  2  0
 11 12  1  0
  9 13  1  0
  3 14  1  0
  2 15  1  0
 15 16  1  0
 16 17  1  0
 17 18  1  0
 18 19  1  0
 19 20  1  0
 20 21  2  0
 21 22  1  0
 22 23  2  0
 23 24  1  0
 24 25  2  0
 23 26  1  0
 26 27  1  0
 27 28  2  0
 28 29  1  0
 29 30  2  0
 30 31  1  0
 31 32  2  0
 19 33  1  0
 33 34  2  0
 33 35  1  0
 35 36  1  0
 35 37  1  0
 11  5  1  0
 21 16  1  0
 32 27  1  0
 25 20  1  0
  3 38  1  1
  4 39  1  0
  4 40  1  0
  7 41  1  0
  7 42  1  0
  7 43  1  0
  8 44  1  0
 10 45  1  0
 12 46  1  0
 12 47  1  0
 12 48  1  0
 13 49  1  0
 14 50  1  0
 14 51  1  0
 15 52  1  0
 16 53  1  6
 17 54  1  0
 17 55  1  0
 18 56  1  0
 18 57  1  0
 22 58  1  0
 24 59  1  0
 25 60  1  0
 26 61  1  0
 26 62  1  0
 28 63  1  0
 29 64  1  0
 30 65  1  0
 31 66  1  0
 32 67  1  0
 35 68  1  0
 36 69  1  0
 36 70  1  0
 36 71  1  0
 37 72  1  0
 37 73  1  0
 37 74  1  0
M  END
>  <Ligand ID>  (1) 
LIG0003754

>  <Ligand>  (1) 
CHEMBL3824042

>  <SMILES>  (1) 
O=C([C@H](Cc1c(C)cc(cc1C)O)N)N[C@@H]1CCN(c2c1cc(cc2)Cc1ccccc1)C(=O)C(C)C

>  <CID>  (1) 
127051733.0

>  <ChEMBL ID>  (1) 
nan

>  <InChiKey>  (1) 
FAAGCYPIDUFAHS-WUFINQPMSA-N

>  <InChi>  (1) 
InChI=1S/C31H37N3O3/c1-19(2)31(37)34-13-12-28(26-17-23(10-11-29(26)34)16-22-8-6-5-7-9-22)33-30(36)27(32)18-25-20(3)14-24(35)15-21(25)4/h5-11,14-15,17,19,27-28,35H,12-13,16,18,32H2,1-4H3,(H,33,36)/t27-,28+/m0/s1

>  <IUPAC Name>  (1) 
(2S)-2-amino-N-[(4R)-6-benzyl-1-(2-methylpropanoyl)-3,4-dihydro-2H-quinolin-4-yl]-3-(4-hydroxy-2,6-dimethylphenyl)propanamide

$$$$
