
     RDKit          3D

 23 24  0  0  0  0  0  0  0  0999 V2000
    3.5227    1.3605   -1.1416 O   0  0  0  0  0  0  0  0  0  0  0  0
    2.7565    0.7170   -0.2034 C   0  0  0  0  0  0  0  0  0  0  0  0
    3.1938    0.6776    0.9800 O   0  0  0  0  0  0  0  0  0  0  0  0
    1.4519    0.0660   -0.4848 C   0  0  1  0  0  0  0  0  0  0  0  0
    1.0992   -1.0648    0.3687 C   0  0  1  0  0  0  0  0  0  0  0  0
    0.3953    0.3027    0.5188 C   0  0  2  0  0  0  0  0  0  0  0  0
   -1.0512    0.0418    0.1145 C   0  0  2  0  0  0  0  0  0  0  0  0
   -1.2345   -1.3692    0.6447 C   0  0  0  0  0  0  0  0  0  0  0  0
   -0.0009   -2.0053    0.0540 C   0  0  0  0  0  0  0  0  0  0  0  0
    0.0589   -3.0712   -0.5523 O   0  0  0  0  0  0  0  0  0  0  0  0
   -1.1863   -0.0161   -1.3330 N   0  0  0  0  0  0  0  0  0  0  0  0
   -1.9765    1.0174    0.6786 C   0  0  0  0  0  0  0  0  0  0  0  0
   -2.0132    1.2170    1.9287 O   0  0  0  0  0  0  0  0  0  0  0  0
   -2.8420    1.7516   -0.1537 O   0  0  0  0  0  0  0  0  0  0  0  0
    4.0414    2.2026   -0.9264 H   0  0  0  0  0  0  0  0  0  0  0  0
    1.1328    0.1399   -1.5389 H   0  0  0  0  0  0  0  0  0  0  0  0
    1.7617   -1.4072    1.1768 H   0  0  0  0  0  0  0  0  0  0  0  0
    0.5699    0.7884    1.4924 H   0  0  0  0  0  0  0  0  0  0  0  0
   -1.0718   -1.3831    1.7342 H   0  0  0  0  0  0  0  0  0  0  0  0
   -2.1488   -1.8517    0.3080 H   0  0  0  0  0  0  0  0  0  0  0  0
   -1.0446   -0.9898   -1.6859 H   0  0  0  0  0  0  0  0  0  0  0  0
   -2.1738    0.2459   -1.5742 H   0  0  0  0  0  0  0  0  0  0  0  0
   -3.2404    2.6299    0.1386 H   0  0  0  0  0  0  0  0  0  0  0  0
  1  2  1  0
  2  3  2  0
  2  4  1  0
  4  5  1  0
  5  6  1  0
  6  7  1  0
  7  8  1  0
  8  9  1  0
  9 10  2  0
  7 11  1  6
  7 12  1  0
 12 13  2  0
 12 14  1  0
  6  4  1  0
  9  5  1  0
  1 15  1  0
  4 16  1  6
  5 17  1  1
  6 18  1  1
  8 19  1  0
  8 20  1  0
 11 21  1  0
 11 22  1  0
 14 23  1  0
M  END
>  <Ligand ID>  (1) 
LIG0002851

>  <Ligand>  (1) 
CHEMBL2381640

>  <SMILES>  (1) 
OC(=O)[C@H]1[C@H]2[C@@H]1[C@](CC2=O)(N)C(=O)O

>  <CID>  (1) 
9794208.0

>  <ChEMBL ID>  (1) 
nan

>  <InChiKey>  (1) 
XHBZYLUDOIQPFQ-RGDLXGNYSA-N

>  <InChi>  (1) 
InChI=1S/C8H9NO5/c9-8(7(13)14)1-2(10)3-4(5(3)8)6(11)12/h3-5H,1,9H2,(H,11,12)(H,13,14)/t3-,4-,5-,8-/m0/s1

>  <IUPAC Name>  (1) 
(1S,2S,5R,6R)-2-amino-4-oxobicyclo[3.1.0]hexane-2,6-dicarboxylic acid

$$$$
