
     RDKit          3D

 23 23  0  0  0  0  0  0  0  0999 V2000
    3.7919    0.3799   -0.0322 C   0  0  0  0  0  0  0  0  0  0  0  0
    2.6897   -0.6618    0.0286 C   0  0  0  0  0  0  0  0  0  0  0  0
    1.3684    0.0747   -0.0559 C   0  0  0  0  0  0  0  0  0  0  0  0
    0.2403   -0.8670   -0.0036 C   0  0  0  0  0  0  0  0  0  0  0  0
    0.4731   -2.0920    0.0981 O   0  0  0  0  0  0  0  0  0  0  0  0
   -1.1188   -0.3237   -0.0735 C   0  0  0  0  0  0  0  0  0  0  0  0
   -1.3538    1.0442   -0.1866 C   0  0  0  0  0  0  0  0  0  0  0  0
   -2.6482    1.5280   -0.2505 C   0  0  0  0  0  0  0  0  0  0  0  0
   -3.7183    0.6405   -0.2013 C   0  0  0  0  0  0  0  0  0  0  0  0
   -3.4904   -0.7242   -0.0886 C   0  0  0  0  0  0  0  0  0  0  0  0
   -2.1907   -1.2161   -0.0239 C   0  0  0  0  0  0  0  0  0  0  0  0
    3.9456    0.5965   -1.1195 H   0  0  0  0  0  0  0  0  0  0  0  0
    4.7239   -0.1158    0.3170 H   0  0  0  0  0  0  0  0  0  0  0  0
    3.5045    1.2579    0.5508 H   0  0  0  0  0  0  0  0  0  0  0  0
    2.7830   -1.3726   -0.8163 H   0  0  0  0  0  0  0  0  0  0  0  0
    2.7526   -1.1785    1.0295 H   0  0  0  0  0  0  0  0  0  0  0  0
    1.3264    0.8784    0.6863 H   0  0  0  0  0  0  0  0  0  0  0  0
    1.3520    0.5581   -1.0728 H   0  0  0  0  0  0  0  0  0  0  0  0
   -0.4992    1.7135   -0.2227 H   0  0  0  0  0  0  0  0  0  0  0  0
   -2.8300    2.6077   -0.3397 H   0  0  0  0  0  0  0  0  0  0  0  0
   -4.7423    0.9956   -0.2497 H   0  0  0  0  0  0  0  0  0  0  0  0
   -4.3348   -1.4276   -0.0495 H   0  0  0  0  0  0  0  0  0  0  0  0
   -2.0251   -2.2954    0.0649 H   0  0  0  0  0  0  0  0  0  0  0  0
  1  2  1  0
  2  3  1  0
  3  4  1  0
  4  5  2  0
  4  6  1  0
  6  7  2  0
  7  8  1  0
  8  9  2  0
  9 10  1  0
 10 11  2  0
 11  6  1  0
  1 12  1  0
  1 13  1  0
  1 14  1  0
  2 15  1  0
  2 16  1  0
  3 17  1  0
  3 18  1  0
  7 19  1  0
  8 20  1  0
  9 21  1  0
 10 22  1  0
 11 23  1  0
M  END
>  <Ligand ID>  (1) 
LIG0005014

>  <Ligand>  (1) 
Butyrophenone

>  <SMILES>  (1) 
CCCC(=O)c1ccccc1

>  <CID>  (1) 
10315.0

>  <ChEMBL ID>  (1) 
nan

>  <InChiKey>  (1) 
FFSAXUULYPJSKH-UHFFFAOYSA-N

>  <InChi>  (1) 
InChI=1S/C10H12O/c1-2-6-10(11)9-7-4-3-5-8-9/h3-5,7-8H,2,6H2,1H3

>  <IUPAC Name>  (1) 
1-phenylbutan-1-one

$$$$
