
     RDKit          3D

144146  0  0  0  0  0  0  0  0999 V2000
   -9.4543    3.2826    1.2737 C   0  0  0  0  0  0  0  0  0  0  0  0
   -9.8231    1.8644    1.0797 C   0  0  0  0  0  0  0  0  0  0  0  0
   -8.7179    0.8810    1.0019 C   0  0  1  0  0  0  0  0  0  0  0  0
   -7.7210    0.9661   -0.0844 C   0  0  2  0  0  0  0  0  0  0  0  0
   -6.7781   -0.1823    0.1526 N   0  0  0  0  0  0  0  0  0  0  0  0
   -6.5878   -1.1609   -0.8621 C   0  0  0  0  0  0  0  0  0  0  0  0
   -7.3367   -1.0331   -1.8527 O   0  0  0  0  0  0  0  0  0  0  0  0
   -5.6352   -2.2695   -0.8459 C   0  0  1  0  0  0  0  0  0  0  0  0
   -4.6087   -2.2780    0.1455 N   0  0  0  0  0  0  0  0  0  0  0  0
   -3.2495   -2.2082   -0.3070 C   0  0  0  0  0  0  0  0  0  0  0  0
   -3.0943   -2.0239   -1.5216 O   0  0  0  0  0  0  0  0  0  0  0  0
   -2.0411   -2.3389    0.5407 C   0  0  0  0  0  0  0  0  0  0  0  0
   -0.7984   -2.3738   -0.3485 C   0  0  0  0  0  0  0  0  0  0  0  0
    0.3533   -2.8659    0.4288 C   0  0  0  0  0  0  0  0  0  0  0  0
    1.0950   -1.8172    1.6088 S   0  0  0  0  0  0  0  0  0  0  0  0
    2.1960   -0.5546    1.1709 C   0  0  0  0  0  0  0  0  0  0  0  0
    1.8167    0.8075    0.6761 C   0  0  2  0  0  0  0  0  0  0  0  0
    0.9691    0.8597   -0.4713 N   0  0  0  0  0  0  0  0  0  0  0  0
   -0.1211    1.8009   -0.4145 C   0  0  0  0  0  0  0  0  0  0  0  0
   -0.1801    2.4783    0.6245 O   0  0  0  0  0  0  0  0  0  0  0  0
   -1.1489    2.0309   -1.4426 C   0  0  1  0  0  0  0  0  0  0  0  0
   -2.1621    2.9620   -0.8357 N   0  0  0  0  0  0  0  0  0  0  0  0
   -3.4222    2.4360   -0.5475 C   0  0  0  0  0  0  0  0  0  0  0  0
   -3.6413    1.2611   -0.8623 O   0  0  0  0  0  0  0  0  0  0  0  0
   -4.5542    3.1758    0.1217 C   0  0  1  0  0  0  0  0  0  0  0  0
   -5.5590    2.1271    0.2444 N   0  0  0  0  0  0  0  0  0  0  0  0
   -6.8998    2.1893   -0.2079 C   0  0  0  0  0  0  0  0  0  0  0  0
   -7.2507    3.2836   -0.6640 O   0  0  0  0  0  0  0  0  0  0  0  0
   -4.1027    3.6554    1.4896 C   0  0  0  0  0  0  0  0  0  0  0  0
   -5.2494    4.3847    2.1383 C   0  0  0  0  0  0  0  0  0  0  0  0
   -4.8356    4.8798    3.5002 C   0  0  0  0  0  0  0  0  0  0  0  0
   -3.6569    4.6268    3.8993 O   0  0  0  0  0  0  0  0  0  0  0  0
   -5.7218    5.6129    4.3330 N   0  0  0  0  0  0  0  0  0  0  0  0
   -0.6395    2.8108   -2.6216 C   0  0  0  0  0  0  0  0  0  0  0  0
   -0.1676    4.1656   -2.2578 C   0  0  0  0  0  0  0  0  0  0  0  0
   -1.0264    5.1001   -2.3671 O   0  0  0  0  0  0  0  0  0  0  0  0
    1.1055    4.5219   -1.8121 N   0  0  0  0  0  0  0  0  0  0  0  0
    3.1424    1.4905    0.5179 C   0  0  0  0  0  0  0  0  0  0  0  0
    3.7426    1.7333    1.6286 O   0  0  0  0  0  0  0  0  0  0  0  0
    3.8067    1.8877   -0.6416 N   0  0  0  0  0  0  0  0  0  0  0  0
    5.0565    2.6063   -0.5017 C   0  0  0  0  0  0  0  0  0  0  0  0
    6.2422    1.8014   -0.1974 C   0  0  0  0  0  0  0  0  0  0  0  0
    7.3516    2.4732   -0.2589 O   0  0  0  0  0  0  0  0  0  0  0  0
    6.2748    0.4430    0.1471 N   0  0  0  0  0  0  0  0  0  0  0  0
    7.4592   -0.3551    0.4351 C   0  0  2  0  0  0  0  0  0  0  0  0
    7.1521   -1.7331    0.8071 C   0  0  0  0  0  0  0  0  0  0  0  0
    8.0560   -2.6079    0.8338 O   0  0  0  0  0  0  0  0  0  0  0  0
    5.8473   -2.2120    1.1646 N   0  0  0  0  0  0  0  0  0  0  0  0
    5.5067   -3.5496    1.5198 C   0  0  0  0  0  0  0  0  0  0  0  0
    6.1194   -4.0929    2.7468 C   0  0  0  0  0  0  0  0  0  0  0  0
    5.8153   -5.2993    3.0375 O   0  0  0  0  0  0  0  0  0  0  0  0
    6.9915   -3.3986    3.6017 N   0  0  0  0  0  0  0  0  0  0  0  0
    8.4989    0.3132    1.2165 C   0  0  0  0  0  0  0  0  0  0  0  0
    9.7756   -0.3116    1.6194 C   0  0  0  0  0  0  0  0  0  0  0  0
   10.5243    0.8849    2.3405 C   0  0  0  0  0  0  0  0  0  0  0  0
    9.8423   -1.4258    2.5711 C   0  0  0  0  0  0  0  0  0  0  0  0
    3.2793    1.7293   -1.9521 C   0  0  0  0  0  0  0  0  0  0  0  0
    3.4855    0.5397   -2.7935 C   0  0  0  0  0  0  0  0  0  0  0  0
    4.8446    0.2165   -3.2467 C   0  0  0  0  0  0  0  0  0  0  0  0
    5.6916   -0.7092   -2.7123 C   0  0  0  0  0  0  0  0  0  0  0  0
    6.9433   -0.8966   -3.2676 C   0  0  0  0  0  0  0  0  0  0  0  0
    7.3990   -0.1874   -4.3528 C   0  0  0  0  0  0  0  0  0  0  0  0
    6.5456    0.7600   -4.9069 C   0  0  0  0  0  0  0  0  0  0  0  0
    5.3009    0.9468   -4.3570 C   0  0  0  0  0  0  0  0  0  0  0  0
   -6.4586   -3.5559   -0.8270 C   0  0  0  0  0  0  0  0  0  0  0  0
   -5.6303   -4.7621   -0.7957 C   0  0  0  0  0  0  0  0  0  0  0  0
   -5.3082   -5.2697    0.4683 C   0  0  0  0  0  0  0  0  0  0  0  0
   -4.5435   -6.4068    0.6315 C   0  0  0  0  0  0  0  0  0  0  0  0
   -4.0841   -7.0589   -0.4909 C   0  0  0  0  0  0  0  0  0  0  0  0
   -4.3904   -6.5746   -1.7238 C   0  0  0  0  0  0  0  0  0  0  0  0
   -5.1629   -5.4263   -1.9070 C   0  0  0  0  0  0  0  0  0  0  0  0
   -3.3139   -8.2044   -0.2624 O   0  0  0  0  0  0  0  0  0  0  0  0
   -7.9654    0.8131    2.3522 C   0  0  0  0  0  0  0  0  0  0  0  0
   -9.6136    3.8582    0.3522 H   0  0  0  0  0  0  0  0  0  0  0  0
  -10.1880    3.7520    2.0000 H   0  0  0  0  0  0  0  0  0  0  0  0
   -8.4411    3.4298    1.6782 H   0  0  0  0  0  0  0  0  0  0  0  0
  -10.5510    1.5755    1.9055 H   0  0  0  0  0  0  0  0  0  0  0  0
  -10.4732    1.7800    0.1603 H   0  0  0  0  0  0  0  0  0  0  0  0
   -9.2403   -0.1417    0.9678 H   0  0  0  0  0  0  0  0  0  0  0  0
   -8.2632    0.7558   -1.0555 H   0  0  0  0  0  0  0  0  0  0  0  0
   -6.2754   -0.3210    1.0099 H   0  0  0  0  0  0  0  0  0  0  0  0
   -5.1695   -2.2782   -1.8825 H   0  0  0  0  0  0  0  0  0  0  0  0
   -4.7108   -2.3227    1.1595 H   0  0  0  0  0  0  0  0  0  0  0  0
   -1.9645   -1.5115    1.2317 H   0  0  0  0  0  0  0  0  0  0  0  0
   -2.1016   -3.2925    1.1317 H   0  0  0  0  0  0  0  0  0  0  0  0
   -0.9998   -2.9864   -1.2649 H   0  0  0  0  0  0  0  0  0  0  0  0
   -0.5988   -1.3460   -0.7138 H   0  0  0  0  0  0  0  0  0  0  0  0
    0.0879   -3.8954    0.8909 H   0  0  0  0  0  0  0  0  0  0  0  0
    1.1758   -3.2535   -0.3122 H   0  0  0  0  0  0  0  0  0  0  0  0
    3.0268   -0.9474    0.4530 H   0  0  0  0  0  0  0  0  0  0  0  0
    2.8627   -0.3341    2.0864 H   0  0  0  0  0  0  0  0  0  0  0  0
    1.3118    1.3029    1.5791 H   0  0  0  0  0  0  0  0  0  0  0  0
    0.9992    0.3130   -1.3238 H   0  0  0  0  0  0  0  0  0  0  0  0
   -1.6389    1.1155   -1.7773 H   0  0  0  0  0  0  0  0  0  0  0  0
   -1.9769    3.9266   -0.6303 H   0  0  0  0  0  0  0  0  0  0  0  0
   -4.9582    3.9589   -0.5235 H   0  0  0  0  0  0  0  0  0  0  0  0
   -5.2588    1.2696    0.7050 H   0  0  0  0  0  0  0  0  0  0  0  0
   -3.8183    2.7401    2.0640 H   0  0  0  0  0  0  0  0  0  0  0  0
   -3.2075    4.2962    1.3594 H   0  0  0  0  0  0  0  0  0  0  0  0
   -5.5211    5.3008    1.5673 H   0  0  0  0  0  0  0  0  0  0  0  0
   -6.1113    3.7157    2.2611 H   0  0  0  0  0  0  0  0  0  0  0  0
   -6.3359    6.3180    3.8688 H   0  0  0  0  0  0  0  0  0  0  0  0
   -5.7133    5.4151    5.3414 H   0  0  0  0  0  0  0  0  0  0  0  0
    0.1930    2.2888   -3.1416 H   0  0  0  0  0  0  0  0  0  0  0  0
   -1.4401    2.8805   -3.4170 H   0  0  0  0  0  0  0  0  0  0  0  0
    1.8219    4.8718   -2.5002 H   0  0  0  0  0  0  0  0  0  0  0  0
    1.3365    4.4310   -0.7762 H   0  0  0  0  0  0  0  0  0  0  0  0
    5.2969    3.1477   -1.4724 H   0  0  0  0  0  0  0  0  0  0  0  0
    4.9418    3.4659    0.2163 H   0  0  0  0  0  0  0  0  0  0  0  0
    5.3013   -0.0131    0.1734 H   0  0  0  0  0  0  0  0  0  0  0  0
    7.9145   -0.4147   -0.6227 H   0  0  0  0  0  0  0  0  0  0  0  0
    5.0958   -1.4978    1.1929 H   0  0  0  0  0  0  0  0  0  0  0  0
    4.3948   -3.6126    1.6902 H   0  0  0  0  0  0  0  0  0  0  0  0
    5.6910   -4.2461    0.6518 H   0  0  0  0  0  0  0  0  0  0  0  0
    7.8175   -3.8456    4.0756 H   0  0  0  0  0  0  0  0  0  0  0  0
    6.8090   -2.3884    3.7749 H   0  0  0  0  0  0  0  0  0  0  0  0
    8.8764    1.1931    0.5751 H   0  0  0  0  0  0  0  0  0  0  0  0
    8.0686    0.9439    2.0694 H   0  0  0  0  0  0  0  0  0  0  0  0
   10.4591   -0.5306    0.7762 H   0  0  0  0  0  0  0  0  0  0  0  0
   10.3780    1.7682    1.6863 H   0  0  0  0  0  0  0  0  0  0  0  0
   11.6050    0.6446    2.3078 H   0  0  0  0  0  0  0  0  0  0  0  0
   10.1014    1.0080    3.3345 H   0  0  0  0  0  0  0  0  0  0  0  0
   10.6639   -1.1763    3.3458 H   0  0  0  0  0  0  0  0  0  0  0  0
   10.2811   -2.3691    2.1429 H   0  0  0  0  0  0  0  0  0  0  0  0
    9.0006   -1.6726    3.1844 H   0  0  0  0  0  0  0  0  0  0  0  0
    3.7510    2.5876   -2.6289 H   0  0  0  0  0  0  0  0  0  0  0  0
    2.2115    2.0887   -2.0258 H   0  0  0  0  0  0  0  0  0  0  0  0
    2.8301    0.6507   -3.7281 H   0  0  0  0  0  0  0  0  0  0  0  0
    3.0289   -0.3838   -2.3177 H   0  0  0  0  0  0  0  0  0  0  0  0
    5.3475   -1.2732   -1.8639 H   0  0  0  0  0  0  0  0  0  0  0  0
    7.6231   -1.6336   -2.8446 H   0  0  0  0  0  0  0  0  0  0  0  0
    8.3991   -0.3558   -4.7733 H   0  0  0  0  0  0  0  0  0  0  0  0
    6.8465    1.3614   -5.7714 H   0  0  0  0  0  0  0  0  0  0  0  0
    4.6713    1.7013   -4.8288 H   0  0  0  0  0  0  0  0  0  0  0  0
   -7.0443   -3.5544   -1.7740 H   0  0  0  0  0  0  0  0  0  0  0  0
   -7.2139   -3.5424   -0.0057 H   0  0  0  0  0  0  0  0  0  0  0  0
   -5.6671   -4.7541    1.3632 H   0  0  0  0  0  0  0  0  0  0  0  0
   -4.3369   -6.7449    1.6445 H   0  0  0  0  0  0  0  0  0  0  0  0
   -4.0050   -7.1224   -2.5987 H   0  0  0  0  0  0  0  0  0  0  0  0
   -5.4070   -5.0389   -2.8770 H   0  0  0  0  0  0  0  0  0  0  0  0
   -3.6471   -9.1079   -0.5724 H   0  0  0  0  0  0  0  0  0  0  0  0
   -7.1225    1.5376    2.3212 H   0  0  0  0  0  0  0  0  0  0  0  0
   -8.7290    1.0874    3.1098 H   0  0  0  0  0  0  0  0  0  0  0  0
   -7.6656   -0.2323    2.4909 H   0  0  0  0  0  0  0  0  0  0  0  0
  1  2  1  0
  2  3  1  0
  3  4  1  0
  4  5  1  0
  5  6  1  0
  6  7  2  0
  6  8  1  0
  8  9  1  0
  9 10  1  0
 10 11  2  0
 10 12  1  0
 12 13  1  0
 13 14  1  0
 14 15  1  0
 15 16  1  0
 16 17  1  0
 17 18  1  0
 18 19  1  0
 19 20  2  0
 19 21  1  0
 21 22  1  0
 22 23  1  0
 23 24  2  0
 23 25  1  0
 25 26  1  0
 26 27  1  0
 27 28  2  0
 25 29  1  0
 29 30  1  0
 30 31  1  0
 31 32  2  0
 31 33  1  0
 21 34  1  0
 34 35  1  0
 35 36  2  0
 35 37  1  0
 17 38  1  0
 38 39  2  0
 38 40  1  0
 40 41  1  0
 41 42  1  0
 42 43  2  0
 42 44  1  0
 44 45  1  0
 45 46  1  0
 46 47  2  0
 46 48  1  0
 48 49  1  0
 49 50  1  0
 50 51  2  0
 50 52  1  0
 45 53  1  0
 53 54  1  0
 54 55  1  0
 54 56  1  0
 40 57  1  0
 57 58  1  0
 58 59  1  0
 59 60  2  0
 60 61  1  0
 61 62  2  0
 62 63  1  0
 63 64  2  0
  8 65  1  0
 65 66  1  0
 66 67  2  0
 67 68  1  0
 68 69  2  0
 69 70  1  0
 70 71  2  0
 69 72  1  0
  3 73  1  0
 27  4  1  0
 64 59  1  0
 71 66  1  0
  1 74  1  0
  1 75  1  0
  1 76  1  0
  2 77  1  0
  2 78  1  0
  3 79  1  6
  4 80  1  6
  5 81  1  0
  8 82  1  6
  9 83  1  0
 12 84  1  0
 12 85  1  0
 13 86  1  0
 13 87  1  0
 14 88  1  0
 14 89  1  0
 16 90  1  0
 16 91  1  0
 17 92  1  1
 18 93  1  0
 21 94  1  6
 22 95  1  0
 25 96  1  6
 26 97  1  0
 29 98  1  0
 29 99  1  0
 30100  1  0
 30101  1  0
 33102  1  0
 33103  1  0
 34104  1  0
 34105  1  0
 37106  1  0
 37107  1  0
 41108  1  0
 41109  1  0
 44110  1  0
 45111  1  6
 48112  1  0
 49113  1  0
 49114  1  0
 52115  1  0
 52116  1  0
 53117  1  0
 53118  1  0
 54119  1  0
 55120  1  0
 55121  1  0
 55122  1  0
 56123  1  0
 56124  1  0
 56125  1  0
 57126  1  0
 57127  1  0
 58128  1  0
 58129  1  0
 60130  1  0
 61131  1  0
 62132  1  0
 63133  1  0
 64134  1  0
 65135  1  0
 65136  1  0
 67137  1  0
 68138  1  0
 70139  1  0
 71140  1  0
 72141  1  0
 73142  1  0
 73143  1  0
 73144  1  0
M  END
>  <Ligand ID>  (1) 
LIG0001572

>  <Ligand>  (1) 
CHEMBL3354597

>  <SMILES>  (1) 
CC[C@@H]([C@@H]1NC(=O)[C@@H](NC(=O)CCCSC[C@H](NC(=O)[C@@H](NC(=O)[C@@H](NC1=O)CCC(=O)N)CC(=O)N)C(=O)N(CC(=O)N[C@H](C(=O)NCC(=O)N)CC(C)C)CCc1ccccc1)Cc1ccc(cc1)O)C

>  <CID>  (1) 
44232512.0

>  <ChEMBL ID>  (1) 
nan

>  <InChiKey>  (1) 
ZGWZXMWDAVXNMT-ASIWTYMMSA-N

>  <InChi>  (1) 
InChI=1S/C49H71N11O12S/c1-5-29(4)43-48(71)56-33(17-18-38(50)62)45(68)57-36(24-39(51)63)46(69)58-37(27-73-21-9-12-41(65)54-35(47(70)59-43)23-31-13-15-32(61)16-14-31)49(72)60(20-19-30-10-7-6-8-11-30)26-42(66)55-34(22-28(2)3)44(67)53-25-40(52)64/h6-8,10-11,13-16,28-29,33-37,43,61H,5,9,12,17-27H2,1-4H3,(H2,50,62)(H2,51,63)(H2,52,64)(H,53,67)(H,54,65)(H,55,66)(H,56,71)(H,57,68)(H,58,69)(H,59,70)/t29-,33-,34-,35-,36-,37-,43-/m0/s1

>  <IUPAC Name>  (1) 
(3R,6S,9S,12S,15S)-6-(2-amino-2-oxoethyl)-N-[2-[[(2S)-1-[(2-amino-2-oxoethyl)amino]-4-methyl-1-oxopentan-2-yl]amino]-2-oxoethyl]-9-(3-amino-3-oxopropyl)-12-[(2S)-butan-2-yl]-15-[(4-hydroxyphenyl)methyl]-5,8,11,14,17-pentaoxo-N-(2-phenylethyl)-1-thia-4,7,10,13,16-pentazacycloicosane-3-carboxamide

$$$$
