
     RDKit          3D

 48 51  0  0  0  0  0  0  0  0999 V2000
   -3.3482   -4.0736   -0.5922 O   0  0  0  0  0  0  0  0  0  0  0  0
   -3.9110   -2.8224   -0.9105 C   0  0  1  0  0  0  0  0  0  0  0  0
   -4.3315   -2.1851    0.3844 C   0  0  0  0  0  0  0  0  0  0  0  0
   -3.4872   -0.9502    0.4845 C   0  0  0  0  0  0  0  0  0  0  0  0
   -2.5032   -1.0833   -0.5056 N   0  0  0  0  0  0  0  0  0  0  0  0
   -2.8564   -1.9524   -1.5446 C   0  0  0  0  0  0  0  0  0  0  0  0
   -1.7267    0.0561   -0.8165 C   0  0  0  0  0  0  0  0  0  0  0  0
   -0.8326    0.4078    0.3313 C   0  0  0  0  0  0  0  0  0  0  0  0
   -0.0255    1.5760    0.0895 N   0  0  0  0  0  0  0  0  0  0  0  0
    1.2029    1.7085   -0.4373 C   0  0  0  0  0  0  0  0  0  0  0  0
    2.0293    0.6319   -0.8826 N   0  0  0  0  0  0  0  0  0  0  0  0
    2.9265    0.0983    0.1118 C   0  0  0  0  0  0  0  0  0  0  0  0
    2.8614    0.6530    1.2425 O   0  0  0  0  0  0  0  0  0  0  0  0
    3.8189   -0.9874   -0.1968 C   0  0  0  0  0  0  0  0  0  0  0  0
    3.9085   -1.6228   -1.4058 C   0  0  0  0  0  0  0  0  0  0  0  0
    4.7903   -2.6416   -1.6031 C   0  0  0  0  0  0  0  0  0  0  0  0
    5.6240   -3.0632   -0.5784 C   0  0  0  0  0  0  0  0  0  0  0  0
    5.5592   -2.4516    0.6357 C   0  0  0  0  0  0  0  0  0  0  0  0
    4.6646   -1.4290    0.8111 C   0  0  0  0  0  0  0  0  0  0  0  0
    6.7474   -4.3734   -0.8558 Cl  0  0  0  0  0  0  0  0  0  0  0  0
    1.5114    3.0307   -0.4601 N   0  0  0  0  0  0  0  0  0  0  0  0
    0.4933    3.7579    0.0481 C   0  0  0  0  0  0  0  0  0  0  0  0
   -0.4672    2.8283    0.3899 C   0  0  0  0  0  0  0  0  0  0  0  0
   -1.6569    3.2897    0.9511 C   0  0  0  0  0  0  0  0  0  0  0  0
   -1.8890    4.6372    1.1676 C   0  0  0  0  0  0  0  0  0  0  0  0
   -0.9238    5.5602    0.8230 C   0  0  0  0  0  0  0  0  0  0  0  0
    0.2795    5.1206    0.2578 C   0  0  0  0  0  0  0  0  0  0  0  0
   -2.3408   -3.9973   -0.6119 H   0  0  0  0  0  0  0  0  0  0  0  0
   -4.7973   -2.9454   -1.5663 H   0  0  0  0  0  0  0  0  0  0  0  0
   -5.3936   -1.8472    0.3038 H   0  0  0  0  0  0  0  0  0  0  0  0
   -4.1930   -2.8679    1.2499 H   0  0  0  0  0  0  0  0  0  0  0  0
   -4.0563   -0.0052    0.3911 H   0  0  0  0  0  0  0  0  0  0  0  0
   -2.9555   -0.9138    1.4808 H   0  0  0  0  0  0  0  0  0  0  0  0
   -1.9904   -2.5842   -1.8299 H   0  0  0  0  0  0  0  0  0  0  0  0
   -3.2373   -1.4834   -2.4726 H   0  0  0  0  0  0  0  0  0  0  0  0
   -2.4394    0.9140   -0.9270 H   0  0  0  0  0  0  0  0  0  0  0  0
   -1.1743   -0.1075   -1.7588 H   0  0  0  0  0  0  0  0  0  0  0  0
   -0.0989   -0.4408    0.4339 H   0  0  0  0  0  0  0  0  0  0  0  0
   -1.3688    0.4202    1.2968 H   0  0  0  0  0  0  0  0  0  0  0  0
    1.9942    0.2546   -1.8510 H   0  0  0  0  0  0  0  0  0  0  0  0
    3.2637   -1.3000   -2.2034 H   0  0  0  0  0  0  0  0  0  0  0  0
    4.8087   -3.1017   -2.5869 H   0  0  0  0  0  0  0  0  0  0  0  0
    6.2085   -2.7681    1.4610 H   0  0  0  0  0  0  0  0  0  0  0  0
    4.6323   -0.9595    1.7826 H   0  0  0  0  0  0  0  0  0  0  0  0
   -2.4509    2.5844    1.2403 H   0  0  0  0  0  0  0  0  0  0  0  0
   -2.8239    4.9867    1.6083 H   0  0  0  0  0  0  0  0  0  0  0  0
   -1.1059    6.6190    0.9931 H   0  0  0  0  0  0  0  0  0  0  0  0
    1.0610    5.8230   -0.0257 H   0  0  0  0  0  0  0  0  0  0  0  0
  1  2  1  0
  2  3  1  0
  3  4  1  0
  4  5  1  0
  5  6  1  0
  5  7  1  0
  7  8  1  0
  8  9  1  0
  9 10  1  0
 10 11  1  0
 11 12  1  0
 12 13  2  0
 12 14  1  0
 14 15  2  0
 15 16  1  0
 16 17  2  0
 17 18  1  0
 18 19  2  0
 17 20  1  0
 10 21  2  0
 21 22  1  0
 22 23  2  0
 23 24  1  0
 24 25  2  0
 25 26  1  0
 26 27  2  0
  6  2  1  0
 23  9  1  0
 19 14  1  0
 27 22  1  0
  1 28  1  0
  2 29  1  6
  3 30  1  0
  3 31  1  0
  4 32  1  0
  4 33  1  0
  6 34  1  0
  6 35  1  0
  7 36  1  0
  7 37  1  0
  8 38  1  0
  8 39  1  0
 11 40  1  0
 15 41  1  0
 16 42  1  0
 18 43  1  0
 19 44  1  0
 24 45  1  0
 25 46  1  0
 26 47  1  0
 27 48  1  0
M  END
>  <Ligand ID>  (1) 
LIG0003125

>  <Ligand>  (1) 
CHEMBL3394006

>  <SMILES>  (1) 
O[C@H]1CCN(C1)CCn1c(NC(=O)c2ccc(cc2)Cl)nc2c1cccc2

>  <CID>  (1) 
118725856.0

>  <ChEMBL ID>  (1) 
nan

>  <InChiKey>  (1) 
MTTFTOLSXOKFQE-INIZCTEOSA-N

>  <InChi>  (1) 
InChI=1S/C20H21ClN4O2/c21-15-7-5-14(6-8-15)19(27)23-20-22-17-3-1-2-4-18(17)25(20)12-11-24-10-9-16(26)13-24/h1-8,16,26H,9-13H2,(H,22,23,27)/t16-/m0/s1

>  <IUPAC Name>  (1) 
4-chloro-N-[1-[2-[(3S)-3-hydroxypyrrolidin-1-yl]ethyl]benzimidazol-2-yl]benzamide

$$$$
