
     RDKit          3D

 40 43  0  0  0  0  0  0  0  0999 V2000
    6.9243    0.7558    0.3269 C   0  0  0  0  0  0  0  0  0  0  0  0
    5.9441    1.0571   -0.6353 O   0  0  0  0  0  0  0  0  0  0  0  0
    4.6323    0.6486   -0.4590 C   0  0  0  0  0  0  0  0  0  0  0  0
    3.7027    0.9758   -1.4464 C   0  0  0  0  0  0  0  0  0  0  0  0
    2.3635    0.5875   -1.3182 C   0  0  0  0  0  0  0  0  0  0  0  0
    1.9674   -0.1247   -0.2030 C   0  0  0  0  0  0  0  0  0  0  0  0
    2.8893   -0.4480    0.7740 C   0  0  0  0  0  0  0  0  0  0  0  0
    4.2089   -0.0638    0.6449 C   0  0  0  0  0  0  0  0  0  0  0  0
    0.6283   -0.5586    0.0075 N   0  0  0  0  0  0  0  0  0  0  0  0
    0.3229   -1.8246    0.2883 N   0  0  0  0  0  0  0  0  0  0  0  0
   -0.9996   -1.9457    0.4349 C   0  0  0  0  0  0  0  0  0  0  0  0
   -1.5223   -0.6921    0.2333 C   0  0  0  0  0  0  0  0  0  0  0  0
   -0.5019    0.1818   -0.0356 C   0  0  0  0  0  0  0  0  0  0  0  0
   -2.8808   -0.5126    0.3220 C   0  0  0  0  0  0  0  0  0  0  0  0
   -3.6437   -1.5813    0.6045 N   0  0  0  0  0  0  0  0  0  0  0  0
   -3.1553   -2.7957    0.8014 N   0  0  0  0  0  0  0  0  0  0  0  0
   -1.8402   -2.9867    0.7190 C   0  0  0  0  0  0  0  0  0  0  0  0
   -1.2680   -4.3245    0.9329 C   0  0  0  0  0  0  0  0  0  0  0  0
   -3.5458    0.7690    0.1263 C   0  0  0  0  0  0  0  0  0  0  0  0
   -3.1209    1.9473    0.6865 C   0  0  0  0  0  0  0  0  0  0  0  0
   -3.8304    3.1207    0.4315 C   0  0  0  0  0  0  0  0  0  0  0  0
   -4.9493    3.0967   -0.3766 C   0  0  0  0  0  0  0  0  0  0  0  0
   -5.3867    1.9036   -0.9488 C   0  0  0  0  0  0  0  0  0  0  0  0
   -4.6805    0.7486   -0.6923 C   0  0  0  0  0  0  0  0  0  0  0  0
   -6.9456    1.8698   -2.0747 Br  0  0  0  0  0  0  0  0  0  0  0  0
    7.9356    0.8279   -0.1536 H   0  0  0  0  0  0  0  0  0  0  0  0
    6.8300   -0.2679    0.7283 H   0  0  0  0  0  0  0  0  0  0  0  0
    6.9292    1.5514    1.1070 H   0  0  0  0  0  0  0  0  0  0  0  0
    4.0403    1.5331   -2.3071 H   0  0  0  0  0  0  0  0  0  0  0  0
    1.6386    0.8345   -2.0734 H   0  0  0  0  0  0  0  0  0  0  0  0
    2.5815   -1.0094    1.6551 H   0  0  0  0  0  0  0  0  0  0  0  0
    4.9124   -0.3287    1.4232 H   0  0  0  0  0  0  0  0  0  0  0  0
   -0.5894    1.2222   -0.2363 H   0  0  0  0  0  0  0  0  0  0  0  0
   -1.3148   -4.9065    0.0051 H   0  0  0  0  0  0  0  0  0  0  0  0
   -1.7881   -4.8605    1.7721 H   0  0  0  0  0  0  0  0  0  0  0  0
   -0.2046   -4.2592    1.2421 H   0  0  0  0  0  0  0  0  0  0  0  0
   -2.2475    1.9551    1.3175 H   0  0  0  0  0  0  0  0  0  0  0  0
   -3.5170    4.0646    0.8608 H   0  0  0  0  0  0  0  0  0  0  0  0
   -5.4932    4.0312   -0.5645 H   0  0  0  0  0  0  0  0  0  0  0  0
   -5.0260   -0.1915   -1.1439 H   0  0  0  0  0  0  0  0  0  0  0  0
  1  2  1  0
  2  3  1  0
  3  4  2  0
  4  5  1  0
  5  6  2  0
  6  7  1  0
  7  8  2  0
  6  9  1  0
  9 10  1  0
 10 11  2  0
 11 12  1  0
 12 13  2  0
 12 14  1  0
 14 15  2  0
 15 16  1  0
 16 17  2  0
 17 18  1  0
 14 19  1  0
 19 20  2  0
 20 21  1  0
 21 22  2  0
 22 23  1  0
 23 24  2  0
 23 25  1  0
  8  3  1  0
 13  9  1  0
 24 19  1  0
 17 11  1  0
  1 26  1  0
  1 27  1  0
  1 28  1  0
  4 29  1  0
  5 30  1  0
  7 31  1  0
  8 32  1  0
 13 33  1  0
 18 34  1  0
 18 35  1  0
 18 36  1  0
 20 37  1  0
 21 38  1  0
 22 39  1  0
 24 40  1  0
M  END
>  <Ligand ID>  (1) 
LIG0003982

>  <Ligand>  (1) 
MLS-0219547.0001

>  <SMILES>  (1) 
COc1ccc(cc1)n1nc2c(c1)c(nnc2C)c1cccc(c1)Br

>  <CID>  (1) 
1214672.0

>  <ChEMBL ID>  (1) 
nan

>  <InChiKey>  (1) 
TZZBUGIBARZTFY-UHFFFAOYSA-N

>  <InChi>  (1) 
InChI=1S/C19H15BrN4O/c1-12-18-17(19(22-21-12)13-4-3-5-14(20)10-13)11-24(23-18)15-6-8-16(25-2)9-7-15/h3-11H,1-2H3

>  <IUPAC Name>  (1) 
4-(3-bromophenyl)-2-(4-methoxyphenyl)-7-methylpyrazolo[3,4-d]pyridazine

$$$$
