
     RDKit          3D

201209  0  0  0  0  0  0  0  0999 V2000
    9.0538   -6.3963    2.8012 N   0  0  0  0  0  0  0  0  0  0  0  0
    8.3347   -6.0831    1.6017 C   0  0  0  0  0  0  0  0  0  0  0  0
    8.9423   -6.0439    0.4404 N   0  0  0  0  0  0  0  0  0  0  0  0
    6.9510   -5.7980    1.5851 N   0  0  0  0  0  0  0  0  0  0  0  0
    6.3639   -4.7752    0.7110 C   0  0  0  0  0  0  0  0  0  0  0  0
    6.8500   -3.4573    1.1896 C   0  0  0  0  0  0  0  0  0  0  0  0
    6.3502   -2.2564    0.4209 C   0  0  0  0  0  0  0  0  0  0  0  0
    4.9019   -2.0809    0.3468 C   0  0  2  0  0  0  0  0  0  0  0  0
    4.1894   -3.1005   -0.3719 N   0  0  0  0  0  0  0  0  0  0  0  0
    2.8805   -3.4243    0.0483 C   0  0  0  0  0  0  0  0  0  0  0  0
    2.5444   -2.8228    1.1337 O   0  0  0  0  0  0  0  0  0  0  0  0
    1.8730   -4.2938   -0.5217 C   0  0  2  0  0  0  0  0  0  0  0  0
    0.6641   -4.0721    0.2900 N   0  0  0  0  0  0  0  0  0  0  0  0
    0.4240   -4.6996    1.5538 C   0  0  0  0  0  0  0  0  0  0  0  0
    1.2650   -5.4742    1.9533 O   0  0  0  0  0  0  0  0  0  0  0  0
   -0.8732   -4.3095    2.2564 C   0  0  2  0  0  0  0  0  0  0  0  0
   -1.6318   -5.4579    2.7906 C   0  0  0  0  0  0  0  0  0  0  0  0
   -1.0140   -6.2733    3.8361 C   0  0  0  0  0  0  0  0  0  0  0  0
    0.1365   -6.1680    4.5697 C   0  0  0  0  0  0  0  0  0  0  0  0
    0.2099   -7.1864    5.4633 N   0  0  0  0  0  0  0  0  0  0  0  0
   -0.8832   -7.9083    5.2832 C   0  0  0  0  0  0  0  0  0  0  0  0
   -1.6438   -7.3976    4.3203 N   0  0  0  0  0  0  0  0  0  0  0  0
   -1.6870   -3.5514    1.3415 N   0  0  0  0  0  0  0  0  0  0  0  0
   -1.7315   -2.1310    1.1862 C   0  0  0  0  0  0  0  0  0  0  0  0
   -0.9625   -1.5184    1.9526 O   0  0  0  0  0  0  0  0  0  0  0  0
   -2.6223   -1.5263    0.1898 C   0  0  1  0  0  0  0  0  0  0  0  0
   -3.4481   -2.6253   -0.3174 N   0  0  0  0  0  0  0  0  0  0  0  0
   -4.8098   -2.8350   -0.0686 C   0  0  0  0  0  0  0  0  0  0  0  0
   -5.5679   -2.0883    0.6407 O   0  0  0  0  0  0  0  0  0  0  0  0
   -5.5777   -4.0269   -0.6309 C   0  0  2  0  0  0  0  0  0  0  0  0
   -5.8856   -4.8926    0.5759 C   0  0  0  0  0  0  0  0  0  0  0  0
   -6.6496   -6.1035    0.2845 C   0  0  0  0  0  0  0  0  0  0  0  0
   -8.0410   -6.0330    0.3688 C   0  0  0  0  0  0  0  0  0  0  0  0
   -8.8445   -7.1234    0.1204 C   0  0  0  0  0  0  0  0  0  0  0  0
   -8.2498   -8.3316   -0.2256 C   0  0  0  0  0  0  0  0  0  0  0  0
   -6.8620   -8.4085   -0.3116 C   0  0  0  0  0  0  0  0  0  0  0  0
   -6.0460   -7.3097   -0.0619 C   0  0  0  0  0  0  0  0  0  0  0  0
   -9.0235   -9.4803   -0.4898 O   0  0  0  0  0  0  0  0  0  0  0  0
   -4.7666   -4.7514   -1.5560 N   0  0  0  0  0  0  0  0  0  0  0  0
   -3.5177   -0.4506    0.6623 C   0  0  0  0  0  0  0  0  0  0  0  0
   -2.9308    0.7939    1.1934 C   0  0  0  0  0  0  0  0  0  0  0  0
   -1.8773    0.8990    1.7775 O   0  0  0  0  0  0  0  0  0  0  0  0
   -3.5935    2.0902    1.0448 N   0  0  0  0  0  0  0  0  0  0  0  0
   -4.6816    2.0302    0.1129 C   0  0  2  0  0  0  0  0  0  0  0  0
   -5.8992    1.3577    0.5197 C   0  0  0  0  0  0  0  0  0  0  0  0
   -6.8597    1.1768   -0.2660 O   0  0  0  0  0  0  0  0  0  0  0  0
   -6.1331    0.8347    1.8542 N   0  0  0  0  0  0  0  0  0  0  0  0
   -4.2805    1.8218   -1.2879 C   0  0  0  0  0  0  0  0  0  0  0  0
   -5.4225    1.7369   -2.2068 C   0  0  0  0  0  0  0  0  0  0  0  0
   -6.0246    0.5463   -2.5895 C   0  0  0  0  0  0  0  0  0  0  0  0
   -7.1032    0.5413   -3.4911 C   0  0  0  0  0  0  0  0  0  0  0  0
   -7.5768    1.7178   -4.0096 C   0  0  0  0  0  0  0  0  0  0  0  0
   -6.9901    2.9226   -3.6401 C   0  0  0  0  0  0  0  0  0  0  0  0
   -5.9572    2.8873   -2.7712 C   0  0  0  0  0  0  0  0  0  0  0  0
   -8.6360    1.8019   -4.9062 O   0  0  0  0  0  0  0  0  0  0  0  0
   -3.1763    3.2612    1.7850 C   0  0  0  0  0  0  0  0  0  0  0  0
   -4.4713    4.1346    1.7963 C   0  0  0  0  0  0  0  0  0  0  0  0
   -2.1524    4.0703    1.0778 N   0  0  0  0  0  0  0  0  0  0  0  0
   -1.8897    5.3754    1.5911 C   0  0  0  0  0  0  0  0  0  0  0  0
   -2.6162    5.6066    2.6347 O   0  0  0  0  0  0  0  0  0  0  0  0
   -1.0223    6.4216    1.1756 C   0  0  1  0  0  0  0  0  0  0  0  0
   -0.0062    6.2364    0.1839 N   0  0  0  0  0  0  0  0  0  0  0  0
    0.9983    7.2898    0.1035 C   0  0  0  0  0  0  0  0  0  0  0  0
    0.8360    8.2164    0.9044 O   0  0  0  0  0  0  0  0  0  0  0  0
    2.1096    7.3095   -0.8211 C   0  0  1  0  0  0  0  0  0  0  0  0
    2.5641    6.0312   -1.3073 N   0  0  0  0  0  0  0  0  0  0  0  0
    3.8252    5.8707   -2.0084 C   0  0  0  0  0  0  0  0  0  0  0  0
    4.3746    6.9309   -2.2968 O   0  0  0  0  0  0  0  0  0  0  0  0
    4.3434    4.4998   -2.3378 C   0  0  1  0  0  0  0  0  0  0  0  0
    4.0883    3.6095   -1.2379 N   0  0  0  0  0  0  0  0  0  0  0  0
    4.9252    2.4933   -0.8536 C   0  0  0  0  0  0  0  0  0  0  0  0
    5.8322    2.2197   -1.6187 O   0  0  0  0  0  0  0  0  0  0  0  0
    4.5486    1.8300    0.4100 C   0  0  1  0  0  0  0  0  0  0  0  0
    5.0926    0.4569    0.5318 N   0  0  0  0  0  0  0  0  0  0  0  0
    4.4522   -0.6920    0.0104 C   0  0  0  0  0  0  0  0  0  0  0  0
    3.4961   -0.4658   -0.7483 O   0  0  0  0  0  0  0  0  0  0  0  0
    5.0944    2.5835    1.6170 C   0  0  0  0  0  0  0  0  0  0  0  0
    4.7285    3.9681    1.7369 C   0  0  0  0  0  0  0  0  0  0  0  0
    3.7104    4.6101    2.4187 C   0  0  0  0  0  0  0  0  0  0  0  0
    3.7781    5.9402    2.2177 N   0  0  0  0  0  0  0  0  0  0  0  0
    4.8288    6.2117    1.4088 C   0  0  0  0  0  0  0  0  0  0  0  0
    5.4228    5.0112    1.1040 C   0  0  0  0  0  0  0  0  0  0  0  0
    6.5456    5.0396    0.2854 C   0  0  0  0  0  0  0  0  0  0  0  0
    7.0719    6.2066   -0.2217 C   0  0  0  0  0  0  0  0  0  0  0  0
    6.4749    7.4174    0.0850 C   0  0  0  0  0  0  0  0  0  0  0  0
    5.3671    7.3954    0.8927 C   0  0  0  0  0  0  0  0  0  0  0  0
    3.5651    4.0145   -3.5789 C   0  0  0  0  0  0  0  0  0  0  0  0
    3.8285    4.9621   -4.6686 C   0  0  0  0  0  0  0  0  0  0  0  0
    4.5901    5.9432   -4.6677 O   0  0  0  0  0  0  0  0  0  0  0  0
    3.1230    4.7474   -5.9218 N   0  0  0  0  0  0  0  0  0  0  0  0
    1.6693    8.1578   -2.0681 C   0  0  0  0  0  0  0  0  0  0  0  0
   -1.8808    7.5994    0.6015 C   0  0  0  0  0  0  0  0  0  0  0  0
   -2.8105    8.1421    1.6033 C   0  0  0  0  0  0  0  0  0  0  0  0
   -4.1300    7.8132    1.7103 C   0  0  0  0  0  0  0  0  0  0  0  0
   -4.9807    8.3137    2.6833 C   0  0  0  0  0  0  0  0  0  0  0  0
   -4.5107    9.1973    3.6227 C   0  0  0  0  0  0  0  0  0  0  0  0
   -3.1873    9.5470    3.5431 C   0  0  0  0  0  0  0  0  0  0  0  0
   -2.3237    9.0498    2.5649 C   0  0  0  0  0  0  0  0  0  0  0  0
   -2.8180    3.0180    3.1827 C   0  0  0  0  0  0  0  0  0  0  0  0
   -1.7432    3.4054    3.7240 O   0  0  0  0  0  0  0  0  0  0  0  0
   -3.6966    2.3222    3.9818 O   0  0  0  0  0  0  0  0  0  0  0  0
    2.1296   -5.7144   -0.8184 C   0  0  0  0  0  0  0  0  0  0  0  0
    3.1479   -6.0366   -1.8320 C   0  0  0  0  0  0  0  0  0  0  0  0
    4.4329   -6.4571   -1.5518 C   0  0  0  0  0  0  0  0  0  0  0  0
    5.3839   -6.7037   -2.5185 C   0  0  0  0  0  0  0  0  0  0  0  0
    5.0978   -6.5440   -3.8579 C   0  0  0  0  0  0  0  0  0  0  0  0
    3.8174   -6.1275   -4.1694 C   0  0  0  0  0  0  0  0  0  0  0  0
    2.8638   -5.8797   -3.1961 C   0  0  0  0  0  0  0  0  0  0  0  0
    1.6182   -5.4982   -3.6434 C   0  0  0  0  0  0  0  0  0  0  0  0
    1.3186   -5.3584   -4.9905 C   0  0  0  0  0  0  0  0  0  0  0  0
    2.2722   -5.6033   -5.9495 C   0  0  0  0  0  0  0  0  0  0  0  0
    3.5186   -5.9898   -5.5034 C   0  0  0  0  0  0  0  0  0  0  0  0
    8.5851   -6.2616    3.7295 H   0  0  0  0  0  0  0  0  0  0  0  0
   10.0285   -6.7460    2.8030 H   0  0  0  0  0  0  0  0  0  0  0  0
    9.9605   -6.2326    0.3324 H   0  0  0  0  0  0  0  0  0  0  0  0
    6.3436   -6.3658    2.2492 H   0  0  0  0  0  0  0  0  0  0  0  0
    6.5755   -4.9998   -0.3513 H   0  0  0  0  0  0  0  0  0  0  0  0
    5.2346   -4.8612    0.8299 H   0  0  0  0  0  0  0  0  0  0  0  0
    6.4675   -3.3104    2.2460 H   0  0  0  0  0  0  0  0  0  0  0  0
    7.9588   -3.4268    1.2838 H   0  0  0  0  0  0  0  0  0  0  0  0
    6.8488   -2.3544   -0.5904 H   0  0  0  0  0  0  0  0  0  0  0  0
    6.8989   -1.3632    0.8549 H   0  0  0  0  0  0  0  0  0  0  0  0
    4.5508   -2.1478    1.4653 H   0  0  0  0  0  0  0  0  0  0  0  0
    4.5502   -3.6089   -1.1687 H   0  0  0  0  0  0  0  0  0  0  0  0
    1.5329   -3.7745   -1.5302 H   0  0  0  0  0  0  0  0  0  0  0  0
   -0.0823   -3.4390   -0.0247 H   0  0  0  0  0  0  0  0  0  0  0  0
   -0.5592   -3.6490    3.1005 H   0  0  0  0  0  0  0  0  0  0  0  0
   -1.9542   -6.1786    1.9615 H   0  0  0  0  0  0  0  0  0  0  0  0
   -2.6471   -5.1292    3.1864 H   0  0  0  0  0  0  0  0  0  0  0  0
    0.8909   -5.4190    4.5192 H   0  0  0  0  0  0  0  0  0  0  0  0
   -1.1554   -8.8003    5.8353 H   0  0  0  0  0  0  0  0  0  0  0  0
   -2.5540   -7.7966    3.9921 H   0  0  0  0  0  0  0  0  0  0  0  0
   -2.3120   -4.0774    0.7259 H   0  0  0  0  0  0  0  0  0  0  0  0
   -1.9761   -1.1456   -0.6648 H   0  0  0  0  0  0  0  0  0  0  0  0
   -2.9535   -3.3187   -0.9519 H   0  0  0  0  0  0  0  0  0  0  0  0
   -6.5172   -3.6175   -1.0184 H   0  0  0  0  0  0  0  0  0  0  0  0
   -4.9251   -5.1677    1.0946 H   0  0  0  0  0  0  0  0  0  0  0  0
   -6.4624   -4.3341    1.3676 H   0  0  0  0  0  0  0  0  0  0  0  0
   -8.4977   -5.0907    0.6416 H   0  0  0  0  0  0  0  0  0  0  0  0
   -9.9066   -7.1027    0.1758 H   0  0  0  0  0  0  0  0  0  0  0  0
   -6.4600   -9.3868   -0.5857 H   0  0  0  0  0  0  0  0  0  0  0  0
   -4.9659   -7.3889   -0.1347 H   0  0  0  0  0  0  0  0  0  0  0  0
   -9.0820  -10.1657    0.2778 H   0  0  0  0  0  0  0  0  0  0  0  0
   -5.3279   -5.5580   -1.9166 H   0  0  0  0  0  0  0  0  0  0  0  0
   -4.5760   -4.1082   -2.3833 H   0  0  0  0  0  0  0  0  0  0  0  0
   -3.9725   -0.9163    1.6420 H   0  0  0  0  0  0  0  0  0  0  0  0
   -4.4257   -0.3351    0.0601 H   0  0  0  0  0  0  0  0  0  0  0  0
   -5.0123    3.1625    0.1025 H   0  0  0  0  0  0  0  0  0  0  0  0
   -5.3785    0.7156    2.5526 H   0  0  0  0  0  0  0  0  0  0  0  0
   -7.0889    0.5532    2.1706 H   0  0  0  0  0  0  0  0  0  0  0  0
   -3.6333    0.9510   -1.4367 H   0  0  0  0  0  0  0  0  0  0  0  0
   -3.7086    2.7549   -1.6806 H   0  0  0  0  0  0  0  0  0  0  0  0
   -5.6681   -0.3983   -2.1986 H   0  0  0  0  0  0  0  0  0  0  0  0
   -7.5796   -0.3674   -3.7895 H   0  0  0  0  0  0  0  0  0  0  0  0
   -7.3608    3.8578   -4.0403 H   0  0  0  0  0  0  0  0  0  0  0  0
   -5.4790    3.8238   -2.4775 H   0  0  0  0  0  0  0  0  0  0  0  0
   -9.1407    2.6433   -5.0517 H   0  0  0  0  0  0  0  0  0  0  0  0
   -4.5026    4.8364    0.9658 H   0  0  0  0  0  0  0  0  0  0  0  0
   -5.3760    3.4677    1.9005 H   0  0  0  0  0  0  0  0  0  0  0  0
   -4.5445    4.7266    2.7521 H   0  0  0  0  0  0  0  0  0  0  0  0
   -1.6360    3.7741    0.2750 H   0  0  0  0  0  0  0  0  0  0  0  0
   -0.6016    6.9615    2.0924 H   0  0  0  0  0  0  0  0  0  0  0  0
    0.1315    5.4867   -0.4772 H   0  0  0  0  0  0  0  0  0  0  0  0
    2.9637    7.8839   -0.4637 H   0  0  0  0  0  0  0  0  0  0  0  0
    2.0305    5.1762   -1.2084 H   0  0  0  0  0  0  0  0  0  0  0  0
    5.3946    4.5214   -2.5809 H   0  0  0  0  0  0  0  0  0  0  0  0
    3.2654    3.7468   -0.6616 H   0  0  0  0  0  0  0  0  0  0  0  0
    3.4688    1.7478    0.4198 H   0  0  0  0  0  0  0  0  0  0  0  0
    5.9728    0.3230    1.0092 H   0  0  0  0  0  0  0  0  0  0  0  0
    4.7345    2.0234    2.5344 H   0  0  0  0  0  0  0  0  0  0  0  0
    6.2198    2.4115    1.6758 H   0  0  0  0  0  0  0  0  0  0  0  0
    2.9721    4.0970    3.0252 H   0  0  0  0  0  0  0  0  0  0  0  0
    3.1637    6.7077    2.5846 H   0  0  0  0  0  0  0  0  0  0  0  0
    7.0760    4.1249    0.0031 H   0  0  0  0  0  0  0  0  0  0  0  0
    7.9481    6.2139   -0.8583 H   0  0  0  0  0  0  0  0  0  0  0  0
    6.9129    8.3208   -0.3250 H   0  0  0  0  0  0  0  0  0  0  0  0
    4.8633    8.3176    1.1498 H   0  0  0  0  0  0  0  0  0  0  0  0
    3.8337    2.9754   -3.8234 H   0  0  0  0  0  0  0  0  0  0  0  0
    2.4917    4.0956   -3.2392 H   0  0  0  0  0  0  0  0  0  0  0  0
    2.2552    5.3513   -6.0008 H   0  0  0  0  0  0  0  0  0  0  0  0
    3.4521    4.0802   -6.6359 H   0  0  0  0  0  0  0  0  0  0  0  0
    2.5720    8.5337   -2.5775 H   0  0  0  0  0  0  0  0  0  0  0  0
    1.1747    9.0315   -1.5998 H   0  0  0  0  0  0  0  0  0  0  0  0
    0.9490    7.6185   -2.6691 H   0  0  0  0  0  0  0  0  0  0  0  0
   -1.2554    8.3939    0.2020 H   0  0  0  0  0  0  0  0  0  0  0  0
   -2.4608    7.1931   -0.2871 H   0  0  0  0  0  0  0  0  0  0  0  0
   -4.5497    7.1399    1.0010 H   0  0  0  0  0  0  0  0  0  0  0  0
   -6.0285    8.0113    2.7087 H   0  0  0  0  0  0  0  0  0  0  0  0
   -5.1941    9.5702    4.3628 H   0  0  0  0  0  0  0  0  0  0  0  0
   -2.8098   10.2430    4.2714 H   0  0  0  0  0  0  0  0  0  0  0  0
   -1.2708    9.3529    2.5463 H   0  0  0  0  0  0  0  0  0  0  0  0
   -3.8070    2.4423    4.9722 H   0  0  0  0  0  0  0  0  0  0  0  0
    2.5174   -6.1959    0.1420 H   0  0  0  0  0  0  0  0  0  0  0  0
    1.1898   -6.3126   -0.9882 H   0  0  0  0  0  0  0  0  0  0  0  0
    4.6690   -6.6244   -0.5171 H   0  0  0  0  0  0  0  0  0  0  0  0
    6.3658   -7.0171   -2.2374 H   0  0  0  0  0  0  0  0  0  0  0  0
    5.8410   -6.7300   -4.6315 H   0  0  0  0  0  0  0  0  0  0  0  0
    0.8186   -5.3278   -2.9540 H   0  0  0  0  0  0  0  0  0  0  0  0
    0.3113   -5.0440   -5.2847 H   0  0  0  0  0  0  0  0  0  0  0  0
    2.0392   -5.4908   -6.9950 H   0  0  0  0  0  0  0  0  0  0  0  0
    4.2749   -6.1797   -6.2793 H   0  0  0  0  0  0  0  0  0  0  0  0
  1  2  1  0
  2  3  2  3
  2  4  1  0
  4  5  1  0
  5  6  1  0
  6  7  1  0
  7  8  1  0
  8  9  1  0
  9 10  1  0
 10 11  2  0
 10 12  1  0
 12 13  1  0
 13 14  1  0
 14 15  2  0
 14 16  1  0
 16 17  1  0
 17 18  1  0
 18 19  2  0
 19 20  1  0
 20 21  2  0
 21 22  1  0
 16 23  1  0
 23 24  1  0
 24 25  2  0
 24 26  1  0
 26 27  1  0
 27 28  1  0
 28 29  2  0
 28 30  1  0
 30 31  1  0
 31 32  1  0
 32 33  2  0
 33 34  1  0
 34 35  2  0
 35 36  1  0
 36 37  2  0
 35 38  1  0
 30 39  1  0
 26 40  1  0
 40 41  1  0
 41 42  2  0
 41 43  1  0
 43 44  1  0
 44 45  1  0
 45 46  2  0
 45 47  1  0
 44 48  1  0
 48 49  1  0
 49 50  2  0
 50 51  1  0
 51 52  2  0
 52 53  1  0
 53 54  2  0
 52 55  1  0
 43 56  1  0
 56 57  1  0
 56 58  1  0
 58 59  1  0
 59 60  2  0
 59 61  1  0
 61 62  1  0
 62 63  1  0
 63 64  2  0
 63 65  1  0
 65 66  1  0
 66 67  1  0
 67 68  2  0
 67 69  1  0
 69 70  1  0
 70 71  1  0
 71 72  2  0
 71 73  1  0
 73 74  1  0
 74 75  1  0
 75 76  2  0
 73 77  1  0
 77 78  1  0
 78 79  2  0
 79 80  1  0
 80 81  1  0
 81 82  2  0
 82 83  1  0
 83 84  2  0
 84 85  1  0
 85 86  2  0
 69 87  1  0
 87 88  1  0
 88 89  2  0
 88 90  1  0
 65 91  1  0
 61 92  1  0
 92 93  1  0
 93 94  2  0
 94 95  1  0
 95 96  2  0
 96 97  1  0
 97 98  2  0
 56 99  1  0
 99100  2  0
 99101  1  0
 12102  1  0
102103  1  0
103104  2  0
104105  1  0
105106  2  0
106107  1  0
107108  2  0
108109  1  0
109110  2  0
110111  1  0
111112  2  0
 75  8  1  0
 82 78  1  0
 98 93  1  0
108103  1  0
 22 18  1  0
 37 32  1  0
 54 49  1  0
 86 81  1  0
112107  1  0
  1113  1  0
  1114  1  0
  3115  1  0
  4116  1  0
  5117  1  0
  5118  1  0
  6119  1  0
  6120  1  0
  7121  1  0
  7122  1  0
  8123  1  1
  9124  1  0
 12125  1  6
 13126  1  0
 16127  1  1
 17128  1  0
 17129  1  0
 19130  1  0
 21131  1  0
 22132  1  0
 23133  1  0
 26134  1  6
 27135  1  0
 30136  1  6
 31137  1  0
 31138  1  0
 33139  1  0
 34140  1  0
 36141  1  0
 37142  1  0
 38143  1  0
 39144  1  0
 39145  1  0
 40146  1  0
 40147  1  0
 44148  1  6
 47149  1  0
 47150  1  0
 48151  1  0
 48152  1  0
 50153  1  0
 51154  1  0
 53155  1  0
 54156  1  0
 55157  1  0
 57158  1  0
 57159  1  0
 57160  1  0
 58161  1  0
 61162  1  1
 62163  1  0
 65164  1  1
 66165  1  0
 69166  1  6
 70167  1  0
 73168  1  1
 74169  1  0
 77170  1  0
 77171  1  0
 79172  1  0
 80173  1  0
 83174  1  0
 84175  1  0
 85176  1  0
 86177  1  0
 87178  1  0
 87179  1  0
 90180  1  0
 90181  1  0
 91182  1  0
 91183  1  0
 91184  1  0
 92185  1  0
 92186  1  0
 94187  1  0
 95188  1  0
 96189  1  0
 97190  1  0
 98191  1  0
101192  1  0
102193  1  0
102194  1  0
104195  1  0
105196  1  0
106197  1  0
109198  1  0
110199  1  0
111200  1  0
112201  1  0
M  END
>  <Ligand ID>  (1) 
LIG0001166

>  <Ligand>  (1) 
CHEMBL2096818

>  <SMILES>  (1) 
NC(=N)NCCC[C@@H]1NC(=O)[C@H](NC(=O)[C@H](Cc2cnc[nH]2)NC(=O)[C@@H](NC(=O)[C@H](Cc2ccc(cc2)O)N)CC(=O)N([C@H](C(=O)N)Cc2ccc(cc2)O)C(C)(NC(=O)[C@@H](NC(=O)[C@@H](NC(=O)[C@@H](NC(=O)[C@@H](NC1=O)Cc1c[nH]c2c1cccc2)CC(=O)N)C)Cc1ccccc1)C(=O)O)Cc1cccc2c1cccc2

>  <CID>  (1) 
91900701.0

>  <ChEMBL ID>  (1) 
nan

>  <InChiKey>  (1) 
VFEXJLVWDIPOPO-ZILZEKFXSA-N

>  <InChi>  (1) 
InChI=1S/C77H89N19O16/c1-41-66(102)89-56(31-42-12-4-3-5-13-42)74(110)95-77(2,75(111)112)96(62(65(80)101)32-44-23-27-50(98)28-24-44)64(100)37-61(90-67(103)53(78)30-43-21-25-49(97)26-22-43)73(109)93-59(35-48-39-83-40-86-48)72(108)92-57(33-46-16-10-15-45-14-6-7-17-51(45)46)70(106)88-55(20-11-29-84-76(81)82)68(104)91-58(34-47-38-85-54-19-9-8-18-52(47)54)71(107)94-60(36-63(79)99)69(105)87-41/h3-10,12-19,21-28,38-41,53,55-62,85,97-98H,11,20,29-37,78H2,1-2H3,(H2,79,99)(H2,80,101)(H,83,86)(H,87,105)(H,88,106)(H,89,102)(H,90,103)(H,91,104)(H,92,108)(H,93,109)(H,94,107)(H,95,110)(H,111,112)(H4,81,82,84)/t41-,53-,55-,56-,57+,58-,59-,60-,61-,62-,77?/m0/s1

>  <IUPAC Name>  (1) 
(5S,8S,11S,14S,17S,20R,23S,26S)-1-[(2S)-1-amino-3-(4-hydroxyphenyl)-1-oxopropan-2-yl]-26-[[(2S)-2-amino-3-(4-hydroxyphenyl)propanoyl]amino]-11-(2-amino-2-oxoethyl)-5-benzyl-17-(3-carbamimidamidopropyl)-23-(1H-imidazol-5-ylmethyl)-14-(1H-indol-3-ylmethyl)-2,8-dimethyl-20-(naphthalen-1-ylmethyl)-4,7,10,13,16,19,22,25,28-nonaoxo-1,3,6,9,12,15,18,21,24-nonazacyclooctacosane-2-carboxylic acid

$$$$
