
     RDKit          3D

 52 56  0  0  0  0  0  0  0  0999 V2000
   -8.2846    1.0214    2.1304 C   0  0  0  0  0  0  0  0  0  0  0  0
   -7.9634   -0.1740    1.2600 C   0  0  0  0  0  0  0  0  0  0  0  0
   -6.5506   -0.2645    0.9435 N   0  0  0  0  0  0  0  0  0  0  0  0
   -5.6148   -0.9127    1.6484 N   0  0  0  0  0  0  0  0  0  0  0  0
   -4.4280   -0.7819    1.0609 N   0  0  0  0  0  0  0  0  0  0  0  0
   -4.6249   -0.0342   -0.0379 C   0  0  0  0  0  0  0  0  0  0  0  0
   -5.9353    0.2720   -0.0897 N   0  0  0  0  0  0  0  0  0  0  0  0
   -3.5413    0.3403   -0.9718 C   0  0  1  0  0  0  0  0  0  0  0  0
   -2.3949    0.7697   -0.3170 O   0  0  0  0  0  0  0  0  0  0  0  0
   -1.3368    0.6285   -1.1727 C   0  0  2  0  0  0  0  0  0  0  0  0
   -1.7467   -0.2641   -2.3070 C   0  0  1  0  0  0  0  0  0  0  0  0
   -3.0527   -0.8329   -1.7935 C   0  0  2  0  0  0  0  0  0  0  0  0
   -3.9330   -1.1331   -2.8253 O   0  0  0  0  0  0  0  0  0  0  0  0
   -2.0073    0.5291   -3.4286 O   0  0  0  0  0  0  0  0  0  0  0  0
   -0.2216    0.0614   -0.4038 N   0  0  0  0  0  0  0  0  0  0  0  0
   -0.2152   -1.0890    0.2879 C   0  0  0  0  0  0  0  0  0  0  0  0
    0.9973   -1.2716    0.8640 N   0  0  0  0  0  0  0  0  0  0  0  0
    1.7661   -0.2237    0.5320 C   0  0  0  0  0  0  0  0  0  0  0  0
    0.9954    0.6121   -0.2652 C   0  0  0  0  0  0  0  0  0  0  0  0
    1.5600    1.7434   -0.7259 N   0  0  0  0  0  0  0  0  0  0  0  0
    2.8512    2.0550   -0.4162 C   0  0  0  0  0  0  0  0  0  0  0  0
    3.5658    3.5278   -1.0247 Cl  0  0  0  0  0  0  0  0  0  0  0  0
    3.5765    1.2354    0.3535 N   0  0  0  0  0  0  0  0  0  0  0  0
    3.0752    0.0942    0.8448 C   0  0  0  0  0  0  0  0  0  0  0  0
    3.8453   -0.7572    1.6509 N   0  0  0  0  0  0  0  0  0  0  0  0
    5.2193   -0.4835    2.0145 C   0  0  0  0  0  0  0  0  0  0  0  0
    6.1003   -0.3734    0.8309 C   0  0  0  0  0  0  0  0  0  0  0  0
    6.5455    0.8636    0.3795 C   0  0  0  0  0  0  0  0  0  0  0  0
    7.3687    0.9568   -0.7266 C   0  0  0  0  0  0  0  0  0  0  0  0
    7.7531   -0.1687   -1.3879 C   0  0  0  0  0  0  0  0  0  0  0  0
    7.3187   -1.3973   -0.9501 C   0  0  0  0  0  0  0  0  0  0  0  0
    6.4885   -1.5147    0.1626 C   0  0  0  0  0  0  0  0  0  0  0  0
    5.8283   -3.3841    0.8286 I   0  0  0  0  0  0  0  0  0  0  0  0
   -8.4834    0.7359    3.1773 H   0  0  0  0  0  0  0  0  0  0  0  0
   -9.1690    1.5876    1.7370 H   0  0  0  0  0  0  0  0  0  0  0  0
   -7.4179    1.7312    2.0805 H   0  0  0  0  0  0  0  0  0  0  0  0
   -8.2465   -1.0911    1.8242 H   0  0  0  0  0  0  0  0  0  0  0  0
   -8.6022   -0.1265    0.3488 H   0  0  0  0  0  0  0  0  0  0  0  0
   -3.8771    1.1799   -1.6096 H   0  0  0  0  0  0  0  0  0  0  0  0
   -1.0256    1.6313   -1.5861 H   0  0  0  0  0  0  0  0  0  0  0  0
   -1.0042   -1.0558   -2.5241 H   0  0  0  0  0  0  0  0  0  0  0  0
   -2.8705   -1.6817   -1.1237 H   0  0  0  0  0  0  0  0  0  0  0  0
   -3.4827   -1.2434   -3.6969 H   0  0  0  0  0  0  0  0  0  0  0  0
   -2.0424    1.5007   -3.1986 H   0  0  0  0  0  0  0  0  0  0  0  0
   -1.0228   -1.7967    0.4011 H   0  0  0  0  0  0  0  0  0  0  0  0
    3.4220   -1.6513    2.0244 H   0  0  0  0  0  0  0  0  0  0  0  0
    5.6289   -1.2276    2.7077 H   0  0  0  0  0  0  0  0  0  0  0  0
    5.2124    0.5013    2.5456 H   0  0  0  0  0  0  0  0  0  0  0  0
    6.2620    1.7962    0.8813 H   0  0  0  0  0  0  0  0  0  0  0  0
    7.6920    1.9507   -1.0428 H   0  0  0  0  0  0  0  0  0  0  0  0
    8.3909   -0.1008   -2.2460 H   0  0  0  0  0  0  0  0  0  0  0  0
    7.6321   -2.2902   -1.4861 H   0  0  0  0  0  0  0  0  0  0  0  0
  1  2  1  0
  2  3  1  0
  3  4  1  0
  4  5  2  0
  5  6  1  0
  6  7  2  0
  6  8  1  0
  8  9  1  0
  9 10  1  0
 10 11  1  0
 11 12  1  0
 12 13  1  0
 11 14  1  0
 10 15  1  0
 15 16  1  0
 16 17  2  0
 17 18  1  0
 18 19  2  0
 19 20  1  0
 20 21  2  0
 21 22  1  0
 21 23  1  0
 23 24  2  0
 24 25  1  0
 25 26  1  0
 26 27  1  0
 27 28  2  0
 28 29  1  0
 29 30  2  0
 30 31  1  0
 31 32  2  0
 32 33  1  0
  7  3  1  0
 12  8  1  0
 19 15  1  0
 32 27  1  0
 24 18  1  0
  1 34  1  0
  1 35  1  0
  1 36  1  0
  2 37  1  0
  2 38  1  0
  8 39  1  6
 10 40  1  6
 11 41  1  6
 12 42  1  1
 13 43  1  0
 14 44  1  0
 16 45  1  0
 25 46  1  0
 26 47  1  0
 26 48  1  0
 28 49  1  0
 29 50  1  0
 30 51  1  0
 31 52  1  0
M  END
>  <Ligand ID>  (1) 
LIG0001924

>  <Ligand>  (1) 
CHEMBL3414948

>  <SMILES>  (1) 
CCn1nnc(n1)[C@H]1O[C@H]([C@@H]([C@@H]1O)O)n1cnc2c1nc(Cl)nc2NCc1ccccc1I

>  <CID>  (1) 
118732982.0

>  <ChEMBL ID>  (1) 
nan

>  <InChiKey>  (1) 
SXSHOTNATXYYEG-MOROJQBDSA-N

>  <InChi>  (1) 
InChI=1S/C19H19ClIN9O3/c1-2-30-27-16(26-28-30)14-12(31)13(32)18(33-14)29-8-23-11-15(24-19(20)25-17(11)29)22-7-9-5-3-4-6-10(9)21/h3-6,8,12-14,18,31-32H,2,7H2,1H3,(H,22,24,25)/t12-,13+,14-,18+/m0/s1

>  <IUPAC Name>  (1) 
(2R,3R,4S,5R)-2-[2-chloro-6-[(2-iodophenyl)methylamino]purin-9-yl]-5-(2-ethyltetrazol-5-yl)oxolane-3,4-diol

$$$$
