
     RDKit          3D

 56 59  0  0  0  0  0  0  0  0999 V2000
   -1.0942    0.6160   -5.7773 C   0  0  0  0  0  0  0  0  0  0  0  0
   -2.2396    0.2702   -5.1822 C   0  0  0  0  0  0  0  0  0  0  0  0
   -2.2522    0.0674   -3.7319 C   0  0  0  0  0  0  0  0  0  0  0  0
   -3.4044   -0.2902   -3.0919 N   0  0  0  0  0  0  0  0  0  0  0  0
   -3.4433   -0.4802   -1.7687 C   0  0  0  0  0  0  0  0  0  0  0  0
   -4.6345   -0.8337   -1.1884 C   0  0  0  0  0  0  0  0  0  0  0  0
   -4.6525   -1.0175    0.1670 C   0  0  0  0  0  0  0  0  0  0  0  0
   -5.8053   -1.3754    0.8435 O   0  0  0  0  0  0  0  0  0  0  0  0
   -7.0082   -1.5652    0.1343 C   0  0  0  0  0  0  0  0  0  0  0  0
   -3.4990   -0.8550    0.9597 C   0  0  0  0  0  0  0  0  0  0  0  0
   -2.3179   -0.4925    0.2912 C   0  0  0  0  0  0  0  0  0  0  0  0
   -2.2719   -0.3021   -1.0659 C   0  0  0  0  0  0  0  0  0  0  0  0
   -1.0876    0.0583   -1.6738 C   0  0  0  0  0  0  0  0  0  0  0  0
   -1.1246    0.2327   -3.0082 N   0  0  0  0  0  0  0  0  0  0  0  0
    0.1323    0.2283   -0.9627 N   0  0  0  0  0  0  0  0  0  0  0  0
    0.8516   -0.8363   -0.3154 C   0  0  0  0  0  0  0  0  0  0  0  0
    1.5445   -0.2213    0.9009 C   0  0  0  0  0  0  0  0  0  0  0  0
    2.5922    0.6193    0.3037 N   0  0  0  0  0  0  0  0  0  0  0  0
    2.1585    1.5909   -0.6648 C   0  0  0  0  0  0  0  0  0  0  0  0
    0.6713    1.5661   -0.8878 C   0  0  0  0  0  0  0  0  0  0  0  0
    3.9603    0.4871    0.6560 C   0  0  0  0  0  0  0  0  0  0  0  0
    4.8307    0.1329   -0.3650 C   0  0  0  0  0  0  0  0  0  0  0  0
    6.1869   -0.0257   -0.1188 C   0  0  0  0  0  0  0  0  0  0  0  0
    6.6746    0.1718    1.1562 C   0  0  0  0  0  0  0  0  0  0  0  0
    5.8027    0.5272    2.1810 C   0  0  0  0  0  0  0  0  0  0  0  0
    4.4410    0.6866    1.9365 C   0  0  0  0  0  0  0  0  0  0  0  0
    3.5434    1.0409    2.9344 O   0  0  0  0  0  0  0  0  0  0  0  0
    4.0486    1.2422    4.2461 C   0  0  0  0  0  0  0  0  0  0  0  0
   -3.5263   -1.0293    2.2274 O   0  0  0  0  0  0  0  0  0  0  0  0
   -3.4541   -1.1854    3.5295 C   0  0  0  0  0  0  0  0  0  0  0  0
   -1.0097    0.7823   -6.8392 H   0  0  0  0  0  0  0  0  0  0  0  0
   -0.1897    0.7406   -5.1816 H   0  0  0  0  0  0  0  0  0  0  0  0
   -3.1375    0.1411   -5.7456 H   0  0  0  0  0  0  0  0  0  0  0  0
   -5.5113   -0.9541   -1.8069 H   0  0  0  0  0  0  0  0  0  0  0  0
   -7.5147   -0.5780   -0.0659 H   0  0  0  0  0  0  0  0  0  0  0  0
   -6.8941   -2.0723   -0.8338 H   0  0  0  0  0  0  0  0  0  0  0  0
   -7.6442   -2.2043    0.8154 H   0  0  0  0  0  0  0  0  0  0  0  0
   -1.4361   -0.3632    0.9021 H   0  0  0  0  0  0  0  0  0  0  0  0
    0.2405   -1.7037   -0.0926 H   0  0  0  0  0  0  0  0  0  0  0  0
    1.6556   -1.1814   -1.0082 H   0  0  0  0  0  0  0  0  0  0  0  0
    1.9447   -0.9861    1.5715 H   0  0  0  0  0  0  0  0  0  0  0  0
    0.8211    0.4801    1.3659 H   0  0  0  0  0  0  0  0  0  0  0  0
    2.6266    1.4736   -1.6600 H   0  0  0  0  0  0  0  0  0  0  0  0
    2.4292    2.6020   -0.2970 H   0  0  0  0  0  0  0  0  0  0  0  0
    0.1593    2.0395   -0.0153 H   0  0  0  0  0  0  0  0  0  0  0  0
    0.3741    2.1321   -1.7866 H   0  0  0  0  0  0  0  0  0  0  0  0
    4.4843   -0.0310   -1.3857 H   0  0  0  0  0  0  0  0  0  0  0  0
    6.8302   -0.3024   -0.9470 H   0  0  0  0  0  0  0  0  0  0  0  0
    7.7387    0.0417    1.3164 H   0  0  0  0  0  0  0  0  0  0  0  0
    6.2013    0.6785    3.1722 H   0  0  0  0  0  0  0  0  0  0  0  0
    3.2865    1.8005    4.8630 H   0  0  0  0  0  0  0  0  0  0  0  0
    4.9264    1.9134    4.1699 H   0  0  0  0  0  0  0  0  0  0  0  0
    4.2624    0.2815    4.7602 H   0  0  0  0  0  0  0  0  0  0  0  0
   -4.4534   -1.3463    4.0645 H   0  0  0  0  0  0  0  0  0  0  0  0
   -2.8620   -2.0894    3.9034 H   0  0  0  0  0  0  0  0  0  0  0  0
   -2.9512   -0.3225    4.0962 H   0  0  0  0  0  0  0  0  0  0  0  0
  1  2  2  0
  2  3  1  0
  3  4  2  0
  4  5  1  0
  5  6  2  0
  6  7  1  0
  7  8  1  0
  8  9  1  0
  7 10  2  0
 10 11  1  0
 11 12  2  0
 12 13  1  0
 13 14  2  0
 13 15  1  0
 15 16  1  0
 16 17  1  0
 17 18  1  0
 18 19  1  0
 19 20  1  0
 18 21  1  0
 21 22  2  0
 22 23  1  0
 23 24  2  0
 24 25  1  0
 25 26  2  0
 26 27  1  0
 27 28  1  0
 10 29  1  0
 29 30  1  0
 14  3  1  0
 20 15  1  0
 26 21  1  0
 12  5  1  0
  1 31  1  0
  1 32  1  0
  2 33  1  0
  6 34  1  0
  9 35  1  0
  9 36  1  0
  9 37  1  0
 11 38  1  0
 16 39  1  0
 16 40  1  0
 17 41  1  0
 17 42  1  0
 19 43  1  0
 19 44  1  0
 20 45  1  0
 20 46  1  0
 22 47  1  0
 23 48  1  0
 24 49  1  0
 25 50  1  0
 28 51  1  0
 28 52  1  0
 28 53  1  0
 30 54  1  0
 30 55  1  0
 30 56  1  0
M  END
>  <Ligand ID>  (1) 
LIG0004863

>  <Ligand>  (1) 
CHEMBL2431119

>  <SMILES>  (1) 
C=Cc1nc2cc(OC)c(cc2c(n1)N1CCN(CC1)c1ccccc1OC)OC

>  <CID>  (1) 
56593273.0

>  <ChEMBL ID>  (1) 
nan

>  <InChiKey>  (1) 
UFOKSVRATXOQOA-UHFFFAOYSA-N

>  <InChi>  (1) 
InChI=1S/C23H26N4O3/c1-5-22-24-17-15-21(30-4)20(29-3)14-16(17)23(25-22)27-12-10-26(11-13-27)18-8-6-7-9-19(18)28-2/h5-9,14-15H,1,10-13H2,2-4H3

>  <IUPAC Name>  (1) 
2-ethenyl-6,7-dimethoxy-4-[4-(2-methoxyphenyl)piperazin-1-yl]quinazoline

$$$$
