
     RDKit          3D

 38 40  0  0  0  0  0  0  0  0999 V2000
    5.9465   -0.0305   -0.2195 C   0  0  0  0  0  0  0  0  0  0  0  0
    4.5423    0.1889    0.3329 C   0  0  0  0  0  0  0  0  0  0  0  0
    3.6840   -0.8876   -0.2747 C   0  0  0  0  0  0  0  0  0  0  0  0
    2.2725   -0.8444    0.1420 C   0  0  0  0  0  0  0  0  0  0  0  0
    1.8543   -1.5447    1.2622 C   0  0  0  0  0  0  0  0  0  0  0  0
    0.5246   -1.4871    1.6314 C   0  0  0  0  0  0  0  0  0  0  0  0
   -0.3512   -0.7298    0.8690 C   0  0  0  0  0  0  0  0  0  0  0  0
    0.0329   -0.0280   -0.2415 C   0  0  0  0  0  0  0  0  0  0  0  0
    1.3813   -0.0978   -0.6001 C   0  0  0  0  0  0  0  0  0  0  0  0
   -0.8795    0.7906   -1.0739 C   0  0  0  0  0  0  0  0  0  0  0  0
   -2.2679    0.2534   -0.9747 C   0  0  1  0  0  0  0  0  0  0  0  0
   -2.6271    0.1346    0.4244 N   0  0  0  0  0  0  0  0  0  0  0  0
   -1.7653   -0.6607    1.2476 C   0  0  0  0  0  0  0  0  0  0  0  0
   -2.2323   -1.2652    2.2507 O   0  0  0  0  0  0  0  0  0  0  0  0
   -3.7898    0.7685    1.0078 C   0  0  0  0  0  0  0  0  0  0  0  0
   -4.9902    0.6872    0.0770 C   0  0  0  0  0  0  0  0  0  0  0  0
   -4.6024    0.6070   -1.3087 N   0  0  0  0  0  0  0  0  0  0  0  0
   -3.3003    1.1789   -1.5800 C   0  0  0  0  0  0  0  0  0  0  0  0
    6.5185    0.8998   -0.2034 H   0  0  0  0  0  0  0  0  0  0  0  0
    5.9079   -0.5210   -1.2134 H   0  0  0  0  0  0  0  0  0  0  0  0
    6.4801   -0.7771    0.4374 H   0  0  0  0  0  0  0  0  0  0  0  0
    4.2565    1.2032    0.0575 H   0  0  0  0  0  0  0  0  0  0  0  0
    4.5969   -0.0100    1.4141 H   0  0  0  0  0  0  0  0  0  0  0  0
    3.7101   -0.8230   -1.3820 H   0  0  0  0  0  0  0  0  0  0  0  0
    4.1221   -1.8689    0.0133 H   0  0  0  0  0  0  0  0  0  0  0  0
    2.5499   -2.1316    1.8473 H   0  0  0  0  0  0  0  0  0  0  0  0
    0.1675   -2.0259    2.5051 H   0  0  0  0  0  0  0  0  0  0  0  0
    1.7389    0.4363   -1.4675 H   0  0  0  0  0  0  0  0  0  0  0  0
   -0.5160    0.9033   -2.1059 H   0  0  0  0  0  0  0  0  0  0  0  0
   -0.9010    1.8118   -0.6087 H   0  0  0  0  0  0  0  0  0  0  0  0
   -2.3130   -0.7326   -1.4949 H   0  0  0  0  0  0  0  0  0  0  0  0
   -4.0196    0.3180    1.9772 H   0  0  0  0  0  0  0  0  0  0  0  0
   -3.5474    1.8470    1.1100 H   0  0  0  0  0  0  0  0  0  0  0  0
   -5.6051    1.5999    0.2105 H   0  0  0  0  0  0  0  0  0  0  0  0
   -5.5580   -0.2310    0.3870 H   0  0  0  0  0  0  0  0  0  0  0  0
   -4.5828   -0.3939   -1.5985 H   0  0  0  0  0  0  0  0  0  0  0  0
   -3.2055    1.2992   -2.6703 H   0  0  0  0  0  0  0  0  0  0  0  0
   -3.2323    2.1631   -1.0468 H   0  0  0  0  0  0  0  0  0  0  0  0
  1  2  1  0
  2  3  1  0
  3  4  1  0
  4  5  2  0
  5  6  1  0
  6  7  2  0
  7  8  1  0
  8  9  2  0
  8 10  1  0
 10 11  1  0
 11 12  1  0
 12 13  1  0
 13 14  2  0
 12 15  1  0
 15 16  1  0
 16 17  1  0
 17 18  1  0
  9  4  1  0
 18 11  1  0
 13  7  1  0
  1 19  1  0
  1 20  1  0
  1 21  1  0
  2 22  1  0
  2 23  1  0
  3 24  1  0
  3 25  1  0
  5 26  1  0
  6 27  1  0
  9 28  1  0
 10 29  1  0
 10 30  1  0
 11 31  1  6
 15 32  1  0
 15 33  1  0
 16 34  1  0
 16 35  1  0
 17 36  1  0
 18 37  1  0
 18 38  1  0
M  END
>  <Ligand ID>  (1) 
LIG0004182

>  <Ligand>  (1) 
CHEMBL2397899

>  <SMILES>  (1) 
CCCc1ccc2c(c1)C[C@H]1N(C2=O)CCNC1

>  <CID>  (1) 
58911532.0

>  <ChEMBL ID>  (1) 
nan

>  <InChiKey>  (1) 
KQELAZSIHMTNEP-CYBMUJFWSA-N

>  <InChi>  (1) 
InChI=1S/C15H20N2O/c1-2-3-11-4-5-14-12(8-11)9-13-10-16-6-7-17(13)15(14)18/h4-5,8,13,16H,2-3,6-7,9-10H2,1H3/t13-/m1/s1

>  <IUPAC Name>  (1) 
(11aR)-9-propyl-1,2,3,4,11,11a-hexahydropyrazino[1,2-b]isoquinolin-6-one

$$$$
