
     RDKit          3D

 32 34  0  0  0  0  0  0  0  0999 V2000
   -4.1273   -0.4870    0.0100 C   0  0  0  0  0  0  0  0  0  0  0  0
   -4.3334    1.0017   -0.3251 C   0  0  0  0  0  0  0  0  0  0  0  0
   -3.2113    1.6191    0.3358 N   0  0  0  0  0  0  0  0  0  0  0  0
   -2.2264    0.7555    0.5191 C   0  0  0  0  0  0  0  0  0  0  0  0
   -2.6537   -0.4826   -0.0167 N   0  0  0  0  0  0  0  0  0  0  0  0
   -0.9834    1.1658    1.1836 C   0  0  0  0  0  0  0  0  0  0  0  0
    0.2377    0.8964    0.4728 N   0  0  0  0  0  0  0  0  0  0  0  0
    0.9146   -0.3436    0.4572 C   0  0  0  0  0  0  0  0  0  0  0  0
    0.2936   -1.3961    1.1291 C   0  0  0  0  0  0  0  0  0  0  0  0
    0.8249   -2.6794    1.1195 C   0  0  0  0  0  0  0  0  0  0  0  0
    1.9784   -2.8666    0.4260 C   0  0  0  0  0  0  0  0  0  0  0  0
    2.5841   -1.8357   -0.2279 C   0  0  0  0  0  0  0  0  0  0  0  0
    2.0703   -0.5245   -0.2342 C   0  0  0  0  0  0  0  0  0  0  0  0
    2.8855    0.4833   -0.8582 C   0  0  0  0  0  0  0  0  0  0  0  0
    3.0075    1.8346   -0.7082 C   0  0  0  0  0  0  0  0  0  0  0  0
    3.9892    2.3041   -1.5975 C   0  0  0  0  0  0  0  0  0  0  0  0
    4.4065    1.2134   -2.2329 N   0  0  0  0  0  0  0  0  0  0  0  0
    3.7744    0.1796   -1.8071 O   0  0  0  0  0  0  0  0  0  0  0  0
   -4.5617   -1.1527   -0.7360 H   0  0  0  0  0  0  0  0  0  0  0  0
   -4.4713   -0.6467    1.0517 H   0  0  0  0  0  0  0  0  0  0  0  0
   -5.3125    1.2705    0.1195 H   0  0  0  0  0  0  0  0  0  0  0  0
   -4.2955    1.1390   -1.4290 H   0  0  0  0  0  0  0  0  0  0  0  0
   -2.0669   -1.2405   -0.3674 H   0  0  0  0  0  0  0  0  0  0  0  0
   -0.8585    0.6931    2.1888 H   0  0  0  0  0  0  0  0  0  0  0  0
   -1.0003    2.2647    1.4280 H   0  0  0  0  0  0  0  0  0  0  0  0
    0.6139    1.6795   -0.0992 H   0  0  0  0  0  0  0  0  0  0  0  0
   -0.6069   -1.2555    1.6776 H   0  0  0  0  0  0  0  0  0  0  0  0
    0.3667   -3.5115    1.6296 H   0  0  0  0  0  0  0  0  0  0  0  0
    2.4078   -3.8523    0.4034 H   0  0  0  0  0  0  0  0  0  0  0  0
    3.5088   -2.0722   -0.7609 H   0  0  0  0  0  0  0  0  0  0  0  0
    2.5249    2.5153   -0.0434 H   0  0  0  0  0  0  0  0  0  0  0  0
    4.3200    3.3314   -1.7237 H   0  0  0  0  0  0  0  0  0  0  0  0
  1  2  1  0
  2  3  1  0
  3  4  2  0
  4  5  1  0
  4  6  1  0
  6  7  1  0
  7  8  1  0
  8  9  2  0
  9 10  1  0
 10 11  2  0
 11 12  1  0
 12 13  2  0
 13 14  1  0
 14 15  2  0
 15 16  1  0
 16 17  2  0
 17 18  1  0
  5  1  1  0
 13  8  1  0
 18 14  1  0
  1 19  1  0
  1 20  1  0
  2 21  1  0
  2 22  1  0
  5 23  1  0
  6 24  1  0
  6 25  1  0
  7 26  1  0
  9 27  1  0
 10 28  1  0
 11 29  1  0
 12 30  1  0
 15 31  1  0
 16 32  1  0
M  END
>  <Ligand ID>  (1) 
LIG0003177

>  <Ligand>  (1) 
CHEMBL155327

>  <SMILES>  (1) 
C1CN=C(N1)CNc1ccccc1c1ccno1

>  <CID>  (1) 
22493280.0

>  <ChEMBL ID>  (1) 
nan

>  <InChiKey>  (1) 
LQBHYWDFUZWZET-UHFFFAOYSA-N

>  <InChi>  (1) 
InChI=1S/C13H14N4O/c1-2-4-11(16-9-13-14-7-8-15-13)10(3-1)12-5-6-17-18-12/h1-6,16H,7-9H2,(H,14,15)

>  <IUPAC Name>  (1) 
N-(4,5-dihydro-1H-imidazol-2-ylmethyl)-2-(1,2-oxazol-5-yl)aniline

$$$$
