
     RDKit          3D

 91 96  0  0  0  0  0  0  0  0999 V2000
   -4.2525    4.4638    2.8862 N   0  0  0  0  0  0  0  0  0  0  0  0
   -3.7258    5.1291    1.7357 C   0  0  0  0  0  0  0  0  0  0  0  0
   -3.5166    4.4042    0.6989 N   0  0  0  0  0  0  0  0  0  0  0  0
   -2.9768    4.9646   -0.5510 C   0  0  0  0  0  0  0  0  0  0  0  0
   -1.5805    5.3803   -0.3382 C   0  0  0  0  0  0  0  0  0  0  0  0
   -0.5748    4.3902    0.1334 C   0  0  0  0  0  0  0  0  0  0  0  0
   -0.3088    3.2752   -0.7852 C   0  0  2  0  0  0  0  0  0  0  0  0
   -1.4181    2.3618   -1.1625 C   0  0  0  0  0  0  0  0  0  0  0  0
   -0.7310    1.1079   -1.6395 C   0  0  1  0  0  0  0  0  0  0  0  0
    0.6922    1.2884   -1.2640 C   0  0  0  0  0  0  0  0  0  0  0  0
    0.6766    2.3132   -0.2080 N   0  0  0  0  0  0  0  0  0  0  0  0
    1.3845    2.3947    0.9951 C   0  0  0  0  0  0  0  0  0  0  0  0
    1.1497    3.4471    1.7144 O   0  0  0  0  0  0  0  0  0  0  0  0
    2.3567    1.4840    1.5803 C   0  0  2  0  0  0  0  0  0  0  0  0
    2.6475    0.2567    0.9392 N   0  0  0  0  0  0  0  0  0  0  0  0
    3.9560    0.0693    0.3834 C   0  0  0  0  0  0  0  0  0  0  0  0
    4.8340    1.0037    0.4701 O   0  0  0  0  0  0  0  0  0  0  0  0
    4.3988   -1.1533   -0.3056 C   0  0  0  0  0  0  0  0  0  0  0  0
    3.4435   -2.1892   -0.4398 N   0  0  0  0  0  0  0  0  0  0  0  0
    3.7448   -3.2800   -1.2919 C   0  0  0  0  0  0  0  0  0  0  0  0
    5.1792   -3.2814   -1.6560 C   0  0  0  0  0  0  0  0  0  0  0  0
    5.9343   -2.1406   -1.8342 C   0  0  0  0  0  0  0  0  0  0  0  0
    5.1680   -0.8538   -1.5909 C   0  0  0  0  0  0  0  0  0  0  0  0
    7.2622   -2.1371   -2.1809 C   0  0  0  0  0  0  0  0  0  0  0  0
    7.9053   -3.3443   -2.3687 C   0  0  0  0  0  0  0  0  0  0  0  0
    7.1909   -4.5238   -2.2016 C   0  0  0  0  0  0  0  0  0  0  0  0
    5.8356   -4.5035   -1.8473 C   0  0  0  0  0  0  0  0  0  0  0  0
    1.9948    1.1441    3.0308 C   0  0  0  0  0  0  0  0  0  0  0  0
    0.7037    0.4932    3.1853 C   0  0  0  0  0  0  0  0  0  0  0  0
   -0.5061    1.1158    3.3858 C   0  0  0  0  0  0  0  0  0  0  0  0
   -1.6934    0.4399    3.5264 C   0  0  0  0  0  0  0  0  0  0  0  0
   -1.7129   -0.9351    3.4695 C   0  0  0  0  0  0  0  0  0  0  0  0
   -0.5182   -1.6060    3.2698 C   0  0  0  0  0  0  0  0  0  0  0  0
    0.6587   -0.9052    3.1319 C   0  0  0  0  0  0  0  0  0  0  0  0
   -1.3452   -0.0469   -1.2063 O   0  0  0  0  0  0  0  0  0  0  0  0
   -1.8272   -0.8305   -2.2469 C   0  0  0  0  0  0  0  0  0  0  0  0
   -2.5155   -2.0415   -1.7384 C   0  0  0  0  0  0  0  0  0  0  0  0
   -1.8553   -3.2288   -1.4636 C   0  0  0  0  0  0  0  0  0  0  0  0
   -2.5678   -4.3301   -0.9975 C   0  0  0  0  0  0  0  0  0  0  0  0
   -3.9439   -4.2717   -0.7971 C   0  0  0  0  0  0  0  0  0  0  0  0
   -4.5849   -3.0873   -1.0742 C   0  0  0  0  0  0  0  0  0  0  0  0
   -3.9028   -1.9803   -1.5370 C   0  0  0  0  0  0  0  0  0  0  0  0
   -5.9477   -2.9773   -0.8968 C   0  0  0  0  0  0  0  0  0  0  0  0
   -6.6586   -4.0785   -0.4354 C   0  0  0  0  0  0  0  0  0  0  0  0
   -5.9898   -5.2708   -0.1597 C   0  0  0  0  0  0  0  0  0  0  0  0
   -4.6250   -5.3805   -0.3376 C   0  0  0  0  0  0  0  0  0  0  0  0
   -3.4828    6.5115    1.8343 N   0  0  0  0  0  0  0  0  0  0  0  0
   -3.7006    3.6425    3.2472 H   0  0  0  0  0  0  0  0  0  0  0  0
   -5.1494    4.7750    3.3555 H   0  0  0  0  0  0  0  0  0  0  0  0
   -3.2730    4.4333   -1.4325 H   0  0  0  0  0  0  0  0  0  0  0  0
   -3.5756    5.9642   -0.6041 H   0  0  0  0  0  0  0  0  0  0  0  0
   -1.5880    6.2996    0.3337 H   0  0  0  0  0  0  0  0  0  0  0  0
   -1.2295    5.8153   -1.3344 H   0  0  0  0  0  0  0  0  0  0  0  0
    0.3835    4.9968    0.2849 H   0  0  0  0  0  0  0  0  0  0  0  0
   -0.9370    4.0192    1.1528 H   0  0  0  0  0  0  0  0  0  0  0  0
    0.1755    3.6419   -1.7422 H   0  0  0  0  0  0  0  0  0  0  0  0
   -2.0269    2.1855   -0.2296 H   0  0  0  0  0  0  0  0  0  0  0  0
   -2.0489    2.7702   -1.9990 H   0  0  0  0  0  0  0  0  0  0  0  0
   -0.7935    1.1090   -2.7645 H   0  0  0  0  0  0  0  0  0  0  0  0
    1.2729    1.8077   -2.0935 H   0  0  0  0  0  0  0  0  0  0  0  0
    1.1194    0.3453   -1.0001 H   0  0  0  0  0  0  0  0  0  0  0  0
    3.3498    2.0374    1.6911 H   0  0  0  0  0  0  0  0  0  0  0  0
    2.0036   -0.5576    0.8457 H   0  0  0  0  0  0  0  0  0  0  0  0
    5.2109   -1.5795    0.3758 H   0  0  0  0  0  0  0  0  0  0  0  0
    2.5028   -1.7786   -0.6883 H   0  0  0  0  0  0  0  0  0  0  0  0
    3.1025   -3.1838   -2.2152 H   0  0  0  0  0  0  0  0  0  0  0  0
    3.4670   -4.2140   -0.7363 H   0  0  0  0  0  0  0  0  0  0  0  0
    4.4259   -0.6626   -2.3742 H   0  0  0  0  0  0  0  0  0  0  0  0
    5.8524   -0.0293   -1.4231 H   0  0  0  0  0  0  0  0  0  0  0  0
    7.7834   -1.1762   -2.3012 H   0  0  0  0  0  0  0  0  0  0  0  0
    8.9388   -3.3914   -2.6396 H   0  0  0  0  0  0  0  0  0  0  0  0
    7.7021   -5.4892   -2.3513 H   0  0  0  0  0  0  0  0  0  0  0  0
    5.3048   -5.4535   -1.7242 H   0  0  0  0  0  0  0  0  0  0  0  0
    2.7926    0.4469    3.4168 H   0  0  0  0  0  0  0  0  0  0  0  0
    2.0267    2.0532    3.6598 H   0  0  0  0  0  0  0  0  0  0  0  0
   -0.5345    2.1839    3.4408 H   0  0  0  0  0  0  0  0  0  0  0  0
   -2.6322    0.9490    3.6848 H   0  0  0  0  0  0  0  0  0  0  0  0
   -2.6603   -1.4661    3.5820 H   0  0  0  0  0  0  0  0  0  0  0  0
   -0.5027   -2.6829    3.2210 H   0  0  0  0  0  0  0  0  0  0  0  0
    1.5657   -1.4807    2.9817 H   0  0  0  0  0  0  0  0  0  0  0  0
   -1.0336   -1.1943   -2.9288 H   0  0  0  0  0  0  0  0  0  0  0  0
   -2.5912   -0.2125   -2.7712 H   0  0  0  0  0  0  0  0  0  0  0  0
   -0.7982   -3.2375   -1.6282 H   0  0  0  0  0  0  0  0  0  0  0  0
   -2.0687   -5.2440   -0.7845 H   0  0  0  0  0  0  0  0  0  0  0  0
   -4.4401   -1.0439   -1.7515 H   0  0  0  0  0  0  0  0  0  0  0  0
   -6.4825   -2.0664   -1.1042 H   0  0  0  0  0  0  0  0  0  0  0  0
   -7.7457   -4.0278   -0.2834 H   0  0  0  0  0  0  0  0  0  0  0  0
   -6.6007   -6.0958    0.1984 H   0  0  0  0  0  0  0  0  0  0  0  0
   -4.1243   -6.3229   -0.1141 H   0  0  0  0  0  0  0  0  0  0  0  0
   -2.6768    6.8633    2.4098 H   0  0  0  0  0  0  0  0  0  0  0  0
   -4.1217    7.1902    1.3231 H   0  0  0  0  0  0  0  0  0  0  0  0
  1  2  1  0
  2  3  2  3
  3  4  1  0
  4  5  1  0
  5  6  1  0
  6  7  1  0
  7  8  1  0
  8  9  1  0
  9 10  1  0
 10 11  1  0
 11 12  1  0
 12 13  2  0
 12 14  1  0
 14 15  1  0
 15 16  1  0
 16 17  2  0
 16 18  1  0
 18 19  1  0
 19 20  1  0
 20 21  1  0
 21 22  2  0
 22 23  1  0
 22 24  1  0
 24 25  2  0
 25 26  1  0
 26 27  2  0
 14 28  1  0
 28 29  1  0
 29 30  2  0
 30 31  1  0
 31 32  2  0
 32 33  1  0
 33 34  2  0
  9 35  1  0
 35 36  1  0
 36 37  1  0
 37 38  2  0
 38 39  1  0
 39 40  2  0
 40 41  1  0
 41 42  2  0
 41 43  1  0
 43 44  2  0
 44 45  1  0
 45 46  2  0
  2 47  1  0
 11  7  1  0
 23 18  1  0
 34 29  1  0
 42 37  1  0
 27 21  1  0
 46 40  1  0
  1 48  1  0
  1 49  1  0
  4 50  1  0
  4 51  1  0
  5 52  1  0
  5 53  1  0
  6 54  1  0
  6 55  1  0
  7 56  1  6
  8 57  1  0
  8 58  1  0
  9 59  1  6
 10 60  1  0
 10 61  1  0
 14 62  1  1
 15 63  1  0
 18 64  1  0
 19 65  1  0
 20 66  1  0
 20 67  1  0
 23 68  1  0
 23 69  1  0
 24 70  1  0
 25 71  1  0
 26 72  1  0
 27 73  1  0
 28 74  1  0
 28 75  1  0
 30 76  1  0
 31 77  1  0
 32 78  1  0
 33 79  1  0
 34 80  1  0
 36 81  1  0
 36 82  1  0
 38 83  1  0
 39 84  1  0
 42 85  1  0
 43 86  1  0
 44 87  1  0
 45 88  1  0
 46 89  1  0
 47 90  1  0
 47 91  1  0
M  END
>  <Ligand ID>  (1) 
LIG0002401

>  <Ligand>  (1) 
CHEMBL210008

>  <SMILES>  (1) 
NC(=NCCC[C@@H]1C[C@@H](CN1C(=O)[C@H](NC(=O)C1NCc2c(C1)cccc2)Cc1ccccc1)OCc1ccc2c(c1)cccc2)N

>  <CID>  (1) 
44413831.0

>  <ChEMBL ID>  (1) 
nan

>  <InChiKey>  (1) 
GBTCAHLJDYHAKJ-HXWWAPRJSA-N

>  <InChi>  (1) 
InChI=1S/C38H44N6O3/c39-38(40)41-18-8-15-32-22-33(47-25-27-16-17-28-11-4-5-12-29(28)19-27)24-44(32)37(46)35(20-26-9-2-1-3-10-26)43-36(45)34-21-30-13-6-7-14-31(30)23-42-34/h1-7,9-14,16-17,19,32-35,42H,8,15,18,20-25H2,(H,43,45)(H4,39,40,41)/t32-,33+,34?,35-/m1/s1

>  <IUPAC Name>  (1) 
N-[(2R)-1-[(2R,4S)-2-[3-(diaminomethylideneamino)propyl]-4-(naphthalen-2-ylmethoxy)pyrrolidin-1-yl]-1-oxo-3-phenylpropan-2-yl]-1,2,3,4-tetrahydroisoquinoline-3-carboxamide

$$$$
