
     RDKit          3D

 66 68  0  0  0  0  0  0  0  0999 V2000
   11.7413   -0.5406   -0.1615 O   0  0  0  0  0  0  0  0  0  0  0  0
   10.5251   -0.2106   -0.0458 C   0  0  0  0  0  0  0  0  0  0  0  0
   10.1500    0.7489    0.8889 C   0  0  0  0  0  0  0  0  0  0  0  0
    8.8246    1.1243    1.0316 C   0  0  0  0  0  0  0  0  0  0  0  0
    7.8660    0.5493    0.2476 N   0  0  0  0  0  0  0  0  0  0  0  0
    8.2525   -0.3841   -0.6574 C   0  0  0  0  0  0  0  0  0  0  0  0
    7.3645   -0.9089   -1.3754 O   0  0  0  0  0  0  0  0  0  0  0  0
    9.5449   -0.7438   -0.7899 N   0  0  0  0  0  0  0  0  0  0  0  0
    6.4987    0.9632    0.4228 C   0  0  2  0  0  0  0  0  0  0  0  0
    5.5591    0.0113    0.0778 O   0  0  0  0  0  0  0  0  0  0  0  0
    4.3679    0.7327    0.1404 C   0  0  1  0  0  0  0  0  0  0  0  0
    4.6791    1.9372   -0.7164 C   0  0  2  0  0  0  0  0  0  0  0  0
    6.1496    2.1599   -0.4356 C   0  0  1  0  0  0  0  0  0  0  0  0
    6.3027    3.3040    0.3478 O   0  0  0  0  0  0  0  0  0  0  0  0
    3.8928    3.0254   -0.3622 O   0  0  0  0  0  0  0  0  0  0  0  0
    3.2042   -0.0619   -0.4137 C   0  0  0  0  0  0  0  0  0  0  0  0
    3.1080   -1.2264    0.3802 O   0  0  0  0  0  0  0  0  0  0  0  0
    1.8321   -2.2014   -0.1473 P   0  0  0  0  0  0  0  0  0  0  0  0
    2.3036   -3.2188   -1.1613 O   0  0  0  0  0  0  0  0  0  0  0  0
    1.2481   -3.0596    1.1876 O   0  0  0  0  0  0  0  0  0  0  0  0
   -0.4129   -2.8087    1.3766 P   0  0  0  0  0  0  0  0  0  0  0  0
   -0.8516   -3.0084    2.8001 O   0  0  0  0  0  0  0  0  0  0  0  0
   -0.8015   -1.2092    0.9437 O   0  0  0  0  0  0  0  0  0  0  0  0
   -2.4559   -1.0003    0.7895 P   0  0  0  0  0  0  0  0  0  0  0  0
   -2.9252   -0.1808    1.9778 O   0  0  0  0  0  0  0  0  0  0  0  0
   -3.3039   -2.4614    0.8259 O   0  0  0  0  0  0  0  0  0  0  0  0
   -4.8244   -2.2995    0.0828 P   0  0  0  0  0  0  0  0  0  0  0  0
   -4.7241   -2.4823   -1.4088 O   0  0  0  0  0  0  0  0  0  0  0  0
   -5.5464   -0.8445    0.5202 O   0  0  0  0  0  0  0  0  0  0  0  0
   -6.2343   -0.2418   -0.5349 C   0  0  0  0  0  0  0  0  0  0  0  0
   -6.8166    1.0388    0.0192 C   0  0  2  0  0  0  0  0  0  0  0  0
   -7.6686    0.6970    1.0675 O   0  0  0  0  0  0  0  0  0  0  0  0
   -8.8903    0.3577    0.5434 C   0  0  0  0  0  0  0  0  0  0  0  0
   -8.9944    0.9168   -0.8535 C   0  0  2  0  0  0  0  0  0  0  0  0
   -7.7264    1.7411   -0.9346 C   0  0  1  0  0  0  0  0  0  0  0  0
   -8.0213    2.9899   -0.3676 O   0  0  0  0  0  0  0  0  0  0  0  0
  -10.1199    1.7271   -1.0285 O   0  0  0  0  0  0  0  0  0  0  0  0
   -9.1679   -0.9923    0.5095 O   0  0  0  0  0  0  0  0  0  0  0  0
   -5.7829   -3.5543    0.7020 O   0  0  0  0  0  0  0  0  0  0  0  0
   -2.8638   -0.1371   -0.6044 O   0  0  0  0  0  0  0  0  0  0  0  0
   -1.2821   -3.8767    0.3958 O   0  0  0  0  0  0  0  0  0  0  0  0
    0.5767   -1.2912   -0.7986 O   0  0  0  0  0  0  0  0  0  0  0  0
   10.9503    1.1820    1.4941 H   0  0  0  0  0  0  0  0  0  0  0  0
    8.5927    1.8724    1.7718 H   0  0  0  0  0  0  0  0  0  0  0  0
    9.8177   -1.4646   -1.4937 H   0  0  0  0  0  0  0  0  0  0  0  0
    6.3145    1.2022    1.4989 H   0  0  0  0  0  0  0  0  0  0  0  0
    4.2248    1.0156    1.1817 H   0  0  0  0  0  0  0  0  0  0  0  0
    4.5299    1.6888   -1.7880 H   0  0  0  0  0  0  0  0  0  0  0  0
    6.7335    2.2263   -1.3631 H   0  0  0  0  0  0  0  0  0  0  0  0
    6.1055    4.1314   -0.1676 H   0  0  0  0  0  0  0  0  0  0  0  0
    2.9807    2.6783   -0.1964 H   0  0  0  0  0  0  0  0  0  0  0  0
    2.2850    0.5346   -0.2873 H   0  0  0  0  0  0  0  0  0  0  0  0
    3.3919   -0.4110   -1.4396 H   0  0  0  0  0  0  0  0  0  0  0  0
   -5.5221    0.0083   -1.3359 H   0  0  0  0  0  0  0  0  0  0  0  0
   -7.0437   -0.9170   -0.8157 H   0  0  0  0  0  0  0  0  0  0  0  0
   -6.0448    1.7513    0.3419 H   0  0  0  0  0  0  0  0  0  0  0  0
   -9.6966    0.8708    1.1423 H   0  0  0  0  0  0  0  0  0  0  0  0
   -8.9078    0.1326   -1.6349 H   0  0  0  0  0  0  0  0  0  0  0  0
   -7.3423    1.8299   -1.9676 H   0  0  0  0  0  0  0  0  0  0  0  0
   -7.2351    3.5861   -0.3532 H   0  0  0  0  0  0  0  0  0  0  0  0
   -9.9122    2.6985   -0.9076 H   0  0  0  0  0  0  0  0  0  0  0  0
  -10.1615   -1.0670    0.3523 H   0  0  0  0  0  0  0  0  0  0  0  0
   -5.3237   -4.4111    0.7284 H   0  0  0  0  0  0  0  0  0  0  0  0
   -2.6585    0.8287   -0.5280 H   0  0  0  0  0  0  0  0  0  0  0  0
   -1.1701   -3.6598   -0.5762 H   0  0  0  0  0  0  0  0  0  0  0  0
    0.5147   -1.3875   -1.7843 H   0  0  0  0  0  0  0  0  0  0  0  0
  1  2  2  0
  2  3  1  0
  3  4  2  0
  4  5  1  0
  5  6  1  0
  6  7  2  0
  6  8  1  0
  5  9  1  0
  9 10  1  0
 10 11  1  0
 11 12  1  0
 12 13  1  0
 13 14  1  0
 12 15  1  0
 11 16  1  0
 16 17  1  0
 17 18  1  0
 18 19  2  0
 18 20  1  0
 20 21  1  0
 21 22  2  0
 21 23  1  0
 23 24  1  0
 24 25  2  0
 24 26  1  0
 26 27  1  0
 27 28  2  0
 27 29  1  0
 29 30  1  0
 30 31  1  0
 31 32  1  0
 32 33  1  0
 33 34  1  0
 34 35  1  0
 35 36  1  0
 34 37  1  0
 33 38  1  0
 27 39  1  0
 24 40  1  0
 21 41  1  0
 18 42  1  0
  8  2  1  0
 13  9  1  0
 35 31  1  0
  3 43  1  0
  4 44  1  0
  8 45  1  0
  9 46  1  1
 11 47  1  1
 12 48  1  6
 13 49  1  6
 14 50  1  0
 15 51  1  0
 16 52  1  0
 16 53  1  0
 30 54  1  0
 30 55  1  0
 31 56  1  1
 33 57  1  0
 34 58  1  6
 35 59  1  6
 36 60  1  0
 37 61  1  0
 38 62  1  0
 39 63  1  0
 40 64  1  0
 41 65  1  0
 42 66  1  0
M  END
>  <Ligand ID>  (1) 
LIG0002829

>  <Ligand>  (1) 
CHEMBL448985

>  <SMILES>  (1) 
O=c1ccn(c(=O)[nH]1)[C@@H]1O[C@@H]([C@H]([C@H]1O)O)COP(=O)(OP(=O)(OP(=O)(OP(=O)(OC[C@@H]1OC([C@H]([C@H]1O)O)O)O)O)O)O

>  <CID>  (1) 
44585516.0

>  <ChEMBL ID>  (1) 
nan

>  <InChiKey>  (1) 
HPDQGYIGIVCECG-IGZWYBIHSA-N

>  <InChi>  (1) 
InChI=1S/C14H24N2O22P4/c17-7-1-2-16(14(23)15-7)12-10(20)8(18)5(34-12)3-32-39(24,25)36-41(28,29)38-42(30,31)37-40(26,27)33-4-6-9(19)11(21)13(22)35-6/h1-2,5-6,8-13,18-22H,3-4H2,(H,24,25)(H,26,27)(H,28,29)(H,30,31)(H,15,17,23)/t5-,6+,8-,9+,10-,11+,12-,13?/m1/s1

>  <IUPAC Name>  (1) 
[[(2R,3S,4R,5R)-5-(2,4-dioxopyrimidin-1-yl)-3,4-dihydroxyoxolan-2-yl]methoxy-hydroxyphosphoryl] [hydroxy-[hydroxy-[[(2S,3R,4S)-3,4,5-trihydroxyoxolan-2-yl]methoxy]phosphoryl]oxyphosphoryl] hydrogen phosphate

$$$$
