
     RDKit          3D

 36 37  0  0  0  0  0  0  0  0999 V2000
   -5.6718    0.3692   -2.8113 O   0  0  0  0  0  0  0  0  0  0  0  0
   -4.9945    0.3002   -1.5854 C   0  0  0  0  0  0  0  0  0  0  0  0
   -4.4123    1.3400   -1.2216 O   0  0  0  0  0  0  0  0  0  0  0  0
   -5.0459   -0.9808   -0.8708 C   0  0  0  0  0  0  0  0  0  0  0  0
   -4.3083   -1.0277    0.4093 C   0  0  0  0  0  0  0  0  0  0  0  0
   -2.8621   -0.7815    0.3625 C   0  0  0  0  0  0  0  0  0  0  0  0
   -2.2349    0.4089    0.5979 C   0  0  0  0  0  0  0  0  0  0  0  0
   -0.8450    0.5491    0.5093 C   0  0  0  0  0  0  0  0  0  0  0  0
   -0.0479   -0.5274    0.1766 C   0  0  0  0  0  0  0  0  0  0  0  0
   -0.6799   -1.7288   -0.0603 C   0  0  0  0  0  0  0  0  0  0  0  0
   -2.0495   -1.8711    0.0256 C   0  0  0  0  0  0  0  0  0  0  0  0
    1.3645   -0.3983    0.0838 N   0  0  0  0  0  0  0  0  0  0  0  0
    1.9914    0.8681    0.3379 C   0  0  0  0  0  0  0  0  0  0  0  0
    3.4660    0.8318    0.2016 C   0  0  0  0  0  0  0  0  0  0  0  0
    4.0526    1.0988   -1.0284 C   0  0  0  0  0  0  0  0  0  0  0  0
    5.4314    1.0557   -1.1177 C   0  0  0  0  0  0  0  0  0  0  0  0
    6.2409    0.7627   -0.0521 C   0  0  0  0  0  0  0  0  0  0  0  0
    5.6389    0.5003    1.1618 C   0  0  0  0  0  0  0  0  0  0  0  0
    4.2636    0.5344    1.2884 C   0  0  0  0  0  0  0  0  0  0  0  0
    6.7762    0.0948    2.6352 Br  0  0  0  0  0  0  0  0  0  0  0  0
   -5.9364    1.2442   -3.2531 H   0  0  0  0  0  0  0  0  0  0  0  0
   -4.8086   -1.8415   -1.5429 H   0  0  0  0  0  0  0  0  0  0  0  0
   -6.1422   -1.1393   -0.6277 H   0  0  0  0  0  0  0  0  0  0  0  0
   -4.4464   -2.0334    0.8811 H   0  0  0  0  0  0  0  0  0  0  0  0
   -4.7509   -0.2945    1.1217 H   0  0  0  0  0  0  0  0  0  0  0  0
   -2.7784    1.2723    0.8721 H   0  0  0  0  0  0  0  0  0  0  0  0
   -0.3682    1.5005    0.6990 H   0  0  0  0  0  0  0  0  0  0  0  0
   -0.0792   -2.5954   -0.3242 H   0  0  0  0  0  0  0  0  0  0  0  0
   -2.4898   -2.8342   -0.1702 H   0  0  0  0  0  0  0  0  0  0  0  0
    1.9441   -1.2111   -0.1657 H   0  0  0  0  0  0  0  0  0  0  0  0
    1.7469    1.2414    1.3472 H   0  0  0  0  0  0  0  0  0  0  0  0
    1.5948    1.6418   -0.3633 H   0  0  0  0  0  0  0  0  0  0  0  0
    3.4159    1.3276   -1.8598 H   0  0  0  0  0  0  0  0  0  0  0  0
    5.9054    1.2596   -2.0624 H   0  0  0  0  0  0  0  0  0  0  0  0
    7.3161    0.7386   -0.1614 H   0  0  0  0  0  0  0  0  0  0  0  0
    3.8036    0.3254    2.2516 H   0  0  0  0  0  0  0  0  0  0  0  0
  1  2  1  0
  2  3  2  0
  2  4  1  0
  4  5  1  0
  5  6  1  0
  6  7  2  0
  7  8  1  0
  8  9  2  0
  9 10  1  0
 10 11  2  0
  9 12  1  0
 12 13  1  0
 13 14  1  0
 14 15  2  0
 15 16  1  0
 16 17  2  0
 17 18  1  0
 18 19  2  0
 18 20  1  0
 11  6  1  0
 19 14  1  0
  1 21  1  0
  4 22  1  0
  4 23  1  0
  5 24  1  0
  5 25  1  0
  7 26  1  0
  8 27  1  0
 10 28  1  0
 11 29  1  0
 12 30  1  0
 13 31  1  0
 13 32  1  0
 15 33  1  0
 16 34  1  0
 17 35  1  0
 19 36  1  0
M  END
>  <Ligand ID>  (1) 
LIG0005797

>  <Ligand>  (1) 
carboxylic acid agonist, 27

>  <SMILES>  (1) 
OC(=O)CCc1ccc(cc1)NCc1cccc(c1)Br

>  <CID>  (1) 
24825492.0

>  <ChEMBL ID>  (1) 
nan

>  <InChiKey>  (1) 
DYTMZTWHJZNJMP-UHFFFAOYSA-N

>  <InChi>  (1) 
InChI=1S/C16H16BrNO2/c17-14-3-1-2-13(10-14)11-18-15-7-4-12(5-8-15)6-9-16(19)20/h1-5,7-8,10,18H,6,9,11H2,(H,19,20)

>  <IUPAC Name>  (1) 
3-[4-[(3-bromophenyl)methylamino]phenyl]propanoic acid

$$$$
