
     RDKit          3D

 64 66  0  0  0  0  0  0  0  0999 V2000
   -8.5453   -0.7006   -0.3621 O   0  0  0  0  0  0  0  0  0  0  0  0
   -8.2543   -0.4027   -1.7061 C   0  0  0  0  0  0  0  0  0  0  0  0
   -9.0914   -0.8264   -2.5434 O   0  0  0  0  0  0  0  0  0  0  0  0
   -7.0417    0.3588   -2.0989 C   0  0  0  0  0  0  0  0  0  0  0  0
   -6.2198    0.7379   -0.8592 C   0  0  0  0  0  0  0  0  0  0  0  0
   -4.9897    1.5140   -1.2947 C   0  0  0  0  0  0  0  0  0  0  0  0
   -4.1908    1.8987   -0.0909 C   0  0  0  0  0  0  0  0  0  0  0  0
   -3.7514    0.6719    0.6675 C   0  0  2  0  0  0  0  0  0  0  0  0
   -2.9367    1.0826    1.8926 C   0  0  0  0  0  0  0  0  0  0  0  0
   -1.4674    1.2175    1.5505 C   0  0  0  0  0  0  0  0  0  0  0  0
   -0.7665   -0.1125    1.5896 C   0  0  1  0  0  0  0  0  0  0  0  0
   -1.6941   -1.2747    1.4273 C   0  0  1  0  0  0  0  0  0  0  0  0
   -2.4253   -1.3351    0.2906 O   0  0  0  0  0  0  0  0  0  0  0  0
   -2.9707   -0.2163   -0.2449 C   0  0  0  0  0  0  0  0  0  0  0  0
   -0.6265   -2.3737    1.2402 C   0  0  0  0  0  0  0  0  0  0  0  0
    0.1183   -1.7655    0.0638 C   0  0  2  0  0  0  0  0  0  0  0  0
    0.2465   -0.3038    0.5159 C   0  0  2  0  0  0  0  0  0  0  0  0
    1.6498   -0.1892    1.0227 C   0  0  0  0  0  0  0  0  0  0  0  0
    2.5077    0.7188    0.5737 C   0  0  0  0  0  0  0  0  0  0  0  0
    3.8752    0.7200    1.1672 C   0  0  2  0  0  0  0  0  0  0  0  0
    4.9329    0.5076    0.0967 C   0  0  0  0  0  0  0  0  0  0  0  0
    6.2317    0.5975    0.6411 O   0  0  0  0  0  0  0  0  0  0  0  0
    7.3113    0.4263   -0.2162 C   0  0  0  0  0  0  0  0  0  0  0  0
    7.1642    0.1752   -1.5700 C   0  0  0  0  0  0  0  0  0  0  0  0
    8.3069    0.0218   -2.3272 C   0  0  0  0  0  0  0  0  0  0  0  0
    9.5779    0.1159   -1.7516 C   0  0  0  0  0  0  0  0  0  0  0  0
    9.7260    0.3671   -0.3980 C   0  0  0  0  0  0  0  0  0  0  0  0
    8.5701    0.5205    0.3585 C   0  0  0  0  0  0  0  0  0  0  0  0
    4.0179   -0.2423    2.1457 O   0  0  0  0  0  0  0  0  0  0  0  0
   -0.6659   -1.8377   -1.0757 O   0  0  0  0  0  0  0  0  0  0  0  0
   -9.0394   -1.5556   -0.1310 H   0  0  0  0  0  0  0  0  0  0  0  0
   -7.3984    1.2655   -2.6194 H   0  0  0  0  0  0  0  0  0  0  0  0
   -6.3958   -0.2196   -2.7735 H   0  0  0  0  0  0  0  0  0  0  0  0
   -6.8728    1.3469   -0.2041 H   0  0  0  0  0  0  0  0  0  0  0  0
   -5.9794   -0.1965   -0.3211 H   0  0  0  0  0  0  0  0  0  0  0  0
   -4.3674    0.9554   -2.0193 H   0  0  0  0  0  0  0  0  0  0  0  0
   -5.3051    2.4308   -1.8676 H   0  0  0  0  0  0  0  0  0  0  0  0
   -4.7666    2.5995    0.5581 H   0  0  0  0  0  0  0  0  0  0  0  0
   -3.2897    2.4569   -0.4874 H   0  0  0  0  0  0  0  0  0  0  0  0
   -4.6038    0.0924    1.0723 H   0  0  0  0  0  0  0  0  0  0  0  0
   -3.0172    0.3577    2.7208 H   0  0  0  0  0  0  0  0  0  0  0  0
   -3.2942    2.0576    2.2369 H   0  0  0  0  0  0  0  0  0  0  0  0
   -1.2718    1.7019    0.5856 H   0  0  0  0  0  0  0  0  0  0  0  0
   -1.0172    1.8597    2.3362 H   0  0  0  0  0  0  0  0  0  0  0  0
   -0.2736   -0.2505    2.5854 H   0  0  0  0  0  0  0  0  0  0  0  0
   -2.2624   -1.4960    2.3578 H   0  0  0  0  0  0  0  0  0  0  0  0
   -2.2727    0.3725   -0.9123 H   0  0  0  0  0  0  0  0  0  0  0  0
   -3.7337   -0.5979   -0.9998 H   0  0  0  0  0  0  0  0  0  0  0  0
    0.0358   -2.4096    2.1302 H   0  0  0  0  0  0  0  0  0  0  0  0
   -1.1239   -3.3220    1.0138 H   0  0  0  0  0  0  0  0  0  0  0  0
    1.1035   -2.2456   -0.0919 H   0  0  0  0  0  0  0  0  0  0  0  0
    0.0347    0.4061   -0.3021 H   0  0  0  0  0  0  0  0  0  0  0  0
    1.9325   -0.9025    1.7909 H   0  0  0  0  0  0  0  0  0  0  0  0
    2.2095    1.4220   -0.1923 H   0  0  0  0  0  0  0  0  0  0  0  0
    4.0522    1.7146    1.6059 H   0  0  0  0  0  0  0  0  0  0  0  0
    4.8178   -0.5646   -0.2204 H   0  0  0  0  0  0  0  0  0  0  0  0
    4.7636    1.1034   -0.8025 H   0  0  0  0  0  0  0  0  0  0  0  0
    6.1591    0.1085   -1.9857 H   0  0  0  0  0  0  0  0  0  0  0  0
    8.1831   -0.1755   -3.3919 H   0  0  0  0  0  0  0  0  0  0  0  0
   10.4666   -0.0040   -2.3416 H   0  0  0  0  0  0  0  0  0  0  0  0
   10.7100    0.4418    0.0582 H   0  0  0  0  0  0  0  0  0  0  0  0
    8.6872    0.7185    1.4263 H   0  0  0  0  0  0  0  0  0  0  0  0
    4.9756   -0.5299    2.1603 H   0  0  0  0  0  0  0  0  0  0  0  0
   -0.4451   -1.0960   -1.6794 H   0  0  0  0  0  0  0  0  0  0  0  0
  1  2  1  0
  2  3  2  0
  2  4  1  0
  4  5  1  0
  5  6  1  0
  6  7  1  0
  7  8  1  0
  8  9  1  0
  9 10  1  0
 10 11  1  0
 11 12  1  0
 12 13  1  0
 13 14  1  0
 12 15  1  0
 15 16  1  0
 16 17  1  0
 17 18  1  0
 18 19  2  0
 19 20  1  0
 20 21  1  0
 21 22  1  0
 22 23  1  0
 23 24  2  0
 24 25  1  0
 25 26  2  0
 26 27  1  0
 27 28  2  0
 20 29  1  0
 16 30  1  0
 14  8  1  0
 28 23  1  0
 17 11  1  0
  1 31  1  0
  4 32  1  0
  4 33  1  0
  5 34  1  0
  5 35  1  0
  6 36  1  0
  6 37  1  0
  7 38  1  0
  7 39  1  0
  8 40  1  1
  9 41  1  0
  9 42  1  0
 10 43  1  0
 10 44  1  0
 11 45  1  1
 12 46  1  1
 14 47  1  0
 14 48  1  0
 15 49  1  0
 15 50  1  0
 16 51  1  6
 17 52  1  6
 18 53  1  0
 19 54  1  0
 20 55  1  1
 21 56  1  0
 21 57  1  0
 24 58  1  0
 25 59  1  0
 26 60  1  0
 27 61  1  0
 28 62  1  0
 29 63  1  0
 30 64  1  0
M  END
>  <Ligand ID>  (1) 
LIG0002906

>  <Ligand>  (1) 
CHEMBL3976382

>  <SMILES>  (1) 
OC(=O)CCCC[C@@H]1CC[C@H]2[C@@H](OC1)C[C@H]([C@@H]2/C=C/[C@H](COc1ccccc1)O)O

>  <CID>  (1) 
134151657.0

>  <ChEMBL ID>  (1) 
nan

>  <InChiKey>  (1) 
WKCPDJLEFVEHBW-UKMWNDONSA-N

>  <InChi>  (1) 
InChI=1S/C24H34O6/c25-18(16-29-19-7-2-1-3-8-19)11-13-20-21-12-10-17(6-4-5-9-24(27)28)15-30-23(21)14-22(20)26/h1-3,7-8,11,13,17-18,20-23,25-26H,4-6,9-10,12,14-16H2,(H,27,28)/b13-11+/t17-,18-,20-,21-,22-,23+/m1/s1

>  <IUPAC Name>  (1) 
5-[(3R,5aR,6R,7R,8aS)-7-hydroxy-6-[(E,3R)-3-hydroxy-4-phenoxybut-1-enyl]-3,4,5,5a,6,7,8,8a-octahydro-2H-cyclopenta[b]oxepin-3-yl]pentanoic acid

$$$$
