
     RDKit          3D

 68 71  0  0  0  0  0  0  0  0999 V2000
   -8.7903    1.2616    1.9107 O   0  0  0  0  0  0  0  0  0  0  0  0
   -9.0510    1.0886    0.6861 C   0  0  0  0  0  0  0  0  0  0  0  0
   -8.1552    0.3081   -0.1324 N   0  0  0  0  0  0  0  0  0  0  0  0
   -7.0131   -0.2182    0.5394 C   0  0  0  0  0  0  0  0  0  0  0  0
   -5.8248    0.5157    0.5960 C   0  0  0  0  0  0  0  0  0  0  0  0
   -4.6995    0.0553    1.2316 C   0  0  0  0  0  0  0  0  0  0  0  0
   -4.7960   -1.2026    1.8311 C   0  0  0  0  0  0  0  0  0  0  0  0
   -5.9567   -1.9352    1.7835 C   0  0  0  0  0  0  0  0  0  0  0  0
   -7.0825   -1.4702    1.1452 C   0  0  0  0  0  0  0  0  0  0  0  0
   -8.2554   -2.2093    1.0968 O   0  0  0  0  0  0  0  0  0  0  0  0
   -3.4160    0.7450    1.3276 C   0  0  2  0  0  0  0  0  0  0  0  0
   -3.2159    1.8688    0.3357 C   0  0  0  0  0  0  0  0  0  0  0  0
   -3.1651    1.3229   -0.9774 N   0  0  0  0  0  0  0  0  0  0  0  0
   -2.9766    2.2375   -2.0482 C   0  0  0  0  0  0  0  0  0  0  0  0
   -1.6094    2.8826   -2.0791 C   0  0  0  0  0  0  0  0  0  0  0  0
   -0.5359    1.8676   -2.2225 C   0  0  0  0  0  0  0  0  0  0  0  0
   -0.0936    1.4617   -3.4658 C   0  0  0  0  0  0  0  0  0  0  0  0
    0.9048    0.5220   -3.6148 C   0  0  0  0  0  0  0  0  0  0  0  0
    1.5268   -0.0740   -2.5121 C   0  0  0  0  0  0  0  0  0  0  0  0
    1.0781    0.3373   -1.2681 C   0  0  0  0  0  0  0  0  0  0  0  0
    0.0768    1.2800   -1.1164 C   0  0  0  0  0  0  0  0  0  0  0  0
    2.5338   -1.0476   -2.7018 N   0  0  0  0  0  0  0  0  0  0  0  0
    3.5415   -1.4018   -1.8047 C   0  0  0  0  0  0  0  0  0  0  0  0
    4.0839   -2.6925   -1.8716 C   0  0  0  0  0  0  0  0  0  0  0  0
    5.0983   -3.0956   -1.0224 C   0  0  0  0  0  0  0  0  0  0  0  0
    5.6320   -2.2583   -0.0680 C   0  0  0  0  0  0  0  0  0  0  0  0
    5.0996   -0.9680    0.0086 C   0  0  0  0  0  0  0  0  0  0  0  0
    4.0868   -0.5811   -0.8467 C   0  0  0  0  0  0  0  0  0  0  0  0
    5.6252   -0.0196    1.0067 C   0  0  0  0  0  0  0  0  0  0  0  0
    6.9986    0.0839    1.1813 C   0  0  0  0  0  0  0  0  0  0  0  0
    7.4838    0.9763    2.1212 C   0  0  0  0  0  0  0  0  0  0  0  0
    6.6326    1.7638    2.8870 C   0  0  0  0  0  0  0  0  0  0  0  0
    5.2489    1.6603    2.7121 C   0  0  0  0  0  0  0  0  0  0  0  0
    4.7580    0.7665    1.7707 C   0  0  0  0  0  0  0  0  0  0  0  0
    6.6328   -2.5830    0.8049 O   0  0  0  0  0  0  0  0  0  0  0  0
    7.2246   -3.8656    0.7958 C   0  0  0  0  0  0  0  0  0  0  0  0
   -2.3784   -0.1907    1.2269 O   0  0  0  0  0  0  0  0  0  0  0  0
   -9.9511    1.5250    0.2388 H   0  0  0  0  0  0  0  0  0  0  0  0
   -8.3567    0.1567   -1.1425 H   0  0  0  0  0  0  0  0  0  0  0  0
   -5.8236    1.4657    0.1272 H   0  0  0  0  0  0  0  0  0  0  0  0
   -3.9480   -1.6208    2.3473 H   0  0  0  0  0  0  0  0  0  0  0  0
   -6.0421   -2.9202    2.2489 H   0  0  0  0  0  0  0  0  0  0  0  0
   -8.6898   -2.4024    0.2040 H   0  0  0  0  0  0  0  0  0  0  0  0
   -3.3488    1.1261    2.3905 H   0  0  0  0  0  0  0  0  0  0  0  0
   -4.1220    2.5305    0.3977 H   0  0  0  0  0  0  0  0  0  0  0  0
   -2.3072    2.4033    0.6627 H   0  0  0  0  0  0  0  0  0  0  0  0
   -3.9915    0.7314   -1.1550 H   0  0  0  0  0  0  0  0  0  0  0  0
   -3.7314    3.0622   -1.9916 H   0  0  0  0  0  0  0  0  0  0  0  0
   -3.1259    1.7198   -3.0004 H   0  0  0  0  0  0  0  0  0  0  0  0
   -1.6151    3.5796   -2.9502 H   0  0  0  0  0  0  0  0  0  0  0  0
   -1.4574    3.5517   -1.1869 H   0  0  0  0  0  0  0  0  0  0  0  0
   -0.5497    1.8991   -4.3410 H   0  0  0  0  0  0  0  0  0  0  0  0
    1.2106    0.2421   -4.6047 H   0  0  0  0  0  0  0  0  0  0  0  0
    1.4928   -0.0786   -0.3686 H   0  0  0  0  0  0  0  0  0  0  0  0
   -0.2305    1.5624   -0.1418 H   0  0  0  0  0  0  0  0  0  0  0  0
    2.5085   -1.5593   -3.6361 H   0  0  0  0  0  0  0  0  0  0  0  0
    3.7215   -3.4117   -2.5918 H   0  0  0  0  0  0  0  0  0  0  0  0
    5.4992   -4.1071   -1.0974 H   0  0  0  0  0  0  0  0  0  0  0  0
    3.7349    0.4321   -0.7381 H   0  0  0  0  0  0  0  0  0  0  0  0
    7.7066   -0.4982    0.6186 H   0  0  0  0  0  0  0  0  0  0  0  0
    8.5670    1.0467    2.2440 H   0  0  0  0  0  0  0  0  0  0  0  0
    7.0465    2.4548    3.6172 H   0  0  0  0  0  0  0  0  0  0  0  0
    4.5566    2.2639    3.2984 H   0  0  0  0  0  0  0  0  0  0  0  0
    3.6824    0.6945    1.6449 H   0  0  0  0  0  0  0  0  0  0  0  0
    7.3221   -4.2949   -0.2164 H   0  0  0  0  0  0  0  0  0  0  0  0
    8.2823   -3.7505    1.1575 H   0  0  0  0  0  0  0  0  0  0  0  0
    6.6721   -4.5886    1.4308 H   0  0  0  0  0  0  0  0  0  0  0  0
   -1.9634   -0.4075    2.0778 H   0  0  0  0  0  0  0  0  0  0  0  0
  1  2  2  0
  2  3  1  0
  3  4  1  0
  4  5  2  0
  5  6  1  0
  6  7  2  0
  7  8  1  0
  8  9  2  0
  9 10  1  0
  6 11  1  0
 11 12  1  0
 12 13  1  0
 13 14  1  0
 14 15  1  0
 15 16  1  0
 16 17  2  0
 17 18  1  0
 18 19  2  0
 19 20  1  0
 20 21  2  0
 19 22  1  0
 22 23  1  0
 23 24  2  0
 24 25  1  0
 25 26  2  0
 26 27  1  0
 27 28  2  0
 27 29  1  0
 29 30  2  0
 30 31  1  0
 31 32  2  0
 32 33  1  0
 33 34  2  0
 26 35  1  0
 35 36  1  0
 11 37  1  0
  9  4  1  0
 21 16  1  0
 28 23  1  0
 34 29  1  0
  2 38  1  0
  3 39  1  0
  5 40  1  0
  7 41  1  0
  8 42  1  0
 10 43  1  0
 11 44  1  1
 12 45  1  0
 12 46  1  0
 13 47  1  0
 14 48  1  0
 14 49  1  0
 15 50  1  0
 15 51  1  0
 17 52  1  0
 18 53  1  0
 20 54  1  0
 21 55  1  0
 22 56  1  0
 24 57  1  0
 25 58  1  0
 28 59  1  0
 30 60  1  0
 31 61  1  0
 32 62  1  0
 33 63  1  0
 34 64  1  0
 36 65  1  0
 36 66  1  0
 36 67  1  0
 37 68  1  0
M  END
>  <Ligand ID>  (1) 
LIG0001994

>  <Ligand>  (1) 
CHEMBL3290998

>  <SMILES>  (1) 
O=CNc1cc(ccc1O)[C@H](CNCCc1ccc(cc1)Nc1ccc(c(c1)c1ccccc1)OC)O

>  <CID>  (1) 
10217757.0

>  <ChEMBL ID>  (1) 
nan

>  <InChiKey>  (1) 
PZCSJBQJENRLHD-LJAQVGFWSA-N

>  <InChi>  (1) 
InChI=1S/C30H31N3O4/c1-37-30-14-12-25(18-26(30)22-5-3-2-4-6-22)33-24-10-7-21(8-11-24)15-16-31-19-29(36)23-9-13-28(35)27(17-23)32-20-34/h2-14,17-18,20,29,31,33,35-36H,15-16,19H2,1H3,(H,32,34)/t29-/m0/s1

>  <IUPAC Name>  (1) 
N-[2-hydroxy-5-[(1R)-1-hydroxy-2-[2-[4-(4-methoxy-3-phenylanilino)phenyl]ethylamino]ethyl]phenyl]formamide

$$$$
