
     RDKit          3D

143147  0  0  0  0  0  0  0  0999 V2000
   -0.3410   -8.3549    0.1853 N   0  0  0  0  0  0  0  0  0  0  0  0
   -0.2087   -7.8466    1.5290 C   0  0  0  0  0  0  0  0  0  0  0  0
    0.8831   -6.8030    1.5185 C   0  0  0  0  0  0  0  0  0  0  0  0
    0.5116   -5.6811    0.5750 C   0  0  0  0  0  0  0  0  0  0  0  0
    1.6285   -4.6695    0.5892 C   0  0  0  0  0  0  0  0  0  0  0  0
    1.3819   -3.5138   -0.3208 C   0  0  2  0  0  0  0  0  0  0  0  0
    2.5401   -2.5711   -0.2506 N   0  0  0  0  0  0  0  0  0  0  0  0
    3.3206   -2.4358   -1.4189 C   0  0  0  0  0  0  0  0  0  0  0  0
    3.0577   -3.2358   -2.3409 O   0  0  0  0  0  0  0  0  0  0  0  0
    4.4086   -1.4638   -1.6623 C   0  0  1  0  0  0  0  0  0  0  0  0
    4.5263   -0.5024   -0.6157 N   0  0  0  0  0  0  0  0  0  0  0  0
    3.6578    0.5978   -0.5098 C   0  0  0  0  0  0  0  0  0  0  0  0
    2.6536    0.4785   -1.3220 O   0  0  0  0  0  0  0  0  0  0  0  0
    3.6411    1.7950    0.3057 C   0  0  2  0  0  0  0  0  0  0  0  0
    4.3882    1.9518    1.5442 C   0  0  0  0  0  0  0  0  0  0  0  0
    5.8813    1.9060    1.5451 C   0  0  0  0  0  0  0  0  0  0  0  0
    6.4790    3.0294    0.6773 C   0  0  0  0  0  0  0  0  0  0  0  0
    7.9192    2.9651    0.7047 N   0  0  0  0  0  0  0  0  0  0  0  0
    8.5711    3.5656    1.6225 C   0  0  0  0  0  0  0  0  0  0  0  0
    8.0144    4.3273    2.6716 N   0  0  0  0  0  0  0  0  0  0  0  0
    9.9966    3.4595    1.5863 N   0  0  0  0  0  0  0  0  0  0  0  0
    2.2908    2.3806    0.3903 N   0  0  0  0  0  0  0  0  0  0  0  0
    1.5560    2.9451   -0.6657 C   0  0  0  0  0  0  0  0  0  0  0  0
    2.0532    2.9198   -1.7888 O   0  0  0  0  0  0  0  0  0  0  0  0
    0.2004    3.5291   -0.3492 C   0  0  1  0  0  0  0  0  0  0  0  0
    0.4587    5.0182   -0.1104 C   0  0  0  0  0  0  0  0  0  0  0  0
   -0.8136    5.6790    0.2004 C   0  0  0  0  0  0  0  0  0  0  0  0
   -1.2689    5.7858    1.4935 C   0  0  0  0  0  0  0  0  0  0  0  0
   -2.4506    6.3899    1.8509 C   0  0  0  0  0  0  0  0  0  0  0  0
   -3.2128    6.9177    0.8157 C   0  0  0  0  0  0  0  0  0  0  0  0
   -2.7778    6.8244   -0.4966 C   0  0  0  0  0  0  0  0  0  0  0  0
   -1.5828    6.2093   -0.8216 C   0  0  0  0  0  0  0  0  0  0  0  0
   -0.6215    3.4592   -1.5859 N   0  0  0  0  0  0  0  0  0  0  0  0
   -1.7613    2.6897   -1.5320 C   0  0  0  0  0  0  0  0  0  0  0  0
   -1.9747    2.2289   -0.3099 O   0  0  0  0  0  0  0  0  0  0  0  0
   -2.8248    2.2269   -2.4323 C   0  0  1  0  0  0  0  0  0  0  0  0
   -3.8175    1.4762   -1.6116 N   0  0  0  0  0  0  0  0  0  0  0  0
   -3.3638    0.2282   -1.1130 C   0  0  0  0  0  0  0  0  0  0  0  0
   -2.2067   -0.0843   -1.4690 O   0  0  0  0  0  0  0  0  0  0  0  0
   -4.1086   -0.6936   -0.2349 C   0  0  2  0  0  0  0  0  0  0  0  0
   -3.5805   -2.1136   -0.4368 C   0  0  0  0  0  0  0  0  0  0  0  0
   -2.1431   -2.0877    0.0065 C   0  0  0  0  0  0  0  0  0  0  0  0
   -1.8287   -1.0616    0.7090 O   0  0  0  0  0  0  0  0  0  0  0  0
   -1.1766   -3.0794   -0.3088 N   0  0  0  0  0  0  0  0  0  0  0  0
    0.1688   -2.7202    0.0046 C   0  0  0  0  0  0  0  0  0  0  0  0
    0.4275   -1.6114    0.6173 O   0  0  0  0  0  0  0  0  0  0  0  0
   -5.5072   -0.5277   -0.3342 N   0  0  0  0  0  0  0  0  0  0  0  0
   -6.2427    0.0709    0.7073 C   0  0  0  0  0  0  0  0  0  0  0  0
   -5.6048    0.4659    1.7171 O   0  0  0  0  0  0  0  0  0  0  0  0
   -7.7222    0.2656    0.6771 C   0  0  1  0  0  0  0  0  0  0  0  0
   -8.3887   -0.5120   -0.3292 N   0  0  0  0  0  0  0  0  0  0  0  0
   -8.1572   -1.9189   -0.5217 C   0  0  0  0  0  0  0  0  0  0  0  0
   -7.3588   -2.5843    0.1820 O   0  0  0  0  0  0  0  0  0  0  0  0
   -8.8734   -2.6827   -1.5976 C   0  0  0  0  0  0  0  0  0  0  0  0
   -8.3886    0.3125    1.9906 C   0  0  0  0  0  0  0  0  0  0  0  0
   -8.2564   -0.8937    2.8582 C   0  0  0  0  0  0  0  0  0  0  0  0
   -9.0040   -0.6643    4.1805 C   0  0  0  0  0  0  0  0  0  0  0  0
   -8.3974    0.5512    4.8869 C   0  0  0  0  0  0  0  0  0  0  0  0
   -3.3685    3.1838   -3.3582 C   0  0  0  0  0  0  0  0  0  0  0  0
   -2.4537    3.6832   -4.3952 C   0  0  0  0  0  0  0  0  0  0  0  0
   -1.2034    3.4217   -4.7400 N   0  0  0  0  0  0  0  0  0  0  0  0
   -0.7836    4.1646   -5.7731 C   0  0  0  0  0  0  0  0  0  0  0  0
   -1.8283    4.9415   -6.1034 N   0  0  0  0  0  0  0  0  0  0  0  0
   -2.8627    4.6843   -5.2956 C   0  0  0  0  0  0  0  0  0  0  0  0
    5.5625   -2.1138   -2.2595 C   0  0  0  0  0  0  0  0  0  0  0  0
    6.2256   -3.1972   -1.4985 C   0  0  0  0  0  0  0  0  0  0  0  0
    6.0297   -4.5792   -1.6458 C   0  0  0  0  0  0  0  0  0  0  0  0
    6.7679   -5.2530   -0.7750 N   0  0  0  0  0  0  0  0  0  0  0  0
    7.4737   -4.3805   -0.0248 C   0  0  0  0  0  0  0  0  0  0  0  0
    7.1452   -3.1115   -0.4649 C   0  0  0  0  0  0  0  0  0  0  0  0
    7.7551   -2.0536    0.1530 C   0  0  0  0  0  0  0  0  0  0  0  0
    8.6648   -2.1850    1.1756 C   0  0  0  0  0  0  0  0  0  0  0  0
    8.9753   -3.4619    1.5976 C   0  0  0  0  0  0  0  0  0  0  0  0
    8.3887   -4.5675    1.0077 C   0  0  0  0  0  0  0  0  0  0  0  0
    0.4718   -8.1254   -0.4225 H   0  0  0  0  0  0  0  0  0  0  0  0
   -1.1809   -7.9958   -0.2962 H   0  0  0  0  0  0  0  0  0  0  0  0
   -1.1347   -7.3825    1.8667 H   0  0  0  0  0  0  0  0  0  0  0  0
    0.0701   -8.6390    2.2541 H   0  0  0  0  0  0  0  0  0  0  0  0
    1.8364   -7.2847    1.2158 H   0  0  0  0  0  0  0  0  0  0  0  0
    1.0166   -6.4037    2.5550 H   0  0  0  0  0  0  0  0  0  0  0  0
    0.3063   -6.0973   -0.4282 H   0  0  0  0  0  0  0  0  0  0  0  0
   -0.4201   -5.2259    1.0116 H   0  0  0  0  0  0  0  0  0  0  0  0
    1.6376   -4.2480    1.6379 H   0  0  0  0  0  0  0  0  0  0  0  0
    2.5785   -5.1714    0.4430 H   0  0  0  0  0  0  0  0  0  0  0  0
    1.2628   -3.9151   -1.3369 H   0  0  0  0  0  0  0  0  0  0  0  0
    2.7937   -2.0419    0.5596 H   0  0  0  0  0  0  0  0  0  0  0  0
    3.9170   -0.8357   -2.5050 H   0  0  0  0  0  0  0  0  0  0  0  0
    5.2345   -0.6241    0.0921 H   0  0  0  0  0  0  0  0  0  0  0  0
    4.1906    2.5413   -0.4477 H   0  0  0  0  0  0  0  0  0  0  0  0
    4.1456    2.9978    1.9638 H   0  0  0  0  0  0  0  0  0  0  0  0
    4.0446    1.2573    2.3712 H   0  0  0  0  0  0  0  0  0  0  0  0
    6.2884    2.0209    2.5862 H   0  0  0  0  0  0  0  0  0  0  0  0
    6.2466    0.9870    1.0854 H   0  0  0  0  0  0  0  0  0  0  0  0
    6.1835    2.9152   -0.3825 H   0  0  0  0  0  0  0  0  0  0  0  0
    6.1358    3.9823    1.0979 H   0  0  0  0  0  0  0  0  0  0  0  0
    8.2919    5.3477    2.7705 H   0  0  0  0  0  0  0  0  0  0  0  0
    7.3427    3.9903    3.3848 H   0  0  0  0  0  0  0  0  0  0  0  0
   10.6256    4.1902    2.0184 H   0  0  0  0  0  0  0  0  0  0  0  0
   10.4654    2.6366    1.1208 H   0  0  0  0  0  0  0  0  0  0  0  0
    1.8578    2.3687    1.3137 H   0  0  0  0  0  0  0  0  0  0  0  0
   -0.2102    3.0101    0.4935 H   0  0  0  0  0  0  0  0  0  0  0  0
    0.8721    5.4688   -1.0394 H   0  0  0  0  0  0  0  0  0  0  0  0
    1.2300    5.1711    0.6719 H   0  0  0  0  0  0  0  0  0  0  0  0
   -0.6433    5.3604    2.2736 H   0  0  0  0  0  0  0  0  0  0  0  0
   -2.7418    6.4363    2.8777 H   0  0  0  0  0  0  0  0  0  0  0  0
   -4.1575    7.4049    1.0747 H   0  0  0  0  0  0  0  0  0  0  0  0
   -3.3799    7.2385   -1.2946 H   0  0  0  0  0  0  0  0  0  0  0  0
   -1.2435    6.1377   -1.8656 H   0  0  0  0  0  0  0  0  0  0  0  0
   -0.2895    3.9925   -2.3545 H   0  0  0  0  0  0  0  0  0  0  0  0
   -2.2853    1.4104   -3.0645 H   0  0  0  0  0  0  0  0  0  0  0  0
   -4.7415    1.7732   -1.3963 H   0  0  0  0  0  0  0  0  0  0  0  0
   -3.7748   -0.3869    0.8405 H   0  0  0  0  0  0  0  0  0  0  0  0
   -4.1808   -2.7743    0.1927 H   0  0  0  0  0  0  0  0  0  0  0  0
   -3.6334   -2.4140   -1.4813 H   0  0  0  0  0  0  0  0  0  0  0  0
   -1.3823   -3.9741   -0.8022 H   0  0  0  0  0  0  0  0  0  0  0  0
   -5.9783   -0.8500   -1.2306 H   0  0  0  0  0  0  0  0  0  0  0  0
   -7.7858    1.3449    0.2542 H   0  0  0  0  0  0  0  0  0  0  0  0
   -9.0981   -0.1052   -1.0014 H   0  0  0  0  0  0  0  0  0  0  0  0
   -9.4972   -3.4557   -1.1074 H   0  0  0  0  0  0  0  0  0  0  0  0
   -9.5294   -2.0067   -2.1704 H   0  0  0  0  0  0  0  0  0  0  0  0
   -8.1234   -3.1194   -2.2908 H   0  0  0  0  0  0  0  0  0  0  0  0
   -8.1436    1.2453    2.5600 H   0  0  0  0  0  0  0  0  0  0  0  0
   -9.4978    0.4262    1.7851 H   0  0  0  0  0  0  0  0  0  0  0  0
   -7.1947   -1.0318    3.1274 H   0  0  0  0  0  0  0  0  0  0  0  0
   -8.7247   -1.7937    2.4056 H   0  0  0  0  0  0  0  0  0  0  0  0
  -10.0941   -0.5121    3.9979 H   0  0  0  0  0  0  0  0  0  0  0  0
   -8.7950   -1.5532    4.8069 H   0  0  0  0  0  0  0  0  0  0  0  0
   -8.5495    0.5228    5.9797 H   0  0  0  0  0  0  0  0  0  0  0  0
   -7.3148    0.5909    4.6692 H   0  0  0  0  0  0  0  0  0  0  0  0
   -8.8881    1.4631    4.4552 H   0  0  0  0  0  0  0  0  0  0  0  0
   -4.3081    2.7979   -3.8649 H   0  0  0  0  0  0  0  0  0  0  0  0
   -3.7094    4.1382   -2.8133 H   0  0  0  0  0  0  0  0  0  0  0  0
   -0.6054    2.7138   -4.2774 H   0  0  0  0  0  0  0  0  0  0  0  0
    0.1961    4.1581   -6.2618 H   0  0  0  0  0  0  0  0  0  0  0  0
   -3.8118    5.1753   -5.3584 H   0  0  0  0  0  0  0  0  0  0  0  0
    5.2081   -2.5996   -3.2145 H   0  0  0  0  0  0  0  0  0  0  0  0
    6.3593   -1.4505   -2.6626 H   0  0  0  0  0  0  0  0  0  0  0  0
    5.3389   -4.9545   -2.4037 H   0  0  0  0  0  0  0  0  0  0  0  0
    6.7935   -6.2932   -0.6900 H   0  0  0  0  0  0  0  0  0  0  0  0
    7.5289   -1.0465   -0.1739 H   0  0  0  0  0  0  0  0  0  0  0  0
    9.1032   -1.3035    1.6107 H   0  0  0  0  0  0  0  0  0  0  0  0
    9.6877   -3.5503    2.4016 H   0  0  0  0  0  0  0  0  0  0  0  0
    8.6486   -5.5630    1.3602 H   0  0  0  0  0  0  0  0  0  0  0  0
  1  2  1  0
  2  3  1  0
  3  4  1  0
  4  5  1  0
  5  6  1  0
  6  7  1  0
  7  8  1  0
  8  9  2  0
  8 10  1  0
 10 11  1  0
 11 12  1  0
 12 13  2  0
 12 14  1  0
 14 15  1  0
 15 16  1  0
 16 17  1  0
 17 18  1  0
 18 19  2  3
 19 20  1  0
 19 21  1  0
 14 22  1  0
 22 23  1  0
 23 24  2  0
 23 25  1  0
 25 26  1  0
 26 27  1  0
 27 28  2  0
 28 29  1  0
 29 30  2  0
 30 31  1  0
 31 32  2  0
 25 33  1  0
 33 34  1  0
 34 35  2  0
 34 36  1  0
 36 37  1  0
 37 38  1  0
 38 39  2  0
 38 40  1  0
 40 41  1  0
 41 42  1  0
 42 43  2  0
 42 44  1  0
 44 45  1  0
 45 46  2  0
 40 47  1  0
 47 48  1  0
 48 49  2  0
 48 50  1  0
 50 51  1  0
 51 52  1  0
 52 53  2  0
 52 54  1  0
 50 55  1  0
 55 56  1  0
 56 57  1  0
 57 58  1  0
 36 59  1  0
 59 60  1  0
 60 61  1  0
 61 62  1  0
 62 63  2  0
 63 64  1  0
 10 65  1  0
 65 66  1  0
 66 67  2  0
 67 68  1  0
 68 69  1  0
 69 70  2  0
 70 71  1  0
 71 72  2  0
 72 73  1  0
 73 74  2  0
 45  6  1  0
 64 60  2  0
 70 66  1  0
 32 27  1  0
 74 69  1  0
  1 75  1  0
  1 76  1  0
  2 77  1  0
  2 78  1  0
  3 79  1  0
  3 80  1  0
  4 81  1  0
  4 82  1  0
  5 83  1  0
  5 84  1  0
  6 85  1  6
  7 86  1  0
 10 87  1  6
 11 88  1  0
 14 89  1  6
 15 90  1  0
 15 91  1  0
 16 92  1  0
 16 93  1  0
 17 94  1  0
 17 95  1  0
 20 96  1  0
 20 97  1  0
 21 98  1  0
 21 99  1  0
 22100  1  0
 25101  1  1
 26102  1  0
 26103  1  0
 28104  1  0
 29105  1  0
 30106  1  0
 31107  1  0
 32108  1  0
 33109  1  0
 36110  1  6
 37111  1  0
 40112  1  1
 41113  1  0
 41114  1  0
 44115  1  0
 47116  1  0
 50117  1  6
 51118  1  0
 54119  1  0
 54120  1  0
 54121  1  0
 55122  1  0
 55123  1  0
 56124  1  0
 56125  1  0
 57126  1  0
 57127  1  0
 58128  1  0
 58129  1  0
 58130  1  0
 59131  1  0
 59132  1  0
 61133  1  0
 62134  1  0
 64135  1  0
 65136  1  0
 65137  1  0
 67138  1  0
 68139  1  0
 71140  1  0
 72141  1  0
 73142  1  0
 74143  1  0
M  END
>  <Ligand ID>  (1) 
LIG0001766

>  <Ligand>  (1) 
CHEMBL2096712

>  <SMILES>  (1) 
NCCCC[C@@H]1NC(=O)[C@@H](NC(=O)[C@H](CCCN=C(N)N)NC(=O)[C@@H](Cc2ccccc2)NC(=O)[C@@H](NC(=O)[C@H](CC(=O)NC1=O)NC(=O)[C@@H](NC(=O)C)CCCC)Cc1[nH]cnc1)Cc1c[nH]c2c1cccc2

>  <CID>  (1) 
70691329.0

>  <ChEMBL ID>  (1) 
nan

>  <InChiKey>  (1) 
LXEXKGVAQWUHCI-MFVUMRCOSA-N

>  <InChi>  (1) 
InChI=1S/C50H69N15O9/c1-3-4-16-35(58-29(2)66)43(68)64-41-25-42(67)65-45(70)36(18-10-11-20-51)59-47(72)39(23-31-26-56-34-17-9-8-15-33(31)34)62-44(69)37(19-12-21-55-50(52)53)60-46(71)38(22-30-13-6-5-7-14-30)61-48(73)40(63-49(41)74)24-32-27-54-28-57-32/h5-9,13-15,17,26-28,35-41,56H,3-4,10-12,16,18-25,51H2,1-2H3,(H,54,57)(H,58,66)(H,59,72)(H,60,71)(H,61,73)(H,62,69)(H,63,74)(H,64,68)(H4,52,53,55)(H,65,67,70)/t35-,36-,37-,38+,39-,40-,41-/m0/s1

>  <IUPAC Name>  (1) 
(2S)-2-acetamido-N-[(3S,6S,9S,12R,15S,18S)-3-(4-aminobutyl)-12-benzyl-9-[3-(diaminomethylideneamino)propyl]-15-(1H-imidazol-5-ylmethyl)-6-(1H-indol-3-ylmethyl)-2,5,8,11,14,17,20-heptaoxo-1,4,7,10,13,16-hexazacycloicos-18-yl]hexanamide

$$$$
