
     RDKit          3D

 55 57  0  0  0  0  0  0  0  0999 V2000
   -0.9335    1.4669    1.2405 C   0  0  0  0  0  0  0  0  0  0  0  0
   -1.4396    0.0243    1.4423 C   0  0  1  0  0  0  0  0  0  0  0  0
   -2.7549    0.1219    1.8266 N   0  0  0  0  0  0  0  0  0  0  0  0
   -3.7325   -0.8195    1.9808 C   0  0  0  0  0  0  0  0  0  0  0  0
   -4.3964   -1.4813    0.8211 C   0  0  1  0  0  0  0  0  0  0  0  0
   -5.2930   -0.5682    0.0382 C   0  0  0  0  0  0  0  0  0  0  0  0
   -5.9333   -1.1288   -1.0472 C   0  0  0  0  0  0  0  0  0  0  0  0
   -6.7863   -0.3620   -1.8324 C   0  0  0  0  0  0  0  0  0  0  0  0
   -7.0233    0.9814   -1.5571 C   0  0  0  0  0  0  0  0  0  0  0  0
   -6.3583    1.5084   -0.4538 C   0  0  0  0  0  0  0  0  0  0  0  0
   -5.5111    0.7333    0.3201 C   0  0  0  0  0  0  0  0  0  0  0  0
   -6.6420    3.1958   -0.0913 Cl  0  0  0  0  0  0  0  0  0  0  0  0
   -3.6418   -2.1755   -0.0653 O   0  0  0  0  0  0  0  0  0  0  0  0
   -0.9004   -0.9068    0.4611 C   0  0  0  0  0  0  0  0  0  0  0  0
    0.5787   -0.9471    0.4897 N   0  0  0  0  0  0  0  0  0  0  0  0
    1.3931   -0.1150   -0.2969 C   0  0  0  0  0  0  0  0  0  0  0  0
    0.9766    0.7669   -1.2454 C   0  0  0  0  0  0  0  0  0  0  0  0
    1.8429    1.5696   -1.9602 C   0  0  0  0  0  0  0  0  0  0  0  0
    3.2100    1.5149   -1.7422 C   0  0  0  0  0  0  0  0  0  0  0  0
    3.6598    0.6180   -0.7757 C   0  0  0  0  0  0  0  0  0  0  0  0
    2.7716   -0.1768   -0.0708 C   0  0  0  0  0  0  0  0  0  0  0  0
    5.0798    0.5423   -0.4797 C   0  0  0  0  0  0  0  0  0  0  0  0
    5.6786    1.7188   -0.0166 C   0  0  0  0  0  0  0  0  0  0  0  0
    7.0017    1.7525    0.3449 C   0  0  0  0  0  0  0  0  0  0  0  0
    7.7278    0.5914    0.2389 C   0  0  0  0  0  0  0  0  0  0  0  0
    7.1378   -0.5523   -0.2145 C   0  0  0  0  0  0  0  0  0  0  0  0
    5.7994   -0.6165   -0.5889 C   0  0  0  0  0  0  0  0  0  0  0  0
    5.2610   -1.8592   -1.1091 C   0  0  0  0  0  0  0  0  0  0  0  0
    4.0973   -2.0194   -1.5432 O   0  0  0  0  0  0  0  0  0  0  0  0
    6.0887   -2.9781   -1.1364 O   0  0  0  0  0  0  0  0  0  0  0  0
   -1.3482    2.1069    2.0818 H   0  0  0  0  0  0  0  0  0  0  0  0
   -1.2224    1.8848    0.2661 H   0  0  0  0  0  0  0  0  0  0  0  0
    0.1549    1.5558    1.3564 H   0  0  0  0  0  0  0  0  0  0  0  0
   -0.8724   -0.2520    2.4234 H   0  0  0  0  0  0  0  0  0  0  0  0
   -2.9788    1.0560    2.3085 H   0  0  0  0  0  0  0  0  0  0  0  0
   -3.5123   -1.6022    2.8028 H   0  0  0  0  0  0  0  0  0  0  0  0
   -4.6120   -0.2987    2.5083 H   0  0  0  0  0  0  0  0  0  0  0  0
   -5.1365   -2.2269    1.3110 H   0  0  0  0  0  0  0  0  0  0  0  0
   -5.7884   -2.1826   -1.3150 H   0  0  0  0  0  0  0  0  0  0  0  0
   -7.3071   -0.7840   -2.6995 H   0  0  0  0  0  0  0  0  0  0  0  0
   -7.6894    1.5850   -2.1680 H   0  0  0  0  0  0  0  0  0  0  0  0
   -5.0339    1.1945    1.1508 H   0  0  0  0  0  0  0  0  0  0  0  0
   -3.4745   -3.0802    0.2999 H   0  0  0  0  0  0  0  0  0  0  0  0
   -1.1680   -1.9740    0.5956 H   0  0  0  0  0  0  0  0  0  0  0  0
   -1.1765   -0.6352   -0.5719 H   0  0  0  0  0  0  0  0  0  0  0  0
    1.0233   -1.6493    1.1500 H   0  0  0  0  0  0  0  0  0  0  0  0
   -0.0591    0.8425   -1.4644 H   0  0  0  0  0  0  0  0  0  0  0  0
    1.4567    2.2539   -2.7024 H   0  0  0  0  0  0  0  0  0  0  0  0
    3.8691    2.1447   -2.3056 H   0  0  0  0  0  0  0  0  0  0  0  0
    3.1694   -0.8638    0.6943 H   0  0  0  0  0  0  0  0  0  0  0  0
    5.0893    2.6321    0.0625 H   0  0  0  0  0  0  0  0  0  0  0  0
    7.4205    2.6917    0.6995 H   0  0  0  0  0  0  0  0  0  0  0  0
    8.7781    0.5775    0.5158 H   0  0  0  0  0  0  0  0  0  0  0  0
    7.7482   -1.4535   -0.2840 H   0  0  0  0  0  0  0  0  0  0  0  0
    5.7116   -3.9229   -1.2571 H   0  0  0  0  0  0  0  0  0  0  0  0
  1  2  1  0
  2  3  1  0
  3  4  1  0
  4  5  1  0
  5  6  1  0
  6  7  2  0
  7  8  1  0
  8  9  2  0
  9 10  1  0
 10 11  2  0
 10 12  1  0
  5 13  1  0
  2 14  1  0
 14 15  1  0
 15 16  1  0
 16 17  2  0
 17 18  1  0
 18 19  2  0
 19 20  1  0
 20 21  2  0
 20 22  1  0
 22 23  2  0
 23 24  1  0
 24 25  2  0
 25 26  1  0
 26 27  2  0
 27 28  1  0
 28 29  2  0
 28 30  1  0
 11  6  1  0
 21 16  1  0
 27 22  1  0
  1 31  1  0
  1 32  1  0
  1 33  1  0
  2 34  1  1
  3 35  1  0
  4 36  1  0
  4 37  1  0
  5 38  1  1
  7 39  1  0
  8 40  1  0
  9 41  1  0
 11 42  1  0
 13 43  1  0
 14 44  1  0
 14 45  1  0
 15 46  1  0
 17 47  1  0
 18 48  1  0
 19 49  1  0
 21 50  1  0
 23 51  1  0
 24 52  1  0
 25 53  1  0
 26 54  1  0
 30 55  1  0
M  END
>  <Ligand ID>  (1) 
LIG0002257

>  <Ligand>  (1) 
CHEMBL377028

>  <SMILES>  (1) 
C[C@@H](NC[C@@H](c1cccc(c1)Cl)O)CNc1cccc(c1)c1ccccc1C(=O)O

>  <CID>  (1) 
11647543.0

>  <ChEMBL ID>  (1) 
nan

>  <InChiKey>  (1) 
MYZMHMMNFUUEMD-MWTRTKDXSA-N

>  <InChi>  (1) 
InChI=1S/C24H25ClN2O3/c1-16(26-15-23(28)18-7-4-8-19(25)12-18)14-27-20-9-5-6-17(13-20)21-10-2-3-11-22(21)24(29)30/h2-13,16,23,26-28H,14-15H2,1H3,(H,29,30)/t16-,23+/m1/s1

>  <IUPAC Name>  (1) 
2-[3-[[(2R)-2-[[(2R)-2-(3-chlorophenyl)-2-hydroxyethyl]amino]propyl]amino]phenyl]benzoic acid

$$$$
