
     RDKit          3D

 40 42  0  0  0  0  0  0  0  0999 V2000
   -8.1115   -0.5838   -0.0070 O   0  0  0  0  0  0  0  0  0  0  0  0
   -6.9103   -0.7053    0.7035 C   0  0  0  0  0  0  0  0  0  0  0  0
   -6.8930   -1.2326    1.8304 O   0  0  0  0  0  0  0  0  0  0  0  0
   -5.6975   -0.1680    0.0181 C   0  0  0  0  0  0  0  0  0  0  0  0
   -4.4729   -0.3632    0.8940 C   0  0  0  0  0  0  0  0  0  0  0  0
   -3.2773    0.1643    0.2231 C   0  0  0  0  0  0  0  0  0  0  0  0
   -2.9081    1.4718    0.4100 C   0  0  0  0  0  0  0  0  0  0  0  0
   -1.7986    2.0164   -0.1932 C   0  0  0  0  0  0  0  0  0  0  0  0
   -0.9738    1.2446   -1.0464 C   0  0  0  0  0  0  0  0  0  0  0  0
   -1.3628   -0.0433   -1.2134 C   0  0  0  0  0  0  0  0  0  0  0  0
   -2.4880   -0.6033   -0.6040 C   0  0  0  0  0  0  0  0  0  0  0  0
    0.0851    1.8931   -1.5807 O   0  0  0  0  0  0  0  0  0  0  0  0
    1.0548    1.3974   -2.4107 C   0  0  0  0  0  0  0  0  0  0  0  0
    1.8516    0.3474   -1.7377 C   0  0  0  0  0  0  0  0  0  0  0  0
    1.7808   -0.9363   -1.6836 O   0  0  0  0  0  0  0  0  0  0  0  0
    2.7216   -1.4470   -0.9489 N   0  0  0  0  0  0  0  0  0  0  0  0
    3.4975   -0.4346   -0.4616 C   0  0  0  0  0  0  0  0  0  0  0  0
    2.9363    0.6763   -0.9666 N   0  0  0  0  0  0  0  0  0  0  0  0
    4.6659   -0.5517    0.4080 C   0  0  0  0  0  0  0  0  0  0  0  0
    5.8182    0.1015   -0.0150 C   0  0  0  0  0  0  0  0  0  0  0  0
    6.9811    0.0519    0.7391 C   0  0  0  0  0  0  0  0  0  0  0  0
    6.9789   -0.6583    1.9212 C   0  0  0  0  0  0  0  0  0  0  0  0
    5.8267   -1.3106    2.3430 C   0  0  0  0  0  0  0  0  0  0  0  0
    4.6606   -1.2596    1.5847 C   0  0  0  0  0  0  0  0  0  0  0  0
    8.4345   -0.7544    2.9218 Cl  0  0  0  0  0  0  0  0  0  0  0  0
   -8.9702   -0.9206    0.4147 H   0  0  0  0  0  0  0  0  0  0  0  0
   -5.5331   -0.5715   -0.9816 H   0  0  0  0  0  0  0  0  0  0  0  0
   -5.8884    0.9399   -0.0727 H   0  0  0  0  0  0  0  0  0  0  0  0
   -4.6341    0.1231    1.8763 H   0  0  0  0  0  0  0  0  0  0  0  0
   -4.3714   -1.4503    1.0900 H   0  0  0  0  0  0  0  0  0  0  0  0
   -3.5258    2.0846    1.0610 H   0  0  0  0  0  0  0  0  0  0  0  0
   -1.5696    3.0564    0.0016 H   0  0  0  0  0  0  0  0  0  0  0  0
   -0.8129   -0.7002   -1.8562 H   0  0  0  0  0  0  0  0  0  0  0  0
   -2.7454   -1.6477   -0.7800 H   0  0  0  0  0  0  0  0  0  0  0  0
    1.7412    2.2450   -2.6789 H   0  0  0  0  0  0  0  0  0  0  0  0
    0.6466    0.9469   -3.3615 H   0  0  0  0  0  0  0  0  0  0  0  0
    5.8195    0.6651   -0.9534 H   0  0  0  0  0  0  0  0  0  0  0  0
    7.8823    0.5552    0.4208 H   0  0  0  0  0  0  0  0  0  0  0  0
    5.8139   -1.8701    3.2678 H   0  0  0  0  0  0  0  0  0  0  0  0
    3.7475   -1.7685    1.9054 H   0  0  0  0  0  0  0  0  0  0  0  0
  1  2  1  0
  2  3  2  0
  2  4  1  0
  4  5  1  0
  5  6  1  0
  6  7  2  0
  7  8  1  0
  8  9  2  0
  9 10  1  0
 10 11  2  0
  9 12  1  0
 12 13  1  0
 13 14  1  0
 14 15  1  0
 15 16  1  0
 16 17  2  0
 17 18  1  0
 17 19  1  0
 19 20  2  0
 20 21  1  0
 21 22  2  0
 22 23  1  0
 23 24  2  0
 22 25  1  0
 11  6  1  0
 18 14  2  0
 24 19  1  0
  1 26  1  0
  4 27  1  0
  4 28  1  0
  5 29  1  0
  5 30  1  0
  7 31  1  0
  8 32  1  0
 10 33  1  0
 11 34  1  0
 13 35  1  0
 13 36  1  0
 20 37  1  0
 21 38  1  0
 23 39  1  0
 24 40  1  0
M  END
>  <Ligand ID>  (1) 
LIG0001234

>  <Ligand>  (1) 
CHEMBL3601003

>  <SMILES>  (1) 
OC(=O)CCc1ccc(cc1)OCc1onc(n1)c1ccc(cc1)Cl

>  <CID>  (1) 
122184686.0

>  <ChEMBL ID>  (1) 
nan

>  <InChiKey>  (1) 
LADPDPKGTWEYMD-UHFFFAOYSA-N

>  <InChi>  (1) 
InChI=1S/C18H15ClN2O4/c19-14-6-4-13(5-7-14)18-20-16(25-21-18)11-24-15-8-1-12(2-9-15)3-10-17(22)23/h1-2,4-9H,3,10-11H2,(H,22,23)

>  <IUPAC Name>  (1) 
3-[4-[[3-(4-chlorophenyl)-1,2,4-oxadiazol-5-yl]methoxy]phenyl]propanoic acid

$$$$
