
     RDKit          3D

 33 36  0  0  0  0  0  0  0  0999 V2000
   -1.0156    5.8291   -0.1951 N   0  0  0  0  0  0  0  0  0  0  0  0
   -0.6988    4.7085   -0.1284 C   0  0  0  0  0  0  0  0  0  0  0  0
   -0.3235    3.3232   -0.0380 C   0  0  0  0  0  0  0  0  0  0  0  0
    0.9829    2.9055   -0.2311 C   0  0  0  0  0  0  0  0  0  0  0  0
    1.2875    1.5513   -0.1312 C   0  0  0  0  0  0  0  0  0  0  0  0
    0.2609    0.6739    0.1594 C   0  0  0  0  0  0  0  0  0  0  0  0
   -1.0170    1.0913    0.3472 N   0  0  0  0  0  0  0  0  0  0  0  0
   -1.3337    2.4000    0.2548 C   0  0  0  0  0  0  0  0  0  0  0  0
   -2.5191    2.7620    0.4319 O   0  0  0  0  0  0  0  0  0  0  0  0
   -1.9894    0.0930    0.6417 C   0  0  0  0  0  0  0  0  0  0  0  0
   -2.1499   -0.6310    1.7718 N   0  0  0  0  0  0  0  0  0  0  0  0
   -3.1768   -1.4431    1.6148 O   0  0  0  0  0  0  0  0  0  0  0  0
   -3.7082   -1.2960    0.4362 C   0  0  0  0  0  0  0  0  0  0  0  0
   -2.9757   -0.3109   -0.2365 C   0  0  0  0  0  0  0  0  0  0  0  0
   -4.8678   -1.9788   -0.1942 C   0  0  0  0  0  0  0  0  0  0  0  0
    0.5660   -0.6509    0.2557 N   0  0  0  0  0  0  0  0  0  0  0  0
    1.8366   -1.0820    0.0708 C   0  0  0  0  0  0  0  0  0  0  0  0
    2.8323   -0.2225   -0.2121 N   0  0  0  0  0  0  0  0  0  0  0  0
    2.5837    1.0885   -0.3172 C   0  0  0  0  0  0  0  0  0  0  0  0
    3.5130    1.9023   -0.5825 O   0  0  0  0  0  0  0  0  0  0  0  0
    4.0702   -0.7095   -0.3845 C   0  0  0  0  0  0  0  0  0  0  0  0
    4.3528   -2.0706   -0.2798 C   0  0  0  0  0  0  0  0  0  0  0  0
    3.3174   -2.9431    0.0119 C   0  0  0  0  0  0  0  0  0  0  0  0
    2.0357   -2.4478    0.1914 C   0  0  0  0  0  0  0  0  0  0  0  0
    1.7605    3.6328   -0.4584 H   0  0  0  0  0  0  0  0  0  0  0  0
   -3.1317    0.0707   -1.2370 H   0  0  0  0  0  0  0  0  0  0  0  0
   -5.3529   -1.3058   -0.9292 H   0  0  0  0  0  0  0  0  0  0  0  0
   -4.4623   -2.8784   -0.7161 H   0  0  0  0  0  0  0  0  0  0  0  0
   -5.5848   -2.3634    0.5777 H   0  0  0  0  0  0  0  0  0  0  0  0
    4.9088   -0.0684   -0.6132 H   0  0  0  0  0  0  0  0  0  0  0  0
    5.3316   -2.4814   -0.4132 H   0  0  0  0  0  0  0  0  0  0  0  0
    3.4425   -4.0078    0.1115 H   0  0  0  0  0  0  0  0  0  0  0  0
    1.2247   -3.1406    0.4210 H   0  0  0  0  0  0  0  0  0  0  0  0
  1  2  3  0
  2  3  1  0
  3  4  2  0
  4  5  1  0
  5  6  2  0
  6  7  1  0
  7  8  1  0
  8  9  2  0
  7 10  1  0
 10 11  2  0
 11 12  1  0
 12 13  1  0
 13 14  2  0
 13 15  1  0
  6 16  1  0
 16 17  2  0
 17 18  1  0
 18 19  1  0
 19 20  2  0
 18 21  1  0
 21 22  2  0
 22 23  1  0
 23 24  2  0
  8  3  1  0
 14 10  1  0
 24 17  1  0
 19  5  1  0
  4 25  1  0
 14 26  1  0
 15 27  1  0
 15 28  1  0
 15 29  1  0
 21 30  1  0
 22 31  1  0
 23 32  1  0
 24 33  1  0
M  END
>  <Ligand ID>  (1) 
LIG0001721

>  <Ligand>  (1) 
SMR000047194

>  <SMILES>  (1) 
N#Cc1cc2c(n(c1=O)c1noc(c1)C)nc1n(c2=O)cccc1

>  <CID>  (1) 
665938.0

>  <ChEMBL ID>  (1) 
nan

>  <InChiKey>  (1) 
CSWJXYZMNHKYEL-UHFFFAOYSA-N

>  <InChi>  (1) 
InChI=1S/C16H9N5O3/c1-9-6-13(19-24-9)21-14-11(7-10(8-17)15(21)22)16(23)20-5-3-2-4-12(20)18-14/h2-7H,1H3

>  <IUPAC Name>  (1) 
7-(5-methyl-1,2-oxazol-3-yl)-2,6-dioxo-1,7,9-triazatricyclo[8.4.0.03,8]tetradeca-3(8),4,9,11,13-pentaene-5-carbonitrile

$$$$
