
     RDKit          3D

 28 29  0  0  0  0  0  0  0  0999 V2000
    4.1511    0.0230    0.1308 C   0  0  0  0  0  0  0  0  0  0  0  0
    2.8667    0.5682   -0.3711 C   0  0  0  0  0  0  0  0  0  0  0  0
    2.8245    1.5238   -1.1929 O   0  0  0  0  0  0  0  0  0  0  0  0
    1.7023   -0.0349    0.1163 O   0  0  0  0  0  0  0  0  0  0  0  0
    0.4298    0.4089   -0.2983 C   0  0  2  0  0  0  0  0  0  0  0  0
   -0.2751    0.8967    0.9532 C   0  0  0  0  0  0  0  0  0  0  0  0
   -1.6453    0.4146    0.9884 N   0  0  0  0  0  0  0  0  0  0  0  0
   -1.6395   -1.0133    1.1674 C   0  0  0  0  0  0  0  0  0  0  0  0
   -0.9325   -1.6922    0.0181 C   0  0  0  0  0  0  0  0  0  0  0  0
   -0.4256   -0.6414   -0.9293 C   0  0  0  0  0  0  0  0  0  0  0  0
   -1.6719    0.0926   -1.4420 C   0  0  0  0  0  0  0  0  0  0  0  0
   -2.2922    0.7884   -0.2406 C   0  0  0  0  0  0  0  0  0  0  0  0
    4.9315    0.8039   -0.0878 H   0  0  0  0  0  0  0  0  0  0  0  0
    4.1782   -0.1032    1.2321 H   0  0  0  0  0  0  0  0  0  0  0  0
    4.4434   -0.9359   -0.3401 H   0  0  0  0  0  0  0  0  0  0  0  0
    0.4843    1.2498   -1.0190 H   0  0  0  0  0  0  0  0  0  0  0  0
   -0.2911    2.0038    0.9621 H   0  0  0  0  0  0  0  0  0  0  0  0
    0.2270    0.5453    1.8840 H   0  0  0  0  0  0  0  0  0  0  0  0
   -2.1339    0.8805    1.7667 H   0  0  0  0  0  0  0  0  0  0  0  0
   -1.1929   -1.2926    2.1258 H   0  0  0  0  0  0  0  0  0  0  0  0
   -2.7029   -1.3490    1.1563 H   0  0  0  0  0  0  0  0  0  0  0  0
   -0.1357   -2.3566    0.3621 H   0  0  0  0  0  0  0  0  0  0  0  0
   -1.6372   -2.3254   -0.5756 H   0  0  0  0  0  0  0  0  0  0  0  0
    0.0776   -1.1669   -1.7733 H   0  0  0  0  0  0  0  0  0  0  0  0
   -1.3500    0.8566   -2.1975 H   0  0  0  0  0  0  0  0  0  0  0  0
   -2.4091   -0.5894   -1.8705 H   0  0  0  0  0  0  0  0  0  0  0  0
   -2.1970    1.8973   -0.3683 H   0  0  0  0  0  0  0  0  0  0  0  0
   -3.3845    0.5475   -0.1570 H   0  0  0  0  0  0  0  0  0  0  0  0
  1  2  1  0
  2  3  2  0
  2  4  1  0
  4  5  1  0
  5  6  1  0
  6  7  1  0
  7  8  1  0
  8  9  1  0
  9 10  1  0
 10 11  1  0
 11 12  1  0
 10  5  1  0
 12  7  1  0
  1 13  1  0
  1 14  1  0
  1 15  1  0
  5 16  1  6
  6 17  1  0
  6 18  1  0
  7 19  1  0
  8 20  1  0
  8 21  1  0
  9 22  1  0
  9 23  1  0
 10 24  1  0
 11 25  1  0
 11 26  1  0
 12 27  1  0
 12 28  1  0
M  CHG  1   7   1
M  END
>  <Ligand ID>  (1) 
LIG0000895

>  <Ligand>  (1) 
(+)-aceclidine

>  <SMILES>  (1) 
CC(=O)O[C@@H]1C[NH+]2CCC1CC2

>  <CID>  (1) 
6954180.0

>  <ChEMBL ID>  (1) 
nan

>  <InChiKey>  (1) 
WRJPSSPFHGNBMG-SECBINFHSA-O

>  <InChi>  (1) 
InChI=1S/C9H15NO2/c1-7(11)12-9-6-10-4-2-8(9)3-5-10/h8-9H,2-6H2,1H3/p+1/t9-/m1/s1

>  <IUPAC Name>  (1) 
[(3S)-1-azoniabicyclo[2.2.2]octan-3-yl] acetate

$$$$
