
     RDKit          3D

 79 82  0  0  0  0  0  0  0  0999 V2000
   13.3474    1.6862    1.0261 O   0  0  0  0  0  0  0  0  0  0  0  0
   12.6757    0.9279    0.0314 C   0  0  0  0  0  0  0  0  0  0  0  0
   13.3757    0.5767   -0.9729 O   0  0  0  0  0  0  0  0  0  0  0  0
   11.2472    0.5858    0.1876 C   0  0  0  0  0  0  0  0  0  0  0  0
   10.5175    1.0369   -1.0678 C   0  0  0  0  0  0  0  0  0  0  0  0
    9.0537    0.6970   -0.9319 C   0  0  0  0  0  0  0  0  0  0  0  0
    8.2012    1.5907   -0.3318 C   0  0  0  0  0  0  0  0  0  0  0  0
    6.8715    1.2053   -0.2392 C   0  0  0  0  0  0  0  0  0  0  0  0
    6.4232   -0.0028   -0.7160 C   0  0  0  0  0  0  0  0  0  0  0  0
    7.2840   -0.9028   -1.3209 C   0  0  0  0  0  0  0  0  0  0  0  0
    8.6152   -0.5379   -1.4254 C   0  0  0  0  0  0  0  0  0  0  0  0
    5.0813   -0.3267   -0.5851 O   0  0  0  0  0  0  0  0  0  0  0  0
    4.2362    0.6177    0.0419 C   0  0  0  0  0  0  0  0  0  0  0  0
    2.8502    0.0763    0.1139 C   0  0  0  0  0  0  0  0  0  0  0  0
    1.9011    0.2954   -0.8609 C   0  0  0  0  0  0  0  0  0  0  0  0
    0.6204   -0.2593   -0.7292 C   0  0  0  0  0  0  0  0  0  0  0  0
    0.3249   -1.0180    0.3742 C   0  0  0  0  0  0  0  0  0  0  0  0
    1.2942   -1.2234    1.3404 C   0  0  0  0  0  0  0  0  0  0  0  0
    2.5680   -0.6953    1.2476 C   0  0  0  0  0  0  0  0  0  0  0  0
   -1.0046   -1.6588    0.6042 C   0  0  0  0  0  0  0  0  0  0  0  0
   -1.9222   -0.8438    1.3360 N   0  0  0  0  0  0  0  0  0  0  0  0
   -3.1199   -1.5927    1.6650 C   0  0  0  0  0  0  0  0  0  0  0  0
   -3.7334   -2.1954    0.4500 C   0  0  0  0  0  0  0  0  0  0  0  0
   -4.2367   -1.0740   -0.4339 C   0  0  0  0  0  0  0  0  0  0  0  0
   -3.1721   -0.0205   -0.6340 C   0  0  0  0  0  0  0  0  0  0  0  0
   -2.3826    0.3119    0.5852 C   0  0  0  0  0  0  0  0  0  0  0  0
   -4.4994   -1.5820   -1.7269 O   0  0  0  0  0  0  0  0  0  0  0  0
   -5.3290   -2.6867   -1.6780 C   0  0  0  0  0  0  0  0  0  0  0  0
   -6.6472   -2.3340   -1.0397 C   0  0  0  0  0  0  0  0  0  0  0  0
   -6.6517   -0.8330   -0.7717 C   0  0  0  0  0  0  0  0  0  0  0  0
   -5.5078   -0.5350    0.1699 C   0  0  0  0  0  0  0  0  0  0  0  0
   -7.9763   -0.4184   -0.1583 C   0  0  0  0  0  0  0  0  0  0  0  0
   -7.9316    1.0430    0.0764 C   0  0  0  0  0  0  0  0  0  0  0  0
   -8.3787    1.8420   -0.9779 C   0  0  0  0  0  0  0  0  0  0  0  0
   -8.3879    3.2312   -0.8538 C   0  0  0  0  0  0  0  0  0  0  0  0
   -7.9487    3.7901    0.3243 C   0  0  0  0  0  0  0  0  0  0  0  0
   -7.5010    3.0024    1.3792 C   0  0  0  0  0  0  0  0  0  0  0  0
   -7.4852    1.6021    1.2726 C   0  0  0  0  0  0  0  0  0  0  0  0
    0.6872    0.0000    0.0000 Cl  0  0  0  0  0  0  0  0  0  0  0  0
   14.0285    2.4068    0.7790 H   0  0  0  0  0  0  0  0  0  0  0  0
   10.8597    1.0393    1.0979 H   0  0  0  0  0  0  0  0  0  0  0  0
   11.0768   -0.5195    0.2840 H   0  0  0  0  0  0  0  0  0  0  0  0
   10.5864    2.1366   -1.2091 H   0  0  0  0  0  0  0  0  0  0  0  0
   10.9030    0.4737   -1.9270 H   0  0  0  0  0  0  0  0  0  0  0  0
    8.5727    2.5377    0.0372 H   0  0  0  0  0  0  0  0  0  0  0  0
    6.2071    1.9115    0.2292 H   0  0  0  0  0  0  0  0  0  0  0  0
    6.9450   -1.8582   -1.7067 H   0  0  0  0  0  0  0  0  0  0  0  0
    9.2583   -1.2448   -1.8951 H   0  0  0  0  0  0  0  0  0  0  0  0
    4.1895    1.5703   -0.5150 H   0  0  0  0  0  0  0  0  0  0  0  0
    4.6299    0.8328    1.0503 H   0  0  0  0  0  0  0  0  0  0  0  0
    2.1593    0.8999   -1.7247 H   0  0  0  0  0  0  0  0  0  0  0  0
   -0.1431   -0.0980   -1.4858 H   0  0  0  0  0  0  0  0  0  0  0  0
    1.0728   -1.8146    2.2064 H   0  0  0  0  0  0  0  0  0  0  0  0
    3.2983   -0.8723    2.0069 H   0  0  0  0  0  0  0  0  0  0  0  0
   -0.8118   -2.5949    1.1614 H   0  0  0  0  0  0  0  0  0  0  0  0
   -1.3822   -1.9273   -0.4165 H   0  0  0  0  0  0  0  0  0  0  0  0
   -2.9168   -2.3076    2.4934 H   0  0  0  0  0  0  0  0  0  0  0  0
   -3.8705   -0.8507    2.0708 H   0  0  0  0  0  0  0  0  0  0  0  0
   -4.6203   -2.7772    0.7921 H   0  0  0  0  0  0  0  0  0  0  0  0
   -3.1160   -2.8584   -0.1425 H   0  0  0  0  0  0  0  0  0  0  0  0
   -3.6927    0.9395   -0.9393 H   0  0  0  0  0  0  0  0  0  0  0  0
   -2.5267   -0.2782   -1.5028 H   0  0  0  0  0  0  0  0  0  0  0  0
   -1.6065    1.0225    0.3136 H   0  0  0  0  0  0  0  0  0  0  0  0
   -3.0776    0.8418    1.2976 H   0  0  0  0  0  0  0  0  0  0  0  0
   -5.4631   -3.0021   -2.7508 H   0  0  0  0  0  0  0  0  0  0  0  0
   -4.8211   -3.4805   -1.1055 H   0  0  0  0  0  0  0  0  0  0  0  0
   -6.8001   -2.9297   -0.1380 H   0  0  0  0  0  0  0  0  0  0  0  0
   -7.4850   -2.5642   -1.7349 H   0  0  0  0  0  0  0  0  0  0  0  0
   -6.4384   -0.3350   -1.7347 H   0  0  0  0  0  0  0  0  0  0  0  0
   -5.6990   -1.0584    1.1452 H   0  0  0  0  0  0  0  0  0  0  0  0
   -5.4346    0.5429    0.4205 H   0  0  0  0  0  0  0  0  0  0  0  0
   -8.7921   -0.7060   -0.8338 H   0  0  0  0  0  0  0  0  0  0  0  0
   -8.0173   -0.9241    0.8456 H   0  0  0  0  0  0  0  0  0  0  0  0
   -8.7168    1.3934   -1.8874 H   0  0  0  0  0  0  0  0  0  0  0  0
   -8.7447    3.7930   -1.7039 H   0  0  0  0  0  0  0  0  0  0  0  0
   -7.9609    4.8660    0.3928 H   0  0  0  0  0  0  0  0  0  0  0  0
   -7.1645    3.4665    2.2868 H   0  0  0  0  0  0  0  0  0  0  0  0
   -7.1582    0.9499    2.0367 H   0  0  0  0  0  0  0  0  0  0  0  0
   -0.6872    0.0000    0.0000 H   0  0  0  0  0  0  0  0  0  0  0  0
  1  2  1  0
  2  3  2  0
  2  4  1  0
  4  5  1  0
  5  6  1  0
  6  7  2  0
  7  8  1  0
  8  9  2  0
  9 10  1  0
 10 11  2  0
  9 12  1  0
 12 13  1  0
 13 14  1  0
 14 15  2  0
 15 16  1  0
 16 17  2  0
 17 18  1  0
 18 19  2  0
 17 20  1  0
 20 21  1  0
 21 22  1  0
 22 23  1  0
 23 24  1  0
 24 25  1  0
 25 26  1  0
 24 27  1  0
 27 28  1  0
 28 29  1  0
 29 30  1  0
 30 31  1  0
 30 32  1  0
 32 33  1  0
 33 34  2  0
 34 35  1  0
 35 36  2  0
 36 37  1  0
 37 38  2  0
 11  6  1  0
 19 14  1  0
 26 21  1  0
 38 33  1  0
 31 24  1  0
  1 40  1  0
  4 41  1  0
  4 42  1  0
  5 43  1  0
  5 44  1  0
  7 45  1  0
  8 46  1  0
 10 47  1  0
 11 48  1  0
 13 49  1  0
 13 50  1  0
 15 51  1  0
 16 52  1  0
 18 53  1  0
 19 54  1  0
 20 55  1  0
 20 56  1  0
 22 57  1  0
 22 58  1  0
 23 59  1  0
 23 60  1  0
 25 61  1  0
 25 62  1  0
 26 63  1  0
 26 64  1  0
 28 65  1  0
 28 66  1  0
 29 67  1  0
 29 68  1  0
 30 69  1  0
 31 70  1  0
 31 71  1  0
 32 72  1  0
 32 73  1  0
 34 74  1  0
 35 75  1  0
 36 76  1  0
 37 77  1  0
 38 78  1  0
 39 79  1  0
M  END
>  <Ligand ID>  (1) 
LIG0001388

>  <Ligand>  (1) 
CHEMBL3963542

>  <SMILES>  (1) 
OC(=O)CCc1ccc(cc1)OCc1ccc(cc1)CN1CCC2(CC1)OCCC(C2)Cc1ccccc1.Cl

>  <CID>  (1) 
134151150.0

>  <ChEMBL ID>  (1) 
nan

>  <InChiKey>  (1) 
KJXPELYXGINIOF-UHFFFAOYSA-N

>  <InChi>  (1) 
InChI=1S/C33H39NO4.ClH/c35-32(36)15-12-26-10-13-31(14-11-26)37-25-29-8-6-28(7-9-29)24-34-19-17-33(18-20-34)23-30(16-21-38-33)22-27-4-2-1-3-5-27;/h1-11,13-14,30H,12,15-25H2,(H,35,36);1H

>  <IUPAC Name>  (1) 
3-[4-[[4-[(4-benzyl-1-oxa-9-azaspiro[5.5]undecan-9-yl)methyl]phenyl]methoxy]phenyl]propanoic acid;hydrochloride

$$$$
