
     RDKit          3D

 54 57  0  0  0  0  0  0  0  0999 V2000
    8.7824    1.1372   -1.8747 Cl  0  0  0  0  0  0  0  0  0  0  0  0
    7.9319    0.5377   -0.4456 C   0  0  0  0  0  0  0  0  0  0  0  0
    8.6050    0.4827    0.7586 C   0  0  0  0  0  0  0  0  0  0  0  0
    7.9455    0.0128    1.8880 C   0  0  0  0  0  0  0  0  0  0  0  0
    6.6297   -0.3966    1.8136 C   0  0  0  0  0  0  0  0  0  0  0  0
    5.9877   -0.3272    0.5904 C   0  0  0  0  0  0  0  0  0  0  0  0
    6.6067    0.1323   -0.5511 C   0  0  0  0  0  0  0  0  0  0  0  0
    4.5329   -0.7889    0.5567 C   0  0  2  0  0  0  0  0  0  0  0  0
    3.6598    0.2709    1.0973 C   0  0  0  0  0  0  0  0  0  0  0  0
    2.3026    0.0974    1.2740 N   0  0  0  0  0  0  0  0  0  0  0  0
    1.3798   -0.0451    0.2545 C   0  0  1  0  0  0  0  0  0  0  0  0
    1.3114   -1.3264   -0.5182 C   0  0  0  0  0  0  0  0  0  0  0  0
    0.6943   -0.9885   -1.8649 C   0  0  0  0  0  0  0  0  0  0  0  0
   -0.6215   -0.3605   -1.6090 C   0  0  0  0  0  0  0  0  0  0  0  0
   -0.9784    0.2429   -0.4234 C   0  0  0  0  0  0  0  0  0  0  0  0
   -0.0310    0.3189    0.7472 C   0  0  0  0  0  0  0  0  0  0  0  0
   -2.2165    0.8183   -0.2270 C   0  0  0  0  0  0  0  0  0  0  0  0
   -3.1339    0.7814   -1.2779 C   0  0  0  0  0  0  0  0  0  0  0  0
   -2.8031    0.1824   -2.4793 C   0  0  0  0  0  0  0  0  0  0  0  0
   -1.5406   -0.3920   -2.6472 C   0  0  0  0  0  0  0  0  0  0  0  0
   -4.3554    1.3586   -1.0604 O   0  0  0  0  0  0  0  0  0  0  0  0
   -5.4906    0.7770   -0.5759 C   0  0  0  0  0  0  0  0  0  0  0  0
   -6.6170    1.5984   -0.4481 C   0  0  0  0  0  0  0  0  0  0  0  0
   -7.8178    1.1205    0.0302 C   0  0  0  0  0  0  0  0  0  0  0  0
   -7.9079   -0.2149    0.3940 C   0  0  0  0  0  0  0  0  0  0  0  0
   -6.7870   -1.0086    0.2607 C   0  0  0  0  0  0  0  0  0  0  0  0
   -5.6154   -0.5105   -0.2138 N   0  0  0  0  0  0  0  0  0  0  0  0
   -9.1628   -0.7793    0.9088 C   0  0  0  0  0  0  0  0  0  0  0  0
   -9.2528   -1.9787    1.2383 O   0  0  0  0  0  0  0  0  0  0  0  0
  -10.2669    0.0505    1.0270 O   0  0  0  0  0  0  0  0  0  0  0  0
    4.5369   -1.9642    1.2765 O   0  0  0  0  0  0  0  0  0  0  0  0
    9.6543    0.8093    0.8173 H   0  0  0  0  0  0  0  0  0  0  0  0
    8.4773   -0.0302    2.8375 H   0  0  0  0  0  0  0  0  0  0  0  0
    6.1283   -0.7617    2.7071 H   0  0  0  0  0  0  0  0  0  0  0  0
    6.0709    0.1725   -1.4916 H   0  0  0  0  0  0  0  0  0  0  0  0
    4.3610   -1.0136   -0.5068 H   0  0  0  0  0  0  0  0  0  0  0  0
    3.8070    1.2071    0.4659 H   0  0  0  0  0  0  0  0  0  0  0  0
    4.1162    0.6022    2.0871 H   0  0  0  0  0  0  0  0  0  0  0  0
    1.9435    0.0717    2.2549 H   0  0  0  0  0  0  0  0  0  0  0  0
    1.5860    0.7791   -0.5079 H   0  0  0  0  0  0  0  0  0  0  0  0
    2.2470   -1.8622   -0.5623 H   0  0  0  0  0  0  0  0  0  0  0  0
    0.5048   -1.9371    0.0026 H   0  0  0  0  0  0  0  0  0  0  0  0
    1.4048   -0.2999   -2.3718 H   0  0  0  0  0  0  0  0  0  0  0  0
    0.5364   -1.8920   -2.4832 H   0  0  0  0  0  0  0  0  0  0  0  0
   -0.0022    1.3443    1.1239 H   0  0  0  0  0  0  0  0  0  0  0  0
   -0.3854   -0.3754    1.5353 H   0  0  0  0  0  0  0  0  0  0  0  0
   -2.4939    1.2941    0.7129 H   0  0  0  0  0  0  0  0  0  0  0  0
   -3.5322    0.1724   -3.2644 H   0  0  0  0  0  0  0  0  0  0  0  0
   -1.2965   -0.8571   -3.5939 H   0  0  0  0  0  0  0  0  0  0  0  0
   -6.5612    2.6460   -0.7294 H   0  0  0  0  0  0  0  0  0  0  0  0
   -8.6674    1.7758    0.1178 H   0  0  0  0  0  0  0  0  0  0  0  0
   -6.8658   -2.0492    0.5467 H   0  0  0  0  0  0  0  0  0  0  0  0
  -11.1769   -0.2720    1.3283 H   0  0  0  0  0  0  0  0  0  0  0  0
    3.8360   -2.6042    1.0749 H   0  0  0  0  0  0  0  0  0  0  0  0
  1  2  1  0
  2  3  2  0
  3  4  1  0
  4  5  2  0
  5  6  1  0
  6  7  2  0
  6  8  1  0
  8  9  1  0
  9 10  1  0
 10 11  1  0
 11 12  1  0
 12 13  1  0
 13 14  1  0
 14 15  2  0
 15 16  1  0
 15 17  1  0
 17 18  2  0
 18 19  1  0
 19 20  2  0
 18 21  1  0
 21 22  1  0
 22 23  2  0
 23 24  1  0
 24 25  2  0
 25 26  1  0
 26 27  2  0
 25 28  1  0
 28 29  2  0
 28 30  1  0
  8 31  1  0
  7  2  1  0
 16 11  1  0
 27 22  1  0
 20 14  1  0
  3 32  1  0
  4 33  1  0
  5 34  1  0
  7 35  1  0
  8 36  1  6
  9 37  1  0
  9 38  1  0
 10 39  1  0
 11 40  1  6
 12 41  1  0
 12 42  1  0
 13 43  1  0
 13 44  1  0
 16 45  1  0
 16 46  1  0
 17 47  1  0
 19 48  1  0
 20 49  1  0
 23 50  1  0
 24 51  1  0
 26 52  1  0
 30 53  1  0
 31 54  1  0
M  END
>  <Ligand ID>  (1) 
LIG0002993

>  <Ligand>  (1) 
CHEMBL498703

>  <SMILES>  (1) 
Clc1cccc(c1)[C@H](CN[C@H]1CCc2c(C1)cc(cc2)Oc1ccc(cn1)C(=O)O)O

>  <CID>  (1) 
24949891.0

>  <ChEMBL ID>  (1) 
nan

>  <InChiKey>  (1) 
CMDOHFNBDHCOOG-UNMCSNQZSA-N

>  <InChi>  (1) 
InChI=1S/C24H23ClN2O4/c25-19-3-1-2-16(10-19)22(28)14-26-20-7-4-15-5-8-21(12-18(15)11-20)31-23-9-6-17(13-27-23)24(29)30/h1-3,5-6,8-10,12-13,20,22,26,28H,4,7,11,14H2,(H,29,30)/t20-,22-/m0/s1

>  <IUPAC Name>  (1) 
6-[[(7S)-7-[[(2R)-2-(3-chlorophenyl)-2-hydroxyethyl]amino]-5,6,7,8-tetrahydronaphthalen-2-yl]oxy]pyridine-3-carboxylic acid

$$$$
