
     RDKit          3D

 35 37  0  0  0  0  0  0  0  0999 V2000
    1.9865   -0.0974   -2.1634 C   0  0  0  0  0  0  0  0  0  0  0  0
    1.4304   -0.4997   -0.8022 C   0  0  1  0  0  0  0  0  0  0  0  0
    2.3328    0.0305    0.2752 C   0  0  0  0  0  0  0  0  0  0  0  0
    3.4136    0.7178    0.1521 N   0  0  0  0  0  0  0  0  0  0  0  0
    3.9862    1.0317    1.4422 C   0  0  0  0  0  0  0  0  0  0  0  0
    3.2892    0.1139    2.3956 C   0  0  0  0  0  0  0  0  0  0  0  0
    2.0616   -0.1927    1.6717 N   0  0  0  0  0  0  0  0  0  0  0  0
    0.1199   -0.0602   -0.6461 O   0  0  0  0  0  0  0  0  0  0  0  0
   -0.9344   -0.8971   -0.4567 C   0  0  0  0  0  0  0  0  0  0  0  0
   -0.9141   -2.2645   -0.3861 C   0  0  0  0  0  0  0  0  0  0  0  0
   -2.0678   -3.0190   -0.1875 C   0  0  0  0  0  0  0  0  0  0  0  0
   -3.2936   -2.4037   -0.0525 C   0  0  0  0  0  0  0  0  0  0  0  0
   -3.3378   -1.0458   -0.1193 C   0  0  0  0  0  0  0  0  0  0  0  0
   -2.1956   -0.2997   -0.3159 C   0  0  0  0  0  0  0  0  0  0  0  0
   -2.3171    1.1624   -0.3777 C   0  0  0  0  0  0  0  0  0  0  0  0
   -1.3505    2.0277    0.3707 C   0  0  0  0  0  0  0  0  0  0  0  0
   -1.7824    3.6510    0.0768 S   0  0  0  0  0  0  0  0  0  0  0  0
   -3.2376    3.2197   -1.0323 C   0  0  0  0  0  0  0  0  0  0  0  0
   -3.2222    1.8437   -1.0484 C   0  0  0  0  0  0  0  0  0  0  0  0
    2.5932   -0.9111   -2.6228 H   0  0  0  0  0  0  0  0  0  0  0  0
    1.1837    0.2836   -2.8325 H   0  0  0  0  0  0  0  0  0  0  0  0
    2.6785    0.7534   -1.9942 H   0  0  0  0  0  0  0  0  0  0  0  0
    1.4735   -1.5965   -0.7491 H   0  0  0  0  0  0  0  0  0  0  0  0
    5.0788    0.7650    1.4757 H   0  0  0  0  0  0  0  0  0  0  0  0
    3.8416    2.0706    1.7544 H   0  0  0  0  0  0  0  0  0  0  0  0
    3.0965    0.5938    3.3735 H   0  0  0  0  0  0  0  0  0  0  0  0
    3.8287   -0.8391    2.5380 H   0  0  0  0  0  0  0  0  0  0  0  0
    1.1436   -0.5147    2.0582 H   0  0  0  0  0  0  0  0  0  0  0  0
   -0.0039   -2.8272   -0.4807 H   0  0  0  0  0  0  0  0  0  0  0  0
   -2.0233   -4.0959   -0.1358 H   0  0  0  0  0  0  0  0  0  0  0  0
   -4.1699   -3.0165    0.1004 H   0  0  0  0  0  0  0  0  0  0  0  0
   -4.2863   -0.5458   -0.0162 H   0  0  0  0  0  0  0  0  0  0  0  0
   -0.5379    1.5415    0.9754 H   0  0  0  0  0  0  0  0  0  0  0  0
   -3.8460    3.9869   -1.4770 H   0  0  0  0  0  0  0  0  0  0  0  0
   -4.0179    1.3332   -1.6604 H   0  0  0  0  0  0  0  0  0  0  0  0
  1  2  1  0
  2  3  1  0
  3  4  2  0
  4  5  1  0
  5  6  1  0
  6  7  1  0
  2  8  1  0
  8  9  1  0
  9 10  2  0
 10 11  1  0
 11 12  2  0
 12 13  1  0
 13 14  2  0
 14 15  1  0
 15 16  2  0
 16 17  1  0
 17 18  1  0
 18 19  2  0
  7  3  1  0
 14  9  1  0
 19 15  1  0
  1 20  1  0
  1 21  1  0
  1 22  1  0
  2 23  1  6
  5 24  1  0
  5 25  1  0
  6 26  1  0
  6 27  1  0
  7 28  1  0
 10 29  1  0
 11 30  1  0
 12 31  1  0
 13 32  1  0
 16 33  1  0
 18 34  1  0
 19 35  1  0
M  END
>  <Ligand ID>  (1) 
LIG0002137

>  <Ligand>  (1) 
CHEMBL1276248

>  <SMILES>  (1) 
C[C@@H](C1=NCCN1)Oc1ccccc1c1cscc1

>  <CID>  (1) 
49836305.0

>  <ChEMBL ID>  (1) 
nan

>  <InChiKey>  (1) 
IAIZHDGEGFGNMO-NSHDSACASA-N

>  <InChi>  (1) 
InChI=1S/C15H16N2OS/c1-11(15-16-7-8-17-15)18-14-5-3-2-4-13(14)12-6-9-19-10-12/h2-6,9-11H,7-8H2,1H3,(H,16,17)/t11-/m0/s1

>  <IUPAC Name>  (1) 
2-[(1S)-1-(2-thiophen-3-ylphenoxy)ethyl]-4,5-dihydro-1H-imidazole

$$$$
