
     RDKit          3D

 55 57  0  0  0  0  0  0  0  0999 V2000
    7.4730    1.6782    0.8526 C   0  0  0  0  0  0  0  0  0  0  0  0
    6.0058    1.8871    0.5589 C   0  0  0  0  0  0  0  0  0  0  0  0
    5.2371    0.5803    0.4540 C   0  0  0  0  0  0  0  0  0  0  0  0
    3.7956    0.8465    0.1623 C   0  0  0  0  0  0  0  0  0  0  0  0
    3.3726    2.0283    0.0455 O   0  0  0  0  0  0  0  0  0  0  0  0
    2.9328   -0.2768    0.0237 N   0  0  0  0  0  0  0  0  0  0  0  0
    1.5072   -0.0417   -0.2643 C   0  0  0  0  0  0  0  0  0  0  0  0
    0.6216   -0.6749    0.7540 C   0  0  0  0  0  0  0  0  0  0  0  0
    0.7470   -2.1130    0.8740 C   0  0  0  0  0  0  0  0  0  0  0  0
    0.1795   -3.1057    0.1701 C   0  0  0  0  0  0  0  0  0  0  0  0
    0.4386   -4.3791    0.4535 C   0  0  0  0  0  0  0  0  0  0  0  0
    1.3131   -4.6405    1.4991 C   0  0  0  0  0  0  0  0  0  0  0  0
    1.7885   -2.9532    2.1077 S   0  0  0  0  0  0  0  0  0  0  0  0
   -0.7047   -0.1992    0.5852 N   0  0  0  0  0  0  0  0  0  0  0  0
   -1.7059   -0.7110    1.4415 C   0  0  0  0  0  0  0  0  0  0  0  0
   -2.9689   -0.7548    0.5645 C   0  0  0  0  0  0  0  0  0  0  0  0
   -3.2519    0.6332    0.2286 N   0  0  0  0  0  0  0  0  0  0  0  0
   -2.2524    1.6402    0.5053 C   0  0  0  0  0  0  0  0  0  0  0  0
   -0.8548    1.1462    0.1816 C   0  0  0  0  0  0  0  0  0  0  0  0
   -4.5141    0.9031   -0.3587 C   0  0  0  0  0  0  0  0  0  0  0  0
   -5.3597   -0.1557   -0.6174 C   0  0  0  0  0  0  0  0  0  0  0  0
   -6.6178    0.0539   -1.1949 C   0  0  0  0  0  0  0  0  0  0  0  0
   -7.0494    1.3258   -1.5227 C   0  0  0  0  0  0  0  0  0  0  0  0
   -6.2056    2.3926   -1.2657 C   0  0  0  0  0  0  0  0  0  0  0  0
   -4.9586    2.1623   -0.6907 C   0  0  0  0  0  0  0  0  0  0  0  0
    1.2982   -0.5580   -1.6649 C   0  0  0  0  0  0  0  0  0  0  0  0
    7.7882    2.5181    1.5272 H   0  0  0  0  0  0  0  0  0  0  0  0
    8.0318    1.8100   -0.0896 H   0  0  0  0  0  0  0  0  0  0  0  0
    7.7030    0.7099    1.3207 H   0  0  0  0  0  0  0  0  0  0  0  0
    5.8839    2.3897   -0.4454 H   0  0  0  0  0  0  0  0  0  0  0  0
    5.5416    2.5763    1.2729 H   0  0  0  0  0  0  0  0  0  0  0  0
    5.2594    0.0710    1.4532 H   0  0  0  0  0  0  0  0  0  0  0  0
    5.6838   -0.0704   -0.2964 H   0  0  0  0  0  0  0  0  0  0  0  0
    3.2298   -1.2607    0.1102 H   0  0  0  0  0  0  0  0  0  0  0  0
    1.3997    1.0592   -0.2985 H   0  0  0  0  0  0  0  0  0  0  0  0
    0.9525   -0.2277    1.7401 H   0  0  0  0  0  0  0  0  0  0  0  0
   -0.5290   -2.8392   -0.6755 H   0  0  0  0  0  0  0  0  0  0  0  0
    0.0007   -5.2400   -0.0915 H   0  0  0  0  0  0  0  0  0  0  0  0
    1.6920   -5.5415    1.9350 H   0  0  0  0  0  0  0  0  0  0  0  0
   -1.9250   -0.0187    2.2718 H   0  0  0  0  0  0  0  0  0  0  0  0
   -1.5338   -1.7275    1.7682 H   0  0  0  0  0  0  0  0  0  0  0  0
   -3.7662   -1.2418    1.1477 H   0  0  0  0  0  0  0  0  0  0  0  0
   -2.6913   -1.2861   -0.3625 H   0  0  0  0  0  0  0  0  0  0  0  0
   -2.4171    2.5591   -0.0869 H   0  0  0  0  0  0  0  0  0  0  0  0
   -2.2522    1.8795    1.6081 H   0  0  0  0  0  0  0  0  0  0  0  0
   -0.6778    1.2501   -0.8956 H   0  0  0  0  0  0  0  0  0  0  0  0
   -0.1684    1.8329    0.7356 H   0  0  0  0  0  0  0  0  0  0  0  0
   -5.1201   -1.1852   -0.4006 H   0  0  0  0  0  0  0  0  0  0  0  0
   -7.2801   -0.7563   -1.3997 H   0  0  0  0  0  0  0  0  0  0  0  0
   -8.0103    1.5356   -1.9693 H   0  0  0  0  0  0  0  0  0  0  0  0
   -6.4973    3.4048   -1.5037 H   0  0  0  0  0  0  0  0  0  0  0  0
   -4.3366    3.0243   -0.5083 H   0  0  0  0  0  0  0  0  0  0  0  0
    1.9559   -1.4179   -1.9021 H   0  0  0  0  0  0  0  0  0  0  0  0
    0.2327   -0.7623   -1.8262 H   0  0  0  0  0  0  0  0  0  0  0  0
    1.5832    0.2407   -2.3803 H   0  0  0  0  0  0  0  0  0  0  0  0
  1  2  1  0
  2  3  1  0
  3  4  1  0
  4  5  2  0
  4  6  1  0
  6  7  1  0
  7  8  1  0
  8  9  1  0
  9 10  2  0
 10 11  1  0
 11 12  2  0
 12 13  1  0
  8 14  1  0
 14 15  1  0
 15 16  1  0
 16 17  1  0
 17 18  1  0
 18 19  1  0
 17 20  1  0
 20 21  2  0
 21 22  1  0
 22 23  2  0
 23 24  1  0
 24 25  2  0
  7 26  1  0
 13  9  1  0
 19 14  1  0
 25 20  1  0
  1 27  1  0
  1 28  1  0
  1 29  1  0
  2 30  1  0
  2 31  1  0
  3 32  1  0
  3 33  1  0
  6 34  1  0
  7 35  1  0
  8 36  1  0
 10 37  1  0
 11 38  1  0
 12 39  1  0
 15 40  1  0
 15 41  1  0
 16 42  1  0
 16 43  1  0
 18 44  1  0
 18 45  1  0
 19 46  1  0
 19 47  1  0
 21 48  1  0
 22 49  1  0
 23 50  1  0
 24 51  1  0
 25 52  1  0
 26 53  1  0
 26 54  1  0
 26 55  1  0
M  END
>  <Ligand ID>  (1) 
LIG0004142

>  <Ligand>  (1) 
SMR000016588

>  <SMILES>  (1) 
CCCC(=O)NC(C(c1cccs1)N1CCN(CC1)c1ccccc1)C

>  <CID>  (1) 
3242770.0

>  <ChEMBL ID>  (1) 
nan

>  <InChiKey>  (1) 
ZPOBFBGXGLHTPU-UHFFFAOYSA-N

>  <InChi>  (1) 
InChI=1S/C21H29N3OS/c1-3-8-20(25)22-17(2)21(19-11-7-16-26-19)24-14-12-23(13-15-24)18-9-5-4-6-10-18/h4-7,9-11,16-17,21H,3,8,12-15H2,1-2H3,(H,22,25)

>  <IUPAC Name>  (1) 
N-[1-(4-phenylpiperazin-1-yl)-1-thiophen-2-ylpropan-2-yl]butanamide

$$$$
