
     RDKit          3D

 93 96  0  0  0  0  0  0  0  0999 V2000
   -2.6727    5.9617   -1.9020 N   0  0  0  0  0  0  0  0  0  0  0  0
   -3.3597    5.1592   -2.8602 C   0  0  0  0  0  0  0  0  0  0  0  0
   -2.9974    3.9204   -3.0392 N   0  0  0  0  0  0  0  0  0  0  0  0
   -1.8937    3.4113   -2.2394 C   0  0  0  0  0  0  0  0  0  0  0  0
   -1.2849    2.1649   -2.8357 C   0  0  0  0  0  0  0  0  0  0  0  0
   -0.1576    1.6247   -2.0249 C   0  0  0  0  0  0  0  0  0  0  0  0
   -0.4982    1.2380   -0.6059 C   0  0  1  0  0  0  0  0  0  0  0  0
   -1.5109    0.1964   -0.4713 C   0  0  0  0  0  0  0  0  0  0  0  0
   -1.1017   -0.9386   -0.0402 O   0  0  0  0  0  0  0  0  0  0  0  0
   -2.8785    0.2890   -0.7545 N   0  0  0  0  0  0  0  0  0  0  0  0
   -3.7762   -0.8803   -0.5732 C   0  0  2  0  0  0  0  0  0  0  0  0
   -4.3940   -1.2604   -1.8300 C   0  0  0  0  0  0  0  0  0  0  0  0
   -4.2238   -0.4803   -2.8300 O   0  0  0  0  0  0  0  0  0  0  0  0
   -5.1677   -2.4153   -2.0775 N   0  0  0  0  0  0  0  0  0  0  0  0
   -4.7409   -0.4538    0.4876 C   0  0  0  0  0  0  0  0  0  0  0  0
   -5.7757   -1.4074    0.8635 C   0  0  0  0  0  0  0  0  0  0  0  0
   -5.6647   -2.3077    1.9098 C   0  0  0  0  0  0  0  0  0  0  0  0
   -6.7837   -3.0741    1.9725 N   0  0  0  0  0  0  0  0  0  0  0  0
   -7.6346   -2.7071    0.9970 C   0  0  0  0  0  0  0  0  0  0  0  0
   -7.0185   -1.6788    0.3092 C   0  0  0  0  0  0  0  0  0  0  0  0
   -7.7196   -1.1259   -0.7362 C   0  0  0  0  0  0  0  0  0  0  0  0
   -8.9696   -1.5634   -1.0925 C   0  0  0  0  0  0  0  0  0  0  0  0
   -9.5651   -2.5933   -0.3920 C   0  0  0  0  0  0  0  0  0  0  0  0
   -8.8957   -3.1783    0.6676 C   0  0  0  0  0  0  0  0  0  0  0  0
    0.7590    0.7643    0.0425 N   0  0  0  0  0  0  0  0  0  0  0  0
    1.4464    1.5852    0.9748 C   0  0  0  0  0  0  0  0  0  0  0  0
    0.9526    2.7190    1.2272 O   0  0  0  0  0  0  0  0  0  0  0  0
    2.6871    1.1897    1.6538 C   0  0  2  0  0  0  0  0  0  0  0  0
    3.1686   -0.1285    1.3048 N   0  0  0  0  0  0  0  0  0  0  0  0
    4.4937   -0.3718    0.8106 C   0  0  0  0  0  0  0  0  0  0  0  0
    5.2753    0.6106    0.6745 O   0  0  0  0  0  0  0  0  0  0  0  0
    4.8503   -1.7548    0.4990 C   0  0  1  0  0  0  0  0  0  0  0  0
    4.0002   -2.3437   -0.6232 C   0  0  0  0  0  0  0  0  0  0  0  0
    4.1667   -1.5883   -1.8817 C   0  0  0  0  0  0  0  0  0  0  0  0
    5.1202   -1.8943   -2.8121 N   0  0  0  0  0  0  0  0  0  0  0  0
    5.0379   -1.0416   -3.8477 C   0  0  0  0  0  0  0  0  0  0  0  0
    4.0365   -0.1873   -3.5911 N   0  0  0  0  0  0  0  0  0  0  0  0
    3.5051   -0.5112   -2.4045 C   0  0  0  0  0  0  0  0  0  0  0  0
    6.2505   -1.8907    0.1029 N   0  0  0  0  0  0  0  0  0  0  0  0
    7.0639   -2.7501    0.8873 C   0  0  0  0  0  0  0  0  0  0  0  0
    6.6278   -3.3801    1.8852 O   0  0  0  0  0  0  0  0  0  0  0  0
    8.5130   -2.9448    0.5486 C   0  0  0  0  0  0  0  0  0  0  0  0
    2.5952    1.3650    3.1618 C   0  0  0  0  0  0  0  0  0  0  0  0
    3.8509    0.9632    3.8338 C   0  0  0  0  0  0  0  0  0  0  0  0
    4.0743   -0.3403    4.2893 C   0  0  0  0  0  0  0  0  0  0  0  0
    5.2824   -0.6162    4.9050 C   0  0  0  0  0  0  0  0  0  0  0  0
    6.2577    0.3611    5.0748 C   0  0  0  0  0  0  0  0  0  0  0  0
    6.0423    1.6484    4.6277 C   0  0  0  0  0  0  0  0  0  0  0  0
    4.8413    1.9349    4.0121 C   0  0  0  0  0  0  0  0  0  0  0  0
   -4.4237    5.7401   -3.5944 N   0  0  0  0  0  0  0  0  0  0  0  0
   -1.9679    6.6762   -2.1479 H   0  0  0  0  0  0  0  0  0  0  0  0
   -2.8717    5.8451   -0.8687 H   0  0  0  0  0  0  0  0  0  0  0  0
   -2.2544    3.2851   -1.2121 H   0  0  0  0  0  0  0  0  0  0  0  0
   -1.0635    4.1824   -2.2137 H   0  0  0  0  0  0  0  0  0  0  0  0
   -2.0608    1.4099   -2.9762 H   0  0  0  0  0  0  0  0  0  0  0  0
   -0.9285    2.4259   -3.8873 H   0  0  0  0  0  0  0  0  0  0  0  0
    0.6937    2.3360   -2.0669 H   0  0  0  0  0  0  0  0  0  0  0  0
    0.2073    0.7004   -2.5624 H   0  0  0  0  0  0  0  0  0  0  0  0
   -0.7671    2.1626   -0.0798 H   0  0  0  0  0  0  0  0  0  0  0  0
   -3.3042    1.1712   -1.0782 H   0  0  0  0  0  0  0  0  0  0  0  0
   -3.1517   -1.7329   -0.1873 H   0  0  0  0  0  0  0  0  0  0  0  0
   -5.7937   -2.5129   -2.9035 H   0  0  0  0  0  0  0  0  0  0  0  0
   -5.1140   -3.2177   -1.4014 H   0  0  0  0  0  0  0  0  0  0  0  0
   -5.2131    0.5308    0.1736 H   0  0  0  0  0  0  0  0  0  0  0  0
   -4.1926   -0.1475    1.4338 H   0  0  0  0  0  0  0  0  0  0  0  0
   -4.8309   -2.3965    2.5736 H   0  0  0  0  0  0  0  0  0  0  0  0
   -6.9985   -3.8440    2.6552 H   0  0  0  0  0  0  0  0  0  0  0  0
   -7.2227   -0.3141   -1.2696 H   0  0  0  0  0  0  0  0  0  0  0  0
   -9.5111   -1.1141   -1.9234 H   0  0  0  0  0  0  0  0  0  0  0  0
  -10.5422   -2.9577   -0.6495 H   0  0  0  0  0  0  0  0  0  0  0  0
   -9.3741   -3.9762    1.1999 H   0  0  0  0  0  0  0  0  0  0  0  0
    1.1288   -0.1817   -0.1908 H   0  0  0  0  0  0  0  0  0  0  0  0
    3.4798    1.9374    1.3505 H   0  0  0  0  0  0  0  0  0  0  0  0
    2.5099   -0.9232    1.4249 H   0  0  0  0  0  0  0  0  0  0  0  0
    4.7091   -2.3823    1.3917 H   0  0  0  0  0  0  0  0  0  0  0  0
    2.9265   -2.3931   -0.3013 H   0  0  0  0  0  0  0  0  0  0  0  0
    4.2941   -3.3964   -0.8109 H   0  0  0  0  0  0  0  0  0  0  0  0
    5.8218   -2.6699   -2.7559 H   0  0  0  0  0  0  0  0  0  0  0  0
    5.6314   -0.9913   -4.7523 H   0  0  0  0  0  0  0  0  0  0  0  0
    2.6965   -0.0025   -1.9519 H   0  0  0  0  0  0  0  0  0  0  0  0
    6.6232   -1.3653   -0.7334 H   0  0  0  0  0  0  0  0  0  0  0  0
    8.8021   -2.3287   -0.3302 H   0  0  0  0  0  0  0  0  0  0  0  0
    8.6925   -4.0244    0.3428 H   0  0  0  0  0  0  0  0  0  0  0  0
    9.1634   -2.6885    1.4104 H   0  0  0  0  0  0  0  0  0  0  0  0
    2.4180    2.4327    3.4010 H   0  0  0  0  0  0  0  0  0  0  0  0
    1.7526    0.7923    3.5542 H   0  0  0  0  0  0  0  0  0  0  0  0
    3.3010   -1.0860    4.1452 H   0  0  0  0  0  0  0  0  0  0  0  0
    5.4819   -1.6147    5.2680 H   0  0  0  0  0  0  0  0  0  0  0  0
    7.2085    0.1120    5.5681 H   0  0  0  0  0  0  0  0  0  0  0  0
    6.8124    2.3914    4.7706 H   0  0  0  0  0  0  0  0  0  0  0  0
    4.6988    2.9470    3.6736 H   0  0  0  0  0  0  0  0  0  0  0  0
   -5.2559    5.1393   -3.8287 H   0  0  0  0  0  0  0  0  0  0  0  0
   -4.4253    6.7453   -3.9176 H   0  0  0  0  0  0  0  0  0  0  0  0
  1  2  1  0
  2  3  2  3
  3  4  1  0
  4  5  1  0
  5  6  1  0
  6  7  1  0
  7  8  1  0
  8  9  2  0
  8 10  1  0
 10 11  1  0
 11 12  1  0
 12 13  2  0
 12 14  1  0
 11 15  1  0
 15 16  1  0
 16 17  2  0
 17 18  1  0
 18 19  1  0
 19 20  2  0
 20 21  1  0
 21 22  2  0
 22 23  1  0
 23 24  2  0
  7 25  1  0
 25 26  1  0
 26 27  2  0
 26 28  1  0
 28 29  1  0
 29 30  1  0
 30 31  2  0
 30 32  1  0
 32 33  1  0
 33 34  1  0
 34 35  1  0
 35 36  1  0
 36 37  2  0
 37 38  1  0
 32 39  1  0
 39 40  1  0
 40 41  2  0
 40 42  1  0
 28 43  1  0
 43 44  1  0
 44 45  2  0
 45 46  1  0
 46 47  2  0
 47 48  1  0
 48 49  2  0
  2 50  1  0
 20 16  1  0
 38 34  2  0
 49 44  1  0
 24 19  1  0
  1 51  1  0
  1 52  1  0
  4 53  1  0
  4 54  1  0
  5 55  1  0
  5 56  1  0
  6 57  1  0
  6 58  1  0
  7 59  1  1
 10 60  1  0
 11 61  1  1
 14 62  1  0
 14 63  1  0
 15 64  1  0
 15 65  1  0
 17 66  1  0
 18 67  1  0
 21 68  1  0
 22 69  1  0
 23 70  1  0
 24 71  1  0
 25 72  1  0
 28 73  1  6
 29 74  1  0
 32 75  1  1
 33 76  1  0
 33 77  1  0
 35 78  1  0
 36 79  1  0
 38 80  1  0
 39 81  1  0
 42 82  1  0
 42 83  1  0
 42 84  1  0
 43 85  1  0
 43 86  1  0
 45 87  1  0
 46 88  1  0
 47 89  1  0
 48 90  1  0
 49 91  1  0
 50 92  1  0
 50 93  1  0
M  END
>  <Ligand ID>  (1) 
LIG0001456

>  <Ligand>  (1) 
CHEMBL94391

>  <SMILES>  (1) 
NC(=NCCC[C@@H](C(=O)N[C@H](C(=O)N)Cc1c[nH]c2c1cccc2)NC(=O)[C@H](NC(=O)[C@@H](Cc1[nH]cnc1)NC(=O)C)Cc1ccccc1)N

>  <CID>  (1) 
11050721.0

>  <ChEMBL ID>  (1) 
nan

>  <InChiKey>  (1) 
DFCJPPDAOZROBS-QUAHOIDUSA-N

>  <InChi>  (1) 
InChI=1S/C34H43N11O5/c1-20(46)42-29(16-23-18-38-19-41-23)33(50)45-28(14-21-8-3-2-4-9-21)32(49)43-26(12-7-13-39-34(36)37)31(48)44-27(30(35)47)15-22-17-40-25-11-6-5-10-24(22)25/h2-6,8-11,17-19,26-29,40H,7,12-16H2,1H3,(H2,35,47)(H,38,41)(H,42,46)(H,43,49)(H,44,48)(H,45,50)(H4,36,37,39)/t26-,27-,28+,29+/m0/s1

>  <IUPAC Name>  (1) 
(2S)-2-[[(2R)-2-[[(2R)-2-acetamido-3-(1H-imidazol-5-yl)propanoyl]amino]-3-phenylpropanoyl]amino]-N-[(2S)-1-amino-3-(1H-indol-3-yl)-1-oxopropan-2-yl]-5-(diaminomethylideneamino)pentanamide

$$$$
