
     RDKit          3D

 72 74  0  0  0  0  0  0  0  0999 V2000
   -7.9736    3.3054    0.4071 O   0  0  0  0  0  0  0  0  0  0  0  0
   -7.9905    2.9737    1.7380 C   0  0  0  0  0  0  0  0  0  0  0  0
   -7.6967    3.9047    2.5573 O   0  0  0  0  0  0  0  0  0  0  0  0
   -8.3111    1.6652    2.3057 C   0  0  0  0  0  0  0  0  0  0  0  0
   -8.5763    0.5980    1.2870 C   0  0  2  0  0  0  0  0  0  0  0  0
   -8.9043   -0.6993    2.0571 C   0  0  0  0  0  0  0  0  0  0  0  0
   -7.6092   -1.0145    2.5574 O   0  0  0  0  0  0  0  0  0  0  0  0
   -6.6825   -0.7990    1.5136 C   0  0  0  0  0  0  0  0  0  0  0  0
   -7.2499    0.1868    0.7084 C   0  0  0  0  0  0  0  0  0  0  0  0
   -6.5121    0.5630   -0.3914 C   0  0  0  0  0  0  0  0  0  0  0  0
   -5.2783    0.0074   -0.6955 C   0  0  0  0  0  0  0  0  0  0  0  0
   -4.7386   -0.9717    0.1251 C   0  0  0  0  0  0  0  0  0  0  0  0
   -5.4577   -1.3671    1.2336 C   0  0  0  0  0  0  0  0  0  0  0  0
   -3.5008   -1.5333   -0.1740 O   0  0  0  0  0  0  0  0  0  0  0  0
   -2.8531   -1.0541   -1.3330 C   0  0  0  0  0  0  0  0  0  0  0  0
   -1.5375   -1.7045   -1.5802 C   0  0  0  0  0  0  0  0  0  0  0  0
   -1.3996   -2.8529   -2.3337 C   0  0  0  0  0  0  0  0  0  0  0  0
   -0.1419   -3.3992   -2.5195 C   0  0  0  0  0  0  0  0  0  0  0  0
    0.9689   -2.7923   -1.9499 C   0  0  0  0  0  0  0  0  0  0  0  0
    0.8382   -1.6443   -1.1956 C   0  0  0  0  0  0  0  0  0  0  0  0
   -0.4258   -1.1164   -1.0232 C   0  0  0  0  0  0  0  0  0  0  0  0
    1.9689   -0.9642   -0.5741 C   0  0  0  0  0  0  0  0  0  0  0  0
    2.6112    0.0079   -1.3073 C   0  0  0  0  0  0  0  0  0  0  0  0
    2.1354    0.3298   -2.6957 C   0  0  0  0  0  0  0  0  0  0  0  0
    3.6967    0.6898   -0.7634 C   0  0  0  0  0  0  0  0  0  0  0  0
    4.1823    0.4468    0.4941 C   0  0  0  0  0  0  0  0  0  0  0  0
    3.5017   -0.5527    1.2154 C   0  0  0  0  0  0  0  0  0  0  0  0
    2.4305   -1.2277    0.6835 C   0  0  0  0  0  0  0  0  0  0  0  0
    1.7184   -2.2913    1.4699 C   0  0  0  0  0  0  0  0  0  0  0  0
    5.2224    1.0416    1.1152 O   0  0  0  0  0  0  0  0  0  0  0  0
    6.0875    2.0225    0.6681 C   0  0  0  0  0  0  0  0  0  0  0  0
    6.9353    1.6380   -0.4967 C   0  0  0  0  0  0  0  0  0  0  0  0
    7.8017    0.4373   -0.1717 C   0  0  0  0  0  0  0  0  0  0  0  0
    8.9057    0.6832    1.1641 S   0  0  0  0  0  0  0  0  0  0  0  0
    9.7792   -0.5669    1.2421 O   0  0  0  0  0  0  0  0  0  0  0  0
    8.2043    0.8355    2.4585 O   0  0  0  0  0  0  0  0  0  0  0  0
   10.0283    2.0223    0.8569 C   0  0  0  0  0  0  0  0  0  0  0  0
   -0.0021    0.3978   -0.0000 O   0  0  0  0  0  0  0  0  0  0  0  0
   -7.2188    3.8903    0.0220 H   0  0  0  0  0  0  0  0  0  0  0  0
   -7.4365    1.3093    2.9153 H   0  0  0  0  0  0  0  0  0  0  0  0
   -9.1537    1.7005    3.0278 H   0  0  0  0  0  0  0  0  0  0  0  0
   -9.3248    0.8331    0.5323 H   0  0  0  0  0  0  0  0  0  0  0  0
   -9.5650   -0.5267    2.9054 H   0  0  0  0  0  0  0  0  0  0  0  0
   -9.2052   -1.5120    1.3769 H   0  0  0  0  0  0  0  0  0  0  0  0
   -6.8704    1.3160   -1.0776 H   0  0  0  0  0  0  0  0  0  0  0  0
   -4.7341    0.3462   -1.5864 H   0  0  0  0  0  0  0  0  0  0  0  0
   -5.0742   -2.1252    1.8971 H   0  0  0  0  0  0  0  0  0  0  0  0
   -3.5261   -1.1657   -2.2334 H   0  0  0  0  0  0  0  0  0  0  0  0
   -2.7307    0.0471   -1.1989 H   0  0  0  0  0  0  0  0  0  0  0  0
   -2.2796   -3.3156   -2.7728 H   0  0  0  0  0  0  0  0  0  0  0  0
   -0.0477   -4.2829   -3.1012 H   0  0  0  0  0  0  0  0  0  0  0  0
    1.9669   -3.1851   -2.0697 H   0  0  0  0  0  0  0  0  0  0  0  0
   -0.5259   -0.2085   -0.4265 H   0  0  0  0  0  0  0  0  0  0  0  0
    1.2350    0.9437   -2.7085 H   0  0  0  0  0  0  0  0  0  0  0  0
    2.9797    0.8218   -3.2364 H   0  0  0  0  0  0  0  0  0  0  0  0
    1.9890   -0.6616   -3.2074 H   0  0  0  0  0  0  0  0  0  0  0  0
    4.1331    1.4446   -1.3923 H   0  0  0  0  0  0  0  0  0  0  0  0
    3.8221   -0.8057    2.2189 H   0  0  0  0  0  0  0  0  0  0  0  0
    2.3212   -2.4990    2.3795 H   0  0  0  0  0  0  0  0  0  0  0  0
    0.6873   -1.9870    1.7150 H   0  0  0  0  0  0  0  0  0  0  0  0
    1.7359   -3.2277    0.8642 H   0  0  0  0  0  0  0  0  0  0  0  0
    6.7246    2.3503    1.5438 H   0  0  0  0  0  0  0  0  0  0  0  0
    5.4778    2.9473    0.4338 H   0  0  0  0  0  0  0  0  0  0  0  0
    6.4129    1.3835   -1.4271 H   0  0  0  0  0  0  0  0  0  0  0  0
    7.5667    2.5286   -0.7452 H   0  0  0  0  0  0  0  0  0  0  0  0
    7.1253   -0.3979    0.0538 H   0  0  0  0  0  0  0  0  0  0  0  0
    8.4066    0.2588   -1.0949 H   0  0  0  0  0  0  0  0  0  0  0  0
   10.3417    2.4915    1.8298 H   0  0  0  0  0  0  0  0  0  0  0  0
    9.6166    2.8070    0.2149 H   0  0  0  0  0  0  0  0  0  0  0  0
   10.9734    1.6736    0.3831 H   0  0  0  0  0  0  0  0  0  0  0  0
    0.7943   -0.1982    0.0000 H   0  0  0  0  0  0  0  0  0  0  0  0
   -0.7922   -0.1997   -0.0000 H   0  0  0  0  0  0  0  0  0  0  0  0
  1  2  1  0
  2  3  2  0
  2  4  1  0
  4  5  1  0
  5  6  1  0
  6  7  1  0
  7  8  1  0
  8  9  2  0
  9 10  1  0
 10 11  2  0
 11 12  1  0
 12 13  2  0
 12 14  1  0
 14 15  1  0
 15 16  1  0
 16 17  2  0
 17 18  1  0
 18 19  2  0
 19 20  1  0
 20 21  2  0
 20 22  1  0
 22 23  2  0
 23 24  1  0
 23 25  1  0
 25 26  2  0
 26 27  1  0
 27 28  2  0
 28 29  1  0
 26 30  1  0
 30 31  1  0
 31 32  1  0
 32 33  1  0
 33 34  1  0
 34 35  2  0
 34 36  2  0
 34 37  1  0
  9  5  1  0
 21 16  1  0
 28 22  1  0
 13  8  1  0
  1 39  1  0
  4 40  1  0
  4 41  1  0
  5 42  1  6
  6 43  1  0
  6 44  1  0
 10 45  1  0
 11 46  1  0
 13 47  1  0
 15 48  1  0
 15 49  1  0
 17 50  1  0
 18 51  1  0
 19 52  1  0
 21 53  1  0
 24 54  1  0
 24 55  1  0
 24 56  1  0
 25 57  1  0
 27 58  1  0
 29 59  1  0
 29 60  1  0
 29 61  1  0
 31 62  1  0
 31 63  1  0
 32 64  1  0
 32 65  1  0
 33 66  1  0
 33 67  1  0
 37 68  1  0
 37 69  1  0
 37 70  1  0
 38 71  1  0
 38 72  1  0
M  END
>  <Ligand ID>  (1) 
LIG0000955

>  <Ligand>  (1) 
CHEMBL2047159

>  <SMILES>  (1) 
OC(=O)C[C@@H]1COc2c1ccc(c2)OCc1cccc(c1)c1c(C)cc(cc1C)OCCCS(=O)(=O)C.O

>  <CID>  (1) 
46869922.0

>  <ChEMBL ID>  (1) 
nan

>  <InChiKey>  (1) 
FOFXXEHXOCAJIW-GNAFDRTKSA-N

>  <InChi>  (1) 
InChI=1S/C29H32O7S.H2O/c1-19-12-25(34-10-5-11-37(3,32)33)13-20(2)29(19)22-7-4-6-21(14-22)17-35-24-8-9-26-23(15-28(30)31)18-36-27(26)16-24;/h4,6-9,12-14,16,23H,5,10-11,15,17-18H2,1-3H3,(H,30,31);1H2/t23-;/m1./s1

>  <IUPAC Name>  (1) 
2-[(3S)-6-[[3-[2,6-dimethyl-4-(3-methylsulfonylpropoxy)phenyl]phenyl]methoxy]-2,3-dihydro-1-benzofuran-3-yl]acetic acid;hydrate

$$$$
