
     RDKit          3D

143147  0  0  0  0  0  0  0  0999 V2000
    9.3939    0.7927   -0.6350 C   0  0  0  0  0  0  0  0  0  0  0  0
    9.8579   -0.6145   -0.2739 C   0  0  0  0  0  0  0  0  0  0  0  0
    8.7667   -1.3118    0.4963 C   0  0  0  0  0  0  0  0  0  0  0  0
    8.4462   -0.5755    1.7743 C   0  0  0  0  0  0  0  0  0  0  0  0
    7.3411   -1.2905    2.5403 C   0  0  1  0  0  0  0  0  0  0  0  0
    6.0967   -1.3625    1.7064 C   0  0  0  0  0  0  0  0  0  0  0  0
    5.7166   -2.4311    1.1699 O   0  0  0  0  0  0  0  0  0  0  0  0
    5.2971   -0.2064    1.5042 N   0  0  0  0  0  0  0  0  0  0  0  0
    4.1009   -0.4306    0.6499 C   0  0  1  0  0  0  0  0  0  0  0  0
    2.9472   -0.8651    1.5444 C   0  0  0  0  0  0  0  0  0  0  0  0
    1.8453   -1.4901    0.7709 C   0  0  0  0  0  0  0  0  0  0  0  0
    1.9481   -1.8560   -0.4183 O   0  0  0  0  0  0  0  0  0  0  0  0
    0.5566   -1.7291    1.3346 N   0  0  0  0  0  0  0  0  0  0  0  0
   -0.5378   -2.3451    0.6366 C   0  0  0  0  0  0  0  0  0  0  0  0
   -0.1977   -3.7695    0.2113 C   0  0  0  0  0  0  0  0  0  0  0  0
   -1.4152   -4.3850   -0.4001 C   0  0  0  0  0  0  0  0  0  0  0  0
   -1.9097   -3.7590   -1.6549 C   0  0  0  0  0  0  0  0  0  0  0  0
   -3.3780   -4.2447   -1.9181 C   0  0  2  0  0  0  0  0  0  0  0  0
   -4.0669   -3.7207   -0.7122 N   0  0  0  0  0  0  0  0  0  0  0  0
   -4.6433   -2.3964   -0.7717 C   0  0  0  0  0  0  0  0  0  0  0  0
   -4.5988   -1.8719   -1.8900 O   0  0  0  0  0  0  0  0  0  0  0  0
   -5.2256   -1.7503    0.4510 C   0  0  1  0  0  0  0  0  0  0  0  0
   -5.3248   -0.2939    0.0831 N   0  0  0  0  0  0  0  0  0  0  0  0
   -4.1296    0.4254   -0.0700 C   0  0  0  0  0  0  0  0  0  0  0  0
   -3.0846   -0.2988    0.1774 O   0  0  0  0  0  0  0  0  0  0  0  0
   -3.8594    1.7891   -0.4438 C   0  0  1  0  0  0  0  0  0  0  0  0
   -2.3757    2.0669   -0.3848 N   0  0  0  0  0  0  0  0  0  0  0  0
   -1.9130    3.3556   -0.0075 C   0  0  0  0  0  0  0  0  0  0  0  0
   -2.8671    4.1510    0.2819 O   0  0  0  0  0  0  0  0  0  0  0  0
   -0.5732    3.8657    0.0869 C   0  0  2  0  0  0  0  0  0  0  0  0
    0.5426    2.9872   -0.1406 N   0  0  0  0  0  0  0  0  0  0  0  0
    1.5869    3.3338   -1.0700 C   0  0  0  0  0  0  0  0  0  0  0  0
    1.3740    4.4627   -1.6254 O   0  0  0  0  0  0  0  0  0  0  0  0
    2.7672    2.6230   -1.4303 C   0  0  1  0  0  0  0  0  0  0  0  0
    2.8429    1.3105   -0.8322 N   0  0  0  0  0  0  0  0  0  0  0  0
    3.8926    0.8766    0.0126 C   0  0  0  0  0  0  0  0  0  0  0  0
    4.7622    1.7593    0.2382 O   0  0  0  0  0  0  0  0  0  0  0  0
    3.1629    2.5956   -2.8859 C   0  0  0  0  0  0  0  0  0  0  0  0
    3.4352    3.9142   -3.4732 C   0  0  0  0  0  0  0  0  0  0  0  0
    4.6673    4.4834   -3.4567 N   0  0  0  0  0  0  0  0  0  0  0  0
    4.6118    5.7011   -4.0657 C   0  0  0  0  0  0  0  0  0  0  0  0
    3.3623    5.8993   -4.4643 N   0  0  0  0  0  0  0  0  0  0  0  0
    2.6284    4.8226   -4.1122 C   0  0  0  0  0  0  0  0  0  0  0  0
   -0.3132    4.6250    1.3915 C   0  0  0  0  0  0  0  0  0  0  0  0
    1.0514    5.1735    1.4714 C   0  0  0  0  0  0  0  0  0  0  0  0
    2.1174    4.5225    2.0728 C   0  0  0  0  0  0  0  0  0  0  0  0
    3.3760    5.1104    2.0661 C   0  0  0  0  0  0  0  0  0  0  0  0
    3.5767    6.3618    1.4535 C   0  0  0  0  0  0  0  0  0  0  0  0
    2.5124    7.0187    0.8505 C   0  0  0  0  0  0  0  0  0  0  0  0
    1.2782    6.4040    0.8768 C   0  0  0  0  0  0  0  0  0  0  0  0
   -4.3330    2.2497   -1.7791 C   0  0  0  0  0  0  0  0  0  0  0  0
   -5.8074    2.1680   -1.9388 C   0  0  0  0  0  0  0  0  0  0  0  0
   -6.5210    2.9502   -0.8431 C   0  0  0  0  0  0  0  0  0  0  0  0
   -6.0412    4.3251   -0.8983 N   0  0  0  0  0  0  0  0  0  0  0  0
   -6.7689    5.2835   -1.3913 C   0  0  0  0  0  0  0  0  0  0  0  0
   -6.2883    6.6412   -1.4367 N   0  0  0  0  0  0  0  0  0  0  0  0
   -8.0712    5.0700   -1.9171 N   0  0  0  0  0  0  0  0  0  0  0  0
   -6.4825   -2.2514    0.9666 C   0  0  0  0  0  0  0  0  0  0  0  0
   -6.5960   -3.6534    1.3652 C   0  0  0  0  0  0  0  0  0  0  0  0
   -6.4576   -4.1914    2.6468 C   0  0  0  0  0  0  0  0  0  0  0  0
   -6.6192   -5.5228    2.6204 N   0  0  0  0  0  0  0  0  0  0  0  0
   -6.8649   -5.9159    1.3622 C   0  0  0  0  0  0  0  0  0  0  0  0
   -6.8547   -4.7905    0.5813 C   0  0  0  0  0  0  0  0  0  0  0  0
   -7.0904   -4.9090   -0.7709 C   0  0  0  0  0  0  0  0  0  0  0  0
   -7.3383   -6.1698   -1.3541 C   0  0  0  0  0  0  0  0  0  0  0  0
   -7.3449   -7.2939   -0.5599 C   0  0  0  0  0  0  0  0  0  0  0  0
   -7.1089   -7.1639    0.7936 C   0  0  0  0  0  0  0  0  0  0  0  0
   -3.4220   -5.6793   -2.0412 C   0  0  0  0  0  0  0  0  0  0  0  0
   -2.8684   -6.2344   -3.0417 O   0  0  0  0  0  0  0  0  0  0  0  0
   -4.0765   -6.4825   -1.0557 N   0  0  0  0  0  0  0  0  0  0  0  0
    7.8091   -2.6179    2.8602 N   0  0  0  0  0  0  0  0  0  0  0  0
    7.8705   -2.9588    4.2452 C   0  0  0  0  0  0  0  0  0  0  0  0
    7.5197   -2.1077    5.1366 O   0  0  0  0  0  0  0  0  0  0  0  0
    8.3309   -4.2935    4.7263 C   0  0  0  0  0  0  0  0  0  0  0  0
    9.7375    1.4754    0.1420 H   0  0  0  0  0  0  0  0  0  0  0  0
    8.2801    0.7662   -0.6769 H   0  0  0  0  0  0  0  0  0  0  0  0
    9.7768    1.0680   -1.6231 H   0  0  0  0  0  0  0  0  0  0  0  0
   10.0028   -1.1507   -1.2310 H   0  0  0  0  0  0  0  0  0  0  0  0
   10.8074   -0.5131    0.2958 H   0  0  0  0  0  0  0  0  0  0  0  0
    9.1291   -2.3582    0.7065 H   0  0  0  0  0  0  0  0  0  0  0  0
    7.8710   -1.3468   -0.1775 H   0  0  0  0  0  0  0  0  0  0  0  0
    8.2103    0.4632    1.5525 H   0  0  0  0  0  0  0  0  0  0  0  0
    9.3775   -0.5736    2.3770 H   0  0  0  0  0  0  0  0  0  0  0  0
    7.1553   -0.7375    3.4663 H   0  0  0  0  0  0  0  0  0  0  0  0
    5.5068    0.7326    1.9073 H   0  0  0  0  0  0  0  0  0  0  0  0
    4.2934   -1.2283   -0.0363 H   0  0  0  0  0  0  0  0  0  0  0  0
    2.5589    0.0534    2.0300 H   0  0  0  0  0  0  0  0  0  0  0  0
    3.3280   -1.5288    2.3487 H   0  0  0  0  0  0  0  0  0  0  0  0
    0.4447   -1.4315    2.3054 H   0  0  0  0  0  0  0  0  0  0  0  0
   -1.4274   -2.3268    1.2834 H   0  0  0  0  0  0  0  0  0  0  0  0
   -0.6668   -1.7701   -0.3147 H   0  0  0  0  0  0  0  0  0  0  0  0
    0.1928   -4.3713    1.0643 H   0  0  0  0  0  0  0  0  0  0  0  0
    0.5971   -3.7028   -0.5450 H   0  0  0  0  0  0  0  0  0  0  0  0
   -2.2085   -4.3679    0.3886 H   0  0  0  0  0  0  0  0  0  0  0  0
   -1.2204   -5.4880   -0.5723 H   0  0  0  0  0  0  0  0  0  0  0  0
   -1.9750   -2.6804   -1.6879 H   0  0  0  0  0  0  0  0  0  0  0  0
   -1.3312   -4.1266   -2.5117 H   0  0  0  0  0  0  0  0  0  0  0  0
   -3.7329   -3.7258   -2.8117 H   0  0  0  0  0  0  0  0  0  0  0  0
   -4.1627   -4.1961    0.1591 H   0  0  0  0  0  0  0  0  0  0  0  0
   -4.3932   -1.7589    1.2130 H   0  0  0  0  0  0  0  0  0  0  0  0
   -6.2026    0.1605   -0.0177 H   0  0  0  0  0  0  0  0  0  0  0  0
   -4.2820    2.5139    0.3109 H   0  0  0  0  0  0  0  0  0  0  0  0
   -1.6799    1.3703   -0.5967 H   0  0  0  0  0  0  0  0  0  0  0  0
   -0.5395    4.7400   -0.6711 H   0  0  0  0  0  0  0  0  0  0  0  0
    0.6864    2.0805    0.3073 H   0  0  0  0  0  0  0  0  0  0  0  0
    3.6587    3.1708   -0.9271 H   0  0  0  0  0  0  0  0  0  0  0  0
    2.0956    0.6534   -1.0199 H   0  0  0  0  0  0  0  0  0  0  0  0
    2.3182    2.1522   -3.4508 H   0  0  0  0  0  0  0  0  0  0  0  0
    4.0156    1.8898   -3.0150 H   0  0  0  0  0  0  0  0  0  0  0  0
    5.5343    4.0570   -3.0364 H   0  0  0  0  0  0  0  0  0  0  0  0
    5.4349    6.3860   -4.2060 H   0  0  0  0  0  0  0  0  0  0  0  0
    1.5654    4.6938   -4.3148 H   0  0  0  0  0  0  0  0  0  0  0  0
   -0.5217    3.9925    2.2688 H   0  0  0  0  0  0  0  0  0  0  0  0
   -1.0356    5.4732    1.3995 H   0  0  0  0  0  0  0  0  0  0  0  0
    1.9393    3.5451    2.5530 H   0  0  0  0  0  0  0  0  0  0  0  0
    4.2126    4.5914    2.5508 H   0  0  0  0  0  0  0  0  0  0  0  0
    4.5695    6.7926    1.4661 H   0  0  0  0  0  0  0  0  0  0  0  0
    2.6523    7.9868    0.3623 H   0  0  0  0  0  0  0  0  0  0  0  0
    0.4651    6.9538    0.3852 H   0  0  0  0  0  0  0  0  0  0  0  0
   -4.0651    3.3275   -1.8958 H   0  0  0  0  0  0  0  0  0  0  0  0
   -3.8534    1.6752   -2.6095 H   0  0  0  0  0  0  0  0  0  0  0  0
   -6.1185    2.7088   -2.9047 H   0  0  0  0  0  0  0  0  0  0  0  0
   -6.2426    1.1743   -2.0051 H   0  0  0  0  0  0  0  0  0  0  0  0
   -7.6105    2.9900   -1.0777 H   0  0  0  0  0  0  0  0  0  0  0  0
   -6.4400    2.5001    0.1437 H   0  0  0  0  0  0  0  0  0  0  0  0
   -6.9008    7.4653   -1.3056 H   0  0  0  0  0  0  0  0  0  0  0  0
   -5.2555    6.8444   -1.6138 H   0  0  0  0  0  0  0  0  0  0  0  0
   -8.2066    4.7493   -2.9126 H   0  0  0  0  0  0  0  0  0  0  0  0
   -8.8730    5.2447   -1.2729 H   0  0  0  0  0  0  0  0  0  0  0  0
   -6.8204   -1.6580    1.8818 H   0  0  0  0  0  0  0  0  0  0  0  0
   -7.3404   -2.0412    0.2499 H   0  0  0  0  0  0  0  0  0  0  0  0
   -6.2492   -3.6436    3.5720 H   0  0  0  0  0  0  0  0  0  0  0  0
   -6.5532   -6.1621    3.4696 H   0  0  0  0  0  0  0  0  0  0  0  0
   -7.0865   -4.0377   -1.4083 H   0  0  0  0  0  0  0  0  0  0  0  0
   -7.5135   -6.2107   -2.4310 H   0  0  0  0  0  0  0  0  0  0  0  0
   -7.5358   -8.2712   -0.9984 H   0  0  0  0  0  0  0  0  0  0  0  0
   -7.1093   -8.0283    1.4302 H   0  0  0  0  0  0  0  0  0  0  0  0
   -4.1644   -6.2067   -0.0568 H   0  0  0  0  0  0  0  0  0  0  0  0
   -4.4729   -7.4015   -1.4020 H   0  0  0  0  0  0  0  0  0  0  0  0
    8.1091   -3.3389    2.1852 H   0  0  0  0  0  0  0  0  0  0  0  0
    8.1156   -4.4131    5.8004 H   0  0  0  0  0  0  0  0  0  0  0  0
    7.7170   -5.0900    4.2129 H   0  0  0  0  0  0  0  0  0  0  0  0
    9.4084   -4.4411    4.5563 H   0  0  0  0  0  0  0  0  0  0  0  0
  1  2  1  0
  2  3  1  0
  3  4  1  0
  4  5  1  0
  5  6  1  0
  6  7  2  0
  6  8  1  0
  8  9  1  0
  9 10  1  0
 10 11  1  0
 11 12  2  0
 11 13  1  0
 13 14  1  0
 14 15  1  0
 15 16  1  0
 16 17  1  0
 17 18  1  0
 18 19  1  0
 19 20  1  0
 20 21  2  0
 20 22  1  0
 22 23  1  0
 23 24  1  0
 24 25  2  0
 24 26  1  0
 26 27  1  0
 27 28  1  0
 28 29  2  0
 28 30  1  0
 30 31  1  0
 31 32  1  0
 32 33  2  0
 32 34  1  0
 34 35  1  0
 35 36  1  0
 36 37  2  0
 34 38  1  0
 38 39  1  0
 39 40  1  0
 40 41  1  0
 41 42  2  0
 42 43  1  0
 30 44  1  0
 44 45  1  0
 45 46  2  0
 46 47  1  0
 47 48  2  0
 48 49  1  0
 49 50  2  0
 26 51  1  0
 51 52  1  0
 52 53  1  0
 53 54  1  0
 54 55  2  3
 55 56  1  0
 55 57  1  0
 22 58  1  0
 58 59  1  0
 59 60  2  0
 60 61  1  0
 61 62  1  0
 62 63  2  0
 63 64  1  0
 64 65  2  0
 65 66  1  0
 66 67  2  0
 18 68  1  0
 68 69  2  0
 68 70  1  0
  5 71  1  0
 71 72  1  0
 72 73  2  0
 72 74  1  0
 36  9  1  0
 43 39  2  0
 50 45  1  0
 63 59  1  0
 67 62  1  0
  1 75  1  0
  1 76  1  0
  1 77  1  0
  2 78  1  0
  2 79  1  0
  3 80  1  0
  3 81  1  0
  4 82  1  0
  4 83  1  0
  5 84  1  1
  8 85  1  0
  9 86  1  6
 10 87  1  0
 10 88  1  0
 13 89  1  0
 14 90  1  0
 14 91  1  0
 15 92  1  0
 15 93  1  0
 16 94  1  0
 16 95  1  0
 17 96  1  0
 17 97  1  0
 18 98  1  6
 19 99  1  0
 22100  1  1
 23101  1  0
 26102  1  1
 27103  1  0
 30104  1  6
 31105  1  0
 34106  1  1
 35107  1  0
 38108  1  0
 38109  1  0
 40110  1  0
 41111  1  0
 43112  1  0
 44113  1  0
 44114  1  0
 46115  1  0
 47116  1  0
 48117  1  0
 49118  1  0
 50119  1  0
 51120  1  0
 51121  1  0
 52122  1  0
 52123  1  0
 53124  1  0
 53125  1  0
 56126  1  0
 56127  1  0
 57128  1  0
 57129  1  0
 58130  1  0
 58131  1  0
 60132  1  0
 61133  1  0
 64134  1  0
 65135  1  0
 66136  1  0
 67137  1  0
 70138  1  0
 70139  1  0
 71140  1  0
 74141  1  0
 74142  1  0
 74143  1  0
M  END
>  <Ligand ID>  (1) 
LIG0000513

>  <Ligand>  (1) 
MT-II

>  <SMILES>  (1) 
CCCC[C@@H](C(=O)N[C@H]1CC(=O)NCCCC[C@H](NC(=O)[C@@H](NC(=O)[C@@H](NC(=O)[C@H](NC(=O)[C@@H](NC1=O)Cc1[nH]cnc1)Cc1ccccc1)CCCN=C(N)N)Cc1c[nH]c2c1cccc2)C(=O)N)NC(=O)C

>  <CID>  (1) 
92432.0

>  <ChEMBL ID>  (1) 
nan

>  <InChiKey>  (1) 
JDKLPDJLXHXHNV-MFVUMRCOSA-N

>  <InChi>  (1) 
InChI=1S/C50H69N15O9/c1-3-4-16-36(59-29(2)66)44(69)65-41-25-42(67)55-20-11-10-18-35(43(51)68)60-47(72)39(23-31-26-57-34-17-9-8-15-33(31)34)63-45(70)37(19-12-21-56-50(52)53)61-46(71)38(22-30-13-6-5-7-14-30)62-48(73)40(64-49(41)74)24-32-27-54-28-58-32/h5-9,13-15,17,26-28,35-41,57H,3-4,10-12,16,18-25H2,1-2H3,(H2,51,68)(H,54,58)(H,55,67)(H,59,66)(H,60,72)(H,61,71)(H,62,73)(H,63,70)(H,64,74)(H,65,69)(H4,52,53,56)/t35-,36-,37-,38+,39-,40-,41-/m0/s1

>  <IUPAC Name>  (1) 
(3S,6S,9R,12S,15S,23S)-15-[[(2S)-2-acetamidohexanoyl]amino]-9-benzyl-6-[3-(diaminomethylideneamino)propyl]-12-(1H-imidazol-5-ylmethyl)-3-(1H-indol-3-ylmethyl)-2,5,8,11,14,17-hexaoxo-1,4,7,10,13,18-hexazacyclotricosane-23-carboxamide

$$$$
