
     RDKit          3D

 42 43  0  0  0  0  0  0  0  0999 V2000
   -4.5594    1.8688    0.8806 C   0  0  0  0  0  0  0  0  0  0  0  0
   -3.5411    1.1110    0.0174 C   0  0  0  0  0  0  0  0  0  0  0  0
   -3.5546   -0.3281    0.3840 C   0  0  0  0  0  0  0  0  0  0  0  0
   -2.6424   -1.1703   -0.3510 N   0  0  0  0  0  0  0  0  0  0  0  0
   -1.2269   -0.8915   -0.2667 C   0  0  0  0  0  0  0  0  0  0  0  0
   -0.9445    0.0830    0.4627 O   0  0  0  0  0  0  0  0  0  0  0  0
   -0.2685   -1.7094   -0.9902 C   0  0  0  0  0  0  0  0  0  0  0  0
   -0.7007   -2.7634   -1.7677 C   0  0  0  0  0  0  0  0  0  0  0  0
    0.1741   -3.5798   -2.4824 C   0  0  0  0  0  0  0  0  0  0  0  0
    1.5259   -3.3439   -2.4250 C   0  0  0  0  0  0  0  0  0  0  0  0
    1.9542   -2.2972   -1.6527 C   0  0  0  0  0  0  0  0  0  0  0  0
    1.0843   -1.4713   -0.9311 C   0  0  0  0  0  0  0  0  0  0  0  0
    1.6707   -0.4214   -0.1710 N   0  0  0  0  0  0  0  0  0  0  0  0
    3.1218   -0.2740   -0.1915 C   0  0  0  0  0  0  0  0  0  0  0  0
    3.5771    0.8567    0.6435 C   0  0  0  0  0  0  0  0  0  0  0  0
    4.2420    1.8845    0.2211 N   0  0  0  0  0  0  0  0  0  0  0  0
    4.5098    2.7761    1.3084 C   0  0  0  0  0  0  0  0  0  0  0  0
    4.1504    2.0291    2.5786 C   0  0  0  0  0  0  0  0  0  0  0  0
    3.3355    0.9554    2.0404 N   0  0  0  0  0  0  0  0  0  0  0  0
   -4.0199    1.2922   -1.4242 C   0  0  0  0  0  0  0  0  0  0  0  0
   -4.2186    2.8926    1.0927 H   0  0  0  0  0  0  0  0  0  0  0  0
   -4.6905    1.2720    1.8303 H   0  0  0  0  0  0  0  0  0  0  0  0
   -5.5492    1.8073    0.3807 H   0  0  0  0  0  0  0  0  0  0  0  0
   -2.6052    1.6493    0.1179 H   0  0  0  0  0  0  0  0  0  0  0  0
   -4.5816   -0.7008    0.2167 H   0  0  0  0  0  0  0  0  0  0  0  0
   -3.3941   -0.3857    1.4826 H   0  0  0  0  0  0  0  0  0  0  0  0
   -3.0292   -1.9493   -0.9169 H   0  0  0  0  0  0  0  0  0  0  0  0
   -1.7481   -3.0374   -1.8831 H   0  0  0  0  0  0  0  0  0  0  0  0
   -0.1704   -4.3936   -3.0817 H   0  0  0  0  0  0  0  0  0  0  0  0
    2.1971   -3.9730   -2.9754 H   0  0  0  0  0  0  0  0  0  0  0  0
    3.0382   -2.1352   -1.6277 H   0  0  0  0  0  0  0  0  0  0  0  0
    1.1713    0.2623    0.4058 H   0  0  0  0  0  0  0  0  0  0  0  0
    3.6078   -1.2286    0.1278 H   0  0  0  0  0  0  0  0  0  0  0  0
    3.4135   -0.1119   -1.2516 H   0  0  0  0  0  0  0  0  0  0  0  0
    3.8904    3.7087    1.2663 H   0  0  0  0  0  0  0  0  0  0  0  0
    5.5654    3.0914    1.2819 H   0  0  0  0  0  0  0  0  0  0  0  0
    3.6246    2.6542    3.3135 H   0  0  0  0  0  0  0  0  0  0  0  0
    5.0838    1.5809    2.9556 H   0  0  0  0  0  0  0  0  0  0  0  0
    2.6992    0.3906    2.6415 H   0  0  0  0  0  0  0  0  0  0  0  0
   -4.0957    2.3728   -1.6360 H   0  0  0  0  0  0  0  0  0  0  0  0
   -3.1680    0.8918   -2.0424 H   0  0  0  0  0  0  0  0  0  0  0  0
   -4.9289    0.7353   -1.6476 H   0  0  0  0  0  0  0  0  0  0  0  0
  1  2  1  0
  2  3  1  0
  3  4  1  0
  4  5  1  0
  5  6  2  0
  5  7  1  0
  7  8  2  0
  8  9  1  0
  9 10  2  0
 10 11  1  0
 11 12  2  0
 12 13  1  0
 13 14  1  0
 14 15  1  0
 15 16  2  0
 16 17  1  0
 17 18  1  0
 18 19  1  0
  2 20  1  0
 12  7  1  0
 19 15  1  0
  1 21  1  0
  1 22  1  0
  1 23  1  0
  2 24  1  0
  3 25  1  0
  3 26  1  0
  4 27  1  0
  8 28  1  0
  9 29  1  0
 10 30  1  0
 11 31  1  0
 13 32  1  0
 14 33  1  0
 14 34  1  0
 17 35  1  0
 17 36  1  0
 18 37  1  0
 18 38  1  0
 19 39  1  0
 20 40  1  0
 20 41  1  0
 20 42  1  0
M  END
>  <Ligand ID>  (1) 
LIG0003470

>  <Ligand>  (1) 
CHEMBL95565

>  <SMILES>  (1) 
CC(CNC(=O)c1ccccc1NCC1=NCCN1)C

>  <CID>  (1) 
44329133.0

>  <ChEMBL ID>  (1) 
nan

>  <InChiKey>  (1) 
NEIUXSPLTUKXGW-UHFFFAOYSA-N

>  <InChi>  (1) 
InChI=1S/C15H22N4O/c1-11(2)9-19-15(20)12-5-3-4-6-13(12)18-10-14-16-7-8-17-14/h3-6,11,18H,7-10H2,1-2H3,(H,16,17)(H,19,20)

>  <IUPAC Name>  (1) 
2-(4,5-dihydro-1H-imidazol-2-ylmethylamino)-N-(2-methylpropyl)benzamide

$$$$
