
     RDKit          3D

 15 14  0  0  0  0  0  0  0  0999 V2000
    1.6744   -0.2189   -0.3616 C   0  0  0  0  0  0  0  0  0  0  0  0
    0.7614    0.2398    0.7234 C   0  0  0  0  0  0  0  0  0  0  0  0
   -0.6511    0.4577    0.2882 C   0  0  0  0  0  0  0  0  0  0  0  0
   -0.6727    1.4358   -0.7150 O   0  0  0  0  0  0  0  0  0  0  0  0
   -1.3392   -0.7480   -0.2557 C   0  0  0  0  0  0  0  0  0  0  0  0
    1.6845   -1.3261   -0.4051 H   0  0  0  0  0  0  0  0  0  0  0  0
    1.4303    0.1676   -1.3754 H   0  0  0  0  0  0  0  0  0  0  0  0
    2.7403    0.0813   -0.1396 H   0  0  0  0  0  0  0  0  0  0  0  0
    1.1374    1.2192    1.0878 H   0  0  0  0  0  0  0  0  0  0  0  0
    0.8404   -0.4532    1.5677 H   0  0  0  0  0  0  0  0  0  0  0  0
   -1.2375    0.8473    1.1247 H   0  0  0  0  0  0  0  0  0  0  0  0
   -1.6030    1.3678   -1.0737 H   0  0  0  0  0  0  0  0  0  0  0  0
   -0.8407   -1.1936   -1.1382 H   0  0  0  0  0  0  0  0  0  0  0  0
   -1.5984   -1.5043    0.5085 H   0  0  0  0  0  0  0  0  0  0  0  0
   -2.3263   -0.3723   -0.6585 H   0  0  0  0  0  0  0  0  0  0  0  0
  1  2  1  0
  2  3  1  0
  3  4  1  0
  3  5  1  0
  1  6  1  0
  1  7  1  0
  1  8  1  0
  2  9  1  0
  2 10  1  0
  3 11  1  0
  4 12  1  0
  5 13  1  0
  5 14  1  0
  5 15  1  0
M  END
>  <Ligand ID>  (1) 
LIG0001039

>  <Ligand>  (1) 
butan-2-ol

>  <SMILES>  (1) 
CCC(O)C

>  <CID>  (1) 
6568.0

>  <ChEMBL ID>  (1) 
nan

>  <InChiKey>  (1) 
BTANRVKWQNVYAZ-UHFFFAOYSA-N

>  <InChi>  (1) 
InChI=1S/C4H10O/c1-3-4(2)5/h4-5H,3H2,1-2H3

>  <IUPAC Name>  (1) 
butan-2-ol

$$$$
