
     RDKit          3D

 35 34  0  0  0  0  0  0  0  0999 V2000
    5.9324   -1.0201   -0.0298 C   0  0  0  0  0  0  0  0  0  0  0  0
    5.6687    0.3640    0.5382 C   0  0  0  0  0  0  0  0  0  0  0  0
    4.2392    0.4427    1.0416 C   0  0  0  0  0  0  0  0  0  0  0  0
    3.2495    0.1837   -0.0747 C   0  0  0  0  0  0  0  0  0  0  0  0
    1.8811    0.2893    0.5485 C   0  0  0  0  0  0  0  0  0  0  0  0
    0.8370    0.0686   -0.3832 O   0  0  0  0  0  0  0  0  0  0  0  0
   -0.4433    0.1562    0.1475 C   0  0  0  0  0  0  0  0  0  0  0  0
   -0.5547    0.4203    1.3923 O   0  0  0  0  0  0  0  0  0  0  0  0
   -1.6582   -0.0403   -0.6550 C   0  0  0  0  0  0  0  0  0  0  0  0
   -2.8677    0.1288    0.2498 C   0  0  0  0  0  0  0  0  0  0  0  0
   -4.1593   -0.0691   -0.5537 C   0  0  0  0  0  0  0  0  0  0  0  0
   -5.3323    0.1136    0.4110 C   0  0  0  0  0  0  0  0  0  0  0  0
   -6.6304   -0.0725   -0.3375 C   0  0  0  0  0  0  0  0  0  0  0  0
    5.1108   -1.7135    0.2935 H   0  0  0  0  0  0  0  0  0  0  0  0
    5.9882   -0.9298   -1.1458 H   0  0  0  0  0  0  0  0  0  0  0  0
    6.8679   -1.4698    0.3566 H   0  0  0  0  0  0  0  0  0  0  0  0
    6.3641    0.4693    1.3955 H   0  0  0  0  0  0  0  0  0  0  0  0
    5.9045    1.1806   -0.1583 H   0  0  0  0  0  0  0  0  0  0  0  0
    4.1033    1.4563    1.4818 H   0  0  0  0  0  0  0  0  0  0  0  0
    4.0942   -0.2800    1.8677 H   0  0  0  0  0  0  0  0  0  0  0  0
    3.4141   -0.8425   -0.4332 H   0  0  0  0  0  0  0  0  0  0  0  0
    3.3827    0.8968   -0.8922 H   0  0  0  0  0  0  0  0  0  0  0  0
    1.7949   -0.5225    1.3104 H   0  0  0  0  0  0  0  0  0  0  0  0
    1.7319    1.2926    0.9506 H   0  0  0  0  0  0  0  0  0  0  0  0
   -1.7316    0.5740   -1.5524 H   0  0  0  0  0  0  0  0  0  0  0  0
   -1.6603   -1.1293   -0.9409 H   0  0  0  0  0  0  0  0  0  0  0  0
   -2.9068    1.1129    0.7433 H   0  0  0  0  0  0  0  0  0  0  0  0
   -2.9011   -0.6654    1.0216 H   0  0  0  0  0  0  0  0  0  0  0  0
   -4.1374   -1.1071   -0.9278 H   0  0  0  0  0  0  0  0  0  0  0  0
   -4.2759    0.6974   -1.3361 H   0  0  0  0  0  0  0  0  0  0  0  0
   -5.2999    1.1119    0.8779 H   0  0  0  0  0  0  0  0  0  0  0  0
   -5.2742   -0.6580    1.2202 H   0  0  0  0  0  0  0  0  0  0  0  0
   -7.4830    0.2980    0.2481 H   0  0  0  0  0  0  0  0  0  0  0  0
   -6.7348   -1.1748   -0.5465 H   0  0  0  0  0  0  0  0  0  0  0  0
   -6.5137    0.4379   -1.3042 H   0  0  0  0  0  0  0  0  0  0  0  0
  1  2  1  0
  2  3  1  0
  3  4  1  0
  4  5  1  0
  5  6  1  0
  6  7  1  0
  7  8  2  0
  7  9  1  0
  9 10  1  0
 10 11  1  0
 11 12  1  0
 12 13  1  0
  1 14  1  0
  1 15  1  0
  1 16  1  0
  2 17  1  0
  2 18  1  0
  3 19  1  0
  3 20  1  0
  4 21  1  0
  4 22  1  0
  5 23  1  0
  5 24  1  0
  9 25  1  0
  9 26  1  0
 10 27  1  0
 10 28  1  0
 11 29  1  0
 11 30  1  0
 12 31  1  0
 12 32  1  0
 13 33  1  0
 13 34  1  0
 13 35  1  0
M  END
>  <Ligand ID>  (1) 
LIG0000072

>  <Ligand>  (1) 
pentyl hexanoate

>  <SMILES>  (1) 
CCCCCOC(=O)CCCCC

>  <CID>  (1) 
10886.0

>  <ChEMBL ID>  (1) 
nan

>  <InChiKey>  (1) 
WRFZKAGPPQGDDQ-UHFFFAOYSA-N

>  <InChi>  (1) 
InChI=1S/C11H22O2/c1-3-5-7-9-11(12)13-10-8-6-4-2/h3-10H2,1-2H3

>  <IUPAC Name>  (1) 
pentyl hexanoate

$$$$
