
     RDKit          3D

 36 38  0  0  0  0  0  0  0  0999 V2000
    4.6165   -1.2943    0.9430 C   0  0  0  0  0  0  0  0  0  0  0  0
    4.1126   -0.1385    0.0690 C   0  0  0  0  0  0  0  0  0  0  0  0
    2.7210   -0.1401    0.1959 O   0  0  0  0  0  0  0  0  0  0  0  0
    1.8373    0.7240   -0.4119 C   0  0  0  0  0  0  0  0  0  0  0  0
    2.3330    1.6995   -1.2327 C   0  0  0  0  0  0  0  0  0  0  0  0
    1.4977    2.6043   -1.8771 C   0  0  0  0  0  0  0  0  0  0  0  0
    0.1376    2.4841   -1.6588 C   0  0  0  0  0  0  0  0  0  0  0  0
   -0.3408    1.4963   -0.8297 C   0  0  0  0  0  0  0  0  0  0  0  0
    0.4756    0.5938   -0.1853 C   0  0  0  0  0  0  0  0  0  0  0  0
    0.0280   -0.4736    0.7050 C   0  0  0  0  0  0  0  0  0  0  0  0
   -1.4347   -0.6334    0.8741 C   0  0  2  0  0  0  0  0  0  0  0  0
   -1.9050   -1.9801    0.3111 C   0  0  0  0  0  0  0  0  0  0  0  0
   -3.3056   -2.0973    0.6693 N   0  0  0  0  0  0  0  0  0  0  0  0
   -4.1036   -1.1052    0.0162 C   0  0  0  0  0  0  0  0  0  0  0  0
   -3.6996    0.2839    0.5290 C   0  0  0  0  0  0  0  0  0  0  0  0
   -2.2590    0.3582    0.2470 N   0  0  0  0  0  0  0  0  0  0  0  0
   -1.7750    1.3832   -0.6112 C   0  0  0  0  0  0  0  0  0  0  0  0
   -2.5451    2.1902   -1.1838 O   0  0  0  0  0  0  0  0  0  0  0  0
    3.9315   -2.1751    0.7917 H   0  0  0  0  0  0  0  0  0  0  0  0
    4.5303   -1.0570    2.0205 H   0  0  0  0  0  0  0  0  0  0  0  0
    5.6489   -1.5575    0.6943 H   0  0  0  0  0  0  0  0  0  0  0  0
    4.5974    0.7812    0.4331 H   0  0  0  0  0  0  0  0  0  0  0  0
    4.3862   -0.4134   -0.9633 H   0  0  0  0  0  0  0  0  0  0  0  0
    3.3929    1.8280   -1.4306 H   0  0  0  0  0  0  0  0  0  0  0  0
    1.8728    3.3815   -2.5293 H   0  0  0  0  0  0  0  0  0  0  0  0
   -0.5368    3.1653   -2.1398 H   0  0  0  0  0  0  0  0  0  0  0  0
    0.5319   -1.4560    0.4622 H   0  0  0  0  0  0  0  0  0  0  0  0
    0.4591   -0.2296    1.7211 H   0  0  0  0  0  0  0  0  0  0  0  0
   -1.7383   -0.6574    1.9611 H   0  0  0  0  0  0  0  0  0  0  0  0
   -1.7506   -1.9398   -0.7838 H   0  0  0  0  0  0  0  0  0  0  0  0
   -1.3285   -2.7777    0.7861 H   0  0  0  0  0  0  0  0  0  0  0  0
   -3.3623   -1.9434    1.6953 H   0  0  0  0  0  0  0  0  0  0  0  0
   -5.1669   -1.2725    0.1811 H   0  0  0  0  0  0  0  0  0  0  0  0
   -3.8179   -1.0826   -1.0701 H   0  0  0  0  0  0  0  0  0  0  0  0
   -3.8319    0.3771    1.6228 H   0  0  0  0  0  0  0  0  0  0  0  0
   -4.2091    1.0740   -0.0215 H   0  0  0  0  0  0  0  0  0  0  0  0
  1  2  1  0
  2  3  1  0
  3  4  1  0
  4  5  2  0
  5  6  1  0
  6  7  2  0
  7  8  1  0
  8  9  2  0
  9 10  1  0
 10 11  1  0
 11 12  1  0
 12 13  1  0
 13 14  1  0
 14 15  1  0
 15 16  1  0
 16 17  1  0
 17 18  2  0
  9  4  1  0
 16 11  1  0
 17  8  1  0
  1 19  1  0
  1 20  1  0
  1 21  1  0
  2 22  1  0
  2 23  1  0
  5 24  1  0
  6 25  1  0
  7 26  1  0
 10 27  1  0
 10 28  1  0
 11 29  1  1
 12 30  1  0
 12 31  1  0
 13 32  1  0
 14 33  1  0
 14 34  1  0
 15 35  1  0
 15 36  1  0
M  END
>  <Ligand ID>  (1) 
LIG0004491

>  <Ligand>  (1) 
SCHEMBL3560907

>  <SMILES>  (1) 
CCOc1cccc2c1C[C@@H]1CNCCN1C2=O

>  <CID>  (1) 
11630147.0

>  <ChEMBL ID>  (1) 
nan

>  <InChiKey>  (1) 
HIRAHSKWRNEADM-SNVBAGLBSA-N

>  <InChi>  (1) 
InChI=1S/C14H18N2O2/c1-2-18-13-5-3-4-11-12(13)8-10-9-15-6-7-16(10)14(11)17/h3-5,10,15H,2,6-9H2,1H3/t10-/m1/s1

>  <IUPAC Name>  (1) 
(11aR)-10-ethoxy-1,2,3,4,11,11a-hexahydropyrazino[1,2-b]isoquinolin-6-one

$$$$
