
     RDKit          3D

 60 60  0  0  0  0  0  0  0  0999 V2000
   -5.8708   -0.7426    0.5113 C   0  0  0  0  0  0  0  0  0  0  0  0
   -5.2933   -2.1214    0.6914 C   0  0  0  0  0  0  0  0  0  0  0  0
   -3.9549   -2.1235    1.2946 C   0  0  0  0  0  0  0  0  0  0  0  0
   -2.7221   -1.6851    0.6881 C   0  0  0  0  0  0  0  0  0  0  0  0
   -2.4638   -0.3846    0.0507 C   0  0  0  0  0  0  0  0  0  0  0  0
   -3.0862   -0.2260   -1.2805 C   0  0  0  0  0  0  0  0  0  0  0  0
   -2.9381    1.0848   -1.9840 C   0  0  0  0  0  0  0  0  0  0  0  0
   -3.5132    2.3066   -1.4532 C   0  0  0  0  0  0  0  0  0  0  0  0
   -3.1802    2.9165   -0.1836 C   0  0  0  0  0  0  0  0  0  0  0  0
   -1.8500    3.4019    0.1805 C   0  0  0  0  0  0  0  0  0  0  0  0
   -0.7012    2.5232    0.2727 C   0  0  0  0  0  0  0  0  0  0  0  0
    0.1990    2.2132   -0.7149 C   0  0  0  0  0  0  0  0  0  0  0  0
    1.2854    1.3827   -0.5395 C   0  0  0  0  0  0  0  0  0  0  0  0
    1.5115    0.8101    0.6944 C   0  0  0  0  0  0  0  0  0  0  0  0
    0.6312    1.0940    1.7179 C   0  0  0  0  0  0  0  0  0  0  0  0
   -0.4501    1.9275    1.5228 C   0  0  0  0  0  0  0  0  0  0  0  0
    2.6044   -0.0579    0.9669 N   0  0  0  0  0  0  0  0  0  0  0  0
    3.8390    0.4755    1.4264 C   0  0  0  0  0  0  0  0  0  0  0  0
    3.9606    1.7286    1.5916 O   0  0  0  0  0  0  0  0  0  0  0  0
    4.9381   -0.4769    1.6928 C   0  0  1  0  0  0  0  0  0  0  0  0
    5.3347   -1.2251    0.4139 C   0  0  0  0  0  0  0  0  0  0  0  0
    6.3443   -2.1298    0.7368 O   0  0  0  0  0  0  0  0  0  0  0  0
    6.8102   -2.9796   -0.6291 P   0  0  0  0  0  0  0  0  0  0  0  0
    5.5688   -3.6701   -1.1799 O   0  0  0  0  0  0  0  0  0  0  0  0
    7.9156   -4.1888   -0.2636 O   0  0  0  0  0  0  0  0  0  0  0  0
    7.4816   -1.9568   -1.7839 O   0  0  0  0  0  0  0  0  0  0  0  0
    6.1374    0.1983    2.1539 N   0  0  0  0  0  0  0  0  0  0  0  0
   -6.6781   -0.6230    1.2794 H   0  0  0  0  0  0  0  0  0  0  0  0
   -5.1376    0.0471    0.7161 H   0  0  0  0  0  0  0  0  0  0  0  0
   -6.3060   -0.5660   -0.4984 H   0  0  0  0  0  0  0  0  0  0  0  0
   -5.9869   -2.7312    1.3530 H   0  0  0  0  0  0  0  0  0  0  0  0
   -5.2717   -2.6774   -0.2875 H   0  0  0  0  0  0  0  0  0  0  0  0
   -4.0490   -1.5944    2.3292 H   0  0  0  0  0  0  0  0  0  0  0  0
   -3.7537   -3.2168    1.6721 H   0  0  0  0  0  0  0  0  0  0  0  0
   -1.8886   -1.8434    1.4895 H   0  0  0  0  0  0  0  0  0  0  0  0
   -2.3917   -2.5307   -0.0359 H   0  0  0  0  0  0  0  0  0  0  0  0
   -1.3228   -0.2567   -0.0813 H   0  0  0  0  0  0  0  0  0  0  0  0
   -2.7673    0.4073    0.7664 H   0  0  0  0  0  0  0  0  0  0  0  0
   -2.5051   -0.9684   -1.9864 H   0  0  0  0  0  0  0  0  0  0  0  0
   -4.1053   -0.5735   -1.3251 H   0  0  0  0  0  0  0  0  0  0  0  0
   -3.4620    0.8806   -3.0112 H   0  0  0  0  0  0  0  0  0  0  0  0
   -1.8400    1.1793   -2.2717 H   0  0  0  0  0  0  0  0  0  0  0  0
   -3.5842    3.1112   -2.2903 H   0  0  0  0  0  0  0  0  0  0  0  0
   -4.6621    2.0894   -1.3822 H   0  0  0  0  0  0  0  0  0  0  0  0
   -3.8223    3.9189   -0.1924 H   0  0  0  0  0  0  0  0  0  0  0  0
   -3.7129    2.4102    0.6688 H   0  0  0  0  0  0  0  0  0  0  0  0
   -1.9947    3.9951    1.1577 H   0  0  0  0  0  0  0  0  0  0  0  0
   -1.6331    4.2847   -0.5303 H   0  0  0  0  0  0  0  0  0  0  0  0
    0.0159    2.6693   -1.6916 H   0  0  0  0  0  0  0  0  0  0  0  0
    1.9700    1.1692   -1.3576 H   0  0  0  0  0  0  0  0  0  0  0  0
    0.7888    0.6559    2.6947 H   0  0  0  0  0  0  0  0  0  0  0  0
   -1.1022    2.1093    2.3667 H   0  0  0  0  0  0  0  0  0  0  0  0
    2.4558   -1.0855    0.8151 H   0  0  0  0  0  0  0  0  0  0  0  0
    4.6371   -1.2309    2.4646 H   0  0  0  0  0  0  0  0  0  0  0  0
    5.8071   -0.4702   -0.2425 H   0  0  0  0  0  0  0  0  0  0  0  0
    4.4812   -1.7254   -0.0672 H   0  0  0  0  0  0  0  0  0  0  0  0
    8.8049   -3.9300   -0.5610 H   0  0  0  0  0  0  0  0  0  0  0  0
    7.9041   -2.5280   -2.4786 H   0  0  0  0  0  0  0  0  0  0  0  0
    6.6363    0.6110    1.3355 H   0  0  0  0  0  0  0  0  0  0  0  0
    5.9383    0.9181    2.8731 H   0  0  0  0  0  0  0  0  0  0  0  0
  1  2  1  0
  2  3  1  0
  3  4  1  0
  4  5  1  0
  5  6  1  0
  6  7  1  0
  7  8  1  0
  8  9  1  0
  9 10  1  0
 10 11  1  0
 11 12  2  0
 12 13  1  0
 13 14  2  0
 14 15  1  0
 15 16  2  0
 14 17  1  0
 17 18  1  0
 18 19  2  0
 18 20  1  0
 20 21  1  0
 21 22  1  0
 22 23  1  0
 23 24  2  0
 23 25  1  0
 23 26  1  0
 20 27  1  0
 16 11  1  0
  1 28  1  0
  1 29  1  0
  1 30  1  0
  2 31  1  0
  2 32  1  0
  3 33  1  0
  3 34  1  0
  4 35  1  0
  4 36  1  0
  5 37  1  0
  5 38  1  0
  6 39  1  0
  6 40  1  0
  7 41  1  0
  7 42  1  0
  8 43  1  0
  8 44  1  0
  9 45  1  0
  9 46  1  0
 10 47  1  0
 10 48  1  0
 12 49  1  0
 13 50  1  0
 15 51  1  0
 16 52  1  0
 17 53  1  0
 20 54  1  1
 21 55  1  0
 21 56  1  0
 25 57  1  0
 26 58  1  0
 27 59  1  0
 27 60  1  0
M  END
>  <Ligand ID>  (1) 
LIG0004256

>  <Ligand>  (1) 
CHEMBL334038

>  <SMILES>  (1) 
CCCCCCCCCCc1ccc(cc1)NC(=O)[C@@H](COP(=O)(O)O)N

>  <CID>  (1) 
10023913.0

>  <ChEMBL ID>  (1) 
nan

>  <InChiKey>  (1) 
APIDPHFNNKWFKH-GOSISDBHSA-N

>  <InChi>  (1) 
InChI=1S/C19H33N2O5P/c1-2-3-4-5-6-7-8-9-10-16-11-13-17(14-12-16)21-19(22)18(20)15-26-27(23,24)25/h11-14,18H,2-10,15,20H2,1H3,(H,21,22)(H2,23,24,25)/t18-/m1/s1

>  <IUPAC Name>  (1) 
[(2R)-2-amino-3-(4-decylanilino)-3-oxopropyl] dihydrogen phosphate

$$$$
