
     RDKit          3D

 76 79  0  0  0  0  0  0  0  0999 V2000
  -10.7855    0.3223    1.5946 C   0  0  0  0  0  0  0  0  0  0  0  0
  -10.1204   -0.2513    0.3738 C   0  0  0  0  0  0  0  0  0  0  0  0
   -8.6397   -0.2971    0.5417 N   0  0  0  0  0  0  0  0  0  0  0  0
   -8.1518   -1.4737    1.1057 C   0  0  0  0  0  0  0  0  0  0  0  0
   -9.0599   -2.3565    1.3933 O   0  0  0  0  0  0  0  0  0  0  0  0
   -6.7813   -1.8922    1.4317 C   0  0  0  0  0  0  0  0  0  0  0  0
   -5.7545   -1.1076    1.2882 O   0  0  0  0  0  0  0  0  0  0  0  0
   -4.7468   -0.3248    1.1558 C   0  0  0  0  0  0  0  0  0  0  0  0
   -4.6379    0.8690    1.8874 C   0  0  0  0  0  0  0  0  0  0  0  0
   -3.5636    1.7159    1.7554 C   0  0  0  0  0  0  0  0  0  0  0  0
   -2.5765    1.3551    0.8685 C   0  0  0  0  0  0  0  0  0  0  0  0
   -2.6097    0.2040    0.1164 C   0  0  0  0  0  0  0  0  0  0  0  0
   -3.7013   -0.6164    0.2776 C   0  0  0  0  0  0  0  0  0  0  0  0
   -3.5072   -1.6590   -0.5510 N   0  0  0  0  0  0  0  0  0  0  0  0
   -2.3444   -1.5181   -1.2159 C   0  0  0  0  0  0  0  0  0  0  0  0
   -1.7350   -0.3246   -0.8107 C   0  0  0  0  0  0  0  0  0  0  0  0
   -0.4309    0.2267   -1.2889 C   0  0  0  0  0  0  0  0  0  0  0  0
    0.6643    0.0427   -0.3059 C   0  0  2  0  0  0  0  0  0  0  0  0
    1.9106    0.5761   -0.7668 N   0  0  0  0  0  0  0  0  0  0  0  0
    2.3930   -0.1054   -1.9307 C   0  0  0  0  0  0  0  0  0  0  0  0
    3.7120    0.3947   -2.4641 C   0  0  1  0  0  0  0  0  0  0  0  0
    4.8185    0.2022   -1.4950 C   0  0  0  0  0  0  0  0  0  0  0  0
    4.6760   -0.0687   -0.1647 C   0  0  0  0  0  0  0  0  0  0  0  0
    5.7859   -0.2288    0.6408 C   0  0  0  0  0  0  0  0  0  0  0  0
    7.0588   -0.1089    0.0710 C   0  0  0  0  0  0  0  0  0  0  0  0
    7.2570    0.1585   -1.2460 C   0  0  0  0  0  0  0  0  0  0  0  0
    6.1036    0.3145   -2.0291 C   0  0  0  0  0  0  0  0  0  0  0  0
    8.4790    0.3158   -1.9226 N   0  0  0  0  0  0  0  0  0  0  0  0
    9.8900    1.0989   -1.3834 S   0  0  0  0  0  0  0  0  0  0  0  0
   10.8702    1.3129   -2.5339 O   0  0  0  0  0  0  0  0  0  0  0  0
    9.4622    2.5291   -1.0207 O   0  0  0  0  0  0  0  0  0  0  0  0
   10.6834    0.4582   -0.0268 C   0  0  0  0  0  0  0  0  0  0  0  0
   10.6326   -0.6314    0.7562 C   0  0  0  0  0  0  0  0  0  0  0  0
   11.5168   -0.7793    1.7560 C   0  0  0  0  0  0  0  0  0  0  0  0
   12.4470    0.1899    1.9455 C   0  0  0  0  0  0  0  0  0  0  0  0
   12.1032    1.4503    0.6352 S   0  0  0  0  0  0  0  0  0  0  0  0
    3.9817   -0.3572   -3.6328 O   0  0  0  0  0  0  0  0  0  0  0  0
    0.8715   -1.4029    0.0891 C   0  0  0  0  0  0  0  0  0  0  0  0
   -7.9388    0.8596    0.0991 C   0  0  0  0  0  0  0  0  0  0  0  0
   -7.8037    1.8895    1.2268 C   0  0  0  0  0  0  0  0  0  0  0  0
  -10.0514    0.2182    2.4437 H   0  0  0  0  0  0  0  0  0  0  0  0
  -11.7096   -0.2317    1.7840 H   0  0  0  0  0  0  0  0  0  0  0  0
  -11.0286    1.3961    1.4117 H   0  0  0  0  0  0  0  0  0  0  0  0
  -10.5071   -1.2629    0.1928 H   0  0  0  0  0  0  0  0  0  0  0  0
  -10.3756    0.3524   -0.5200 H   0  0  0  0  0  0  0  0  0  0  0  0
   -6.6906   -2.9184    0.9054 H   0  0  0  0  0  0  0  0  0  0  0  0
   -6.8706   -2.2084    2.5552 H   0  0  0  0  0  0  0  0  0  0  0  0
   -5.4003    1.1681    2.5974 H   0  0  0  0  0  0  0  0  0  0  0  0
   -3.4927    2.6301    2.3242 H   0  0  0  0  0  0  0  0  0  0  0  0
   -1.7391    2.0195    0.7696 H   0  0  0  0  0  0  0  0  0  0  0  0
   -4.1487   -2.4719   -0.6787 H   0  0  0  0  0  0  0  0  0  0  0  0
   -1.9085   -2.1802   -1.9473 H   0  0  0  0  0  0  0  0  0  0  0  0
   -0.6205    1.2951   -1.5111 H   0  0  0  0  0  0  0  0  0  0  0  0
   -0.2423   -0.2624   -2.2646 H   0  0  0  0  0  0  0  0  0  0  0  0
    0.3830    0.6592    0.6045 H   0  0  0  0  0  0  0  0  0  0  0  0
    1.8990    1.6171   -0.8662 H   0  0  0  0  0  0  0  0  0  0  0  0
    1.6424   -0.1892   -2.7590 H   0  0  0  0  0  0  0  0  0  0  0  0
    2.6224   -1.1616   -1.5793 H   0  0  0  0  0  0  0  0  0  0  0  0
    3.6299    1.4585   -2.7109 H   0  0  0  0  0  0  0  0  0  0  0  0
    3.7213   -0.1728    0.3178 H   0  0  0  0  0  0  0  0  0  0  0  0
    5.6669   -0.4427    1.6921 H   0  0  0  0  0  0  0  0  0  0  0  0
    7.8731   -0.2276    0.7261 H   0  0  0  0  0  0  0  0  0  0  0  0
    6.2215    0.5313   -3.0969 H   0  0  0  0  0  0  0  0  0  0  0  0
    8.5217   -0.1148   -2.8930 H   0  0  0  0  0  0  0  0  0  0  0  0
    9.8548   -1.4206    0.5588 H   0  0  0  0  0  0  0  0  0  0  0  0
   11.5062   -1.6711    2.4280 H   0  0  0  0  0  0  0  0  0  0  0  0
   13.2585    0.3221    2.6587 H   0  0  0  0  0  0  0  0  0  0  0  0
    3.6495   -1.2963   -3.5146 H   0  0  0  0  0  0  0  0  0  0  0  0
    0.8055   -2.0928   -0.7494 H   0  0  0  0  0  0  0  0  0  0  0  0
    0.0923   -1.5880    0.8877 H   0  0  0  0  0  0  0  0  0  0  0  0
    1.8295   -1.5873    0.6114 H   0  0  0  0  0  0  0  0  0  0  0  0
   -6.9282    0.6794   -0.3064 H   0  0  0  0  0  0  0  0  0  0  0  0
   -8.5173    1.3168   -0.7531 H   0  0  0  0  0  0  0  0  0  0  0  0
   -6.9160    2.5354    1.1007 H   0  0  0  0  0  0  0  0  0  0  0  0
   -7.7484    1.3874    2.2138 H   0  0  0  0  0  0  0  0  0  0  0  0
   -8.7104    2.5309    1.1464 H   0  0  0  0  0  0  0  0  0  0  0  0
  1  2  1  0
  2  3  1  0
  3  4  1  0
  4  5  2  0
  4  6  1  0
  6  7  1  0
  7  8  1  0
  8  9  2  0
  9 10  1  0
 10 11  2  0
 11 12  1  0
 12 13  2  0
 13 14  1  0
 14 15  1  0
 15 16  2  0
 16 17  1  0
 17 18  1  0
 18 19  1  0
 19 20  1  0
 20 21  1  0
 21 22  1  0
 22 23  2  0
 23 24  1  0
 24 25  2  0
 25 26  1  0
 26 27  2  0
 26 28  1  0
 28 29  1  0
 29 30  2  0
 29 31  2  0
 29 32  1  0
 32 33  2  0
 33 34  1  0
 34 35  2  0
 35 36  1  0
 21 37  1  0
 18 38  1  0
  3 39  1  0
 39 40  1  0
 13  8  1  0
 27 22  1  0
 36 32  1  0
 16 12  1  0
  1 41  1  0
  1 42  1  0
  1 43  1  0
  2 44  1  0
  2 45  1  0
  6 46  1  0
  6 47  1  0
  9 48  1  0
 10 49  1  0
 11 50  1  0
 14 51  1  0
 15 52  1  0
 17 53  1  0
 17 54  1  0
 18 55  1  1
 19 56  1  0
 20 57  1  0
 20 58  1  0
 21 59  1  6
 23 60  1  0
 24 61  1  0
 25 62  1  0
 27 63  1  0
 28 64  1  0
 33 65  1  0
 34 66  1  0
 35 67  1  0
 37 68  1  0
 38 69  1  0
 38 70  1  0
 38 71  1  0
 39 72  1  0
 39 73  1  0
 40 74  1  0
 40 75  1  0
 40 76  1  0
M  END
>  <Ligand ID>  (1) 
LIG0004370

>  <Ligand>  (1) 
CHEMBL2261203

>  <SMILES>  (1) 
CCN(C(=O)COc1cccc2c1[nH]cc2C[C@H](NC[C@@H](c1cccc(c1)NS(=O)(=O)c1cccs1)O)C)CC

>  <CID>  (1) 
76319327.0

>  <ChEMBL ID>  (1) 
nan

>  <InChiKey>  (1) 
ABZONQSYSVGCDW-NLFFAJNJSA-N

>  <InChi>  (1) 
InChI=1S/C29H36N4O5S2/c1-4-33(5-2)27(35)19-38-26-12-7-11-24-22(17-31-29(24)26)15-20(3)30-18-25(34)21-9-6-10-23(16-21)32-40(36,37)28-13-8-14-39-28/h6-14,16-17,20,25,30-32,34H,4-5,15,18-19H2,1-3H3/t20-,25+/m1/s1

>  <IUPAC Name>  (1) 
N,N-diethyl-2-[[3-[(2R)-2-[[(2R)-2-hydroxy-2-[3-(thiophen-2-ylsulfonylamino)phenyl]ethyl]amino]propyl]-1H-indol-7-yl]oxy]acetamide

$$$$
