
     RDKit          3D

 51 54  0  0  0  0  0  0  0  0999 V2000
   -0.1825   -1.2527    3.9275 C   0  0  0  0  0  0  0  0  0  0  0  0
    0.1942   -1.1970    2.5854 O   0  0  0  0  0  0  0  0  0  0  0  0
   -0.6148   -1.3857    1.5120 C   0  0  0  0  0  0  0  0  0  0  0  0
   -1.8453   -1.6391    1.8028 O   0  0  0  0  0  0  0  0  0  0  0  0
   -0.2498   -1.3315    0.0914 C   0  0  0  0  0  0  0  0  0  0  0  0
    1.0016   -1.0895   -0.3089 C   0  0  0  0  0  0  0  0  0  0  0  0
    1.3407   -1.0349   -1.7112 N   0  0  0  0  0  0  0  0  0  0  0  0
    0.3275   -1.2411   -2.6871 C   0  0  0  0  0  0  0  0  0  0  0  0
    0.6032   -1.1976   -3.9125 O   0  0  0  0  0  0  0  0  0  0  0  0
   -0.9740   -1.4913   -2.1942 N   0  0  0  0  0  0  0  0  0  0  0  0
   -1.3824   -1.5681   -0.8432 C   0  0  0  0  0  0  0  0  0  0  0  0
   -2.5425   -0.6983   -0.5200 C   0  0  0  0  0  0  0  0  0  0  0  0
   -2.3670    0.6480   -0.2408 C   0  0  0  0  0  0  0  0  0  0  0  0
   -3.4524    1.4446    0.0578 C   0  0  0  0  0  0  0  0  0  0  0  0
   -3.3013    2.9062    0.3654 C   0  0  0  0  0  0  0  0  0  0  0  0
   -4.7396    0.9272    0.0872 C   0  0  0  0  0  0  0  0  0  0  0  0
   -4.9250   -0.4056   -0.1879 C   0  0  0  0  0  0  0  0  0  0  0  0
   -3.8454   -1.2039   -0.4862 C   0  0  0  0  0  0  0  0  0  0  0  0
   -4.0385   -2.6635   -0.7886 C   0  0  0  0  0  0  0  0  0  0  0  0
    2.1354   -0.9049    0.6240 C   0  0  0  0  0  0  0  0  0  0  0  0
    2.7476    0.4060    0.5613 N   0  0  0  0  0  0  0  0  0  0  0  0
    2.2530    1.4502    1.2822 C   0  0  0  0  0  0  0  0  0  0  0  0
    2.9932    2.5584    1.0295 N   0  0  0  0  0  0  0  0  0  0  0  0
    3.9697    2.2345    0.1442 C   0  0  0  0  0  0  0  0  0  0  0  0
    3.7716    0.8910   -0.1118 C   0  0  0  0  0  0  0  0  0  0  0  0
    4.6426    0.2908   -0.9862 C   0  0  0  0  0  0  0  0  0  0  0  0
    5.6573    1.0227   -1.5663 C   0  0  0  0  0  0  0  0  0  0  0  0
    5.8444    2.3638   -1.3034 C   0  0  0  0  0  0  0  0  0  0  0  0
    4.9751    2.9775   -0.4254 C   0  0  0  0  0  0  0  0  0  0  0  0
   -1.1498   -0.7304    4.1213 H   0  0  0  0  0  0  0  0  0  0  0  0
    0.5951   -0.7024    4.5303 H   0  0  0  0  0  0  0  0  0  0  0  0
   -0.1945   -2.2980    4.3203 H   0  0  0  0  0  0  0  0  0  0  0  0
    2.2951   -0.8542   -2.0598 H   0  0  0  0  0  0  0  0  0  0  0  0
   -1.7213   -1.6363   -2.9414 H   0  0  0  0  0  0  0  0  0  0  0  0
   -1.7319   -2.6343   -0.6761 H   0  0  0  0  0  0  0  0  0  0  0  0
   -1.3658    1.0970   -0.2533 H   0  0  0  0  0  0  0  0  0  0  0  0
   -2.2649    3.2019    0.1963 H   0  0  0  0  0  0  0  0  0  0  0  0
   -3.9963    3.4850   -0.2976 H   0  0  0  0  0  0  0  0  0  0  0  0
   -3.6446    3.0600    1.4245 H   0  0  0  0  0  0  0  0  0  0  0  0
   -5.5792    1.5674    0.3235 H   0  0  0  0  0  0  0  0  0  0  0  0
   -5.9087   -0.8453   -0.1752 H   0  0  0  0  0  0  0  0  0  0  0  0
   -3.5145   -2.9778   -1.7076 H   0  0  0  0  0  0  0  0  0  0  0  0
   -3.6596   -3.3104    0.0280 H   0  0  0  0  0  0  0  0  0  0  0  0
   -5.1162   -2.8668   -0.8993 H   0  0  0  0  0  0  0  0  0  0  0  0
    1.9914   -1.3214    1.5985 H   0  0  0  0  0  0  0  0  0  0  0  0
    2.9404   -1.6212    0.1709 H   0  0  0  0  0  0  0  0  0  0  0  0
    1.3979    1.4332    1.9649 H   0  0  0  0  0  0  0  0  0  0  0  0
    4.5213   -0.7502   -1.2063 H   0  0  0  0  0  0  0  0  0  0  0  0
    6.3403    0.5161   -2.2631 H   0  0  0  0  0  0  0  0  0  0  0  0
    6.6601    2.8906   -1.7890 H   0  0  0  0  0  0  0  0  0  0  0  0
    5.1091    4.0364   -0.2070 H   0  0  0  0  0  0  0  0  0  0  0  0
  1  2  1  0
  2  3  1  0
  3  4  2  0
  3  5  1  0
  5  6  2  0
  6  7  1  0
  7  8  1  0
  8  9  2  0
  8 10  1  0
 10 11  1  0
 11 12  1  0
 12 13  2  0
 13 14  1  0
 14 15  1  0
 14 16  2  0
 16 17  1  0
 17 18  2  0
 18 19  1  0
  6 20  1  0
 20 21  1  0
 21 22  1  0
 22 23  2  0
 23 24  1  0
 24 25  2  0
 25 26  1  0
 26 27  2  0
 27 28  1  0
 28 29  2  0
 11  5  1  0
 18 12  1  0
 25 21  1  0
 29 24  1  0
  1 30  1  0
  1 31  1  0
  1 32  1  0
  7 33  1  0
 10 34  1  0
 11 35  1  0
 13 36  1  0
 15 37  1  0
 15 38  1  0
 15 39  1  0
 16 40  1  0
 17 41  1  0
 19 42  1  0
 19 43  1  0
 19 44  1  0
 20 45  1  0
 20 46  1  0
 22 47  1  0
 26 48  1  0
 27 49  1  0
 28 50  1  0
 29 51  1  0
M  END
>  <Ligand ID>  (1) 
LIG0003701

>  <Ligand>  (1) 
SR-01000300690

>  <SMILES>  (1) 
COC(=O)C1=C(NC(=O)NC1c1cc(C)ccc1C)Cn1cnc2c1cccc2

>  <CID>  (1) 
2983279.0

>  <ChEMBL ID>  (1) 
nan

>  <InChiKey>  (1) 
ABZOSAGKSZSRQP-UHFFFAOYSA-N

>  <InChi>  (1) 
InChI=1S/C22H22N4O3/c1-13-8-9-14(2)15(10-13)20-19(21(27)29-3)17(24-22(28)25-20)11-26-12-23-16-6-4-5-7-18(16)26/h4-10,12,20H,11H2,1-3H3,(H2,24,25,28)

>  <IUPAC Name>  (1) 
methyl 6-(benzimidazol-1-ylmethyl)-4-(2,5-dimethylphenyl)-2-oxo-3,4-dihydro-1H-pyrimidine-5-carboxylate

$$$$
