
     RDKit          3D

 38 37  0  0  0  0  0  0  0  0999 V2000
   -4.5703    1.7107    0.1662 C   0  0  0  0  0  0  0  0  0  0  0  0
   -4.6505    0.2360    0.4379 C   0  0  0  0  0  0  0  0  0  0  0  0
   -3.2514   -0.3742    0.5920 C   0  0  0  0  0  0  0  0  0  0  0  0
   -2.5118   -0.1329   -0.7009 C   0  0  0  0  0  0  0  0  0  0  0  0
   -1.1407   -0.6746   -0.6869 C   0  0  0  0  0  0  0  0  0  0  0  0
   -0.9845   -1.9919   -1.1271 C   0  0  0  0  0  0  0  0  0  0  0  0
    0.2823   -2.5310   -1.1277 C   0  0  0  0  0  0  0  0  0  0  0  0
    1.3714   -1.7917   -0.7050 C   0  0  0  0  0  0  0  0  0  0  0  0
    1.2170   -0.4867   -0.2688 C   0  0  0  0  0  0  0  0  0  0  0  0
   -0.0512    0.0641   -0.2643 C   0  0  0  0  0  0  0  0  0  0  0  0
    2.4633    0.0114    0.0925 C   0  0  0  0  0  0  0  0  0  0  0  0
    2.7271    1.3784    0.6130 C   0  0  0  0  0  0  0  0  0  0  0  0
    4.2012    1.5078    0.8771 C   0  0  0  0  0  0  0  0  0  0  0  0
    4.8989    1.2956   -0.3502 N   0  0  0  0  0  0  0  0  0  0  0  0
    3.3426   -1.0255   -0.1412 C   0  0  0  0  0  0  0  0  0  0  0  0
    2.6777   -2.0950   -0.6168 N   0  0  0  0  0  0  0  0  0  0  0  0
    0.0000    0.0000    0.0000 Cl  0  0  0  0  0  0  0  0  0  0  0  0
    0.0000    0.0000    0.0000 H   0  0  0  0  0 15  0  0  0  0  0  0
   -3.7422    2.1768    0.7704 H   0  0  0  0  0  0  0  0  0  0  0  0
   -5.4823    2.2420    0.5085 H   0  0  0  0  0  0  0  0  0  0  0  0
   -4.3875    1.8521   -0.9158 H   0  0  0  0  0  0  0  0  0  0  0  0
   -5.1256    0.1065    1.4226 H   0  0  0  0  0  0  0  0  0  0  0  0
   -5.1253   -0.3146   -0.3798 H   0  0  0  0  0  0  0  0  0  0  0  0
   -3.3325   -1.4416    0.8045 H   0  0  0  0  0  0  0  0  0  0  0  0
   -2.7285    0.0891    1.4544 H   0  0  0  0  0  0  0  0  0  0  0  0
   -2.4675    0.9774   -0.8324 H   0  0  0  0  0  0  0  0  0  0  0  0
   -3.0852   -0.5888   -1.5242 H   0  0  0  0  0  0  0  0  0  0  0  0
   -1.8270   -2.5803   -1.4599 H   0  0  0  0  0  0  0  0  0  0  0  0
    0.4221   -3.5482   -1.4648 H   0  0  0  0  0  0  0  0  0  0  0  0
   -0.2319    1.0614    0.0597 H   0  0  0  0  0  0  0  0  0  0  0  0
    2.0999    1.6161    1.4899 H   0  0  0  0  0  0  0  0  0  0  0  0
    2.4411    2.1266   -0.1721 H   0  0  0  0  0  0  0  0  0  0  0  0
    4.4692    0.6786    1.5878 H   0  0  0  0  0  0  0  0  0  0  0  0
    4.4433    2.5096    1.2938 H   0  0  0  0  0  0  0  0  0  0  0  0
    5.8397    0.8971   -0.2877 H   0  0  0  0  0  0  0  0  0  0  0  0
    4.3318    1.0802   -1.1720 H   0  0  0  0  0  0  0  0  0  0  0  0
    4.3999   -1.0007    0.0254 H   0  0  0  0  0  0  0  0  0  0  0  0
    3.0676   -3.0395   -0.8910 H   0  0  0  0  0  0  0  0  0  0  0  0
  1  2  1  0
  2  3  1  0
  3  4  1  0
  4  5  1  0
  5  6  2  0
  6  7  1  0
  7  8  2  0
  8  9  1  0
  9 10  2  0
  9 11  1  0
 11 12  1  0
 12 13  1  0
 13 14  1  0
 11 15  2  0
 15 16  1  0
 10  5  1  0
 16  8  1  0
  1 19  1  0
  1 20  1  0
  1 21  1  0
  2 22  1  0
  2 23  1  0
  3 24  1  0
  3 25  1  0
  4 26  1  0
  4 27  1  0
  6 28  1  0
  7 29  1  0
 10 30  1  0
 12 31  1  0
 12 32  1  0
 13 33  1  0
 13 34  1  0
 14 35  1  0
 14 36  1  0
 15 37  1  0
 16 38  1  0
M  CHG  2  17  -1  18   1
M  END
>  <Ligand ID>  (1) 
LIG0002109

>  <Ligand>  (1) 
AC1LCZZP

>  <SMILES>  (1) 
CCCCc1ccc2c(c1)c(CCN)c[nH]2.[Cl-].[H+]

>  <CID>  (1) 
659034.0

>  <ChEMBL ID>  (1) 
nan

>  <InChiKey>  (1) 
NNOAPUXFPZEYGB-UHFFFAOYSA-N

>  <InChi>  (1) 
InChI=1S/C14H20N2.ClH/c1-2-3-4-11-5-6-14-13(9-11)12(7-8-15)10-16-14;/h5-6,9-10,16H,2-4,7-8,15H2,1H3;1H

>  <IUPAC Name>  (1) 
2-(5-butyl-1H-indol-3-yl)ethanamine;hydron;chloride

$$$$
