
     RDKit          3D

145150  0  0  0  0  0  0  0  0999 V2000
   10.0557   -0.1998    2.8695 C   0  0  0  0  0  0  0  0  0  0  0  0
    8.5712    0.0453    2.5518 C   0  0  0  0  0  0  0  0  0  0  0  0
    8.5292    1.3968    1.8794 C   0  0  0  0  0  0  0  0  0  0  0  0
    7.1525    1.8360    1.4723 C   0  0  0  0  0  0  0  0  0  0  0  0
    6.4656    0.9251    0.5211 C   0  0  1  0  0  0  0  0  0  0  0  0
    5.0931    1.4253    0.1476 C   0  0  0  0  0  0  0  0  0  0  0  0
    4.3029    1.8782    1.0411 O   0  0  0  0  0  0  0  0  0  0  0  0
    4.7228    1.3687   -1.2202 N   0  0  0  0  0  0  0  0  0  0  0  0
    3.4897    1.7775   -1.7832 C   0  0  1  0  0  0  0  0  0  0  0  0
    3.5581    2.7657   -2.9288 C   0  0  0  0  0  0  0  0  0  0  0  0
    3.7375    4.1449   -2.3585 C   0  0  0  0  0  0  0  0  0  0  0  0
    4.5561    5.1600   -2.2996 N   0  0  0  0  0  0  0  0  0  0  0  0
    3.9930    6.1199   -1.5314 N   0  0  0  0  0  0  0  0  0  0  0  0
    2.8295    5.7693   -1.0821 N   0  0  0  0  0  0  0  0  0  0  0  0
    2.6209    4.5125   -1.5848 C   0  0  0  0  0  0  0  0  0  0  0  0
    1.7197    6.2178   -0.2599 C   0  0  0  0  0  0  0  0  0  0  0  0
    0.7662    7.0593   -1.0412 C   0  0  0  0  0  0  0  0  0  0  0  0
   -0.5347    7.1015   -0.2041 C   0  0  0  0  0  0  0  0  0  0  0  0
   -1.2411    5.7870   -0.4147 C   0  0  0  0  0  0  0  0  0  0  0  0
   -2.3632    5.6432    0.5653 C   0  0  2  0  0  0  0  0  0  0  0  0
   -3.1963    4.4915    0.2750 N   0  0  0  0  0  0  0  0  0  0  0  0
   -3.0079    3.1725    0.7584 C   0  0  0  0  0  0  0  0  0  0  0  0
   -1.9564    2.9694    1.3719 O   0  0  0  0  0  0  0  0  0  0  0  0
   -4.0754    2.1864    0.4841 C   0  0  1  0  0  0  0  0  0  0  0  0
   -3.7610    0.8536    0.9588 N   0  0  0  0  0  0  0  0  0  0  0  0
   -4.4650   -0.2565    0.4226 C   0  0  0  0  0  0  0  0  0  0  0  0
   -5.3008   -0.0330   -0.4440 O   0  0  0  0  0  0  0  0  0  0  0  0
   -4.2599   -1.6873    0.8653 C   0  0  1  0  0  0  0  0  0  0  0  0
   -2.8521   -1.9927    0.9013 N   0  0  0  0  0  0  0  0  0  0  0  0
   -2.2709   -3.2685    0.7266 C   0  0  0  0  0  0  0  0  0  0  0  0
   -3.0440   -4.2352    0.7348 O   0  0  0  0  0  0  0  0  0  0  0  0
   -0.8204   -3.5868    0.5507 C   0  0  2  0  0  0  0  0  0  0  0  0
   -0.2522   -2.8921   -0.5644 N   0  0  0  0  0  0  0  0  0  0  0  0
    0.9318   -2.1052   -0.5920 C   0  0  0  0  0  0  0  0  0  0  0  0
    1.5564   -2.0441    0.4725 O   0  0  0  0  0  0  0  0  0  0  0  0
    1.2942   -1.4477   -1.8637 C   0  0  1  0  0  0  0  0  0  0  0  0
    2.4772   -0.5797   -1.6409 N   0  0  0  0  0  0  0  0  0  0  0  0
    2.4363    0.7987   -2.0127 C   0  0  0  0  0  0  0  0  0  0  0  0
    1.3849    1.1509   -2.5790 O   0  0  0  0  0  0  0  0  0  0  0  0
    1.5221   -2.3153   -3.0423 C   0  0  0  0  0  0  0  0  0  0  0  0
    2.6367   -3.2669   -2.9878 C   0  0  0  0  0  0  0  0  0  0  0  0
    3.5503   -3.5651   -2.0763 N   0  0  0  0  0  0  0  0  0  0  0  0
    4.4220   -4.4949   -2.5577 C   0  0  0  0  0  0  0  0  0  0  0  0
    4.0363   -4.7854   -3.8058 N   0  0  0  0  0  0  0  0  0  0  0  0
    2.9604   -4.0624   -4.0984 C   0  0  0  0  0  0  0  0  0  0  0  0
   -0.7182   -5.0688    0.4115 C   0  0  0  0  0  0  0  0  0  0  0  0
    0.6264   -5.6019    0.2176 C   0  0  0  0  0  0  0  0  0  0  0  0
    1.5587   -5.8356    1.1994 C   0  0  0  0  0  0  0  0  0  0  0  0
    2.7925   -6.4114    0.9560 C   0  0  0  0  0  0  0  0  0  0  0  0
    3.1415   -6.7840   -0.3372 C   0  0  0  0  0  0  0  0  0  0  0  0
    2.2125   -6.5570   -1.3519 C   0  0  0  0  0  0  0  0  0  0  0  0
    0.9926   -5.9810   -1.0721 C   0  0  0  0  0  0  0  0  0  0  0  0
   -4.9874   -1.7547    2.1910 C   0  0  0  0  0  0  0  0  0  0  0  0
   -5.0621   -3.0617    2.8581 C   0  0  0  0  0  0  0  0  0  0  0  0
   -5.9205   -3.9889    1.9824 C   0  0  0  0  0  0  0  0  0  0  0  0
   -6.0461   -5.3038    2.5188 N   0  0  0  0  0  0  0  0  0  0  0  0
   -5.9164   -6.3674    1.8397 C   0  0  0  0  0  0  0  0  0  0  0  0
   -6.0558   -7.6460    2.4379 N   0  0  0  0  0  0  0  0  0  0  0  0
   -5.6329   -6.2343    0.4326 N   0  0  0  0  0  0  0  0  0  0  0  0
   -5.2386    2.7551    1.3518 C   0  0  0  0  0  0  0  0  0  0  0  0
   -6.4796    2.0325    1.3144 C   0  0  0  0  0  0  0  0  0  0  0  0
   -6.9269    1.1742    2.3289 C   0  0  0  0  0  0  0  0  0  0  0  0
   -8.1410    0.6686    1.9626 N   0  0  0  0  0  0  0  0  0  0  0  0
   -8.4636    1.1748    0.7682 C   0  0  0  0  0  0  0  0  0  0  0  0
   -7.4543    2.0264    0.3358 C   0  0  0  0  0  0  0  0  0  0  0  0
   -7.6206    2.6234   -0.8756 C   0  0  0  0  0  0  0  0  0  0  0  0
   -8.7059    2.4465   -1.6952 C   0  0  0  0  0  0  0  0  0  0  0  0
   -9.7400    1.5819   -1.2683 C   0  0  0  0  0  0  0  0  0  0  0  0
   -9.5326    1.0010   -0.0413 C   0  0  0  0  0  0  0  0  0  0  0  0
   -3.1263    6.8726    0.7051 C   0  0  0  0  0  0  0  0  0  0  0  0
   -4.3755    6.8109    0.4164 O   0  0  0  0  0  0  0  0  0  0  0  0
   -2.6681    8.1360    1.1255 N   0  0  0  0  0  0  0  0  0  0  0  0
    7.2168    0.5711   -0.6465 N   0  0  0  0  0  0  0  0  0  0  0  0
    7.5447   -0.7373   -1.0543 C   0  0  0  0  0  0  0  0  0  0  0  0
    7.1995   -1.7763   -0.4112 O   0  0  0  0  0  0  0  0  0  0  0  0
    8.3380   -0.8967   -2.3058 C   0  0  0  0  0  0  0  0  0  0  0  0
   10.6965    0.2802    2.0764 H   0  0  0  0  0  0  0  0  0  0  0  0
   10.2794    0.3166    3.8260 H   0  0  0  0  0  0  0  0  0  0  0  0
   10.2588   -1.2737    3.0003 H   0  0  0  0  0  0  0  0  0  0  0  0
    8.0631    0.0807    3.5307 H   0  0  0  0  0  0  0  0  0  0  0  0
    8.2195   -0.7861    1.9293 H   0  0  0  0  0  0  0  0  0  0  0  0
    8.8493    2.1316    2.6788 H   0  0  0  0  0  0  0  0  0  0  0  0
    9.2868    1.4794    1.0760 H   0  0  0  0  0  0  0  0  0  0  0  0
    7.2440    2.8646    1.0945 H   0  0  0  0  0  0  0  0  0  0  0  0
    6.5576    1.8888    2.4297 H   0  0  0  0  0  0  0  0  0  0  0  0
    6.2517   -0.0395    1.0769 H   0  0  0  0  0  0  0  0  0  0  0  0
    5.4544    0.9791   -1.8952 H   0  0  0  0  0  0  0  0  0  0  0  0
    3.0322    2.4092   -0.8624 H   0  0  0  0  0  0  0  0  0  0  0  0
    2.6363    2.7683   -3.5274 H   0  0  0  0  0  0  0  0  0  0  0  0
    4.4212    2.5374   -3.5511 H   0  0  0  0  0  0  0  0  0  0  0  0
    1.7233    3.8925   -1.4114 H   0  0  0  0  0  0  0  0  0  0  0  0
    1.2067    5.4067    0.2456 H   0  0  0  0  0  0  0  0  0  0  0  0
    2.1491    6.8992    0.5343 H   0  0  0  0  0  0  0  0  0  0  0  0
    1.1081    8.0843   -1.2315 H   0  0  0  0  0  0  0  0  0  0  0  0
    0.5349    6.5930   -2.0166 H   0  0  0  0  0  0  0  0  0  0  0  0
   -1.1852    7.9032   -0.6523 H   0  0  0  0  0  0  0  0  0  0  0  0
   -0.3334    7.3203    0.8463 H   0  0  0  0  0  0  0  0  0  0  0  0
   -0.5252    4.9706   -0.3951 H   0  0  0  0  0  0  0  0  0  0  0  0
   -1.6891    5.8894   -1.4674 H   0  0  0  0  0  0  0  0  0  0  0  0
   -1.8211    5.4595    1.5585 H   0  0  0  0  0  0  0  0  0  0  0  0
   -3.9999    4.6402   -0.3423 H   0  0  0  0  0  0  0  0  0  0  0  0
   -4.3957    2.1666   -0.5447 H   0  0  0  0  0  0  0  0  0  0  0  0
   -3.0592    0.6170    1.6656 H   0  0  0  0  0  0  0  0  0  0  0  0
   -4.7689   -2.3492    0.2007 H   0  0  0  0  0  0  0  0  0  0  0  0
   -2.1944   -1.2287    1.0855 H   0  0  0  0  0  0  0  0  0  0  0  0
   -0.2958   -3.3236    1.5145 H   0  0  0  0  0  0  0  0  0  0  0  0
   -0.7478   -2.9614   -1.4678 H   0  0  0  0  0  0  0  0  0  0  0  0
    0.4220   -0.7813   -2.1418 H   0  0  0  0  0  0  0  0  0  0  0  0
    3.3477   -0.8880   -1.2301 H   0  0  0  0  0  0  0  0  0  0  0  0
    0.5987   -2.9638   -3.2222 H   0  0  0  0  0  0  0  0  0  0  0  0
    1.6366   -1.7458   -3.9927 H   0  0  0  0  0  0  0  0  0  0  0  0
    3.6236   -3.1889   -1.1347 H   0  0  0  0  0  0  0  0  0  0  0  0
    5.2681   -4.9299   -2.0525 H   0  0  0  0  0  0  0  0  0  0  0  0
    2.4237   -4.0908   -5.0562 H   0  0  0  0  0  0  0  0  0  0  0  0
   -1.3873   -5.3925   -0.4498 H   0  0  0  0  0  0  0  0  0  0  0  0
   -1.1992   -5.5652    1.3037 H   0  0  0  0  0  0  0  0  0  0  0  0
    1.2831   -5.5417    2.2232 H   0  0  0  0  0  0  0  0  0  0  0  0
    3.4958   -6.5794    1.7597 H   0  0  0  0  0  0  0  0  0  0  0  0
    4.1158   -7.2421   -0.5537 H   0  0  0  0  0  0  0  0  0  0  0  0
    2.4352   -6.8285   -2.3944 H   0  0  0  0  0  0  0  0  0  0  0  0
    0.3011   -5.8224   -1.9000 H   0  0  0  0  0  0  0  0  0  0  0  0
   -4.7481   -0.8957    2.8507 H   0  0  0  0  0  0  0  0  0  0  0  0
   -6.0617   -1.5163    1.8833 H   0  0  0  0  0  0  0  0  0  0  0  0
   -4.1358   -3.5987    3.0589 H   0  0  0  0  0  0  0  0  0  0  0  0
   -5.6023   -2.9665    3.8631 H   0  0  0  0  0  0  0  0  0  0  0  0
   -5.6374   -3.9931    0.9315 H   0  0  0  0  0  0  0  0  0  0  0  0
   -6.9861   -3.5651    1.9666 H   0  0  0  0  0  0  0  0  0  0  0  0
   -6.2755   -8.4377    1.8029 H   0  0  0  0  0  0  0  0  0  0  0  0
   -5.9302   -7.7050    3.4688 H   0  0  0  0  0  0  0  0  0  0  0  0
   -6.2610   -5.6762   -0.1875 H   0  0  0  0  0  0  0  0  0  0  0  0
   -4.8004   -6.7025    0.0427 H   0  0  0  0  0  0  0  0  0  0  0  0
   -4.7862    2.7438    2.3782 H   0  0  0  0  0  0  0  0  0  0  0  0
   -5.3872    3.8257    1.0941 H   0  0  0  0  0  0  0  0  0  0  0  0
   -6.3719    0.9602    3.2554 H   0  0  0  0  0  0  0  0  0  0  0  0
   -8.6431    0.0055    2.5854 H   0  0  0  0  0  0  0  0  0  0  0  0
   -6.8348    3.2924   -1.2126 H   0  0  0  0  0  0  0  0  0  0  0  0
   -8.8307    2.9212   -2.6612 H   0  0  0  0  0  0  0  0  0  0  0  0
  -10.6099    1.4158   -1.8888 H   0  0  0  0  0  0  0  0  0  0  0  0
  -10.3231    0.3201    0.3179 H   0  0  0  0  0  0  0  0  0  0  0  0
   -2.1454    8.3023    2.0180 H   0  0  0  0  0  0  0  0  0  0  0  0
   -2.8449    8.9957    0.5502 H   0  0  0  0  0  0  0  0  0  0  0  0
    7.5488    1.3856   -1.2473 H   0  0  0  0  0  0  0  0  0  0  0  0
    9.0281   -0.0360   -2.4405 H   0  0  0  0  0  0  0  0  0  0  0  0
    7.6447   -0.8871   -3.1712 H   0  0  0  0  0  0  0  0  0  0  0  0
    8.8899   -1.8511   -2.3124 H   0  0  0  0  0  0  0  0  0  0  0  0
  1  2  1  0
  2  3  1  0
  3  4  1  0
  4  5  1  0
  5  6  1  0
  6  7  2  0
  6  8  1  0
  8  9  1  0
  9 10  1  0
 10 11  1  0
 11 12  1  0
 12 13  2  0
 13 14  1  0
 14 15  1  0
 14 16  1  0
 16 17  1  0
 17 18  1  0
 18 19  1  0
 19 20  1  0
 20 21  1  0
 21 22  1  0
 22 23  2  0
 22 24  1  0
 24 25  1  0
 25 26  1  0
 26 27  2  0
 26 28  1  0
 28 29  1  0
 29 30  1  0
 30 31  2  0
 30 32  1  0
 32 33  1  0
 33 34  1  0
 34 35  2  0
 34 36  1  0
 36 37  1  0
 37 38  1  0
 38 39  2  0
 36 40  1  0
 40 41  1  0
 41 42  1  0
 42 43  1  0
 43 44  2  0
 44 45  1  0
 32 46  1  0
 46 47  1  0
 47 48  2  0
 48 49  1  0
 49 50  2  0
 50 51  1  0
 51 52  2  0
 28 53  1  0
 53 54  1  0
 54 55  1  0
 55 56  1  0
 56 57  2  3
 57 58  1  0
 57 59  1  0
 24 60  1  0
 60 61  1  0
 61 62  2  0
 62 63  1  0
 63 64  1  0
 64 65  2  0
 65 66  1  0
 66 67  2  0
 67 68  1  0
 68 69  2  0
 20 70  1  0
 70 71  2  0
 70 72  1  0
  5 73  1  0
 73 74  1  0
 74 75  2  0
 74 76  1  0
 38  9  1  0
 45 41  2  0
 52 47  1  0
 65 61  1  0
 15 11  2  0
 69 64  1  0
  1 77  1  0
  1 78  1  0
  1 79  1  0
  2 80  1  0
  2 81  1  0
  3 82  1  0
  3 83  1  0
  4 84  1  0
  4 85  1  0
  5 86  1  1
  8 87  1  0
  9 88  1  1
 10 89  1  0
 10 90  1  0
 15 91  1  0
 16 92  1  0
 16 93  1  0
 17 94  1  0
 17 95  1  0
 18 96  1  0
 18 97  1  0
 19 98  1  0
 19 99  1  0
 20100  1  1
 21101  1  0
 24102  1  6
 25103  1  0
 28104  1  6
 29105  1  0
 32106  1  1
 33107  1  0
 36108  1  6
 37109  1  0
 40110  1  0
 40111  1  0
 42112  1  0
 43113  1  0
 45114  1  0
 46115  1  0
 46116  1  0
 48117  1  0
 49118  1  0
 50119  1  0
 51120  1  0
 52121  1  0
 53122  1  0
 53123  1  0
 54124  1  0
 54125  1  0
 55126  1  0
 55127  1  0
 58128  1  0
 58129  1  0
 59130  1  0
 59131  1  0
 60132  1  0
 60133  1  0
 62134  1  0
 63135  1  0
 66136  1  0
 67137  1  0
 68138  1  0
 69139  1  0
 72140  1  0
 72141  1  0
 73142  1  0
 76143  1  0
 76144  1  0
 76145  1  0
M  END
>  <Ligand ID>  (1) 
LIG0001788

>  <Ligand>  (1) 
CHEMBL3358543

>  <SMILES>  (1) 
CCCC[C@@H](C(=O)N[C@H]1Cc2nnn(c2)CCCC[C@H](NC(=O)[C@@H](NC(=O)[C@@H](NC(=O)[C@H](NC(=O)[C@@H](NC1=O)Cc1[nH]cnc1)Cc1ccccc1)CCCN=C(N)N)Cc1c[nH]c2c1cccc2)C(=O)N)NC(=O)C

>  <CID>  (1) 
118722935.0

>  <ChEMBL ID>  (1) 
nan

>  <InChiKey>  (1) 
KXPGBMNMTKVKHX-ZRBRQIMBSA-N

>  <InChi>  (1) 
InChI=1S/C51H69N17O8/c1-3-4-16-38(59-30(2)69)45(71)64-43-25-34-28-68(67-66-34)21-11-10-18-37(44(52)70)60-48(74)41(23-32-26-57-36-17-9-8-15-35(32)36)63-46(72)39(19-12-20-56-51(53)54)61-47(73)40(22-31-13-6-5-7-14-31)62-49(75)42(65-50(43)76)24-33-27-55-29-58-33/h5-9,13-15,17,26-29,37-43,57H,3-4,10-12,16,18-25H2,1-2H3,(H2,52,70)(H,55,58)(H,59,69)(H,60,74)(H,61,73)(H,62,75)(H,63,72)(H,64,71)(H,65,76)(H4,53,54,56)/t37-,38-,39-,40+,41-,42-,43-/m0/s1

>  <IUPAC Name>  (1) 
(6S,9S,12S,15R,18S,21S)-21-[[(2S)-2-acetamidohexanoyl]amino]-15-benzyl-12-[3-(diaminomethylideneamino)propyl]-18-(1H-imidazol-5-ylmethyl)-9-(1H-indol-3-ylmethyl)-8,11,14,17,20-pentaoxo-1,7,10,13,16,19,24,25-octazabicyclo[21.2.1]hexacosa-23(26),24-diene-6-carboxamide

$$$$
