
     RDKit          3D

 26 26  0  0  0  0  0  0  0  0999 V2000
   -2.1240   -2.2385    0.2964 O   0  0  0  0  0  0  0  0  0  0  0  0
   -2.3368   -1.0747    0.6250 C   0  0  0  0  0  0  0  0  0  0  0  0
   -2.3277    0.0546   -0.3431 C   0  0  0  0  0  0  0  0  0  0  0  0
   -1.2750    1.0776    0.0311 C   0  0  0  0  0  0  0  0  0  0  0  0
    0.0892    0.5406    0.0567 C   0  0  0  0  0  0  0  0  0  0  0  0
    0.8184    0.6048   -1.1344 C   0  0  0  0  0  0  0  0  0  0  0  0
    2.1220    0.1116   -1.1786 C   0  0  0  0  0  0  0  0  0  0  0  0
    2.6710   -0.4381   -0.0249 C   0  0  0  0  0  0  0  0  0  0  0  0
    1.9516   -0.5023    1.1533 C   0  0  0  0  0  0  0  0  0  0  0  0
    0.6720   -0.0180    1.1961 C   0  0  0  0  0  0  0  0  0  0  0  0
    4.0655   -0.9448   -0.1440 C   0  0  0  0  0  0  0  0  0  0  0  0
   -3.6436    0.7574   -0.4568 C   0  0  0  0  0  0  0  0  0  0  0  0
   -2.5445   -0.8404    1.6748 H   0  0  0  0  0  0  0  0  0  0  0  0
   -2.1041   -0.3948   -1.3490 H   0  0  0  0  0  0  0  0  0  0  0  0
   -1.3073    1.9677   -0.6041 H   0  0  0  0  0  0  0  0  0  0  0  0
   -1.5301    1.4002    1.0815 H   0  0  0  0  0  0  0  0  0  0  0  0
    0.3848    1.0377   -2.0413 H   0  0  0  0  0  0  0  0  0  0  0  0
    2.6567    0.1757   -2.1103 H   0  0  0  0  0  0  0  0  0  0  0  0
    2.4512   -0.9507    2.0256 H   0  0  0  0  0  0  0  0  0  0  0  0
    0.0976   -0.0614    2.1098 H   0  0  0  0  0  0  0  0  0  0  0  0
    4.7092   -0.0400   -0.2589 H   0  0  0  0  0  0  0  0  0  0  0  0
    4.3550   -1.5316    0.7729 H   0  0  0  0  0  0  0  0  0  0  0  0
    4.1872   -1.5868   -1.0357 H   0  0  0  0  0  0  0  0  0  0  0  0
   -3.7652    1.6109    0.2594 H   0  0  0  0  0  0  0  0  0  0  0  0
   -3.7580    1.2067   -1.4743 H   0  0  0  0  0  0  0  0  0  0  0  0
   -4.5152    0.0765   -0.2642 H   0  0  0  0  0  0  0  0  0  0  0  0
  1  2  2  0
  2  3  1  0
  3  4  1  0
  4  5  1  0
  5  6  2  0
  6  7  1  0
  7  8  2  0
  8  9  1  0
  9 10  2  0
  8 11  1  0
  3 12  1  0
 10  5  1  0
  2 13  1  0
  3 14  1  0
  4 15  1  0
  4 16  1  0
  6 17  1  0
  7 18  1  0
  9 19  1  0
 10 20  1  0
 11 21  1  0
 11 22  1  0
 11 23  1  0
 12 24  1  0
 12 25  1  0
 12 26  1  0
M  END
>  <Ligand ID>  (1) 
LIG0000355

>  <Ligand>  (1) 
2-Methyl-3-(p-tolyl)propanal

>  <SMILES>  (1) 
O=CC(Cc1ccc(cc1)C)C

>  <CID>  (1) 
95594.0

>  <ChEMBL ID>  (1) 
nan

>  <InChiKey>  (1) 
SGVBCLGVIOFAFT-UHFFFAOYSA-N

>  <InChi>  (1) 
InChI=1S/C11H14O/c1-9-3-5-11(6-4-9)7-10(2)8-12/h3-6,8,10H,7H2,1-2H3

>  <IUPAC Name>  (1) 
2-methyl-3-(4-methylphenyl)propanal

$$$$
