
     RDKit          3D

 59 63  0  0  0  0  0  0  0  0999 V2000
    3.5887    4.5133    3.8270 Cl  0  0  0  0  0  0  0  0  0  0  0  0
    2.8022    3.3636    2.7894 C   0  0  0  0  0  0  0  0  0  0  0  0
    2.1232    3.8404    1.6930 C   0  0  0  0  0  0  0  0  0  0  0  0
    1.4730    2.9968    0.8214 C   0  0  0  0  0  0  0  0  0  0  0  0
    1.4689    1.6025    1.0055 C   0  0  0  0  0  0  0  0  0  0  0  0
    2.1561    1.1459    2.1127 C   0  0  0  0  0  0  0  0  0  0  0  0
    2.8112    2.0074    2.9895 C   0  0  0  0  0  0  0  0  0  0  0  0
    2.2309   -0.5615    2.4901 Cl  0  0  0  0  0  0  0  0  0  0  0  0
    0.7762    0.7328    0.1272 N   0  0  0  0  0  0  0  0  0  0  0  0
   -0.5539    0.7935   -0.0570 N   0  0  0  0  0  0  0  0  0  0  0  0
   -0.9751   -0.1603   -0.9091 C   0  0  0  0  0  0  0  0  0  0  0  0
    0.1189   -0.8609   -1.2881 C   0  0  0  0  0  0  0  0  0  0  0  0
    1.1909   -0.2801   -0.6289 C   0  0  0  0  0  0  0  0  0  0  0  0
    2.5882   -0.6912   -0.7369 C   0  0  0  0  0  0  0  0  0  0  0  0
    3.4669    0.2886   -0.6277 C   0  0  0  0  0  0  0  0  0  0  0  0
    4.8854    0.0053   -0.7108 C   0  0  0  0  0  0  0  0  0  0  0  0
    5.9345    0.5760    0.0318 C   0  0  0  0  0  0  0  0  0  0  0  0
    7.1653    0.1694   -0.2170 C   0  0  0  0  0  0  0  0  0  0  0  0
    7.3279   -0.7967   -1.1995 C   0  0  0  0  0  0  0  0  0  0  0  0
    5.6710   -1.1480   -1.8002 S   0  0  0  0  0  0  0  0  0  0  0  0
    8.8436   -1.5726   -1.7908 Cl  0  0  0  0  0  0  0  0  0  0  0  0
    3.0313   -2.0779   -0.9918 C   0  0  0  0  0  0  0  0  0  0  0  0
    2.0586   -3.1461   -0.7674 C   0  0  0  0  0  0  0  0  0  0  0  0
    0.7136   -3.1631   -1.3121 C   0  0  0  0  0  0  0  0  0  0  0  0
    0.2384   -2.0400   -2.1872 C   0  0  0  0  0  0  0  0  0  0  0  0
   -2.3280   -0.4280   -1.3666 C   0  0  0  0  0  0  0  0  0  0  0  0
   -2.6541   -1.3231   -2.1547 O   0  0  0  0  0  0  0  0  0  0  0  0
   -3.3752    0.4139   -0.8648 N   0  0  0  0  0  0  0  0  0  0  0  0
   -4.7593    0.2431   -1.2492 C   0  0  1  0  0  0  0  0  0  0  0  0
   -5.6019   -0.0570   -0.0829 C   0  0  0  0  0  0  0  0  0  0  0  0
   -5.4119    0.7051    1.0597 C   0  0  0  0  0  0  0  0  0  0  0  0
   -6.1429    0.5155    2.2136 C   0  0  0  0  0  0  0  0  0  0  0  0
   -7.0933   -0.4835    2.1915 C   0  0  0  0  0  0  0  0  0  0  0  0
   -7.2888   -1.2512    1.0499 C   0  0  0  0  0  0  0  0  0  0  0  0
   -6.5451   -1.0252   -0.0579 N   0  0  0  0  0  0  0  0  0  0  0  0
   -5.3104    1.4823   -1.9237 C   0  0  0  0  0  0  0  0  0  0  0  0
    2.0794    4.8885    1.4846 H   0  0  0  0  0  0  0  0  0  0  0  0
    0.9308    3.3681   -0.0538 H   0  0  0  0  0  0  0  0  0  0  0  0
    3.3446    1.6289    3.8504 H   0  0  0  0  0  0  0  0  0  0  0  0
    3.1865    1.3182   -0.5134 H   0  0  0  0  0  0  0  0  0  0  0  0
    5.6656    1.3388    0.7886 H   0  0  0  0  0  0  0  0  0  0  0  0
    8.0663    0.5489    0.3066 H   0  0  0  0  0  0  0  0  0  0  0  0
    3.3844   -2.1584   -2.0629 H   0  0  0  0  0  0  0  0  0  0  0  0
    3.9228   -2.2830   -0.3665 H   0  0  0  0  0  0  0  0  0  0  0  0
    2.5637   -4.1288   -1.0668 H   0  0  0  0  0  0  0  0  0  0  0  0
    1.9618   -3.3079    0.3604 H   0  0  0  0  0  0  0  0  0  0  0  0
    0.5596   -4.0963   -1.9342 H   0  0  0  0  0  0  0  0  0  0  0  0
   -0.0873   -3.3017   -0.5079 H   0  0  0  0  0  0  0  0  0  0  0  0
    1.0495   -1.7503   -2.9189 H   0  0  0  0  0  0  0  0  0  0  0  0
   -0.6357   -2.2675   -2.7791 H   0  0  0  0  0  0  0  0  0  0  0  0
   -3.1200    1.1900   -0.1866 H   0  0  0  0  0  0  0  0  0  0  0  0
   -4.8277   -0.5933   -1.9586 H   0  0  0  0  0  0  0  0  0  0  0  0
   -4.6651    1.5029    1.1041 H   0  0  0  0  0  0  0  0  0  0  0  0
   -5.9794    1.1267    3.1047 H   0  0  0  0  0  0  0  0  0  0  0  0
   -7.6660   -0.6302    3.0989 H   0  0  0  0  0  0  0  0  0  0  0  0
   -8.0515   -2.0230    1.0930 H   0  0  0  0  0  0  0  0  0  0  0  0
   -6.4169    1.4964   -1.8738 H   0  0  0  0  0  0  0  0  0  0  0  0
   -4.8208    2.3912   -1.5460 H   0  0  0  0  0  0  0  0  0  0  0  0
   -5.0694    1.4128   -3.0208 H   0  0  0  0  0  0  0  0  0  0  0  0
  1  2  1  0
  2  3  2  0
  3  4  1  0
  4  5  2  0
  5  6  1  0
  6  7  2  0
  6  8  1  0
  5  9  1  0
  9 10  1  0
 10 11  2  0
 11 12  1  0
 12 13  2  0
 13 14  1  0
 14 15  2  0
 15 16  1  0
 16 17  2  0
 17 18  1  0
 18 19  2  0
 19 20  1  0
 19 21  1  0
 14 22  1  0
 22 23  1  0
 23 24  1  0
 24 25  1  0
 11 26  1  0
 26 27  2  0
 26 28  1  0
 28 29  1  0
 29 30  1  0
 30 31  2  0
 31 32  1  0
 32 33  2  0
 33 34  1  0
 34 35  2  0
 29 36  1  0
  7  2  1  0
 13  9  1  0
 20 16  1  0
 35 30  1  0
 25 12  1  0
  3 37  1  0
  4 38  1  0
  7 39  1  0
 15 40  1  0
 17 41  1  0
 18 42  1  0
 22 43  1  0
 22 44  1  0
 23 45  1  0
 23 46  1  0
 24 47  1  0
 24 48  1  0
 25 49  1  0
 25 50  1  0
 28 51  1  0
 29 52  1  6
 31 53  1  0
 32 54  1  0
 33 55  1  0
 34 56  1  0
 36 57  1  0
 36 58  1  0
 36 59  1  0
M  END
>  <Ligand ID>  (1) 
LIG0005429

>  <Ligand>  (1) 
CHEMBL3964744

>  <SMILES>  (1) 
Clc1ccc(c(c1)Cl)n1nc(c2c1/C(=C/c1ccc(s1)Cl)/CCCC2)C(=O)N[C@@H](c1ccccn1)C

>  <CID>  (1) 
134149884.0

>  <ChEMBL ID>  (1) 
nan

>  <InChiKey>  (1) 
MNZFCCVSVRWOPW-WECAROLCSA-N

>  <InChi>  (1) 
InChI=1S/C27H23Cl3N4OS/c1-16(22-8-4-5-13-31-22)32-27(35)25-20-7-3-2-6-17(14-19-10-12-24(30)36-19)26(20)34(33-25)23-11-9-18(28)15-21(23)29/h4-5,8-16H,2-3,6-7H2,1H3,(H,32,35)/b17-14+/t16-/m1/s1

>  <IUPAC Name>  (1) 
(8E)-8-[(5-chlorothiophen-2-yl)methylidene]-1-(2,4-dichlorophenyl)-N-[(1R)-1-pyridin-2-ylethyl]-4,5,6,7-tetrahydrocyclohepta[c]pyrazole-3-carboxamide

$$$$
