
     RDKit          3D

 22 22  0  0  0  0  0  0  0  0999 V2000
    3.5249    0.5191   -0.4001 O   0  0  0  0  0  0  0  0  0  0  0  0
    2.6582   -0.2646    0.3803 C   0  0  0  0  0  0  0  0  0  0  0  0
    3.1146   -1.4081    0.6974 O   0  0  0  0  0  0  0  0  0  0  0  0
    1.3319    0.1871    0.8019 C   0  0  2  0  0  0  0  0  0  0  0  0
    0.2022   -0.7365    0.5156 C   0  0  2  0  0  0  0  0  0  0  0  0
   -0.1725   -1.1775   -0.8293 C   0  0  0  0  0  0  0  0  0  0  0  0
   -0.9580   -0.0741   -0.2638 C   0  0  1  0  0  0  0  0  0  0  0  0
   -2.5627   -0.2956    0.4849 P   0  0  0  0  0  0  0  0  0  0  0  0
   -2.4653   -1.0204    1.8292 O   0  0  0  0  0  0  0  0  0  0  0  0
   -3.2642    1.2090    0.8160 O   0  0  0  0  0  0  0  0  0  0  0  0
   -3.5811   -1.1215   -0.5597 O   0  0  0  0  0  0  0  0  0  0  0  0
    1.0858    1.5406    0.2863 N   0  0  0  0  0  0  0  0  0  0  0  0
    4.5240    0.5765   -0.1929 H   0  0  0  0  0  0  0  0  0  0  0  0
    1.3845    0.3391    1.9200 H   0  0  0  0  0  0  0  0  0  0  0  0
   -0.0751   -1.4366    1.3342 H   0  0  0  0  0  0  0  0  0  0  0  0
    0.5560   -0.9624   -1.6421 H   0  0  0  0  0  0  0  0  0  0  0  0
   -0.6433   -2.1746   -0.9743 H   0  0  0  0  0  0  0  0  0  0  0  0
   -0.7773    0.9185   -0.6964 H   0  0  0  0  0  0  0  0  0  0  0  0
   -2.6073    1.9474    0.7625 H   0  0  0  0  0  0  0  0  0  0  0  0
   -3.6142   -0.6020   -1.4028 H   0  0  0  0  0  0  0  0  0  0  0  0
    0.3696    1.9767    0.9168 H   0  0  0  0  0  0  0  0  0  0  0  0
    1.9694    2.0598    0.2485 H   0  0  0  0  0  0  0  0  0  0  0  0
  1  2  1  0
  2  3  2  0
  2  4  1  0
  4  5  1  0
  5  6  1  0
  6  7  1  0
  7  8  1  0
  8  9  2  0
  8 10  1  0
  8 11  1  0
  4 12  1  0
  7  5  1  0
  1 13  1  0
  4 14  1  1
  5 15  1  1
  6 16  1  0
  6 17  1  0
  7 18  1  6
 10 19  1  0
 11 20  1  0
 12 21  1  0
 12 22  1  0
M  END
>  <Ligand ID>  (1) 
LIG0000656

>  <Ligand>  (1) 
CHEMBL199626

>  <SMILES>  (1) 
OC(=O)[C@H]([C@@H]1C[C@H]1P(=O)(O)O)N

>  <CID>  (1) 
44406221.0

>  <ChEMBL ID>  (1) 
nan

>  <InChiKey>  (1) 
KZOMBNQLBSHMFV-JJYYJPOSSA-N

>  <InChi>  (1) 
InChI=1S/C5H10NO5P/c6-4(5(7)8)2-1-3(2)12(9,10)11/h2-4H,1,6H2,(H,7,8)(H2,9,10,11)/t2-,3-,4+/m1/s1

>  <IUPAC Name>  (1) 
(2S)-2-amino-2-[(1S,2R)-2-phosphonocyclopropyl]acetic acid

$$$$
