
     RDKit          3D

 39 40  0  0  0  0  0  0  0  0999 V2000
   -3.1203    3.5943    1.9162 C   0  0  0  0  0  0  0  0  0  0  0  0
   -2.4584    2.2435    1.8132 C   0  0  0  0  0  0  0  0  0  0  0  0
   -2.1157    1.9869    0.4520 O   0  0  0  0  0  0  0  0  0  0  0  0
   -1.4966    0.8202    0.0727 N   0  0  0  0  0  0  0  0  0  0  0  0
   -2.1012   -0.2645   -0.2441 C   0  0  0  0  0  0  0  0  0  0  0  0
   -1.4762   -1.5099   -0.6480 C   0  0  0  0  0  0  0  0  0  0  0  0
   -2.2869   -2.5992   -0.9597 C   0  0  0  0  0  0  0  0  0  0  0  0
   -1.8267   -3.8164   -1.3501 C   0  0  0  0  0  0  0  0  0  0  0  0
   -0.4669   -4.0005   -1.4488 C   0  0  0  0  0  0  0  0  0  0  0  0
    0.3382   -2.9383   -1.1453 C   0  0  0  0  0  0  0  0  0  0  0  0
   -0.1186   -1.6982   -0.7479 C   0  0  0  0  0  0  0  0  0  0  0  0
    0.8132   -0.6704   -0.4592 N   0  0  0  0  0  0  0  0  0  0  0  0
    2.2283   -0.9961   -0.6031 C   0  0  0  0  0  0  0  0  0  0  0  0
    3.1186    0.1347   -0.2836 C   0  0  0  0  0  0  0  0  0  0  0  0
    2.6878    1.2941    0.0860 N   0  0  0  0  0  0  0  0  0  0  0  0
    3.7766    2.1988    0.3299 C   0  0  0  0  0  0  0  0  0  0  0  0
    5.0415    1.4443   -0.0233 C   0  0  0  0  0  0  0  0  0  0  0  0
    4.5332    0.1257   -0.3306 N   0  0  0  0  0  0  0  0  0  0  0  0
   -3.5948   -0.2197   -0.1849 C   0  0  0  0  0  0  0  0  0  0  0  0
   -4.1387    3.5108    2.2971 H   0  0  0  0  0  0  0  0  0  0  0  0
   -2.5512    4.2609    2.6124 H   0  0  0  0  0  0  0  0  0  0  0  0
   -3.1364    4.0836    0.8989 H   0  0  0  0  0  0  0  0  0  0  0  0
   -1.5582    2.2413    2.4746 H   0  0  0  0  0  0  0  0  0  0  0  0
   -3.1534    1.4845    2.2061 H   0  0  0  0  0  0  0  0  0  0  0  0
   -3.3847   -2.4967   -0.8940 H   0  0  0  0  0  0  0  0  0  0  0  0
   -2.4638   -4.6505   -1.5883 H   0  0  0  0  0  0  0  0  0  0  0  0
   -0.0767   -4.9622   -1.7581 H   0  0  0  0  0  0  0  0  0  0  0  0
    1.4223   -3.1242   -1.2363 H   0  0  0  0  0  0  0  0  0  0  0  0
    0.6110    0.2843   -0.1582 H   0  0  0  0  0  0  0  0  0  0  0  0
    2.3822   -1.2641   -1.6686 H   0  0  0  0  0  0  0  0  0  0  0  0
    2.4742   -1.9029    0.0115 H   0  0  0  0  0  0  0  0  0  0  0  0
    3.8395    2.4719    1.3990 H   0  0  0  0  0  0  0  0  0  0  0  0
    3.6852    3.0856   -0.3312 H   0  0  0  0  0  0  0  0  0  0  0  0
    5.7726    1.4313    0.8311 H   0  0  0  0  0  0  0  0  0  0  0  0
    5.5463    1.9265   -0.9080 H   0  0  0  0  0  0  0  0  0  0  0  0
    5.1125   -0.7201   -0.5564 H   0  0  0  0  0  0  0  0  0  0  0  0
   -4.0181   -0.5785   -1.1638 H   0  0  0  0  0  0  0  0  0  0  0  0
   -3.9533    0.7782    0.0488 H   0  0  0  0  0  0  0  0  0  0  0  0
   -3.8864   -0.9893    0.5815 H   0  0  0  0  0  0  0  0  0  0  0  0
  1  2  1  0
  2  3  1  0
  3  4  1  0
  4  5  2  0
  5  6  1  0
  6  7  2  0
  7  8  1  0
  8  9  2  0
  9 10  1  0
 10 11  2  0
 11 12  1  0
 12 13  1  0
 13 14  1  0
 14 15  2  0
 15 16  1  0
 16 17  1  0
 17 18  1  0
  5 19  1  0
 11  6  1  0
 18 14  1  0
  1 20  1  0
  1 21  1  0
  1 22  1  0
  2 23  1  0
  2 24  1  0
  7 25  1  0
  8 26  1  0
  9 27  1  0
 10 28  1  0
 12 29  1  0
 13 30  1  0
 13 31  1  0
 16 32  1  0
 16 33  1  0
 17 34  1  0
 17 35  1  0
 18 36  1  0
 19 37  1  0
 19 38  1  0
 19 39  1  0
M  END
>  <Ligand ID>  (1) 
LIG0004426

>  <Ligand>  (1) 
CHEMBL346465

>  <SMILES>  (1) 
CCO/N=C(/c1ccccc1NCC1=NCCN1)\C

>  <CID>  (1) 
22493347.0

>  <ChEMBL ID>  (1) 
nan

>  <InChiKey>  (1) 
PWTSJGTVQUBKFO-WOJGMQOQSA-N

>  <InChi>  (1) 
InChI=1S/C14H20N4O/c1-3-19-18-11(2)12-6-4-5-7-13(12)17-10-14-15-8-9-16-14/h4-7,17H,3,8-10H2,1-2H3,(H,15,16)/b18-11+

>  <IUPAC Name>  (1) 
N-(4,5-dihydro-1H-imidazol-2-ylmethyl)-2-[(E)-N-ethoxy-C-methylcarbonimidoyl]aniline

$$$$
