
     RDKit          3D

 59 61  0  0  0  0  0  0  0  0999 V2000
   -5.3822    2.8942    3.1917 C   0  0  0  0  0  0  0  0  0  0  0  0
   -5.0617    2.2107    1.8725 C   0  0  0  0  0  0  0  0  0  0  0  0
   -5.4604    0.8698    1.9235 O   0  0  0  0  0  0  0  0  0  0  0  0
   -4.6873   -0.2384    1.7371 C   0  0  0  0  0  0  0  0  0  0  0  0
   -3.3405   -0.2465    1.4603 C   0  0  0  0  0  0  0  0  0  0  0  0
   -2.6114   -1.4134    1.2815 C   0  0  0  0  0  0  0  0  0  0  0  0
   -3.2593   -2.6420    1.3836 C   0  0  0  0  0  0  0  0  0  0  0  0
   -4.6106   -2.6493    1.6609 C   0  0  0  0  0  0  0  0  0  0  0  0
   -5.3238   -1.4804    1.8367 C   0  0  0  0  0  0  0  0  0  0  0  0
   -6.7579   -1.5524    2.1302 C   0  0  0  0  0  0  0  0  0  0  0  0
   -7.3330   -2.6670    2.2207 O   0  0  0  0  0  0  0  0  0  0  0  0
   -7.4730   -0.3775    2.3067 O   0  0  0  0  0  0  0  0  0  0  0  0
   -1.1881   -1.3260    0.9954 C   0  0  0  0  0  0  0  0  0  0  0  0
   -0.5990   -0.3102    0.2949 C   0  0  0  0  0  0  0  0  0  0  0  0
    0.7618   -0.2962    0.0703 C   0  0  0  0  0  0  0  0  0  0  0  0
    1.5594   -1.3135    0.5512 C   0  0  0  0  0  0  0  0  0  0  0  0
    0.9695   -2.3596    1.2694 C   0  0  0  0  0  0  0  0  0  0  0  0
   -0.3877   -2.3406    1.4738 C   0  0  0  0  0  0  0  0  0  0  0  0
    3.0506   -1.3258    0.3278 C   0  0  0  0  0  0  0  0  0  0  0  0
    3.2600   -2.0806   -0.9838 C   0  0  0  0  0  0  0  0  0  0  0  0
    4.6460   -2.1675   -1.3019 N   0  0  0  0  0  0  0  0  0  0  0  0
    5.1756   -0.8862   -1.6315 C   0  0  0  0  0  0  0  0  0  0  0  0
    4.6425   -0.3184   -2.9465 C   0  0  1  0  0  0  0  0  0  0  0  0
    5.3565    1.0015   -3.0928 C   0  0  0  0  0  0  0  0  0  0  0  0
    4.6572    2.1975   -2.9470 C   0  0  0  0  0  0  0  0  0  0  0  0
    5.3239    3.4204   -3.0829 C   0  0  0  0  0  0  0  0  0  0  0  0
    6.6698    3.3543   -3.3607 C   0  0  0  0  0  0  0  0  0  0  0  0
    7.3494    2.2041   -3.5024 N   0  0  0  0  0  0  0  0  0  0  0  0
    6.7140    1.0117   -3.3729 C   0  0  0  0  0  0  0  0  0  0  0  0
    4.9851   -1.2051   -3.9565 O   0  0  0  0  0  0  0  0  0  0  0  0
   -5.8219    2.9378    0.7611 C   0  0  0  0  0  0  0  0  0  0  0  0
   -4.5557    3.5899    3.4760 H   0  0  0  0  0  0  0  0  0  0  0  0
   -6.3118    3.4930    3.1469 H   0  0  0  0  0  0  0  0  0  0  0  0
   -5.4500    2.1628    4.0067 H   0  0  0  0  0  0  0  0  0  0  0  0
   -3.9936    2.2860    1.6379 H   0  0  0  0  0  0  0  0  0  0  0  0
   -2.8152    0.6724    1.3752 H   0  0  0  0  0  0  0  0  0  0  0  0
   -2.6960   -3.5589    1.2448 H   0  0  0  0  0  0  0  0  0  0  0  0
   -5.1193   -3.5870    1.7418 H   0  0  0  0  0  0  0  0  0  0  0  0
   -8.4131   -0.4305    2.6481 H   0  0  0  0  0  0  0  0  0  0  0  0
   -1.2437    0.4759   -0.0722 H   0  0  0  0  0  0  0  0  0  0  0  0
    1.2083    0.5191   -0.4881 H   0  0  0  0  0  0  0  0  0  0  0  0
    1.6165   -3.1576    1.6429 H   0  0  0  0  0  0  0  0  0  0  0  0
   -0.8347   -3.1644    2.0368 H   0  0  0  0  0  0  0  0  0  0  0  0
    3.4808   -1.8564    1.1797 H   0  0  0  0  0  0  0  0  0  0  0  0
    3.3284   -0.2704    0.2393 H   0  0  0  0  0  0  0  0  0  0  0  0
    2.6824   -1.6260   -1.7960 H   0  0  0  0  0  0  0  0  0  0  0  0
    2.8398   -3.1243   -0.8843 H   0  0  0  0  0  0  0  0  0  0  0  0
    4.7719   -2.8300   -2.0906 H   0  0  0  0  0  0  0  0  0  0  0  0
    6.2920   -0.9601   -1.6948 H   0  0  0  0  0  0  0  0  0  0  0  0
    4.9831   -0.0842   -0.8921 H   0  0  0  0  0  0  0  0  0  0  0  0
    3.5690   -0.1549   -2.8681 H   0  0  0  0  0  0  0  0  0  0  0  0
    3.5783    2.1808   -2.7247 H   0  0  0  0  0  0  0  0  0  0  0  0
    4.8062    4.3664   -2.9748 H   0  0  0  0  0  0  0  0  0  0  0  0
    7.2507    4.2781   -3.4794 H   0  0  0  0  0  0  0  0  0  0  0  0
    7.2841    0.0874   -3.4921 H   0  0  0  0  0  0  0  0  0  0  0  0
    5.9411   -1.4393   -3.8367 H   0  0  0  0  0  0  0  0  0  0  0  0
   -5.8313    2.2411   -0.1173 H   0  0  0  0  0  0  0  0  0  0  0  0
   -5.3210    3.8822    0.4831 H   0  0  0  0  0  0  0  0  0  0  0  0
   -6.8707    3.1028    1.1182 H   0  0  0  0  0  0  0  0  0  0  0  0
  1  2  1  0
  2  3  1  0
  3  4  1  0
  4  5  2  0
  5  6  1  0
  6  7  2  0
  7  8  1  0
  8  9  2  0
  9 10  1  0
 10 11  2  0
 10 12  1  0
  6 13  1  0
 13 14  2  0
 14 15  1  0
 15 16  2  0
 16 17  1  0
 17 18  2  0
 16 19  1  0
 19 20  1  0
 20 21  1  0
 21 22  1  0
 22 23  1  0
 23 24  1  0
 24 25  2  0
 25 26  1  0
 26 27  2  0
 27 28  1  0
 28 29  2  0
 23 30  1  0
  2 31  1  0
  9  4  1  0
 18 13  1  0
 29 24  1  0
  1 32  1  0
  1 33  1  0
  1 34  1  0
  2 35  1  0
  5 36  1  0
  7 37  1  0
  8 38  1  0
 12 39  1  0
 14 40  1  0
 15 41  1  0
 17 42  1  0
 18 43  1  0
 19 44  1  0
 19 45  1  0
 20 46  1  0
 20 47  1  0
 21 48  1  0
 22 49  1  0
 22 50  1  0
 23 51  1  1
 25 52  1  0
 26 53  1  0
 27 54  1  0
 29 55  1  0
 30 56  1  0
 31 57  1  0
 31 58  1  0
 31 59  1  0
M  END
>  <Ligand ID>  (1) 
LIG0001541

>  <Ligand>  (1) 
CHEMBL470292

>  <SMILES>  (1) 
CC(Oc1cc(ccc1C(=O)O)c1ccc(cc1)CCNC[C@@H](c1cccnc1)O)C

>  <CID>  (1) 
24895783.0

>  <ChEMBL ID>  (1) 
nan

>  <InChiKey>  (1) 
YNNCJPLSEBDJPD-QHCPKHFHSA-N

>  <InChi>  (1) 
InChI=1S/C25H28N2O4/c1-17(2)31-24-14-20(9-10-22(24)25(29)30)19-7-5-18(6-8-19)11-13-27-16-23(28)21-4-3-12-26-15-21/h3-10,12,14-15,17,23,27-28H,11,13,16H2,1-2H3,(H,29,30)/t23-/m0/s1

>  <IUPAC Name>  (1) 
4-[4-[2-[[(2R)-2-hydroxy-2-pyridin-3-ylethyl]amino]ethyl]phenyl]-2-propan-2-yloxybenzoic acid

$$$$
