
     RDKit          3D

 29 29  0  0  0  0  0  0  0  0999 V2000
    3.7782   -0.0896    0.4625 C   0  0  0  0  0  0  0  0  0  0  0  0
    2.2900   -0.0574    0.3205 C   0  0  0  0  0  0  0  0  0  0  0  0
    1.6556   -1.2300    0.5022 C   0  0  0  0  0  0  0  0  0  0  0  0
    0.2004   -1.2973    0.3835 C   0  0  0  0  0  0  0  0  0  0  0  0
   -0.4083   -0.2859   -0.5307 C   0  0  0  0  0  0  0  0  0  0  0  0
    0.2713    1.0102   -0.6953 C   0  0  0  0  0  0  0  0  0  0  0  0
    1.5784    1.1953   -0.0001 C   0  0  0  0  0  0  0  0  0  0  0  0
   -1.8610   -0.0037   -0.1913 C   0  0  0  0  0  0  0  0  0  0  0  0
   -2.4203    1.2438   -1.4077 S   0  0  0  0  0  0  0  0  0  0  0  0
   -2.0519    0.5917    1.1724 C   0  0  0  0  0  0  0  0  0  0  0  0
   -2.7426   -1.2030   -0.4396 C   0  0  0  0  0  0  0  0  0  0  0  0
    4.1524   -0.6206   -0.4562 H   0  0  0  0  0  0  0  0  0  0  0  0
    4.0800   -0.7577    1.3016 H   0  0  0  0  0  0  0  0  0  0  0  0
    4.2374    0.8978    0.5350 H   0  0  0  0  0  0  0  0  0  0  0  0
    2.2357   -2.1375    0.7404 H   0  0  0  0  0  0  0  0  0  0  0  0
   -0.2003   -1.2357    1.4386 H   0  0  0  0  0  0  0  0  0  0  0  0
   -0.0611   -2.3275    0.0570 H   0  0  0  0  0  0  0  0  0  0  0  0
   -0.4712   -0.7896   -1.5407 H   0  0  0  0  0  0  0  0  0  0  0  0
   -0.3658    1.8881   -0.3941 H   0  0  0  0  0  0  0  0  0  0  0  0
    0.4856    1.2379   -1.7809 H   0  0  0  0  0  0  0  0  0  0  0  0
    2.2962    1.8381   -0.5617 H   0  0  0  0  0  0  0  0  0  0  0  0
    1.4352    1.7268    0.9845 H   0  0  0  0  0  0  0  0  0  0  0  0
   -2.6927    2.4653   -0.8130 H   0  0  0  0  0  0  0  0  0  0  0  0
   -3.0415    1.1325    1.1553 H   0  0  0  0  0  0  0  0  0  0  0  0
   -1.2866    1.3410    1.3494 H   0  0  0  0  0  0  0  0  0  0  0  0
   -2.1589   -0.1562    1.9743 H   0  0  0  0  0  0  0  0  0  0  0  0
   -3.7906   -0.8359   -0.4546 H   0  0  0  0  0  0  0  0  0  0  0  0
   -2.6285   -1.9797    0.3275 H   0  0  0  0  0  0  0  0  0  0  0  0
   -2.5152   -1.5612   -1.4554 H   0  0  0  0  0  0  0  0  0  0  0  0
  1  2  1  0
  2  3  2  0
  3  4  1  0
  4  5  1  0
  5  6  1  0
  6  7  1  0
  5  8  1  0
  8  9  1  0
  8 10  1  0
  8 11  1  0
  7  2  1  0
  1 12  1  0
  1 13  1  0
  1 14  1  0
  3 15  1  0
  4 16  1  0
  4 17  1  0
  5 18  1  0
  6 19  1  0
  6 20  1  0
  7 21  1  0
  7 22  1  0
  9 23  1  0
 10 24  1  0
 10 25  1  0
 10 26  1  0
 11 27  1  0
 11 28  1  0
 11 29  1  0
M  END
>  <Ligand ID>  (1) 
LIG0002059

>  <Ligand>  (1) 
1-p-MENTHENE-8-THIOL

>  <SMILES>  (1) 
CC1=CCC(CC1)C(S)(C)C

>  <CID>  (1) 
6427135.0

>  <ChEMBL ID>  (1) 
nan

>  <InChiKey>  (1) 
ZQPCOAKGRYBBMR-UHFFFAOYSA-N

>  <InChi>  (1) 
InChI=1S/C10H18S/c1-8-4-6-9(7-5-8)10(2,3)11/h4,9,11H,5-7H2,1-3H3

>  <IUPAC Name>  (1) 
2-(4-methylcyclohex-3-en-1-yl)propane-2-thiol

$$$$
