
     RDKit          3D

 53 56  0  0  0  0  0  0  0  0999 V2000
   -3.4430    5.1663    2.0611 C   0  0  0  0  0  0  0  0  0  0  0  0
   -2.9809    4.8263    0.7664 O   0  0  0  0  0  0  0  0  0  0  0  0
   -2.5166    3.5547    0.5319 C   0  0  0  0  0  0  0  0  0  0  0  0
   -2.4625    2.5554    1.4813 C   0  0  0  0  0  0  0  0  0  0  0  0
   -1.9819    1.2856    1.1862 C   0  0  0  0  0  0  0  0  0  0  0  0
   -1.5321    0.9793   -0.1020 C   0  0  0  0  0  0  0  0  0  0  0  0
   -1.5942    1.9790   -1.0240 C   0  0  0  0  0  0  0  0  0  0  0  0
   -2.0730    3.2493   -0.7354 C   0  0  0  0  0  0  0  0  0  0  0  0
   -2.1064    4.1966   -1.7008 F   0  0  0  0  0  0  0  0  0  0  0  0
   -1.0553   -0.3721   -0.3458 C   0  0  0  0  0  0  0  0  0  0  0  0
   -1.7933   -1.4524    0.0637 N   0  0  0  0  0  0  0  0  0  0  0  0
   -1.0949   -2.5179   -0.2837 N   0  0  0  0  0  0  0  0  0  0  0  0
    0.0400   -2.2020   -0.8872 C   0  0  0  0  0  0  0  0  0  0  0  0
    0.1029   -0.8030   -0.9471 C   0  0  0  0  0  0  0  0  0  0  0  0
    1.1900   -0.0119   -1.5240 C   0  0  0  0  0  0  0  0  0  0  0  0
    2.0491    0.5906   -0.5223 N   0  0  0  0  0  0  0  0  0  0  0  0
    3.0802    1.3473   -1.1567 C   0  0  0  0  0  0  0  0  0  0  0  0
    4.0031    1.9997   -0.1943 C   0  0  0  0  0  0  0  0  0  0  0  0
    3.7709    3.2732    0.2982 C   0  0  0  0  0  0  0  0  0  0  0  0
    4.6904    3.8037    1.1951 C   0  0  0  0  0  0  0  0  0  0  0  0
    5.8123    3.0842    1.5911 C   0  0  0  0  0  0  0  0  0  0  0  0
    6.0065    1.8351    1.0853 N   0  0  0  0  0  0  0  0  0  0  0  0
    5.1295    1.3022    0.2161 C   0  0  0  0  0  0  0  0  0  0  0  0
   -1.5457   -3.8537   -0.0209 C   0  0  0  0  0  0  0  0  0  0  0  0
   -2.0386   -4.1243    1.2470 C   0  0  0  0  0  0  0  0  0  0  0  0
   -2.4796   -5.4209    1.5119 C   0  0  0  0  0  0  0  0  0  0  0  0
   -2.4225   -6.4058    0.5272 C   0  0  0  0  0  0  0  0  0  0  0  0
   -1.9283   -6.1159   -0.7286 C   0  0  0  0  0  0  0  0  0  0  0  0
   -1.4870   -4.8297   -1.0030 C   0  0  0  0  0  0  0  0  0  0  0  0
   -0.9548   -4.5262   -2.3626 C   0  0  0  0  0  0  0  0  0  0  0  0
   -3.9366    6.1572    2.0583 H   0  0  0  0  0  0  0  0  0  0  0  0
   -2.5621    5.1339    2.7351 H   0  0  0  0  0  0  0  0  0  0  0  0
   -4.1655    4.3983    2.4021 H   0  0  0  0  0  0  0  0  0  0  0  0
   -2.8151    2.8114    2.4727 H   0  0  0  0  0  0  0  0  0  0  0  0
   -1.9696    0.5491    1.9852 H   0  0  0  0  0  0  0  0  0  0  0  0
   -1.2744    1.8133   -2.0388 H   0  0  0  0  0  0  0  0  0  0  0  0
    0.8067   -2.8569   -1.2786 H   0  0  0  0  0  0  0  0  0  0  0  0
    1.8637   -0.7220   -2.0896 H   0  0  0  0  0  0  0  0  0  0  0  0
    0.7955    0.7493   -2.2161 H   0  0  0  0  0  0  0  0  0  0  0  0
    1.4841    1.1598    0.1214 H   0  0  0  0  0  0  0  0  0  0  0  0
    3.6978    0.6930   -1.8068 H   0  0  0  0  0  0  0  0  0  0  0  0
    2.5684    2.1403   -1.7652 H   0  0  0  0  0  0  0  0  0  0  0  0
    2.8864    3.8310   -0.0187 H   0  0  0  0  0  0  0  0  0  0  0  0
    4.4998    4.7992    1.5741 H   0  0  0  0  0  0  0  0  0  0  0  0
    6.5298    3.4975    2.2907 H   0  0  0  0  0  0  0  0  0  0  0  0
    5.2905    0.3021   -0.1848 H   0  0  0  0  0  0  0  0  0  0  0  0
   -2.0914   -3.3727    2.0259 H   0  0  0  0  0  0  0  0  0  0  0  0
   -2.8743   -5.6621    2.5075 H   0  0  0  0  0  0  0  0  0  0  0  0
   -2.7650   -7.4217    0.7254 H   0  0  0  0  0  0  0  0  0  0  0  0
   -1.8790   -6.8767   -1.5047 H   0  0  0  0  0  0  0  0  0  0  0  0
   -1.4652   -5.1593   -3.1394 H   0  0  0  0  0  0  0  0  0  0  0  0
   -1.1135   -3.4914   -2.6808 H   0  0  0  0  0  0  0  0  0  0  0  0
    0.1045   -4.8654   -2.3992 H   0  0  0  0  0  0  0  0  0  0  0  0
  1  2  1  0
  2  3  1  0
  3  4  2  0
  4  5  1  0
  5  6  2  0
  6  7  1  0
  7  8  2  0
  8  9  1  0
  6 10  1  0
 10 11  2  0
 11 12  1  0
 12 13  1  0
 13 14  2  0
 14 15  1  0
 15 16  1  0
 16 17  1  0
 17 18  1  0
 18 19  2  0
 19 20  1  0
 20 21  2  0
 21 22  1  0
 22 23  2  0
 12 24  1  0
 24 25  2  0
 25 26  1  0
 26 27  2  0
 27 28  1  0
 28 29  2  0
 29 30  1  0
  8  3  1  0
 14 10  1  0
 23 18  1  0
 29 24  1  0
  1 31  1  0
  1 32  1  0
  1 33  1  0
  4 34  1  0
  5 35  1  0
  7 36  1  0
 13 37  1  0
 15 38  1  0
 15 39  1  0
 16 40  1  0
 17 41  1  0
 17 42  1  0
 19 43  1  0
 20 44  1  0
 21 45  1  0
 23 46  1  0
 25 47  1  0
 26 48  1  0
 27 49  1  0
 28 50  1  0
 30 51  1  0
 30 52  1  0
 30 53  1  0
M  END
>  <Ligand ID>  (1) 
LIG0003871

>  <Ligand>  (1) 
MLS000731973

>  <SMILES>  (1) 
COc1ccc(cc1F)c1nn(cc1CNCc1cccnc1)c1ccccc1C

>  <CID>  (1) 
16189913.0

>  <ChEMBL ID>  (1) 
nan

>  <InChiKey>  (1) 
GPFORDRQDJHZHI-UHFFFAOYSA-N

>  <InChi>  (1) 
InChI=1S/C24H23FN4O/c1-17-6-3-4-8-22(17)29-16-20(15-27-14-18-7-5-11-26-13-18)24(28-29)19-9-10-23(30-2)21(25)12-19/h3-13,16,27H,14-15H2,1-2H3

>  <IUPAC Name>  (1) 
N-[[3-(3-fluoro-4-methoxyphenyl)-1-(2-methylphenyl)pyrazol-4-yl]methyl]-1-pyridin-3-ylmethanamine

$$$$
