
     RDKit          3D

 35 36  0  0  0  0  0  0  0  0999 V2000
   -7.2617   -0.2485   -1.0261 O   0  0  0  0  0  0  0  0  0  0  0  0
   -6.2268    0.2544   -0.2381 C   0  0  0  0  0  0  0  0  0  0  0  0
   -6.5219    1.0805    0.6638 O   0  0  0  0  0  0  0  0  0  0  0  0
   -4.8039   -0.1881   -0.4723 C   0  0  0  0  0  0  0  0  0  0  0  0
   -3.9813    0.5462    0.5428 C   0  0  0  0  0  0  0  0  0  0  0  0
   -2.5506    0.2914    0.5275 C   0  0  0  0  0  0  0  0  0  0  0  0
   -1.7438    1.1029   -0.2770 C   0  0  0  0  0  0  0  0  0  0  0  0
   -0.3887    0.8462   -0.2787 C   0  0  0  0  0  0  0  0  0  0  0  0
    0.1902   -0.1592    0.4670 C   0  0  0  0  0  0  0  0  0  0  0  0
   -0.6324   -0.9495    1.2564 C   0  0  0  0  0  0  0  0  0  0  0  0
   -1.9884   -0.7189    1.2800 C   0  0  0  0  0  0  0  0  0  0  0  0
    1.5552   -0.3841    0.4373 O   0  0  0  0  0  0  0  0  0  0  0  0
    2.3155    0.4803   -0.4039 C   0  0  0  0  0  0  0  0  0  0  0  0
    3.7345    0.0366   -0.2599 C   0  0  0  0  0  0  0  0  0  0  0  0
    4.2586   -0.9367   -1.1087 C   0  0  0  0  0  0  0  0  0  0  0  0
    5.5751   -1.3357   -0.9611 C   0  0  0  0  0  0  0  0  0  0  0  0
    6.3622   -0.7654    0.0285 C   0  0  0  0  0  0  0  0  0  0  0  0
    5.8348    0.2091    0.8771 C   0  0  0  0  0  0  0  0  0  0  0  0
    4.5145    0.6006    0.7195 C   0  0  0  0  0  0  0  0  0  0  0  0
    8.1684   -1.3357    0.2055 Br  0  0  0  0  0  0  0  0  0  0  0  0
   -8.0617    0.3039   -1.2696 H   0  0  0  0  0  0  0  0  0  0  0  0
   -4.5877    0.0389   -1.5128 H   0  0  0  0  0  0  0  0  0  0  0  0
   -4.8171   -1.2792   -0.2744 H   0  0  0  0  0  0  0  0  0  0  0  0
   -4.1748    1.6347    0.5295 H   0  0  0  0  0  0  0  0  0  0  0  0
   -4.3610    0.2026    1.5478 H   0  0  0  0  0  0  0  0  0  0  0  0
   -2.1770    1.9069   -0.8781 H   0  0  0  0  0  0  0  0  0  0  0  0
    0.2260    1.4766   -0.9018 H   0  0  0  0  0  0  0  0  0  0  0  0
   -0.1497   -1.7340    1.8333 H   0  0  0  0  0  0  0  0  0  0  0  0
   -2.5848   -1.3598    1.9089 H   0  0  0  0  0  0  0  0  0  0  0  0
    2.1899    1.4918    0.0046 H   0  0  0  0  0  0  0  0  0  0  0  0
    1.9414    0.3601   -1.4250 H   0  0  0  0  0  0  0  0  0  0  0  0
    3.6434   -1.3904   -1.8911 H   0  0  0  0  0  0  0  0  0  0  0  0
    5.9647   -2.0883   -1.6244 H   0  0  0  0  0  0  0  0  0  0  0  0
    6.4510    0.6535    1.6497 H   0  0  0  0  0  0  0  0  0  0  0  0
    4.0879    1.3564    1.3698 H   0  0  0  0  0  0  0  0  0  0  0  0
  1  2  1  0
  2  3  2  0
  2  4  1  0
  4  5  1  0
  5  6  1  0
  6  7  2  0
  7  8  1  0
  8  9  2  0
  9 10  1  0
 10 11  2  0
  9 12  1  0
 12 13  1  0
 13 14  1  0
 14 15  2  0
 15 16  1  0
 16 17  2  0
 17 18  1  0
 18 19  2  0
 17 20  1  0
 11  6  1  0
 19 14  1  0
  1 21  1  0
  4 22  1  0
  4 23  1  0
  5 24  1  0
  5 25  1  0
  7 26  1  0
  8 27  1  0
 10 28  1  0
 11 29  1  0
 13 30  1  0
 13 31  1  0
 15 32  1  0
 16 33  1  0
 18 34  1  0
 19 35  1  0
M  END
>  <Ligand ID>  (1) 
LIG0005911

>  <Ligand>  (1) 
CHEMBL1773252

>  <SMILES>  (1) 
OC(=O)CCc1ccc(cc1)OCc1ccc(cc1)Br

>  <CID>  (1) 
54585039.0

>  <ChEMBL ID>  (1) 
nan

>  <InChiKey>  (1) 
VVMPRKZQODSJGQ-UHFFFAOYSA-N

>  <InChi>  (1) 
InChI=1S/C16H15BrO3/c17-14-6-1-13(2-7-14)11-20-15-8-3-12(4-9-15)5-10-16(18)19/h1-4,6-9H,5,10-11H2,(H,18,19)

>  <IUPAC Name>  (1) 
3-[4-[(4-bromophenyl)methoxy]phenyl]propanoic acid

$$$$
