
     RDKit          3D

 24 23  0  0  0  0  0  0  0  0999 V2000
    3.7339    0.4880   -0.0884 C   0  0  0  0  0  0  0  0  0  0  0  0
    2.5274   -0.2979    0.3585 C   0  0  0  0  0  0  0  0  0  0  0  0
    1.2322    0.4292    0.0418 C   0  0  0  0  0  0  0  0  0  0  0  0
    0.1124   -0.4881    0.5518 C   0  0  0  0  0  0  0  0  0  0  0  0
   -1.2061    0.1805    0.2655 C   0  0  0  0  0  0  0  0  0  0  0  0
   -2.3785   -0.6283    0.7227 C   0  0  0  0  0  0  0  0  0  0  0  0
   -3.6088    0.2080    0.3477 C   0  0  0  0  0  0  0  0  0  0  0  0
   -1.2998    0.3390   -1.1091 O   0  0  0  0  0  0  0  0  0  0  0  0
    3.7597    0.6761   -1.1793 H   0  0  0  0  0  0  0  0  0  0  0  0
    4.6322   -0.0045    0.3152 H   0  0  0  0  0  0  0  0  0  0  0  0
    3.6198    1.4978    0.4042 H   0  0  0  0  0  0  0  0  0  0  0  0
    2.4818   -1.3260   -0.0220 H   0  0  0  0  0  0  0  0  0  0  0  0
    2.6284   -0.3934    1.4679 H   0  0  0  0  0  0  0  0  0  0  0  0
    1.1827    1.4124    0.5397 H   0  0  0  0  0  0  0  0  0  0  0  0
    1.1134    0.4897   -1.0593 H   0  0  0  0  0  0  0  0  0  0  0  0
    0.2295   -1.4886    0.1376 H   0  0  0  0  0  0  0  0  0  0  0  0
    0.1986   -0.5617    1.6660 H   0  0  0  0  0  0  0  0  0  0  0  0
   -1.2127    1.1477    0.7945 H   0  0  0  0  0  0  0  0  0  0  0  0
   -2.4757   -1.5806    0.1864 H   0  0  0  0  0  0  0  0  0  0  0  0
   -2.4060   -0.7919    1.8146 H   0  0  0  0  0  0  0  0  0  0  0  0
   -3.4103    1.2260    0.7917 H   0  0  0  0  0  0  0  0  0  0  0  0
   -4.5412   -0.2031    0.7305 H   0  0  0  0  0  0  0  0  0  0  0  0
   -3.5810    0.2482   -0.7740 H   0  0  0  0  0  0  0  0  0  0  0  0
   -1.3318   -0.5785   -1.5061 H   0  0  0  0  0  0  0  0  0  0  0  0
  1  2  1  0
  2  3  1  0
  3  4  1  0
  4  5  1  0
  5  6  1  0
  6  7  1  0
  5  8  1  0
  1  9  1  0
  1 10  1  0
  1 11  1  0
  2 12  1  0
  2 13  1  0
  3 14  1  0
  3 15  1  0
  4 16  1  0
  4 17  1  0
  5 18  1  0
  6 19  1  0
  6 20  1  0
  7 21  1  0
  7 22  1  0
  7 23  1  0
  8 24  1  0
M  END
>  <Ligand ID>  (1) 
LIG0000747

>  <Ligand>  (1) 
heptan-3-ol

>  <SMILES>  (1) 
CCCCC(CC)O

>  <CID>  (1) 
11520.0

>  <ChEMBL ID>  (1) 
nan

>  <InChiKey>  (1) 
RZKSECIXORKHQS-UHFFFAOYSA-N

>  <InChi>  (1) 
InChI=1S/C7H16O/c1-3-5-6-7(8)4-2/h7-8H,3-6H2,1-2H3

>  <IUPAC Name>  (1) 
heptan-3-ol

$$$$
