
     RDKit          3D

 39 41  0  0  0  0  0  0  0  0999 V2000
    4.9188    0.2253    0.4198 C   0  0  0  0  0  0  0  0  0  0  0  0
    4.3199   -1.0801    0.7492 C   0  0  0  0  0  0  0  0  0  0  0  0
    3.2271   -1.6045   -0.1078 C   0  0  0  0  0  0  0  0  0  0  0  0
    2.0752   -0.9490   -0.2620 O   0  0  0  0  0  0  0  0  0  0  0  0
    1.5361    0.1721   -0.7271 C   0  0  0  0  0  0  0  0  0  0  0  0
    2.1709    1.2296   -1.3518 C   0  0  0  0  0  0  0  0  0  0  0  0
    1.5163    2.3554   -1.8029 C   0  0  0  0  0  0  0  0  0  0  0  0
    0.1574    2.4709   -1.6423 C   0  0  0  0  0  0  0  0  0  0  0  0
   -0.5177    1.4426   -1.0264 C   0  0  0  0  0  0  0  0  0  0  0  0
    0.1482    0.3290   -0.5829 C   0  0  0  0  0  0  0  0  0  0  0  0
   -0.6285   -0.7580    0.0733 C   0  0  0  0  0  0  0  0  0  0  0  0
   -1.9078   -0.2511    0.6984 C   0  0  2  0  0  0  0  0  0  0  0  0
   -2.6606   -1.3772    1.3041 C   0  0  0  0  0  0  0  0  0  0  0  0
   -3.9660   -1.6225    0.7823 N   0  0  0  0  0  0  0  0  0  0  0  0
   -4.7200   -0.3691    0.6251 C   0  0  0  0  0  0  0  0  0  0  0  0
   -4.0688    0.3381   -0.5253 C   0  0  0  0  0  0  0  0  0  0  0  0
   -2.6820    0.5457   -0.2270 N   0  0  0  0  0  0  0  0  0  0  0  0
   -1.9700    1.6192   -0.8765 C   0  0  0  0  0  0  0  0  0  0  0  0
   -2.5747    2.6404   -1.2848 O   0  0  0  0  0  0  0  0  0  0  0  0
    5.8377    0.3809    1.0381 H   0  0  0  0  0  0  0  0  0  0  0  0
    5.2730    0.3214   -0.6267 H   0  0  0  0  0  0  0  0  0  0  0  0
    4.2696    1.0995    0.6423 H   0  0  0  0  0  0  0  0  0  0  0  0
    5.1582   -1.8449    0.6833 H   0  0  0  0  0  0  0  0  0  0  0  0
    4.0639   -1.0877    1.8377 H   0  0  0  0  0  0  0  0  0  0  0  0
    2.9822   -2.6405    0.3272 H   0  0  0  0  0  0  0  0  0  0  0  0
    3.6266   -1.8671   -1.1440 H   0  0  0  0  0  0  0  0  0  0  0  0
    3.2333    1.1981   -1.5270 H   0  0  0  0  0  0  0  0  0  0  0  0
    2.0665    3.1522   -2.2845 H   0  0  0  0  0  0  0  0  0  0  0  0
   -0.3065    3.3711   -2.0125 H   0  0  0  0  0  0  0  0  0  0  0  0
   -0.0650   -1.3219    0.8176 H   0  0  0  0  0  0  0  0  0  0  0  0
   -0.9557   -1.4285   -0.7744 H   0  0  0  0  0  0  0  0  0  0  0  0
   -1.5908    0.4306    1.5282 H   0  0  0  0  0  0  0  0  0  0  0  0
   -2.0916   -2.3402    1.2109 H   0  0  0  0  0  0  0  0  0  0  0  0
   -2.7815   -1.2630    2.4208 H   0  0  0  0  0  0  0  0  0  0  0  0
   -3.9391   -2.0273   -0.1895 H   0  0  0  0  0  0  0  0  0  0  0  0
   -5.7476   -0.6688    0.3547 H   0  0  0  0  0  0  0  0  0  0  0  0
   -4.6974    0.2418    1.5349 H   0  0  0  0  0  0  0  0  0  0  0  0
   -4.1081   -0.3377   -1.4122 H   0  0  0  0  0  0  0  0  0  0  0  0
   -4.6015    1.2750   -0.7819 H   0  0  0  0  0  0  0  0  0  0  0  0
  1  2  1  0
  2  3  1  0
  3  4  1  0
  4  5  1  0
  5  6  2  0
  6  7  1  0
  7  8  2  0
  8  9  1  0
  9 10  2  0
 10 11  1  0
 11 12  1  0
 12 13  1  0
 13 14  1  0
 14 15  1  0
 15 16  1  0
 16 17  1  0
 17 18  1  0
 18 19  2  0
 10  5  1  0
 17 12  1  0
 18  9  1  0
  1 20  1  0
  1 21  1  0
  1 22  1  0
  2 23  1  0
  2 24  1  0
  3 25  1  0
  3 26  1  0
  6 27  1  0
  7 28  1  0
  8 29  1  0
 11 30  1  0
 11 31  1  0
 12 32  1  1
 13 33  1  0
 13 34  1  0
 14 35  1  0
 15 36  1  0
 15 37  1  0
 16 38  1  0
 16 39  1  0
M  END
>  <Ligand ID>  (1) 
LIG0004358

>  <Ligand>  (1) 
CHEMBL2397909

>  <SMILES>  (1) 
CCCOc1cccc2c1C[C@@H]1CNCCN1C2=O

>  <CID>  (1) 
71682216.0

>  <ChEMBL ID>  (1) 
nan

>  <InChiKey>  (1) 
DXXYZQKYSNINFR-LLVKDONJSA-N

>  <InChi>  (1) 
InChI=1S/C15H20N2O2/c1-2-8-19-14-5-3-4-12-13(14)9-11-10-16-6-7-17(11)15(12)18/h3-5,11,16H,2,6-10H2,1H3/t11-/m1/s1

>  <IUPAC Name>  (1) 
(11aR)-10-propoxy-1,2,3,4,11,11a-hexahydropyrazino[1,2-b]isoquinolin-6-one

$$$$
