
     RDKit          3D

117121  0  0  0  0  0  0  0  0999 V2000
    1.9256   -0.0762    0.0637 O   0  0  0  0  0  0  0  0  0  0  0  0
    1.3725    1.0227    0.3074 C   0  0  0  0  0  0  0  0  0  0  0  0
    2.1267    2.3057    0.2469 C   0  0  0  0  0  0  0  0  0  0  0  0
    3.5542    2.0762   -0.1807 C   0  0  0  0  0  0  0  0  0  0  0  0
    4.3194    1.2051    0.7250 C   0  0  0  0  0  0  0  0  0  0  0  0
    3.8027    0.9098    1.8306 O   0  0  0  0  0  0  0  0  0  0  0  0
    5.6255    0.6876    0.3905 N   0  0  0  0  0  0  0  0  0  0  0  0
    6.1364    1.0521   -0.8815 C   0  0  0  0  0  0  0  0  0  0  0  0
    5.9551    0.3129   -2.0266 C   0  0  0  0  0  0  0  0  0  0  0  0
    6.4442    0.6740   -3.2642 C   0  0  0  0  0  0  0  0  0  0  0  0
    7.1669    1.8445   -3.4077 C   0  0  0  0  0  0  0  0  0  0  0  0
    7.3697    2.6146   -2.2783 C   0  0  0  0  0  0  0  0  0  0  0  0
    6.8680    2.2356   -1.0293 C   0  0  0  0  0  0  0  0  0  0  0  0
    6.3153   -0.1514    1.3443 C   0  0  0  0  0  0  0  0  0  0  0  0
    6.3162   -1.5398    0.8167 C   0  0  0  0  0  0  0  0  0  0  0  0
    7.5456   -2.0285    0.1772 C   0  0  0  0  0  0  0  0  0  0  0  0
    8.3945   -0.8761   -0.1798 N   0  0  0  0  0  0  0  0  0  0  0  0
    8.7998   -0.2152    1.0326 C   0  0  0  0  0  0  0  0  0  0  0  0
    7.6409    0.3865    1.7733 C   0  0  0  0  0  0  0  0  0  0  0  0
    9.3809   -1.2390   -1.1090 C   0  0  0  0  0  0  0  0  0  0  0  0
   10.2387   -0.2919   -1.8171 C   0  0  0  0  0  0  0  0  0  0  0  0
   11.1478    0.5974   -1.1386 C   0  0  0  0  0  0  0  0  0  0  0  0
   12.3851    0.0721   -0.7265 C   0  0  0  0  0  0  0  0  0  0  0  0
   13.3448    0.8483   -0.1262 C   0  0  0  0  0  0  0  0  0  0  0  0
   13.1240    2.1754    0.0924 C   0  0  0  0  0  0  0  0  0  0  0  0
   11.9374    2.7292   -0.2919 C   0  0  0  0  0  0  0  0  0  0  0  0
   10.9808    1.9456   -0.8921 C   0  0  0  0  0  0  0  0  0  0  0  0
   -0.0268    1.0140    0.6502 N   0  0  0  0  0  0  0  0  0  0  0  0
   -0.6982   -0.2186    0.6939 N   0  0  0  0  0  0  0  0  0  0  0  0
   -2.0873   -0.3291    1.0000 C   0  0  0  0  0  0  0  0  0  0  0  0
   -2.7668    0.6966    1.2420 O   0  0  0  0  0  0  0  0  0  0  0  0
   -2.6526   -1.7109    1.0118 C   0  0  2  0  0  0  0  0  0  0  0  0
   -2.3310   -2.3793   -0.2984 C   0  0  0  0  0  0  0  0  0  0  0  0
   -2.9250   -3.7645   -0.2402 C   0  0  0  0  0  0  0  0  0  0  0  0
   -2.2174   -4.8373    0.2318 C   0  0  0  0  0  0  0  0  0  0  0  0
   -2.8499   -6.0663    0.2436 C   0  0  0  0  0  0  0  0  0  0  0  0
   -4.1415   -6.2571   -0.1925 C   0  0  0  0  0  0  0  0  0  0  0  0
   -4.8474   -5.1689   -0.6669 C   0  0  0  0  0  0  0  0  0  0  0  0
   -4.2158   -3.9208   -0.6825 C   0  0  0  0  0  0  0  0  0  0  0  0
   -4.0394   -1.7756    1.3440 N   0  0  0  0  0  0  0  0  0  0  0  0
   -4.4404   -2.2867    2.6057 C   0  0  0  0  0  0  0  0  0  0  0  0
   -3.5115   -2.6616    3.4062 O   0  0  0  0  0  0  0  0  0  0  0  0
   -5.8136   -2.4297    3.0771 C   0  0  0  0  0  0  0  0  0  0  0  0
   -6.8500   -2.0167    2.1973 N   0  0  0  0  0  0  0  0  0  0  0  0
   -7.0659   -0.6940    1.7173 C   0  0  0  0  0  0  0  0  0  0  0  0
   -6.3083    0.2287    2.0857 O   0  0  0  0  0  0  0  0  0  0  0  0
   -8.2169   -0.5166    0.7824 C   0  0  2  0  0  0  0  0  0  0  0  0
   -8.3718    0.8538    0.4012 N   0  0  0  0  0  0  0  0  0  0  0  0
   -7.9345    1.2482   -0.8894 C   0  0  0  0  0  0  0  0  0  0  0  0
   -7.4097    0.4019   -1.6934 O   0  0  0  0  0  0  0  0  0  0  0  0
   -8.0375    2.6354   -1.4091 C   0  0  2  0  0  0  0  0  0  0  0  0
   -9.4545    2.8889   -1.8794 C   0  0  0  0  0  0  0  0  0  0  0  0
  -10.4765    2.7428   -0.8485 C   0  0  0  0  0  0  0  0  0  0  0  0
  -10.8287    3.8248   -0.0796 C   0  0  0  0  0  0  0  0  0  0  0  0
  -11.8119    3.7532    0.8991 C   0  0  0  0  0  0  0  0  0  0  0  0
  -12.4853    2.5627    1.1390 C   0  0  0  0  0  0  0  0  0  0  0  0
  -12.1210    1.4887    0.3616 C   0  0  0  0  0  0  0  0  0  0  0  0
  -11.1496    1.5417   -0.6124 C   0  0  0  0  0  0  0  0  0  0  0  0
  -13.4712    2.4517    2.1051 O   0  0  0  0  0  0  0  0  0  0  0  0
   -7.1297    2.7766   -2.5471 N   0  0  0  0  0  0  0  0  0  0  0  0
   -9.4136   -1.1703    1.3841 C   0  0  0  0  0  0  0  0  0  0  0  0
    2.1548    2.8391    1.2198 H   0  0  0  0  0  0  0  0  0  0  0  0
    1.6609    2.9616   -0.5105 H   0  0  0  0  0  0  0  0  0  0  0  0
    4.0457    3.0827   -0.2313 H   0  0  0  0  0  0  0  0  0  0  0  0
    3.5199    1.6913   -1.2222 H   0  0  0  0  0  0  0  0  0  0  0  0
    5.3977   -0.6100   -1.9786 H   0  0  0  0  0  0  0  0  0  0  0  0
    6.3016    0.0921   -4.1635 H   0  0  0  0  0  0  0  0  0  0  0  0
    7.5794    2.1954   -4.3284 H   0  0  0  0  0  0  0  0  0  0  0  0
    7.9353    3.5408   -2.3672 H   0  0  0  0  0  0  0  0  0  0  0  0
    7.0775    2.9003   -0.2228 H   0  0  0  0  0  0  0  0  0  0  0  0
    5.5961   -0.1787    2.2261 H   0  0  0  0  0  0  0  0  0  0  0  0
    5.4219   -1.6895    0.1478 H   0  0  0  0  0  0  0  0  0  0  0  0
    6.0898   -2.2720    1.6631 H   0  0  0  0  0  0  0  0  0  0  0  0
    8.1171   -2.7301    0.7873 H   0  0  0  0  0  0  0  0  0  0  0  0
    7.2896   -2.4703   -0.8275 H   0  0  0  0  0  0  0  0  0  0  0  0
    9.6181    0.4469    0.8558 H   0  0  0  0  0  0  0  0  0  0  0  0
    9.1886   -1.0458    1.6951 H   0  0  0  0  0  0  0  0  0  0  0  0
    7.6494    1.4762    1.5916 H   0  0  0  0  0  0  0  0  0  0  0  0
    7.7555    0.2505    2.8664 H   0  0  0  0  0  0  0  0  0  0  0  0
    8.9067   -2.0011   -1.8150 H   0  0  0  0  0  0  0  0  0  0  0  0
   10.0923   -1.9408   -0.5283 H   0  0  0  0  0  0  0  0  0  0  0  0
    9.6427    0.3429   -2.5621 H   0  0  0  0  0  0  0  0  0  0  0  0
   10.8942   -0.9206   -2.5243 H   0  0  0  0  0  0  0  0  0  0  0  0
   12.5926   -0.9789   -0.8855 H   0  0  0  0  0  0  0  0  0  0  0  0
   14.2956    0.3803    0.1751 H   0  0  0  0  0  0  0  0  0  0  0  0
   13.8726    2.8079    0.5655 H   0  0  0  0  0  0  0  0  0  0  0  0
   11.7445    3.7879   -0.1266 H   0  0  0  0  0  0  0  0  0  0  0  0
   10.0435    2.3828   -1.1975 H   0  0  0  0  0  0  0  0  0  0  0  0
   -0.4840    1.9276    0.8547 H   0  0  0  0  0  0  0  0  0  0  0  0
   -0.1597   -1.0876    0.4969 H   0  0  0  0  0  0  0  0  0  0  0  0
   -2.0510   -2.2416    1.8110 H   0  0  0  0  0  0  0  0  0  0  0  0
   -2.7122   -1.8179   -1.1695 H   0  0  0  0  0  0  0  0  0  0  0  0
   -1.2483   -2.5464   -0.3728 H   0  0  0  0  0  0  0  0  0  0  0  0
   -1.2048   -4.7140    0.5784 H   0  0  0  0  0  0  0  0  0  0  0  0
   -2.2663   -6.8944    0.6197 H   0  0  0  0  0  0  0  0  0  0  0  0
   -4.6294   -7.2375   -0.1794 H   0  0  0  0  0  0  0  0  0  0  0  0
   -5.8801   -5.2636   -1.0277 H   0  0  0  0  0  0  0  0  0  0  0  0
   -4.8280   -3.1128   -1.0700 H   0  0  0  0  0  0  0  0  0  0  0  0
   -4.7626   -1.4580    0.6645 H   0  0  0  0  0  0  0  0  0  0  0  0
   -5.9440   -3.4829    3.4149 H   0  0  0  0  0  0  0  0  0  0  0  0
   -5.9277   -1.8267    4.0121 H   0  0  0  0  0  0  0  0  0  0  0  0
   -7.5255   -2.7717    1.8696 H   0  0  0  0  0  0  0  0  0  0  0  0
   -7.9389   -1.0705   -0.1471 H   0  0  0  0  0  0  0  0  0  0  0  0
   -8.8001    1.5636    1.0589 H   0  0  0  0  0  0  0  0  0  0  0  0
   -7.7584    3.3613   -0.6539 H   0  0  0  0  0  0  0  0  0  0  0  0
   -9.4697    3.9639   -2.2264 H   0  0  0  0  0  0  0  0  0  0  0  0
   -9.6860    2.2387   -2.7456 H   0  0  0  0  0  0  0  0  0  0  0  0
  -10.3532    4.7801   -0.2061 H   0  0  0  0  0  0  0  0  0  0  0  0
  -12.1001    4.5955    1.5112 H   0  0  0  0  0  0  0  0  0  0  0  0
  -12.6329    0.5282    0.5254 H   0  0  0  0  0  0  0  0  0  0  0  0
  -10.9120    0.6595   -1.1879 H   0  0  0  0  0  0  0  0  0  0  0  0
  -14.3901    2.8522    1.9310 H   0  0  0  0  0  0  0  0  0  0  0  0
   -7.6087    3.3963   -3.2349 H   0  0  0  0  0  0  0  0  0  0  0  0
   -6.2804    3.2647   -2.1978 H   0  0  0  0  0  0  0  0  0  0  0  0
   -9.4509   -2.2324    1.0159 H   0  0  0  0  0  0  0  0  0  0  0  0
   -9.2734   -1.2614    2.4822 H   0  0  0  0  0  0  0  0  0  0  0  0
  -10.3223   -0.6356    1.1024 H   0  0  0  0  0  0  0  0  0  0  0  0
  1  2  2  0
  2  3  1  0
  3  4  1  0
  4  5  1  0
  5  6  2  0
  5  7  1  0
  7  8  1  0
  8  9  2  0
  9 10  1  0
 10 11  2  0
 11 12  1  0
 12 13  2  0
  7 14  1  0
 14 15  1  0
 15 16  1  0
 16 17  1  0
 17 18  1  0
 18 19  1  0
 17 20  1  0
 20 21  1  0
 21 22  1  0
 22 23  2  0
 23 24  1  0
 24 25  2  0
 25 26  1  0
 26 27  2  0
  2 28  1  0
 28 29  1  0
 29 30  1  0
 30 31  2  0
 30 32  1  0
 32 33  1  0
 33 34  1  0
 34 35  2  0
 35 36  1  0
 36 37  2  0
 37 38  1  0
 38 39  2  0
 32 40  1  0
 40 41  1  0
 41 42  2  0
 41 43  1  0
 43 44  1  0
 44 45  1  0
 45 46  2  0
 45 47  1  0
 47 48  1  0
 48 49  1  0
 49 50  2  0
 49 51  1  0
 51 52  1  0
 52 53  1  0
 53 54  2  0
 54 55  1  0
 55 56  2  0
 56 57  1  0
 57 58  2  0
 56 59  1  0
 51 60  1  0
 47 61  1  0
 13  8  1  0
 19 14  1  0
 27 22  1  0
 39 34  1  0
 58 53  1  0
  3 62  1  0
  3 63  1  0
  4 64  1  0
  4 65  1  0
  9 66  1  0
 10 67  1  0
 11 68  1  0
 12 69  1  0
 13 70  1  0
 14 71  1  0
 15 72  1  0
 15 73  1  0
 16 74  1  0
 16 75  1  0
 18 76  1  0
 18 77  1  0
 19 78  1  0
 19 79  1  0
 20 80  1  0
 20 81  1  0
 21 82  1  0
 21 83  1  0
 23 84  1  0
 24 85  1  0
 25 86  1  0
 26 87  1  0
 27 88  1  0
 28 89  1  0
 29 90  1  0
 32 91  1  1
 33 92  1  0
 33 93  1  0
 35 94  1  0
 36 95  1  0
 37 96  1  0
 38 97  1  0
 39 98  1  0
 40 99  1  0
 43100  1  0
 43101  1  0
 44102  1  0
 47103  1  6
 48104  1  0
 51105  1  1
 52106  1  0
 52107  1  0
 54108  1  0
 55109  1  0
 57110  1  0
 58111  1  0
 59112  1  0
 60113  1  0
 60114  1  0
 61115  1  0
 61116  1  0
 61117  1  0
M  END
>  <Ligand ID>  (1) 
LIG0005398

>  <Ligand>  (1) 
4-anilidopiperidine, 12

>  <SMILES>  (1) 
O=C(CCC(=O)N(c1ccccc1)C1CCN(CC1)CCc1ccccc1)NNC(=O)[C@H](Cc1ccccc1)NC(=O)CNC(=O)[C@H](NC(=O)[C@H](Cc1ccc(cc1)O)N)C

>  <CID>  (1) 
23634921.0

>  <ChEMBL ID>  (1) 
nan

>  <InChiKey>  (1) 
IBGXJQBCQGQXFQ-JURIQKAMSA-N

>  <InChi>  (1) 
InChI=1S/C46H56N8O7/c1-32(49-45(60)39(47)29-35-17-19-38(55)20-18-35)44(59)48-31-42(57)50-40(30-34-13-7-3-8-14-34)46(61)52-51-41(56)21-22-43(58)54(36-15-9-4-10-16-36)37-24-27-53(28-25-37)26-23-33-11-5-2-6-12-33/h2-20,32,37,39-40,55H,21-31,47H2,1H3,(H,48,59)(H,49,60)(H,50,57)(H,51,56)(H,52,61)/t32-,39+,40+/m1/s1

>  <IUPAC Name>  (1) 
4-[2-[(2S)-2-[[2-[[(2R)-2-[[(2S)-2-amino-3-(4-hydroxyphenyl)propanoyl]amino]propanoyl]amino]acetyl]amino]-3-phenylpropanoyl]hydrazinyl]-4-oxo-N-phenyl-N-[1-(2-phenylethyl)piperidin-4-yl]butanamide

$$$$
