
     RDKit          3D

 61 63  0  0  0  0  0  0  0  0999 V2000
   -8.5750    1.1364    1.3411 C   0  0  0  0  0  0  0  0  0  0  0  0
   -7.5510    0.5774    0.3494 C   0  0  0  0  0  0  0  0  0  0  0  0
   -6.3610    0.2509    0.9997 O   0  0  0  0  0  0  0  0  0  0  0  0
   -5.1445    0.6848    0.5576 C   0  0  0  0  0  0  0  0  0  0  0  0
   -4.8930    1.4535   -0.5417 C   0  0  0  0  0  0  0  0  0  0  0  0
   -3.5974    1.8425   -0.9061 C   0  0  0  0  0  0  0  0  0  0  0  0
   -2.5198    1.4430   -0.1366 C   0  0  0  0  0  0  0  0  0  0  0  0
   -2.7468    0.6694    0.9743 C   0  0  0  0  0  0  0  0  0  0  0  0
   -4.0321    0.2945    1.3200 C   0  0  0  0  0  0  0  0  0  0  0  0
   -4.2135   -0.5316    2.5177 C   0  0  0  0  0  0  0  0  0  0  0  0
   -3.2291   -0.9058    3.2308 O   0  0  0  0  0  0  0  0  0  0  0  0
   -5.4886   -0.9307    2.9063 O   0  0  0  0  0  0  0  0  0  0  0  0
   -1.2692    1.8653   -0.5615 O   0  0  0  0  0  0  0  0  0  0  0  0
   -0.5946    0.9330   -1.3790 C   0  0  0  0  0  0  0  0  0  0  0  0
   -0.9108    0.8621   -2.7159 C   0  0  0  0  0  0  0  0  0  0  0  0
   -0.2264   -0.0621   -3.4785 C   0  0  0  0  0  0  0  0  0  0  0  0
    0.7359   -0.8918   -2.9604 C   0  0  0  0  0  0  0  0  0  0  0  0
    1.0340   -0.7986   -1.6142 C   0  0  0  0  0  0  0  0  0  0  0  0
    0.3805    0.1042   -0.8123 C   0  0  0  0  0  0  0  0  0  0  0  0
    2.0970   -1.7235   -1.1116 C   0  0  0  0  0  0  0  0  0  0  0  0
    3.4065   -0.9783   -1.3209 C   0  0  0  0  0  0  0  0  0  0  0  0
    4.5633   -1.6904   -0.9090 N   0  0  0  0  0  0  0  0  0  0  0  0
    4.7510   -1.9171    0.4805 C   0  0  0  0  0  0  0  0  0  0  0  0
    5.0627   -0.6813    1.2969 C   0  0  1  0  0  0  0  0  0  0  0  0
    6.3124   -0.0567    0.7818 C   0  0  0  0  0  0  0  0  0  0  0  0
    6.6893    1.2029    1.2295 C   0  0  0  0  0  0  0  0  0  0  0  0
    7.8467    1.8021    0.7567 C   0  0  0  0  0  0  0  0  0  0  0  0
    8.6701    1.1956   -0.1635 C   0  0  0  0  0  0  0  0  0  0  0  0
    8.3001   -0.0637   -0.6162 C   0  0  0  0  0  0  0  0  0  0  0  0
    7.1406   -0.6542   -0.1370 C   0  0  0  0  0  0  0  0  0  0  0  0
    9.3373   -0.8543   -1.7907 Cl  0  0  0  0  0  0  0  0  0  0  0  0
    4.0488    0.2651    1.2468 O   0  0  0  0  0  0  0  0  0  0  0  0
   -8.2247   -0.6514   -0.2503 C   0  0  0  0  0  0  0  0  0  0  0  0
   -8.0628    1.6217    2.2045 H   0  0  0  0  0  0  0  0  0  0  0  0
   -9.1760    0.2895    1.7857 H   0  0  0  0  0  0  0  0  0  0  0  0
   -9.3255    1.7874    0.8535 H   0  0  0  0  0  0  0  0  0  0  0  0
   -7.3838    1.3126   -0.4287 H   0  0  0  0  0  0  0  0  0  0  0  0
   -5.6712    1.8048   -1.1922 H   0  0  0  0  0  0  0  0  0  0  0  0
   -3.4398    2.4541   -1.7878 H   0  0  0  0  0  0  0  0  0  0  0  0
   -1.9007    0.3570    1.5749 H   0  0  0  0  0  0  0  0  0  0  0  0
   -5.6396   -1.8616    3.3037 H   0  0  0  0  0  0  0  0  0  0  0  0
   -1.6639    1.5132   -3.1178 H   0  0  0  0  0  0  0  0  0  0  0  0
   -0.4513   -0.1437   -4.5241 H   0  0  0  0  0  0  0  0  0  0  0  0
    1.2288   -1.5940   -3.6314 H   0  0  0  0  0  0  0  0  0  0  0  0
    0.6270    0.1620    0.2369 H   0  0  0  0  0  0  0  0  0  0  0  0
    2.0780   -2.7091   -1.5729 H   0  0  0  0  0  0  0  0  0  0  0  0
    1.9926   -1.8667   -0.0022 H   0  0  0  0  0  0  0  0  0  0  0  0
    3.4807   -0.8900   -2.4528 H   0  0  0  0  0  0  0  0  0  0  0  0
    3.3020    0.0435   -0.9111 H   0  0  0  0  0  0  0  0  0  0  0  0
    4.7670   -2.4851   -1.5188 H   0  0  0  0  0  0  0  0  0  0  0  0
    5.5729   -2.6639    0.5920 H   0  0  0  0  0  0  0  0  0  0  0  0
    3.8046   -2.4011    0.8558 H   0  0  0  0  0  0  0  0  0  0  0  0
    5.1926   -1.0030    2.3654 H   0  0  0  0  0  0  0  0  0  0  0  0
    6.1229    1.7702    1.9476 H   0  0  0  0  0  0  0  0  0  0  0  0
    8.1564    2.7924    1.1014 H   0  0  0  0  0  0  0  0  0  0  0  0
    9.5651    1.6896   -0.5127 H   0  0  0  0  0  0  0  0  0  0  0  0
    6.9068   -1.6321   -0.5268 H   0  0  0  0  0  0  0  0  0  0  0  0
    4.4246    1.1474    1.0100 H   0  0  0  0  0  0  0  0  0  0  0  0
   -9.2608   -0.3252   -0.5265 H   0  0  0  0  0  0  0  0  0  0  0  0
   -8.3204   -1.4417    0.4928 H   0  0  0  0  0  0  0  0  0  0  0  0
   -7.7253   -0.9194   -1.1838 H   0  0  0  0  0  0  0  0  0  0  0  0
  1  2  1  0
  2  3  1  0
  3  4  1  0
  4  5  2  0
  5  6  1  0
  6  7  2  0
  7  8  1  0
  8  9  2  0
  9 10  1  0
 10 11  2  0
 10 12  1  0
  7 13  1  0
 13 14  1  0
 14 15  2  0
 15 16  1  0
 16 17  2  0
 17 18  1  0
 18 19  2  0
 18 20  1  0
 20 21  1  0
 21 22  1  0
 22 23  1  0
 23 24  1  0
 24 25  1  0
 25 26  2  0
 26 27  1  0
 27 28  2  0
 28 29  1  0
 29 30  2  0
 29 31  1  0
 24 32  1  0
  2 33  1  0
  9  4  1  0
 19 14  1  0
 30 25  1  0
  1 34  1  0
  1 35  1  0
  1 36  1  0
  2 37  1  0
  5 38  1  0
  6 39  1  0
  8 40  1  0
 12 41  1  0
 15 42  1  0
 16 43  1  0
 17 44  1  0
 19 45  1  0
 20 46  1  0
 20 47  1  0
 21 48  1  0
 21 49  1  0
 22 50  1  0
 23 51  1  0
 23 52  1  0
 24 53  1  1
 26 54  1  0
 27 55  1  0
 28 56  1  0
 30 57  1  0
 32 58  1  0
 33 59  1  0
 33 60  1  0
 33 61  1  0
M  END
>  <Ligand ID>  (1) 
LIG0003493

>  <Ligand>  (1) 
CHEMBL523265

>  <SMILES>  (1) 
CC(Oc1ccc(cc1C(=O)O)Oc1cccc(c1)CCNC[C@@H](c1cccc(c1)Cl)O)C

>  <CID>  (1) 
25071020.0

>  <ChEMBL ID>  (1) 
nan

>  <InChiKey>  (1) 
KRDKLBROXABSCR-DEOSSOPVSA-N

>  <InChi>  (1) 
InChI=1S/C26H28ClNO5/c1-17(2)32-25-10-9-22(15-23(25)26(30)31)33-21-8-3-5-18(13-21)11-12-28-16-24(29)19-6-4-7-20(27)14-19/h3-10,13-15,17,24,28-29H,11-12,16H2,1-2H3,(H,30,31)/t24-/m0/s1

>  <IUPAC Name>  (1) 
5-[3-[2-[[(2R)-2-(3-chlorophenyl)-2-hydroxyethyl]amino]ethyl]phenoxy]-2-propan-2-yloxybenzoic acid

$$$$
