
     RDKit          3D

 28 29  0  0  0  0  0  0  0  0999 V2000
    5.9086    2.6863   -0.0986 F   0  0  0  0  0  0  0  0  0  0  0  0
    5.1033    1.5751   -0.1737 C   0  0  0  0  0  0  0  0  0  0  0  0
    5.6615    0.2951   -0.2233 C   0  0  0  0  0  0  0  0  0  0  0  0
    4.8357   -0.8162   -0.2989 C   0  0  0  0  0  0  0  0  0  0  0  0
    3.4569   -0.6545   -0.3252 C   0  0  0  0  0  0  0  0  0  0  0  0
    2.9224    0.6144   -0.2755 C   0  0  0  0  0  0  0  0  0  0  0  0
    3.7165    1.7394   -0.2000 C   0  0  0  0  0  0  0  0  0  0  0  0
    1.4737    0.7764   -0.3035 C   0  0  0  0  0  0  0  0  0  0  0  0
    0.6851   -0.2421   -0.3735 N   0  0  0  0  0  0  0  0  0  0  0  0
   -0.7205   -0.0567   -0.3992 N   0  0  0  0  0  0  0  0  0  0  0  0
   -1.4198   -0.8123    0.3470 C   0  0  0  0  0  0  0  0  0  0  0  0
   -2.8653   -0.6512    0.3469 C   0  0  0  0  0  0  0  0  0  0  0  0
   -3.7015   -1.4366    1.1335 C   0  0  0  0  0  0  0  0  0  0  0  0
   -5.0700   -1.2824    1.1321 C   0  0  0  0  0  0  0  0  0  0  0  0
   -5.6765   -0.3293    0.3394 C   0  0  0  0  0  0  0  0  0  0  0  0
   -4.8686    0.4627   -0.4503 C   0  0  0  0  0  0  0  0  0  0  0  0
   -3.4966    0.2982   -0.4399 C   0  0  0  0  0  0  0  0  0  0  0  0
   -5.4245    1.4269   -1.2580 F   0  0  0  0  0  0  0  0  0  0  0  0
    6.7546    0.1895   -0.2014 H   0  0  0  0  0  0  0  0  0  0  0  0
    5.2890   -1.8181   -0.3374 H   0  0  0  0  0  0  0  0  0  0  0  0
    2.7940   -1.5203   -0.3846 H   0  0  0  0  0  0  0  0  0  0  0  0
    3.2484    2.7130   -0.1634 H   0  0  0  0  0  0  0  0  0  0  0  0
    1.0167    1.7559   -0.2663 H   0  0  0  0  0  0  0  0  0  0  0  0
   -1.0069   -1.5771    0.9905 H   0  0  0  0  0  0  0  0  0  0  0  0
   -3.2464   -2.1822    1.7556 H   0  0  0  0  0  0  0  0  0  0  0  0
   -5.7380   -1.8948    1.7470 H   0  0  0  0  0  0  0  0  0  0  0  0
   -6.7457   -0.1886    0.3201 H   0  0  0  0  0  0  0  0  0  0  0  0
   -2.8862    0.9296   -1.0661 H   0  0  0  0  0  0  0  0  0  0  0  0
  1  2  1  0
  2  3  2  0
  3  4  1  0
  4  5  2  0
  5  6  1  0
  6  7  2  0
  6  8  1  0
  8  9  2  0
  9 10  1  0
 10 11  2  0
 11 12  1  0
 12 13  2  0
 13 14  1  0
 14 15  2  0
 15 16  1  0
 16 17  2  0
 16 18  1  0
  7  2  1  0
 17 12  1  0
  3 19  1  0
  4 20  1  0
  5 21  1  0
  7 22  1  0
  8 23  1  0
 11 24  1  0
 13 25  1  0
 14 26  1  0
 15 27  1  0
 17 28  1  0
M  END
>  <Ligand ID>  (1) 
LIG0005858

>  <Ligand>  (1) 
3,3'-Difluorobenzaldazine

>  <SMILES>  (1) 
Fc1cccc(c1)/C=N/N=C/c1cccc(c1)F

>  <CID>  (1) 
6604893.0

>  <ChEMBL ID>  (1) 
nan

>  <InChiKey>  (1) 
YYMCVDNIIFNDJK-BEQMOXJMSA-N

>  <InChi>  (1) 
InChI=1S/C14H10F2N2/c15-13-5-1-3-11(7-13)9-17-18-10-12-4-2-6-14(16)8-12/h1-10H/b17-9+,18-10+

>  <IUPAC Name>  (1) 
(E)-1-(3-fluorophenyl)-N-[(E)-(3-fluorophenyl)methylideneamino]methanimine

$$$$
