
     RDKit          3D

115119  0  0  0  0  0  0  0  0999 V2000
    2.0046    7.2632    1.7453 N   0  0  0  0  0  0  0  0  0  0  0  0
    2.2837    5.9364    2.1699 C   0  0  0  0  0  0  0  0  0  0  0  0
    2.0407    4.9497    1.3771 N   0  0  0  0  0  0  0  0  0  0  0  0
    2.3225    3.5954    1.8060 C   0  0  0  0  0  0  0  0  0  0  0  0
    3.3069    2.9618    0.8834 C   0  0  0  0  0  0  0  0  0  0  0  0
    3.0270    2.8454   -0.5539 C   0  0  0  0  0  0  0  0  0  0  0  0
    1.8843    2.1067   -1.0839 C   0  0  2  0  0  0  0  0  0  0  0  0
    0.5880    2.5974   -0.7170 N   0  0  0  0  0  0  0  0  0  0  0  0
   -0.6035    2.4938   -1.5091 C   0  0  0  0  0  0  0  0  0  0  0  0
   -0.4938    1.9717   -2.6017 O   0  0  0  0  0  0  0  0  0  0  0  0
   -1.8434    3.0395   -0.8762 C   0  0  1  0  0  0  0  0  0  0  0  0
   -1.6938    4.4727   -0.6853 C   0  0  0  0  0  0  0  0  0  0  0  0
   -2.8516    5.1560   -0.0578 C   0  0  0  0  0  0  0  0  0  0  0  0
   -3.8341    5.6512   -0.8867 C   0  0  0  0  0  0  0  0  0  0  0  0
   -4.9519    6.2997   -0.4059 C   0  0  0  0  0  0  0  0  0  0  0  0
   -5.0512    6.4359    0.9633 C   0  0  0  0  0  0  0  0  0  0  0  0
   -4.0836    5.9504    1.8175 C   0  0  0  0  0  0  0  0  0  0  0  0
   -2.9864    5.3103    1.2802 C   0  0  0  0  0  0  0  0  0  0  0  0
   -3.0114    2.5543   -1.5957 N   0  0  0  0  0  0  0  0  0  0  0  0
   -3.3357    1.1882   -1.2961 C   0  0  0  0  0  0  0  0  0  0  0  0
   -2.5021    0.5993   -0.5910 O   0  0  0  0  0  0  0  0  0  0  0  0
   -4.5328    0.4294   -1.7374 C   0  0  2  0  0  0  0  0  0  0  0  0
   -5.8088    1.1263   -1.2728 C   0  0  0  0  0  0  0  0  0  0  0  0
   -5.7301    0.9909    0.2522 C   0  0  0  0  0  0  0  0  0  0  0  0
   -4.9239   -0.2846    0.4193 C   0  0  0  0  0  0  0  0  0  0  0  0
   -4.5772   -0.7798   -0.8583 N   0  0  0  0  0  0  0  0  0  0  0  0
   -4.3303   -2.0872   -1.3306 C   0  0  0  0  0  0  0  0  0  0  0  0
   -4.2847   -2.2186   -2.5530 O   0  0  0  0  0  0  0  0  0  0  0  0
   -4.1592   -3.1381   -0.3095 C   0  0  0  0  0  0  0  0  0  0  0  0
   -4.3486   -4.5488   -0.7795 C   0  0  0  0  0  0  0  0  0  0  0  0
   -3.5695   -5.4085    0.2927 C   0  0  0  0  0  0  0  0  0  0  0  0
   -2.2245   -5.0338    0.1485 N   0  0  0  0  0  0  0  0  0  0  0  0
   -1.2326   -5.5170    0.9592 C   0  0  0  0  0  0  0  0  0  0  0  0
   -1.2438   -5.0098    2.3639 C   0  0  0  0  0  0  0  0  0  0  0  0
   -0.0095   -5.5760    3.0829 C   0  0  0  0  0  0  0  0  0  0  0  0
    1.2555   -5.2123    2.3214 C   0  0  0  0  0  0  0  0  0  0  0  0
    1.4412   -3.7587    2.2701 C   0  0  2  0  0  0  0  0  0  0  0  0
    2.4093   -3.3239    1.2471 N   0  0  0  0  0  0  0  0  0  0  0  0
    2.3843   -1.9495    0.7973 C   0  0  0  0  0  0  0  0  0  0  0  0
    1.6465   -1.2127    1.4523 O   0  0  0  0  0  0  0  0  0  0  0  0
    3.2149   -1.5007   -0.3776 C   0  0  1  0  0  0  0  0  0  0  0  0
    3.1853   -0.0613   -0.5513 N   0  0  0  0  0  0  0  0  0  0  0  0
    1.9597    0.6282   -0.7986 C   0  0  0  0  0  0  0  0  0  0  0  0
    0.9445   -0.0691   -0.7507 O   0  0  0  0  0  0  0  0  0  0  0  0
    4.5119   -2.1556   -0.5381 C   0  0  0  0  0  0  0  0  0  0  0  0
    5.2720   -1.6373   -1.7359 C   0  0  0  0  0  0  0  0  0  0  0  0
    6.3433   -0.7667   -1.7392 C   0  0  0  0  0  0  0  0  0  0  0  0
    6.6904   -0.5883   -3.0224 N   0  0  0  0  0  0  0  0  0  0  0  0
    5.8822   -1.3126   -3.8462 C   0  0  0  0  0  0  0  0  0  0  0  0
    4.9878   -1.9752   -3.0324 C   0  0  0  0  0  0  0  0  0  0  0  0
    4.0239   -2.8044   -3.5757 C   0  0  0  0  0  0  0  0  0  0  0  0
    3.9504   -2.9751   -4.9329 C   0  0  0  0  0  0  0  0  0  0  0  0
    4.8586   -2.2999   -5.7257 C   0  0  0  0  0  0  0  0  0  0  0  0
    5.8343   -1.4640   -5.2267 C   0  0  0  0  0  0  0  0  0  0  0  0
    2.2126   -3.4174    3.5582 C   0  0  0  0  0  0  0  0  0  0  0  0
    3.3490   -2.9166    3.3797 O   0  0  0  0  0  0  0  0  0  0  0  0
    1.6395   -3.6676    4.8266 N   0  0  0  0  0  0  0  0  0  0  0  0
    2.8405    5.6794    3.4729 N   0  0  0  0  0  0  0  0  0  0  0  0
    2.7798    7.9174    1.4583 H   0  0  0  0  0  0  0  0  0  0  0  0
    0.9952    7.5663    1.7268 H   0  0  0  0  0  0  0  0  0  0  0  0
    2.9283    3.6738    2.8063 H   0  0  0  0  0  0  0  0  0  0  0  0
    1.4743    3.0055    2.1310 H   0  0  0  0  0  0  0  0  0  0  0  0
    3.7026    1.9975    1.3284 H   0  0  0  0  0  0  0  0  0  0  0  0
    4.2394    3.6319    0.9738 H   0  0  0  0  0  0  0  0  0  0  0  0
    3.9993    2.4601   -1.0439 H   0  0  0  0  0  0  0  0  0  0  0  0
    3.0101    3.9186   -0.9884 H   0  0  0  0  0  0  0  0  0  0  0  0
    1.9729    2.0885   -2.2336 H   0  0  0  0  0  0  0  0  0  0  0  0
    0.4610    3.0681    0.1717 H   0  0  0  0  0  0  0  0  0  0  0  0
   -1.8151    2.5157    0.1381 H   0  0  0  0  0  0  0  0  0  0  0  0
   -1.3802    5.0060   -1.6350 H   0  0  0  0  0  0  0  0  0  0  0  0
   -0.8443    4.6480    0.0131 H   0  0  0  0  0  0  0  0  0  0  0  0
   -3.7106    5.5187   -1.9705 H   0  0  0  0  0  0  0  0  0  0  0  0
   -5.7339    6.6976   -1.0637 H   0  0  0  0  0  0  0  0  0  0  0  0
   -5.8950    6.9306    1.4208 H   0  0  0  0  0  0  0  0  0  0  0  0
   -4.2016    6.0768    2.8799 H   0  0  0  0  0  0  0  0  0  0  0  0
   -2.2259    4.9257    1.9284 H   0  0  0  0  0  0  0  0  0  0  0  0
   -3.6009    3.0330   -2.2420 H   0  0  0  0  0  0  0  0  0  0  0  0
   -4.5850    0.2242   -2.7769 H   0  0  0  0  0  0  0  0  0  0  0  0
   -5.8932    2.1484   -1.6206 H   0  0  0  0  0  0  0  0  0  0  0  0
   -6.6835    0.5239   -1.5873 H   0  0  0  0  0  0  0  0  0  0  0  0
   -6.7227    0.9124    0.7263 H   0  0  0  0  0  0  0  0  0  0  0  0
   -5.1581    1.8750    0.6001 H   0  0  0  0  0  0  0  0  0  0  0  0
   -4.0060   -0.0648    1.0405 H   0  0  0  0  0  0  0  0  0  0  0  0
   -5.4909   -1.0018    1.0554 H   0  0  0  0  0  0  0  0  0  0  0  0
   -3.1048   -3.0528    0.0786 H   0  0  0  0  0  0  0  0  0  0  0  0
   -4.8676   -2.9167    0.5467 H   0  0  0  0  0  0  0  0  0  0  0  0
   -3.8564   -4.7041   -1.7497 H   0  0  0  0  0  0  0  0  0  0  0  0
   -5.3833   -4.8688   -0.8319 H   0  0  0  0  0  0  0  0  0  0  0  0
   -3.7611   -6.4574    0.0292 H   0  0  0  0  0  0  0  0  0  0  0  0
   -4.0571   -5.1417    1.2397 H   0  0  0  0  0  0  0  0  0  0  0  0
   -1.9324   -4.7891   -0.8159 H   0  0  0  0  0  0  0  0  0  0  0  0
   -0.2314   -5.1634    0.5184 H   0  0  0  0  0  0  0  0  0  0  0  0
   -1.1033   -6.6318    0.9887 H   0  0  0  0  0  0  0  0  0  0  0  0
   -1.2514   -3.9268    2.4857 H   0  0  0  0  0  0  0  0  0  0  0  0
   -2.1697   -5.3835    2.8729 H   0  0  0  0  0  0  0  0  0  0  0  0
   -0.0586   -5.1486    4.0956 H   0  0  0  0  0  0  0  0  0  0  0  0
   -0.1569   -6.6633    3.1830 H   0  0  0  0  0  0  0  0  0  0  0  0
    2.0867   -5.7102    2.9520 H   0  0  0  0  0  0  0  0  0  0  0  0
    1.2860   -5.7916    1.4078 H   0  0  0  0  0  0  0  0  0  0  0  0
    0.5550   -3.1551    2.3228 H   0  0  0  0  0  0  0  0  0  0  0  0
    3.1126   -3.9039    0.8174 H   0  0  0  0  0  0  0  0  0  0  0  0
    2.5356   -1.8480   -1.2627 H   0  0  0  0  0  0  0  0  0  0  0  0
    4.0129    0.5352   -0.5078 H   0  0  0  0  0  0  0  0  0  0  0  0
    4.4967   -3.2366   -0.6683 H   0  0  0  0  0  0  0  0  0  0  0  0
    5.1611   -1.9472    0.3502 H   0  0  0  0  0  0  0  0  0  0  0  0
    6.7518   -0.3564   -0.8265 H   0  0  0  0  0  0  0  0  0  0  0  0
    7.4871    0.0371   -3.3013 H   0  0  0  0  0  0  0  0  0  0  0  0
    3.2966   -3.3457   -2.9788 H   0  0  0  0  0  0  0  0  0  0  0  0
    3.2208   -3.6085   -5.4046 H   0  0  0  0  0  0  0  0  0  0  0  0
    4.7893   -2.4458   -6.7973 H   0  0  0  0  0  0  0  0  0  0  0  0
    6.5495   -0.9297   -5.8151 H   0  0  0  0  0  0  0  0  0  0  0  0
    1.9727   -4.3761    5.5064 H   0  0  0  0  0  0  0  0  0  0  0  0
    0.8132   -3.0945    5.0944 H   0  0  0  0  0  0  0  0  0  0  0  0
    3.8752    5.6246    3.5864 H   0  0  0  0  0  0  0  0  0  0  0  0
    2.2376    5.5411    4.3148 H   0  0  0  0  0  0  0  0  0  0  0  0
  1  2  1  0
  2  3  2  3
  3  4  1  0
  4  5  1  0
  5  6  1  0
  6  7  1  0
  7  8  1  0
  8  9  1  0
  9 10  2  0
  9 11  1  0
 11 12  1  0
 12 13  1  0
 13 14  2  0
 14 15  1  0
 15 16  2  0
 16 17  1  0
 17 18  2  0
 11 19  1  0
 19 20  1  0
 20 21  2  0
 20 22  1  0
 22 23  1  0
 23 24  1  0
 24 25  1  0
 25 26  1  0
 26 27  1  0
 27 28  2  0
 27 29  1  0
 29 30  1  0
 30 31  1  0
 31 32  1  0
 32 33  1  0
 33 34  1  0
 34 35  1  0
 35 36  1  0
 36 37  1  0
 37 38  1  0
 38 39  1  0
 39 40  2  0
 39 41  1  0
 41 42  1  0
 42 43  1  0
 43 44  2  0
 41 45  1  0
 45 46  1  0
 46 47  2  0
 47 48  1  0
 48 49  1  0
 49 50  2  0
 50 51  1  0
 51 52  2  0
 52 53  1  0
 53 54  2  0
 37 55  1  0
 55 56  2  0
 55 57  1  0
  2 58  1  0
 43  7  1  0
 50 46  1  0
 18 13  1  0
 26 22  1  0
 54 49  1  0
  1 59  1  0
  1 60  1  0
  4 61  1  0
  4 62  1  0
  5 63  1  0
  5 64  1  0
  6 65  1  0
  6 66  1  0
  7 67  1  6
  8 68  1  0
 11 69  1  1
 12 70  1  0
 12 71  1  0
 14 72  1  0
 15 73  1  0
 16 74  1  0
 17 75  1  0
 18 76  1  0
 19 77  1  0
 22 78  1  6
 23 79  1  0
 23 80  1  0
 24 81  1  0
 24 82  1  0
 25 83  1  0
 25 84  1  0
 29 85  1  0
 29 86  1  0
 30 87  1  0
 30 88  1  0
 31 89  1  0
 31 90  1  0
 32 91  1  0
 33 92  1  0
 33 93  1  0
 34 94  1  0
 34 95  1  0
 35 96  1  0
 35 97  1  0
 36 98  1  0
 36 99  1  0
 37100  1  1
 38101  1  0
 41102  1  6
 42103  1  0
 45104  1  0
 45105  1  0
 47106  1  0
 48107  1  0
 51108  1  0
 52109  1  0
 53110  1  0
 54111  1  0
 57112  1  0
 57113  1  0
 58114  1  0
 58115  1  0
M  END
>  <Ligand ID>  (1) 
LIG0003118

>  <Ligand>  (1) 
CHEMBL398664

>  <SMILES>  (1) 
NC(=NCCC[C@@H]1NC(=O)[C@@H](Cc2ccccc2)NC(=O)[C@@H]2CCCN2C(=O)CCCNCCCC[C@H](NC(=O)[C@@H](NC1=O)Cc1c[nH]c2c1cccc2)C(=O)N)N

>  <CID>  (1) 
44445082.0

>  <ChEMBL ID>  (1) 
nan

>  <InChiKey>  (1) 
VFHJQMPJMWPJBF-UBLLTGQXSA-N

>  <InChi>  (1) 
InChI=1S/C41H57N11O6/c42-36(54)30-15-6-7-19-45-20-9-18-35(53)52-22-10-17-34(52)40(58)51-32(23-26-11-2-1-3-12-26)38(56)49-31(16-8-21-46-41(43)44)37(55)50-33(39(57)48-30)24-27-25-47-29-14-5-4-13-28(27)29/h1-5,11-14,25,30-34,45,47H,6-10,15-24H2,(H2,42,54)(H,48,57)(H,49,56)(H,50,55)(H,51,58)(H4,43,44,46)/t30-,31-,32+,33-,34-/m0/s1

>  <IUPAC Name>  (1) 
(11S,14S,17S,20R,23S)-20-benzyl-17-[3-(diaminomethylideneamino)propyl]-14-(1H-indol-3-ylmethyl)-2,13,16,19,22-pentaoxo-1,6,12,15,18,21-hexazabicyclo[21.3.0]hexacosane-11-carboxamide

$$$$
