
     RDKit          3D

 64 66  0  0  0  0  0  0  0  0999 V2000
   -0.8718   -2.5328    2.3686 O   0  0  0  0  0  0  0  0  0  0  0  0
   -0.9252   -1.2906    1.7327 C   0  0  2  0  0  0  0  0  0  0  0  0
   -2.4002   -1.0112    1.5112 C   0  0  2  0  0  0  0  0  0  0  0  0
   -3.1864   -1.6370    2.4751 O   0  0  0  0  0  0  0  0  0  0  0  0
   -2.6014   -1.6331    0.1453 C   0  0  2  0  0  0  0  0  0  0  0  0
   -1.4711   -1.1942   -0.5324 O   0  0  0  0  0  0  0  0  0  0  0  0
   -0.4262   -1.4098    0.3309 C   0  0  1  0  0  0  0  0  0  0  0  0
    0.6726   -0.4824    0.1116 N   0  0  0  0  0  0  0  0  0  0  0  0
    0.6012    0.2962   -0.9844 C   0  0  0  0  0  0  0  0  0  0  0  0
    1.6357    1.1737   -1.1954 C   0  0  0  0  0  0  0  0  0  0  0  0
    2.7106    1.2657   -0.3301 C   0  0  0  0  0  0  0  0  0  0  0  0
    2.7258    0.4612    0.7486 N   0  0  0  0  0  0  0  0  0  0  0  0
    1.7063   -0.4077    0.9621 C   0  0  0  0  0  0  0  0  0  0  0  0
    1.7747   -1.1334    1.9852 O   0  0  0  0  0  0  0  0  0  0  0  0
    3.7669    2.1756   -0.5640 N   0  0  0  0  0  0  0  0  0  0  0  0
    4.8401    2.3307    0.2181 O   0  0  0  0  0  0  0  0  0  0  0  0
    5.9635    2.4277   -0.6011 C   0  0  0  0  0  0  0  0  0  0  0  0
    7.2163    2.6307    0.2052 C   0  0  0  0  0  0  0  0  0  0  0  0
    7.4255    1.4646    1.1527 C   0  0  0  0  0  0  0  0  0  0  0  0
    7.5557    0.1844    0.4092 C   0  0  0  0  0  0  0  0  0  0  0  0
    6.4820   -0.6196    0.0974 C   0  0  0  0  0  0  0  0  0  0  0  0
    6.7233   -1.7968   -0.6043 C   0  0  0  0  0  0  0  0  0  0  0  0
    7.9653   -2.1596   -0.9784 N   0  0  0  0  0  0  0  0  0  0  0  0
    9.0255   -1.3691   -0.6723 C   0  0  0  0  0  0  0  0  0  0  0  0
    8.8327   -0.2010    0.0177 C   0  0  0  0  0  0  0  0  0  0  0  0
   -3.8772   -1.1536   -0.5023 C   0  0  0  0  0  0  0  0  0  0  0  0
   -4.0180   -1.5831   -1.7975 O   0  0  0  0  0  0  0  0  0  0  0  0
   -5.4484   -0.9972   -2.5104 P   0  0  0  0  0  0  0  0  0  0  0  0
   -6.3342   -2.1262   -2.9177 O   0  0  0  0  0  0  0  0  0  0  0  0
   -6.1848    0.1462   -1.5315 O   0  0  0  0  0  0  0  0  0  0  0  0
   -7.6522   -0.3414   -0.8912 P   0  0  0  0  0  0  0  0  0  0  0  0
   -7.4911   -1.1790    0.3442 O   0  0  0  0  0  0  0  0  0  0  0  0
   -8.4731    1.0861   -0.4297 O   0  0  0  0  0  0  0  0  0  0  0  0
   -9.2212    0.9402    1.0575 P   0  0  0  0  0  0  0  0  0  0  0  0
   -9.2027    2.2855    1.7743 O   0  0  0  0  0  0  0  0  0  0  0  0
  -10.8662    0.5487    0.8135 O   0  0  0  0  0  0  0  0  0  0  0  0
   -8.5498   -0.2688    2.0143 O   0  0  0  0  0  0  0  0  0  0  0  0
   -8.6422   -1.1275   -2.0185 O   0  0  0  0  0  0  0  0  0  0  0  0
   -4.9574   -0.1849   -3.9318 O   0  0  0  0  0  0  0  0  0  0  0  0
   -0.2634   -2.5842    3.1232 H   0  0  0  0  0  0  0  0  0  0  0  0
   -0.4439   -0.4940    2.3347 H   0  0  0  0  0  0  0  0  0  0  0  0
   -2.5792    0.0705    1.4511 H   0  0  0  0  0  0  0  0  0  0  0  0
   -4.1154   -1.6926    2.1295 H   0  0  0  0  0  0  0  0  0  0  0  0
   -2.5404   -2.7350    0.2007 H   0  0  0  0  0  0  0  0  0  0  0  0
   -0.0201   -2.4391    0.1451 H   0  0  0  0  0  0  0  0  0  0  0  0
   -0.2314    0.2225   -1.6515 H   0  0  0  0  0  0  0  0  0  0  0  0
    1.5731    1.8016   -2.0837 H   0  0  0  0  0  0  0  0  0  0  0  0
    3.7201    2.7916   -1.4238 H   0  0  0  0  0  0  0  0  0  0  0  0
    5.8278    3.2813   -1.2945 H   0  0  0  0  0  0  0  0  0  0  0  0
    6.0497    1.5104   -1.2319 H   0  0  0  0  0  0  0  0  0  0  0  0
    8.0774    2.7565   -0.4491 H   0  0  0  0  0  0  0  0  0  0  0  0
    7.0950    3.5426    0.8150 H   0  0  0  0  0  0  0  0  0  0  0  0
    8.3490    1.6044    1.7475 H   0  0  0  0  0  0  0  0  0  0  0  0
    6.5686    1.3441    1.8300 H   0  0  0  0  0  0  0  0  0  0  0  0
    5.5024   -0.3302    0.3947 H   0  0  0  0  0  0  0  0  0  0  0  0
    5.8702   -2.4410   -0.8554 H   0  0  0  0  0  0  0  0  0  0  0  0
   10.0368   -1.6273   -0.9558 H   0  0  0  0  0  0  0  0  0  0  0  0
    9.6889    0.4314    0.2615 H   0  0  0  0  0  0  0  0  0  0  0  0
   -4.7157   -1.5607    0.1067 H   0  0  0  0  0  0  0  0  0  0  0  0
   -3.9278   -0.0532   -0.3805 H   0  0  0  0  0  0  0  0  0  0  0  0
  -11.3381    0.7185    1.6721 H   0  0  0  0  0  0  0  0  0  0  0  0
   -8.4116    0.0607    2.9226 H   0  0  0  0  0  0  0  0  0  0  0  0
   -9.1394   -1.8826   -1.5857 H   0  0  0  0  0  0  0  0  0  0  0  0
   -5.4553   -0.4978   -4.7048 H   0  0  0  0  0  0  0  0  0  0  0  0
  1  2  1  0
  2  3  1  0
  3  4  1  0
  3  5  1  0
  5  6  1  0
  6  7  1  0
  7  8  1  0
  8  9  1  0
  9 10  2  0
 10 11  1  0
 11 12  2  0
 12 13  1  0
 13 14  2  0
 11 15  1  0
 15 16  1  0
 16 17  1  0
 17 18  1  0
 18 19  1  0
 19 20  1  0
 20 21  2  0
 21 22  1  0
 22 23  2  0
 23 24  1  0
 24 25  2  0
  5 26  1  0
 26 27  1  0
 27 28  1  0
 28 29  2  0
 28 30  1  0
 30 31  1  0
 31 32  2  0
 31 33  1  0
 33 34  1  0
 34 35  2  0
 34 36  1  0
 34 37  1  0
 31 38  1  0
 28 39  1  0
  7  2  1  0
 13  8  1  0
 25 20  1  0
  1 40  1  0
  2 41  1  1
  3 42  1  6
  4 43  1  0
  5 44  1  1
  7 45  1  1
  9 46  1  0
 10 47  1  0
 15 48  1  0
 17 49  1  0
 17 50  1  0
 18 51  1  0
 18 52  1  0
 19 53  1  0
 19 54  1  0
 21 55  1  0
 22 56  1  0
 24 57  1  0
 25 58  1  0
 26 59  1  0
 26 60  1  0
 36 61  1  0
 37 62  1  0
 38 63  1  0
 39 64  1  0
M  END
>  <Ligand ID>  (1) 
LIG0002846

>  <Ligand>  (1) 
CHEMBL3261371

>  <SMILES>  (1) 
O[C@@H]1[C@H](O)[C@H](O[C@H]1n1ccc(nc1=O)NOCCCc1ccncc1)COP(=O)(OP(=O)(OP(=O)(O)O)O)O

>  <CID>  (1) 
90656222.0

>  <ChEMBL ID>  (1) 
nan

>  <InChiKey>  (1) 
GDYLVBZFJDZQBP-DTZQCDIJSA-N

>  <InChi>  (1) 
InChI=1S/C17H25N4O15P3/c22-14-12(10-33-38(28,29)36-39(30,31)35-37(25,26)27)34-16(15(14)23)21-8-5-13(19-17(21)24)20-32-9-1-2-11-3-6-18-7-4-11/h3-8,12,14-16,22-23H,1-2,9-10H2,(H,28,29)(H,30,31)(H,19,20,24)(H2,25,26,27)/t12-,14-,15-,16-/m1/s1

>  <IUPAC Name>  (1) 
[[(2R,3S,4R,5R)-3,4-dihydroxy-5-[2-oxo-4-(3-pyridin-4-ylpropoxyamino)pyrimidin-1-yl]oxolan-2-yl]methoxy-hydroxyphosphoryl] phosphono hydrogen phosphate

$$$$
