
     RDKit          3D

 67 71  0  0  0  0  0  0  0  0999 V2000
   -2.5444   -4.1781   -1.0339 C   0  0  0  0  0  0  0  0  0  0  0  0
   -2.9369   -4.3625    0.4151 C   0  0  0  0  0  0  0  0  0  0  0  0
   -3.8589   -3.4104    0.8643 O   0  0  0  0  0  0  0  0  0  0  0  0
   -3.5978   -2.0591    0.8778 C   0  0  0  0  0  0  0  0  0  0  0  0
   -2.4292   -1.4727    0.4709 C   0  0  0  0  0  0  0  0  0  0  0  0
   -2.2157   -0.1204    0.5031 C   0  0  0  0  0  0  0  0  0  0  0  0
   -3.2607    0.6617    0.9769 C   0  0  0  0  0  0  0  0  0  0  0  0
   -4.4593    0.1388    1.4009 C   0  0  0  0  0  0  0  0  0  0  0  0
   -4.6039   -1.2288    1.3416 C   0  0  0  0  0  0  0  0  0  0  0  0
   -5.8088   -1.7706    1.7672 O   0  0  0  0  0  0  0  0  0  0  0  0
   -6.8557   -0.9144    2.2495 C   0  0  0  0  0  0  0  0  0  0  0  0
   -3.0843    2.0012    1.0052 N   0  0  0  0  0  0  0  0  0  0  0  0
   -1.9135    2.5112    0.5764 C   0  0  0  0  0  0  0  0  0  0  0  0
   -0.9153    1.7639    0.1249 N   0  0  0  0  0  0  0  0  0  0  0  0
   -1.0462    0.4018    0.0778 C   0  0  0  0  0  0  0  0  0  0  0  0
    0.0941   -0.3004   -0.3691 N   0  0  0  0  0  0  0  0  0  0  0  0
    0.7886    0.2872   -1.5309 C   0  0  0  0  0  0  0  0  0  0  0  0
    1.9242   -0.6164   -1.9699 C   0  0  0  0  0  0  0  0  0  0  0  0
    2.7946   -0.8394   -0.8395 N   0  0  0  0  0  0  0  0  0  0  0  0
    2.1507   -1.1238    0.4342 C   0  0  0  0  0  0  0  0  0  0  0  0
    0.6594   -1.4862    0.2212 C   0  0  0  0  0  0  0  0  0  0  0  0
    4.1987   -0.8008   -0.8750 C   0  0  0  0  0  0  0  0  0  0  0  0
    4.9016    0.3756   -0.6428 C   0  0  0  0  0  0  0  0  0  0  0  0
    4.1367    1.6410   -0.3462 C   0  0  0  0  0  0  0  0  0  0  0  0
    6.3010    0.4054   -0.6792 C   0  0  0  0  0  0  0  0  0  0  0  0
    7.0316   -0.7398   -0.9485 C   0  0  0  0  0  0  0  0  0  0  0  0
    6.3323   -1.9124   -1.1801 C   0  0  0  0  0  0  0  0  0  0  0  0
    4.9453   -1.9370   -1.1429 C   0  0  0  0  0  0  0  0  0  0  0  0
    4.3026   -3.2567   -1.4090 C   0  0  0  0  0  0  0  0  0  0  0  0
   -1.7483    3.9708    0.6157 C   0  0  0  0  0  0  0  0  0  0  0  0
   -0.5747    4.5636    0.1845 C   0  0  0  0  0  0  0  0  0  0  0  0
   -0.3810    5.9344    0.2030 C   0  0  0  0  0  0  0  0  0  0  0  0
   -1.4100    6.7099    0.6721 C   0  0  0  0  0  0  0  0  0  0  0  0
   -2.5915    6.1374    1.1078 C   0  0  0  0  0  0  0  0  0  0  0  0
   -2.7819    4.7592    1.0875 C   0  0  0  0  0  0  0  0  0  0  0  0
   -1.4525   -4.1589   -1.1150 H   0  0  0  0  0  0  0  0  0  0  0  0
   -2.9191   -5.0383   -1.6375 H   0  0  0  0  0  0  0  0  0  0  0  0
   -3.0607   -3.2770   -1.4476 H   0  0  0  0  0  0  0  0  0  0  0  0
   -3.2819   -5.4023    0.5484 H   0  0  0  0  0  0  0  0  0  0  0  0
   -2.0318   -4.2496    1.0621 H   0  0  0  0  0  0  0  0  0  0  0  0
   -1.6569   -2.1187    0.0973 H   0  0  0  0  0  0  0  0  0  0  0  0
   -5.2209    0.8153    1.7558 H   0  0  0  0  0  0  0  0  0  0  0  0
   -7.0233   -0.1160    1.4708 H   0  0  0  0  0  0  0  0  0  0  0  0
   -6.5370   -0.3771    3.1725 H   0  0  0  0  0  0  0  0  0  0  0  0
   -7.7794   -1.4796    2.3533 H   0  0  0  0  0  0  0  0  0  0  0  0
    0.0437    0.2212   -2.3733 H   0  0  0  0  0  0  0  0  0  0  0  0
    1.1125    1.3144   -1.3084 H   0  0  0  0  0  0  0  0  0  0  0  0
    1.3937   -1.5966   -2.1618 H   0  0  0  0  0  0  0  0  0  0  0  0
    2.3727   -0.1801   -2.8492 H   0  0  0  0  0  0  0  0  0  0  0  0
    2.0991   -0.2093    1.0621 H   0  0  0  0  0  0  0  0  0  0  0  0
    2.6600   -1.9246    0.9933 H   0  0  0  0  0  0  0  0  0  0  0  0
    0.6313   -2.3671   -0.4353 H   0  0  0  0  0  0  0  0  0  0  0  0
    0.3108   -1.7021    1.2532 H   0  0  0  0  0  0  0  0  0  0  0  0
    3.6769    1.5525    0.6436 H   0  0  0  0  0  0  0  0  0  0  0  0
    4.8652    2.4759   -0.2688 H   0  0  0  0  0  0  0  0  0  0  0  0
    3.4439    1.9203   -1.1460 H   0  0  0  0  0  0  0  0  0  0  0  0
    6.7651    1.3657   -0.4867 H   0  0  0  0  0  0  0  0  0  0  0  0
    8.1080   -0.6710   -0.9664 H   0  0  0  0  0  0  0  0  0  0  0  0
    6.9295   -2.7993   -1.3896 H   0  0  0  0  0  0  0  0  0  0  0  0
    4.8638   -4.0166   -0.7944 H   0  0  0  0  0  0  0  0  0  0  0  0
    3.2565   -3.3252   -1.0606 H   0  0  0  0  0  0  0  0  0  0  0  0
    4.4642   -3.6118   -2.4492 H   0  0  0  0  0  0  0  0  0  0  0  0
    0.2595    3.9715   -0.1935 H   0  0  0  0  0  0  0  0  0  0  0  0
    0.5503    6.3557   -0.1432 H   0  0  0  0  0  0  0  0  0  0  0  0
   -1.3089    7.8066    0.7078 H   0  0  0  0  0  0  0  0  0  0  0  0
   -3.3894    6.7981    1.4755 H   0  0  0  0  0  0  0  0  0  0  0  0
   -3.6877    4.2906    1.4201 H   0  0  0  0  0  0  0  0  0  0  0  0
  1  2  1  0
  2  3  1  0
  3  4  1  0
  4  5  2  0
  5  6  1  0
  6  7  2  0
  7  8  1  0
  8  9  2  0
  9 10  1  0
 10 11  1  0
  7 12  1  0
 12 13  2  0
 13 14  1  0
 14 15  2  0
 15 16  1  0
 16 17  1  0
 17 18  1  0
 18 19  1  0
 19 20  1  0
 20 21  1  0
 19 22  1  0
 22 23  2  0
 23 24  1  0
 23 25  1  0
 25 26  2  0
 26 27  1  0
 27 28  2  0
 28 29  1  0
 13 30  1  0
 30 31  2  0
 31 32  1  0
 32 33  2  0
 33 34  1  0
 34 35  2  0
  9  4  1  0
 21 16  1  0
 28 22  1  0
 35 30  1  0
 15  6  1  0
  1 36  1  0
  1 37  1  0
  1 38  1  0
  2 39  1  0
  2 40  1  0
  5 41  1  0
  8 42  1  0
 11 43  1  0
 11 44  1  0
 11 45  1  0
 17 46  1  0
 17 47  1  0
 18 48  1  0
 18 49  1  0
 20 50  1  0
 20 51  1  0
 21 52  1  0
 21 53  1  0
 24 54  1  0
 24 55  1  0
 24 56  1  0
 25 57  1  0
 26 58  1  0
 27 59  1  0
 29 60  1  0
 29 61  1  0
 29 62  1  0
 31 63  1  0
 32 64  1  0
 33 65  1  0
 34 66  1  0
 35 67  1  0
M  END
>  <Ligand ID>  (1) 
LIG0004465

>  <Ligand>  (1) 
CHEMBL2431111

>  <SMILES>  (1) 
CCOc1cc2c(cc1OC)nc(nc2N1CCN(CC1)c1c(C)cccc1C)c1ccccc1

>  <CID>  (1) 
73356947.0

>  <ChEMBL ID>  (1) 
nan

>  <InChiKey>  (1) 
LTTBBFCZVUSRDT-UHFFFAOYSA-N

>  <InChi>  (1) 
InChI=1S/C29H32N4O2/c1-5-35-26-18-23-24(19-25(26)34-4)30-28(22-12-7-6-8-13-22)31-29(23)33-16-14-32(15-17-33)27-20(2)10-9-11-21(27)3/h6-13,18-19H,5,14-17H2,1-4H3

>  <IUPAC Name>  (1) 
4-[4-(2,6-dimethylphenyl)piperazin-1-yl]-6-ethoxy-7-methoxy-2-phenylquinazoline

$$$$
