
     RDKit          3D

143145  0  0  0  0  0  0  0  0999 V2000
   -7.5638    3.1394   -1.7622 C   0  0  0  0  0  0  0  0  0  0  0  0
   -6.1289    3.2129   -1.3662 C   0  0  0  0  0  0  0  0  0  0  0  0
   -5.3316    1.9696   -1.7514 C   0  0  1  0  0  0  0  0  0  0  0  0
   -5.8485    0.7452   -1.1429 C   0  0  2  0  0  0  0  0  0  0  0  0
   -5.8853    0.7610    0.3236 N   0  0  0  0  0  0  0  0  0  0  0  0
   -6.6547   -0.1326    1.0982 C   0  0  0  0  0  0  0  0  0  0  0  0
   -7.4054   -0.8852    0.4521 O   0  0  0  0  0  0  0  0  0  0  0  0
   -6.6005   -0.2098    2.5978 C   0  0  1  0  0  0  0  0  0  0  0  0
   -5.7414    0.8476    3.0635 N   0  0  0  0  0  0  0  0  0  0  0  0
   -4.3201    0.8469    2.9585 C   0  0  0  0  0  0  0  0  0  0  0  0
   -3.7991   -0.0637    2.3333 O   0  0  0  0  0  0  0  0  0  0  0  0
   -3.4420    1.8922    3.5488 C   0  0  0  0  0  0  0  0  0  0  0  0
   -2.4415    2.3765    2.5521 C   0  0  0  0  0  0  0  0  0  0  0  0
   -1.8102    1.0660    1.5431 S   0  0  0  0  0  0  0  0  0  0  0  0
   -0.6836   -0.3201    2.5865 S   0  0  0  0  0  0  0  0  0  0  0  0
    1.0517   -0.0536    2.7195 C   0  0  0  0  0  0  0  0  0  0  0  0
    1.8188   -0.0759    1.3487 C   0  0  2  0  0  0  0  0  0  0  0  0
    1.4831   -1.3427    0.8036 N   0  0  0  0  0  0  0  0  0  0  0  0
    0.4716   -1.3848   -0.2961 C   0  0  0  0  0  0  0  0  0  0  0  0
    0.1390   -0.2825   -0.6577 O   0  0  0  0  0  0  0  0  0  0  0  0
    0.0256   -2.7265   -0.7697 C   0  0  1  0  0  0  0  0  0  0  0  0
   -1.2222   -2.8319   -1.3884 N   0  0  0  0  0  0  0  0  0  0  0  0
   -2.1798   -1.8617   -1.8197 C   0  0  0  0  0  0  0  0  0  0  0  0
   -1.8263   -0.6891   -1.7999 O   0  0  0  0  0  0  0  0  0  0  0  0
   -3.5297   -2.2033   -2.2697 C   0  0  1  0  0  0  0  0  0  0  0  0
   -4.3365   -0.9532   -2.4579 N   0  0  0  0  0  0  0  0  0  0  0  0
   -4.9512   -0.4676   -1.3033 C   0  0  0  0  0  0  0  0  0  0  0  0
   -4.7469   -1.0949   -0.2539 O   0  0  0  0  0  0  0  0  0  0  0  0
   -3.6722   -3.0006   -3.4891 C   0  0  0  0  0  0  0  0  0  0  0  0
   -3.2168   -2.5026   -4.8019 C   0  0  0  0  0  0  0  0  0  0  0  0
   -1.8162   -2.2049   -5.0234 C   0  0  0  0  0  0  0  0  0  0  0  0
   -0.8478   -2.4188   -4.2557 O   0  0  0  0  0  0  0  0  0  0  0  0
   -1.4159   -1.5793   -6.2806 N   0  0  0  0  0  0  0  0  0  0  0  0
    1.2212   -3.2872   -1.5005 C   0  0  0  0  0  0  0  0  0  0  0  0
    0.9494   -4.6372   -2.0035 C   0  0  0  0  0  0  0  0  0  0  0  0
   -0.0423   -5.3605   -1.8132 O   0  0  0  0  0  0  0  0  0  0  0  0
    1.9890   -5.2137   -2.8435 N   0  0  0  0  0  0  0  0  0  0  0  0
    3.1730    0.2903    1.6974 C   0  0  0  0  0  0  0  0  0  0  0  0
    3.2357    1.5723    2.0825 O   0  0  0  0  0  0  0  0  0  0  0  0
    4.4270   -0.3308    1.7481 N   0  0  0  0  0  0  0  0  0  0  0  0
    4.7767   -1.6797    1.4083 C   0  0  0  0  0  0  0  0  0  0  0  0
    4.8920   -2.6054    2.5705 C   0  0  0  0  0  0  0  0  0  0  0  0
    3.8298   -3.3051    3.0986 C   0  0  0  0  0  0  0  0  0  0  0  0
    3.9787   -4.1688    4.1865 C   0  0  0  0  0  0  0  0  0  0  0  0
    5.1902   -4.3562    4.7784 C   0  0  0  0  0  0  0  0  0  0  0  0
    6.2900   -3.6558    4.2612 C   0  0  0  0  0  0  0  0  0  0  0  0
    6.1172   -2.8104    3.1861 C   0  0  0  0  0  0  0  0  0  0  0  0
    5.3566   -5.2244    5.8765 O   0  0  0  0  0  0  0  0  0  0  0  0
    4.2494   -5.9087    6.3682 C   0  0  0  0  0  0  0  0  0  0  0  0
    5.5161    0.4933    2.2731 C   0  0  0  0  0  0  0  0  0  0  0  0
    6.3102    1.2661    1.3614 C   0  0  0  0  0  0  0  0  0  0  0  0
    7.2123    2.0270    1.9069 O   0  0  0  0  0  0  0  0  0  0  0  0
    6.2793    1.3372   -0.0440 N   0  0  0  0  0  0  0  0  0  0  0  0
    7.2192    2.2474   -0.6869 C   0  0  2  0  0  0  0  0  0  0  0  0
    6.7227    2.8088   -1.9438 C   0  0  0  0  0  0  0  0  0  0  0  0
    7.3556    3.6762   -2.6398 O   0  0  0  0  0  0  0  0  0  0  0  0
    5.4536    2.4349   -2.5305 N   0  0  0  0  0  0  0  0  0  0  0  0
    5.1647    3.1099   -3.8022 C   0  0  0  0  0  0  0  0  0  0  0  0
    6.2001    2.7650   -4.8151 C   0  0  0  0  0  0  0  0  0  0  0  0
    7.1644    1.9769   -4.5723 O   0  0  0  0  0  0  0  0  0  0  0  0
    6.1470    3.3203   -6.1301 N   0  0  0  0  0  0  0  0  0  0  0  0
    8.5542    1.5638   -0.9256 C   0  0  0  0  0  0  0  0  0  0  0  0
    9.5965    2.4243   -1.5667 C   0  0  0  0  0  0  0  0  0  0  0  0
    9.9204    3.6494   -0.7786 C   0  0  0  0  0  0  0  0  0  0  0  0
   10.9200    1.6218   -1.6584 C   0  0  0  0  0  0  0  0  0  0  0  0
   -7.9229   -0.3005    3.2289 C   0  0  0  0  0  0  0  0  0  0  0  0
   -8.8708    0.7841    3.0181 C   0  0  0  0  0  0  0  0  0  0  0  0
   -8.8476    1.8455    3.9075 C   0  0  0  0  0  0  0  0  0  0  0  0
   -9.7214    2.9254    3.8021 C   0  0  0  0  0  0  0  0  0  0  0  0
  -10.6575    2.9508    2.7681 C   0  0  0  0  0  0  0  0  0  0  0  0
  -10.6972    1.8754    1.8475 C   0  0  0  0  0  0  0  0  0  0  0  0
   -9.8029    0.8370    2.0106 C   0  0  0  0  0  0  0  0  0  0  0  0
  -11.5603    3.9893    2.5961 O   0  0  0  0  0  0  0  0  0  0  0  0
   -5.4725    1.8758   -3.2593 C   0  0  0  0  0  0  0  0  0  0  0  0
   -7.7494    2.6341   -2.7519 H   0  0  0  0  0  0  0  0  0  0  0  0
   -8.2180    2.7251   -0.9636 H   0  0  0  0  0  0  0  0  0  0  0  0
   -7.9385    4.1847   -1.8998 H   0  0  0  0  0  0  0  0  0  0  0  0
   -5.7066    4.1199   -1.8504 H   0  0  0  0  0  0  0  0  0  0  0  0
   -6.0845    3.4369   -0.2806 H   0  0  0  0  0  0  0  0  0  0  0  0
   -4.2414    2.1455   -1.5848 H   0  0  0  0  0  0  0  0  0  0  0  0
   -6.8185    0.4459   -1.5365 H   0  0  0  0  0  0  0  0  0  0  0  0
   -5.3422    1.4619    0.8109 H   0  0  0  0  0  0  0  0  0  0  0  0
   -5.9661   -1.1614    2.8271 H   0  0  0  0  0  0  0  0  0  0  0  0
   -6.1267    1.6956    3.5073 H   0  0  0  0  0  0  0  0  0  0  0  0
   -2.8725    1.4893    4.4276 H   0  0  0  0  0  0  0  0  0  0  0  0
   -4.0718    2.7283    3.9771 H   0  0  0  0  0  0  0  0  0  0  0  0
   -1.5487    2.8321    3.0968 H   0  0  0  0  0  0  0  0  0  0  0  0
   -2.8195    3.2555    1.9624 H   0  0  0  0  0  0  0  0  0  0  0  0
    1.5042   -0.8801    3.2649 H   0  0  0  0  0  0  0  0  0  0  0  0
    1.2397    0.9414    3.1242 H   0  0  0  0  0  0  0  0  0  0  0  0
    1.3153    0.7747    0.8118 H   0  0  0  0  0  0  0  0  0  0  0  0
    1.8066   -2.2705    1.0203 H   0  0  0  0  0  0  0  0  0  0  0  0
   -0.0662   -3.3442    0.2073 H   0  0  0  0  0  0  0  0  0  0  0  0
   -1.5835   -3.8128   -1.5962 H   0  0  0  0  0  0  0  0  0  0  0  0
   -3.9729   -2.7646   -1.3963 H   0  0  0  0  0  0  0  0  0  0  0  0
   -4.4435   -0.4895   -3.3335 H   0  0  0  0  0  0  0  0  0  0  0  0
   -4.7532   -3.3980   -3.6052 H   0  0  0  0  0  0  0  0  0  0  0  0
   -3.1367   -4.0233   -3.3682 H   0  0  0  0  0  0  0  0  0  0  0  0
   -3.8912   -1.6693   -5.1943 H   0  0  0  0  0  0  0  0  0  0  0  0
   -3.4819   -3.3333   -5.5615 H   0  0  0  0  0  0  0  0  0  0  0  0
   -1.6761   -0.6084   -6.4985 H   0  0  0  0  0  0  0  0  0  0  0  0
   -0.8472   -2.2043   -6.9233 H   0  0  0  0  0  0  0  0  0  0  0  0
    1.5975   -2.6014   -2.3067 H   0  0  0  0  0  0  0  0  0  0  0  0
    2.0284   -3.3870   -0.7065 H   0  0  0  0  0  0  0  0  0  0  0  0
    2.5356   -4.6282   -3.5048 H   0  0  0  0  0  0  0  0  0  0  0  0
    2.1719   -6.2441   -2.7431 H   0  0  0  0  0  0  0  0  0  0  0  0
    5.7696   -1.7449    0.9019 H   0  0  0  0  0  0  0  0  0  0  0  0
    4.0597   -2.0553    0.6543 H   0  0  0  0  0  0  0  0  0  0  0  0
    2.8267   -3.2338    2.7209 H   0  0  0  0  0  0  0  0  0  0  0  0
    3.0788   -4.7032    4.5475 H   0  0  0  0  0  0  0  0  0  0  0  0
    7.2899   -3.7817    4.7203 H   0  0  0  0  0  0  0  0  0  0  0  0
    7.0381   -2.3169    2.8329 H   0  0  0  0  0  0  0  0  0  0  0  0
    4.6076   -6.6529    7.1227 H   0  0  0  0  0  0  0  0  0  0  0  0
    3.7965   -6.5334    5.5487 H   0  0  0  0  0  0  0  0  0  0  0  0
    3.4806   -5.2738    6.8120 H   0  0  0  0  0  0  0  0  0  0  0  0
    6.1938   -0.1623    2.8622 H   0  0  0  0  0  0  0  0  0  0  0  0
    5.1115    1.2045    3.0439 H   0  0  0  0  0  0  0  0  0  0  0  0
    5.5995    0.7389   -0.5378 H   0  0  0  0  0  0  0  0  0  0  0  0
    7.4017    3.0907    0.0483 H   0  0  0  0  0  0  0  0  0  0  0  0
    4.8264    1.7576   -2.0837 H   0  0  0  0  0  0  0  0  0  0  0  0
    5.1302    4.2165   -3.6410 H   0  0  0  0  0  0  0  0  0  0  0  0
    4.1601    2.7704   -4.1065 H   0  0  0  0  0  0  0  0  0  0  0  0
    6.8561    4.0609   -6.3331 H   0  0  0  0  0  0  0  0  0  0  0  0
    5.4354    2.9987   -6.8356 H   0  0  0  0  0  0  0  0  0  0  0  0
    8.3759    0.6946   -1.6154 H   0  0  0  0  0  0  0  0  0  0  0  0
    8.9711    1.1323   -0.0007 H   0  0  0  0  0  0  0  0  0  0  0  0
    9.3788    2.7013   -2.6094 H   0  0  0  0  0  0  0  0  0  0  0  0
   11.0111    3.8420   -0.8298 H   0  0  0  0  0  0  0  0  0  0  0  0
    9.4447    4.5803   -1.1629 H   0  0  0  0  0  0  0  0  0  0  0  0
    9.6996    3.5273    0.3198 H   0  0  0  0  0  0  0  0  0  0  0  0
   11.4271    1.7793   -0.6821 H   0  0  0  0  0  0  0  0  0  0  0  0
   10.7357    0.5623   -1.8887 H   0  0  0  0  0  0  0  0  0  0  0  0
   11.5110    2.1126   -2.4597 H   0  0  0  0  0  0  0  0  0  0  0  0
   -7.7571   -0.3902    4.3470 H   0  0  0  0  0  0  0  0  0  0  0  0
   -8.4366   -1.2691    2.9511 H   0  0  0  0  0  0  0  0  0  0  0  0
   -8.1489    1.9054    4.7426 H   0  0  0  0  0  0  0  0  0  0  0  0
   -9.6799    3.7479    4.5236 H   0  0  0  0  0  0  0  0  0  0  0  0
  -11.4325    1.9128    1.0561 H   0  0  0  0  0  0  0  0  0  0  0  0
   -9.8400    0.0345    1.3125 H   0  0  0  0  0  0  0  0  0  0  0  0
  -11.5196    4.5733    1.7870 H   0  0  0  0  0  0  0  0  0  0  0  0
   -6.2108    1.0983   -3.5424 H   0  0  0  0  0  0  0  0  0  0  0  0
   -4.5002    1.8012   -3.7887 H   0  0  0  0  0  0  0  0  0  0  0  0
   -5.9225    2.8272   -3.6782 H   0  0  0  0  0  0  0  0  0  0  0  0
  1  2  1  0
  2  3  1  0
  3  4  1  0
  4  5  1  0
  5  6  1  0
  6  7  2  0
  6  8  1  0
  8  9  1  0
  9 10  1  0
 10 11  2  0
 10 12  1  0
 12 13  1  0
 13 14  1  0
 14 15  1  0
 15 16  1  0
 16 17  1  0
 17 18  1  0
 18 19  1  0
 19 20  2  0
 19 21  1  0
 21 22  1  0
 22 23  1  0
 23 24  2  0
 23 25  1  0
 25 26  1  0
 26 27  1  0
 27 28  2  0
 25 29  1  0
 29 30  1  0
 30 31  1  0
 31 32  2  0
 31 33  1  0
 21 34  1  0
 34 35  1  0
 35 36  2  0
 35 37  1  0
 17 38  1  0
 38 39  2  0
 38 40  1  0
 40 41  1  0
 41 42  1  0
 42 43  2  0
 43 44  1  0
 44 45  2  0
 45 46  1  0
 46 47  2  0
 45 48  1  0
 48 49  1  0
 40 50  1  0
 50 51  1  0
 51 52  2  0
 51 53  1  0
 53 54  1  0
 54 55  1  0
 55 56  2  0
 55 57  1  0
 57 58  1  0
 58 59  1  0
 59 60  2  0
 59 61  1  0
 54 62  1  0
 62 63  1  0
 63 64  1  0
 63 65  1  0
  8 66  1  0
 66 67  1  0
 67 68  2  0
 68 69  1  0
 69 70  2  0
 70 71  1  0
 71 72  2  0
 70 73  1  0
  3 74  1  0
 27  4  1  0
 47 42  1  0
 72 67  1  0
  1 75  1  0
  1 76  1  0
  1 77  1  0
  2 78  1  0
  2 79  1  0
  3 80  1  6
  4 81  1  6
  5 82  1  0
  8 83  1  6
  9 84  1  0
 12 85  1  0
 12 86  1  0
 13 87  1  0
 13 88  1  0
 16 89  1  0
 16 90  1  0
 17 91  1  6
 18 92  1  0
 21 93  1  1
 22 94  1  0
 25 95  1  1
 26 96  1  0
 29 97  1  0
 29 98  1  0
 30 99  1  0
 30100  1  0
 33101  1  0
 33102  1  0
 34103  1  0
 34104  1  0
 37105  1  0
 37106  1  0
 41107  1  0
 41108  1  0
 43109  1  0
 44110  1  0
 46111  1  0
 47112  1  0
 49113  1  0
 49114  1  0
 49115  1  0
 50116  1  0
 50117  1  0
 53118  1  0
 54119  1  1
 57120  1  0
 58121  1  0
 58122  1  0
 61123  1  0
 61124  1  0
 62125  1  0
 62126  1  0
 63127  1  0
 64128  1  0
 64129  1  0
 64130  1  0
 65131  1  0
 65132  1  0
 65133  1  0
 66134  1  0
 66135  1  0
 68136  1  0
 69137  1  0
 71138  1  0
 72139  1  0
 73140  1  0
 74141  1  0
 74142  1  0
 74143  1  0
M  END
>  <Ligand ID>  (1) 
LIG0001633

>  <Ligand>  (1) 
CHEMBL3353949

>  <SMILES>  (1) 
CC[C@@H]([C@@H]1NC(=O)[C@@H](NC(=O)CCSSC[C@H](NC(=O)[C@@H](NC(=O)[C@@H](NC1=O)CCC(=O)N)CC(=O)N)C(=O)N(Cc1ccc(cc1)OC)CC(=O)N[C@H](C(=O)NCC(=O)N)CC(C)C)Cc1ccc(cc1)O)C

>  <CID>  (1) 
118719838.0

>  <ChEMBL ID>  (1) 
nan

>  <InChiKey>  (1) 
MHBREDPLUPHLHN-NIFJBHDKSA-N

>  <InChi>  (1) 
InChI=1S/C48H69N11O13S2/c1-6-27(4)42-47(70)55-32(15-16-37(49)61)44(67)56-35(21-38(50)62)45(68)57-36(25-74-73-18-17-40(64)53-34(46(69)58-42)20-28-7-11-30(60)12-8-28)48(71)59(23-29-9-13-31(72-5)14-10-29)24-41(65)54-33(19-26(2)3)43(66)52-22-39(51)63/h7-14,26-27,32-36,42,60H,6,15-25H2,1-5H3,(H2,49,61)(H2,50,62)(H2,51,63)(H,52,66)(H,53,64)(H,54,65)(H,55,70)(H,56,67)(H,57,68)(H,58,69)/t27-,32-,33-,34-,35-,36-,42-/m0/s1

>  <IUPAC Name>  (1) 
(4R,7S,10S,13S,16S)-7-(2-amino-2-oxoethyl)-N-[2-[[(2S)-1-[(2-amino-2-oxoethyl)amino]-4-methyl-1-oxopentan-2-yl]amino]-2-oxoethyl]-10-(3-amino-3-oxopropyl)-13-[(2S)-butan-2-yl]-16-[(4-hydroxyphenyl)methyl]-N-[(4-methoxyphenyl)methyl]-6,9,12,15,18-pentaoxo-1,2-dithia-5,8,11,14,17-pentazacycloicosane-4-carboxamide

$$$$
