
     RDKit          3D

 96 99  0  0  0  0  0  0  0  0999 V2000
   -0.5246    5.4030    5.7890 N   0  0  0  0  0  0  0  0  0  0  0  0
   -1.5974    4.5720    5.3751 C   0  0  0  0  0  0  0  0  0  0  0  0
   -1.5713    3.7965    4.3576 N   0  0  0  0  0  0  0  0  0  0  0  0
   -0.4178    3.6942    3.5127 C   0  0  0  0  0  0  0  0  0  0  0  0
   -0.8152    3.6704    2.0341 C   0  0  0  0  0  0  0  0  0  0  0  0
   -1.7105    2.5397    1.6790 C   0  0  0  0  0  0  0  0  0  0  0  0
   -0.9869    1.2025    1.8548 C   0  0  1  0  0  0  0  0  0  0  0  0
   -1.8986    0.0766    1.5796 C   0  0  0  0  0  0  0  0  0  0  0  0
   -2.6301   -0.3158    2.5256 O   0  0  0  0  0  0  0  0  0  0  0  0
   -1.9145   -0.4986    0.2901 N   0  0  0  0  0  0  0  0  0  0  0  0
   -2.7509   -1.6229   -0.0965 C   0  0  2  0  0  0  0  0  0  0  0  0
   -2.3883   -2.3076   -1.2980 C   0  0  0  0  0  0  0  0  0  0  0  0
   -1.4423   -1.9120   -2.0788 O   0  0  0  0  0  0  0  0  0  0  0  0
   -3.0365   -3.4978   -1.7443 N   0  0  0  0  0  0  0  0  0  0  0  0
   -4.2234   -1.2354    0.0687 C   0  0  0  0  0  0  0  0  0  0  0  0
   -5.1684   -2.2678   -0.3330 C   0  0  0  0  0  0  0  0  0  0  0  0
   -5.6645   -3.2962    0.4516 C   0  0  0  0  0  0  0  0  0  0  0  0
   -6.4624   -4.0963   -0.2958 N   0  0  0  0  0  0  0  0  0  0  0  0
   -6.5134   -3.6267   -1.5614 C   0  0  0  0  0  0  0  0  0  0  0  0
   -5.7190   -2.4953   -1.6029 C   0  0  0  0  0  0  0  0  0  0  0  0
   -5.6189   -1.8017   -2.7972 C   0  0  0  0  0  0  0  0  0  0  0  0
   -6.2506   -2.1478   -3.9586 C   0  0  0  0  0  0  0  0  0  0  0  0
   -7.0523   -3.3050   -3.8848 C   0  0  0  0  0  0  0  0  0  0  0  0
   -7.1635   -4.0119   -2.6960 C   0  0  0  0  0  0  0  0  0  0  0  0
    0.0907    1.1963    0.8676 N   0  0  0  0  0  0  0  0  0  0  0  0
    0.3141    1.9269   -0.2732 C   0  0  0  0  0  0  0  0  0  0  0  0
   -0.3753    2.8200   -0.8133 O   0  0  0  0  0  0  0  0  0  0  0  0
    1.6095    1.6270   -1.0307 C   0  0  1  0  0  0  0  0  0  0  0  0
    2.3464    0.5752   -0.3999 N   0  0  0  0  0  0  0  0  0  0  0  0
    3.5626    0.7504    0.3151 C   0  0  0  0  0  0  0  0  0  0  0  0
    4.0148    1.9102    0.3892 O   0  0  0  0  0  0  0  0  0  0  0  0
    4.2709   -0.4329    0.9575 C   0  0  2  0  0  0  0  0  0  0  0  0
    3.3843   -1.0096    1.9960 C   0  0  0  0  0  0  0  0  0  0  0  0
    3.9115   -2.1781    2.7135 C   0  0  0  0  0  0  0  0  0  0  0  0
    3.1888   -2.7885    3.7056 N   0  0  0  0  0  0  0  0  0  0  0  0
    3.9291   -3.8185    4.1437 C   0  0  0  0  0  0  0  0  0  0  0  0
    5.0915   -3.9045    3.4858 N   0  0  0  0  0  0  0  0  0  0  0  0
    5.0908   -2.8764    2.5824 C   0  0  0  0  0  0  0  0  0  0  0  0
    5.4344    0.1805    1.6233 N   0  0  0  0  0  0  0  0  0  0  0  0
    6.7553   -0.0641    1.1254 C   0  0  0  0  0  0  0  0  0  0  0  0
    6.9890   -0.7898    0.1312 O   0  0  0  0  0  0  0  0  0  0  0  0
    7.9291    0.5589    1.7950 C   0  0  0  0  0  0  0  0  0  0  0  0
    1.3016    1.2735   -2.4501 C   0  0  0  0  0  0  0  0  0  0  0  0
    2.5672    0.9630   -3.2590 C   0  0  0  0  0  0  0  0  0  0  0  0
    2.2611    0.6167   -4.6610 C   0  0  0  0  0  0  0  0  0  0  0  0
    2.2350    1.6476   -5.5794 C   0  0  0  0  0  0  0  0  0  0  0  0
    1.9511    1.3821   -6.8878 C   0  0  0  0  0  0  0  0  0  0  0  0
    1.6983    0.0846   -7.2506 C   0  0  0  0  0  0  0  0  0  0  0  0
    1.7193   -0.9680   -6.3417 C   0  0  0  0  0  0  0  0  0  0  0  0
    2.0057   -0.6843   -5.0347 C   0  0  0  0  0  0  0  0  0  0  0  0
   -2.8046    4.6481    6.1696 N   0  0  0  0  0  0  0  0  0  0  0  0
   -0.0939    5.3312    6.7553 H   0  0  0  0  0  0  0  0  0  0  0  0
   -0.0863    6.1369    5.1814 H   0  0  0  0  0  0  0  0  0  0  0  0
    0.1972    4.6216    3.6768 H   0  0  0  0  0  0  0  0  0  0  0  0
    0.1457    2.7926    3.7540 H   0  0  0  0  0  0  0  0  0  0  0  0
    0.1675    3.6829    1.4910 H   0  0  0  0  0  0  0  0  0  0  0  0
   -1.2888    4.6358    1.7977 H   0  0  0  0  0  0  0  0  0  0  0  0
   -2.0498    2.6298    0.6410 H   0  0  0  0  0  0  0  0  0  0  0  0
   -2.5851    2.5865    2.3790 H   0  0  0  0  0  0  0  0  0  0  0  0
   -0.6468    1.2146    2.8760 H   0  0  0  0  0  0  0  0  0  0  0  0
   -1.2635   -0.0537   -0.4251 H   0  0  0  0  0  0  0  0  0  0  0  0
   -2.6409   -2.3346    0.8129 H   0  0  0  0  0  0  0  0  0  0  0  0
   -3.3153   -3.5527   -2.7497 H   0  0  0  0  0  0  0  0  0  0  0  0
   -3.2287   -4.3129   -1.0885 H   0  0  0  0  0  0  0  0  0  0  0  0
   -4.3989   -0.3068   -0.5129 H   0  0  0  0  0  0  0  0  0  0  0  0
   -4.4434   -0.9781    1.1383 H   0  0  0  0  0  0  0  0  0  0  0  0
   -5.4493   -3.4481    1.5146 H   0  0  0  0  0  0  0  0  0  0  0  0
   -6.9574   -4.9633    0.0933 H   0  0  0  0  0  0  0  0  0  0  0  0
   -4.9900   -0.8992   -2.8463 H   0  0  0  0  0  0  0  0  0  0  0  0
   -6.1765   -1.6057   -4.8923 H   0  0  0  0  0  0  0  0  0  0  0  0
   -7.5746   -3.6167   -4.7876 H   0  0  0  0  0  0  0  0  0  0  0  0
   -7.7823   -4.9067   -2.6320 H   0  0  0  0  0  0  0  0  0  0  0  0
    0.8335    0.4533    1.1250 H   0  0  0  0  0  0  0  0  0  0  0  0
    2.2091    2.5759   -0.9841 H   0  0  0  0  0  0  0  0  0  0  0  0
    1.9816   -0.4056   -0.4534 H   0  0  0  0  0  0  0  0  0  0  0  0
    4.6113   -1.1150    0.1866 H   0  0  0  0  0  0  0  0  0  0  0  0
    3.1239   -0.2102    2.7461 H   0  0  0  0  0  0  0  0  0  0  0  0
    2.4088   -1.2840    1.5204 H   0  0  0  0  0  0  0  0  0  0  0  0
    2.2283   -2.4979    4.0544 H   0  0  0  0  0  0  0  0  0  0  0  0
    3.5609   -4.4685    4.9497 H   0  0  0  0  0  0  0  0  0  0  0  0
    5.8792   -2.6683    1.8956 H   0  0  0  0  0  0  0  0  0  0  0  0
    5.2802    0.7953    2.4678 H   0  0  0  0  0  0  0  0  0  0  0  0
    8.4857    1.1382    1.0358 H   0  0  0  0  0  0  0  0  0  0  0  0
    7.6264    1.2321    2.6185 H   0  0  0  0  0  0  0  0  0  0  0  0
    8.5388   -0.2731    2.2061 H   0  0  0  0  0  0  0  0  0  0  0  0
    0.7532    2.0856   -2.9715 H   0  0  0  0  0  0  0  0  0  0  0  0
    0.7249    0.3211   -2.4638 H   0  0  0  0  0  0  0  0  0  0  0  0
    3.1144    0.1097   -2.8118 H   0  0  0  0  0  0  0  0  0  0  0  0
    3.1885    1.8689   -3.2183 H   0  0  0  0  0  0  0  0  0  0  0  0
    2.4385    2.6743   -5.2908 H   0  0  0  0  0  0  0  0  0  0  0  0
    1.9276    2.1768   -7.6154 H   0  0  0  0  0  0  0  0  0  0  0  0
    1.4751   -0.1152   -8.2968 H   0  0  0  0  0  0  0  0  0  0  0  0
    1.5238   -1.9917   -6.6134 H   0  0  0  0  0  0  0  0  0  0  0  0
    2.0321   -1.4736   -4.3112 H   0  0  0  0  0  0  0  0  0  0  0  0
   -3.1315    5.5357    6.5783 H   0  0  0  0  0  0  0  0  0  0  0  0
   -3.3038    3.7203    6.2789 H   0  0  0  0  0  0  0  0  0  0  0  0
  1  2  1  0
  2  3  2  3
  3  4  1  0
  4  5  1  0
  5  6  1  0
  6  7  1  0
  7  8  1  0
  8  9  2  0
  8 10  1  0
 10 11  1  0
 11 12  1  0
 12 13  2  0
 12 14  1  0
 11 15  1  0
 15 16  1  0
 16 17  2  0
 17 18  1  0
 18 19  1  0
 19 20  2  0
 20 21  1  0
 21 22  2  0
 22 23  1  0
 23 24  2  0
  7 25  1  0
 25 26  1  0
 26 27  2  0
 26 28  1  0
 28 29  1  0
 29 30  1  0
 30 31  2  0
 30 32  1  0
 32 33  1  0
 33 34  1  0
 34 35  1  0
 35 36  1  0
 36 37  2  0
 37 38  1  0
 32 39  1  0
 39 40  1  0
 40 41  2  0
 40 42  1  0
 28 43  1  0
 43 44  1  0
 44 45  1  0
 45 46  2  0
 46 47  1  0
 47 48  2  0
 48 49  1  0
 49 50  2  0
  2 51  1  0
 20 16  1  0
 38 34  2  0
 50 45  1  0
 24 19  1  0
  1 52  1  0
  1 53  1  0
  4 54  1  0
  4 55  1  0
  5 56  1  0
  5 57  1  0
  6 58  1  0
  6 59  1  0
  7 60  1  1
 10 61  1  0
 11 62  1  1
 14 63  1  0
 14 64  1  0
 15 65  1  0
 15 66  1  0
 17 67  1  0
 18 68  1  0
 21 69  1  0
 22 70  1  0
 23 71  1  0
 24 72  1  0
 25 73  1  0
 28 74  1  6
 29 75  1  0
 32 76  1  6
 33 77  1  0
 33 78  1  0
 35 79  1  0
 36 80  1  0
 38 81  1  0
 39 82  1  0
 42 83  1  0
 42 84  1  0
 42 85  1  0
 43 86  1  0
 43 87  1  0
 44 88  1  0
 44 89  1  0
 46 90  1  0
 47 91  1  0
 48 92  1  0
 49 93  1  0
 50 94  1  0
 51 95  1  0
 51 96  1  0
M  END
>  <Ligand ID>  (1) 
LIG0001424

>  <Ligand>  (1) 
CHEMBL102391

>  <SMILES>  (1) 
NC(=NCCC[C@@H](C(=O)N[C@H](C(=O)N)Cc1c[nH]c2c1cccc2)NC(=O)[C@@H](NC(=O)[C@H](Cc1[nH]cnc1)NC(=O)C)CCc1ccccc1)N

>  <CID>  (1) 
10865389.0

>  <ChEMBL ID>  (1) 
nan

>  <InChiKey>  (1) 
KFJXIWLXGNVXSU-KRCBVYEFSA-N

>  <InChi>  (1) 
InChI=1S/C35H45N11O5/c1-21(47)43-30(17-24-19-39-20-42-24)34(51)45-28(14-13-22-8-3-2-4-9-22)33(50)44-27(12-7-15-40-35(37)38)32(49)46-29(31(36)48)16-23-18-41-26-11-6-5-10-25(23)26/h2-6,8-11,18-20,27-30,41H,7,12-17H2,1H3,(H2,36,48)(H,39,42)(H,43,47)(H,44,50)(H,45,51)(H,46,49)(H4,37,38,40)/t27-,28-,29-,30-/m0/s1

>  <IUPAC Name>  (1) 
(2S)-2-[[(2S)-2-[[(2S)-2-acetamido-3-(1H-imidazol-5-yl)propanoyl]amino]-4-phenylbutanoyl]amino]-N-[(2S)-1-amino-3-(1H-indol-3-yl)-1-oxopropan-2-yl]-5-(diaminomethylideneamino)pentanamide

$$$$
