
     RDKit          3D

 89 92  0  0  0  0  0  0  0  0999 V2000
   -9.9846    4.5916   -0.7893 F   0  0  0  0  0  0  0  0  0  0  0  0
  -10.3973    3.3122   -0.5518 C   0  0  0  0  0  0  0  0  0  0  0  0
  -11.5372    3.1570    0.2140 C   0  0  0  0  0  0  0  0  0  0  0  0
  -11.9472    1.8606    0.4466 C   0  0  0  0  0  0  0  0  0  0  0  0
  -11.2413    0.7921   -0.0677 C   0  0  0  0  0  0  0  0  0  0  0  0
  -10.1013    0.9161   -0.8314 C   0  0  0  0  0  0  0  0  0  0  0  0
   -9.6957    2.2406   -1.0613 C   0  0  0  0  0  0  0  0  0  0  0  0
   -9.2966   -0.1492   -1.3746 C   0  0  0  0  0  0  0  0  0  0  0  0
   -8.3033   -0.7940   -0.5366 N   0  0  0  0  0  0  0  0  0  0  0  0
   -6.9851   -0.1753   -0.6079 C   0  0  0  0  0  0  0  0  0  0  0  0
   -6.7762    0.7905   -1.3974 O   0  0  0  0  0  0  0  0  0  0  0  0
   -5.8964   -0.5983    0.1736 N   0  0  0  0  0  0  0  0  0  0  0  0
   -4.5850    0.0074    0.1035 C   0  0  0  0  0  0  0  0  0  0  0  0
   -4.2484    1.0949    0.8813 C   0  0  0  0  0  0  0  0  0  0  0  0
   -2.9484    1.5889    0.7845 C   0  0  0  0  0  0  0  0  0  0  0  0
   -2.0167    1.0199   -0.0575 C   0  0  0  0  0  0  0  0  0  0  0  0
   -2.3841   -0.0832   -0.8385 C   0  0  0  0  0  0  0  0  0  0  0  0
   -3.6663   -0.5700   -0.7424 C   0  0  0  0  0  0  0  0  0  0  0  0
   -0.3550    1.6242   -0.1540 S   0  0  0  0  0  0  0  0  0  0  0  0
    0.1629    1.2595   -1.5274 O   0  0  0  0  0  0  0  0  0  0  0  0
   -0.3092    3.1177    0.0555 O   0  0  0  0  0  0  0  0  0  0  0  0
    0.6233    0.8963    1.0350 N   0  0  0  0  0  0  0  0  0  0  0  0
    0.7528   -0.5230    0.9433 C   0  0  0  0  0  0  0  0  0  0  0  0
    2.1316   -0.9474    1.4022 C   0  0  0  0  0  0  0  0  0  0  0  0
    3.0717   -0.4328    0.2689 C   0  0  0  0  0  0  0  0  0  0  0  0
    3.0164    1.0463    0.3582 C   0  0  0  0  0  0  0  0  0  0  0  0
    1.8570    1.5561    1.1901 C   0  0  0  0  0  0  0  0  0  0  0  0
    4.3846   -1.0995    0.3710 C   0  0  0  0  0  0  0  0  0  0  0  0
    5.3861   -0.7982   -0.5861 N   0  0  0  0  0  0  0  0  0  0  0  0
    6.0015    0.4784   -0.5894 C   0  0  0  0  0  0  0  0  0  0  0  0
    7.2050    0.4811   -1.5650 C   0  0  1  0  0  0  0  0  0  0  0  0
    8.1806   -0.4972   -1.0085 C   0  0  0  0  0  0  0  0  0  0  0  0
    7.9897   -1.8686   -1.2058 C   0  0  0  0  0  0  0  0  0  0  0  0
    8.8575   -2.8099   -0.6989 C   0  0  0  0  0  0  0  0  0  0  0  0
    9.9339   -2.3653    0.0170 C   0  0  0  0  0  0  0  0  0  0  0  0
   10.1923   -1.0149    0.2552 C   0  0  0  0  0  0  0  0  0  0  0  0
    9.2873   -0.1306   -0.2784 C   0  0  0  0  0  0  0  0  0  0  0  0
   11.3259   -0.6675    1.0137 N   0  0  0  0  0  0  0  0  0  0  0  0
   12.1559    0.8212    0.9382 S   0  0  0  0  0  0  0  0  0  0  0  0
   13.3362    0.7742    1.8869 O   0  0  0  0  0  0  0  0  0  0  0  0
   12.7308    1.0369   -0.4508 O   0  0  0  0  0  0  0  0  0  0  0  0
   11.1269    2.1770    1.3953 C   0  0  0  0  0  0  0  0  0  0  0  0
   10.8248   -3.2987    0.5395 O   0  0  0  0  0  0  0  0  0  0  0  0
    6.8282    0.1951   -2.8546 O   0  0  0  0  0  0  0  0  0  0  0  0
   -8.5284   -1.9911    0.2232 C   0  0  0  0  0  0  0  0  0  0  0  0
   -9.1299   -3.1311   -0.5208 C   0  0  0  0  0  0  0  0  0  0  0  0
   -9.2776   -1.6871    1.5139 C   0  0  0  0  0  0  0  0  0  0  0  0
  -11.7466   -0.4363    0.1791 F   0  0  0  0  0  0  0  0  0  0  0  0
  -12.0488    4.0287    0.5894 H   0  0  0  0  0  0  0  0  0  0  0  0
  -12.8452    1.7308    1.0487 H   0  0  0  0  0  0  0  0  0  0  0  0
   -8.8270    2.4824   -1.6525 H   0  0  0  0  0  0  0  0  0  0  0  0
  -10.0125   -0.9788   -1.6776 H   0  0  0  0  0  0  0  0  0  0  0  0
   -8.8171    0.1161   -2.3638 H   0  0  0  0  0  0  0  0  0  0  0  0
   -5.9534   -1.3744    0.8680 H   0  0  0  0  0  0  0  0  0  0  0  0
   -4.9834    1.5557    1.5557 H   0  0  0  0  0  0  0  0  0  0  0  0
   -2.6303    2.4424    1.3734 H   0  0  0  0  0  0  0  0  0  0  0  0
   -1.6413   -0.5104   -1.4910 H   0  0  0  0  0  0  0  0  0  0  0  0
   -3.9531   -1.4216   -1.3479 H   0  0  0  0  0  0  0  0  0  0  0  0
   -0.0535   -1.0252    1.5230 H   0  0  0  0  0  0  0  0  0  0  0  0
    0.6794   -0.8065   -0.1362 H   0  0  0  0  0  0  0  0  0  0  0  0
    2.2309   -2.0355    1.4774 H   0  0  0  0  0  0  0  0  0  0  0  0
    2.4156   -0.5029    2.3673 H   0  0  0  0  0  0  0  0  0  0  0  0
    2.5574   -0.8205   -0.6539 H   0  0  0  0  0  0  0  0  0  0  0  0
    2.9605    1.4669   -0.6738 H   0  0  0  0  0  0  0  0  0  0  0  0
    3.9268    1.4740    0.8441 H   0  0  0  0  0  0  0  0  0  0  0  0
    2.2060    1.5116    2.2698 H   0  0  0  0  0  0  0  0  0  0  0  0
    1.7584    2.6533    1.0079 H   0  0  0  0  0  0  0  0  0  0  0  0
    4.7938   -0.9241    1.4216 H   0  0  0  0  0  0  0  0  0  0  0  0
    4.2077   -2.2276    0.2839 H   0  0  0  0  0  0  0  0  0  0  0  0
    5.1076   -1.0996   -1.5641 H   0  0  0  0  0  0  0  0  0  0  0  0
    5.2634    1.2229   -1.0123 H   0  0  0  0  0  0  0  0  0  0  0  0
    6.3874    0.7882    0.3956 H   0  0  0  0  0  0  0  0  0  0  0  0
    7.6446    1.4901   -1.4607 H   0  0  0  0  0  0  0  0  0  0  0  0
    7.1489   -2.2566   -1.7734 H   0  0  0  0  0  0  0  0  0  0  0  0
    8.7033   -3.8657   -0.8561 H   0  0  0  0  0  0  0  0  0  0  0  0
    9.4456    0.9226   -0.1222 H   0  0  0  0  0  0  0  0  0  0  0  0
   11.6833   -1.3926    1.6852 H   0  0  0  0  0  0  0  0  0  0  0  0
   11.6953    2.8685    2.0684 H   0  0  0  0  0  0  0  0  0  0  0  0
   10.2432    1.8244    1.9389 H   0  0  0  0  0  0  0  0  0  0  0  0
   10.8640    2.7546    0.4799 H   0  0  0  0  0  0  0  0  0  0  0  0
   10.4117   -4.1748    0.8707 H   0  0  0  0  0  0  0  0  0  0  0  0
    7.0406    0.9745   -3.4406 H   0  0  0  0  0  0  0  0  0  0  0  0
   -7.5157   -2.3457    0.5976 H   0  0  0  0  0  0  0  0  0  0  0  0
   -8.5880   -3.2962   -1.4750 H   0  0  0  0  0  0  0  0  0  0  0  0
   -8.8957   -4.0589    0.0743 H   0  0  0  0  0  0  0  0  0  0  0  0
  -10.2233   -3.1288   -0.6014 H   0  0  0  0  0  0  0  0  0  0  0  0
   -8.6733   -1.9949    2.4080 H   0  0  0  0  0  0  0  0  0  0  0  0
   -9.4733   -0.6159    1.6611 H   0  0  0  0  0  0  0  0  0  0  0  0
  -10.2455   -2.2169    1.5021 H   0  0  0  0  0  0  0  0  0  0  0  0
  1  2  1  0
  2  3  2  0
  3  4  1  0
  4  5  2  0
  5  6  1  0
  6  7  2  0
  6  8  1  0
  8  9  1  0
  9 10  1  0
 10 11  2  0
 10 12  1  0
 12 13  1  0
 13 14  2  0
 14 15  1  0
 15 16  2  0
 16 17  1  0
 17 18  2  0
 16 19  1  0
 19 20  2  0
 19 21  2  0
 19 22  1  0
 22 23  1  0
 23 24  1  0
 24 25  1  0
 25 26  1  0
 26 27  1  0
 25 28  1  0
 28 29  1  0
 29 30  1  0
 30 31  1  0
 31 32  1  0
 32 33  2  0
 33 34  1  0
 34 35  2  0
 35 36  1  0
 36 37  2  0
 36 38  1  0
 38 39  1  0
 39 40  2  0
 39 41  2  0
 39 42  1  0
 35 43  1  0
 31 44  1  0
  9 45  1  0
 45 46  1  0
 45 47  1  0
  5 48  1  0
  7  2  1  0
 18 13  1  0
 27 22  1  0
 37 32  1  0
  3 49  1  0
  4 50  1  0
  7 51  1  0
  8 52  1  0
  8 53  1  0
 12 54  1  0
 14 55  1  0
 15 56  1  0
 17 57  1  0
 18 58  1  0
 23 59  1  0
 23 60  1  0
 24 61  1  0
 24 62  1  0
 25 63  1  0
 26 64  1  0
 26 65  1  0
 27 66  1  0
 27 67  1  0
 28 68  1  0
 28 69  1  0
 29 70  1  0
 30 71  1  0
 30 72  1  0
 31 73  1  6
 33 74  1  0
 34 75  1  0
 37 76  1  0
 38 77  1  0
 42 78  1  0
 42 79  1  0
 42 80  1  0
 43 81  1  0
 44 82  1  0
 45 83  1  0
 46 84  1  0
 46 85  1  0
 46 86  1  0
 47 87  1  0
 47 88  1  0
 47 89  1  0
M  END
>  <Ligand ID>  (1) 
LIG0003472

>  <Ligand>  (1) 
CHEMBL100589

>  <SMILES>  (1) 
Fc1ccc(c(c1)CN(C(=O)Nc1ccc(cc1)S(=O)(=O)N1CCC(CC1)CNC[C@@H](c1ccc(c(c1)NS(=O)(=O)C)O)O)C(C)C)F

>  <CID>  (1) 
44331444.0

>  <ChEMBL ID>  (1) 
nan

>  <InChiKey>  (1) 
LSHLFPZRBGUDCA-HKBQPEDESA-N

>  <InChi>  (1) 
InChI=1S/C32H41F2N5O7S2/c1-21(2)39(20-24-16-25(33)5-10-28(24)34)32(42)36-26-6-8-27(9-7-26)48(45,46)38-14-12-22(13-15-38)18-35-19-31(41)23-4-11-30(40)29(17-23)37-47(3,43)44/h4-11,16-17,21-22,31,35,37,40-41H,12-15,18-20H2,1-3H3,(H,36,42)/t31-/m0/s1

>  <IUPAC Name>  (1) 
1-[(2,5-difluorophenyl)methyl]-3-[4-[4-[[[(2R)-2-hydroxy-2-[4-hydroxy-3-(methanesulfonamido)phenyl]ethyl]amino]methyl]piperidin-1-yl]sulfonylphenyl]-1-propan-2-ylurea

$$$$
