
     RDKit          3D

 50 53  0  0  0  0  0  0  0  0999 V2000
   -5.3898   -0.6082    0.0069 O   0  0  0  0  0  0  0  0  0  0  0  0
   -4.1072   -0.4161    0.4601 C   0  0  1  0  0  0  0  0  0  0  0  0
   -3.3853   -1.7287    0.3844 C   0  0  0  0  0  0  0  0  0  0  0  0
   -1.9227   -1.6441    0.7782 C   0  0  0  0  0  0  0  0  0  0  0  0
   -1.2250   -0.5534   -0.0076 C   0  0  1  0  0  0  0  0  0  0  0  0
   -1.9745    0.7156    0.3310 C   0  0  2  0  0  0  0  0  0  0  0  0
   -3.3906    0.7218   -0.2103 C   0  0  0  0  0  0  0  0  0  0  0  0
   -1.2183    1.9778    0.0606 C   0  0  0  0  0  0  0  0  0  0  0  0
    0.0306    1.8374   -0.7237 C   0  0  0  0  0  0  0  0  0  0  0  0
    0.8809    0.6607   -0.3866 C   0  0  2  0  0  0  0  0  0  0  0  0
    0.1554   -0.3684    0.4675 C   0  0  2  0  0  0  0  0  0  0  0  0
    0.9819   -1.6180    0.5651 C   0  0  0  0  0  0  0  0  0  0  0  0
    2.2986   -1.2927    1.2415 C   0  0  0  0  0  0  0  0  0  0  0  0
    3.0010   -0.2633    0.4079 C   0  0  1  0  0  0  0  0  0  0  0  0
    2.0877    0.9698    0.4035 C   0  0  1  0  0  0  0  0  0  0  0  0
    3.0503    1.9709   -0.1297 C   0  0  0  0  0  0  0  0  0  0  0  0
    4.2459    1.6690    0.7323 C   0  0  0  0  0  0  0  0  0  0  0  0
    4.1814    0.3553    1.0250 C   0  0  0  0  0  0  0  0  0  0  0  0
    3.3831   -0.7214   -0.9570 C   0  0  0  0  0  0  0  0  0  0  0  0
   -1.3308   -0.9518   -1.4504 C   0  0  0  0  0  0  0  0  0  0  0  0
   -5.6822    0.2527   -0.4226 H   0  0  0  0  0  0  0  0  0  0  0  0
   -4.1986   -0.1520    1.5461 H   0  0  0  0  0  0  0  0  0  0  0  0
   -3.8740   -2.3990    1.1360 H   0  0  0  0  0  0  0  0  0  0  0  0
   -3.5557   -2.1927   -0.5909 H   0  0  0  0  0  0  0  0  0  0  0  0
   -1.4796   -2.6190    0.4873 H   0  0  0  0  0  0  0  0  0  0  0  0
   -1.8515   -1.5122    1.8639 H   0  0  0  0  0  0  0  0  0  0  0  0
   -2.1228    0.6738    1.4440 H   0  0  0  0  0  0  0  0  0  0  0  0
   -3.4645    0.7364   -1.2964 H   0  0  0  0  0  0  0  0  0  0  0  0
   -3.8483    1.6615    0.1552 H   0  0  0  0  0  0  0  0  0  0  0  0
   -0.9780    2.5609    0.9841 H   0  0  0  0  0  0  0  0  0  0  0  0
   -1.9049    2.6449   -0.5254 H   0  0  0  0  0  0  0  0  0  0  0  0
   -0.2179    1.8976   -1.8230 H   0  0  0  0  0  0  0  0  0  0  0  0
    0.6573    2.7411   -0.5593 H   0  0  0  0  0  0  0  0  0  0  0  0
    1.1467    0.1130   -1.3354 H   0  0  0  0  0  0  0  0  0  0  0  0
    0.1116    0.0685    1.4976 H   0  0  0  0  0  0  0  0  0  0  0  0
    0.4521   -2.3029    1.2897 H   0  0  0  0  0  0  0  0  0  0  0  0
    1.1233   -2.1196   -0.3955 H   0  0  0  0  0  0  0  0  0  0  0  0
    2.9259   -2.1922    1.3722 H   0  0  0  0  0  0  0  0  0  0  0  0
    2.1112   -0.8592    2.2298 H   0  0  0  0  0  0  0  0  0  0  0  0
    1.8188    1.1907    1.4330 H   0  0  0  0  0  0  0  0  0  0  0  0
    3.2475    1.9014   -1.1965 H   0  0  0  0  0  0  0  0  0  0  0  0
    2.7104    2.9912    0.1984 H   0  0  0  0  0  0  0  0  0  0  0  0
    5.0015    2.3804    1.0468 H   0  0  0  0  0  0  0  0  0  0  0  0
    4.9405   -0.1126    1.6428 H   0  0  0  0  0  0  0  0  0  0  0  0
    3.0054   -1.7719   -1.1056 H   0  0  0  0  0  0  0  0  0  0  0  0
    3.1304   -0.0487   -1.7835 H   0  0  0  0  0  0  0  0  0  0  0  0
    4.5028   -0.8534   -1.0327 H   0  0  0  0  0  0  0  0  0  0  0  0
   -1.0676   -2.0418   -1.4842 H   0  0  0  0  0  0  0  0  0  0  0  0
   -2.3507   -0.8888   -1.8293 H   0  0  0  0  0  0  0  0  0  0  0  0
   -0.6413   -0.4603   -2.1334 H   0  0  0  0  0  0  0  0  0  0  0  0
  1  2  1  0
  2  3  1  0
  3  4  1  0
  4  5  1  0
  5  6  1  0
  6  7  1  0
  6  8  1  0
  8  9  1  0
  9 10  1  0
 10 11  1  0
 11 12  1  0
 12 13  1  0
 13 14  1  0
 14 15  1  0
 15 16  1  0
 16 17  1  0
 17 18  2  0
 14 19  1  6
  5 20  1  6
  7  2  1  0
 15 10  1  0
 11  5  1  0
 18 14  1  0
  1 21  1  0
  2 22  1  1
  3 23  1  0
  3 24  1  0
  4 25  1  0
  4 26  1  0
  6 27  1  1
  7 28  1  0
  7 29  1  0
  8 30  1  0
  8 31  1  0
  9 32  1  0
  9 33  1  0
 10 34  1  6
 11 35  1  1
 12 36  1  0
 12 37  1  0
 13 38  1  0
 13 39  1  0
 15 40  1  1
 16 41  1  0
 16 42  1  0
 17 43  1  0
 18 44  1  0
 19 45  1  0
 19 46  1  0
 19 47  1  0
 20 48  1  0
 20 49  1  0
 20 50  1  0
M  END
>  <Ligand ID>  (1) 
LIG0000478

>  <Ligand>  (1) 
Androst-16-en-3-ol

>  <SMILES>  (1) 
O[C@H]1CC[C@]2([C@H](C1)CC[C@@H]1[C@@H]2CC[C@]2([C@H]1CC=C2)C)C

>  <CID>  (1) 
151449.0

>  <ChEMBL ID>  (1) 
nan

>  <InChiKey>  (1) 
KRVXMNNRSSQZJP-LOVVWNRFSA-N

>  <InChi>  (1) 
InChI=1S/C19H30O/c1-18-9-3-4-16(18)15-6-5-13-12-14(20)7-11-19(13,2)17(15)8-10-18/h3,9,13-17,20H,4-8,10-12H2,1-2H3/t13-,14-,15-,16-,17-,18-,19-/m0/s1

>  <IUPAC Name>  (1) 
(3S,5S,8R,9S,10S,13R,14S)-10,13-dimethyl-2,3,4,5,6,7,8,9,11,12,14,15-dodecahydro-1H-cyclopenta[a]phenanthren-3-ol

$$$$
