
     RDKit          3D

 32 34  0  0  0  0  0  0  0  0999 V2000
   -2.8377    1.8442   -0.5718 C   0  0  0  0  0  0  0  0  0  0  0  0
   -2.5581    0.4091   -0.2837 C   0  0  0  0  0  0  0  0  0  0  0  0
   -3.5737   -0.5080   -0.1891 C   0  0  0  0  0  0  0  0  0  0  0  0
   -3.3607   -1.8452    0.0758 C   0  0  0  0  0  0  0  0  0  0  0  0
   -2.0548   -2.2897    0.2563 C   0  0  0  0  0  0  0  0  0  0  0  0
   -1.0497   -1.3598    0.1585 C   0  0  0  0  0  0  0  0  0  0  0  0
   -1.2595   -0.0239   -0.1059 C   0  0  0  0  0  0  0  0  0  0  0  0
   -0.1831    0.9755   -0.2114 C   0  0  0  0  0  0  0  0  0  0  0  0
    1.0703    0.5685    0.5436 C   0  0  2  0  0  0  0  0  0  0  0  0
    2.1221    1.5616    0.1967 C   0  0  0  0  0  0  0  0  0  0  0  0
    3.4166    0.9756   -0.0093 N   0  0  0  0  0  0  0  0  0  0  0  0
    3.3065   -0.1085   -0.9964 C   0  0  0  0  0  0  0  0  0  0  0  0
    2.6998   -1.2515   -0.1890 C   0  0  0  0  0  0  0  0  0  0  0  0
    1.3843   -0.7859    0.2341 N   0  0  0  0  0  0  0  0  0  0  0  0
    0.3584   -1.7641    0.3393 C   0  0  0  0  0  0  0  0  0  0  0  0
    0.6237   -2.9821    0.5859 O   0  0  0  0  0  0  0  0  0  0  0  0
   -3.9189    1.9592   -0.7496 H   0  0  0  0  0  0  0  0  0  0  0  0
   -2.5721    2.4879    0.2842 H   0  0  0  0  0  0  0  0  0  0  0  0
   -2.2644    2.0926   -1.5018 H   0  0  0  0  0  0  0  0  0  0  0  0
   -4.6131   -0.1925   -0.3256 H   0  0  0  0  0  0  0  0  0  0  0  0
   -4.1871   -2.5418    0.1436 H   0  0  0  0  0  0  0  0  0  0  0  0
   -1.8470   -3.3382    0.4671 H   0  0  0  0  0  0  0  0  0  0  0  0
    0.0999    1.0487   -1.2843 H   0  0  0  0  0  0  0  0  0  0  0  0
   -0.5318    1.9820    0.1076 H   0  0  0  0  0  0  0  0  0  0  0  0
    0.7727    0.6334    1.6307 H   0  0  0  0  0  0  0  0  0  0  0  0
    1.8288    2.2517   -0.6350 H   0  0  0  0  0  0  0  0  0  0  0  0
    2.2398    2.2533    1.0773 H   0  0  0  0  0  0  0  0  0  0  0  0
    4.1124    1.6739   -0.2707 H   0  0  0  0  0  0  0  0  0  0  0  0
    2.5219    0.1392   -1.7584 H   0  0  0  0  0  0  0  0  0  0  0  0
    4.2616   -0.3821   -1.4397 H   0  0  0  0  0  0  0  0  0  0  0  0
    2.6674   -2.1818   -0.7481 H   0  0  0  0  0  0  0  0  0  0  0  0
    3.3257   -1.3014    0.7488 H   0  0  0  0  0  0  0  0  0  0  0  0
  1  2  1  0
  2  3  2  0
  3  4  1  0
  4  5  2  0
  5  6  1  0
  6  7  2  0
  7  8  1  0
  8  9  1  0
  9 10  1  0
 10 11  1  0
 11 12  1  0
 12 13  1  0
 13 14  1  0
 14 15  1  0
 15 16  2  0
  7  2  1  0
 14  9  1  0
 15  6  1  0
  1 17  1  0
  1 18  1  0
  1 19  1  0
  3 20  1  0
  4 21  1  0
  5 22  1  0
  8 23  1  0
  8 24  1  0
  9 25  1  1
 10 26  1  0
 10 27  1  0
 11 28  1  0
 12 29  1  0
 12 30  1  0
 13 31  1  0
 13 32  1  0
M  END
>  <Ligand ID>  (1) 
LIG0003885

>  <Ligand>  (1) 
CHEMBL2397904

>  <SMILES>  (1) 
Cc1cccc2c1C[C@@H]1CNCCN1C2=O

>  <CID>  (1) 
58911534.0

>  <ChEMBL ID>  (1) 
nan

>  <InChiKey>  (1) 
PIDNBCLTDPVQNH-SNVBAGLBSA-N

>  <InChi>  (1) 
InChI=1S/C13H16N2O/c1-9-3-2-4-11-12(9)7-10-8-14-5-6-15(10)13(11)16/h2-4,10,14H,5-8H2,1H3/t10-/m1/s1

>  <IUPAC Name>  (1) 
(11aR)-10-methyl-1,2,3,4,11,11a-hexahydropyrazino[1,2-b]isoquinolin-6-one

$$$$
