
     RDKit          3D

 60 64  0  0  0  0  0  0  0  0999 V2000
    1.7776   -1.0653   -1.4571 O   0  0  0  0  0  0  0  0  0  0  0  0
    1.3115   -0.5242   -0.4495 C   0  0  0  0  0  0  0  0  0  0  0  0
   -0.1313   -0.1852   -0.3274 C   0  0  0  0  0  0  0  0  0  0  0  0
   -0.7175    0.7694   -1.1047 C   0  0  0  0  0  0  0  0  0  0  0  0
   -2.0550    1.0156   -0.9240 C   0  0  0  0  0  0  0  0  0  0  0  0
   -2.7902    0.3078    0.0276 C   0  0  0  0  0  0  0  0  0  0  0  0
   -2.1973   -0.6516    0.8061 N   0  0  0  0  0  0  0  0  0  0  0  0
   -0.8602   -0.9235    0.6534 C   0  0  0  0  0  0  0  0  0  0  0  0
   -0.2094   -1.7265    1.2863 N   0  0  0  0  0  0  0  0  0  0  0  0
   -3.0316   -1.3555    1.7583 C   0  0  0  0  0  0  0  0  0  0  0  0
   -2.5766   -2.7165    2.1442 C   0  0  0  0  0  0  0  0  0  0  0  0
   -3.8237   -3.4919    2.5396 C   0  0  0  0  0  0  0  0  0  0  0  0
   -4.8876   -2.9479    1.6619 C   0  0  0  0  0  0  0  0  0  0  0  0
   -4.4388   -1.5808    1.2157 C   0  0  0  0  0  0  0  0  0  0  0  0
   -4.0741    0.6354    0.1233 N   0  0  0  0  0  0  0  0  0  0  0  0
   -4.6378    1.5784   -0.6378 C   0  0  0  0  0  0  0  0  0  0  0  0
   -3.9420    2.2665   -1.5598 N   0  0  0  0  0  0  0  0  0  0  0  0
   -2.6246    1.9935   -1.7190 C   0  0  0  0  0  0  0  0  0  0  0  0
   -1.9172    2.6011   -2.5632 O   0  0  0  0  0  0  0  0  0  0  0  0
   -4.4996    3.2225   -2.3399 C   0  0  0  0  0  0  0  0  0  0  0  0
   -5.8543    3.4681   -2.1432 C   0  0  0  0  0  0  0  0  0  0  0  0
   -6.6054    2.7891   -1.2122 C   0  0  0  0  0  0  0  0  0  0  0  0
   -5.9991    1.8090   -0.4233 C   0  0  0  0  0  0  0  0  0  0  0  0
    2.1802   -0.2119    0.6412 N   0  0  0  0  0  0  0  0  0  0  0  0
    3.5695   -0.5017    0.6465 C   0  0  0  0  0  0  0  0  0  0  0  0
    4.4072    0.0935   -0.4068 C   0  0  0  0  0  0  0  0  0  0  0  0
    5.7764   -0.2339   -0.3607 N   0  0  0  0  0  0  0  0  0  0  0  0
    6.5837    0.3087   -1.4290 C   0  0  0  0  0  0  0  0  0  0  0  0
    6.9437    1.7216   -1.1141 C   0  0  0  0  0  0  0  0  0  0  0  0
    7.2877    1.8721    0.2138 O   0  0  0  0  0  0  0  0  0  0  0  0
    7.5993    0.6942    0.8500 C   0  0  0  0  0  0  0  0  0  0  0  0
    6.4553   -0.3085    0.8598 C   0  0  0  0  0  0  0  0  0  0  0  0
   -0.1496    1.3124   -1.8377 H   0  0  0  0  0  0  0  0  0  0  0  0
   -0.0859   -2.3950    1.9393 H   0  0  0  0  0  0  0  0  0  0  0  0
   -3.1266   -0.7591    2.7094 H   0  0  0  0  0  0  0  0  0  0  0  0
   -1.9649   -2.7197    3.1016 H   0  0  0  0  0  0  0  0  0  0  0  0
   -2.1164   -3.2792    1.3316 H   0  0  0  0  0  0  0  0  0  0  0  0
   -4.0695   -3.2803    3.5831 H   0  0  0  0  0  0  0  0  0  0  0  0
   -3.7016   -4.5698    2.2889 H   0  0  0  0  0  0  0  0  0  0  0  0
   -5.1625   -3.6194    0.8130 H   0  0  0  0  0  0  0  0  0  0  0  0
   -5.8616   -2.7953    2.2009 H   0  0  0  0  0  0  0  0  0  0  0  0
   -5.1229   -0.7899    1.5392 H   0  0  0  0  0  0  0  0  0  0  0  0
   -4.3757   -1.6339    0.1146 H   0  0  0  0  0  0  0  0  0  0  0  0
   -3.9305    3.7709   -3.0825 H   0  0  0  0  0  0  0  0  0  0  0  0
   -6.3574    4.2287   -2.7432 H   0  0  0  0  0  0  0  0  0  0  0  0
   -7.6677    2.9977   -1.0763 H   0  0  0  0  0  0  0  0  0  0  0  0
   -6.5625    1.2482    0.3265 H   0  0  0  0  0  0  0  0  0  0  0  0
    1.6979    0.2697    1.4626 H   0  0  0  0  0  0  0  0  0  0  0  0
    3.9466   -0.1660    1.6585 H   0  0  0  0  0  0  0  0  0  0  0  0
    3.6439   -1.6278    0.5440 H   0  0  0  0  0  0  0  0  0  0  0  0
    4.3452    1.2145   -0.2833 H   0  0  0  0  0  0  0  0  0  0  0  0
    4.0316   -0.2068   -1.4121 H   0  0  0  0  0  0  0  0  0  0  0  0
    6.0611    0.2611   -2.3926 H   0  0  0  0  0  0  0  0  0  0  0  0
    7.5106   -0.3302   -1.4638 H   0  0  0  0  0  0  0  0  0  0  0  0
    6.0217    2.3362   -1.2867 H   0  0  0  0  0  0  0  0  0  0  0  0
    7.7147    2.0929   -1.8219 H   0  0  0  0  0  0  0  0  0  0  0  0
    7.8524    0.9574    1.9084 H   0  0  0  0  0  0  0  0  0  0  0  0
    8.5194    0.2771    0.4222 H   0  0  0  0  0  0  0  0  0  0  0  0
    6.9667   -1.3157    0.9249 H   0  0  0  0  0  0  0  0  0  0  0  0
    5.9248   -0.2001    1.7945 H   0  0  0  0  0  0  0  0  0  0  0  0
  1  2  2  0
  2  3  1  0
  3  4  2  0
  4  5  1  0
  5  6  2  0
  6  7  1  0
  7  8  1  0
  8  9  2  3
  7 10  1  0
 10 11  1  0
 11 12  1  0
 12 13  1  0
 13 14  1  0
  6 15  1  0
 15 16  2  0
 16 17  1  0
 17 18  1  0
 18 19  2  0
 17 20  1  0
 20 21  2  0
 21 22  1  0
 22 23  2  0
  2 24  1  0
 24 25  1  0
 25 26  1  0
 26 27  1  0
 27 28  1  0
 28 29  1  0
 29 30  1  0
 30 31  1  0
 31 32  1  0
  8  3  1  0
 14 10  1  0
 23 16  1  0
 32 27  1  0
 18  5  1  0
  4 33  1  0
  9 34  1  0
 10 35  1  0
 11 36  1  0
 11 37  1  0
 12 38  1  0
 12 39  1  0
 13 40  1  0
 13 41  1  0
 14 42  1  0
 14 43  1  0
 20 44  1  0
 21 45  1  0
 22 46  1  0
 23 47  1  0
 24 48  1  0
 25 49  1  0
 25 50  1  0
 26 51  1  0
 26 52  1  0
 28 53  1  0
 28 54  1  0
 29 55  1  0
 29 56  1  0
 31 57  1  0
 31 58  1  0
 32 59  1  0
 32 60  1  0
M  END
>  <Ligand ID>  (1) 
LIG0003033

>  <Ligand>  (1) 
MLS-0437145.0001

>  <SMILES>  (1) 
O=C(c1cc2c(n(c1=N)C1CCCC1)nc1n(c2=O)cccc1)NCCN1CCOCC1

>  <CID>  (1) 
1050206.0

>  <ChEMBL ID>  (1) 
nan

>  <InChiKey>  (1) 
YPWCXXFHARYVQC-UHFFFAOYSA-N

>  <InChi>  (1) 
InChI=1S/C23H28N6O3/c24-20-17(22(30)25-8-10-27-11-13-32-14-12-27)15-18-21(29(20)16-5-1-2-6-16)26-19-7-3-4-9-28(19)23(18)31/h3-4,7,9,15-16,24H,1-2,5-6,8,10-14H2,(H,25,30)

>  <IUPAC Name>  (1) 
7-cyclopentyl-6-imino-N-(2-morpholin-4-ylethyl)-2-oxo-1,7,9-triazatricyclo[8.4.0.03,8]tetradeca-3(8),4,9,11,13-pentaene-5-carboxamide

$$$$
