
     RDKit          3D

 50 51  0  0  0  0  0  0  0  0999 V2000
    0.5996   -0.7942    0.3064 O   0  0  0  0  0  0  0  0  0  0  0  0
    0.3731    0.1313   -0.5142 C   0  0  0  0  0  0  0  0  0  0  0  0
   -1.0023    0.3545   -0.8628 N   0  0  0  0  0  0  0  0  0  0  0  0
   -1.9720   -0.5095   -0.2314 C   0  0  0  0  0  0  0  0  0  0  0  0
   -3.3411   -0.1467   -0.6993 C   0  0  0  0  0  0  0  0  0  0  0  0
   -4.4023   -0.9889   -0.0971 C   0  0  0  0  0  0  0  0  0  0  0  0
   -4.9415   -0.6308    1.1330 C   0  0  0  0  0  0  0  0  0  0  0  0
   -5.9421   -1.4220    1.7043 C   0  0  0  0  0  0  0  0  0  0  0  0
   -6.4006   -2.5527    1.0630 C   0  0  0  0  0  0  0  0  0  0  0  0
   -5.8693   -2.9166   -0.1623 C   0  0  0  0  0  0  0  0  0  0  0  0
   -4.8869   -2.1346   -0.7170 C   0  0  0  0  0  0  0  0  0  0  0  0
   -3.5729    1.2516   -0.6557 N   0  0  0  0  0  0  0  0  0  0  0  0
   -4.8769    1.6599   -1.0958 C   0  0  0  0  0  0  0  0  0  0  0  0
   -3.0538    1.9815    0.4420 C   0  0  0  0  0  0  0  0  0  0  0  0
    1.4397    0.9727   -1.1152 C   0  0  0  0  0  0  0  0  0  0  0  0
    2.7618    0.4919   -0.5516 C   0  0  0  0  0  0  0  0  0  0  0  0
    3.8385    1.2375   -1.0691 O   0  0  0  0  0  0  0  0  0  0  0  0
    5.1310    0.9339   -0.6611 C   0  0  0  0  0  0  0  0  0  0  0  0
    6.1839    1.6682   -1.1717 C   0  0  0  0  0  0  0  0  0  0  0  0
    7.4805    1.3762   -0.7732 C   0  0  0  0  0  0  0  0  0  0  0  0
    7.7401    0.3585    0.1304 C   0  0  0  0  0  0  0  0  0  0  0  0
    6.6828   -0.3706    0.6359 C   0  0  0  0  0  0  0  0  0  0  0  0
    5.3992   -0.0813    0.2412 C   0  0  0  0  0  0  0  0  0  0  0  0
    6.9304   -1.4765    1.6138 C   0  0  0  0  0  0  0  0  0  0  0  0
   -1.2714    1.1144   -1.5462 H   0  0  0  0  0  0  0  0  0  0  0  0
   -1.7550   -1.5478   -0.5972 H   0  0  0  0  0  0  0  0  0  0  0  0
   -1.8673   -0.5799    0.8684 H   0  0  0  0  0  0  0  0  0  0  0  0
   -3.3473   -0.4119   -1.7995 H   0  0  0  0  0  0  0  0  0  0  0  0
   -4.6202    0.2408    1.6757 H   0  0  0  0  0  0  0  0  0  0  0  0
   -6.3765   -1.1746    2.6470 H   0  0  0  0  0  0  0  0  0  0  0  0
   -7.1821   -3.1948    1.4808 H   0  0  0  0  0  0  0  0  0  0  0  0
   -6.1877   -3.7878   -0.7089 H   0  0  0  0  0  0  0  0  0  0  0  0
   -4.4691   -2.4261   -1.6869 H   0  0  0  0  0  0  0  0  0  0  0  0
   -5.3772    0.7959   -1.5367 H   0  0  0  0  0  0  0  0  0  0  0  0
   -4.7450    2.4229   -1.8919 H   0  0  0  0  0  0  0  0  0  0  0  0
   -5.5101    2.0787   -0.2969 H   0  0  0  0  0  0  0  0  0  0  0  0
   -2.2787    1.4159    0.9633 H   0  0  0  0  0  0  0  0  0  0  0  0
   -2.5122    2.8733    0.0068 H   0  0  0  0  0  0  0  0  0  0  0  0
   -3.8210    2.4305    1.1043 H   0  0  0  0  0  0  0  0  0  0  0  0
    1.3031    2.0518   -0.9109 H   0  0  0  0  0  0  0  0  0  0  0  0
    1.4287    0.7756   -2.2028 H   0  0  0  0  0  0  0  0  0  0  0  0
    2.6847    0.5267    0.5600 H   0  0  0  0  0  0  0  0  0  0  0  0
    2.8678   -0.5920   -0.8136 H   0  0  0  0  0  0  0  0  0  0  0  0
    6.0507    2.4739   -1.8788 H   0  0  0  0  0  0  0  0  0  0  0  0
    8.2918    1.9622   -1.1838 H   0  0  0  0  0  0  0  0  0  0  0  0
    8.7437    0.1498    0.4240 H   0  0  0  0  0  0  0  0  0  0  0  0
    4.6024   -0.6736    0.6590 H   0  0  0  0  0  0  0  0  0  0  0  0
    6.2254   -1.4576    2.4461 H   0  0  0  0  0  0  0  0  0  0  0  0
    6.8626   -2.4686    1.1142 H   0  0  0  0  0  0  0  0  0  0  0  0
    7.9613   -1.3910    1.9939 H   0  0  0  0  0  0  0  0  0  0  0  0
  1  2  2  0
  2  3  1  0
  3  4  1  0
  4  5  1  0
  5  6  1  0
  6  7  2  0
  7  8  1  0
  8  9  2  0
  9 10  1  0
 10 11  2  0
  5 12  1  0
 12 13  1  0
 12 14  1  0
  2 15  1  0
 15 16  1  0
 16 17  1  0
 17 18  1  0
 18 19  2  0
 19 20  1  0
 20 21  2  0
 21 22  1  0
 22 23  2  0
 22 24  1  0
 11  6  1  0
 23 18  1  0
  3 25  1  0
  4 26  1  0
  4 27  1  0
  5 28  1  0
  7 29  1  0
  8 30  1  0
  9 31  1  0
 10 32  1  0
 11 33  1  0
 13 34  1  0
 13 35  1  0
 13 36  1  0
 14 37  1  0
 14 38  1  0
 14 39  1  0
 15 40  1  0
 15 41  1  0
 16 42  1  0
 16 43  1  0
 19 44  1  0
 20 45  1  0
 21 46  1  0
 23 47  1  0
 24 48  1  0
 24 49  1  0
 24 50  1  0
M  END
>  <Ligand ID>  (1) 
LIG0003778

>  <Ligand>  (1) 
SMR000064448

>  <SMILES>  (1) 
O=C(NCC(c1ccccc1)N(C)C)CCOc1cccc(c1)C

>  <CID>  (1) 
3000200.0

>  <ChEMBL ID>  (1) 
nan

>  <InChiKey>  (1) 
OGACXSNUUYOYPR-UHFFFAOYSA-N

>  <InChi>  (1) 
InChI=1S/C20H26N2O2/c1-16-8-7-11-18(14-16)24-13-12-20(23)21-15-19(22(2)3)17-9-5-4-6-10-17/h4-11,14,19H,12-13,15H2,1-3H3,(H,21,23)

>  <IUPAC Name>  (1) 
N-[2-(dimethylamino)-2-phenylethyl]-3-(3-methylphenoxy)propanamide

$$$$
