
     RDKit          3D

 27 28  0  0  0  0  0  0  0  0999 V2000
   -0.4067   -2.0568   -1.0476 O   0  0  0  0  0  0  0  0  0  0  0  0
   -0.1664   -1.0287   -0.4552 C   0  0  0  0  0  0  0  0  0  0  0  0
    1.1675   -0.5564    0.0331 C   0  0  1  0  0  0  0  0  0  0  0  0
    2.1162   -1.6435    0.3545 C   0  0  0  0  0  0  0  0  0  0  0  0
    1.6837    0.5458   -0.8297 C   0  0  0  0  0  0  0  0  0  0  0  0
    0.6291    1.6274   -0.6239 C   0  0  0  0  0  0  0  0  0  0  0  0
   -0.2963    1.1041    0.4596 C   0  0  1  0  0  0  0  0  0  0  0  0
   -1.1707    0.0203   -0.0714 C   0  0  0  0  0  0  0  0  0  0  0  0
   -1.9793    0.4003   -1.2698 C   0  0  0  0  0  0  0  0  0  0  0  0
   -2.0807   -0.4491    1.0371 C   0  0  0  0  0  0  0  0  0  0  0  0
    0.6978    0.2446    1.2577 C   0  0  0  0  0  0  0  0  0  0  0  0
    3.1402   -1.2076    0.3722 H   0  0  0  0  0  0  0  0  0  0  0  0
    2.0381   -2.4577   -0.3936 H   0  0  0  0  0  0  0  0  0  0  0  0
    1.8855   -2.0539    1.3531 H   0  0  0  0  0  0  0  0  0  0  0  0
    2.6304    0.9193   -0.3927 H   0  0  0  0  0  0  0  0  0  0  0  0
    1.7651    0.2478   -1.8845 H   0  0  0  0  0  0  0  0  0  0  0  0
    1.0699    2.5927   -0.2880 H   0  0  0  0  0  0  0  0  0  0  0  0
    0.1123    1.8294   -1.5614 H   0  0  0  0  0  0  0  0  0  0  0  0
   -0.7860    1.8653    1.0539 H   0  0  0  0  0  0  0  0  0  0  0  0
   -1.3933    0.5550   -2.1791 H   0  0  0  0  0  0  0  0  0  0  0  0
   -2.6497   -0.4677   -1.4937 H   0  0  0  0  0  0  0  0  0  0  0  0
   -2.6568    1.2368   -1.0326 H   0  0  0  0  0  0  0  0  0  0  0  0
   -3.1411   -0.2208    0.7603 H   0  0  0  0  0  0  0  0  0  0  0  0
   -1.9734   -1.5302    1.2202 H   0  0  0  0  0  0  0  0  0  0  0  0
   -1.8984    0.1214    1.9842 H   0  0  0  0  0  0  0  0  0  0  0  0
    1.4881    0.8251    1.7258 H   0  0  0  0  0  0  0  0  0  0  0  0
    0.1749   -0.4630    1.9117 H   0  0  0  0  0  0  0  0  0  0  0  0
  1  2  2  0
  2  3  1  0
  3  4  1  1
  3  5  1  0
  5  6  1  0
  6  7  1  0
  7  8  1  0
  8  9  1  0
  8 10  1  0
  7 11  1  0
  8  2  1  0
 11  3  1  0
  4 12  1  0
  4 13  1  0
  4 14  1  0
  5 15  1  0
  5 16  1  0
  6 17  1  0
  6 18  1  0
  7 19  1  1
  9 20  1  0
  9 21  1  0
  9 22  1  0
 10 23  1  0
 10 24  1  0
 10 25  1  0
 11 26  1  0
 11 27  1  0
M  END
>  <Ligand ID>  (1) 
LIG0000135

>  <Ligand>  (1) 
(+)-Fenchone

>  <SMILES>  (1) 
O=C1[C@@]2(C)CC[C@@H](C1(C)C)C2

>  <CID>  (1) 
1201521.0

>  <ChEMBL ID>  (1) 
nan

>  <InChiKey>  (1) 
LHXDLQBQYFFVNW-XCBNKYQSSA-N

>  <InChi>  (1) 
InChI=1S/C10H16O/c1-9(2)7-4-5-10(3,6-7)8(9)11/h7H,4-6H2,1-3H3/t7-,10+/m1/s1

>  <IUPAC Name>  (1) 
(1S,4R)-1,3,3-trimethylbicyclo[2.2.1]heptan-2-one

$$$$
