
     RDKit          3D

143148  0  0  0  0  0  0  0  0999 V2000
    9.8869   -4.1376    1.7801 C   0  0  0  0  0  0  0  0  0  0  0  0
    9.4108   -3.1635    0.6901 C   0  0  0  0  0  0  0  0  0  0  0  0
    9.6180   -1.7607    1.1402 C   0  0  0  0  0  0  0  0  0  0  0  0
    9.2635   -0.6620    0.2256 C   0  0  0  0  0  0  0  0  0  0  0  0
    7.8696   -0.5200   -0.2512 C   0  0  2  0  0  0  0  0  0  0  0  0
    6.8384   -0.3757    0.7662 C   0  0  0  0  0  0  0  0  0  0  0  0
    7.1497    0.1612    1.8857 O   0  0  0  0  0  0  0  0  0  0  0  0
    5.4734   -0.7844    0.6335 N   0  0  0  0  0  0  0  0  0  0  0  0
    4.6434   -0.5495    1.7992 C   0  0  2  0  0  0  0  0  0  0  0  0
    3.4134   -1.3472    1.8102 C   0  0  0  0  0  0  0  0  0  0  0  0
    3.4833   -2.8041    1.5739 C   0  0  0  0  0  0  0  0  0  0  0  0
    4.4820   -3.4679    1.3021 O   0  0  0  0  0  0  0  0  0  0  0  0
    2.2561   -3.5009    1.6656 N   0  0  0  0  0  0  0  0  0  0  0  0
    1.9871   -4.8960    1.4497 C   0  0  0  0  0  0  0  0  0  0  0  0
    2.3557   -5.1677    0.0074 C   0  0  0  0  0  0  0  0  0  0  0  0
    1.7382   -6.4287   -0.5558 C   0  0  0  0  0  0  0  0  0  0  0  0
    0.2219   -6.1769   -0.5090 C   0  0  0  0  0  0  0  0  0  0  0  0
   -0.1977   -5.0129   -1.3700 C   0  0  2  0  0  0  0  0  0  0  0  0
   -1.5159   -4.5558   -0.8926 N   0  0  0  0  0  0  0  0  0  0  0  0
   -1.6856   -3.1576   -0.7457 C   0  0  0  0  0  0  0  0  0  0  0  0
   -0.7484   -2.4401   -1.1369 O   0  0  0  0  0  0  0  0  0  0  0  0
   -2.8709   -2.4868   -0.1746 C   0  0  1  0  0  0  0  0  0  0  0  0
   -2.7553   -1.0428   -0.2890 N   0  0  0  0  0  0  0  0  0  0  0  0
   -3.2832   -0.2378   -1.3100 C   0  0  0  0  0  0  0  0  0  0  0  0
   -3.8435   -0.8101   -2.2529 O   0  0  0  0  0  0  0  0  0  0  0  0
   -3.2349    1.2593   -1.3701 C   0  0  2  0  0  0  0  0  0  0  0  0
   -2.3664    1.9019   -0.4264 N   0  0  0  0  0  0  0  0  0  0  0  0
   -1.0631    2.3874   -0.8671 C   0  0  0  0  0  0  0  0  0  0  0  0
   -0.8202    2.1148   -2.0540 O   0  0  0  0  0  0  0  0  0  0  0  0
   -0.1033    3.0983   -0.0609 C   0  0  1  0  0  0  0  0  0  0  0  0
    1.2876    2.8959   -0.5888 N   0  0  0  0  0  0  0  0  0  0  0  0
    2.4025    3.0458    0.3217 C   0  0  0  0  0  0  0  0  0  0  0  0
    2.0467    3.3728    1.4723 O   0  0  0  0  0  0  0  0  0  0  0  0
    3.8059    2.8306   -0.0986 C   0  0  0  0  0  0  0  0  0  0  0  0
    4.3215    1.5108    0.2613 N   0  0  0  0  0  0  0  0  0  0  0  0
    4.0850    0.8739    1.4940 C   0  0  0  0  0  0  0  0  0  0  0  0
    3.4206    1.4473    2.3410 O   0  0  0  0  0  0  0  0  0  0  0  0
    4.1163    3.1848   -1.5611 C   0  0  0  0  0  0  0  0  0  0  0  0
    4.7228    3.9366   -0.4036 C   0  0  0  0  0  0  0  0  0  0  0  0
   -0.2146    4.6183   -0.2774 C   0  0  0  0  0  0  0  0  0  0  0  0
   -1.4579    5.2832    0.0226 C   0  0  0  0  0  0  0  0  0  0  0  0
   -2.3691    5.6749   -0.9710 C   0  0  0  0  0  0  0  0  0  0  0  0
   -3.5400    6.3365   -0.5846 C   0  0  0  0  0  0  0  0  0  0  0  0
   -3.8018    6.6024    0.7648 C   0  0  0  0  0  0  0  0  0  0  0  0
   -2.9025    6.2141    1.7431 C   0  0  0  0  0  0  0  0  0  0  0  0
   -1.7595    5.5680    1.3434 C   0  0  0  0  0  0  0  0  0  0  0  0
   -3.1850    6.4763    3.0675 C   0  0  0  0  0  0  0  0  0  0  0  0
   -4.3483    7.1187    3.4296 C   0  0  0  0  0  0  0  0  0  0  0  0
   -5.2581    7.5155    2.4760 C   0  0  0  0  0  0  0  0  0  0  0  0
   -4.9729    7.2528    1.1562 C   0  0  0  0  0  0  0  0  0  0  0  0
   -4.6645    1.7340   -1.0361 C   0  0  0  0  0  0  0  0  0  0  0  0
   -4.7390    3.2190   -1.0199 C   0  0  0  0  0  0  0  0  0  0  0  0
   -6.1124    3.7683   -0.6914 C   0  0  0  0  0  0  0  0  0  0  0  0
   -7.1371    3.3580   -1.6180 N   0  0  0  0  0  0  0  0  0  0  0  0
   -8.3099    3.9059   -1.4097 C   0  0  0  0  0  0  0  0  0  0  0  0
   -8.4151    4.8211   -0.3100 N   0  0  0  0  0  0  0  0  0  0  0  0
   -9.4354    3.6093   -2.2317 N   0  0  0  0  0  0  0  0  0  0  0  0
   -4.1487   -3.0571   -0.7258 C   0  0  0  0  0  0  0  0  0  0  0  0
   -5.3648   -2.4806   -0.1337 C   0  0  0  0  0  0  0  0  0  0  0  0
   -6.3286   -1.6118   -0.5536 C   0  0  0  0  0  0  0  0  0  0  0  0
   -7.2676   -1.4110    0.3941 N   0  0  0  0  0  0  0  0  0  0  0  0
   -6.9454   -2.1456    1.4665 C   0  0  0  0  0  0  0  0  0  0  0  0
   -5.7688   -2.8220    1.1714 C   0  0  0  0  0  0  0  0  0  0  0  0
   -5.2551   -3.6499    2.1480 C   0  0  0  0  0  0  0  0  0  0  0  0
   -5.9081   -3.7789    3.3569 C   0  0  0  0  0  0  0  0  0  0  0  0
   -7.0775   -3.1074    3.6551 C   0  0  0  0  0  0  0  0  0  0  0  0
   -7.5897   -2.2854    2.6887 C   0  0  0  0  0  0  0  0  0  0  0  0
   -0.4686   -5.6361   -2.7322 C   0  0  0  0  0  0  0  0  0  0  0  0
    0.4967   -6.1227   -3.3707 O   0  0  0  0  0  0  0  0  0  0  0  0
   -1.7869   -5.6667   -3.2722 N   0  0  0  0  0  0  0  0  0  0  0  0
    7.5899   -1.3114   -1.3958 N   0  0  0  0  0  0  0  0  0  0  0  0
    7.4757   -0.7512   -2.7301 C   0  0  0  0  0  0  0  0  0  0  0  0
    7.6202    0.4868   -2.9322 O   0  0  0  0  0  0  0  0  0  0  0  0
    7.1820   -1.6488   -3.9013 C   0  0  0  0  0  0  0  0  0  0  0  0
   10.6466   -3.6561    2.4283 H   0  0  0  0  0  0  0  0  0  0  0  0
   10.2783   -5.0466    1.2871 H   0  0  0  0  0  0  0  0  0  0  0  0
    8.9756   -4.4357    2.3400 H   0  0  0  0  0  0  0  0  0  0  0  0
    8.3107   -3.3184    0.5307 H   0  0  0  0  0  0  0  0  0  0  0  0
    9.9174   -3.4452   -0.2371 H   0  0  0  0  0  0  0  0  0  0  0  0
    9.1949   -1.6336    2.1775 H   0  0  0  0  0  0  0  0  0  0  0  0
   10.7361   -1.6631    1.3333 H   0  0  0  0  0  0  0  0  0  0  0  0
    9.8745   -0.8666   -0.7309 H   0  0  0  0  0  0  0  0  0  0  0  0
    9.7176    0.3225    0.5513 H   0  0  0  0  0  0  0  0  0  0  0  0
    7.9300    0.5704   -0.7590 H   0  0  0  0  0  0  0  0  0  0  0  0
    5.1483   -1.2149   -0.2515 H   0  0  0  0  0  0  0  0  0  0  0  0
    5.2128   -0.4688    2.7222 H   0  0  0  0  0  0  0  0  0  0  0  0
    2.6066   -0.9574    1.1351 H   0  0  0  0  0  0  0  0  0  0  0  0
    2.9394   -1.2338    2.8466 H   0  0  0  0  0  0  0  0  0  0  0  0
    1.4380   -2.9147    1.9301 H   0  0  0  0  0  0  0  0  0  0  0  0
    2.6888   -5.5089    2.1146 H   0  0  0  0  0  0  0  0  0  0  0  0
    0.9610   -5.1690    1.6558 H   0  0  0  0  0  0  0  0  0  0  0  0
    2.1191   -4.2827   -0.5841 H   0  0  0  0  0  0  0  0  0  0  0  0
    3.4937   -5.2978    0.0386 H   0  0  0  0  0  0  0  0  0  0  0  0
    2.0604   -6.6023   -1.5949 H   0  0  0  0  0  0  0  0  0  0  0  0
    1.9405   -7.2880    0.0787 H   0  0  0  0  0  0  0  0  0  0  0  0
   -0.0993   -6.1203    0.5261 H   0  0  0  0  0  0  0  0  0  0  0  0
   -0.2651   -7.1317   -0.8959 H   0  0  0  0  0  0  0  0  0  0  0  0
    0.4931   -4.1932   -1.4779 H   0  0  0  0  0  0  0  0  0  0  0  0
   -2.2993   -5.1439   -0.6657 H   0  0  0  0  0  0  0  0  0  0  0  0
   -2.9380   -2.7076    0.9361 H   0  0  0  0  0  0  0  0  0  0  0  0
   -2.2319   -0.5410    0.4435 H   0  0  0  0  0  0  0  0  0  0  0  0
   -3.0363    1.5805   -2.4184 H   0  0  0  0  0  0  0  0  0  0  0  0
   -2.5337    2.0763    0.5635 H   0  0  0  0  0  0  0  0  0  0  0  0
   -0.0855    2.8930    1.0243 H   0  0  0  0  0  0  0  0  0  0  0  0
    1.5130    2.6623   -1.5293 H   0  0  0  0  0  0  0  0  0  0  0  0
    4.9141    0.9724   -0.3949 H   0  0  0  0  0  0  0  0  0  0  0  0
    4.7671    2.5447   -2.1542 H   0  0  0  0  0  0  0  0  0  0  0  0
    3.3195    3.6891   -2.1380 H   0  0  0  0  0  0  0  0  0  0  0  0
    4.3543    4.9796   -0.2044 H   0  0  0  0  0  0  0  0  0  0  0  0
    5.7933    3.7907   -0.2024 H   0  0  0  0  0  0  0  0  0  0  0  0
    0.6288    5.1181    0.3021 H   0  0  0  0  0  0  0  0  0  0  0  0
    0.1018    4.8428   -1.3509 H   0  0  0  0  0  0  0  0  0  0  0  0
   -2.1438    5.4558   -1.9890 H   0  0  0  0  0  0  0  0  0  0  0  0
   -4.2605    6.6554   -1.2996 H   0  0  0  0  0  0  0  0  0  0  0  0
   -1.0446    5.2604    2.1139 H   0  0  0  0  0  0  0  0  0  0  0  0
   -2.4697    6.1613    3.8147 H   0  0  0  0  0  0  0  0  0  0  0  0
   -4.5960    7.3361    4.4850 H   0  0  0  0  0  0  0  0  0  0  0  0
   -6.1696    8.0232    2.7926 H   0  0  0  0  0  0  0  0  0  0  0  0
   -5.6764    7.5601    0.3771 H   0  0  0  0  0  0  0  0  0  0  0  0
   -5.3321    1.2495   -1.7478 H   0  0  0  0  0  0  0  0  0  0  0  0
   -4.8927    1.3746    0.0076 H   0  0  0  0  0  0  0  0  0  0  0  0
   -4.3241    3.6834   -1.9200 H   0  0  0  0  0  0  0  0  0  0  0  0
   -4.0913    3.6050   -0.1551 H   0  0  0  0  0  0  0  0  0  0  0  0
   -6.3854    3.5365    0.3697 H   0  0  0  0  0  0  0  0  0  0  0  0
   -6.0306    4.8901   -0.7629 H   0  0  0  0  0  0  0  0  0  0  0  0
   -8.8068    4.5494    0.6169 H   0  0  0  0  0  0  0  0  0  0  0  0
   -8.0860    5.8106   -0.4394 H   0  0  0  0  0  0  0  0  0  0  0  0
   -9.3164    2.8595   -2.9450 H   0  0  0  0  0  0  0  0  0  0  0  0
  -10.3070    4.1538   -2.0717 H   0  0  0  0  0  0  0  0  0  0  0  0
   -4.1979   -3.0327   -1.8318 H   0  0  0  0  0  0  0  0  0  0  0  0
   -4.0830   -4.1702   -0.4984 H   0  0  0  0  0  0  0  0  0  0  0  0
   -6.3785   -1.1303   -1.5125 H   0  0  0  0  0  0  0  0  0  0  0  0
   -8.1104   -0.7905    0.3180 H   0  0  0  0  0  0  0  0  0  0  0  0
   -4.3618   -4.2171    2.0132 H   0  0  0  0  0  0  0  0  0  0  0  0
   -5.5189   -4.4313    4.1391 H   0  0  0  0  0  0  0  0  0  0  0  0
   -7.5852   -3.2121    4.5981 H   0  0  0  0  0  0  0  0  0  0  0  0
   -8.5011   -1.7467    2.8903 H   0  0  0  0  0  0  0  0  0  0  0  0
   -1.8923   -5.3003   -4.2590 H   0  0  0  0  0  0  0  0  0  0  0  0
   -2.6178   -6.0234   -2.7501 H   0  0  0  0  0  0  0  0  0  0  0  0
    7.4373   -2.3642   -1.3873 H   0  0  0  0  0  0  0  0  0  0  0  0
    6.1994   -1.4531   -4.3537 H   0  0  0  0  0  0  0  0  0  0  0  0
    7.9426   -1.4332   -4.7006 H   0  0  0  0  0  0  0  0  0  0  0  0
    7.3709   -2.6721   -3.5799 H   0  0  0  0  0  0  0  0  0  0  0  0
  1  2  1  0
  2  3  1  0
  3  4  1  0
  4  5  1  0
  5  6  1  0
  6  7  2  0
  6  8  1  0
  8  9  1  0
  9 10  1  0
 10 11  1  0
 11 12  2  0
 11 13  1  0
 13 14  1  0
 14 15  1  0
 15 16  1  0
 16 17  1  0
 17 18  1  0
 18 19  1  0
 19 20  1  0
 20 21  2  0
 20 22  1  0
 22 23  1  0
 23 24  1  0
 24 25  2  0
 24 26  1  0
 26 27  1  0
 27 28  1  0
 28 29  2  0
 28 30  1  0
 30 31  1  0
 31 32  1  0
 32 33  2  0
 32 34  1  0
 34 35  1  0
 35 36  1  0
 36 37  2  0
 34 38  1  0
 38 39  1  0
 30 40  1  0
 40 41  1  0
 41 42  2  0
 42 43  1  0
 43 44  2  0
 44 45  1  0
 45 46  2  0
 45 47  1  0
 47 48  2  0
 48 49  1  0
 49 50  2  0
 26 51  1  0
 51 52  1  0
 52 53  1  0
 53 54  1  0
 54 55  2  3
 55 56  1  0
 55 57  1  0
 22 58  1  0
 58 59  1  0
 59 60  2  0
 60 61  1  0
 61 62  1  0
 62 63  2  0
 63 64  1  0
 64 65  2  0
 65 66  1  0
 66 67  2  0
 18 68  1  0
 68 69  2  0
 68 70  1  0
  5 71  1  0
 71 72  1  0
 72 73  2  0
 72 74  1  0
 36  9  1  0
 46 41  1  0
 63 59  1  0
 39 34  1  0
 50 44  1  0
 67 62  1  0
  1 75  1  0
  1 76  1  0
  1 77  1  0
  2 78  1  0
  2 79  1  0
  3 80  1  0
  3 81  1  0
  4 82  1  0
  4 83  1  0
  5 84  1  6
  8 85  1  0
  9 86  1  1
 10 87  1  0
 10 88  1  0
 13 89  1  0
 14 90  1  0
 14 91  1  0
 15 92  1  0
 15 93  1  0
 16 94  1  0
 16 95  1  0
 17 96  1  0
 17 97  1  0
 18 98  1  6
 19 99  1  0
 22100  1  1
 23101  1  0
 26102  1  6
 27103  1  0
 30104  1  1
 31105  1  0
 35106  1  0
 38107  1  0
 38108  1  0
 39109  1  0
 39110  1  0
 40111  1  0
 40112  1  0
 42113  1  0
 43114  1  0
 46115  1  0
 47116  1  0
 48117  1  0
 49118  1  0
 50119  1  0
 51120  1  0
 51121  1  0
 52122  1  0
 52123  1  0
 53124  1  0
 53125  1  0
 56126  1  0
 56127  1  0
 57128  1  0
 57129  1  0
 58130  1  0
 58131  1  0
 60132  1  0
 61133  1  0
 64134  1  0
 65135  1  0
 66136  1  0
 67137  1  0
 70138  1  0
 70139  1  0
 71140  1  0
 74141  1  0
 74142  1  0
 74143  1  0
M  END
>  <Ligand ID>  (1) 
LIG0004168

>  <Ligand>  (1) 
CHEMBL1161320

>  <SMILES>  (1) 
CCCC[C@H](C(=O)N[C@@H]1CC(=O)NCCCC[C@H](NC(=O)[C@@H](NC(=O)[C@H](NC(=O)[C@@H](NC(=O)C2(NC1=O)CC2)Cc1ccc2c(c1)cccc2)CCCN=C(N)N)Cc1c[nH]c2c1cccc2)C(=O)N)NC(=O)C

>  <CID>  (1) 
44366187.0

>  <ChEMBL ID>  (1) 
nan

>  <InChiKey>  (1) 
NEVVXMYOTHZJES-BYMRNIKTSA-N

>  <InChi>  (1) 
InChI=1S/C52H69N13O9/c1-3-4-15-38(59-30(2)66)45(69)63-42-28-43(67)56-23-10-9-17-37(44(53)68)60-48(72)41(27-34-29-58-36-16-8-7-14-35(34)36)62-46(70)39(18-11-24-57-51(54)55)61-47(71)40(64-50(74)52(21-22-52)65-49(42)73)26-31-19-20-32-12-5-6-13-33(32)25-31/h5-8,12-14,16,19-20,25,29,37-42,58H,3-4,9-11,15,17-18,21-24,26-28H2,1-2H3,(H2,53,68)(H,56,67)(H,59,66)(H,60,72)(H,61,71)(H,62,70)(H,63,69)(H,64,74)(H,65,73)(H4,54,55,57)/t37-,38+,39+,40-,41-,42+/m0/s1

>  <IUPAC Name>  (1) 
(6R,14S,17S,20R,23S)-6-[[(2R)-2-acetamidohexanoyl]amino]-20-[3-(diaminomethylideneamino)propyl]-17-(1H-indol-3-ylmethyl)-23-(naphthalen-2-ylmethyl)-5,8,16,19,22,25-hexaoxo-4,9,15,18,21,24-hexazaspiro[2.22]pentacosane-14-carboxamide

$$$$
