
     RDKit          3D

 53 56  0  0  0  0  0  0  0  0999 V2000
   -8.6275    2.7283    0.9792 Cl  0  0  0  0  0  0  0  0  0  0  0  0
   -7.4831    1.4029    0.8173 C   0  0  0  0  0  0  0  0  0  0  0  0
   -6.1636    1.6144    0.4767 C   0  0  0  0  0  0  0  0  0  0  0  0
   -5.2662    0.5583    0.3512 C   0  0  0  0  0  0  0  0  0  0  0  0
   -5.6652   -0.7308    0.5629 C   0  0  0  0  0  0  0  0  0  0  0  0
   -7.0033   -0.9248    0.9064 C   0  0  0  0  0  0  0  0  0  0  0  0
   -7.8569    0.1140    1.0226 N   0  0  0  0  0  0  0  0  0  0  0  0
   -4.8228   -1.9332    0.4690 C   0  0  2  0  0  0  0  0  0  0  0  0
   -3.4909   -1.6806   -0.1716 C   0  0  0  0  0  0  0  0  0  0  0  0
   -2.6388   -0.7716    0.5449 N   0  0  0  0  0  0  0  0  0  0  0  0
   -1.3691   -0.5715   -0.1133 C   0  0  1  0  0  0  0  0  0  0  0  0
   -1.5664    0.0521   -1.4483 C   0  0  0  0  0  0  0  0  0  0  0  0
   -0.8531    1.4052   -1.5751 C   0  0  0  0  0  0  0  0  0  0  0  0
    0.5725    1.1677   -1.2411 C   0  0  0  0  0  0  0  0  0  0  0  0
    0.8409    0.5346   -0.0255 C   0  0  0  0  0  0  0  0  0  0  0  0
   -0.3900    0.1754    0.7684 C   0  0  0  0  0  0  0  0  0  0  0  0
    2.1062    0.2579    0.4095 C   0  0  0  0  0  0  0  0  0  0  0  0
    3.1548    0.6348   -0.4162 C   0  0  0  0  0  0  0  0  0  0  0  0
    2.9106    1.2705   -1.6391 C   0  0  0  0  0  0  0  0  0  0  0  0
    1.6186    1.5407   -2.0589 C   0  0  0  0  0  0  0  0  0  0  0  0
    4.5395    0.3745   -0.0249 C   0  0  0  0  0  0  0  0  0  0  0  0
    5.5380    0.1267   -0.9461 C   0  0  0  0  0  0  0  0  0  0  0  0
    6.8311   -0.1115   -0.4750 C   0  0  0  0  0  0  0  0  0  0  0  0
    7.1200   -0.1026    0.8786 C   0  0  0  0  0  0  0  0  0  0  0  0
    6.1103    0.1467    1.7847 C   0  0  0  0  0  0  0  0  0  0  0  0
    4.8310    0.3826    1.3231 C   0  0  0  0  0  0  0  0  0  0  0  0
    8.4846   -0.3566    1.3266 C   0  0  0  0  0  0  0  0  0  0  0  0
    9.3498   -0.5768    0.4175 O   0  0  0  0  0  0  0  0  0  0  0  0
    8.8293   -0.3606    2.6499 O   0  0  0  0  0  0  0  0  0  0  0  0
   -5.5528   -2.8646   -0.3171 O   0  0  0  0  0  0  0  0  0  0  0  0
   -5.8514    2.6318    0.3104 H   0  0  0  0  0  0  0  0  0  0  0  0
   -4.2737    0.7959    0.0842 H   0  0  0  0  0  0  0  0  0  0  0  0
   -7.3753   -1.9255    1.0857 H   0  0  0  0  0  0  0  0  0  0  0  0
   -4.6170   -2.3881    1.4704 H   0  0  0  0  0  0  0  0  0  0  0  0
   -3.6939   -1.3433   -1.2097 H   0  0  0  0  0  0  0  0  0  0  0  0
   -2.9843   -2.6765   -0.2306 H   0  0  0  0  0  0  0  0  0  0  0  0
   -2.4573   -1.1075    1.5142 H   0  0  0  0  0  0  0  0  0  0  0  0
   -0.9666   -1.6176   -0.2739 H   0  0  0  0  0  0  0  0  0  0  0  0
   -1.2525   -0.6310   -2.2599 H   0  0  0  0  0  0  0  0  0  0  0  0
   -2.6507    0.3267   -1.6168 H   0  0  0  0  0  0  0  0  0  0  0  0
   -1.3336    2.0544   -0.7960 H   0  0  0  0  0  0  0  0  0  0  0  0
   -1.0044    1.7738   -2.5887 H   0  0  0  0  0  0  0  0  0  0  0  0
   -0.0678   -0.5033    1.5749 H   0  0  0  0  0  0  0  0  0  0  0  0
   -0.8884    1.0899    1.1411 H   0  0  0  0  0  0  0  0  0  0  0  0
    2.2599   -0.2277    1.3464 H   0  0  0  0  0  0  0  0  0  0  0  0
    3.7225    1.5653   -2.2840 H   0  0  0  0  0  0  0  0  0  0  0  0
    1.3765    2.0233   -2.9826 H   0  0  0  0  0  0  0  0  0  0  0  0
    5.3045    0.1213   -2.0058 H   0  0  0  0  0  0  0  0  0  0  0  0
    7.6081   -0.3046   -1.1995 H   0  0  0  0  0  0  0  0  0  0  0  0
    6.2893    0.1635    2.8507 H   0  0  0  0  0  0  0  0  0  0  0  0
    4.0621    0.5744    2.0514 H   0  0  0  0  0  0  0  0  0  0  0  0
    9.7255   -0.7716    2.9484 H   0  0  0  0  0  0  0  0  0  0  0  0
   -5.0190   -3.1256   -1.0895 H   0  0  0  0  0  0  0  0  0  0  0  0
  1  2  1  0
  2  3  2  0
  3  4  1  0
  4  5  2  0
  5  6  1  0
  6  7  2  0
  5  8  1  0
  8  9  1  0
  9 10  1  0
 10 11  1  0
 11 12  1  0
 12 13  1  0
 13 14  1  0
 14 15  2  0
 15 16  1  0
 15 17  1  0
 17 18  2  0
 18 19  1  0
 19 20  2  0
 18 21  1  0
 21 22  2  0
 22 23  1  0
 23 24  2  0
 24 25  1  0
 25 26  2  0
 24 27  1  0
 27 28  2  0
 27 29  1  0
  8 30  1  0
  7  2  1  0
 16 11  1  0
 26 21  1  0
 20 14  1  0
  3 31  1  0
  4 32  1  0
  6 33  1  0
  8 34  1  1
  9 35  1  0
  9 36  1  0
 10 37  1  0
 11 38  1  6
 12 39  1  0
 12 40  1  0
 13 41  1  0
 13 42  1  0
 16 43  1  0
 16 44  1  0
 17 45  1  0
 19 46  1  0
 20 47  1  0
 22 48  1  0
 23 49  1  0
 25 50  1  0
 26 51  1  0
 29 52  1  0
 30 53  1  0
M  END
>  <Ligand ID>  (1) 
LIG0002996

>  <Ligand>  (1) 
CHEMBL516002

>  <SMILES>  (1) 
Clc1ccc(cn1)[C@H](CN[C@H]1CCc2c(C1)cc(cc2)c1ccc(cc1)C(=O)O)O

>  <CID>  (1) 
24950568.0

>  <ChEMBL ID>  (1) 
nan

>  <InChiKey>  (1) 
GPISTKPIQBYKBI-VXKWHMMOSA-N

>  <InChi>  (1) 
InChI=1S/C24H23ClN2O3/c25-23-10-8-19(13-27-23)22(28)14-26-21-9-7-16-3-6-18(11-20(16)12-21)15-1-4-17(5-2-15)24(29)30/h1-6,8,10-11,13,21-22,26,28H,7,9,12,14H2,(H,29,30)/t21-,22-/m0/s1

>  <IUPAC Name>  (1) 
4-[(7S)-7-[[(2R)-2-(6-chloropyridin-3-yl)-2-hydroxyethyl]amino]-5,6,7,8-tetrahydronaphthalen-2-yl]benzoic acid

$$$$
