
     RDKit          3D

 74 79  0  0  0  0  0  0  0  0999 V2000
    4.7233   -1.4093    2.5628 C   0  0  0  0  0  0  0  0  0  0  0  0
    3.8996   -0.6084    1.6048 C   0  0  1  0  0  0  0  0  0  0  0  0
    4.7059    0.4211    0.8471 C   0  0  0  0  0  0  0  0  0  0  0  0
    3.7817    1.2867    0.0755 C   0  0  0  0  0  0  0  0  0  0  0  0
    2.3977    0.7932   -0.0737 C   0  0  0  0  0  0  0  0  0  0  0  0
    2.0347   -0.5223    0.1468 C   0  0  0  0  0  0  0  0  0  0  0  0
    3.1754   -1.4225    0.5658 C   0  0  2  0  0  0  0  0  0  0  0  0
    2.6043   -2.7080    1.0546 C   0  0  0  0  0  0  0  0  0  0  0  0
    3.9733   -1.6632   -0.6751 C   0  0  0  0  0  0  0  0  0  0  0  0
    5.4430   -1.4159   -0.5210 C   0  0  0  0  0  0  0  0  0  0  0  0
    5.7770   -0.1778    0.0947 N   0  0  0  0  0  0  0  0  0  0  0  0
    6.4510    0.6740   -0.8216 C   0  0  0  0  0  0  0  0  0  0  0  0
    6.8767    2.0102   -0.2576 C   0  0  0  0  0  0  0  0  0  0  0  0
    7.7909    2.1172    0.8768 C   0  0  0  0  0  0  0  0  0  0  0  0
    8.3181    2.4547   -0.4968 C   0  0  0  0  0  0  0  0  0  0  0  0
    0.7504   -0.9933    0.0074 C   0  0  0  0  0  0  0  0  0  0  0  0
   -0.2412   -0.1127   -0.3737 C   0  0  0  0  0  0  0  0  0  0  0  0
    0.1185    1.1946   -0.5930 C   0  0  0  0  0  0  0  0  0  0  0  0
    1.4057    1.6712   -0.4543 C   0  0  0  0  0  0  0  0  0  0  0  0
   -1.5960   -0.6210   -0.5169 C   0  0  0  0  0  0  0  0  0  0  0  0
   -1.7929   -1.8367   -0.2767 O   0  0  0  0  0  0  0  0  0  0  0  0
   -2.7061    0.1589   -0.9075 N   0  0  0  0  0  0  0  0  0  0  0  0
   -4.0495   -0.3650   -1.0434 C   0  0  0  0  0  0  0  0  0  0  0  0
   -4.5930   -0.9406    0.2506 C   0  0  0  0  0  0  0  0  0  0  0  0
   -5.9541   -1.4291   -0.0419 C   0  0  0  0  0  0  0  0  0  0  0  0
   -6.1608   -2.7889   -0.2001 C   0  0  0  0  0  0  0  0  0  0  0  0
   -7.3895   -3.3351   -0.4987 C   0  0  0  0  0  0  0  0  0  0  0  0
   -8.4677   -2.4893   -0.6480 C   0  0  0  0  0  0  0  0  0  0  0  0
   -8.2748   -1.1386   -0.4929 C   0  0  0  0  0  0  0  0  0  0  0  0
   -7.0272   -0.5872   -0.1895 C   0  0  0  0  0  0  0  0  0  0  0  0
   -6.9821    0.8492   -0.0287 C   0  0  0  0  0  0  0  0  0  0  0  0
   -7.4037    1.6223   -1.0928 C   0  0  0  0  0  0  0  0  0  0  0  0
   -7.4342    2.9995   -1.0638 C   0  0  0  0  0  0  0  0  0  0  0  0
   -7.0246    3.6570    0.0832 C   0  0  0  0  0  0  0  0  0  0  0  0
   -6.6073    2.8732    1.1364 C   0  0  0  0  0  0  0  0  0  0  0  0
   -6.5793    1.5105    1.1025 C   0  0  0  0  0  0  0  0  0  0  0  0
    5.1004   -2.3590    2.1961 H   0  0  0  0  0  0  0  0  0  0  0  0
    4.1861   -1.6117    3.5258 H   0  0  0  0  0  0  0  0  0  0  0  0
    5.5933   -0.7613    2.8592 H   0  0  0  0  0  0  0  0  0  0  0  0
    3.1406   -0.0586    2.1910 H   0  0  0  0  0  0  0  0  0  0  0  0
    5.2076    1.0276    1.6428 H   0  0  0  0  0  0  0  0  0  0  0  0
    3.6800    2.2708    0.6183 H   0  0  0  0  0  0  0  0  0  0  0  0
    4.1838    1.5924   -0.9209 H   0  0  0  0  0  0  0  0  0  0  0  0
    2.2519   -3.2625    0.1560 H   0  0  0  0  0  0  0  0  0  0  0  0
    1.7916   -2.5719    1.8006 H   0  0  0  0  0  0  0  0  0  0  0  0
    3.3431   -3.3600    1.5317 H   0  0  0  0  0  0  0  0  0  0  0  0
    3.6388   -1.0408   -1.5567 H   0  0  0  0  0  0  0  0  0  0  0  0
    3.8499   -2.7123   -1.0459 H   0  0  0  0  0  0  0  0  0  0  0  0
    5.8544   -1.4281   -1.5739 H   0  0  0  0  0  0  0  0  0  0  0  0
    5.9700   -2.2914   -0.0509 H   0  0  0  0  0  0  0  0  0  0  0  0
    5.9382    0.7812   -1.8005 H   0  0  0  0  0  0  0  0  0  0  0  0
    7.4083    0.1364   -1.0909 H   0  0  0  0  0  0  0  0  0  0  0  0
    6.1614    2.8239   -0.4231 H   0  0  0  0  0  0  0  0  0  0  0  0
    7.7009    2.9758    1.5746 H   0  0  0  0  0  0  0  0  0  0  0  0
    8.3067    1.2473    1.3290 H   0  0  0  0  0  0  0  0  0  0  0  0
    9.0016    1.7313   -1.0188 H   0  0  0  0  0  0  0  0  0  0  0  0
    8.5305    3.4882   -0.7684 H   0  0  0  0  0  0  0  0  0  0  0  0
    0.5469   -2.0422    0.1995 H   0  0  0  0  0  0  0  0  0  0  0  0
   -0.6299    1.9147   -0.8930 H   0  0  0  0  0  0  0  0  0  0  0  0
    1.6668    2.7143   -0.6341 H   0  0  0  0  0  0  0  0  0  0  0  0
   -2.5100    1.1850   -1.1058 H   0  0  0  0  0  0  0  0  0  0  0  0
   -4.0868   -1.1949   -1.7985 H   0  0  0  0  0  0  0  0  0  0  0  0
   -4.7220    0.4703   -1.3241 H   0  0  0  0  0  0  0  0  0  0  0  0
   -3.9548   -1.8075    0.5928 H   0  0  0  0  0  0  0  0  0  0  0  0
   -4.5174   -0.2017    1.0388 H   0  0  0  0  0  0  0  0  0  0  0  0
   -5.3253   -3.4820   -0.0876 H   0  0  0  0  0  0  0  0  0  0  0  0
   -7.5555   -4.3983   -0.6232 H   0  0  0  0  0  0  0  0  0  0  0  0
   -9.4671   -2.8607   -0.8850 H   0  0  0  0  0  0  0  0  0  0  0  0
   -9.1466   -0.4928   -0.6171 H   0  0  0  0  0  0  0  0  0  0  0  0
   -7.7364    1.1474   -2.0200 H   0  0  0  0  0  0  0  0  0  0  0  0
   -7.7681    3.5863   -1.9089 H   0  0  0  0  0  0  0  0  0  0  0  0
   -7.0386    4.7456    0.1322 H   0  0  0  0  0  0  0  0  0  0  0  0
   -6.2851    3.3890    2.0385 H   0  0  0  0  0  0  0  0  0  0  0  0
   -6.2526    0.9816    1.9808 H   0  0  0  0  0  0  0  0  0  0  0  0
  1  2  1  0
  2  3  1  0
  3  4  1  0
  4  5  1  0
  5  6  2  0
  6  7  1  0
  7  8  1  1
  7  9  1  0
  9 10  1  0
 10 11  1  0
 11 12  1  0
 12 13  1  0
 13 14  1  0
 14 15  1  0
  6 16  1  0
 16 17  2  0
 17 18  1  0
 18 19  2  0
 17 20  1  0
 20 21  2  0
 20 22  1  0
 22 23  1  0
 23 24  1  0
 24 25  1  0
 25 26  2  0
 26 27  1  0
 27 28  2  0
 28 29  1  0
 29 30  2  0
 30 31  1  0
 31 32  2  0
 32 33  1  0
 33 34  2  0
 34 35  1  0
 35 36  2  0
  7  2  1  0
 15 13  1  0
 30 25  1  0
 36 31  1  0
 11  3  1  0
 19  5  1  0
  1 37  1  0
  1 38  1  0
  1 39  1  0
  2 40  1  1
  3 41  1  0
  4 42  1  0
  4 43  1  0
  8 44  1  0
  8 45  1  0
  8 46  1  0
  9 47  1  0
  9 48  1  0
 10 49  1  0
 10 50  1  0
 12 51  1  0
 12 52  1  0
 13 53  1  0
 14 54  1  0
 14 55  1  0
 15 56  1  0
 15 57  1  0
 16 58  1  0
 18 59  1  0
 19 60  1  0
 22 61  1  0
 23 62  1  0
 23 63  1  0
 24 64  1  0
 24 65  1  0
 26 66  1  0
 27 67  1  0
 28 68  1  0
 29 69  1  0
 32 70  1  0
 33 71  1  0
 34 72  1  0
 35 73  1  0
 36 74  1  0
M  END
>  <Ligand ID>  (1) 
LIG0005526

>  <Ligand>  (1) 
CHEMBL399465

>  <SMILES>  (1) 
C[C@H]1C2Cc3c([C@@]1(C)CCN2CC1CC1)cc(cc3)C(=O)NCCc1ccccc1c1ccccc1

>  <CID>  (1) 
16049012.0

>  <ChEMBL ID>  (1) 
nan

>  <InChiKey>  (1) 
VHBQYOYZNDRQMW-CHCCDMOGSA-N

>  <InChi>  (1) 
InChI=1S/C33H38N2O/c1-23-31-21-27-14-15-28(20-30(27)33(23,2)17-19-35(31)22-24-12-13-24)32(36)34-18-16-26-10-6-7-11-29(26)25-8-4-3-5-9-25/h3-11,14-15,20,23-24,31H,12-13,16-19,21-22H2,1-2H3,(H,34,36)/t23-,31?,33-/m0/s1

>  <IUPAC Name>  (1) 
(1S,13R)-10-(cyclopropylmethyl)-1,13-dimethyl-N-[2-(2-phenylphenyl)ethyl]-10-azatricyclo[7.3.1.02,7]trideca-2(7),3,5-triene-4-carboxamide

$$$$
