
     RDKit          3D

 54 56  0  0  0  0  0  0  0  0999 V2000
   -3.1951   -2.2773   -2.4438 O   0  0  0  0  0  0  0  0  0  0  0  0
   -3.5779   -1.0118   -1.9492 C   0  0  0  0  0  0  0  0  0  0  0  0
   -4.6229   -1.2157   -0.8683 C   0  0  0  0  0  0  0  0  0  0  0  0
   -5.0960    0.0511   -0.2795 C   0  0  0  0  0  0  0  0  0  0  0  0
   -4.7126    0.5196    0.9587 C   0  0  0  0  0  0  0  0  0  0  0  0
   -5.1904    1.7026    1.4432 C   0  0  0  0  0  0  0  0  0  0  0  0
   -4.8097    2.1614    2.6651 F   0  0  0  0  0  0  0  0  0  0  0  0
   -6.0709    2.4245    0.6629 C   0  0  0  0  0  0  0  0  0  0  0  0
   -6.4873    1.9991   -0.5857 C   0  0  0  0  0  0  0  0  0  0  0  0
   -5.9895    0.8007   -1.0514 C   0  0  0  0  0  0  0  0  0  0  0  0
   -6.3805    0.3617   -2.2697 F   0  0  0  0  0  0  0  0  0  0  0  0
   -2.3230   -0.4047   -1.4165 C   0  0  0  0  0  0  0  0  0  0  0  0
   -1.6494   -1.1056   -0.5214 C   0  0  0  0  0  0  0  0  0  0  0  0
   -0.3641   -0.6023    0.0947 C   0  0  1  0  0  0  0  0  0  0  0  0
   -0.5487   -0.6107    1.5694 C   0  0  0  0  0  0  0  0  0  0  0  0
    0.0658   -1.8775    2.0467 C   0  0  0  0  0  0  0  0  0  0  0  0
    0.7449   -2.5087    0.8979 C   0  0  0  0  0  0  0  0  0  0  0  0
    1.2527   -3.6053    0.9040 O   0  0  0  0  0  0  0  0  0  0  0  0
    0.7074   -1.5998   -0.2488 C   0  0  2  0  0  0  0  0  0  0  0  0
    2.0360   -0.9223   -0.5159 C   0  0  0  0  0  0  0  0  0  0  0  0
    2.5669   -0.1373    0.6321 C   0  0  0  0  0  0  0  0  0  0  0  0
    3.8839    0.5040    0.3107 C   0  0  0  0  0  0  0  0  0  0  0  0
    3.9659    1.7714   -0.2399 C   0  0  0  0  0  0  0  0  0  0  0  0
    5.2319    2.2536   -0.4896 C   0  0  0  0  0  0  0  0  0  0  0  0
    6.3666    1.5363   -0.2165 C   0  0  0  0  0  0  0  0  0  0  0  0
    6.2933    0.2585    0.3382 C   0  0  0  0  0  0  0  0  0  0  0  0
    5.0202   -0.2466    0.5981 C   0  0  0  0  0  0  0  0  0  0  0  0
    7.6561    2.1163   -0.5089 C   0  0  0  0  0  0  0  0  0  0  0  0
    7.7248    3.2581   -1.0041 O   0  0  0  0  0  0  0  0  0  0  0  0
    8.8289    1.4291   -0.2504 O   0  0  0  0  0  0  0  0  0  0  0  0
   -3.9625   -2.8783   -2.2865 H   0  0  0  0  0  0  0  0  0  0  0  0
   -3.9847   -0.4126   -2.7641 H   0  0  0  0  0  0  0  0  0  0  0  0
   -4.2624   -1.8479   -0.0524 H   0  0  0  0  0  0  0  0  0  0  0  0
   -5.4523   -1.7650   -1.3552 H   0  0  0  0  0  0  0  0  0  0  0  0
   -4.0178   -0.1029    1.5138 H   0  0  0  0  0  0  0  0  0  0  0  0
   -6.4763    3.3672    1.0040 H   0  0  0  0  0  0  0  0  0  0  0  0
   -7.1729    2.5484   -1.2082 H   0  0  0  0  0  0  0  0  0  0  0  0
   -1.9593    0.5676   -1.7346 H   0  0  0  0  0  0  0  0  0  0  0  0
   -1.9880   -2.0704   -0.1903 H   0  0  0  0  0  0  0  0  0  0  0  0
   -0.1212    0.4083   -0.3120 H   0  0  0  0  0  0  0  0  0  0  0  0
   -1.6405   -0.6162    1.8160 H   0  0  0  0  0  0  0  0  0  0  0  0
   -0.1443    0.2983    2.0671 H   0  0  0  0  0  0  0  0  0  0  0  0
    0.7975   -1.6945    2.8615 H   0  0  0  0  0  0  0  0  0  0  0  0
   -0.7234   -2.5825    2.4197 H   0  0  0  0  0  0  0  0  0  0  0  0
    0.3920   -2.1193   -1.1939 H   0  0  0  0  0  0  0  0  0  0  0  0
    2.7571   -1.7219   -0.7752 H   0  0  0  0  0  0  0  0  0  0  0  0
    1.8534   -0.2699   -1.4024 H   0  0  0  0  0  0  0  0  0  0  0  0
    1.8839    0.7219    0.8867 H   0  0  0  0  0  0  0  0  0  0  0  0
    2.6737   -0.7606    1.5339 H   0  0  0  0  0  0  0  0  0  0  0  0
    3.0750    2.3288   -0.4520 H   0  0  0  0  0  0  0  0  0  0  0  0
    5.2909    3.2469   -0.9207 H   0  0  0  0  0  0  0  0  0  0  0  0
    7.1546   -0.3355    0.5670 H   0  0  0  0  0  0  0  0  0  0  0  0
    4.9641   -1.2270    1.0237 H   0  0  0  0  0  0  0  0  0  0  0  0
    9.7360    1.8943   -0.3012 H   0  0  0  0  0  0  0  0  0  0  0  0
  1  2  1  0
  2  3  1  0
  3  4  1  0
  4  5  2  0
  5  6  1  0
  6  7  1  0
  6  8  2  0
  8  9  1  0
  9 10  2  0
 10 11  1  0
  2 12  1  0
 12 13  2  0
 13 14  1  0
 14 15  1  0
 15 16  1  0
 16 17  1  0
 17 18  2  0
 17 19  1  0
 19 20  1  0
 20 21  1  0
 21 22  1  0
 22 23  2  0
 23 24  1  0
 24 25  2  0
 25 26  1  0
 26 27  2  0
 25 28  1  0
 28 29  2  0
 28 30  1  0
 10  4  1  0
 19 14  1  0
 27 22  1  0
  1 31  1  0
  2 32  1  0
  3 33  1  0
  3 34  1  0
  5 35  1  0
  8 36  1  0
  9 37  1  0
 12 38  1  0
 13 39  1  0
 14 40  1  6
 15 41  1  0
 15 42  1  0
 16 43  1  0
 16 44  1  0
 19 45  1  6
 20 46  1  0
 20 47  1  0
 21 48  1  0
 21 49  1  0
 23 50  1  0
 24 51  1  0
 26 52  1  0
 27 53  1  0
 30 54  1  0
M  END
>  <Ligand ID>  (1) 
LIG0002917

>  <Ligand>  (1) 
CHEMBL3900245

>  <SMILES>  (1) 
OC(Cc1cc(F)ccc1F)/C=C/[C@H]1CCC(=O)[C@@H]1CCc1ccc(cc1)C(=O)O

>  <CID>  (1) 
118517489.0

>  <ChEMBL ID>  (1) 
nan

>  <InChiKey>  (1) 
HNZZMMKIJHPUAD-WIPJZLDNSA-N

>  <InChi>  (1) 
InChI=1S/C24H24F2O4/c25-19-8-11-22(26)18(13-19)14-20(27)9-6-16-7-12-23(28)21(16)10-3-15-1-4-17(5-2-15)24(29)30/h1-2,4-6,8-9,11,13,16,20-21,27H,3,7,10,12,14H2,(H,29,30)/b9-6+/t16-,20?,21+/m0/s1

>  <IUPAC Name>  (1) 
4-[2-[(1R,2R)-2-[(E)-4-(2,5-difluorophenyl)-3-hydroxybut-1-enyl]-5-oxocyclopentyl]ethyl]benzoic acid

$$$$
