
     RDKit          3D

 24 23  0  0  0  0  0  0  0  0999 V2000
   -2.7554    0.9119   -0.5667 C   0  0  0  0  0  0  0  0  0  0  0  0
   -2.5089    0.1240    0.7198 C   0  0  0  0  0  0  0  0  0  0  0  0
   -1.8873   -1.1687    0.4224 C   0  0  0  0  0  0  0  0  0  0  0  0
   -0.5853   -1.2009   -0.2581 C   0  0  0  0  0  0  0  0  0  0  0  0
    0.5480   -0.5495    0.4002 C   0  0  0  0  0  0  0  0  0  0  0  0
    0.4772    0.0242    1.4920 O   0  0  0  0  0  0  0  0  0  0  0  0
    1.8754   -0.5773   -0.2871 C   0  0  0  0  0  0  0  0  0  0  0  0
    2.9308    0.1110    0.4915 C   0  0  0  0  0  0  0  0  0  0  0  0
    3.4553   -0.4726    1.4287 O   0  0  0  0  0  0  0  0  0  0  0  0
    3.3994    1.4951    0.1966 C   0  0  0  0  0  0  0  0  0  0  0  0
   -3.5166    0.3136   -1.1314 H   0  0  0  0  0  0  0  0  0  0  0  0
   -3.2994    1.8488   -0.2719 H   0  0  0  0  0  0  0  0  0  0  0  0
   -1.8474    1.1013   -1.1407 H   0  0  0  0  0  0  0  0  0  0  0  0
   -2.0609    0.7445    1.5099 H   0  0  0  0  0  0  0  0  0  0  0  0
   -3.5434   -0.0773    1.1051 H   0  0  0  0  0  0  0  0  0  0  0  0
   -1.7893   -1.7313    1.3819 H   0  0  0  0  0  0  0  0  0  0  0  0
   -2.6155   -1.7682   -0.1660 H   0  0  0  0  0  0  0  0  0  0  0  0
   -0.6739   -0.7407   -1.2739 H   0  0  0  0  0  0  0  0  0  0  0  0
   -0.2771   -2.2505   -0.4532 H   0  0  0  0  0  0  0  0  0  0  0  0
    2.2448   -1.6209   -0.4331 H   0  0  0  0  0  0  0  0  0  0  0  0
    1.8275   -0.1299   -1.2936 H   0  0  0  0  0  0  0  0  0  0  0  0
    4.4804    1.5309   -0.0324 H   0  0  0  0  0  0  0  0  0  0  0  0
    3.2384    2.1786    1.0563 H   0  0  0  0  0  0  0  0  0  0  0  0
    2.8832    1.9040   -0.7020 H   0  0  0  0  0  0  0  0  0  0  0  0
  1  2  1  0
  2  3  1  0
  3  4  1  0
  4  5  1  0
  5  6  2  0
  5  7  1  0
  7  8  1  0
  8  9  2  0
  8 10  1  0
  1 11  1  0
  1 12  1  0
  1 13  1  0
  2 14  1  0
  2 15  1  0
  3 16  1  0
  3 17  1  0
  4 18  1  0
  4 19  1  0
  7 20  1  0
  7 21  1  0
 10 22  1  0
 10 23  1  0
 10 24  1  0
M  END
>  <Ligand ID>  (1) 
LIG0005017

>  <Ligand>  (1) 
2,4-Octanedione

>  <SMILES>  (1) 
CCCCC(=O)CC(=O)C

>  <CID>  (1) 
84192.0

>  <ChEMBL ID>  (1) 
nan

>  <InChiKey>  (1) 
GJYXGIIWJFZCLN-UHFFFAOYSA-N

>  <InChi>  (1) 
InChI=1S/C8H14O2/c1-3-4-5-8(10)6-7(2)9/h3-6H2,1-2H3

>  <IUPAC Name>  (1) 
octane-2,4-dione

$$$$
