
     RDKit          3D

 25 24  0  0  0  0  0  0  0  0999 V2000
   -2.4528    1.1649    0.6828 N   0  0  0  0  0  0  0  0  0  0  0  0
   -2.5296   -0.1875    0.2960 C   0  0  0  0  0  0  0  0  0  0  0  0
   -1.3493   -1.0506    0.5992 C   0  0  0  0  0  0  0  0  0  0  0  0
   -0.0637   -0.5298    0.1237 C   0  0  0  0  0  0  0  0  0  0  0  0
    0.7153    0.2998    0.9371 C   0  0  0  0  0  0  0  0  0  0  0  0
    1.9253    0.7919    0.4936 C   0  0  0  0  0  0  0  0  0  0  0  0
    2.6995    1.6201    1.3099 O   0  0  0  0  0  0  0  0  0  0  0  0
    2.3542    0.4422   -0.7865 C   0  0  0  0  0  0  0  0  0  0  0  0
    1.5693   -0.3868   -1.5912 C   0  0  0  0  0  0  0  0  0  0  0  0
    0.3641   -0.8759   -1.1474 C   0  0  0  0  0  0  0  0  0  0  0  0
   -0.3775   -1.6841   -1.9610 F   0  0  0  0  0  0  0  0  0  0  0  0
    3.5735    0.9369   -1.2359 O   0  0  0  0  0  0  0  0  0  0  0  0
   -1.6347   -2.3454    0.1340 O   0  0  0  0  0  0  0  0  0  0  0  0
    0.6829    0.0000    0.0000 Cl  0  0  0  0  0  0  0  0  0  0  0  0
   -1.9468    1.3965    1.5306 H   0  0  0  0  0  0  0  0  0  0  0  0
   -2.4059    1.8586   -0.0866 H   0  0  0  0  0  0  0  0  0  0  0  0
   -2.8177   -0.2299   -0.7925 H   0  0  0  0  0  0  0  0  0  0  0  0
   -3.4042   -0.6462    0.8161 H   0  0  0  0  0  0  0  0  0  0  0  0
   -1.2885   -1.1435    1.7082 H   0  0  0  0  0  0  0  0  0  0  0  0
    0.4051    0.5849    1.9317 H   0  0  0  0  0  0  0  0  0  0  0  0
    3.5035    1.1375    1.7372 H   0  0  0  0  0  0  0  0  0  0  0  0
    1.9093   -0.6618   -2.6013 H   0  0  0  0  0  0  0  0  0  0  0  0
    3.6223    1.8901   -1.5933 H   0  0  0  0  0  0  0  0  0  0  0  0
   -2.3708   -2.3820   -0.5046 H   0  0  0  0  0  0  0  0  0  0  0  0
   -0.6829    0.0000    0.0000 H   0  0  0  0  0  0  0  0  0  0  0  0
  1  2  1  0
  2  3  1  0
  3  4  1  0
  4  5  2  0
  5  6  1  0
  6  7  1  0
  6  8  2  0
  8  9  1  0
  9 10  2  0
 10 11  1  0
  8 12  1  0
  3 13  1  0
 10  4  1  0
  1 15  1  0
  1 16  1  0
  2 17  1  0
  2 18  1  0
  3 19  1  0
  5 20  1  0
  7 21  1  0
  9 22  1  0
 12 23  1  0
 13 24  1  0
 14 25  1  0
M  END
>  <Ligand ID>  (1) 
LIG0005738

>  <Ligand>  (1) 
6-Fluoronorepinephrine hydrochloride

>  <SMILES>  (1) 
NCC(c1cc(O)c(cc1F)O)O.Cl

>  <CID>  (1) 
11957479.0

>  <ChEMBL ID>  (1) 
nan

>  <InChiKey>  (1) 
QGDCLYPALFHCCD-UHFFFAOYSA-N

>  <InChi>  (1) 
InChI=1S/C8H10FNO3.ClH/c9-5-2-7(12)6(11)1-4(5)8(13)3-10;/h1-2,8,11-13H,3,10H2;1H

>  <IUPAC Name>  (1) 
4-(2-amino-1-hydroxyethyl)-5-fluorobenzene-1,2-diol;hydrochloride

$$$$
