
     RDKit          3D

102105  0  0  0  0  0  0  0  0999 V2000
    5.0320   -2.1538   -2.4208 C   0  0  0  0  0  0  0  0  0  0  0  0
    4.5476   -1.0013   -1.6728 N   0  0  0  0  0  0  0  0  0  0  0  0
    5.4745   -0.1302   -1.0508 C   0  0  0  0  0  0  0  0  0  0  0  0
    6.7400   -0.3270   -1.1189 O   0  0  0  0  0  0  0  0  0  0  0  0
    5.0543    1.0870   -0.2682 C   0  0  2  0  0  0  0  0  0  0  0  0
    5.5169    1.0397    1.1468 C   0  0  0  0  0  0  0  0  0  0  0  0
    4.9227   -0.1532    1.8116 C   0  0  0  0  0  0  0  0  0  0  0  0
    3.7323   -0.0717    2.5236 C   0  0  0  0  0  0  0  0  0  0  0  0
    3.1593   -1.1469    3.1238 C   0  0  0  0  0  0  0  0  0  0  0  0
    3.7360   -2.4184    3.0650 C   0  0  0  0  0  0  0  0  0  0  0  0
    4.9209   -2.4876    2.3543 C   0  0  0  0  0  0  0  0  0  0  0  0
    5.5124   -1.4147    1.7434 C   0  0  0  0  0  0  0  0  0  0  0  0
    5.5172   -3.7277    2.2658 C   0  0  0  0  0  0  0  0  0  0  0  0
    4.9501   -4.8479    2.8647 C   0  0  0  0  0  0  0  0  0  0  0  0
    3.7541   -4.7663    3.5811 C   0  0  0  0  0  0  0  0  0  0  0  0
    3.1771   -3.5205    3.6552 C   0  0  0  0  0  0  0  0  0  0  0  0
    3.6240    1.1502   -0.3327 N   0  0  0  0  0  0  0  0  0  0  0  0
    3.0436    1.8728   -1.4405 C   0  0  0  0  0  0  0  0  0  0  0  0
    3.8215    2.3822   -2.2813 O   0  0  0  0  0  0  0  0  0  0  0  0
    1.6021    2.0373   -1.6289 C   0  0  1  0  0  0  0  0  0  0  0  0
    0.8454    1.6385   -0.4360 N   0  0  0  0  0  0  0  0  0  0  0  0
   -0.3221    0.8363   -0.4961 C   0  0  0  0  0  0  0  0  0  0  0  0
   -0.7758    0.4126   -1.5878 O   0  0  0  0  0  0  0  0  0  0  0  0
   -1.0581    0.4732    0.8023 C   0  0  1  0  0  0  0  0  0  0  0  0
   -1.3687    1.7427    1.4470 C   0  0  0  0  0  0  0  0  0  0  0  0
   -2.0684    1.7807    2.7158 C   0  0  0  0  0  0  0  0  0  0  0  0
   -3.4677    1.8002    2.6904 C   0  0  0  0  0  0  0  0  0  0  0  0
   -4.1311    1.8628    3.8911 C   0  0  0  0  0  0  0  0  0  0  0  0
   -3.5414    1.9071    5.1156 C   0  0  0  0  0  0  0  0  0  0  0  0
   -2.1432    1.8863    5.1467 C   0  0  0  0  0  0  0  0  0  0  0  0
   -1.4254    1.8239    3.9461 C   0  0  0  0  0  0  0  0  0  0  0  0
   -2.1630   -0.3416    0.3675 N   0  0  0  0  0  0  0  0  0  0  0  0
   -2.2211   -1.7363    0.4075 C   0  0  0  0  0  0  0  0  0  0  0  0
   -1.2341   -2.3860    0.8699 O   0  0  0  0  0  0  0  0  0  0  0  0
   -3.3746   -2.5671   -0.0621 C   0  0  2  0  0  0  0  0  0  0  0  0
   -2.9055   -3.5370   -1.1359 C   0  0  0  0  0  0  0  0  0  0  0  0
   -3.9612   -4.4150   -1.6557 C   0  0  0  0  0  0  0  0  0  0  0  0
   -4.7871   -4.1549   -2.7075 C   0  0  0  0  0  0  0  0  0  0  0  0
   -5.7601   -5.0614   -3.1471 C   0  0  0  0  0  0  0  0  0  0  0  0
   -5.9206   -6.2826   -2.5151 C   0  0  0  0  0  0  0  0  0  0  0  0
   -5.0866   -6.5611   -1.4429 C   0  0  0  0  0  0  0  0  0  0  0  0
   -4.1380   -5.6571   -1.0269 C   0  0  0  0  0  0  0  0  0  0  0  0
   -6.8689   -7.2114   -2.9167 O   0  0  0  0  0  0  0  0  0  0  0  0
   -4.4466   -1.7240   -0.4798 N   0  0  0  0  0  0  0  0  0  0  0  0
   -4.4918   -0.9347   -1.6517 C   0  0  0  0  0  0  0  0  0  0  0  0
   -3.5007   -0.9437   -2.4446 O   0  0  0  0  0  0  0  0  0  0  0  0
   -5.7032   -0.1115   -1.9262 C   0  0  0  0  0  0  0  0  0  0  0  0
    1.2926    3.4961   -1.8820 C   0  0  0  0  0  0  0  0  0  0  0  0
    1.7088    4.3617   -0.7182 C   0  0  0  0  0  0  0  0  0  0  0  0
    1.3711    5.8322   -1.0238 C   0  0  0  0  0  0  0  0  0  0  0  0
   -0.0740    5.9425   -1.2538 N   0  0  0  0  0  0  0  0  0  0  0  0
   -0.5978    7.0531   -1.6652 C   0  0  0  0  0  0  0  0  0  0  0  0
    0.2002    8.1923   -1.9033 N   0  0  0  0  0  0  0  0  0  0  0  0
   -2.0111    7.0792   -1.8772 N   0  0  0  0  0  0  0  0  0  0  0  0
    4.3869   -3.0158   -2.2267 H   0  0  0  0  0  0  0  0  0  0  0  0
    6.0763   -2.3300   -2.0961 H   0  0  0  0  0  0  0  0  0  0  0  0
    5.0524   -1.9631   -3.4958 H   0  0  0  0  0  0  0  0  0  0  0  0
    3.5262   -0.8400   -1.6055 H   0  0  0  0  0  0  0  0  0  0  0  0
    5.4447    1.9585   -0.8585 H   0  0  0  0  0  0  0  0  0  0  0  0
    5.1557    1.9434    1.6673 H   0  0  0  0  0  0  0  0  0  0  0  0
    6.6436    1.0199    1.2184 H   0  0  0  0  0  0  0  0  0  0  0  0
    3.2179    0.8816    2.6306 H   0  0  0  0  0  0  0  0  0  0  0  0
    2.2202   -1.1184    3.6945 H   0  0  0  0  0  0  0  0  0  0  0  0
    6.4379   -1.5780    1.2304 H   0  0  0  0  0  0  0  0  0  0  0  0
    6.4388   -3.8481    1.7287 H   0  0  0  0  0  0  0  0  0  0  0  0
    5.4495   -5.7884    2.7629 H   0  0  0  0  0  0  0  0  0  0  0  0
    3.3487   -5.6567    4.0270 H   0  0  0  0  0  0  0  0  0  0  0  0
    2.2421   -3.4184    4.2093 H   0  0  0  0  0  0  0  0  0  0  0  0
    2.9478    0.7285    0.3220 H   0  0  0  0  0  0  0  0  0  0  0  0
    1.1672    1.4214   -2.4588 H   0  0  0  0  0  0  0  0  0  0  0  0
    1.2426    1.9991    0.4654 H   0  0  0  0  0  0  0  0  0  0  0  0
   -0.3245   -0.1129    1.3463 H   0  0  0  0  0  0  0  0  0  0  0  0
   -0.4122    2.3271    1.5883 H   0  0  0  0  0  0  0  0  0  0  0  0
   -1.9470    2.4002    0.7303 H   0  0  0  0  0  0  0  0  0  0  0  0
   -4.0109    1.7664    1.7383 H   0  0  0  0  0  0  0  0  0  0  0  0
   -5.2142    1.8790    3.8470 H   0  0  0  0  0  0  0  0  0  0  0  0
   -4.1186    1.9620    6.0528 H   0  0  0  0  0  0  0  0  0  0  0  0
   -1.6047    1.9151    6.1010 H   0  0  0  0  0  0  0  0  0  0  0  0
   -0.3489    1.8076    3.9117 H   0  0  0  0  0  0  0  0  0  0  0  0
   -2.9986    0.1764   -0.0124 H   0  0  0  0  0  0  0  0  0  0  0  0
   -3.6959   -3.2100    0.7739 H   0  0  0  0  0  0  0  0  0  0  0  0
   -2.2953   -3.0401   -1.9159 H   0  0  0  0  0  0  0  0  0  0  0  0
   -2.1636   -4.1938   -0.5867 H   0  0  0  0  0  0  0  0  0  0  0  0
   -4.7177   -3.2489   -3.2503 H   0  0  0  0  0  0  0  0  0  0  0  0
   -6.4114   -4.8250   -3.9910 H   0  0  0  0  0  0  0  0  0  0  0  0
   -5.2249   -7.5305   -0.9517 H   0  0  0  0  0  0  0  0  0  0  0  0
   -3.5131   -5.9427   -0.1875 H   0  0  0  0  0  0  0  0  0  0  0  0
   -7.7668   -6.8846   -3.2239 H   0  0  0  0  0  0  0  0  0  0  0  0
   -5.3055   -1.6813    0.1474 H   0  0  0  0  0  0  0  0  0  0  0  0
   -6.0307    0.3051   -0.9246 H   0  0  0  0  0  0  0  0  0  0  0  0
   -6.5706   -0.7656   -2.2429 H   0  0  0  0  0  0  0  0  0  0  0  0
   -5.5379    0.7320   -2.5938 H   0  0  0  0  0  0  0  0  0  0  0  0
    0.1728    3.5438   -1.9831 H   0  0  0  0  0  0  0  0  0  0  0  0
    1.8006    3.8289   -2.8240 H   0  0  0  0  0  0  0  0  0  0  0  0
    2.8175    4.3223   -0.5546 H   0  0  0  0  0  0  0  0  0  0  0  0
    1.2091    4.0799    0.2157 H   0  0  0  0  0  0  0  0  0  0  0  0
    1.6344    6.4897   -0.1765 H   0  0  0  0  0  0  0  0  0  0  0  0
    1.9483    6.1648   -1.9021 H   0  0  0  0  0  0  0  0  0  0  0  0
    0.8233    8.5339   -1.1369 H   0  0  0  0  0  0  0  0  0  0  0  0
    0.2229    8.7360   -2.7899 H   0  0  0  0  0  0  0  0  0  0  0  0
   -2.6751    6.8212   -1.0944 H   0  0  0  0  0  0  0  0  0  0  0  0
   -2.4486    7.3510   -2.7954 H   0  0  0  0  0  0  0  0  0  0  0  0
  1  2  1  0
  2  3  1  0
  3  4  2  0
  3  5  1  0
  5  6  1  0
  6  7  1  0
  7  8  2  0
  8  9  1  0
  9 10  2  0
 10 11  1  0
 11 12  2  0
 11 13  1  0
 13 14  2  0
 14 15  1  0
 15 16  2  0
  5 17  1  0
 17 18  1  0
 18 19  2  0
 18 20  1  0
 20 21  1  0
 21 22  1  0
 22 23  2  0
 22 24  1  0
 24 25  1  0
 25 26  1  0
 26 27  2  0
 27 28  1  0
 28 29  2  0
 29 30  1  0
 30 31  2  0
 24 32  1  0
 32 33  1  0
 33 34  2  0
 33 35  1  0
 35 36  1  0
 36 37  1  0
 37 38  2  0
 38 39  1  0
 39 40  2  0
 40 41  1  0
 41 42  2  0
 40 43  1  0
 35 44  1  0
 44 45  1  0
 45 46  2  0
 45 47  1  0
 20 48  1  0
 48 49  1  0
 49 50  1  0
 50 51  1  0
 51 52  2  3
 52 53  1  0
 52 54  1  0
 12  7  1  0
 31 26  1  0
 42 37  1  0
 16 10  1  0
  1 55  1  0
  1 56  1  0
  1 57  1  0
  2 58  1  0
  5 59  1  6
  6 60  1  0
  6 61  1  0
  8 62  1  0
  9 63  1  0
 12 64  1  0
 13 65  1  0
 14 66  1  0
 15 67  1  0
 16 68  1  0
 17 69  1  0
 20 70  1  6
 21 71  1  0
 24 72  1  1
 25 73  1  0
 25 74  1  0
 27 75  1  0
 28 76  1  0
 29 77  1  0
 30 78  1  0
 31 79  1  0
 32 80  1  0
 35 81  1  1
 36 82  1  0
 36 83  1  0
 38 84  1  0
 39 85  1  0
 41 86  1  0
 42 87  1  0
 43 88  1  0
 44 89  1  0
 47 90  1  0
 47 91  1  0
 47 92  1  0
 48 93  1  0
 48 94  1  0
 49 95  1  0
 49 96  1  0
 50 97  1  0
 50 98  1  0
 53 99  1  0
 53100  1  0
 54101  1  0
 54102  1  0
M  END
>  <Ligand ID>  (1) 
LIG0003284

>  <Ligand>  (1) 
CHEMBL202699

>  <SMILES>  (1) 
CNC(=O)[C@H](Cc1ccc2c(c1)cccc2)NC(=O)[C@@H](NC(=O)[C@@H](Cc1ccccc1)NC(=O)[C@H](Cc1ccc(cc1)O)NC(=O)C)CCCN=C(N)N

>  <CID>  (1) 
44409240.0

>  <ChEMBL ID>  (1) 
nan

>  <InChiKey>  (1) 
QVTMGASDQFBYLJ-AYXCPNKJSA-N

>  <InChi>  (1) 
InChI=1S/C40H48N8O6/c1-25(49)45-34(23-27-15-18-31(50)19-16-27)38(53)48-35(22-26-9-4-3-5-10-26)39(54)46-32(13-8-20-44-40(41)42)37(52)47-33(36(51)43-2)24-28-14-17-29-11-6-7-12-30(29)21-28/h3-7,9-12,14-19,21,32-35,50H,8,13,20,22-24H2,1-2H3,(H,43,51)(H,45,49)(H,46,54)(H,47,52)(H,48,53)(H4,41,42,44)/t32-,33-,34-,35+/m0/s1

>  <IUPAC Name>  (1) 
(2S)-2-[[(2R)-2-[[(2S)-2-acetamido-3-(4-hydroxyphenyl)propanoyl]amino]-3-phenylpropanoyl]amino]-5-(diaminomethylideneamino)-N-[(2S)-1-(methylamino)-3-naphthalen-2-yl-1-oxopropan-2-yl]pentanamide

$$$$
