
     RDKit          3D

 26 26  0  0  0  0  0  0  0  0999 V2000
    3.2905   -1.2951   -0.1290 N   0  0  0  0  0  0  0  0  0  0  0  0
    2.9273   -0.1759    0.6848 C   0  0  0  0  0  0  0  0  0  0  0  0
    1.5199    0.3158    0.4712 C   0  0  1  0  0  0  0  0  0  0  0  0
    1.2378    0.7730   -0.9545 C   0  0  0  0  0  0  0  0  0  0  0  0
    0.5164   -0.4022   -0.3127 C   0  0  2  0  0  0  0  0  0  0  0  0
   -0.9128   -0.1256    0.0048 C   0  0  0  0  0  0  0  0  0  0  0  0
   -1.3409    1.0669    0.5536 C   0  0  0  0  0  0  0  0  0  0  0  0
   -2.6681    1.3232    0.8483 C   0  0  0  0  0  0  0  0  0  0  0  0
   -3.6243    0.3720    0.5963 C   0  0  0  0  0  0  0  0  0  0  0  0
   -3.2387   -0.8231    0.0526 C   0  0  0  0  0  0  0  0  0  0  0  0
   -1.9127   -1.0696   -0.2380 C   0  0  0  0  0  0  0  0  0  0  0  0
   -4.5656   -2.1445   -0.2977 Br  0  0  0  0  0  0  0  0  0  0  0  0
    0.6877    0.0000    0.0000 Cl  0  0  0  0  0  0  0  0  0  0  0  0
    4.3327   -1.3117   -0.1947 H   0  0  0  0  0  0  0  0  0  0  0  0
    2.8921   -1.2710   -1.0820 H   0  0  0  0  0  0  0  0  0  0  0  0
    3.1401   -0.3960    1.7311 H   0  0  0  0  0  0  0  0  0  0  0  0
    3.6320    0.6547    0.4021 H   0  0  0  0  0  0  0  0  0  0  0  0
    1.1762    0.9800    1.2954 H   0  0  0  0  0  0  0  0  0  0  0  0
    1.9515    0.4855   -1.7430 H   0  0  0  0  0  0  0  0  0  0  0  0
    0.7208    1.7441   -1.0501 H   0  0  0  0  0  0  0  0  0  0  0  0
    0.6901   -1.4144   -0.7513 H   0  0  0  0  0  0  0  0  0  0  0  0
   -0.6073    1.8288    0.7600 H   0  0  0  0  0  0  0  0  0  0  0  0
   -2.9020    2.3061    1.2835 H   0  0  0  0  0  0  0  0  0  0  0  0
   -4.6489    0.6046    0.8380 H   0  0  0  0  0  0  0  0  0  0  0  0
   -1.6062   -2.0253   -0.6724 H   0  0  0  0  0  0  0  0  0  0  0  0
   -0.6877    0.0000    0.0000 H   0  0  0  0  0  0  0  0  0  0  0  0
  1  2  1  0
  2  3  1  0
  3  4  1  0
  4  5  1  0
  5  6  1  0
  6  7  2  0
  7  8  1  0
  8  9  2  0
  9 10  1  0
 10 11  2  0
 10 12  1  0
  5  3  1  0
 11  6  1  0
  1 14  1  0
  1 15  1  0
  2 16  1  0
  2 17  1  0
  3 18  1  1
  4 19  1  0
  4 20  1  0
  5 21  1  6
  7 22  1  0
  8 23  1  0
  9 24  1  0
 11 25  1  0
 13 26  1  0
M  END
>  <Ligand ID>  (1) 
LIG0002371

>  <Ligand>  (1) 
CHEMBL506727

>  <SMILES>  (1) 
NC[C@H]1C[C@@H]1c1cccc(c1)Br.Cl

>  <CID>  (1) 
25084024.0

>  <ChEMBL ID>  (1) 
nan

>  <InChiKey>  (1) 
VBAWDFKNXJATPL-GHXDPTCOSA-N

>  <InChi>  (1) 
InChI=1S/C10H12BrN.ClH/c11-9-3-1-2-7(4-9)10-5-8(10)6-12;/h1-4,8,10H,5-6,12H2;1H/t8-,10-;/m1./s1

>  <IUPAC Name>  (1) 
[(1S,2S)-2-(3-bromophenyl)cyclopropyl]methanamine;hydrochloride

$$$$
