
     RDKit          3D

 81 85  0  0  0  0  0  0  0  0999 V2000
   11.9474    3.6422   -1.6399 O   0  0  0  0  0  0  0  0  0  0  0  0
   10.9401    2.8127   -1.1969 C   0  0  0  0  0  0  0  0  0  0  0  0
   10.4804    3.0626   -0.0301 O   0  0  0  0  0  0  0  0  0  0  0  0
   10.3656    1.6897   -1.9415 C   0  0  0  0  0  0  0  0  0  0  0  0
    9.2926    0.9957   -1.1775 C   0  0  0  0  0  0  0  0  0  0  0  0
    7.9224    1.0699   -1.3551 C   0  0  0  0  0  0  0  0  0  0  0  0
    7.3790    0.2754   -0.4312 N   0  0  0  0  0  0  0  0  0  0  0  0
    8.3612   -0.2982    0.3234 C   0  0  0  0  0  0  0  0  0  0  0  0
    9.5904    0.1369   -0.1228 C   0  0  0  0  0  0  0  0  0  0  0  0
   10.7417   -0.3045    0.4824 C   0  0  0  0  0  0  0  0  0  0  0  0
   10.7480   -1.1846    1.5451 C   0  0  0  0  0  0  0  0  0  0  0  0
    9.5060   -1.6286    2.0014 C   0  0  0  0  0  0  0  0  0  0  0  0
    8.3613   -1.1799    1.3866 C   0  0  0  0  0  0  0  0  0  0  0  0
    6.0045   -0.0148   -0.1519 C   0  0  0  0  0  0  0  0  0  0  0  0
    5.4826   -1.2948   -0.2904 C   0  0  0  0  0  0  0  0  0  0  0  0
    4.1556   -1.5714    0.0102 C   0  0  0  0  0  0  0  0  0  0  0  0
    3.3238   -0.5802    0.4537 C   0  0  0  0  0  0  0  0  0  0  0  0
    3.8313    0.6981    0.5938 C   0  0  0  0  0  0  0  0  0  0  0  0
    5.1325    0.9532    0.2956 C   0  0  0  0  0  0  0  0  0  0  0  0
    1.6588   -0.8280    0.9074 S   0  0  0  0  0  0  0  0  0  0  0  0
    1.5870   -2.1870    1.5431 O   0  0  0  0  0  0  0  0  0  0  0  0
    1.3146    0.1478    2.0278 O   0  0  0  0  0  0  0  0  0  0  0  0
    0.6245   -0.6183   -0.3927 N   0  0  0  0  0  0  0  0  0  0  0  0
   -0.3102    0.4561   -0.3490 C   0  0  0  0  0  0  0  0  0  0  0  0
   -1.4286    0.0736    0.6085 C   0  0  0  0  0  0  0  0  0  0  0  0
   -2.0897   -1.2052    0.3416 C   0  0  0  0  0  0  0  0  0  0  0  0
   -1.1841   -2.2971   -0.2122 C   0  0  0  0  0  0  0  0  0  0  0  0
    0.0018   -1.7740   -0.9426 C   0  0  0  0  0  0  0  0  0  0  0  0
   -3.3917   -1.2747   -0.3711 C   0  0  0  0  0  0  0  0  0  0  0  0
   -4.5297   -0.6475    0.1529 N   0  0  0  0  0  0  0  0  0  0  0  0
   -4.7665    0.7278    0.0561 C   0  0  0  0  0  0  0  0  0  0  0  0
   -5.8238    1.1463    1.0868 C   0  0  1  0  0  0  0  0  0  0  0  0
   -7.0147    0.2900    0.9184 C   0  0  0  0  0  0  0  0  0  0  0  0
   -6.9552   -0.9875    1.4442 C   0  0  0  0  0  0  0  0  0  0  0  0
   -7.9934   -1.8887    1.3726 C   0  0  0  0  0  0  0  0  0  0  0  0
   -9.1418   -1.4689    0.7382 C   0  0  0  0  0  0  0  0  0  0  0  0
   -9.2500   -0.2021    0.1974 C   0  0  0  0  0  0  0  0  0  0  0  0
   -8.1736    0.6848    0.2894 C   0  0  0  0  0  0  0  0  0  0  0  0
  -10.4745    0.1786   -0.4457 N   0  0  0  0  0  0  0  0  0  0  0  0
  -10.7238    1.8184   -0.9302 S   0  0  0  0  0  0  0  0  0  0  0  0
   -9.6779    2.2698   -1.9047 O   0  0  0  0  0  0  0  0  0  0  0  0
  -12.0972    1.9082   -1.5533 O   0  0  0  0  0  0  0  0  0  0  0  0
  -10.6927    2.9122    0.4696 C   0  0  0  0  0  0  0  0  0  0  0  0
  -10.2204   -2.3509    0.6437 O   0  0  0  0  0  0  0  0  0  0  0  0
   -5.3272    0.8943    2.3907 O   0  0  0  0  0  0  0  0  0  0  0  0
   12.7396    3.8575   -1.0208 H   0  0  0  0  0  0  0  0  0  0  0  0
    9.8947    2.0930   -2.8608 H   0  0  0  0  0  0  0  0  0  0  0  0
   11.1320    0.9275   -2.1788 H   0  0  0  0  0  0  0  0  0  0  0  0
    7.3965    1.6449   -2.0811 H   0  0  0  0  0  0  0  0  0  0  0  0
   11.7027    0.0497    0.1166 H   0  0  0  0  0  0  0  0  0  0  0  0
   11.6726   -1.5047    1.9919 H   0  0  0  0  0  0  0  0  0  0  0  0
    9.5232   -2.3108    2.8269 H   0  0  0  0  0  0  0  0  0  0  0  0
    7.4049   -1.5446    1.7653 H   0  0  0  0  0  0  0  0  0  0  0  0
    6.1216   -2.1089   -0.6433 H   0  0  0  0  0  0  0  0  0  0  0  0
    3.7480   -2.5739   -0.0993 H   0  0  0  0  0  0  0  0  0  0  0  0
    3.2030    1.5045    0.9408 H   0  0  0  0  0  0  0  0  0  0  0  0
    5.4959    1.9760    0.4191 H   0  0  0  0  0  0  0  0  0  0  0  0
   -0.7040    0.5837   -1.3815 H   0  0  0  0  0  0  0  0  0  0  0  0
    0.1404    1.3847    0.0190 H   0  0  0  0  0  0  0  0  0  0  0  0
   -0.8556   -0.0598    1.6045 H   0  0  0  0  0  0  0  0  0  0  0  0
   -2.0975    0.8861    0.8291 H   0  0  0  0  0  0  0  0  0  0  0  0
   -2.3514   -1.6206    1.4063 H   0  0  0  0  0  0  0  0  0  0  0  0
   -0.9103   -3.0576    0.5696 H   0  0  0  0  0  0  0  0  0  0  0  0
   -1.7836   -2.8780   -0.9431 H   0  0  0  0  0  0  0  0  0  0  0  0
    0.7087   -2.6090   -1.1324 H   0  0  0  0  0  0  0  0  0  0  0  0
   -0.3454   -1.4787   -1.9739 H   0  0  0  0  0  0  0  0  0  0  0  0
   -3.1999   -0.9807   -1.4634 H   0  0  0  0  0  0  0  0  0  0  0  0
   -3.6039   -2.3934   -0.4935 H   0  0  0  0  0  0  0  0  0  0  0  0
   -5.3745   -1.1287   -0.3144 H   0  0  0  0  0  0  0  0  0  0  0  0
   -3.9639    1.4460   -0.0058 H   0  0  0  0  0  0  0  0  0  0  0  0
   -5.3392    0.9473   -0.9456 H   0  0  0  0  0  0  0  0  0  0  0  0
   -6.0734    2.2102    0.9989 H   0  0  0  0  0  0  0  0  0  0  0  0
   -6.0604   -1.3331    1.9554 H   0  0  0  0  0  0  0  0  0  0  0  0
   -7.8977   -2.8771    1.7976 H   0  0  0  0  0  0  0  0  0  0  0  0
   -8.2379    1.6724   -0.1237 H   0  0  0  0  0  0  0  0  0  0  0  0
  -11.1930   -0.5420   -0.6082 H   0  0  0  0  0  0  0  0  0  0  0  0
  -11.7285    3.1183    0.8017 H   0  0  0  0  0  0  0  0  0  0  0  0
  -10.2023    2.4274    1.3499 H   0  0  0  0  0  0  0  0  0  0  0  0
  -10.1782    3.8475    0.2532 H   0  0  0  0  0  0  0  0  0  0  0  0
  -10.1807   -3.2613    1.0646 H   0  0  0  0  0  0  0  0  0  0  0  0
   -6.0886    0.6290    2.9636 H   0  0  0  0  0  0  0  0  0  0  0  0
  1  2  1  0
  2  3  2  0
  2  4  1  0
  4  5  1  0
  5  6  2  0
  6  7  1  0
  7  8  1  0
  8  9  2  0
  9 10  1  0
 10 11  2  0
 11 12  1  0
 12 13  2  0
  7 14  1  0
 14 15  2  0
 15 16  1  0
 16 17  2  0
 17 18  1  0
 18 19  2  0
 17 20  1  0
 20 21  2  0
 20 22  2  0
 20 23  1  0
 23 24  1  0
 24 25  1  0
 25 26  1  0
 26 27  1  0
 27 28  1  0
 26 29  1  0
 29 30  1  0
 30 31  1  0
 31 32  1  0
 32 33  1  0
 33 34  2  0
 34 35  1  0
 35 36  2  0
 36 37  1  0
 37 38  2  0
 37 39  1  0
 39 40  1  0
 40 41  2  0
 40 42  2  0
 40 43  1  0
 36 44  1  0
 32 45  1  0
  9  5  1  0
 19 14  1  0
 28 23  1  0
 38 33  1  0
 13  8  1  0
  1 46  1  0
  4 47  1  0
  4 48  1  0
  6 49  1  0
 10 50  1  0
 11 51  1  0
 12 52  1  0
 13 53  1  0
 15 54  1  0
 16 55  1  0
 18 56  1  0
 19 57  1  0
 24 58  1  0
 24 59  1  0
 25 60  1  0
 25 61  1  0
 26 62  1  0
 27 63  1  0
 27 64  1  0
 28 65  1  0
 28 66  1  0
 29 67  1  0
 29 68  1  0
 30 69  1  0
 31 70  1  0
 31 71  1  0
 32 72  1  1
 34 73  1  0
 35 74  1  0
 38 75  1  0
 39 76  1  0
 43 77  1  0
 43 78  1  0
 43 79  1  0
 44 80  1  0
 45 81  1  0
M  END
>  <Ligand ID>  (1) 
LIG0004945

>  <Ligand>  (1) 
CHEMBL317003

>  <SMILES>  (1) 
OC(=O)Cc1cn(c2c1cccc2)c1ccc(cc1)S(=O)(=O)N1CCC(CC1)CNC[C@@H](c1ccc(c(c1)NS(=O)(=O)C)O)O

>  <CID>  (1) 
10283146.0

>  <ChEMBL ID>  (1) 
nan

>  <InChiKey>  (1) 
QUXVAAUXWISJKB-PMERELPUSA-N

>  <InChi>  (1) 
InChI=1S/C31H36N4O8S2/c1-44(40,41)33-27-16-22(6-11-29(27)36)30(37)19-32-18-21-12-14-34(15-13-21)45(42,43)25-9-7-24(8-10-25)35-20-23(17-31(38)39)26-4-2-3-5-28(26)35/h2-11,16,20-21,30,32-33,36-37H,12-15,17-19H2,1H3,(H,38,39)/t30-/m0/s1

>  <IUPAC Name>  (1) 
2-[1-[4-[4-[[[(2R)-2-hydroxy-2-[4-hydroxy-3-(methanesulfonamido)phenyl]ethyl]amino]methyl]piperidin-1-yl]sulfonylphenyl]indol-3-yl]acetic acid

$$$$
