
     RDKit          3D

 57 61  0  0  0  0  0  0  0  0999 V2000
   -1.4708    5.3042    0.3777 O   0  0  0  0  0  0  0  0  0  0  0  0
   -1.7314    3.9642    0.6222 C   0  0  0  0  0  0  0  0  0  0  0  0
   -2.6428    3.6688    1.6063 C   0  0  0  0  0  0  0  0  0  0  0  0
   -2.8959    2.3379    1.8434 C   0  0  0  0  0  0  0  0  0  0  0  0
   -2.2572    1.3333    1.1185 C   0  0  0  0  0  0  0  0  0  0  0  0
   -1.3325    1.6160    0.1201 C   0  0  0  0  0  0  0  0  0  0  0  0
   -1.0924    2.9609   -0.1028 C   0  0  0  0  0  0  0  0  0  0  0  0
   -0.6771    0.5281   -0.6512 C   0  0  2  0  0  0  0  0  0  0  0  0
   -1.5863    0.1339   -1.7985 C   0  0  0  0  0  0  0  0  0  0  0  0
   -2.3685   -1.0955   -1.6381 C   0  0  0  0  0  0  0  0  0  0  0  0
   -2.6630   -1.5972   -0.3468 N   0  0  0  0  0  0  0  0  0  0  0  0
   -1.8598   -1.0825    0.7427 C   0  0  2  0  0  0  0  0  0  0  0  0
   -2.6474   -0.0555    1.4795 C   0  0  0  0  0  0  0  0  0  0  0  0
   -0.5264   -0.6427    0.2881 C   0  0  1  0  0  0  0  0  0  0  0  0
    0.1083   -1.7020   -0.3614 O   0  0  0  0  0  0  0  0  0  0  0  0
    0.3886   -0.2383    1.4188 C   0  0  0  0  0  0  0  0  0  0  0  0
    1.7822   -0.1008    0.8426 C   0  0  0  0  0  0  0  0  0  0  0  0
    1.8225    0.4422   -0.4203 C   0  0  0  0  0  0  0  0  0  0  0  0
    0.6557    0.8866   -1.2017 C   0  0  0  0  0  0  0  0  0  0  0  0
    3.0386    0.5712   -0.9874 N   0  0  0  0  0  0  0  0  0  0  0  0
    4.1644    0.2014   -0.3822 C   0  0  0  0  0  0  0  0  0  0  0  0
    5.4006    0.3468   -1.0064 C   0  0  0  0  0  0  0  0  0  0  0  0
    6.5659   -0.0382   -0.3906 C   0  0  0  0  0  0  0  0  0  0  0  0
    6.4914   -0.5771    0.8711 C   0  0  0  0  0  0  0  0  0  0  0  0
    5.2736   -0.7396    1.5320 C   0  0  0  0  0  0  0  0  0  0  0  0
    4.1136   -0.3493    0.9015 C   0  0  0  0  0  0  0  0  0  0  0  0
    2.8951   -0.5098    1.5420 C   0  0  0  0  0  0  0  0  0  0  0  0
   -2.6233   -3.0247   -0.2280 C   0  0  0  0  0  0  0  0  0  0  0  0
   -3.6487   -3.8094   -0.9252 C   0  0  0  0  0  0  0  0  0  0  0  0
   -3.7044   -3.6778   -2.2796 F   0  0  0  0  0  0  0  0  0  0  0  0
   -3.4190   -5.1753   -0.6991 F   0  0  0  0  0  0  0  0  0  0  0  0
   -4.9218   -3.5725   -0.4423 F   0  0  0  0  0  0  0  0  0  0  0  0
    0.6882    0.0000    0.0000 Cl  0  0  0  0  0  0  0  0  0  0  0  0
   -1.5668    6.0194    1.0842 H   0  0  0  0  0  0  0  0  0  0  0  0
   -3.1193    4.4628    2.1488 H   0  0  0  0  0  0  0  0  0  0  0  0
   -3.6116    2.1016    2.6166 H   0  0  0  0  0  0  0  0  0  0  0  0
   -0.4037    3.3271   -0.8536 H   0  0  0  0  0  0  0  0  0  0  0  0
   -0.9705    0.0231   -2.7433 H   0  0  0  0  0  0  0  0  0  0  0  0
   -2.2141    1.0255   -2.0310 H   0  0  0  0  0  0  0  0  0  0  0  0
   -3.3612   -0.9019   -2.1517 H   0  0  0  0  0  0  0  0  0  0  0  0
   -1.9320   -1.9366   -2.2393 H   0  0  0  0  0  0  0  0  0  0  0  0
   -1.6662   -1.8999    1.5075 H   0  0  0  0  0  0  0  0  0  0  0  0
   -3.7369   -0.1218    1.2080 H   0  0  0  0  0  0  0  0  0  0  0  0
   -2.6038   -0.1666    2.5829 H   0  0  0  0  0  0  0  0  0  0  0  0
    0.3544   -1.4114   -1.2733 H   0  0  0  0  0  0  0  0  0  0  0  0
    0.1133    0.6652    1.9502 H   0  0  0  0  0  0  0  0  0  0  0  0
    0.4541   -1.0754    2.1418 H   0  0  0  0  0  0  0  0  0  0  0  0
    0.7314    0.3413   -2.2024 H   0  0  0  0  0  0  0  0  0  0  0  0
    0.7102    1.9442   -1.4910 H   0  0  0  0  0  0  0  0  0  0  0  0
    5.4548    0.7728   -1.9994 H   0  0  0  0  0  0  0  0  0  0  0  0
    7.5034    0.0863   -0.8923 H   0  0  0  0  0  0  0  0  0  0  0  0
    7.4207   -0.8833    1.3621 H   0  0  0  0  0  0  0  0  0  0  0  0
    5.2808   -1.1646    2.5086 H   0  0  0  0  0  0  0  0  0  0  0  0
    2.8175   -0.9239    2.5194 H   0  0  0  0  0  0  0  0  0  0  0  0
   -2.6779   -3.2601    0.8574 H   0  0  0  0  0  0  0  0  0  0  0  0
   -1.6082   -3.3310   -0.5574 H   0  0  0  0  0  0  0  0  0  0  0  0
   -0.6882    0.0000    0.0000 H   0  0  0  0  0  0  0  0  0  0  0  0
  1  2  1  0
  2  3  2  0
  3  4  1  0
  4  5  2  0
  5  6  1  0
  6  7  2  0
  6  8  1  0
  8  9  1  6
  9 10  1  0
 10 11  1  0
 11 12  1  0
 12 13  1  0
 12 14  1  0
 14 15  1  6
 14 16  1  0
 16 17  1  0
 17 18  2  0
 18 19  1  0
 18 20  1  0
 20 21  2  0
 21 22  1  0
 22 23  2  0
 23 24  1  0
 24 25  2  0
 25 26  1  0
 26 27  2  0
 11 28  1  0
 28 29  1  0
 29 30  1  0
 29 31  1  0
 29 32  1  0
  7  2  1  0
 19  8  1  0
 26 21  1  0
 13  5  1  0
 27 17  1  0
 14  8  1  0
  1 34  1  0
  3 35  1  0
  4 36  1  0
  7 37  1  0
  9 38  1  0
  9 39  1  0
 10 40  1  0
 10 41  1  0
 12 42  1  1
 13 43  1  0
 13 44  1  0
 15 45  1  0
 16 46  1  0
 16 47  1  0
 19 48  1  0
 19 49  1  0
 22 50  1  0
 23 51  1  0
 24 52  1  0
 25 53  1  0
 27 54  1  0
 28 55  1  0
 28 56  1  0
 33 57  1  0
M  END
>  <Ligand ID>  (1) 
LIG0003120

>  <Ligand>  (1) 
CHEMBL3092400

>  <SMILES>  (1) 
Oc1ccc2c(c1)[C@@]13CCN([C@H](C2)[C@]3(O)Cc2c(C1)nc1ccccc1c2)CC(F)(F)F.Cl

>  <CID>  (1) 
76335381.0

>  <ChEMBL ID>  (1) 
nan

>  <InChiKey>  (1) 
ZBPQAUUGLMMRAO-AKEJJZJZSA-N

>  <InChi>  (1) 
InChI=1S/C25H23F3N2O2.ClH/c26-25(27,28)14-30-8-7-23-13-21-17(9-16-3-1-2-4-20(16)29-21)12-24(23,32)22(30)10-15-5-6-18(31)11-19(15)23;/h1-6,9,11,22,31-32H,7-8,10,12-14H2;1H/t22-,23-,24-;/m1./s1

>  <IUPAC Name>  (1) 
(1R,14S,15R)-25-(2,2,2-trifluoroethyl)-4,25-diazahexacyclo[13.7.3.01,14.03,12.05,10.017,22]pentacosa-3,5,7,9,11,17(22),18,20-octaene-14,20-diol;hydrochloride

$$$$
