
     RDKit          3D

 37 38  0  0  0  0  0  0  0  0999 V2000
    3.3278    2.4123    1.0521 C   0  0  0  0  0  0  0  0  0  0  0  0
    3.4177    2.0071   -0.3035 O   0  0  0  0  0  0  0  0  0  0  0  0
    2.5198    1.1176   -0.8733 C   0  0  0  0  0  0  0  0  0  0  0  0
    2.7130    0.8014   -2.2002 C   0  0  0  0  0  0  0  0  0  0  0  0
    1.8218   -0.0791   -2.7616 C   0  0  0  0  0  0  0  0  0  0  0  0
    0.7800   -0.6170   -2.0148 C   0  0  0  0  0  0  0  0  0  0  0  0
    0.5615   -0.3223   -0.6898 C   0  0  0  0  0  0  0  0  0  0  0  0
    1.4830    0.5798   -0.1336 C   0  0  0  0  0  0  0  0  0  0  0  0
   -0.4260   -0.8969    0.1304 N   0  0  0  0  0  0  0  0  0  0  0  0
   -1.2582   -2.0345   -0.1178 C   0  0  0  0  0  0  0  0  0  0  0  0
   -0.8555   -3.0093   -1.1653 C   0  0  0  0  0  0  0  0  0  0  0  0
   -1.6106   -2.7807    1.1898 C   0  0  0  0  0  0  0  0  0  0  0  0
   -0.7578   -0.1604    1.3812 C   0  0  0  0  0  0  0  0  0  0  0  0
   -1.4235    1.1269    1.1002 C   0  0  0  0  0  0  0  0  0  0  0  0
   -0.9814    2.4055    0.9467 C   0  0  0  0  0  0  0  0  0  0  0  0
   -2.0249    3.2433    0.6861 N   0  0  0  0  0  0  0  0  0  0  0  0
   -3.1237    2.4802    0.6778 C   0  0  0  0  0  0  0  0  0  0  0  0
   -2.7775    1.2041    0.9256 N   0  0  0  0  0  0  0  0  0  0  0  0
    4.2340    2.9707    1.3479 H   0  0  0  0  0  0  0  0  0  0  0  0
    3.2439    1.4732    1.6544 H   0  0  0  0  0  0  0  0  0  0  0  0
    2.4085    3.0253    1.1440 H   0  0  0  0  0  0  0  0  0  0  0  0
    3.5302    1.2364   -2.7493 H   0  0  0  0  0  0  0  0  0  0  0  0
    1.9551   -0.3431   -3.8073 H   0  0  0  0  0  0  0  0  0  0  0  0
    0.1234   -1.2662   -2.5591 H   0  0  0  0  0  0  0  0  0  0  0  0
    1.4435    0.8917    0.8970 H   0  0  0  0  0  0  0  0  0  0  0  0
   -2.2681   -1.6316   -0.4502 H   0  0  0  0  0  0  0  0  0  0  0  0
   -1.1499   -4.0804   -0.8204 H   0  0  0  0  0  0  0  0  0  0  0  0
    0.2392   -3.1208   -1.2704 H   0  0  0  0  0  0  0  0  0  0  0  0
   -1.3418   -2.9311   -2.1320 H   0  0  0  0  0  0  0  0  0  0  0  0
   -2.5168   -2.3988    1.6462 H   0  0  0  0  0  0  0  0  0  0  0  0
   -0.7345   -2.6597    1.8429 H   0  0  0  0  0  0  0  0  0  0  0  0
   -1.7302   -3.8712    0.9039 H   0  0  0  0  0  0  0  0  0  0  0  0
    0.1468   -0.0184    1.9963 H   0  0  0  0  0  0  0  0  0  0  0  0
   -1.4151   -0.8029    2.0448 H   0  0  0  0  0  0  0  0  0  0  0  0
    0.0276    2.7663    1.0145 H   0  0  0  0  0  0  0  0  0  0  0  0
   -4.1115    2.8584    0.4982 H   0  0  0  0  0  0  0  0  0  0  0  0
   -3.4697    0.4243    0.9688 H   0  0  0  0  0  0  0  0  0  0  0  0
  1  2  1  0
  2  3  1  0
  3  4  2  0
  4  5  1  0
  5  6  2  0
  6  7  1  0
  7  8  2  0
  7  9  1  0
  9 10  1  0
 10 11  1  0
 10 12  1  0
  9 13  1  0
 13 14  1  0
 14 15  2  0
 15 16  1  0
 16 17  2  0
 17 18  1  0
  8  3  1  0
 18 14  1  0
  1 19  1  0
  1 20  1  0
  1 21  1  0
  4 22  1  0
  5 23  1  0
  6 24  1  0
  8 25  1  0
 10 26  1  0
 11 27  1  0
 11 28  1  0
 11 29  1  0
 12 30  1  0
 12 31  1  0
 12 32  1  0
 13 33  1  0
 13 34  1  0
 15 35  1  0
 17 36  1  0
 18 37  1  0
M  END
>  <Ligand ID>  (1) 
LIG0003474

>  <Ligand>  (1) 
CHEMBL2206381

>  <SMILES>  (1) 
COc1cccc(c1)N(C(C)C)Cc1cnc[nH]1

>  <CID>  (1) 
24947139.0

>  <ChEMBL ID>  (1) 
nan

>  <InChiKey>  (1) 
DCFNZAPUZDWYSA-UHFFFAOYSA-N

>  <InChi>  (1) 
InChI=1S/C14H19N3O/c1-11(2)17(9-12-8-15-10-16-12)13-5-4-6-14(7-13)18-3/h4-8,10-11H,9H2,1-3H3,(H,15,16)

>  <IUPAC Name>  (1) 
N-(1H-imidazol-5-ylmethyl)-3-methoxy-N-propan-2-ylaniline

$$$$
