
     RDKit          3D

 16 15  0  0  0  0  0  0  0  0999 V2000
   -3.1667    0.2063    0.7506 C   0  0  0  0  0  0  0  0  0  0  0  0
   -2.0178   -0.2712   -0.1313 C   0  0  0  0  0  0  0  0  0  0  0  0
   -0.6013    0.7955    0.2564 S   0  0  0  0  0  0  0  0  0  0  0  0
    0.9092    0.2232   -1.1492 S   0  0  0  0  0  0  0  0  0  0  0  0
    2.1643   -0.6500   -0.2035 C   0  0  0  0  0  0  0  0  0  0  0  0
    2.9803    0.4240    0.5099 C   0  0  0  0  0  0  0  0  0  0  0  0
   -3.3304    1.2682    0.4613 H   0  0  0  0  0  0  0  0  0  0  0  0
   -4.0793   -0.3963    0.6068 H   0  0  0  0  0  0  0  0  0  0  0  0
   -2.7993    0.2085    1.7938 H   0  0  0  0  0  0  0  0  0  0  0  0
   -1.8022   -1.3393    0.0091 H   0  0  0  0  0  0  0  0  0  0  0  0
   -2.3735   -0.0956   -1.1756 H   0  0  0  0  0  0  0  0  0  0  0  0
    2.8906   -1.2034   -0.8370 H   0  0  0  0  0  0  0  0  0  0  0  0
    1.7039   -1.3107    0.5440 H   0  0  0  0  0  0  0  0  0  0  0  0
    3.1766    1.2845   -0.1811 H   0  0  0  0  0  0  0  0  0  0  0  0
    3.9391    0.0032    0.8652 H   0  0  0  0  0  0  0  0  0  0  0  0
    2.4066    0.8530    1.3496 H   0  0  0  0  0  0  0  0  0  0  0  0
  1  2  1  0
  2  3  1  0
  3  4  1  0
  4  5  1  0
  5  6  1  0
  1  7  1  0
  1  8  1  0
  1  9  1  0
  2 10  1  0
  2 11  1  0
  5 12  1  0
  5 13  1  0
  6 14  1  0
  6 15  1  0
  6 16  1  0
M  END
>  <Ligand ID>  (1) 
LIG0000213

>  <Ligand>  (1) 
Ethyl disulfide

>  <SMILES>  (1) 
CCSSCC

>  <CID>  (1) 
8077.0

>  <ChEMBL ID>  (1) 
nan

>  <InChiKey>  (1) 
CETBSQOFQKLHHZ-UHFFFAOYSA-N

>  <InChi>  (1) 
InChI=1S/C4H10S2/c1-3-5-6-4-2/h3-4H2,1-2H3

>  <IUPAC Name>  (1) 
(ethyldisulfanyl)ethane

$$$$
