
     RDKit          3D

 67 72  0  0  0  0  0  0  0  0999 V2000
   -2.3697   -6.8165    2.2473 Cl  0  0  0  0  0  0  0  0  0  0  0  0
   -1.7421   -5.2925    1.6659 C   0  0  0  0  0  0  0  0  0  0  0  0
   -1.3315   -5.2121    0.3624 C   0  0  0  0  0  0  0  0  0  0  0  0
   -0.8356   -4.0328   -0.1151 C   0  0  0  0  0  0  0  0  0  0  0  0
   -0.7378   -2.8985    0.7044 C   0  0  0  0  0  0  0  0  0  0  0  0
   -1.1424   -2.9661    2.0039 C   0  0  0  0  0  0  0  0  0  0  0  0
   -1.6398   -4.1706    2.4592 C   0  0  0  0  0  0  0  0  0  0  0  0
   -0.1829   -1.7437    0.0773 N   0  0  0  0  0  0  0  0  0  0  0  0
    1.1513   -1.5855    0.0178 N   0  0  0  0  0  0  0  0  0  0  0  0
    1.4634   -0.4457   -0.6331 C   0  0  0  0  0  0  0  0  0  0  0  0
    0.2567    0.1110   -0.9803 C   0  0  0  0  0  0  0  0  0  0  0  0
   -0.7429   -0.7161   -0.5283 C   0  0  0  0  0  0  0  0  0  0  0  0
   -2.1263   -0.3553   -0.7926 C   0  0  0  0  0  0  0  0  0  0  0  0
   -3.1262   -1.1340   -0.4037 C   0  0  0  0  0  0  0  0  0  0  0  0
   -4.5378   -0.8088   -0.6463 C   0  0  0  0  0  0  0  0  0  0  0  0
   -5.0317   -0.4126   -1.8601 C   0  0  0  0  0  0  0  0  0  0  0  0
   -6.3647   -0.0500   -2.0356 C   0  0  0  0  0  0  0  0  0  0  0  0
   -7.2483   -0.0784   -0.9827 C   0  0  0  0  0  0  0  0  0  0  0  0
   -6.7747   -0.4748    0.2424 C   0  0  0  0  0  0  0  0  0  0  0  0
   -5.4434   -0.8378    0.4232 C   0  0  0  0  0  0  0  0  0  0  0  0
   -8.5287    0.2854   -1.1973 F   0  0  0  0  0  0  0  0  0  0  0  0
   -2.4404    0.9286   -1.5299 C   0  0  0  0  0  0  0  0  0  0  0  0
   -1.3823    1.8629   -1.2401 N   0  0  0  0  0  0  0  0  0  0  0  0
   -0.0468    1.3615   -1.6749 C   0  0  0  0  0  0  0  0  0  0  0  0
   -1.4359    3.1241   -0.6634 C   0  0  0  0  0  0  0  0  0  0  0  0
   -0.2772    3.7095   -0.5298 O   0  0  0  0  0  0  0  0  0  0  0  0
   -2.5343    3.9164   -0.1823 C   0  0  0  0  0  0  0  0  0  0  0  0
   -2.3017    5.0555    0.5517 N   0  0  0  0  0  0  0  0  0  0  0  0
   -3.4636    5.6194    0.8636 C   0  0  0  0  0  0  0  0  0  0  0  0
   -4.4442    4.8779    0.3522 N   0  0  0  0  0  0  0  0  0  0  0  0
   -3.8502    3.8466   -0.2792 N   0  0  0  0  0  0  0  0  0  0  0  0
    2.8065    0.0067   -0.9060 C   0  0  0  0  0  0  0  0  0  0  0  0
    3.0427    0.9727   -1.6739 O   0  0  0  0  0  0  0  0  0  0  0  0
    3.9563   -0.6286   -0.3176 N   0  0  0  0  0  0  0  0  0  0  0  0
    5.2996   -0.2591   -0.5913 C   0  0  1  0  0  0  0  0  0  0  0  0
    5.9706    0.6459    0.3689 C   0  0  0  0  0  0  0  0  0  0  0  0
    5.8194    0.5980    1.7323 C   0  0  0  0  0  0  0  0  0  0  0  0
    6.5487    1.5022    2.4735 C   0  0  0  0  0  0  0  0  0  0  0  0
    7.4063    2.4319    1.9140 C   0  0  0  0  0  0  0  0  0  0  0  0
    7.5551    2.4766    0.5579 C   0  0  0  0  0  0  0  0  0  0  0  0
    6.8408    1.5893   -0.2088 C   0  0  0  0  0  0  0  0  0  0  0  0
    6.1190   -1.5077   -0.8207 C   0  0  0  0  0  0  0  0  0  0  0  0
   -1.3771   -6.0562   -0.3405 H   0  0  0  0  0  0  0  0  0  0  0  0
   -0.5081   -3.9775   -1.1504 H   0  0  0  0  0  0  0  0  0  0  0  0
   -1.0647   -2.0893    2.6221 H   0  0  0  0  0  0  0  0  0  0  0  0
   -1.9758   -4.2482    3.5027 H   0  0  0  0  0  0  0  0  0  0  0  0
   -2.9559   -2.0646    0.1084 H   0  0  0  0  0  0  0  0  0  0  0  0
   -4.4243   -0.3750   -2.7370 H   0  0  0  0  0  0  0  0  0  0  0  0
   -6.7360    0.2680   -3.0233 H   0  0  0  0  0  0  0  0  0  0  0  0
   -7.4831   -0.4957    1.0720 H   0  0  0  0  0  0  0  0  0  0  0  0
   -5.1374   -1.1409    1.4128 H   0  0  0  0  0  0  0  0  0  0  0  0
   -2.4440    0.7240   -2.6341 H   0  0  0  0  0  0  0  0  0  0  0  0
   -3.4114    1.2836   -1.2370 H   0  0  0  0  0  0  0  0  0  0  0  0
   -0.1330    1.2267   -2.7788 H   0  0  0  0  0  0  0  0  0  0  0  0
    0.7164    2.1020   -1.4421 H   0  0  0  0  0  0  0  0  0  0  0  0
   -3.6000    6.5349    1.4358 H   0  0  0  0  0  0  0  0  0  0  0  0
   -4.4261    3.1387   -0.7583 H   0  0  0  0  0  0  0  0  0  0  0  0
    3.7722   -1.4109    0.3532 H   0  0  0  0  0  0  0  0  0  0  0  0
    5.2409    0.2668   -1.6105 H   0  0  0  0  0  0  0  0  0  0  0  0
    5.1521   -0.1271    2.1612 H   0  0  0  0  0  0  0  0  0  0  0  0
    6.4643    1.5081    3.5441 H   0  0  0  0  0  0  0  0  0  0  0  0
    7.9838    3.1408    2.4982 H   0  0  0  0  0  0  0  0  0  0  0  0
    8.2167    3.1826    0.0348 H   0  0  0  0  0  0  0  0  0  0  0  0
    6.9656    1.6269   -1.3010 H   0  0  0  0  0  0  0  0  0  0  0  0
    7.1950   -1.3178   -0.6145 H   0  0  0  0  0  0  0  0  0  0  0  0
    5.7771   -2.2938   -0.1029 H   0  0  0  0  0  0  0  0  0  0  0  0
    6.0393   -1.9013   -1.8524 H   0  0  0  0  0  0  0  0  0  0  0  0
  1  2  1  0
  2  3  2  0
  3  4  1  0
  4  5  2  0
  5  6  1  0
  6  7  2  0
  5  8  1  0
  8  9  1  0
  9 10  2  0
 10 11  1  0
 11 12  2  0
 12 13  1  0
 13 14  2  0
 14 15  1  0
 15 16  2  0
 16 17  1  0
 17 18  2  0
 18 19  1  0
 19 20  2  0
 18 21  1  0
 13 22  1  0
 22 23  1  0
 23 24  1  0
 23 25  1  0
 25 26  2  0
 25 27  1  0
 27 28  2  0
 28 29  1  0
 29 30  2  0
 30 31  1  0
 10 32  1  0
 32 33  2  0
 32 34  1  0
 34 35  1  0
 35 36  1  0
 36 37  2  0
 37 38  1  0
 38 39  2  0
 39 40  1  0
 40 41  2  0
 35 42  1  0
  7  2  1  0
 12  8  1  0
 20 15  1  0
 31 27  1  0
 41 36  1  0
 24 11  1  0
  3 43  1  0
  4 44  1  0
  6 45  1  0
  7 46  1  0
 14 47  1  0
 16 48  1  0
 17 49  1  0
 19 50  1  0
 20 51  1  0
 22 52  1  0
 22 53  1  0
 24 54  1  0
 24 55  1  0
 29 56  1  0
 31 57  1  0
 34 58  1  0
 35 59  1  6
 37 60  1  0
 38 61  1  0
 39 62  1  0
 40 63  1  0
 41 64  1  0
 42 65  1  0
 42 66  1  0
 42 67  1  0
M  END
>  <Ligand ID>  (1) 
LIG0005408

>  <Ligand>  (1) 
CHEMBL3977295

>  <SMILES>  (1) 
Clc1ccc(cc1)n1nc(c2c1/C(=C/c1ccc(cc1)F)/CN(C2)C(=O)c1ncn[nH]1)C(=O)N[C@@H](c1ccccc1)C

>  <CID>  (1) 
134152389.0

>  <ChEMBL ID>  (1) 
nan

>  <InChiKey>  (1) 
QSOFEUWMAZQPQA-QTCOBDOFSA-N

>  <InChi>  (1) 
InChI=1S/C31H25ClFN7O2/c1-19(21-5-3-2-4-6-21)36-30(41)27-26-17-39(31(42)29-34-18-35-37-29)16-22(15-20-7-11-24(33)12-8-20)28(26)40(38-27)25-13-9-23(32)10-14-25/h2-15,18-19H,16-17H2,1H3,(H,36,41)(H,34,35,37)/b22-15+/t19-/m1/s1

>  <IUPAC Name>  (1) 
(7E)-1-(4-chlorophenyl)-7-[(4-fluorophenyl)methylidene]-N-[(1R)-1-phenylethyl]-5-(1H-1,2,4-triazole-5-carbonyl)-4,6-dihydropyrazolo[4,3-c]pyridine-3-carboxamide

$$$$
