
     RDKit          3D

 22 22  0  0  0  0  0  0  0  0999 V2000
    2.9800   -0.4867   -0.0657 C   0  0  0  0  0  0  0  0  0  0  0  0
    1.5315   -0.8008    0.0132 C   0  0  0  0  0  0  0  0  0  0  0  0
    0.6462    0.3695   -0.0269 C   0  0  0  0  0  0  0  0  0  0  0  0
    1.1122    1.6308   -0.2166 N   0  0  0  0  0  0  0  0  0  0  0  0
    0.2471    2.6613   -0.2582 C   0  0  0  0  0  0  0  0  0  0  0  0
   -1.0946    2.4627   -0.1135 C   0  0  0  0  0  0  0  0  0  0  0  0
   -1.5876    1.2064    0.0802 N   0  0  0  0  0  0  0  0  0  0  0  0
   -0.7170    0.1770    0.1219 C   0  0  0  0  0  0  0  0  0  0  0  0
   -1.2076   -1.2101    0.3528 C   0  0  0  0  0  0  0  0  0  0  0  0
   -2.6485   -1.3456   -0.0179 C   0  0  0  0  0  0  0  0  0  0  0  0
    3.5209   -1.2758    0.5314 H   0  0  0  0  0  0  0  0  0  0  0  0
    3.2787    0.4911    0.3557 H   0  0  0  0  0  0  0  0  0  0  0  0
    3.3814   -0.5686   -1.1068 H   0  0  0  0  0  0  0  0  0  0  0  0
    1.2840   -1.3868   -0.9206 H   0  0  0  0  0  0  0  0  0  0  0  0
    1.2247   -1.4067    0.8983 H   0  0  0  0  0  0  0  0  0  0  0  0
    0.5927    3.6746   -0.4080 H   0  0  0  0  0  0  0  0  0  0  0  0
   -1.7811    3.2728   -0.1489 H   0  0  0  0  0  0  0  0  0  0  0  0
   -0.6073   -1.9677   -0.1751 H   0  0  0  0  0  0  0  0  0  0  0  0
   -1.0774   -1.3728    1.4652 H   0  0  0  0  0  0  0  0  0  0  0  0
   -2.9041   -0.5874   -0.7888 H   0  0  0  0  0  0  0  0  0  0  0  0
   -3.2641   -1.2063    0.9037 H   0  0  0  0  0  0  0  0  0  0  0  0
   -2.9099   -2.3310   -0.4752 H   0  0  0  0  0  0  0  0  0  0  0  0
  1  2  1  0
  2  3  1  0
  3  4  2  0
  4  5  1  0
  5  6  2  0
  6  7  1  0
  7  8  2  0
  8  9  1  0
  9 10  1  0
  8  3  1  0
  1 11  1  0
  1 12  1  0
  1 13  1  0
  2 14  1  0
  2 15  1  0
  5 16  1  0
  6 17  1  0
  9 18  1  0
  9 19  1  0
 10 20  1  0
 10 21  1  0
 10 22  1  0
M  END
>  <Ligand ID>  (1) 
LIG0000154

>  <Ligand>  (1) 
2,3-Diethylpyrazine

>  <SMILES>  (1) 
CCc1nccnc1CC

>  <CID>  (1) 
27458.0

>  <ChEMBL ID>  (1) 
nan

>  <InChiKey>  (1) 
GZXXANJCCWGCSV-UHFFFAOYSA-N

>  <InChi>  (1) 
InChI=1S/C8H12N2/c1-3-7-8(4-2)10-6-5-9-7/h5-6H,3-4H2,1-2H3

>  <IUPAC Name>  (1) 
2,3-diethylpyrazine

$$$$
