
     RDKit          3D

197204  0  0  0  0  0  0  0  0999 V2000
    8.4450   -3.2769   -4.5475 N   0  0  0  0  0  0  0  0  0  0  0  0
    8.2380   -2.0222   -3.9317 C   0  0  0  0  0  0  0  0  0  0  0  0
    7.0824   -1.4792   -3.7965 N   0  0  0  0  0  0  0  0  0  0  0  0
    5.8843   -2.1702   -4.2980 C   0  0  0  0  0  0  0  0  0  0  0  0
    5.0628   -2.6344   -3.0692 C   0  0  0  0  0  0  0  0  0  0  0  0
    4.6606   -1.4432   -2.2546 C   0  0  0  0  0  0  0  0  0  0  0  0
    3.8794   -1.7120   -1.0230 C   0  0  2  0  0  0  0  0  0  0  0  0
    2.5882   -2.2733   -1.0661 N   0  0  0  0  0  0  0  0  0  0  0  0
    1.7821   -2.6067   -2.1951 C   0  0  0  0  0  0  0  0  0  0  0  0
    2.2002   -2.2875   -3.2853 O   0  0  0  0  0  0  0  0  0  0  0  0
    0.4787   -3.3029   -2.0873 C   0  0  1  0  0  0  0  0  0  0  0  0
    0.4004   -4.4794   -2.9751 C   0  0  0  0  0  0  0  0  0  0  0  0
    1.3342   -5.5742   -2.8769 C   0  0  0  0  0  0  0  0  0  0  0  0
    2.4927   -5.5065   -3.6832 C   0  0  0  0  0  0  0  0  0  0  0  0
    3.4101   -6.5251   -3.6598 C   0  0  0  0  0  0  0  0  0  0  0  0
    3.2991   -7.6477   -2.8936 C   0  0  0  0  0  0  0  0  0  0  0  0
    2.1496   -7.7237   -2.0883 C   0  0  0  0  0  0  0  0  0  0  0  0
    1.2375   -6.7099   -2.1114 C   0  0  0  0  0  0  0  0  0  0  0  0
    0.0290   -3.5032   -0.7147 N   0  0  0  0  0  0  0  0  0  0  0  0
   -1.2981   -3.1399   -0.4173 C   0  0  0  0  0  0  0  0  0  0  0  0
   -1.9856   -2.7194   -1.3705 O   0  0  0  0  0  0  0  0  0  0  0  0
   -1.9941   -3.1881    0.9075 C   0  0  2  0  0  0  0  0  0  0  0  0
   -2.1133   -4.5030    1.5510 C   0  0  0  0  0  0  0  0  0  0  0  0
   -0.8871   -5.1829    1.8666 C   0  0  0  0  0  0  0  0  0  0  0  0
   -0.1476   -6.0672    1.1730 N   0  0  0  0  0  0  0  0  0  0  0  0
    0.9190   -6.4463    1.9057 C   0  0  0  0  0  0  0  0  0  0  0  0
    0.8922   -5.8192    3.0842 N   0  0  0  0  0  0  0  0  0  0  0  0
   -0.1995   -5.0447    3.0780 C   0  0  0  0  0  0  0  0  0  0  0  0
   -3.3505   -2.6146    0.6971 N   0  0  0  0  0  0  0  0  0  0  0  0
   -3.6809   -1.2735    0.4917 C   0  0  0  0  0  0  0  0  0  0  0  0
   -2.7276   -0.4675    0.4056 O   0  0  0  0  0  0  0  0  0  0  0  0
   -5.0867   -0.8735    0.3793 C   0  0  1  0  0  0  0  0  0  0  0  0
   -5.8767   -1.9572    1.0194 N   0  0  0  0  0  0  0  0  0  0  0  0
   -6.7991   -2.8086    0.4347 C   0  0  0  0  0  0  0  0  0  0  0  0
   -7.1527   -2.8593   -0.7643 O   0  0  0  0  0  0  0  0  0  0  0  0
   -7.4582   -3.7950    1.3891 C   0  0  2  0  0  0  0  0  0  0  0  0
   -6.3936   -4.7980    1.8091 C   0  0  0  0  0  0  0  0  0  0  0  0
   -6.9023   -5.7842    2.7810 C   0  0  0  0  0  0  0  0  0  0  0  0
   -6.7119   -5.4758    4.1341 C   0  0  0  0  0  0  0  0  0  0  0  0
   -7.1637   -6.3276    5.1267 C   0  0  0  0  0  0  0  0  0  0  0  0
   -7.7968   -7.4675    4.7286 C   0  0  0  0  0  0  0  0  0  0  0  0
   -8.0152   -7.8266    3.4056 C   0  0  0  0  0  0  0  0  0  0  0  0
   -7.5563   -6.9639    2.4011 C   0  0  0  0  0  0  0  0  0  0  0  0
   -8.2724   -8.3667    5.7064 O   0  0  0  0  0  0  0  0  0  0  0  0
   -8.5758   -4.4393    0.7763 N   0  0  0  0  0  0  0  0  0  0  0  0
   -5.5679    0.3568    0.9976 C   0  0  0  0  0  0  0  0  0  0  0  0
   -5.1819    1.6946    0.7453 C   0  0  0  0  0  0  0  0  0  0  0  0
   -4.2255    2.1947    1.3880 O   0  0  0  0  0  0  0  0  0  0  0  0
   -5.6710    2.7010   -0.1638 N   0  0  0  0  0  0  0  0  0  0  0  0
   -6.6076    2.2562   -1.1616 C   0  0  2  0  0  0  0  0  0  0  0  0
   -7.8472    1.7240   -0.6673 C   0  0  0  0  0  0  0  0  0  0  0  0
   -8.3241    1.9700    0.5179 O   0  0  0  0  0  0  0  0  0  0  0  0
   -8.7535    0.8504   -1.3814 N   0  0  0  0  0  0  0  0  0  0  0  0
   -5.9500    1.5581   -2.2798 C   0  0  0  0  0  0  0  0  0  0  0  0
   -6.8933    1.0721   -3.2765 C   0  0  0  0  0  0  0  0  0  0  0  0
   -7.4366    1.9649   -4.2043 C   0  0  0  0  0  0  0  0  0  0  0  0
   -8.3003    1.5046   -5.1830 C   0  0  0  0  0  0  0  0  0  0  0  0
   -8.6038    0.1700   -5.2172 C   0  0  0  0  0  0  0  0  0  0  0  0
   -8.0799   -0.7535   -4.3095 C   0  0  0  0  0  0  0  0  0  0  0  0
   -7.2293   -0.2562   -3.3579 C   0  0  0  0  0  0  0  0  0  0  0  0
   -9.4643   -0.3342   -6.1805 O   0  0  0  0  0  0  0  0  0  0  0  0
   -5.2599    4.0918   -0.0500 C   0  0  2  0  0  0  0  0  0  0  0  0
   -5.7959    4.9678   -1.1572 C   0  0  0  0  0  0  0  0  0  0  0  0
   -3.9320    4.3435    0.3679 N   0  0  0  0  0  0  0  0  0  0  0  0
   -2.7609    4.3319   -0.4855 C   0  0  0  0  0  0  0  0  0  0  0  0
   -3.0010    4.0605   -1.6667 O   0  0  0  0  0  0  0  0  0  0  0  0
   -1.4255    4.6374    0.0916 C   0  0  1  0  0  0  0  0  0  0  0  0
   -0.3751    4.6783   -0.8916 N   0  0  0  0  0  0  0  0  0  0  0  0
    0.9753    4.2477   -0.6028 C   0  0  0  0  0  0  0  0  0  0  0  0
    1.1362    3.8565    0.5571 O   0  0  0  0  0  0  0  0  0  0  0  0
    2.0474    4.2809   -1.6070 C   0  0  1  0  0  0  0  0  0  0  0  0
    3.3059    3.7837   -1.1215 N   0  0  0  0  0  0  0  0  0  0  0  0
    4.4930    4.6436   -1.0168 C   0  0  0  0  0  0  0  0  0  0  0  0
    4.2728    5.7999   -1.3804 O   0  0  0  0  0  0  0  0  0  0  0  0
    5.7418    4.0703   -0.5198 C   0  0  1  0  0  0  0  0  0  0  0  0
    5.6438    2.6263   -0.2242 N   0  0  0  0  0  0  0  0  0  0  0  0
    5.7293    2.1409    1.1121 C   0  0  0  0  0  0  0  0  0  0  0  0
    5.8589    3.0235    1.9799 O   0  0  0  0  0  0  0  0  0  0  0  0
    5.6729    0.7084    1.5020 C   0  0  1  0  0  0  0  0  0  0  0  0
    5.3867   -0.1183    0.3102 N   0  0  0  0  0  0  0  0  0  0  0  0
    4.1923   -0.8396    0.1064 C   0  0  0  0  0  0  0  0  0  0  0  0
    3.3396   -0.6894    1.0056 O   0  0  0  0  0  0  0  0  0  0  0  0
    7.1219    0.3162    1.8124 C   0  0  0  0  0  0  0  0  0  0  0  0
    7.6777    1.1585    2.8603 C   0  0  0  0  0  0  0  0  0  0  0  0
    8.3743    2.2973    2.4759 C   0  0  0  0  0  0  0  0  0  0  0  0
    8.9586    3.1747    3.3431 C   0  0  0  0  0  0  0  0  0  0  0  0
    8.8632    2.9358    4.6889 C   0  0  0  0  0  0  0  0  0  0  0  0
    8.1761    1.8135    5.1171 C   0  0  0  0  0  0  0  0  0  0  0  0
    7.5792    0.9181    4.2182 C   0  0  0  0  0  0  0  0  0  0  0  0
    8.1109    1.6236    6.4820 C   0  0  0  0  0  0  0  0  0  0  0  0
    8.6879    2.4853    7.3978 C   0  0  0  0  0  0  0  0  0  0  0  0
    9.3656    3.5967    6.9142 C   0  0  0  0  0  0  0  0  0  0  0  0
    9.4540    3.8228    5.5763 C   0  0  0  0  0  0  0  0  0  0  0  0
    6.8758    4.3891   -1.4234 C   0  0  0  0  0  0  0  0  0  0  0  0
    7.0573    5.8518   -1.5162 C   0  0  0  0  0  0  0  0  0  0  0  0
    6.5362    6.6124   -2.3569 O   0  0  0  0  0  0  0  0  0  0  0  0
    7.9373    6.4457   -0.5264 N   0  0  0  0  0  0  0  0  0  0  0  0
    1.6139    3.6090   -2.8871 C   0  0  0  0  0  0  0  0  0  0  0  0
   -1.5767    6.1249    0.5314 C   0  0  0  0  0  0  0  0  0  0  0  0
   -0.3388    6.6391    1.1473 C   0  0  0  0  0  0  0  0  0  0  0  0
    0.6815    7.2531    0.4653 C   0  0  0  0  0  0  0  0  0  0  0  0
    1.8324    7.7171    1.0915 C   0  0  0  0  0  0  0  0  0  0  0  0
    1.9338    7.5431    2.4530 C   0  0  0  0  0  0  0  0  0  0  0  0
    0.9293    6.9292    3.1844 C   0  0  0  0  0  0  0  0  0  0  0  0
   -0.1879    6.4874    2.5272 C   0  0  0  0  0  0  0  0  0  0  0  0
   -6.0871    4.6087    1.1503 C   0  0  0  0  0  0  0  0  0  0  0  0
   -5.4775    4.9232    2.2096 O   0  0  0  0  0  0  0  0  0  0  0  0
   -7.4484    4.7321    1.0747 O   0  0  0  0  0  0  0  0  0  0  0  0
    9.3638   -1.3150   -3.4045 N   0  0  0  0  0  0  0  0  0  0  0  0
    8.9457   -4.0332   -4.0346 H   0  0  0  0  0  0  0  0  0  0  0  0
    8.1252   -3.5177   -5.5079 H   0  0  0  0  0  0  0  0  0  0  0  0
    5.3306   -1.4673   -4.9132 H   0  0  0  0  0  0  0  0  0  0  0  0
    6.2444   -3.0392   -4.8812 H   0  0  0  0  0  0  0  0  0  0  0  0
    4.3833   -3.3985   -3.3294 H   0  0  0  0  0  0  0  0  0  0  0  0
    5.8892   -3.2061   -2.4819 H   0  0  0  0  0  0  0  0  0  0  0  0
    4.1791   -0.6448   -2.9060 H   0  0  0  0  0  0  0  0  0  0  0  0
    5.6112   -0.9612   -1.9655 H   0  0  0  0  0  0  0  0  0  0  0  0
    4.4936   -2.7114   -0.6933 H   0  0  0  0  0  0  0  0  0  0  0  0
    2.1131   -2.4866   -0.1642 H   0  0  0  0  0  0  0  0  0  0  0  0
   -0.2608   -2.5543   -2.5814 H   0  0  0  0  0  0  0  0  0  0  0  0
    0.4023   -4.0711   -4.0438 H   0  0  0  0  0  0  0  0  0  0  0  0
   -0.6574   -4.9195   -2.9246 H   0  0  0  0  0  0  0  0  0  0  0  0
    2.6701   -4.6708   -4.3313 H   0  0  0  0  0  0  0  0  0  0  0  0
    4.2958   -6.4401   -4.2860 H   0  0  0  0  0  0  0  0  0  0  0  0
    4.0384   -8.4265   -2.9077 H   0  0  0  0  0  0  0  0  0  0  0  0
    2.0846   -8.6136   -1.4922 H   0  0  0  0  0  0  0  0  0  0  0  0
    0.3665   -6.8139   -1.4819 H   0  0  0  0  0  0  0  0  0  0  0  0
    0.6116   -3.8555    0.0216 H   0  0  0  0  0  0  0  0  0  0  0  0
   -1.4709   -2.4581    1.5491 H   0  0  0  0  0  0  0  0  0  0  0  0
   -2.7418   -5.2190    0.9293 H   0  0  0  0  0  0  0  0  0  0  0  0
   -2.6775   -4.3309    2.5156 H   0  0  0  0  0  0  0  0  0  0  0  0
    1.6995   -7.1515    1.6137 H   0  0  0  0  0  0  0  0  0  0  0  0
    1.5497   -5.8817    3.8836 H   0  0  0  0  0  0  0  0  0  0  0  0
   -0.5017   -4.4030    3.9139 H   0  0  0  0  0  0  0  0  0  0  0  0
   -4.1069   -3.2955    0.6938 H   0  0  0  0  0  0  0  0  0  0  0  0
   -5.3564   -1.0253   -0.6979 H   0  0  0  0  0  0  0  0  0  0  0  0
   -5.6542   -2.0485    2.0562 H   0  0  0  0  0  0  0  0  0  0  0  0
   -7.7741   -3.2065    2.2584 H   0  0  0  0  0  0  0  0  0  0  0  0
   -6.0094   -5.3497    0.9225 H   0  0  0  0  0  0  0  0  0  0  0  0
   -5.5538   -4.2751    2.2751 H   0  0  0  0  0  0  0  0  0  0  0  0
   -6.1928   -4.5567    4.4257 H   0  0  0  0  0  0  0  0  0  0  0  0
   -6.9916   -6.0436    6.1614 H   0  0  0  0  0  0  0  0  0  0  0  0
   -8.5186   -8.7242    3.1521 H   0  0  0  0  0  0  0  0  0  0  0  0
   -7.7011   -7.1914    1.3583 H   0  0  0  0  0  0  0  0  0  0  0  0
   -8.7933   -7.9470    6.4911 H   0  0  0  0  0  0  0  0  0  0  0  0
   -9.3241   -4.7119    1.4470 H   0  0  0  0  0  0  0  0  0  0  0  0
   -8.9140   -4.0335   -0.1042 H   0  0  0  0  0  0  0  0  0  0  0  0
   -5.2824    0.1876    2.1469 H   0  0  0  0  0  0  0  0  0  0  0  0
   -6.6895    0.2413    1.1342 H   0  0  0  0  0  0  0  0  0  0  0  0
   -6.9063    3.2804   -1.7148 H   0  0  0  0  0  0  0  0  0  0  0  0
   -9.3298    1.1766   -2.1789 H   0  0  0  0  0  0  0  0  0  0  0  0
   -8.7772   -0.1321   -0.9880 H   0  0  0  0  0  0  0  0  0  0  0  0
   -5.1998    0.7779   -2.0049 H   0  0  0  0  0  0  0  0  0  0  0  0
   -5.3600    2.3805   -2.8509 H   0  0  0  0  0  0  0  0  0  0  0  0
   -7.1930    3.0309   -4.1777 H   0  0  0  0  0  0  0  0  0  0  0  0
   -8.7510    2.1653   -5.9265 H   0  0  0  0  0  0  0  0  0  0  0  0
   -8.3529   -1.8006   -4.3878 H   0  0  0  0  0  0  0  0  0  0  0  0
   -6.7830   -0.9196   -2.6284 H   0  0  0  0  0  0  0  0  0  0  0  0
  -10.4573   -0.1518   -6.1373 H   0  0  0  0  0  0  0  0  0  0  0  0
   -5.4453    4.7326   -2.1539 H   0  0  0  0  0  0  0  0  0  0  0  0
   -6.8880    5.1558   -1.0516 H   0  0  0  0  0  0  0  0  0  0  0  0
   -5.3606    5.9935   -0.9165 H   0  0  0  0  0  0  0  0  0  0  0  0
   -3.6883    4.5512    1.3499 H   0  0  0  0  0  0  0  0  0  0  0  0
   -1.1696    4.0489    0.9841 H   0  0  0  0  0  0  0  0  0  0  0  0
   -0.5176    5.0117   -1.8410 H   0  0  0  0  0  0  0  0  0  0  0  0
    2.1903    5.3616   -1.8711 H   0  0  0  0  0  0  0  0  0  0  0  0
    3.4750    2.8332   -0.8204 H   0  0  0  0  0  0  0  0  0  0  0  0
    5.9670    4.5800    0.4652 H   0  0  0  0  0  0  0  0  0  0  0  0
    5.5118    1.9119   -0.9411 H   0  0  0  0  0  0  0  0  0  0  0  0
    4.9841    0.5787    2.3139 H   0  0  0  0  0  0  0  0  0  0  0  0
    6.1078   -0.1615   -0.3885 H   0  0  0  0  0  0  0  0  0  0  0  0
    7.1571   -0.7684    2.0823 H   0  0  0  0  0  0  0  0  0  0  0  0
    7.7329    0.4031    0.8761 H   0  0  0  0  0  0  0  0  0  0  0  0
    8.4715    2.5082    1.4021 H   0  0  0  0  0  0  0  0  0  0  0  0
    9.4797    4.0229    2.9708 H   0  0  0  0  0  0  0  0  0  0  0  0
    7.0516    0.0479    4.5739 H   0  0  0  0  0  0  0  0  0  0  0  0
    7.5803    0.7610    6.8544 H   0  0  0  0  0  0  0  0  0  0  0  0
    8.6484    2.3538    8.4575 H   0  0  0  0  0  0  0  0  0  0  0  0
    9.8323    4.3007    7.5992 H   0  0  0  0  0  0  0  0  0  0  0  0
    9.9847    4.6871    5.2341 H   0  0  0  0  0  0  0  0  0  0  0  0
    6.6572    4.0318   -2.4691 H   0  0  0  0  0  0  0  0  0  0  0  0
    7.8198    3.9383   -1.0456 H   0  0  0  0  0  0  0  0  0  0  0  0
    7.9947    7.5055   -0.4487 H   0  0  0  0  0  0  0  0  0  0  0  0
    8.5116    5.8628    0.1141 H   0  0  0  0  0  0  0  0  0  0  0  0
    0.8585    4.2582   -3.4193 H   0  0  0  0  0  0  0  0  0  0  0  0
    1.0986    2.6690   -2.6289 H   0  0  0  0  0  0  0  0  0  0  0  0
    2.4665    3.3360   -3.5371 H   0  0  0  0  0  0  0  0  0  0  0  0
   -2.3935    6.2206    1.2840 H   0  0  0  0  0  0  0  0  0  0  0  0
   -1.8832    6.7591   -0.3152 H   0  0  0  0  0  0  0  0  0  0  0  0
    0.5987    7.3984   -0.6196 H   0  0  0  0  0  0  0  0  0  0  0  0
    2.6376    8.2111    0.5240 H   0  0  0  0  0  0  0  0  0  0  0  0
    2.7865    7.8762    3.0226 H   0  0  0  0  0  0  0  0  0  0  0  0
    0.9883    6.7834    4.2554 H   0  0  0  0  0  0  0  0  0  0  0  0
   -0.9935    6.0049    3.0772 H   0  0  0  0  0  0  0  0  0  0  0  0
   -8.0551    4.8785    1.8878 H   0  0  0  0  0  0  0  0  0  0  0  0
    9.3032   -0.3488   -3.0594 H   0  0  0  0  0  0  0  0  0  0  0  0
   10.3042   -1.7765   -3.3520 H   0  0  0  0  0  0  0  0  0  0  0  0
  1  2  1  0
  2  3  2  3
  3  4  1  0
  4  5  1  0
  5  6  1  0
  6  7  1  0
  7  8  1  0
  8  9  1  0
  9 10  2  0
  9 11  1  0
 11 12  1  0
 12 13  1  0
 13 14  2  0
 14 15  1  0
 15 16  2  0
 16 17  1  0
 17 18  2  0
 11 19  1  0
 19 20  1  0
 20 21  2  0
 20 22  1  0
 22 23  1  0
 23 24  1  0
 24 25  1  0
 25 26  2  0
 26 27  1  0
 27 28  1  0
 22 29  1  0
 29 30  1  0
 30 31  2  0
 30 32  1  0
 32 33  1  0
 33 34  1  0
 34 35  2  0
 34 36  1  0
 36 37  1  0
 37 38  1  0
 38 39  2  0
 39 40  1  0
 40 41  2  0
 41 42  1  0
 42 43  2  0
 41 44  1  0
 36 45  1  0
 32 46  1  0
 46 47  1  0
 47 48  2  0
 47 49  1  0
 49 50  1  0
 50 51  1  0
 51 52  2  0
 51 53  1  0
 50 54  1  0
 54 55  1  0
 55 56  2  0
 56 57  1  0
 57 58  2  0
 58 59  1  0
 59 60  2  0
 58 61  1  0
 49 62  1  0
 62 63  1  6
 62 64  1  0
 64 65  1  0
 65 66  2  0
 65 67  1  0
 67 68  1  0
 68 69  1  0
 69 70  2  0
 69 71  1  0
 71 72  1  0
 72 73  1  0
 73 74  2  0
 73 75  1  0
 75 76  1  0
 76 77  1  0
 77 78  2  0
 77 79  1  0
 79 80  1  0
 80 81  1  0
 81 82  2  0
 79 83  1  0
 83 84  1  0
 84 85  2  0
 85 86  1  0
 86 87  2  0
 87 88  1  0
 88 89  2  0
 88 90  1  0
 90 91  2  0
 91 92  1  0
 92 93  2  0
 75 94  1  0
 94 95  1  0
 95 96  2  0
 95 97  1  0
 71 98  1  0
 67 99  1  0
 99100  1  0
100101  2  0
101102  1  0
102103  2  0
103104  1  0
104105  2  0
 62106  1  0
106107  2  0
106108  1  0
  2109  1  0
 81  7  1  0
 89 84  1  0
105100  1  0
 18 13  1  0
 28 24  2  0
 43 38  1  0
 60 55  1  0
 93 87  1  0
  1110  1  0
  1111  1  0
  4112  1  0
  4113  1  0
  5114  1  0
  5115  1  0
  6116  1  0
  6117  1  0
  7118  1  1
  8119  1  0
 11120  1  6
 12121  1  0
 12122  1  0
 14123  1  0
 15124  1  0
 16125  1  0
 17126  1  0
 18127  1  0
 19128  1  0
 22129  1  1
 23130  1  0
 23131  1  0
 26132  1  0
 27133  1  0
 28134  1  0
 29135  1  0
 32136  1  6
 33137  1  0
 36138  1  1
 37139  1  0
 37140  1  0
 39141  1  0
 40142  1  0
 42143  1  0
 43144  1  0
 44145  1  0
 45146  1  0
 45147  1  0
 46148  1  0
 46149  1  0
 50150  1  6
 53151  1  0
 53152  1  0
 54153  1  0
 54154  1  0
 56155  1  0
 57156  1  0
 59157  1  0
 60158  1  0
 61159  1  0
 63160  1  0
 63161  1  0
 63162  1  0
 64163  1  0
 67164  1  1
 68165  1  0
 71166  1  6
 72167  1  0
 75168  1  1
 76169  1  0
 79170  1  1
 80171  1  0
 83172  1  0
 83173  1  0
 85174  1  0
 86175  1  0
 89176  1  0
 90177  1  0
 91178  1  0
 92179  1  0
 93180  1  0
 94181  1  0
 94182  1  0
 97183  1  0
 97184  1  0
 98185  1  0
 98186  1  0
 98187  1  0
 99188  1  0
 99189  1  0
101190  1  0
102191  1  0
103192  1  0
104193  1  0
105194  1  0
108195  1  0
109196  1  0
109197  1  0
M  END
>  <Ligand ID>  (1) 
LIG0001126

>  <Ligand>  (1) 
CHEMBL2369963

>  <SMILES>  (1) 
NC(=NCCC[C@@H]1NC(=O)[C@@H](Cc2ccccc2)NC(=O)[C@H](Cc2nc[nH]c2)NC(=O)[C@@H](NC(=O)[C@H](Cc2ccc(cc2)O)N)CC(=O)N([C@H](C(=O)N)Cc2ccc(cc2)O)[C@](C)(NC(=O)[C@@H](NC(=O)[C@@H](NC(=O)[C@@H](NC(=O)[C@@H](NC1=O)Cc1ccc2c(c1)cccc2)CC(=O)N)C)Cc1ccccc1)C(=O)O)N

>  <CID>  (1) 
73351535.0

>  <ChEMBL ID>  (1) 
nan

>  <InChiKey>  (1) 
VKIVIEKNSBJNLA-MJZCSTACSA-N

>  <InChi>  (1) 
InChI=1S/C75H88N18O16/c1-41-64(99)86-56(33-43-14-7-4-8-15-43)72(107)92-75(2,73(108)109)93(60(63(78)98)35-45-22-27-51(95)28-23-45)62(97)38-59(87-65(100)52(76)31-44-20-25-50(94)26-21-44)71(106)90-57(36-49-39-81-40-83-49)70(105)89-54(32-42-12-5-3-6-13-42)68(103)85-53(18-11-29-82-74(79)80)66(101)88-55(69(104)91-58(37-61(77)96)67(102)84-41)34-46-19-24-47-16-9-10-17-48(47)30-46/h3-10,12-17,19-28,30,39-41,52-60,94-95H,11,18,29,31-38,76H2,1-2H3,(H2,77,96)(H2,78,98)(H,81,83)(H,84,102)(H,85,103)(H,86,99)(H,87,100)(H,88,101)(H,89,105)(H,90,106)(H,91,104)(H,92,107)(H,108,109)(H4,79,80,82)/t41-,52-,53-,54+,55-,56-,57-,58-,59-,60-,75-/m0/s1

>  <IUPAC Name>  (1) 
(2S,5S,8S,11S,14S,17S,20R,23S,26S)-1-[(2S)-1-amino-3-(4-hydroxyphenyl)-1-oxopropan-2-yl]-26-[[(2S)-2-amino-3-(4-hydroxyphenyl)propanoyl]amino]-11-(2-amino-2-oxoethyl)-5,20-dibenzyl-17-[3-(diaminomethylideneamino)propyl]-23-(1H-imidazol-4-ylmethyl)-2,8-dimethyl-14-(naphthalen-2-ylmethyl)-4,7,10,13,16,19,22,25,28-nonaoxo-1,3,6,9,12,15,18,21,24-nonazacyclooctacosane-2-carboxylic acid

$$$$
