
     RDKit          3D

 67 74  0  0  0  0  0  0  0  0999 V2000
    2.4040    1.3988   -1.4750 O   0  0  0  0  0  0  0  0  0  0  0  0
    2.4886    0.1625   -1.1340 C   0  0  0  0  0  0  0  0  0  0  0  0
    1.2543   -0.4761   -0.7683 C   0  0  0  0  0  0  0  0  0  0  0  0
    0.1502    0.2518   -0.8178 N   0  0  0  0  0  0  0  0  0  0  0  0
   -1.0545   -0.5364   -0.8040 C   0  0  1  0  0  0  0  0  0  0  0  0
   -0.8986   -1.6097   -1.8516 C   0  0  0  0  0  0  0  0  0  0  0  0
    0.2360   -2.5113   -1.4772 C   0  0  0  0  0  0  0  0  0  0  0  0
    1.0544   -1.8792   -0.3331 C   0  0  1  0  0  0  0  0  0  0  0  0
    2.2016   -2.6097   -0.1564 O   0  0  0  0  0  0  0  0  0  0  0  0
    0.1583   -1.9376    0.8961 C   0  0  0  0  0  0  0  0  0  0  0  0
   -1.0835   -1.1726    0.5936 C   0  0  0  0  0  0  0  0  0  0  0  0
   -1.5239   -0.2556    1.6576 C   0  0  0  0  0  0  0  0  0  0  0  0
   -1.9471    1.1228    1.2939 C   0  0  0  0  0  0  0  0  0  0  0  0
   -2.1604    1.3885   -0.0739 N   0  0  0  0  0  0  0  0  0  0  0  0
   -2.3287    0.2114   -0.8991 C   0  0  0  0  0  0  0  0  0  0  0  0
   -3.5485   -0.5411   -0.4007 C   0  0  0  0  0  0  0  0  0  0  0  0
   -3.2929   -1.9549   -0.0718 C   0  0  0  0  0  0  0  0  0  0  0  0
   -2.0497   -2.2771    0.3894 C   0  0  0  0  0  0  0  0  0  0  0  0
   -1.5638   -3.4858    0.7141 C   0  0  0  0  0  0  0  0  0  0  0  0
   -0.2505   -3.2972    1.1182 O   0  0  0  0  0  0  0  0  0  0  0  0
   -2.4483   -4.5537    0.5652 C   0  0  0  0  0  0  0  0  0  0  0  0
   -2.0098   -5.8261    0.8855 O   0  0  0  0  0  0  0  0  0  0  0  0
   -3.7431   -4.2990    0.0985 C   0  0  0  0  0  0  0  0  0  0  0  0
   -4.1726   -3.0022   -0.2225 C   0  0  0  0  0  0  0  0  0  0  0  0
   -3.2104    2.3061   -0.3593 C   0  0  0  0  0  0  0  0  0  0  0  0
   -2.9933    3.7241    0.0324 C   0  0  0  0  0  0  0  0  0  0  0  0
   -2.7563    4.2167    1.3821 C   0  0  0  0  0  0  0  0  0  0  0  0
   -4.1575    4.3644    0.8223 C   0  0  0  0  0  0  0  0  0  0  0  0
    3.7676   -0.3934   -1.1656 N   0  0  0  0  0  0  0  0  0  0  0  0
    4.9781    0.3272   -1.5510 C   0  0  0  0  0  0  0  0  0  0  0  0
    5.4934    1.2213   -0.5133 C   0  0  0  0  0  0  0  0  0  0  0  0
    5.1929    2.5548   -0.3829 C   0  0  0  0  0  0  0  0  0  0  0  0
    5.7113    3.3345    0.6248 C   0  0  0  0  0  0  0  0  0  0  0  0
    6.5648    2.8129    1.5611 C   0  0  0  0  0  0  0  0  0  0  0  0
    6.8767    1.4661    1.4400 C   0  0  0  0  0  0  0  0  0  0  0  0
    6.3578    0.6842    0.4306 C   0  0  0  0  0  0  0  0  0  0  0  0
   -1.8326   -2.1350   -2.0792 H   0  0  0  0  0  0  0  0  0  0  0  0
   -0.6128   -1.0803   -2.7869 H   0  0  0  0  0  0  0  0  0  0  0  0
   -0.0263   -3.5195   -1.1721 H   0  0  0  0  0  0  0  0  0  0  0  0
    0.9966   -2.5882   -2.3106 H   0  0  0  0  0  0  0  0  0  0  0  0
    2.0117   -3.3347    0.4789 H   0  0  0  0  0  0  0  0  0  0  0  0
    0.6712   -1.5436    1.7938 H   0  0  0  0  0  0  0  0  0  0  0  0
   -0.6776   -0.1794    2.3871 H   0  0  0  0  0  0  0  0  0  0  0  0
   -2.3163   -0.7792    2.2577 H   0  0  0  0  0  0  0  0  0  0  0  0
   -1.2204    1.8747    1.6689 H   0  0  0  0  0  0  0  0  0  0  0  0
   -2.9024    1.3311    1.8222 H   0  0  0  0  0  0  0  0  0  0  0  0
   -2.4881    0.5627   -1.9323 H   0  0  0  0  0  0  0  0  0  0  0  0
   -3.9317   -0.0751    0.5295 H   0  0  0  0  0  0  0  0  0  0  0  0
   -4.3886   -0.4318   -1.1419 H   0  0  0  0  0  0  0  0  0  0  0  0
   -2.2395   -6.1803    1.8131 H   0  0  0  0  0  0  0  0  0  0  0  0
   -4.4456   -5.1381   -0.0215 H   0  0  0  0  0  0  0  0  0  0  0  0
   -5.1529   -2.7843   -0.5802 H   0  0  0  0  0  0  0  0  0  0  0  0
   -3.3647    2.2780   -1.4806 H   0  0  0  0  0  0  0  0  0  0  0  0
   -4.2111    1.9272    0.0211 H   0  0  0  0  0  0  0  0  0  0  0  0
   -2.6495    4.4129   -0.8043 H   0  0  0  0  0  0  0  0  0  0  0  0
   -2.2652    5.2211    1.4864 H   0  0  0  0  0  0  0  0  0  0  0  0
   -2.6914    3.6442    2.3029 H   0  0  0  0  0  0  0  0  0  0  0  0
   -4.5514    5.3285    0.5075 H   0  0  0  0  0  0  0  0  0  0  0  0
   -4.9313    3.6760    1.2301 H   0  0  0  0  0  0  0  0  0  0  0  0
    3.8867   -1.3866   -0.8996 H   0  0  0  0  0  0  0  0  0  0  0  0
    5.7232   -0.4371   -1.8526 H   0  0  0  0  0  0  0  0  0  0  0  0
    4.7474    0.8754   -2.4943 H   0  0  0  0  0  0  0  0  0  0  0  0
    4.5370    3.0221   -1.0845 H   0  0  0  0  0  0  0  0  0  0  0  0
    5.4618    4.3876    0.7131 H   0  0  0  0  0  0  0  0  0  0  0  0
    6.9766    3.4223    2.3555 H   0  0  0  0  0  0  0  0  0  0  0  0
    7.5551    1.0459    2.1804 H   0  0  0  0  0  0  0  0  0  0  0  0
    6.6354   -0.3460    0.3909 H   0  0  0  0  0  0  0  0  0  0  0  0
  1  2  2  0
  2  3  1  0
  3  4  2  0
  4  5  1  0
  5  6  1  6
  6  7  1  0
  7  8  1  0
  8  9  1  1
  8 10  1  0
 10 11  1  0
 11 12  1  0
 12 13  1  0
 13 14  1  0
 14 15  1  0
 15 16  1  0
 16 17  1  0
 17 18  1  0
 18 19  2  0
 19 20  1  0
 19 21  1  0
 21 22  1  0
 21 23  2  0
 23 24  1  0
 14 25  1  0
 25 26  1  0
 26 27  1  0
 27 28  1  0
  2 29  1  0
 29 30  1  0
 30 31  1  0
 31 32  2  0
 32 33  1  0
 33 34  2  0
 34 35  1  0
 35 36  2  0
  8  3  1  0
 20 10  1  0
 28 26  1  0
 36 31  1  0
 15  5  1  0
 24 17  2  0
 11  5  1  0
 18 11  1  0
  6 37  1  0
  6 38  1  0
  7 39  1  0
  7 40  1  0
  9 41  1  0
 10 42  1  0
 12 43  1  0
 12 44  1  0
 13 45  1  0
 13 46  1  0
 15 47  1  0
 16 48  1  0
 16 49  1  0
 22 50  1  0
 23 51  1  0
 24 52  1  0
 25 53  1  0
 25 54  1  0
 26 55  1  0
 27 56  1  0
 27 57  1  0
 28 58  1  0
 28 59  1  0
 29 60  1  0
 30 61  1  0
 30 62  1  0
 32 63  1  0
 33 64  1  0
 34 65  1  0
 35 66  1  0
 36 67  1  0
M  END
>  <Ligand ID>  (1) 
LIG0002963

>  <Ligand>  (1) 
CHEMBL3339378

>  <SMILES>  (1) 
O=C(C1=N[C@]23CC[C@]1(O)C1C43CCN(C2Cc2c4c(O1)c(O)cc2)CC1CC1)NCc1ccccc1

>  <CID>  (1) 
118716009.0

>  <ChEMBL ID>  (1) 
nan

>  <InChiKey>  (1) 
MMNHYWPAMYAKGY-SIOBRPEXSA-N

>  <InChi>  (1) 
InChI=1S/C29H31N3O4/c33-20-9-8-19-14-21-29-11-10-28(35,24(31-29)25(34)30-15-17-4-2-1-3-5-17)26-27(29,22(19)23(20)36-26)12-13-32(21)16-18-6-7-18/h1-5,8-9,18,21,26,33,35H,6-7,10-16H2,(H,30,34)/t21?,26?,27?,28-,29-/m1/s1

>  <IUPAC Name>  (1) 
(1S,15R)-N-benzyl-5-(cyclopropylmethyl)-11,15-dihydroxy-13-oxa-5,17-diazahexacyclo[13.2.2.12,8.01,6.02,14.012,20]icosa-8(20),9,11,16-tetraene-16-carboxamide

$$$$
