
     RDKit          3D

 47 51  0  0  0  0  0  0  0  0999 V2000
    5.5378    0.1556   -0.4451 N   0  0  0  0  0  0  0  0  0  0  0  0
    4.1185    0.1472   -0.3276 C   0  0  0  0  0  0  0  0  0  0  0  0
    3.4635   -1.0835   -0.4120 C   0  0  0  0  0  0  0  0  0  0  0  0
    2.0759   -1.1304   -0.3034 C   0  0  0  0  0  0  0  0  0  0  0  0
    1.3589    0.0559   -0.1119 C   0  0  0  0  0  0  0  0  0  0  0  0
    2.0024    1.2605   -0.0303 C   0  0  0  0  0  0  0  0  0  0  0  0
    3.3955    1.3305   -0.1361 C   0  0  0  0  0  0  0  0  0  0  0  0
   -0.1294   -0.0877   -0.0078 C   0  0  0  0  0  0  0  0  0  0  0  0
   -0.8050    1.1499    0.4136 C   0  0  0  0  0  0  0  0  0  0  0  0
   -0.4494    1.8586    1.5423 C   0  0  0  0  0  0  0  0  0  0  0  0
   -1.0824    3.0199    1.9407 C   0  0  0  0  0  0  0  0  0  0  0  0
   -2.1291    3.5390    1.2091 C   0  0  0  0  0  0  0  0  0  0  0  0
   -2.5081    2.8523    0.0766 C   0  0  0  0  0  0  0  0  0  0  0  0
   -1.8716    1.6938   -0.3162 C   0  0  0  0  0  0  0  0  0  0  0  0
   -2.8244    4.7196    1.5440 N   0  0  0  0  0  0  0  0  0  0  0  0
   -0.3930   -1.2214    0.9076 C   0  0  0  0  0  0  0  0  0  0  0  0
   -0.1635   -1.4501    2.2591 C   0  0  0  0  0  0  0  0  0  0  0  0
   -0.5333   -2.6496    2.8703 C   0  0  0  0  0  0  0  0  0  0  0  0
   -1.1419   -3.6580    2.1597 C   0  0  0  0  0  0  0  0  0  0  0  0
   -1.3731   -3.4433    0.8253 C   0  0  0  0  0  0  0  0  0  0  0  0
   -1.0070   -2.2563    0.2218 C   0  0  0  0  0  0  0  0  0  0  0  0
   -1.1660   -1.8587   -1.1719 C   0  0  0  0  0  0  0  0  0  0  0  0
   -0.6474   -0.5884   -1.3172 C   0  0  0  0  0  0  0  0  0  0  0  0
   -0.7004   -0.0392   -2.5949 C   0  0  0  0  0  0  0  0  0  0  0  0
   -1.2372   -0.7063   -3.6721 C   0  0  0  0  0  0  0  0  0  0  0  0
   -1.7557   -1.9792   -3.5176 C   0  0  0  0  0  0  0  0  0  0  0  0
   -1.7154   -2.5478   -2.2614 C   0  0  0  0  0  0  0  0  0  0  0  0
    6.0658   -0.4934    0.1475 H   0  0  0  0  0  0  0  0  0  0  0  0
    5.9588    0.8314   -1.1359 H   0  0  0  0  0  0  0  0  0  0  0  0
    4.0483   -1.9906   -0.5619 H   0  0  0  0  0  0  0  0  0  0  0  0
    1.5885   -2.0952   -0.3714 H   0  0  0  0  0  0  0  0  0  0  0  0
    1.4930    2.1820    0.1136 H   0  0  0  0  0  0  0  0  0  0  0  0
    3.9211    2.2780   -0.0744 H   0  0  0  0  0  0  0  0  0  0  0  0
    0.3641    1.5241    2.1706 H   0  0  0  0  0  0  0  0  0  0  0  0
   -0.7992    3.5778    2.8298 H   0  0  0  0  0  0  0  0  0  0  0  0
   -3.3387    3.2464   -0.5192 H   0  0  0  0  0  0  0  0  0  0  0  0
   -2.2423    1.2264   -1.2166 H   0  0  0  0  0  0  0  0  0  0  0  0
   -3.8303    4.6953    1.8014 H   0  0  0  0  0  0  0  0  0  0  0  0
   -2.3748    5.6664    1.5516 H   0  0  0  0  0  0  0  0  0  0  0  0
    0.3041   -0.7300    2.8936 H   0  0  0  0  0  0  0  0  0  0  0  0
   -0.3555   -2.8312    3.9290 H   0  0  0  0  0  0  0  0  0  0  0  0
   -1.4154   -4.5703    2.6603 H   0  0  0  0  0  0  0  0  0  0  0  0
   -1.8515   -4.2453    0.2778 H   0  0  0  0  0  0  0  0  0  0  0  0
   -0.3005    0.9518   -2.7303 H   0  0  0  0  0  0  0  0  0  0  0  0
   -1.2436   -0.2162   -4.6325 H   0  0  0  0  0  0  0  0  0  0  0  0
   -2.1891   -2.5423   -4.3333 H   0  0  0  0  0  0  0  0  0  0  0  0
   -2.1223   -3.5479   -2.1443 H   0  0  0  0  0  0  0  0  0  0  0  0
  1  2  1  0
  2  3  2  0
  3  4  1  0
  4  5  2  0
  5  6  1  0
  6  7  2  0
  5  8  1  0
  8  9  1  0
  9 10  2  0
 10 11  1  0
 11 12  2  0
 12 13  1  0
 13 14  2  0
 12 15  1  0
  8 16  1  0
 16 17  2  0
 17 18  1  0
 18 19  2  0
 19 20  1  0
 20 21  2  0
 21 22  1  0
 22 23  2  0
 23 24  1  0
 24 25  2  0
 25 26  1  0
 26 27  2  0
  7  2  1  0
 23  8  1  0
 14  9  1  0
 21 16  1  0
 27 22  1  0
  1 28  1  0
  1 29  1  0
  3 30  1  0
  4 31  1  0
  6 32  1  0
  7 33  1  0
 10 34  1  0
 11 35  1  0
 13 36  1  0
 14 37  1  0
 15 38  1  0
 15 39  1  0
 17 40  1  0
 18 41  1  0
 19 42  1  0
 20 43  1  0
 24 44  1  0
 25 45  1  0
 26 46  1  0
 27 47  1  0
M  END
>  <Ligand ID>  (1) 
LIG0002749

>  <Ligand>  (1) 
15499-84-0

>  <SMILES>  (1) 
Nc1ccc(cc1)C1(c2ccc(cc2)N)c2ccccc2c2c1cccc2

>  <CID>  (1) 
631552.0

>  <ChEMBL ID>  (1) 
nan

>  <InChiKey>  (1) 
KIFDSGGWDIVQGN-UHFFFAOYSA-N

>  <InChi>  (1) 
InChI=1S/C25H20N2/c26-19-13-9-17(10-14-19)25(18-11-15-20(27)16-12-18)23-7-3-1-5-21(23)22-6-2-4-8-24(22)25/h1-16H,26-27H2

>  <IUPAC Name>  (1) 
4-[9-(4-aminophenyl)fluoren-9-yl]aniline

$$$$
