
     RDKit          3D

 13 13  0  0  0  0  0  0  0  0999 V2000
   -2.5598    0.9768   -0.3900 S   0  0  0  0  0  0  0  0  0  0  0  0
   -1.6819   -0.6099   -0.3064 C   0  0  0  0  0  0  0  0  0  0  0  0
   -0.2238   -0.3015   -0.2350 C   0  0  0  0  0  0  0  0  0  0  0  0
    0.5201   -0.1054    0.9334 C   0  0  0  0  0  0  0  0  0  0  0  0
    1.8164    0.1535    0.5507 C   0  0  0  0  0  0  0  0  0  0  0  0
    1.8136    0.1058   -0.8254 C   0  0  0  0  0  0  0  0  0  0  0  0
    0.5988   -0.1635   -1.2492 O   0  0  0  0  0  0  0  0  0  0  0  0
   -1.8879    1.8340    0.5230 H   0  0  0  0  0  0  0  0  0  0  0  0
   -2.0173   -1.2213    0.5527 H   0  0  0  0  0  0  0  0  0  0  0  0
   -1.8483   -1.1356   -1.2718 H   0  0  0  0  0  0  0  0  0  0  0  0
    0.1504   -0.1488    1.9340 H   0  0  0  0  0  0  0  0  0  0  0  0
    2.6252    0.3469    1.2446 H   0  0  0  0  0  0  0  0  0  0  0  0
    2.6943    0.2689   -1.4605 H   0  0  0  0  0  0  0  0  0  0  0  0
  1  2  1  0
  2  3  1  0
  3  4  2  0
  4  5  1  0
  5  6  2  0
  6  7  1  0
  7  3  1  0
  1  8  1  0
  2  9  1  0
  2 10  1  0
  4 11  1  0
  5 12  1  0
  6 13  1  0
M  END
>  <Ligand ID>  (1) 
LIG0000424

>  <Ligand>  (1) 
Furfuryl mercaptan

>  <SMILES>  (1) 
SCc1ccco1

>  <CID>  (1) 
7363.0

>  <ChEMBL ID>  (1) 
nan

>  <InChiKey>  (1) 
ZFFTZDQKIXPDAF-UHFFFAOYSA-N

>  <InChi>  (1) 
InChI=1S/C5H6OS/c7-4-5-2-1-3-6-5/h1-3,7H,4H2

>  <IUPAC Name>  (1) 
furan-2-ylmethanethiol

$$$$
