
     RDKit          3D

 75 74  0  0  0  0  0  0  0  0999 V2000
    6.4763   -2.3315    2.2086 C   0  0  0  0  0  0  0  0  0  0  0  0
    7.2113   -1.0143    2.2958 C   0  0  0  0  0  0  0  0  0  0  0  0
    6.5934   -0.1184    1.1861 C   0  0  0  0  0  0  0  0  0  0  0  0
    6.8350   -0.8304   -0.1013 C   0  0  0  0  0  0  0  0  0  0  0  0
    6.3650   -0.2009   -1.3465 C   0  0  0  0  0  0  0  0  0  0  0  0
    6.8800    1.0756   -1.8129 C   0  0  0  0  0  0  0  0  0  0  0  0
    6.7205    2.3553   -1.1286 C   0  0  0  0  0  0  0  0  0  0  0  0
    5.3546    2.9146   -0.9477 C   0  0  0  0  0  0  0  0  0  0  0  0
    4.3774    2.1586   -0.1904 C   0  0  0  0  0  0  0  0  0  0  0  0
    3.2140    1.6858   -0.5859 C   0  0  0  0  0  0  0  0  0  0  0  0
    2.6174    1.8217   -1.9352 C   0  0  0  0  0  0  0  0  0  0  0  0
    2.3399    0.5305   -2.6009 C   0  0  0  0  0  0  0  0  0  0  0  0
    1.4793   -0.4751   -1.9738 C   0  0  0  0  0  0  0  0  0  0  0  0
    0.0625   -0.2312   -1.6554 C   0  0  0  0  0  0  0  0  0  0  0  0
   -0.3192    0.8098   -0.6834 C   0  0  0  0  0  0  0  0  0  0  0  0
   -1.8392    0.8458   -0.5300 C   0  0  0  0  0  0  0  0  0  0  0  0
   -2.3487   -0.4376   -0.0180 C   0  0  0  0  0  0  0  0  0  0  0  0
   -3.8607   -0.3883    0.1534 C   0  0  0  0  0  0  0  0  0  0  0  0
   -4.3841    0.7065   -0.1536 O   0  0  0  0  0  0  0  0  0  0  0  0
   -4.5711   -1.5165    0.6252 N   0  0  0  0  0  0  0  0  0  0  0  0
   -6.0193   -1.4262    0.7751 C   0  0  0  0  0  0  0  0  0  0  0  0
   -6.4359   -0.3595    1.7356 C   0  0  0  0  0  0  0  0  0  0  0  0
   -7.9289   -0.2588    1.8950 C   0  0  0  0  0  0  0  0  0  0  0  0
   -8.7583    0.1204    0.3360 P   0  0  0  0  0  0  0  0  0  0  0  0
   -9.0038   -1.1061   -0.5128 O   0  0  0  0  0  0  0  0  0  0  0  0
  -10.2892    0.8227    0.6395 O   0  0  0  0  0  0  0  0  0  0  0  0
   -7.8846    1.2247   -0.5900 O   0  0  0  0  0  0  0  0  0  0  0  0
   -8.6082   -1.8549    2.4694 P   0  0  0  0  0  0  0  0  0  0  0  0
   -9.9116   -1.5293    3.1618 O   0  0  0  0  0  0  0  0  0  0  0  0
   -7.5385   -2.5750    3.5400 O   0  0  0  0  0  0  0  0  0  0  0  0
   -8.9142   -2.8350    1.1217 O   0  0  0  0  0  0  0  0  0  0  0  0
   -8.2065    0.7624    2.7975 O   0  0  0  0  0  0  0  0  0  0  0  0
    7.0127   -3.0211    1.5580 H   0  0  0  0  0  0  0  0  0  0  0  0
    5.4270   -2.1405    1.8408 H   0  0  0  0  0  0  0  0  0  0  0  0
    6.3459   -2.7578    3.2448 H   0  0  0  0  0  0  0  0  0  0  0  0
    7.1124   -0.5309    3.2771 H   0  0  0  0  0  0  0  0  0  0  0  0
    8.2603   -1.1820    2.0195 H   0  0  0  0  0  0  0  0  0  0  0  0
    7.0513    0.8430    1.3354 H   0  0  0  0  0  0  0  0  0  0  0  0
    5.4938   -0.0848    1.4118 H   0  0  0  0  0  0  0  0  0  0  0  0
    6.3276   -1.8460    0.0385 H   0  0  0  0  0  0  0  0  0  0  0  0
    7.9202   -1.1463   -0.1545 H   0  0  0  0  0  0  0  0  0  0  0  0
    6.5984   -0.9593   -2.1751 H   0  0  0  0  0  0  0  0  0  0  0  0
    5.2172   -0.2534   -1.3698 H   0  0  0  0  0  0  0  0  0  0  0  0
    6.4482    1.2335   -2.8660 H   0  0  0  0  0  0  0  0  0  0  0  0
    7.9940    0.9396   -2.0756 H   0  0  0  0  0  0  0  0  0  0  0  0
    7.2316    3.1253   -1.8309 H   0  0  0  0  0  0  0  0  0  0  0  0
    7.3451    2.5147   -0.2037 H   0  0  0  0  0  0  0  0  0  0  0  0
    5.5008    3.8954   -0.3672 H   0  0  0  0  0  0  0  0  0  0  0  0
    4.9395    3.3132   -1.9200 H   0  0  0  0  0  0  0  0  0  0  0  0
    4.6205    1.9643    0.8787 H   0  0  0  0  0  0  0  0  0  0  0  0
    2.5926    1.1231    0.1420 H   0  0  0  0  0  0  0  0  0  0  0  0
    3.3666    2.3646   -2.6210 H   0  0  0  0  0  0  0  0  0  0  0  0
    1.7986    2.5495   -1.8923 H   0  0  0  0  0  0  0  0  0  0  0  0
    3.3496    0.0488   -2.7923 H   0  0  0  0  0  0  0  0  0  0  0  0
    1.9466    0.6799   -3.6537 H   0  0  0  0  0  0  0  0  0  0  0  0
    2.0117   -0.8824   -1.0369 H   0  0  0  0  0  0  0  0  0  0  0  0
    1.4870   -1.4222   -2.6243 H   0  0  0  0  0  0  0  0  0  0  0  0
   -0.3573   -1.2371   -1.3539 H   0  0  0  0  0  0  0  0  0  0  0  0
   -0.5329   -0.0071   -2.6029 H   0  0  0  0  0  0  0  0  0  0  0  0
    0.0841    0.6261    0.3469 H   0  0  0  0  0  0  0  0  0  0  0  0
   -0.0199    1.8456   -0.9414 H   0  0  0  0  0  0  0  0  0  0  0  0
   -2.2184    1.1170   -1.5435 H   0  0  0  0  0  0  0  0  0  0  0  0
   -2.0351    1.6438    0.2097 H   0  0  0  0  0  0  0  0  0  0  0  0
   -2.0672   -1.3558   -0.5282 H   0  0  0  0  0  0  0  0  0  0  0  0
   -1.9824   -0.5511    1.0393 H   0  0  0  0  0  0  0  0  0  0  0  0
   -4.0494   -2.4122    0.8645 H   0  0  0  0  0  0  0  0  0  0  0  0
   -6.4021   -2.3859    1.1194 H   0  0  0  0  0  0  0  0  0  0  0  0
   -6.5125   -1.2066   -0.2000 H   0  0  0  0  0  0  0  0  0  0  0  0
   -6.0476    0.6492    1.4867 H   0  0  0  0  0  0  0  0  0  0  0  0
   -6.0419   -0.5717    2.7707 H   0  0  0  0  0  0  0  0  0  0  0  0
  -10.4485    1.5968    0.0746 H   0  0  0  0  0  0  0  0  0  0  0  0
   -8.4536    1.9705   -0.9272 H   0  0  0  0  0  0  0  0  0  0  0  0
   -7.3898   -3.5274    3.3158 H   0  0  0  0  0  0  0  0  0  0  0  0
   -9.6473   -3.4687    1.3425 H   0  0  0  0  0  0  0  0  0  0  0  0
   -8.9825    0.5610    3.3739 H   0  0  0  0  0  0  0  0  0  0  0  0
  1  2  1  0
  2  3  1  0
  3  4  1  0
  4  5  1  0
  5  6  1  0
  6  7  1  0
  7  8  1  0
  8  9  1  0
  9 10  2  0
 10 11  1  0
 11 12  1  0
 12 13  1  0
 13 14  1  0
 14 15  1  0
 15 16  1  0
 16 17  1  0
 17 18  1  0
 18 19  2  0
 18 20  1  0
 20 21  1  0
 21 22  1  0
 22 23  1  0
 23 24  1  0
 24 25  2  0
 24 26  1  0
 24 27  1  0
 23 28  1  0
 28 29  2  0
 28 30  1  0
 28 31  1  0
 23 32  1  0
  1 33  1  0
  1 34  1  0
  1 35  1  0
  2 36  1  0
  2 37  1  0
  3 38  1  0
  3 39  1  0
  4 40  1  0
  4 41  1  0
  5 42  1  0
  5 43  1  0
  6 44  1  0
  6 45  1  0
  7 46  1  0
  7 47  1  0
  8 48  1  0
  8 49  1  0
  9 50  1  0
 10 51  1  0
 11 52  1  0
 11 53  1  0
 12 54  1  0
 12 55  1  0
 13 56  1  0
 13 57  1  0
 14 58  1  0
 14 59  1  0
 15 60  1  0
 15 61  1  0
 16 62  1  0
 16 63  1  0
 17 64  1  0
 17 65  1  0
 20 66  1  0
 21 67  1  0
 21 68  1  0
 22 69  1  0
 22 70  1  0
 26 71  1  0
 27 72  1  0
 30 73  1  0
 31 74  1  0
 32 75  1  0
M  END
>  <Ligand ID>  (1) 
LIG0004219

>  <Ligand>  (1) 
CHEMBL117860

>  <SMILES>  (1) 
CCCCCCCC/C=C\CCCCCCCC(=O)NCCC(P(=O)(O)O)(P(=O)(O)O)O

>  <CID>  (1) 
44343867.0

>  <ChEMBL ID>  (1) 
nan

>  <InChiKey>  (1) 
YJTIRCNWZUWHDJ-KTKRTIGZSA-N

>  <InChi>  (1) 
InChI=1S/C21H43NO8P2/c1-2-3-4-5-6-7-8-9-10-11-12-13-14-15-16-17-20(23)22-19-18-21(24,31(25,26)27)32(28,29)30/h9-10,24H,2-8,11-19H2,1H3,(H,22,23)(H2,25,26,27)(H2,28,29,30)/b10-9-

>  <IUPAC Name>  (1) 
[1-hydroxy-3-[[(Z)-octadec-9-enoyl]amino]-1-phosphonopropyl]phosphonic acid

$$$$
