
     RDKit          3D

 43 46  0  0  0  0  0  0  0  0999 V2000
   -3.2290    2.0329    0.6142 C   0  0  0  0  0  0  0  0  0  0  0  0
   -3.6431    0.9754   -0.3895 C   0  0  2  0  0  0  0  0  0  0  0  0
   -4.9829    0.3926   -0.0659 C   0  0  0  0  0  0  0  0  0  0  0  0
   -4.9357   -0.9641   -0.7309 C   0  0  0  0  0  0  0  0  0  0  0  0
   -3.5253   -1.4130   -0.3539 C   0  0  1  0  0  0  0  0  0  0  0  0
   -2.7534   -0.1610   -0.3685 N   0  0  0  0  0  0  0  0  0  0  0  0
   -1.3241   -0.1886   -0.3605 C   0  0  0  0  0  0  0  0  0  0  0  0
   -0.5622    0.9623   -0.5534 C   0  0  0  0  0  0  0  0  0  0  0  0
    0.8419    0.8981   -0.5320 C   0  0  0  0  0  0  0  0  0  0  0  0
    1.4927   -0.2844   -0.3211 C   0  0  0  0  0  0  0  0  0  0  0  0
    0.6801   -1.3750   -0.1404 N   0  0  0  0  0  0  0  0  0  0  0  0
   -0.6314   -1.3176   -0.1609 N   0  0  0  0  0  0  0  0  0  0  0  0
    2.9019   -0.5388   -0.3488 C   0  0  0  0  0  0  0  0  0  0  0  0
    3.2998   -1.7681   -0.9101 C   0  0  0  0  0  0  0  0  0  0  0  0
    4.6183   -2.1426   -0.9846 C   0  0  0  0  0  0  0  0  0  0  0  0
    5.6340   -1.3436   -0.5163 C   0  0  0  0  0  0  0  0  0  0  0  0
    5.2487   -0.1275    0.0431 C   0  0  0  0  0  0  0  0  0  0  0  0
    3.9113    0.2466    0.1168 C   0  0  0  0  0  0  0  0  0  0  0  0
    3.6353    1.4346    0.7206 C   0  0  0  0  0  0  0  0  0  0  0  0
    4.6721    2.1928    1.2114 C   0  0  0  0  0  0  0  0  0  0  0  0
    5.9941    1.8066    1.1245 C   0  0  0  0  0  0  0  0  0  0  0  0
    6.2438    0.6321    0.5301 N   0  0  0  0  0  0  0  0  0  0  0  0
   -3.5179   -2.0718    0.9897 C   0  0  0  0  0  0  0  0  0  0  0  0
   -3.0290    2.9614    0.0605 H   0  0  0  0  0  0  0  0  0  0  0  0
   -4.1342    2.2378    1.2280 H   0  0  0  0  0  0  0  0  0  0  0  0
   -2.3853    1.7335    1.2390 H   0  0  0  0  0  0  0  0  0  0  0  0
   -3.6985    1.4406   -1.3963 H   0  0  0  0  0  0  0  0  0  0  0  0
   -5.0728    0.1859    1.0327 H   0  0  0  0  0  0  0  0  0  0  0  0
   -5.8308    1.0067   -0.4256 H   0  0  0  0  0  0  0  0  0  0  0  0
   -5.6999   -1.6544   -0.3585 H   0  0  0  0  0  0  0  0  0  0  0  0
   -4.9563   -0.8188   -1.8352 H   0  0  0  0  0  0  0  0  0  0  0  0
   -3.1184   -2.0452   -1.1660 H   0  0  0  0  0  0  0  0  0  0  0  0
   -1.0474    1.9029   -0.7238 H   0  0  0  0  0  0  0  0  0  0  0  0
    1.3266    1.8358   -0.7410 H   0  0  0  0  0  0  0  0  0  0  0  0
    2.5460   -2.4593   -1.3044 H   0  0  0  0  0  0  0  0  0  0  0  0
    4.9036   -3.1024   -1.4255 H   0  0  0  0  0  0  0  0  0  0  0  0
    6.6564   -1.6224   -0.5704 H   0  0  0  0  0  0  0  0  0  0  0  0
    2.6497    1.7880    0.8660 H   0  0  0  0  0  0  0  0  0  0  0  0
    4.4750    3.1376    1.6917 H   0  0  0  0  0  0  0  0  0  0  0  0
    6.7770    2.4325    1.5215 H   0  0  0  0  0  0  0  0  0  0  0  0
   -3.1950   -1.3897    1.7948 H   0  0  0  0  0  0  0  0  0  0  0  0
   -4.4700   -2.5498    1.2345 H   0  0  0  0  0  0  0  0  0  0  0  0
   -2.7658   -2.8983    0.9390 H   0  0  0  0  0  0  0  0  0  0  0  0
  1  2  1  0
  2  3  1  0
  3  4  1  0
  4  5  1  0
  5  6  1  0
  6  7  1  0
  7  8  2  0
  8  9  1  0
  9 10  2  0
 10 11  1  0
 11 12  2  0
 10 13  1  0
 13 14  2  0
 14 15  1  0
 15 16  2  0
 16 17  1  0
 17 18  2  0
 18 19  1  0
 19 20  2  0
 20 21  1  0
 21 22  2  0
  5 23  1  0
  6  2  1  0
 12  7  1  0
 18 13  1  0
 22 17  1  0
  1 24  1  0
  1 25  1  0
  1 26  1  0
  2 27  1  6
  3 28  1  0
  3 29  1  0
  4 30  1  0
  4 31  1  0
  5 32  1  6
  8 33  1  0
  9 34  1  0
 14 35  1  0
 15 36  1  0
 16 37  1  0
 19 38  1  0
 20 39  1  0
 21 40  1  0
 23 41  1  0
 23 42  1  0
 23 43  1  0
M  END
>  <Ligand ID>  (1) 
LIG0005235

>  <Ligand>  (1) 
CHEMBL593581

>  <SMILES>  (1) 
C[C@@H]1CC[C@@H](N1c1ccc(nn1)c1cccc2c1cccn2)C

>  <CID>  (1) 
46226147.0

>  <ChEMBL ID>  (1) 
nan

>  <InChiKey>  (1) 
XCIYWIWWNJEYHZ-OKILXGFUSA-N

>  <InChi>  (1) 
InChI=1S/C19H20N4/c1-13-8-9-14(2)23(13)19-11-10-18(21-22-19)16-5-3-7-17-15(16)6-4-12-20-17/h3-7,10-14H,8-9H2,1-2H3/t13-,14+

>  <IUPAC Name>  (1) 
5-[6-[(2R,5S)-2,5-dimethylpyrrolidin-1-yl]pyridazin-3-yl]quinoline

$$$$
