
     RDKit          3D

 95 98  0  0  0  0  0  0  0  0999 V2000
    0.3051    5.0802    1.4180 N   0  0  0  0  0  0  0  0  0  0  0  0
   -0.0955    4.5152    2.6660 C   0  0  0  0  0  0  0  0  0  0  0  0
    0.7375    3.8464    3.4054 N   0  0  0  0  0  0  0  0  0  0  0  0
    2.0861    3.6642    2.9767 C   0  0  0  0  0  0  0  0  0  0  0  0
    2.6367    2.3422    3.4684 C   0  0  0  0  0  0  0  0  0  0  0  0
    1.8614    1.1512    2.9813 C   0  0  0  0  0  0  0  0  0  0  0  0
    1.8503    1.1345    1.4589 C   0  0  1  0  0  0  0  0  0  0  0  0
    3.1965    1.0343    0.9114 C   0  0  0  0  0  0  0  0  0  0  0  0
    4.1261    1.8802    1.0753 O   0  0  0  0  0  0  0  0  0  0  0  0
    3.5779   -0.1001    0.1049 N   0  0  0  0  0  0  0  0  0  0  0  0
    4.9263   -0.2216   -0.4531 C   0  0  2  0  0  0  0  0  0  0  0  0
    4.8264   -0.3823   -1.8966 C   0  0  0  0  0  0  0  0  0  0  0  0
    5.8171   -0.4157   -2.6886 O   0  0  0  0  0  0  0  0  0  0  0  0
    3.5441   -0.5193   -2.5505 N   0  0  0  0  0  0  0  0  0  0  0  0
    5.7115   -1.2566    0.2866 C   0  0  0  0  0  0  0  0  0  0  0  0
    7.0721   -1.4726   -0.2141 C   0  0  0  0  0  0  0  0  0  0  0  0
    8.1677   -0.7663    0.2890 C   0  0  0  0  0  0  0  0  0  0  0  0
    9.2912   -1.1319   -0.3716 N   0  0  0  0  0  0  0  0  0  0  0  0
    8.9429   -2.0538   -1.2828 C   0  0  0  0  0  0  0  0  0  0  0  0
    7.5689   -2.2896   -1.2124 C   0  0  0  0  0  0  0  0  0  0  0  0
    6.9843   -3.2205   -2.0504 C   0  0  0  0  0  0  0  0  0  0  0  0
    7.7316   -3.9217   -2.9560 C   0  0  0  0  0  0  0  0  0  0  0  0
    9.0990   -3.6913   -3.0319 C   0  0  0  0  0  0  0  0  0  0  0  0
    9.7050   -2.7669   -2.2056 C   0  0  0  0  0  0  0  0  0  0  0  0
    0.9214    0.1067    0.9941 N   0  0  0  0  0  0  0  0  0  0  0  0
   -0.4201    0.5333    0.8049 C   0  0  0  0  0  0  0  0  0  0  0  0
   -0.7485    1.7104    1.0499 O   0  0  0  0  0  0  0  0  0  0  0  0
   -1.5034   -0.3749    0.3126 C   0  0  2  0  0  0  0  0  0  0  0  0
   -2.7913    0.2431    0.4538 N   0  0  0  0  0  0  0  0  0  0  0  0
   -3.4989    0.9116   -0.5555 C   0  0  0  0  0  0  0  0  0  0  0  0
   -3.0117    1.0112   -1.7357 O   0  0  0  0  0  0  0  0  0  0  0  0
   -4.8210    1.5425   -0.3460 C   0  0  2  0  0  0  0  0  0  0  0  0
   -5.7938    0.4037   -0.0108 C   0  0  0  0  0  0  0  0  0  0  0  0
   -7.1486    0.8760    0.2869 C   0  0  0  0  0  0  0  0  0  0  0  0
   -7.5373    1.2064    1.5537 N   0  0  0  0  0  0  0  0  0  0  0  0
   -8.8169    1.6103    1.5641 C   0  0  0  0  0  0  0  0  0  0  0  0
   -9.2546    1.5410    0.3072 N   0  0  0  0  0  0  0  0  0  0  0  0
   -8.2592    1.0985   -0.4804 C   0  0  0  0  0  0  0  0  0  0  0  0
   -5.2271    2.2850   -1.5213 N   0  0  0  0  0  0  0  0  0  0  0  0
   -5.8352    1.7194   -2.6680 C   0  0  0  0  0  0  0  0  0  0  0  0
   -6.1001    0.5108   -2.8228 O   0  0  0  0  0  0  0  0  0  0  0  0
   -6.1801    2.6709   -3.7817 C   0  0  0  0  0  0  0  0  0  0  0  0
   -1.4441   -1.6573    1.0632 C   0  0  0  0  0  0  0  0  0  0  0  0
   -2.4954   -2.6208    0.6186 C   0  0  0  0  0  0  0  0  0  0  0  0
   -2.2042   -3.4662   -0.4331 C   0  0  0  0  0  0  0  0  0  0  0  0
   -3.1129   -4.3965   -0.9031 C   0  0  0  0  0  0  0  0  0  0  0  0
   -4.3720   -4.4993   -0.3060 C   0  0  0  0  0  0  0  0  0  0  0  0
   -4.6782   -3.6509    0.7570 C   0  0  0  0  0  0  0  0  0  0  0  0
   -3.7310   -2.7213    1.2043 C   0  0  0  0  0  0  0  0  0  0  0  0
   -5.3257   -5.4544   -0.7738 N   0  0  0  0  0  0  0  0  0  0  0  0
   -6.4363   -5.5334   -0.2256 O   0  0  0  0  0  0  0  0  0  0  0  0
   -4.9837   -6.2808   -1.8385 O   0  0  0  0  0  0  0  0  0  0  0  0
   -1.4517    4.7339    3.0505 N   0  0  0  0  0  0  0  0  0  0  0  0
    1.0175    5.8367    1.3747 H   0  0  0  0  0  0  0  0  0  0  0  0
   -0.0910    4.7672    0.4956 H   0  0  0  0  0  0  0  0  0  0  0  0
    2.2606    3.8384    1.8986 H   0  0  0  0  0  0  0  0  0  0  0  0
    2.7150    4.4494    3.4865 H   0  0  0  0  0  0  0  0  0  0  0  0
    3.7135    2.3220    3.2409 H   0  0  0  0  0  0  0  0  0  0  0  0
    2.5742    2.4189    4.5929 H   0  0  0  0  0  0  0  0  0  0  0  0
    0.7913    1.1978    3.2905 H   0  0  0  0  0  0  0  0  0  0  0  0
    2.3678    0.2515    3.4046 H   0  0  0  0  0  0  0  0  0  0  0  0
    1.4093    2.1451    1.2013 H   0  0  0  0  0  0  0  0  0  0  0  0
    2.9292   -0.8782   -0.1202 H   0  0  0  0  0  0  0  0  0  0  0  0
    5.4794    0.7633   -0.2876 H   0  0  0  0  0  0  0  0  0  0  0  0
    2.8174   -1.1778   -2.1908 H   0  0  0  0  0  0  0  0  0  0  0  0
    3.3854    0.0765   -3.4047 H   0  0  0  0  0  0  0  0  0  0  0  0
    5.1271   -2.2313    0.3235 H   0  0  0  0  0  0  0  0  0  0  0  0
    5.7571   -0.9860    1.3904 H   0  0  0  0  0  0  0  0  0  0  0  0
    8.1428   -0.0201    1.0980 H   0  0  0  0  0  0  0  0  0  0  0  0
   10.2666   -0.7737   -0.2146 H   0  0  0  0  0  0  0  0  0  0  0  0
    5.9056   -3.3412   -1.9302 H   0  0  0  0  0  0  0  0  0  0  0  0
    7.2660   -4.6467   -3.6031 H   0  0  0  0  0  0  0  0  0  0  0  0
    9.6390   -4.2794   -3.7694 H   0  0  0  0  0  0  0  0  0  0  0  0
   10.7749   -2.6147   -2.2968 H   0  0  0  0  0  0  0  0  0  0  0  0
    1.1834   -0.8772    0.8125 H   0  0  0  0  0  0  0  0  0  0  0  0
   -1.2324   -0.5261   -0.7667 H   0  0  0  0  0  0  0  0  0  0  0  0
   -3.2319    0.1717    1.4235 H   0  0  0  0  0  0  0  0  0  0  0  0
   -4.9143    2.2069    0.5298 H   0  0  0  0  0  0  0  0  0  0  0  0
   -5.3539   -0.0305    0.9338 H   0  0  0  0  0  0  0  0  0  0  0  0
   -5.7278   -0.4254   -0.7377 H   0  0  0  0  0  0  0  0  0  0  0  0
   -6.9331    1.1609    2.4309 H   0  0  0  0  0  0  0  0  0  0  0  0
   -9.3695    1.9247    2.4336 H   0  0  0  0  0  0  0  0  0  0  0  0
   -8.3812    0.9577   -1.5387 H   0  0  0  0  0  0  0  0  0  0  0  0
   -5.0406    3.3345   -1.4893 H   0  0  0  0  0  0  0  0  0  0  0  0
   -6.6948    2.1238   -4.6059 H   0  0  0  0  0  0  0  0  0  0  0  0
   -6.9042    3.4045   -3.3822 H   0  0  0  0  0  0  0  0  0  0  0  0
   -5.2681    3.1742   -4.1630 H   0  0  0  0  0  0  0  0  0  0  0  0
   -1.6785   -1.4462    2.1423 H   0  0  0  0  0  0  0  0  0  0  0  0
   -0.4342   -2.1330    1.0297 H   0  0  0  0  0  0  0  0  0  0  0  0
   -1.2411   -3.4441   -0.9464 H   0  0  0  0  0  0  0  0  0  0  0  0
   -2.8403   -5.0505   -1.7460 H   0  0  0  0  0  0  0  0  0  0  0  0
   -5.6538   -3.7389    1.2032 H   0  0  0  0  0  0  0  0  0  0  0  0
   -3.9710   -2.0629    2.0354 H   0  0  0  0  0  0  0  0  0  0  0  0
   -2.0000    4.0653    3.6383 H   0  0  0  0  0  0  0  0  0  0  0  0
   -1.9700    5.5959    2.7516 H   0  0  0  0  0  0  0  0  0  0  0  0
  1  2  1  0
  2  3  2  3
  3  4  1  0
  4  5  1  0
  5  6  1  0
  6  7  1  0
  7  8  1  0
  8  9  2  0
  8 10  1  0
 10 11  1  0
 11 12  1  0
 12 13  2  0
 12 14  1  0
 11 15  1  0
 15 16  1  0
 16 17  2  0
 17 18  1  0
 18 19  1  0
 19 20  2  0
 20 21  1  0
 21 22  2  0
 22 23  1  0
 23 24  2  0
  7 25  1  0
 25 26  1  0
 26 27  2  0
 26 28  1  0
 28 29  1  0
 29 30  1  0
 30 31  2  0
 30 32  1  0
 32 33  1  0
 33 34  1  0
 34 35  1  0
 35 36  1  0
 36 37  2  0
 37 38  1  0
 32 39  1  0
 39 40  1  0
 40 41  2  0
 40 42  1  0
 28 43  1  0
 43 44  1  0
 44 45  2  0
 45 46  1  0
 46 47  2  0
 47 48  1  0
 48 49  2  0
 47 50  1  0
 50 51  2  0
 50 52  1  0
  2 53  1  0
 20 16  1  0
 38 34  2  0
 49 44  1  0
 24 19  1  0
  1 54  1  0
  1 55  1  0
  4 56  1  0
  4 57  1  0
  5 58  1  0
  5 59  1  0
  6 60  1  0
  6 61  1  0
  7 62  1  6
 10 63  1  0
 11 64  1  6
 14 65  1  0
 14 66  1  0
 15 67  1  0
 15 68  1  0
 17 69  1  0
 18 70  1  0
 21 71  1  0
 22 72  1  0
 23 73  1  0
 24 74  1  0
 25 75  1  0
 28 76  1  6
 29 77  1  0
 32 78  1  1
 33 79  1  0
 33 80  1  0
 35 81  1  0
 36 82  1  0
 38 83  1  0
 39 84  1  0
 42 85  1  0
 42 86  1  0
 42 87  1  0
 43 88  1  0
 43 89  1  0
 45 90  1  0
 46 91  1  0
 48 92  1  0
 49 93  1  0
 53 94  1  0
 53 95  1  0
M  CHG  2  50   1  52  -1
M  END
>  <Ligand ID>  (1) 
LIG0001427

>  <Ligand>  (1) 
CHEMBL451423

>  <SMILES>  (1) 
NC(=NCCC[C@@H](C(=O)N[C@H](C(=O)N)Cc1c[nH]c2c1cccc2)NC(=O)[C@H](NC(=O)[C@H](Cc1[nH]cnc1)NC(=O)C)Cc1ccc(cc1)[N+](=O)[O-])N

>  <CID>  (1) 
25108142.0

>  <ChEMBL ID>  (1) 
nan

>  <InChiKey>  (1) 
KCIDBIZAMUCOIJ-FKWFRFQNSA-N

>  <InChi>  (1) 
InChI=1S/C34H42N12O7/c1-19(47)42-29(15-22-17-38-18-41-22)33(51)45-28(13-20-8-10-23(11-9-20)46(52)53)32(50)43-26(7-4-12-39-34(36)37)31(49)44-27(30(35)48)14-21-16-40-25-6-3-2-5-24(21)25/h2-3,5-6,8-11,16-18,26-29,40H,4,7,12-15H2,1H3,(H2,35,48)(H,38,41)(H,42,47)(H,43,50)(H,44,49)(H,45,51)(H4,36,37,39)/t26-,27-,28+,29-/m0/s1

>  <IUPAC Name>  (1) 
(2S)-2-[[(2R)-2-[[(2S)-2-acetamido-3-(1H-imidazol-5-yl)propanoyl]amino]-3-(4-nitrophenyl)propanoyl]amino]-N-[(2S)-1-amino-3-(1H-indol-3-yl)-1-oxopropan-2-yl]-5-(diaminomethylideneamino)pentanamide

$$$$
