
     RDKit          3D

 32 33  0  0  0  0  0  0  0  0999 V2000
    5.6358    0.8695    1.3071 N   0  0  0  0  0  0  0  0  0  0  0  0
    4.1891    0.7647    1.1051 C   0  0  0  0  0  0  0  0  0  0  0  0
    3.9591    0.0701   -0.1977 C   0  0  0  0  0  0  0  0  0  0  0  0
    2.5295   -0.1137   -0.5477 C   0  0  0  0  0  0  0  0  0  0  0  0
    1.8102    0.8221   -1.2731 C   0  0  0  0  0  0  0  0  0  0  0  0
    0.4641    0.6111   -1.5825 C   0  0  0  0  0  0  0  0  0  0  0  0
   -0.6233    2.0419   -2.6877 I   0  0  0  0  0  0  0  0  0  0  0  0
   -0.1988   -0.5292   -1.1811 C   0  0  0  0  0  0  0  0  0  0  0  0
    0.5216   -1.4768   -0.4490 C   0  0  0  0  0  0  0  0  0  0  0  0
    1.8493   -1.2487   -0.1546 C   0  0  0  0  0  0  0  0  0  0  0  0
   -0.4043   -3.2629    0.2149 I   0  0  0  0  0  0  0  0  0  0  0  0
   -1.5116   -0.8054   -1.4451 O   0  0  0  0  0  0  0  0  0  0  0  0
   -2.5971   -0.4674   -0.6603 C   0  0  0  0  0  0  0  0  0  0  0  0
   -2.5003    0.2161    0.5337 C   0  0  0  0  0  0  0  0  0  0  0  0
   -3.6649    0.5031    1.2418 C   0  0  0  0  0  0  0  0  0  0  0  0
   -3.5828    1.5361    3.0573 I   0  0  0  0  0  0  0  0  0  0  0  0
   -4.9126    0.1174    0.7727 C   0  0  0  0  0  0  0  0  0  0  0  0
   -4.9871   -0.5643   -0.4220 C   0  0  0  0  0  0  0  0  0  0  0  0
   -3.8480   -0.8607   -1.1423 C   0  0  0  0  0  0  0  0  0  0  0  0
   -6.8378   -1.1987   -1.2283 I   0  0  0  0  0  0  0  0  0  0  0  0
   -6.0690    0.3955    1.4635 O   0  0  0  0  0  0  0  0  0  0  0  0
    6.0245   -0.0905    1.2085 H   0  0  0  0  0  0  0  0  0  0  0  0
    6.0197    1.4434    0.5113 H   0  0  0  0  0  0  0  0  0  0  0  0
    3.7045    0.2594    1.9484 H   0  0  0  0  0  0  0  0  0  0  0  0
    3.8396    1.8308    1.0190 H   0  0  0  0  0  0  0  0  0  0  0  0
    4.3851   -0.9545   -0.0919 H   0  0  0  0  0  0  0  0  0  0  0  0
    4.4609    0.6190   -1.0106 H   0  0  0  0  0  0  0  0  0  0  0  0
    2.3202    1.7340   -1.6004 H   0  0  0  0  0  0  0  0  0  0  0  0
    2.4221   -1.9856    0.4186 H   0  0  0  0  0  0  0  0  0  0  0  0
   -1.5248    0.5147    0.8953 H   0  0  0  0  0  0  0  0  0  0  0  0
   -3.9271   -1.4021   -2.0877 H   0  0  0  0  0  0  0  0  0  0  0  0
   -6.9460    0.6118    1.0166 H   0  0  0  0  0  0  0  0  0  0  0  0
  1  2  1  0
  2  3  1  0
  3  4  1  0
  4  5  2  0
  5  6  1  0
  6  7  1  0
  6  8  2  0
  8  9  1  0
  9 10  2  0
  9 11  1  0
  8 12  1  0
 12 13  1  0
 13 14  2  0
 14 15  1  0
 15 16  1  0
 15 17  2  0
 17 18  1  0
 18 19  2  0
 18 20  1  0
 17 21  1  0
 10  4  1  0
 19 13  1  0
  1 22  1  0
  1 23  1  0
  2 24  1  0
  2 25  1  0
  3 26  1  0
  3 27  1  0
  5 28  1  0
 10 29  1  0
 14 30  1  0
 19 31  1  0
 21 32  1  0
M  END
>  <Ligand ID>  (1) 
LIG0005745

>  <Ligand>  (1) 
Thyroxamine

>  <SMILES>  (1) 
NCCc1cc(I)c(c(c1)I)Oc1cc(I)c(c(c1)I)O

>  <CID>  (1) 
3080596.0

>  <ChEMBL ID>  (1) 
nan

>  <InChiKey>  (1) 
NMRKJTPVKAFIII-UHFFFAOYSA-N

>  <InChi>  (1) 
InChI=1S/C14H11I4NO2/c15-9-5-8(6-10(16)13(9)20)21-14-11(17)3-7(1-2-19)4-12(14)18/h3-6,20H,1-2,19H2

>  <IUPAC Name>  (1) 
4-[4-(2-aminoethyl)-2,6-diiodophenoxy]-2,6-diiodophenol

$$$$
