
     RDKit          3D

 13 12  0  0  0  0  0  0  0  0999 V2000
    2.1196   -0.4924   -0.2303 C   0  0  0  0  0  0  0  0  0  0  0  0
    1.1610    0.8514    0.4633 S   0  0  0  0  0  0  0  0  0  0  0  0
   -0.4302    1.0983   -0.2834 C   0  0  0  0  0  0  0  0  0  0  0  0
   -1.4198   -0.0133   -0.0741 C   0  0  0  0  0  0  0  0  0  0  0  0
   -1.6943   -0.2154    1.7175 S   0  0  0  0  0  0  0  0  0  0  0  0
    3.0424   -0.6247    0.3799 H   0  0  0  0  0  0  0  0  0  0  0  0
    2.4621   -0.2167   -1.2540 H   0  0  0  0  0  0  0  0  0  0  0  0
    1.5713   -1.4501   -0.3057 H   0  0  0  0  0  0  0  0  0  0  0  0
   -0.3222    1.2257   -1.3923 H   0  0  0  0  0  0  0  0  0  0  0  0
   -0.8854    2.0285    0.1180 H   0  0  0  0  0  0  0  0  0  0  0  0
   -1.1717   -0.9546   -0.5578 H   0  0  0  0  0  0  0  0  0  0  0  0
   -2.4000    0.3485   -0.4703 H   0  0  0  0  0  0  0  0  0  0  0  0
   -2.0328   -1.5851    1.8892 H   0  0  0  0  0  0  0  0  0  0  0  0
  1  2  1  0
  2  3  1  0
  3  4  1  0
  4  5  1  0
  1  6  1  0
  1  7  1  0
  1  8  1  0
  3  9  1  0
  3 10  1  0
  4 11  1  0
  4 12  1  0
  5 13  1  0
M  END
>  <Ligand ID>  (1) 
LIG0002090

>  <Ligand>  (1) 
2-methylsulfanylethanethiol

>  <SMILES>  (1) 
CSCCS

>  <CID>  (1) 
525458.0

>  <ChEMBL ID>  (1) 
nan

>  <InChiKey>  (1) 
SJJZGKUOHPJHDH-UHFFFAOYSA-N

>  <InChi>  (1) 
InChI=1S/C3H8S2/c1-5-3-2-4/h4H,2-3H2,1H3

>  <IUPAC Name>  (1) 
2-methylsulfanylethanethiol

$$$$
