
     RDKit          3D

 64 62  0  0  0  0  0  0  0  0999 V2000
    1.4391   -0.6279    0.4736 O   0  0  0  0  0  0  0  0  0  0  0  0
    0.4909    0.2979    0.0627 C   0  0  0  0  0  0  0  0  0  0  0  0
    0.9104    1.4544   -0.2119 O   0  0  0  0  0  0  0  0  0  0  0  0
   -0.9618   -0.0617   -0.0487 C   0  0  0  0  0  0  0  0  0  0  0  0
   -1.6393    1.0651   -0.4777 F   0  0  0  0  0  0  0  0  0  0  0  0
   -1.1337   -1.0634   -0.9802 F   0  0  0  0  0  0  0  0  0  0  0  0
   -1.4529   -0.4603    1.1983 F   0  0  0  0  0  0  0  0  0  0  0  0
    8.8472   -0.4072   -0.9776 C   0  0  0  0  0  0  0  0  0  0  0  0
    8.0194    0.4979   -0.1214 C   0  0  0  0  0  0  0  0  0  0  0  0
    6.5423    0.0985   -0.0951 C   0  0  0  0  0  0  0  0  0  0  0  0
    5.8510    1.0943    0.7988 C   0  0  0  0  0  0  0  0  0  0  0  0
    4.3813    0.7463    0.8645 C   0  0  0  0  0  0  0  0  0  0  0  0
    3.6820    0.7709   -0.4533 C   0  0  0  0  0  0  0  0  0  0  0  0
    2.2096    0.4175   -0.3333 C   0  0  0  0  0  0  0  0  0  0  0  0
    1.9839   -0.9371    0.2267 C   0  0  0  0  0  0  0  0  0  0  0  0
    0.5158   -1.2702    0.3207 C   0  0  0  0  0  0  0  0  0  0  0  0
   -0.2272   -0.3117    1.2055 C   0  0  0  0  0  0  0  0  0  0  0  0
   -1.6890   -0.6055    1.3594 C   0  0  0  0  0  0  0  0  0  0  0  0
   -2.3556   -0.5519    0.0114 C   0  0  0  0  0  0  0  0  0  0  0  0
   -3.7950   -0.8239    0.1276 N   0  0  0  0  0  0  0  0  0  0  0  0
   -4.6464   -0.0003    0.9185 C   0  0  0  0  0  0  0  0  0  0  0  0
   -4.2188    0.9952    1.5549 O   0  0  0  0  0  0  0  0  0  0  0  0
   -6.1149   -0.2740    1.0399 C   0  0  2  0  0  0  0  0  0  0  0  0
   -6.7713   -0.3181   -0.3048 C   0  0  0  0  0  0  0  0  0  0  0  0
   -6.6057    0.9203   -0.9171 O   0  0  0  0  0  0  0  0  0  0  0  0
   -7.3181    0.9644   -2.4475 P   0  0  0  0  0  0  0  0  0  0  0  0
   -7.0142    2.3306   -3.0416 O   0  0  0  0  0  0  0  0  0  0  0  0
   -6.6326   -0.1909   -3.4735 O   0  0  0  0  0  0  0  0  0  0  0  0
   -8.9993    0.8322   -2.3597 O   0  0  0  0  0  0  0  0  0  0  0  0
   -6.6765    0.7401    1.9068 N   0  0  0  0  0  0  0  0  0  0  0  0
    2.3471   -0.6041   -0.0161 H   0  0  0  0  0  0  0  0  0  0  0  0
    9.8906   -0.3893   -0.6058 H   0  0  0  0  0  0  0  0  0  0  0  0
    8.7957   -0.0276   -2.0235 H   0  0  0  0  0  0  0  0  0  0  0  0
    8.4552   -1.4329   -0.9678 H   0  0  0  0  0  0  0  0  0  0  0  0
    8.0467    1.5559   -0.5082 H   0  0  0  0  0  0  0  0  0  0  0  0
    8.3615    0.5315    0.9336 H   0  0  0  0  0  0  0  0  0  0  0  0
    6.4880   -0.9270    0.3223 H   0  0  0  0  0  0  0  0  0  0  0  0
    6.1355    0.0669   -1.1186 H   0  0  0  0  0  0  0  0  0  0  0  0
    6.2392    0.8999    1.8408 H   0  0  0  0  0  0  0  0  0  0  0  0
    6.0534    2.1327    0.5181 H   0  0  0  0  0  0  0  0  0  0  0  0
    3.9234    1.5599    1.5011 H   0  0  0  0  0  0  0  0  0  0  0  0
    4.3079   -0.2112    1.3905 H   0  0  0  0  0  0  0  0  0  0  0  0
    3.7808    1.7580   -0.9391 H   0  0  0  0  0  0  0  0  0  0  0  0
    4.1068    0.0155   -1.1468 H   0  0  0  0  0  0  0  0  0  0  0  0
    1.7530    1.1915    0.3475 H   0  0  0  0  0  0  0  0  0  0  0  0
    1.6995    0.5290   -1.3071 H   0  0  0  0  0  0  0  0  0  0  0  0
    2.4002   -1.6712   -0.5233 H   0  0  0  0  0  0  0  0  0  0  0  0
    2.4397   -1.1012    1.2194 H   0  0  0  0  0  0  0  0  0  0  0  0
    0.0589   -1.3520   -0.7079 H   0  0  0  0  0  0  0  0  0  0  0  0
    0.3578   -2.2869    0.7584 H   0  0  0  0  0  0  0  0  0  0  0  0
   -0.1332    0.7101    0.7429 H   0  0  0  0  0  0  0  0  0  0  0  0
    0.3002   -0.3002    2.1804 H   0  0  0  0  0  0  0  0  0  0  0  0
   -1.8446   -1.5923    1.8486 H   0  0  0  0  0  0  0  0  0  0  0  0
   -2.1016    0.1453    2.0618 H   0  0  0  0  0  0  0  0  0  0  0  0
   -1.9381   -1.4048   -0.5949 H   0  0  0  0  0  0  0  0  0  0  0  0
   -2.1319    0.3910   -0.4857 H   0  0  0  0  0  0  0  0  0  0  0  0
   -4.2527   -1.6243   -0.3592 H   0  0  0  0  0  0  0  0  0  0  0  0
   -6.2689   -1.2389    1.5443 H   0  0  0  0  0  0  0  0  0  0  0  0
   -6.2730   -1.1328   -0.8782 H   0  0  0  0  0  0  0  0  0  0  0  0
   -7.8120   -0.6208   -0.1977 H   0  0  0  0  0  0  0  0  0  0  0  0
   -6.3518   -1.0160   -3.0087 H   0  0  0  0  0  0  0  0  0  0  0  0
   -9.3244    0.4434   -1.5101 H   0  0  0  0  0  0  0  0  0  0  0  0
   -6.5282    1.7077    1.5704 H   0  0  0  0  0  0  0  0  0  0  0  0
   -7.6011    0.5229    2.2929 H   0  0  0  0  0  0  0  0  0  0  0  0
  1  2  1  0
  2  3  2  0
  2  4  1  0
  4  5  1  0
  4  6  1  0
  4  7  1  0
  8  9  1  0
  9 10  1  0
 10 11  1  0
 11 12  1  0
 12 13  1  0
 13 14  1  0
 14 15  1  0
 15 16  1  0
 16 17  1  0
 17 18  1  0
 18 19  1  0
 19 20  1  0
 20 21  1  0
 21 22  2  0
 21 23  1  0
 23 24  1  0
 24 25  1  0
 25 26  1  0
 26 27  2  0
 26 28  1  0
 26 29  1  0
 23 30  1  0
  1 31  1  0
  8 32  1  0
  8 33  1  0
  8 34  1  0
  9 35  1  0
  9 36  1  0
 10 37  1  0
 10 38  1  0
 11 39  1  0
 11 40  1  0
 12 41  1  0
 12 42  1  0
 13 43  1  0
 13 44  1  0
 14 45  1  0
 14 46  1  0
 15 47  1  0
 15 48  1  0
 16 49  1  0
 16 50  1  0
 17 51  1  0
 17 52  1  0
 18 53  1  0
 18 54  1  0
 19 55  1  0
 19 56  1  0
 20 57  1  0
 23 58  1  1
 24 59  1  0
 24 60  1  0
 28 61  1  0
 29 62  1  0
 30 63  1  0
 30 64  1  0
M  END
>  <Ligand ID>  (1) 
LIG0004279

>  <Ligand>  (1) 
CHEMBL324358

>  <SMILES>  (1) 
OC(=O)C(F)(F)F.CCCCCCCCCCCCNC(=O)[C@H](COP(=O)(O)O)N

>  <CID>  (1) 
44342220.0

>  <ChEMBL ID>  (1) 
nan

>  <InChiKey>  (1) 
LQTGIRMBAYSEJU-UQKRIMTDSA-N

>  <InChi>  (1) 
InChI=1S/C15H33N2O5P.C2HF3O2/c1-2-3-4-5-6-7-8-9-10-11-12-17-15(18)14(16)13-22-23(19,20)21;3-2(4,5)1(6)7/h14H,2-13,16H2,1H3,(H,17,18)(H2,19,20,21);(H,6,7)/t14-;/m0./s1

>  <IUPAC Name>  (1) 
[(2S)-2-amino-3-(dodecylamino)-3-oxopropyl] dihydrogen phosphate;2,2,2-trifluoroacetic acid

$$$$
