
     RDKit          3D

  8  6  0  0  0  0  0  0  0  0999 V2000
    1.6736   -1.0227    0.0229 O   0  0  0  0  0  0  0  0  0  0  0  0
    0.8196    0.0557    0.0119 C   0  0  0  0  0  0  0  0  0  0  0  0
    1.3418    1.2075   -0.0060 O   0  0  0  0  0  0  0  0  0  0  0  0
   -0.6497   -0.0322    0.0195 C   0  0  0  0  0  0  0  0  0  0  0  0
    0.0000    0.0000    0.0000 H   0  0  0  0  0 15  0  0  0  0  0  0
   -0.9962   -1.0462   -0.3029 H   0  0  0  0  0  0  0  0  0  0  0  0
   -1.1112    0.1710    1.0025 H   0  0  0  0  0  0  0  0  0  0  0  0
   -1.0778    0.6669   -0.7478 H   0  0  0  0  0  0  0  0  0  0  0  0
  1  2  1  0
  2  3  2  0
  2  4  1  0
  4  6  1  0
  4  7  1  0
  4  8  1  0
M  CHG  2   1  -1   5   1
M  END
>  <Ligand ID>  (1) 
LIG0005072

>  <Ligand>  (1) 
CID 21980959

>  <SMILES>  (1) 
[O-]C(=O)C.[H+]

>  <CID>  (1) 
21980959.0

>  <ChEMBL ID>  (1) 
nan

>  <InChiKey>  (1) 
QTBSBXVTEAMEQO-UHFFFAOYSA-N

>  <InChi>  (1) 
InChI=1S/C2H4O2/c1-2(3)4/h1H3,(H,3,4)

>  <IUPAC Name>  (1) 
hydron;acetate

$$$$
