
     RDKit          3D

 36 39  0  0  0  0  0  0  0  0999 V2000
    5.2684    0.6838    1.8752 C   0  0  0  0  0  0  0  0  0  0  0  0
    4.3232    0.7900    0.8030 N   0  0  0  0  0  0  0  0  0  0  0  0
    4.4602    1.5743   -0.2421 N   0  0  0  0  0  0  0  0  0  0  0  0
    3.3839    1.4288   -1.0631 C   0  0  0  0  0  0  0  0  0  0  0  0
    2.5556    0.4966   -0.4635 C   0  0  0  0  0  0  0  0  0  0  0  0
    3.1761    0.1090    0.7176 C   0  0  0  0  0  0  0  0  0  0  0  0
    1.2695   -0.0225   -0.9261 C   0  0  0  0  0  0  0  0  0  0  0  0
    1.0512   -0.4143   -2.2344 C   0  0  0  0  0  0  0  0  0  0  0  0
   -0.1846   -0.8988   -2.6211 C   0  0  0  0  0  0  0  0  0  0  0  0
   -1.2358   -1.0074   -1.7208 C   0  0  0  0  0  0  0  0  0  0  0  0
   -1.0267   -0.6158   -0.4016 C   0  0  0  0  0  0  0  0  0  0  0  0
    0.2293   -0.1269   -0.0229 C   0  0  0  0  0  0  0  0  0  0  0  0
    0.1891    0.2209    1.4366 C   0  0  0  0  0  0  0  0  0  0  0  0
   -1.3018    0.5128    1.6262 C   0  0  0  0  0  0  0  0  0  0  0  0
   -1.8925   -0.5937    0.7912 C   0  0  0  0  0  0  0  0  0  0  0  0
   -3.2977   -0.3460    0.3985 C   0  0  0  0  0  0  0  0  0  0  0  0
   -4.1789   -1.3425    0.0974 N   0  0  0  0  0  0  0  0  0  0  0  0
   -5.3651   -0.7953   -0.2179 C   0  0  0  0  0  0  0  0  0  0  0  0
   -5.2233    0.5928   -0.1110 C   0  0  0  0  0  0  0  0  0  0  0  0
   -3.9455    0.8421    0.2687 N   0  0  0  0  0  0  0  0  0  0  0  0
    4.8190    0.2433    2.7935 H   0  0  0  0  0  0  0  0  0  0  0  0
    6.1539    0.1066    1.5649 H   0  0  0  0  0  0  0  0  0  0  0  0
    5.5619    1.7218    2.1703 H   0  0  0  0  0  0  0  0  0  0  0  0
    3.1814    1.9247   -2.0030 H   0  0  0  0  0  0  0  0  0  0  0  0
    2.7729   -0.6142    1.4138 H   0  0  0  0  0  0  0  0  0  0  0  0
    1.8569   -0.3335   -2.9340 H   0  0  0  0  0  0  0  0  0  0  0  0
   -0.2956   -1.1925   -3.6688 H   0  0  0  0  0  0  0  0  0  0  0  0
   -2.1943   -1.3929   -2.0602 H   0  0  0  0  0  0  0  0  0  0  0  0
    0.7366    1.1411    1.6595 H   0  0  0  0  0  0  0  0  0  0  0  0
    0.4649   -0.6488    2.0713 H   0  0  0  0  0  0  0  0  0  0  0  0
   -1.5451    1.4963    1.1886 H   0  0  0  0  0  0  0  0  0  0  0  0
   -1.6359    0.3798    2.6608 H   0  0  0  0  0  0  0  0  0  0  0  0
   -1.8609   -1.5483    1.3607 H   0  0  0  0  0  0  0  0  0  0  0  0
   -3.9981   -2.3784    0.1002 H   0  0  0  0  0  0  0  0  0  0  0  0
   -6.2761   -1.3403   -0.5061 H   0  0  0  0  0  0  0  0  0  0  0  0
   -5.9961    1.3476   -0.2975 H   0  0  0  0  0  0  0  0  0  0  0  0
  1  2  1  0
  2  3  1  0
  3  4  2  0
  4  5  1  0
  5  6  2  0
  5  7  1  0
  7  8  2  0
  8  9  1  0
  9 10  2  0
 10 11  1  0
 11 12  2  0
 12 13  1  0
 13 14  1  0
 14 15  1  0
 15 16  1  0
 16 17  1  0
 17 18  1  0
 18 19  2  0
 19 20  1  0
  6  2  1  0
 12  7  1  0
 20 16  2  0
 15 11  1  0
  1 21  1  0
  1 22  1  0
  1 23  1  0
  4 24  1  0
  6 25  1  0
  8 26  1  0
  9 27  1  0
 10 28  1  0
 13 29  1  0
 13 30  1  0
 14 31  1  0
 14 32  1  0
 15 33  1  0
 17 34  1  0
 18 35  1  0
 19 36  1  0
M  END
>  <Ligand ID>  (1) 
LIG0001970

>  <Ligand>  (1) 
CHEMBL261304

>  <SMILES>  (1) 
Cn1ncc(c1)c1cccc2c1CCC2c1[nH]ccn1

>  <CID>  (1) 
44449724.0

>  <ChEMBL ID>  (1) 
nan

>  <InChiKey>  (1) 
RGODJQWSYIQDDR-UHFFFAOYSA-N

>  <InChi>  (1) 
InChI=1S/C16H16N4/c1-20-10-11(9-19-20)12-3-2-4-13-14(12)5-6-15(13)16-17-7-8-18-16/h2-4,7-10,15H,5-6H2,1H3,(H,17,18)

>  <IUPAC Name>  (1) 
4-[1-(1H-imidazol-2-yl)-2,3-dihydro-1H-inden-4-yl]-1-methylpyrazole

$$$$
