
     RDKit          3D

 32 32  0  0  0  0  0  0  0  0999 V2000
    5.3485   -0.3964   -1.3412 O   0  0  0  0  0  0  0  0  0  0  0  0
    4.6619    0.1394   -0.4964 C   0  0  0  0  0  0  0  0  0  0  0  0
    3.2762   -0.3542   -0.1524 C   0  0  0  0  0  0  0  0  0  0  0  0
    2.3614    0.7728   -0.4353 C   0  0  0  0  0  0  0  0  0  0  0  0
    0.9328    0.5686   -0.1876 C   0  0  0  0  0  0  0  0  0  0  0  0
    0.3628    0.8565    1.0428 C   0  0  0  0  0  0  0  0  0  0  0  0
   -0.9903    0.6415    1.2118 C   0  0  0  0  0  0  0  0  0  0  0  0
   -1.8098    0.1527    0.2156 C   0  0  0  0  0  0  0  0  0  0  0  0
   -1.2372   -0.1353   -1.0165 C   0  0  0  0  0  0  0  0  0  0  0  0
    0.1171    0.0860   -1.1668 C   0  0  0  0  0  0  0  0  0  0  0  0
   -3.2514   -0.0739    0.4032 C   0  0  0  0  0  0  0  0  0  0  0  0
   -3.5424   -1.5670    0.2443 C   0  0  0  0  0  0  0  0  0  0  0  0
   -4.0825    0.7487   -0.5599 C   0  0  0  0  0  0  0  0  0  0  0  0
    3.3302   -0.6327    1.3504 C   0  0  0  0  0  0  0  0  0  0  0  0
    5.0197    1.0194    0.0653 H   0  0  0  0  0  0  0  0  0  0  0  0
    3.1190   -1.2627   -0.7281 H   0  0  0  0  0  0  0  0  0  0  0  0
    2.5033    1.1522   -1.4703 H   0  0  0  0  0  0  0  0  0  0  0  0
    2.6658    1.6165    0.2482 H   0  0  0  0  0  0  0  0  0  0  0  0
    1.0080    1.2398    1.8224 H   0  0  0  0  0  0  0  0  0  0  0  0
   -1.4040    0.8805    2.1966 H   0  0  0  0  0  0  0  0  0  0  0  0
   -1.8678   -0.5203   -1.8100 H   0  0  0  0  0  0  0  0  0  0  0  0
    0.5390   -0.1453   -2.1334 H   0  0  0  0  0  0  0  0  0  0  0  0
   -3.5267    0.2086    1.4362 H   0  0  0  0  0  0  0  0  0  0  0  0
   -2.8776   -2.0408   -0.5003 H   0  0  0  0  0  0  0  0  0  0  0  0
   -4.6205   -1.6255   -0.0606 H   0  0  0  0  0  0  0  0  0  0  0  0
   -3.4366   -2.0374    1.2559 H   0  0  0  0  0  0  0  0  0  0  0  0
   -3.4373    1.6182   -0.8674 H   0  0  0  0  0  0  0  0  0  0  0  0
   -4.9783    1.1180   -0.0564 H   0  0  0  0  0  0  0  0  0  0  0  0
   -4.3221    0.1084   -1.4582 H   0  0  0  0  0  0  0  0  0  0  0  0
    2.3564   -0.9729    1.7480 H   0  0  0  0  0  0  0  0  0  0  0  0
    3.6918    0.2665    1.8742 H   0  0  0  0  0  0  0  0  0  0  0  0
    4.0908   -1.4300    1.4750 H   0  0  0  0  0  0  0  0  0  0  0  0
  1  2  2  0
  2  3  1  0
  3  4  1  0
  4  5  1  0
  5  6  2  0
  6  7  1  0
  7  8  2  0
  8  9  1  0
  9 10  2  0
  8 11  1  0
 11 12  1  0
 11 13  1  0
  3 14  1  0
 10  5  1  0
  2 15  1  0
  3 16  1  0
  4 17  1  0
  4 18  1  0
  6 19  1  0
  7 20  1  0
  9 21  1  0
 10 22  1  0
 11 23  1  0
 12 24  1  0
 12 25  1  0
 12 26  1  0
 13 27  1  0
 13 28  1  0
 13 29  1  0
 14 30  1  0
 14 31  1  0
 14 32  1  0
M  END
>  <Ligand ID>  (1) 
LIG0002097

>  <Ligand>  (1) 
2-methyl-3-(4-propan-2-ylphenyl)propanal

>  <SMILES>  (1) 
O=CC(Cc1ccc(cc1)C(C)C)C

>  <CID>  (1) 
517827.0

>  <ChEMBL ID>  (1) 
nan

>  <InChiKey>  (1) 
ZFNVDHOSLNRHNN-UHFFFAOYSA-N

>  <InChi>  (1) 
InChI=1S/C13H18O/c1-10(2)13-6-4-12(5-7-13)8-11(3)9-14/h4-7,9-11H,8H2,1-3H3

>  <IUPAC Name>  (1) 
2-methyl-3-(4-propan-2-ylphenyl)propanal

$$$$
