
     RDKit          3D

 82 85  0  0  0  0  0  0  0  0999 V2000
   -1.3620   -1.1858   -2.3009 C   0  0  0  0  0  0  0  0  0  0  0  0
   -2.8433   -1.4137   -2.5090 C   0  0  0  0  0  0  0  0  0  0  0  0
   -3.6722   -0.5970   -1.5644 C   0  0  0  0  0  0  0  0  0  0  0  0
   -3.4054   -0.9056   -0.1457 C   0  0  0  0  0  0  0  0  0  0  0  0
   -2.5908   -1.7246    0.2434 O   0  0  0  0  0  0  0  0  0  0  0  0
   -4.1860   -0.1657    0.8818 C   0  0  0  0  0  0  0  0  0  0  0  0
   -4.0107    1.3167    0.8120 C   0  0  0  0  0  0  0  0  0  0  0  0
   -2.5372    1.6823    0.8431 C   0  0  0  0  0  0  0  0  0  0  0  0
   -1.8375    0.7724    1.7170 N   0  0  0  0  0  0  0  0  0  0  0  0
   -2.6192    0.1853    2.7987 C   0  0  0  0  0  0  0  0  0  0  0  0
   -3.7849   -0.5991    2.2929 C   0  0  0  0  0  0  0  0  0  0  0  0
   -0.4726    0.4238    1.5991 C   0  0  0  0  0  0  0  0  0  0  0  0
    0.0304   -0.4219    2.4243 O   0  0  0  0  0  0  0  0  0  0  0  0
    0.4697    0.9498    0.5880 C   0  0  1  0  0  0  0  0  0  0  0  0
    0.7017    2.4331    0.7694 C   0  0  0  0  0  0  0  0  0  0  0  0
    1.6505    2.9756   -0.2372 C   0  0  0  0  0  0  0  0  0  0  0  0
    1.2029    3.4769   -1.4638 C   0  0  0  0  0  0  0  0  0  0  0  0
    2.1137    3.9722   -2.3732 C   0  0  0  0  0  0  0  0  0  0  0  0
    3.4416    3.9673   -2.0658 C   0  0  0  0  0  0  0  0  0  0  0  0
    3.9083    3.4734   -0.8518 C   0  0  0  0  0  0  0  0  0  0  0  0
    3.0031    2.9714    0.0742 C   0  0  0  0  0  0  0  0  0  0  0  0
    4.3754    4.4653   -2.9780 O   0  0  0  0  0  0  0  0  0  0  0  0
    5.7483    4.4971   -2.7432 C   0  0  0  0  0  0  0  0  0  0  0  0
    1.7059    0.2069    0.7850 N   0  0  0  0  0  0  0  0  0  0  0  0
    2.2647   -0.5801   -0.2175 C   0  0  0  0  0  0  0  0  0  0  0  0
    1.7028   -0.6670   -1.3384 O   0  0  0  0  0  0  0  0  0  0  0  0
    3.5426   -1.3671   -0.0554 C   0  0  2  0  0  0  0  0  0  0  0  0
    3.3925   -2.7674   -0.4581 C   0  0  0  0  0  0  0  0  0  0  0  0
    4.5671   -3.6306   -0.3506 C   0  0  0  0  0  0  0  0  0  0  0  0
    4.4612   -4.9970   -0.7140 C   0  0  0  0  0  0  0  0  0  0  0  0
    5.6399   -5.5922   -0.5318 N   0  0  0  0  0  0  0  0  0  0  0  0
    6.4811   -4.6581   -0.0699 C   0  0  0  0  0  0  0  0  0  0  0  0
    5.8284   -3.4564    0.0419 N   0  0  0  0  0  0  0  0  0  0  0  0
    6.5052   -2.2833    0.5141 C   0  0  0  0  0  0  0  0  0  0  0  0
    3.9613   -1.1365    1.2952 N   0  0  0  0  0  0  0  0  0  0  0  0
   -5.6551   -0.4356    0.6771 C   0  0  0  0  0  0  0  0  0  0  0  0
   -6.0781   -1.7332    0.4427 C   0  0  0  0  0  0  0  0  0  0  0  0
   -7.4252   -1.9760    0.2572 C   0  0  0  0  0  0  0  0  0  0  0  0
   -8.3639   -0.9632    0.2984 C   0  0  0  0  0  0  0  0  0  0  0  0
   -7.9452    0.3311    0.5318 C   0  0  0  0  0  0  0  0  0  0  0  0
   -6.5917    0.5742    0.7182 C   0  0  0  0  0  0  0  0  0  0  0  0
   -0.9508   -1.6504   -1.4004 H   0  0  0  0  0  0  0  0  0  0  0  0
   -0.7794   -1.4885   -3.2039 H   0  0  0  0  0  0  0  0  0  0  0  0
   -1.2330   -0.0776   -2.2529 H   0  0  0  0  0  0  0  0  0  0  0  0
   -3.0212   -2.5043   -2.4025 H   0  0  0  0  0  0  0  0  0  0  0  0
   -3.0510   -1.1824   -3.5692 H   0  0  0  0  0  0  0  0  0  0  0  0
   -4.7365   -0.7395   -1.8481 H   0  0  0  0  0  0  0  0  0  0  0  0
   -3.4694    0.4812   -1.7563 H   0  0  0  0  0  0  0  0  0  0  0  0
   -4.5204    1.7708   -0.0637 H   0  0  0  0  0  0  0  0  0  0  0  0
   -4.4488    1.7346    1.7599 H   0  0  0  0  0  0  0  0  0  0  0  0
   -2.1061    1.6755   -0.1906 H   0  0  0  0  0  0  0  0  0  0  0  0
   -2.5177    2.7395    1.1855 H   0  0  0  0  0  0  0  0  0  0  0  0
   -1.9641   -0.4866    3.3809 H   0  0  0  0  0  0  0  0  0  0  0  0
   -2.9084    1.0067    3.4947 H   0  0  0  0  0  0  0  0  0  0  0  0
   -4.6667   -0.2838    2.9260 H   0  0  0  0  0  0  0  0  0  0  0  0
   -3.7052   -1.6897    2.3917 H   0  0  0  0  0  0  0  0  0  0  0  0
    0.0091    0.7961   -0.4009 H   0  0  0  0  0  0  0  0  0  0  0  0
   -0.2553    2.9444    0.5630 H   0  0  0  0  0  0  0  0  0  0  0  0
    0.9795    2.7021    1.8100 H   0  0  0  0  0  0  0  0  0  0  0  0
    0.1415    3.4774   -1.7026 H   0  0  0  0  0  0  0  0  0  0  0  0
    1.7927    4.3620   -3.3174 H   0  0  0  0  0  0  0  0  0  0  0  0
    4.9604    3.4636   -0.5949 H   0  0  0  0  0  0  0  0  0  0  0  0
    3.3287    2.5763    1.0331 H   0  0  0  0  0  0  0  0  0  0  0  0
    6.2048    5.1627   -3.5229 H   0  0  0  0  0  0  0  0  0  0  0  0
    5.9390    4.8534   -1.7298 H   0  0  0  0  0  0  0  0  0  0  0  0
    6.1149    3.4445   -2.9167 H   0  0  0  0  0  0  0  0  0  0  0  0
    2.1626    0.2862    1.7155 H   0  0  0  0  0  0  0  0  0  0  0  0
    4.2399   -0.8485   -0.7422 H   0  0  0  0  0  0  0  0  0  0  0  0
    3.0917   -2.7956   -1.5570 H   0  0  0  0  0  0  0  0  0  0  0  0
    2.5699   -3.3106    0.0821 H   0  0  0  0  0  0  0  0  0  0  0  0
    3.5859   -5.5085   -1.0827 H   0  0  0  0  0  0  0  0  0  0  0  0
    7.5139   -4.8767    0.1642 H   0  0  0  0  0  0  0  0  0  0  0  0
    6.4647   -2.1648    1.6389 H   0  0  0  0  0  0  0  0  0  0  0  0
    6.3476   -1.3629   -0.0430 H   0  0  0  0  0  0  0  0  0  0  0  0
    7.6252   -2.4704    0.3666 H   0  0  0  0  0  0  0  0  0  0  0  0
    4.1380   -0.1164    1.4257 H   0  0  0  0  0  0  0  0  0  0  0  0
    3.2214   -1.4367    1.9557 H   0  0  0  0  0  0  0  0  0  0  0  0
   -5.3169   -2.4912    0.4189 H   0  0  0  0  0  0  0  0  0  0  0  0
   -7.7230   -3.0111    0.0751 H   0  0  0  0  0  0  0  0  0  0  0  0
   -9.4239   -1.1566    0.1522 H   0  0  0  0  0  0  0  0  0  0  0  0
   -8.6471    1.1729    0.5739 H   0  0  0  0  0  0  0  0  0  0  0  0
   -6.3043    1.5855    0.8973 H   0  0  0  0  0  0  0  0  0  0  0  0
  1  2  1  0
  2  3  1  0
  3  4  1  0
  4  5  2  0
  4  6  1  0
  6  7  1  0
  7  8  1  0
  8  9  1  0
  9 10  1  0
 10 11  1  0
  9 12  1  0
 12 13  2  0
 12 14  1  0
 14 15  1  0
 15 16  1  0
 16 17  2  0
 17 18  1  0
 18 19  2  0
 19 20  1  0
 20 21  2  0
 19 22  1  0
 22 23  1  0
 14 24  1  0
 24 25  1  0
 25 26  2  0
 25 27  1  0
 27 28  1  0
 28 29  1  0
 29 30  2  0
 30 31  1  0
 31 32  2  0
 32 33  1  0
 33 34  1  0
 27 35  1  0
  6 36  1  0
 36 37  2  0
 37 38  1  0
 38 39  2  0
 39 40  1  0
 40 41  2  0
 11  6  1  0
 21 16  1  0
 33 29  1  0
 41 36  1  0
  1 42  1  0
  1 43  1  0
  1 44  1  0
  2 45  1  0
  2 46  1  0
  3 47  1  0
  3 48  1  0
  7 49  1  0
  7 50  1  0
  8 51  1  0
  8 52  1  0
 10 53  1  0
 10 54  1  0
 11 55  1  0
 11 56  1  0
 14 57  1  6
 15 58  1  0
 15 59  1  0
 17 60  1  0
 18 61  1  0
 20 62  1  0
 21 63  1  0
 23 64  1  0
 23 65  1  0
 23 66  1  0
 24 67  1  0
 27 68  1  6
 28 69  1  0
 28 70  1  0
 30 71  1  0
 32 72  1  0
 34 73  1  0
 34 74  1  0
 34 75  1  0
 35 76  1  0
 35 77  1  0
 37 78  1  0
 38 79  1  0
 39 80  1  0
 40 81  1  0
 41 82  1  0
M  END
>  <Ligand ID>  (1) 
LIG0004133

>  <Ligand>  (1) 
CHEMBL14642

>  <SMILES>  (1) 
CCCC(=O)C1(CCN(CC1)C(=O)[C@@H](Cc1ccc(cc1)OC)NC(=O)[C@H](Cc1cncn1C)N)c1ccccc1

>  <CID>  (1) 
9915813.0

>  <ChEMBL ID>  (1) 
nan

>  <InChiKey>  (1) 
GULVVTHHUIIMRL-WUFINQPMSA-N

>  <InChi>  (1) 
InChI=1S/C32H41N5O4/c1-4-8-29(38)32(24-9-6-5-7-10-24)15-17-37(18-16-32)31(40)28(19-23-11-13-26(41-3)14-12-23)35-30(39)27(33)20-25-21-34-22-36(25)2/h5-7,9-14,21-22,27-28H,4,8,15-20,33H2,1-3H3,(H,35,39)/t27-,28+/m0/s1

>  <IUPAC Name>  (1) 
(2S)-2-amino-N-[(2R)-1-(4-butanoyl-4-phenylpiperidin-1-yl)-3-(4-methoxyphenyl)-1-oxopropan-2-yl]-3-(3-methylimidazol-4-yl)propanamide

$$$$
