
     RDKit          3D

 61 63  0  0  0  0  0  0  0  0999 V2000
    3.5134   -0.1516    1.0157 O   0  0  0  0  0  0  0  0  0  0  0  0
    2.9872    0.0232   -0.1162 C   0  0  0  0  0  0  0  0  0  0  0  0
    3.8235   -0.2106   -1.2091 O   0  0  0  0  0  0  0  0  0  0  0  0
    5.1328   -0.6045   -0.9940 C   0  0  0  0  0  0  0  0  0  0  0  0
    5.5724   -1.9074   -1.0798 C   0  0  0  0  0  0  0  0  0  0  0  0
    6.8981   -2.2563   -0.8544 C   0  0  0  0  0  0  0  0  0  0  0  0
    7.8159   -1.2773   -0.5335 C   0  0  0  0  0  0  0  0  0  0  0  0
    7.3949    0.0121   -0.4455 C   0  0  0  0  0  0  0  0  0  0  0  0
    6.0639    0.3512   -0.6734 C   0  0  0  0  0  0  0  0  0  0  0  0
    5.7494    1.6960   -0.5565 O   0  0  0  0  0  0  0  0  0  0  0  0
    6.4803    2.6359    0.1786 C   0  0  0  0  0  0  0  0  0  0  0  0
    7.8427    2.1728    0.6010 C   0  0  0  0  0  0  0  0  0  0  0  0
    8.2775    1.0251   -0.1272 O   0  0  0  0  0  0  0  0  0  0  0  0
    1.6437    0.4323   -0.3074 N   0  0  0  0  0  0  0  0  0  0  0  0
    0.7168    0.6975    0.7922 C   0  0  0  0  0  0  0  0  0  0  0  0
    0.5299   -0.5441    1.6067 C   0  0  0  0  0  0  0  0  0  0  0  0
   -0.0677   -1.7091    0.9432 C   0  0  0  0  0  0  0  0  0  0  0  0
   -1.4990   -1.7584    0.5704 C   0  0  0  0  0  0  0  0  0  0  0  0
   -2.0323   -0.7063   -0.2073 N   0  0  0  0  0  0  0  0  0  0  0  0
   -2.8605   -1.1535   -1.2994 C   0  0  0  0  0  0  0  0  0  0  0  0
   -4.3075   -1.3051   -1.1098 C   0  0  0  0  0  0  0  0  0  0  0  0
   -4.8643   -0.4173   -0.1055 N   0  0  0  0  0  0  0  0  0  0  0  0
   -4.0302   -0.3645    1.1206 C   0  0  0  0  0  0  0  0  0  0  0  0
   -2.7539    0.2621    0.6317 C   0  0  0  0  0  0  0  0  0  0  0  0
   -6.0416    0.3240   -0.2433 C   0  0  0  0  0  0  0  0  0  0  0  0
   -7.1117    0.2682    0.6346 C   0  0  0  0  0  0  0  0  0  0  0  0
   -8.2423    1.0371    0.4594 C   0  0  0  0  0  0  0  0  0  0  0  0
   -8.3585    1.9158   -0.6252 C   0  0  0  0  0  0  0  0  0  0  0  0
   -7.2865    1.9678   -1.4996 C   0  0  0  0  0  0  0  0  0  0  0  0
   -6.1449    1.1997   -1.3336 C   0  0  0  0  0  0  0  0  0  0  0  0
   -4.8803    1.3652   -2.5033 Cl  0  0  0  0  0  0  0  0  0  0  0  0
   -7.4033    3.0562   -2.8598 Cl  0  0  0  0  0  0  0  0  0  0  0  0
    0.6915    0.0000    0.0000 Cl  0  0  0  0  0  0  0  0  0  0  0  0
    4.8614   -2.6988   -1.3336 H   0  0  0  0  0  0  0  0  0  0  0  0
    7.2547   -3.2776   -0.9223 H   0  0  0  0  0  0  0  0  0  0  0  0
    8.8521   -1.5230   -0.3540 H   0  0  0  0  0  0  0  0  0  0  0  0
    5.8746    2.8987    1.0829 H   0  0  0  0  0  0  0  0  0  0  0  0
    6.6029    3.5414   -0.4651 H   0  0  0  0  0  0  0  0  0  0  0  0
    7.8639    1.9005    1.6837 H   0  0  0  0  0  0  0  0  0  0  0  0
    8.5974    2.9849    0.4775 H   0  0  0  0  0  0  0  0  0  0  0  0
    1.3427    0.5316   -1.3255 H   0  0  0  0  0  0  0  0  0  0  0  0
   -0.1984    1.0216    0.3218 H   0  0  0  0  0  0  0  0  0  0  0  0
    1.1117    1.5414    1.4132 H   0  0  0  0  0  0  0  0  0  0  0  0
   -0.0339   -0.2750    2.5684 H   0  0  0  0  0  0  0  0  0  0  0  0
    1.5557   -0.7913    2.0229 H   0  0  0  0  0  0  0  0  0  0  0  0
    0.1852   -2.6174    1.6141 H   0  0  0  0  0  0  0  0  0  0  0  0
    0.5869   -1.9875    0.0275 H   0  0  0  0  0  0  0  0  0  0  0  0
   -1.6580   -2.7191   -0.0033 H   0  0  0  0  0  0  0  0  0  0  0  0
   -2.0634   -1.9492    1.5213 H   0  0  0  0  0  0  0  0  0  0  0  0
   -2.4230   -2.1514   -1.6008 H   0  0  0  0  0  0  0  0  0  0  0  0
   -2.5709   -0.4951   -2.1716 H   0  0  0  0  0  0  0  0  0  0  0  0
   -4.5158   -2.3434   -0.7145 H   0  0  0  0  0  0  0  0  0  0  0  0
   -4.8565   -1.2388   -2.0677 H   0  0  0  0  0  0  0  0  0  0  0  0
   -3.9629   -1.3838    1.4854 H   0  0  0  0  0  0  0  0  0  0  0  0
   -4.5436    0.2359    1.8844 H   0  0  0  0  0  0  0  0  0  0  0  0
   -2.9783    1.1442    0.0303 H   0  0  0  0  0  0  0  0  0  0  0  0
   -2.0837    0.5044    1.4829 H   0  0  0  0  0  0  0  0  0  0  0  0
   -7.0708   -0.3923    1.4888 H   0  0  0  0  0  0  0  0  0  0  0  0
   -9.0558    0.9648    1.1639 H   0  0  0  0  0  0  0  0  0  0  0  0
   -9.2321    2.4984   -0.7454 H   0  0  0  0  0  0  0  0  0  0  0  0
   -0.6915    0.0000    0.0000 H   0  0  0  0  0  0  0  0  0  0  0  0
  1  2  2  0
  2  3  1  0
  3  4  1  0
  4  5  2  0
  5  6  1  0
  6  7  2  0
  7  8  1  0
  8  9  2  0
  9 10  1  0
 10 11  1  0
 11 12  1  0
 12 13  1  0
  2 14  1  0
 14 15  1  0
 15 16  1  0
 16 17  1  0
 17 18  1  0
 18 19  1  0
 19 20  1  0
 20 21  1  0
 21 22  1  0
 22 23  1  0
 23 24  1  0
 22 25  1  0
 25 26  2  0
 26 27  1  0
 27 28  2  0
 28 29  1  0
 29 30  2  0
 30 31  1  0
 29 32  1  0
  9  4  1  0
 24 19  1  0
 30 25  1  0
 13  8  1  0
  5 34  1  0
  6 35  1  0
  7 36  1  0
 11 37  1  0
 11 38  1  0
 12 39  1  0
 12 40  1  0
 14 41  1  0
 15 42  1  0
 15 43  1  0
 16 44  1  0
 16 45  1  0
 17 46  1  0
 17 47  1  0
 18 48  1  0
 18 49  1  0
 20 50  1  0
 20 51  1  0
 21 52  1  0
 21 53  1  0
 23 54  1  0
 23 55  1  0
 24 56  1  0
 24 57  1  0
 26 58  1  0
 27 59  1  0
 28 60  1  0
 33 61  1  0
M  END
>  <Ligand ID>  (1) 
LIG0003167

>  <Ligand>  (1) 
CHEMBL3798372

>  <SMILES>  (1) 
O=C(Oc1cccc2c1OCCO2)NCCCCN1CCN(CC1)c1cccc(c1Cl)Cl.Cl

>  <CID>  (1) 
127047462.0

>  <ChEMBL ID>  (1) 
nan

>  <InChiKey>  (1) 
PJXTUEAYKNCWFN-UHFFFAOYSA-N

>  <InChi>  (1) 
InChI=1S/C23H27Cl2N3O4.ClH/c24-17-5-3-6-18(21(17)25)28-13-11-27(12-14-28)10-2-1-9-26-23(29)32-20-8-4-7-19-22(20)31-16-15-30-19;/h3-8H,1-2,9-16H2,(H,26,29);1H

>  <IUPAC Name>  (1) 
2,3-dihydro-1,4-benzodioxin-5-yl N-[4-[4-(2,3-dichlorophenyl)piperazin-1-yl]butyl]carbamate;hydrochloride

$$$$
