
     RDKit          3D

 82 81  0  0  0  0  0  0  0  0999 V2000
   11.0843   -1.4955    2.2455 C   0  0  0  0  0  0  0  0  0  0  0  0
   11.6014   -0.9009    0.9657 C   0  0  0  0  0  0  0  0  0  0  0  0
   10.7893    0.3239    0.5683 C   0  0  0  0  0  0  0  0  0  0  0  0
    9.3331   -0.1058    0.3751 C   0  0  0  0  0  0  0  0  0  0  0  0
    8.4964    1.0815   -0.0195 C   0  0  0  0  0  0  0  0  0  0  0  0
    7.0554    0.6992   -0.2225 C   0  0  0  0  0  0  0  0  0  0  0  0
    6.4163    0.1195    1.0156 C   0  0  0  0  0  0  0  0  0  0  0  0
    4.9578   -0.2462    0.7520 C   0  0  0  0  0  0  0  0  0  0  0  0
    4.8015   -1.2412   -0.3164 C   0  0  0  0  0  0  0  0  0  0  0  0
    4.1308   -1.0647   -1.4406 C   0  0  0  0  0  0  0  0  0  0  0  0
    3.4186    0.1641   -1.8244 C   0  0  0  0  0  0  0  0  0  0  0  0
    1.9333   -0.0802   -2.0401 C   0  0  0  0  0  0  0  0  0  0  0  0
    1.3368   -0.5958   -0.7686 C   0  0  0  0  0  0  0  0  0  0  0  0
   -0.1445   -0.8654   -0.8902 C   0  0  0  0  0  0  0  0  0  0  0  0
   -0.8953    0.4105   -1.2584 C   0  0  0  0  0  0  0  0  0  0  0  0
   -0.6640    1.4390   -0.1779 C   0  0  0  0  0  0  0  0  0  0  0  0
   -1.3958    2.7025   -0.5340 C   0  0  0  0  0  0  0  0  0  0  0  0
   -2.9034    2.4308   -0.6528 C   0  0  0  0  0  0  0  0  0  0  0  0
   -3.3542    1.9621    0.5516 O   0  0  0  0  0  0  0  0  0  0  0  0
   -4.6955    1.7186    0.5479 C   0  0  0  0  0  0  0  0  0  0  0  0
   -5.0731    0.6834   -0.4516 C   0  0  2  0  0  0  0  0  0  0  0  0
   -6.5453    0.3462   -0.2224 C   0  0  0  0  0  0  0  0  0  0  0  0
   -7.3545    1.4403   -0.5229 O   0  0  0  0  0  0  0  0  0  0  0  0
   -8.9854    1.1725   -0.2984 P   0  0  0  0  0  0  0  0  0  0  0  0
   -9.7732    1.1089   -1.5984 O   0  0  0  0  0  0  0  0  0  0  0  0
   -9.3545   -0.1547    0.6452 O   0  0  0  0  0  0  0  0  0  0  0  0
   -9.8084   -1.2401   -0.0971 C   0  0  0  0  0  0  0  0  0  0  0  0
  -10.1278   -2.3517    0.8732 C   0  0  1  0  0  0  0  0  0  0  0  0
  -11.2529   -1.8125    1.7185 C   0  0  0  0  0  0  0  0  0  0  0  0
  -11.0868   -0.7705    2.4122 O   0  0  0  0  0  0  0  0  0  0  0  0
  -12.4946   -2.4379    1.7607 O   0  0  0  0  0  0  0  0  0  0  0  0
  -10.6121   -3.5380    0.2025 N   0  0  0  0  0  0  0  0  0  0  0  0
   -9.5946    2.5411    0.5299 O   0  0  0  0  0  0  0  0  0  0  0  0
   -4.3736   -0.4939   -0.1144 O   0  0  0  0  0  0  0  0  0  0  0  0
   10.2585   -2.2044    2.0707 H   0  0  0  0  0  0  0  0  0  0  0  0
   11.9006   -2.0315    2.7801 H   0  0  0  0  0  0  0  0  0  0  0  0
   10.6991   -0.6989    2.9438 H   0  0  0  0  0  0  0  0  0  0  0  0
   11.5152   -1.6779    0.1620 H   0  0  0  0  0  0  0  0  0  0  0  0
   12.6491   -0.5680    1.0356 H   0  0  0  0  0  0  0  0  0  0  0  0
   11.1331    0.7245   -0.3931 H   0  0  0  0  0  0  0  0  0  0  0  0
   10.8124    1.0489    1.3948 H   0  0  0  0  0  0  0  0  0  0  0  0
    9.3015   -0.9188   -0.3591 H   0  0  0  0  0  0  0  0  0  0  0  0
    9.0080   -0.4925    1.3778 H   0  0  0  0  0  0  0  0  0  0  0  0
    8.8953    1.4426   -0.9929 H   0  0  0  0  0  0  0  0  0  0  0  0
    8.6038    1.8935    0.7266 H   0  0  0  0  0  0  0  0  0  0  0  0
    6.4494    1.5698   -0.5364 H   0  0  0  0  0  0  0  0  0  0  0  0
    7.0194   -0.0333   -1.0569 H   0  0  0  0  0  0  0  0  0  0  0  0
    6.4312    0.8412    1.8564 H   0  0  0  0  0  0  0  0  0  0  0  0
    6.9965   -0.7755    1.3115 H   0  0  0  0  0  0  0  0  0  0  0  0
    4.6074   -0.7356    1.7076 H   0  0  0  0  0  0  0  0  0  0  0  0
    4.3490    0.6529    0.6558 H   0  0  0  0  0  0  0  0  0  0  0  0
    5.2912   -2.2183   -0.1553 H   0  0  0  0  0  0  0  0  0  0  0  0
    4.0972   -1.8991   -2.1529 H   0  0  0  0  0  0  0  0  0  0  0  0
    3.6035    1.0353   -1.1983 H   0  0  0  0  0  0  0  0  0  0  0  0
    3.8069    0.4423   -2.8468 H   0  0  0  0  0  0  0  0  0  0  0  0
    1.8565   -0.8159   -2.8760 H   0  0  0  0  0  0  0  0  0  0  0  0
    1.4194    0.8397   -2.3618 H   0  0  0  0  0  0  0  0  0  0  0  0
    1.6167    0.0548    0.0635 H   0  0  0  0  0  0  0  0  0  0  0  0
    1.8095   -1.6048   -0.5832 H   0  0  0  0  0  0  0  0  0  0  0  0
   -0.2728   -1.5983   -1.6885 H   0  0  0  0  0  0  0  0  0  0  0  0
   -0.5220   -1.1860    0.0800 H   0  0  0  0  0  0  0  0  0  0  0  0
   -1.9642    0.1331   -1.2743 H   0  0  0  0  0  0  0  0  0  0  0  0
   -0.6155    0.7932   -2.2524 H   0  0  0  0  0  0  0  0  0  0  0  0
   -1.0391    1.0186    0.7848 H   0  0  0  0  0  0  0  0  0  0  0  0
    0.4032    1.6852   -0.0548 H   0  0  0  0  0  0  0  0  0  0  0  0
   -1.2634    3.4375    0.2890 H   0  0  0  0  0  0  0  0  0  0  0  0
   -1.0297    3.0461   -1.5125 H   0  0  0  0  0  0  0  0  0  0  0  0
   -3.1050    1.7916   -1.5238 H   0  0  0  0  0  0  0  0  0  0  0  0
   -3.3826    3.4416   -0.8010 H   0  0  0  0  0  0  0  0  0  0  0  0
   -4.9905    1.3358    1.5648 H   0  0  0  0  0  0  0  0  0  0  0  0
   -5.2328    2.6846    0.3955 H   0  0  0  0  0  0  0  0  0  0  0  0
   -4.8653    0.9007   -1.4932 H   0  0  0  0  0  0  0  0  0  0  0  0
   -6.6529    0.1538    0.8651 H   0  0  0  0  0  0  0  0  0  0  0  0
   -6.8452   -0.5808   -0.7451 H   0  0  0  0  0  0  0  0  0  0  0  0
   -9.1435   -1.5333   -0.9200 H   0  0  0  0  0  0  0  0  0  0  0  0
  -10.7678   -0.9230   -0.5630 H   0  0  0  0  0  0  0  0  0  0  0  0
   -9.3133   -2.6107    1.5588 H   0  0  0  0  0  0  0  0  0  0  0  0
  -13.3284   -1.8972    1.9551 H   0  0  0  0  0  0  0  0  0  0  0  0
   -9.8815   -4.2523    0.0881 H   0  0  0  0  0  0  0  0  0  0  0  0
  -11.1114   -3.2829   -0.6773 H   0  0  0  0  0  0  0  0  0  0  0  0
   -9.6689    3.3177   -0.0742 H   0  0  0  0  0  0  0  0  0  0  0  0
   -4.4032   -0.6947    0.8450 H   0  0  0  0  0  0  0  0  0  0  0  0
  1  2  1  0
  2  3  1  0
  3  4  1  0
  4  5  1  0
  5  6  1  0
  6  7  1  0
  7  8  1  0
  8  9  1  0
  9 10  2  0
 10 11  1  0
 11 12  1  0
 12 13  1  0
 13 14  1  0
 14 15  1  0
 15 16  1  0
 16 17  1  0
 17 18  1  0
 18 19  1  0
 19 20  1  0
 20 21  1  0
 21 22  1  0
 22 23  1  0
 23 24  1  0
 24 25  2  0
 24 26  1  0
 26 27  1  0
 27 28  1  0
 28 29  1  0
 29 30  2  0
 29 31  1  0
 28 32  1  0
 24 33  1  0
 21 34  1  0
  1 35  1  0
  1 36  1  0
  1 37  1  0
  2 38  1  0
  2 39  1  0
  3 40  1  0
  3 41  1  0
  4 42  1  0
  4 43  1  0
  5 44  1  0
  5 45  1  0
  6 46  1  0
  6 47  1  0
  7 48  1  0
  7 49  1  0
  8 50  1  0
  8 51  1  0
  9 52  1  0
 10 53  1  0
 11 54  1  0
 11 55  1  0
 12 56  1  0
 12 57  1  0
 13 58  1  0
 13 59  1  0
 14 60  1  0
 14 61  1  0
 15 62  1  0
 15 63  1  0
 16 64  1  0
 16 65  1  0
 17 66  1  0
 17 67  1  0
 18 68  1  0
 18 69  1  0
 20 70  1  0
 20 71  1  0
 21 72  1  6
 22 73  1  0
 22 74  1  0
 27 75  1  0
 27 76  1  0
 28 77  1  1
 31 78  1  0
 32 79  1  0
 32 80  1  0
 33 81  1  0
 34 82  1  0
M  END
>  <Ligand ID>  (1) 
LIG0004228

>  <Ligand>  (1) 
CHEMBL3577155

>  <SMILES>  (1) 
CCCCCCCC/C=C\CCCCCCCCOC[C@H](COP(=O)(OC[C@@H](C(=O)O)N)O)O

>  <CID>  (1) 
122177503.0

>  <ChEMBL ID>  (1) 
nan

>  <InChiKey>  (1) 
CYQYYSHPNYBPLP-UHAUOVHRSA-N

>  <InChi>  (1) 
InChI=1S/C24H48NO8P/c1-2-3-4-5-6-7-8-9-10-11-12-13-14-15-16-17-18-31-19-22(26)20-32-34(29,30)33-21-23(25)24(27)28/h9-10,22-23,26H,2-8,11-21,25H2,1H3,(H,27,28)(H,29,30)/b10-9-/t22-,23+/m1/s1

>  <IUPAC Name>  (1) 
(2S)-2-amino-3-[hydroxy-[(2R)-2-hydroxy-3-[(Z)-octadec-9-enoxy]propoxy]phosphoryl]oxypropanoic acid

$$$$
