
     RDKit          3D

195202  0  0  0  0  0  0  0  0999 V2000
    8.1226   -4.9314    6.2005 N   0  0  0  0  0  0  0  0  0  0  0  0
    7.0145   -4.1208    6.5826 C   0  0  0  0  0  0  0  0  0  0  0  0
    5.9291   -4.5958    7.0718 N   0  0  0  0  0  0  0  0  0  0  0  0
    7.0638   -2.6954    6.4393 N   0  0  0  0  0  0  0  0  0  0  0  0
    5.9646   -1.9182    5.9305 C   0  0  0  0  0  0  0  0  0  0  0  0
    5.8116   -2.1938    4.4410 C   0  0  0  0  0  0  0  0  0  0  0  0
    4.6776   -1.3953    3.8555 C   0  0  0  0  0  0  0  0  0  0  0  0
    4.5055   -1.5644    2.3502 C   0  0  2  0  0  0  0  0  0  0  0  0
    4.2382   -2.9160    1.9345 N   0  0  0  0  0  0  0  0  0  0  0  0
    3.0056   -3.1274    1.2377 C   0  0  0  0  0  0  0  0  0  0  0  0
    2.3161   -2.0577    1.1025 O   0  0  0  0  0  0  0  0  0  0  0  0
    2.4053   -4.3043    0.6627 C   0  0  1  0  0  0  0  0  0  0  0  0
    2.0042   -5.4000    1.5586 C   0  0  0  0  0  0  0  0  0  0  0  0
    3.1080   -6.0017    2.2797 C   0  0  0  0  0  0  0  0  0  0  0  0
    3.5149   -5.7026    3.5592 C   0  0  0  0  0  0  0  0  0  0  0  0
    4.5829   -6.4054    4.1020 C   0  0  0  0  0  0  0  0  0  0  0  0
    5.2683   -7.3857    3.4444 C   0  0  0  0  0  0  0  0  0  0  0  0
    4.8615   -7.6865    2.1573 C   0  0  0  0  0  0  0  0  0  0  0  0
    3.8132   -7.0105    1.6024 C   0  0  0  0  0  0  0  0  0  0  0  0
    6.8774   -8.4492    4.2501 I   0  0  0  0  0  0  0  0  0  0  0  0
    1.1718   -3.7890   -0.0521 N   0  0  0  0  0  0  0  0  0  0  0  0
    0.7263   -4.4499   -1.1943 C   0  0  0  0  0  0  0  0  0  0  0  0
    1.3984   -5.5239   -1.4436 O   0  0  0  0  0  0  0  0  0  0  0  0
   -0.3422   -4.1686   -2.1436 C   0  0  2  0  0  0  0  0  0  0  0  0
    0.1637   -4.5258   -3.5239 C   0  0  0  0  0  0  0  0  0  0  0  0
   -0.7676   -4.3452   -4.6151 C   0  0  0  0  0  0  0  0  0  0  0  0
   -1.6209   -5.3527   -5.0821 C   0  0  0  0  0  0  0  0  0  0  0  0
   -2.3268   -4.8571   -6.1342 N   0  0  0  0  0  0  0  0  0  0  0  0
   -1.9417   -3.5761   -6.3339 C   0  0  0  0  0  0  0  0  0  0  0  0
   -0.9969   -3.2691   -5.4134 N   0  0  0  0  0  0  0  0  0  0  0  0
   -1.0140   -2.9097   -2.0547 N   0  0  0  0  0  0  0  0  0  0  0  0
   -2.3764   -2.7120   -1.6227 C   0  0  0  0  0  0  0  0  0  0  0  0
   -2.9376   -3.7601   -1.2409 O   0  0  0  0  0  0  0  0  0  0  0  0
   -3.0556   -1.3721   -1.6513 C   0  0  1  0  0  0  0  0  0  0  0  0
   -4.4744   -1.6379   -1.9921 N   0  0  0  0  0  0  0  0  0  0  0  0
   -4.6436   -2.4526   -3.1285 C   0  0  0  0  0  0  0  0  0  0  0  0
   -3.4944   -2.8288   -3.6511 O   0  0  0  0  0  0  0  0  0  0  0  0
   -5.8039   -2.9450   -3.8065 C   0  0  2  0  0  0  0  0  0  0  0  0
   -7.1643   -2.7090   -3.2185 C   0  0  0  0  0  0  0  0  0  0  0  0
   -8.1125   -3.3905   -4.2031 C   0  0  0  0  0  0  0  0  0  0  0  0
   -8.5048   -2.6498   -5.3019 C   0  0  0  0  0  0  0  0  0  0  0  0
   -9.3503   -3.2163   -6.2510 C   0  0  0  0  0  0  0  0  0  0  0  0
   -9.7492   -4.5048   -6.0297 C   0  0  0  0  0  0  0  0  0  0  0  0
   -9.3550   -5.2431   -4.9277 C   0  0  0  0  0  0  0  0  0  0  0  0
   -8.5175   -4.6751   -3.9920 C   0  0  0  0  0  0  0  0  0  0  0  0
  -10.5950   -5.1191   -6.9578 O   0  0  0  0  0  0  0  0  0  0  0  0
   -5.6415   -4.3005   -4.3310 N   0  0  0  0  0  0  0  0  0  0  0  0
   -3.0164   -0.5838   -0.3669 C   0  0  0  0  0  0  0  0  0  0  0  0
   -3.7165    0.6790   -0.6707 C   0  0  0  0  0  0  0  0  0  0  0  0
   -3.7406    1.0659   -1.8177 O   0  0  0  0  0  0  0  0  0  0  0  0
   -4.4237    1.5574    0.1950 N   0  0  0  0  0  0  0  0  0  0  0  0
   -4.5235    1.1009    1.5485 C   0  0  2  0  0  0  0  0  0  0  0  0
   -5.8490    0.5785    1.8867 C   0  0  0  0  0  0  0  0  0  0  0  0
   -6.5730    0.7903    2.8473 O   0  0  0  0  0  0  0  0  0  0  0  0
   -6.4075   -0.3676    0.9151 N   0  0  0  0  0  0  0  0  0  0  0  0
   -3.9086    1.9959    2.5261 C   0  0  0  0  0  0  0  0  0  0  0  0
   -4.0764    1.4317    3.8709 C   0  0  0  0  0  0  0  0  0  0  0  0
   -5.0775    1.9197    4.6690 C   0  0  0  0  0  0  0  0  0  0  0  0
   -5.2512    1.3727    5.9060 C   0  0  0  0  0  0  0  0  0  0  0  0
   -4.4222    0.3490    6.3252 C   0  0  0  0  0  0  0  0  0  0  0  0
   -3.4184   -0.1383    5.5205 C   0  0  0  0  0  0  0  0  0  0  0  0
   -3.2211    0.4030    4.2543 C   0  0  0  0  0  0  0  0  0  0  0  0
   -4.6292   -0.1787    7.5869 O   0  0  0  0  0  0  0  0  0  0  0  0
   -4.9011    2.8963   -0.2282 C   0  0  0  0  0  0  0  0  0  0  0  0
   -5.3941    2.8801   -1.6588 C   0  0  0  0  0  0  0  0  0  0  0  0
   -4.0188    3.9719    0.0896 N   0  0  0  0  0  0  0  0  0  0  0  0
   -2.7284    4.2676   -0.3860 C   0  0  0  0  0  0  0  0  0  0  0  0
   -2.2297    3.5039   -1.2049 O   0  0  0  0  0  0  0  0  0  0  0  0
   -1.9121    5.4504    0.0421 C   0  0  1  0  0  0  0  0  0  0  0  0
   -0.5128    5.2183   -0.3877 N   0  0  0  0  0  0  0  0  0  0  0  0
    0.5618    5.3717    0.5420 C   0  0  0  0  0  0  0  0  0  0  0  0
    0.2311    5.8306    1.6429 O   0  0  0  0  0  0  0  0  0  0  0  0
    1.8990    4.9847    0.1130 C   0  0  1  0  0  0  0  0  0  0  0  0
    2.9456    5.1756    1.1062 N   0  0  0  0  0  0  0  0  0  0  0  0
    4.2609    4.8622    0.7119 C   0  0  0  0  0  0  0  0  0  0  0  0
    4.4443    4.4984   -0.4484 O   0  0  0  0  0  0  0  0  0  0  0  0
    5.4749    4.9208    1.6109 C   0  0  1  0  0  0  0  0  0  0  0  0
    6.3036    3.8967    0.8825 N   0  0  0  0  0  0  0  0  0  0  0  0
    5.9105    2.5865    1.1905 C   0  0  0  0  0  0  0  0  0  0  0  0
    5.0743    2.4325    2.0932 O   0  0  0  0  0  0  0  0  0  0  0  0
    6.3947    1.3081    0.5334 C   0  0  1  0  0  0  0  0  0  0  0  0
    5.4805    0.3684    1.1546 N   0  0  0  0  0  0  0  0  0  0  0  0
    5.6875   -0.9237    1.6614 C   0  0  0  0  0  0  0  0  0  0  0  0
    6.7821   -1.4442    1.5040 O   0  0  0  0  0  0  0  0  0  0  0  0
    6.0862    1.5812   -0.9221 C   0  0  0  0  0  0  0  0  0  0  0  0
    6.4236    0.5944   -1.9176 C   0  0  0  0  0  0  0  0  0  0  0  0
    6.6149   -0.7594   -1.9149 C   0  0  0  0  0  0  0  0  0  0  0  0
    6.9310   -1.2308   -3.1303 N   0  0  0  0  0  0  0  0  0  0  0  0
    6.9500   -0.1811   -3.9554 C   0  0  0  0  0  0  0  0  0  0  0  0
    6.6499    0.9486   -3.2692 C   0  0  0  0  0  0  0  0  0  0  0  0
    6.6021    2.1455   -3.9500 C   0  0  0  0  0  0  0  0  0  0  0  0
    6.8565    2.2108   -5.3098 C   0  0  0  0  0  0  0  0  0  0  0  0
    7.1613    1.0662   -5.9867 C   0  0  0  0  0  0  0  0  0  0  0  0
    7.2108   -0.1519   -5.3085 C   0  0  0  0  0  0  0  0  0  0  0  0
    6.0841    6.2400    1.6923 C   0  0  0  0  0  0  0  0  0  0  0  0
    6.5475    6.7639    0.3750 C   0  0  0  0  0  0  0  0  0  0  0  0
    6.4684    6.1343   -0.6981 O   0  0  0  0  0  0  0  0  0  0  0  0
    7.1184    8.0877    0.3771 N   0  0  0  0  0  0  0  0  0  0  0  0
    1.7819    3.4235   -0.1167 C   0  0  0  0  0  0  0  0  0  0  0  0
   -2.3898    6.7127   -0.6594 C   0  0  0  0  0  0  0  0  0  0  0  0
   -3.7958    7.0586   -0.3943 C   0  0  0  0  0  0  0  0  0  0  0  0
   -4.1603    7.8240    0.7195 C   0  0  0  0  0  0  0  0  0  0  0  0
   -5.4925    8.1654    0.9420 C   0  0  0  0  0  0  0  0  0  0  0  0
   -6.4765    7.7597    0.0742 C   0  0  0  0  0  0  0  0  0  0  0  0
   -6.1115    6.9968   -1.0363 C   0  0  0  0  0  0  0  0  0  0  0  0
   -4.7999    6.6673   -1.2447 C   0  0  0  0  0  0  0  0  0  0  0  0
   -6.2165    3.2128    0.5021 C   0  0  0  0  0  0  0  0  0  0  0  0
   -7.2296    2.5090    0.3715 O   0  0  0  0  0  0  0  0  0  0  0  0
   -6.3014    4.3168    1.3415 O   0  0  0  0  0  0  0  0  0  0  0  0
    9.0692   -4.5741    5.9844 H   0  0  0  0  0  0  0  0  0  0  0  0
    7.9983   -5.9754    6.1212 H   0  0  0  0  0  0  0  0  0  0  0  0
    5.0984   -4.0781    7.3641 H   0  0  0  0  0  0  0  0  0  0  0  0
    7.9774   -2.2320    6.7282 H   0  0  0  0  0  0  0  0  0  0  0  0
    6.1910   -0.8398    6.0864 H   0  0  0  0  0  0  0  0  0  0  0  0
    5.0630   -2.1995    6.4963 H   0  0  0  0  0  0  0  0  0  0  0  0
    5.7538   -3.2690    4.3019 H   0  0  0  0  0  0  0  0  0  0  0  0
    6.7731   -1.8464    3.9680 H   0  0  0  0  0  0  0  0  0  0  0  0
    4.9052   -0.3269    4.0669 H   0  0  0  0  0  0  0  0  0  0  0  0
    3.7017   -1.5788    4.3566 H   0  0  0  0  0  0  0  0  0  0  0  0
    3.6255   -0.9417    2.1102 H   0  0  0  0  0  0  0  0  0  0  0  0
    4.8179   -3.7314    2.0682 H   0  0  0  0  0  0  0  0  0  0  0  0
    3.0443   -4.7824   -0.1299 H   0  0  0  0  0  0  0  0  0  0  0  0
    1.4978   -6.2181    0.9602 H   0  0  0  0  0  0  0  0  0  0  0  0
    1.2389   -5.0217    2.2874 H   0  0  0  0  0  0  0  0  0  0  0  0
    2.9927   -4.9294    4.0932 H   0  0  0  0  0  0  0  0  0  0  0  0
    4.8653   -6.1577    5.0947 H   0  0  0  0  0  0  0  0  0  0  0  0
    5.3778   -8.4650    1.5748 H   0  0  0  0  0  0  0  0  0  0  0  0
    3.5365   -7.2817    0.5894 H   0  0  0  0  0  0  0  0  0  0  0  0
    0.6658   -2.9810    0.2890 H   0  0  0  0  0  0  0  0  0  0  0  0
   -1.1569   -4.9339   -1.9100 H   0  0  0  0  0  0  0  0  0  0  0  0
    1.0340   -3.8219   -3.7223 H   0  0  0  0  0  0  0  0  0  0  0  0
    0.6275   -5.5350   -3.5246 H   0  0  0  0  0  0  0  0  0  0  0  0
   -1.7074   -6.3497   -4.6817 H   0  0  0  0  0  0  0  0  0  0  0  0
   -2.3684   -2.9737   -7.1153 H   0  0  0  0  0  0  0  0  0  0  0  0
   -0.5150   -2.3439   -5.3340 H   0  0  0  0  0  0  0  0  0  0  0  0
   -0.5477   -2.0351   -2.3180 H   0  0  0  0  0  0  0  0  0  0  0  0
   -2.5918   -0.8737   -2.4825 H   0  0  0  0  0  0  0  0  0  0  0  0
   -5.2845   -1.2763   -1.4976 H   0  0  0  0  0  0  0  0  0  0  0  0
   -5.8672   -2.3386   -4.8074 H   0  0  0  0  0  0  0  0  0  0  0  0
   -7.3624   -1.6062   -3.2914 H   0  0  0  0  0  0  0  0  0  0  0  0
   -7.3333   -3.1329   -2.2320 H   0  0  0  0  0  0  0  0  0  0  0  0
   -8.1427   -1.6253   -5.4164 H   0  0  0  0  0  0  0  0  0  0  0  0
   -9.6361   -2.6343   -7.1050 H   0  0  0  0  0  0  0  0  0  0  0  0
   -9.6863   -6.2683   -4.7570 H   0  0  0  0  0  0  0  0  0  0  0  0
   -8.1828   -5.2204   -3.1057 H   0  0  0  0  0  0  0  0  0  0  0  0
  -10.5540   -6.1288   -7.0964 H   0  0  0  0  0  0  0  0  0  0  0  0
   -5.4903   -4.9954   -3.5793 H   0  0  0  0  0  0  0  0  0  0  0  0
   -4.9684   -4.3331   -5.1002 H   0  0  0  0  0  0  0  0  0  0  0  0
   -3.5152   -1.2390    0.3731 H   0  0  0  0  0  0  0  0  0  0  0  0
   -1.9482   -0.3898   -0.1642 H   0  0  0  0  0  0  0  0  0  0  0  0
   -3.8570    0.1133    1.5648 H   0  0  0  0  0  0  0  0  0  0  0  0
   -5.8885   -1.2383    0.7369 H   0  0  0  0  0  0  0  0  0  0  0  0
   -7.2935   -0.1784    0.4234 H   0  0  0  0  0  0  0  0  0  0  0  0
   -2.7907    2.1025    2.3944 H   0  0  0  0  0  0  0  0  0  0  0  0
   -4.2961    3.0301    2.5302 H   0  0  0  0  0  0  0  0  0  0  0  0
   -5.7428    2.7416    4.3900 H   0  0  0  0  0  0  0  0  0  0  0  0
   -6.0569    1.7590    6.5460 H   0  0  0  0  0  0  0  0  0  0  0  0
   -2.7991   -0.9374    5.8772 H   0  0  0  0  0  0  0  0  0  0  0  0
   -2.4494    0.0388    3.6138 H   0  0  0  0  0  0  0  0  0  0  0  0
   -5.4582    0.0434    8.1173 H   0  0  0  0  0  0  0  0  0  0  0  0
   -6.1919    3.6627   -1.7682 H   0  0  0  0  0  0  0  0  0  0  0  0
   -5.8895    1.9228   -1.8989 H   0  0  0  0  0  0  0  0  0  0  0  0
   -4.5571    3.0989   -2.3508 H   0  0  0  0  0  0  0  0  0  0  0  0
   -4.3563    4.6814    0.7937 H   0  0  0  0  0  0  0  0  0  0  0  0
   -1.9436    5.5332    1.1170 H   0  0  0  0  0  0  0  0  0  0  0  0
   -0.2712    4.9549   -1.3347 H   0  0  0  0  0  0  0  0  0  0  0  0
    2.2845    5.2961   -0.8559 H   0  0  0  0  0  0  0  0  0  0  0  0
    2.8194    5.5146    2.0539 H   0  0  0  0  0  0  0  0  0  0  0  0
    5.1714    4.5349    2.6030 H   0  0  0  0  0  0  0  0  0  0  0  0
    7.0435    4.0773    0.2607 H   0  0  0  0  0  0  0  0  0  0  0  0
    7.4412    1.0945    0.6685 H   0  0  0  0  0  0  0  0  0  0  0  0
    4.4864    0.6942    1.2274 H   0  0  0  0  0  0  0  0  0  0  0  0
    6.5205    2.5922   -1.1200 H   0  0  0  0  0  0  0  0  0  0  0  0
    4.9788    1.7635   -0.9814 H   0  0  0  0  0  0  0  0  0  0  0  0
    6.5222   -1.4101   -1.0635 H   0  0  0  0  0  0  0  0  0  0  0  0
    7.1254   -2.2512   -3.3616 H   0  0  0  0  0  0  0  0  0  0  0  0
    6.3679    3.0410   -3.4092 H   0  0  0  0  0  0  0  0  0  0  0  0
    6.8227    3.1423   -5.8655 H   0  0  0  0  0  0  0  0  0  0  0  0
    7.3528    1.1389   -7.0646 H   0  0  0  0  0  0  0  0  0  0  0  0
    7.4594   -1.0703   -5.8472 H   0  0  0  0  0  0  0  0  0  0  0  0
    6.9579    6.1811    2.4009 H   0  0  0  0  0  0  0  0  0  0  0  0
    5.3302    6.9658    2.0570 H   0  0  0  0  0  0  0  0  0  0  0  0
    8.1061    8.2833    0.6337 H   0  0  0  0  0  0  0  0  0  0  0  0
    6.4444    8.8437    0.0930 H   0  0  0  0  0  0  0  0  0  0  0  0
    2.7272    3.0577   -0.4917 H   0  0  0  0  0  0  0  0  0  0  0  0
    1.0334    3.3853   -0.9561 H   0  0  0  0  0  0  0  0  0  0  0  0
    1.3365    2.9483    0.7490 H   0  0  0  0  0  0  0  0  0  0  0  0
   -1.7048    7.5642   -0.4573 H   0  0  0  0  0  0  0  0  0  0  0  0
   -2.3013    6.5649   -1.7787 H   0  0  0  0  0  0  0  0  0  0  0  0
   -3.4065    8.1692    1.4313 H   0  0  0  0  0  0  0  0  0  0  0  0
   -5.7537    8.7473    1.8107 H   0  0  0  0  0  0  0  0  0  0  0  0
   -7.5246    8.0255    0.2395 H   0  0  0  0  0  0  0  0  0  0  0  0
   -6.8369    6.6566   -1.7597 H   0  0  0  0  0  0  0  0  0  0  0  0
   -4.5431    6.0743   -2.1272 H   0  0  0  0  0  0  0  0  0  0  0  0
   -7.1868    4.5499    1.8092 H   0  0  0  0  0  0  0  0  0  0  0  0
  1  2  1  0
  2  3  2  3
  2  4  1  0
  4  5  1  0
  5  6  1  0
  6  7  1  0
  7  8  1  0
  8  9  1  0
  9 10  1  0
 10 11  2  0
 10 12  1  0
 12 13  1  0
 13 14  1  0
 14 15  2  0
 15 16  1  0
 16 17  2  0
 17 18  1  0
 18 19  2  0
 17 20  1  0
 12 21  1  0
 21 22  1  0
 22 23  2  0
 22 24  1  0
 24 25  1  0
 25 26  1  0
 26 27  2  0
 27 28  1  0
 28 29  2  0
 29 30  1  0
 24 31  1  0
 31 32  1  0
 32 33  2  0
 32 34  1  0
 34 35  1  0
 35 36  1  0
 36 37  2  0
 36 38  1  0
 38 39  1  0
 39 40  1  0
 40 41  2  0
 41 42  1  0
 42 43  2  0
 43 44  1  0
 44 45  2  0
 43 46  1  0
 38 47  1  0
 34 48  1  0
 48 49  1  0
 49 50  2  0
 49 51  1  0
 51 52  1  0
 52 53  1  0
 53 54  2  0
 53 55  1  0
 52 56  1  0
 56 57  1  0
 57 58  2  0
 58 59  1  0
 59 60  2  0
 60 61  1  0
 61 62  2  0
 60 63  1  0
 51 64  1  0
 64 65  1  0
 64 66  1  0
 66 67  1  0
 67 68  2  0
 67 69  1  0
 69 70  1  0
 70 71  1  0
 71 72  2  0
 71 73  1  0
 73 74  1  0
 74 75  1  0
 75 76  2  0
 75 77  1  0
 77 78  1  0
 78 79  1  0
 79 80  2  0
 79 81  1  0
 81 82  1  0
 82 83  1  0
 83 84  2  0
 81 85  1  0
 85 86  1  0
 86 87  2  0
 87 88  1  0
 88 89  1  0
 89 90  2  0
 90 91  1  0
 91 92  2  0
 92 93  1  0
 93 94  2  0
 77 95  1  0
 95 96  1  0
 96 97  2  0
 96 98  1  0
 73 99  1  0
 69100  1  0
100101  1  0
101102  2  0
102103  1  0
103104  2  0
104105  1  0
105106  2  0
 64107  1  0
107108  2  0
107109  1  0
 83  8  1  0
 90 86  1  0
106101  1  0
 19 14  1  0
 30 26  1  0
 45 40  1  0
 62 57  1  0
 94 89  1  0
  1110  1  0
  1111  1  0
  3112  1  0
  4113  1  0
  5114  1  0
  5115  1  0
  6116  1  0
  6117  1  0
  7118  1  0
  7119  1  0
  8120  1  6
  9121  1  0
 12122  1  6
 13123  1  0
 13124  1  0
 15125  1  0
 16126  1  0
 18127  1  0
 19128  1  0
 21129  1  0
 24130  1  1
 25131  1  0
 25132  1  0
 27133  1  0
 29134  1  0
 30135  1  0
 31136  1  0
 34137  1  6
 35138  1  0
 38139  1  6
 39140  1  0
 39141  1  0
 41142  1  0
 42143  1  0
 44144  1  0
 45145  1  0
 46146  1  0
 47147  1  0
 47148  1  0
 48149  1  0
 48150  1  0
 52151  1  6
 55152  1  0
 55153  1  0
 56154  1  0
 56155  1  0
 58156  1  0
 59157  1  0
 61158  1  0
 62159  1  0
 63160  1  0
 65161  1  0
 65162  1  0
 65163  1  0
 66164  1  0
 69165  1  1
 70166  1  0
 73167  1  6
 74168  1  0
 77169  1  1
 78170  1  0
 81171  1  6
 82172  1  0
 85173  1  0
 85174  1  0
 87175  1  0
 88176  1  0
 91177  1  0
 92178  1  0
 93179  1  0
 94180  1  0
 95181  1  0
 95182  1  0
 98183  1  0
 98184  1  0
 99185  1  0
 99186  1  0
 99187  1  0
100188  1  0
100189  1  0
102190  1  0
103191  1  0
104192  1  0
105193  1  0
106194  1  0
109195  1  0
M  END
>  <Ligand ID>  (1) 
LIG0005514

>  <Ligand>  (1) 
CHEMBL2096727

>  <SMILES>  (1) 
NC(=N)NCCC[C@@H]1NC(=O)[C@@H](Cc2ccc(cc2)I)NC(=O)[C@H](Cc2cnc[nH]2)NC(=O)[C@@H](NC(=O)[C@H](Cc2ccc(cc2)O)N)CC(=O)N([C@H](C(=O)N)Cc2ccc(cc2)O)C(C)(NC(=O)[C@@H](NC(=O)[C@@H](NC(=O)[C@@H](NC(=O)[C@@H](NC1=O)Cc1c[nH]c2c1cccc2)CC(=O)N)C)Cc1ccccc1)C(=O)O

>  <CID>  (1) 
91900710.0

>  <ChEMBL ID>  (1) 
nan

>  <InChiKey>  (1) 
CNIUCUZOXJJMCC-JLRIXZJWSA-N

>  <InChi>  (1) 
InChI=1S/C73H86IN19O16/c1-38-62(99)86-53(28-39-9-4-3-5-10-39)70(107)92-73(2,71(108)109)93(58(61(77)98)30-42-18-24-47(95)25-19-42)60(97)34-57(87-63(100)49(75)27-40-16-22-46(94)23-17-40)69(106)90-55(32-45-36-80-37-83-45)68(105)88-52(29-41-14-20-44(74)21-15-41)66(103)85-51(13-8-26-81-72(78)79)64(101)89-54(31-43-35-82-50-12-7-6-11-48(43)50)67(104)91-56(33-59(76)96)65(102)84-38/h3-7,9-12,14-25,35-38,49,51-58,82,94-95H,8,13,26-34,75H2,1-2H3,(H2,76,96)(H2,77,98)(H,80,83)(H,84,102)(H,85,103)(H,86,99)(H,87,100)(H,88,105)(H,89,101)(H,90,106)(H,91,104)(H,92,107)(H,108,109)(H4,78,79,81)/t38-,49-,51-,52+,53-,54-,55-,56-,57-,58-,73?/m0/s1

>  <IUPAC Name>  (1) 
(5S,8S,11S,14S,17S,20R,23S,26S)-1-[(2S)-1-amino-3-(4-hydroxyphenyl)-1-oxopropan-2-yl]-26-[[(2S)-2-amino-3-(4-hydroxyphenyl)propanoyl]amino]-11-(2-amino-2-oxoethyl)-5-benzyl-17-(3-carbamimidamidopropyl)-23-(1H-imidazol-5-ylmethyl)-14-(1H-indol-3-ylmethyl)-20-[(4-iodophenyl)methyl]-2,8-dimethyl-4,7,10,13,16,19,22,25,28-nonaoxo-1,3,6,9,12,15,18,21,24-nonazacyclooctacosane-2-carboxylic acid

$$$$
