
     RDKit          3D

 69 71  0  0  0  0  0  0  0  0999 V2000
   -2.6766   -5.3782    1.0301 N   0  0  0  0  0  0  0  0  0  0  0  0
   -3.7985   -4.9554    0.2509 C   0  0  0  0  0  0  0  0  0  0  0  0
   -3.4481   -3.6868   -0.5674 C   0  0  0  0  0  0  0  0  0  0  0  0
   -2.3222   -3.9416   -1.4797 C   0  0  0  0  0  0  0  0  0  0  0  0
   -1.8461   -2.9076   -2.4130 C   0  0  0  0  0  0  0  0  0  0  0  0
   -1.4078   -1.6473   -1.9125 N   0  0  0  0  0  0  0  0  0  0  0  0
   -2.1892   -0.6567   -1.2800 C   0  0  0  0  0  0  0  0  0  0  0  0
   -3.4463   -0.7769   -1.1042 O   0  0  0  0  0  0  0  0  0  0  0  0
   -1.5812    0.5848   -0.7862 C   0  0  2  0  0  0  0  0  0  0  0  0
   -0.7244    0.4097    0.4535 C   0  0  0  0  0  0  0  0  0  0  0  0
    0.4041   -0.4994    0.3128 C   0  0  0  0  0  0  0  0  0  0  0  0
    0.3404   -1.8495    0.6624 C   0  0  0  0  0  0  0  0  0  0  0  0
    1.4228   -2.6640    0.5122 C   0  0  0  0  0  0  0  0  0  0  0  0
    2.6542   -2.2008    0.0027 C   0  0  0  0  0  0  0  0  0  0  0  0
    2.6703   -0.8680   -0.3284 C   0  0  0  0  0  0  0  0  0  0  0  0
    1.5890   -0.0250   -0.1850 C   0  0  0  0  0  0  0  0  0  0  0  0
    3.6452   -3.0955   -0.0982 O   0  0  0  0  0  0  0  0  0  0  0  0
    4.9532   -3.0949   -0.5134 C   0  0  0  0  0  0  0  0  0  0  0  0
    5.8942   -2.2204    0.2053 C   0  0  0  0  0  0  0  0  0  0  0  0
    6.4458   -2.7076    1.3788 C   0  0  0  0  0  0  0  0  0  0  0  0
    7.3570   -1.9559    2.1036 C   0  0  0  0  0  0  0  0  0  0  0  0
    7.7315   -0.6943    1.6580 C   0  0  0  0  0  0  0  0  0  0  0  0
    7.1980   -0.1981    0.5016 C   0  0  0  0  0  0  0  0  0  0  0  0
    6.2957   -0.9721   -0.1922 C   0  0  0  0  0  0  0  0  0  0  0  0
   -2.6696    1.4740   -0.3120 N   0  0  0  0  0  0  0  0  0  0  0  0
   -2.7607    2.8213   -0.7675 C   0  0  0  0  0  0  0  0  0  0  0  0
   -1.8736    3.2007   -1.5736 O   0  0  0  0  0  0  0  0  0  0  0  0
   -3.8083    3.6649   -0.3165 N   0  0  0  0  0  0  0  0  0  0  0  0
   -3.9808    5.0375   -0.7045 C   0  0  0  0  0  0  0  0  0  0  0  0
   -3.0356    5.9029    0.0396 C   0  0  0  0  0  0  0  0  0  0  0  0
   -3.4853    6.3863    1.2698 C   0  0  0  0  0  0  0  0  0  0  0  0
   -2.7206    7.1966    2.0672 C   0  0  0  0  0  0  0  0  0  0  0  0
   -1.4698    7.5405    1.6326 C   0  0  0  0  0  0  0  0  0  0  0  0
   -1.0156    7.0662    0.4147 C   0  0  0  0  0  0  0  0  0  0  0  0
   -1.7847    6.2464   -0.3950 C   0  0  0  0  0  0  0  0  0  0  0  0
   -2.1598   -6.1824    0.6434 H   0  0  0  0  0  0  0  0  0  0  0  0
   -2.8036   -5.3899    2.0493 H   0  0  0  0  0  0  0  0  0  0  0  0
   -4.5842   -4.6228    0.9582 H   0  0  0  0  0  0  0  0  0  0  0  0
   -4.2363   -5.7349   -0.3909 H   0  0  0  0  0  0  0  0  0  0  0  0
   -4.3505   -3.3685   -1.0835 H   0  0  0  0  0  0  0  0  0  0  0  0
   -3.2150   -2.9337    0.2347 H   0  0  0  0  0  0  0  0  0  0  0  0
   -2.6401   -4.8265   -2.1301 H   0  0  0  0  0  0  0  0  0  0  0  0
   -1.4221   -4.2960   -0.8671 H   0  0  0  0  0  0  0  0  0  0  0  0
   -2.6809   -2.7663   -3.1760 H   0  0  0  0  0  0  0  0  0  0  0  0
   -1.0218   -3.3240   -3.0680 H   0  0  0  0  0  0  0  0  0  0  0  0
   -0.3804   -1.4074   -2.0335 H   0  0  0  0  0  0  0  0  0  0  0  0
   -0.9732    1.0514   -1.5679 H   0  0  0  0  0  0  0  0  0  0  0  0
   -0.3179    1.4296    0.6719 H   0  0  0  0  0  0  0  0  0  0  0  0
   -1.3894    0.1869    1.3203 H   0  0  0  0  0  0  0  0  0  0  0  0
   -0.5924   -2.2262    1.0552 H   0  0  0  0  0  0  0  0  0  0  0  0
    1.3307   -3.7225    0.7988 H   0  0  0  0  0  0  0  0  0  0  0  0
    3.5656   -0.4458   -0.7281 H   0  0  0  0  0  0  0  0  0  0  0  0
    1.6653    1.0230   -0.4662 H   0  0  0  0  0  0  0  0  0  0  0  0
    5.0437   -2.7944   -1.6004 H   0  0  0  0  0  0  0  0  0  0  0  0
    5.3533   -4.1535   -0.4584 H   0  0  0  0  0  0  0  0  0  0  0  0
    6.2012   -3.6769    1.7819 H   0  0  0  0  0  0  0  0  0  0  0  0
    7.7847   -2.3325    3.0158 H   0  0  0  0  0  0  0  0  0  0  0  0
    8.4432   -0.1285    2.2402 H   0  0  0  0  0  0  0  0  0  0  0  0
    7.4961    0.7777    0.1677 H   0  0  0  0  0  0  0  0  0  0  0  0
    5.8950   -0.5662   -1.0982 H   0  0  0  0  0  0  0  0  0  0  0  0
   -3.3410    1.0535    0.3568 H   0  0  0  0  0  0  0  0  0  0  0  0
   -4.4955    3.2125    0.3571 H   0  0  0  0  0  0  0  0  0  0  0  0
   -3.8072    5.1793   -1.7997 H   0  0  0  0  0  0  0  0  0  0  0  0
   -5.0276    5.3339   -0.4525 H   0  0  0  0  0  0  0  0  0  0  0  0
   -4.4852    6.1243    1.6355 H   0  0  0  0  0  0  0  0  0  0  0  0
   -3.0866    7.5563    3.0113 H   0  0  0  0  0  0  0  0  0  0  0  0
   -0.8822    8.1793    2.2724 H   0  0  0  0  0  0  0  0  0  0  0  0
   -0.0182    7.3736    0.1287 H   0  0  0  0  0  0  0  0  0  0  0  0
   -1.4242    5.8815   -1.3453 H   0  0  0  0  0  0  0  0  0  0  0  0
  1  2  1  0
  2  3  1  0
  3  4  1  0
  4  5  1  0
  5  6  1  0
  6  7  1  0
  7  8  2  0
  7  9  1  0
  9 10  1  0
 10 11  1  0
 11 12  2  0
 12 13  1  0
 13 14  2  0
 14 15  1  0
 15 16  2  0
 14 17  1  0
 17 18  1  0
 18 19  1  0
 19 20  2  0
 20 21  1  0
 21 22  2  0
 22 23  1  0
 23 24  2  0
  9 25  1  0
 25 26  1  0
 26 27  2  0
 26 28  1  0
 28 29  1  0
 29 30  1  0
 30 31  2  0
 31 32  1  0
 32 33  2  0
 33 34  1  0
 34 35  2  0
 16 11  1  0
 24 19  1  0
 35 30  1  0
  1 36  1  0
  1 37  1  0
  2 38  1  0
  2 39  1  0
  3 40  1  0
  3 41  1  0
  4 42  1  0
  4 43  1  0
  5 44  1  0
  5 45  1  0
  6 46  1  0
  9 47  1  6
 10 48  1  0
 10 49  1  0
 12 50  1  0
 13 51  1  0
 15 52  1  0
 16 53  1  0
 18 54  1  0
 18 55  1  0
 20 56  1  0
 21 57  1  0
 22 58  1  0
 23 59  1  0
 24 60  1  0
 25 61  1  0
 28 62  1  0
 29 63  1  0
 29 64  1  0
 31 65  1  0
 32 66  1  0
 33 67  1  0
 34 68  1  0
 35 69  1  0
M  END
>  <Ligand ID>  (1) 
LIG0001265

>  <Ligand>  (1) 
CHEMBL63867

>  <SMILES>  (1) 
NCCCCNC(=O)[C@H](Cc1ccc(cc1)OCc1ccccc1)NC(=O)NCc1ccccc1

>  <CID>  (1) 
44305885.0

>  <ChEMBL ID>  (1) 
nan

>  <InChiKey>  (1) 
LJBHFCJUGLSHFE-SANMLTNESA-N

>  <InChi>  (1) 
InChI=1S/C28H34N4O3/c29-17-7-8-18-30-27(33)26(32-28(34)31-20-23-9-3-1-4-10-23)19-22-13-15-25(16-14-22)35-21-24-11-5-2-6-12-24/h1-6,9-16,26H,7-8,17-21,29H2,(H,30,33)(H2,31,32,34)/t26-/m0/s1

>  <IUPAC Name>  (1) 
(2S)-N-(4-aminobutyl)-2-(benzylcarbamoylamino)-3-(4-phenylmethoxyphenyl)propanamide

$$$$
