
     RDKit          3D

 56 58  0  0  0  0  0  0  0  0999 V2000
    6.5681    3.4550    1.4684 N   0  0  0  0  0  0  0  0  0  0  0  0
    7.2016    2.5893    1.0738 C   0  0  0  0  0  0  0  0  0  0  0  0
    7.9836    1.5024    0.5572 C   0  0  0  0  0  0  0  0  0  0  0  0
    9.3103    1.7036    0.1663 C   0  0  0  0  0  0  0  0  0  0  0  0
   10.0601    0.6825   -0.3230 N   0  0  0  0  0  0  0  0  0  0  0  0
    9.5539   -0.5672   -0.4510 C   0  0  0  0  0  0  0  0  0  0  0  0
    8.2401   -0.7666   -0.0638 C   0  0  0  0  0  0  0  0  0  0  0  0
    7.4457    0.2429    0.4372 C   0  0  0  0  0  0  0  0  0  0  0  0
    6.0467   -0.0699    0.8275 C   0  0  0  0  0  0  0  0  0  0  0  0
    5.1803    0.4192   -0.1524 O   0  0  0  0  0  0  0  0  0  0  0  0
    3.7990    0.2811   -0.0794 C   0  0  0  0  0  0  0  0  0  0  0  0
    3.1888   -0.3656    0.9941 C   0  0  0  0  0  0  0  0  0  0  0  0
    1.8341   -0.4959    1.0570 N   0  0  0  0  0  0  0  0  0  0  0  0
    1.0651    0.0122    0.0583 C   0  0  0  0  0  0  0  0  0  0  0  0
    1.6358    0.6432   -0.9919 N   0  0  0  0  0  0  0  0  0  0  0  0
    2.9899    0.7832   -1.0723 C   0  0  0  0  0  0  0  0  0  0  0  0
   -0.3626   -0.1288    0.1160 N   0  0  0  0  0  0  0  0  0  0  0  0
   -1.1169    0.9362    0.7040 C   0  0  0  0  0  0  0  0  0  0  0  0
   -2.5471    0.8643    0.1876 C   0  0  0  0  0  0  0  0  0  0  0  0
   -3.0440   -0.4952    0.2518 N   0  0  0  0  0  0  0  0  0  0  0  0
   -2.1885   -1.6605    0.3073 C   0  0  0  0  0  0  0  0  0  0  0  0
   -0.9105   -1.3438   -0.4307 C   0  0  1  0  0  0  0  0  0  0  0  0
   -1.2199   -1.2716   -1.9016 C   0  0  0  0  0  0  0  0  0  0  0  0
   -4.4648   -0.7222    0.2661 C   0  0  0  0  0  0  0  0  0  0  0  0
   -4.9518   -1.8879    0.3210 O   0  0  0  0  0  0  0  0  0  0  0  0
   -5.3802    0.3202    0.2211 O   0  0  0  0  0  0  0  0  0  0  0  0
   -6.7808    0.0961    0.2375 C   0  0  0  0  0  0  0  0  0  0  0  0
   -7.2741   -0.7294   -0.9048 C   0  0  0  0  0  0  0  0  0  0  0  0
   -7.4490    1.4543    0.1838 C   0  0  0  0  0  0  0  0  0  0  0  0
   -7.2139   -0.5170    1.5640 C   0  0  0  0  0  0  0  0  0  0  0  0
    9.7644    2.6732    0.2447 H   0  0  0  0  0  0  0  0  0  0  0  0
   10.1541   -1.3698   -0.8383 H   0  0  0  0  0  0  0  0  0  0  0  0
    7.8117   -1.7459   -0.1534 H   0  0  0  0  0  0  0  0  0  0  0  0
    5.8858   -1.1609    0.9354 H   0  0  0  0  0  0  0  0  0  0  0  0
    5.7778    0.4229    1.7835 H   0  0  0  0  0  0  0  0  0  0  0  0
    3.8066   -0.7680    1.7887 H   0  0  0  0  0  0  0  0  0  0  0  0
    3.4499    1.2894   -1.9146 H   0  0  0  0  0  0  0  0  0  0  0  0
   -0.7512    1.9484    0.4900 H   0  0  0  0  0  0  0  0  0  0  0  0
   -1.1813    0.7939    1.8056 H   0  0  0  0  0  0  0  0  0  0  0  0
   -2.7042    1.3661   -0.7669 H   0  0  0  0  0  0  0  0  0  0  0  0
   -3.1383    1.4773    0.9345 H   0  0  0  0  0  0  0  0  0  0  0  0
   -2.7296   -2.5260   -0.1384 H   0  0  0  0  0  0  0  0  0  0  0  0
   -1.9948   -1.8309    1.4022 H   0  0  0  0  0  0  0  0  0  0  0  0
   -0.2220   -2.2151   -0.2265 H   0  0  0  0  0  0  0  0  0  0  0  0
   -1.9720   -0.4887   -2.0757 H   0  0  0  0  0  0  0  0  0  0  0  0
   -1.7294   -2.2316   -2.1571 H   0  0  0  0  0  0  0  0  0  0  0  0
   -0.3156   -1.1808   -2.5334 H   0  0  0  0  0  0  0  0  0  0  0  0
   -8.0576   -1.4257   -0.5151 H   0  0  0  0  0  0  0  0  0  0  0  0
   -6.5064   -1.3736   -1.3541 H   0  0  0  0  0  0  0  0  0  0  0  0
   -7.7437   -0.0889   -1.6742 H   0  0  0  0  0  0  0  0  0  0  0  0
   -6.9244    2.1029    0.9177 H   0  0  0  0  0  0  0  0  0  0  0  0
   -8.5336    1.3827    0.4108 H   0  0  0  0  0  0  0  0  0  0  0  0
   -7.2502    1.9232   -0.8135 H   0  0  0  0  0  0  0  0  0  0  0  0
   -8.3254   -0.4389    1.5954 H   0  0  0  0  0  0  0  0  0  0  0  0
   -6.9459   -1.5907    1.6318 H   0  0  0  0  0  0  0  0  0  0  0  0
   -6.8236    0.0916    2.3929 H   0  0  0  0  0  0  0  0  0  0  0  0
  1  2  3  0
  2  3  1  0
  3  4  2  0
  4  5  1  0
  5  6  2  0
  6  7  1  0
  7  8  2  0
  8  9  1  0
  9 10  1  0
 10 11  1  0
 11 12  2  0
 12 13  1  0
 13 14  2  0
 14 15  1  0
 15 16  2  0
 14 17  1  0
 17 18  1  0
 18 19  1  0
 19 20  1  0
 20 21  1  0
 21 22  1  0
 22 23  1  0
 20 24  1  0
 24 25  2  0
 24 26  1  0
 26 27  1  0
 27 28  1  0
 27 29  1  0
 27 30  1  0
  8  3  1  0
 16 11  1  0
 22 17  1  0
  4 31  1  0
  6 32  1  0
  7 33  1  0
  9 34  1  0
  9 35  1  0
 12 36  1  0
 16 37  1  0
 18 38  1  0
 18 39  1  0
 19 40  1  0
 19 41  1  0
 21 42  1  0
 21 43  1  0
 22 44  1  6
 23 45  1  0
 23 46  1  0
 23 47  1  0
 28 48  1  0
 28 49  1  0
 28 50  1  0
 29 51  1  0
 29 52  1  0
 29 53  1  0
 30 54  1  0
 30 55  1  0
 30 56  1  0
M  END
>  <Ligand ID>  (1) 
LIG0005291

>  <Ligand>  (1) 
CHEMBL2086684

>  <SMILES>  (1) 
N#Cc1cnccc1COc1cnc(nc1)N1CCN(C[C@H]1C)C(=O)OC(C)(C)C

>  <CID>  (1) 
51030054.0

>  <ChEMBL ID>  (1) 
nan

>  <InChiKey>  (1) 
SWOVRIONHBWLMV-OAHLLOKOSA-N

>  <InChi>  (1) 
InChI=1S/C21H26N6O3/c1-15-13-26(20(28)30-21(2,3)4)7-8-27(15)19-24-11-18(12-25-19)29-14-16-5-6-23-10-17(16)9-22/h5-6,10-12,15H,7-8,13-14H2,1-4H3/t15-/m1/s1

>  <IUPAC Name>  (1) 
tert-butyl (3R)-4-[5-[(3-cyanopyridin-4-yl)methoxy]pyrimidin-2-yl]-3-methylpiperazine-1-carboxylate

$$$$
