
     RDKit          3D

 80 83  0  0  0  0  0  0  0  0999 V2000
    9.0926    0.9044   -1.3434 O   0  0  0  0  0  0  0  0  0  0  0  0
    8.7540   -0.1378   -0.7244 C   0  0  0  0  0  0  0  0  0  0  0  0
    9.4032   -0.5195    0.4351 O   0  0  0  0  0  0  0  0  0  0  0  0
   10.4638    0.2486    0.9539 C   0  0  0  0  0  0  0  0  0  0  0  0
   10.1182    1.6544    1.3050 C   0  0  0  0  0  0  0  0  0  0  0  0
   11.5593    0.2639   -0.0923 C   0  0  0  0  0  0  0  0  0  0  0  0
   11.0538   -0.3910    2.2030 C   0  0  0  0  0  0  0  0  0  0  0  0
    7.6876   -0.9300   -1.2310 N   0  0  0  0  0  0  0  0  0  0  0  0
    6.9555   -0.5956   -2.4422 C   0  0  0  0  0  0  0  0  0  0  0  0
    6.2778    0.7270   -2.3544 C   0  0  0  0  0  0  0  0  0  0  0  0
    5.3464    0.8902   -1.3554 O   0  0  0  0  0  0  0  0  0  0  0  0
    4.1704    0.2496   -1.1886 C   0  0  0  0  0  0  0  0  0  0  0  0
    3.4304    0.6019   -0.0390 C   0  0  0  0  0  0  0  0  0  0  0  0
    2.2176    0.0264    0.2471 C   0  0  0  0  0  0  0  0  0  0  0  0
    1.6426   -0.9272   -0.5607 C   0  0  0  0  0  0  0  0  0  0  0  0
    2.3570   -1.2836   -1.6943 C   0  0  0  0  0  0  0  0  0  0  0  0
    3.5951   -0.6961   -1.9870 C   0  0  0  0  0  0  0  0  0  0  0  0
    0.4047   -1.5488   -0.3166 N   0  0  0  0  0  0  0  0  0  0  0  0
   -0.6099   -1.0813    0.5478 C   0  0  0  0  0  0  0  0  0  0  0  0
   -1.3965   -2.0092    1.2113 C   0  0  0  0  0  0  0  0  0  0  0  0
   -2.4101   -1.6535    2.0568 C   0  0  0  0  0  0  0  0  0  0  0  0
   -2.7111   -0.3060    2.2984 C   0  0  0  0  0  0  0  0  0  0  0  0
   -1.9122    0.5983    1.6228 C   0  0  0  0  0  0  0  0  0  0  0  0
   -0.8956    0.2446    0.7759 C   0  0  0  0  0  0  0  0  0  0  0  0
   -3.7738    0.1053    3.2083 C   0  0  0  0  0  0  0  0  0  0  0  0
   -5.1115    0.4216    2.6775 C   0  0  0  0  0  0  0  0  0  0  0  0
   -5.8700   -0.5004    1.9661 N   0  0  0  0  0  0  0  0  0  0  0  0
   -5.5877   -0.8919    0.6531 C   0  0  0  0  0  0  0  0  0  0  0  0
   -5.8225    0.2008   -0.3796 C   0  0  1  0  0  0  0  0  0  0  0  0
   -7.2194    0.6291   -0.4281 C   0  0  0  0  0  0  0  0  0  0  0  0
   -7.6045    1.7348    0.3179 C   0  0  0  0  0  0  0  0  0  0  0  0
   -8.9259    2.1933    0.3124 C   0  0  0  0  0  0  0  0  0  0  0  0
   -9.9055    1.5612   -0.4385 C   0  0  0  0  0  0  0  0  0  0  0  0
   -9.5140    0.4663   -1.1739 C   0  0  0  0  0  0  0  0  0  0  0  0
   -8.2076    0.0025   -1.1773 C   0  0  0  0  0  0  0  0  0  0  0  0
   -7.8738   -1.1009   -1.9308 C   0  0  0  0  0  0  0  0  0  0  0  0
   -8.8330   -1.7533   -2.6867 C   0  0  0  0  0  0  0  0  0  0  0  0
  -10.1301   -1.2548   -2.6541 C   0  0  0  0  0  0  0  0  0  0  0  0
  -11.0369   -1.8297   -3.3376 O   0  0  0  0  0  0  0  0  0  0  0  0
  -10.4576   -0.1698   -1.9134 N   0  0  0  0  0  0  0  0  0  0  0  0
  -11.1818    2.0650   -0.3969 O   0  0  0  0  0  0  0  0  0  0  0  0
   -5.0369    1.3293   -0.1544 O   0  0  0  0  0  0  0  0  0  0  0  0
   11.0109    2.2890    1.0988 H   0  0  0  0  0  0  0  0  0  0  0  0
    9.8797    1.8187    2.3865 H   0  0  0  0  0  0  0  0  0  0  0  0
    9.3190    2.0914    0.6518 H   0  0  0  0  0  0  0  0  0  0  0  0
   11.5040   -0.6817   -0.6770 H   0  0  0  0  0  0  0  0  0  0  0  0
   11.4345    1.1649   -0.7182 H   0  0  0  0  0  0  0  0  0  0  0  0
   12.5304    0.3323    0.4295 H   0  0  0  0  0  0  0  0  0  0  0  0
   12.1261   -0.0639    2.2400 H   0  0  0  0  0  0  0  0  0  0  0  0
   10.5456   -0.0145    3.1080 H   0  0  0  0  0  0  0  0  0  0  0  0
   11.0546   -1.4758    2.0788 H   0  0  0  0  0  0  0  0  0  0  0  0
    7.4441   -1.7988   -0.6689 H   0  0  0  0  0  0  0  0  0  0  0  0
    7.6386   -0.5583   -3.3233 H   0  0  0  0  0  0  0  0  0  0  0  0
    6.2470   -1.3990   -2.6375 H   0  0  0  0  0  0  0  0  0  0  0  0
    7.0041    1.5851   -2.4196 H   0  0  0  0  0  0  0  0  0  0  0  0
    5.7068    0.8341   -3.3360 H   0  0  0  0  0  0  0  0  0  0  0  0
    3.8282    1.3591    0.6511 H   0  0  0  0  0  0  0  0  0  0  0  0
    1.7220    0.3439    1.1530 H   0  0  0  0  0  0  0  0  0  0  0  0
    1.9377   -2.0304   -2.3545 H   0  0  0  0  0  0  0  0  0  0  0  0
    4.0548   -1.0177   -2.8821 H   0  0  0  0  0  0  0  0  0  0  0  0
    0.1959   -2.4584   -0.8219 H   0  0  0  0  0  0  0  0  0  0  0  0
   -1.2201   -3.0721    1.0709 H   0  0  0  0  0  0  0  0  0  0  0  0
   -2.9972   -2.3970    2.5538 H   0  0  0  0  0  0  0  0  0  0  0  0
   -2.1476    1.6538    1.8108 H   0  0  0  0  0  0  0  0  0  0  0  0
   -0.3443    1.0218    0.2958 H   0  0  0  0  0  0  0  0  0  0  0  0
   -3.8134   -0.5763    4.1090 H   0  0  0  0  0  0  0  0  0  0  0  0
   -3.3933    1.0758    3.6841 H   0  0  0  0  0  0  0  0  0  0  0  0
   -5.0207    1.4286    2.1656 H   0  0  0  0  0  0  0  0  0  0  0  0
   -5.7486    0.7117    3.5958 H   0  0  0  0  0  0  0  0  0  0  0  0
   -6.1866   -1.3127    2.5392 H   0  0  0  0  0  0  0  0  0  0  0  0
   -4.5726   -1.2580    0.4579 H   0  0  0  0  0  0  0  0  0  0  0  0
   -6.2568   -1.7333    0.3312 H   0  0  0  0  0  0  0  0  0  0  0  0
   -5.5205   -0.2004   -1.3575 H   0  0  0  0  0  0  0  0  0  0  0  0
   -6.9228    2.2974    0.9357 H   0  0  0  0  0  0  0  0  0  0  0  0
   -9.2126    3.0736    0.9091 H   0  0  0  0  0  0  0  0  0  0  0  0
   -6.8747   -1.5090   -1.9721 H   0  0  0  0  0  0  0  0  0  0  0  0
   -8.5994   -2.6297   -3.2952 H   0  0  0  0  0  0  0  0  0  0  0  0
  -11.4559    0.1527   -1.9341 H   0  0  0  0  0  0  0  0  0  0  0  0
  -11.9315    1.4338   -0.1695 H   0  0  0  0  0  0  0  0  0  0  0  0
   -5.4675    2.1544   -0.4805 H   0  0  0  0  0  0  0  0  0  0  0  0
  1  2  2  0
  2  3  1  0
  3  4  1  0
  4  5  1  0
  4  6  1  0
  4  7  1  0
  2  8  1  0
  8  9  1  0
  9 10  1  0
 10 11  1  0
 11 12  1  0
 12 13  2  0
 13 14  1  0
 14 15  2  0
 15 16  1  0
 16 17  2  0
 15 18  1  0
 18 19  1  0
 19 20  2  0
 20 21  1  0
 21 22  2  0
 22 23  1  0
 23 24  2  0
 22 25  1  0
 25 26  1  0
 26 27  1  0
 27 28  1  0
 28 29  1  0
 29 30  1  0
 30 31  2  0
 31 32  1  0
 32 33  2  0
 33 34  1  0
 34 35  2  0
 35 36  1  0
 36 37  2  0
 37 38  1  0
 38 39  2  0
 38 40  1  0
 33 41  1  0
 29 42  1  0
 17 12  1  0
 24 19  1  0
 35 30  1  0
 40 34  1  0
  5 43  1  0
  5 44  1  0
  5 45  1  0
  6 46  1  0
  6 47  1  0
  6 48  1  0
  7 49  1  0
  7 50  1  0
  7 51  1  0
  8 52  1  0
  9 53  1  0
  9 54  1  0
 10 55  1  0
 10 56  1  0
 13 57  1  0
 14 58  1  0
 16 59  1  0
 17 60  1  0
 18 61  1  0
 20 62  1  0
 21 63  1  0
 23 64  1  0
 24 65  1  0
 25 66  1  0
 25 67  1  0
 26 68  1  0
 26 69  1  0
 27 70  1  0
 28 71  1  0
 28 72  1  0
 29 73  1  6
 31 74  1  0
 32 75  1  0
 36 76  1  0
 37 77  1  0
 40 78  1  0
 41 79  1  0
 42 80  1  0
M  END
>  <Ligand ID>  (1) 
LIG0003392

>  <Ligand>  (1) 
CHEMBL3298692

>  <SMILES>  (1) 
O=C(OC(C)(C)C)NCCOc1ccc(cc1)Nc1ccc(cc1)CCNC[C@@H](c1ccc(c2c1ccc(=O)[nH]2)O)O

>  <CID>  (1) 
90645345.0

>  <ChEMBL ID>  (1) 
nan

>  <InChiKey>  (1) 
ABNDMYBELMAXRP-NDEPHWFRSA-N

>  <InChi>  (1) 
InChI=1S/C32H38N4O6/c1-32(2,3)42-31(40)34-18-19-41-24-10-8-23(9-11-24)35-22-6-4-21(5-7-22)16-17-33-20-28(38)25-12-14-27(37)30-26(25)13-15-29(39)36-30/h4-15,28,33,35,37-38H,16-20H2,1-3H3,(H,34,40)(H,36,39)/t28-/m0/s1

>  <IUPAC Name>  (1) 
tert-butyl N-[2-[4-[4-[2-[[(2R)-2-hydroxy-2-(8-hydroxy-2-oxo-1H-quinolin-5-yl)ethyl]amino]ethyl]anilino]phenoxy]ethyl]carbamate

$$$$
