
     RDKit          3D

 57 60  0  0  0  0  0  0  0  0999 V2000
   -2.4027   -1.8945    1.6886 C   0  0  0  0  0  0  0  0  0  0  0  0
   -1.6850   -2.4000    0.4898 C   0  0  0  0  0  0  0  0  0  0  0  0
   -2.4156   -3.6221   -0.1104 C   0  0  0  0  0  0  0  0  0  0  0  0
   -3.7508   -3.2520   -0.6124 C   0  0  0  0  0  0  0  0  0  0  0  0
   -3.9737   -1.9183   -1.1911 C   0  0  0  0  0  0  0  0  0  0  0  0
   -2.8513   -0.9307   -1.1559 C   0  0  0  0  0  0  0  0  0  0  0  0
   -1.5668   -1.4788   -0.6681 C   0  0  0  0  0  0  0  0  0  0  0  0
   -0.5487   -0.4346   -0.5454 N   0  0  0  0  0  0  0  0  0  0  0  0
    0.5535   -0.5723   -1.4192 C   0  0  0  0  0  0  0  0  0  0  0  0
    0.5199   -1.5686   -2.2183 O   0  0  0  0  0  0  0  0  0  0  0  0
    1.7120    0.2753   -1.5172 C   0  0  0  0  0  0  0  0  0  0  0  0
    1.9172    1.4760   -2.0614 N   0  0  0  0  0  0  0  0  0  0  0  0
    3.1359    1.8142   -1.9011 O   0  0  0  0  0  0  0  0  0  0  0  0
    3.7960    0.9075   -1.2717 C   0  0  0  0  0  0  0  0  0  0  0  0
    2.9482   -0.1222   -0.9853 C   0  0  0  0  0  0  0  0  0  0  0  0
    5.2457    0.8608   -0.8611 C   0  0  0  0  0  0  0  0  0  0  0  0
    6.0456   -0.3219   -1.2288 C   0  0  0  0  0  0  0  0  0  0  0  0
    6.2552    0.9815   -1.9891 C   0  0  0  0  0  0  0  0  0  0  0  0
   -0.7033    0.6520    0.4083 C   0  0  0  0  0  0  0  0  0  0  0  0
   -0.9703    1.9580   -0.2857 C   0  0  0  0  0  0  0  0  0  0  0  0
   -0.2262    3.1338    0.2259 C   0  0  0  0  0  0  0  0  0  0  0  0
   -0.3811    3.4504    1.6691 C   0  0  0  0  0  0  0  0  0  0  0  0
   -1.1414    2.4400    2.4653 C   0  0  0  0  0  0  0  0  0  0  0  0
   -0.2475    1.2845    2.7634 C   0  0  0  0  0  0  0  0  0  0  0  0
    0.3332    0.7021    1.4730 C   0  0  0  0  0  0  0  0  0  0  0  0
   -3.2522   -1.2387    1.5027 H   0  0  0  0  0  0  0  0  0  0  0  0
   -1.6653   -1.4707    2.4264 H   0  0  0  0  0  0  0  0  0  0  0  0
   -2.8198   -2.7956    2.2413 H   0  0  0  0  0  0  0  0  0  0  0  0
   -0.6826   -2.7946    0.7441 H   0  0  0  0  0  0  0  0  0  0  0  0
   -2.5158   -4.3897    0.7176 H   0  0  0  0  0  0  0  0  0  0  0  0
   -1.7464   -4.0099   -0.9111 H   0  0  0  0  0  0  0  0  0  0  0  0
   -4.0573   -4.0736   -1.3332 H   0  0  0  0  0  0  0  0  0  0  0  0
   -4.4674   -3.4430    0.2448 H   0  0  0  0  0  0  0  0  0  0  0  0
   -4.9005   -1.4757   -0.7589 H   0  0  0  0  0  0  0  0  0  0  0  0
   -4.2356   -2.0454   -2.2855 H   0  0  0  0  0  0  0  0  0  0  0  0
   -3.1394   -0.1128   -0.4546 H   0  0  0  0  0  0  0  0  0  0  0  0
   -2.6901   -0.4365   -2.1368 H   0  0  0  0  0  0  0  0  0  0  0  0
   -1.1354   -2.1308   -1.5023 H   0  0  0  0  0  0  0  0  0  0  0  0
    3.1637   -1.0532   -0.4593 H   0  0  0  0  0  0  0  0  0  0  0  0
    5.4963    1.5356   -0.0266 H   0  0  0  0  0  0  0  0  0  0  0  0
    5.5152   -1.1460   -1.7738 H   0  0  0  0  0  0  0  0  0  0  0  0
    6.8776   -0.6198   -0.5665 H   0  0  0  0  0  0  0  0  0  0  0  0
    7.2252    1.5064   -1.8038 H   0  0  0  0  0  0  0  0  0  0  0  0
    5.8508    1.0283   -3.0160 H   0  0  0  0  0  0  0  0  0  0  0  0
   -1.6791    0.4439    0.9587 H   0  0  0  0  0  0  0  0  0  0  0  0
   -2.0644    2.2440   -0.2865 H   0  0  0  0  0  0  0  0  0  0  0  0
   -0.7410    1.8392   -1.3713 H   0  0  0  0  0  0  0  0  0  0  0  0
   -0.6435    4.0269   -0.3296 H   0  0  0  0  0  0  0  0  0  0  0  0
    0.8416    3.0632   -0.0878 H   0  0  0  0  0  0  0  0  0  0  0  0
   -0.8574    4.4443    1.8700 H   0  0  0  0  0  0  0  0  0  0  0  0
    0.6596    3.5442    2.1028 H   0  0  0  0  0  0  0  0  0  0  0  0
   -2.0773    2.1507    1.9661 H   0  0  0  0  0  0  0  0  0  0  0  0
   -1.4409    2.8850    3.4370 H   0  0  0  0  0  0  0  0  0  0  0  0
    0.5921    1.6464    3.4189 H   0  0  0  0  0  0  0  0  0  0  0  0
   -0.8138    0.5488    3.3499 H   0  0  0  0  0  0  0  0  0  0  0  0
    1.2448    1.2828    1.2266 H   0  0  0  0  0  0  0  0  0  0  0  0
    0.5601   -0.3741    1.7354 H   0  0  0  0  0  0  0  0  0  0  0  0
  1  2  1  0
  2  3  1  0
  3  4  1  0
  4  5  1  0
  5  6  1  0
  6  7  1  0
  7  8  1  0
  8  9  1  0
  9 10  2  0
  9 11  1  0
 11 12  2  0
 12 13  1  0
 13 14  1  0
 14 15  2  0
 14 16  1  0
 16 17  1  0
 17 18  1  0
  8 19  1  0
 19 20  1  0
 20 21  1  0
 21 22  1  0
 22 23  1  0
 23 24  1  0
 24 25  1  0
  7  2  1  0
 15 11  1  0
 18 16  1  0
 25 19  1  0
  1 26  1  0
  1 27  1  0
  1 28  1  0
  2 29  1  0
  3 30  1  0
  3 31  1  0
  4 32  1  0
  4 33  1  0
  5 34  1  0
  5 35  1  0
  6 36  1  0
  6 37  1  0
  7 38  1  0
 15 39  1  0
 16 40  1  0
 17 41  1  0
 17 42  1  0
 18 43  1  0
 18 44  1  0
 19 45  1  0
 20 46  1  0
 20 47  1  0
 21 48  1  0
 21 49  1  0
 22 50  1  0
 22 51  1  0
 23 52  1  0
 23 53  1  0
 24 54  1  0
 24 55  1  0
 25 56  1  0
 25 57  1  0
M  END
>  <Ligand ID>  (1) 
LIG0001745

>  <Ligand>  (1) 
MLS003675926

>  <SMILES>  (1) 
CC1CCCCC1N(C(=O)c1noc(c1)C1CC1)C1CCCCCC1

>  <CID>  (1) 
25110499.0

>  <ChEMBL ID>  (1) 
nan

>  <InChiKey>  (1) 
SKMFQTAOSOOOIV-UHFFFAOYSA-N

>  <InChi>  (1) 
InChI=1S/C21H32N2O2/c1-15-8-6-7-11-19(15)23(17-9-4-2-3-5-10-17)21(24)18-14-20(25-22-18)16-12-13-16/h14-17,19H,2-13H2,1H3

>  <IUPAC Name>  (1) 
N-cycloheptyl-5-cyclopropyl-N-(2-methylcyclohexyl)-1,2-oxazole-3-carboxamide

$$$$
