
     RDKit          3D

 38 39  0  0  0  0  0  0  0  0999 V2000
   -5.0962    0.9758   -1.7265 C   0  0  0  0  0  0  0  0  0  0  0  0
   -4.8964    0.3563   -0.5795 C   0  0  0  0  0  0  0  0  0  0  0  0
   -4.0362    0.9601    0.4893 C   0  0  0  0  0  0  0  0  0  0  0  0
   -2.8806    0.0569    0.8031 C   0  0  0  0  0  0  0  0  0  0  0  0
   -2.9732   -0.9214    1.7839 C   0  0  0  0  0  0  0  0  0  0  0  0
   -1.8878   -1.7522    2.0619 C   0  0  0  0  0  0  0  0  0  0  0  0
   -0.7096   -1.5997    1.3544 C   0  0  0  0  0  0  0  0  0  0  0  0
   -0.5920   -0.6340    0.3738 C   0  0  0  0  0  0  0  0  0  0  0  0
   -1.6867    0.1777    0.1185 C   0  0  0  0  0  0  0  0  0  0  0  0
    0.5992   -0.4107   -0.4076 C   0  0  0  0  0  0  0  0  0  0  0  0
    1.5974    0.4636   -0.0233 C   0  0  0  0  0  0  0  0  0  0  0  0
    2.7248    0.6485   -0.8029 C   0  0  0  0  0  0  0  0  0  0  0  0
    3.8203    1.5853   -0.4153 C   0  0  0  0  0  0  0  0  0  0  0  0
    4.8602    0.9132    0.4026 C   0  0  0  0  0  0  0  0  0  0  0  0
    5.1722    1.2958    1.6444 C   0  0  0  0  0  0  0  0  0  0  0  0
    2.8789   -0.0507   -2.0052 C   0  0  0  0  0  0  0  0  0  0  0  0
    1.8819   -0.9295   -2.3976 C   0  0  0  0  0  0  0  0  0  0  0  0
    0.7715   -1.0924   -1.6005 C   0  0  0  0  0  0  0  0  0  0  0  0
   -0.2369   -1.9794   -1.9945 O   0  0  0  0  0  0  0  0  0  0  0  0
    0.4108   -2.4171    1.6029 O   0  0  0  0  0  0  0  0  0  0  0  0
   -4.6397    1.9391   -1.9198 H   0  0  0  0  0  0  0  0  0  0  0  0
   -5.7082    0.5434   -2.4837 H   0  0  0  0  0  0  0  0  0  0  0  0
   -5.3459   -0.6040   -0.3753 H   0  0  0  0  0  0  0  0  0  0  0  0
   -3.7106    1.9826    0.2100 H   0  0  0  0  0  0  0  0  0  0  0  0
   -4.6953    1.0845    1.3830 H   0  0  0  0  0  0  0  0  0  0  0  0
   -3.8992   -1.0078    2.3079 H   0  0  0  0  0  0  0  0  0  0  0  0
   -1.9686   -2.5183    2.8338 H   0  0  0  0  0  0  0  0  0  0  0  0
   -1.6476    0.9627   -0.6517 H   0  0  0  0  0  0  0  0  0  0  0  0
    1.5019    1.0264    0.9177 H   0  0  0  0  0  0  0  0  0  0  0  0
    3.3466    2.3585    0.2462 H   0  0  0  0  0  0  0  0  0  0  0  0
    4.3085    2.0333   -1.3026 H   0  0  0  0  0  0  0  0  0  0  0  0
    5.3711    0.0640   -0.0807 H   0  0  0  0  0  0  0  0  0  0  0  0
    5.9479    0.7418    2.1645 H   0  0  0  0  0  0  0  0  0  0  0  0
    4.6312    2.1298    2.0449 H   0  0  0  0  0  0  0  0  0  0  0  0
    3.7410    0.0709   -2.6313 H   0  0  0  0  0  0  0  0  0  0  0  0
    1.9794   -1.4788   -3.3198 H   0  0  0  0  0  0  0  0  0  0  0  0
    0.0283   -2.8536   -2.4345 H   0  0  0  0  0  0  0  0  0  0  0  0
    1.0378   -2.1205    2.3672 H   0  0  0  0  0  0  0  0  0  0  0  0
  1  2  2  0
  2  3  1  0
  3  4  1  0
  4  5  2  0
  5  6  1  0
  6  7  2  0
  7  8  1  0
  8  9  2  0
  8 10  1  0
 10 11  2  0
 11 12  1  0
 12 13  1  0
 13 14  1  0
 14 15  2  0
 12 16  2  0
 16 17  1  0
 17 18  2  0
 18 19  1  0
  7 20  1  0
  9  4  1  0
 18 10  1  0
  1 21  1  0
  1 22  1  0
  2 23  1  0
  3 24  1  0
  3 25  1  0
  5 26  1  0
  6 27  1  0
  9 28  1  0
 11 29  1  0
 13 30  1  0
 13 31  1  0
 14 32  1  0
 15 33  1  0
 15 34  1  0
 16 35  1  0
 17 36  1  0
 19 37  1  0
 20 38  1  0
M  END
>  <Ligand ID>  (1) 
LIG0005615

>  <Ligand>  (1) 
Magnolol

>  <SMILES>  (1) 
C=CCc1ccc(c(c1)c1cc(CC=C)ccc1O)O

>  <CID>  (1) 
72300.0

>  <ChEMBL ID>  (1) 
nan

>  <InChiKey>  (1) 
VVOAZFWZEDHOOU-UHFFFAOYSA-N

>  <InChi>  (1) 
InChI=1S/C18H18O2/c1-3-5-13-7-9-17(19)15(11-13)16-12-14(6-4-2)8-10-18(16)20/h3-4,7-12,19-20H,1-2,5-6H2

>  <IUPAC Name>  (1) 
2-(2-hydroxy-5-prop-2-enylphenyl)-4-prop-2-enylphenol

$$$$
