
     RDKit          3D

 26 27  0  0  0  0  0  0  0  0999 V2000
    2.6998    3.4016    1.2273 N   0  0  0  0  0  0  0  0  0  0  0  0
    1.6994    2.7230    1.0470 N   0  0  0  0  0  0  0  0  0  0  0  0
    0.7012    2.0301    0.8502 N   0  0  0  0  0  0  0  0  0  0  0  0
    0.2239    1.6842   -0.4656 C   0  0  2  0  0  0  0  0  0  0  0  0
   -1.2470    1.3342   -0.3541 C   0  0  0  0  0  0  0  0  0  0  0  0
   -1.1689   -0.0531    0.2104 C   0  0  1  0  0  0  0  0  0  0  0  0
   -0.1303   -0.6869   -0.7036 C   0  0  1  0  0  0  0  0  0  0  0  0
    0.8484    0.4437   -1.0226 C   0  0  2  0  0  0  0  0  0  0  0  0
    1.2340   -0.7007   -0.1709 C   0  0  2  0  0  0  0  0  0  0  0  0
    2.1449   -1.7035   -0.7881 C   0  0  0  0  0  0  0  0  0  0  0  0
    2.1330   -1.9451   -2.0188 O   0  0  0  0  0  0  0  0  0  0  0  0
    3.0679   -2.4342   -0.0254 O   0  0  0  0  0  0  0  0  0  0  0  0
   -0.6555    0.0356    1.5549 N   0  0  0  0  0  0  0  0  0  0  0  0
   -2.4521   -0.7757    0.1681 C   0  0  0  0  0  0  0  0  0  0  0  0
   -3.0554   -0.9517   -0.9363 O   0  0  0  0  0  0  0  0  0  0  0  0
   -3.0846   -1.3044    1.2887 O   0  0  0  0  0  0  0  0  0  0  0  0
    0.3096    2.5234   -1.1880 H   0  0  0  0  0  0  0  0  0  0  0  0
   -1.7271    1.3095   -1.3522 H   0  0  0  0  0  0  0  0  0  0  0  0
   -1.7259    2.0575    0.3360 H   0  0  0  0  0  0  0  0  0  0  0  0
   -0.4541   -1.2555   -1.5896 H   0  0  0  0  0  0  0  0  0  0  0  0
    1.2496    0.5162   -2.0409 H   0  0  0  0  0  0  0  0  0  0  0  0
    1.3652   -0.6021    0.9216 H   0  0  0  0  0  0  0  0  0  0  0  0
    3.4230   -3.3242   -0.3273 H   0  0  0  0  0  0  0  0  0  0  0  0
   -1.2033    0.7859    2.0589 H   0  0  0  0  0  0  0  0  0  0  0  0
   -0.6721   -0.8698    2.0562 H   0  0  0  0  0  0  0  0  0  0  0  0
   -3.5238   -2.2379    1.2642 H   0  0  0  0  0  0  0  0  0  0  0  0
  1  2  2  0
  2  3  2  0
  3  4  1  0
  4  5  1  0
  5  6  1  0
  6  7  1  0
  7  8  1  0
  8  9  1  0
  9 10  1  0
 10 11  2  0
 10 12  1  0
  6 13  1  1
  6 14  1  0
 14 15  2  0
 14 16  1  0
  8  4  1  0
  9  7  1  0
  4 17  1  6
  5 18  1  0
  5 19  1  0
  7 20  1  6
  8 21  1  6
  9 22  1  1
 12 23  1  0
 13 24  1  0
 13 25  1  0
 16 26  1  0
M  CHG  2   1  -1   2   1
M  END
>  <Ligand ID>  (1) 
LIG0001199

>  <Ligand>  (1) 
CHEMBL2381644

>  <SMILES>  (1) 
[N-]=[N+]=N[C@@H]1C[C@@]([C@H]2[C@@H]1[C@@H]2C(=O)O)(N)C(=O)O

>  <CID>  (1) 
71681823.0

>  <ChEMBL ID>  (1) 
nan

>  <InChiKey>  (1) 
OBUIZKQQNAWVEW-RTHBWCHNSA-N

>  <InChi>  (1) 
InChI=1S/C8H10N4O4/c9-8(7(15)16)1-2(11-12-10)3-4(5(3)8)6(13)14/h2-5H,1,9H2,(H,13,14)(H,15,16)/t2-,3+,4+,5+,8+/m1/s1

>  <IUPAC Name>  (1) 
(1S,2S,4R,5R,6S)-2-amino-4-azidobicyclo[3.1.0]hexane-2,6-dicarboxylic acid

$$$$
