
     RDKit          3D

 15 14  0  0  0  0  0  0  0  0999 V2000
   -1.7663    0.9138   -0.0500 C   0  0  0  0  0  0  0  0  0  0  0  0
   -0.5435    0.2238    0.5225 C   0  0  2  0  0  0  0  0  0  0  0  0
    0.4738   -0.0576   -0.5789 C   0  0  0  0  0  0  0  0  0  0  0  0
    1.6778   -0.7363   -0.0268 C   0  0  0  0  0  0  0  0  0  0  0  0
    1.6619   -1.9784    0.2561 O   0  0  0  0  0  0  0  0  0  0  0  0
    2.8593   -0.0095    0.1921 O   0  0  0  0  0  0  0  0  0  0  0  0
   -0.8633   -0.9489    1.2019 O   0  0  0  0  0  0  0  0  0  0  0  0
   -2.1281    1.6350    0.7133 H   0  0  0  0  0  0  0  0  0  0  0  0
   -2.5516    0.1419   -0.2308 H   0  0  0  0  0  0  0  0  0  0  0  0
   -1.5233    1.4719   -0.9796 H   0  0  0  0  0  0  0  0  0  0  0  0
   -0.0417    0.8886    1.2507 H   0  0  0  0  0  0  0  0  0  0  0  0
    0.7918    0.9258   -0.9928 H   0  0  0  0  0  0  0  0  0  0  0  0
    0.0012   -0.6674   -1.3992 H   0  0  0  0  0  0  0  0  0  0  0  0
    3.6991   -0.5197    0.4419 H   0  0  0  0  0  0  0  0  0  0  0  0
   -1.7470   -1.2831    0.9156 H   0  0  0  0  0  0  0  0  0  0  0  0
  1  2  1  0
  2  3  1  0
  3  4  1  0
  4  5  2  0
  4  6  1  0
  2  7  1  0
  1  8  1  0
  1  9  1  0
  1 10  1  0
  2 11  1  1
  3 12  1  0
  3 13  1  0
  6 14  1  0
  7 15  1  0
M  END
>  <Ligand ID>  (1) 
LIG0005448

>  <Ligand>  (1) 
beta;-D-hydroxybutyric acid

>  <SMILES>  (1) 
C[C@H](CC(=O)O)O

>  <CID>  (1) 
92135.0

>  <ChEMBL ID>  (1) 
nan

>  <InChiKey>  (1) 
WHBMMWSBFZVSSR-GSVOUGTGSA-N

>  <InChi>  (1) 
InChI=1S/C4H8O3/c1-3(5)2-4(6)7/h3,5H,2H2,1H3,(H,6,7)/t3-/m1/s1

>  <IUPAC Name>  (1) 
(3R)-3-hydroxybutanoic acid

$$$$
