
     RDKit          3D

161166  0  0  0  0  0  0  0  0999 V2000
   11.4617   -3.9333    1.9510 C   0  0  0  0  0  0  0  0  0  0  0  0
   10.1692   -3.1434    1.7347 C   0  0  0  0  0  0  0  0  0  0  0  0
    9.9812   -3.0035    0.2317 C   0  0  0  0  0  0  0  0  0  0  0  0
    8.7452   -2.2563   -0.1201 C   0  0  0  0  0  0  0  0  0  0  0  0
    8.7098   -0.8140    0.4065 C   0  0  2  0  0  0  0  0  0  0  0  0
    7.4122   -0.2427    0.0152 C   0  0  0  0  0  0  0  0  0  0  0  0
    7.4177    0.7346   -0.7760 O   0  0  0  0  0  0  0  0  0  0  0  0
    6.1363   -0.7138    0.4658 N   0  0  0  0  0  0  0  0  0  0  0  0
    4.9877   -0.0173   -0.0501 C   0  0  1  0  0  0  0  0  0  0  0  0
    4.2710   -0.9525   -1.0636 C   0  0  0  0  0  0  0  0  0  0  0  0
    3.8643   -2.2173   -0.4159 C   0  0  0  0  0  0  0  0  0  0  0  0
    4.3974   -2.7445    0.5673 O   0  0  0  0  0  0  0  0  0  0  0  0
    2.7283   -2.9936   -0.8991 N   0  0  0  0  0  0  0  0  0  0  0  0
    2.3785   -4.2233   -0.2176 C   0  0  0  0  0  0  0  0  0  0  0  0
    1.0535   -4.7706   -0.8076 C   0  0  0  0  0  0  0  0  0  0  0  0
    0.0174   -3.7209   -0.6091 C   0  0  0  0  0  0  0  0  0  0  0  0
   -1.3646   -4.0987   -0.9573 C   0  0  0  0  0  0  0  0  0  0  0  0
   -1.9675   -5.2278   -0.1541 C   0  0  1  0  0  0  0  0  0  0  0  0
   -1.7714   -5.1180    1.3042 C   0  0  0  0  0  0  0  0  0  0  0  0
   -0.6460   -5.0118    1.8699 O   0  0  0  0  0  0  0  0  0  0  0  0
   -2.8880   -5.1254    2.2314 N   0  0  0  0  0  0  0  0  0  0  0  0
   -3.4515   -5.0638   -0.3950 N   0  0  0  0  0  0  0  0  0  0  0  0
   -4.2292   -6.0412   -1.0354 C   0  0  0  0  0  0  0  0  0  0  0  0
   -4.0584   -3.8916    0.0709 C   0  0  0  0  0  0  0  0  0  0  0  0
   -3.2743   -3.1335    0.6783 O   0  0  0  0  0  0  0  0  0  0  0  0
   -5.4534   -3.4289   -0.0378 C   0  0  1  0  0  0  0  0  0  0  0  0
   -5.4887   -2.1093    0.6658 N   0  0  0  0  0  0  0  0  0  0  0  0
   -4.7565   -1.0014    0.2029 C   0  0  0  0  0  0  0  0  0  0  0  0
   -4.0916   -1.1651   -0.7885 O   0  0  0  0  0  0  0  0  0  0  0  0
   -4.7553    0.3796    0.8873 C   0  0  1  0  0  0  0  0  0  0  0  0
   -3.6955    1.1006    0.1296 N   0  0  0  0  0  0  0  0  0  0  0  0
   -2.3434    1.1923    0.5501 C   0  0  0  0  0  0  0  0  0  0  0  0
   -2.0512    0.6529    1.6124 O   0  0  0  0  0  0  0  0  0  0  0  0
   -1.3405    1.9345   -0.3268 C   0  0  2  0  0  0  0  0  0  0  0  0
    0.0005    1.6509    0.0575 N   0  0  0  0  0  0  0  0  0  0  0  0
    0.7017    2.1301    1.2042 C   0  0  0  0  0  0  0  0  0  0  0  0
   -0.0679    2.8512    1.8854 O   0  0  0  0  0  0  0  0  0  0  0  0
    2.0380    1.9054    1.6326 C   0  0  1  0  0  0  0  0  0  0  0  0
    3.0996    1.5435    0.7512 N   0  0  0  0  0  0  0  0  0  0  0  0
    3.9976    0.4074    0.9712 C   0  0  0  0  0  0  0  0  0  0  0  0
    3.8238   -0.0952    2.0711 O   0  0  0  0  0  0  0  0  0  0  0  0
    3.4340    2.3005   -0.4095 C   0  0  0  0  0  0  0  0  0  0  0  0
    2.6345    2.9489    2.5630 C   0  0  0  0  0  0  0  0  0  0  0  0
    2.8205    4.3040    2.1508 C   0  0  0  0  0  0  0  0  0  0  0  0
    3.9774    4.7816    1.5967 N   0  0  0  0  0  0  0  0  0  0  0  0
    3.8754    6.0831    1.3302 C   0  0  0  0  0  0  0  0  0  0  0  0
    2.6563    6.4696    1.7040 N   0  0  0  0  0  0  0  0  0  0  0  0
    2.0082    5.4379    2.1936 C   0  0  0  0  0  0  0  0  0  0  0  0
    0.7478    0.7179   -0.7481 C   0  0  0  0  0  0  0  0  0  0  0  0
   -1.8435    3.2762   -0.5388 C   0  0  0  0  0  0  0  0  0  0  0  0
   -1.1626    4.2695   -1.3420 C   0  0  0  0  0  0  0  0  0  0  0  0
   -1.3166    4.2103   -2.7378 C   0  0  0  0  0  0  0  0  0  0  0  0
   -0.7858    5.1553   -3.5765 C   0  0  0  0  0  0  0  0  0  0  0  0
   -0.0654    6.2193   -3.0734 C   0  0  0  0  0  0  0  0  0  0  0  0
    0.1066    6.3048   -1.7169 C   0  0  0  0  0  0  0  0  0  0  0  0
   -0.4257    5.3526   -0.8458 C   0  0  0  0  0  0  0  0  0  0  0  0
    0.8164    7.3875   -1.2165 C   0  0  0  0  0  0  0  0  0  0  0  0
    1.3512    8.3691   -2.0049 C   0  0  0  0  0  0  0  0  0  0  0  0
    1.1826    8.2869   -3.3825 C   0  0  0  0  0  0  0  0  0  0  0  0
    0.4686    7.1991   -3.8846 C   0  0  0  0  0  0  0  0  0  0  0  0
   -6.0851    0.9306    0.5954 C   0  0  0  0  0  0  0  0  0  0  0  0
   -6.5541    2.2099    1.1319 C   0  0  0  0  0  0  0  0  0  0  0  0
   -5.7797    3.4409    0.8514 C   0  0  0  0  0  0  0  0  0  0  0  0
   -4.4820    3.3605    1.4527 N   0  0  0  0  0  0  0  0  0  0  0  0
   -4.1945    4.1071    2.4570 C   0  0  0  0  0  0  0  0  0  0  0  0
   -5.1360    5.0515    3.0225 N   0  0  0  0  0  0  0  0  0  0  0  0
   -2.9266    4.0761    3.1008 N   0  0  0  0  0  0  0  0  0  0  0  0
   -6.2341   -1.9361    1.8749 C   0  0  0  0  0  0  0  0  0  0  0  0
   -5.9975   -3.3109   -1.4290 C   0  0  0  0  0  0  0  0  0  0  0  0
   -7.4107   -2.8284   -1.4260 C   0  0  0  0  0  0  0  0  0  0  0  0
   -7.8945   -1.5830   -1.7499 C   0  0  0  0  0  0  0  0  0  0  0  0
   -9.2281   -1.5844   -1.6135 N   0  0  0  0  0  0  0  0  0  0  0  0
   -9.6610   -2.8023   -1.2031 C   0  0  0  0  0  0  0  0  0  0  0  0
   -8.5208   -3.5811   -1.0867 C   0  0  0  0  0  0  0  0  0  0  0  0
   -8.6875   -4.9055   -0.6738 C   0  0  0  0  0  0  0  0  0  0  0  0
   -9.9458   -5.4115   -0.3920 C   0  0  0  0  0  0  0  0  0  0  0  0
  -11.0502   -4.5805   -0.5263 C   0  0  0  0  0  0  0  0  0  0  0  0
  -10.9241   -3.2777   -0.9300 C   0  0  0  0  0  0  0  0  0  0  0  0
    9.7280    0.0092   -0.2161 N   0  0  0  0  0  0  0  0  0  0  0  0
   10.4241   -0.1896   -1.3997 C   0  0  0  0  0  0  0  0  0  0  0  0
   10.3300   -1.1183   -2.2169 O   0  0  0  0  0  0  0  0  0  0  0  0
   11.4586    0.8652   -1.7665 C   0  0  0  0  0  0  0  0  0  0  0  0
   11.4001   -4.5883    2.8313 H   0  0  0  0  0  0  0  0  0  0  0  0
   12.2873   -3.1827    1.9894 H   0  0  0  0  0  0  0  0  0  0  0  0
   11.6632   -4.5377    1.0357 H   0  0  0  0  0  0  0  0  0  0  0  0
   10.2703   -2.1388    2.2078 H   0  0  0  0  0  0  0  0  0  0  0  0
    9.3369   -3.7241    2.1312 H   0  0  0  0  0  0  0  0  0  0  0  0
    9.8471   -4.0599   -0.1506 H   0  0  0  0  0  0  0  0  0  0  0  0
   10.8939   -2.6496   -0.2448 H   0  0  0  0  0  0  0  0  0  0  0  0
    8.6171   -2.2407   -1.2186 H   0  0  0  0  0  0  0  0  0  0  0  0
    7.8309   -2.7385    0.2862 H   0  0  0  0  0  0  0  0  0  0  0  0
    8.9008   -0.8384    1.4750 H   0  0  0  0  0  0  0  0  0  0  0  0
    6.1426   -1.5021    1.1265 H   0  0  0  0  0  0  0  0  0  0  0  0
    5.2451    0.8623   -0.6609 H   0  0  0  0  0  0  0  0  0  0  0  0
    4.9541   -1.1095   -1.9284 H   0  0  0  0  0  0  0  0  0  0  0  0
    3.4106   -0.4130   -1.4405 H   0  0  0  0  0  0  0  0  0  0  0  0
    2.2677   -2.5872   -1.7036 H   0  0  0  0  0  0  0  0  0  0  0  0
    2.2932   -4.1114    0.8727 H   0  0  0  0  0  0  0  0  0  0  0  0
    3.1266   -5.0154   -0.4170 H   0  0  0  0  0  0  0  0  0  0  0  0
    0.8375   -5.6901   -0.2496 H   0  0  0  0  0  0  0  0  0  0  0  0
    1.1812   -5.0304   -1.8740 H   0  0  0  0  0  0  0  0  0  0  0  0
    0.0572   -3.3568    0.4590 H   0  0  0  0  0  0  0  0  0  0  0  0
    0.3275   -2.7932   -1.1857 H   0  0  0  0  0  0  0  0  0  0  0  0
   -1.3147   -4.4677   -2.0646 H   0  0  0  0  0  0  0  0  0  0  0  0
   -1.9836   -3.1999   -1.0308 H   0  0  0  0  0  0  0  0  0  0  0  0
   -1.6123   -6.1698   -0.5217 H   0  0  0  0  0  0  0  0  0  0  0  0
   -2.8600   -4.5003    3.0927 H   0  0  0  0  0  0  0  0  0  0  0  0
   -3.7202   -5.7315    2.0782 H   0  0  0  0  0  0  0  0  0  0  0  0
   -5.2896   -6.0766   -0.7060 H   0  0  0  0  0  0  0  0  0  0  0  0
   -4.2181   -5.9297   -2.1451 H   0  0  0  0  0  0  0  0  0  0  0  0
   -3.8304   -7.0528   -0.7454 H   0  0  0  0  0  0  0  0  0  0  0  0
   -6.1347   -4.0978    0.5535 H   0  0  0  0  0  0  0  0  0  0  0  0
   -4.4592    0.2931    1.8987 H   0  0  0  0  0  0  0  0  0  0  0  0
   -3.9469    1.5401   -0.7420 H   0  0  0  0  0  0  0  0  0  0  0  0
   -1.5424    1.3774   -1.3245 H   0  0  0  0  0  0  0  0  0  0  0  0
    2.0141    1.0155    2.3795 H   0  0  0  0  0  0  0  0  0  0  0  0
    2.7978    3.2300   -0.3289 H   0  0  0  0  0  0  0  0  0  0  0  0
    4.4847    2.7321   -0.3367 H   0  0  0  0  0  0  0  0  0  0  0  0
    3.3300    1.8305   -1.3771 H   0  0  0  0  0  0  0  0  0  0  0  0
    2.0201    2.9818    3.5290 H   0  0  0  0  0  0  0  0  0  0  0  0
    3.6267    2.5668    2.9620 H   0  0  0  0  0  0  0  0  0  0  0  0
    4.8302    4.2243    1.4090 H   0  0  0  0  0  0  0  0  0  0  0  0
    4.6403    6.6924    0.8915 H   0  0  0  0  0  0  0  0  0  0  0  0
    1.0061    5.4368    2.5760 H   0  0  0  0  0  0  0  0  0  0  0  0
    1.0691    1.2778   -1.6414 H   0  0  0  0  0  0  0  0  0  0  0  0
    1.4680    0.1280   -0.2160 H   0  0  0  0  0  0  0  0  0  0  0  0
    0.0326   -0.0528   -1.1832 H   0  0  0  0  0  0  0  0  0  0  0  0
   -1.9406    3.7549    0.5098 H   0  0  0  0  0  0  0  0  0  0  0  0
   -2.9336    3.1980   -0.8227 H   0  0  0  0  0  0  0  0  0  0  0  0
   -1.8755    3.3965   -3.1851 H   0  0  0  0  0  0  0  0  0  0  0  0
   -0.9105    5.1066   -4.6689 H   0  0  0  0  0  0  0  0  0  0  0  0
   -0.2823    5.4261    0.2363 H   0  0  0  0  0  0  0  0  0  0  0  0
    0.9364    7.4699   -0.1578 H   0  0  0  0  0  0  0  0  0  0  0  0
    1.8945    9.1950   -1.5539 H   0  0  0  0  0  0  0  0  0  0  0  0
    1.6026    9.0567   -4.0069 H   0  0  0  0  0  0  0  0  0  0  0  0
    0.3352    7.1529   -4.9751 H   0  0  0  0  0  0  0  0  0  0  0  0
   -6.9409    0.1881    0.7410 H   0  0  0  0  0  0  0  0  0  0  0  0
   -6.1026    1.0728   -0.5595 H   0  0  0  0  0  0  0  0  0  0  0  0
   -6.8060    2.1421    2.2498 H   0  0  0  0  0  0  0  0  0  0  0  0
   -7.5923    2.3946    0.7032 H   0  0  0  0  0  0  0  0  0  0  0  0
   -6.2866    4.3655    1.2567 H   0  0  0  0  0  0  0  0  0  0  0  0
   -5.6729    3.6444   -0.2375 H   0  0  0  0  0  0  0  0  0  0  0  0
   -6.0045    4.6871    3.4402 H   0  0  0  0  0  0  0  0  0  0  0  0
   -4.9617    6.0696    3.0079 H   0  0  0  0  0  0  0  0  0  0  0  0
   -2.7535    3.3817    3.8632 H   0  0  0  0  0  0  0  0  0  0  0  0
   -2.1932    4.7327    2.8078 H   0  0  0  0  0  0  0  0  0  0  0  0
   -5.9216   -1.0282    2.4177 H   0  0  0  0  0  0  0  0  0  0  0  0
   -7.3121   -1.8894    1.7122 H   0  0  0  0  0  0  0  0  0  0  0  0
   -5.9731   -2.7784    2.5930 H   0  0  0  0  0  0  0  0  0  0  0  0
   -5.8926   -4.2458   -2.0147 H   0  0  0  0  0  0  0  0  0  0  0  0
   -5.4068   -2.5584   -1.9834 H   0  0  0  0  0  0  0  0  0  0  0  0
   -7.2448   -0.7786   -2.0606 H   0  0  0  0  0  0  0  0  0  0  0  0
   -9.8713   -0.7696   -1.7941 H   0  0  0  0  0  0  0  0  0  0  0  0
   -7.7816   -5.4865   -0.5947 H   0  0  0  0  0  0  0  0  0  0  0  0
  -10.0555   -6.4519   -0.0704 H   0  0  0  0  0  0  0  0  0  0  0  0
  -12.0506   -4.9534   -0.3107 H   0  0  0  0  0  0  0  0  0  0  0  0
  -11.7714   -2.6009   -1.0445 H   0  0  0  0  0  0  0  0  0  0  0  0
    9.9615    0.8921    0.3420 H   0  0  0  0  0  0  0  0  0  0  0  0
   11.3831    1.0583   -2.8509 H   0  0  0  0  0  0  0  0  0  0  0  0
   11.2395    1.8176   -1.2289 H   0  0  0  0  0  0  0  0  0  0  0  0
   12.4810    0.4955   -1.5203 H   0  0  0  0  0  0  0  0  0  0  0  0
  1  2  1  0
  2  3  1  0
  3  4  1  0
  4  5  1  0
  5  6  1  0
  6  7  2  0
  6  8  1  0
  8  9  1  0
  9 10  1  0
 10 11  1  0
 11 12  2  0
 11 13  1  0
 13 14  1  0
 14 15  1  0
 15 16  1  0
 16 17  1  0
 17 18  1  0
 18 19  1  0
 19 20  2  0
 19 21  1  0
 18 22  1  0
 22 23  1  0
 22 24  1  0
 24 25  2  0
 24 26  1  0
 26 27  1  0
 27 28  1  0
 28 29  2  0
 28 30  1  0
 30 31  1  0
 31 32  1  0
 32 33  2  0
 32 34  1  0
 34 35  1  0
 35 36  1  0
 36 37  2  0
 36 38  1  0
 38 39  1  0
 39 40  1  0
 40 41  2  0
 39 42  1  0
 38 43  1  0
 43 44  1  0
 44 45  1  0
 45 46  1  0
 46 47  2  0
 47 48  1  0
 35 49  1  0
 34 50  1  0
 50 51  1  0
 51 52  2  0
 52 53  1  0
 53 54  2  0
 54 55  1  0
 55 56  2  0
 55 57  1  0
 57 58  2  0
 58 59  1  0
 59 60  2  0
 30 61  1  0
 61 62  1  0
 62 63  1  0
 63 64  1  0
 64 65  2  3
 65 66  1  0
 65 67  1  0
 27 68  1  0
 26 69  1  0
 69 70  1  0
 70 71  2  0
 71 72  1  0
 72 73  1  0
 73 74  2  0
 74 75  1  0
 75 76  2  0
 76 77  1  0
 77 78  2  0
  5 79  1  0
 79 80  1  0
 80 81  2  0
 80 82  1  0
 40  9  1  0
 48 44  2  0
 56 51  1  0
 74 70  1  0
 60 54  1  0
 78 73  1  0
  1 83  1  0
  1 84  1  0
  1 85  1  0
  2 86  1  0
  2 87  1  0
  3 88  1  0
  3 89  1  0
  4 90  1  0
  4 91  1  0
  5 92  1  1
  8 93  1  0
  9 94  1  6
 10 95  1  0
 10 96  1  0
 13 97  1  0
 14 98  1  0
 14 99  1  0
 15100  1  0
 15101  1  0
 16102  1  0
 16103  1  0
 17104  1  0
 17105  1  0
 18106  1  6
 21107  1  0
 21108  1  0
 23109  1  0
 23110  1  0
 23111  1  0
 26112  1  1
 30113  1  1
 31114  1  0
 34115  1  6
 38116  1  1
 42117  1  0
 42118  1  0
 42119  1  0
 43120  1  0
 43121  1  0
 45122  1  0
 46123  1  0
 48124  1  0
 49125  1  0
 49126  1  0
 49127  1  0
 50128  1  0
 50129  1  0
 52130  1  0
 53131  1  0
 56132  1  0
 57133  1  0
 58134  1  0
 59135  1  0
 60136  1  0
 61137  1  0
 61138  1  0
 62139  1  0
 62140  1  0
 63141  1  0
 63142  1  0
 66143  1  0
 66144  1  0
 67145  1  0
 67146  1  0
 68147  1  0
 68148  1  0
 68149  1  0
 69150  1  0
 69151  1  0
 71152  1  0
 72153  1  0
 75154  1  0
 76155  1  0
 77156  1  0
 78157  1  0
 79158  1  0
 82159  1  0
 82160  1  0
 82161  1  0
M  END
>  <Ligand ID>  (1) 
LIG0001804

>  <Ligand>  (1) 
CHEMBL3601429

>  <SMILES>  (1) 
CCCC[C@H](C(=O)N[C@H]1CC(=O)NCCCC[C@@H](C(=O)N)N(C)C(=O)[C@@H](N(C(=O)[C@@H](NC(=O)[C@H](N(C(=O)[C@@H](N(C1=O)C)Cc1[nH]cnc1)C)Cc1ccc2c(c1)cccc2)CCCN=C(N)N)C)Cc1c[nH]c2c1cccc2)NC(=O)C

>  <CID>  (1) 
122184911.0

>  <ChEMBL ID>  (1) 
nan

>  <InChiKey>  (1) 
QVPIOQKSNXBTRY-SKIPEOATSA-N

>  <InChi>  (1) 
InChI=1S/C58H79N15O9/c1-7-8-19-43(67-35(2)74)52(77)69-45-31-50(75)63-25-14-13-22-46(51(59)76)70(3)56(81)48(29-39-32-65-42-20-12-11-18-41(39)42)72(5)54(79)44(21-15-26-64-58(60)61)68-53(78)47(28-36-23-24-37-16-9-10-17-38(37)27-36)71(4)57(82)49(73(6)55(45)80)30-40-33-62-34-66-40/h9-12,16-18,20,23-24,27,32-34,43-49,65H,7-8,13-15,19,21-22,25-26,28-31H2,1-6H3,(H2,59,76)(H,62,66)(H,63,75)(H,67,74)(H,68,78)(H,69,77)(H4,60,61,64)/t43-,44+,45+,46+,47-,48+,49+/m1/s1

>  <IUPAC Name>  (1) 
(3S,6S,9R,12S,15S,23S)-15-[[(2R)-2-acetamidohexanoyl]amino]-6-[3-(diaminomethylideneamino)propyl]-12-(1H-imidazol-5-ylmethyl)-3-(1H-indol-3-ylmethyl)-1,4,10,13-tetramethyl-9-(naphthalen-2-ylmethyl)-2,5,8,11,14,17-hexaoxo-1,4,7,10,13,18-hexazacyclotricosane-23-carboxamide

$$$$
