
     RDKit          3D

 51 55  0  0  0  0  0  0  0  0999 V2000
    2.2669   -0.8231    2.5578 O   0  0  0  0  0  0  0  0  0  0  0  0
    3.0531   -0.5983    1.6060 C   0  0  0  0  0  0  0  0  0  0  0  0
    4.3141   -0.2056    1.7710 N   0  0  0  0  0  0  0  0  0  0  0  0
    4.8466   -0.0643    0.5452 C   0  0  0  0  0  0  0  0  0  0  0  0
    3.8857   -0.3789   -0.3913 C   0  0  0  0  0  0  0  0  0  0  0  0
    2.7478   -0.7176    0.2876 N   0  0  0  0  0  0  0  0  0  0  0  0
    1.5460   -1.1014   -0.3552 C   0  0  1  0  0  0  0  0  0  0  0  0
    0.5385   -1.8347    0.3970 C   0  0  0  0  0  0  0  0  0  0  0  0
   -0.8723   -1.6531   -0.1846 C   0  0  0  0  0  0  0  0  0  0  0  0
   -1.2958   -0.2865   -0.1463 N   0  0  0  0  0  0  0  0  0  0  0  0
   -0.1513    0.5393    0.1162 C   0  0  1  0  0  0  0  0  0  0  0  0
    0.8764    0.1576   -0.9317 C   0  0  0  0  0  0  0  0  0  0  0  0
   -0.4518    2.0129    0.1008 C   0  0  0  0  0  0  0  0  0  0  0  0
   -1.7820    2.3647    0.6775 C   0  0  0  0  0  0  0  0  0  0  0  0
   -2.2751    1.2209    1.5181 C   0  0  0  0  0  0  0  0  0  0  0  0
   -2.4170   -0.0577    0.7336 C   0  0  1  0  0  0  0  0  0  0  0  0
   -3.7340   -0.1625    0.0482 C   0  0  0  0  0  0  0  0  0  0  0  0
   -3.9446    0.4344   -1.1756 C   0  0  0  0  0  0  0  0  0  0  0  0
   -5.1577    0.3548   -1.8377 C   0  0  0  0  0  0  0  0  0  0  0  0
   -6.1930   -0.3430   -1.2592 C   0  0  0  0  0  0  0  0  0  0  0  0
   -6.0187   -0.9586   -0.0258 C   0  0  0  0  0  0  0  0  0  0  0  0
   -4.7896   -0.8695    0.6297 C   0  0  0  0  0  0  0  0  0  0  0  0
    4.1920   -0.3098   -1.7384 C   0  0  0  0  0  0  0  0  0  0  0  0
    5.4635    0.0758   -2.1220 C   0  0  0  0  0  0  0  0  0  0  0  0
    6.4261    0.3912   -1.1744 C   0  0  0  0  0  0  0  0  0  0  0  0
    6.1319    0.3258    0.1743 C   0  0  0  0  0  0  0  0  0  0  0  0
    4.8262   -0.0301    2.6813 H   0  0  0  0  0  0  0  0  0  0  0  0
    1.8230   -1.6867   -1.2828 H   0  0  0  0  0  0  0  0  0  0  0  0
    0.4142   -1.6904    1.4583 H   0  0  0  0  0  0  0  0  0  0  0  0
    0.7326   -2.9357    0.2605 H   0  0  0  0  0  0  0  0  0  0  0  0
   -0.8689   -2.0782   -1.2075 H   0  0  0  0  0  0  0  0  0  0  0  0
   -1.5399   -2.2694    0.4575 H   0  0  0  0  0  0  0  0  0  0  0  0
    0.2036    0.3123    1.1424 H   0  0  0  0  0  0  0  0  0  0  0  0
    0.4223   -0.0359   -1.9092 H   0  0  0  0  0  0  0  0  0  0  0  0
    1.6596    0.9593   -1.0222 H   0  0  0  0  0  0  0  0  0  0  0  0
    0.3255    2.5369    0.7164 H   0  0  0  0  0  0  0  0  0  0  0  0
   -0.2919    2.3849   -0.9431 H   0  0  0  0  0  0  0  0  0  0  0  0
   -2.4729    2.6904   -0.1130 H   0  0  0  0  0  0  0  0  0  0  0  0
   -1.7128    3.2390    1.3867 H   0  0  0  0  0  0  0  0  0  0  0  0
   -1.5084    1.0661    2.3133 H   0  0  0  0  0  0  0  0  0  0  0  0
   -3.2585    1.4671    1.9405 H   0  0  0  0  0  0  0  0  0  0  0  0
   -2.3849   -0.8873    1.4905 H   0  0  0  0  0  0  0  0  0  0  0  0
   -3.1613    0.9969   -1.6758 H   0  0  0  0  0  0  0  0  0  0  0  0
   -5.2784    0.8451   -2.8079 H   0  0  0  0  0  0  0  0  0  0  0  0
   -7.1219   -0.3997   -1.7740 H   0  0  0  0  0  0  0  0  0  0  0  0
   -6.8507   -1.4969    0.3981 H   0  0  0  0  0  0  0  0  0  0  0  0
   -4.6459   -1.3516    1.6004 H   0  0  0  0  0  0  0  0  0  0  0  0
    3.4235   -0.5609   -2.4651 H   0  0  0  0  0  0  0  0  0  0  0  0
    5.7435    0.1430   -3.1436 H   0  0  0  0  0  0  0  0  0  0  0  0
    7.4359    0.6980   -1.4452 H   0  0  0  0  0  0  0  0  0  0  0  0
    6.8809    0.5712    0.9154 H   0  0  0  0  0  0  0  0  0  0  0  0
  1  2  2  0
  2  3  1  0
  3  4  1  0
  4  5  2  0
  5  6  1  0
  6  7  1  0
  7  8  1  0
  8  9  1  0
  9 10  1  0
 10 11  1  0
 11 12  1  0
 11 13  1  0
 13 14  1  0
 14 15  1  0
 15 16  1  0
 16 17  1  0
 17 18  2  0
 18 19  1  0
 19 20  2  0
 20 21  1  0
 21 22  2  0
  5 23  1  0
 23 24  2  0
 24 25  1  0
 25 26  2  0
  6  2  1  0
 12  7  1  0
 22 17  1  0
 26  4  1  0
 16 10  1  0
  3 27  1  0
  7 28  1  6
  8 29  1  0
  8 30  1  0
  9 31  1  0
  9 32  1  0
 11 33  1  1
 12 34  1  0
 12 35  1  0
 13 36  1  0
 13 37  1  0
 14 38  1  0
 14 39  1  0
 15 40  1  0
 15 41  1  0
 16 42  1  1
 18 43  1  0
 19 44  1  0
 20 45  1  0
 21 46  1  0
 22 47  1  0
 23 48  1  0
 24 49  1  0
 25 50  1  0
 26 51  1  0
M  END
>  <Ligand ID>  (1) 
LIG0002895

>  <Ligand>  (1) 
SR-14135

>  <SMILES>  (1) 
O=c1[nH]c2c(n1[C@H]1CCN3[C@@H](C1)CCC[C@H]3c1ccccc1)cccc2

>  <CID>  (1) 
44297519.0

>  <ChEMBL ID>  (1) 
nan

>  <InChiKey>  (1) 
KMUYAJQKQQUKSQ-HBFSDRIKSA-N

>  <InChi>  (1) 
InChI=1S/C22H25N3O/c26-22-23-19-10-4-5-11-21(19)25(22)18-13-14-24-17(15-18)9-6-12-20(24)16-7-2-1-3-8-16/h1-5,7-8,10-11,17-18,20H,6,9,12-15H2,(H,23,26)/t17-,18+,20+/m1/s1

>  <IUPAC Name>  (1) 
3-[(2S,6S,9aR)-6-phenyl-2,3,4,6,7,8,9,9a-octahydro-1H-quinolizin-2-yl]-1H-benzimidazol-2-one

$$$$
