
     RDKit          3D

 58 59  0  0  0  0  0  0  0  0999 V2000
   -7.8673    1.2177   -0.2266 O   0  0  0  0  0  0  0  0  0  0  0  0
   -7.7831    0.5998    1.0053 C   0  0  0  0  0  0  0  0  0  0  0  0
   -8.7474   -0.1739    1.3071 O   0  0  0  0  0  0  0  0  0  0  0  0
   -6.7089    0.7488    1.9805 C   0  0  0  0  0  0  0  0  0  0  0  0
   -5.5311    1.5614    1.5384 C   0  0  0  0  0  0  0  0  0  0  0  0
   -4.8921    0.9083    0.3493 C   0  0  0  0  0  0  0  0  0  0  0  0
   -3.7105    1.6519   -0.1461 C   0  0  0  0  0  0  0  0  0  0  0  0
   -2.4836    1.1544   -0.2133 C   0  0  0  0  0  0  0  0  0  0  0  0
   -2.0813   -0.1965    0.1832 C   0  0  0  0  0  0  0  0  0  0  0  0
   -1.4827   -1.0423   -0.8807 C   0  0  1  0  0  0  0  0  0  0  0  0
   -2.3048   -1.3330   -2.0758 C   0  0  1  0  0  0  0  0  0  0  0  0
   -2.7455   -0.2685   -2.8091 O   0  0  0  0  0  0  0  0  0  0  0  0
   -1.2888   -2.0757   -2.9573 C   0  0  0  0  0  0  0  0  0  0  0  0
    0.0891   -1.6210   -2.4645 C   0  0  2  0  0  0  0  0  0  0  0  0
   -0.2248   -0.4938   -1.5013 C   0  0  2  0  0  0  0  0  0  0  0  0
    0.8639   -0.2597   -0.5388 C   0  0  0  0  0  0  0  0  0  0  0  0
    2.0507   -0.8532   -0.6099 C   0  0  0  0  0  0  0  0  0  0  0  0
    3.0773   -0.5120    0.4569 C   0  0  2  0  0  0  0  0  0  0  0  0
    3.8983    0.5963   -0.1525 C   0  0  0  0  0  0  0  0  0  0  0  0
    4.8423    1.2064    0.5747 O   0  0  0  0  0  0  0  0  0  0  0  0
    5.9987    0.8412    1.1344 C   0  0  0  0  0  0  0  0  0  0  0  0
    6.6751    1.8438    1.8718 C   0  0  0  0  0  0  0  0  0  0  0  0
    7.8686    1.6153    2.4959 C   0  0  0  0  0  0  0  0  0  0  0  0
    8.4884    0.3899    2.4449 C   0  0  0  0  0  0  0  0  0  0  0  0
    7.8577   -0.6047    1.7364 C   0  0  0  0  0  0  0  0  0  0  0  0
    6.6421   -0.3685    1.1012 C   0  0  0  0  0  0  0  0  0  0  0  0
    8.6211   -2.1872    1.6488 Cl  0  0  0  0  0  0  0  0  0  0  0  0
    3.7337   -1.6092    0.8944 O   0  0  0  0  0  0  0  0  0  0  0  0
    0.9285   -1.2421   -3.4832 O   0  0  0  0  0  0  0  0  0  0  0  0
   -8.6509    1.1119   -0.8632 H   0  0  0  0  0  0  0  0  0  0  0  0
   -7.1125    1.2145    2.9219 H   0  0  0  0  0  0  0  0  0  0  0  0
   -6.3700   -0.2804    2.2995 H   0  0  0  0  0  0  0  0  0  0  0  0
   -4.7874    1.5968    2.3632 H   0  0  0  0  0  0  0  0  0  0  0  0
   -5.9008    2.5760    1.2763 H   0  0  0  0  0  0  0  0  0  0  0  0
   -5.6214    0.9084   -0.4826 H   0  0  0  0  0  0  0  0  0  0  0  0
   -4.7168   -0.1361    0.6071 H   0  0  0  0  0  0  0  0  0  0  0  0
   -3.8873    2.6800   -0.4736 H   0  0  0  0  0  0  0  0  0  0  0  0
   -1.7041    1.8200   -0.6013 H   0  0  0  0  0  0  0  0  0  0  0  0
   -2.8015   -0.7863    0.7382 H   0  0  0  0  0  0  0  0  0  0  0  0
   -1.2381   -0.0310    0.9251 H   0  0  0  0  0  0  0  0  0  0  0  0
   -1.2075   -2.0108   -0.4223 H   0  0  0  0  0  0  0  0  0  0  0  0
   -3.1658   -2.0157   -1.8687 H   0  0  0  0  0  0  0  0  0  0  0  0
   -2.3772    0.6052   -2.6123 H   0  0  0  0  0  0  0  0  0  0  0  0
   -1.4572   -3.1503   -2.8041 H   0  0  0  0  0  0  0  0  0  0  0  0
   -1.3706   -1.7773   -4.0207 H   0  0  0  0  0  0  0  0  0  0  0  0
    0.5112   -2.5076   -1.9116 H   0  0  0  0  0  0  0  0  0  0  0  0
   -0.4058    0.4056   -2.1325 H   0  0  0  0  0  0  0  0  0  0  0  0
    0.6866    0.4330    0.2701 H   0  0  0  0  0  0  0  0  0  0  0  0
    2.2620   -1.5472   -1.3987 H   0  0  0  0  0  0  0  0  0  0  0  0
    2.5344   -0.0808    1.3478 H   0  0  0  0  0  0  0  0  0  0  0  0
    3.1578    1.3704   -0.5180 H   0  0  0  0  0  0  0  0  0  0  0  0
    4.2826    0.1507   -1.1252 H   0  0  0  0  0  0  0  0  0  0  0  0
    6.2529    2.8388    1.9606 H   0  0  0  0  0  0  0  0  0  0  0  0
    8.3500    2.4275    3.0546 H   0  0  0  0  0  0  0  0  0  0  0  0
    9.4260    0.1774    2.9242 H   0  0  0  0  0  0  0  0  0  0  0  0
    6.2349   -1.1793    0.5560 H   0  0  0  0  0  0  0  0  0  0  0  0
    4.0308   -2.2313    0.1719 H   0  0  0  0  0  0  0  0  0  0  0  0
    1.2619   -2.0761   -3.9161 H   0  0  0  0  0  0  0  0  0  0  0  0
  1  2  1  0
  2  3  2  0
  2  4  1  0
  4  5  1  0
  5  6  1  0
  6  7  1  0
  7  8  2  0
  8  9  1  0
  9 10  1  0
 10 11  1  0
 11 12  1  0
 11 13  1  0
 13 14  1  0
 14 15  1  0
 15 16  1  0
 16 17  2  0
 17 18  1  0
 18 19  1  0
 19 20  1  0
 20 21  1  0
 21 22  2  0
 22 23  1  0
 23 24  2  0
 24 25  1  0
 25 26  2  0
 25 27  1  0
 18 28  1  0
 14 29  1  0
 15 10  1  0
 26 21  1  0
  1 30  1  0
  4 31  1  0
  4 32  1  0
  5 33  1  0
  5 34  1  0
  6 35  1  0
  6 36  1  0
  7 37  1  0
  8 38  1  0
  9 39  1  0
  9 40  1  0
 10 41  1  1
 11 42  1  1
 12 43  1  0
 13 44  1  0
 13 45  1  0
 14 46  1  1
 15 47  1  6
 16 48  1  0
 17 49  1  0
 18 50  1  1
 19 51  1  0
 19 52  1  0
 22 53  1  0
 23 54  1  0
 24 55  1  0
 26 56  1  0
 28 57  1  0
 29 58  1  0
M  END
>  <Ligand ID>  (1) 
LIG0001180

>  <Ligand>  (1) 
cloprostenol

>  <SMILES>  (1) 
OC(=O)CCC/C=C\C[C@H]1[C@@H](O)C[C@H]([C@@H]1/C=C/[C@H](COc1cccc(c1)Cl)O)O

>  <CID>  (1) 
5311053.0

>  <ChEMBL ID>  (1) 
nan

>  <InChiKey>  (1) 
VJGGHXVGBSZVMZ-QIZQQNKQSA-N

>  <InChi>  (1) 
InChI=1S/C22H29ClO6/c23-15-6-5-7-17(12-15)29-14-16(24)10-11-19-18(20(25)13-21(19)26)8-3-1-2-4-9-22(27)28/h1,3,5-7,10-12,16,18-21,24-26H,2,4,8-9,13-14H2,(H,27,28)/b3-1-,11-10+/t16-,18-,19-,20+,21-/m1/s1

>  <IUPAC Name>  (1) 
(Z)-7-[(1R,2R,3R,5S)-2-[(E,3R)-4-(3-chlorophenoxy)-3-hydroxybut-1-enyl]-3,5-dihydroxycyclopentyl]hept-5-enoic acid

$$$$
