
     RDKit          3D

 46 49  0  0  0  0  0  0  0  0999 V2000
    3.6732   -1.3236   -2.6791 F   0  0  0  0  0  0  0  0  0  0  0  0
    4.4801   -0.8829   -1.6607 C   0  0  0  0  0  0  0  0  0  0  0  0
    5.8187   -1.2465   -1.6818 C   0  0  0  0  0  0  0  0  0  0  0  0
    6.6845   -0.8409   -0.6942 C   0  0  0  0  0  0  0  0  0  0  0  0
    6.1938   -0.0566    0.3306 C   0  0  0  0  0  0  0  0  0  0  0  0
    4.8749    0.2923    0.3368 C   0  0  0  0  0  0  0  0  0  0  0  0
    3.9657   -0.0914   -0.6343 C   0  0  0  0  0  0  0  0  0  0  0  0
    2.5587    0.2636   -0.6547 C   0  0  0  0  0  0  0  0  0  0  0  0
    1.6592   -0.7387    0.0748 C   0  0  0  0  0  0  0  0  0  0  0  0
    0.2732   -0.3928   -0.3993 C   0  0  0  0  0  0  0  0  0  0  0  0
   -0.1327    0.9319   -0.1591 N   0  0  0  0  0  0  0  0  0  0  0  0
    0.8268    1.9470   -0.0722 C   0  0  0  0  0  0  0  0  0  0  0  0
    2.2517    1.5750    0.0228 C   0  0  0  0  0  0  0  0  0  0  0  0
   -1.0637    0.9848    0.9250 C   0  0  0  0  0  0  0  0  0  0  0  0
   -2.3018    0.2162    0.7292 C   0  0  0  0  0  0  0  0  0  0  0  0
   -2.5656   -1.0794    1.0496 N   0  0  0  0  0  0  0  0  0  0  0  0
   -3.8384   -1.3968    0.6972 C   0  0  0  0  0  0  0  0  0  0  0  0
   -4.3842   -0.2607    0.1391 C   0  0  0  0  0  0  0  0  0  0  0  0
   -3.4419    0.7079    0.1653 N   0  0  0  0  0  0  0  0  0  0  0  0
   -3.6100    2.0621   -0.3278 C   0  0  0  0  0  0  0  0  0  0  0  0
   -5.6793   -0.2084   -0.3396 C   0  0  0  0  0  0  0  0  0  0  0  0
   -6.4303   -1.3557   -0.2405 C   0  0  0  0  0  0  0  0  0  0  0  0
   -5.8934   -2.5021    0.3178 C   0  0  0  0  0  0  0  0  0  0  0  0
   -4.5937   -2.5514    0.7971 C   0  0  0  0  0  0  0  0  0  0  0  0
    6.1625   -1.8580   -2.4968 H   0  0  0  0  0  0  0  0  0  0  0  0
    7.7321   -1.1233   -0.7073 H   0  0  0  0  0  0  0  0  0  0  0  0
    6.8582    0.2731    1.1173 H   0  0  0  0  0  0  0  0  0  0  0  0
    4.5203    0.9047    1.1487 H   0  0  0  0  0  0  0  0  0  0  0  0
    2.1860    0.3194   -1.7020 H   0  0  0  0  0  0  0  0  0  0  0  0
    1.6856   -0.5123    1.1629 H   0  0  0  0  0  0  0  0  0  0  0  0
    1.8853   -1.7759   -0.1626 H   0  0  0  0  0  0  0  0  0  0  0  0
    0.2658   -0.5657   -1.5024 H   0  0  0  0  0  0  0  0  0  0  0  0
   -0.4156   -1.1492    0.0312 H   0  0  0  0  0  0  0  0  0  0  0  0
    0.5986    2.6129    0.8009 H   0  0  0  0  0  0  0  0  0  0  0  0
    0.7202    2.6340   -0.9501 H   0  0  0  0  0  0  0  0  0  0  0  0
    2.9380    2.3232   -0.4279 H   0  0  0  0  0  0  0  0  0  0  0  0
    2.5565    1.4583    1.0827 H   0  0  0  0  0  0  0  0  0  0  0  0
   -1.3663    2.0533    1.1139 H   0  0  0  0  0  0  0  0  0  0  0  0
   -0.5105    0.6850    1.8468 H   0  0  0  0  0  0  0  0  0  0  0  0
   -2.9851    2.2217   -1.2464 H   0  0  0  0  0  0  0  0  0  0  0  0
   -4.6672    2.2391   -0.5641 H   0  0  0  0  0  0  0  0  0  0  0  0
   -3.2549    2.7483    0.4711 H   0  0  0  0  0  0  0  0  0  0  0  0
   -6.1161    0.6581   -0.7726 H   0  0  0  0  0  0  0  0  0  0  0  0
   -7.4619   -1.3362   -0.6146 H   0  0  0  0  0  0  0  0  0  0  0  0
   -6.4835   -3.4135    0.3988 H   0  0  0  0  0  0  0  0  0  0  0  0
   -4.1735   -3.4499    1.2344 H   0  0  0  0  0  0  0  0  0  0  0  0
  1  2  1  0
  2  3  2  0
  3  4  1  0
  4  5  2  0
  5  6  1  0
  6  7  2  0
  7  8  1  0
  8  9  1  0
  9 10  1  0
 10 11  1  0
 11 12  1  0
 12 13  1  0
 11 14  1  0
 14 15  1  0
 15 16  2  0
 16 17  1  0
 17 18  2  0
 18 19  1  0
 19 20  1  0
 18 21  1  0
 21 22  2  0
 22 23  1  0
 23 24  2  0
  7  2  1  0
 13  8  1  0
 19 15  1  0
 24 17  1  0
  3 25  1  0
  4 26  1  0
  5 27  1  0
  6 28  1  0
  8 29  1  0
  9 30  1  0
  9 31  1  0
 10 32  1  0
 10 33  1  0
 12 34  1  0
 12 35  1  0
 13 36  1  0
 13 37  1  0
 14 38  1  0
 14 39  1  0
 20 40  1  0
 20 41  1  0
 20 42  1  0
 21 43  1  0
 22 44  1  0
 23 45  1  0
 24 46  1  0
M  END
>  <Ligand ID>  (1) 
LIG0001972

>  <Ligand>  (1) 
CHEMBL607689

>  <SMILES>  (1) 
Fc1ccccc1C1CCN(CC1)Cc1nc2c(n1C)cccc2

>  <CID>  (1) 
24815439.0

>  <ChEMBL ID>  (1) 
nan

>  <InChiKey>  (1) 
AMADNKXMEDYTCS-UHFFFAOYSA-N

>  <InChi>  (1) 
InChI=1S/C20H22FN3/c1-23-19-9-5-4-8-18(19)22-20(23)14-24-12-10-15(11-13-24)16-6-2-3-7-17(16)21/h2-9,15H,10-14H2,1H3

>  <IUPAC Name>  (1) 
2-[[4-(2-fluorophenyl)piperidin-1-yl]methyl]-1-methylbenzimidazole

$$$$
