
     RDKit          3D

 28 29  0  0  0  0  0  0  0  0999 V2000
   -3.6055    0.9295   -0.4052 C   0  0  0  0  0  0  0  0  0  0  0  0
   -2.5408   -0.1690   -0.6016 C   0  0  0  0  0  0  0  0  0  0  0  0
   -1.2847    0.4044    0.0320 C   0  0  0  0  0  0  0  0  0  0  0  0
   -0.1090   -0.4644   -0.0568 C   0  0  0  0  0  0  0  0  0  0  0  0
   -0.0168   -1.8540   -0.0135 C   0  0  0  0  0  0  0  0  0  0  0  0
    1.2867   -2.2064   -0.1631 N   0  0  0  0  0  0  0  0  0  0  0  0
    2.0489   -1.1152   -0.3021 C   0  0  0  0  0  0  0  0  0  0  0  0
    1.2058   -0.0497   -0.2390 C   0  0  0  0  0  0  0  0  0  0  0  0
    1.6812    1.2405   -0.3458 C   0  0  0  0  0  0  0  0  0  0  0  0
    3.0410    1.4588   -0.5199 C   0  0  0  0  0  0  0  0  0  0  0  0
    3.5556    2.7433   -0.6292 O   0  0  0  0  0  0  0  0  0  0  0  0
    3.9261    0.4013   -0.5898 C   0  0  0  0  0  0  0  0  0  0  0  0
    3.3875   -0.8744   -0.4761 C   0  0  0  0  0  0  0  0  0  0  0  0
   -2.9705   -1.2532    0.2916 N   0  0  0  0  0  0  0  0  0  0  0  0
   -3.3725    1.7932   -1.0798 H   0  0  0  0  0  0  0  0  0  0  0  0
   -3.4578    1.2905    0.6370 H   0  0  0  0  0  0  0  0  0  0  0  0
   -4.6174    0.5457   -0.5800 H   0  0  0  0  0  0  0  0  0  0  0  0
   -2.4356   -0.5161   -1.6122 H   0  0  0  0  0  0  0  0  0  0  0  0
   -1.4677    0.6062    1.0986 H   0  0  0  0  0  0  0  0  0  0  0  0
   -1.0206    1.3588   -0.5225 H   0  0  0  0  0  0  0  0  0  0  0  0
   -0.8716   -2.5153    0.1161 H   0  0  0  0  0  0  0  0  0  0  0  0
    1.6330   -3.2097   -0.1767 H   0  0  0  0  0  0  0  0  0  0  0  0
    1.0149    2.1142   -0.2996 H   0  0  0  0  0  0  0  0  0  0  0  0
    2.9154    3.5161   -0.4666 H   0  0  0  0  0  0  0  0  0  0  0  0
    4.9802    0.5885   -0.7255 H   0  0  0  0  0  0  0  0  0  0  0  0
    4.0713   -1.7323   -0.5269 H   0  0  0  0  0  0  0  0  0  0  0  0
   -3.7048   -0.9579    0.9467 H   0  0  0  0  0  0  0  0  0  0  0  0
   -3.2723   -2.0733   -0.2635 H   0  0  0  0  0  0  0  0  0  0  0  0
  1  2  1  0
  2  3  1  0
  3  4  1  0
  4  5  2  0
  5  6  1  0
  6  7  1  0
  7  8  2  0
  8  9  1  0
  9 10  2  0
 10 11  1  0
 10 12  1  0
 12 13  2  0
  2 14  1  0
  8  4  1  0
 13  7  1  0
  1 15  1  0
  1 16  1  0
  1 17  1  0
  2 18  1  0
  3 19  1  0
  3 20  1  0
  5 21  1  0
  6 22  1  0
  9 23  1  0
 11 24  1  0
 12 25  1  0
 13 26  1  0
 14 27  1  0
 14 28  1  0
M  END
>  <Ligand ID>  (1) 
LIG0001549

>  <Ligand>  (1) 
alpha;-methyl-5-HT

>  <SMILES>  (1) 
CC(Cc1c[nH]c2c1cc(O)cc2)N

>  <CID>  (1) 
2107.0

>  <ChEMBL ID>  (1) 
nan

>  <InChiKey>  (1) 
LYPCGXKCQDYTFV-UHFFFAOYSA-N

>  <InChi>  (1) 
InChI=1S/C11H14N2O/c1-7(12)4-8-6-13-11-3-2-9(14)5-10(8)11/h2-3,5-7,13-14H,4,12H2,1H3

>  <IUPAC Name>  (1) 
3-(2-aminopropyl)-1H-indol-5-ol

$$$$
