
     RDKit          3D

 79 86  0  0  0  0  0  0  0  0999 V2000
    2.3713    3.3232   -0.4239 C   0  0  0  0  0  0  0  0  0  0  0  0
    1.8900    2.5525    0.5758 O   0  0  0  0  0  0  0  0  0  0  0  0
    0.9731    1.5717    0.3203 C   0  0  2  0  0  0  0  0  0  0  0  0
    0.4196    1.0656    1.6550 C   0  0  0  0  0  0  0  0  0  0  0  0
   -0.7005    0.1064    1.5013 C   0  0  0  0  0  0  0  0  0  0  0  0
   -1.1118    0.0619    0.0302 C   0  0  2  0  0  0  0  0  0  0  0  0
    0.0862   -0.4936   -0.6616 C   0  0  0  0  0  0  0  0  0  0  0  0
    1.3050    0.4759   -0.5996 C   0  0  2  0  0  0  0  0  0  0  0  0
    2.5445   -0.2589   -0.7255 C   0  0  1  0  0  0  0  0  0  0  0  0
    3.1613   -1.0579    0.3816 C   0  0  0  0  0  0  0  0  0  0  0  0
    3.5848   -0.4102    1.6192 C   0  0  0  0  0  0  0  0  0  0  0  0
    5.0356   -0.6762    1.9331 C   0  0  0  0  0  0  0  0  0  0  0  0
    5.3707   -2.1545    2.0218 C   0  0  0  0  0  0  0  0  0  0  0  0
    4.7171   -2.8950    0.8583 C   0  0  0  0  0  0  0  0  0  0  0  0
    4.3543   -1.8307   -0.1920 C   0  0  0  0  0  0  0  0  0  0  0  0
    2.2154   -1.3767   -1.6459 O   0  0  0  0  0  0  0  0  0  0  0  0
    3.6855    0.3365   -1.5139 C   0  0  0  0  0  0  0  0  0  0  0  0
   -1.4321    1.4593   -0.4073 C   0  0  2  0  0  0  0  0  0  0  0  0
   -0.2021    2.3404   -0.2885 C   0  0  1  0  0  0  0  0  0  0  0  0
   -0.6846    3.4261    0.4463 O   0  0  0  0  0  0  0  0  0  0  0  0
   -1.8673    3.1379    1.1340 C   0  0  0  0  0  0  0  0  0  0  0  0
   -2.3011    1.9459    0.6886 C   0  0  0  0  0  0  0  0  0  0  0  0
   -3.3910    1.2303    1.0584 C   0  0  0  0  0  0  0  0  0  0  0  0
   -3.5827   -0.1106    0.4718 C   0  0  0  0  0  0  0  0  0  0  0  0
   -2.3766   -0.7262   -0.1752 C   0  0  1  0  0  0  0  0  0  0  0  0
   -2.5787   -0.7501   -1.6270 N   0  0  0  0  0  0  0  0  0  0  0  0
   -2.9926    0.5399   -2.1053 C   0  0  0  0  0  0  0  0  0  0  0  0
   -2.1085    1.6438   -1.7003 C   0  0  0  0  0  0  0  0  0  0  0  0
   -3.5640   -1.7054   -2.0219 C   0  0  0  0  0  0  0  0  0  0  0  0
   -3.1587   -3.1469   -1.8150 C   0  0  0  0  0  0  0  0  0  0  0  0
   -4.2209   -4.1506   -2.2417 C   0  0  0  0  0  0  0  0  0  0  0  0
   -3.9219   -3.9177   -0.7994 C   0  0  0  0  0  0  0  0  0  0  0  0
   -4.1826    1.8107    2.0311 C   0  0  0  0  0  0  0  0  0  0  0  0
   -3.8094    3.0584    2.5502 C   0  0  0  0  0  0  0  0  0  0  0  0
   -2.6575    3.7327    2.1139 C   0  0  0  0  0  0  0  0  0  0  0  0
   -2.2754    4.9521    2.6100 O   0  0  0  0  0  0  0  0  0  0  0  0
    2.8949    2.8730   -1.2672 H   0  0  0  0  0  0  0  0  0  0  0  0
    1.6479    4.1169   -0.7665 H   0  0  0  0  0  0  0  0  0  0  0  0
    3.1779    3.9734    0.0642 H   0  0  0  0  0  0  0  0  0  0  0  0
    1.1382    0.7340    2.3756 H   0  0  0  0  0  0  0  0  0  0  0  0
   -0.0304    2.0087    2.1095 H   0  0  0  0  0  0  0  0  0  0  0  0
   -1.5132    0.2421    2.2015 H   0  0  0  0  0  0  0  0  0  0  0  0
   -0.3287   -0.9502    1.6942 H   0  0  0  0  0  0  0  0  0  0  0  0
   -0.1249   -0.8137   -1.6856 H   0  0  0  0  0  0  0  0  0  0  0  0
    0.3279   -1.4178   -0.0957 H   0  0  0  0  0  0  0  0  0  0  0  0
    1.1611    0.9753   -1.6440 H   0  0  0  0  0  0  0  0  0  0  0  0
    2.4550   -1.9603    0.6128 H   0  0  0  0  0  0  0  0  0  0  0  0
    3.5043    0.6909    1.5427 H   0  0  0  0  0  0  0  0  0  0  0  0
    2.9521   -0.6609    2.5161 H   0  0  0  0  0  0  0  0  0  0  0  0
    5.3026   -0.2784    2.9592 H   0  0  0  0  0  0  0  0  0  0  0  0
    5.7592   -0.1987    1.2629 H   0  0  0  0  0  0  0  0  0  0  0  0
    5.1304   -2.5894    3.0052 H   0  0  0  0  0  0  0  0  0  0  0  0
    6.4649   -2.2437    1.8755 H   0  0  0  0  0  0  0  0  0  0  0  0
    5.3789   -3.6653    0.4503 H   0  0  0  0  0  0  0  0  0  0  0  0
    3.8017   -3.3679    1.2634 H   0  0  0  0  0  0  0  0  0  0  0  0
    5.2480   -1.2276   -0.3395 H   0  0  0  0  0  0  0  0  0  0  0  0
    4.0329   -2.3888   -1.0940 H   0  0  0  0  0  0  0  0  0  0  0  0
    1.8132   -0.9704   -2.4369 H   0  0  0  0  0  0  0  0  0  0  0  0
    3.3095    0.8379   -2.4558 H   0  0  0  0  0  0  0  0  0  0  0  0
    4.2861   -0.4968   -1.9186 H   0  0  0  0  0  0  0  0  0  0  0  0
    4.3633    0.9560   -0.9273 H   0  0  0  0  0  0  0  0  0  0  0  0
    0.0403    2.6768   -1.3182 H   0  0  0  0  0  0  0  0  0  0  0  0
   -3.9085   -0.8359    1.2889 H   0  0  0  0  0  0  0  0  0  0  0  0
   -4.4830   -0.0908   -0.1911 H   0  0  0  0  0  0  0  0  0  0  0  0
   -2.2480   -1.7500    0.1561 H   0  0  0  0  0  0  0  0  0  0  0  0
   -2.9207    0.4578   -3.2413 H   0  0  0  0  0  0  0  0  0  0  0  0
   -4.0762    0.7584   -1.9566 H   0  0  0  0  0  0  0  0  0  0  0  0
   -1.4266    1.9583   -2.5308 H   0  0  0  0  0  0  0  0  0  0  0  0
   -2.7749    2.5626   -1.5847 H   0  0  0  0  0  0  0  0  0  0  0  0
   -4.5908   -1.5115   -1.6474 H   0  0  0  0  0  0  0  0  0  0  0  0
   -3.6622   -1.5946   -3.1422 H   0  0  0  0  0  0  0  0  0  0  0  0
   -2.1247   -3.3758   -2.0731 H   0  0  0  0  0  0  0  0  0  0  0  0
   -3.9146   -5.1011   -2.7132 H   0  0  0  0  0  0  0  0  0  0  0  0
   -5.1958   -3.7831   -2.6240 H   0  0  0  0  0  0  0  0  0  0  0  0
   -3.4401   -4.7586   -0.2794 H   0  0  0  0  0  0  0  0  0  0  0  0
   -4.6953   -3.3514   -0.2265 H   0  0  0  0  0  0  0  0  0  0  0  0
   -5.0628    1.2855    2.3604 H   0  0  0  0  0  0  0  0  0  0  0  0
   -4.4383    3.5262    3.3250 H   0  0  0  0  0  0  0  0  0  0  0  0
   -1.8247    5.6392    2.0392 H   0  0  0  0  0  0  0  0  0  0  0  0
  1  2  1  0
  3  2  1  1
  3  4  1  0
  4  5  1  0
  6  5  1  1
  6  7  1  0
  7  8  1  0
  8  9  1  0
  9 10  1  0
 10 11  1  0
 11 12  1  0
 12 13  1  0
 13 14  1  0
 14 15  1  0
  9 16  1  6
  9 17  1  0
  6 18  1  0
 18 19  1  0
 19 20  1  0
 20 21  1  0
 21 22  2  0
 22 23  1  0
 23 24  1  0
 24 25  1  0
 25 26  1  0
 26 27  1  0
 27 28  1  0
 26 29  1  0
 29 30  1  0
 30 31  1  0
 31 32  1  0
 23 33  2  0
 33 34  1  0
 34 35  2  0
 35 36  1  0
  8  3  1  0
 15 10  1  0
 18 28  1  6
 32 30  1  0
 19  3  1  0
 35 21  1  0
 25  6  1  0
 22 18  1  0
  1 37  1  0
  1 38  1  0
  1 39  1  0
  4 40  1  0
  4 41  1  0
  5 42  1  0
  5 43  1  0
  7 44  1  0
  7 45  1  0
  8 46  1  6
 10 47  1  0
 11 48  1  0
 11 49  1  0
 12 50  1  0
 12 51  1  0
 13 52  1  0
 13 53  1  0
 14 54  1  0
 14 55  1  0
 15 56  1  0
 15 57  1  0
 16 58  1  0
 17 59  1  0
 17 60  1  0
 17 61  1  0
 19 62  1  6
 24 63  1  0
 24 64  1  0
 25 65  1  1
 27 66  1  0
 27 67  1  0
 28 68  1  0
 28 69  1  0
 29 70  1  0
 29 71  1  0
 30 72  1  0
 31 73  1  0
 31 74  1  0
 32 75  1  0
 32 76  1  0
 33 77  1  0
 34 78  1  0
 36 79  1  0
M  END
>  <Ligand ID>  (1) 
LIG0005086

>  <Ligand>  (1) 
CHEMBL2338749

>  <SMILES>  (1) 
CO[C@]12CC[C@]3(C[C@@H]1[C@@](C1CCCCC1)(O)C)[C@@]14[C@H]2Oc2c4c(C[C@H]3N(CC1)CC1CC1)ccc2O

>  <CID>  (1) 
71624554.0

>  <ChEMBL ID>  (1) 
nan

>  <InChiKey>  (1) 
AWASFRPNDANHSX-JTTXIWGLSA-N

>  <InChi>  (1) 
InChI=1S/C31H43NO4/c1-28(34,21-6-4-3-5-7-21)23-17-29-12-13-31(23,35-2)27-30(29)14-15-32(18-19-8-9-19)24(29)16-20-10-11-22(33)26(36-27)25(20)30/h10-11,19,21,23-24,27,33-34H,3-9,12-18H2,1-2H3/t23-,24-,27-,28-,29-,30+,31-/m1/s1

>  <IUPAC Name>  (1) 
(1S,2S,6R,14R,15R,16R)-16-[(1R)-1-cyclohexyl-1-hydroxyethyl]-5-(cyclopropylmethyl)-15-methoxy-13-oxa-5-azahexacyclo[13.2.2.12,8.01,6.02,14.012,20]icosa-8(20),9,11-trien-11-ol

$$$$
