
     RDKit          3D

 31 32  0  0  0  0  0  0  0  0999 V2000
   -4.1155    1.6386    0.1794 C   0  0  0  0  0  0  0  0  0  0  0  0
   -2.6154    1.2072    0.2003 C   0  0  0  0  0  0  0  0  0  0  0  0
   -2.4080    0.0664   -0.7358 C   0  0  0  0  0  0  0  0  0  0  0  0
   -1.1790   -0.4980   -0.9621 N   0  0  0  0  0  0  0  0  0  0  0  0
   -0.4527   -1.2907   -0.0960 C   0  0  1  0  0  0  0  0  0  0  0  0
    0.7151   -1.9416   -0.9019 C   0  0  0  0  0  0  0  0  0  0  0  0
    1.9160   -2.1212   -0.0285 C   0  0  0  0  0  0  0  0  0  0  0  0
    2.3958   -0.7176    0.2733 C   0  0  0  0  0  0  0  0  0  0  0  0
    1.3699    0.0595    0.8912 C   0  0  0  0  0  0  0  0  0  0  0  0
    0.0977   -0.6350    1.1235 C   0  0  0  0  0  0  0  0  0  0  0  0
    2.0641    1.6340    1.1615 S   0  0  0  0  0  0  0  0  0  0  0  0
    3.7395    1.0784    0.3847 C   0  0  0  0  0  0  0  0  0  0  0  0
    3.4864   -0.0193    0.1155 N   0  0  0  0  0  0  0  0  0  0  0  0
    4.7852    2.0540    0.3358 N   0  0  0  0  0  0  0  0  0  0  0  0
   -4.7079    0.8229   -0.2670 H   0  0  0  0  0  0  0  0  0  0  0  0
   -4.1803    2.5921   -0.3507 H   0  0  0  0  0  0  0  0  0  0  0  0
   -4.4746    1.8245    1.2056 H   0  0  0  0  0  0  0  0  0  0  0  0
   -2.4132    0.9980    1.2580 H   0  0  0  0  0  0  0  0  0  0  0  0
   -2.0047    2.0623   -0.1094 H   0  0  0  0  0  0  0  0  0  0  0  0
   -2.9277    0.3946   -1.7159 H   0  0  0  0  0  0  0  0  0  0  0  0
   -3.1785   -0.7379   -0.3828 H   0  0  0  0  0  0  0  0  0  0  0  0
   -0.7145   -0.2705   -1.8821 H   0  0  0  0  0  0  0  0  0  0  0  0
   -1.0950   -2.1582    0.2367 H   0  0  0  0  0  0  0  0  0  0  0  0
    1.0050   -1.2334   -1.7070 H   0  0  0  0  0  0  0  0  0  0  0  0
    0.3663   -2.8807   -1.3707 H   0  0  0  0  0  0  0  0  0  0  0  0
    1.6549   -2.6244    0.9183 H   0  0  0  0  0  0  0  0  0  0  0  0
    2.7233   -2.6882   -0.5400 H   0  0  0  0  0  0  0  0  0  0  0  0
    0.3200   -1.4926    1.8562 H   0  0  0  0  0  0  0  0  0  0  0  0
   -0.5343    0.0457    1.6666 H   0  0  0  0  0  0  0  0  0  0  0  0
    5.4770    2.1033    1.1410 H   0  0  0  0  0  0  0  0  0  0  0  0
    4.8849    2.7278   -0.4810 H   0  0  0  0  0  0  0  0  0  0  0  0
  1  2  1  0
  2  3  1  0
  3  4  1  0
  4  5  1  0
  5  6  1  0
  6  7  1  0
  7  8  1  0
  8  9  2  0
  9 10  1  0
  9 11  1  0
 11 12  1  0
 12 13  2  0
 12 14  1  0
 10  5  1  0
 13  8  1  0
  1 15  1  0
  1 16  1  0
  1 17  1  0
  2 18  1  0
  2 19  1  0
  3 20  1  0
  3 21  1  0
  4 22  1  0
  5 23  1  1
  6 24  1  0
  6 25  1  0
  7 26  1  0
  7 27  1  0
 10 28  1  0
 10 29  1  0
 14 30  1  0
 14 31  1  0
M  END
>  <Ligand ID>  (1) 
LIG0000594

>  <Ligand>  (1) 
pramipexole

>  <SMILES>  (1) 
CCCN[C@H]1CCc2c(C1)sc(n2)N

>  <CID>  (1) 
119570.0

>  <ChEMBL ID>  (1) 
nan

>  <InChiKey>  (1) 
FASDKYOPVNHBLU-ZETCQYMHSA-N

>  <InChi>  (1) 
InChI=1S/C10H17N3S/c1-2-5-12-7-3-4-8-9(6-7)14-10(11)13-8/h7,12H,2-6H2,1H3,(H2,11,13)/t7-/m0/s1

>  <IUPAC Name>  (1) 
(6S)-6-N-propyl-4,5,6,7-tetrahydro-1,3-benzothiazole-2,6-diamine

$$$$
