
     RDKit          3D

 33 35  0  0  0  0  0  0  0  0999 V2000
    3.4950    2.6508   -0.6202 C   0  0  0  0  0  0  0  0  0  0  0  0
    3.4823    1.6382   -1.5586 C   0  0  0  0  0  0  0  0  0  0  0  0
    2.7665    0.4680   -1.3917 C   0  0  0  0  0  0  0  0  0  0  0  0
    2.0366    0.3221   -0.2274 C   0  0  0  0  0  0  0  0  0  0  0  0
    2.0511    1.3408    0.7137 C   0  0  0  0  0  0  0  0  0  0  0  0
    2.7642    2.4970    0.5383 C   0  0  0  0  0  0  0  0  0  0  0  0
    1.2413   -0.8902    0.0415 C   0  0  0  0  0  0  0  0  0  0  0  0
    1.8124   -2.1145   -0.2109 C   0  0  0  0  0  0  0  0  0  0  0  0
    1.1369   -3.2863    0.0135 C   0  0  0  0  0  0  0  0  0  0  0  0
   -0.1421   -3.2016    0.5037 C   0  0  0  0  0  0  0  0  0  0  0  0
   -0.7113   -1.9652    0.7560 C   0  0  0  0  0  0  0  0  0  0  0  0
   -0.0703   -0.7724    0.5448 C   0  0  0  0  0  0  0  0  0  0  0  0
   -0.5228    0.4759    0.7543 O   0  0  0  0  0  0  0  0  0  0  0  0
   -1.7367    0.9122    1.2158 C   0  0  0  0  0  0  0  0  0  0  0  0
   -2.8904    0.5686    0.3692 C   0  0  0  0  0  0  0  0  0  0  0  0
   -3.2288    1.3561   -0.7463 C   0  0  0  0  0  0  0  0  0  0  0  0
   -4.3350    0.8351   -1.3205 N   0  0  0  0  0  0  0  0  0  0  0  0
   -4.7072   -0.2552   -0.6048 C   0  0  0  0  0  0  0  0  0  0  0  0
   -3.8102   -0.3790    0.4035 N   0  0  0  0  0  0  0  0  0  0  0  0
    4.0487    3.5695   -0.7364 H   0  0  0  0  0  0  0  0  0  0  0  0
    4.0537    1.7506   -2.4718 H   0  0  0  0  0  0  0  0  0  0  0  0
    2.7472   -0.3278   -2.1126 H   0  0  0  0  0  0  0  0  0  0  0  0
    1.4848    1.2665    1.6539 H   0  0  0  0  0  0  0  0  0  0  0  0
    2.7677    3.2944    1.2890 H   0  0  0  0  0  0  0  0  0  0  0  0
    2.8262   -2.1916   -0.5995 H   0  0  0  0  0  0  0  0  0  0  0  0
    1.6128   -4.2323   -0.1950 H   0  0  0  0  0  0  0  0  0  0  0  0
   -0.6724   -4.1287    0.6796 H   0  0  0  0  0  0  0  0  0  0  0  0
   -1.7044   -1.9654    1.1487 H   0  0  0  0  0  0  0  0  0  0  0  0
   -1.6601    2.0442    1.3468 H   0  0  0  0  0  0  0  0  0  0  0  0
   -1.9805    0.5321    2.2573 H   0  0  0  0  0  0  0  0  0  0  0  0
   -2.7260    2.2298   -1.1177 H   0  0  0  0  0  0  0  0  0  0  0  0
   -5.5558   -0.9124   -0.7897 H   0  0  0  0  0  0  0  0  0  0  0  0
   -3.8732   -1.1292    1.1012 H   0  0  0  0  0  0  0  0  0  0  0  0
  1  2  2  0
  2  3  1  0
  3  4  2  0
  4  5  1  0
  5  6  2  0
  4  7  1  0
  7  8  2  0
  8  9  1  0
  9 10  2  0
 10 11  1  0
 11 12  2  0
 12 13  1  0
 13 14  1  0
 14 15  1  0
 15 16  2  0
 16 17  1  0
 17 18  2  0
 18 19  1  0
  6  1  1  0
 12  7  1  0
 19 15  1  0
  1 20  1  0
  2 21  1  0
  3 22  1  0
  5 23  1  0
  6 24  1  0
  8 25  1  0
  9 26  1  0
 10 27  1  0
 11 28  1  0
 14 29  1  0
 14 30  1  0
 16 31  1  0
 18 32  1  0
 19 33  1  0
M  END
>  <Ligand ID>  (1) 
LIG0002665

>  <Ligand>  (1) 
CHEMBL116700

>  <SMILES>  (1) 
c1ccc(cc1)c1ccccc1OCc1cnc[nH]1

>  <CID>  (1) 
44343257.0

>  <ChEMBL ID>  (1) 
nan

>  <InChiKey>  (1) 
MKCFTZDMTGUFFC-UHFFFAOYSA-N

>  <InChi>  (1) 
InChI=1S/C16H14N2O/c1-2-6-13(7-3-1)15-8-4-5-9-16(15)19-11-14-10-17-12-18-14/h1-10,12H,11H2,(H,17,18)

>  <IUPAC Name>  (1) 
5-[(2-phenylphenoxy)methyl]-1H-imidazole

$$$$
