
     RDKit          3D

 37 40  0  0  0  0  0  0  0  0999 V2000
    1.9959   -2.8358   -0.0757 O   0  0  0  0  0  0  0  0  0  0  0  0
    1.4495   -1.7039   -0.1470 C   0  0  0  0  0  0  0  0  0  0  0  0
    2.2666   -0.5579   -0.2612 N   0  0  0  0  0  0  0  0  0  0  0  0
    3.5742   -0.6135   -0.8784 C   0  0  0  0  0  0  0  0  0  0  0  0
    4.5528    0.3233   -0.2304 C   0  0  0  0  0  0  0  0  0  0  0  0
    4.0741    1.6335    0.0417 N   0  0  0  0  0  0  0  0  0  0  0  0
    2.6714    1.8584   -0.1704 C   0  0  0  0  0  0  0  0  0  0  0  0
    1.8023    0.7181    0.2467 C   0  0  1  0  0  0  0  0  0  0  0  0
    0.4206    0.9633   -0.3229 C   0  0  0  0  0  0  0  0  0  0  0  0
   -0.4721   -0.2162   -0.2036 C   0  0  0  0  0  0  0  0  0  0  0  0
    0.0007   -1.5130   -0.1172 C   0  0  0  0  0  0  0  0  0  0  0  0
   -0.8286   -2.5960   -0.0075 C   0  0  0  0  0  0  0  0  0  0  0  0
   -2.1912   -2.3477    0.0152 C   0  0  0  0  0  0  0  0  0  0  0  0
   -2.7066   -1.0904   -0.0668 C   0  0  0  0  0  0  0  0  0  0  0  0
   -1.8461   -0.0020   -0.1780 C   0  0  0  0  0  0  0  0  0  0  0  0
   -2.4218    1.2419   -0.2570 O   0  0  0  0  0  0  0  0  0  0  0  0
   -3.6546    1.6154    0.3340 C   0  0  0  0  0  0  0  0  0  0  0  0
   -4.3854    0.4091    0.8755 C   0  0  0  0  0  0  0  0  0  0  0  0
   -4.1615   -0.7776   -0.0463 C   0  0  0  0  0  0  0  0  0  0  0  0
    3.4753   -0.4126   -1.9605 H   0  0  0  0  0  0  0  0  0  0  0  0
    3.9606   -1.6441   -0.7225 H   0  0  0  0  0  0  0  0  0  0  0  0
    4.8552   -0.1363    0.7498 H   0  0  0  0  0  0  0  0  0  0  0  0
    5.4666    0.3395   -0.8603 H   0  0  0  0  0  0  0  0  0  0  0  0
    4.5965    2.3482   -0.5134 H   0  0  0  0  0  0  0  0  0  0  0  0
    2.3815    2.7225    0.4750 H   0  0  0  0  0  0  0  0  0  0  0  0
    2.4308    2.1585   -1.2121 H   0  0  0  0  0  0  0  0  0  0  0  0
    1.7525    0.6071    1.3554 H   0  0  0  0  0  0  0  0  0  0  0  0
   -0.0261    1.7898    0.2676 H   0  0  0  0  0  0  0  0  0  0  0  0
    0.5192    1.3094   -1.3701 H   0  0  0  0  0  0  0  0  0  0  0  0
   -0.4198   -3.5856    0.0569 H   0  0  0  0  0  0  0  0  0  0  0  0
   -2.9011   -3.1758    0.1015 H   0  0  0  0  0  0  0  0  0  0  0  0
   -4.2585    2.2103   -0.3786 H   0  0  0  0  0  0  0  0  0  0  0  0
   -3.3867    2.2575    1.2226 H   0  0  0  0  0  0  0  0  0  0  0  0
   -5.4454    0.6505    0.9719 H   0  0  0  0  0  0  0  0  0  0  0  0
   -3.9030    0.1580    1.8637 H   0  0  0  0  0  0  0  0  0  0  0  0
   -4.4880   -0.4932   -1.0474 H   0  0  0  0  0  0  0  0  0  0  0  0
   -4.7497   -1.6127    0.3534 H   0  0  0  0  0  0  0  0  0  0  0  0
  1  2  2  0
  2  3  1  0
  3  4  1  0
  4  5  1  0
  5  6  1  0
  6  7  1  0
  7  8  1  0
  8  9  1  0
  9 10  1  0
 10 11  2  0
 11 12  1  0
 12 13  2  0
 13 14  1  0
 14 15  2  0
 15 16  1  0
 16 17  1  0
 17 18  1  0
 18 19  1  0
 11  2  1  0
 19 14  1  0
  8  3  1  0
 15 10  1  0
  4 20  1  0
  4 21  1  0
  5 22  1  0
  5 23  1  0
  6 24  1  0
  7 25  1  0
  7 26  1  0
  8 27  1  1
  9 28  1  0
  9 29  1  0
 12 30  1  0
 13 31  1  0
 17 32  1  0
 17 33  1  0
 18 34  1  0
 18 35  1  0
 19 36  1  0
 19 37  1  0
M  END
>  <Ligand ID>  (1) 
LIG0003007

>  <Ligand>  (1) 
CHEMBL2397914

>  <SMILES>  (1) 
O=C1N2CCNC[C@H]2Cc2c1ccc1c2OCCC1

>  <CID>  (1) 
71681897.0

>  <ChEMBL ID>  (1) 
nan

>  <InChiKey>  (1) 
GXGBTFXHCGUKEQ-LLVKDONJSA-N

>  <InChi>  (1) 
InChI=1S/C15H18N2O2/c18-15-12-4-3-10-2-1-7-19-14(10)13(12)8-11-9-16-5-6-17(11)15/h3-4,11,16H,1-2,5-9H2/t11-/m1/s1

>  <IUPAC Name>  (1) 
(17R)-3-oxa-12,15-diazatetracyclo[8.8.0.02,7.012,17]octadeca-1(10),2(7),8-trien-11-one

$$$$
