
     RDKit          3D

 94 99  0  0  0  0  0  0  0  0999 V2000
    0.0981    0.7545    4.7062 C   0  0  0  0  0  0  0  0  0  0  0  0
    0.3528    0.2314    3.2889 C   0  0  0  0  0  0  0  0  0  0  0  0
   -0.5291    0.9628    2.2958 C   0  0  0  0  0  0  0  0  0  0  0  0
   -0.3323    0.5388    0.8706 C   0  0  2  0  0  0  0  0  0  0  0  0
   -0.5792   -0.8272    0.5760 N   0  0  0  0  0  0  0  0  0  0  0  0
    0.6359   -1.6933    0.5516 C   0  0  0  0  0  0  0  0  0  0  0  0
    1.3998   -1.1621   -0.6753 C   0  0  0  0  0  0  0  0  0  0  0  0
    1.9672    0.0978   -0.1826 N   0  0  0  0  0  0  0  0  0  0  0  0
    1.0861    0.9403    0.5378 C   0  0  0  0  0  0  0  0  0  0  0  0
    1.5088    2.0606    0.9090 O   0  0  0  0  0  0  0  0  0  0  0  0
    3.3591    0.4554   -0.4154 C   0  0  2  0  0  0  0  0  0  0  0  0
    3.5363    0.5644   -1.8582 C   0  0  0  0  0  0  0  0  0  0  0  0
    2.5970    0.1575   -2.6249 O   0  0  0  0  0  0  0  0  0  0  0  0
    4.6759    1.0923   -2.5194 N   0  0  0  0  0  0  0  0  0  0  0  0
    4.7906    1.1692   -3.9646 C   0  0  0  0  0  0  0  0  0  0  0  0
    4.2250   -0.5324    0.2899 C   0  0  0  0  0  0  0  0  0  0  0  0
    5.6610   -0.3439    0.1737 C   0  0  0  0  0  0  0  0  0  0  0  0
    6.2841    0.4919    1.1105 C   0  0  0  0  0  0  0  0  0  0  0  0
    7.6406    0.7131    1.0839 C   0  0  0  0  0  0  0  0  0  0  0  0
    8.4254    0.1155    0.1303 C   0  0  0  0  0  0  0  0  0  0  0  0
    7.8420   -0.7141   -0.8079 C   0  0  0  0  0  0  0  0  0  0  0  0
    6.4666   -0.9469   -0.7916 C   0  0  0  0  0  0  0  0  0  0  0  0
    8.6634   -1.3077   -1.7637 C   0  0  0  0  0  0  0  0  0  0  0  0
   10.0412   -1.0675   -1.7705 C   0  0  0  0  0  0  0  0  0  0  0  0
   10.6078   -0.2258   -0.8128 C   0  0  0  0  0  0  0  0  0  0  0  0
    9.7715    0.3487    0.1223 C   0  0  0  0  0  0  0  0  0  0  0  0
   -1.7847   -1.4719    0.2734 C   0  0  0  0  0  0  0  0  0  0  0  0
   -1.6765   -2.7669    0.1005 O   0  0  0  0  0  0  0  0  0  0  0  0
   -3.1380   -0.9803    0.1118 C   0  0  2  0  0  0  0  0  0  0  0  0
   -3.2169    0.4544    0.1607 N   0  0  0  0  0  0  0  0  0  0  0  0
   -3.5055    1.1244   -1.0716 C   0  0  0  0  0  0  0  0  0  0  0  0
   -3.6852    0.5143   -2.1480 O   0  0  0  0  0  0  0  0  0  0  0  0
   -3.6077    2.6235   -1.1269 C   0  0  1  0  0  0  0  0  0  0  0  0
   -3.9331    3.0679   -2.4455 N   0  0  0  0  0  0  0  0  0  0  0  0
   -5.2935    2.8700   -2.8252 C   0  0  0  0  0  0  0  0  0  0  0  0
   -6.2500    2.7295   -1.7205 C   0  0  0  0  0  0  0  0  0  0  0  0
   -5.9414    2.8595   -0.3869 C   0  0  0  0  0  0  0  0  0  0  0  0
   -4.5166    3.1682   -0.0601 C   0  0  0  0  0  0  0  0  0  0  0  0
   -6.8435    2.7253    0.6355 C   0  0  0  0  0  0  0  0  0  0  0  0
   -8.1450    2.4422    0.3213 C   0  0  0  0  0  0  0  0  0  0  0  0
   -8.4789    2.3070   -1.0065 C   0  0  0  0  0  0  0  0  0  0  0  0
   -7.5636    2.4436   -2.0345 C   0  0  0  0  0  0  0  0  0  0  0  0
   -4.1643   -1.6025    1.0424 C   0  0  0  0  0  0  0  0  0  0  0  0
   -4.2862   -3.0562    0.8905 C   0  0  0  0  0  0  0  0  0  0  0  0
   -3.5898   -3.9911    1.6211 C   0  0  0  0  0  0  0  0  0  0  0  0
   -3.7766   -5.3371    1.3959 C   0  0  0  0  0  0  0  0  0  0  0  0
   -4.6495   -5.7815    0.4506 C   0  0  0  0  0  0  0  0  0  0  0  0
   -5.3723   -4.8692   -0.3087 C   0  0  0  0  0  0  0  0  0  0  0  0
   -5.1778   -3.5316   -0.0755 C   0  0  0  0  0  0  0  0  0  0  0  0
   -4.8765   -7.0896    0.1837 F   0  0  0  0  0  0  0  0  0  0  0  0
    1.0503    0.7376    5.2709 H   0  0  0  0  0  0  0  0  0  0  0  0
   -0.6086    0.1028    5.2515 H   0  0  0  0  0  0  0  0  0  0  0  0
   -0.3496    1.7605    4.6576 H   0  0  0  0  0  0  0  0  0  0  0  0
    1.4125    0.2571    3.0710 H   0  0  0  0  0  0  0  0  0  0  0  0
    0.0363   -0.8547    3.3156 H   0  0  0  0  0  0  0  0  0  0  0  0
   -0.2278    2.0523    2.3872 H   0  0  0  0  0  0  0  0  0  0  0  0
   -1.5671    0.9330    2.6562 H   0  0  0  0  0  0  0  0  0  0  0  0
   -0.9444    1.2204    0.2183 H   0  0  0  0  0  0  0  0  0  0  0  0
    1.2288   -1.4665    1.4253 H   0  0  0  0  0  0  0  0  0  0  0  0
    0.3951   -2.7335    0.3507 H   0  0  0  0  0  0  0  0  0  0  0  0
    2.1548   -1.8684   -1.0255 H   0  0  0  0  0  0  0  0  0  0  0  0
    0.6630   -0.9613   -1.4540 H   0  0  0  0  0  0  0  0  0  0  0  0
    3.5070    1.4335    0.0631 H   0  0  0  0  0  0  0  0  0  0  0  0
    5.4573    1.4467   -1.9626 H   0  0  0  0  0  0  0  0  0  0  0  0
    4.2166    0.3481   -4.4333 H   0  0  0  0  0  0  0  0  0  0  0  0
    4.3578    2.1266   -4.3552 H   0  0  0  0  0  0  0  0  0  0  0  0
    5.8548    1.0804   -4.2721 H   0  0  0  0  0  0  0  0  0  0  0  0
    4.0062   -1.5874    0.0148 H   0  0  0  0  0  0  0  0  0  0  0  0
    3.9290   -0.4782    1.3796 H   0  0  0  0  0  0  0  0  0  0  0  0
    5.7175    0.9933    1.8897 H   0  0  0  0  0  0  0  0  0  0  0  0
    8.1234    1.3675    1.8188 H   0  0  0  0  0  0  0  0  0  0  0  0
    6.0147   -1.5847   -1.5119 H   0  0  0  0  0  0  0  0  0  0  0  0
    8.2339   -1.9610   -2.5096 H   0  0  0  0  0  0  0  0  0  0  0  0
   10.6553   -1.5410   -2.5244 H   0  0  0  0  0  0  0  0  0  0  0  0
   11.6801   -0.0189   -0.7919 H   0  0  0  0  0  0  0  0  0  0  0  0
   10.2451    0.9972    0.8504 H   0  0  0  0  0  0  0  0  0  0  0  0
   -3.4753   -1.3049   -0.9192 H   0  0  0  0  0  0  0  0  0  0  0  0
   -3.1136    1.0512    0.9887 H   0  0  0  0  0  0  0  0  0  0  0  0
   -2.5877    3.0507   -0.8871 H   0  0  0  0  0  0  0  0  0  0  0  0
   -3.3308    2.5174   -3.1036 H   0  0  0  0  0  0  0  0  0  0  0  0
   -5.4146    2.0153   -3.5369 H   0  0  0  0  0  0  0  0  0  0  0  0
   -5.6060    3.7673   -3.4366 H   0  0  0  0  0  0  0  0  0  0  0  0
   -4.2607    2.7310    0.9041 H   0  0  0  0  0  0  0  0  0  0  0  0
   -4.3292    4.2619   -0.0144 H   0  0  0  0  0  0  0  0  0  0  0  0
   -6.4818    2.8501    1.6436 H   0  0  0  0  0  0  0  0  0  0  0  0
   -8.8449    2.3396    1.1392 H   0  0  0  0  0  0  0  0  0  0  0  0
   -9.5256    2.0826   -1.2154 H   0  0  0  0  0  0  0  0  0  0  0  0
   -7.9277    2.3182   -3.0449 H   0  0  0  0  0  0  0  0  0  0  0  0
   -3.9842   -1.3517    2.1009 H   0  0  0  0  0  0  0  0  0  0  0  0
   -5.1405   -1.1144    0.7802 H   0  0  0  0  0  0  0  0  0  0  0  0
   -2.8934   -3.6486    2.3801 H   0  0  0  0  0  0  0  0  0  0  0  0
   -3.2145   -6.0590    1.9864 H   0  0  0  0  0  0  0  0  0  0  0  0
   -6.0797   -5.1958   -1.0738 H   0  0  0  0  0  0  0  0  0  0  0  0
   -5.7541   -2.8375   -0.6806 H   0  0  0  0  0  0  0  0  0  0  0  0
  1  2  1  0
  2  3  1  0
  3  4  1  0
  4  5  1  0
  5  6  1  0
  6  7  1  0
  7  8  1  0
  8  9  1  0
  9 10  2  0
  8 11  1  0
 11 12  1  0
 12 13  2  0
 12 14  1  0
 14 15  1  0
 11 16  1  0
 16 17  1  0
 17 18  2  0
 18 19  1  0
 19 20  2  0
 20 21  1  0
 21 22  2  0
 21 23  1  0
 23 24  2  0
 24 25  1  0
 25 26  2  0
  5 27  1  0
 27 28  2  0
 27 29  1  0
 29 30  1  0
 30 31  1  0
 31 32  2  0
 31 33  1  0
 33 34  1  0
 34 35  1  0
 35 36  1  0
 36 37  2  0
 37 38  1  0
 37 39  1  0
 39 40  2  0
 40 41  1  0
 41 42  2  0
 29 43  1  0
 43 44  1  0
 44 45  2  0
 45 46  1  0
 46 47  2  0
 47 48  1  0
 48 49  2  0
 47 50  1  0
  9  4  1  0
 22 17  1  0
 38 33  1  0
 49 44  1  0
 26 20  1  0
 42 36  1  0
  1 51  1  0
  1 52  1  0
  1 53  1  0
  2 54  1  0
  2 55  1  0
  3 56  1  0
  3 57  1  0
  4 58  1  6
  6 59  1  0
  6 60  1  0
  7 61  1  0
  7 62  1  0
 11 63  1  1
 14 64  1  0
 15 65  1  0
 15 66  1  0
 15 67  1  0
 16 68  1  0
 16 69  1  0
 18 70  1  0
 19 71  1  0
 22 72  1  0
 23 73  1  0
 24 74  1  0
 25 75  1  0
 26 76  1  0
 29 77  1  6
 30 78  1  0
 33 79  1  1
 34 80  1  0
 35 81  1  0
 35 82  1  0
 38 83  1  0
 38 84  1  0
 39 85  1  0
 40 86  1  0
 41 87  1  0
 42 88  1  0
 43 89  1  0
 43 90  1  0
 45 91  1  0
 46 92  1  0
 48 93  1  0
 49 94  1  0
M  END
>  <Ligand ID>  (1) 
LIG0004069

>  <Ligand>  (1) 
CHEMBL446757

>  <SMILES>  (1) 
CCC[C@@H]1N(CCN(C1=O)[C@H](C(=O)NC)Cc1ccc2c(c1)cccc2)C(=O)[C@H](NC(=O)[C@H]1NCc2c(C1)cccc2)Cc1ccc(cc1)F

>  <CID>  (1) 
25129453.0

>  <ChEMBL ID>  (1) 
nan

>  <InChiKey>  (1) 
SYYCZXDFWBANLC-WLPVSNDTSA-N

>  <InChi>  (1) 
InChI=1S/C40H44FN5O4/c1-3-8-35-40(50)46(36(38(48)42-2)23-27-13-16-28-9-4-5-10-29(28)21-27)20-19-45(35)39(49)34(22-26-14-17-32(41)18-15-26)44-37(47)33-24-30-11-6-7-12-31(30)25-43-33/h4-7,9-18,21,33-36,43H,3,8,19-20,22-25H2,1-2H3,(H,42,48)(H,44,47)/t33-,34+,35-,36-/m0/s1

>  <IUPAC Name>  (1) 
(3S)-N-[(2R)-3-(4-fluorophenyl)-1-[(2S)-4-[(2S)-1-(methylamino)-3-naphthalen-2-yl-1-oxopropan-2-yl]-3-oxo-2-propylpiperazin-1-yl]-1-oxopropan-2-yl]-1,2,3,4-tetrahydroisoquinoline-3-carboxamide

$$$$
