
     RDKit          3D

117121  0  0  0  0  0  0  0  0999 V2000
   -0.4054    8.2034   -1.1476 N   0  0  0  0  0  0  0  0  0  0  0  0
    0.2334    7.0988   -0.4746 C   0  0  0  0  0  0  0  0  0  0  0  0
   -0.2482    5.9426   -0.7075 N   0  0  0  0  0  0  0  0  0  0  0  0
    0.2721    4.6963   -0.1113 C   0  0  0  0  0  0  0  0  0  0  0  0
    1.4660    4.2882   -0.8836 C   0  0  0  0  0  0  0  0  0  0  0  0
    2.1623    3.0319   -0.4549 C   0  0  0  0  0  0  0  0  0  0  0  0
    1.3574    1.7898   -0.5247 C   0  0  2  0  0  0  0  0  0  0  0  0
    0.1718    1.8076    0.2993 N   0  0  0  0  0  0  0  0  0  0  0  0
   -1.0880    1.2682   -0.1379 C   0  0  0  0  0  0  0  0  0  0  0  0
   -1.0291    0.6579   -1.2152 O   0  0  0  0  0  0  0  0  0  0  0  0
   -2.3485    1.4379    0.6602 C   0  0  0  0  0  0  0  0  0  0  0  0
   -3.4281    0.7198   -0.0735 N   0  0  0  0  0  0  0  0  0  0  0  0
   -3.9178    1.3333   -1.2014 C   0  0  0  0  0  0  0  0  0  0  0  0
   -5.0865    2.1507   -1.3026 C   0  0  0  0  0  0  0  0  0  0  0  0
   -6.3054    1.7453   -1.8317 C   0  0  0  0  0  0  0  0  0  0  0  0
   -7.3838    2.6092   -1.9160 C   0  0  0  0  0  0  0  0  0  0  0  0
   -7.3147    3.9133   -1.4825 C   0  0  0  0  0  0  0  0  0  0  0  0
   -6.1088    4.3292   -0.9533 C   0  0  0  0  0  0  0  0  0  0  0  0
   -5.0368    3.4683   -0.8708 C   0  0  0  0  0  0  0  0  0  0  0  0
   -3.7578   -0.5790    0.3005 C   0  0  0  0  0  0  0  0  0  0  0  0
   -3.0207   -1.0762    1.1543 O   0  0  0  0  0  0  0  0  0  0  0  0
   -4.8737   -1.4615   -0.2068 C   0  0  1  0  0  0  0  0  0  0  0  0
   -4.3449   -2.8662   -0.0007 N   0  0  0  0  0  0  0  0  0  0  0  0
   -3.2855   -3.3635   -0.7966 C   0  0  0  0  0  0  0  0  0  0  0  0
   -2.7980   -2.5620   -1.6038 O   0  0  0  0  0  0  0  0  0  0  0  0
   -2.8629   -4.7601   -0.5868 C   0  0  0  0  0  0  0  0  0  0  0  0
   -1.4957   -5.1039   -1.0468 C   0  0  0  0  0  0  0  0  0  0  0  0
   -0.4739   -4.3389   -0.1710 C   0  0  0  0  0  0  0  0  0  0  0  0
    0.8396   -4.8363   -0.6330 C   0  0  0  0  0  0  0  0  0  0  0  0
    1.0090   -5.4631   -1.6904 O   0  0  0  0  0  0  0  0  0  0  0  0
    2.0719   -4.6470    0.1183 N   0  0  0  0  0  0  0  0  0  0  0  0
    3.2486   -5.2126   -0.4870 C   0  0  0  0  0  0  0  0  0  0  0  0
    3.6594   -4.5693   -1.7754 C   0  0  0  0  0  0  0  0  0  0  0  0
    4.3679   -3.3165   -1.4241 N   0  0  0  0  0  0  0  0  0  0  0  0
    3.7361   -2.0714   -1.2668 C   0  0  0  0  0  0  0  0  0  0  0  0
    2.5006   -2.1758   -1.3602 O   0  0  0  0  0  0  0  0  0  0  0  0
    4.3066   -0.7474   -1.0261 C   0  0  1  0  0  0  0  0  0  0  0  0
    3.3991    0.3650   -1.0184 N   0  0  0  0  0  0  0  0  0  0  0  0
    2.1674    0.5236   -0.3487 C   0  0  0  0  0  0  0  0  0  0  0  0
    1.7894   -0.3928    0.3714 O   0  0  0  0  0  0  0  0  0  0  0  0
    5.4164   -0.6274   -0.0645 C   0  0  0  0  0  0  0  0  0  0  0  0
    5.2012   -1.0942    1.3109 C   0  0  0  0  0  0  0  0  0  0  0  0
    4.2323   -1.8615    1.8966 C   0  0  0  0  0  0  0  0  0  0  0  0
    4.4759   -2.0521    3.2116 N   0  0  0  0  0  0  0  0  0  0  0  0
    5.6193   -1.3955    3.4699 C   0  0  0  0  0  0  0  0  0  0  0  0
    6.1058   -0.7913    2.3407 C   0  0  0  0  0  0  0  0  0  0  0  0
    7.2900   -0.0543    2.3668 C   0  0  0  0  0  0  0  0  0  0  0  0
    7.9919    0.0743    3.5467 C   0  0  0  0  0  0  0  0  0  0  0  0
    7.5042   -0.5324    4.6824 C   0  0  0  0  0  0  0  0  0  0  0  0
    6.3161   -1.2693    4.6481 C   0  0  0  0  0  0  0  0  0  0  0  0
    5.7583   -3.4212   -1.2098 C   0  0  0  0  0  0  0  0  0  0  0  0
    6.5369   -3.0586   -2.4557 C   0  0  0  0  0  0  0  0  0  0  0  0
    5.9687   -2.7353   -3.5204 O   0  0  0  0  0  0  0  0  0  0  0  0
    7.9378   -3.1107   -2.3229 N   0  0  0  0  0  0  0  0  0  0  0  0
   -6.0215   -1.3491    0.7417 C   0  0  0  0  0  0  0  0  0  0  0  0
   -6.6880   -0.1193    1.0205 C   0  0  0  0  0  0  0  0  0  0  0  0
   -6.1394    0.7960    1.9123 C   0  0  0  0  0  0  0  0  0  0  0  0
   -6.7981    1.9476    2.2811 C   0  0  0  0  0  0  0  0  0  0  0  0
   -8.0368    2.2396    1.7758 C   0  0  0  0  0  0  0  0  0  0  0  0
   -8.6003    1.3402    0.8850 C   0  0  0  0  0  0  0  0  0  0  0  0
   -7.9529    0.1737    0.4997 C   0  0  0  0  0  0  0  0  0  0  0  0
    1.3172    7.3939    0.3697 N   0  0  0  0  0  0  0  0  0  0  0  0
    0.0323    8.6883   -1.9586 H   0  0  0  0  0  0  0  0  0  0  0  0
   -1.3458    8.5464   -0.8256 H   0  0  0  0  0  0  0  0  0  0  0  0
    0.4954    4.8962    0.9698 H   0  0  0  0  0  0  0  0  0  0  0  0
   -0.5856    4.0208   -0.1127 H   0  0  0  0  0  0  0  0  0  0  0  0
    1.1763    4.2328   -1.9695 H   0  0  0  0  0  0  0  0  0  0  0  0
    2.1905    5.1469   -0.8501 H   0  0  0  0  0  0  0  0  0  0  0  0
    2.5209    3.1537    0.6139 H   0  0  0  0  0  0  0  0  0  0  0  0
    3.0620    2.9249   -1.1030 H   0  0  0  0  0  0  0  0  0  0  0  0
    1.0288    1.6670   -1.6209 H   0  0  0  0  0  0  0  0  0  0  0  0
    0.1524    2.1968    1.2445 H   0  0  0  0  0  0  0  0  0  0  0  0
   -2.6039    2.4675    0.8785 H   0  0  0  0  0  0  0  0  0  0  0  0
   -2.2201    0.8941    1.6065 H   0  0  0  0  0  0  0  0  0  0  0  0
   -3.0209    1.8132   -1.7669 H   0  0  0  0  0  0  0  0  0  0  0  0
   -4.1082    0.4734   -1.9619 H   0  0  0  0  0  0  0  0  0  0  0  0
   -6.3514    0.7139   -2.1712 H   0  0  0  0  0  0  0  0  0  0  0  0
   -8.3354    2.2571   -2.3408 H   0  0  0  0  0  0  0  0  0  0  0  0
   -8.1312    4.5965   -1.5366 H   0  0  0  0  0  0  0  0  0  0  0  0
   -6.0314    5.3586   -0.6030 H   0  0  0  0  0  0  0  0  0  0  0  0
   -4.1294    3.8631   -0.4461 H   0  0  0  0  0  0  0  0  0  0  0  0
   -5.0861   -1.2504   -1.2205 H   0  0  0  0  0  0  0  0  0  0  0  0
   -4.7327   -3.4768    0.7046 H   0  0  0  0  0  0  0  0  0  0  0  0
   -3.5749   -5.3988   -1.1808 H   0  0  0  0  0  0  0  0  0  0  0  0
   -3.0187   -4.9894    0.4944 H   0  0  0  0  0  0  0  0  0  0  0  0
   -1.3761   -4.7302   -2.0910 H   0  0  0  0  0  0  0  0  0  0  0  0
   -1.2572   -6.1641   -1.0212 H   0  0  0  0  0  0  0  0  0  0  0  0
   -0.6157   -4.5456    0.8887 H   0  0  0  0  0  0  0  0  0  0  0  0
   -0.5245   -3.2758   -0.4410 H   0  0  0  0  0  0  0  0  0  0  0  0
    1.9636   -4.1419    0.9781 H   0  0  0  0  0  0  0  0  0  0  0  0
    4.0679   -5.0639    0.2762 H   0  0  0  0  0  0  0  0  0  0  0  0
    3.1349   -6.3126   -0.6543 H   0  0  0  0  0  0  0  0  0  0  0  0
    2.8473   -4.3737   -2.4699 H   0  0  0  0  0  0  0  0  0  0  0  0
    4.3578   -5.2665   -2.2828 H   0  0  0  0  0  0  0  0  0  0  0  0
    4.8290   -0.5965   -2.1088 H   0  0  0  0  0  0  0  0  0  0  0  0
    3.6752    1.1907   -1.5901 H   0  0  0  0  0  0  0  0  0  0  0  0
    5.5910    0.5259    0.0001 H   0  0  0  0  0  0  0  0  0  0  0  0
    6.3881   -0.9737   -0.4469 H   0  0  0  0  0  0  0  0  0  0  0  0
    3.3942   -2.2731    1.3979 H   0  0  0  0  0  0  0  0  0  0  0  0
    3.8810   -2.6005    3.8709 H   0  0  0  0  0  0  0  0  0  0  0  0
    7.6572    0.4182    1.4501 H   0  0  0  0  0  0  0  0  0  0  0  0
    8.9132    0.6384    3.5934 H   0  0  0  0  0  0  0  0  0  0  0  0
    8.0780   -0.4169    5.6014 H   0  0  0  0  0  0  0  0  0  0  0  0
    5.9926   -1.7192    5.5773 H   0  0  0  0  0  0  0  0  0  0  0  0
    6.2131   -3.1164   -0.2908 H   0  0  0  0  0  0  0  0  0  0  0  0
    5.9251   -4.5822   -1.1548 H   0  0  0  0  0  0  0  0  0  0  0  0
    8.5501   -2.4336   -2.8466 H   0  0  0  0  0  0  0  0  0  0  0  0
    8.4535   -3.7911   -1.7219 H   0  0  0  0  0  0  0  0  0  0  0  0
   -5.6549   -1.8581    1.7049 H   0  0  0  0  0  0  0  0  0  0  0  0
   -6.8001   -2.1297    0.3848 H   0  0  0  0  0  0  0  0  0  0  0  0
   -5.1525    0.5798    2.3260 H   0  0  0  0  0  0  0  0  0  0  0  0
   -6.3030    2.6242    2.9909 H   0  0  0  0  0  0  0  0  0  0  0  0
   -8.5711    3.1438    2.0553 H   0  0  0  0  0  0  0  0  0  0  0  0
   -9.5938    1.6030    0.4968 H   0  0  0  0  0  0  0  0  0  0  0  0
   -8.4508   -0.4848   -0.2030 H   0  0  0  0  0  0  0  0  0  0  0  0
    1.1625    7.4979    1.4045 H   0  0  0  0  0  0  0  0  0  0  0  0
    2.2626    7.5030   -0.0771 H   0  0  0  0  0  0  0  0  0  0  0  0
  1  2  1  0
  2  3  2  3
  3  4  1  0
  4  5  1  0
  5  6  1  0
  6  7  1  0
  7  8  1  0
  8  9  1  0
  9 10  2  0
  9 11  1  0
 11 12  1  0
 12 13  1  0
 13 14  1  0
 14 15  2  0
 15 16  1  0
 16 17  2  0
 17 18  1  0
 18 19  2  0
 12 20  1  0
 20 21  2  0
 20 22  1  0
 22 23  1  0
 23 24  1  0
 24 25  2  0
 24 26  1  0
 26 27  1  0
 27 28  1  0
 28 29  1  0
 29 30  2  0
 29 31  1  0
 31 32  1  0
 32 33  1  0
 33 34  1  0
 34 35  1  0
 35 36  2  0
 35 37  1  0
 37 38  1  0
 38 39  1  0
 39 40  2  0
 37 41  1  0
 41 42  1  0
 42 43  2  0
 43 44  1  0
 44 45  1  0
 45 46  2  0
 46 47  1  0
 47 48  2  0
 48 49  1  0
 49 50  2  0
 34 51  1  0
 51 52  1  0
 52 53  2  0
 52 54  1  0
 22 55  1  0
 55 56  1  0
 56 57  2  0
 57 58  1  0
 58 59  2  0
 59 60  1  0
 60 61  2  0
  2 62  1  0
 39  7  1  0
 46 42  1  0
 61 56  1  0
 19 14  1  0
 50 45  1  0
  1 63  1  0
  1 64  1  0
  4 65  1  0
  4 66  1  0
  5 67  1  0
  5 68  1  0
  6 69  1  0
  6 70  1  0
  7 71  1  6
  8 72  1  0
 11 73  1  0
 11 74  1  0
 13 75  1  0
 13 76  1  0
 15 77  1  0
 16 78  1  0
 17 79  1  0
 18 80  1  0
 19 81  1  0
 22 82  1  6
 23 83  1  0
 26 84  1  0
 26 85  1  0
 27 86  1  0
 27 87  1  0
 28 88  1  0
 28 89  1  0
 31 90  1  0
 32 91  1  0
 32 92  1  0
 33 93  1  0
 33 94  1  0
 37 95  1  6
 38 96  1  0
 41 97  1  0
 41 98  1  0
 43 99  1  0
 44100  1  0
 47101  1  0
 48102  1  0
 49103  1  0
 50104  1  0
 51105  1  0
 51106  1  0
 54107  1  0
 54108  1  0
 55109  1  0
 55110  1  0
 57111  1  0
 58112  1  0
 59113  1  0
 60114  1  0
 61115  1  0
 62116  1  0
 62117  1  0
M  END
>  <Ligand ID>  (1) 
LIG0002924

>  <Ligand>  (1) 
CHEMBL602654

>  <SMILES>  (1) 
NC(=NCCC[C@@H]1NC(=O)CN(Cc2ccccc2)C(=O)[C@@H](NC(=O)CCCC(=O)NCCN(C(=O)[C@@H](NC1=O)Cc1c[nH]c2c1cccc2)CC(=O)N)Cc1ccccc1)N

>  <CID>  (1) 
46232224.0

>  <ChEMBL ID>  (1) 
nan

>  <InChiKey>  (1) 
BRQLNASGHKQEIB-KVBYWJEESA-N

>  <InChi>  (1) 
InChI=1S/C44H55N11O7/c45-37(56)27-54-22-21-48-38(57)18-9-19-39(58)52-35(23-29-11-3-1-4-12-29)43(62)55(26-30-13-5-2-6-14-30)28-40(59)51-34(17-10-20-49-44(46)47)41(60)53-36(42(54)61)24-31-25-50-33-16-8-7-15-32(31)33/h1-8,11-16,25,34-36,50H,9-10,17-24,26-28H2,(H2,45,56)(H,48,57)(H,51,59)(H,52,58)(H,53,60)(H4,46,47,49)/t34-,35-,36-/m0/s1

>  <IUPAC Name>  (1) 
2-[(6S,9S,15S)-13,15-dibenzyl-9-[3-(diaminomethylideneamino)propyl]-6-(1H-indol-3-ylmethyl)-5,8,11,14,17,21-hexaoxo-1,4,7,10,13,16-hexazacyclohenicos-4-yl]acetamide

$$$$
