
     RDKit          3D

 70 73  0  0  0  0  0  0  0  0999 V2000
   -0.2156   -1.1214    0.2948 C   0  0  0  0  0  0  0  0  0  0  0  0
   -0.1405    0.2717   -0.2146 C   0  0  2  0  0  0  0  0  0  0  0  0
    0.1975    1.2042    0.9559 C   0  0  0  0  0  0  0  0  0  0  0  0
    1.4995    0.7966    1.5045 C   0  0  0  0  0  0  0  0  0  0  0  0
    1.8358    0.1052    2.6417 C   0  0  0  0  0  0  0  0  0  0  0  0
    3.1819   -0.0152    2.7217 N   0  0  0  0  0  0  0  0  0  0  0  0
    3.7506    0.5934    1.6414 C   0  0  0  0  0  0  0  0  0  0  0  0
    2.7070    1.0933    0.8918 C   0  0  0  0  0  0  0  0  0  0  0  0
    3.0374    1.7651   -0.2654 C   0  0  0  0  0  0  0  0  0  0  0  0
    4.3389    1.9508   -0.6886 C   0  0  0  0  0  0  0  0  0  0  0  0
    5.3477    1.4321    0.0973 C   0  0  0  0  0  0  0  0  0  0  0  0
    5.0857    0.7540    1.2581 C   0  0  0  0  0  0  0  0  0  0  0  0
    6.0296    0.2091    2.0967 O   0  0  0  0  0  0  0  0  0  0  0  0
    7.3955    0.2952    1.8204 C   0  0  0  0  0  0  0  0  0  0  0  0
    7.7810   -0.3695    0.5753 C   0  0  0  0  0  0  0  0  0  0  0  0
    7.0006   -1.0126   -0.1807 O   0  0  0  0  0  0  0  0  0  0  0  0
    9.1674   -0.2795    0.1842 N   0  0  0  0  0  0  0  0  0  0  0  0
   10.1370    0.4421    1.0044 C   0  0  0  0  0  0  0  0  0  0  0  0
    9.6353   -0.9122   -1.0544 C   0  0  0  0  0  0  0  0  0  0  0  0
   -1.3250    0.7071   -0.8429 N   0  0  0  0  0  0  0  0  0  0  0  0
   -1.6935    0.0956   -2.0367 C   0  0  0  0  0  0  0  0  0  0  0  0
   -2.2291   -1.3097   -2.0362 C   0  0  1  0  0  0  0  0  0  0  0  0
   -3.5970   -1.3196   -1.4059 C   0  0  0  0  0  0  0  0  0  0  0  0
   -3.9037   -2.0525   -0.2914 C   0  0  0  0  0  0  0  0  0  0  0  0
   -5.1657   -2.0504    0.2951 C   0  0  0  0  0  0  0  0  0  0  0  0
   -6.1455   -1.2613   -0.2934 C   0  0  0  0  0  0  0  0  0  0  0  0
   -5.8874   -0.5054   -1.4163 C   0  0  0  0  0  0  0  0  0  0  0  0
   -4.6000   -0.5496   -1.9588 C   0  0  0  0  0  0  0  0  0  0  0  0
   -6.8566    0.3143   -2.0521 N   0  0  0  0  0  0  0  0  0  0  0  0
   -7.9042    1.3867   -1.2459 S   0  0  0  0  0  0  0  0  0  0  0  0
   -7.1369    2.4115   -0.4757 O   0  0  0  0  0  0  0  0  0  0  0  0
   -8.7656    2.1204   -2.2223 O   0  0  0  0  0  0  0  0  0  0  0  0
   -8.9225    0.5207   -0.1558 C   0  0  0  0  0  0  0  0  0  0  0  0
   -9.0794    0.6278    1.1829 C   0  0  0  0  0  0  0  0  0  0  0  0
   -9.9498   -0.1661    1.8158 C   0  0  0  0  0  0  0  0  0  0  0  0
  -10.6556   -1.0732    1.0413 C   0  0  0  0  0  0  0  0  0  0  0  0
  -10.0703   -0.7952   -0.6365 S   0  0  0  0  0  0  0  0  0  0  0  0
   -2.4639   -1.5780   -3.4342 O   0  0  0  0  0  0  0  0  0  0  0  0
   -1.2523   -1.3590    0.5329 H   0  0  0  0  0  0  0  0  0  0  0  0
    0.3358   -1.2442    1.2758 H   0  0  0  0  0  0  0  0  0  0  0  0
    0.3112   -1.8291   -0.3761 H   0  0  0  0  0  0  0  0  0  0  0  0
    0.7072    0.3618   -0.9831 H   0  0  0  0  0  0  0  0  0  0  0  0
   -0.5944    1.0373    1.6981 H   0  0  0  0  0  0  0  0  0  0  0  0
    0.2236    2.2608    0.6004 H   0  0  0  0  0  0  0  0  0  0  0  0
    1.1063   -0.2696    3.3430 H   0  0  0  0  0  0  0  0  0  0  0  0
    3.6910   -0.5104    3.5114 H   0  0  0  0  0  0  0  0  0  0  0  0
    2.2692    2.1940   -0.9205 H   0  0  0  0  0  0  0  0  0  0  0  0
    4.5743    2.4819   -1.6004 H   0  0  0  0  0  0  0  0  0  0  0  0
    6.3599    1.5941   -0.2382 H   0  0  0  0  0  0  0  0  0  0  0  0
    7.7398    1.3687    1.7262 H   0  0  0  0  0  0  0  0  0  0  0  0
    7.9908   -0.0768    2.7047 H   0  0  0  0  0  0  0  0  0  0  0  0
   10.2629   -0.1296    1.9690 H   0  0  0  0  0  0  0  0  0  0  0  0
    9.7622    1.4435    1.2950 H   0  0  0  0  0  0  0  0  0  0  0  0
   11.0644    0.5586    0.4448 H   0  0  0  0  0  0  0  0  0  0  0  0
   10.5229   -1.5281   -0.8236 H   0  0  0  0  0  0  0  0  0  0  0  0
    8.8658   -1.5386   -1.5056 H   0  0  0  0  0  0  0  0  0  0  0  0
    9.9700   -0.0579   -1.6980 H   0  0  0  0  0  0  0  0  0  0  0  0
   -1.5764    1.7052   -0.7046 H   0  0  0  0  0  0  0  0  0  0  0  0
   -2.5453    0.7206   -2.4810 H   0  0  0  0  0  0  0  0  0  0  0  0
   -0.9129    0.2030   -2.8557 H   0  0  0  0  0  0  0  0  0  0  0  0
   -1.5973   -2.0928   -1.6673 H   0  0  0  0  0  0  0  0  0  0  0  0
   -3.1698   -2.6791    0.1836 H   0  0  0  0  0  0  0  0  0  0  0  0
   -5.3877   -2.6380    1.1777 H   0  0  0  0  0  0  0  0  0  0  0  0
   -7.1357   -1.2400    0.1398 H   0  0  0  0  0  0  0  0  0  0  0  0
   -4.4220    0.0566   -2.8491 H   0  0  0  0  0  0  0  0  0  0  0  0
   -6.9133    0.2387   -3.0922 H   0  0  0  0  0  0  0  0  0  0  0  0
   -8.4720    1.3890    1.7473 H   0  0  0  0  0  0  0  0  0  0  0  0
  -10.1349   -0.1389    2.9069 H   0  0  0  0  0  0  0  0  0  0  0  0
  -11.4128   -1.8162    1.3357 H   0  0  0  0  0  0  0  0  0  0  0  0
   -1.6509   -1.2856   -3.9124 H   0  0  0  0  0  0  0  0  0  0  0  0
  1  2  1  0
  2  3  1  0
  3  4  1  0
  4  5  2  0
  5  6  1  0
  6  7  1  0
  7  8  2  0
  8  9  1  0
  9 10  2  0
 10 11  1  0
 11 12  2  0
 12 13  1  0
 13 14  1  0
 14 15  1  0
 15 16  2  0
 15 17  1  0
 17 18  1  0
 17 19  1  0
  2 20  1  0
 20 21  1  0
 21 22  1  0
 22 23  1  0
 23 24  2  0
 24 25  1  0
 25 26  2  0
 26 27  1  0
 27 28  2  0
 27 29  1  0
 29 30  1  0
 30 31  2  0
 30 32  2  0
 30 33  1  0
 33 34  2  0
 34 35  1  0
 35 36  2  0
 36 37  1  0
 22 38  1  0
  8  4  1  0
 28 23  1  0
 37 33  1  0
 12  7  1  0
  1 39  1  0
  1 40  1  0
  1 41  1  0
  2 42  1  6
  3 43  1  0
  3 44  1  0
  5 45  1  0
  6 46  1  0
  9 47  1  0
 10 48  1  0
 11 49  1  0
 14 50  1  0
 14 51  1  0
 18 52  1  0
 18 53  1  0
 18 54  1  0
 19 55  1  0
 19 56  1  0
 19 57  1  0
 20 58  1  0
 21 59  1  0
 21 60  1  0
 22 61  1  1
 24 62  1  0
 25 63  1  0
 26 64  1  0
 28 65  1  0
 29 66  1  0
 34 67  1  0
 35 68  1  0
 36 69  1  0
 38 70  1  0
M  END
>  <Ligand ID>  (1) 
LIG0002212

>  <Ligand>  (1) 
CHEMBL185703

>  <SMILES>  (1) 
C[C@H](Cc1c[nH]c2c1cccc2OCC(=O)N(C)C)NC[C@@H](c1cccc(c1)NS(=O)(=O)c1cccs1)O

>  <CID>  (1) 
44396488.0

>  <ChEMBL ID>  (1) 
nan

>  <InChiKey>  (1) 
IZAYFWKVBBNBFP-JPYJTQIMSA-N

>  <InChi>  (1) 
InChI=1S/C27H32N4O5S2/c1-18(13-20-15-29-27-22(20)9-5-10-24(27)36-17-25(33)31(2)3)28-16-23(32)19-7-4-8-21(14-19)30-38(34,35)26-11-6-12-37-26/h4-12,14-15,18,23,28-30,32H,13,16-17H2,1-3H3/t18-,23+/m1/s1

>  <IUPAC Name>  (1) 
2-[[3-[(2R)-2-[[(2R)-2-hydroxy-2-[3-(thiophen-2-ylsulfonylamino)phenyl]ethyl]amino]propyl]-1H-indol-7-yl]oxy]-N,N-dimethylacetamide

$$$$
