
     RDKit          3D

 88 91  0  0  0  0  0  0  0  0999 V2000
    4.5659   -2.0455   -3.8332 C   0  0  0  0  0  0  0  0  0  0  0  0
    5.2777   -1.2651   -2.8708 N   0  0  0  0  0  0  0  0  0  0  0  0
    5.3926    0.1297   -3.2488 C   0  0  0  0  0  0  0  0  0  0  0  0
    4.3372    0.9492   -2.5301 C   0  0  0  0  0  0  0  0  0  0  0  0
    3.1350    0.1729   -2.4112 N   0  0  0  0  0  0  0  0  0  0  0  0
    3.3030   -0.8751   -1.4625 C   0  0  1  0  0  0  0  0  0  0  0  0
    4.7404   -1.3769   -1.5348 C   0  0  0  0  0  0  0  0  0  0  0  0
    2.9677   -0.4527   -0.0957 C   0  0  0  0  0  0  0  0  0  0  0  0
    3.0724   -1.3471    0.8101 O   0  0  0  0  0  0  0  0  0  0  0  0
    2.5455    0.8194    0.3273 N   0  0  0  0  0  0  0  0  0  0  0  0
    2.2541    1.0568    1.7074 C   0  0  2  0  0  0  0  0  0  0  0  0
    0.8348    1.1939    2.0050 C   0  0  0  0  0  0  0  0  0  0  0  0
    0.6170    1.5446    3.2580 O   0  0  0  0  0  0  0  0  0  0  0  0
   -0.3091    1.0291    1.2485 N   0  0  0  0  0  0  0  0  0  0  0  0
   -0.4404    0.6408   -0.1421 C   0  0  0  0  0  0  0  0  0  0  0  0
   -1.0283   -0.7715   -0.0737 C   0  0  0  0  0  0  0  0  0  0  0  0
   -2.4772   -0.5787    0.3669 C   0  0  0  0  0  0  0  0  0  0  0  0
   -2.5159    0.0722    1.6902 C   0  0  0  0  0  0  0  0  0  0  0  0
   -1.6239    1.2492    1.8984 C   0  0  0  0  0  0  0  0  0  0  0  0
   -3.1348   -1.9492    0.4351 C   0  0  0  0  0  0  0  0  0  0  0  0
   -2.5286   -2.8768    1.4220 C   0  0  0  0  0  0  0  0  0  0  0  0
   -3.4888   -3.2521    2.5295 C   0  0  0  0  0  0  0  0  0  0  0  0
   -4.7648   -3.8505    1.9847 C   0  0  0  0  0  0  0  0  0  0  0  0
   -5.1653   -3.2701    0.6730 C   0  0  0  0  0  0  0  0  0  0  0  0
   -4.5971   -1.8364    0.6067 C   0  0  0  0  0  0  0  0  0  0  0  0
   -3.1513    0.1507   -0.7343 C   0  0  0  0  0  0  0  0  0  0  0  0
   -2.6375    0.2349   -1.9060 O   0  0  0  0  0  0  0  0  0  0  0  0
   -4.4041    0.8113   -0.5857 N   0  0  0  0  0  0  0  0  0  0  0  0
   -5.0333    1.5050   -1.6790 C   0  0  0  0  0  0  0  0  0  0  0  0
   -6.3469    2.0958   -1.2096 C   0  0  0  0  0  0  0  0  0  0  0  0
   -5.3371    0.5789   -2.8360 C   0  0  0  0  0  0  0  0  0  0  0  0
   -4.2157    2.6438   -2.2173 C   0  0  0  0  0  0  0  0  0  0  0  0
    3.0502    2.2480    2.1912 C   0  0  0  0  0  0  0  0  0  0  0  0
    4.4981    2.0645    2.0837 C   0  0  0  0  0  0  0  0  0  0  0  0
    5.1501    1.4664    3.1611 C   0  0  0  0  0  0  0  0  0  0  0  0
    6.5201    1.2570    3.1616 C   0  0  0  0  0  0  0  0  0  0  0  0
    7.2694    1.6474    2.0711 C   0  0  0  0  0  0  0  0  0  0  0  0
    6.6436    2.2439    0.9884 C   0  0  0  0  0  0  0  0  0  0  0  0
    5.2797    2.4381    1.0189 C   0  0  0  0  0  0  0  0  0  0  0  0
    8.6103    1.4257    2.1101 F   0  0  0  0  0  0  0  0  0  0  0  0
    5.0918   -3.0155   -3.9448 H   0  0  0  0  0  0  0  0  0  0  0  0
    4.5618   -1.6001   -4.8491 H   0  0  0  0  0  0  0  0  0  0  0  0
    3.5189   -2.2764   -3.5160 H   0  0  0  0  0  0  0  0  0  0  0  0
    6.4122    0.4864   -3.0297 H   0  0  0  0  0  0  0  0  0  0  0  0
    5.2277    0.1995   -4.3333 H   0  0  0  0  0  0  0  0  0  0  0  0
    4.1383    1.8992   -3.1089 H   0  0  0  0  0  0  0  0  0  0  0  0
    4.7371    1.2794   -1.5579 H   0  0  0  0  0  0  0  0  0  0  0  0
    2.3488    0.7797   -2.1564 H   0  0  0  0  0  0  0  0  0  0  0  0
    2.5960   -1.7087   -1.7252 H   0  0  0  0  0  0  0  0  0  0  0  0
    4.6836   -2.4773   -1.3122 H   0  0  0  0  0  0  0  0  0  0  0  0
    5.4093   -0.9075   -0.8130 H   0  0  0  0  0  0  0  0  0  0  0  0
    2.4701    1.5967   -0.3560 H   0  0  0  0  0  0  0  0  0  0  0  0
    2.6597    0.1748    2.3154 H   0  0  0  0  0  0  0  0  0  0  0  0
    0.4309    0.6969   -0.7605 H   0  0  0  0  0  0  0  0  0  0  0  0
   -1.1848    1.3735   -0.5655 H   0  0  0  0  0  0  0  0  0  0  0  0
   -0.5123   -1.2819    0.7741 H   0  0  0  0  0  0  0  0  0  0  0  0
   -0.9334   -1.3143   -1.0166 H   0  0  0  0  0  0  0  0  0  0  0  0
   -3.5526    0.4044    1.9535 H   0  0  0  0  0  0  0  0  0  0  0  0
   -2.2803   -0.6999    2.4547 H   0  0  0  0  0  0  0  0  0  0  0  0
   -2.0862    2.1868    1.5405 H   0  0  0  0  0  0  0  0  0  0  0  0
   -1.4303    1.3631    2.9787 H   0  0  0  0  0  0  0  0  0  0  0  0
   -2.9698   -2.3711   -0.6087 H   0  0  0  0  0  0  0  0  0  0  0  0
   -1.6034   -2.5395    1.9020 H   0  0  0  0  0  0  0  0  0  0  0  0
   -2.2618   -3.8547    0.9219 H   0  0  0  0  0  0  0  0  0  0  0  0
   -3.0305   -4.0380    3.1635 H   0  0  0  0  0  0  0  0  0  0  0  0
   -3.7366   -2.4241    3.2013 H   0  0  0  0  0  0  0  0  0  0  0  0
   -4.6946   -4.9601    1.8787 H   0  0  0  0  0  0  0  0  0  0  0  0
   -5.5674   -3.6520    2.7257 H   0  0  0  0  0  0  0  0  0  0  0  0
   -4.6357   -3.7999   -0.1509 H   0  0  0  0  0  0  0  0  0  0  0  0
   -6.2638   -3.2220    0.5081 H   0  0  0  0  0  0  0  0  0  0  0  0
   -4.9224   -1.2822    1.4905 H   0  0  0  0  0  0  0  0  0  0  0  0
   -5.1172   -1.4192   -0.3012 H   0  0  0  0  0  0  0  0  0  0  0  0
   -4.8806    0.8093    0.3429 H   0  0  0  0  0  0  0  0  0  0  0  0
   -6.4919    1.8895   -0.1258 H   0  0  0  0  0  0  0  0  0  0  0  0
   -6.4460    3.1707   -1.4394 H   0  0  0  0  0  0  0  0  0  0  0  0
   -7.2237    1.5965   -1.7164 H   0  0  0  0  0  0  0  0  0  0  0  0
   -6.2322    0.9822   -3.3517 H   0  0  0  0  0  0  0  0  0  0  0  0
   -5.5988   -0.4439   -2.4964 H   0  0  0  0  0  0  0  0  0  0  0  0
   -4.5330    0.5667   -3.6019 H   0  0  0  0  0  0  0  0  0  0  0  0
   -3.2605    2.3421   -2.6876 H   0  0  0  0  0  0  0  0  0  0  0  0
   -4.0507    3.4331   -1.4643 H   0  0  0  0  0  0  0  0  0  0  0  0
   -4.7933    3.1283   -3.0545 H   0  0  0  0  0  0  0  0  0  0  0  0
    2.7267    2.5411    3.2190 H   0  0  0  0  0  0  0  0  0  0  0  0
    2.7955    3.0890    1.4803 H   0  0  0  0  0  0  0  0  0  0  0  0
    4.6069    1.1443    4.0346 H   0  0  0  0  0  0  0  0  0  0  0  0
    6.9763    0.7870    4.0247 H   0  0  0  0  0  0  0  0  0  0  0  0
    7.2560    2.5406    0.1438 H   0  0  0  0  0  0  0  0  0  0  0  0
    4.7815    2.9061    0.1817 H   0  0  0  0  0  0  0  0  0  0  0  0
  1  2  1  0
  2  3  1  0
  3  4  1  0
  4  5  1  0
  5  6  1  0
  6  7  1  0
  6  8  1  0
  8  9  2  0
  8 10  1  0
 10 11  1  0
 11 12  1  0
 12 13  2  0
 12 14  1  0
 14 15  1  0
 15 16  1  0
 16 17  1  0
 17 18  1  0
 18 19  1  0
 17 20  1  0
 20 21  1  0
 21 22  1  0
 22 23  1  0
 23 24  1  0
 24 25  1  0
 17 26  1  0
 26 27  2  0
 26 28  1  0
 28 29  1  0
 29 30  1  0
 29 31  1  0
 29 32  1  0
 11 33  1  0
 33 34  1  0
 34 35  2  0
 35 36  1  0
 36 37  2  0
 37 38  1  0
 38 39  2  0
 37 40  1  0
  7  2  1  0
 19 14  1  0
 25 20  1  0
 39 34  1  0
  1 41  1  0
  1 42  1  0
  1 43  1  0
  3 44  1  0
  3 45  1  0
  4 46  1  0
  4 47  1  0
  5 48  1  0
  6 49  1  6
  7 50  1  0
  7 51  1  0
 10 52  1  0
 11 53  1  1
 15 54  1  0
 15 55  1  0
 16 56  1  0
 16 57  1  0
 18 58  1  0
 18 59  1  0
 19 60  1  0
 19 61  1  0
 20 62  1  0
 21 63  1  0
 21 64  1  0
 22 65  1  0
 22 66  1  0
 23 67  1  0
 23 68  1  0
 24 69  1  0
 24 70  1  0
 25 71  1  0
 25 72  1  0
 28 73  1  0
 30 74  1  0
 30 75  1  0
 30 76  1  0
 31 77  1  0
 31 78  1  0
 31 79  1  0
 32 80  1  0
 32 81  1  0
 32 82  1  0
 33 83  1  0
 33 84  1  0
 35 85  1  0
 36 86  1  0
 38 87  1  0
 39 88  1  0
M  END
>  <Ligand ID>  (1) 
LIG0003389

>  <Ligand>  (1) 
CHEMBL1196338

>  <SMILES>  (1) 
CN1CCN[C@@H](C1)C(=O)N[C@H](C(=O)N1CCC(CC1)(C1CCCCC1)C(=O)NC(C)(C)C)Cc1ccc(cc1)F

>  <CID>  (1) 
44391999.0

>  <ChEMBL ID>  (1) 
nan

>  <InChiKey>  (1) 
YDGSHFJUSTYFRE-UIOOFZCWSA-N

>  <InChi>  (1) 
InChI=1S/C31H48FN5O3/c1-30(2,3)35-29(40)31(23-8-6-5-7-9-23)14-17-37(18-15-31)28(39)25(20-22-10-12-24(32)13-11-22)34-27(38)26-21-36(4)19-16-33-26/h10-13,23,25-26,33H,5-9,14-21H2,1-4H3,(H,34,38)(H,35,40)/t25-,26-/m0/s1

>  <IUPAC Name>  (1) 
(2S)-N-[(2S)-1-[4-(tert-butylcarbamoyl)-4-cyclohexylpiperidin-1-yl]-3-(4-fluorophenyl)-1-oxopropan-2-yl]-4-methylpiperazine-2-carboxamide

$$$$
