
     RDKit          3D

 59 63  0  0  0  0  0  0  0  0999 V2000
    9.8958   -0.5981   -0.9105 O   0  0  0  0  0  0  0  0  0  0  0  0
    9.1722   -1.7143   -0.5298 C   0  0  0  0  0  0  0  0  0  0  0  0
    9.8005   -2.7897   -0.2620 O   0  0  0  0  0  0  0  0  0  0  0  0
    7.7009   -1.7511   -0.4091 C   0  0  0  0  0  0  0  0  0  0  0  0
    7.1327   -0.3959   -0.7620 C   0  0  0  0  0  0  0  0  0  0  0  0
    7.6715    0.6711    0.1660 C   0  0  0  0  0  0  0  0  0  0  0  0
    6.5588    0.9406    1.1544 C   0  0  0  0  0  0  0  0  0  0  0  0
    5.3678    0.4201    0.5155 N   0  0  0  0  0  0  0  0  0  0  0  0
    5.6775   -0.3273   -0.5550 C   0  0  0  0  0  0  0  0  0  0  0  0
    4.5064   -0.8084   -1.1398 C   0  0  0  0  0  0  0  0  0  0  0  0
    3.4742   -0.3159   -0.3716 C   0  0  0  0  0  0  0  0  0  0  0  0
    4.0297    0.4330    0.6352 C   0  0  0  0  0  0  0  0  0  0  0  0
    3.1984    1.0494    1.5618 C   0  0  0  0  0  0  0  0  0  0  0  0
    1.8429    0.8889    1.4399 C   0  0  0  0  0  0  0  0  0  0  0  0
    1.2970    0.1306    0.4192 C   0  0  0  0  0  0  0  0  0  0  0  0
    2.1065   -0.4890   -0.5102 C   0  0  0  0  0  0  0  0  0  0  0  0
   -0.0838   -0.0243    0.3072 O   0  0  0  0  0  0  0  0  0  0  0  0
   -0.9275    0.6050    1.2526 C   0  0  0  0  0  0  0  0  0  0  0  0
   -2.3451    0.3109    0.9484 C   0  0  0  0  0  0  0  0  0  0  0  0
   -2.9629   -0.7858    1.4883 C   0  0  0  0  0  0  0  0  0  0  0  0
   -4.2736   -1.0452    1.1977 C   0  0  0  0  0  0  0  0  0  0  0  0
   -5.0700   -0.2493    0.3586 C   0  0  0  0  0  0  0  0  0  0  0  0
   -4.4342    0.8677   -0.1879 C   0  0  0  0  0  0  0  0  0  0  0  0
   -3.0887    1.1166    0.1219 C   0  0  0  0  0  0  0  0  0  0  0  0
   -5.1226    1.7973   -1.0450 C   0  0  0  0  0  0  0  0  0  0  0  0
   -5.6832    1.4542   -2.1953 F   0  0  0  0  0  0  0  0  0  0  0  0
   -5.9947    2.6751   -0.3615 F   0  0  0  0  0  0  0  0  0  0  0  0
   -4.1579    2.7505   -1.4757 F   0  0  0  0  0  0  0  0  0  0  0  0
   -6.4526   -0.6212    0.0903 C   0  0  0  0  0  0  0  0  0  0  0  0
   -7.5590    0.1855    0.6869 C   0  0  0  0  0  0  0  0  0  0  0  0
   -8.5256    0.4615   -0.4629 C   0  0  0  0  0  0  0  0  0  0  0  0
   -8.1377   -0.4369   -1.6055 C   0  0  0  0  0  0  0  0  0  0  0  0
   -6.8334   -1.1150   -1.2553 C   0  0  0  0  0  0  0  0  0  0  0  0
   10.8952   -0.6278   -0.9256 H   0  0  0  0  0  0  0  0  0  0  0  0
    7.3088   -2.5191   -1.0758 H   0  0  0  0  0  0  0  0  0  0  0  0
    7.4754   -2.0032    0.6493 H   0  0  0  0  0  0  0  0  0  0  0  0
    7.3717   -0.1684   -1.8136 H   0  0  0  0  0  0  0  0  0  0  0  0
    8.5513    0.3142    0.7692 H   0  0  0  0  0  0  0  0  0  0  0  0
    7.9253    1.5730   -0.4196 H   0  0  0  0  0  0  0  0  0  0  0  0
    6.4548    2.0411    1.3714 H   0  0  0  0  0  0  0  0  0  0  0  0
    6.7315    0.4130    2.1179 H   0  0  0  0  0  0  0  0  0  0  0  0
    4.4340   -1.4429   -2.0231 H   0  0  0  0  0  0  0  0  0  0  0  0
    3.5926    1.6472    2.3691 H   0  0  0  0  0  0  0  0  0  0  0  0
    1.1504    1.3486    2.1364 H   0  0  0  0  0  0  0  0  0  0  0  0
    1.6609   -1.0769   -1.2998 H   0  0  0  0  0  0  0  0  0  0  0  0
   -0.7946    1.7228    1.2222 H   0  0  0  0  0  0  0  0  0  0  0  0
   -0.6926    0.2456    2.2731 H   0  0  0  0  0  0  0  0  0  0  0  0
   -2.3926   -1.4316    2.1420 H   0  0  0  0  0  0  0  0  0  0  0  0
   -4.6919   -1.9468    1.6741 H   0  0  0  0  0  0  0  0  0  0  0  0
   -2.5640    1.9822   -0.2906 H   0  0  0  0  0  0  0  0  0  0  0  0
   -6.5760   -1.5957    0.7118 H   0  0  0  0  0  0  0  0  0  0  0  0
   -7.2880    1.0554    1.2720 H   0  0  0  0  0  0  0  0  0  0  0  0
   -8.2140   -0.3868    1.4175 H   0  0  0  0  0  0  0  0  0  0  0  0
   -9.5852    0.3718   -0.1849 H   0  0  0  0  0  0  0  0  0  0  0  0
   -8.3722    1.5153   -0.7609 H   0  0  0  0  0  0  0  0  0  0  0  0
   -7.9863    0.1201   -2.5426 H   0  0  0  0  0  0  0  0  0  0  0  0
   -8.9824   -1.1176   -1.7764 H   0  0  0  0  0  0  0  0  0  0  0  0
   -7.1250   -2.2242   -1.2796 H   0  0  0  0  0  0  0  0  0  0  0  0
   -6.0674   -1.0995   -2.0404 H   0  0  0  0  0  0  0  0  0  0  0  0
  1  2  1  0
  2  3  2  0
  2  4  1  0
  4  5  1  0
  5  6  1  0
  6  7  1  0
  7  8  1  0
  8  9  1  0
  9 10  2  0
 10 11  1  0
 11 12  2  0
 12 13  1  0
 13 14  2  0
 14 15  1  0
 15 16  2  0
 15 17  1  0
 17 18  1  0
 18 19  1  0
 19 20  2  0
 20 21  1  0
 21 22  2  0
 22 23  1  0
 23 24  2  0
 23 25  1  0
 25 26  1  0
 25 27  1  0
 25 28  1  0
 22 29  1  0
 29 30  1  0
 30 31  1  0
 31 32  1  0
 32 33  1  0
  9  5  1  0
 16 11  1  0
 24 19  1  0
 33 29  1  0
 12  8  1  0
  1 34  1  0
  4 35  1  0
  4 36  1  0
  5 37  1  0
  6 38  1  0
  6 39  1  0
  7 40  1  0
  7 41  1  0
 10 42  1  0
 13 43  1  0
 14 44  1  0
 16 45  1  0
 18 46  1  0
 18 47  1  0
 20 48  1  0
 21 49  1  0
 24 50  1  0
 29 51  1  0
 30 52  1  0
 30 53  1  0
 31 54  1  0
 31 55  1  0
 32 56  1  0
 32 57  1  0
 33 58  1  0
 33 59  1  0
M  END
>  <Ligand ID>  (1) 
LIG0001353

>  <Ligand>  (1) 
CHEMBL3358955

>  <SMILES>  (1) 
OC(=O)CC1CCn2c1cc1c2ccc(c1)OCc1ccc(c(c1)C(F)(F)F)C1CCCC1

>  <CID>  (1) 
46174905.0

>  <ChEMBL ID>  (1) 
nan

>  <InChiKey>  (1) 
PESLCTHINYVCSC-UHFFFAOYSA-N

>  <InChi>  (1) 
InChI=1S/C26H26F3NO3/c27-26(28,29)22-11-16(5-7-21(22)17-3-1-2-4-17)15-33-20-6-8-23-19(12-20)13-24-18(14-25(31)32)9-10-30(23)24/h5-8,11-13,17-18H,1-4,9-10,14-15H2,(H,31,32)

>  <IUPAC Name>  (1) 
2-[6-[[4-cyclopentyl-3-(trifluoromethyl)phenyl]methoxy]-2,3-dihydro-1H-pyrrolo[1,2-a]indol-3-yl]acetic acid

$$$$
