
     RDKit          3D

 10 10  0  0  0  0  0  0  0  0999 V2000
    0.2236    1.1455   -0.0396 C   0  0  0  0  0  0  0  0  0  0  0  0
    1.1521    0.1255   -0.0256 C   0  0  0  0  0  0  0  0  0  0  0  0
    0.4998   -1.0897    0.0242 C   0  0  0  0  0  0  0  0  0  0  0  0
   -0.8649   -0.7830    0.0405 C   0  0  0  0  0  0  0  0  0  0  0  0
   -1.0035    0.5663    0.0014 N   0  0  0  0  0  0  0  0  0  0  0  0
    0.4026    2.2283   -0.0764 H   0  0  0  0  0  0  0  0  0  0  0  0
    2.2139    0.2776   -0.0503 H   0  0  0  0  0  0  0  0  0  0  0  0
    0.9395   -2.0774    0.0464 H   0  0  0  0  0  0  0  0  0  0  0  0
   -1.6680   -1.4852    0.0773 H   0  0  0  0  0  0  0  0  0  0  0  0
   -1.8952    1.0919    0.0020 H   0  0  0  0  0  0  0  0  0  0  0  0
  1  2  2  0
  2  3  1  0
  3  4  2  0
  4  5  1  0
  5  1  1  0
  1  6  1  0
  2  7  1  0
  3  8  1  0
  4  9  1  0
  5 10  1  0
M  END
>  <Ligand ID>  (1) 
LIG0000725

>  <Ligand>  (1) 
Pyrrole

>  <SMILES>  (1) 
c1ccc[nH]1

>  <CID>  (1) 
8027.0

>  <ChEMBL ID>  (1) 
nan

>  <InChiKey>  (1) 
KAESVJOAVNADME-UHFFFAOYSA-N

>  <InChi>  (1) 
InChI=1S/C4H5N/c1-2-4-5-3-1/h1-5H

>  <IUPAC Name>  (1) 
1H-pyrrole

$$$$
