
     RDKit          3D

 80 83  0  0  0  0  0  0  0  0999 V2000
   10.7350   -4.0246    0.8410 C   0  0  0  0  0  0  0  0  0  0  0  0
   10.6189   -2.7479    0.3006 O   0  0  0  0  0  0  0  0  0  0  0  0
   10.1767   -1.8456    1.1965 N   0  0  0  0  0  0  0  0  0  0  0  0
    9.2442   -0.8471    0.8122 C   0  0  0  0  0  0  0  0  0  0  0  0
    9.7493    0.3591    0.3351 C   0  0  0  0  0  0  0  0  0  0  0  0
    8.8387    1.3223   -0.0360 C   0  0  0  0  0  0  0  0  0  0  0  0
    7.4955    1.1328    0.0486 N   0  0  0  0  0  0  0  0  0  0  0  0
    7.0424   -0.0447    0.5141 C   0  0  0  0  0  0  0  0  0  0  0  0
    5.7834   -0.2001    0.5849 O   0  0  0  0  0  0  0  0  0  0  0  0
    7.9033   -1.0224    0.8912 N   0  0  0  0  0  0  0  0  0  0  0  0
    6.6588    2.2198   -0.3702 C   0  0  2  0  0  0  0  0  0  0  0  0
    5.4098    2.1170    0.2303 O   0  0  0  0  0  0  0  0  0  0  0  0
    4.5023    2.7287   -0.6197 C   0  0  1  0  0  0  0  0  0  0  0  0
    4.9359    2.1602   -1.9639 C   0  0  2  0  0  0  0  0  0  0  0  0
    6.4438    2.2924   -1.8449 C   0  0  1  0  0  0  0  0  0  0  0  0
    6.7611    3.5820   -2.2803 O   0  0  0  0  0  0  0  0  0  0  0  0
    4.4979    2.9303   -3.0364 O   0  0  0  0  0  0  0  0  0  0  0  0
    3.0863    2.2857   -0.3742 C   0  0  0  0  0  0  0  0  0  0  0  0
    2.6503    2.5587    0.9013 O   0  0  0  0  0  0  0  0  0  0  0  0
    1.0672    2.1324    1.2190 P   0  0  0  0  0  0  0  0  0  0  0  0
    0.1318    2.6393    0.1187 O   0  0  0  0  0  0  0  0  0  0  0  0
    0.8428    0.4360    1.2549 O   0  0  0  0  0  0  0  0  0  0  0  0
   -0.7868    0.1402    1.6356 P   0  0  0  0  0  0  0  0  0  0  0  0
   -1.6604    0.4837    0.4743 O   0  0  0  0  0  0  0  0  0  0  0  0
   -1.0719   -1.4442    2.0985 O   0  0  0  0  0  0  0  0  0  0  0  0
   -0.8905   -2.5643    0.8730 P   0  0  0  0  0  0  0  0  0  0  0  0
   -1.1662   -3.9363    1.4955 O   0  0  0  0  0  0  0  0  0  0  0  0
   -2.0016   -2.4011   -0.3799 O   0  0  0  0  0  0  0  0  0  0  0  0
   -3.3030   -2.5418    0.0326 C   0  0  0  0  0  0  0  0  0  0  0  0
   -4.2881   -2.4190   -1.1178 C   0  0  1  0  0  0  0  0  0  0  0  0
   -5.6068   -2.5550   -0.7299 O   0  0  0  0  0  0  0  0  0  0  0  0
   -6.2874   -1.4209   -1.1460 C   0  0  2  0  0  0  0  0  0  0  0  0
   -5.2512   -0.2943   -1.1208 C   0  0  1  0  0  0  0  0  0  0  0  0
   -4.0919   -1.0802   -1.7548 C   0  0  2  0  0  0  0  0  0  0  0  0
   -4.3557   -1.1931   -3.1355 O   0  0  0  0  0  0  0  0  0  0  0  0
   -5.6284    0.7934   -1.8660 O   0  0  0  0  0  0  0  0  0  0  0  0
   -7.4616   -1.1101   -0.3906 N   0  0  0  0  0  0  0  0  0  0  0  0
   -7.4754   -0.4336    0.7712 C   0  0  0  0  0  0  0  0  0  0  0  0
   -8.6759   -0.1754    1.4409 C   0  0  0  0  0  0  0  0  0  0  0  0
   -9.8732   -0.6140    0.9162 C   0  0  0  0  0  0  0  0  0  0  0  0
   -9.8209   -1.2872   -0.2471 N   0  0  0  0  0  0  0  0  0  0  0  0
   -8.6500   -1.5195   -0.8670 C   0  0  0  0  0  0  0  0  0  0  0  0
   -8.6990   -2.1556   -1.9478 O   0  0  0  0  0  0  0  0  0  0  0  0
  -11.1315   -0.3920    1.5335 N   0  0  0  0  0  0  0  0  0  0  0  0
  -11.8789    0.7192    1.2639 O   0  0  0  0  0  0  0  0  0  0  0  0
  -11.3780    1.4250    0.1859 C   0  0  0  0  0  0  0  0  0  0  0  0
    0.6892   -2.6358    0.2746 O   0  0  0  0  0  0  0  0  0  0  0  0
   -1.2741    1.1325    2.9389 O   0  0  0  0  0  0  0  0  0  0  0  0
    0.6196    2.8200    2.7064 O   0  0  0  0  0  0  0  0  0  0  0  0
   11.5302   -4.5562    0.2455 H   0  0  0  0  0  0  0  0  0  0  0  0
    9.7754   -4.5417    0.7473 H   0  0  0  0  0  0  0  0  0  0  0  0
   11.0037   -3.9400    1.9114 H   0  0  0  0  0  0  0  0  0  0  0  0
   10.5072   -1.8596    2.1892 H   0  0  0  0  0  0  0  0  0  0  0  0
   10.8189    0.5264    0.2618 H   0  0  0  0  0  0  0  0  0  0  0  0
    9.2470    2.2679   -0.4094 H   0  0  0  0  0  0  0  0  0  0  0  0
    7.1151    3.1669    0.0192 H   0  0  0  0  0  0  0  0  0  0  0  0
    4.5706    3.8134   -0.6806 H   0  0  0  0  0  0  0  0  0  0  0  0
    4.6667    1.0972   -2.0626 H   0  0  0  0  0  0  0  0  0  0  0  0
    6.9493    1.4972   -2.4274 H   0  0  0  0  0  0  0  0  0  0  0  0
    7.5509    3.9263   -1.7786 H   0  0  0  0  0  0  0  0  0  0  0  0
    3.9092    3.6462   -2.6589 H   0  0  0  0  0  0  0  0  0  0  0  0
    2.9759    1.1828   -0.5388 H   0  0  0  0  0  0  0  0  0  0  0  0
    2.4260    2.7541   -1.1269 H   0  0  0  0  0  0  0  0  0  0  0  0
   -3.5466   -1.8166    0.8424 H   0  0  0  0  0  0  0  0  0  0  0  0
   -3.4070   -3.5580    0.4944 H   0  0  0  0  0  0  0  0  0  0  0  0
   -4.0167   -3.2568   -1.8251 H   0  0  0  0  0  0  0  0  0  0  0  0
   -6.5476   -1.5615   -2.2265 H   0  0  0  0  0  0  0  0  0  0  0  0
   -4.9243   -0.0695   -0.0934 H   0  0  0  0  0  0  0  0  0  0  0  0
   -3.1212   -0.6166   -1.5765 H   0  0  0  0  0  0  0  0  0  0  0  0
   -4.8205   -2.0390   -3.3157 H   0  0  0  0  0  0  0  0  0  0  0  0
   -5.5958    1.5957   -1.2574 H   0  0  0  0  0  0  0  0  0  0  0  0
   -6.5348   -0.0927    1.1798 H   0  0  0  0  0  0  0  0  0  0  0  0
   -8.7108    0.3614    2.3669 H   0  0  0  0  0  0  0  0  0  0  0  0
  -11.5528   -1.0634    2.2258 H   0  0  0  0  0  0  0  0  0  0  0  0
  -11.1601    2.4563    0.5198 H   0  0  0  0  0  0  0  0  0  0  0  0
  -10.4147    1.0186   -0.1961 H   0  0  0  0  0  0  0  0  0  0  0  0
  -12.0956    1.3856   -0.6647 H   0  0  0  0  0  0  0  0  0  0  0  0
    0.6389   -2.8689   -0.6894 H   0  0  0  0  0  0  0  0  0  0  0  0
   -1.5721    2.0162    2.5622 H   0  0  0  0  0  0  0  0  0  0  0  0
    1.1598    3.6236    2.9178 H   0  0  0  0  0  0  0  0  0  0  0  0
  1  2  1  0
  2  3  1  0
  3  4  1  0
  4  5  1  0
  5  6  2  0
  6  7  1  0
  7  8  1  0
  8  9  2  0
  8 10  1  0
  7 11  1  0
 11 12  1  0
 12 13  1  0
 13 14  1  0
 14 15  1  0
 15 16  1  0
 14 17  1  0
 13 18  1  0
 18 19  1  0
 19 20  1  0
 20 21  2  0
 20 22  1  0
 22 23  1  0
 23 24  2  0
 23 25  1  0
 25 26  1  0
 26 27  2  0
 26 28  1  0
 28 29  1  0
 29 30  1  0
 30 31  1  0
 31 32  1  0
 32 33  1  0
 33 34  1  0
 34 35  1  0
 33 36  1  0
 32 37  1  0
 37 38  1  0
 38 39  2  0
 39 40  1  0
 40 41  2  0
 41 42  1  0
 42 43  2  0
 40 44  1  0
 44 45  1  0
 45 46  1  0
 26 47  1  0
 23 48  1  0
 20 49  1  0
 10  4  2  0
 15 11  1  0
 34 30  1  0
 42 37  1  0
  1 50  1  0
  1 51  1  0
  1 52  1  0
  3 53  1  0
  5 54  1  0
  6 55  1  0
 11 56  1  1
 13 57  1  6
 14 58  1  6
 15 59  1  6
 16 60  1  0
 17 61  1  0
 18 62  1  0
 18 63  1  0
 29 64  1  0
 29 65  1  0
 30 66  1  6
 32 67  1  6
 33 68  1  1
 34 69  1  6
 35 70  1  0
 36 71  1  0
 38 72  1  0
 39 73  1  0
 44 74  1  0
 46 75  1  0
 46 76  1  0
 46 77  1  0
 47 78  1  0
 48 79  1  0
 49 80  1  0
M  END
>  <Ligand ID>  (1) 
LIG0004907

>  <Ligand>  (1) 
CHEMBL1083257

>  <SMILES>  (1) 
CONc1ccn(c(=O)n1)[C@@H]1O[C@@H]([C@H]([C@H]1O)O)COP(=O)(OP(=O)(OP(=O)(OC[C@H]1O[C@H]([C@@H]([C@@H]1O)O)n1ccc(nc1=O)NOC)O)O)O

>  <CID>  (1) 
46830492.0

>  <ChEMBL ID>  (1) 
nan

>  <InChiKey>  (1) 
VRDDLMOUKGBIFO-ZNYGVHBGSA-N

>  <InChi>  (1) 
InChI=1S/C20H31N6O20P3/c1-39-23-11-3-5-25(19(31)21-11)17-15(29)13(27)9(43-17)7-41-47(33,34)45-49(37,38)46-48(35,36)42-8-10-14(28)16(30)18(44-10)26-6-4-12(24-40-2)22-20(26)32/h3-6,9-10,13-18,27-30H,7-8H2,1-2H3,(H,33,34)(H,35,36)(H,37,38)(H,21,23,31)(H,22,24,32)/t9-,10-,13-,14-,15-,16-,17-,18-/m1/s1

>  <IUPAC Name>  (1) 
bis[[(2R,3S,4R,5R)-3,4-dihydroxy-5-[4-(methoxyamino)-2-oxopyrimidin-1-yl]oxolan-2-yl]methoxy-hydroxyphosphoryl] hydrogen phosphate

$$$$
