
     RDKit          3D

100104  0  0  0  0  0  0  0  0999 V2000
   -3.1649    6.6708    2.7699 N   0  0  0  0  0  0  0  0  0  0  0  0
   -1.7456    6.7623    2.6880 C   0  0  0  0  0  0  0  0  0  0  0  0
   -0.9813    5.7421    2.4851 N   0  0  0  0  0  0  0  0  0  0  0  0
   -1.6192    4.4496    2.3367 C   0  0  0  0  0  0  0  0  0  0  0  0
   -2.3011    4.3141    0.9827 C   0  0  0  0  0  0  0  0  0  0  0  0
   -2.9646    2.9597    0.8475 C   0  0  0  0  0  0  0  0  0  0  0  0
   -2.0200    1.8051    0.9612 C   0  0  1  0  0  0  0  0  0  0  0  0
   -2.7975    0.5213    0.8107 C   0  0  0  0  0  0  0  0  0  0  0  0
   -3.7618    0.2740    1.5783 O   0  0  0  0  0  0  0  0  0  0  0  0
   -2.4851   -0.4451   -0.1748 N   0  0  0  0  0  0  0  0  0  0  0  0
   -3.2424   -1.6893   -0.3015 C   0  0  2  0  0  0  0  0  0  0  0  0
   -2.2497   -2.7782   -0.1283 C   0  0  0  0  0  0  0  0  0  0  0  0
   -1.0420   -2.4107    0.0624 O   0  0  0  0  0  0  0  0  0  0  0  0
   -2.5696   -4.1570   -0.1632 N   0  0  0  0  0  0  0  0  0  0  0  0
   -3.8438   -1.7792   -1.6699 C   0  0  0  0  0  0  0  0  0  0  0  0
   -4.6103   -3.0699   -1.7536 C   0  0  0  0  0  0  0  0  0  0  0  0
   -4.2325   -4.2340   -2.4139 C   0  0  0  0  0  0  0  0  0  0  0  0
   -5.1925   -5.1430   -2.2457 N   0  0  0  0  0  0  0  0  0  0  0  0
   -6.1934   -4.6466   -1.5066 C   0  0  0  0  0  0  0  0  0  0  0  0
   -5.8410   -3.3428   -1.1894 C   0  0  0  0  0  0  0  0  0  0  0  0
   -6.6614   -2.5308   -0.4249 C   0  0  0  0  0  0  0  0  0  0  0  0
   -7.8533   -3.0843    0.0090 C   0  0  0  0  0  0  0  0  0  0  0  0
   -8.2263   -4.3797   -0.2936 C   0  0  0  0  0  0  0  0  0  0  0  0
   -7.3856   -5.1650   -1.0588 C   0  0  0  0  0  0  0  0  0  0  0  0
   -0.9916    1.9327   -0.0746 N   0  0  0  0  0  0  0  0  0  0  0  0
    0.2600    1.3847    0.1908 C   0  0  0  0  0  0  0  0  0  0  0  0
    0.3716    0.7953    1.3421 O   0  0  0  0  0  0  0  0  0  0  0  0
    1.4630    1.3770   -0.6281 C   0  0  1  0  0  0  0  0  0  0  0  0
    2.5301    0.6150    0.0754 N   0  0  0  0  0  0  0  0  0  0  0  0
    3.5763    1.2202    0.7709 C   0  0  0  0  0  0  0  0  0  0  0  0
    3.7598    2.4560    0.9013 O   0  0  0  0  0  0  0  0  0  0  0  0
    4.5752    0.2910    1.4271 C   0  0  1  0  0  0  0  0  0  0  0  0
    4.2950   -1.0766    1.1071 N   0  0  0  0  0  0  0  0  0  0  0  0
    3.9660   -2.0916    2.0346 C   0  0  0  0  0  0  0  0  0  0  0  0
    3.9153   -1.7678    3.2442 O   0  0  0  0  0  0  0  0  0  0  0  0
    3.6935   -3.4812    1.5833 C   0  0  0  0  0  0  0  0  0  0  0  0
    3.7651   -3.8888    0.3368 C   0  0  0  0  0  0  0  0  0  0  0  0
    3.4848   -5.2087    0.0172 C   0  0  0  0  0  0  0  0  0  0  0  0
    3.0723   -5.9841    1.6293 S   0  0  0  0  0  0  0  0  0  0  0  0
    3.3238   -4.4266    2.5839 C   0  0  0  0  0  0  0  0  0  0  0  0
    5.9367    0.7111    0.9296 C   0  0  0  0  0  0  0  0  0  0  0  0
    7.0185   -0.1405    1.5093 C   0  0  0  0  0  0  0  0  0  0  0  0
    7.4125   -1.2878    0.8296 C   0  0  0  0  0  0  0  0  0  0  0  0
    8.4034   -2.1069    1.3210 C   0  0  0  0  0  0  0  0  0  0  0  0
    9.0191   -1.7722    2.5250 C   0  0  0  0  0  0  0  0  0  0  0  0
    8.6487   -0.6287    3.2329 C   0  0  0  0  0  0  0  0  0  0  0  0
    7.6393    0.1839    2.7093 C   0  0  0  0  0  0  0  0  0  0  0  0
   10.2957   -2.8198    3.1642 Cl  0  0  0  0  0  0  0  0  0  0  0  0
    1.4446    0.8971   -2.0139 C   0  0  0  0  0  0  0  0  0  0  0  0
    0.5822    1.5810   -2.9874 C   0  0  0  0  0  0  0  0  0  0  0  0
    1.0795    2.7569   -3.5709 C   0  0  0  0  0  0  0  0  0  0  0  0
    0.3521    3.4417   -4.5183 C   0  0  0  0  0  0  0  0  0  0  0  0
   -0.8948    3.0019   -4.9349 C   0  0  0  0  0  0  0  0  0  0  0  0
   -1.4021    1.8422   -4.3702 C   0  0  0  0  0  0  0  0  0  0  0  0
   -0.6477    1.1670   -3.4136 C   0  0  0  0  0  0  0  0  0  0  0  0
   -1.0970    8.0238    2.8337 N   0  0  0  0  0  0  0  0  0  0  0  0
   -3.6645    6.1003    3.4843 H   0  0  0  0  0  0  0  0  0  0  0  0
   -3.7385    7.2108    2.0671 H   0  0  0  0  0  0  0  0  0  0  0  0
   -2.2962    4.2363    3.1644 H   0  0  0  0  0  0  0  0  0  0  0  0
   -0.7757    3.7031    2.3095 H   0  0  0  0  0  0  0  0  0  0  0  0
   -3.1163    5.0711    0.9773 H   0  0  0  0  0  0  0  0  0  0  0  0
   -1.6143    4.5542    0.1689 H   0  0  0  0  0  0  0  0  0  0  0  0
   -3.7627    2.9273    1.6456 H   0  0  0  0  0  0  0  0  0  0  0  0
   -3.5426    2.9522   -0.0988 H   0  0  0  0  0  0  0  0  0  0  0  0
   -1.5398    1.6953    1.9642 H   0  0  0  0  0  0  0  0  0  0  0  0
   -1.6884   -0.2366   -0.8052 H   0  0  0  0  0  0  0  0  0  0  0  0
   -4.0269   -1.7307    0.4893 H   0  0  0  0  0  0  0  0  0  0  0  0
   -1.9892   -4.8602   -0.6763 H   0  0  0  0  0  0  0  0  0  0  0  0
   -3.4414   -4.4394    0.3675 H   0  0  0  0  0  0  0  0  0  0  0  0
   -4.4753   -0.9035   -1.9179 H   0  0  0  0  0  0  0  0  0  0  0  0
   -3.0226   -1.8040   -2.4168 H   0  0  0  0  0  0  0  0  0  0  0  0
   -3.3129   -4.3652   -2.9660 H   0  0  0  0  0  0  0  0  0  0  0  0
   -5.1555   -6.1170   -2.6460 H   0  0  0  0  0  0  0  0  0  0  0  0
   -6.3992   -1.5049   -0.1670 H   0  0  0  0  0  0  0  0  0  0  0  0
   -8.4892   -2.4615    0.5990 H   0  0  0  0  0  0  0  0  0  0  0  0
   -9.1664   -4.8007    0.0544 H   0  0  0  0  0  0  0  0  0  0  0  0
   -7.6434   -6.1968   -1.3215 H   0  0  0  0  0  0  0  0  0  0  0  0
   -1.1487    2.4166   -0.9755 H   0  0  0  0  0  0  0  0  0  0  0  0
    1.7971    2.4700   -0.6557 H   0  0  0  0  0  0  0  0  0  0  0  0
    2.4444   -0.4309    0.0137 H   0  0  0  0  0  0  0  0  0  0  0  0
    4.5161    0.4136    2.5384 H   0  0  0  0  0  0  0  0  0  0  0  0
    4.3417   -1.3369    0.0840 H   0  0  0  0  0  0  0  0  0  0  0  0
    4.0485   -3.2202   -0.5170 H   0  0  0  0  0  0  0  0  0  0  0  0
    3.4838   -5.7401   -0.9201 H   0  0  0  0  0  0  0  0  0  0  0  0
    3.2072   -4.3278    3.6082 H   0  0  0  0  0  0  0  0  0  0  0  0
    6.0115    0.6043   -0.1720 H   0  0  0  0  0  0  0  0  0  0  0  0
    6.1397    1.7890    1.1548 H   0  0  0  0  0  0  0  0  0  0  0  0
    6.9206   -1.5361   -0.1123 H   0  0  0  0  0  0  0  0  0  0  0  0
    8.7414   -3.0111    0.8217 H   0  0  0  0  0  0  0  0  0  0  0  0
    9.1162   -0.3522    4.1723 H   0  0  0  0  0  0  0  0  0  0  0  0
    7.3380    1.0836    3.2538 H   0  0  0  0  0  0  0  0  0  0  0  0
    1.3045   -0.2349   -2.0797 H   0  0  0  0  0  0  0  0  0  0  0  0
    2.4922    0.9845   -2.4633 H   0  0  0  0  0  0  0  0  0  0  0  0
    2.0584    3.1466   -3.2780 H   0  0  0  0  0  0  0  0  0  0  0  0
    0.8114    4.3505   -4.9258 H   0  0  0  0  0  0  0  0  0  0  0  0
   -1.4525    3.5685   -5.6912 H   0  0  0  0  0  0  0  0  0  0  0  0
   -2.3775    1.4877   -4.6869 H   0  0  0  0  0  0  0  0  0  0  0  0
   -1.0826    0.2694   -3.0118 H   0  0  0  0  0  0  0  0  0  0  0  0
   -0.7389    8.2546    3.8026 H   0  0  0  0  0  0  0  0  0  0  0  0
   -0.9774    8.6805    2.0509 H   0  0  0  0  0  0  0  0  0  0  0  0
  1  2  1  0
  2  3  2  3
  3  4  1  0
  4  5  1  0
  5  6  1  0
  6  7  1  0
  7  8  1  0
  8  9  2  0
  8 10  1  0
 10 11  1  0
 11 12  1  0
 12 13  2  0
 12 14  1  0
 11 15  1  0
 15 16  1  0
 16 17  2  0
 17 18  1  0
 18 19  1  0
 19 20  2  0
 20 21  1  0
 21 22  2  0
 22 23  1  0
 23 24  2  0
  7 25  1  0
 25 26  1  0
 26 27  2  0
 26 28  1  0
 28 29  1  0
 29 30  1  0
 30 31  2  0
 30 32  1  0
 32 33  1  0
 33 34  1  0
 34 35  2  0
 34 36  1  0
 36 37  1  0
 37 38  2  0
 38 39  1  0
 39 40  1  0
 32 41  1  0
 41 42  1  0
 42 43  2  0
 43 44  1  0
 44 45  2  0
 45 46  1  0
 46 47  2  0
 45 48  1  0
 28 49  1  0
 49 50  1  0
 50 51  2  0
 51 52  1  0
 52 53  2  0
 53 54  1  0
 54 55  2  0
  2 56  1  0
 20 16  1  0
 40 36  2  0
 47 42  1  0
 55 50  1  0
 24 19  1  0
  1 57  1  0
  1 58  1  0
  4 59  1  0
  4 60  1  0
  5 61  1  0
  5 62  1  0
  6 63  1  0
  6 64  1  0
  7 65  1  1
 10 66  1  0
 11 67  1  1
 14 68  1  0
 14 69  1  0
 15 70  1  0
 15 71  1  0
 17 72  1  0
 18 73  1  0
 21 74  1  0
 22 75  1  0
 23 76  1  0
 24 77  1  0
 25 78  1  0
 28 79  1  6
 29 80  1  0
 32 81  1  1
 33 82  1  0
 37 83  1  0
 38 84  1  0
 40 85  1  0
 41 86  1  0
 41 87  1  0
 43 88  1  0
 44 89  1  0
 46 90  1  0
 47 91  1  0
 49 92  1  0
 49 93  1  0
 51 94  1  0
 52 95  1  0
 53 96  1  0
 54 97  1  0
 55 98  1  0
 56 99  1  0
 56100  1  0
M  END
>  <Ligand ID>  (1) 
LIG0002624

>  <Ligand>  (1) 
CHEMBL361579

>  <SMILES>  (1) 
NC(=NCCC[C@@H](C(=O)N[C@H](C(=O)N)Cc1c[nH]c2c1cccc2)NC(=O)[C@@H](NC(=O)[C@@H](NC(=O)c1ccsc1)Cc1ccc(cc1)Cl)Cc1ccccc1)N

>  <CID>  (1) 
44394736.0

>  <ChEMBL ID>  (1) 
nan

>  <InChiKey>  (1) 
IXRGJOJDSANGGJ-CUPIEXAXSA-N

>  <InChi>  (1) 
InChI=1S/C40H44ClN9O5S/c41-28-14-12-25(13-15-28)20-33(49-36(52)26-16-18-56-23-26)39(55)50-34(19-24-7-2-1-3-8-24)38(54)47-31(11-6-17-45-40(43)44)37(53)48-32(35(42)51)21-27-22-46-30-10-5-4-9-29(27)30/h1-5,7-10,12-16,18,22-23,31-34,46H,6,11,17,19-21H2,(H2,42,51)(H,47,54)(H,48,53)(H,49,52)(H,50,55)(H4,43,44,45)/t31-,32-,33-,34-/m0/s1

>  <IUPAC Name>  (1) 
N-[(2S)-1-[[(2S)-1-[[(2S)-1-[[(2S)-1-amino-3-(1H-indol-3-yl)-1-oxopropan-2-yl]amino]-5-(diaminomethylideneamino)-1-oxopentan-2-yl]amino]-1-oxo-3-phenylpropan-2-yl]amino]-3-(4-chlorophenyl)-1-oxopropan-2-yl]thiophene-3-carboxamide

$$$$
