
     RDKit          3D

 20 20  0  0  0  0  0  0  0  0999 V2000
    3.4120    0.0782   -0.0275 C   0  0  0  0  0  0  0  0  0  0  0  0
    2.2476    0.5489    0.5736 O   0  0  0  0  0  0  0  0  0  0  0  0
    0.9537    0.2094    0.2462 C   0  0  0  0  0  0  0  0  0  0  0  0
    0.6172   -0.6766   -0.7594 C   0  0  0  0  0  0  0  0  0  0  0  0
   -0.7250   -0.9241   -0.9781 C   0  0  0  0  0  0  0  0  0  0  0  0
   -1.7306   -0.3310   -0.2436 C   0  0  0  0  0  0  0  0  0  0  0  0
   -1.3907    0.5587    0.7661 C   0  0  0  0  0  0  0  0  0  0  0  0
   -0.0539    0.8201    1.0011 C   0  0  0  0  0  0  0  0  0  0  0  0
    0.2671    1.7152    2.0180 O   0  0  0  0  0  0  0  0  0  0  0  0
   -3.1554   -0.6198   -0.5058 C   0  0  0  0  0  0  0  0  0  0  0  0
    4.2276    0.8545    0.0464 H   0  0  0  0  0  0  0  0  0  0  0  0
    3.2185   -0.1153   -1.0887 H   0  0  0  0  0  0  0  0  0  0  0  0
    3.7526   -0.8198    0.5358 H   0  0  0  0  0  0  0  0  0  0  0  0
    1.4125   -1.1344   -1.3273 H   0  0  0  0  0  0  0  0  0  0  0  0
   -0.9931   -1.6240   -1.7724 H   0  0  0  0  0  0  0  0  0  0  0  0
   -2.1948    1.0159    1.3338 H   0  0  0  0  0  0  0  0  0  0  0  0
    0.7727    2.5700    1.8156 H   0  0  0  0  0  0  0  0  0  0  0  0
   -3.3278   -1.6804   -0.7871 H   0  0  0  0  0  0  0  0  0  0  0  0
   -3.5953    0.0009   -1.3056 H   0  0  0  0  0  0  0  0  0  0  0  0
   -3.7148   -0.4464    0.4591 H   0  0  0  0  0  0  0  0  0  0  0  0
  1  2  1  0
  2  3  1  0
  3  4  2  0
  4  5  1  0
  5  6  2  0
  6  7  1  0
  7  8  2  0
  8  9  1  0
  6 10  1  0
  8  3  1  0
  1 11  1  0
  1 12  1  0
  1 13  1  0
  4 14  1  0
  5 15  1  0
  7 16  1  0
  9 17  1  0
 10 18  1  0
 10 19  1  0
 10 20  1  0
M  END
>  <Ligand ID>  (1) 
LIG0000474

>  <Ligand>  (1) 
2-Methoxy-5-methylphenol

>  <SMILES>  (1) 
COc1ccc(cc1O)C

>  <CID>  (1) 
14519.0

>  <ChEMBL ID>  (1) 
nan

>  <InChiKey>  (1) 
IFNDEOYXGHGERA-UHFFFAOYSA-N

>  <InChi>  (1) 
InChI=1S/C8H10O2/c1-6-3-4-8(10-2)7(9)5-6/h3-5,9H,1-2H3

>  <IUPAC Name>  (1) 
2-methoxy-5-methylphenol

$$$$
