
     RDKit          3D

 52 55  0  0  0  0  0  0  0  0999 V2000
    0.9978   -3.3243    1.4611 O   0  0  0  0  0  0  0  0  0  0  0  0
    1.1946   -2.1759    0.9679 C   0  0  0  0  0  0  0  0  0  0  0  0
    0.1923   -1.1881    0.9884 N   0  0  0  0  0  0  0  0  0  0  0  0
   -1.1377   -1.4162    1.5765 C   0  0  2  0  0  0  0  0  0  0  0  0
   -2.2172   -1.4140    0.5884 C   0  0  0  0  0  0  0  0  0  0  0  0
   -2.0301   -1.8882   -0.6824 N   0  0  0  0  0  0  0  0  0  0  0  0
   -3.1821   -1.7863   -1.3597 C   0  0  0  0  0  0  0  0  0  0  0  0
   -4.1291   -1.2413   -0.5242 C   0  0  0  0  0  0  0  0  0  0  0  0
   -3.4988   -1.0325    0.6459 N   0  0  0  0  0  0  0  0  0  0  0  0
   -5.4016   -1.0449   -1.0198 C   0  0  0  0  0  0  0  0  0  0  0  0
   -5.6848   -1.4016   -2.3395 C   0  0  0  0  0  0  0  0  0  0  0  0
   -4.7192   -1.9496   -3.1682 C   0  0  0  0  0  0  0  0  0  0  0  0
   -3.4496   -2.1415   -2.6613 C   0  0  0  0  0  0  0  0  0  0  0  0
   -1.3418   -0.5832    2.7914 C   0  0  0  0  0  0  0  0  0  0  0  0
   -1.2223    0.8697    2.6050 C   0  0  0  0  0  0  0  0  0  0  0  0
    0.0632    1.4118    2.7142 C   0  0  0  0  0  0  0  0  0  0  0  0
    0.2740    2.7665    2.5652 C   0  0  0  0  0  0  0  0  0  0  0  0
   -0.7488    3.6395    2.3063 C   0  0  0  0  0  0  0  0  0  0  0  0
   -2.0234    3.1152    2.1965 C   0  0  0  0  0  0  0  0  0  0  0  0
   -2.2314    1.7498    2.3475 C   0  0  0  0  0  0  0  0  0  0  0  0
    2.4989   -1.8309    0.3470 C   0  0  0  0  0  0  0  0  0  0  0  0
    2.5434   -0.5141   -0.1498 O   0  0  0  0  0  0  0  0  0  0  0  0
    3.6967   -0.0497   -0.7569 C   0  0  0  0  0  0  0  0  0  0  0  0
    4.8379   -0.7959   -0.9182 C   0  0  0  0  0  0  0  0  0  0  0  0
    5.9543   -0.2684   -1.5343 C   0  0  0  0  0  0  0  0  0  0  0  0
    5.9697    1.0326   -2.0143 C   0  0  0  0  0  0  0  0  0  0  0  0
    4.8256    1.7932   -1.8571 C   0  0  0  0  0  0  0  0  0  0  0  0
    3.6964    1.2633   -1.2353 C   0  0  0  0  0  0  0  0  0  0  0  0
    2.4562    2.0907   -1.0659 C   0  0  0  0  0  0  0  0  0  0  0  0
    7.3898    1.7041   -2.7981 Cl  0  0  0  0  0  0  0  0  0  0  0  0
    0.3471   -0.2321    0.5812 H   0  0  0  0  0  0  0  0  0  0  0  0
   -1.0645   -2.4898    1.9400 H   0  0  0  0  0  0  0  0  0  0  0  0
   -3.9630   -0.6398    1.4699 H   0  0  0  0  0  0  0  0  0  0  0  0
   -6.1539   -0.6153   -0.3662 H   0  0  0  0  0  0  0  0  0  0  0  0
   -6.6856   -1.2455   -2.7244 H   0  0  0  0  0  0  0  0  0  0  0  0
   -4.9131   -2.2340   -4.1931 H   0  0  0  0  0  0  0  0  0  0  0  0
   -2.6914   -2.5688   -3.3030 H   0  0  0  0  0  0  0  0  0  0  0  0
   -2.3646   -0.8588    3.1895 H   0  0  0  0  0  0  0  0  0  0  0  0
   -0.6607   -0.9416    3.6186 H   0  0  0  0  0  0  0  0  0  0  0  0
    0.9231    0.7859    2.9175 H   0  0  0  0  0  0  0  0  0  0  0  0
    1.2763    3.1897    2.6502 H   0  0  0  0  0  0  0  0  0  0  0  0
   -0.5505    4.6831    2.1964 H   0  0  0  0  0  0  0  0  0  0  0  0
   -2.8539    3.7772    1.9925 H   0  0  0  0  0  0  0  0  0  0  0  0
   -3.2473    1.4145    2.2568 H   0  0  0  0  0  0  0  0  0  0  0  0
    3.2669   -1.9065    1.1446 H   0  0  0  0  0  0  0  0  0  0  0  0
    2.7743   -2.5838   -0.4164 H   0  0  0  0  0  0  0  0  0  0  0  0
    4.8582   -1.7956   -0.5616 H   0  0  0  0  0  0  0  0  0  0  0  0
    6.8570   -0.8519   -1.6643 H   0  0  0  0  0  0  0  0  0  0  0  0
    4.8019    2.8223   -2.2232 H   0  0  0  0  0  0  0  0  0  0  0  0
    1.6182    1.6632   -1.6792 H   0  0  0  0  0  0  0  0  0  0  0  0
    2.7057    3.1243   -1.3681 H   0  0  0  0  0  0  0  0  0  0  0  0
    2.1470    2.1136   -0.0147 H   0  0  0  0  0  0  0  0  0  0  0  0
  1  2  2  0
  2  3  1  0
  3  4  1  0
  4  5  1  0
  5  6  2  0
  6  7  1  0
  7  8  2  0
  8  9  1  0
  8 10  1  0
 10 11  2  0
 11 12  1  0
 12 13  2  0
  4 14  1  0
 14 15  1  0
 15 16  2  0
 16 17  1  0
 17 18  2  0
 18 19  1  0
 19 20  2  0
  2 21  1  0
 21 22  1  0
 22 23  1  0
 23 24  2  0
 24 25  1  0
 25 26  2  0
 26 27  1  0
 27 28  2  0
 28 29  1  0
 26 30  1  0
  9  5  1  0
 20 15  1  0
 28 23  1  0
 13  7  1  0
  3 31  1  0
  4 32  1  1
  9 33  1  0
 10 34  1  0
 11 35  1  0
 12 36  1  0
 13 37  1  0
 14 38  1  0
 14 39  1  0
 16 40  1  0
 17 41  1  0
 18 42  1  0
 19 43  1  0
 20 44  1  0
 21 45  1  0
 21 46  1  0
 24 47  1  0
 25 48  1  0
 27 49  1  0
 29 50  1  0
 29 51  1  0
 29 52  1  0
M  END
>  <Ligand ID>  (1) 
LIG0003627

>  <Ligand>  (1) 
MLS000333952

>  <SMILES>  (1) 
O=C(N[C@H](c1nc2c([nH]1)cccc2)Cc1ccccc1)COc1ccc(cc1C)Cl

>  <CID>  (1) 
2103800.0

>  <ChEMBL ID>  (1) 
nan

>  <InChiKey>  (1) 
UONPIBNFNBROTL-NRFANRHFSA-N

>  <InChi>  (1) 
InChI=1S/C24H22ClN3O2/c1-16-13-18(25)11-12-22(16)30-15-23(29)26-21(14-17-7-3-2-4-8-17)24-27-19-9-5-6-10-20(19)28-24/h2-13,21H,14-15H2,1H3,(H,26,29)(H,27,28)/t21-/m0/s1

>  <IUPAC Name>  (1) 
N-[(1S)-1-(1H-benzimidazol-2-yl)-2-phenylethyl]-2-(4-chloro-2-methylphenoxy)acetamide

$$$$
