
     RDKit          3D

 57 60  0  0  0  0  0  0  0  0999 V2000
   -6.1744   -2.2231   -0.2215 O   0  0  0  0  0  0  0  0  0  0  0  0
   -7.5131   -2.1244   -0.5217 C   0  0  0  0  0  0  0  0  0  0  0  0
   -8.0697   -0.7450   -0.2777 C   0  0  0  0  0  0  0  0  0  0  0  0
   -7.2334    0.4411   -1.2389 S   0  0  0  0  0  0  0  0  0  0  0  0
   -7.9733    1.7762   -1.2676 O   0  0  0  0  0  0  0  0  0  0  0  0
   -7.3406   -0.0309   -2.6899 O   0  0  0  0  0  0  0  0  0  0  0  0
   -5.5889    0.6241   -0.9262 N   0  0  0  0  0  0  0  0  0  0  0  0
   -5.2033    1.0624    0.3777 C   0  0  2  0  0  0  0  0  0  0  0  0
   -4.4189    2.3779    0.3046 C   0  0  0  0  0  0  0  0  0  0  0  0
   -3.1918    1.8786   -0.4375 C   0  0  0  0  0  0  0  0  0  0  0  0
   -2.8947    0.6625    0.4081 C   0  0  0  0  0  0  0  0  0  0  0  0
   -4.1281    0.1938    0.8965 C   0  0  0  0  0  0  0  0  0  0  0  0
   -4.0359   -0.9188    1.7124 C   0  0  0  0  0  0  0  0  0  0  0  0
   -2.8516   -1.5353    2.0350 C   0  0  0  0  0  0  0  0  0  0  0  0
   -1.6682   -1.0593    1.5460 C   0  0  0  0  0  0  0  0  0  0  0  0
   -1.7069    0.0481    0.7282 C   0  0  0  0  0  0  0  0  0  0  0  0
   -0.4495    0.5683    0.1967 C   0  0  0  0  0  0  0  0  0  0  0  0
   -0.2317    1.6206   -0.6123 N   0  0  0  0  0  0  0  0  0  0  0  0
    1.0371    1.7471   -0.8518 O   0  0  0  0  0  0  0  0  0  0  0  0
    1.6983    0.8039   -0.2246 C   0  0  0  0  0  0  0  0  0  0  0  0
    0.7937    0.0643    0.4300 N   0  0  0  0  0  0  0  0  0  0  0  0
    3.1388    0.6331   -0.2621 C   0  0  0  0  0  0  0  0  0  0  0  0
    3.9235    1.4942   -0.9936 C   0  0  0  0  0  0  0  0  0  0  0  0
    5.2689    1.3551   -1.0439 C   0  0  0  0  0  0  0  0  0  0  0  0
    5.9746    0.3308   -0.3614 C   0  0  0  0  0  0  0  0  0  0  0  0
    5.1765   -0.5197    0.3637 C   0  0  0  0  0  0  0  0  0  0  0  0
    3.7810   -0.3741    0.4150 C   0  0  0  0  0  0  0  0  0  0  0  0
    5.7152   -1.5955    1.1037 C   0  0  0  0  0  0  0  0  0  0  0  0
    6.1356   -2.4774    1.7127 N   0  0  0  0  0  0  0  0  0  0  0  0
    7.2934    0.3283   -0.5105 O   0  0  0  0  0  0  0  0  0  0  0  0
    8.3330   -0.3930   -0.0920 C   0  0  0  0  0  0  0  0  0  0  0  0
    9.1549   -1.0046   -1.2382 C   0  0  0  0  0  0  0  0  0  0  0  0
    9.3450    0.4561    0.7296 C   0  0  0  0  0  0  0  0  0  0  0  0
   -5.8682   -3.0987    0.0678 H   0  0  0  0  0  0  0  0  0  0  0  0
   -8.1243   -2.8730    0.0490 H   0  0  0  0  0  0  0  0  0  0  0  0
   -7.6953   -2.3929   -1.6057 H   0  0  0  0  0  0  0  0  0  0  0  0
   -9.1324   -0.7890   -0.6586 H   0  0  0  0  0  0  0  0  0  0  0  0
   -8.0894   -0.5236    0.8088 H   0  0  0  0  0  0  0  0  0  0  0  0
   -4.9597   -0.0303   -1.3992 H   0  0  0  0  0  0  0  0  0  0  0  0
   -6.0609    1.1804    1.0551 H   0  0  0  0  0  0  0  0  0  0  0  0
   -4.1254    2.6144    1.3433 H   0  0  0  0  0  0  0  0  0  0  0  0
   -4.9490    3.1899   -0.1665 H   0  0  0  0  0  0  0  0  0  0  0  0
   -3.5296    1.5205   -1.4271 H   0  0  0  0  0  0  0  0  0  0  0  0
   -2.3811    2.6052   -0.4446 H   0  0  0  0  0  0  0  0  0  0  0  0
   -4.9470   -1.3291    2.1215 H   0  0  0  0  0  0  0  0  0  0  0  0
   -2.8473   -2.4114    2.6854 H   0  0  0  0  0  0  0  0  0  0  0  0
   -0.7611   -1.5758    1.8256 H   0  0  0  0  0  0  0  0  0  0  0  0
    3.4236    2.2848   -1.5255 H   0  0  0  0  0  0  0  0  0  0  0  0
    5.8266    2.0737   -1.6433 H   0  0  0  0  0  0  0  0  0  0  0  0
    3.1588   -1.0481    0.9884 H   0  0  0  0  0  0  0  0  0  0  0  0
    8.1120   -1.2393    0.5643 H   0  0  0  0  0  0  0  0  0  0  0  0
    9.2469   -0.2879   -2.0780 H   0  0  0  0  0  0  0  0  0  0  0  0
    8.7036   -1.9717   -1.5138 H   0  0  0  0  0  0  0  0  0  0  0  0
   10.1504   -1.2287   -0.8103 H   0  0  0  0  0  0  0  0  0  0  0  0
   10.0574   -0.2544    1.1625 H   0  0  0  0  0  0  0  0  0  0  0  0
    9.8900    1.1175    0.0101 H   0  0  0  0  0  0  0  0  0  0  0  0
    8.8061    1.0022    1.5168 H   0  0  0  0  0  0  0  0  0  0  0  0
  1  2  1  0
  2  3  1  0
  3  4  1  0
  4  5  2  0
  4  6  2  0
  4  7  1  0
  7  8  1  0
  8  9  1  0
  9 10  1  0
 10 11  1  0
 11 12  2  0
 12 13  1  0
 13 14  2  0
 14 15  1  0
 15 16  2  0
 16 17  1  0
 17 18  2  0
 18 19  1  0
 19 20  1  0
 20 21  2  0
 20 22  1  0
 22 23  2  0
 23 24  1  0
 24 25  2  0
 25 26  1  0
 26 27  2  0
 26 28  1  0
 28 29  3  0
 25 30  1  0
 30 31  1  0
 31 32  1  0
 31 33  1  0
 12  8  1  0
 21 17  1  0
 27 22  1  0
 16 11  1  0
  1 34  1  0
  2 35  1  0
  2 36  1  0
  3 37  1  0
  3 38  1  0
  7 39  1  0
  8 40  1  1
  9 41  1  0
  9 42  1  0
 10 43  1  0
 10 44  1  0
 13 45  1  0
 14 46  1  0
 15 47  1  0
 23 48  1  0
 24 49  1  0
 27 50  1  0
 31 51  1  0
 32 52  1  0
 32 53  1  0
 32 54  1  0
 33 55  1  0
 33 56  1  0
 33 57  1  0
M  END
>  <Ligand ID>  (1) 
LIG0001533

>  <Ligand>  (1) 
SCHEMBL1870944

>  <SMILES>  (1) 
OCCS(=O)(=O)N[C@@H]1CCc2c1cccc2c1noc(n1)c1ccc(c(c1)C#N)OC(C)C

>  <CID>  (1) 
67194420.0

>  <ChEMBL ID>  (1) 
nan

>  <InChiKey>  (1) 
LKTZGXNAMSPVAG-HXUWFJFHSA-N

>  <InChi>  (1) 
InChI=1S/C23H24N4O5S/c1-14(2)31-21-9-6-15(12-16(21)13-24)23-25-22(26-32-23)19-5-3-4-18-17(19)7-8-20(18)27-33(29,30)11-10-28/h3-6,9,12,14,20,27-28H,7-8,10-11H2,1-2H3/t20-/m1/s1

>  <IUPAC Name>  (1) 
N-[(1R)-4-[5-(3-cyano-4-propan-2-yloxyphenyl)-1,2,4-oxadiazol-3-yl]-2,3-dihydro-1H-inden-1-yl]-2-hydroxyethanesulfonamide

$$$$
