
     RDKit          3D

 50 54  0  0  0  0  0  0  0  0999 V2000
    8.7126    0.7623   -0.4932 C   0  0  0  0  0  0  0  0  0  0  0  0
    7.7114    0.1092   -1.2539 O   0  0  0  0  0  0  0  0  0  0  0  0
    6.4135    0.1354   -0.7912 C   0  0  0  0  0  0  0  0  0  0  0  0
    6.0702    0.7848    0.3988 C   0  0  0  0  0  0  0  0  0  0  0  0
    4.7682    0.8067    0.8553 C   0  0  0  0  0  0  0  0  0  0  0  0
    3.7352    0.1896    0.1630 C   0  0  0  0  0  0  0  0  0  0  0  0
    4.0932   -0.4479   -1.0121 C   0  0  0  0  0  0  0  0  0  0  0  0
    5.3903   -0.4788   -1.4820 C   0  0  0  0  0  0  0  0  0  0  0  0
    2.4738    0.2515    0.6727 O   0  0  0  0  0  0  0  0  0  0  0  0
    1.2970   -0.2867    0.1523 C   0  0  0  0  0  0  0  0  0  0  0  0
    0.1367    0.7032    0.0651 C   0  0  0  0  0  0  0  0  0  0  0  0
   -0.7848   -0.2931    0.5364 N   0  0  0  0  0  0  0  0  0  0  0  0
    0.3836   -0.9780    1.1230 C   0  0  0  0  0  0  0  0  0  0  0  0
   -2.1523   -0.6590    0.5796 C   0  0  0  0  0  0  0  0  0  0  0  0
   -3.1897    0.0959    0.0660 C   0  0  0  0  0  0  0  0  0  0  0  0
   -2.6799    1.3438   -0.5222 C   0  0  0  0  0  0  0  0  0  0  0  0
   -3.7093    2.3765   -0.8664 C   0  0  0  0  0  0  0  0  0  0  0  0
   -4.7742    1.8933   -1.6785 N   0  0  0  0  0  0  0  0  0  0  0  0
   -5.8769    1.6506   -0.7520 C   0  0  0  0  0  0  0  0  0  0  0  0
   -5.7896    0.2526   -0.3148 C   0  0  0  0  0  0  0  0  0  0  0  0
   -4.5132   -0.2866    0.1154 C   0  0  0  0  0  0  0  0  0  0  0  0
   -4.7494   -1.4946    0.7212 N   0  0  0  0  0  0  0  0  0  0  0  0
   -3.7838   -2.2583    1.2314 C   0  0  0  0  0  0  0  0  0  0  0  0
   -2.5104   -1.8518    1.1637 N   0  0  0  0  0  0  0  0  0  0  0  0
   -1.8040   -2.8049    1.7442 N   0  0  0  0  0  0  0  0  0  0  0  0
   -2.5703   -3.8076    2.1824 C   0  0  0  0  0  0  0  0  0  0  0  0
   -3.8705   -3.4826    1.8634 C   0  0  0  0  0  0  0  0  0  0  0  0
    8.3624    1.8092   -0.3676 H   0  0  0  0  0  0  0  0  0  0  0  0
    8.7896    0.3073    0.5269 H   0  0  0  0  0  0  0  0  0  0  0  0
    9.6900    0.7952   -1.0019 H   0  0  0  0  0  0  0  0  0  0  0  0
    6.8615    1.2852    0.9751 H   0  0  0  0  0  0  0  0  0  0  0  0
    4.5917    1.3369    1.7930 H   0  0  0  0  0  0  0  0  0  0  0  0
    3.3402   -0.9354   -1.5797 H   0  0  0  0  0  0  0  0  0  0  0  0
    5.5858   -1.0016   -2.4135 H   0  0  0  0  0  0  0  0  0  0  0  0
    1.4666   -0.8420   -0.7953 H   0  0  0  0  0  0  0  0  0  0  0  0
    0.0346    1.0904   -0.9540 H   0  0  0  0  0  0  0  0  0  0  0  0
    0.3140    1.5530    0.7765 H   0  0  0  0  0  0  0  0  0  0  0  0
    0.5403   -0.6037    2.1533 H   0  0  0  0  0  0  0  0  0  0  0  0
    0.2852   -2.0686    0.9849 H   0  0  0  0  0  0  0  0  0  0  0  0
   -1.9379    1.8626    0.1082 H   0  0  0  0  0  0  0  0  0  0  0  0
   -2.1968    1.0694   -1.4777 H   0  0  0  0  0  0  0  0  0  0  0  0
   -4.0612    2.8561    0.0438 H   0  0  0  0  0  0  0  0  0  0  0  0
   -3.1651    3.1503   -1.4806 H   0  0  0  0  0  0  0  0  0  0  0  0
   -4.5434    1.0390   -2.2285 H   0  0  0  0  0  0  0  0  0  0  0  0
   -5.8309    2.3544    0.1084 H   0  0  0  0  0  0  0  0  0  0  0  0
   -6.8575    1.7949   -1.2651 H   0  0  0  0  0  0  0  0  0  0  0  0
   -6.1742   -0.4416   -1.1243 H   0  0  0  0  0  0  0  0  0  0  0  0
   -6.5454    0.1121    0.5167 H   0  0  0  0  0  0  0  0  0  0  0  0
   -2.2085   -4.6936    2.6884 H   0  0  0  0  0  0  0  0  0  0  0  0
   -4.7690   -4.0554    2.0615 H   0  0  0  0  0  0  0  0  0  0  0  0
  1  2  1  0
  2  3  1  0
  3  4  2  0
  4  5  1  0
  5  6  2  0
  6  7  1  0
  7  8  2  0
  6  9  1  0
  9 10  1  0
 10 11  1  0
 11 12  1  0
 12 13  1  0
 12 14  1  0
 14 15  2  0
 15 16  1  0
 16 17  1  0
 17 18  1  0
 18 19  1  0
 19 20  1  0
 20 21  1  0
 21 22  2  0
 22 23  1  0
 23 24  1  0
 24 25  1  0
 25 26  2  0
 26 27  1  0
  8  3  1  0
 13 10  1  0
 24 14  1  0
 21 15  1  0
 27 23  2  0
  1 28  1  0
  1 29  1  0
  1 30  1  0
  4 31  1  0
  5 32  1  0
  7 33  1  0
  8 34  1  0
 10 35  1  0
 11 36  1  0
 11 37  1  0
 13 38  1  0
 13 39  1  0
 16 40  1  0
 16 41  1  0
 17 42  1  0
 17 43  1  0
 18 44  1  0
 19 45  1  0
 19 46  1  0
 20 47  1  0
 20 48  1  0
 26 49  1  0
 27 50  1  0
M  END
>  <Ligand ID>  (1) 
LIG0004824

>  <Ligand>  (1) 
CHEMBL1643854

>  <SMILES>  (1) 
COc1ccc(cc1)OC1CN(C1)c1c2CCNCCc2nc2n1ncc2

>  <CID>  (1) 
50942111.0

>  <ChEMBL ID>  (1) 
nan

>  <InChiKey>  (1) 
CECBDGKHOSMIRW-UHFFFAOYSA-N

>  <InChi>  (1) 
InChI=1S/C20H23N5O2/c1-26-14-2-4-15(5-3-14)27-16-12-24(13-16)20-17-6-9-21-10-7-18(17)23-19-8-11-22-25(19)20/h2-5,8,11,16,21H,6-7,9-10,12-13H2,1H3

>  <IUPAC Name>  (1) 
8-[3-(4-methoxyphenoxy)azetidin-1-yl]-2,6,7,12-tetrazatricyclo[7.5.0.03,7]tetradeca-1,3,5,8-tetraene

$$$$
