
     RDKit          3D

 52 53  0  0  0  0  0  0  0  0999 V2000
   -2.9744    2.1699    3.0844 C   0  0  0  0  0  0  0  0  0  0  0  0
   -3.8748    1.6931    1.9629 C   0  0  0  0  0  0  0  0  0  0  0  0
   -3.1617    0.5715    1.2529 C   0  0  0  0  0  0  0  0  0  0  0  0
   -4.0070    0.0270    0.0968 C   0  0  0  0  0  0  0  0  0  0  0  0
   -3.1532   -1.0929   -0.5156 C   0  0  0  0  0  0  0  0  0  0  0  0
   -3.8180   -1.7404   -1.6587 C   0  0  0  0  0  0  0  0  0  0  0  0
   -3.0381   -2.8344   -2.2725 C   0  0  0  0  0  0  0  0  0  0  0  0
   -1.7731   -2.5686   -2.9806 C   0  0  0  0  0  0  0  0  0  0  0  0
   -0.6509   -1.9411   -2.3158 C   0  0  0  0  0  0  0  0  0  0  0  0
   -0.2631   -0.6081   -2.4556 C   0  0  0  0  0  0  0  0  0  0  0  0
    0.8211   -0.0830   -1.7864 C   0  0  0  0  0  0  0  0  0  0  0  0
    1.5722   -0.8725   -0.9409 C   0  0  0  0  0  0  0  0  0  0  0  0
    1.2127   -2.1878   -0.7851 C   0  0  0  0  0  0  0  0  0  0  0  0
    0.1279   -2.7135   -1.4546 C   0  0  0  0  0  0  0  0  0  0  0  0
    2.7202   -0.3199   -0.2312 C   0  0  0  0  0  0  0  0  0  0  0  0
    3.5335   -1.0203    0.6330 C   0  0  0  0  0  0  0  0  0  0  0  0
    4.4616   -0.1759    1.0751 N   0  0  0  0  0  0  0  0  0  0  0  0
    4.2323    1.0383    0.4950 C   0  0  0  0  0  0  0  0  0  0  0  0
    3.1587    0.9474   -0.3098 N   0  0  0  0  0  0  0  0  0  0  0  0
    5.1031    2.2095    0.7844 C   0  0  1  0  0  0  0  0  0  0  0  0
    4.8291    2.6541    2.2207 C   0  0  0  0  0  0  0  0  0  0  0  0
    3.5249    3.0920    2.3493 O   0  0  0  0  0  0  0  0  0  0  0  0
    6.4833    1.7656    0.7267 N   0  0  0  0  0  0  0  0  0  0  0  0
   -3.5262    2.8373    3.7729 H   0  0  0  0  0  0  0  0  0  0  0  0
   -2.5784    1.2645    3.5925 H   0  0  0  0  0  0  0  0  0  0  0  0
   -2.1052    2.6883    2.6219 H   0  0  0  0  0  0  0  0  0  0  0  0
   -4.8453    1.3395    2.3251 H   0  0  0  0  0  0  0  0  0  0  0  0
   -3.9925    2.5264    1.2348 H   0  0  0  0  0  0  0  0  0  0  0  0
   -2.1827    0.8859    0.8543 H   0  0  0  0  0  0  0  0  0  0  0  0
   -3.0636   -0.2601    1.9841 H   0  0  0  0  0  0  0  0  0  0  0  0
   -4.9777   -0.3360    0.4643 H   0  0  0  0  0  0  0  0  0  0  0  0
   -4.1445    0.8022   -0.6868 H   0  0  0  0  0  0  0  0  0  0  0  0
   -3.1241   -1.8653    0.3216 H   0  0  0  0  0  0  0  0  0  0  0  0
   -2.1879   -0.6729   -0.6950 H   0  0  0  0  0  0  0  0  0  0  0  0
   -4.8621   -2.0818   -1.4122 H   0  0  0  0  0  0  0  0  0  0  0  0
   -3.9809   -0.9634   -2.4839 H   0  0  0  0  0  0  0  0  0  0  0  0
   -2.7813   -3.6090   -1.4463 H   0  0  0  0  0  0  0  0  0  0  0  0
   -3.7328   -3.4714   -2.9164 H   0  0  0  0  0  0  0  0  0  0  0  0
   -1.9782   -1.9774   -3.9411 H   0  0  0  0  0  0  0  0  0  0  0  0
   -1.3984   -3.5551   -3.4457 H   0  0  0  0  0  0  0  0  0  0  0  0
   -0.8833   -0.0233   -3.1314 H   0  0  0  0  0  0  0  0  0  0  0  0
    1.0488    0.9590   -1.9543 H   0  0  0  0  0  0  0  0  0  0  0  0
    1.7786   -2.8334   -0.1313 H   0  0  0  0  0  0  0  0  0  0  0  0
   -0.1186   -3.7534   -1.3019 H   0  0  0  0  0  0  0  0  0  0  0  0
    3.4592   -2.0690    0.9225 H   0  0  0  0  0  0  0  0  0  0  0  0
    2.7946    1.7434   -0.8564 H   0  0  0  0  0  0  0  0  0  0  0  0
    4.9176    2.9954    0.0504 H   0  0  0  0  0  0  0  0  0  0  0  0
    4.9354    1.7326    2.8546 H   0  0  0  0  0  0  0  0  0  0  0  0
    5.5926    3.3657    2.5740 H   0  0  0  0  0  0  0  0  0  0  0  0
    3.3896    3.4990    3.2230 H   0  0  0  0  0  0  0  0  0  0  0  0
    6.5594    0.7415    0.7942 H   0  0  0  0  0  0  0  0  0  0  0  0
    6.9216    2.0808   -0.1618 H   0  0  0  0  0  0  0  0  0  0  0  0
  1  2  1  0
  2  3  1  0
  3  4  1  0
  4  5  1  0
  5  6  1  0
  6  7  1  0
  7  8  1  0
  8  9  1  0
  9 10  2  0
 10 11  1  0
 11 12  2  0
 12 13  1  0
 13 14  2  0
 12 15  1  0
 15 16  2  0
 16 17  1  0
 17 18  2  0
 18 19  1  0
 18 20  1  0
 20 21  1  0
 21 22  1  0
 20 23  1  0
 14  9  1  0
 19 15  1  0
  1 24  1  0
  1 25  1  0
  1 26  1  0
  2 27  1  0
  2 28  1  0
  3 29  1  0
  3 30  1  0
  4 31  1  0
  4 32  1  0
  5 33  1  0
  5 34  1  0
  6 35  1  0
  6 36  1  0
  7 37  1  0
  7 38  1  0
  8 39  1  0
  8 40  1  0
 10 41  1  0
 11 42  1  0
 13 43  1  0
 14 44  1  0
 16 45  1  0
 19 46  1  0
 20 47  1  6
 21 48  1  0
 21 49  1  0
 22 50  1  0
 23 51  1  0
 23 52  1  0
M  END
>  <Ligand ID>  (1) 
LIG0004235

>  <Ligand>  (1) 
CHEMBL190529

>  <SMILES>  (1) 
CCCCCCCCc1ccc(cc1)c1cnc([nH]1)[C@@H](CO)N

>  <CID>  (1) 
44398172.0

>  <ChEMBL ID>  (1) 
nan

>  <InChiKey>  (1) 
BMBOFXBZVKKLHG-QGZVFWFLSA-N

>  <InChi>  (1) 
InChI=1S/C19H29N3O/c1-2-3-4-5-6-7-8-15-9-11-16(12-10-15)18-13-21-19(22-18)17(20)14-23/h9-13,17,23H,2-8,14,20H2,1H3,(H,21,22)/t17-/m1/s1

>  <IUPAC Name>  (1) 
(2S)-2-amino-2-[5-(4-octylphenyl)-1H-imidazol-2-yl]ethanol

$$$$
