
     RDKit          3D

164169  0  0  0  0  0  0  0  0999 V2000
   -9.3892   -5.3890    2.4650 C   0  0  0  0  0  0  0  0  0  0  0  0
   -9.8913   -4.4190    1.4360 C   0  0  0  0  0  0  0  0  0  0  0  0
   -8.7417   -3.7492    0.6598 C   0  0  0  0  0  0  0  0  0  0  0  0
   -9.3428   -2.7995   -0.3157 C   0  0  0  0  0  0  0  0  0  0  0  0
   -8.3216   -2.0104   -1.1466 C   0  0  2  0  0  0  0  0  0  0  0  0
   -7.4610   -1.2176   -0.1849 C   0  0  0  0  0  0  0  0  0  0  0  0
   -7.8743   -0.1172    0.2542 O   0  0  0  0  0  0  0  0  0  0  0  0
   -6.1651   -1.7468    0.2071 N   0  0  0  0  0  0  0  0  0  0  0  0
   -5.4217   -0.9455    1.1501 C   0  0  1  0  0  0  0  0  0  0  0  0
   -4.6033   -1.8829    2.0275 C   0  0  0  0  0  0  0  0  0  0  0  0
   -3.7158   -2.7568    1.2414 C   0  0  0  0  0  0  0  0  0  0  0  0
   -3.5123   -2.7090    0.0215 O   0  0  0  0  0  0  0  0  0  0  0  0
   -2.9376   -3.8378    1.8529 N   0  0  0  0  0  0  0  0  0  0  0  0
   -2.1372   -4.6181    0.9378 C   0  0  0  0  0  0  0  0  0  0  0  0
   -1.4261   -5.7171    1.7358 C   0  0  0  0  0  0  0  0  0  0  0  0
   -0.3989   -5.1770    2.6547 C   0  0  0  0  0  0  0  0  0  0  0  0
    0.7908   -4.5105    2.1164 C   0  0  0  0  0  0  0  0  0  0  0  0
    1.9124   -5.2609    1.6125 C   0  0  1  0  0  0  0  0  0  0  0  0
    1.7896   -6.0567    0.4128 C   0  0  0  0  0  0  0  0  0  0  0  0
    0.9951   -6.9110    0.0660 O   0  0  0  0  0  0  0  0  0  0  0  0
    2.8418   -5.7926   -0.6026 N   0  0  0  0  0  0  0  0  0  0  0  0
    3.1782   -4.4330    1.6149 N   0  0  0  0  0  0  0  0  0  0  0  0
    4.2838   -4.8295    2.4037 C   0  0  0  0  0  0  0  0  0  0  0  0
    3.2789   -3.2831    0.8133 C   0  0  0  0  0  0  0  0  0  0  0  0
    2.2203   -3.1223    0.1263 O   0  0  0  0  0  0  0  0  0  0  0  0
    4.3179   -2.2862    0.6354 C   0  0  1  0  0  0  0  0  0  0  0  0
    3.5248   -1.0308    0.4196 N   0  0  0  0  0  0  0  0  0  0  0  0
    3.5950   -0.2890   -0.7652 C   0  0  0  0  0  0  0  0  0  0  0  0
    4.3100   -0.8635   -1.6127 O   0  0  0  0  0  0  0  0  0  0  0  0
    2.9866    0.9907   -1.1578 C   0  0  1  0  0  0  0  0  0  0  0  0
    2.3362    1.7450   -0.1163 N   0  0  0  0  0  0  0  0  0  0  0  0
    0.9158    1.9722   -0.1598 C   0  0  0  0  0  0  0  0  0  0  0  0
    0.4300    1.6147   -1.2363 O   0  0  0  0  0  0  0  0  0  0  0  0
    0.0627    2.5396    0.8731 C   0  0  2  0  0  0  0  0  0  0  0  0
   -1.2973    1.8717    0.7085 N   0  0  0  0  0  0  0  0  0  0  0  0
   -2.2032    2.2460   -0.2761 C   0  0  0  0  0  0  0  0  0  0  0  0
   -1.6147    3.1826   -0.9908 O   0  0  0  0  0  0  0  0  0  0  0  0
   -3.5225    1.9427   -0.7375 C   0  0  1  0  0  0  0  0  0  0  0  0
   -4.1962    0.6791   -0.5108 N   0  0  0  0  0  0  0  0  0  0  0  0
   -4.7247    0.2274    0.7096 C   0  0  0  0  0  0  0  0  0  0  0  0
   -4.4965    1.1124    1.6113 O   0  0  0  0  0  0  0  0  0  0  0  0
   -4.3439   -0.1789   -1.6475 C   0  0  0  0  0  0  0  0  0  0  0  0
   -4.5022    3.0962   -0.6561 C   0  0  0  0  0  0  0  0  0  0  0  0
   -4.0112    4.2083   -1.4831 C   0  0  0  0  0  0  0  0  0  0  0  0
   -4.3074    4.3471   -2.8063 N   0  0  0  0  0  0  0  0  0  0  0  0
   -3.7183    5.4898   -3.2710 C   0  0  0  0  0  0  0  0  0  0  0  0
   -3.0479    6.0838   -2.2575 N   0  0  0  0  0  0  0  0  0  0  0  0
   -3.2325    5.2997   -1.1770 C   0  0  0  0  0  0  0  0  0  0  0  0
   -1.5146    0.7833    1.5820 C   0  0  0  0  0  0  0  0  0  0  0  0
   -0.0373    3.9738    1.0167 C   0  0  0  0  0  0  0  0  0  0  0  0
    1.1345    4.7935    1.3253 C   0  0  0  0  0  0  0  0  0  0  0  0
    1.5114    4.9378    2.6604 C   0  0  0  0  0  0  0  0  0  0  0  0
    2.5568    5.7109    3.0343 C   0  0  0  0  0  0  0  0  0  0  0  0
    3.2636    6.3714    2.0601 C   0  0  0  0  0  0  0  0  0  0  0  0
    2.9492    6.2737    0.7316 C   0  0  0  0  0  0  0  0  0  0  0  0
    1.8745    5.4798    0.3423 C   0  0  0  0  0  0  0  0  0  0  0  0
    3.7027    6.9693   -0.1813 C   0  0  0  0  0  0  0  0  0  0  0  0
    4.7466    7.7397    0.2584 C   0  0  0  0  0  0  0  0  0  0  0  0
    5.1090    7.8749    1.5827 C   0  0  0  0  0  0  0  0  0  0  0  0
    4.3348    7.1628    2.4985 C   0  0  0  0  0  0  0  0  0  0  0  0
    3.0354    2.3103    0.9732 C   0  0  0  0  0  0  0  0  0  0  0  0
    3.8905    1.7707   -2.0696 C   0  0  0  0  0  0  0  0  0  0  0  0
    5.2306    2.1094   -1.4977 C   0  0  0  0  0  0  0  0  0  0  0  0
    6.0893    2.8832   -2.5055 C   0  0  0  0  0  0  0  0  0  0  0  0
    6.3632    2.2077   -3.6518 N   0  0  0  0  0  0  0  0  0  0  0  0
    6.4647    2.0333   -4.8314 C   0  0  0  0  0  0  0  0  0  0  0  0
    6.1375    3.0900   -5.7660 N   0  0  0  0  0  0  0  0  0  0  0  0
    6.9112    0.7904   -5.3854 N   0  0  0  0  0  0  0  0  0  0  0  0
    2.6485   -0.7216    1.4844 C   0  0  0  0  0  0  0  0  0  0  0  0
    5.3473   -2.0920    1.6824 C   0  0  0  0  0  0  0  0  0  0  0  0
    6.3063   -0.9902    1.3580 C   0  0  0  0  0  0  0  0  0  0  0  0
    6.3030    0.2238    2.0515 C   0  0  0  0  0  0  0  0  0  0  0  0
    7.2774    1.0126    1.5621 N   0  0  0  0  0  0  0  0  0  0  0  0
    7.8870    0.3337    0.5913 C   0  0  0  0  0  0  0  0  0  0  0  0
    7.3036   -0.9325    0.4330 C   0  0  0  0  0  0  0  0  0  0  0  0
    7.7601   -1.8113   -0.5187 C   0  0  0  0  0  0  0  0  0  0  0  0
    8.8118   -1.4581   -1.3459 C   0  0  0  0  0  0  0  0  0  0  0  0
    9.3828   -0.2109   -1.1833 C   0  0  0  0  0  0  0  0  0  0  0  0
    8.9367    0.6920   -0.2264 C   0  0  0  0  0  0  0  0  0  0  0  0
   -9.1338   -1.0839   -1.9599 N   0  0  0  0  0  0  0  0  0  0  0  0
   -8.9729   -1.2565   -3.3763 C   0  0  0  0  0  0  0  0  0  0  0  0
   -8.1866   -2.1435   -3.8511 O   0  0  0  0  0  0  0  0  0  0  0  0
   -9.7310   -0.3910   -4.3283 C   0  0  0  0  0  0  0  0  0  0  0  0
   -8.2805   -5.4234    2.4991 H   0  0  0  0  0  0  0  0  0  0  0  0
   -9.8076   -6.4149    2.3372 H   0  0  0  0  0  0  0  0  0  0  0  0
   -9.7373   -4.9982    3.4642 H   0  0  0  0  0  0  0  0  0  0  0  0
  -10.4755   -3.5989    1.9054 H   0  0  0  0  0  0  0  0  0  0  0  0
  -10.5841   -4.9559    0.7556 H   0  0  0  0  0  0  0  0  0  0  0  0
   -8.2786   -4.6206    0.1028 H   0  0  0  0  0  0  0  0  0  0  0  0
   -8.0795   -3.2891    1.3886 H   0  0  0  0  0  0  0  0  0  0  0  0
   -9.9491   -3.3852   -1.0369 H   0  0  0  0  0  0  0  0  0  0  0  0
   -9.9884   -2.0901    0.2768 H   0  0  0  0  0  0  0  0  0  0  0  0
   -7.7813   -2.6811   -1.7809 H   0  0  0  0  0  0  0  0  0  0  0  0
   -5.8349   -2.6518   -0.1977 H   0  0  0  0  0  0  0  0  0  0  0  0
   -6.2456   -0.5330    1.8376 H   0  0  0  0  0  0  0  0  0  0  0  0
   -5.3543   -2.5717    2.5087 H   0  0  0  0  0  0  0  0  0  0  0  0
   -4.1374   -1.3409    2.8440 H   0  0  0  0  0  0  0  0  0  0  0  0
   -3.0456   -3.9180    2.8443 H   0  0  0  0  0  0  0  0  0  0  0  0
   -1.3915   -4.0219    0.3791 H   0  0  0  0  0  0  0  0  0  0  0  0
   -2.7431   -5.1532    0.1804 H   0  0  0  0  0  0  0  0  0  0  0  0
   -1.1674   -6.5688    1.1292 H   0  0  0  0  0  0  0  0  0  0  0  0
   -2.2906   -6.0429    2.4611 H   0  0  0  0  0  0  0  0  0  0  0  0
   -0.0471   -6.0515    3.3074 H   0  0  0  0  0  0  0  0  0  0  0  0
   -0.9138   -4.5128    3.4338 H   0  0  0  0  0  0  0  0  0  0  0  0
    1.1740   -3.8310    2.9622 H   0  0  0  0  0  0  0  0  0  0  0  0
    0.4061   -3.7299    1.3507 H   0  0  0  0  0  0  0  0  0  0  0  0
    2.1920   -6.0352    2.4373 H   0  0  0  0  0  0  0  0  0  0  0  0
    3.7270   -5.3332   -0.3400 H   0  0  0  0  0  0  0  0  0  0  0  0
    2.6747   -6.0839   -1.5899 H   0  0  0  0  0  0  0  0  0  0  0  0
    4.5529   -4.1268    3.2071 H   0  0  0  0  0  0  0  0  0  0  0  0
    3.9555   -5.7737    2.9453 H   0  0  0  0  0  0  0  0  0  0  0  0
    5.1589   -5.1963    1.8200 H   0  0  0  0  0  0  0  0  0  0  0  0
    4.8672   -2.4912   -0.3271 H   0  0  0  0  0  0  0  0  0  0  0  0
    2.1703    0.6449   -1.9096 H   0  0  0  0  0  0  0  0  0  0  0  0
    0.4327    2.0224    1.8372 H   0  0  0  0  0  0  0  0  0  0  0  0
   -3.3578    1.8921   -1.8912 H   0  0  0  0  0  0  0  0  0  0  0  0
   -4.4349    0.4365   -2.5810 H   0  0  0  0  0  0  0  0  0  0  0  0
   -5.1855   -0.8330   -1.6343 H   0  0  0  0  0  0  0  0  0  0  0  0
   -3.3644   -0.7267   -1.8316 H   0  0  0  0  0  0  0  0  0  0  0  0
   -5.4755    2.7494   -1.0728 H   0  0  0  0  0  0  0  0  0  0  0  0
   -4.6292    3.4871    0.3576 H   0  0  0  0  0  0  0  0  0  0  0  0
   -4.8907    3.6964   -3.3825 H   0  0  0  0  0  0  0  0  0  0  0  0
   -3.8278    5.8017   -4.3018 H   0  0  0  0  0  0  0  0  0  0  0  0
   -2.8184    5.5048   -0.1929 H   0  0  0  0  0  0  0  0  0  0  0  0
   -2.0005   -0.1084    1.1597 H   0  0  0  0  0  0  0  0  0  0  0  0
   -2.0031    1.0492    2.5259 H   0  0  0  0  0  0  0  0  0  0  0  0
   -0.4852    0.3544    1.8720 H   0  0  0  0  0  0  0  0  0  0  0  0
   -0.8037    4.2862    1.8125 H   0  0  0  0  0  0  0  0  0  0  0  0
   -0.4841    4.5027    0.1108 H   0  0  0  0  0  0  0  0  0  0  0  0
    0.9498    4.4151    3.4306 H   0  0  0  0  0  0  0  0  0  0  0  0
    2.8020    5.7890    4.0922 H   0  0  0  0  0  0  0  0  0  0  0  0
    1.6012    5.3801   -0.7085 H   0  0  0  0  0  0  0  0  0  0  0  0
    3.4352    6.8857   -1.2322 H   0  0  0  0  0  0  0  0  0  0  0  0
    5.3400    8.2905   -0.4590 H   0  0  0  0  0  0  0  0  0  0  0  0
    5.9418    8.4951    1.9055 H   0  0  0  0  0  0  0  0  0  0  0  0
    4.6012    7.2603    3.5208 H   0  0  0  0  0  0  0  0  0  0  0  0
    3.4513    3.3177    0.8049 H   0  0  0  0  0  0  0  0  0  0  0  0
    2.4470    2.2998    1.9434 H   0  0  0  0  0  0  0  0  0  0  0  0
    3.9707    1.6885    1.1492 H   0  0  0  0  0  0  0  0  0  0  0  0
    4.0908    1.1962   -3.0153 H   0  0  0  0  0  0  0  0  0  0  0  0
    3.3644    2.6982   -2.4536 H   0  0  0  0  0  0  0  0  0  0  0  0
    5.8277    1.1552   -1.3389 H   0  0  0  0  0  0  0  0  0  0  0  0
    5.2382    2.6360   -0.5389 H   0  0  0  0  0  0  0  0  0  0  0  0
    7.0510    3.0858   -1.9302 H   0  0  0  0  0  0  0  0  0  0  0  0
    5.6586    3.9180   -2.6286 H   0  0  0  0  0  0  0  0  0  0  0  0
    6.2173    2.9340   -6.8081 H   0  0  0  0  0  0  0  0  0  0  0  0
    5.8125    4.0151   -5.4060 H   0  0  0  0  0  0  0  0  0  0  0  0
    6.3973    0.3703   -6.1805 H   0  0  0  0  0  0  0  0  0  0  0  0
    7.7592    0.3582   -4.9332 H   0  0  0  0  0  0  0  0  0  0  0  0
    2.2685   -1.7077    1.9049 H   0  0  0  0  0  0  0  0  0  0  0  0
    1.7322   -0.2335    1.1483 H   0  0  0  0  0  0  0  0  0  0  0  0
    3.1320   -0.1575    2.3034 H   0  0  0  0  0  0  0  0  0  0  0  0
    4.9859   -1.9192    2.7065 H   0  0  0  0  0  0  0  0  0  0  0  0
    5.9618   -3.0333    1.7085 H   0  0  0  0  0  0  0  0  0  0  0  0
    5.6156    0.4839    2.8683 H   0  0  0  0  0  0  0  0  0  0  0  0
    7.5095    1.9808    1.8912 H   0  0  0  0  0  0  0  0  0  0  0  0
    7.2766   -2.7664   -0.5944 H   0  0  0  0  0  0  0  0  0  0  0  0
    9.1997   -2.1332   -2.1174 H   0  0  0  0  0  0  0  0  0  0  0  0
   10.2088    0.1185   -1.7988 H   0  0  0  0  0  0  0  0  0  0  0  0
    9.3987    1.6800   -0.1034 H   0  0  0  0  0  0  0  0  0  0  0  0
   -9.7600   -0.3724   -1.5348 H   0  0  0  0  0  0  0  0  0  0  0  0
   -9.1633    0.5161   -4.5962 H   0  0  0  0  0  0  0  0  0  0  0  0
  -10.7326   -0.1073   -3.9455 H   0  0  0  0  0  0  0  0  0  0  0  0
   -9.9136   -1.0166   -5.2428 H   0  0  0  0  0  0  0  0  0  0  0  0
  1  2  1  0
  2  3  1  0
  3  4  1  0
  4  5  1  0
  5  6  1  0
  6  7  2  0
  6  8  1  0
  8  9  1  0
  9 10  1  0
 10 11  1  0
 11 12  2  0
 11 13  1  0
 13 14  1  0
 14 15  1  0
 15 16  1  0
 16 17  1  0
 17 18  1  0
 18 19  1  0
 19 20  2  0
 19 21  1  0
 18 22  1  0
 22 23  1  0
 22 24  1  0
 24 25  2  0
 24 26  1  0
 26 27  1  0
 27 28  1  0
 28 29  2  0
 28 30  1  0
 30 31  1  0
 31 32  1  0
 32 33  2  0
 32 34  1  0
 34 35  1  0
 35 36  1  0
 36 37  2  0
 36 38  1  0
 38 39  1  0
 39 40  1  0
 40 41  2  0
 39 42  1  0
 38 43  1  0
 43 44  1  0
 44 45  1  0
 45 46  1  0
 46 47  2  0
 47 48  1  0
 35 49  1  0
 34 50  1  0
 50 51  1  0
 51 52  2  0
 52 53  1  0
 53 54  2  0
 54 55  1  0
 55 56  2  0
 55 57  1  0
 57 58  2  0
 58 59  1  0
 59 60  2  0
 31 61  1  0
 30 62  1  0
 62 63  1  0
 63 64  1  0
 64 65  1  0
 65 66  2  3
 66 67  1  0
 66 68  1  0
 27 69  1  0
 26 70  1  0
 70 71  1  0
 71 72  2  0
 72 73  1  0
 73 74  1  0
 74 75  2  0
 75 76  1  0
 76 77  2  0
 77 78  1  0
 78 79  2  0
  5 80  1  0
 80 81  1  0
 81 82  2  0
 81 83  1  0
 40  9  1  0
 48 44  2  0
 56 51  1  0
 75 71  1  0
 60 54  1  0
 79 74  1  0
  1 84  1  0
  1 85  1  0
  1 86  1  0
  2 87  1  0
  2 88  1  0
  3 89  1  0
  3 90  1  0
  4 91  1  0
  4 92  1  0
  5 93  1  6
  8 94  1  0
  9 95  1  1
 10 96  1  0
 10 97  1  0
 13 98  1  0
 14 99  1  0
 14100  1  0
 15101  1  0
 15102  1  0
 16103  1  0
 16104  1  0
 17105  1  0
 17106  1  0
 18107  1  1
 21108  1  0
 21109  1  0
 23110  1  0
 23111  1  0
 23112  1  0
 26113  1  6
 30114  1  6
 34115  1  1
 38116  1  6
 42117  1  0
 42118  1  0
 42119  1  0
 43120  1  0
 43121  1  0
 45122  1  0
 46123  1  0
 48124  1  0
 49125  1  0
 49126  1  0
 49127  1  0
 50128  1  0
 50129  1  0
 52130  1  0
 53131  1  0
 56132  1  0
 57133  1  0
 58134  1  0
 59135  1  0
 60136  1  0
 61137  1  0
 61138  1  0
 61139  1  0
 62140  1  0
 62141  1  0
 63142  1  0
 63143  1  0
 64144  1  0
 64145  1  0
 67146  1  0
 67147  1  0
 68148  1  0
 68149  1  0
 69150  1  0
 69151  1  0
 69152  1  0
 70153  1  0
 70154  1  0
 72155  1  0
 73156  1  0
 76157  1  0
 77158  1  0
 78159  1  0
 79160  1  0
 80161  1  0
 83162  1  0
 83163  1  0
 83164  1  0
M  END
>  <Ligand ID>  (1) 
LIG0001800

>  <Ligand>  (1) 
CHEMBL3601432

>  <SMILES>  (1) 
CCCC[C@H](C(=O)N[C@H]1CC(=O)NCCCC[C@@H](C(=O)N)N(C)C(=O)[C@@H](N(C(=O)[C@@H](N(C(=O)[C@H](N(C(=O)[C@@H](N(C1=O)C)Cc1[nH]cnc1)C)Cc1ccc2c(c1)cccc2)C)CCCN=C(N)N)C)Cc1c[nH]c2c1cccc2)NC(=O)C

>  <CID>  (1) 
122184914.0

>  <ChEMBL ID>  (1) 
nan

>  <InChiKey>  (1) 
JQBPGTIPRHEONU-VVPYAFNRSA-N

>  <InChi>  (1) 
InChI=1S/C59H81N15O9/c1-8-9-20-44(68-36(2)75)53(78)69-45-32-51(76)64-26-15-14-22-46(52(60)77)70(3)57(82)49(30-40-33-66-43-21-13-12-19-42(40)43)74(7)55(80)47(23-16-27-65-59(61)62)71(4)56(81)48(29-37-24-25-38-17-10-11-18-39(38)28-37)73(6)58(83)50(72(5)54(45)79)31-41-34-63-35-67-41/h10-13,17-19,21,24-25,28,33-35,44-50,66H,8-9,14-16,20,22-23,26-27,29-32H2,1-7H3,(H2,60,77)(H,63,67)(H,64,76)(H,68,75)(H,69,78)(H4,61,62,65)/t44-,45+,46+,47+,48-,49+,50+/m1/s1

>  <IUPAC Name>  (1) 
(3S,6S,9R,12S,15S,23S)-15-[[(2R)-2-acetamidohexanoyl]amino]-6-[3-(diaminomethylideneamino)propyl]-12-(1H-imidazol-5-ylmethyl)-3-(1H-indol-3-ylmethyl)-1,4,7,10,13-pentamethyl-9-(naphthalen-2-ylmethyl)-2,5,8,11,14,17-hexaoxo-1,4,7,10,13,18-hexazacyclotricosane-23-carboxamide

$$$$
