
     RDKit          3D

 17 17  0  0  0  0  0  0  0  0999 V2000
   -0.1211   -1.3993    0.1274 C   0  0  0  0  0  0  0  0  0  0  0  0
   -1.0816   -0.3712    0.7188 C   0  0  0  0  0  0  0  0  0  0  0  0
   -1.1387    0.6919   -0.3694 C   0  0  0  0  0  0  0  0  0  0  0  0
    0.1952    1.2994   -0.5783 C   0  0  0  0  0  0  0  0  0  0  0  0
    1.3144    0.4183   -0.5913 N   0  0  0  0  0  0  0  0  0  0  0  0
    1.2394   -0.7209    0.2513 C   0  0  0  0  0  0  0  0  0  0  0  0
   -0.1565   -2.3562    0.6484 H   0  0  0  0  0  0  0  0  0  0  0  0
   -0.2803   -1.4994   -0.9689 H   0  0  0  0  0  0  0  0  0  0  0  0
   -2.0572   -0.7858    0.9534 H   0  0  0  0  0  0  0  0  0  0  0  0
   -0.5951    0.0993    1.6080 H   0  0  0  0  0  0  0  0  0  0  0  0
   -1.5855    0.2414   -1.2742 H   0  0  0  0  0  0  0  0  0  0  0  0
   -1.8242    1.4775    0.0031 H   0  0  0  0  0  0  0  0  0  0  0  0
    0.1726    1.7985   -1.5872 H   0  0  0  0  0  0  0  0  0  0  0  0
    0.3553    2.1454    0.1401 H   0  0  0  0  0  0  0  0  0  0  0  0
    2.1854    0.9542   -0.3183 H   0  0  0  0  0  0  0  0  0  0  0  0
    1.9894   -1.4570   -0.0832 H   0  0  0  0  0  0  0  0  0  0  0  0
    1.3885   -0.5359    1.3202 H   0  0  0  0  0  0  0  0  0  0  0  0
  1  2  1  0
  2  3  1  0
  3  4  1  0
  4  5  1  0
  5  6  1  0
  6  1  1  0
  1  7  1  0
  1  8  1  0
  2  9  1  0
  2 10  1  0
  3 11  1  0
  3 12  1  0
  4 13  1  0
  4 14  1  0
  5 15  1  0
  6 16  1  0
  6 17  1  0
M  END
>  <Ligand ID>  (1) 
LIG0000268

>  <Ligand>  (1) 
piperidine

>  <SMILES>  (1) 
C1CCCNC1

>  <CID>  (1) 
8082.0

>  <ChEMBL ID>  (1) 
nan

>  <InChiKey>  (1) 
NQRYJNQNLNOLGT-UHFFFAOYSA-N

>  <InChi>  (1) 
InChI=1S/C5H11N/c1-2-4-6-5-3-1/h6H,1-5H2

>  <IUPAC Name>  (1) 
piperidine

$$$$
