
     RDKit          3D

 71 74  0  0  0  0  0  0  0  0999 V2000
  -12.1591    1.7421    0.0170 N   0  0  0  0  0  0  0  0  0  0  0  0
  -10.9154    1.0445    0.0339 C   0  0  0  0  0  0  0  0  0  0  0  0
  -10.5056    0.2549   -1.0231 C   0  0  0  0  0  0  0  0  0  0  0  0
   -9.2812   -0.4160   -0.9762 C   0  0  0  0  0  0  0  0  0  0  0  0
   -8.5336   -0.2573    0.1316 N   0  0  0  0  0  0  0  0  0  0  0  0
   -8.9223    0.5088    1.1669 C   0  0  0  0  0  0  0  0  0  0  0  0
   -8.2164    0.6579    2.2116 O   0  0  0  0  0  0  0  0  0  0  0  0
  -10.1089    1.1628    1.1287 N   0  0  0  0  0  0  0  0  0  0  0  0
   -7.2479   -0.9468    0.2091 C   0  0  2  0  0  0  0  0  0  0  0  0
   -6.3867   -0.2425    1.0225 O   0  0  0  0  0  0  0  0  0  0  0  0
   -5.1463   -0.8401    0.7231 C   0  0  1  0  0  0  0  0  0  0  0  0
   -5.1113   -0.9405   -0.7682 C   0  0  2  0  0  0  0  0  0  0  0  0
   -6.5918   -1.0142   -1.1345 C   0  0  0  0  0  0  0  0  0  0  0  0
   -4.4498   -2.1078   -1.1320 O   0  0  0  0  0  0  0  0  0  0  0  0
   -4.0732    0.1242    1.1843 C   0  0  0  0  0  0  0  0  0  0  0  0
   -4.2736    1.3178    0.4672 O   0  0  0  0  0  0  0  0  0  0  0  0
   -3.1568    2.4968    0.8636 P   0  0  0  0  0  0  0  0  0  0  0  0
   -3.8916    3.8035    1.0568 O   0  0  0  0  0  0  0  0  0  0  0  0
   -1.9852    2.7449   -0.3240 O   0  0  0  0  0  0  0  0  0  0  0  0
   -0.6472    1.7679   -0.1258 P   0  0  0  0  0  0  0  0  0  0  0  0
    0.5083    2.4676   -0.8432 O   0  0  0  0  0  0  0  0  0  0  0  0
   -0.2003    1.6060    1.4960 O   0  0  0  0  0  0  0  0  0  0  0  0
    1.3002    0.8968    1.6744 P   0  0  0  0  0  0  0  0  0  0  0  0
    2.2106    1.3258    0.5569 O   0  0  0  0  0  0  0  0  0  0  0  0
    1.2026   -0.7897    1.8026 O   0  0  0  0  0  0  0  0  0  0  0  0
    2.7744   -1.3638    2.0494 P   0  0  0  0  0  0  0  0  0  0  0  0
    3.1090   -1.0855    3.5116 O   0  0  0  0  0  0  0  0  0  0  0  0
    3.8021   -0.4360    1.0770 O   0  0  0  0  0  0  0  0  0  0  0  0
    4.2616   -1.2572    0.0414 C   0  0  0  0  0  0  0  0  0  0  0  0
    5.1760   -0.3867   -0.7943 C   0  0  1  0  0  0  0  0  0  0  0  0
    6.2095    0.0470    0.0338 O   0  0  0  0  0  0  0  0  0  0  0  0
    7.1612    0.5203   -0.8380 C   0  0  2  0  0  0  0  0  0  0  0  0
    7.1218   -0.3010   -2.0872 C   0  0  1  0  0  0  0  0  0  0  0  0
    5.9160   -1.1874   -1.8380 C   0  0  2  0  0  0  0  0  0  0  0  0
    5.1517   -1.3598   -2.9893 O   0  0  0  0  0  0  0  0  0  0  0  0
    6.8553    0.4593   -3.2228 O   0  0  0  0  0  0  0  0  0  0  0  0
    8.4558    0.5524   -0.1890 N   0  0  0  0  0  0  0  0  0  0  0  0
    9.0576    1.7116    0.1588 C   0  0  0  0  0  0  0  0  0  0  0  0
   10.2956    1.7325    0.7791 C   0  0  0  0  0  0  0  0  0  0  0  0
   10.9475    0.5331    1.0570 C   0  0  0  0  0  0  0  0  0  0  0  0
   12.0729    0.5581    1.6211 O   0  0  0  0  0  0  0  0  0  0  0  0
   10.3206   -0.5971    0.6978 N   0  0  0  0  0  0  0  0  0  0  0  0
    9.1146   -0.5875    0.0947 C   0  0  0  0  0  0  0  0  0  0  0  0
    8.6260   -1.7094   -0.1950 O   0  0  0  0  0  0  0  0  0  0  0  0
    2.8967   -3.0068    1.6764 O   0  0  0  0  0  0  0  0  0  0  0  0
    1.9856    1.4810    3.1121 O   0  0  0  0  0  0  0  0  0  0  0  0
   -0.8247    0.2684   -0.8863 O   0  0  0  0  0  0  0  0  0  0  0  0
   -2.4660    2.1027    2.3533 O   0  0  0  0  0  0  0  0  0  0  0  0
  -12.8999    1.5545    0.7309 H   0  0  0  0  0  0  0  0  0  0  0  0
  -12.2926    2.4391   -0.7315 H   0  0  0  0  0  0  0  0  0  0  0  0
  -11.1429    0.1521   -1.9056 H   0  0  0  0  0  0  0  0  0  0  0  0
   -8.9483   -1.0377   -1.7974 H   0  0  0  0  0  0  0  0  0  0  0  0
   -7.3664   -1.9549    0.6482 H   0  0  0  0  0  0  0  0  0  0  0  0
   -5.0571   -1.8192    1.2249 H   0  0  0  0  0  0  0  0  0  0  0  0
   -4.6462   -0.0941   -1.2815 H   0  0  0  0  0  0  0  0  0  0  0  0
   -6.8860   -0.2061   -1.8211 H   0  0  0  0  0  0  0  0  0  0  0  0
   -6.7553   -1.9921   -1.6495 H   0  0  0  0  0  0  0  0  0  0  0  0
   -4.8754   -2.8345   -0.6144 H   0  0  0  0  0  0  0  0  0  0  0  0
   -3.1021   -0.3559    0.9429 H   0  0  0  0  0  0  0  0  0  0  0  0
   -4.0857    0.2886    2.2671 H   0  0  0  0  0  0  0  0  0  0  0  0
    3.4008   -1.6592   -0.5068 H   0  0  0  0  0  0  0  0  0  0  0  0
    4.8689   -2.0394    0.5343 H   0  0  0  0  0  0  0  0  0  0  0  0
    4.6374    0.4879   -1.2128 H   0  0  0  0  0  0  0  0  0  0  0  0
    6.9111    1.5748   -1.1253 H   0  0  0  0  0  0  0  0  0  0  0  0
    8.0468   -0.8623   -2.2995 H   0  0  0  0  0  0  0  0  0  0  0  0
    6.1873   -2.1599   -1.3842 H   0  0  0  0  0  0  0  0  0  0  0  0
    5.6779   -1.9235   -3.6084 H   0  0  0  0  0  0  0  0  0  0  0  0
    6.7746    1.4038   -2.9484 H   0  0  0  0  0  0  0  0  0  0  0  0
    8.5466    2.6309   -0.0598 H   0  0  0  0  0  0  0  0  0  0  0  0
   10.7570    2.6742    1.0480 H   0  0  0  0  0  0  0  0  0  0  0  0
   10.8112   -1.4914    0.9070 H   0  0  0  0  0  0  0  0  0  0  0  0
  1  2  1  0
  2  3  1  0
  3  4  2  0
  4  5  1  0
  5  6  1  0
  6  7  2  0
  6  8  1  0
  5  9  1  0
  9 10  1  0
 10 11  1  0
 11 12  1  0
 12 13  1  0
 12 14  1  0
 11 15  1  0
 15 16  1  0
 16 17  1  0
 17 18  2  0
 17 19  1  0
 19 20  1  0
 20 21  2  0
 20 22  1  0
 22 23  1  0
 23 24  2  0
 23 25  1  0
 25 26  1  0
 26 27  2  0
 26 28  1  0
 28 29  1  0
 29 30  1  0
 30 31  1  0
 31 32  1  0
 32 33  1  0
 33 34  1  0
 34 35  1  0
 33 36  1  0
 32 37  1  0
 37 38  1  0
 38 39  2  0
 39 40  1  0
 40 41  2  0
 40 42  1  0
 42 43  1  0
 43 44  2  0
 26 45  1  0
 23 46  1  0
 20 47  1  0
 17 48  1  0
  8  2  2  0
 13  9  1  0
 34 30  1  0
 43 37  1  0
  1 49  1  0
  1 50  1  0
  3 51  1  0
  4 52  1  0
  9 53  1  1
 11 54  1  1
 12 55  1  6
 13 56  1  0
 13 57  1  0
 14 58  1  0
 15 59  1  0
 15 60  1  0
 29 61  1  0
 29 62  1  0
 30 63  1  6
 32 64  1  6
 33 65  1  6
 34 66  1  1
 35 67  1  0
 36 68  1  0
 38 69  1  0
 39 70  1  0
 42 71  1  0
M  CHG  4  45  -1  46  -1  47  -1  48  -1
M  END
>  <Ligand ID>  (1) 
LIG0002347

>  <Ligand>  (1) 
CHEMBL1767407

>  <SMILES>  (1) 
Nc1ccn(c(=O)n1)[C@@H]1O[C@@H]([C@H](C1)O)COP(=O)(OP(=O)(OP(=O)(OP(=O)(OC[C@H]1O[C@H]([C@@H]([C@@H]1O)O)n1ccc(=O)[nH]c1=O)[O-])[O-])[O-])[O-]

>  <CID>  (1) 
91932424.0

>  <ChEMBL ID>  (1) 
nan

>  <InChiKey>  (1) 
FPNPSEMJLALQSA-MIYUEGBISA-J

>  <InChi>  (1) 
InChI=1S/C18H27N5O21P4/c19-11-1-3-22(17(28)20-11)13-5-8(24)9(40-13)6-38-45(30,31)42-47(34,35)44-48(36,37)43-46(32,33)39-7-10-14(26)15(27)16(41-10)23-4-2-12(25)21-18(23)29/h1-4,8-10,13-16,24,26-27H,5-7H2,(H,30,31)(H,32,33)(H,34,35)(H,36,37)(H2,19,20,28)(H,21,25,29)/p-4/t8-,9+,10+,13+,14+,15+,16+/m0/s1

>  <IUPAC Name>  (1) 
[[(2R,3S,5R)-5-(4-amino-2-oxopyrimidin-1-yl)-3-hydroxyoxolan-2-yl]methoxy-oxidophosphoryl] [[[(2R,3S,4R,5R)-5-(2,4-dioxopyrimidin-1-yl)-3,4-dihydroxyoxolan-2-yl]methoxy-oxidophosphoryl]oxy-oxidophosphoryl] phosphate

$$$$
