
     RDKit          3D

124126  0  0  0  0  0  0  0  0999 V2000
   10.1883   -4.6040   -0.2644 N   0  0  0  0  0  0  0  0  0  0  0  0
    9.7830   -3.2054   -0.4337 C   0  0  0  0  0  0  0  0  0  0  0  0
    9.3793   -2.5844    0.8689 C   0  0  0  0  0  0  0  0  0  0  0  0
    8.9618   -1.1227    0.6572 C   0  0  1  0  0  0  0  0  0  0  0  0
   10.1509   -0.4346    0.0917 C   0  0  0  0  0  0  0  0  0  0  0  0
   10.1220    0.1217   -1.0400 O   0  0  0  0  0  0  0  0  0  0  0  0
   11.3296   -0.4324    0.8893 N   0  0  0  0  0  0  0  0  0  0  0  0
   12.5380    0.2133    0.4200 C   0  0  0  0  0  0  0  0  0  0  0  0
   12.3519    1.6496    0.1665 C   0  0  0  0  0  0  0  0  0  0  0  0
   13.3212    2.3327   -0.2449 O   0  0  0  0  0  0  0  0  0  0  0  0
   11.1111    2.3210    0.3653 N   0  0  0  0  0  0  0  0  0  0  0  0
    7.8696   -1.0363   -0.2717 N   0  0  0  0  0  0  0  0  0  0  0  0
    6.6024   -0.4423    0.0791 C   0  0  0  0  0  0  0  0  0  0  0  0
    6.4449    0.0198    1.2304 O   0  0  0  0  0  0  0  0  0  0  0  0
    5.5780   -0.4392   -0.9902 C   0  0  2  0  0  0  0  0  0  0  0  0
    5.9191    0.4985   -2.1013 C   0  0  0  0  0  0  0  0  0  0  0  0
    5.0202    1.7014   -1.8645 C   0  0  0  0  0  0  0  0  0  0  0  0
    3.7204    1.0299   -1.3602 C   0  0  0  0  0  0  0  0  0  0  0  0
    4.2589   -0.0074   -0.5132 N   0  0  0  0  0  0  0  0  0  0  0  0
    3.7015   -0.6430    0.6353 C   0  0  0  0  0  0  0  0  0  0  0  0
    4.4461   -1.5912    1.1664 O   0  0  0  0  0  0  0  0  0  0  0  0
    2.4579   -0.4508    1.3381 C   0  0  2  0  0  0  0  0  0  0  0  0
    1.7365   -1.8173    1.3733 C   0  0  0  0  0  0  0  0  0  0  0  0
    1.2861   -2.4740   -0.2069 S   0  0  0  0  0  0  0  0  0  0  0  0
    0.5836   -4.4801    0.1243 S   0  0  0  0  0  0  0  0  0  0  0  0
   -1.1761   -4.5350    0.4427 C   0  0  0  0  0  0  0  0  0  0  0  0
   -1.9251   -4.1530   -0.8158 C   0  0  2  0  0  0  0  0  0  0  0  0
   -1.5156   -2.8322   -1.2673 N   0  0  0  0  0  0  0  0  0  0  0  0
   -3.4095   -4.1160   -0.5049 C   0  0  0  0  0  0  0  0  0  0  0  0
   -4.0116   -5.1100   -0.0948 O   0  0  0  0  0  0  0  0  0  0  0  0
   -4.1687   -2.9348   -0.6732 N   0  0  0  0  0  0  0  0  0  0  0  0
   -5.5844   -2.7772   -0.4122 C   0  0  0  0  0  0  0  0  0  0  0  0
   -5.9386   -2.8104    1.0389 C   0  0  0  0  0  0  0  0  0  0  0  0
   -6.7016   -4.1042    0.8280 C   0  0  0  0  0  0  0  0  0  0  0  0
   -6.4551   -3.9772   -0.6403 C   0  0  0  0  0  0  0  0  0  0  0  0
   -6.0730   -1.5479   -1.1556 C   0  0  0  0  0  0  0  0  0  0  0  0
   -6.3388   -1.5702   -2.3602 O   0  0  0  0  0  0  0  0  0  0  0  0
   -6.2534   -0.2901   -0.5011 N   0  0  0  0  0  0  0  0  0  0  0  0
   -6.6968    0.8560   -1.2841 C   0  0  2  0  0  0  0  0  0  0  0  0
   -5.7897    2.0163   -1.2042 C   0  0  0  0  0  0  0  0  0  0  0  0
   -5.9649    2.9835   -1.9469 O   0  0  0  0  0  0  0  0  0  0  0  0
   -4.6789    2.1232   -0.2969 N   0  0  0  0  0  0  0  0  0  0  0  0
   -3.8645    3.3159   -0.3701 C   0  0  2  0  0  0  0  0  0  0  0  0
   -2.4465    3.1475   -0.0473 C   0  0  0  0  0  0  0  0  0  0  0  0
   -1.6526    4.0589   -0.3170 O   0  0  0  0  0  0  0  0  0  0  0  0
   -1.8637    1.9943    0.5813 N   0  0  0  0  0  0  0  0  0  0  0  0
   -0.4408    2.0169    0.7739 C   0  0  2  0  0  0  0  0  0  0  0  0
    0.2021    0.7116    0.9788 C   0  0  0  0  0  0  0  0  0  0  0  0
   -0.4191   -0.3336    1.0805 O   0  0  0  0  0  0  0  0  0  0  0  0
    1.6198    0.6496    1.0580 N   0  0  0  0  0  0  0  0  0  0  0  0
   -0.2293    2.8819    2.0416 C   0  0  0  0  0  0  0  0  0  0  0  0
   -0.9054    2.2483    3.1688 C   0  0  0  0  0  0  0  0  0  0  0  0
   -1.1116    2.9995    4.1932 O   0  0  0  0  0  0  0  0  0  0  0  0
   -1.3582    0.9299    3.2891 N   0  0  0  0  0  0  0  0  0  0  0  0
   -4.4096    4.1882    0.8075 C   0  0  0  0  0  0  0  0  0  0  0  0
   -5.8564    4.5113    0.6473 C   0  0  0  0  0  0  0  0  0  0  0  0
   -6.2588    5.3221    1.8361 C   0  0  0  0  0  0  0  0  0  0  0  0
   -5.4711    5.6159    2.7518 O   0  0  0  0  0  0  0  0  0  0  0  0
   -7.6159    5.7982    1.9527 N   0  0  0  0  0  0  0  0  0  0  0  0
   -8.0546    1.3098   -0.7635 C   0  0  2  0  0  0  0  0  0  0  0  0
   -9.0689    0.2138   -0.8861 C   0  0  0  0  0  0  0  0  0  0  0  0
   -9.2953   -0.2464   -2.2847 C   0  0  0  0  0  0  0  0  0  0  0  0
   -8.5101    2.4729   -1.6238 C   0  0  0  0  0  0  0  0  0  0  0  0
    9.6766   -5.0841    0.5018 H   0  0  0  0  0  0  0  0  0  0  0  0
   10.1401   -5.1196   -1.1712 H   0  0  0  0  0  0  0  0  0  0  0  0
   10.6100   -2.6863   -0.9395 H   0  0  0  0  0  0  0  0  0  0  0  0
    8.8873   -3.2634   -1.1147 H   0  0  0  0  0  0  0  0  0  0  0  0
    8.4855   -3.1344    1.2395 H   0  0  0  0  0  0  0  0  0  0  0  0
   10.1930   -2.5868    1.6008 H   0  0  0  0  0  0  0  0  0  0  0  0
    8.7329   -0.6731    1.6383 H   0  0  0  0  0  0  0  0  0  0  0  0
   11.3465   -0.8928    1.8200 H   0  0  0  0  0  0  0  0  0  0  0  0
   13.3840    0.0767    1.0941 H   0  0  0  0  0  0  0  0  0  0  0  0
   12.8267   -0.2724   -0.5572 H   0  0  0  0  0  0  0  0  0  0  0  0
   10.6003    2.0775    1.2499 H   0  0  0  0  0  0  0  0  0  0  0  0
   10.7649    2.9931   -0.3295 H   0  0  0  0  0  0  0  0  0  0  0  0
    8.0226   -1.4238   -1.2290 H   0  0  0  0  0  0  0  0  0  0  0  0
    5.4359   -1.4904   -1.3483 H   0  0  0  0  0  0  0  0  0  0  0  0
    5.7954    0.0726   -3.1219 H   0  0  0  0  0  0  0  0  0  0  0  0
    6.9926    0.8178   -1.9458 H   0  0  0  0  0  0  0  0  0  0  0  0
    4.8625    2.2382   -2.8080 H   0  0  0  0  0  0  0  0  0  0  0  0
    5.4482    2.3309   -1.0705 H   0  0  0  0  0  0  0  0  0  0  0  0
    3.3133    0.4965   -2.2593 H   0  0  0  0  0  0  0  0  0  0  0  0
    3.0549    1.7522   -0.9457 H   0  0  0  0  0  0  0  0  0  0  0  0
    2.6621   -0.3610    2.4789 H   0  0  0  0  0  0  0  0  0  0  0  0
    0.9152   -1.7513    2.0798 H   0  0  0  0  0  0  0  0  0  0  0  0
    2.4808   -2.5268    1.8773 H   0  0  0  0  0  0  0  0  0  0  0  0
   -1.4903   -3.9087    1.3007 H   0  0  0  0  0  0  0  0  0  0  0  0
   -1.4605   -5.5780    0.6787 H   0  0  0  0  0  0  0  0  0  0  0  0
   -1.8054   -4.8791   -1.6275 H   0  0  0  0  0  0  0  0  0  0  0  0
   -2.0232   -2.5844   -2.1363 H   0  0  0  0  0  0  0  0  0  0  0  0
   -1.6925   -2.1045   -0.5471 H   0  0  0  0  0  0  0  0  0  0  0  0
   -3.6521   -2.1201   -1.0130 H   0  0  0  0  0  0  0  0  0  0  0  0
   -5.0937   -2.9976    1.7293 H   0  0  0  0  0  0  0  0  0  0  0  0
   -6.5430   -1.9873    1.4503 H   0  0  0  0  0  0  0  0  0  0  0  0
   -7.7997   -3.9926    1.0679 H   0  0  0  0  0  0  0  0  0  0  0  0
   -6.3187   -4.9834    1.3513 H   0  0  0  0  0  0  0  0  0  0  0  0
   -7.3818   -3.6596   -1.2139 H   0  0  0  0  0  0  0  0  0  0  0  0
   -6.0162   -4.8395   -1.1715 H   0  0  0  0  0  0  0  0  0  0  0  0
   -6.0514   -0.2860    0.4947 H   0  0  0  0  0  0  0  0  0  0  0  0
   -6.7714    0.5630   -2.3474 H   0  0  0  0  0  0  0  0  0  0  0  0
   -4.5654    1.3337    0.3278 H   0  0  0  0  0  0  0  0  0  0  0  0
   -4.0789    3.9169   -1.2734 H   0  0  0  0  0  0  0  0  0  0  0  0
   -2.5297    1.2691    0.8225 H   0  0  0  0  0  0  0  0  0  0  0  0
    0.0316    2.5754   -0.0762 H   0  0  0  0  0  0  0  0  0  0  0  0
    2.0712    1.5784    0.9278 H   0  0  0  0  0  0  0  0  0  0  0  0
   -0.7537    3.8351    1.8180 H   0  0  0  0  0  0  0  0  0  0  0  0
    0.8592    3.0429    2.1964 H   0  0  0  0  0  0  0  0  0  0  0  0
   -0.6745    0.2331    3.7160 H   0  0  0  0  0  0  0  0  0  0  0  0
   -2.2722    0.5415    3.0264 H   0  0  0  0  0  0  0  0  0  0  0  0
   -4.2533    3.6911    1.7670 H   0  0  0  0  0  0  0  0  0  0  0  0
   -3.8419    5.1336    0.8431 H   0  0  0  0  0  0  0  0  0  0  0  0
   -6.4721    3.6011    0.6749 H   0  0  0  0  0  0  0  0  0  0  0  0
   -6.0449    5.1139   -0.2682 H   0  0  0  0  0  0  0  0  0  0  0  0
   -8.0357    6.4324    1.2165 H   0  0  0  0  0  0  0  0  0  0  0  0
   -8.1890    5.5095    2.7823 H   0  0  0  0  0  0  0  0  0  0  0  0
   -7.9105    1.5939    0.2792 H   0  0  0  0  0  0  0  0  0  0  0  0
   -8.8448   -0.6202   -0.1812 H   0  0  0  0  0  0  0  0  0  0  0  0
  -10.0338    0.6461   -0.4988 H   0  0  0  0  0  0  0  0  0  0  0  0
   -9.0633   -1.3173   -2.4519 H   0  0  0  0  0  0  0  0  0  0  0  0
   -8.6821    0.3271   -2.9853 H   0  0  0  0  0  0  0  0  0  0  0  0
  -10.3852   -0.1523   -2.5483 H   0  0  0  0  0  0  0  0  0  0  0  0
   -9.6319    2.5583   -1.5987 H   0  0  0  0  0  0  0  0  0  0  0  0
   -8.2491    2.3359   -2.6787 H   0  0  0  0  0  0  0  0  0  0  0  0
   -8.1506    3.4393   -1.1916 H   0  0  0  0  0  0  0  0  0  0  0  0
  1  2  1  0
  2  3  1  0
  3  4  1  0
  4  5  1  0
  5  6  2  0
  5  7  1  0
  7  8  1  0
  8  9  1  0
  9 10  2  0
  9 11  1  0
  4 12  1  0
 12 13  1  0
 13 14  2  0
 13 15  1  0
 15 16  1  0
 16 17  1  0
 17 18  1  0
 18 19  1  0
 19 20  1  0
 20 21  2  0
 20 22  1  0
 22 23  1  0
 23 24  1  0
 24 25  1  0
 25 26  1  0
 26 27  1  0
 27 28  1  0
 27 29  1  0
 29 30  2  0
 29 31  1  0
 31 32  1  0
 32 33  1  0
 33 34  1  0
 34 35  1  0
 32 36  1  0
 36 37  2  0
 36 38  1  0
 38 39  1  0
 39 40  1  0
 40 41  2  0
 40 42  1  0
 42 43  1  0
 43 44  1  0
 44 45  2  0
 44 46  1  0
 46 47  1  0
 47 48  1  0
 48 49  2  0
 48 50  1  0
 47 51  1  0
 51 52  1  0
 52 53  2  0
 52 54  1  0
 43 55  1  0
 55 56  1  0
 56 57  1  0
 57 58  2  0
 57 59  1  0
 39 60  1  0
 60 61  1  0
 61 62  1  0
 60 63  1  0
 19 15  1  0
 50 22  1  0
 35 32  1  0
  1 64  1  0
  1 65  1  0
  2 66  1  0
  2 67  1  0
  3 68  1  0
  3 69  1  0
  4 70  1  1
  7 71  1  0
  8 72  1  0
  8 73  1  0
 11 74  1  0
 11 75  1  0
 12 76  1  0
 15 77  1  6
 16 78  1  0
 16 79  1  0
 17 80  1  0
 17 81  1  0
 18 82  1  0
 18 83  1  0
 22 84  1  1
 23 85  1  0
 23 86  1  0
 26 87  1  0
 26 88  1  0
 27 89  1  6
 28 90  1  0
 28 91  1  0
 31 92  1  0
 33 93  1  0
 33 94  1  0
 34 95  1  0
 34 96  1  0
 35 97  1  0
 35 98  1  0
 38 99  1  0
 39100  1  6
 42101  1  0
 43102  1  6
 46103  1  0
 47104  1  6
 50105  1  0
 51106  1  0
 51107  1  0
 54108  1  0
 54109  1  0
 55110  1  0
 55111  1  0
 56112  1  0
 56113  1  0
 59114  1  0
 59115  1  0
 60116  1  1
 61117  1  0
 61118  1  0
 62119  1  0
 62120  1  0
 62121  1  0
 63122  1  0
 63123  1  0
 63124  1  0
M  END
>  <Ligand ID>  (1) 
LIG0003540

>  <Ligand>  (1) 
CHEMBL1819556

>  <SMILES>  (1) 
NCC[C@@H](C(=O)NCC(=O)N)NC(=O)[C@@H]1CCCN1C(=O)[C@@H]1CSSC[C@H](N)C(=O)NC2(CCC2)C(=O)N[C@H](C(=O)N[C@H](C(=O)N[C@H](C(=O)N1)CC(=O)N)CCC(=O)N)[C@H](CC)C

>  <CID>  (1) 
53363015.0

>  <ChEMBL ID>  (1) 
nan

>  <InChiKey>  (1) 
CTMKIFQNZSFCLV-YKRQYRESSA-N

>  <InChi>  (1) 
InChI=1S/C37H61N13O11S2/c1-3-18(2)28-34(59)45-20(7-8-25(40)51)31(56)46-22(14-26(41)52)32(57)47-23(17-63-62-16-19(39)29(54)49-37(10-5-11-37)36(61)48-28)35(60)50-13-4-6-24(50)33(58)44-21(9-12-38)30(55)43-15-27(42)53/h18-24,28H,3-17,38-39H2,1-2H3,(H2,40,51)(H2,41,52)(H2,42,53)(H,43,55)(H,44,58)(H,45,59)(H,46,56)(H,47,57)(H,48,61)(H,49,54)/t18-,19-,20-,21-,22-,23-,24-,28-/m0/s1

>  <IUPAC Name>  (1) 
(2S)-N-[(2S)-4-amino-1-[(2-amino-2-oxoethyl)amino]-1-oxobutan-2-yl]-1-[(7R,12R,15S,18S,21S)-7-amino-15-(2-amino-2-oxoethyl)-18-(3-amino-3-oxopropyl)-21-[(2S)-butan-2-yl]-6,14,17,20,23-pentaoxo-9,10-dithia-5,13,16,19,22-pentazaspiro[3.19]tricosane-12-carbonyl]pyrrolidine-2-carboxamide

$$$$
