
     RDKit          3D

 20 20  0  0  0  0  0  0  0  0999 V2000
    3.8071   -0.6880    1.0355 O   0  0  0  0  0  0  0  0  0  0  0  0
    3.2596    0.0411   -0.0441 C   0  0  0  0  0  0  0  0  0  0  0  0
    1.8119   -0.2824   -0.0984 C   0  0  0  0  0  0  0  0  0  0  0  0
    0.8725    0.6211    0.0273 C   0  0  0  0  0  0  0  0  0  0  0  0
   -0.5579    0.3335   -0.0217 C   0  0  0  0  0  0  0  0  0  0  0  0
   -1.0652   -0.9351   -0.2076 C   0  0  0  0  0  0  0  0  0  0  0  0
   -2.4281   -1.1989   -0.2529 C   0  0  0  0  0  0  0  0  0  0  0  0
   -3.2836   -0.1293   -0.1029 C   0  0  0  0  0  0  0  0  0  0  0  0
   -2.8379    1.1635    0.0861 C   0  0  0  0  0  0  0  0  0  0  0  0
   -1.4753    1.3532    0.1207 C   0  0  0  0  0  0  0  0  0  0  0  0
    4.1779   -1.5406    0.7275 H   0  0  0  0  0  0  0  0  0  0  0  0
    3.4460    1.1090    0.1909 H   0  0  0  0  0  0  0  0  0  0  0  0
    3.7976   -0.2033   -0.9929 H   0  0  0  0  0  0  0  0  0  0  0  0
    1.5529   -1.3198   -0.2497 H   0  0  0  0  0  0  0  0  0  0  0  0
    1.1915    1.6464    0.1772 H   0  0  0  0  0  0  0  0  0  0  0  0
   -0.4151   -1.7792   -0.3261 H   0  0  0  0  0  0  0  0  0  0  0  0
   -2.8166   -2.2012   -0.3997 H   0  0  0  0  0  0  0  0  0  0  0  0
   -4.3580   -0.3446   -0.1397 H   0  0  0  0  0  0  0  0  0  0  0  0
   -3.5524    1.9879    0.2014 H   0  0  0  0  0  0  0  0  0  0  0  0
   -1.1269    2.3667    0.2690 H   0  0  0  0  0  0  0  0  0  0  0  0
  1  2  1  0
  2  3  1  0
  3  4  2  0
  4  5  1  0
  5  6  2  0
  6  7  1  0
  7  8  2  0
  8  9  1  0
  9 10  2  0
 10  5  1  0
  1 11  1  0
  2 12  1  0
  2 13  1  0
  3 14  1  0
  4 15  1  0
  6 16  1  0
  7 17  1  0
  8 18  1  0
  9 19  1  0
 10 20  1  0
M  END
>  <Ligand ID>  (1) 
LIG0000155

>  <Ligand>  (1) 
Cinnamyl alcohol

>  <SMILES>  (1) 
OC/C=C/c1ccccc1

>  <CID>  (1) 
5315892.0

>  <ChEMBL ID>  (1) 
nan

>  <InChiKey>  (1) 
OOCCDEMITAIZTP-QPJJXVBHSA-N

>  <InChi>  (1) 
InChI=1S/C9H10O/c10-8-4-7-9-5-2-1-3-6-9/h1-7,10H,8H2/b7-4+

>  <IUPAC Name>  (1) 
(E)-3-phenylprop-2-en-1-ol

$$$$
