
     RDKit          3D

 42 41  0  0  0  0  0  0  0  0999 V2000
    2.2853   -1.3285    0.1022 O   0  0  0  0  0  0  0  0  0  0  0  0
    1.3846   -0.7422   -0.7937 C   0  0  0  0  0  0  0  0  0  0  0  0
    1.0975   -1.3092   -1.8868 O   0  0  0  0  0  0  0  0  0  0  0  0
    0.7755    0.5534   -0.4367 C   0  0  0  0  0  0  0  0  0  0  0  0
   -0.7402    0.4944   -0.4600 C   0  0  0  0  0  0  0  0  0  0  0  0
   -1.2714   -0.5464    0.4397 C   0  0  0  0  0  0  0  0  0  0  0  0
   -0.8370   -1.7330    0.2932 O   0  0  0  0  0  0  0  0  0  0  0  0
   -2.2142   -0.3061    1.4327 O   0  0  0  0  0  0  0  0  0  0  0  0
   -1.2698    1.7566   -0.2281 O   0  0  0  0  0  0  0  0  0  0  0  0
    1.2250    1.0091    0.8117 O   0  0  0  0  0  0  0  0  0  0  0  0
   -3.8563    0.4232   -0.2245 C   0  0  0  0  0  0  0  0  0  0  0  0
   -3.1074   -0.7243   -0.6127 N   0  0  0  0  0  0  0  0  0  0  0  0
   -1.7314   -0.4675   -0.8737 C   0  0  0  0  0  0  0  0  0  0  0  0
   -0.9926   -0.1144    0.3860 C   0  0  1  0  0  0  0  0  0  0  0  0
    0.4851    0.0223    0.1192 C   0  0  0  0  0  0  0  0  0  0  0  0
    0.9897    1.1716   -0.4216 C   0  0  0  0  0  0  0  0  0  0  0  0
    2.3647    1.2579   -0.6567 C   0  0  0  0  0  0  0  0  0  0  0  0
    3.1935    0.2012   -0.3473 C   0  0  0  0  0  0  0  0  0  0  0  0
    2.6874   -0.9558    0.1969 C   0  0  0  0  0  0  0  0  0  0  0  0
    1.3393   -1.0335    0.4247 C   0  0  0  0  0  0  0  0  0  0  0  0
    3.5249   -2.0323    0.5128 O   0  0  0  0  0  0  0  0  0  0  0  0
    4.5738    0.3100   -0.5919 O   0  0  0  0  0  0  0  0  0  0  0  0
   -1.5201    1.0192    0.9707 O   0  0  0  0  0  0  0  0  0  0  0  0
    2.7305   -2.1757   -0.2283 H   0  0  0  0  0  0  0  0  0  0  0  0
    1.1522    1.2825   -1.1835 H   0  0  0  0  0  0  0  0  0  0  0  0
   -1.0091    0.2322   -1.5072 H   0  0  0  0  0  0  0  0  0  0  0  0
   -2.3123   -0.9255    2.2498 H   0  0  0  0  0  0  0  0  0  0  0  0
   -1.8844    1.7903    0.5297 H   0  0  0  0  0  0  0  0  0  0  0  0
    0.8876    1.9480    0.8651 H   0  0  0  0  0  0  0  0  0  0  0  0
   -3.4633    1.3185   -0.7764 H   0  0  0  0  0  0  0  0  0  0  0  0
   -4.9349    0.2945   -0.4639 H   0  0  0  0  0  0  0  0  0  0  0  0
   -3.7864    0.5868    0.8489 H   0  0  0  0  0  0  0  0  0  0  0  0
   -3.2917   -1.5630   -0.0506 H   0  0  0  0  0  0  0  0  0  0  0  0
   -1.2194   -1.3201   -1.3892 H   0  0  0  0  0  0  0  0  0  0  0  0
   -1.6747    0.4368   -1.5271 H   0  0  0  0  0  0  0  0  0  0  0  0
   -1.1299   -0.9687    1.1035 H   0  0  0  0  0  0  0  0  0  0  0  0
    0.3822    2.0174   -0.6782 H   0  0  0  0  0  0  0  0  0  0  0  0
    2.8186    2.1483   -1.0837 H   0  0  0  0  0  0  0  0  0  0  0  0
    0.9689   -1.9597    0.8552 H   0  0  0  0  0  0  0  0  0  0  0  0
    3.6585   -2.7935   -0.1428 H   0  0  0  0  0  0  0  0  0  0  0  0
    5.0971    0.9660   -0.0390 H   0  0  0  0  0  0  0  0  0  0  0  0
   -1.3758    1.7592    0.3157 H   0  0  0  0  0  0  0  0  0  0  0  0
  1  2  1  0
  2  3  2  0
  2  4  1  0
  4  5  1  0
  5  6  1  0
  6  7  2  0
  6  8  1  0
  5  9  1  0
  4 10  1  0
 11 12  1  0
 12 13  1  0
 13 14  1  0
 14 15  1  0
 15 16  2  0
 16 17  1  0
 17 18  2  0
 18 19  1  0
 19 20  2  0
 19 21  1  0
 18 22  1  0
 14 23  1  0
 20 15  1  0
  1 24  1  0
  4 25  1  0
  5 26  1  0
  8 27  1  0
  9 28  1  0
 10 29  1  0
 11 30  1  0
 11 31  1  0
 11 32  1  0
 12 33  1  0
 13 34  1  0
 13 35  1  0
 14 36  1  1
 16 37  1  0
 17 38  1  0
 20 39  1  0
 21 40  1  0
 22 41  1  0
 23 42  1  0
M  END
>  <Ligand ID>  (1) 
LIG0004682

>  <Ligand>  (1) 
Adrenaline bitartrate

>  <SMILES>  (1) 
OC(=O)C(C(C(=O)O)O)O.CNC[C@@H](c1ccc(c(c1)O)O)O

>  <CID>  (1) 
6852374.0

>  <ChEMBL ID>  (1) 
nan

>  <InChiKey>  (1) 
YLXIPWWIOISBDD-FVGYRXGTSA-N

>  <InChi>  (1) 
InChI=1S/C9H13NO3.C4H6O6/c1-10-5-9(13)6-2-3-7(11)8(12)4-6;5-1(3(7)8)2(6)4(9)10/h2-4,9-13H,5H2,1H3;1-2,5-6H,(H,7,8)(H,9,10)/t9-;/m0./s1

>  <IUPAC Name>  (1) 
2,3-dihydroxybutanedioic acid;4-[(1R)-1-hydroxy-2-(methylamino)ethyl]benzene-1,2-diol

$$$$
