
     RDKit          3D

 60 62  0  0  0  0  0  0  0  0999 V2000
   -6.9354    2.4326   -0.7449 O   0  0  0  0  0  0  0  0  0  0  0  0
   -6.1423    2.3405    0.3918 C   0  0  0  0  0  0  0  0  0  0  0  0
   -5.0891    1.2059    0.2243 C   0  0  0  0  0  0  0  0  0  0  0  0
   -5.9220   -0.0761    0.1035 C   0  0  0  0  0  0  0  0  0  0  0  0
   -5.1088   -1.1542    0.0184 O   0  0  0  0  0  0  0  0  0  0  0  0
   -5.9703   -2.6028   -0.1175 P   0  0  0  0  0  0  0  0  0  0  0  0
   -5.0395   -3.7866   -0.0888 O   0  0  0  0  0  0  0  0  0  0  0  0
   -6.8113   -2.6444   -1.5838 O   0  0  0  0  0  0  0  0  0  0  0  0
   -7.0923   -2.7899    1.1426 O   0  0  0  0  0  0  0  0  0  0  0  0
   -4.3948    1.4733   -1.0566 C   0  0  0  0  0  0  0  0  0  0  0  0
   -3.2877    0.5698   -1.4491 C   0  0  0  0  0  0  0  0  0  0  0  0
   -2.1175    0.5492   -0.5709 C   0  0  0  0  0  0  0  0  0  0  0  0
   -1.1209    1.4946   -0.8206 C   0  0  0  0  0  0  0  0  0  0  0  0
    0.0288    1.5744   -0.0738 C   0  0  0  0  0  0  0  0  0  0  0  0
    0.2533    0.7080    0.9749 C   0  0  0  0  0  0  0  0  0  0  0  0
   -0.7165   -0.2304    1.2366 C   0  0  0  0  0  0  0  0  0  0  0  0
   -1.8848   -0.3052    0.4712 C   0  0  0  0  0  0  0  0  0  0  0  0
    1.4101    0.7760    1.7390 O   0  0  0  0  0  0  0  0  0  0  0  0
    2.5538    0.0605    1.4107 C   0  0  0  0  0  0  0  0  0  0  0  0
    3.6417    0.2253    2.2690 C   0  0  0  0  0  0  0  0  0  0  0  0
    4.8313   -0.4353    2.0431 C   0  0  0  0  0  0  0  0  0  0  0  0
    4.9141   -1.2681    0.9378 C   0  0  0  0  0  0  0  0  0  0  0  0
    3.8329   -1.4292    0.0885 C   0  0  0  0  0  0  0  0  0  0  0  0
    2.6392   -0.7691    0.3113 C   0  0  0  0  0  0  0  0  0  0  0  0
    6.2144   -1.9876    0.6944 C   0  0  0  0  0  0  0  0  0  0  0  0
    7.0812   -1.1287   -0.1679 C   0  0  0  0  0  0  0  0  0  0  0  0
    7.9238   -0.2417    0.5118 C   0  0  0  0  0  0  0  0  0  0  0  0
    8.7670    0.5984   -0.1949 C   0  0  0  0  0  0  0  0  0  0  0  0
    8.7566    0.5397   -1.5919 C   0  0  0  0  0  0  0  0  0  0  0  0
    7.9095   -0.3515   -2.2537 C   0  0  0  0  0  0  0  0  0  0  0  0
    7.0600   -1.1979   -1.5465 C   0  0  0  0  0  0  0  0  0  0  0  0
    9.8327    1.6129   -2.4594 Cl  0  0  0  0  0  0  0  0  0  0  0  0
   -4.2908    1.1285    1.3939 N   0  0  0  0  0  0  0  0  0  0  0  0
   -6.4137    2.9411   -1.4183 H   0  0  0  0  0  0  0  0  0  0  0  0
   -5.5067    3.2482    0.4968 H   0  0  0  0  0  0  0  0  0  0  0  0
   -6.6873    2.1012    1.3050 H   0  0  0  0  0  0  0  0  0  0  0  0
   -6.6190   -0.1394    0.9804 H   0  0  0  0  0  0  0  0  0  0  0  0
   -6.5593    0.0126   -0.8011 H   0  0  0  0  0  0  0  0  0  0  0  0
   -7.2971   -1.7876   -1.6740 H   0  0  0  0  0  0  0  0  0  0  0  0
   -7.6964   -2.0106    1.1999 H   0  0  0  0  0  0  0  0  0  0  0  0
   -5.1743    1.3866   -1.8761 H   0  0  0  0  0  0  0  0  0  0  0  0
   -4.0357    2.5214   -1.1632 H   0  0  0  0  0  0  0  0  0  0  0  0
   -2.9339    0.8850   -2.4698 H   0  0  0  0  0  0  0  0  0  0  0  0
   -3.5988   -0.4976   -1.5985 H   0  0  0  0  0  0  0  0  0  0  0  0
   -1.2355    2.2005   -1.6259 H   0  0  0  0  0  0  0  0  0  0  0  0
    0.7800    2.3376   -0.3139 H   0  0  0  0  0  0  0  0  0  0  0  0
   -0.5584   -0.9236    2.0603 H   0  0  0  0  0  0  0  0  0  0  0  0
   -2.5730   -1.0705    0.7499 H   0  0  0  0  0  0  0  0  0  0  0  0
    3.5807    0.8815    3.1422 H   0  0  0  0  0  0  0  0  0  0  0  0
    5.6732   -0.2965    2.7229 H   0  0  0  0  0  0  0  0  0  0  0  0
    3.9054   -2.0803   -0.7711 H   0  0  0  0  0  0  0  0  0  0  0  0
    1.7728   -0.8791   -0.3428 H   0  0  0  0  0  0  0  0  0  0  0  0
    6.6802   -2.1812    1.6658 H   0  0  0  0  0  0  0  0  0  0  0  0
    6.0126   -2.9718    0.2142 H   0  0  0  0  0  0  0  0  0  0  0  0
    7.9221   -0.2056    1.6084 H   0  0  0  0  0  0  0  0  0  0  0  0
    9.4116    1.2778    0.3474 H   0  0  0  0  0  0  0  0  0  0  0  0
    7.9166   -0.3820   -3.3510 H   0  0  0  0  0  0  0  0  0  0  0  0
    6.3933   -1.8984   -2.0437 H   0  0  0  0  0  0  0  0  0  0  0  0
   -4.1252    2.0800    1.7841 H   0  0  0  0  0  0  0  0  0  0  0  0
   -4.7608    0.5596    2.1313 H   0  0  0  0  0  0  0  0  0  0  0  0
  1  2  1  0
  2  3  1  0
  3  4  1  0
  4  5  1  0
  5  6  1  0
  6  7  2  0
  6  8  1  0
  6  9  1  0
  3 10  1  0
 10 11  1  0
 11 12  1  0
 12 13  2  0
 13 14  1  0
 14 15  2  0
 15 16  1  0
 16 17  2  0
 15 18  1  0
 18 19  1  0
 19 20  2  0
 20 21  1  0
 21 22  2  0
 22 23  1  0
 23 24  2  0
 22 25  1  0
 25 26  1  0
 26 27  2  0
 27 28  1  0
 28 29  2  0
 29 30  1  0
 30 31  2  0
 29 32  1  0
  3 33  1  0
 17 12  1  0
 24 19  1  0
 31 26  1  0
  1 34  1  0
  2 35  1  0
  2 36  1  0
  4 37  1  0
  4 38  1  0
  8 39  1  0
  9 40  1  0
 10 41  1  0
 10 42  1  0
 11 43  1  0
 11 44  1  0
 13 45  1  0
 14 46  1  0
 16 47  1  0
 17 48  1  0
 20 49  1  0
 21 50  1  0
 23 51  1  0
 24 52  1  0
 25 53  1  0
 25 54  1  0
 27 55  1  0
 28 56  1  0
 30 57  1  0
 31 58  1  0
 33 59  1  0
 33 60  1  0
M  END
>  <Ligand ID>  (1) 
LIG0005928

>  <Ligand>  (1) 
CHEMBL3133705

>  <SMILES>  (1) 
OCC(COP(=O)(O)O)(CCc1ccc(cc1)Oc1ccc(cc1)Cc1ccc(cc1)Cl)N

>  <CID>  (1) 
76322127.0

>  <ChEMBL ID>  (1) 
nan

>  <InChiKey>  (1) 
LUGXTNVFSDBPSU-UHFFFAOYSA-N

>  <InChi>  (1) 
InChI=1S/C24H27ClNO6P/c25-21-7-1-19(2-8-21)15-20-5-11-23(12-6-20)32-22-9-3-18(4-10-22)13-14-24(26,16-27)17-31-33(28,29)30/h1-12,27H,13-17,26H2,(H2,28,29,30)

>  <IUPAC Name>  (1) 
[2-amino-4-[4-[4-[(4-chlorophenyl)methyl]phenoxy]phenyl]-2-(hydroxymethyl)butyl] dihydrogen phosphate

$$$$
