
     RDKit          3D

 82 82  0  0  0  0  0  0  0  0999 V2000
   10.4976    0.7750    2.8289 C   0  0  0  0  0  0  0  0  0  0  0  0
   11.2945    0.4014    1.6153 C   0  0  0  0  0  0  0  0  0  0  0  0
   10.6817   -0.7145    0.8090 C   0  0  0  0  0  0  0  0  0  0  0  0
    9.2656   -0.2905    0.3110 C   0  0  0  0  0  0  0  0  0  0  0  0
    8.6735   -1.4103   -0.4862 C   0  0  0  0  0  0  0  0  0  0  0  0
    7.3812   -1.2614   -1.1184 C   0  0  0  0  0  0  0  0  0  0  0  0
    6.0892   -1.0388   -0.4694 C   0  0  0  0  0  0  0  0  0  0  0  0
    5.8371    0.1453    0.3357 C   0  0  0  0  0  0  0  0  0  0  0  0
    4.5745    0.4070    1.0208 C   0  0  0  0  0  0  0  0  0  0  0  0
    3.2680    0.5300    0.4060 C   0  0  0  0  0  0  0  0  0  0  0  0
    2.6660   -0.6729   -0.2360 C   0  0  0  0  0  0  0  0  0  0  0  0
    1.4124   -0.3683   -0.8534 O   0  0  0  0  0  0  0  0  0  0  0  0
    1.2655    0.4560   -1.9379 C   0  0  0  0  0  0  0  0  0  0  0  0
    2.2843    1.0788   -2.6177 C   0  0  0  0  0  0  0  0  0  0  0  0
    2.0625    1.9065   -3.7214 C   0  0  0  0  0  0  0  0  0  0  0  0
    0.7879    2.1299   -4.1760 C   0  0  0  0  0  0  0  0  0  0  0  0
   -0.2410    1.5149   -3.5101 C   0  0  0  0  0  0  0  0  0  0  0  0
   -0.0306    0.6848   -2.4035 C   0  0  0  0  0  0  0  0  0  0  0  0
   -1.2318    0.0939   -1.7894 C   0  0  0  0  0  0  0  0  0  0  0  0
   -1.5924    0.8314   -0.4998 C   0  0  0  0  0  0  0  0  0  0  0  0
   -2.8391    0.1423   -0.0134 C   0  0  0  0  0  0  0  0  0  0  0  0
   -2.7793   -0.9341    0.6216 O   0  0  0  0  0  0  0  0  0  0  0  0
   -4.0310    0.7383   -0.2949 O   0  0  0  0  0  0  0  0  0  0  0  0
   -5.3235    0.3176    0.0262 C   0  0  0  0  0  0  0  0  0  0  0  0
   -5.7393   -0.9902   -0.5637 C   0  0  2  0  0  0  0  0  0  0  0  0
   -7.2255   -1.2422   -0.4215 C   0  0  0  0  0  0  0  0  0  0  0  0
   -7.9210   -0.1227   -0.8395 O   0  0  0  0  0  0  0  0  0  0  0  0
   -9.5539   -0.5073   -0.9658 P   0  0  0  0  0  0  0  0  0  0  0  0
  -10.3535    0.6867   -1.4492 O   0  0  0  0  0  0  0  0  0  0  0  0
  -10.1188   -0.9972    0.5458 O   0  0  0  0  0  0  0  0  0  0  0  0
  -10.0006    0.0733    1.4247 C   0  0  0  0  0  0  0  0  0  0  0  0
  -10.6596   -0.3694    2.7171 C   0  0  1  0  0  0  0  0  0  0  0  0
  -10.5562    0.6811    3.7641 C   0  0  0  0  0  0  0  0  0  0  0  0
   -9.3656    1.0057    4.0962 O   0  0  0  0  0  0  0  0  0  0  0  0
  -11.6410    1.2860    4.3591 O   0  0  0  0  0  0  0  0  0  0  0  0
  -12.0558   -0.6729    2.4006 N   0  0  0  0  0  0  0  0  0  0  0  0
   -9.7273   -1.7528   -2.1133 O   0  0  0  0  0  0  0  0  0  0  0  0
   -4.9717   -2.0510   -0.1645 O   0  0  0  0  0  0  0  0  0  0  0  0
   11.1787    1.3149    3.5463 H   0  0  0  0  0  0  0  0  0  0  0  0
    9.7153    1.4808    2.5471 H   0  0  0  0  0  0  0  0  0  0  0  0
   10.0958   -0.1473    3.3092 H   0  0  0  0  0  0  0  0  0  0  0  0
   12.3342    0.1059    1.8396 H   0  0  0  0  0  0  0  0  0  0  0  0
   11.3075    1.3119    0.9459 H   0  0  0  0  0  0  0  0  0  0  0  0
   10.6231   -1.6117    1.4222 H   0  0  0  0  0  0  0  0  0  0  0  0
   11.3084   -0.8261   -0.1004 H   0  0  0  0  0  0  0  0  0  0  0  0
    8.7704   -0.0065    1.2301 H   0  0  0  0  0  0  0  0  0  0  0  0
    9.3969    0.6035   -0.3325 H   0  0  0  0  0  0  0  0  0  0  0  0
    8.8160   -2.4019    0.0482 H   0  0  0  0  0  0  0  0  0  0  0  0
    9.4275   -1.5510   -1.3446 H   0  0  0  0  0  0  0  0  0  0  0  0
    7.5149   -0.4417   -1.9282 H   0  0  0  0  0  0  0  0  0  0  0  0
    7.2142   -2.1657   -1.8226 H   0  0  0  0  0  0  0  0  0  0  0  0
    5.7242   -1.9945    0.0115 H   0  0  0  0  0  0  0  0  0  0  0  0
    5.3853   -0.9303   -1.3902 H   0  0  0  0  0  0  0  0  0  0  0  0
    6.6128    0.1608    1.1818 H   0  0  0  0  0  0  0  0  0  0  0  0
    6.1550    1.0481   -0.2966 H   0  0  0  0  0  0  0  0  0  0  0  0
    4.7486    1.3762    1.6215 H   0  0  0  0  0  0  0  0  0  0  0  0
    4.4390   -0.3225    1.9079 H   0  0  0  0  0  0  0  0  0  0  0  0
    2.5008    0.7619    1.2651 H   0  0  0  0  0  0  0  0  0  0  0  0
    3.0982    1.4222   -0.2290 H   0  0  0  0  0  0  0  0  0  0  0  0
    3.3382   -1.1684   -0.9058 H   0  0  0  0  0  0  0  0  0  0  0  0
    2.4634   -1.4252    0.6030 H   0  0  0  0  0  0  0  0  0  0  0  0
    3.3316    0.9485   -2.3672 H   0  0  0  0  0  0  0  0  0  0  0  0
    2.8772    2.3845   -4.2374 H   0  0  0  0  0  0  0  0  0  0  0  0
    0.6180    2.7650   -5.0253 H   0  0  0  0  0  0  0  0  0  0  0  0
   -1.2440    1.6923   -3.8730 H   0  0  0  0  0  0  0  0  0  0  0  0
   -2.0664    0.1399   -2.4974 H   0  0  0  0  0  0  0  0  0  0  0  0
   -1.0880   -0.9987   -1.5757 H   0  0  0  0  0  0  0  0  0  0  0  0
   -1.8327    1.8758   -0.7457 H   0  0  0  0  0  0  0  0  0  0  0  0
   -0.7998    0.7646    0.2437 H   0  0  0  0  0  0  0  0  0  0  0  0
   -6.0298    1.1284   -0.2552 H   0  0  0  0  0  0  0  0  0  0  0  0
   -5.4108    0.2490    1.1562 H   0  0  0  0  0  0  0  0  0  0  0  0
   -5.5472   -0.8894   -1.6814 H   0  0  0  0  0  0  0  0  0  0  0  0
   -7.5362   -2.0881   -1.0477 H   0  0  0  0  0  0  0  0  0  0  0  0
   -7.4191   -1.4904    0.6512 H   0  0  0  0  0  0  0  0  0  0  0  0
  -10.5557    0.9221    0.9869 H   0  0  0  0  0  0  0  0  0  0  0  0
   -8.9509    0.3766    1.5899 H   0  0  0  0  0  0  0  0  0  0  0  0
  -10.2071   -1.3158    3.0647 H   0  0  0  0  0  0  0  0  0  0  0  0
  -11.5694    1.6075    5.3214 H   0  0  0  0  0  0  0  0  0  0  0  0
  -12.0404   -1.3710    1.6331 H   0  0  0  0  0  0  0  0  0  0  0  0
  -12.4379    0.2037    1.9868 H   0  0  0  0  0  0  0  0  0  0  0  0
   -8.9012   -1.8503   -2.6541 H   0  0  0  0  0  0  0  0  0  0  0  0
   -5.4418   -2.8792   -0.4401 H   0  0  0  0  0  0  0  0  0  0  0  0
  1  2  1  0
  2  3  1  0
  3  4  1  0
  4  5  1  0
  5  6  1  0
  6  7  1  0
  7  8  1  0
  8  9  1  0
  9 10  1  0
 10 11  1  0
 11 12  1  0
 12 13  1  0
 13 14  2  0
 14 15  1  0
 15 16  2  0
 16 17  1  0
 17 18  2  0
 18 19  1  0
 19 20  1  0
 20 21  1  0
 21 22  2  0
 21 23  1  0
 23 24  1  0
 24 25  1  0
 25 26  1  0
 26 27  1  0
 27 28  1  0
 28 29  2  0
 28 30  1  0
 30 31  1  0
 31 32  1  0
 32 33  1  0
 33 34  2  0
 33 35  1  0
 32 36  1  0
 28 37  1  0
 25 38  1  0
 18 13  1  0
  1 39  1  0
  1 40  1  0
  1 41  1  0
  2 42  1  0
  2 43  1  0
  3 44  1  0
  3 45  1  0
  4 46  1  0
  4 47  1  0
  5 48  1  0
  5 49  1  0
  6 50  1  0
  6 51  1  0
  7 52  1  0
  7 53  1  0
  8 54  1  0
  8 55  1  0
  9 56  1  0
  9 57  1  0
 10 58  1  0
 10 59  1  0
 11 60  1  0
 11 61  1  0
 14 62  1  0
 15 63  1  0
 16 64  1  0
 17 65  1  0
 19 66  1  0
 19 67  1  0
 20 68  1  0
 20 69  1  0
 24 70  1  0
 24 71  1  0
 25 72  1  6
 26 73  1  0
 26 74  1  0
 31 75  1  0
 31 76  1  0
 32 77  1  1
 35 78  1  0
 36 79  1  0
 36 80  1  0
 37 81  1  0
 38 82  1  0
M  END
>  <Ligand ID>  (1) 
LIG0004283

>  <Ligand>  (1) 
CHEMBL3577171

>  <SMILES>  (1) 
CCCCCCCCCCCOc1ccccc1CCC(=O)OC[C@H](COP(=O)(OC[C@@H](C(=O)O)N)O)O

>  <CID>  (1) 
122177517.0

>  <ChEMBL ID>  (1) 
nan

>  <InChiKey>  (1) 
UGPFSBZYXQNTFH-PKTZIBPZSA-N

>  <InChi>  (1) 
InChI=1S/C26H44NO10P/c1-2-3-4-5-6-7-8-9-12-17-34-24-14-11-10-13-21(24)15-16-25(29)35-18-22(28)19-36-38(32,33)37-20-23(27)26(30)31/h10-11,13-14,22-23,28H,2-9,12,15-20,27H2,1H3,(H,30,31)(H,32,33)/t22-,23+/m1/s1

>  <IUPAC Name>  (1) 
(2S)-2-amino-3-[hydroxy-[(2R)-2-hydroxy-3-[3-(2-undecoxyphenyl)propanoyloxy]propoxy]phosphoryl]oxypropanoic acid

$$$$
