
     RDKit          3D

 59 60  0  0  0  0  0  0  0  0999 V2000
   -7.3644   -1.9104    0.1826 C   0  0  0  0  0  0  0  0  0  0  0  0
   -6.9455   -0.7778    1.1095 C   0  0  0  0  0  0  0  0  0  0  0  0
   -5.5659   -1.0730    1.6636 C   0  0  0  0  0  0  0  0  0  0  0  0
   -4.5347   -1.2003    0.5923 C   0  0  0  0  0  0  0  0  0  0  0  0
   -3.2646   -1.4838    1.1437 N   0  0  0  0  0  0  0  0  0  0  0  0
   -2.1765   -1.6107    0.2369 C   0  0  0  0  0  0  0  0  0  0  0  0
   -1.9408   -0.3558   -0.5544 C   0  0  0  0  0  0  0  0  0  0  0  0
   -2.5006   -0.0132   -1.7804 C   0  0  0  0  0  0  0  0  0  0  0  0
   -1.9899    1.2263   -2.1120 C   0  0  0  0  0  0  0  0  0  0  0  0
   -1.1425    1.5726   -1.0646 C   0  0  0  0  0  0  0  0  0  0  0  0
   -1.1339    0.6195   -0.1601 O   0  0  0  0  0  0  0  0  0  0  0  0
   -0.3790    2.8516   -1.0234 C   0  0  0  0  0  0  0  0  0  0  0  0
    0.9155    2.7464   -1.6370 N   0  0  0  0  0  0  0  0  0  0  0  0
    1.8932    1.8300   -1.1594 C   0  0  0  0  0  0  0  0  0  0  0  0
    1.6366    1.0757   -0.1674 O   0  0  0  0  0  0  0  0  0  0  0  0
    3.1394    1.8039   -1.8332 N   0  0  0  0  0  0  0  0  0  0  0  0
    4.2134    0.9455   -1.4768 C   0  0  0  0  0  0  0  0  0  0  0  0
    4.2380   -0.2981   -2.1052 C   0  0  0  0  0  0  0  0  0  0  0  0
    5.2352   -1.2157   -1.8373 C   0  0  0  0  0  0  0  0  0  0  0  0
    6.2161   -0.8747   -0.9267 C   0  0  0  0  0  0  0  0  0  0  0  0
    6.2016    0.3623   -0.2942 C   0  0  0  0  0  0  0  0  0  0  0  0
    5.1929    1.2817   -0.5699 C   0  0  0  0  0  0  0  0  0  0  0  0
    5.1556    2.5220    0.0476 O   0  0  0  0  0  0  0  0  0  0  0  0
    6.1325    2.9241    0.9857 C   0  0  0  0  0  0  0  0  0  0  0  0
    7.2490   -1.7340   -0.6016 O   0  0  0  0  0  0  0  0  0  0  0  0
    7.4481   -3.0153   -1.1193 C   0  0  0  0  0  0  0  0  0  0  0  0
   -2.9808   -1.0063    2.4467 C   0  0  0  0  0  0  0  0  0  0  0  0
   -2.8741    0.4916    2.5419 C   0  0  0  0  0  0  0  0  0  0  0  0
   -6.7500   -1.9091   -0.7252 H   0  0  0  0  0  0  0  0  0  0  0  0
   -8.4473   -1.7507   -0.0826 H   0  0  0  0  0  0  0  0  0  0  0  0
   -7.2608   -2.8758    0.7236 H   0  0  0  0  0  0  0  0  0  0  0  0
   -6.9840    0.1891    0.6080 H   0  0  0  0  0  0  0  0  0  0  0  0
   -7.6661   -0.8042    1.9600 H   0  0  0  0  0  0  0  0  0  0  0  0
   -5.2834   -0.2106    2.3292 H   0  0  0  0  0  0  0  0  0  0  0  0
   -5.6133   -1.9806    2.2890 H   0  0  0  0  0  0  0  0  0  0  0  0
   -4.8213   -2.0688   -0.0714 H   0  0  0  0  0  0  0  0  0  0  0  0
   -4.5635   -0.3208   -0.0823 H   0  0  0  0  0  0  0  0  0  0  0  0
   -2.4751   -2.3932   -0.5184 H   0  0  0  0  0  0  0  0  0  0  0  0
   -1.2759   -1.9619    0.7666 H   0  0  0  0  0  0  0  0  0  0  0  0
   -3.1968   -0.6142   -2.3459 H   0  0  0  0  0  0  0  0  0  0  0  0
   -2.1950    1.8109   -2.9891 H   0  0  0  0  0  0  0  0  0  0  0  0
   -0.3194    3.1648    0.0411 H   0  0  0  0  0  0  0  0  0  0  0  0
   -0.9841    3.6270   -1.5293 H   0  0  0  0  0  0  0  0  0  0  0  0
    1.1454    3.3697   -2.4680 H   0  0  0  0  0  0  0  0  0  0  0  0
    3.3302    2.4439   -2.6589 H   0  0  0  0  0  0  0  0  0  0  0  0
    3.4884   -0.5912   -2.8185 H   0  0  0  0  0  0  0  0  0  0  0  0
    5.2424   -2.1800   -2.3337 H   0  0  0  0  0  0  0  0  0  0  0  0
    6.9931    0.6015    0.4226 H   0  0  0  0  0  0  0  0  0  0  0  0
    7.1405    2.6211    0.6198 H   0  0  0  0  0  0  0  0  0  0  0  0
    5.9584    2.4129    1.9551 H   0  0  0  0  0  0  0  0  0  0  0  0
    6.1442    4.0333    1.0881 H   0  0  0  0  0  0  0  0  0  0  0  0
    7.0204   -3.1629   -2.1401 H   0  0  0  0  0  0  0  0  0  0  0  0
    8.5341   -3.2544   -1.2387 H   0  0  0  0  0  0  0  0  0  0  0  0
    7.0416   -3.7671   -0.3916 H   0  0  0  0  0  0  0  0  0  0  0  0
   -3.8065   -1.3213    3.1360 H   0  0  0  0  0  0  0  0  0  0  0  0
   -2.0693   -1.4481    2.9006 H   0  0  0  0  0  0  0  0  0  0  0  0
   -1.7975    0.7527    2.5932 H   0  0  0  0  0  0  0  0  0  0  0  0
   -3.3396    0.9042    3.4687 H   0  0  0  0  0  0  0  0  0  0  0  0
   -3.2639    0.9996    1.6291 H   0  0  0  0  0  0  0  0  0  0  0  0
  1  2  1  0
  2  3  1  0
  3  4  1  0
  4  5  1  0
  5  6  1  0
  6  7  1  0
  7  8  2  0
  8  9  1  0
  9 10  2  0
 10 11  1  0
 10 12  1  0
 12 13  1  0
 13 14  1  0
 14 15  2  0
 14 16  1  0
 16 17  1  0
 17 18  2  0
 18 19  1  0
 19 20  2  0
 20 21  1  0
 21 22  2  0
 22 23  1  0
 23 24  1  0
 20 25  1  0
 25 26  1  0
  5 27  1  0
 27 28  1  0
 11  7  1  0
 22 17  1  0
  1 29  1  0
  1 30  1  0
  1 31  1  0
  2 32  1  0
  2 33  1  0
  3 34  1  0
  3 35  1  0
  4 36  1  0
  4 37  1  0
  6 38  1  0
  6 39  1  0
  8 40  1  0
  9 41  1  0
 12 42  1  0
 12 43  1  0
 13 44  1  0
 16 45  1  0
 18 46  1  0
 19 47  1  0
 21 48  1  0
 24 49  1  0
 24 50  1  0
 24 51  1  0
 26 52  1  0
 26 53  1  0
 26 54  1  0
 27 55  1  0
 27 56  1  0
 28 57  1  0
 28 58  1  0
 28 59  1  0
M  END
>  <Ligand ID>  (1) 
LIG0004324

>  <Ligand>  (1) 
MLS000046660

>  <SMILES>  (1) 
CCCCN(Cc1ccc(o1)CNC(=O)Nc1ccc(cc1OC)OC)CC

>  <CID>  (1) 
3240509.0

>  <ChEMBL ID>  (1) 
nan

>  <InChiKey>  (1) 
HALNSYITXIPKLZ-UHFFFAOYSA-N

>  <InChi>  (1) 
InChI=1S/C21H31N3O4/c1-5-7-12-24(6-2)15-18-9-8-17(28-18)14-22-21(25)23-19-11-10-16(26-3)13-20(19)27-4/h8-11,13H,5-7,12,14-15H2,1-4H3,(H2,22,23,25)

>  <IUPAC Name>  (1) 
1-[[5-[[butyl(ethyl)amino]methyl]furan-2-yl]methyl]-3-(2,4-dimethoxyphenyl)urea

$$$$
