
     RDKit          3D

 32 31  0  0  0  0  0  0  0  0999 V2000
   -5.0522   -0.3362    0.5342 C   0  0  0  0  0  0  0  0  0  0  0  0
   -4.1884   -0.3834   -0.6784 C   0  0  0  0  0  0  0  0  0  0  0  0
   -2.7255   -0.5645   -0.3754 C   0  0  0  0  0  0  0  0  0  0  0  0
   -2.1332    0.5137    0.4621 C   0  0  0  0  0  0  0  0  0  0  0  0
   -0.6731    0.2647    0.7221 C   0  0  0  0  0  0  0  0  0  0  0  0
    0.1676    0.1937   -0.5083 C   0  0  0  0  0  0  0  0  0  0  0  0
    1.6105   -0.0629   -0.0519 C   0  0  0  0  0  0  0  0  0  0  0  0
    2.5396   -0.1513   -1.2222 C   0  0  0  0  0  0  0  0  0  0  0  0
    3.8471   -0.3880   -0.7511 O   0  0  0  0  0  0  0  0  0  0  0  0
    4.5366    0.4636    0.0872 C   0  0  0  0  0  0  0  0  0  0  0  0
    4.0697    1.5317    0.5118 O   0  0  0  0  0  0  0  0  0  0  0  0
    5.9261    0.1065    0.5259 C   0  0  0  0  0  0  0  0  0  0  0  0
   -6.1081   -0.4580    0.1821 H   0  0  0  0  0  0  0  0  0  0  0  0
   -4.8594   -1.1390    1.2460 H   0  0  0  0  0  0  0  0  0  0  0  0
   -5.0514    0.6779    1.0262 H   0  0  0  0  0  0  0  0  0  0  0  0
   -4.3626    0.5138   -1.3011 H   0  0  0  0  0  0  0  0  0  0  0  0
   -4.5135   -1.2659   -1.2718 H   0  0  0  0  0  0  0  0  0  0  0  0
   -2.1813   -0.5631   -1.3490 H   0  0  0  0  0  0  0  0  0  0  0  0
   -2.5103   -1.5463    0.0890 H   0  0  0  0  0  0  0  0  0  0  0  0
   -2.2938    1.5216    0.0799 H   0  0  0  0  0  0  0  0  0  0  0  0
   -2.6186    0.4789    1.4806 H   0  0  0  0  0  0  0  0  0  0  0  0
   -0.2726    1.1238    1.3242 H   0  0  0  0  0  0  0  0  0  0  0  0
   -0.5125   -0.6737    1.2910 H   0  0  0  0  0  0  0  0  0  0  0  0
    0.1981    1.1895   -1.0225 H   0  0  0  0  0  0  0  0  0  0  0  0
   -0.1301   -0.5395   -1.2544 H   0  0  0  0  0  0  0  0  0  0  0  0
    1.6703   -1.0577    0.4674 H   0  0  0  0  0  0  0  0  0  0  0  0
    1.9173    0.6855    0.6936 H   0  0  0  0  0  0  0  0  0  0  0  0
    2.5898    0.7898   -1.8087 H   0  0  0  0  0  0  0  0  0  0  0  0
    2.2771   -1.0232   -1.8501 H   0  0  0  0  0  0  0  0  0  0  0  0
    6.1416   -0.9595    0.4559 H   0  0  0  0  0  0  0  0  0  0  0  0
    6.0122    0.3950    1.5985 H   0  0  0  0  0  0  0  0  0  0  0  0
    6.6832    0.6624   -0.0846 H   0  0  0  0  0  0  0  0  0  0  0  0
  1  2  1  0
  2  3  1  0
  3  4  1  0
  4  5  1  0
  5  6  1  0
  6  7  1  0
  7  8  1  0
  8  9  1  0
  9 10  1  0
 10 11  2  0
 10 12  1  0
  1 13  1  0
  1 14  1  0
  1 15  1  0
  2 16  1  0
  2 17  1  0
  3 18  1  0
  3 19  1  0
  4 20  1  0
  4 21  1  0
  5 22  1  0
  5 23  1  0
  6 24  1  0
  6 25  1  0
  7 26  1  0
  7 27  1  0
  8 28  1  0
  8 29  1  0
 12 30  1  0
 12 31  1  0
 12 32  1  0
M  END
>  <Ligand ID>  (1) 
LIG0000047

>  <Ligand>  (1) 
octyl acetate

>  <SMILES>  (1) 
CCCCCCCCOC(=O)C

>  <CID>  (1) 
8164.0

>  <ChEMBL ID>  (1) 
nan

>  <InChiKey>  (1) 
YLYBTZIQSIBWLI-UHFFFAOYSA-N

>  <InChi>  (1) 
InChI=1S/C10H20O2/c1-3-4-5-6-7-8-9-12-10(2)11/h3-9H2,1-2H3

>  <IUPAC Name>  (1) 
octyl acetate

$$$$
