
     RDKit          3D

 73 73  0  0  0  0  0  0  0  0999 V2000
   -0.9866   -0.1008    0.0758 C   0  0  0  0  0  0  0  0  0  0  0  0
    0.4413    0.3207   -0.1025 C   0  0  0  0  0  0  0  0  0  0  0  0
    0.7458    1.4460   -0.5853 O   0  0  0  0  0  0  0  0  0  0  0  0
    1.4156   -0.6052    0.2972 O   0  0  0  0  0  0  0  0  0  0  0  0
   -7.9526    2.5663   -0.8688 O   0  0  0  0  0  0  0  0  0  0  0  0
   -8.0788    1.9368    0.3799 C   0  0  0  0  0  0  0  0  0  0  0  0
   -7.5997    0.5446    0.1874 C   0  0  0  0  0  0  0  0  0  0  0  0
   -6.3502    0.2130    0.6647 C   0  0  0  0  0  0  0  0  0  0  0  0
   -5.8146   -1.0654    0.5308 C   0  0  0  0  0  0  0  0  0  0  0  0
   -6.5617   -2.0321   -0.1013 C   0  0  0  0  0  0  0  0  0  0  0  0
   -7.8249   -1.7026   -0.5858 C   0  0  0  0  0  0  0  0  0  0  0  0
   -8.3462   -0.4241   -0.4454 C   0  0  0  0  0  0  0  0  0  0  0  0
   -9.6091   -0.0783   -0.9248 O   0  0  0  0  0  0  0  0  0  0  0  0
   -4.4623   -1.3046    1.0846 C   0  0  2  0  0  0  0  0  0  0  0  0
   -3.4031   -1.1595    0.0072 C   0  0  0  0  0  0  0  0  0  0  0  0
   -2.0832   -1.1892    0.5865 N   0  0  0  0  0  0  0  0  0  0  0  0
   -1.0473   -1.0527   -0.4176 C   0  0  0  0  0  0  0  0  0  0  0  0
   -1.0433    0.3205   -1.0429 C   0  0  0  0  0  0  0  0  0  0  0  0
   -0.8131    1.4366   -0.0708 C   0  0  0  0  0  0  0  0  0  0  0  0
    0.4993    1.3684    0.6625 C   0  0  0  0  0  0  0  0  0  0  0  0
    1.6439    1.4266   -0.2841 C   0  0  0  0  0  0  0  0  0  0  0  0
    3.0118    1.3918    0.3600 C   0  0  0  0  0  0  0  0  0  0  0  0
    3.2900    0.2890    1.0973 O   0  0  0  0  0  0  0  0  0  0  0  0
    3.2868   -0.9234    0.5036 C   0  0  0  0  0  0  0  0  0  0  0  0
    4.2558   -1.2302   -0.5695 C   0  0  0  0  0  0  0  0  0  0  0  0
    5.5875   -1.1901   -0.2954 O   0  0  0  0  0  0  0  0  0  0  0  0
    6.0328    0.0231    0.1042 C   0  0  0  0  0  0  0  0  0  0  0  0
    7.5127    0.0296    0.3805 C   0  0  0  0  0  0  0  0  0  0  0  0
    8.4132    0.5869   -0.5157 C   0  0  0  0  0  0  0  0  0  0  0  0
    9.7655    0.5691   -0.2266 C   0  0  0  0  0  0  0  0  0  0  0  0
   10.8417    1.2932   -1.4122 Cl  0  0  0  0  0  0  0  0  0  0  0  0
   10.2301    0.0042    0.9431 C   0  0  0  0  0  0  0  0  0  0  0  0
    9.3497   -0.5590    1.8546 C   0  0  0  0  0  0  0  0  0  0  0  0
    8.0069   -0.5323    1.5497 C   0  0  0  0  0  0  0  0  0  0  0  0
    6.9204   -1.2613    2.7399 Cl  0  0  0  0  0  0  0  0  0  0  0  0
   -4.3481   -2.4925    1.7783 O   0  0  0  0  0  0  0  0  0  0  0  0
   -1.2503   -0.0764    1.1636 H   0  0  0  0  0  0  0  0  0  0  0  0
   -1.0887   -1.1212   -0.3270 H   0  0  0  0  0  0  0  0  0  0  0  0
   -1.6278    0.6408   -0.4238 H   0  0  0  0  0  0  0  0  0  0  0  0
    2.3508   -0.5040   -0.0980 H   0  0  0  0  0  0  0  0  0  0  0  0
   -7.7635    3.5353   -0.7925 H   0  0  0  0  0  0  0  0  0  0  0  0
   -7.5084    2.4600    1.1629 H   0  0  0  0  0  0  0  0  0  0  0  0
   -9.1505    1.9628    0.6858 H   0  0  0  0  0  0  0  0  0  0  0  0
   -5.7664    0.9751    1.1632 H   0  0  0  0  0  0  0  0  0  0  0  0
   -6.1575   -3.0200   -0.2091 H   0  0  0  0  0  0  0  0  0  0  0  0
   -8.4209   -2.4685   -1.0891 H   0  0  0  0  0  0  0  0  0  0  0  0
   -9.7627    0.8586   -1.3043 H   0  0  0  0  0  0  0  0  0  0  0  0
   -4.2118   -0.5000    1.8404 H   0  0  0  0  0  0  0  0  0  0  0  0
   -3.4930   -1.9211   -0.7898 H   0  0  0  0  0  0  0  0  0  0  0  0
   -3.5803   -0.1646   -0.4808 H   0  0  0  0  0  0  0  0  0  0  0  0
   -1.9564   -0.5049    1.3449 H   0  0  0  0  0  0  0  0  0  0  0  0
   -0.0915   -1.2733    0.0490 H   0  0  0  0  0  0  0  0  0  0  0  0
   -1.2555   -1.7685   -1.2258 H   0  0  0  0  0  0  0  0  0  0  0  0
   -0.2408    0.3463   -1.8054 H   0  0  0  0  0  0  0  0  0  0  0  0
   -1.9860    0.5037   -1.6091 H   0  0  0  0  0  0  0  0  0  0  0  0
   -0.8350    2.3811   -0.6933 H   0  0  0  0  0  0  0  0  0  0  0  0
   -1.6734    1.5731    0.6247 H   0  0  0  0  0  0  0  0  0  0  0  0
    0.5042    0.3473    1.1503 H   0  0  0  0  0  0  0  0  0  0  0  0
    0.5664    2.1609    1.4450 H   0  0  0  0  0  0  0  0  0  0  0  0
    1.5657    0.5322   -0.9721 H   0  0  0  0  0  0  0  0  0  0  0  0
    1.5346    2.3151   -0.9345 H   0  0  0  0  0  0  0  0  0  0  0  0
    3.7396    1.6973   -0.4045 H   0  0  0  0  0  0  0  0  0  0  0  0
    3.0006    2.2605    1.0876 H   0  0  0  0  0  0  0  0  0  0  0  0
    3.4905   -1.6771    1.3321 H   0  0  0  0  0  0  0  0  0  0  0  0
    2.2815   -1.2460    0.1340 H   0  0  0  0  0  0  0  0  0  0  0  0
    4.0426   -0.6800   -1.5246 H   0  0  0  0  0  0  0  0  0  0  0  0
    4.0420   -2.3085   -0.8702 H   0  0  0  0  0  0  0  0  0  0  0  0
    5.8893    0.7767   -0.6766 H   0  0  0  0  0  0  0  0  0  0  0  0
    5.5684    0.2751    1.0922 H   0  0  0  0  0  0  0  0  0  0  0  0
    8.0459    1.0368   -1.4490 H   0  0  0  0  0  0  0  0  0  0  0  0
   11.2926    0.0028    1.1457 H   0  0  0  0  0  0  0  0  0  0  0  0
    9.7319   -1.0007    2.7741 H   0  0  0  0  0  0  0  0  0  0  0  0
   -4.7520   -3.2700    1.3152 H   0  0  0  0  0  0  0  0  0  0  0  0
  1  2  1  0
  2  3  2  0
  2  4  1  0
  5  6  1  0
  6  7  1  0
  7  8  2  0
  8  9  1  0
  9 10  2  0
 10 11  1  0
 11 12  2  0
 12 13  1  0
  9 14  1  0
 14 15  1  0
 15 16  1  0
 16 17  1  0
 17 18  1  0
 18 19  1  0
 19 20  1  0
 20 21  1  0
 21 22  1  0
 22 23  1  0
 23 24  1  0
 24 25  1  0
 25 26  1  0
 26 27  1  0
 27 28  1  0
 28 29  2  0
 29 30  1  0
 30 31  1  0
 30 32  2  0
 32 33  1  0
 33 34  2  0
 34 35  1  0
 14 36  1  0
 12  7  1  0
 34 28  1  0
  1 37  1  0
  1 38  1  0
  1 39  1  0
  4 40  1  0
  5 41  1  0
  6 42  1  0
  6 43  1  0
  8 44  1  0
 10 45  1  0
 11 46  1  0
 13 47  1  0
 14 48  1  1
 15 49  1  0
 15 50  1  0
 16 51  1  0
 17 52  1  0
 17 53  1  0
 18 54  1  0
 18 55  1  0
 19 56  1  0
 19 57  1  0
 20 58  1  0
 20 59  1  0
 21 60  1  0
 21 61  1  0
 22 62  1  0
 22 63  1  0
 24 64  1  0
 24 65  1  0
 25 66  1  0
 25 67  1  0
 27 68  1  0
 27 69  1  0
 29 70  1  0
 32 71  1  0
 33 72  1  0
 36 73  1  0
M  END
>  <Ligand ID>  (1) 
LIG0003336

>  <Ligand>  (1) 
CHEMBL1084648

>  <SMILES>  (1) 
CC(=O)O.OCc1cc(ccc1O)[C@H](CNCCCCCCOCCOCc1cc(Cl)ccc1Cl)O

>  <CID>  (1) 
46832797.0

>  <ChEMBL ID>  (1) 
nan

>  <InChiKey>  (1) 
JBDRHRUVGADQON-JIDHJSLPSA-N

>  <InChi>  (1) 
InChI=1S/C24H33Cl2NO5.C2H4O2/c25-21-6-7-22(26)20(14-21)17-32-12-11-31-10-4-2-1-3-9-27-15-24(30)18-5-8-23(29)19(13-18)16-28;1-2(3)4/h5-8,13-14,24,27-30H,1-4,9-12,15-17H2;1H3,(H,3,4)/t24-;/m0./s1

>  <IUPAC Name>  (1) 
acetic acid;4-[(1R)-2-[6-[2-[(2,5-dichlorophenyl)methoxy]ethoxy]hexylamino]-1-hydroxyethyl]-2-(hydroxymethyl)phenol

$$$$
