
     RDKit          3D

 38 40  0  0  0  0  0  0  0  0999 V2000
   -0.9050    2.2765    1.0125 C   0  0  0  0  0  0  0  0  0  0  0  0
   -1.2159    0.7759    1.1100 C   0  0  1  0  0  0  0  0  0  0  0  0
   -2.5317    0.6344    0.3816 C   0  0  0  0  0  0  0  0  0  0  0  0
   -3.6120    0.2023    0.9321 N   0  0  0  0  0  0  0  0  0  0  0  0
   -4.7127    0.1685    0.0148 C   0  0  0  0  0  0  0  0  0  0  0  0
   -3.9715    0.1304   -1.3212 C   0  0  0  0  0  0  0  0  0  0  0  0
   -2.8077    0.9380   -0.9783 N   0  0  0  0  0  0  0  0  0  0  0  0
   -0.2223    0.1197    0.4041 O   0  0  0  0  0  0  0  0  0  0  0  0
    0.6823   -0.8062    0.8033 C   0  0  0  0  0  0  0  0  0  0  0  0
    0.6839   -1.2145    2.1290 C   0  0  0  0  0  0  0  0  0  0  0  0
    1.5807   -2.1627    2.6010 C   0  0  0  0  0  0  0  0  0  0  0  0
    2.4772   -2.6949    1.7187 C   0  0  0  0  0  0  0  0  0  0  0  0
    2.4693   -2.2835    0.4037 C   0  0  0  0  0  0  0  0  0  0  0  0
    1.5794   -1.3357   -0.0854 C   0  0  0  0  0  0  0  0  0  0  0  0
    1.7121   -0.9650   -1.5041 C   0  0  0  0  0  0  0  0  0  0  0  0
    2.5275    0.2376   -1.7771 C   0  0  0  0  0  0  0  0  0  0  0  0
    2.2705    1.5836   -1.2816 C   0  0  0  0  0  0  0  0  0  0  0  0
    3.3316    0.7428   -0.5964 C   0  0  0  0  0  0  0  0  0  0  0  0
    0.0480    2.4377    1.5143 H   0  0  0  0  0  0  0  0  0  0  0  0
   -1.7244    2.8741    1.4521 H   0  0  0  0  0  0  0  0  0  0  0  0
   -0.7921    2.5048   -0.0866 H   0  0  0  0  0  0  0  0  0  0  0  0
   -1.3238    0.5420    2.1654 H   0  0  0  0  0  0  0  0  0  0  0  0
   -5.3249    1.0976   -0.0007 H   0  0  0  0  0  0  0  0  0  0  0  0
   -5.3191   -0.7577    0.0559 H   0  0  0  0  0  0  0  0  0  0  0  0
   -4.5502    0.5355   -2.1511 H   0  0  0  0  0  0  0  0  0  0  0  0
   -3.5857   -0.9032   -1.5116 H   0  0  0  0  0  0  0  0  0  0  0  0
   -2.2635    1.6047   -1.5656 H   0  0  0  0  0  0  0  0  0  0  0  0
   -0.0064   -0.8228    2.8684 H   0  0  0  0  0  0  0  0  0  0  0  0
    1.5825   -2.4811    3.6342 H   0  0  0  0  0  0  0  0  0  0  0  0
    3.1896   -3.4396    2.0653 H   0  0  0  0  0  0  0  0  0  0  0  0
    3.2093   -2.7452   -0.2502 H   0  0  0  0  0  0  0  0  0  0  0  0
    0.6722   -0.7423   -1.9027 H   0  0  0  0  0  0  0  0  0  0  0  0
    2.0509   -1.8225   -2.1312 H   0  0  0  0  0  0  0  0  0  0  0  0
    3.0696    0.1826   -2.7615 H   0  0  0  0  0  0  0  0  0  0  0  0
    2.7366    2.4516   -1.8460 H   0  0  0  0  0  0  0  0  0  0  0  0
    1.4652    1.8923   -0.6038 H   0  0  0  0  0  0  0  0  0  0  0  0
    4.3990    0.9220   -0.8185 H   0  0  0  0  0  0  0  0  0  0  0  0
    3.1318    0.3228    0.4041 H   0  0  0  0  0  0  0  0  0  0  0  0
  1  2  1  0
  2  3  1  0
  3  4  2  0
  4  5  1  0
  5  6  1  0
  6  7  1  0
  2  8  1  0
  8  9  1  0
  9 10  2  0
 10 11  1  0
 11 12  2  0
 12 13  1  0
 13 14  2  0
 14 15  1  0
 15 16  1  0
 16 17  1  0
 17 18  1  0
  7  3  1  0
 14  9  1  0
 18 16  1  0
  1 19  1  0
  1 20  1  0
  1 21  1  0
  2 22  1  1
  5 23  1  0
  5 24  1  0
  6 25  1  0
  6 26  1  0
  7 27  1  0
 10 28  1  0
 11 29  1  0
 12 30  1  0
 13 31  1  0
 15 32  1  0
 15 33  1  0
 16 34  1  0
 17 35  1  0
 17 36  1  0
 18 37  1  0
 18 38  1  0
M  END
>  <Ligand ID>  (1) 
LIG0005203

>  <Ligand>  (1) 
CHEMBL2089156

>  <SMILES>  (1) 
C[C@@H](C1=NCCN1)Oc1ccccc1CC1CC1

>  <CID>  (1) 
70695474.0

>  <ChEMBL ID>  (1) 
nan

>  <InChiKey>  (1) 
SEKAQUSPSDPIAN-NSHDSACASA-N

>  <InChi>  (1) 
InChI=1S/C15H20N2O/c1-11(15-16-8-9-17-15)18-14-5-3-2-4-13(14)10-12-6-7-12/h2-5,11-12H,6-10H2,1H3,(H,16,17)/t11-/m0/s1

>  <IUPAC Name>  (1) 
2-[(1S)-1-[2-(cyclopropylmethyl)phenoxy]ethyl]-4,5-dihydro-1H-imidazole

$$$$
