
     RDKit          3D

 33 32  0  0  0  0  0  0  0  0999 V2000
    3.8748   -0.7988   -0.8294 C   0  0  0  0  0  0  0  0  0  0  0  0
    2.7034    0.1022   -0.5519 C   0  0  2  0  0  0  0  0  0  0  0  0
    2.8720    0.7215    0.8097 C   0  0  0  0  0  0  0  0  0  0  0  0
    1.7390    0.6493    1.6045 O   0  0  0  0  0  0  0  0  0  0  0  0
    0.5590    0.9251    0.9325 C   0  0  0  0  0  0  0  0  0  0  0  0
    0.4035    0.1069   -0.3464 C   0  0  1  0  0  0  0  0  0  0  0  0
    1.5508   -0.6773   -0.5242 O   0  0  0  0  0  0  0  0  0  0  0  0
   -0.7588   -0.8307   -0.2172 C   0  0  0  0  0  0  0  0  0  0  0  0
   -2.0339   -0.2284   -0.0295 N   0  0  0  0  0  0  0  0  0  0  0  0
   -2.1475    1.1375   -0.4776 C   0  0  0  0  0  0  0  0  0  0  0  0
   -2.9899   -0.9901   -0.8498 C   0  0  0  0  0  0  0  0  0  0  0  0
   -2.5284   -0.3027    1.3305 C   0  0  0  0  0  0  0  0  0  0  0  0
    0.0000    0.0000    0.0000 I   0  0  0  0  0  0  0  0  0  0  0  0
    4.6878   -0.2783   -1.4066 H   0  0  0  0  0  0  0  0  0  0  0  0
    3.5904   -1.6767   -1.4659 H   0  0  0  0  0  0  0  0  0  0  0  0
    4.3215   -1.2321    0.0920 H   0  0  0  0  0  0  0  0  0  0  0  0
    2.6148    0.8750   -1.3580 H   0  0  0  0  0  0  0  0  0  0  0  0
    3.6924    0.2124    1.3440 H   0  0  0  0  0  0  0  0  0  0  0  0
    3.1586    1.7855    0.6333 H   0  0  0  0  0  0  0  0  0  0  0  0
    0.5099    2.0165    0.7220 H   0  0  0  0  0  0  0  0  0  0  0  0
   -0.2592    0.7036    1.6648 H   0  0  0  0  0  0  0  0  0  0  0  0
    0.3468    0.8104   -1.1751 H   0  0  0  0  0  0  0  0  0  0  0  0
   -0.7495   -1.5848   -1.0305 H   0  0  0  0  0  0  0  0  0  0  0  0
   -0.5668   -1.4410    0.7139 H   0  0  0  0  0  0  0  0  0  0  0  0
   -1.9140    1.8408    0.3533 H   0  0  0  0  0  0  0  0  0  0  0  0
   -1.6088    1.3639   -1.4008 H   0  0  0  0  0  0  0  0  0  0  0  0
   -3.2214    1.3191   -0.7021 H   0  0  0  0  0  0  0  0  0  0  0  0
   -2.9882   -2.0195   -0.4374 H   0  0  0  0  0  0  0  0  0  0  0  0
   -2.7181   -0.9635   -1.9176 H   0  0  0  0  0  0  0  0  0  0  0  0
   -3.9836   -0.5408   -0.6461 H   0  0  0  0  0  0  0  0  0  0  0  0
   -3.5712   -0.7320    1.3881 H   0  0  0  0  0  0  0  0  0  0  0  0
   -2.6540    0.7153    1.8008 H   0  0  0  0  0  0  0  0  0  0  0  0
   -1.9312   -0.9884    1.9767 H   0  0  0  0  0  0  0  0  0  0  0  0
  1  2  1  0
  2  3  1  0
  3  4  1  0
  4  5  1  0
  5  6  1  0
  6  7  1  0
  6  8  1  0
  8  9  1  0
  9 10  1  0
  9 11  1  0
  9 12  1  0
  7  2  1  0
  1 14  1  0
  1 15  1  0
  1 16  1  0
  2 17  1  6
  3 18  1  0
  3 19  1  0
  5 20  1  0
  5 21  1  0
  6 22  1  6
  8 23  1  0
  8 24  1  0
 10 25  1  0
 10 26  1  0
 10 27  1  0
 11 28  1  0
 11 29  1  0
 11 30  1  0
 12 31  1  0
 12 32  1  0
 12 33  1  0
M  CHG  2   9   1  13  -1
M  END
>  <Ligand ID>  (1) 
LIG0001101

>  <Ligand>  (1) 
CHEMBL227378

>  <SMILES>  (1) 
C[C@@H]1COC[C@@H](O1)C[N+](C)(C)C.[I-]

>  <CID>  (1) 
44422698.0

>  <ChEMBL ID>  (1) 
nan

>  <InChiKey>  (1) 
KUBKWLQZGDWVNE-RJUBDTSPSA-M

>  <InChi>  (1) 
InChI=1S/C9H20NO2.HI/c1-8-6-11-7-9(12-8)5-10(2,3)4;/h8-9H,5-7H2,1-4H3;1H/q+1;/p-1/t8-,9+;/m1./s1

>  <IUPAC Name>  (1) 
trimethyl-[[(2S,6R)-6-methyl-1,4-dioxan-2-yl]methyl]azanium;iodide

$$$$
