
     RDKit          3D

 61 64  0  0  0  0  0  0  0  0999 V2000
   -1.7753    0.4782    3.5113 C   0  0  0  0  0  0  0  0  0  0  0  0
   -2.4185    0.2705    2.1583 C   0  0  2  0  0  0  0  0  0  0  0  0
   -3.8601   -0.1045    2.2503 C   0  0  0  0  0  0  0  0  0  0  0  0
   -4.3270   -0.4587    0.9261 N   0  0  0  0  0  0  0  0  0  0  0  0
   -3.6388   -1.5014    0.1900 C   0  0  0  0  0  0  0  0  0  0  0  0
   -2.4075   -1.9396    0.9456 C   0  0  0  0  0  0  0  0  0  0  0  0
   -1.7195   -0.7456    1.3983 N   0  0  0  0  0  0  0  0  0  0  0  0
   -0.3259   -0.5904    1.0766 C   0  0  0  0  0  0  0  0  0  0  0  0
    0.2446   -1.5952    0.3600 N   0  0  0  0  0  0  0  0  0  0  0  0
    1.5595   -1.4842    0.0369 C   0  0  0  0  0  0  0  0  0  0  0  0
    2.3014   -0.3699    0.4304 C   0  0  0  0  0  0  0  0  0  0  0  0
    1.6371    0.5993    1.1549 C   0  0  0  0  0  0  0  0  0  0  0  0
    0.3381    0.4876    1.4729 N   0  0  0  0  0  0  0  0  0  0  0  0
    3.6214   -0.3140    0.0755 O   0  0  0  0  0  0  0  0  0  0  0  0
    4.3907    0.8016    0.4616 C   0  0  0  0  0  0  0  0  0  0  0  0
    5.7678    0.5622   -0.0717 C   0  0  0  0  0  0  0  0  0  0  0  0
    6.7006   -0.0981    0.6832 C   0  0  0  0  0  0  0  0  0  0  0  0
    7.9800   -0.3324    0.2141 C   0  0  0  0  0  0  0  0  0  0  0  0
    8.3040    0.1199   -1.0512 C   0  0  0  0  0  0  0  0  0  0  0  0
    7.3735    0.7772   -1.8011 C   0  0  0  0  0  0  0  0  0  0  0  0
    6.0984    1.0060   -1.3231 C   0  0  0  0  0  0  0  0  0  0  0  0
    9.6221   -0.1267   -1.5230 N   0  0  0  0  0  0  0  0  0  0  0  0
   10.7664    0.0953   -0.8378 C   0  0  0  0  0  0  0  0  0  0  0  0
   11.7683   -0.2723   -1.6488 N   0  0  0  0  0  0  0  0  0  0  0  0
   11.2384   -0.6976   -2.7755 N   0  0  0  0  0  0  0  0  0  0  0  0
    9.9325   -0.6079   -2.6963 N   0  0  0  0  0  0  0  0  0  0  0  0
   -5.4468    0.1976    0.3368 C   0  0  0  0  0  0  0  0  0  0  0  0
   -6.0520    1.1030    0.9646 O   0  0  0  0  0  0  0  0  0  0  0  0
   -5.8787   -0.1456   -0.9151 O   0  0  0  0  0  0  0  0  0  0  0  0
   -6.9611    0.4153   -1.6109 C   0  0  0  0  0  0  0  0  0  0  0  0
   -6.7465    1.8914   -1.8133 C   0  0  0  0  0  0  0  0  0  0  0  0
   -8.2090    0.1196   -0.8123 C   0  0  0  0  0  0  0  0  0  0  0  0
   -7.0052   -0.2634   -2.9728 C   0  0  0  0  0  0  0  0  0  0  0  0
   -2.5434    0.7337    4.2406 H   0  0  0  0  0  0  0  0  0  0  0  0
   -1.0262    1.2891    3.3974 H   0  0  0  0  0  0  0  0  0  0  0  0
   -1.2196   -0.4463    3.7573 H   0  0  0  0  0  0  0  0  0  0  0  0
   -2.3744    1.2408    1.5893 H   0  0  0  0  0  0  0  0  0  0  0  0
   -3.9679   -0.9725    2.9336 H   0  0  0  0  0  0  0  0  0  0  0  0
   -4.4458    0.7361    2.6666 H   0  0  0  0  0  0  0  0  0  0  0  0
   -3.2884   -1.0264   -0.7672 H   0  0  0  0  0  0  0  0  0  0  0  0
   -4.3046   -2.3428   -0.0581 H   0  0  0  0  0  0  0  0  0  0  0  0
   -2.7787   -2.5579    1.7935 H   0  0  0  0  0  0  0  0  0  0  0  0
   -1.7966   -2.5350    0.2499 H   0  0  0  0  0  0  0  0  0  0  0  0
    2.0464   -2.2624   -0.5313 H   0  0  0  0  0  0  0  0  0  0  0  0
    2.1983    1.4594    1.4619 H   0  0  0  0  0  0  0  0  0  0  0  0
    3.9967    1.7174    0.0178 H   0  0  0  0  0  0  0  0  0  0  0  0
    4.4206    0.9193    1.5760 H   0  0  0  0  0  0  0  0  0  0  0  0
    6.4290   -0.4424    1.6658 H   0  0  0  0  0  0  0  0  0  0  0  0
    8.6976   -0.8567    0.8314 H   0  0  0  0  0  0  0  0  0  0  0  0
    7.6249    1.1374   -2.8035 H   0  0  0  0  0  0  0  0  0  0  0  0
    5.3577    1.5306   -1.9230 H   0  0  0  0  0  0  0  0  0  0  0  0
   10.7964    0.4950    0.1689 H   0  0  0  0  0  0  0  0  0  0  0  0
   -6.9127    2.4316   -0.8541 H   0  0  0  0  0  0  0  0  0  0  0  0
   -7.4637    2.3100   -2.5462 H   0  0  0  0  0  0  0  0  0  0  0  0
   -5.7085    2.0318   -2.1249 H   0  0  0  0  0  0  0  0  0  0  0  0
   -8.7284    1.0881   -0.6021 H   0  0  0  0  0  0  0  0  0  0  0  0
   -8.9063   -0.5638   -1.3469 H   0  0  0  0  0  0  0  0  0  0  0  0
   -7.9923   -0.3365    0.1732 H   0  0  0  0  0  0  0  0  0  0  0  0
   -7.8469    0.1284   -3.5767 H   0  0  0  0  0  0  0  0  0  0  0  0
   -6.0132   -0.1435   -3.4177 H   0  0  0  0  0  0  0  0  0  0  0  0
   -7.1229   -1.3629   -2.7662 H   0  0  0  0  0  0  0  0  0  0  0  0
  1  2  1  0
  2  3  1  0
  3  4  1  0
  4  5  1  0
  5  6  1  0
  6  7  1  0
  7  8  1  0
  8  9  2  0
  9 10  1  0
 10 11  2  0
 11 12  1  0
 12 13  2  0
 11 14  1  0
 14 15  1  0
 15 16  1  0
 16 17  2  0
 17 18  1  0
 18 19  2  0
 19 20  1  0
 20 21  2  0
 19 22  1  0
 22 23  1  0
 23 24  2  0
 24 25  1  0
 25 26  2  0
  4 27  1  0
 27 28  2  0
 27 29  1  0
 29 30  1  0
 30 31  1  0
 30 32  1  0
 30 33  1  0
  7  2  1  0
 13  8  1  0
 21 16  1  0
 26 22  1  0
  1 34  1  0
  1 35  1  0
  1 36  1  0
  2 37  1  6
  3 38  1  0
  3 39  1  0
  5 40  1  0
  5 41  1  0
  6 42  1  0
  6 43  1  0
 10 44  1  0
 12 45  1  0
 15 46  1  0
 15 47  1  0
 17 48  1  0
 18 49  1  0
 20 50  1  0
 21 51  1  0
 23 52  1  0
 31 53  1  0
 31 54  1  0
 31 55  1  0
 32 56  1  0
 32 57  1  0
 32 58  1  0
 33 59  1  0
 33 60  1  0
 33 61  1  0
M  END
>  <Ligand ID>  (1) 
LIG0005321

>  <Ligand>  (1) 
CHEMBL2086671

>  <SMILES>  (1) 
C[C@@H]1CN(CCN1c1ncc(cn1)OCc1ccc(cc1)n1cnnn1)C(=O)OC(C)(C)C

>  <CID>  (1) 
58190314.0

>  <ChEMBL ID>  (1) 
nan

>  <InChiKey>  (1) 
NCESSPIKSFVRMR-MRXNPFEDSA-N

>  <InChi>  (1) 
InChI=1S/C22H28N8O3/c1-16-13-28(21(31)33-22(2,3)4)9-10-29(16)20-23-11-19(12-24-20)32-14-17-5-7-18(8-6-17)30-15-25-26-27-30/h5-8,11-12,15-16H,9-10,13-14H2,1-4H3/t16-/m1/s1

>  <IUPAC Name>  (1) 
tert-butyl (3R)-3-methyl-4-[5-[[4-(tetrazol-1-yl)phenyl]methoxy]pyrimidin-2-yl]piperazine-1-carboxylate

$$$$
