
     RDKit          3D

 40 42  0  0  0  0  0  0  0  0999 V2000
   -0.1369    2.8946    1.1999 C   0  0  0  0  0  0  0  0  0  0  0  0
    0.2001    1.8719    0.3611 C   0  0  0  0  0  0  0  0  0  0  0  0
    1.2950    2.1660   -0.5781 C   0  0  0  0  0  0  0  0  0  0  0  0
    2.5375    1.3621   -0.4787 C   0  0  0  0  0  0  0  0  0  0  0  0
    2.4319   -0.0177   -0.9277 C   0  0  1  0  0  0  0  0  0  0  0  0
    3.4272   -0.9282   -0.5479 O   0  0  0  0  0  0  0  0  0  0  0  0
    2.1771   -1.0556    0.0364 C   0  0  2  0  0  0  0  0  0  0  0  0
    1.2447   -2.0886   -0.5901 C   0  0  0  0  0  0  0  0  0  0  0  0
   -0.1289   -1.7294   -0.1229 C   0  0  0  0  0  0  0  0  0  0  0  0
   -0.5562   -0.3485   -0.5744 C   0  0  2  0  0  0  0  0  0  0  0  0
   -0.5743    0.6529    0.5042 C   0  0  2  0  0  0  0  0  0  0  0  0
   -2.0301    0.9703    0.1081 C   0  0  0  0  0  0  0  0  0  0  0  0
   -2.0727   -0.3753   -0.5439 C   0  0  0  0  0  0  0  0  0  0  0  0
   -2.7192   -0.4411   -1.9036 C   0  0  0  0  0  0  0  0  0  0  0  0
   -2.6947   -1.3620    0.4146 C   0  0  0  0  0  0  0  0  0  0  0  0
    2.1424   -0.9907    1.4916 C   0  0  0  0  0  0  0  0  0  0  0  0
   -0.9257    2.7936    1.9313 H   0  0  0  0  0  0  0  0  0  0  0  0
    0.3717    3.8475    1.1664 H   0  0  0  0  0  0  0  0  0  0  0  0
    0.8259    2.0442   -1.6166 H   0  0  0  0  0  0  0  0  0  0  0  0
    1.5573    3.2617   -0.5803 H   0  0  0  0  0  0  0  0  0  0  0  0
    2.8113    1.4532    0.6292 H   0  0  0  0  0  0  0  0  0  0  0  0
    3.3672    1.8912   -1.0487 H   0  0  0  0  0  0  0  0  0  0  0  0
    2.2014   -0.1987   -2.0166 H   0  0  0  0  0  0  0  0  0  0  0  0
    1.2708   -1.9875   -1.7138 H   0  0  0  0  0  0  0  0  0  0  0  0
    1.5471   -3.1086   -0.3696 H   0  0  0  0  0  0  0  0  0  0  0  0
   -0.8113   -2.5112   -0.5662 H   0  0  0  0  0  0  0  0  0  0  0  0
   -0.2673   -1.8499    0.9697 H   0  0  0  0  0  0  0  0  0  0  0  0
   -0.1523   -0.0142   -1.5255 H   0  0  0  0  0  0  0  0  0  0  0  0
   -0.6230    0.2084    1.5246 H   0  0  0  0  0  0  0  0  0  0  0  0
   -2.0980    1.7419   -0.7095 H   0  0  0  0  0  0  0  0  0  0  0  0
   -2.7015    1.1448    0.9550 H   0  0  0  0  0  0  0  0  0  0  0  0
   -3.7540   -0.0567   -1.8127 H   0  0  0  0  0  0  0  0  0  0  0  0
   -2.8166   -1.5282   -2.1474 H   0  0  0  0  0  0  0  0  0  0  0  0
   -2.1140    0.0648   -2.6664 H   0  0  0  0  0  0  0  0  0  0  0  0
   -2.7910   -2.3788    0.0204 H   0  0  0  0  0  0  0  0  0  0  0  0
   -3.7311   -0.9540    0.6055 H   0  0  0  0  0  0  0  0  0  0  0  0
   -2.2098   -1.3893    1.3906 H   0  0  0  0  0  0  0  0  0  0  0  0
    1.8135   -0.0628    1.9825 H   0  0  0  0  0  0  0  0  0  0  0  0
    3.1664   -1.1854    1.9269 H   0  0  0  0  0  0  0  0  0  0  0  0
    1.5202   -1.8066    1.9467 H   0  0  0  0  0  0  0  0  0  0  0  0
  1  2  2  0
  2  3  1  0
  3  4  1  0
  4  5  1  0
  5  6  1  0
  6  7  1  0
  7  8  1  0
  8  9  1  0
  9 10  1  0
 10 11  1  0
 11 12  1  0
 12 13  1  0
 13 14  1  0
 13 15  1  0
  7 16  1  1
 11  2  1  0
  7  5  1  0
 13 10  1  0
  1 17  1  0
  1 18  1  0
  3 19  1  0
  3 20  1  0
  4 21  1  0
  4 22  1  0
  5 23  1  6
  8 24  1  0
  8 25  1  0
  9 26  1  0
  9 27  1  0
 10 28  1  6
 11 29  1  1
 12 30  1  0
 12 31  1  0
 14 32  1  0
 14 33  1  0
 14 34  1  0
 15 35  1  0
 15 36  1  0
 15 37  1  0
 16 38  1  0
 16 39  1  0
 16 40  1  0
M  END
>  <Ligand ID>  (1) 
LIG0000362

>  <Ligand>  (1) 
beta-CARYOPHYLLENE OXIDE

>  <SMILES>  (1) 
C=C1CC[C@H]2O[C@@]2(CC[C@@H]2[C@@H]1CC2(C)C)C

>  <CID>  (1) 
1742210.0

>  <ChEMBL ID>  (1) 
nan

>  <InChiKey>  (1) 
NVEQFIOZRFFVFW-RGCMKSIDSA-N

>  <InChi>  (1) 
InChI=1S/C15H24O/c1-10-5-6-13-15(4,16-13)8-7-12-11(10)9-14(12,2)3/h11-13H,1,5-9H2,2-4H3/t11-,12-,13-,15-/m1/s1

>  <IUPAC Name>  (1) 
(1R,4R,6R,10S)-4,12,12-trimethyl-9-methylidene-5-oxatricyclo[8.2.0.04,6]dodecane

$$$$
