
     RDKit          3D

133135  0  0  0  0  0  0  0  0999 V2000
   10.9409    2.7612   -0.6543 N   0  0  0  0  0  0  0  0  0  0  0  0
    9.7214    3.1429    0.0354 C   0  0  0  0  0  0  0  0  0  0  0  0
    8.5199    3.0464   -0.8353 C   0  0  0  0  0  0  0  0  0  0  0  0
    8.1723    1.7235   -1.3879 C   0  0  0  0  0  0  0  0  0  0  0  0
    7.8279    0.6307   -0.4404 C   0  0  1  0  0  0  0  0  0  0  0  0
    8.8346    0.2206    0.5246 C   0  0  0  0  0  0  0  0  0  0  0  0
    8.5474    0.2002    1.7704 O   0  0  0  0  0  0  0  0  0  0  0  0
   10.1622   -0.1736    0.1665 N   0  0  0  0  0  0  0  0  0  0  0  0
   11.1537   -0.5797    1.1417 C   0  0  0  0  0  0  0  0  0  0  0  0
   12.4042   -0.9071    0.3690 C   0  0  0  0  0  0  0  0  0  0  0  0
   13.4574   -1.2975    0.9634 O   0  0  0  0  0  0  0  0  0  0  0  0
   12.4644   -0.7966   -1.0467 N   0  0  0  0  0  0  0  0  0  0  0  0
    6.6040    0.9577    0.3103 N   0  0  0  0  0  0  0  0  0  0  0  0
    5.3555    0.3111   -0.0057 C   0  0  0  0  0  0  0  0  0  0  0  0
    5.2602   -0.5489   -0.9174 O   0  0  0  0  0  0  0  0  0  0  0  0
    4.1917    0.7384    0.8192 C   0  0  2  0  0  0  0  0  0  0  0  0
    4.3063    0.1652    2.1840 C   0  0  0  0  0  0  0  0  0  0  0  0
    3.5321   -1.1110    2.1548 C   0  0  0  0  0  0  0  0  0  0  0  0
    2.5746   -1.0169    0.9826 C   0  0  0  0  0  0  0  0  0  0  0  0
    2.9565    0.1651    0.2498 N   0  0  0  0  0  0  0  0  0  0  0  0
    2.3333    0.8089   -0.8525 C   0  0  0  0  0  0  0  0  0  0  0  0
    2.8772    1.8509   -1.3911 O   0  0  0  0  0  0  0  0  0  0  0  0
    1.0582    0.4074   -1.4968 C   0  0  2  0  0  0  0  0  0  0  0  0
    0.2021    1.6331   -1.7675 C   0  0  0  0  0  0  0  0  0  0  0  0
    0.1551    2.5599   -0.2023 S   0  0  0  0  0  0  0  0  0  0  0  0
   -0.7982    4.4324   -0.4731 S   0  0  0  0  0  0  0  0  0  0  0  0
   -2.5763    4.3648   -0.1536 C   0  0  0  0  0  0  0  0  0  0  0  0
   -3.2971    3.4868   -1.1114 C   0  0  2  0  0  0  0  0  0  0  0  0
   -3.2426    3.9088   -2.4884 N   0  0  0  0  0  0  0  0  0  0  0  0
   -4.6890    3.1506   -0.7225 C   0  0  0  0  0  0  0  0  0  0  0  0
   -5.5634    3.0397   -1.5806 O   0  0  0  0  0  0  0  0  0  0  0  0
   -5.0941    2.9400    0.6261 N   0  0  0  0  0  0  0  0  0  0  0  0
   -6.4077    2.5626    1.0677 C   0  0  1  0  0  0  0  0  0  0  0  0
   -7.5660    3.2358    0.4249 C   0  0  0  0  0  0  0  0  0  0  0  0
   -7.5972    4.6821    0.6271 C   0  0  0  0  0  0  0  0  0  0  0  0
   -7.0987    5.6502   -0.1951 C   0  0  0  0  0  0  0  0  0  0  0  0
   -7.1676    7.0151    0.1043 C   0  0  0  0  0  0  0  0  0  0  0  0
   -7.7591    7.4377    1.2753 C   0  0  0  0  0  0  0  0  0  0  0  0
   -8.2697    6.4784    2.1217 C   0  0  0  0  0  0  0  0  0  0  0  0
   -8.1949    5.1385    1.8134 C   0  0  0  0  0  0  0  0  0  0  0  0
   -6.4747    1.0811    0.9696 C   0  0  0  0  0  0  0  0  0  0  0  0
   -7.4586    0.3896    1.2641 O   0  0  0  0  0  0  0  0  0  0  0  0
   -5.3387    0.3748    0.5062 N   0  0  0  0  0  0  0  0  0  0  0  0
   -5.2334   -1.0814    0.3822 C   0  0  2  0  0  0  0  0  0  0  0  0
   -4.0163   -1.4685    1.2004 C   0  0  0  0  0  0  0  0  0  0  0  0
   -3.3621   -0.6178    1.8254 O   0  0  0  0  0  0  0  0  0  0  0  0
   -3.5436   -2.7969    1.3104 N   0  0  0  0  0  0  0  0  0  0  0  0
   -2.3695   -3.1748    2.0984 C   0  0  2  0  0  0  0  0  0  0  0  0
   -1.1894   -3.3887    1.2109 C   0  0  0  0  0  0  0  0  0  0  0  0
   -0.1316   -3.9277    1.5528 O   0  0  0  0  0  0  0  0  0  0  0  0
   -1.2019   -2.9502   -0.1700 N   0  0  0  0  0  0  0  0  0  0  0  0
   -0.1356   -3.2335   -1.0989 C   0  0  2  0  0  0  0  0  0  0  0  0
    0.5352   -1.9987   -1.4990 C   0  0  0  0  0  0  0  0  0  0  0  0
    1.3666   -2.0352   -2.4205 O   0  0  0  0  0  0  0  0  0  0  0  0
    0.3471   -0.6875   -0.9237 N   0  0  0  0  0  0  0  0  0  0  0  0
   -0.6424   -4.0294   -2.2863 C   0  0  0  0  0  0  0  0  0  0  0  0
    0.3864   -4.3669   -3.2821 C   0  0  0  0  0  0  0  0  0  0  0  0
    0.6991   -3.6905   -4.2770 O   0  0  0  0  0  0  0  0  0  0  0  0
    1.0988   -5.5985   -3.0858 N   0  0  0  0  0  0  0  0  0  0  0  0
   -2.7081   -4.3793    2.9076 C   0  0  0  0  0  0  0  0  0  0  0  0
   -3.0816   -5.5229    2.0747 C   0  0  0  0  0  0  0  0  0  0  0  0
   -3.0649   -5.5479    0.8154 O   0  0  0  0  0  0  0  0  0  0  0  0
   -3.5030   -6.7191    2.7220 N   0  0  0  0  0  0  0  0  0  0  0  0
   -3.8993   -7.9146    2.0023 C   0  0  0  0  0  0  0  0  0  0  0  0
   -5.0161   -1.3196   -1.0930 C   0  0  2  0  0  0  0  0  0  0  0  0
   -6.2023   -0.7168   -1.8433 C   0  0  0  0  0  0  0  0  0  0  0  0
   -7.5264   -1.3155   -1.4974 C   0  0  0  0  0  0  0  0  0  0  0  0
   -4.9837   -2.7941   -1.4629 C   0  0  0  0  0  0  0  0  0  0  0  0
   11.6844    2.7164    0.0943 H   0  0  0  0  0  0  0  0  0  0  0  0
   11.2444    3.4839   -1.3198 H   0  0  0  0  0  0  0  0  0  0  0  0
    9.9138    4.2040    0.3743 H   0  0  0  0  0  0  0  0  0  0  0  0
    9.5493    2.5911    0.9758 H   0  0  0  0  0  0  0  0  0  0  0  0
    7.6261    3.5697   -0.3707 H   0  0  0  0  0  0  0  0  0  0  0  0
    8.7337    3.7147   -1.7289 H   0  0  0  0  0  0  0  0  0  0  0  0
    8.9792    1.4260   -2.0958 H   0  0  0  0  0  0  0  0  0  0  0  0
    7.2747    1.8654   -2.0459 H   0  0  0  0  0  0  0  0  0  0  0  0
    7.5047   -0.2403   -1.0922 H   0  0  0  0  0  0  0  0  0  0  0  0
   10.3628   -0.1440   -0.8709 H   0  0  0  0  0  0  0  0  0  0  0  0
   11.3475    0.2483    1.8634 H   0  0  0  0  0  0  0  0  0  0  0  0
   10.8281   -1.4973    1.6618 H   0  0  0  0  0  0  0  0  0  0  0  0
   11.8532   -1.3782   -1.6580 H   0  0  0  0  0  0  0  0  0  0  0  0
   13.1495   -0.1023   -1.4408 H   0  0  0  0  0  0  0  0  0  0  0  0
    6.6587    1.6658    1.0747 H   0  0  0  0  0  0  0  0  0  0  0  0
    4.1052    1.8555    0.8287 H   0  0  0  0  0  0  0  0  0  0  0  0
    5.3859   -0.0907    2.4168 H   0  0  0  0  0  0  0  0  0  0  0  0
    3.9691    0.8595    2.9872 H   0  0  0  0  0  0  0  0  0  0  0  0
    4.2132   -2.0000    2.0062 H   0  0  0  0  0  0  0  0  0  0  0  0
    2.9899   -1.3000    3.1132 H   0  0  0  0  0  0  0  0  0  0  0  0
    2.7373   -1.9031    0.2960 H   0  0  0  0  0  0  0  0  0  0  0  0
    1.5432   -1.0416    1.3312 H   0  0  0  0  0  0  0  0  0  0  0  0
    1.4169    0.1144   -2.5549 H   0  0  0  0  0  0  0  0  0  0  0  0
    0.5996    2.2126   -2.5995 H   0  0  0  0  0  0  0  0  0  0  0  0
   -0.8295    1.2198   -1.9510 H   0  0  0  0  0  0  0  0  0  0  0  0
   -2.9531    5.4140   -0.3408 H   0  0  0  0  0  0  0  0  0  0  0  0
   -2.7837    4.1925    0.9143 H   0  0  0  0  0  0  0  0  0  0  0  0
   -2.6763    2.5169   -1.1167 H   0  0  0  0  0  0  0  0  0  0  0  0
   -2.3561    4.4100   -2.7078 H   0  0  0  0  0  0  0  0  0  0  0  0
   -3.3497    3.1018   -3.1338 H   0  0  0  0  0  0  0  0  0  0  0  0
   -4.3602    3.0741    1.3246 H   0  0  0  0  0  0  0  0  0  0  0  0
   -6.5009    2.7821    2.1871 H   0  0  0  0  0  0  0  0  0  0  0  0
   -7.6661    3.0061   -0.6548 H   0  0  0  0  0  0  0  0  0  0  0  0
   -8.4911    2.8002    0.8887 H   0  0  0  0  0  0  0  0  0  0  0  0
   -6.6311    5.4077   -1.1260 H   0  0  0  0  0  0  0  0  0  0  0  0
   -6.7636    7.7490   -0.5693 H   0  0  0  0  0  0  0  0  0  0  0  0
   -7.8365    8.4792    1.5524 H   0  0  0  0  0  0  0  0  0  0  0  0
   -8.7322    6.7894    3.0369 H   0  0  0  0  0  0  0  0  0  0  0  0
   -8.6202    4.4156    2.5269 H   0  0  0  0  0  0  0  0  0  0  0  0
   -4.5267    0.9196    0.2387 H   0  0  0  0  0  0  0  0  0  0  0  0
   -6.0918   -1.6302    0.7213 H   0  0  0  0  0  0  0  0  0  0  0  0
   -4.0813   -3.5010    0.8096 H   0  0  0  0  0  0  0  0  0  0  0  0
   -2.0693   -2.3498    2.7819 H   0  0  0  0  0  0  0  0  0  0  0  0
   -2.0276   -2.4148   -0.4234 H   0  0  0  0  0  0  0  0  0  0  0  0
    0.6129   -3.9533   -0.6090 H   0  0  0  0  0  0  0  0  0  0  0  0
   -0.3014   -0.6804   -0.1360 H   0  0  0  0  0  0  0  0  0  0  0  0
   -1.1525   -4.9569   -1.9038 H   0  0  0  0  0  0  0  0  0  0  0  0
   -1.4377   -3.4614   -2.8331 H   0  0  0  0  0  0  0  0  0  0  0  0
    0.6481   -6.4961   -3.4369 H   0  0  0  0  0  0  0  0  0  0  0  0
    2.0328   -5.6384   -2.6156 H   0  0  0  0  0  0  0  0  0  0  0  0
   -1.9164   -4.6426    3.6443 H   0  0  0  0  0  0  0  0  0  0  0  0
   -3.6412   -4.1042    3.4889 H   0  0  0  0  0  0  0  0  0  0  0  0
   -3.5415   -6.7739    3.7820 H   0  0  0  0  0  0  0  0  0  0  0  0
   -3.0627   -8.6162    1.8921 H   0  0  0  0  0  0  0  0  0  0  0  0
   -4.1735   -7.5611    0.9686 H   0  0  0  0  0  0  0  0  0  0  0  0
   -4.7918   -8.4103    2.4620 H   0  0  0  0  0  0  0  0  0  0  0  0
   -4.1171   -0.8353   -1.4937 H   0  0  0  0  0  0  0  0  0  0  0  0
   -6.2585    0.3855   -1.6611 H   0  0  0  0  0  0  0  0  0  0  0  0
   -6.0472   -0.7982   -2.9456 H   0  0  0  0  0  0  0  0  0  0  0  0
   -8.2993   -0.4885   -1.5615 H   0  0  0  0  0  0  0  0  0  0  0  0
   -7.6209   -1.7086   -0.4886 H   0  0  0  0  0  0  0  0  0  0  0  0
   -7.8795   -2.0410   -2.2764 H   0  0  0  0  0  0  0  0  0  0  0  0
   -5.7063   -3.3763   -0.8910 H   0  0  0  0  0  0  0  0  0  0  0  0
   -5.3491   -2.8373   -2.5365 H   0  0  0  0  0  0  0  0  0  0  0  0
   -3.9618   -3.2029   -1.5236 H   0  0  0  0  0  0  0  0  0  0  0  0
  1  2  1  0
  2  3  1  0
  3  4  1  0
  4  5  1  0
  5  6  1  0
  6  7  2  0
  6  8  1  0
  8  9  1  0
  9 10  1  0
 10 11  2  0
 10 12  1  0
  5 13  1  0
 13 14  1  0
 14 15  2  0
 14 16  1  0
 16 17  1  0
 17 18  1  0
 18 19  1  0
 19 20  1  0
 20 21  1  0
 21 22  2  0
 21 23  1  0
 23 24  1  0
 24 25  1  0
 25 26  1  0
 26 27  1  0
 27 28  1  0
 28 29  1  0
 28 30  1  0
 30 31  2  0
 30 32  1  0
 32 33  1  0
 33 34  1  0
 34 35  1  0
 35 36  2  0
 36 37  1  0
 37 38  2  0
 38 39  1  0
 39 40  2  0
 33 41  1  0
 41 42  2  0
 41 43  1  0
 43 44  1  0
 44 45  1  0
 45 46  2  0
 45 47  1  0
 47 48  1  0
 48 49  1  0
 49 50  2  0
 49 51  1  0
 51 52  1  0
 52 53  1  0
 53 54  2  0
 53 55  1  0
 52 56  1  0
 56 57  1  0
 57 58  2  0
 57 59  1  0
 48 60  1  0
 60 61  1  0
 61 62  2  0
 61 63  1  0
 63 64  1  0
 44 65  1  0
 65 66  1  0
 66 67  1  0
 65 68  1  0
 20 16  1  0
 55 23  1  0
 40 35  1  0
  1 69  1  0
  1 70  1  0
  2 71  1  0
  2 72  1  0
  3 73  1  0
  3 74  1  0
  4 75  1  0
  4 76  1  0
  5 77  1  6
  8 78  1  0
  9 79  1  0
  9 80  1  0
 12 81  1  0
 12 82  1  0
 13 83  1  0
 16 84  1  1
 17 85  1  0
 17 86  1  0
 18 87  1  0
 18 88  1  0
 19 89  1  0
 19 90  1  0
 23 91  1  6
 24 92  1  0
 24 93  1  0
 27 94  1  0
 27 95  1  0
 28 96  1  6
 29 97  1  0
 29 98  1  0
 32 99  1  0
 33100  1  1
 34101  1  0
 34102  1  0
 36103  1  0
 37104  1  0
 38105  1  0
 39106  1  0
 40107  1  0
 43108  1  0
 44109  1  1
 47110  1  0
 48111  1  1
 51112  1  0
 52113  1  1
 55114  1  0
 56115  1  0
 56116  1  0
 59117  1  0
 59118  1  0
 60119  1  0
 60120  1  0
 63121  1  0
 64122  1  0
 64123  1  0
 64124  1  0
 65125  1  6
 66126  1  0
 66127  1  0
 67128  1  0
 67129  1  0
 67130  1  0
 68131  1  0
 68132  1  0
 68133  1  0
M  END
>  <Ligand ID>  (1) 
LIG0001587

>  <Ligand>  (1) 
CHEMBL1817693

>  <SMILES>  (1) 
NCCC[C@@H](C(=O)NCC(=O)N)NC(=O)[C@@H]1CCCN1C(=O)[C@@H]1CSSC[C@H](N)C(=O)N[C@@H](Cc2ccccc2)C(=O)N[C@H](C(=O)N[C@H](C(=O)N[C@H](C(=O)N1)CC(=O)N)CC(=O)NC)[C@H](CC)C

>  <CID>  (1) 
53362204.0

>  <ChEMBL ID>  (1) 
nan

>  <InChiKey>  (1) 
IQRPBGJAXRIIOJ-OVCMMVBBSA-N

>  <InChi>  (1) 
InChI=1S/C42H65N13O11S2/c1-4-22(2)34-41(65)52-28(18-33(58)47-3)38(62)51-27(17-31(45)56)37(61)53-29(21-68-67-20-24(44)35(59)50-26(39(63)54-34)16-23-10-6-5-7-11-23)42(66)55-15-9-13-30(55)40(64)49-25(12-8-14-43)36(60)48-19-32(46)57/h5-7,10-11,22,24-30,34H,4,8-9,12-21,43-44H2,1-3H3,(H2,45,56)(H2,46,57)(H,47,58)(H,48,60)(H,49,64)(H,50,59)(H,51,62)(H,52,65)(H,53,61)(H,54,63)/t22-,24-,25-,26-,27-,28-,29-,30-,34-/m0/s1

>  <IUPAC Name>  (1) 
(2S)-N-[(2S)-5-amino-1-[(2-amino-2-oxoethyl)amino]-1-oxopentan-2-yl]-1-[(4R,7S,10S,13S,16S,19R)-19-amino-7-(2-amino-2-oxoethyl)-16-benzyl-13-[(2S)-butan-2-yl]-10-[2-(methylamino)-2-oxoethyl]-6,9,12,15,18-pentaoxo-1,2-dithia-5,8,11,14,17-pentazacycloicosane-4-carbonyl]pyrrolidine-2-carboxamide

$$$$
