
     RDKit          3D

 90 93  0  0  0  0  0  0  0  0999 V2000
   -2.3979    6.0761   -0.3498 N   0  0  0  0  0  0  0  0  0  0  0  0
   -1.2338    5.2763   -0.6393 C   0  0  0  0  0  0  0  0  0  0  0  0
   -1.3352    4.0575   -1.0644 N   0  0  0  0  0  0  0  0  0  0  0  0
   -0.1907    3.2402   -1.3601 C   0  0  0  0  0  0  0  0  0  0  0  0
   -0.3205    1.8074   -0.9006 C   0  0  0  0  0  0  0  0  0  0  0  0
   -0.5191    1.8357    0.5977 C   0  0  0  0  0  0  0  0  0  0  0  0
   -0.6578    0.4808    1.1920 C   0  0  1  0  0  0  0  0  0  0  0  0
   -1.8144   -0.2965    0.6570 C   0  0  0  0  0  0  0  0  0  0  0  0
   -1.5716   -1.5244    0.3991 O   0  0  0  0  0  0  0  0  0  0  0  0
   -3.0957    0.2848    0.4492 N   0  0  0  0  0  0  0  0  0  0  0  0
   -4.1675   -0.5813   -0.0671 C   0  0  2  0  0  0  0  0  0  0  0  0
   -4.3342   -0.4306   -1.5055 C   0  0  0  0  0  0  0  0  0  0  0  0
   -3.7255    0.5517   -2.0710 O   0  0  0  0  0  0  0  0  0  0  0  0
   -5.0889   -1.2506   -2.3712 N   0  0  0  0  0  0  0  0  0  0  0  0
   -5.4006   -0.4321    0.7267 C   0  0  0  0  0  0  0  0  0  0  0  0
   -6.5114   -1.2510    0.2513 C   0  0  0  0  0  0  0  0  0  0  0  0
   -6.7932   -2.5372    0.7046 C   0  0  0  0  0  0  0  0  0  0  0  0
   -7.8522   -3.0419    0.0487 N   0  0  0  0  0  0  0  0  0  0  0  0
   -8.2997   -2.1247   -0.8430 C   0  0  0  0  0  0  0  0  0  0  0  0
   -7.4734   -0.9996   -0.7290 C   0  0  0  0  0  0  0  0  0  0  0  0
   -7.7361    0.1126   -1.5376 C   0  0  0  0  0  0  0  0  0  0  0  0
   -8.7903    0.0784   -2.4233 C   0  0  0  0  0  0  0  0  0  0  0  0
   -9.5732   -1.0495   -2.5015 C   0  0  0  0  0  0  0  0  0  0  0  0
   -9.3537   -2.1787   -1.7189 C   0  0  0  0  0  0  0  0  0  0  0  0
    0.5492   -0.3111    1.2054 N   0  0  0  0  0  0  0  0  0  0  0  0
    1.0336   -1.0470    2.3056 C   0  0  0  0  0  0  0  0  0  0  0  0
    0.4094   -1.0794    3.4170 O   0  0  0  0  0  0  0  0  0  0  0  0
    2.3170   -1.7909    2.1070 C   0  0  1  0  0  0  0  0  0  0  0  0
    2.8929   -1.4946    0.8346 N   0  0  0  0  0  0  0  0  0  0  0  0
    3.7225   -0.3811    0.6146 C   0  0  0  0  0  0  0  0  0  0  0  0
    3.9472    0.3603    1.6464 O   0  0  0  0  0  0  0  0  0  0  0  0
    4.3520    0.0452   -0.6258 C   0  0  2  0  0  0  0  0  0  0  0  0
    5.0286   -0.9488   -1.4720 C   0  0  0  0  0  0  0  0  0  0  0  0
    6.1544   -1.6922   -0.8928 C   0  0  0  0  0  0  0  0  0  0  0  0
    6.0525   -2.8805   -0.2360 N   0  0  0  0  0  0  0  0  0  0  0  0
    7.3303   -3.2135    0.1154 C   0  0  0  0  0  0  0  0  0  0  0  0
    8.1906   -2.2881   -0.2958 N   0  0  0  0  0  0  0  0  0  0  0  0
    7.4922   -1.3139   -0.9339 C   0  0  0  0  0  0  0  0  0  0  0  0
    5.1897    1.1988   -0.3160 N   0  0  0  0  0  0  0  0  0  0  0  0
    4.8523    2.5287   -0.6982 C   0  0  0  0  0  0  0  0  0  0  0  0
    3.7754    2.7684   -1.3461 O   0  0  0  0  0  0  0  0  0  0  0  0
    5.7513    3.6868   -0.3500 C   0  0  0  0  0  0  0  0  0  0  0  0
    3.1474   -1.6279    3.3283 C   0  0  0  0  0  0  0  0  0  0  0  0
    4.4424   -2.3304    3.3407 C   0  0  0  0  0  0  0  0  0  0  0  0
    4.5437   -3.6256    3.7871 N   0  0  0  0  0  0  0  0  0  0  0  0
    5.8196   -4.0336    3.7270 C   0  0  0  0  0  0  0  0  0  0  0  0
    6.5148   -3.0055    3.2481 N   0  0  0  0  0  0  0  0  0  0  0  0
    5.7103   -1.9660    3.0063 C   0  0  0  0  0  0  0  0  0  0  0  0
    0.0168    5.9227   -0.4271 N   0  0  0  0  0  0  0  0  0  0  0  0
   -2.4659    6.9560   -0.9176 H   0  0  0  0  0  0  0  0  0  0  0  0
   -3.1046    5.8153    0.3511 H   0  0  0  0  0  0  0  0  0  0  0  0
    0.0063    3.2915   -2.4662 H   0  0  0  0  0  0  0  0  0  0  0  0
    0.7035    3.7335   -0.8950 H   0  0  0  0  0  0  0  0  0  0  0  0
    0.5834    1.2707   -1.2205 H   0  0  0  0  0  0  0  0  0  0  0  0
   -1.1858    1.3628   -1.4277 H   0  0  0  0  0  0  0  0  0  0  0  0
    0.2615    2.4503    1.0853 H   0  0  0  0  0  0  0  0  0  0  0  0
   -1.4895    2.3616    0.7637 H   0  0  0  0  0  0  0  0  0  0  0  0
   -0.9229    0.6061    2.2881 H   0  0  0  0  0  0  0  0  0  0  0  0
   -3.2660    1.3011    0.6607 H   0  0  0  0  0  0  0  0  0  0  0  0
   -3.7752   -1.6394    0.0765 H   0  0  0  0  0  0  0  0  0  0  0  0
   -5.5311   -0.8822   -3.2572 H   0  0  0  0  0  0  0  0  0  0  0  0
   -5.1903   -2.2614   -2.0854 H   0  0  0  0  0  0  0  0  0  0  0  0
   -5.2325   -0.7026    1.8058 H   0  0  0  0  0  0  0  0  0  0  0  0
   -5.7900    0.6350    0.7191 H   0  0  0  0  0  0  0  0  0  0  0  0
   -6.2761   -3.1107    1.4713 H   0  0  0  0  0  0  0  0  0  0  0  0
   -8.2844   -3.9971    0.1903 H   0  0  0  0  0  0  0  0  0  0  0  0
   -7.0747    0.9663   -1.4187 H   0  0  0  0  0  0  0  0  0  0  0  0
   -8.9864    0.9562   -3.0534 H   0  0  0  0  0  0  0  0  0  0  0  0
  -10.3920   -1.0345   -3.2128 H   0  0  0  0  0  0  0  0  0  0  0  0
   -9.9567   -3.0594   -1.7709 H   0  0  0  0  0  0  0  0  0  0  0  0
    1.0960   -0.3167    0.2923 H   0  0  0  0  0  0  0  0  0  0  0  0
    2.0495   -2.8707    2.1049 H   0  0  0  0  0  0  0  0  0  0  0  0
    2.7145   -2.1178   -0.0094 H   0  0  0  0  0  0  0  0  0  0  0  0
    3.5034    0.4865   -1.2569 H   0  0  0  0  0  0  0  0  0  0  0  0
    4.2394   -1.6364   -1.8793 H   0  0  0  0  0  0  0  0  0  0  0  0
    5.4501   -0.4542   -2.4044 H   0  0  0  0  0  0  0  0  0  0  0  0
    5.1735   -3.4221   -0.0439 H   0  0  0  0  0  0  0  0  0  0  0  0
    7.6445   -4.1125    0.6625 H   0  0  0  0  0  0  0  0  0  0  0  0
    7.9275   -0.4167   -1.3807 H   0  0  0  0  0  0  0  0  0  0  0  0
    6.0668    0.9860    0.2114 H   0  0  0  0  0  0  0  0  0  0  0  0
    6.5044    3.2695    0.3714 H   0  0  0  0  0  0  0  0  0  0  0  0
    6.2179    4.1416   -1.2446 H   0  0  0  0  0  0  0  0  0  0  0  0
    5.1061    4.4167    0.1911 H   0  0  0  0  0  0  0  0  0  0  0  0
    3.2448   -0.5664    3.6631 H   0  0  0  0  0  0  0  0  0  0  0  0
    2.5242   -2.0747    4.1630 H   0  0  0  0  0  0  0  0  0  0  0  0
    3.7647   -4.2287    4.1267 H   0  0  0  0  0  0  0  0  0  0  0  0
    6.1899   -5.0314    4.0205 H   0  0  0  0  0  0  0  0  0  0  0  0
    6.0333   -1.0252    2.6213 H   0  0  0  0  0  0  0  0  0  0  0  0
    0.8014    5.4843    0.1308 H   0  0  0  0  0  0  0  0  0  0  0  0
    0.1180    6.8856   -0.8655 H   0  0  0  0  0  0  0  0  0  0  0  0
  1  2  1  0
  2  3  2  3
  3  4  1  0
  4  5  1  0
  5  6  1  0
  6  7  1  0
  7  8  1  0
  8  9  2  0
  8 10  1  0
 10 11  1  0
 11 12  1  0
 12 13  2  0
 12 14  1  0
 11 15  1  0
 15 16  1  0
 16 17  2  0
 17 18  1  0
 18 19  1  0
 19 20  2  0
 20 21  1  0
 21 22  2  0
 22 23  1  0
 23 24  2  0
  7 25  1  0
 25 26  1  0
 26 27  2  0
 26 28  1  0
 28 29  1  0
 29 30  1  0
 30 31  2  0
 30 32  1  0
 32 33  1  0
 33 34  1  0
 34 35  1  0
 35 36  1  0
 36 37  2  0
 37 38  1  0
 32 39  1  0
 39 40  1  0
 40 41  2  0
 40 42  1  0
 28 43  1  0
 43 44  1  0
 44 45  1  0
 45 46  1  0
 46 47  2  0
 47 48  1  0
  2 49  1  0
 20 16  1  0
 38 34  2  0
 48 44  2  0
 24 19  1  0
  1 50  1  0
  1 51  1  0
  4 52  1  0
  4 53  1  0
  5 54  1  0
  5 55  1  0
  6 56  1  0
  6 57  1  0
  7 58  1  1
 10 59  1  0
 11 60  1  6
 14 61  1  0
 14 62  1  0
 15 63  1  0
 15 64  1  0
 17 65  1  0
 18 66  1  0
 21 67  1  0
 22 68  1  0
 23 69  1  0
 24 70  1  0
 25 71  1  0
 28 72  1  6
 29 73  1  0
 32 74  1  6
 33 75  1  0
 33 76  1  0
 35 77  1  0
 36 78  1  0
 38 79  1  0
 39 80  1  0
 42 81  1  0
 42 82  1  0
 42 83  1  0
 43 84  1  0
 43 85  1  0
 45 86  1  0
 46 87  1  0
 48 88  1  0
 49 89  1  0
 49 90  1  0
M  END
>  <Ligand ID>  (1) 
LIG0001422

>  <Ligand>  (1) 
CHEMBL104010

>  <SMILES>  (1) 
NC(=NCCC[C@@H](C(=O)N[C@H](C(=O)N)Cc1c[nH]c2c1cccc2)NC(=O)[C@@H](NC(=O)[C@H](Cc1[nH]cnc1)NC(=O)C)Cc1[nH]cnc1)N

>  <CID>  (1) 
10865319.0

>  <ChEMBL ID>  (1) 
nan

>  <InChiKey>  (1) 
ZACRQOAPRSMDDR-CQJMVLFOSA-N

>  <InChi>  (1) 
InChI=1S/C31H41N13O5/c1-17(45)41-25(10-19-13-35-15-39-19)29(48)44-26(11-20-14-36-16-40-20)30(49)42-23(7-4-8-37-31(33)34)28(47)43-24(27(32)46)9-18-12-38-22-6-3-2-5-21(18)22/h2-3,5-6,12-16,23-26,38H,4,7-11H2,1H3,(H2,32,46)(H,35,39)(H,36,40)(H,41,45)(H,42,49)(H,43,47)(H,44,48)(H4,33,34,37)/t23-,24-,25-,26-/m0/s1

>  <IUPAC Name>  (1) 
(2S)-2-[[(2S)-2-[[(2S)-2-acetamido-3-(1H-imidazol-5-yl)propanoyl]amino]-3-(1H-imidazol-5-yl)propanoyl]amino]-N-[(2S)-1-amino-3-(1H-indol-3-yl)-1-oxopropan-2-yl]-5-(diaminomethylideneamino)pentanamide

$$$$
