
     RDKit          3D

 64 66  0  0  0  0  0  0  0  0999 V2000
   -1.1945    1.3454    2.3297 O   0  0  0  0  0  0  0  0  0  0  0  0
   -1.2487    1.1192    0.9397 C   0  0  2  0  0  0  0  0  0  0  0  0
   -2.7174    0.9929    0.5953 C   0  0  2  0  0  0  0  0  0  0  0  0
   -3.5501    1.5565    1.5549 O   0  0  0  0  0  0  0  0  0  0  0  0
   -2.8734   -0.5096    0.4825 C   0  0  2  0  0  0  0  0  0  0  0  0
   -1.7022   -0.8641   -0.1851 O   0  0  0  0  0  0  0  0  0  0  0  0
   -0.7258   -0.2269    0.5748 C   0  0  1  0  0  0  0  0  0  0  0  0
    0.5857   -0.2632    0.0183 N   0  0  0  0  0  0  0  0  0  0  0  0
    1.4971    0.7209    0.1091 C   0  0  0  0  0  0  0  0  0  0  0  0
    2.7573    0.6452   -0.4449 C   0  0  0  0  0  0  0  0  0  0  0  0
    3.0931   -0.5054   -1.1273 C   0  0  0  0  0  0  0  0  0  0  0  0
    2.1845   -1.4916   -1.2201 N   0  0  0  0  0  0  0  0  0  0  0  0
    0.9605   -1.3690   -0.6589 C   0  0  0  0  0  0  0  0  0  0  0  0
    0.1593   -2.3508   -0.7939 O   0  0  0  0  0  0  0  0  0  0  0  0
    4.3809   -0.6336   -1.7172 N   0  0  0  0  0  0  0  0  0  0  0  0
    5.2830    0.3412   -1.6257 O   0  0  0  0  0  0  0  0  0  0  0  0
    6.0309    0.2755   -0.4581 C   0  0  0  0  0  0  0  0  0  0  0  0
    6.9977    1.4362   -0.4969 C   0  0  0  0  0  0  0  0  0  0  0  0
    7.8874    1.4918    0.7269 C   0  0  0  0  0  0  0  0  0  0  0  0
    8.7047    0.2700    0.8750 C   0  0  0  0  0  0  0  0  0  0  0  0
    9.9558    0.2170    0.2825 C   0  0  0  0  0  0  0  0  0  0  0  0
   10.6730   -0.9563    0.4582 C   0  0  0  0  0  0  0  0  0  0  0  0
   10.2038   -2.0172    1.1676 C   0  0  0  0  0  0  0  0  0  0  0  0
    8.9694   -1.9479    1.7445 N   0  0  0  0  0  0  0  0  0  0  0  0
    8.2381   -0.8184    1.5955 C   0  0  0  0  0  0  0  0  0  0  0  0
   -4.1066   -0.8720   -0.3147 C   0  0  0  0  0  0  0  0  0  0  0  0
   -5.2423   -0.4965    0.3962 O   0  0  0  0  0  0  0  0  0  0  0  0
   -6.6767   -0.8519   -0.4130 P   0  0  0  0  0  0  0  0  0  0  0  0
   -7.8115   -0.8973    0.5951 O   0  0  0  0  0  0  0  0  0  0  0  0
   -7.0756    0.3835   -1.5135 O   0  0  0  0  0  0  0  0  0  0  0  0
   -8.7320    0.4935   -1.7792 P   0  0  0  0  0  0  0  0  0  0  0  0
   -9.1021    1.9747   -1.7125 O   0  0  0  0  0  0  0  0  0  0  0  0
   -9.6426   -0.3471   -0.6530 O   0  0  0  0  0  0  0  0  0  0  0  0
  -10.5941    0.7043    0.2538 P   0  0  0  0  0  0  0  0  0  0  0  0
  -10.0633    2.1206    0.2269 O   0  0  0  0  0  0  0  0  0  0  0  0
  -12.1942    0.7700   -0.2925 O   0  0  0  0  0  0  0  0  0  0  0  0
  -10.6635    0.1132    1.8484 O   0  0  0  0  0  0  0  0  0  0  0  0
   -9.0328   -0.0891   -3.3587 O   0  0  0  0  0  0  0  0  0  0  0  0
   -6.6472   -2.3102   -1.2301 O   0  0  0  0  0  0  0  0  0  0  0  0
   -1.5369    0.5073    2.7736 H   0  0  0  0  0  0  0  0  0  0  0  0
   -0.7710    1.9740    0.4240 H   0  0  0  0  0  0  0  0  0  0  0  0
   -2.8496    1.4495   -0.4068 H   0  0  0  0  0  0  0  0  0  0  0  0
   -3.9621    2.4130    1.2574 H   0  0  0  0  0  0  0  0  0  0  0  0
   -2.8529   -0.9786    1.4779 H   0  0  0  0  0  0  0  0  0  0  0  0
   -0.6728   -0.8206    1.5344 H   0  0  0  0  0  0  0  0  0  0  0  0
    1.2256    1.6198    0.6459 H   0  0  0  0  0  0  0  0  0  0  0  0
    3.4166    1.4772   -0.3227 H   0  0  0  0  0  0  0  0  0  0  0  0
    4.6366   -1.5023   -2.2339 H   0  0  0  0  0  0  0  0  0  0  0  0
    5.3714    0.3092    0.4325 H   0  0  0  0  0  0  0  0  0  0  0  0
    6.6537   -0.6518   -0.4355 H   0  0  0  0  0  0  0  0  0  0  0  0
    7.6723    1.2626   -1.3726 H   0  0  0  0  0  0  0  0  0  0  0  0
    6.5278    2.4100   -0.6597 H   0  0  0  0  0  0  0  0  0  0  0  0
    7.2902    1.6766    1.6514 H   0  0  0  0  0  0  0  0  0  0  0  0
    8.5768    2.3491    0.5593 H   0  0  0  0  0  0  0  0  0  0  0  0
   10.3574    1.0385   -0.2858 H   0  0  0  0  0  0  0  0  0  0  0  0
   11.6556   -0.9748   -0.0176 H   0  0  0  0  0  0  0  0  0  0  0  0
   10.7737   -2.9237    1.2954 H   0  0  0  0  0  0  0  0  0  0  0  0
    7.2445   -0.7055    2.0340 H   0  0  0  0  0  0  0  0  0  0  0  0
   -4.0728   -1.9529   -0.5195 H   0  0  0  0  0  0  0  0  0  0  0  0
   -4.0811   -0.2704   -1.2483 H   0  0  0  0  0  0  0  0  0  0  0  0
  -12.5924   -0.1279   -0.3654 H   0  0  0  0  0  0  0  0  0  0  0  0
  -10.6622   -0.8799    1.7591 H   0  0  0  0  0  0  0  0  0  0  0  0
   -8.2405    0.0529   -3.9542 H   0  0  0  0  0  0  0  0  0  0  0  0
   -6.0733   -3.0011   -0.8026 H   0  0  0  0  0  0  0  0  0  0  0  0
  1  2  1  0
  2  3  1  0
  3  4  1  0
  3  5  1  0
  5  6  1  0
  6  7  1  0
  7  8  1  0
  8  9  1  0
  9 10  2  0
 10 11  1  0
 11 12  2  0
 12 13  1  0
 13 14  2  0
 11 15  1  0
 15 16  1  0
 16 17  1  0
 17 18  1  0
 18 19  1  0
 19 20  1  0
 20 21  2  0
 21 22  1  0
 22 23  2  0
 23 24  1  0
 24 25  2  0
  5 26  1  0
 26 27  1  0
 27 28  1  0
 28 29  2  0
 28 30  1  0
 30 31  1  0
 31 32  2  0
 31 33  1  0
 33 34  1  0
 34 35  2  0
 34 36  1  0
 34 37  1  0
 31 38  1  0
 28 39  1  0
  7  2  1  0
 13  8  1  0
 25 20  1  0
  1 40  1  0
  2 41  1  6
  3 42  1  6
  4 43  1  0
  5 44  1  1
  7 45  1  1
  9 46  1  0
 10 47  1  0
 15 48  1  0
 17 49  1  0
 17 50  1  0
 18 51  1  0
 18 52  1  0
 19 53  1  0
 19 54  1  0
 21 55  1  0
 22 56  1  0
 23 57  1  0
 25 58  1  0
 26 59  1  0
 26 60  1  0
 36 61  1  0
 37 62  1  0
 38 63  1  0
 39 64  1  0
M  END
>  <Ligand ID>  (1) 
LIG0002569

>  <Ligand>  (1) 
CHEMBL3261370

>  <SMILES>  (1) 
O[C@@H]1[C@H](O)[C@H](O[C@H]1n1ccc(nc1=O)NOCCCc1cccnc1)COP(=O)(OP(=O)(OP(=O)(O)O)O)O

>  <CID>  (1) 
90656221.0

>  <ChEMBL ID>  (1) 
nan

>  <InChiKey>  (1) 
HSMPKTMBTKQCEP-DTZQCDIJSA-N

>  <InChi>  (1) 
InChI=1S/C17H25N4O15P3/c22-14-12(10-33-38(28,29)36-39(30,31)35-37(25,26)27)34-16(15(14)23)21-7-5-13(19-17(21)24)20-32-8-2-4-11-3-1-6-18-9-11/h1,3,5-7,9,12,14-16,22-23H,2,4,8,10H2,(H,28,29)(H,30,31)(H,19,20,24)(H2,25,26,27)/t12-,14-,15-,16-/m1/s1

>  <IUPAC Name>  (1) 
[[(2R,3S,4R,5R)-3,4-dihydroxy-5-[2-oxo-4-(3-pyridin-3-ylpropoxyamino)pyrimidin-1-yl]oxolan-2-yl]methoxy-hydroxyphosphoryl] phosphono hydrogen phosphate

$$$$
