
     RDKit          3D

 19 18  0  0  0  0  0  0  0  0999 V2000
   -2.8238    0.1772    0.7718 C   0  0  0  0  0  0  0  0  0  0  0  0
   -1.7690   -0.2495   -0.2558 C   0  0  0  0  0  0  0  0  0  0  0  0
   -0.4301    0.1225    0.3337 C   0  0  0  0  0  0  0  0  0  0  0  0
    0.7325   -0.2171   -0.5277 C   0  0  0  0  0  0  0  0  0  0  0  0
    1.9979    0.2240    0.2148 C   0  0  0  0  0  0  0  0  0  0  0  0
    3.2128   -0.0897   -0.6008 C   0  0  0  0  0  0  0  0  0  0  0  0
    4.3260    0.1886   -0.1753 O   0  0  0  0  0  0  0  0  0  0  0  0
   -2.3921    0.8515    1.5479 H   0  0  0  0  0  0  0  0  0  0  0  0
   -3.2686   -0.6766    1.2969 H   0  0  0  0  0  0  0  0  0  0  0  0
   -3.6502    0.7305    0.2456 H   0  0  0  0  0  0  0  0  0  0  0  0
   -1.7923   -1.3600   -0.4135 H   0  0  0  0  0  0  0  0  0  0  0  0
   -1.9640    0.2468   -1.2175 H   0  0  0  0  0  0  0  0  0  0  0  0
   -0.3582   -0.4419    1.2946 H   0  0  0  0  0  0  0  0  0  0  0  0
   -0.4903    1.2123    0.5524 H   0  0  0  0  0  0  0  0  0  0  0  0
    0.6764    0.2184   -1.5244 H   0  0  0  0  0  0  0  0  0  0  0  0
    0.8260   -1.3092   -0.6197 H   0  0  0  0  0  0  0  0  0  0  0  0
    1.9738    1.2859    0.4633 H   0  0  0  0  0  0  0  0  0  0  0  0
    2.1151   -0.3467    1.1531 H   0  0  0  0  0  0  0  0  0  0  0  0
    3.0779   -0.5671   -1.5723 H   0  0  0  0  0  0  0  0  0  0  0  0
  1  2  1  0
  2  3  1  0
  3  4  1  0
  4  5  1  0
  5  6  1  0
  6  7  2  0
  1  8  1  0
  1  9  1  0
  1 10  1  0
  2 11  1  0
  2 12  1  0
  3 13  1  0
  3 14  1  0
  4 15  1  0
  4 16  1  0
  5 17  1  0
  5 18  1  0
  6 19  1  0
M  END
>  <Ligand ID>  (1) 
LIG0000085

>  <Ligand>  (1) 
hexanal

>  <SMILES>  (1) 
CCCCCC=O

>  <CID>  (1) 
6184.0

>  <ChEMBL ID>  (1) 
nan

>  <InChiKey>  (1) 
JARKCYVAAOWBJS-UHFFFAOYSA-N

>  <InChi>  (1) 
InChI=1S/C6H12O/c1-2-3-4-5-6-7/h6H,2-5H2,1H3

>  <IUPAC Name>  (1) 
hexanal

$$$$
