
     RDKit          3D

 40 43  0  0  0  0  0  0  0  0999 V2000
   -4.1362    0.1146    1.3678 C   0  0  0  0  0  0  0  0  0  0  0  0
   -3.8788   -0.3804   -0.0260 C   0  0  2  0  0  0  0  0  0  0  0  0
   -2.8994    0.4288   -0.7968 C   0  0  0  0  0  0  0  0  0  0  0  0
   -1.5566    0.5030   -0.1993 C   0  0  0  0  0  0  0  0  0  0  0  0
   -1.1951    1.3051    0.8498 C   0  0  0  0  0  0  0  0  0  0  0  0
   -1.8667    2.1720    1.5618 O   0  0  0  0  0  0  0  0  0  0  0  0
   -1.1085    2.7182    2.4776 C   0  0  0  0  0  0  0  0  0  0  0  0
    0.1675    2.1989    2.3967 C   0  0  0  0  0  0  0  0  0  0  0  0
    0.0989    1.2861    1.3400 C   0  0  0  0  0  0  0  0  0  0  0  0
    1.0655    0.4537    0.7817 C   0  0  0  0  0  0  0  0  0  0  0  0
    0.7131   -0.3591   -0.2764 C   0  0  0  0  0  0  0  0  0  0  0  0
   -0.5737   -0.3222   -0.7434 C   0  0  0  0  0  0  0  0  0  0  0  0
   -0.6078   -1.2410   -1.7954 C   0  0  0  0  0  0  0  0  0  0  0  0
    0.6685   -1.7847   -1.9053 C   0  0  0  0  0  0  0  0  0  0  0  0
    1.4211   -1.2189   -0.9682 O   0  0  0  0  0  0  0  0  0  0  0  0
    2.4151    0.5039    1.3725 C   0  0  0  0  0  0  0  0  0  0  0  0
    3.3913   -0.3960    0.7451 C   0  0  0  0  0  0  0  0  0  0  0  0
    3.7189   -1.6368    1.0040 O   0  0  0  0  0  0  0  0  0  0  0  0
    4.6445   -2.0436    0.1859 N   0  0  0  0  0  0  0  0  0  0  0  0
    4.9594   -1.0456   -0.6604 C   0  0  0  0  0  0  0  0  0  0  0  0
    4.1711   -0.0108   -0.3079 N   0  0  0  0  0  0  0  0  0  0  0  0
    5.9519   -1.0213   -1.7677 C   0  0  0  0  0  0  0  0  0  0  0  0
   -5.1578   -0.3873   -0.7128 N   0  0  0  0  0  0  0  0  0  0  0  0
   -5.0290   -0.3862    1.8201 H   0  0  0  0  0  0  0  0  0  0  0  0
   -3.2919   -0.0951    2.0564 H   0  0  0  0  0  0  0  0  0  0  0  0
   -4.3948    1.1927    1.3297 H   0  0  0  0  0  0  0  0  0  0  0  0
   -3.4787   -1.4349   -0.0031 H   0  0  0  0  0  0  0  0  0  0  0  0
   -2.8182    0.1149   -1.8638 H   0  0  0  0  0  0  0  0  0  0  0  0
   -3.2870    1.4918   -0.8465 H   0  0  0  0  0  0  0  0  0  0  0  0
   -1.4257    3.4655    3.1950 H   0  0  0  0  0  0  0  0  0  0  0  0
    1.0354    2.4250    2.9949 H   0  0  0  0  0  0  0  0  0  0  0  0
   -1.4681   -1.4766   -2.4019 H   0  0  0  0  0  0  0  0  0  0  0  0
    0.9504   -2.5308   -2.6371 H   0  0  0  0  0  0  0  0  0  0  0  0
    2.7389    1.5704    1.3582 H   0  0  0  0  0  0  0  0  0  0  0  0
    2.2897    0.2840    2.4735 H   0  0  0  0  0  0  0  0  0  0  0  0
    5.5304   -1.4570   -2.6823 H   0  0  0  0  0  0  0  0  0  0  0  0
    6.2550    0.0508   -1.9441 H   0  0  0  0  0  0  0  0  0  0  0  0
    6.9166   -1.5046   -1.4486 H   0  0  0  0  0  0  0  0  0  0  0  0
   -5.0634   -0.5469   -1.7295 H   0  0  0  0  0  0  0  0  0  0  0  0
   -5.8658   -0.9996   -0.2590 H   0  0  0  0  0  0  0  0  0  0  0  0
  1  2  1  0
  2  3  1  0
  3  4  1  0
  4  5  2  0
  5  6  1  0
  6  7  1  0
  7  8  2  0
  8  9  1  0
  9 10  2  0
 10 11  1  0
 11 12  2  0
 12 13  1  0
 13 14  2  0
 14 15  1  0
 10 16  1  0
 16 17  1  0
 17 18  1  0
 18 19  1  0
 19 20  2  0
 20 21  1  0
 20 22  1  0
  2 23  1  0
 12  4  1  0
 21 17  2  0
  9  5  1  0
 15 11  1  0
  1 24  1  0
  1 25  1  0
  1 26  1  0
  2 27  1  1
  3 28  1  0
  3 29  1  0
  7 30  1  0
  8 31  1  0
 13 32  1  0
 14 33  1  0
 16 34  1  0
 16 35  1  0
 22 36  1  0
 22 37  1  0
 22 38  1  0
 23 39  1  0
 23 40  1  0
M  END
>  <Ligand ID>  (1) 
LIG0003988

>  <Ligand>  (1) 
CHEMBL234682

>  <SMILES>  (1) 
C[C@H](Cc1c2occc2c(c2c1cco2)Cc1onc(n1)C)N

>  <CID>  (1) 
44431701.0

>  <ChEMBL ID>  (1) 
nan

>  <InChiKey>  (1) 
UNRRKECLBBYMNW-SECBINFHSA-N

>  <InChi>  (1) 
InChI=1S/C17H17N3O3/c1-9(18)7-13-11-3-5-22-17(11)14(12-4-6-21-16(12)13)8-15-19-10(2)20-23-15/h3-6,9H,7-8,18H2,1-2H3/t9-/m1/s1

>  <IUPAC Name>  (1) 
(2R)-1-[8-[(3-methyl-1,2,4-oxadiazol-5-yl)methyl]furo[2,3-f][1]benzofuran-4-yl]propan-2-amine

$$$$
