
     RDKit          3D

 34 36  0  0  0  0  0  0  0  0999 V2000
    0.5633   -0.3608    2.5875 C   0  0  0  0  0  0  0  0  0  0  0  0
    0.5439   -0.9903    1.1976 C   0  0  2  0  0  0  0  0  0  0  0  0
    1.9823   -1.3076    0.8421 C   0  0  0  0  0  0  0  0  0  0  0  0
    2.5213    0.0882    0.5708 C   0  0  2  0  0  0  0  0  0  0  0  0
    1.3974    0.6792   -0.2173 C   0  0  2  0  0  0  0  0  0  0  0  0
    0.1792   -0.0183    0.2185 N   0  0  0  0  0  0  0  0  0  0  0  0
   -1.0931    0.3152   -0.3243 C   0  0  0  0  0  0  0  0  0  0  0  0
   -1.2017    1.2759   -1.2467 N   0  0  0  0  0  0  0  0  0  0  0  0
   -2.4048    1.6243   -1.7911 C   0  0  0  0  0  0  0  0  0  0  0  0
   -3.5234    0.9276   -1.3379 C   0  0  0  0  0  0  0  0  0  0  0  0
   -3.4051   -0.0752   -0.3742 C   0  0  0  0  0  0  0  0  0  0  0  0
   -2.1788   -0.3529    0.1080 N   0  0  0  0  0  0  0  0  0  0  0  0
   -4.5969   -0.8281    0.1186 C   0  0  0  0  0  0  0  0  0  0  0  0
   -5.6481    0.0837    0.1562 F   0  0  0  0  0  0  0  0  0  0  0  0
   -4.3312   -1.2673    1.4162 F   0  0  0  0  0  0  0  0  0  0  0  0
   -4.8527   -1.8471   -0.7493 F   0  0  0  0  0  0  0  0  0  0  0  0
    1.7255    0.2137   -1.6210 C   0  0  0  0  0  0  0  0  0  0  0  0
    3.1319    0.5848   -1.6844 N   0  0  0  0  0  0  0  0  0  0  0  0
    3.6473    0.0687   -0.4299 C   0  0  0  0  0  0  0  0  0  0  0  0
    1.5254   -0.4712    3.1030 H   0  0  0  0  0  0  0  0  0  0  0  0
    0.3488    0.7326    2.5093 H   0  0  0  0  0  0  0  0  0  0  0  0
   -0.2089   -0.8275    3.2500 H   0  0  0  0  0  0  0  0  0  0  0  0
   -0.0951   -1.8944    1.1944 H   0  0  0  0  0  0  0  0  0  0  0  0
    2.0543   -1.9755   -0.0281 H   0  0  0  0  0  0  0  0  0  0  0  0
    2.4527   -1.7404    1.7559 H   0  0  0  0  0  0  0  0  0  0  0  0
    2.7406    0.6003    1.5061 H   0  0  0  0  0  0  0  0  0  0  0  0
    1.2870    1.7677   -0.1480 H   0  0  0  0  0  0  0  0  0  0  0  0
   -2.4840    2.4071   -2.5410 H   0  0  0  0  0  0  0  0  0  0  0  0
   -4.5020    1.1422   -1.7160 H   0  0  0  0  0  0  0  0  0  0  0  0
    1.5816   -0.8749   -1.6847 H   0  0  0  0  0  0  0  0  0  0  0  0
    1.1247    0.7505   -2.3808 H   0  0  0  0  0  0  0  0  0  0  0  0
    3.1680    1.6333   -1.6796 H   0  0  0  0  0  0  0  0  0  0  0  0
    4.1584   -0.8956   -0.5181 H   0  0  0  0  0  0  0  0  0  0  0  0
    4.3923    0.8319   -0.0618 H   0  0  0  0  0  0  0  0  0  0  0  0
  1  2  1  0
  2  3  1  0
  3  4  1  0
  4  5  1  0
  5  6  1  0
  6  7  1  0
  7  8  2  0
  8  9  1  0
  9 10  2  0
 10 11  1  0
 11 12  2  0
 11 13  1  0
 13 14  1  0
 13 15  1  0
 13 16  1  0
  5 17  1  0
 17 18  1  0
 18 19  1  0
  6  2  1  0
 12  7  1  0
 19  4  1  0
  1 20  1  0
  1 21  1  0
  1 22  1  0
  2 23  1  1
  3 24  1  0
  3 25  1  0
  4 26  1  1
  5 27  1  6
  9 28  1  0
 10 29  1  0
 17 30  1  0
 17 31  1  0
 18 32  1  0
 19 33  1  0
 19 34  1  0
M  END
>  <Ligand ID>  (1) 
LIG0002171

>  <Ligand>  (1) 
CHEMBL210484

>  <SMILES>  (1) 
C[C@@H]1C[C@@H]2[C@H](N1c1nccc(n1)C(F)(F)F)CNC2

>  <CID>  (1) 
44412388.0

>  <ChEMBL ID>  (1) 
nan

>  <InChiKey>  (1) 
BHZWUADTFGRRTH-HRDYMLBCSA-N

>  <InChi>  (1) 
InChI=1S/C12H15F3N4/c1-7-4-8-5-16-6-9(8)19(7)11-17-3-2-10(18-11)12(13,14)15/h2-3,7-9,16H,4-6H2,1H3/t7-,8+,9-/m1/s1

>  <IUPAC Name>  (1) 
(2R,3aS,6aS)-2-methyl-1-[4-(trifluoromethyl)pyrimidin-2-yl]-3,3a,4,5,6,6a-hexahydro-2H-pyrrolo[2,3-c]pyrrole

$$$$
