
     RDKit          3D

 72 74  0  0  0  0  0  0  0  0999 V2000
   -5.4886   -3.7294   -0.2593 C   0  0  0  0  0  0  0  0  0  0  0  0
   -6.0308   -2.5827   -0.5708 C   0  0  0  0  0  0  0  0  0  0  0  0
   -5.4336   -1.2454   -0.2768 C   0  0  0  0  0  0  0  0  0  0  0  0
   -4.1690   -1.4186    0.3332 N   0  0  0  0  0  0  0  0  0  0  0  0
   -3.1443   -1.9135   -0.5360 C   0  0  0  0  0  0  0  0  0  0  0  0
   -2.4463   -0.6902   -1.1327 C   0  0  2  0  0  0  0  0  0  0  0  0
   -1.7147   -0.9376   -2.3810 C   0  0  0  0  0  0  0  0  0  0  0  0
   -1.7999    0.0099   -0.0623 N   0  0  0  0  0  0  0  0  0  0  0  0
   -2.8421    0.6532    0.6791 C   0  0  0  0  0  0  0  0  0  0  0  0
   -3.7203   -0.4682    1.2702 C   0  0  1  0  0  0  0  0  0  0  0  0
   -4.8058    0.1699    2.0733 C   0  0  0  0  0  0  0  0  0  0  0  0
   -0.6777    0.7780   -0.4620 C   0  0  1  0  0  0  0  0  0  0  0  0
   -0.5903    2.1427    0.1517 C   0  0  0  0  0  0  0  0  0  0  0  0
   -0.4359    2.3885    1.4859 C   0  0  0  0  0  0  0  0  0  0  0  0
   -0.4247    3.7173    1.9111 C   0  0  0  0  0  0  0  0  0  0  0  0
   -0.5700    4.7543    0.9873 C   0  0  0  0  0  0  0  0  0  0  0  0
   -0.7267    4.5138   -0.3612 C   0  0  0  0  0  0  0  0  0  0  0  0
   -0.7335    3.1946   -0.7648 C   0  0  0  0  0  0  0  0  0  0  0  0
   -0.8740    5.4759   -1.3265 O   0  0  0  0  0  0  0  0  0  0  0  0
   -0.8980    6.8623   -1.1437 C   0  0  0  0  0  0  0  0  0  0  0  0
    0.6130    0.1197   -0.0201 C   0  0  0  0  0  0  0  0  0  0  0  0
    0.7590   -1.2452    0.0442 C   0  0  0  0  0  0  0  0  0  0  0  0
    1.9291   -1.8678    0.3977 C   0  0  0  0  0  0  0  0  0  0  0  0
    3.0555   -1.1151    0.7187 C   0  0  0  0  0  0  0  0  0  0  0  0
    2.9221    0.2392    0.6603 C   0  0  0  0  0  0  0  0  0  0  0  0
    1.7272    0.8754    0.2985 C   0  0  0  0  0  0  0  0  0  0  0  0
    4.2425   -1.8435    1.0691 C   0  0  0  0  0  0  0  0  0  0  0  0
    4.2460   -2.4605    2.1942 O   0  0  0  0  0  0  0  0  0  0  0  0
    5.4192   -1.9578    0.2958 N   0  0  0  0  0  0  0  0  0  0  0  0
    6.5215   -2.7442    0.8177 C   0  0  0  0  0  0  0  0  0  0  0  0
    6.4786   -4.1879    0.4083 C   0  0  0  0  0  0  0  0  0  0  0  0
    5.6099   -1.3487   -0.9947 C   0  0  0  0  0  0  0  0  0  0  0  0
    6.2106    0.0173   -0.9633 C   0  0  0  0  0  0  0  0  0  0  0  0
   -4.5504   -3.8914    0.2466 H   0  0  0  0  0  0  0  0  0  0  0  0
   -6.0258   -4.6604   -0.5362 H   0  0  0  0  0  0  0  0  0  0  0  0
   -6.9933   -2.5558   -1.0909 H   0  0  0  0  0  0  0  0  0  0  0  0
   -6.1309   -0.7405    0.4414 H   0  0  0  0  0  0  0  0  0  0  0  0
   -5.4406   -0.5926   -1.1782 H   0  0  0  0  0  0  0  0  0  0  0  0
   -2.3997   -2.4603    0.0543 H   0  0  0  0  0  0  0  0  0  0  0  0
   -3.5738   -2.5376   -1.3528 H   0  0  0  0  0  0  0  0  0  0  0  0
   -3.3297   -0.0182   -1.4173 H   0  0  0  0  0  0  0  0  0  0  0  0
   -2.3482   -1.6621   -2.9911 H   0  0  0  0  0  0  0  0  0  0  0  0
   -0.7365   -1.3772   -2.3690 H   0  0  0  0  0  0  0  0  0  0  0  0
   -1.7385   -0.0190   -3.0455 H   0  0  0  0  0  0  0  0  0  0  0  0
   -3.5074    1.1767   -0.0542 H   0  0  0  0  0  0  0  0  0  0  0  0
   -2.5642    1.2648    1.5243 H   0  0  0  0  0  0  0  0  0  0  0  0
   -3.0572   -0.9968    2.0161 H   0  0  0  0  0  0  0  0  0  0  0  0
   -5.1953    1.0601    1.5408 H   0  0  0  0  0  0  0  0  0  0  0  0
   -4.3301    0.5343    3.0411 H   0  0  0  0  0  0  0  0  0  0  0  0
   -5.5823   -0.5444    2.3701 H   0  0  0  0  0  0  0  0  0  0  0  0
   -0.5981    0.8016   -1.5634 H   0  0  0  0  0  0  0  0  0  0  0  0
   -0.3205    1.5727    2.1766 H   0  0  0  0  0  0  0  0  0  0  0  0
   -0.3087    3.9630    2.9506 H   0  0  0  0  0  0  0  0  0  0  0  0
   -0.5625    5.7992    1.3327 H   0  0  0  0  0  0  0  0  0  0  0  0
   -0.8563    2.9900   -1.8344 H   0  0  0  0  0  0  0  0  0  0  0  0
   -1.9892    7.1704   -1.1627 H   0  0  0  0  0  0  0  0  0  0  0  0
   -0.3939    7.3683   -2.0104 H   0  0  0  0  0  0  0  0  0  0  0  0
   -0.4328    7.1578   -0.1815 H   0  0  0  0  0  0  0  0  0  0  0  0
   -0.0828   -1.8935   -0.1789 H   0  0  0  0  0  0  0  0  0  0  0  0
    1.9543   -2.9571    0.4232 H   0  0  0  0  0  0  0  0  0  0  0  0
    3.7982    0.8372    0.9143 H   0  0  0  0  0  0  0  0  0  0  0  0
    1.6733    1.9633    0.2667 H   0  0  0  0  0  0  0  0  0  0  0  0
    6.4642   -2.7374    1.9370 H   0  0  0  0  0  0  0  0  0  0  0  0
    7.5147   -2.3526    0.5759 H   0  0  0  0  0  0  0  0  0  0  0  0
    5.7233   -4.3207   -0.3955 H   0  0  0  0  0  0  0  0  0  0  0  0
    7.4563   -4.5130   -0.0593 H   0  0  0  0  0  0  0  0  0  0  0  0
    6.3154   -4.8889    1.2573 H   0  0  0  0  0  0  0  0  0  0  0  0
    6.1423   -2.0408   -1.7080 H   0  0  0  0  0  0  0  0  0  0  0  0
    4.5941   -1.2322   -1.4744 H   0  0  0  0  0  0  0  0  0  0  0  0
    5.4915    0.8383   -0.8199 H   0  0  0  0  0  0  0  0  0  0  0  0
    6.6904    0.2165   -1.9684 H   0  0  0  0  0  0  0  0  0  0  0  0
    7.0223    0.1227   -0.2181 H   0  0  0  0  0  0  0  0  0  0  0  0
  1  2  2  0
  2  3  1  0
  3  4  1  0
  4  5  1  0
  5  6  1  0
  6  7  1  0
  6  8  1  0
  8  9  1  0
  9 10  1  0
 10 11  1  0
  8 12  1  0
 12 13  1  0
 13 14  2  0
 14 15  1  0
 15 16  2  0
 16 17  1  0
 17 18  2  0
 17 19  1  0
 19 20  1  0
 12 21  1  0
 21 22  2  0
 22 23  1  0
 23 24  2  0
 24 25  1  0
 25 26  2  0
 24 27  1  0
 27 28  2  0
 27 29  1  0
 29 30  1  0
 30 31  1  0
 29 32  1  0
 32 33  1  0
 10  4  1  0
 18 13  1  0
 26 21  1  0
  1 34  1  0
  1 35  1  0
  2 36  1  0
  3 37  1  0
  3 38  1  0
  5 39  1  0
  5 40  1  0
  6 41  1  6
  7 42  1  0
  7 43  1  0
  7 44  1  0
  9 45  1  0
  9 46  1  0
 10 47  1  1
 11 48  1  0
 11 49  1  0
 11 50  1  0
 12 51  1  6
 14 52  1  0
 15 53  1  0
 16 54  1  0
 18 55  1  0
 20 56  1  0
 20 57  1  0
 20 58  1  0
 22 59  1  0
 23 60  1  0
 25 61  1  0
 26 62  1  0
 30 63  1  0
 30 64  1  0
 31 65  1  0
 31 66  1  0
 31 67  1  0
 32 68  1  0
 32 69  1  0
 33 70  1  0
 33 71  1  0
 33 72  1  0
M  END
>  <Ligand ID>  (1) 
LIG0001910

>  <Ligand>  (1) 
SNC80

>  <SMILES>  (1) 
C=CCN1C[C@H](C)N(C[C@H]1C)[C@@H](c1cccc(c1)OC)c1ccc(cc1)C(=O)N(CC)CC

>  <CID>  (1) 
123924.0

>  <ChEMBL ID>  (1) 
nan

>  <InChiKey>  (1) 
KQWVAUSXZDRQPZ-UMTXDNHDSA-N

>  <InChi>  (1) 
InChI=1S/C28H39N3O2/c1-7-17-30-19-22(5)31(20-21(30)4)27(25-11-10-12-26(18-25)33-6)23-13-15-24(16-14-23)28(32)29(8-2)9-3/h7,10-16,18,21-22,27H,1,8-9,17,19-20H2,2-6H3/t21-,22+,27-/m1/s1

>  <IUPAC Name>  (1) 
4-[(R)-[(2S,5R)-2,5-dimethyl-4-prop-2-enylpiperazin-1-yl]-(3-methoxyphenyl)methyl]-N,N-diethylbenzamide

$$$$
