
     RDKit          3D

 47 51  0  0  0  0  0  0  0  0999 V2000
    7.2549    0.8416   -0.9231 C   0  0  0  0  0  0  0  0  0  0  0  0
    7.0970    1.3875    0.3212 C   0  0  0  0  0  0  0  0  0  0  0  0
    6.0455    1.0249    1.1222 C   0  0  0  0  0  0  0  0  0  0  0  0
    5.1110    0.0859    0.6791 C   0  0  0  0  0  0  0  0  0  0  0  0
    5.3106   -0.4344   -0.5757 C   0  0  0  0  0  0  0  0  0  0  0  0
    6.3610   -0.0827   -1.3955 C   0  0  0  0  0  0  0  0  0  0  0  0
    4.0907   -0.2271    1.5298 O   0  0  0  0  0  0  0  0  0  0  0  0
    3.0342   -1.1062    1.3609 C   0  0  0  0  0  0  0  0  0  0  0  0
    2.1051   -0.8174    0.2249 C   0  0  0  0  0  0  0  0  0  0  0  0
    1.3942    0.4708    0.2159 C   0  0  2  0  0  0  0  0  0  0  0  0
    0.6457   -0.7281    0.6688 C   0  0  1  0  0  0  0  0  0  0  0  0
   -0.3796   -1.0439   -0.3944 C   0  0  0  0  0  0  0  0  0  0  0  0
   -0.6514    0.2470   -0.9456 N   0  0  0  0  0  0  0  0  0  0  0  0
    0.6461    0.9035   -1.0297 C   0  0  0  0  0  0  0  0  0  0  0  0
   -1.4933    1.0202   -0.0864 C   0  0  0  0  0  0  0  0  0  0  0  0
   -2.8010    0.4282    0.2012 C   0  0  0  0  0  0  0  0  0  0  0  0
   -3.1068   -0.3820    1.2520 C   0  0  0  0  0  0  0  0  0  0  0  0
   -4.3391   -0.9058    1.4647 N   0  0  0  0  0  0  0  0  0  0  0  0
   -5.3491   -0.6264    0.5995 C   0  0  0  0  0  0  0  0  0  0  0  0
   -5.1082    0.1888   -0.4876 C   0  0  0  0  0  0  0  0  0  0  0  0
   -3.8397    0.7168   -0.6903 C   0  0  0  0  0  0  0  0  0  0  0  0
   -6.0899    0.5105   -1.4021 C   0  0  0  0  0  0  0  0  0  0  0  0
   -7.3635    0.0060   -1.2363 C   0  0  0  0  0  0  0  0  0  0  0  0
   -7.6326   -0.8213   -0.1441 C   0  0  0  0  0  0  0  0  0  0  0  0
   -6.6216   -1.1320    0.7674 C   0  0  0  0  0  0  0  0  0  0  0  0
    8.0910    1.1211   -1.5764 H   0  0  0  0  0  0  0  0  0  0  0  0
    7.8308    2.1216    0.6631 H   0  0  0  0  0  0  0  0  0  0  0  0
    5.9660    1.4790    2.0841 H   0  0  0  0  0  0  0  0  0  0  0  0
    4.6143   -1.1647   -0.9552 H   0  0  0  0  0  0  0  0  0  0  0  0
    6.4859   -0.5132   -2.3772 H   0  0  0  0  0  0  0  0  0  0  0  0
    2.4920   -1.3182    2.3256 H   0  0  0  0  0  0  0  0  0  0  0  0
    3.4991   -2.1103    1.1196 H   0  0  0  0  0  0  0  0  0  0  0  0
    2.2588   -1.3360   -0.7568 H   0  0  0  0  0  0  0  0  0  0  0  0
    1.7003    1.2806    0.9373 H   0  0  0  0  0  0  0  0  0  0  0  0
    0.3864   -0.7782    1.7268 H   0  0  0  0  0  0  0  0  0  0  0  0
    0.0366   -1.7465   -1.1649 H   0  0  0  0  0  0  0  0  0  0  0  0
   -1.2236   -1.5548    0.0774 H   0  0  0  0  0  0  0  0  0  0  0  0
    0.4569    1.9946   -0.9519 H   0  0  0  0  0  0  0  0  0  0  0  0
    1.1877    0.6933   -1.9584 H   0  0  0  0  0  0  0  0  0  0  0  0
   -1.6352    2.0485   -0.4826 H   0  0  0  0  0  0  0  0  0  0  0  0
   -0.9409    1.1193    0.8903 H   0  0  0  0  0  0  0  0  0  0  0  0
   -2.3493   -0.6247    1.9563 H   0  0  0  0  0  0  0  0  0  0  0  0
   -3.6647    1.3570   -1.5504 H   0  0  0  0  0  0  0  0  0  0  0  0
   -5.9058    1.1519   -2.2597 H   0  0  0  0  0  0  0  0  0  0  0  0
   -8.1557    0.2557   -1.9596 H   0  0  0  0  0  0  0  0  0  0  0  0
   -8.6397   -1.2236   -0.0081 H   0  0  0  0  0  0  0  0  0  0  0  0
   -6.8111   -1.7769    1.6278 H   0  0  0  0  0  0  0  0  0  0  0  0
  1  2  2  0
  2  3  1  0
  3  4  2  0
  4  5  1  0
  5  6  2  0
  4  7  1  0
  7  8  1  0
  8  9  1  0
  9 10  1  0
 10 11  1  0
 11 12  1  0
 12 13  1  0
 13 14  1  0
 13 15  1  0
 15 16  1  0
 16 17  2  0
 17 18  1  0
 18 19  2  0
 19 20  1  0
 20 21  2  0
 20 22  1  0
 22 23  2  0
 23 24  1  0
 24 25  2  0
  6  1  1  0
 11  9  1  0
 21 16  1  0
 14 10  1  0
 25 19  1  0
  1 26  1  0
  2 27  1  0
  3 28  1  0
  5 29  1  0
  6 30  1  0
  8 31  1  0
  8 32  1  0
  9 33  1  0
 10 34  1  1
 11 35  1  1
 12 36  1  0
 12 37  1  0
 14 38  1  0
 14 39  1  0
 15 40  1  0
 15 41  1  0
 17 42  1  0
 21 43  1  0
 22 44  1  0
 23 45  1  0
 24 46  1  0
 25 47  1  0
M  END
>  <Ligand ID>  (1) 
LIG0005707

>  <Ligand>  (1) 
CHEMBL476756

>  <SMILES>  (1) 
c1ccc(cc1)OCC1[C@@H]2[C@H]1CN(C2)Cc1cnc2c(c1)cccc2

>  <CID>  (1) 
44578995.0

>  <ChEMBL ID>  (1) 
nan

>  <InChiKey>  (1) 
YDELNLPCFPCQQX-WCRBZPEASA-N

>  <InChi>  (1) 
InChI=1S/C22H22N2O/c1-2-7-18(8-3-1)25-15-21-19-13-24(14-20(19)21)12-16-10-17-6-4-5-9-22(17)23-11-16/h1-11,19-21H,12-15H2/t19-,20+,21?

>  <IUPAC Name>  (1) 
3-[[(1S,5R)-6-(phenoxymethyl)-3-azabicyclo[3.1.0]hexan-3-yl]methyl]quinoline

$$$$
