
     RDKit          3D

 83 86  0  0  0  0  0  0  0  0999 V2000
  -12.3195    0.4216    1.3032 C   0  0  0  0  0  0  0  0  0  0  0  0
  -11.3971   -0.6705    1.3467 O   0  0  0  0  0  0  0  0  0  0  0  0
  -10.1774   -0.5860    0.6924 C   0  0  0  0  0  0  0  0  0  0  0  0
   -9.7656    0.5172   -0.0262 C   0  0  0  0  0  0  0  0  0  0  0  0
   -8.5398    0.5491   -0.6590 C   0  0  0  0  0  0  0  0  0  0  0  0
   -7.6801   -0.5308   -0.5919 C   0  0  0  0  0  0  0  0  0  0  0  0
   -8.1083   -1.6424    0.1388 C   0  0  0  0  0  0  0  0  0  0  0  0
   -9.3302   -1.6790    0.7717 C   0  0  0  0  0  0  0  0  0  0  0  0
   -6.3717   -0.5888   -1.2325 C   0  0  0  0  0  0  0  0  0  0  0  0
   -5.2097   -0.1166   -0.4254 C   0  0  0  0  0  0  0  0  0  0  0  0
   -5.3986    1.3107   -0.0429 C   0  0  0  0  0  0  0  0  0  0  0  0
   -4.0956    2.0293    0.2338 C   0  0  0  0  0  0  0  0  0  0  0  0
   -3.0985    1.7697   -0.6677 O   0  0  0  0  0  0  0  0  0  0  0  0
   -2.7920    0.4373   -0.7617 C   0  0  0  0  0  0  0  0  0  0  0  0
   -3.9838   -0.3046   -1.3276 C   0  0  0  0  0  0  0  0  0  0  0  0
   -2.4151   -0.2395    0.5145 C   0  0  0  0  0  0  0  0  0  0  0  0
   -0.9305   -0.1215    0.8016 C   0  0  0  0  0  0  0  0  0  0  0  0
   -0.4471    1.1056    0.2160 N   0  0  0  0  0  0  0  0  0  0  0  0
   -0.4224    0.9572   -1.2162 C   0  0  0  0  0  0  0  0  0  0  0  0
   -1.6569    0.3065   -1.7407 C   0  0  0  0  0  0  0  0  0  0  0  0
    0.7926    1.4709    0.8059 C   0  0  0  0  0  0  0  0  0  0  0  0
    1.8132    0.4549    0.5465 C   0  0  0  0  0  0  0  0  0  0  0  0
    2.6475    0.5350   -0.5758 C   0  0  0  0  0  0  0  0  0  0  0  0
    3.6123   -0.4115   -0.8396 C   0  0  0  0  0  0  0  0  0  0  0  0
    3.8276   -1.4972   -0.0274 C   0  0  0  0  0  0  0  0  0  0  0  0
    3.0042   -1.5904    1.0951 C   0  0  0  0  0  0  0  0  0  0  0  0
    2.0396   -0.6470    1.3615 C   0  0  0  0  0  0  0  0  0  0  0  0
    4.8237   -2.5486   -0.2195 C   0  0  0  0  0  0  0  0  0  0  0  0
    5.9879   -2.3781    0.4621 O   0  0  0  0  0  0  0  0  0  0  0  0
    6.9977   -1.4956    0.5184 C   0  0  0  0  0  0  0  0  0  0  0  0
    7.1691   -0.3479   -0.2141 C   0  0  0  0  0  0  0  0  0  0  0  0
    8.2504    0.5010   -0.0808 C   0  0  0  0  0  0  0  0  0  0  0  0
    9.2311    0.2001    0.8357 C   0  0  0  0  0  0  0  0  0  0  0  0
    9.1066   -0.9388    1.5945 C   0  0  0  0  0  0  0  0  0  0  0  0
    8.0222   -1.7678    1.4448 C   0  0  0  0  0  0  0  0  0  0  0  0
   10.4318    1.0398    1.0587 C   0  0  0  0  0  0  0  0  0  0  0  0
   11.5578    0.6074    0.1583 C   0  0  0  0  0  0  0  0  0  0  0  0
   11.1382    0.7404   -1.2780 C   0  0  0  0  0  0  0  0  0  0  0  0
   10.3746   -0.1172   -1.8234 O   0  0  0  0  0  0  0  0  0  0  0  0
   11.5684    1.8039   -2.0585 O   0  0  0  0  0  0  0  0  0  0  0  0
    0.6866    0.0000    0.0000 Cl  0  0  0  0  0  0  0  0  0  0  0  0
  -13.0749    0.3523    2.0858 H   0  0  0  0  0  0  0  0  0  0  0  0
  -12.8667    0.4275    0.3254 H   0  0  0  0  0  0  0  0  0  0  0  0
  -11.8180    1.4004    1.3996 H   0  0  0  0  0  0  0  0  0  0  0  0
  -10.4283    1.3844   -0.0944 H   0  0  0  0  0  0  0  0  0  0  0  0
   -8.2531    1.4325   -1.2135 H   0  0  0  0  0  0  0  0  0  0  0  0
   -7.4777   -2.5321    0.2338 H   0  0  0  0  0  0  0  0  0  0  0  0
   -9.6099   -2.5845    1.3332 H   0  0  0  0  0  0  0  0  0  0  0  0
   -6.4410   -0.0118   -2.1940 H   0  0  0  0  0  0  0  0  0  0  0  0
   -6.2278   -1.6552   -1.5814 H   0  0  0  0  0  0  0  0  0  0  0  0
   -5.0236   -0.7577    0.4665 H   0  0  0  0  0  0  0  0  0  0  0  0
   -6.0239    1.4128    0.8551 H   0  0  0  0  0  0  0  0  0  0  0  0
   -5.9302    1.8540   -0.8697 H   0  0  0  0  0  0  0  0  0  0  0  0
   -3.7504    1.9505    1.2740 H   0  0  0  0  0  0  0  0  0  0  0  0
   -4.3482    3.1261    0.1040 H   0  0  0  0  0  0  0  0  0  0  0  0
   -3.8173   -1.4053   -1.3546 H   0  0  0  0  0  0  0  0  0  0  0  0
   -4.2674    0.0627   -2.3374 H   0  0  0  0  0  0  0  0  0  0  0  0
   -2.6058   -1.3356    0.3868 H   0  0  0  0  0  0  0  0  0  0  0  0
   -3.0358    0.0526    1.3920 H   0  0  0  0  0  0  0  0  0  0  0  0
   -0.3368   -0.9553    0.3747 H   0  0  0  0  0  0  0  0  0  0  0  0
   -0.7898   -0.0888    1.9263 H   0  0  0  0  0  0  0  0  0  0  0  0
   -0.2442    1.9433   -1.6991 H   0  0  0  0  0  0  0  0  0  0  0  0
    0.4294    0.2643   -1.4878 H   0  0  0  0  0  0  0  0  0  0  0  0
   -1.9759    0.8643   -2.6627 H   0  0  0  0  0  0  0  0  0  0  0  0
   -1.5105   -0.7420   -2.0860 H   0  0  0  0  0  0  0  0  0  0  0  0
    1.1309    2.5049    0.5035 H   0  0  0  0  0  0  0  0  0  0  0  0
    0.6418    1.5062    1.9236 H   0  0  0  0  0  0  0  0  0  0  0  0
    2.5503    1.3636   -1.2769 H   0  0  0  0  0  0  0  0  0  0  0  0
    4.2150   -0.3043   -1.7129 H   0  0  0  0  0  0  0  0  0  0  0  0
    3.1305   -2.4389    1.7838 H   0  0  0  0  0  0  0  0  0  0  0  0
    1.4462   -0.7944    2.2495 H   0  0  0  0  0  0  0  0  0  0  0  0
    4.9740   -2.7338   -1.3273 H   0  0  0  0  0  0  0  0  0  0  0  0
    4.3356   -3.5104    0.1452 H   0  0  0  0  0  0  0  0  0  0  0  0
    6.4342   -0.0831   -0.9420 H   0  0  0  0  0  0  0  0  0  0  0  0
    8.3404    1.4043   -0.6885 H   0  0  0  0  0  0  0  0  0  0  0  0
    9.8771   -1.2014    2.3316 H   0  0  0  0  0  0  0  0  0  0  0  0
    7.9820   -2.6481    2.0725 H   0  0  0  0  0  0  0  0  0  0  0  0
   10.1918    2.1026    0.8744 H   0  0  0  0  0  0  0  0  0  0  0  0
   10.7578    0.9352    2.1135 H   0  0  0  0  0  0  0  0  0  0  0  0
   12.4666    1.1887    0.3388 H   0  0  0  0  0  0  0  0  0  0  0  0
   11.7717   -0.4744    0.3211 H   0  0  0  0  0  0  0  0  0  0  0  0
   10.9253    2.1864   -2.7256 H   0  0  0  0  0  0  0  0  0  0  0  0
   -0.6866    0.0000    0.0000 H   0  0  0  0  0  0  0  0  0  0  0  0
  1  2  1  0
  2  3  1  0
  3  4  2  0
  4  5  1  0
  5  6  2  0
  6  7  1  0
  7  8  2  0
  6  9  1  0
  9 10  1  0
 10 11  1  0
 11 12  1  0
 12 13  1  0
 13 14  1  0
 14 15  1  0
 14 16  1  0
 16 17  1  0
 17 18  1  0
 18 19  1  0
 19 20  1  0
 18 21  1  0
 21 22  1  0
 22 23  2  0
 23 24  1  0
 24 25  2  0
 25 26  1  0
 26 27  2  0
 25 28  1  0
 28 29  1  0
 29 30  1  0
 30 31  2  0
 31 32  1  0
 32 33  2  0
 33 34  1  0
 34 35  2  0
 33 36  1  0
 36 37  1  0
 37 38  1  0
 38 39  2  0
 38 40  1  0
  8  3  1  0
 15 10  1  0
 27 22  1  0
 35 30  1  0
 20 14  1  0
  1 42  1  0
  1 43  1  0
  1 44  1  0
  4 45  1  0
  5 46  1  0
  7 47  1  0
  8 48  1  0
  9 49  1  0
  9 50  1  0
 10 51  1  0
 11 52  1  0
 11 53  1  0
 12 54  1  0
 12 55  1  0
 15 56  1  0
 15 57  1  0
 16 58  1  0
 16 59  1  0
 17 60  1  0
 17 61  1  0
 19 62  1  0
 19 63  1  0
 20 64  1  0
 20 65  1  0
 21 66  1  0
 21 67  1  0
 23 68  1  0
 24 69  1  0
 26 70  1  0
 27 71  1  0
 28 72  1  0
 28 73  1  0
 31 74  1  0
 32 75  1  0
 34 76  1  0
 35 77  1  0
 36 78  1  0
 36 79  1  0
 37 80  1  0
 37 81  1  0
 40 82  1  0
 41 83  1  0
M  END
>  <Ligand ID>  (1) 
LIG0002014

>  <Ligand>  (1) 
CHEMBL3893207

>  <SMILES>  (1) 
COc1ccc(cc1)CC1CCOC2(C1)CCN(CC2)Cc1ccc(cc1)COc1ccc(cc1)CCC(=O)O.Cl

>  <CID>  (1) 
134136959.0

>  <ChEMBL ID>  (1) 
nan

>  <InChiKey>  (1) 
LVEDMCRSHKYPOT-UHFFFAOYSA-N

>  <InChi>  (1) 
InChI=1S/C34H41NO5.ClH/c1-38-31-11-8-27(9-12-31)22-30-16-21-40-34(23-30)17-19-35(20-18-34)24-28-2-4-29(5-3-28)25-39-32-13-6-26(7-14-32)10-15-33(36)37;/h2-9,11-14,30H,10,15-25H2,1H3,(H,36,37);1H

>  <IUPAC Name>  (1) 
3-[4-[[4-[[4-[(4-methoxyphenyl)methyl]-1-oxa-9-azaspiro[5.5]undecan-9-yl]methyl]phenyl]methoxy]phenyl]propanoic acid;hydrochloride

$$$$
