
     RDKit          3D

103104  0  0  0  0  0  0  0  0999 V2000
    8.4681    3.7811    0.0233 C   0  0  0  0  0  0  0  0  0  0  0  0
    6.9004    2.9112    0.2325 S   0  0  0  0  0  0  0  0  0  0  0  0
    6.5322    2.5756    1.9606 C   0  0  0  0  0  0  0  0  0  0  0  0
    7.5250    1.5973    2.5414 C   0  0  0  0  0  0  0  0  0  0  0  0
    7.5421    0.2820    1.8502 C   0  0  1  0  0  0  0  0  0  0  0  0
    8.5388   -0.6516    2.4684 C   0  0  0  0  0  0  0  0  0  0  0  0
    9.7641   -0.3095    2.6069 O   0  0  0  0  0  0  0  0  0  0  0  0
    8.2103   -1.9451    2.9332 N   0  0  0  0  0  0  0  0  0  0  0  0
    6.2680   -0.4052    1.8273 N   0  0  0  0  0  0  0  0  0  0  0  0
    5.6431   -0.7880    0.6222 C   0  0  0  0  0  0  0  0  0  0  0  0
    6.2796   -0.4755   -0.4517 O   0  0  0  0  0  0  0  0  0  0  0  0
    4.3834   -1.4806    0.4490 C   0  0  1  0  0  0  0  0  0  0  0  0
    3.9900   -1.4899   -0.9954 N   0  0  0  0  0  0  0  0  0  0  0  0
    2.6009   -1.3558   -1.2911 C   0  0  0  0  0  0  0  0  0  0  0  0
    1.7036   -1.2298   -0.4271 O   0  0  0  0  0  0  0  0  0  0  0  0
    2.2296   -1.3750   -2.7380 C   0  0  0  0  0  0  0  0  0  0  0  0
    0.7945   -1.2863   -2.8948 N   0  0  0  0  0  0  0  0  0  0  0  0
    0.0190   -0.1852   -2.4216 C   0  0  0  0  0  0  0  0  0  0  0  0
    0.5158    0.8099   -1.8401 O   0  0  0  0  0  0  0  0  0  0  0  0
   -1.4534   -0.3123   -2.6690 C   0  0  2  0  0  0  0  0  0  0  0  0
   -1.7992   -0.4365   -4.1296 C   0  0  0  0  0  0  0  0  0  0  0  0
   -3.2772   -0.5335   -4.3356 C   0  0  0  0  0  0  0  0  0  0  0  0
   -3.9373   -1.7464   -4.3204 C   0  0  0  0  0  0  0  0  0  0  0  0
   -5.3177   -1.8418   -4.4977 C   0  0  0  0  0  0  0  0  0  0  0  0
   -6.0389   -0.6760   -4.6945 C   0  0  0  0  0  0  0  0  0  0  0  0
   -5.3853    0.5553   -4.7134 C   0  0  0  0  0  0  0  0  0  0  0  0
   -4.0365    0.6302   -4.5392 C   0  0  0  0  0  0  0  0  0  0  0  0
   -2.2219    0.7601   -2.1133 N   0  0  0  0  0  0  0  0  0  0  0  0
   -2.7854    0.6077   -0.8434 C   0  0  0  0  0  0  0  0  0  0  0  0
   -2.4978   -0.5316   -0.2673 O   0  0  0  0  0  0  0  0  0  0  0  0
   -3.6253    1.4784   -0.0665 C   0  0  2  0  0  0  0  0  0  0  0  0
   -3.4427    2.9238   -0.0889 C   0  0  0  0  0  0  0  0  0  0  0  0
   -3.6436    3.6914   -1.3079 C   0  0  0  0  0  0  0  0  0  0  0  0
   -4.9728    4.0079   -1.6213 C   0  0  0  0  0  0  0  0  0  0  0  0
   -5.3481    4.7689   -2.6924 C   0  0  0  0  0  0  0  0  0  0  0  0
   -4.3505    5.2503   -3.5099 C   0  0  0  0  0  0  0  0  0  0  0  0
   -3.0027    4.9758   -3.2604 C   0  0  0  0  0  0  0  0  0  0  0  0
   -2.7009    4.2007   -2.1589 C   0  0  0  0  0  0  0  0  0  0  0  0
   -3.7177    0.9847    1.3268 N   0  0  0  0  0  0  0  0  0  0  0  0
   -5.0350    0.8585    1.9197 C   0  0  0  0  0  0  0  0  0  0  0  0
   -6.0494    1.1682    1.2496 O   0  0  0  0  0  0  0  0  0  0  0  0
   -5.0620    0.3643    3.3046 C   0  0  0  0  0  0  0  0  0  0  0  0
   -6.3622    0.4329    3.9991 C   0  0  0  0  0  0  0  0  0  0  0  0
   -7.5116   -0.3077    3.3946 C   0  0  0  0  0  0  0  0  0  0  0  0
   -7.3255   -1.7740    3.2314 C   0  0  0  0  0  0  0  0  0  0  0  0
   -6.2461   -2.1709    2.3620 N   0  0  0  0  0  0  0  0  0  0  0  0
    4.3307   -2.9193    0.9303 C   0  0  0  0  0  0  0  0  0  0  0  0
    4.5969   -3.1552    2.3630 C   0  0  0  0  0  0  0  0  0  0  0  0
    4.4448   -4.6795    2.5873 C   0  0  0  0  0  0  0  0  0  0  0  0
    3.6333   -2.4727    3.2969 C   0  0  0  0  0  0  0  0  0  0  0  0
    8.8495    3.5153   -0.9782 H   0  0  0  0  0  0  0  0  0  0  0  0
    9.2222    3.5658    0.7824 H   0  0  0  0  0  0  0  0  0  0  0  0
    8.2712    4.8661    0.0830 H   0  0  0  0  0  0  0  0  0  0  0  0
    5.5050    2.1731    2.0314 H   0  0  0  0  0  0  0  0  0  0  0  0
    6.5795    3.5554    2.5165 H   0  0  0  0  0  0  0  0  0  0  0  0
    8.5278    2.0762    2.3922 H   0  0  0  0  0  0  0  0  0  0  0  0
    7.4042    1.4965    3.6536 H   0  0  0  0  0  0  0  0  0  0  0  0
    7.8431    0.4191    0.7890 H   0  0  0  0  0  0  0  0  0  0  0  0
    8.1930   -2.7922    2.2926 H   0  0  0  0  0  0  0  0  0  0  0  0
    7.9680   -2.0764    3.9646 H   0  0  0  0  0  0  0  0  0  0  0  0
    5.8012   -0.5963    2.7301 H   0  0  0  0  0  0  0  0  0  0  0  0
    3.5491   -0.9823    0.9741 H   0  0  0  0  0  0  0  0  0  0  0  0
    4.7288   -1.5864   -1.7261 H   0  0  0  0  0  0  0  0  0  0  0  0
    2.7045   -0.4535   -3.1898 H   0  0  0  0  0  0  0  0  0  0  0  0
    2.6695   -2.2524   -3.2317 H   0  0  0  0  0  0  0  0  0  0  0  0
    0.3505   -2.1154   -3.4006 H   0  0  0  0  0  0  0  0  0  0  0  0
   -1.7992   -1.2765   -2.1613 H   0  0  0  0  0  0  0  0  0  0  0  0
   -1.4551    0.4669   -4.6656 H   0  0  0  0  0  0  0  0  0  0  0  0
   -1.3113   -1.3304   -4.5644 H   0  0  0  0  0  0  0  0  0  0  0  0
   -3.3580   -2.6539   -4.1695 H   0  0  0  0  0  0  0  0  0  0  0  0
   -5.8114   -2.8311   -4.4797 H   0  0  0  0  0  0  0  0  0  0  0  0
   -7.1118   -0.7481   -4.8315 H   0  0  0  0  0  0  0  0  0  0  0  0
   -5.9487    1.4884   -4.8682 H   0  0  0  0  0  0  0  0  0  0  0  0
   -3.5891    1.6087   -4.5735 H   0  0  0  0  0  0  0  0  0  0  0  0
   -2.3617    1.6081   -2.6365 H   0  0  0  0  0  0  0  0  0  0  0  0
   -4.7188    1.2774   -0.4804 H   0  0  0  0  0  0  0  0  0  0  0  0
   -4.0929    3.4303    0.7115 H   0  0  0  0  0  0  0  0  0  0  0  0
   -2.3900    3.1680    0.2727 H   0  0  0  0  0  0  0  0  0  0  0  0
   -5.7677    3.6339   -0.9835 H   0  0  0  0  0  0  0  0  0  0  0  0
   -6.4099    4.9588   -2.8523 H   0  0  0  0  0  0  0  0  0  0  0  0
   -4.6482    5.8527   -4.3620 H   0  0  0  0  0  0  0  0  0  0  0  0
   -2.2122    5.3608   -3.9158 H   0  0  0  0  0  0  0  0  0  0  0  0
   -1.6579    3.9568   -1.9199 H   0  0  0  0  0  0  0  0  0  0  0  0
   -2.8627    0.7477    1.8393 H   0  0  0  0  0  0  0  0  0  0  0  0
   -4.7117   -0.7058    3.2667 H   0  0  0  0  0  0  0  0  0  0  0  0
   -4.3202    0.9322    3.9311 H   0  0  0  0  0  0  0  0  0  0  0  0
   -6.6590    1.5218    4.2057 H   0  0  0  0  0  0  0  0  0  0  0  0
   -6.1807    0.0592    5.0558 H   0  0  0  0  0  0  0  0  0  0  0  0
   -7.7675    0.1341    2.3857 H   0  0  0  0  0  0  0  0  0  0  0  0
   -8.3782   -0.1518    4.0933 H   0  0  0  0  0  0  0  0  0  0  0  0
   -7.1512   -2.2759    4.2128 H   0  0  0  0  0  0  0  0  0  0  0  0
   -8.2759   -2.2016    2.8358 H   0  0  0  0  0  0  0  0  0  0  0  0
   -5.6450   -2.9272    2.7656 H   0  0  0  0  0  0  0  0  0  0  0  0
   -6.6364   -2.5547    1.4502 H   0  0  0  0  0  0  0  0  0  0  0  0
    3.3407   -3.3844    0.6754 H   0  0  0  0  0  0  0  0  0  0  0  0
    5.0464   -3.4710    0.2578 H   0  0  0  0  0  0  0  0  0  0  0  0
    5.6294   -2.8687    2.6853 H   0  0  0  0  0  0  0  0  0  0  0  0
    4.9357   -5.2115    1.7566 H   0  0  0  0  0  0  0  0  0  0  0  0
    3.3731   -4.9724    2.6201 H   0  0  0  0  0  0  0  0  0  0  0  0
    4.8636   -4.9689    3.5957 H   0  0  0  0  0  0  0  0  0  0  0  0
    4.0104   -2.5757    4.3298 H   0  0  0  0  0  0  0  0  0  0  0  0
    2.6909   -3.0981    3.2411 H   0  0  0  0  0  0  0  0  0  0  0  0
    3.4075   -1.4421    3.0022 H   0  0  0  0  0  0  0  0  0  0  0  0
  1  2  1  0
  2  3  1  0
  3  4  1  0
  4  5  1  0
  5  6  1  0
  6  7  2  0
  6  8  1  0
  5  9  1  0
  9 10  1  0
 10 11  2  0
 10 12  1  0
 12 13  1  0
 13 14  1  0
 14 15  2  0
 14 16  1  0
 16 17  1  0
 17 18  1  0
 18 19  2  0
 18 20  1  0
 20 21  1  0
 21 22  1  0
 22 23  2  0
 23 24  1  0
 24 25  2  0
 25 26  1  0
 26 27  2  0
 20 28  1  0
 28 29  1  0
 29 30  2  0
 29 31  1  0
 31 32  1  0
 32 33  1  0
 33 34  2  0
 34 35  1  0
 35 36  2  0
 36 37  1  0
 37 38  2  0
 31 39  1  0
 39 40  1  0
 40 41  2  0
 40 42  1  0
 42 43  1  0
 43 44  1  0
 44 45  1  0
 45 46  1  0
 12 47  1  0
 47 48  1  0
 48 49  1  0
 48 50  1  0
 27 22  1  0
 38 33  1  0
  1 51  1  0
  1 52  1  0
  1 53  1  0
  3 54  1  0
  3 55  1  0
  4 56  1  0
  4 57  1  0
  5 58  1  6
  8 59  1  0
  8 60  1  0
  9 61  1  0
 12 62  1  1
 13 63  1  0
 16 64  1  0
 16 65  1  0
 17 66  1  0
 20 67  1  1
 21 68  1  0
 21 69  1  0
 23 70  1  0
 24 71  1  0
 25 72  1  0
 26 73  1  0
 27 74  1  0
 28 75  1  0
 31 76  1  6
 32 77  1  0
 32 78  1  0
 34 79  1  0
 35 80  1  0
 36 81  1  0
 37 82  1  0
 38 83  1  0
 39 84  1  0
 42 85  1  0
 42 86  1  0
 43 87  1  0
 43 88  1  0
 44 89  1  0
 44 90  1  0
 45 91  1  0
 45 92  1  0
 46 93  1  0
 46 94  1  0
 47 95  1  0
 47 96  1  0
 48 97  1  0
 49 98  1  0
 49 99  1  0
 49100  1  0
 50101  1  0
 50102  1  0
 50103  1  0
M  END
>  <Ligand ID>  (1) 
LIG0003445

>  <Ligand>  (1) 
CHEMBL262049

>  <SMILES>  (1) 
CSCC[C@@H](C(=O)N)NC(=O)[C@@H](NC(=O)CNC(=O)[C@H](Cc1ccccc1)NC(=O)[C@H](Cc1ccccc1)NC(=O)CCCCN)CC(C)C

>  <CID>  (1) 
10055612.0

>  <ChEMBL ID>  (1) 
nan

>  <InChiKey>  (1) 
IXIPTARVRKPIBS-KRCBVYEFSA-N

>  <InChi>  (1) 
InChI=1S/C36H53N7O6S/c1-24(2)20-28(35(48)42-27(33(38)46)17-19-50-3)41-32(45)23-39-34(47)29(21-25-12-6-4-7-13-25)43-36(49)30(22-26-14-8-5-9-15-26)40-31(44)16-10-11-18-37/h4-9,12-15,24,27-30H,10-11,16-23,37H2,1-3H3,(H2,38,46)(H,39,47)(H,40,44)(H,41,45)(H,42,48)(H,43,49)/t27-,28-,29-,30-/m0/s1

>  <IUPAC Name>  (1) 
(2S)-N-[(2S)-1-amino-4-methylsulfanyl-1-oxobutan-2-yl]-2-[[2-[[(2S)-2-[[(2S)-2-(5-aminopentanoylamino)-3-phenylpropanoyl]amino]-3-phenylpropanoyl]amino]acetyl]amino]-4-methylpentanamide

$$$$
