
     RDKit          3D

 29 30  0  0  0  0  0  0  0  0999 V2000
    3.6431    0.7632   -0.2665 C   0  0  0  0  0  0  0  0  0  0  0  0
    2.3213    0.4154    0.3775 C   0  0  1  0  0  0  0  0  0  0  0  0
    1.3980   -0.1852   -0.6720 C   0  0  0  0  0  0  0  0  0  0  0  0
    0.1084   -0.5440   -0.0913 N   0  0  0  0  0  0  0  0  0  0  0  0
   -0.1756   -1.5820    0.8570 C   0  0  0  0  0  0  0  0  0  0  0  0
   -1.6646   -1.8389    0.7364 C   0  0  0  0  0  0  0  0  0  0  0  0
   -2.1906   -0.6280    0.0762 C   0  0  0  0  0  0  0  0  0  0  0  0
   -1.1325    0.1187   -0.3993 C   0  0  0  0  0  0  0  0  0  0  0  0
   -1.3400    1.3126   -1.0638 C   0  0  0  0  0  0  0  0  0  0  0  0
   -2.6540    1.7548   -1.2483 C   0  0  0  0  0  0  0  0  0  0  0  0
   -2.9623    3.3939   -2.1596 Br  0  0  0  0  0  0  0  0  0  0  0  0
   -3.6939    0.9940   -0.7659 C   0  0  0  0  0  0  0  0  0  0  0  0
   -3.4990   -0.2091   -0.0950 C   0  0  0  0  0  0  0  0  0  0  0  0
    2.5189   -0.4379    1.5213 N   0  0  0  0  0  0  0  0  0  0  0  0
    3.8592    1.8252   -0.1535 H   0  0  0  0  0  0  0  0  0  0  0  0
    4.4225    0.1009    0.1936 H   0  0  0  0  0  0  0  0  0  0  0  0
    3.6471    0.5148   -1.3511 H   0  0  0  0  0  0  0  0  0  0  0  0
    1.8737    1.3784    0.7630 H   0  0  0  0  0  0  0  0  0  0  0  0
    1.8831   -1.0174   -1.2094 H   0  0  0  0  0  0  0  0  0  0  0  0
    1.2633    0.6114   -1.4526 H   0  0  0  0  0  0  0  0  0  0  0  0
    0.0089   -1.2883    1.8951 H   0  0  0  0  0  0  0  0  0  0  0  0
    0.3905   -2.5204    0.6238 H   0  0  0  0  0  0  0  0  0  0  0  0
   -2.1381   -2.0074    1.7235 H   0  0  0  0  0  0  0  0  0  0  0  0
   -1.8235   -2.7377    0.1120 H   0  0  0  0  0  0  0  0  0  0  0  0
   -0.5641    1.9302   -1.4522 H   0  0  0  0  0  0  0  0  0  0  0  0
   -4.7154    1.3352   -0.9076 H   0  0  0  0  0  0  0  0  0  0  0  0
   -4.3018   -0.8125    0.2872 H   0  0  0  0  0  0  0  0  0  0  0  0
    1.9949   -0.0514    2.3478 H   0  0  0  0  0  0  0  0  0  0  0  0
    3.5225   -0.5884    1.7737 H   0  0  0  0  0  0  0  0  0  0  0  0
  1  2  1  0
  2  3  1  0
  3  4  1  0
  4  5  1  0
  5  6  1  0
  6  7  1  0
  7  8  2  0
  8  9  1  0
  9 10  2  0
 10 11  1  0
 10 12  1  0
 12 13  2  0
  2 14  1  0
  8  4  1  0
 13  7  1  0
  1 15  1  0
  1 16  1  0
  1 17  1  0
  2 18  1  1
  3 19  1  0
  3 20  1  0
  5 21  1  0
  5 22  1  0
  6 23  1  0
  6 24  1  0
  9 25  1  0
 12 26  1  0
 13 27  1  0
 14 28  1  0
 14 29  1  0
M  END
>  <Ligand ID>  (1) 
LIG0002156

>  <Ligand>  (1) 
VER-3323

>  <SMILES>  (1) 
C[C@@H](CN1CCc2c1cc(Br)cc2)N

>  <CID>  (1) 
6604042.0

>  <ChEMBL ID>  (1) 
nan

>  <InChiKey>  (1) 
QGRQJMXAQYGAKK-QMMMGPOBSA-N

>  <InChi>  (1) 
InChI=1S/C11H15BrN2/c1-8(13)7-14-5-4-9-2-3-10(12)6-11(9)14/h2-3,6,8H,4-5,7,13H2,1H3/t8-/m0/s1

>  <IUPAC Name>  (1) 
(2S)-1-(6-bromo-2,3-dihydroindol-1-yl)propan-2-amine

$$$$
