
     RDKit          3D

 54 58  0  0  0  0  0  0  0  0999 V2000
   -6.1406    3.8572    3.1458 Cl  0  0  0  0  0  0  0  0  0  0  0  0
   -5.0075    2.6929    2.4737 C   0  0  0  0  0  0  0  0  0  0  0  0
   -3.7201    2.5833    2.9298 C   0  0  0  0  0  0  0  0  0  0  0  0
   -2.8088    1.6619    2.4044 C   0  0  0  0  0  0  0  0  0  0  0  0
   -3.2481    0.8407    1.3857 C   0  0  0  0  0  0  0  0  0  0  0  0
   -4.5507    0.9127    0.8851 C   0  0  0  0  0  0  0  0  0  0  0  0
   -5.3901    1.8453    1.4531 C   0  0  0  0  0  0  0  0  0  0  0  0
   -2.3472   -0.1873    0.7530 C   0  0  0  0  0  0  0  0  0  0  0  0
   -1.5714    0.4016   -0.3551 C   0  0  0  0  0  0  0  0  0  0  0  0
   -2.2333    1.0113   -1.3973 C   0  0  0  0  0  0  0  0  0  0  0  0
   -1.4630    1.5372   -2.4161 C   0  0  0  0  0  0  0  0  0  0  0  0
   -0.0873    1.4620   -2.4018 C   0  0  0  0  0  0  0  0  0  0  0  0
    0.5840    0.8479   -1.3509 C   0  0  0  0  0  0  0  0  0  0  0  0
   -0.1904    0.3270   -0.3420 C   0  0  0  0  0  0  0  0  0  0  0  0
    1.9822    0.7712   -1.3407 C   0  0  0  0  0  0  0  0  0  0  0  0
    2.5854    1.3278   -2.4056 N   0  0  0  0  0  0  0  0  0  0  0  0
    1.9587    1.9248   -3.4296 C   0  0  0  0  0  0  0  0  0  0  0  0
    0.6155    2.0013   -3.4441 N   0  0  0  0  0  0  0  0  0  0  0  0
    2.6618    0.1714   -0.2726 N   0  0  0  0  0  0  0  0  0  0  0  0
    4.0723   -0.0389   -0.2043 C   0  0  0  0  0  0  0  0  0  0  0  0
    4.6721   -0.3327    1.0286 C   0  0  0  0  0  0  0  0  0  0  0  0
    6.0222   -0.5582    1.1543 C   0  0  0  0  0  0  0  0  0  0  0  0
    6.8489   -0.5028    0.0544 C   0  0  0  0  0  0  0  0  0  0  0  0
    6.2844   -0.2174   -1.1621 C   0  0  0  0  0  0  0  0  0  0  0  0
    4.9098    0.0107   -1.2813 C   0  0  0  0  0  0  0  0  0  0  0  0
    7.3196   -0.1392   -2.5971 Cl  0  0  0  0  0  0  0  0  0  0  0  0
    8.2978   -0.7371    0.1428 C   0  0  0  0  0  0  0  0  0  0  0  0
    8.7162   -1.8140   -0.6366 F   0  0  0  0  0  0  0  0  0  0  0  0
    8.7158   -0.9457    1.4296 F   0  0  0  0  0  0  0  0  0  0  0  0
    9.0058    0.3736   -0.3323 F   0  0  0  0  0  0  0  0  0  0  0  0
   -3.0732   -1.4233    0.4241 C   0  0  0  0  0  0  0  0  0  0  0  0
   -3.4568   -1.8151   -0.8330 C   0  0  0  0  0  0  0  0  0  0  0  0
   -4.1559   -3.0053   -1.0650 C   0  0  0  0  0  0  0  0  0  0  0  0
   -4.4869   -3.8374   -0.0151 C   0  0  0  0  0  0  0  0  0  0  0  0
   -4.1117   -3.4611    1.2422 C   0  0  0  0  0  0  0  0  0  0  0  0
   -3.4225   -2.2867    1.4667 C   0  0  0  0  0  0  0  0  0  0  0  0
   -5.3568   -5.3356   -0.2298 Cl  0  0  0  0  0  0  0  0  0  0  0  0
   -3.3560    3.2246    3.7342 H   0  0  0  0  0  0  0  0  0  0  0  0
   -1.7931    1.5849    2.7742 H   0  0  0  0  0  0  0  0  0  0  0  0
   -4.8900    0.2706    0.0907 H   0  0  0  0  0  0  0  0  0  0  0  0
   -6.4087    1.8763    1.0364 H   0  0  0  0  0  0  0  0  0  0  0  0
   -1.6564   -0.4742    1.6098 H   0  0  0  0  0  0  0  0  0  0  0  0
   -3.2908    1.1195   -1.4808 H   0  0  0  0  0  0  0  0  0  0  0  0
   -1.9331    2.0184   -3.2440 H   0  0  0  0  0  0  0  0  0  0  0  0
    0.2526   -0.1673    0.5049 H   0  0  0  0  0  0  0  0  0  0  0  0
    2.5771    2.3415   -4.2421 H   0  0  0  0  0  0  0  0  0  0  0  0
    2.1314   -0.1624    0.5656 H   0  0  0  0  0  0  0  0  0  0  0  0
    4.0431   -0.3817    1.9084 H   0  0  0  0  0  0  0  0  0  0  0  0
    6.4841   -0.7867    2.1172 H   0  0  0  0  0  0  0  0  0  0  0  0
    4.5702    0.2192   -2.2807 H   0  0  0  0  0  0  0  0  0  0  0  0
   -3.2267   -1.2199   -1.6859 H   0  0  0  0  0  0  0  0  0  0  0  0
   -4.4446   -3.2826   -2.0821 H   0  0  0  0  0  0  0  0  0  0  0  0
   -4.3508   -4.0888    2.1151 H   0  0  0  0  0  0  0  0  0  0  0  0
   -3.1384   -2.0156    2.4805 H   0  0  0  0  0  0  0  0  0  0  0  0
  1  2  1  0
  2  3  2  0
  3  4  1  0
  4  5  2  0
  5  6  1  0
  6  7  2  0
  5  8  1  0
  8  9  1  0
  9 10  2  0
 10 11  1  0
 11 12  2  0
 12 13  1  0
 13 14  2  0
 13 15  1  0
 15 16  2  0
 16 17  1  0
 17 18  2  0
 15 19  1  0
 19 20  1  0
 20 21  2  0
 21 22  1  0
 22 23  2  0
 23 24  1  0
 24 25  2  0
 24 26  1  0
 23 27  1  0
 27 28  1  0
 27 29  1  0
 27 30  1  0
  8 31  1  0
 31 32  2  0
 32 33  1  0
 33 34  2  0
 34 35  1  0
 35 36  2  0
 34 37  1  0
  7  2  1  0
 14  9  1  0
 25 20  1  0
 36 31  1  0
 18 12  1  0
  3 38  1  0
  4 39  1  0
  6 40  1  0
  7 41  1  0
  8 42  1  0
 10 43  1  0
 11 44  1  0
 14 45  1  0
 17 46  1  0
 19 47  1  0
 21 48  1  0
 22 49  1  0
 25 50  1  0
 32 51  1  0
 33 52  1  0
 35 53  1  0
 36 54  1  0
M  END
>  <Ligand ID>  (1) 
LIG0005885

>  <Ligand>  (1) 
SCHEMBL17557660

>  <SMILES>  (1) 
Clc1ccc(cc1)C(c1ccc2c(c1)c(ncn2)Nc1ccc(c(c1)Cl)C(F)(F)F)c1ccc(cc1)Cl

>  <CID>  (1) 
118916143.0

>  <ChEMBL ID>  (1) 
nan

>  <InChiKey>  (1) 
FZNKOCPIJSWXRZ-UHFFFAOYSA-N

>  <InChi>  (1) 
InChI=1S/C28H17Cl3F3N3/c29-19-6-1-16(2-7-19)26(17-3-8-20(30)9-4-17)18-5-12-25-22(13-18)27(36-15-35-25)37-21-10-11-23(24(31)14-21)28(32,33)34/h1-15,26H,(H,35,36,37)

>  <IUPAC Name>  (1) 
6-[bis(4-chlorophenyl)methyl]-N-[3-chloro-4-(trifluoromethyl)phenyl]quinazolin-4-amine

$$$$
