
     RDKit          3D

 26 28  0  0  0  0  0  0  0  0999 V2000
    0.4056    2.6547    1.4838 O   0  0  0  0  0  0  0  0  0  0  0  0
    0.3128    1.4939    0.9649 C   0  0  0  0  0  0  0  0  0  0  0  0
   -0.8693    0.7693    0.6524 N   0  0  0  0  0  0  0  0  0  0  0  0
   -2.2676    1.1087    0.8184 C   0  0  0  0  0  0  0  0  0  0  0  0
   -3.0624    0.0792    0.0045 C   0  0  0  0  0  0  0  0  0  0  0  0
   -2.4876   -0.0663   -1.3185 N   0  0  0  0  0  0  0  0  0  0  0  0
   -1.1528   -0.5667   -1.3004 C   0  0  0  0  0  0  0  0  0  0  0  0
   -0.5604   -0.5158    0.0741 C   0  0  1  0  0  0  0  0  0  0  0  0
    0.9159   -0.5223    0.0557 C   0  0  0  0  0  0  0  0  0  0  0  0
    1.4329    0.6457    0.5735 C   0  0  0  0  0  0  0  0  0  0  0  0
    2.8132    0.8597    0.6550 C   0  0  0  0  0  0  0  0  0  0  0  0
    3.4548    2.3535    1.3175 Cl  0  0  0  0  0  0  0  0  0  0  0  0
    3.6774   -0.1277    0.2038 C   0  0  0  0  0  0  0  0  0  0  0  0
    3.1510   -1.2943   -0.3133 C   0  0  0  0  0  0  0  0  0  0  0  0
    1.7756   -1.5131   -0.3970 C   0  0  0  0  0  0  0  0  0  0  0  0
    5.4293    0.0770    0.2773 Cl  0  0  0  0  0  0  0  0  0  0  0  0
   -2.5246    2.1015    0.3566 H   0  0  0  0  0  0  0  0  0  0  0  0
   -2.6249    1.0742    1.8514 H   0  0  0  0  0  0  0  0  0  0  0  0
   -3.0954   -0.9075    0.5108 H   0  0  0  0  0  0  0  0  0  0  0  0
   -4.0917    0.4860   -0.0644 H   0  0  0  0  0  0  0  0  0  0  0  0
   -3.1411   -0.5915   -1.9187 H   0  0  0  0  0  0  0  0  0  0  0  0
   -1.1669   -1.6444   -1.6207 H   0  0  0  0  0  0  0  0  0  0  0  0
   -0.5015   -0.0603   -2.0403 H   0  0  0  0  0  0  0  0  0  0  0  0
   -0.9826   -1.3587    0.6602 H   0  0  0  0  0  0  0  0  0  0  0  0
    3.7905   -2.0989   -0.6803 H   0  0  0  0  0  0  0  0  0  0  0  0
    1.3696   -2.4361   -0.8063 H   0  0  0  0  0  0  0  0  0  0  0  0
  1  2  2  0
  2  3  1  0
  3  4  1  0
  4  5  1  0
  5  6  1  0
  6  7  1  0
  7  8  1  0
  8  9  1  0
  9 10  2  0
 10 11  1  0
 11 12  1  0
 11 13  2  0
 13 14  1  0
 14 15  2  0
 13 16  1  0
 10  2  1  0
  8  3  1  0
 15  9  1  0
  4 17  1  0
  4 18  1  0
  5 19  1  0
  5 20  1  0
  6 21  1  0
  7 22  1  0
  7 23  1  0
  8 24  1  1
 14 25  1  0
 15 26  1  0
M  END
>  <Ligand ID>  (1) 
LIG0003208

>  <Ligand>  (1) 
CHEMBL220900

>  <SMILES>  (1) 
O=C1N2CCNC[C@H]2c2c1c(Cl)c(cc2)Cl

>  <CID>  (1) 
11737939.0

>  <ChEMBL ID>  (1) 
nan

>  <InChiKey>  (1) 
LGWMDPQPQYEPII-QMMMGPOBSA-N

>  <InChi>  (1) 
InChI=1S/C11H10Cl2N2O/c12-7-2-1-6-8-5-14-3-4-15(8)11(16)9(6)10(7)13/h1-2,8,14H,3-5H2/t8-/m0/s1

>  <IUPAC Name>  (1) 
(10bR)-7,8-dichloro-2,3,4,10b-tetrahydro-1H-pyrazino[1,2-b]isoindol-6-one

$$$$
