
     RDKit          3D

 29 28  0  0  0  0  0  0  0  0999 V2000
   -4.2204   -1.1687    0.3619 C   0  0  0  0  0  0  0  0  0  0  0  0
   -3.2012   -0.1477    0.7776 C   0  0  0  0  0  0  0  0  0  0  0  0
   -2.2483    0.1551   -0.3795 C   0  0  0  0  0  0  0  0  0  0  0  0
   -1.2886    1.1711    0.1260 C   0  0  0  0  0  0  0  0  0  0  0  0
   -0.2604    1.6358   -0.8083 C   0  0  0  0  0  0  0  0  0  0  0  0
    0.6875    0.6122   -1.3691 C   0  0  0  0  0  0  0  0  0  0  0  0
    1.4677   -0.0801   -0.3121 C   0  0  0  0  0  0  0  0  0  0  0  0
    0.8536   -0.6533    0.6431 O   0  0  0  0  0  0  0  0  0  0  0  0
    2.8572   -0.1426   -0.2994 O   0  0  0  0  0  0  0  0  0  0  0  0
    3.5523   -0.8185    0.7397 C   0  0  0  0  0  0  0  0  0  0  0  0
    5.0337   -0.6706    0.4603 C   0  0  0  0  0  0  0  0  0  0  0  0
   -4.1074   -1.4807   -0.6967 H   0  0  0  0  0  0  0  0  0  0  0  0
   -5.2378   -0.6848    0.3936 H   0  0  0  0  0  0  0  0  0  0  0  0
   -4.2729   -2.0118    1.0696 H   0  0  0  0  0  0  0  0  0  0  0  0
   -2.5543   -0.5843    1.5794 H   0  0  0  0  0  0  0  0  0  0  0  0
   -3.6519    0.7760    1.1787 H   0  0  0  0  0  0  0  0  0  0  0  0
   -2.8526    0.6014   -1.1966 H   0  0  0  0  0  0  0  0  0  0  0  0
   -1.8038   -0.8172   -0.6494 H   0  0  0  0  0  0  0  0  0  0  0  0
   -0.8877    0.8011    1.0855 H   0  0  0  0  0  0  0  0  0  0  0  0
   -1.9100    2.0742    0.4132 H   0  0  0  0  0  0  0  0  0  0  0  0
   -0.7083    2.1628   -1.6852 H   0  0  0  0  0  0  0  0  0  0  0  0
    0.3689    2.4108   -0.3062 H   0  0  0  0  0  0  0  0  0  0  0  0
    0.1610   -0.1931   -1.9298 H   0  0  0  0  0  0  0  0  0  0  0  0
    1.4193    1.0495   -2.0767 H   0  0  0  0  0  0  0  0  0  0  0  0
    3.3405   -0.3632    1.7410 H   0  0  0  0  0  0  0  0  0  0  0  0
    3.2409   -1.8837    0.7965 H   0  0  0  0  0  0  0  0  0  0  0  0
    5.4786   -1.5886    0.0457 H   0  0  0  0  0  0  0  0  0  0  0  0
    5.1910    0.1828   -0.2680 H   0  0  0  0  0  0  0  0  0  0  0  0
    5.5534   -0.3439    1.3931 H   0  0  0  0  0  0  0  0  0  0  0  0
  1  2  1  0
  2  3  1  0
  3  4  1  0
  4  5  1  0
  5  6  1  0
  6  7  1  0
  7  8  2  0
  7  9  1  0
  9 10  1  0
 10 11  1  0
  1 12  1  0
  1 13  1  0
  1 14  1  0
  2 15  1  0
  2 16  1  0
  3 17  1  0
  3 18  1  0
  4 19  1  0
  4 20  1  0
  5 21  1  0
  5 22  1  0
  6 23  1  0
  6 24  1  0
 10 25  1  0
 10 26  1  0
 11 27  1  0
 11 28  1  0
 11 29  1  0
M  END
>  <Ligand ID>  (1) 
LIG0002072

>  <Ligand>  (1) 
ethyl heptanoate

>  <SMILES>  (1) 
CCCCCCC(=O)OCC

>  <CID>  (1) 
7797.0

>  <ChEMBL ID>  (1) 
nan

>  <InChiKey>  (1) 
TVQGDYNRXLTQAP-UHFFFAOYSA-N

>  <InChi>  (1) 
InChI=1S/C9H18O2/c1-3-5-6-7-8-9(10)11-4-2/h3-8H2,1-2H3

>  <IUPAC Name>  (1) 
ethyl heptanoate

$$$$
