
     RDKit          3D

138141  0  0  0  0  0  0  0  0999 V2000
   14.2334    4.3713   -1.4300 C   0  0  0  0  0  0  0  0  0  0  0  0
   15.0472    3.1252   -1.2397 C   0  0  0  0  0  0  0  0  0  0  0  0
   14.0210    1.9576   -1.0839 C   0  0  0  0  0  0  0  0  0  0  0  0
   14.7722    0.6823   -0.8908 C   0  0  0  0  0  0  0  0  0  0  0  0
   14.0374   -0.5834   -0.7691 C   0  0  0  0  0  0  0  0  0  0  0  0
   13.1105   -0.8574    0.3249 C   0  0  0  0  0  0  0  0  0  0  0  0
   11.9048   -0.0033    0.5148 C   0  0  0  0  0  0  0  0  0  0  0  0
   11.1231   -0.6164    1.6963 C   0  0  0  0  0  0  0  0  0  0  0  0
    9.8843    0.1450    2.0172 C   0  0  0  0  0  0  0  0  0  0  0  0
    8.9183    0.1806    0.8822 C   0  0  0  0  0  0  0  0  0  0  0  0
    8.4552   -1.2118    0.4763 C   0  0  0  0  0  0  0  0  0  0  0  0
    7.4907   -1.0535   -0.6655 C   0  0  0  0  0  0  0  0  0  0  0  0
    6.9519   -2.3755   -1.1554 C   0  0  0  0  0  0  0  0  0  0  0  0
    6.2055   -3.1172   -0.0674 C   0  0  0  0  0  0  0  0  0  0  0  0
    5.0176   -2.3139    0.4321 C   0  0  0  0  0  0  0  0  0  0  0  0
    4.0363   -2.0200   -0.6414 C   0  0  0  0  0  0  0  0  0  0  0  0
    2.9050   -1.2218   -0.0638 C   0  0  0  0  0  0  0  0  0  0  0  0
    2.8615   -0.8793    1.1425 O   0  0  0  0  0  0  0  0  0  0  0  0
    1.8777   -0.8683   -0.9491 N   0  0  0  0  0  0  0  0  0  0  0  0
    0.6838   -0.0708   -0.5109 C   0  0  2  0  0  0  0  0  0  0  0  0
   -0.3667   -1.1259   -0.5703 C   0  0  0  0  0  0  0  0  0  0  0  0
    0.0871   -2.3208   -0.4560 O   0  0  0  0  0  0  0  0  0  0  0  0
   -1.7344   -0.9928   -0.7347 N   0  0  0  0  0  0  0  0  0  0  0  0
   -2.5662   -2.2027   -0.7330 C   0  0  1  0  0  0  0  0  0  0  0  0
   -3.7598   -1.9435    0.0733 C   0  0  0  0  0  0  0  0  0  0  0  0
   -4.6137   -2.8632    0.3361 O   0  0  0  0  0  0  0  0  0  0  0  0
   -4.0539   -0.6757    0.6087 N   0  0  0  0  0  0  0  0  0  0  0  0
   -5.2893   -0.4271    1.4127 C   0  0  2  0  0  0  0  0  0  0  0  0
   -6.1357    0.3522    0.4393 C   0  0  0  0  0  0  0  0  0  0  0  0
   -5.5524    0.6193   -0.6609 O   0  0  0  0  0  0  0  0  0  0  0  0
   -7.4632    0.7477    0.7242 N   0  0  0  0  0  0  0  0  0  0  0  0
   -8.1498    1.5044   -0.3585 C   0  0  2  0  0  0  0  0  0  0  0  0
   -8.3643    2.8830    0.0824 C   0  0  0  0  0  0  0  0  0  0  0  0
   -8.8028    3.8233   -0.6223 O   0  0  0  0  0  0  0  0  0  0  0  0
   -8.0556    3.2434    1.4500 N   0  0  0  0  0  0  0  0  0  0  0  0
   -9.4114    0.7916   -0.6718 C   0  0  0  0  0  0  0  0  0  0  0  0
  -10.2308    1.3907   -1.7090 C   0  0  0  0  0  0  0  0  0  0  0  0
  -10.1002    1.0572   -3.0680 C   0  0  0  0  0  0  0  0  0  0  0  0
  -10.9530    1.7999   -3.7986 N   0  0  0  0  0  0  0  0  0  0  0  0
  -11.6454    2.6120   -2.9898 C   0  0  0  0  0  0  0  0  0  0  0  0
  -11.2063    2.3665   -1.6914 C   0  0  0  0  0  0  0  0  0  0  0  0
  -11.7939    3.0760   -0.6725 C   0  0  0  0  0  0  0  0  0  0  0  0
  -12.7777    3.9947   -0.9338 C   0  0  0  0  0  0  0  0  0  0  0  0
  -13.2085    4.2365   -2.2206 C   0  0  0  0  0  0  0  0  0  0  0  0
  -12.6324    3.5336   -3.2616 C   0  0  0  0  0  0  0  0  0  0  0  0
   -4.9396    0.3222    2.6374 C   0  0  0  0  0  0  0  0  0  0  0  0
   -6.0399    0.6797    3.5757 C   0  0  0  0  0  0  0  0  0  0  0  0
   -6.8298   -0.4809    4.1079 C   0  0  0  0  0  0  0  0  0  0  0  0
   -7.8384    0.0769    4.9987 N   0  0  0  0  0  0  0  0  0  0  0  0
   -9.1048   -0.1854    4.8842 C   0  0  0  0  0  0  0  0  0  0  0  0
   -9.9922    0.4197    5.8168 N   0  0  0  0  0  0  0  0  0  0  0  0
   -9.6164   -1.0457    3.8690 N   0  0  0  0  0  0  0  0  0  0  0  0
   -2.9714   -2.5297   -2.1586 C   0  0  0  0  0  0  0  0  0  0  0  0
   -3.8003   -3.7409   -2.1714 C   0  0  0  0  0  0  0  0  0  0  0  0
   -5.1784   -3.7616   -2.1534 C   0  0  0  0  0  0  0  0  0  0  0  0
   -5.8577   -4.9463   -2.1640 C   0  0  0  0  0  0  0  0  0  0  0  0
   -5.2024   -6.1451   -2.1922 C   0  0  0  0  0  0  0  0  0  0  0  0
   -3.8195   -6.1697   -2.2109 C   0  0  0  0  0  0  0  0  0  0  0  0
   -3.1205   -4.9648   -2.2006 C   0  0  0  0  0  0  0  0  0  0  0  0
    0.5053    1.1120   -1.3577 C   0  0  0  0  0  0  0  0  0  0  0  0
   -0.5572    2.0706   -0.9861 C   0  0  0  0  0  0  0  0  0  0  0  0
   -1.4193    2.1322    0.0289 N   0  0  0  0  0  0  0  0  0  0  0  0
   -2.2020    3.2135   -0.0754 C   0  0  0  0  0  0  0  0  0  0  0  0
   -1.8319    3.8635   -1.1866 N   0  0  0  0  0  0  0  0  0  0  0  0
   -0.8284    3.1933   -1.7690 C   0  0  0  0  0  0  0  0  0  0  0  0
   13.6223    4.5260   -0.5101 H   0  0  0  0  0  0  0  0  0  0  0  0
   14.8858    5.2672   -1.4995 H   0  0  0  0  0  0  0  0  0  0  0  0
   13.5759    4.2690   -2.2967 H   0  0  0  0  0  0  0  0  0  0  0  0
   15.5474    3.2071   -0.2583 H   0  0  0  0  0  0  0  0  0  0  0  0
   15.7118    2.9441   -2.0841 H   0  0  0  0  0  0  0  0  0  0  0  0
   13.4159    2.3085   -0.2340 H   0  0  0  0  0  0  0  0  0  0  0  0
   13.4261    1.8992   -2.0195 H   0  0  0  0  0  0  0  0  0  0  0  0
   15.4903    0.5870   -1.7638 H   0  0  0  0  0  0  0  0  0  0  0  0
   15.4466    0.7971    0.0146 H   0  0  0  0  0  0  0  0  0  0  0  0
   13.4719   -0.8198   -1.7472 H   0  0  0  0  0  0  0  0  0  0  0  0
   14.7983   -1.4331   -0.7742 H   0  0  0  0  0  0  0  0  0  0  0  0
   12.8394   -1.9565    0.2902 H   0  0  0  0  0  0  0  0  0  0  0  0
   13.6997   -0.7408    1.3048 H   0  0  0  0  0  0  0  0  0  0  0  0
   11.2904    0.1886   -0.3548 H   0  0  0  0  0  0  0  0  0  0  0  0
   12.2397    0.9768    0.9549 H   0  0  0  0  0  0  0  0  0  0  0  0
   10.9943   -1.6739    1.4716 H   0  0  0  0  0  0  0  0  0  0  0  0
   11.8150   -0.5547    2.5653 H   0  0  0  0  0  0  0  0  0  0  0  0
    9.4113   -0.3422    2.8990 H   0  0  0  0  0  0  0  0  0  0  0  0
   10.1860    1.1845    2.2596 H   0  0  0  0  0  0  0  0  0  0  0  0
    9.3563    0.6512   -0.0024 H   0  0  0  0  0  0  0  0  0  0  0  0
    7.9903    0.7484    1.1232 H   0  0  0  0  0  0  0  0  0  0  0  0
    9.3574   -1.7659    0.2211 H   0  0  0  0  0  0  0  0  0  0  0  0
    7.8783   -1.5975    1.3399 H   0  0  0  0  0  0  0  0  0  0  0  0
    8.0055   -0.5536   -1.5073 H   0  0  0  0  0  0  0  0  0  0  0  0
    6.6702   -0.3938   -0.3281 H   0  0  0  0  0  0  0  0  0  0  0  0
    6.3321   -2.1693   -2.0317 H   0  0  0  0  0  0  0  0  0  0  0  0
    7.8060   -3.0060   -1.4691 H   0  0  0  0  0  0  0  0  0  0  0  0
    5.8255   -4.0925   -0.4085 H   0  0  0  0  0  0  0  0  0  0  0  0
    6.8620   -3.2956    0.8055 H   0  0  0  0  0  0  0  0  0  0  0  0
    4.5405   -2.9660    1.2150 H   0  0  0  0  0  0  0  0  0  0  0  0
    5.4069   -1.4172    0.9450 H   0  0  0  0  0  0  0  0  0  0  0  0
    3.5661   -2.9599   -0.9934 H   0  0  0  0  0  0  0  0  0  0  0  0
    4.4604   -1.5358   -1.5337 H   0  0  0  0  0  0  0  0  0  0  0  0
    1.8440   -1.1159   -1.9579 H   0  0  0  0  0  0  0  0  0  0  0  0
    0.7830    0.2175    0.5529 H   0  0  0  0  0  0  0  0  0  0  0  0
   -2.2045   -0.1085   -0.8927 H   0  0  0  0  0  0  0  0  0  0  0  0
   -2.0024   -3.0650   -0.3797 H   0  0  0  0  0  0  0  0  0  0  0  0
   -3.4690    0.1740    0.5098 H   0  0  0  0  0  0  0  0  0  0  0  0
   -5.7785   -1.3693    1.6374 H   0  0  0  0  0  0  0  0  0  0  0  0
   -7.9446    0.5274    1.6150 H   0  0  0  0  0  0  0  0  0  0  0  0
   -7.4390    1.5367   -1.2211 H   0  0  0  0  0  0  0  0  0  0  0  0
   -7.3151    3.9129    1.6836 H   0  0  0  0  0  0  0  0  0  0  0  0
   -8.6362    2.7731    2.1935 H   0  0  0  0  0  0  0  0  0  0  0  0
   -9.9830    0.7505    0.3202 H   0  0  0  0  0  0  0  0  0  0  0  0
   -9.2539   -0.3008   -0.8894 H   0  0  0  0  0  0  0  0  0  0  0  0
   -9.4134    0.3109   -3.4783 H   0  0  0  0  0  0  0  0  0  0  0  0
  -11.0149    1.7065   -4.8534 H   0  0  0  0  0  0  0  0  0  0  0  0
  -11.4250    2.8552    0.3344 H   0  0  0  0  0  0  0  0  0  0  0  0
  -13.2180    4.5312   -0.1077 H   0  0  0  0  0  0  0  0  0  0  0  0
  -13.9843    4.9664   -2.3915 H   0  0  0  0  0  0  0  0  0  0  0  0
  -12.9415    3.6898   -4.2901 H   0  0  0  0  0  0  0  0  0  0  0  0
   -4.1102   -0.1418    3.2200 H   0  0  0  0  0  0  0  0  0  0  0  0
   -4.4979    1.3070    2.2984 H   0  0  0  0  0  0  0  0  0  0  0  0
   -6.6702    1.5170    3.2636 H   0  0  0  0  0  0  0  0  0  0  0  0
   -5.4997    1.0992    4.4970 H   0  0  0  0  0  0  0  0  0  0  0  0
   -7.2737   -1.1082    3.3061 H   0  0  0  0  0  0  0  0  0  0  0  0
   -6.1815   -1.1525    4.7011 H   0  0  0  0  0  0  0  0  0  0  0  0
  -10.4628    1.3098    5.4768 H   0  0  0  0  0  0  0  0  0  0  0  0
  -10.1779    0.0258    6.7737 H   0  0  0  0  0  0  0  0  0  0  0  0
   -9.0911   -1.9619    3.7427 H   0  0  0  0  0  0  0  0  0  0  0  0
  -10.4431   -0.8240    3.2790 H   0  0  0  0  0  0  0  0  0  0  0  0
   -3.5728   -1.6596   -2.5268 H   0  0  0  0  0  0  0  0  0  0  0  0
   -2.0877   -2.5969   -2.8273 H   0  0  0  0  0  0  0  0  0  0  0  0
   -5.7207   -2.8290   -2.1385 H   0  0  0  0  0  0  0  0  0  0  0  0
   -6.9409   -4.9605   -2.1512 H   0  0  0  0  0  0  0  0  0  0  0  0
   -5.7640   -7.0872   -2.2021 H   0  0  0  0  0  0  0  0  0  0  0  0
   -3.2389   -7.0837   -2.2347 H   0  0  0  0  0  0  0  0  0  0  0  0
   -2.0458   -4.9942   -2.2162 H   0  0  0  0  0  0  0  0  0  0  0  0
    1.4669    1.7161   -1.2737 H   0  0  0  0  0  0  0  0  0  0  0  0
    0.4731    0.8830   -2.4588 H   0  0  0  0  0  0  0  0  0  0  0  0
   -1.4625    1.4256    0.7937 H   0  0  0  0  0  0  0  0  0  0  0  0
   -2.9804    3.4604    0.6532 H   0  0  0  0  0  0  0  0  0  0  0  0
   -0.3597    3.5195   -2.6799 H   0  0  0  0  0  0  0  0  0  0  0  0
  1  2  1  0
  2  3  1  0
  3  4  1  0
  4  5  1  0
  5  6  1  0
  6  7  1  0
  7  8  1  0
  8  9  1  0
  9 10  1  0
 10 11  1  0
 11 12  1  0
 12 13  1  0
 13 14  1  0
 14 15  1  0
 15 16  1  0
 16 17  1  0
 17 18  2  0
 17 19  1  0
 19 20  1  0
 20 21  1  0
 21 22  2  0
 21 23  1  0
 23 24  1  0
 24 25  1  0
 25 26  2  0
 25 27  1  0
 27 28  1  0
 28 29  1  0
 29 30  2  0
 29 31  1  0
 31 32  1  0
 32 33  1  0
 33 34  2  0
 33 35  1  0
 32 36  1  0
 36 37  1  0
 37 38  2  0
 38 39  1  0
 39 40  1  0
 40 41  2  0
 41 42  1  0
 42 43  2  0
 43 44  1  0
 44 45  2  0
 28 46  1  0
 46 47  1  0
 47 48  1  0
 48 49  1  0
 49 50  2  3
 50 51  1  0
 50 52  1  0
 24 53  1  0
 53 54  1  0
 54 55  2  0
 55 56  1  0
 56 57  2  0
 57 58  1  0
 58 59  2  0
 20 60  1  0
 60 61  1  0
 61 62  1  0
 62 63  1  0
 63 64  2  0
 64 65  1  0
 41 37  1  0
 59 54  1  0
 65 61  2  0
 45 40  1  0
  1 66  1  0
  1 67  1  0
  1 68  1  0
  2 69  1  0
  2 70  1  0
  3 71  1  0
  3 72  1  0
  4 73  1  0
  4 74  1  0
  5 75  1  0
  5 76  1  0
  6 77  1  0
  6 78  1  0
  7 79  1  0
  7 80  1  0
  8 81  1  0
  8 82  1  0
  9 83  1  0
  9 84  1  0
 10 85  1  0
 10 86  1  0
 11 87  1  0
 11 88  1  0
 12 89  1  0
 12 90  1  0
 13 91  1  0
 13 92  1  0
 14 93  1  0
 14 94  1  0
 15 95  1  0
 15 96  1  0
 16 97  1  0
 16 98  1  0
 19 99  1  0
 20100  1  1
 23101  1  0
 24102  1  1
 27103  1  0
 28104  1  1
 31105  1  0
 32106  1  6
 35107  1  0
 35108  1  0
 36109  1  0
 36110  1  0
 38111  1  0
 39112  1  0
 42113  1  0
 43114  1  0
 44115  1  0
 45116  1  0
 46117  1  0
 46118  1  0
 47119  1  0
 47120  1  0
 48121  1  0
 48122  1  0
 51123  1  0
 51124  1  0
 52125  1  0
 52126  1  0
 53127  1  0
 53128  1  0
 55129  1  0
 56130  1  0
 57131  1  0
 58132  1  0
 59133  1  0
 60134  1  0
 60135  1  0
 62136  1  0
 63137  1  0
 65138  1  0
M  END
>  <Ligand ID>  (1) 
LIG0001890

>  <Ligand>  (1) 
CHEMBL191304

>  <SMILES>  (1) 
CCCCCCCCCCCCCCCCC(=O)N[C@H](C(=O)N[C@@H](C(=O)N[C@H](C(=O)N[C@H](C(=O)N)Cc1c[nH]c2c1cccc2)CCCN=C(N)N)Cc1ccccc1)Cc1[nH]cnc1

>  <CID>  (1) 
11263053.0

>  <ChEMBL ID>  (1) 
nan

>  <InChiKey>  (1) 
CYIRWWLUWGUZJP-HPYHLGIWSA-N

>  <InChi>  (1) 
InChI=1S/C49H73N11O5/c1-2-3-4-5-6-7-8-9-10-11-12-13-14-18-27-44(61)57-43(31-37-33-53-34-56-37)48(65)60-42(29-35-22-16-15-17-23-35)47(64)58-40(26-21-28-54-49(51)52)46(63)59-41(45(50)62)30-36-32-55-39-25-20-19-24-38(36)39/h15-17,19-20,22-25,32-34,40-43,55H,2-14,18,21,26-31H2,1H3,(H2,50,62)(H,53,56)(H,57,61)(H,58,64)(H,59,63)(H,60,65)(H4,51,52,54)/t40-,41-,42+,43-/m0/s1

>  <IUPAC Name>  (1) 
N-[(2S)-1-[[(2R)-1-[[(2S)-1-[[(2S)-1-amino-3-(1H-indol-3-yl)-1-oxopropan-2-yl]amino]-5-(diaminomethylideneamino)-1-oxopentan-2-yl]amino]-1-oxo-3-phenylpropan-2-yl]amino]-3-(1H-imidazol-5-yl)-1-oxopropan-2-yl]heptadecanamide

$$$$
