
     RDKit          3D

 48 50  0  0  0  0  0  0  0  0999 V2000
   -5.1734    0.1083    1.3410 C   0  0  0  0  0  0  0  0  0  0  0  0
   -4.5230    0.4351    0.0217 C   0  0  2  0  0  0  0  0  0  0  0  0
   -5.3907   -0.1819   -1.0489 C   0  0  0  0  0  0  0  0  0  0  0  0
   -5.1088   -1.5757   -1.2590 N   0  0  0  0  0  0  0  0  0  0  0  0
   -3.7650   -1.7285   -1.7153 C   0  0  0  0  0  0  0  0  0  0  0  0
   -2.7469   -1.1883   -0.7767 C   0  0  0  0  0  0  0  0  0  0  0  0
   -3.1626    0.0121   -0.0633 N   0  0  0  0  0  0  0  0  0  0  0  0
   -2.1516    0.7871    0.5728 C   0  0  0  0  0  0  0  0  0  0  0  0
   -2.4253    1.9452    1.2792 C   0  0  0  0  0  0  0  0  0  0  0  0
   -1.4431    2.6935    1.8941 C   0  0  0  0  0  0  0  0  0  0  0  0
   -0.1279    2.2668    1.7999 C   0  0  0  0  0  0  0  0  0  0  0  0
    0.7903    2.9407    2.3583 O   0  0  0  0  0  0  0  0  0  0  0  0
    0.1212    1.1390    1.1095 N   0  0  0  0  0  0  0  0  0  0  0  0
   -0.8392    0.4311    0.5235 N   0  0  0  0  0  0  0  0  0  0  0  0
    1.5124    0.7114    1.0250 C   0  0  0  0  0  0  0  0  0  0  0  0
    2.2155    1.2816   -0.1572 C   0  0  0  0  0  0  0  0  0  0  0  0
    3.5337    0.8804   -0.2421 O   0  0  0  0  0  0  0  0  0  0  0  0
    4.1658   -0.2881   -0.4057 C   0  0  0  0  0  0  0  0  0  0  0  0
    3.6177   -1.5364   -0.5681 C   0  0  0  0  0  0  0  0  0  0  0  0
    4.3716   -2.6888   -0.7327 C   0  0  0  0  0  0  0  0  0  0  0  0
    5.7390   -2.6075   -0.7384 C   0  0  0  0  0  0  0  0  0  0  0  0
    6.3243   -1.3933   -0.5817 C   0  0  0  0  0  0  0  0  0  0  0  0
    5.5758   -0.2547   -0.4187 C   0  0  0  0  0  0  0  0  0  0  0  0
    6.2689    1.0564   -0.2504 C   0  0  0  0  0  0  0  0  0  0  0  0
    5.8576    1.5296    0.9920 F   0  0  0  0  0  0  0  0  0  0  0  0
    5.8958    1.9315   -1.2532 F   0  0  0  0  0  0  0  0  0  0  0  0
    7.6272    0.8589   -0.2072 F   0  0  0  0  0  0  0  0  0  0  0  0
   -5.4547   -0.9621    1.4178 H   0  0  0  0  0  0  0  0  0  0  0  0
   -6.1380    0.6752    1.3788 H   0  0  0  0  0  0  0  0  0  0  0  0
   -4.5989    0.3763    2.2255 H   0  0  0  0  0  0  0  0  0  0  0  0
   -4.6005    1.5316   -0.1304 H   0  0  0  0  0  0  0  0  0  0  0  0
   -6.4607   -0.0675   -0.7680 H   0  0  0  0  0  0  0  0  0  0  0  0
   -5.2778    0.3296   -2.0313 H   0  0  0  0  0  0  0  0  0  0  0  0
   -5.2744   -2.1656   -0.4183 H   0  0  0  0  0  0  0  0  0  0  0  0
   -3.6178   -1.2736   -2.7173 H   0  0  0  0  0  0  0  0  0  0  0  0
   -3.5628   -2.8310   -1.8271 H   0  0  0  0  0  0  0  0  0  0  0  0
   -2.4503   -1.9257    0.0150 H   0  0  0  0  0  0  0  0  0  0  0  0
   -1.7892   -0.9220   -1.2995 H   0  0  0  0  0  0  0  0  0  0  0  0
   -3.4447    2.2962    1.3653 H   0  0  0  0  0  0  0  0  0  0  0  0
   -1.6627    3.6001    2.4464 H   0  0  0  0  0  0  0  0  0  0  0  0
    2.0434    1.0027    1.9793 H   0  0  0  0  0  0  0  0  0  0  0  0
    1.5525   -0.3813    1.0034 H   0  0  0  0  0  0  0  0  0  0  0  0
    1.7169    0.9414   -1.1199 H   0  0  0  0  0  0  0  0  0  0  0  0
    2.1295    2.3937   -0.2173 H   0  0  0  0  0  0  0  0  0  0  0  0
    2.5503   -1.6698   -0.5893 H   0  0  0  0  0  0  0  0  0  0  0  0
    3.8936   -3.6597   -0.8579 H   0  0  0  0  0  0  0  0  0  0  0  0
    6.2903   -3.5218   -0.8685 H   0  0  0  0  0  0  0  0  0  0  0  0
    7.3970   -1.3322   -0.5868 H   0  0  0  0  0  0  0  0  0  0  0  0
  1  2  1  0
  2  3  1  0
  3  4  1  0
  4  5  1  0
  5  6  1  0
  6  7  1  0
  7  8  1  0
  8  9  1  0
  9 10  2  0
 10 11  1  0
 11 12  2  0
 11 13  1  0
 13 14  1  0
 13 15  1  0
 15 16  1  0
 16 17  1  0
 17 18  1  0
 18 19  2  0
 19 20  1  0
 20 21  2  0
 21 22  1  0
 22 23  2  0
 23 24  1  0
 24 25  1  0
 24 26  1  0
 24 27  1  0
  7  2  1  0
 14  8  2  0
 23 18  1  0
  1 28  1  0
  1 29  1  0
  1 30  1  0
  2 31  1  6
  3 32  1  0
  3 33  1  0
  4 34  1  0
  5 35  1  0
  5 36  1  0
  6 37  1  0
  6 38  1  0
  9 39  1  0
 10 40  1  0
 15 41  1  0
 15 42  1  0
 16 43  1  0
 16 44  1  0
 19 45  1  0
 20 46  1  0
 21 47  1  0
 22 48  1  0
M  END
>  <Ligand ID>  (1) 
LIG0002186

>  <Ligand>  (1) 
CHEMBL570274

>  <SMILES>  (1) 
C[C@@H]1CNCCN1c1ccc(=O)n(n1)CCOc1ccccc1C(F)(F)F

>  <CID>  (1) 
44626357.0

>  <ChEMBL ID>  (1) 
nan

>  <InChiKey>  (1) 
RUBIIBKQQMGNHO-CYBMUJFWSA-N

>  <InChi>  (1) 
InChI=1S/C18H21F3N4O2/c1-13-12-22-8-9-24(13)16-6-7-17(26)25(23-16)10-11-27-15-5-3-2-4-14(15)18(19,20)21/h2-7,13,22H,8-12H2,1H3/t13-/m1/s1

>  <IUPAC Name>  (1) 
6-[(2R)-2-methylpiperazin-1-yl]-2-[2-[2-(trifluoromethyl)phenoxy]ethyl]pyridazin-3-one

$$$$
