
     RDKit          3D

 65 65  0  0  0  0  0  0  0  0999 V2000
    1.3995    0.6509    0.5084 O   0  0  0  0  0  0  0  0  0  0  0  0
    0.4800   -0.3044    0.0452 C   0  0  0  0  0  0  0  0  0  0  0  0
    0.9352   -1.4615   -0.2252 O   0  0  0  0  0  0  0  0  0  0  0  0
   -0.9479    0.0526   -0.1101 C   0  0  0  0  0  0  0  0  0  0  0  0
   -1.6204   -1.0546   -0.5742 F   0  0  0  0  0  0  0  0  0  0  0  0
   -1.1781    1.0973   -0.9566 F   0  0  0  0  0  0  0  0  0  0  0  0
   -1.4335    0.3550    1.1487 F   0  0  0  0  0  0  0  0  0  0  0  0
   -9.1748   -0.0885   -0.8364 C   0  0  0  0  0  0  0  0  0  0  0  0
   -8.9959   -0.3433    0.6448 C   0  0  0  0  0  0  0  0  0  0  0  0
   -7.5042   -0.5689    0.8986 C   0  0  0  0  0  0  0  0  0  0  0  0
   -6.8186    0.6917    0.4552 C   0  0  0  0  0  0  0  0  0  0  0  0
   -5.3475    0.5985    0.6764 C   0  0  0  0  0  0  0  0  0  0  0  0
   -4.7603   -0.5289   -0.1138 C   0  0  0  0  0  0  0  0  0  0  0  0
   -3.2739   -0.5999    0.1350 C   0  0  0  0  0  0  0  0  0  0  0  0
   -2.6254    0.6594   -0.2867 C   0  0  0  0  0  0  0  0  0  0  0  0
   -1.1341    0.6373   -0.0933 C   0  0  0  0  0  0  0  0  0  0  0  0
   -0.5434    1.0561    1.0825 C   0  0  0  0  0  0  0  0  0  0  0  0
    0.8421    1.0211    1.2249 C   0  0  0  0  0  0  0  0  0  0  0  0
    1.6507    0.5626    0.1815 C   0  0  0  0  0  0  0  0  0  0  0  0
    1.0275    0.1536   -0.9746 C   0  0  0  0  0  0  0  0  0  0  0  0
   -0.3411    0.1762   -1.1462 C   0  0  0  0  0  0  0  0  0  0  0  0
    3.0919    0.5113    0.2914 C   0  0  0  0  0  0  0  0  0  0  0  0
    3.8622    0.8807    1.3708 C   0  0  0  0  0  0  0  0  0  0  0  0
    5.1661    0.6699    1.0475 N   0  0  0  0  0  0  0  0  0  0  0  0
    5.2255    0.1798   -0.2028 C   0  0  0  0  0  0  0  0  0  0  0  0
    3.9630    0.0864   -0.6548 N   0  0  0  0  0  0  0  0  0  0  0  0
    6.4204   -0.2110   -1.0071 C   0  0  1  0  0  0  0  0  0  0  0  0
    7.6047   -0.2503   -0.0830 C   0  0  0  0  0  0  0  0  0  0  0  0
    8.7234   -0.5314   -0.8767 O   0  0  0  0  0  0  0  0  0  0  0  0
   10.0769   -0.5832    0.1343 P   0  0  0  0  0  0  0  0  0  0  0  0
   11.3011   -0.0505   -0.5861 O   0  0  0  0  0  0  0  0  0  0  0  0
   10.3760   -2.1630    0.6063 O   0  0  0  0  0  0  0  0  0  0  0  0
    9.7440    0.3664    1.5056 O   0  0  0  0  0  0  0  0  0  0  0  0
    6.2460   -1.4698   -1.6789 N   0  0  0  0  0  0  0  0  0  0  0  0
    2.3653    0.6648    0.1637 H   0  0  0  0  0  0  0  0  0  0  0  0
   -9.1440    1.0084   -1.0486 H   0  0  0  0  0  0  0  0  0  0  0  0
   -8.3825   -0.5565   -1.4545 H   0  0  0  0  0  0  0  0  0  0  0  0
  -10.1793   -0.4207   -1.1363 H   0  0  0  0  0  0  0  0  0  0  0  0
   -9.5368   -1.2367    0.9937 H   0  0  0  0  0  0  0  0  0  0  0  0
   -9.2511    0.5912    1.1811 H   0  0  0  0  0  0  0  0  0  0  0  0
   -7.4268   -0.7356    1.9896 H   0  0  0  0  0  0  0  0  0  0  0  0
   -7.1741   -1.4866    0.4159 H   0  0  0  0  0  0  0  0  0  0  0  0
   -7.2141    1.5906    0.9771 H   0  0  0  0  0  0  0  0  0  0  0  0
   -6.9629    0.8663   -0.6511 H   0  0  0  0  0  0  0  0  0  0  0  0
   -4.8952    1.5819    0.4191 H   0  0  0  0  0  0  0  0  0  0  0  0
   -5.0888    0.4223    1.7435 H   0  0  0  0  0  0  0  0  0  0  0  0
   -5.2561   -1.4910    0.1346 H   0  0  0  0  0  0  0  0  0  0  0  0
   -4.8750   -0.2766   -1.1944 H   0  0  0  0  0  0  0  0  0  0  0  0
   -2.8255   -1.5173   -0.2955 H   0  0  0  0  0  0  0  0  0  0  0  0
   -3.1802   -0.7574    1.2506 H   0  0  0  0  0  0  0  0  0  0  0  0
   -2.7903    0.9135   -1.3494 H   0  0  0  0  0  0  0  0  0  0  0  0
   -2.9567    1.4856    0.4087 H   0  0  0  0  0  0  0  0  0  0  0  0
   -1.1802    1.4163    1.9020 H   0  0  0  0  0  0  0  0  0  0  0  0
    1.2996    1.3536    2.1565 H   0  0  0  0  0  0  0  0  0  0  0  0
    1.6065   -0.2162   -1.8285 H   0  0  0  0  0  0  0  0  0  0  0  0
   -0.8002   -0.1572   -2.0804 H   0  0  0  0  0  0  0  0  0  0  0  0
    3.5329    1.2727    2.3234 H   0  0  0  0  0  0  0  0  0  0  0  0
    3.6318   -0.2536   -1.5850 H   0  0  0  0  0  0  0  0  0  0  0  0
    6.5617    0.5778   -1.7742 H   0  0  0  0  0  0  0  0  0  0  0  0
    7.4593   -1.0342    0.6866 H   0  0  0  0  0  0  0  0  0  0  0  0
    7.7432    0.7433    0.3884 H   0  0  0  0  0  0  0  0  0  0  0  0
   11.2166   -2.4949    0.2276 H   0  0  0  0  0  0  0  0  0  0  0  0
    9.8797    1.3323    1.3406 H   0  0  0  0  0  0  0  0  0  0  0  0
    5.8190   -1.3163   -2.6201 H   0  0  0  0  0  0  0  0  0  0  0  0
    5.5670   -2.0672   -1.1546 H   0  0  0  0  0  0  0  0  0  0  0  0
  1  2  1  0
  2  3  2  0
  2  4  1  0
  4  5  1  0
  4  6  1  0
  4  7  1  0
  8  9  1  0
  9 10  1  0
 10 11  1  0
 11 12  1  0
 12 13  1  0
 13 14  1  0
 14 15  1  0
 15 16  1  0
 16 17  2  0
 17 18  1  0
 18 19  2  0
 19 20  1  0
 20 21  2  0
 19 22  1  0
 22 23  2  0
 23 24  1  0
 24 25  2  0
 25 26  1  0
 25 27  1  0
 27 28  1  0
 28 29  1  0
 29 30  1  0
 30 31  2  0
 30 32  1  0
 30 33  1  0
 27 34  1  0
 21 16  1  0
 26 22  1  0
  1 35  1  0
  8 36  1  0
  8 37  1  0
  8 38  1  0
  9 39  1  0
  9 40  1  0
 10 41  1  0
 10 42  1  0
 11 43  1  0
 11 44  1  0
 12 45  1  0
 12 46  1  0
 13 47  1  0
 13 48  1  0
 14 49  1  0
 14 50  1  0
 15 51  1  0
 15 52  1  0
 17 53  1  0
 18 54  1  0
 20 55  1  0
 21 56  1  0
 23 57  1  0
 26 58  1  0
 27 59  1  6
 28 60  1  0
 28 61  1  0
 32 62  1  0
 33 63  1  0
 34 64  1  0
 34 65  1  0
M  END
>  <Ligand ID>  (1) 
LIG0004238

>  <Ligand>  (1) 
CHEMBL187712

>  <SMILES>  (1) 
OC(=O)C(F)(F)F.CCCCCCCCc1ccc(cc1)c1cnc([nH]1)[C@@H](COP(=O)(O)O)N

>  <CID>  (1) 
44398057.0

>  <ChEMBL ID>  (1) 
nan

>  <InChiKey>  (1) 
ZCSCDRUDJGGNKN-UNTBIKODSA-N

>  <InChi>  (1) 
InChI=1S/C19H30N3O4P.C2HF3O2/c1-2-3-4-5-6-7-8-15-9-11-16(12-10-15)18-13-21-19(22-18)17(20)14-26-27(23,24)25;3-2(4,5)1(6)7/h9-13,17H,2-8,14,20H2,1H3,(H,21,22)(H2,23,24,25);(H,6,7)/t17-;/m1./s1

>  <IUPAC Name>  (1) 
[(2S)-2-amino-2-[5-(4-octylphenyl)-1H-imidazol-2-yl]ethyl] dihydrogen phosphate;2,2,2-trifluoroacetic acid

$$$$
