
     RDKit          3D

 18 17  0  0  0  0  0  0  0  0999 V2000
    2.8436    0.8018   -0.6861 C   0  0  0  0  0  0  0  0  0  0  0  0
    2.4419   -0.3785   -1.1371 C   0  0  0  0  0  0  0  0  0  0  0  0
    1.5649   -1.2904   -0.3270 C   0  0  0  0  0  0  0  0  0  0  0  0
    1.2391   -0.4357    1.2598 S   0  0  0  0  0  0  0  0  0  0  0  0
    0.0588    1.2751    0.7897 S   0  0  0  0  0  0  0  0  0  0  0  0
   -1.6590    0.8127    0.8824 C   0  0  0  0  0  0  0  0  0  0  0  0
   -2.1050   -0.1682   -0.1258 C   0  0  0  0  0  0  0  0  0  0  0  0
   -3.0609    0.0630   -1.0265 C   0  0  0  0  0  0  0  0  0  0  0  0
    2.5636    1.1758    0.2899 H   0  0  0  0  0  0  0  0  0  0  0  0
    3.4762    1.4093   -1.3158 H   0  0  0  0  0  0  0  0  0  0  0  0
    2.7272   -0.7444   -2.1186 H   0  0  0  0  0  0  0  0  0  0  0  0
    2.0319   -2.2726   -0.1305 H   0  0  0  0  0  0  0  0  0  0  0  0
    0.6131   -1.5068   -0.8706 H   0  0  0  0  0  0  0  0  0  0  0  0
   -1.8477    0.3297    1.8863 H   0  0  0  0  0  0  0  0  0  0  0  0
   -2.2818    1.7371    0.7817 H   0  0  0  0  0  0  0  0  0  0  0  0
   -1.6417   -1.1499   -0.1525 H   0  0  0  0  0  0  0  0  0  0  0  0
   -3.3727   -0.6779   -1.7598 H   0  0  0  0  0  0  0  0  0  0  0  0
   -3.5915    1.0200   -1.0772 H   0  0  0  0  0  0  0  0  0  0  0  0
  1  2  2  0
  2  3  1  0
  3  4  1  0
  4  5  1  0
  5  6  1  0
  6  7  1  0
  7  8  2  0
  1  9  1  0
  1 10  1  0
  2 11  1  0
  3 12  1  0
  3 13  1  0
  6 14  1  0
  6 15  1  0
  7 16  1  0
  8 17  1  0
  8 18  1  0
M  END
>  <Ligand ID>  (1) 
LIG0000326

>  <Ligand>  (1) 
Diallyl disulfide

>  <SMILES>  (1) 
C=CCSSCC=C

>  <CID>  (1) 
16590.0

>  <ChEMBL ID>  (1) 
nan

>  <InChiKey>  (1) 
PFRGXCVKLLPLIP-UHFFFAOYSA-N

>  <InChi>  (1) 
InChI=1S/C6H10S2/c1-3-5-7-8-6-4-2/h3-4H,1-2,5-6H2

>  <IUPAC Name>  (1) 
3-(prop-2-enyldisulfanyl)prop-1-ene

$$$$
