
     RDKit          3D

 53 56  0  0  0  0  0  0  0  0999 V2000
    9.3589   -0.8585   -2.3774 Cl  0  0  0  0  0  0  0  0  0  0  0  0
    8.0475   -0.3976   -1.2915 C   0  0  0  0  0  0  0  0  0  0  0  0
    7.1909   -1.3354   -0.7807 C   0  0  0  0  0  0  0  0  0  0  0  0
    6.1918   -0.8933    0.0611 C   0  0  0  0  0  0  0  0  0  0  0  0
    6.0189    0.4299    0.4066 C   0  0  0  0  0  0  0  0  0  0  0  0
    6.9051    1.3554   -0.1289 C   0  0  0  0  0  0  0  0  0  0  0  0
    7.9154    0.9418   -0.9749 C   0  0  0  0  0  0  0  0  0  0  0  0
    4.7557    0.9924    1.4716 S   0  0  0  0  0  0  0  0  0  0  0  0
    4.5010   -0.1269    2.4356 O   0  0  0  0  0  0  0  0  0  0  0  0
    5.3810    2.1195    2.2780 O   0  0  0  0  0  0  0  0  0  0  0  0
    3.3825    1.5528    0.6754 N   0  0  0  0  0  0  0  0  0  0  0  0
    2.5230    0.8486   -0.1711 C   0  0  0  0  0  0  0  0  0  0  0  0
    2.8771    0.0448   -1.2217 C   0  0  0  0  0  0  0  0  0  0  0  0
    1.9679   -0.6149   -2.0243 C   0  0  0  0  0  0  0  0  0  0  0  0
    0.6151   -0.4708   -1.7724 C   0  0  0  0  0  0  0  0  0  0  0  0
    0.2152    0.3303   -0.7235 C   0  0  0  0  0  0  0  0  0  0  0  0
    1.1485    0.9794    0.0645 C   0  0  0  0  0  0  0  0  0  0  0  0
   -1.1237    0.5256   -0.4068 O   0  0  0  0  0  0  0  0  0  0  0  0
   -1.8996   -0.5692   -0.0676 C   0  0  0  0  0  0  0  0  0  0  0  0
   -1.4067   -1.8258   -0.0316 N   0  0  0  0  0  0  0  0  0  0  0  0
   -2.1966   -2.8804    0.3060 C   0  0  0  0  0  0  0  0  0  0  0  0
   -1.6626   -4.2634    0.3479 C   0  0  0  0  0  0  0  0  0  0  0  0
   -3.5367   -2.6817    0.6225 C   0  0  0  0  0  0  0  0  0  0  0  0
   -4.0666   -1.4036    0.5932 C   0  0  0  0  0  0  0  0  0  0  0  0
   -3.2348   -0.3392    0.2436 C   0  0  0  0  0  0  0  0  0  0  0  0
   -4.0300    0.8787    0.2897 C   0  0  0  0  0  0  0  0  0  0  0  0
   -3.6082    2.0385    0.0326 O   0  0  0  0  0  0  0  0  0  0  0  0
   -5.3656    0.5612    0.6717 N   0  0  0  0  0  0  0  0  0  0  0  0
   -5.3900   -0.8505    0.8598 C   0  0  0  0  0  0  0  0  0  0  0  0
   -6.3965   -1.4958    1.1999 O   0  0  0  0  0  0  0  0  0  0  0  0
   -6.4377    1.5261    0.8211 C   0  0  0  0  0  0  0  0  0  0  0  0
   -6.6778    2.2407   -0.5066 C   0  0  0  0  0  0  0  0  0  0  0  0
   -5.9938    2.5606    1.8274 C   0  0  0  0  0  0  0  0  0  0  0  0
   -0.3299   -1.0929   -2.5248 F   0  0  0  0  0  0  0  0  0  0  0  0
    7.3045   -2.3787   -1.0356 H   0  0  0  0  0  0  0  0  0  0  0  0
    5.4995   -1.6096    0.4805 H   0  0  0  0  0  0  0  0  0  0  0  0
    6.8073    2.4019    0.1143 H   0  0  0  0  0  0  0  0  0  0  0  0
    8.6027    1.6699   -1.3886 H   0  0  0  0  0  0  0  0  0  0  0  0
    3.1138    2.5884    0.8255 H   0  0  0  0  0  0  0  0  0  0  0  0
    3.9220   -0.0823   -1.4481 H   0  0  0  0  0  0  0  0  0  0  0  0
    2.3105   -1.2307   -2.8322 H   0  0  0  0  0  0  0  0  0  0  0  0
    0.8045    1.6135    0.8961 H   0  0  0  0  0  0  0  0  0  0  0  0
   -0.5754   -4.2839    0.5020 H   0  0  0  0  0  0  0  0  0  0  0  0
   -1.9307   -4.8450   -0.5814 H   0  0  0  0  0  0  0  0  0  0  0  0
   -2.1231   -4.8157    1.1781 H   0  0  0  0  0  0  0  0  0  0  0  0
   -4.1914   -3.4835    0.8930 H   0  0  0  0  0  0  0  0  0  0  0  0
   -7.3679    1.0463    1.1204 H   0  0  0  0  0  0  0  0  0  0  0  0
   -6.7201    1.4407   -1.2904 H   0  0  0  0  0  0  0  0  0  0  0  0
   -7.6307    2.7681   -0.5236 H   0  0  0  0  0  0  0  0  0  0  0  0
   -5.8048    2.8872   -0.7320 H   0  0  0  0  0  0  0  0  0  0  0  0
   -5.2959    2.1210    2.5677 H   0  0  0  0  0  0  0  0  0  0  0  0
   -6.8577    2.9662    2.3696 H   0  0  0  0  0  0  0  0  0  0  0  0
   -5.5061    3.3998    1.2971 H   0  0  0  0  0  0  0  0  0  0  0  0
  1  2  1  0
  2  3  2  0
  3  4  1  0
  4  5  2  0
  5  6  1  0
  6  7  2  0
  5  8  1  0
  8  9  2  0
  8 10  2  0
  8 11  1  0
 11 12  1  0
 12 13  2  0
 13 14  1  0
 14 15  2  0
 15 16  1  0
 16 17  2  0
 16 18  1  0
 18 19  1  0
 19 20  2  0
 20 21  1  0
 21 22  1  0
 21 23  2  0
 23 24  1  0
 24 25  2  0
 25 26  1  0
 26 27  2  0
 26 28  1  0
 28 29  1  0
 29 30  2  0
 28 31  1  0
 31 32  1  0
 31 33  1  0
 15 34  1  0
  7  2  1  0
 17 12  1  0
 25 19  1  0
 29 24  1  0
  3 35  1  0
  4 36  1  0
  6 37  1  0
  7 38  1  0
 11 39  1  0
 13 40  1  0
 14 41  1  0
 17 42  1  0
 22 43  1  0
 22 44  1  0
 22 45  1  0
 23 46  1  0
 31 47  1  0
 32 48  1  0
 32 49  1  0
 32 50  1  0
 33 51  1  0
 33 52  1  0
 33 53  1  0
M  END
>  <Ligand ID>  (1) 
LIG0003913

>  <Ligand>  (1) 
CHEMBL3104879

>  <SMILES>  (1) 
Clc1ccc(cc1)S(=O)(=O)Nc1ccc(c(c1)Oc1nc(C)cc2c1C(=O)N(C2=O)C(C)C)F

>  <CID>  (1) 
72946092.0

>  <ChEMBL ID>  (1) 
nan

>  <InChiKey>  (1) 
ZMXPRLZLGHHSKI-UHFFFAOYSA-N

>  <InChi>  (1) 
InChI=1S/C23H19ClFN3O5S/c1-12(2)28-22(29)17-10-13(3)26-21(20(17)23(28)30)33-19-11-15(6-9-18(19)25)27-34(31,32)16-7-4-14(24)5-8-16/h4-12,27H,1-3H3

>  <IUPAC Name>  (1) 
4-chloro-N-[4-fluoro-3-(6-methyl-1,3-dioxo-2-propan-2-ylpyrrolo[3,4-c]pyridin-4-yl)oxyphenyl]benzenesulfonamide

$$$$
