
     RDKit          3D

 52 54  0  0  0  0  0  0  0  0999 V2000
   -0.5670    1.2279    0.6115 C   0  0  0  0  0  0  0  0  0  0  0  0
   -0.7822    0.1592    1.6322 C   0  0  2  0  0  0  0  0  0  0  0  0
   -0.1610   -1.1576    1.2403 C   0  0  0  0  0  0  0  0  0  0  0  0
    1.2602   -1.1252    1.0476 N   0  0  0  0  0  0  0  0  0  0  0  0
    1.9340   -0.8225   -0.1622 C   0  0  0  0  0  0  0  0  0  0  0  0
    1.2875   -0.6083   -1.3506 C   0  0  0  0  0  0  0  0  0  0  0  0
    1.9838   -0.2937   -2.4873 C   0  0  0  0  0  0  0  0  0  0  0  0
    3.3491   -0.1939   -2.4238 C   0  0  0  0  0  0  0  0  0  0  0  0
    4.0798   -0.3980   -1.2470 C   0  0  0  0  0  0  0  0  0  0  0  0
    3.3295   -0.7106   -0.1483 C   0  0  0  0  0  0  0  0  0  0  0  0
    5.5038   -0.3439   -1.3433 C   0  0  0  0  0  0  0  0  0  0  0  0
    6.2767   -0.7730   -2.9447 S   0  0  0  0  0  0  0  0  0  0  0  0
    7.9668   -0.4822   -2.3709 C   0  0  0  0  0  0  0  0  0  0  0  0
    7.8029   -0.0934   -1.0549 C   0  0  0  0  0  0  0  0  0  0  0  0
    6.5703   -0.0188   -0.5327 C   0  0  0  0  0  0  0  0  0  0  0  0
    6.3566    0.5473    0.8324 C   0  0  0  0  0  0  0  0  0  0  0  0
    5.2658    0.8510    1.2982 O   0  0  0  0  0  0  0  0  0  0  0  0
    7.4604    0.7648    1.6847 O   0  0  0  0  0  0  0  0  0  0  0  0
   -2.0513    0.0599    2.2177 N   0  0  0  0  0  0  0  0  0  0  0  0
   -3.2112   -0.2463    1.4981 C   0  0  0  0  0  0  0  0  0  0  0  0
   -3.7544    0.7536    0.5441 C   0  0  1  0  0  0  0  0  0  0  0  0
   -5.1235    0.3124    0.0821 C   0  0  0  0  0  0  0  0  0  0  0  0
   -5.5892   -0.9631    0.2183 C   0  0  0  0  0  0  0  0  0  0  0  0
   -6.8553   -1.2856   -0.2379 C   0  0  0  0  0  0  0  0  0  0  0  0
   -7.6668   -0.3192   -0.8388 C   0  0  0  0  0  0  0  0  0  0  0  0
   -7.1681    0.9593   -0.9616 C   0  0  0  0  0  0  0  0  0  0  0  0
   -5.9020    1.2976   -0.5093 C   0  0  0  0  0  0  0  0  0  0  0  0
   -8.2102    2.1629   -1.7235 Cl  0  0  0  0  0  0  0  0  0  0  0  0
   -4.0392    1.9614    1.2380 O   0  0  0  0  0  0  0  0  0  0  0  0
   -1.0002    2.2136    0.9466 H   0  0  0  0  0  0  0  0  0  0  0  0
    0.5289    1.4795    0.4896 H   0  0  0  0  0  0  0  0  0  0  0  0
   -0.9061    1.0051   -0.4085 H   0  0  0  0  0  0  0  0  0  0  0  0
   -0.1012    0.4886    2.5152 H   0  0  0  0  0  0  0  0  0  0  0  0
   -0.4043   -1.9722    1.9340 H   0  0  0  0  0  0  0  0  0  0  0  0
   -0.5821   -1.5025    0.2480 H   0  0  0  0  0  0  0  0  0  0  0  0
    1.8410   -1.3518    1.9035 H   0  0  0  0  0  0  0  0  0  0  0  0
    0.2275   -0.6983   -1.4272 H   0  0  0  0  0  0  0  0  0  0  0  0
    1.4515   -0.1258   -3.4307 H   0  0  0  0  0  0  0  0  0  0  0  0
    3.8502    0.0628   -3.3616 H   0  0  0  0  0  0  0  0  0  0  0  0
    3.7938   -0.9432    0.7777 H   0  0  0  0  0  0  0  0  0  0  0  0
    8.8349   -0.5957   -2.9432 H   0  0  0  0  0  0  0  0  0  0  0  0
    8.7373    0.1424   -0.4846 H   0  0  0  0  0  0  0  0  0  0  0  0
    7.3012    0.8185    2.6978 H   0  0  0  0  0  0  0  0  0  0  0  0
   -2.2386    0.7780    2.9251 H   0  0  0  0  0  0  0  0  0  0  0  0
   -4.0321   -0.4069    2.2582 H   0  0  0  0  0  0  0  0  0  0  0  0
   -3.1600   -1.2844    1.0196 H   0  0  0  0  0  0  0  0  0  0  0  0
   -3.1982    0.9470   -0.3651 H   0  0  0  0  0  0  0  0  0  0  0  0
   -5.0271   -1.7555    0.6687 H   0  0  0  0  0  0  0  0  0  0  0  0
   -7.2374   -2.3072   -0.1316 H   0  0  0  0  0  0  0  0  0  0  0  0
   -8.6576   -0.6072   -1.1870 H   0  0  0  0  0  0  0  0  0  0  0  0
   -5.5450    2.3228   -0.6252 H   0  0  0  0  0  0  0  0  0  0  0  0
   -3.8221    1.8237    2.1723 H   0  0  0  0  0  0  0  0  0  0  0  0
  1  2  1  0
  2  3  1  0
  3  4  1  0
  4  5  1  0
  5  6  2  0
  6  7  1  0
  7  8  2  0
  8  9  1  0
  9 10  2  0
  9 11  1  0
 11 12  1  0
 12 13  1  0
 13 14  2  0
 14 15  1  0
 15 16  1  0
 16 17  2  0
 16 18  1  0
  2 19  1  0
 19 20  1  0
 20 21  1  0
 21 22  1  0
 22 23  2  0
 23 24  1  0
 24 25  2  0
 25 26  1  0
 26 27  2  0
 26 28  1  0
 21 29  1  0
 10  5  1  0
 15 11  2  0
 27 22  1  0
  1 30  1  0
  1 31  1  0
  1 32  1  0
  2 33  1  1
  3 34  1  0
  3 35  1  0
  4 36  1  0
  6 37  1  0
  7 38  1  0
  8 39  1  0
 10 40  1  0
 13 41  1  0
 14 42  1  0
 18 43  1  0
 19 44  1  0
 20 45  1  0
 20 46  1  0
 21 47  1  6
 23 48  1  0
 24 49  1  0
 25 50  1  0
 27 51  1  0
 29 52  1  0
M  END
>  <Ligand ID>  (1) 
LIG0002253

>  <Ligand>  (1) 
CHEMBL245873

>  <SMILES>  (1) 
C[C@H](CNc1cccc(c1)c1sccc1C(=O)O)NC[C@@H](c1cccc(c1)Cl)O

>  <CID>  (1) 
23661589.0

>  <ChEMBL ID>  (1) 
nan

>  <InChiKey>  (1) 
BHSXWAJCDNDMAX-VLIAUNLRSA-N

>  <InChi>  (1) 
InChI=1S/C22H23ClN2O3S/c1-14(24-13-20(26)15-4-2-6-17(23)10-15)12-25-18-7-3-5-16(11-18)21-19(22(27)28)8-9-29-21/h2-11,14,20,24-26H,12-13H2,1H3,(H,27,28)/t14-,20+/m1/s1

>  <IUPAC Name>  (1) 
2-[3-[[(2R)-2-[[(2R)-2-(3-chlorophenyl)-2-hydroxyethyl]amino]propyl]amino]phenyl]thiophene-3-carboxylic acid

$$$$
