
     RDKit          3D

 41 41  0  0  0  0  0  0  0  0999 V2000
    2.7819   -1.1121    2.6695 O   0  0  0  0  0  0  0  0  0  0  0  0
    3.6856   -1.3363    1.6560 C   0  0  0  0  0  0  0  0  0  0  0  0
    3.2704   -0.7613    0.3234 C   0  0  0  0  0  0  0  0  0  0  0  0
    3.0839    0.7190    0.3567 C   0  0  0  0  0  0  0  0  0  0  0  0
    2.6708    1.1977   -1.0175 C   0  0  0  0  0  0  0  0  0  0  0  0
    1.4141    0.5143   -1.3344 C   0  0  0  0  0  0  0  0  0  0  0  0
    0.3717   -0.0314   -1.5854 C   0  0  0  0  0  0  0  0  0  0  0  0
   -0.8686   -0.6737   -1.9083 C   0  0  0  0  0  0  0  0  0  0  0  0
   -0.8285   -1.6240   -2.9158 C   0  0  0  0  0  0  0  0  0  0  0  0
   -1.9937   -2.2584   -3.2901 C   0  0  0  0  0  0  0  0  0  0  0  0
   -3.1755   -1.9194   -2.6387 C   0  0  0  0  0  0  0  0  0  0  0  0
   -3.1814   -0.9702   -1.6402 C   0  0  0  0  0  0  0  0  0  0  0  0
   -2.0064   -0.3133   -1.2440 C   0  0  0  0  0  0  0  0  0  0  0  0
   -2.1211    0.6545   -0.1606 C   0  0  1  0  0  0  0  0  0  0  0  0
   -2.3701   -0.0864    1.1967 C   0  0  0  0  0  0  0  0  0  0  0  0
   -1.2070    0.8590    0.9482 C   0  0  2  0  0  0  0  0  0  0  0  0
   -1.3753    2.1708    1.7348 C   0  0  0  0  0  0  0  0  0  0  0  0
   -2.6681    2.3028    2.3254 N   0  0  0  0  0  0  0  0  0  0  0  0
    0.6897    0.0000    0.0000 Cl  0  0  0  0  0  0  0  0  0  0  0  0
    3.1076   -0.3625    3.2302 H   0  0  0  0  0  0  0  0  0  0  0  0
    4.7092   -0.9629    1.9268 H   0  0  0  0  0  0  0  0  0  0  0  0
    3.8076   -2.4391    1.5005 H   0  0  0  0  0  0  0  0  0  0  0  0
    4.0843   -0.9902   -0.3929 H   0  0  0  0  0  0  0  0  0  0  0  0
    2.3378   -1.2759   -0.0021 H   0  0  0  0  0  0  0  0  0  0  0  0
    2.4394    1.1025    1.1484 H   0  0  0  0  0  0  0  0  0  0  0  0
    4.0975    1.1782    0.5378 H   0  0  0  0  0  0  0  0  0  0  0  0
    3.4668    0.9568   -1.7514 H   0  0  0  0  0  0  0  0  0  0  0  0
    2.5365    2.3103   -1.0292 H   0  0  0  0  0  0  0  0  0  0  0  0
    0.0954   -1.8784   -3.4139 H   0  0  0  0  0  0  0  0  0  0  0  0
   -1.9971   -3.0085   -4.0766 H   0  0  0  0  0  0  0  0  0  0  0  0
   -4.0631   -2.4446   -2.9684 H   0  0  0  0  0  0  0  0  0  0  0  0
   -4.1339   -0.7332   -1.1533 H   0  0  0  0  0  0  0  0  0  0  0  0
   -2.8876    1.4680   -0.3377 H   0  0  0  0  0  0  0  0  0  0  0  0
   -3.2428    0.2441    1.7867 H   0  0  0  0  0  0  0  0  0  0  0  0
   -2.0881   -1.1312    1.2815 H   0  0  0  0  0  0  0  0  0  0  0  0
   -0.1850    0.4291    0.9815 H   0  0  0  0  0  0  0  0  0  0  0  0
   -0.6403    2.1134    2.5854 H   0  0  0  0  0  0  0  0  0  0  0  0
   -1.0666    3.0473    1.1531 H   0  0  0  0  0  0  0  0  0  0  0  0
   -2.8186    1.7735    3.1876 H   0  0  0  0  0  0  0  0  0  0  0  0
   -3.0420    3.2716    2.3304 H   0  0  0  0  0  0  0  0  0  0  0  0
   -0.6897    0.0000    0.0000 H   0  0  0  0  0  0  0  0  0  0  0  0
  1  2  1  0
  2  3  1  0
  3  4  1  0
  4  5  1  0
  5  6  1  0
  6  7  3  0
  7  8  1  0
  8  9  2  0
  9 10  1  0
 10 11  2  0
 11 12  1  0
 12 13  2  0
 13 14  1  0
 14 15  1  0
 15 16  1  0
 16 17  1  0
 17 18  1  0
 13  8  1  0
 16 14  1  0
  1 20  1  0
  2 21  1  0
  2 22  1  0
  3 23  1  0
  3 24  1  0
  4 25  1  0
  4 26  1  0
  5 27  1  0
  5 28  1  0
  9 29  1  0
 10 30  1  0
 11 31  1  0
 12 32  1  0
 14 33  1  6
 15 34  1  0
 15 35  1  0
 16 36  1  6
 17 37  1  0
 17 38  1  0
 18 39  1  0
 18 40  1  0
 19 41  1  0
M  END
>  <Ligand ID>  (1) 
LIG0005677

>  <Ligand>  (1) 
CHEMBL474230

>  <SMILES>  (1) 
OCCCCC#Cc1ccccc1[C@H]1C[C@@H]1CN.Cl

>  <CID>  (1) 
44572366.0

>  <ChEMBL ID>  (1) 
nan

>  <InChiKey>  (1) 
GHMWSEXOXIGBSO-XMZRARIVSA-N

>  <InChi>  (1) 
InChI=1S/C16H21NO.ClH/c17-12-14-11-16(14)15-9-5-4-8-13(15)7-3-1-2-6-10-18;/h4-5,8-9,14,16,18H,1-2,6,10-12,17H2;1H/t14-,16+;/m1./s1

>  <IUPAC Name>  (1) 
6-[2-[(1S,2S)-2-(aminomethyl)cyclopropyl]phenyl]hex-5-yn-1-ol;hydrochloride

$$$$
