
     RDKit          3D

 26 27  0  0  0  0  0  0  0  0999 V2000
   -0.4515   -2.4458   -0.4999 N   0  0  0  0  0  0  0  0  0  0  0  0
   -0.7296   -1.4572    0.5166 C   0  0  2  0  0  0  0  0  0  0  0  0
   -1.7157   -0.4169    0.0335 C   0  0  0  0  0  0  0  0  0  0  0  0
   -0.8148    0.6911   -0.4220 C   0  0  1  0  0  0  0  0  0  0  0  0
    0.3759    0.6542    0.5100 C   0  0  1  0  0  0  0  0  0  0  0  0
    0.4803   -0.7377    1.0060 C   0  0  2  0  0  0  0  0  0  0  0  0
    1.4867   -0.2634    0.0514 C   0  0  2  0  0  0  0  0  0  0  0  0
    2.8258    0.1650    0.4672 C   0  0  0  0  0  0  0  0  0  0  0  0
    2.9831    0.6425    1.6312 O   0  0  0  0  0  0  0  0  0  0  0  0
    3.9501    0.0727   -0.3633 O   0  0  0  0  0  0  0  0  0  0  0  0
   -0.3554    0.4604   -1.7496 N   0  0  0  0  0  0  0  0  0  0  0  0
   -1.5200    1.9806   -0.2489 C   0  0  0  0  0  0  0  0  0  0  0  0
   -1.7064    2.8095   -1.1760 O   0  0  0  0  0  0  0  0  0  0  0  0
   -1.9987    2.2774    1.0216 O   0  0  0  0  0  0  0  0  0  0  0  0
    0.0951   -3.2119   -0.0315 H   0  0  0  0  0  0  0  0  0  0  0  0
   -1.3736   -2.8659   -0.7627 H   0  0  0  0  0  0  0  0  0  0  0  0
   -1.2219   -2.0189    1.3504 H   0  0  0  0  0  0  0  0  0  0  0  0
   -2.2400   -0.8210   -0.8491 H   0  0  0  0  0  0  0  0  0  0  0  0
   -2.4243   -0.0915    0.8071 H   0  0  0  0  0  0  0  0  0  0  0  0
    0.5957    1.4958    1.1778 H   0  0  0  0  0  0  0  0  0  0  0  0
    0.8239   -0.9496    2.0484 H   0  0  0  0  0  0  0  0  0  0  0  0
    1.4352   -0.6699   -0.9827 H   0  0  0  0  0  0  0  0  0  0  0  0
    4.6710    0.7782   -0.3296 H   0  0  0  0  0  0  0  0  0  0  0  0
   -0.4738   -0.5024   -2.1111 H   0  0  0  0  0  0  0  0  0  0  0  0
   -0.4358    1.2212   -2.4195 H   0  0  0  0  0  0  0  0  0  0  0  0
   -2.2612    3.2038    1.3248 H   0  0  0  0  0  0  0  0  0  0  0  0
  1  2  1  0
  2  3  1  0
  3  4  1  0
  4  5  1  0
  5  6  1  0
  6  7  1  0
  7  8  1  0
  8  9  2  0
  8 10  1  0
  4 11  1  6
  4 12  1  0
 12 13  2  0
 12 14  1  0
  6  2  1  0
  7  5  1  0
  1 15  1  0
  1 16  1  0
  2 17  1  1
  3 18  1  0
  3 19  1  0
  5 20  1  1
  6 21  1  1
  7 22  1  6
 10 23  1  0
 11 24  1  0
 11 25  1  0
 14 26  1  0
M  END
>  <Ligand ID>  (1) 
LIG0001198

>  <Ligand>  (1) 
CHEMBL2381646

>  <SMILES>  (1) 
N[C@@H]1C[C@@]([C@H]2[C@@H]1[C@@H]2C(=O)O)(N)C(=O)O

>  <CID>  (1) 
71681824.0

>  <ChEMBL ID>  (1) 
nan

>  <InChiKey>  (1) 
BIHSLTSGYFDSHV-RTHBWCHNSA-N

>  <InChi>  (1) 
InChI=1S/C8H12N2O4/c9-2-1-8(10,7(13)14)5-3(2)4(5)6(11)12/h2-5H,1,9-10H2,(H,11,12)(H,13,14)/t2-,3+,4+,5+,8+/m1/s1

>  <IUPAC Name>  (1) 
(1S,2S,4R,5R,6S)-2,4-diaminobicyclo[3.1.0]hexane-2,6-dicarboxylic acid

$$$$
