
     RDKit          3D

 71 71  0  0  0  0  0  0  0  0999 V2000
   -7.6267   -1.5783    0.2410 C   0  0  0  0  0  0  0  0  0  0  0  0
   -8.0494   -1.1109    1.5851 C   0  0  0  0  0  0  0  0  0  0  0  0
   -7.0884   -0.2249    2.2720 C   0  0  0  0  0  0  0  0  0  0  0  0
   -6.7159    1.0625    1.6546 C   0  0  0  0  0  0  0  0  0  0  0  0
   -5.9586    1.0535    0.3756 C   0  0  0  0  0  0  0  0  0  0  0  0
   -4.6247    0.4147    0.5773 C   0  0  0  0  0  0  0  0  0  0  0  0
   -3.8143    0.3883   -0.7111 C   0  0  0  0  0  0  0  0  0  0  0  0
   -4.4626   -0.3751   -1.8099 C   0  0  0  0  0  0  0  0  0  0  0  0
   -3.6595   -0.3847   -3.0598 C   0  0  0  0  0  0  0  0  0  0  0  0
   -2.3528   -1.0154   -3.1393 C   0  0  0  0  0  0  0  0  0  0  0  0
   -1.1959   -0.6084   -2.3210 C   0  0  0  0  0  0  0  0  0  0  0  0
   -0.7719    0.8030   -2.4506 C   0  0  0  0  0  0  0  0  0  0  0  0
    0.4103    1.1003   -1.5779 C   0  0  0  0  0  0  0  0  0  0  0  0
    0.0557    0.9112   -0.1347 C   0  0  0  0  0  0  0  0  0  0  0  0
    1.2010    1.2260    0.8173 C   0  0  0  0  0  0  0  0  0  0  0  0
    2.3440    0.2932    0.4958 C   0  0  0  0  0  0  0  0  0  0  0  0
    3.4480    0.6459    1.4873 C   0  0  0  0  0  0  0  0  0  0  0  0
    4.6238   -0.2524    1.2226 C   0  0  0  0  0  0  0  0  0  0  0  0
    4.5479   -1.0913    0.3119 O   0  0  0  0  0  0  0  0  0  0  0  0
    5.7591   -0.1212    2.0003 O   0  0  0  0  0  0  0  0  0  0  0  0
    6.9316   -0.8876    1.8704 C   0  0  0  0  0  0  0  0  0  0  0  0
    7.5607   -0.7373    0.5076 C   0  0  1  0  0  0  0  0  0  0  0  0
    7.8890    0.5749    0.2859 O   0  0  0  0  0  0  0  0  0  0  0  0
    9.4343    0.7443    0.9530 P   0  0  0  0  0  0  0  0  0  0  0  0
    9.4209    1.3848    2.3124 O   0  0  0  0  0  0  0  0  0  0  0  0
    9.9057   -1.0162    1.0485 C   0  0  0  0  0  0  0  0  0  0  0  0
    8.7352   -1.6190    0.2977 C   0  0  0  0  0  0  0  0  0  0  0  0
   11.0604   -1.1818    0.3136 F   0  0  0  0  0  0  0  0  0  0  0  0
   10.0093   -1.4352    2.3432 F   0  0  0  0  0  0  0  0  0  0  0  0
   10.4543    1.5819   -0.1014 O   0  0  0  0  0  0  0  0  0  0  0  0
   -6.5599   -1.6234    0.0641 H   0  0  0  0  0  0  0  0  0  0  0  0
   -8.1392   -0.9537   -0.5330 H   0  0  0  0  0  0  0  0  0  0  0  0
   -8.0226   -2.6390    0.1146 H   0  0  0  0  0  0  0  0  0  0  0  0
   -9.0621   -0.6216    1.4803 H   0  0  0  0  0  0  0  0  0  0  0  0
   -8.2325   -2.0296    2.2398 H   0  0  0  0  0  0  0  0  0  0  0  0
   -6.1304   -0.7614    2.5243 H   0  0  0  0  0  0  0  0  0  0  0  0
   -7.5112    0.0328    3.2996 H   0  0  0  0  0  0  0  0  0  0  0  0
   -6.0411    1.5903    2.4036 H   0  0  0  0  0  0  0  0  0  0  0  0
   -7.5897    1.7676    1.5516 H   0  0  0  0  0  0  0  0  0  0  0  0
   -5.7482    2.1530    0.1445 H   0  0  0  0  0  0  0  0  0  0  0  0
   -6.5006    0.6881   -0.4951 H   0  0  0  0  0  0  0  0  0  0  0  0
   -4.0554    1.0499    1.3107 H   0  0  0  0  0  0  0  0  0  0  0  0
   -4.6924   -0.5985    0.9591 H   0  0  0  0  0  0  0  0  0  0  0  0
   -3.7681    1.4686   -1.0376 H   0  0  0  0  0  0  0  0  0  0  0  0
   -2.7830    0.0903   -0.5180 H   0  0  0  0  0  0  0  0  0  0  0  0
   -4.7614   -1.4118   -1.4891 H   0  0  0  0  0  0  0  0  0  0  0  0
   -5.4125    0.1980   -2.0802 H   0  0  0  0  0  0  0  0  0  0  0  0
   -3.6728    0.6881   -3.4232 H   0  0  0  0  0  0  0  0  0  0  0  0
   -4.3083   -0.8847   -3.8682 H   0  0  0  0  0  0  0  0  0  0  0  0
   -2.0108   -1.1054   -4.2312 H   0  0  0  0  0  0  0  0  0  0  0  0
   -2.5150   -2.1253   -2.8938 H   0  0  0  0  0  0  0  0  0  0  0  0
   -1.1303   -1.0844   -1.3325 H   0  0  0  0  0  0  0  0  0  0  0  0
   -0.2997   -1.1737   -2.8482 H   0  0  0  0  0  0  0  0  0  0  0  0
   -1.5632    1.5342   -2.0978 H   0  0  0  0  0  0  0  0  0  0  0  0
   -0.5517    0.9872   -3.5302 H   0  0  0  0  0  0  0  0  0  0  0  0
    0.6323    2.1990   -1.7397 H   0  0  0  0  0  0  0  0  0  0  0  0
    1.3024    0.4970   -1.8687 H   0  0  0  0  0  0  0  0  0  0  0  0
   -0.7608    1.6284    0.1848 H   0  0  0  0  0  0  0  0  0  0  0  0
   -0.3459   -0.0817    0.0563 H   0  0  0  0  0  0  0  0  0  0  0  0
    1.4746    2.2813    0.7180 H   0  0  0  0  0  0  0  0  0  0  0  0
    0.8591    1.0670    1.8514 H   0  0  0  0  0  0  0  0  0  0  0  0
    2.7526    0.4227   -0.5148 H   0  0  0  0  0  0  0  0  0  0  0  0
    2.0536   -0.7599    0.6262 H   0  0  0  0  0  0  0  0  0  0  0  0
    3.1467    0.4875    2.5321 H   0  0  0  0  0  0  0  0  0  0  0  0
    3.7197    1.7129    1.3682 H   0  0  0  0  0  0  0  0  0  0  0  0
    6.6892   -1.9612    2.0769 H   0  0  0  0  0  0  0  0  0  0  0  0
    7.6440   -0.5360    2.6228 H   0  0  0  0  0  0  0  0  0  0  0  0
    6.8031   -1.0105   -0.2709 H   0  0  0  0  0  0  0  0  0  0  0  0
    8.9515   -1.7642   -0.7596 H   0  0  0  0  0  0  0  0  0  0  0  0
    8.4987   -2.6021    0.7595 H   0  0  0  0  0  0  0  0  0  0  0  0
   10.1704    1.3582   -1.0236 H   0  0  0  0  0  0  0  0  0  0  0  0
  1  2  1  0
  2  3  1  0
  3  4  1  0
  4  5  1  0
  5  6  1  0
  6  7  1  0
  7  8  1  0
  8  9  1  0
  9 10  1  0
 10 11  1  0
 11 12  1  0
 12 13  1  0
 13 14  1  0
 14 15  1  0
 15 16  1  0
 16 17  1  0
 17 18  1  0
 18 19  2  0
 18 20  1  0
 20 21  1  0
 21 22  1  0
 22 23  1  0
 23 24  1  0
 24 25  2  0
 24 26  1  0
 26 27  1  0
 26 28  1  0
 26 29  1  0
 24 30  1  0
 27 22  1  0
  1 31  1  0
  1 32  1  0
  1 33  1  0
  2 34  1  0
  2 35  1  0
  3 36  1  0
  3 37  1  0
  4 38  1  0
  4 39  1  0
  5 40  1  0
  5 41  1  0
  6 42  1  0
  6 43  1  0
  7 44  1  0
  7 45  1  0
  8 46  1  0
  8 47  1  0
  9 48  1  0
  9 49  1  0
 10 50  1  0
 10 51  1  0
 11 52  1  0
 11 53  1  0
 12 54  1  0
 12 55  1  0
 13 56  1  0
 13 57  1  0
 14 58  1  0
 14 59  1  0
 15 60  1  0
 15 61  1  0
 16 62  1  0
 16 63  1  0
 17 64  1  0
 17 65  1  0
 21 66  1  0
 21 67  1  0
 22 68  1  6
 27 69  1  0
 27 70  1  0
 30 71  1  0
M  END
>  <Ligand ID>  (1) 
LIG0004265

>  <Ligand>  (1) 
CHEMBL215722

>  <SMILES>  (1) 
CCCCCCCCCCCCCCCCCC(=O)OC[C@H]1OP(=O)(C(C1)(F)F)O

>  <CID>  (1) 
44414935.0

>  <ChEMBL ID>  (1) 
nan

>  <InChiKey>  (1) 
CPQAPUVUTZHEAA-FQEVSTJZSA-N

>  <InChi>  (1) 
InChI=1S/C22H41F2O5P/c1-2-3-4-5-6-7-8-9-10-11-12-13-14-15-16-17-21(25)28-19-20-18-22(23,24)30(26,27)29-20/h20H,2-19H2,1H3,(H,26,27)/t20-/m0/s1

>  <IUPAC Name>  (1) 
[(5S)-3,3-difluoro-2-hydroxy-2-oxo-1,2lambda5-oxaphospholan-5-yl]methyl octadecanoate

$$$$
