
     RDKit          3D

 61 63  0  0  0  0  0  0  0  0999 V2000
   -9.1916    1.7973   -0.5595 O   0  0  0  0  0  0  0  0  0  0  0  0
   -7.9377    1.2308   -0.3272 C   0  0  0  0  0  0  0  0  0  0  0  0
   -7.8882   -0.0334   -0.5113 O   0  0  0  0  0  0  0  0  0  0  0  0
   -6.7779    2.0370    0.0949 C   0  0  0  0  0  0  0  0  0  0  0  0
   -5.5142    1.8454   -0.6637 C   0  0  0  0  0  0  0  0  0  0  0  0
   -5.0056    0.4362   -0.6014 C   0  0  0  0  0  0  0  0  0  0  0  0
   -3.6778    0.2506   -1.3484 C   0  0  1  0  0  0  0  0  0  0  0  0
   -2.5701    1.0922   -0.8332 C   0  0  0  0  0  0  0  0  0  0  0  0
   -1.1957    0.4625   -1.1052 C   0  0  0  0  0  0  0  0  0  0  0  0
   -0.8113   -0.2647    0.1587 C   0  0  1  0  0  0  0  0  0  0  0  0
   -2.0891   -1.0775    0.4957 C   0  0  1  0  0  0  0  0  0  0  0  0
   -2.4528   -1.7155   -0.6364 O   0  0  0  0  0  0  0  0  0  0  0  0
   -3.3590   -1.1972   -1.4790 C   0  0  0  0  0  0  0  0  0  0  0  0
   -1.5664   -2.1610    1.4512 C   0  0  0  0  0  0  0  0  0  0  0  0
   -0.0726   -2.1047    1.3671 C   0  0  2  0  0  0  0  0  0  0  0  0
    0.1180   -1.4020    0.0005 C   0  0  2  0  0  0  0  0  0  0  0  0
    1.5340   -1.1375   -0.2307 C   0  0  0  0  0  0  0  0  0  0  0  0
    2.1500    0.0092   -0.3131 C   0  0  0  0  0  0  0  0  0  0  0  0
    3.6406   -0.0342   -0.5627 C   0  0  2  0  0  0  0  0  0  0  0  0
    4.2248    1.3110   -0.3182 C   0  0  0  0  0  0  0  0  0  0  0  0
    5.5899    1.4136   -0.4742 O   0  0  0  0  0  0  0  0  0  0  0  0
    6.6296    0.8339    0.1653 C   0  0  0  0  0  0  0  0  0  0  0  0
    7.9214    1.1624   -0.2835 C   0  0  0  0  0  0  0  0  0  0  0  0
    9.0495    0.6266    0.3023 C   0  0  0  0  0  0  0  0  0  0  0  0
    8.9491   -0.2681    1.3712 C   0  0  0  0  0  0  0  0  0  0  0  0
    7.6936   -0.5954    1.8188 C   0  0  0  0  0  0  0  0  0  0  0  0
    6.5766   -0.0460    1.2159 C   0  0  0  0  0  0  0  0  0  0  0  0
    3.8729   -0.4396   -1.8779 O   0  0  0  0  0  0  0  0  0  0  0  0
    0.5212   -3.3545    1.3475 O   0  0  0  0  0  0  0  0  0  0  0  0
   -9.9812    1.2569   -0.8806 H   0  0  0  0  0  0  0  0  0  0  0  0
   -7.0893    3.1157   -0.0541 H   0  0  0  0  0  0  0  0  0  0  0  0
   -6.6074    1.8666    1.1934 H   0  0  0  0  0  0  0  0  0  0  0  0
   -5.7765    2.0143   -1.7571 H   0  0  0  0  0  0  0  0  0  0  0  0
   -4.7340    2.5983   -0.3984 H   0  0  0  0  0  0  0  0  0  0  0  0
   -5.7859   -0.1653   -1.1740 H   0  0  0  0  0  0  0  0  0  0  0  0
   -4.9575    0.1344    0.4411 H   0  0  0  0  0  0  0  0  0  0  0  0
   -3.9035    0.6322   -2.3862 H   0  0  0  0  0  0  0  0  0  0  0  0
   -2.5228    2.1004   -1.3576 H   0  0  0  0  0  0  0  0  0  0  0  0
   -2.6627    1.3671    0.2335 H   0  0  0  0  0  0  0  0  0  0  0  0
   -0.4652    1.2476   -1.2974 H   0  0  0  0  0  0  0  0  0  0  0  0
   -1.2783   -0.2744   -1.9262 H   0  0  0  0  0  0  0  0  0  0  0  0
   -0.5625    0.4330    0.9760 H   0  0  0  0  0  0  0  0  0  0  0  0
   -2.8018   -0.4772    1.0354 H   0  0  0  0  0  0  0  0  0  0  0  0
   -4.3031   -1.7797   -1.4314 H   0  0  0  0  0  0  0  0  0  0  0  0
   -2.9830   -1.3979   -2.5301 H   0  0  0  0  0  0  0  0  0  0  0  0
   -1.8904   -3.1811    1.1296 H   0  0  0  0  0  0  0  0  0  0  0  0
   -1.9538   -1.9907    2.4742 H   0  0  0  0  0  0  0  0  0  0  0  0
    0.3184   -1.4188    2.1357 H   0  0  0  0  0  0  0  0  0  0  0  0
   -0.2896   -2.0843   -0.7719 H   0  0  0  0  0  0  0  0  0  0  0  0
    2.1751   -2.0424   -0.3492 H   0  0  0  0  0  0  0  0  0  0  0  0
    1.5986    0.9115   -0.1997 H   0  0  0  0  0  0  0  0  0  0  0  0
    4.0101   -0.8525    0.0692 H   0  0  0  0  0  0  0  0  0  0  0  0
    3.8465    1.6608    0.6691 H   0  0  0  0  0  0  0  0  0  0  0  0
    3.7535    2.0077   -1.0730 H   0  0  0  0  0  0  0  0  0  0  0  0
    8.0491    1.8500   -1.1099 H   0  0  0  0  0  0  0  0  0  0  0  0
   10.0485    0.8674   -0.0321 H   0  0  0  0  0  0  0  0  0  0  0  0
    9.8305   -0.6946    1.8407 H   0  0  0  0  0  0  0  0  0  0  0  0
    7.6175   -1.2847    2.6407 H   0  0  0  0  0  0  0  0  0  0  0  0
    5.6239   -0.3430    1.6288 H   0  0  0  0  0  0  0  0  0  0  0  0
    4.0807   -1.4099   -1.9268 H   0  0  0  0  0  0  0  0  0  0  0  0
    1.2349   -3.3449    2.0471 H   0  0  0  0  0  0  0  0  0  0  0  0
  1  2  1  0
  2  3  2  0
  2  4  1  0
  4  5  1  0
  5  6  1  0
  6  7  1  0
  7  8  1  0
  8  9  1  0
  9 10  1  0
 10 11  1  0
 11 12  1  0
 12 13  1  0
 11 14  1  0
 14 15  1  0
 15 16  1  0
 16 17  1  0
 17 18  2  0
 18 19  1  0
 19 20  1  0
 20 21  1  0
 21 22  1  0
 22 23  2  0
 23 24  1  0
 24 25  2  0
 25 26  1  0
 26 27  2  0
 19 28  1  0
 15 29  1  0
 13  7  1  0
 27 22  1  0
 16 10  1  0
  1 30  1  0
  4 31  1  0
  4 32  1  0
  5 33  1  0
  5 34  1  0
  6 35  1  0
  6 36  1  0
  7 37  1  6
  8 38  1  0
  8 39  1  0
  9 40  1  0
  9 41  1  0
 10 42  1  1
 11 43  1  1
 13 44  1  0
 13 45  1  0
 14 46  1  0
 14 47  1  0
 15 48  1  1
 16 49  1  6
 17 50  1  0
 18 51  1  0
 19 52  1  1
 20 53  1  0
 20 54  1  0
 23 55  1  0
 24 56  1  0
 25 57  1  0
 26 58  1  0
 27 59  1  0
 28 60  1  0
 29 61  1  0
M  END
>  <Ligand ID>  (1) 
LIG0000844

>  <Ligand>  (1) 
CHEMBL3967855

>  <SMILES>  (1) 
OC(=O)CCC[C@H]1CC[C@H]2[C@@H](OC1)C[C@H]([C@@H]2/C=C/[C@H](COc1ccccc1)O)O

>  <CID>  (1) 
68747479.0

>  <ChEMBL ID>  (1) 
nan

>  <InChiKey>  (1) 
JBWVPQXSFRGWCV-HJGWJQNWSA-N

>  <InChi>  (1) 
InChI=1S/C23H32O6/c24-17(15-28-18-6-2-1-3-7-18)10-12-19-20-11-9-16(5-4-8-23(26)27)14-29-22(20)13-21(19)25/h1-3,6-7,10,12,16-17,19-22,24-25H,4-5,8-9,11,13-15H2,(H,26,27)/b12-10+/t16-,17+,19+,20+,21+,22-/m0/s1

>  <IUPAC Name>  (1) 
4-[(3S,5aR,6R,7R,8aS)-7-hydroxy-6-[(E,3R)-3-hydroxy-4-phenoxybut-1-enyl]-3,4,5,5a,6,7,8,8a-octahydro-2H-cyclopenta[b]oxepin-3-yl]butanoic acid

$$$$
