
     RDKit          3D

 32 33  0  0  0  0  0  0  0  0999 V2000
    4.6978   -0.0050    1.0733 N   0  0  0  0  0  0  0  0  0  0  0  0
    4.8399    0.5015   -0.2588 C   0  0  0  0  0  0  0  0  0  0  0  0
    3.6570    1.4299   -0.5304 C   0  0  0  0  0  0  0  0  0  0  0  0
    2.3905    0.6654   -0.3991 C   0  0  0  0  0  0  0  0  0  0  0  0
    1.8692    0.0405   -1.5114 C   0  0  0  0  0  0  0  0  0  0  0  0
    0.7027   -0.6767   -1.4395 C   0  0  0  0  0  0  0  0  0  0  0  0
   -0.0273   -0.8210   -0.2494 C   0  0  0  0  0  0  0  0  0  0  0  0
    0.4997   -0.1967    0.8470 C   0  0  0  0  0  0  0  0  0  0  0  0
    1.6926    0.5372    0.7754 C   0  0  0  0  0  0  0  0  0  0  0  0
   -0.4409   -0.2937    2.7034 I   0  0  0  0  0  0  0  0  0  0  0  0
   -1.1611   -1.5574   -0.3270 O   0  0  0  0  0  0  0  0  0  0  0  0
   -2.4253   -1.1273   -0.0430 C   0  0  0  0  0  0  0  0  0  0  0  0
   -3.0016   -0.2251   -0.9454 C   0  0  0  0  0  0  0  0  0  0  0  0
   -4.2733    0.2755   -0.7639 C   0  0  0  0  0  0  0  0  0  0  0  0
   -5.0713    1.6372   -2.1773 I   0  0  0  0  0  0  0  0  0  0  0  0
   -5.0392   -0.0927    0.3220 C   0  0  0  0  0  0  0  0  0  0  0  0
   -4.4713   -0.9815    1.2101 C   0  0  0  0  0  0  0  0  0  0  0  0
   -3.1918   -1.4852    1.0266 C   0  0  0  0  0  0  0  0  0  0  0  0
   -5.5902   -1.5924    2.9025 I   0  0  0  0  0  0  0  0  0  0  0  0
   -6.3055    0.4110    0.4960 O   0  0  0  0  0  0  0  0  0  0  0  0
    5.5608   -0.1481    1.6045 H   0  0  0  0  0  0  0  0  0  0  0  0
    3.9177   -0.6469    1.2393 H   0  0  0  0  0  0  0  0  0  0  0  0
    5.7712    1.1137   -0.2753 H   0  0  0  0  0  0  0  0  0  0  0  0
    4.9124   -0.2510   -1.0483 H   0  0  0  0  0  0  0  0  0  0  0  0
    3.7520    1.8232   -1.5769 H   0  0  0  0  0  0  0  0  0  0  0  0
    3.7011    2.3223    0.1220 H   0  0  0  0  0  0  0  0  0  0  0  0
    2.4012    0.1265   -2.4506 H   0  0  0  0  0  0  0  0  0  0  0  0
    0.3575   -1.1393   -2.3592 H   0  0  0  0  0  0  0  0  0  0  0  0
    2.0917    1.0227    1.6534 H   0  0  0  0  0  0  0  0  0  0  0  0
   -2.4658    0.1101   -1.8182 H   0  0  0  0  0  0  0  0  0  0  0  0
   -2.8360   -2.1776    1.7445 H   0  0  0  0  0  0  0  0  0  0  0  0
   -6.5143    1.4008    0.6254 H   0  0  0  0  0  0  0  0  0  0  0  0
  1  2  1  0
  2  3  1  0
  3  4  1  0
  4  5  2  0
  5  6  1  0
  6  7  2  0
  7  8  1  0
  8  9  2  0
  8 10  1  0
  7 11  1  0
 11 12  1  0
 12 13  2  0
 13 14  1  0
 14 15  1  0
 14 16  2  0
 16 17  1  0
 17 18  2  0
 17 19  1  0
 16 20  1  0
  9  4  1  0
 18 12  1  0
  1 21  1  0
  1 22  1  0
  2 23  1  0
  2 24  1  0
  3 25  1  0
  3 26  1  0
  5 27  1  0
  6 28  1  0
  9 29  1  0
 13 30  1  0
 18 31  1  0
 20 32  1  0
M  END
>  <Ligand ID>  (1) 
LIG0005788

>  <Ligand>  (1) 
CHEMBL381531

>  <SMILES>  (1) 
NCCc1ccc(c(c1)I)Oc1cc(I)c(c(c1)I)O

>  <CID>  (1) 
11563432.0

>  <ChEMBL ID>  (1) 
nan

>  <InChiKey>  (1) 
UUAAZUKOEVNCRA-UHFFFAOYSA-N

>  <InChi>  (1) 
InChI=1S/C14H12I3NO2/c15-10-5-8(3-4-18)1-2-13(10)20-9-6-11(16)14(19)12(17)7-9/h1-2,5-7,19H,3-4,18H2

>  <IUPAC Name>  (1) 
4-[4-(2-aminoethyl)-2-iodophenoxy]-2,6-diiodophenol

$$$$
