
     RDKit          3D

 16 16  0  0  0  0  0  0  0  0999 V2000
    2.4973   -0.7691    0.0055 C   0  0  0  0  0  0  0  0  0  0  0  0
    1.1848   -0.0539    0.0425 C   0  0  0  0  0  0  0  0  0  0  0  0
    1.1530    1.3110    0.2342 C   0  0  0  0  0  0  0  0  0  0  0  0
   -0.0258    1.9753    0.2705 N   0  0  0  0  0  0  0  0  0  0  0  0
   -1.2023    1.3190    0.1199 C   0  0  0  0  0  0  0  0  0  0  0  0
   -1.1718   -0.0475   -0.0721 C   0  0  0  0  0  0  0  0  0  0  0  0
    0.0079   -0.7079   -0.1078 N   0  0  0  0  0  0  0  0  0  0  0  0
   -2.4690   -0.7947   -0.2414 C   0  0  0  0  0  0  0  0  0  0  0  0
    3.1358   -0.5171    0.8812 H   0  0  0  0  0  0  0  0  0  0  0  0
    2.3304   -1.8634    0.0384 H   0  0  0  0  0  0  0  0  0  0  0  0
    3.0202   -0.5641   -0.9619 H   0  0  0  0  0  0  0  0  0  0  0  0
    2.0740    1.8910    0.3614 H   0  0  0  0  0  0  0  0  0  0  0  0
   -2.1579    1.8408    0.1470 H   0  0  0  0  0  0  0  0  0  0  0  0
   -2.3121   -1.8777   -0.0845 H   0  0  0  0  0  0  0  0  0  0  0  0
   -3.1505   -0.4728    0.5947 H   0  0  0  0  0  0  0  0  0  0  0  0
   -2.9142   -0.6689   -1.2276 H   0  0  0  0  0  0  0  0  0  0  0  0
  1  2  1  0
  2  3  2  0
  3  4  1  0
  4  5  2  0
  5  6  1  0
  6  7  2  0
  6  8  1  0
  7  2  1  0
  1  9  1  0
  1 10  1  0
  1 11  1  0
  3 12  1  0
  5 13  1  0
  8 14  1  0
  8 15  1  0
  8 16  1  0
M  END
>  <Ligand ID>  (1) 
LIG0000223

>  <Ligand>  (1) 
2,6-dimethylpyrazine

>  <SMILES>  (1) 
Cc1cncc(n1)C

>  <CID>  (1) 
7938.0

>  <ChEMBL ID>  (1) 
nan

>  <InChiKey>  (1) 
HJFZAYHYIWGLNL-UHFFFAOYSA-N

>  <InChi>  (1) 
InChI=1S/C6H8N2/c1-5-3-7-4-6(2)8-5/h3-4H,1-2H3

>  <IUPAC Name>  (1) 
2,6-dimethylpyrazine

$$$$
