
     RDKit          3D

 32 33  0  0  0  0  0  0  0  0999 V2000
   -5.7454   -1.0791    0.0730 C   0  0  0  0  0  0  0  0  0  0  0  0
   -4.2763   -0.8995   -0.1499 C   0  0  0  0  0  0  0  0  0  0  0  0
   -3.8659   -1.1206   -1.3205 O   0  0  0  0  0  0  0  0  0  0  0  0
   -3.4174   -0.5117    0.8750 O   0  0  0  0  0  0  0  0  0  0  0  0
   -2.0496   -0.3354    0.7047 C   0  0  0  0  0  0  0  0  0  0  0  0
   -1.2411   -1.4295    0.9152 C   0  0  0  0  0  0  0  0  0  0  0  0
    0.1132   -1.2516    0.7459 C   0  0  0  0  0  0  0  0  0  0  0  0
    0.6944   -0.0608    0.3838 C   0  0  0  0  0  0  0  0  0  0  0  0
   -0.1039    1.0202    0.1757 C   0  0  0  0  0  0  0  0  0  0  0  0
   -1.4729    0.8443    0.3459 C   0  0  0  0  0  0  0  0  0  0  0  0
    0.3524    2.3653   -0.2154 C   0  0  0  0  0  0  0  0  0  0  0  0
    1.8094    2.5038   -0.3829 C   0  0  0  0  0  0  0  0  0  0  0  0
    2.5896    1.3112   -0.1440 C   0  0  0  0  0  0  0  0  0  0  0  0
    2.1789    0.0674    0.2159 C   0  0  0  0  0  0  0  0  0  0  0  0
    3.0782   -0.8725    0.3776 N   0  0  0  0  0  0  0  0  0  0  0  0
    4.3538   -0.5955    0.1896 C   0  0  0  0  0  0  0  0  0  0  0  0
    4.3890    1.1579   -0.2681 S   0  0  0  0  0  0  0  0  0  0  0  0
    5.4928   -1.4272    0.3014 N   0  0  0  0  0  0  0  0  0  0  0  0
    0.0000    0.0000    0.0000 I   0  0  0  0  0  0  0  0  0  0  0  0
   -6.3457   -0.3989   -0.5801 H   0  0  0  0  0  0  0  0  0  0  0  0
   -5.9947   -2.1270   -0.2014 H   0  0  0  0  0  0  0  0  0  0  0  0
   -6.0222   -0.8880    1.1240 H   0  0  0  0  0  0  0  0  0  0  0  0
   -1.6313   -2.4074    1.2047 H   0  0  0  0  0  0  0  0  0  0  0  0
    0.7589   -2.1263    0.9142 H   0  0  0  0  0  0  0  0  0  0  0  0
   -2.1285    1.6934    0.1851 H   0  0  0  0  0  0  0  0  0  0  0  0
   -0.2434    2.6194   -1.1388 H   0  0  0  0  0  0  0  0  0  0  0  0
   -0.0641    3.0594    0.5569 H   0  0  0  0  0  0  0  0  0  0  0  0
    2.1730    3.3177    0.2953 H   0  0  0  0  0  0  0  0  0  0  0  0
    1.9701    2.9507   -1.4094 H   0  0  0  0  0  0  0  0  0  0  0  0
    2.8196   -1.8919    0.6654 H   0  0  0  0  0  0  0  0  0  0  0  0
    6.0237   -1.5676    1.2066 H   0  0  0  0  0  0  0  0  0  0  0  0
    5.8055   -1.9202   -0.5817 H   0  0  0  0  0  0  0  0  0  0  0  0
  1  2  1  0
  2  3  2  0
  2  4  1  0
  4  5  1  0
  5  6  2  0
  6  7  1  0
  7  8  2  0
  8  9  1  0
  9 10  2  0
  9 11  1  0
 11 12  1  0
 12 13  1  0
 13 14  2  0
 14 15  1  0
 15 16  2  0
 16 17  1  0
 16 18  1  0
 10  5  1  0
 17 13  1  0
 14  8  1  0
  1 20  1  0
  1 21  1  0
  1 22  1  0
  6 23  1  0
  7 24  1  0
 10 25  1  0
 11 26  1  0
 11 27  1  0
 12 28  1  0
 12 29  1  0
 15 30  1  0
 18 31  1  0
 18 32  1  0
M  CHG  2  15   1  19  -1
M  END
>  <Ligand ID>  (1) 
LIG0003367

>  <Ligand>  (1) 
CID 135881780

>  <SMILES>  (1) 
CC(=O)Oc1ccc2c(c1)CCc1c2[nH+]c(s1)N.[I-]

>  <CID>  (1) 
135881780.0

>  <ChEMBL ID>  (1) 
nan

>  <InChiKey>  (1) 
RZVHNWFWKMVRSL-UHFFFAOYSA-N

>  <InChi>  (1) 
InChI=1S/C13H12N2O2S.HI/c1-7(16)17-9-3-4-10-8(6-9)2-5-11-12(10)15-13(14)18-11;/h3-4,6H,2,5H2,1H3,(H2,14,15);1H

>  <IUPAC Name>  (1) 
(2-amino-4,5-dihydrobenzo[e][1,3]benzothiazol-1-ium-7-yl) acetate;iodide

$$$$
