
     RDKit          3D

 26 25  0  0  0  0  0  0  0  0999 V2000
   -2.7508    0.9085    0.9793 C   0  0  0  0  0  0  0  0  0  0  0  0
   -2.8299    0.4395   -0.4352 C   0  0  0  0  0  0  0  0  0  0  0  0
   -1.8394   -0.6624   -0.7405 C   0  0  0  0  0  0  0  0  0  0  0  0
   -0.4115   -0.2053   -0.5110 C   0  0  0  0  0  0  0  0  0  0  0  0
    0.5041   -1.3512   -0.8347 C   0  0  0  0  0  0  0  0  0  0  0  0
    1.9602   -0.9934   -0.6367 C   0  0  0  0  0  0  0  0  0  0  0  0
    2.2234   -0.6033    0.7647 C   0  0  0  0  0  0  0  0  0  0  0  0
    2.6837    0.5666    1.1426 C   0  0  0  0  0  0  0  0  0  0  0  0
    2.9971    1.6431    0.2156 C   0  0  0  0  0  0  0  0  0  0  0  0
    3.4330    2.7249    0.6760 O   0  0  0  0  0  0  0  0  0  0  0  0
   -3.6464    1.5219    1.2001 H   0  0  0  0  0  0  0  0  0  0  0  0
   -1.8691    1.5863    1.1439 H   0  0  0  0  0  0  0  0  0  0  0  0
   -2.7518    0.0505    1.6817 H   0  0  0  0  0  0  0  0  0  0  0  0
   -2.7456    1.2876   -1.1320 H   0  0  0  0  0  0  0  0  0  0  0  0
   -3.8394   -0.0095   -0.5940 H   0  0  0  0  0  0  0  0  0  0  0  0
   -1.9175   -0.9549   -1.7932 H   0  0  0  0  0  0  0  0  0  0  0  0
   -2.0333   -1.5060   -0.0610 H   0  0  0  0  0  0  0  0  0  0  0  0
   -0.1509    0.7229   -1.0189 H   0  0  0  0  0  0  0  0  0  0  0  0
   -0.3332    0.0068    0.5777 H   0  0  0  0  0  0  0  0  0  0  0  0
    0.3821   -1.7116   -1.8766 H   0  0  0  0  0  0  0  0  0  0  0  0
    0.2804   -2.2237   -0.1969 H   0  0  0  0  0  0  0  0  0  0  0  0
    2.5968   -1.9123   -0.8131 H   0  0  0  0  0  0  0  0  0  0  0  0
    2.3353   -0.2587   -1.3447 H   0  0  0  0  0  0  0  0  0  0  0  0
    2.0102   -1.3649    1.5223 H   0  0  0  0  0  0  0  0  0  0  0  0
    2.8288    0.7118    2.2091 H   0  0  0  0  0  0  0  0  0  0  0  0
    2.8836    1.5868   -0.8530 H   0  0  0  0  0  0  0  0  0  0  0  0
  1  2  1  0
  2  3  1  0
  3  4  1  0
  4  5  1  0
  5  6  1  0
  6  7  1  0
  7  8  2  0
  8  9  1  0
  9 10  2  0
  1 11  1  0
  1 12  1  0
  1 13  1  0
  2 14  1  0
  2 15  1  0
  3 16  1  0
  3 17  1  0
  4 18  1  0
  4 19  1  0
  5 20  1  0
  5 21  1  0
  6 22  1  0
  6 23  1  0
  7 24  1  0
  8 25  1  0
  9 26  1  0
M  END
>  <Ligand ID>  (1) 
LIG0000622

>  <Ligand>  (1) 
(Z)-non-2-enal

>  <SMILES>  (1) 
CCCCCC/C=C\C=O

>  <CID>  (1) 
5354833.0

>  <ChEMBL ID>  (1) 
nan

>  <InChiKey>  (1) 
BSAIUMLZVGUGKX-FPLPWBNLSA-N

>  <InChi>  (1) 
InChI=1S/C9H16O/c1-2-3-4-5-6-7-8-9-10/h7-9H,2-6H2,1H3/b8-7-

>  <IUPAC Name>  (1) 
(Z)-non-2-enal

$$$$
