
     RDKit          3D

198204  0  0  0  0  0  0  0  0999 V2000
   12.9678   -1.1162   -3.2615 N   0  0  0  0  0  0  0  0  0  0  0  0
   12.4605   -2.4786   -3.1317 C   0  0  0  0  0  0  0  0  0  0  0  0
   12.8158   -3.0891   -1.8184 C   0  0  0  0  0  0  0  0  0  0  0  0
   12.2493   -2.2971   -0.6239 C   0  0  0  0  0  0  0  0  0  0  0  0
   10.7584   -2.2351   -0.6978 C   0  0  0  0  0  0  0  0  0  0  0  0
   10.1374   -1.5235    0.4366 C   0  0  1  0  0  0  0  0  0  0  0  0
   10.4046   -0.1271    0.7099 C   0  0  0  0  0  0  0  0  0  0  0  0
    9.5140    0.5127    1.3148 O   0  0  0  0  0  0  0  0  0  0  0  0
   11.5940    0.6876    0.3814 C   0  0  0  0  0  0  0  0  0  0  0  0
   11.3921    2.0730    0.8536 N   0  0  0  0  0  0  0  0  0  0  0  0
   12.5076    2.9158    0.5351 C   0  0  2  0  0  0  0  0  0  0  0  0
   13.7824    2.5874    1.1799 C   0  0  0  0  0  0  0  0  0  0  0  0
   14.7890    3.2887    0.8640 O   0  0  0  0  0  0  0  0  0  0  0  0
   14.0043    1.5606    2.1258 N   0  0  0  0  0  0  0  0  0  0  0  0
   12.1529    4.3850    0.7026 C   0  0  0  0  0  0  0  0  0  0  0  0
   11.7547    4.7244    2.0714 C   0  0  0  0  0  0  0  0  0  0  0  0
   11.7152    3.9458    3.0483 O   0  0  0  0  0  0  0  0  0  0  0  0
   11.3777    6.0497    2.3240 O   0  0  0  0  0  0  0  0  0  0  0  0
    8.8452   -2.0192    0.8022 N   0  0  0  0  0  0  0  0  0  0  0  0
    7.9966   -2.5673   -0.1440 C   0  0  0  0  0  0  0  0  0  0  0  0
    7.2797   -1.8616   -1.1712 C   0  0  0  0  0  0  0  0  0  0  0  0
    6.8350   -2.6383   -2.1090 O   0  0  0  0  0  0  0  0  0  0  0  0
    6.9306   -0.4746   -1.4016 C   0  0  2  0  0  0  0  0  0  0  0  0
    7.8441    0.1050   -2.4922 C   0  0  0  0  0  0  0  0  0  0  0  0
    7.5528    1.5872   -2.3382 C   0  0  0  0  0  0  0  0  0  0  0  0
    6.9034    1.7589   -0.9781 C   0  0  0  0  0  0  0  0  0  0  0  0
    7.0408    0.4488   -0.3336 N   0  0  0  0  0  0  0  0  0  0  0  0
    6.2460    0.3318    0.8035 C   0  0  0  0  0  0  0  0  0  0  0  0
    4.7788    0.2495    0.6096 C   0  0  0  0  0  0  0  0  0  0  0  0
    4.2283    0.0732   -0.4638 O   0  0  0  0  0  0  0  0  0  0  0  0
    3.9133    0.3832    1.7972 C   0  0  2  0  0  0  0  0  0  0  0  0
    4.5467    0.0164    3.0879 C   0  0  0  0  0  0  0  0  0  0  0  0
    3.9180   -1.3068    3.4728 C   0  0  0  0  0  0  0  0  0  0  0  0
    3.0658   -1.6764    2.2843 C   0  0  0  0  0  0  0  0  0  0  0  0
    2.6685   -0.4041    1.6946 N   0  0  0  0  0  0  0  0  0  0  0  0
    1.4089    0.0175    1.1965 C   0  0  0  0  0  0  0  0  0  0  0  0
    1.3772    1.1429    0.6112 O   0  0  0  0  0  0  0  0  0  0  0  0
    0.1985   -0.7476    1.3183 C   0  0  1  0  0  0  0  0  0  0  0  0
   -0.2785   -0.6928    2.7801 C   0  0  0  0  0  0  0  0  0  0  0  0
   -0.5969    0.8506    3.5112 S   0  0  0  0  0  0  0  0  0  0  0  0
   -2.2615    1.8732    2.8380 S   0  0  0  0  0  0  0  0  0  0  0  0
   -1.8837    3.0273    1.5422 C   0  0  0  0  0  0  0  0  0  0  0  0
   -3.0299    4.0137    1.2992 C   0  0  2  0  0  0  0  0  0  0  0  0
   -3.3675    4.7397    2.5283 C   0  0  0  0  0  0  0  0  0  0  0  0
   -4.5001    4.6465    3.0136 O   0  0  0  0  0  0  0  0  0  0  0  0
   -2.3628    5.5919    3.2042 C   0  0  0  0  0  0  0  0  0  0  0  0
   -4.1609    3.4471    0.5610 C   0  0  0  0  0  0  0  0  0  0  0  0
   -4.1447    2.3541   -0.0048 O   0  0  0  0  0  0  0  0  0  0  0  0
   -5.4412    4.1376    0.4291 N   0  0  0  0  0  0  0  0  0  0  0  0
   -6.5280    3.5833   -0.3260 C   0  0  2  0  0  0  0  0  0  0  0  0
   -6.8906    4.2431   -1.6003 C   0  0  0  0  0  0  0  0  0  0  0  0
   -7.2940    5.6596   -1.6052 C   0  0  0  0  0  0  0  0  0  0  0  0
   -6.3044    6.6709   -1.2484 C   0  0  0  0  0  0  0  0  0  0  0  0
   -5.0784    6.5205   -1.0768 O   0  0  0  0  0  0  0  0  0  0  0  0
   -6.7852    7.9909   -1.0728 O   0  0  0  0  0  0  0  0  0  0  0  0
   -7.7222    3.2963    0.5096 C   0  0  0  0  0  0  0  0  0  0  0  0
   -7.7406    3.5575    1.7265 O   0  0  0  0  0  0  0  0  0  0  0  0
   -8.9237    2.7122    0.0157 N   0  0  0  0  0  0  0  0  0  0  0  0
  -10.0584    2.3623    0.8511 C   0  0  2  0  0  0  0  0  0  0  0  0
  -10.0695    0.8370    0.8969 C   0  0  0  0  0  0  0  0  0  0  0  0
  -10.8784    0.1869    1.5412 O   0  0  0  0  0  0  0  0  0  0  0  0
   -9.1021    0.1371    0.1617 N   0  0  0  0  0  0  0  0  0  0  0  0
   -8.9094   -1.3259    0.1145 C   0  0  2  0  0  0  0  0  0  0  0  0
   -7.6547   -1.5313    0.8132 C   0  0  0  0  0  0  0  0  0  0  0  0
   -7.1341   -0.5505    1.3884 O   0  0  0  0  0  0  0  0  0  0  0  0
   -6.8832   -2.7567    0.9415 N   0  0  0  0  0  0  0  0  0  0  0  0
   -5.7563   -2.6336    1.8408 C   0  0  2  0  0  0  0  0  0  0  0  0
   -4.5632   -2.0253    1.1889 C   0  0  0  0  0  0  0  0  0  0  0  0
   -3.7746   -1.4061    1.9285 O   0  0  0  0  0  0  0  0  0  0  0  0
   -4.2113   -2.0843   -0.1791 N   0  0  0  0  0  0  0  0  0  0  0  0
   -3.1141   -1.1927   -0.5774 C   0  0  1  0  0  0  0  0  0  0  0  0
   -1.9050   -1.4685    0.2779 C   0  0  0  0  0  0  0  0  0  0  0  0
   -1.6844   -2.5196    0.8669 O   0  0  0  0  0  0  0  0  0  0  0  0
   -0.9022   -0.4286    0.4563 N   0  0  0  0  0  0  0  0  0  0  0  0
   -2.8498   -1.2841   -2.0370 C   0  0  0  0  0  0  0  0  0  0  0  0
   -2.4480   -2.6496   -2.5001 C   0  0  0  0  0  0  0  0  0  0  0  0
   -3.2825   -3.6331   -3.0365 C   0  0  0  0  0  0  0  0  0  0  0  0
   -2.5655   -4.7464   -3.3015 N   0  0  0  0  0  0  0  0  0  0  0  0
   -1.2833   -4.5317   -2.9583 C   0  0  0  0  0  0  0  0  0  0  0  0
   -1.2038   -3.2453   -2.4657 C   0  0  0  0  0  0  0  0  0  0  0  0
    0.0401   -2.8137   -2.0590 C   0  0  0  0  0  0  0  0  0  0  0  0
    1.1609   -3.6313   -2.1381 C   0  0  0  0  0  0  0  0  0  0  0  0
    1.0216   -4.8989   -2.6343 C   0  0  0  0  0  0  0  0  0  0  0  0
   -0.1992   -5.3782   -3.0552 C   0  0  0  0  0  0  0  0  0  0  0  0
   -5.3214   -3.8435    2.5680 C   0  0  0  0  0  0  0  0  0  0  0  0
   -4.8237   -5.0234    1.8453 C   0  0  0  0  0  0  0  0  0  0  0  0
   -5.7389   -5.6754    0.8741 C   0  0  0  0  0  0  0  0  0  0  0  0
   -6.9718   -6.0800    1.4910 N   0  0  0  0  0  0  0  0  0  0  0  0
   -8.0194   -6.3362    0.7721 C   0  0  0  0  0  0  0  0  0  0  0  0
   -7.8689   -6.1930   -0.6347 N   0  0  0  0  0  0  0  0  0  0  0  0
   -9.2272   -6.7342    1.3963 N   0  0  0  0  0  0  0  0  0  0  0  0
   -9.0630   -1.8691   -1.2360 C   0  0  0  0  0  0  0  0  0  0  0  0
   -8.2075   -1.3603   -2.2999 C   0  0  0  0  0  0  0  0  0  0  0  0
   -8.6475   -0.2055   -2.9573 C   0  0  0  0  0  0  0  0  0  0  0  0
   -7.9659    0.3709   -3.9953 C   0  0  0  0  0  0  0  0  0  0  0  0
   -6.7939   -0.1697   -4.4491 C   0  0  0  0  0  0  0  0  0  0  0  0
   -6.3437   -1.3245   -3.7981 C   0  0  0  0  0  0  0  0  0  0  0  0
   -7.0356   -1.8988   -2.7535 C   0  0  0  0  0  0  0  0  0  0  0  0
  -11.3211    2.8126    0.2156 C   0  0  0  0  0  0  0  0  0  0  0  0
  -11.4289    4.2708   -0.0139 C   0  0  0  0  0  0  0  0  0  0  0  0
  -11.0591    5.0363   -1.0977 C   0  0  0  0  0  0  0  0  0  0  0  0
  -11.3735    6.3296   -0.8132 N   0  0  0  0  0  0  0  0  0  0  0  0
  -11.9237    6.3740    0.4099 C   0  0  0  0  0  0  0  0  0  0  0  0
  -11.9614    5.1223    0.9052 N   0  0  0  0  0  0  0  0  0  0  0  0
   12.2523   -0.4853   -2.8466 H   0  0  0  0  0  0  0  0  0  0  0  0
   13.8503   -1.0139   -2.7165 H   0  0  0  0  0  0  0  0  0  0  0  0
   11.3813   -2.5098   -3.3648 H   0  0  0  0  0  0  0  0  0  0  0  0
   12.9861   -3.0628   -3.9268 H   0  0  0  0  0  0  0  0  0  0  0  0
   13.9123   -3.0615   -1.6877 H   0  0  0  0  0  0  0  0  0  0  0  0
   12.4018   -4.0933   -1.7421 H   0  0  0  0  0  0  0  0  0  0  0  0
   12.7517   -1.3400   -0.5531 H   0  0  0  0  0  0  0  0  0  0  0  0
   12.5939   -2.8931    0.2641 H   0  0  0  0  0  0  0  0  0  0  0  0
   10.4216   -3.3147   -0.6269 H   0  0  0  0  0  0  0  0  0  0  0  0
   10.4254   -1.8033   -1.6749 H   0  0  0  0  0  0  0  0  0  0  0  0
   10.7750   -2.0247    1.3525 H   0  0  0  0  0  0  0  0  0  0  0  0
   11.7659    0.7406   -0.6875 H   0  0  0  0  0  0  0  0  0  0  0  0
   12.4542    0.3319    0.9473 H   0  0  0  0  0  0  0  0  0  0  0  0
   11.2280    2.0251    1.8803 H   0  0  0  0  0  0  0  0  0  0  0  0
   12.6937    2.8007   -0.5791 H   0  0  0  0  0  0  0  0  0  0  0  0
   13.4495    1.4225    2.9976 H   0  0  0  0  0  0  0  0  0  0  0  0
   14.7948    0.8949    1.9137 H   0  0  0  0  0  0  0  0  0  0  0  0
   11.2825    4.6096    0.0359 H   0  0  0  0  0  0  0  0  0  0  0  0
   12.9755    5.0200    0.3273 H   0  0  0  0  0  0  0  0  0  0  0  0
   11.5251    6.4569    3.2529 H   0  0  0  0  0  0  0  0  0  0  0  0
    8.6023   -2.0376    1.7869 H   0  0  0  0  0  0  0  0  0  0  0  0
    8.4432   -3.5036   -0.6373 H   0  0  0  0  0  0  0  0  0  0  0  0
    7.1611   -3.1007    0.4783 H   0  0  0  0  0  0  0  0  0  0  0  0
    5.8988   -0.4647   -1.8669 H   0  0  0  0  0  0  0  0  0  0  0  0
    8.8876   -0.0693   -2.2326 H   0  0  0  0  0  0  0  0  0  0  0  0
    7.5417   -0.2829   -3.4737 H   0  0  0  0  0  0  0  0  0  0  0  0
    8.5038    2.1567   -2.2948 H   0  0  0  0  0  0  0  0  0  0  0  0
    6.9287    1.9999   -3.1412 H   0  0  0  0  0  0  0  0  0  0  0  0
    7.4380    2.4793   -0.3314 H   0  0  0  0  0  0  0  0  0  0  0  0
    5.8564    2.0939   -1.0584 H   0  0  0  0  0  0  0  0  0  0  0  0
    6.5058    1.2142    1.4750 H   0  0  0  0  0  0  0  0  0  0  0  0
    6.5146   -0.6165    1.3419 H   0  0  0  0  0  0  0  0  0  0  0  0
    3.6097    1.4776    1.8833 H   0  0  0  0  0  0  0  0  0  0  0  0
    5.6494   -0.0306    3.0727 H   0  0  0  0  0  0  0  0  0  0  0  0
    4.3081    0.7929    3.8712 H   0  0  0  0  0  0  0  0  0  0  0  0
    4.6471   -2.0952    3.6714 H   0  0  0  0  0  0  0  0  0  0  0  0
    3.3268   -1.1527    4.3880 H   0  0  0  0  0  0  0  0  0  0  0  0
    3.6847   -2.2680    1.5316 H   0  0  0  0  0  0  0  0  0  0  0  0
    2.2823   -2.3508    2.5844 H   0  0  0  0  0  0  0  0  0  0  0  0
    0.4113   -1.8459    1.1653 H   0  0  0  0  0  0  0  0  0  0  0  0
    0.5246   -1.2043    3.3750 H   0  0  0  0  0  0  0  0  0  0  0  0
   -1.1371   -1.4477    2.8823 H   0  0  0  0  0  0  0  0  0  0  0  0
   -1.5622    2.5815    0.6131 H   0  0  0  0  0  0  0  0  0  0  0  0
   -1.0538    3.6933    1.9336 H   0  0  0  0  0  0  0  0  0  0  0  0
   -2.5473    4.7790    0.5997 H   0  0  0  0  0  0  0  0  0  0  0  0
   -2.8549    6.3381    3.8488 H   0  0  0  0  0  0  0  0  0  0  0  0
   -1.7118    6.1262    2.4487 H   0  0  0  0  0  0  0  0  0  0  0  0
   -1.7010    4.8991    3.7683 H   0  0  0  0  0  0  0  0  0  0  0  0
   -5.4715    5.0100    0.9476 H   0  0  0  0  0  0  0  0  0  0  0  0
   -6.2182    2.5108   -0.6708 H   0  0  0  0  0  0  0  0  0  0  0  0
   -7.7554    3.6608   -2.0430 H   0  0  0  0  0  0  0  0  0  0  0  0
   -6.0279    4.1384   -2.3396 H   0  0  0  0  0  0  0  0  0  0  0  0
   -7.5919    5.8997   -2.6779 H   0  0  0  0  0  0  0  0  0  0  0  0
   -8.2796    5.8331   -1.0665 H   0  0  0  0  0  0  0  0  0  0  0  0
   -6.1119    8.7594   -1.1806 H   0  0  0  0  0  0  0  0  0  0  0  0
   -8.9686    2.5407   -0.9813 H   0  0  0  0  0  0  0  0  0  0  0  0
   -9.8994    2.6948    1.8956 H   0  0  0  0  0  0  0  0  0  0  0  0
   -8.4575    0.6842   -0.4087 H   0  0  0  0  0  0  0  0  0  0  0  0
   -9.7629   -1.7710    0.7396 H   0  0  0  0  0  0  0  0  0  0  0  0
   -7.2314   -3.5151    0.4063 H   0  0  0  0  0  0  0  0  0  0  0  0
   -6.0672   -1.8900    2.6870 H   0  0  0  0  0  0  0  0  0  0  0  0
   -4.7179   -2.7169   -0.7700 H   0  0  0  0  0  0  0  0  0  0  0  0
   -3.3474   -0.1452   -0.2901 H   0  0  0  0  0  0  0  0  0  0  0  0
   -1.0880    0.4155   -0.0613 H   0  0  0  0  0  0  0  0  0  0  0  0
   -3.7369   -1.0275   -2.6454 H   0  0  0  0  0  0  0  0  0  0  0  0
   -2.0724   -0.5320   -2.3695 H   0  0  0  0  0  0  0  0  0  0  0  0
   -4.3330   -3.5732   -3.2247 H   0  0  0  0  0  0  0  0  0  0  0  0
   -2.9523   -5.6472   -3.7107 H   0  0  0  0  0  0  0  0  0  0  0  0
    0.1626   -1.8129   -1.6773 H   0  0  0  0  0  0  0  0  0  0  0  0
    2.1219   -3.2539   -1.8066 H   0  0  0  0  0  0  0  0  0  0  0  0
    1.8644   -5.5722   -2.7133 H   0  0  0  0  0  0  0  0  0  0  0  0
   -0.3059   -6.3691   -3.4439 H   0  0  0  0  0  0  0  0  0  0  0  0
   -4.4451   -3.4942    3.2252 H   0  0  0  0  0  0  0  0  0  0  0  0
   -6.0785   -4.1123    3.3659 H   0  0  0  0  0  0  0  0  0  0  0  0
   -3.8399   -4.8124    1.3288 H   0  0  0  0  0  0  0  0  0  0  0  0
   -4.5200   -5.8490    2.5731 H   0  0  0  0  0  0  0  0  0  0  0  0
   -5.2736   -6.6953    0.5475 H   0  0  0  0  0  0  0  0  0  0  0  0
   -5.8195   -5.1531   -0.0852 H   0  0  0  0  0  0  0  0  0  0  0  0
   -8.6198   -5.7027   -1.1937 H   0  0  0  0  0  0  0  0  0  0  0  0
   -7.0410   -6.5569   -1.1436 H   0  0  0  0  0  0  0  0  0  0  0  0
   -9.8979   -6.0683    1.8442 H   0  0  0  0  0  0  0  0  0  0  0  0
   -9.4447   -7.7697    1.3947 H   0  0  0  0  0  0  0  0  0  0  0  0
   -8.9840   -2.9982   -1.1729 H   0  0  0  0  0  0  0  0  0  0  0  0
  -10.1305   -1.7375   -1.6016 H   0  0  0  0  0  0  0  0  0  0  0  0
   -9.5663    0.2801   -2.6481 H   0  0  0  0  0  0  0  0  0  0  0  0
   -8.3265    1.2640   -4.4826 H   0  0  0  0  0  0  0  0  0  0  0  0
   -6.2438    0.2652   -5.2623 H   0  0  0  0  0  0  0  0  0  0  0  0
   -5.4134   -1.7207   -4.1944 H   0  0  0  0  0  0  0  0  0  0  0  0
   -6.6703   -2.7818   -2.2701 H   0  0  0  0  0  0  0  0  0  0  0  0
  -12.2093    2.4929    0.8385 H   0  0  0  0  0  0  0  0  0  0  0  0
  -11.4469    2.2643   -0.7484 H   0  0  0  0  0  0  0  0  0  0  0  0
  -10.6067    4.6464   -1.9958 H   0  0  0  0  0  0  0  0  0  0  0  0
  -12.2678    7.2985    0.8773 H   0  0  0  0  0  0  0  0  0  0  0  0
  -12.3399    4.8620    1.8402 H   0  0  0  0  0  0  0  0  0  0  0  0
  1  2  1  0
  2  3  1  0
  3  4  1  0
  4  5  1  0
  5  6  1  0
  6  7  1  0
  7  8  2  0
  7  9  1  0
  9 10  1  0
 10 11  1  0
 11 12  1  0
 12 13  2  0
 12 14  1  0
 11 15  1  0
 15 16  1  0
 16 17  2  0
 16 18  1  0
  6 19  1  0
 19 20  1  0
 20 21  1  0
 21 22  2  0
 21 23  1  0
 23 24  1  0
 24 25  1  0
 25 26  1  0
 26 27  1  0
 27 28  1  0
 28 29  1  0
 29 30  2  0
 29 31  1  0
 31 32  1  0
 32 33  1  0
 33 34  1  0
 34 35  1  0
 35 36  1  0
 36 37  2  0
 36 38  1  0
 38 39  1  0
 39 40  1  0
 40 41  1  0
 41 42  1  0
 42 43  1  0
 43 44  1  0
 44 45  2  0
 44 46  1  0
 43 47  1  0
 47 48  2  0
 47 49  1  0
 49 50  1  0
 50 51  1  0
 51 52  1  0
 52 53  1  0
 53 54  2  0
 53 55  1  0
 50 56  1  0
 56 57  2  0
 56 58  1  0
 58 59  1  0
 59 60  1  0
 60 61  2  0
 60 62  1  0
 62 63  1  0
 63 64  1  0
 64 65  2  0
 64 66  1  0
 66 67  1  0
 67 68  1  0
 68 69  2  0
 68 70  1  0
 70 71  1  0
 71 72  1  0
 72 73  2  0
 72 74  1  0
 71 75  1  0
 75 76  1  0
 76 77  2  0
 77 78  1  0
 78 79  1  0
 79 80  2  0
 80 81  1  0
 81 82  2  0
 82 83  1  0
 83 84  2  0
 67 85  1  0
 85 86  1  0
 86 87  1  0
 87 88  1  0
 88 89  2  3
 89 90  1  0
 89 91  1  0
 63 92  1  0
 92 93  1  0
 93 94  2  0
 94 95  1  0
 95 96  2  0
 96 97  1  0
 97 98  2  0
 59 99  1  0
 99100  1  0
100101  2  0
101102  1  0
102103  2  0
103104  1  0
 27 23  1  0
 35 31  1  0
 74 38  1  0
 80 76  1  0
 98 93  1  0
104100  1  0
 84 79  1  0
  1105  1  0
  1106  1  0
  2107  1  0
  2108  1  0
  3109  1  0
  3110  1  0
  4111  1  0
  4112  1  0
  5113  1  0
  5114  1  0
  6115  1  1
  9116  1  0
  9117  1  0
 10118  1  0
 11119  1  6
 14120  1  0
 14121  1  0
 15122  1  0
 15123  1  0
 18124  1  0
 19125  1  0
 20126  1  0
 20127  1  0
 23128  1  6
 24129  1  0
 24130  1  0
 25131  1  0
 25132  1  0
 26133  1  0
 26134  1  0
 28135  1  0
 28136  1  0
 31137  1  1
 32138  1  0
 32139  1  0
 33140  1  0
 33141  1  0
 34142  1  0
 34143  1  0
 38144  1  6
 39145  1  0
 39146  1  0
 42147  1  0
 42148  1  0
 43149  1  6
 46150  1  0
 46151  1  0
 46152  1  0
 49153  1  0
 50154  1  6
 51155  1  0
 51156  1  0
 52157  1  0
 52158  1  0
 55159  1  0
 58160  1  0
 59161  1  1
 62162  1  0
 63163  1  1
 66164  1  0
 67165  1  1
 70166  1  0
 71167  1  6
 74168  1  0
 75169  1  0
 75170  1  0
 77171  1  0
 78172  1  0
 81173  1  0
 82174  1  0
 83175  1  0
 84176  1  0
 85177  1  0
 85178  1  0
 86179  1  0
 86180  1  0
 87181  1  0
 87182  1  0
 90183  1  0
 90184  1  0
 91185  1  0
 91186  1  0
 92187  1  0
 92188  1  0
 94189  1  0
 95190  1  0
 96191  1  0
 97192  1  0
 98193  1  0
 99194  1  0
 99195  1  0
101196  1  0
103197  1  0
104198  1  0
M  END
>  <Ligand ID>  (1) 
LIG0003269

>  <Ligand>  (1) 
CHEMBL2112604

>  <SMILES>  (1) 
NCCCC[C@@H](C(=O)CN[C@H](C(=O)N)CC(=O)O)NCC(=O)[C@@H]1CCCN1CC(=O)[C@@H]1CCCN1C(=O)[C@H]1CSSC[C@H](C(=O)C)C(=O)N[C@H](CCC(=O)O)C(=O)N[C@H](C(=O)N[C@H](C(=O)N[C@H](C(=O)N[C@@H](C(=O)N1)Cc1c[nH]c2c1cccc2)CCCN=C(N)N)Cc1ccccc1)Cc1cnc[nH]1

>  <CID>  (1) 
71456220.0

>  <ChEMBL ID>  (1) 
nan

>  <InChiKey>  (1) 
MWAZOIYNZZSBNG-CNHKDGHKSA-N

>  <InChi>  (1) 
InChI=1S/C68H94N18O16S2/c1-38(87)43-35-103-104-36-52(67(102)86-25-11-19-54(86)57(90)34-85-24-10-18-53(85)56(89)33-76-45(16-7-8-22-69)55(88)32-77-48(60(70)95)29-59(93)94)84-65(100)50(27-40-30-75-44-15-6-5-14-42(40)44)82-62(97)46(17-9-23-74-68(71)72)80-64(99)49(26-39-12-3-2-4-13-39)81-66(101)51(28-41-31-73-37-78-41)83-63(98)47(79-61(43)96)20-21-58(91)92/h2-6,12-15,30-31,37,43,45-54,75-77H,7-11,16-29,32-36,69H2,1H3,(H2,70,95)(H,73,78)(H,79,96)(H,80,99)(H,81,101)(H,82,97)(H,83,98)(H,84,100)(H,91,92)(H,93,94)(H4,71,72,74)/t43-,45+,46+,47-,48+,49+,50-,51+,52-,53+,54+/m1/s1

>  <IUPAC Name>  (1) 
(3S)-3-[[(3S)-3-[[2-[(2S)-1-[2-[(2S)-1-[(4S,7R,10S,13S,16S,19R,22R)-22-acetyl-13-benzyl-19-(2-carboxyethyl)-10-[3-(diaminomethylideneamino)propyl]-16-(1H-imidazol-5-ylmethyl)-7-(1H-indol-3-ylmethyl)-6,9,12,15,18,21-hexaoxo-1,2-dithia-5,8,11,14,17,20-hexazacyclotricosane-4-carbonyl]pyrrolidin-2-yl]-2-oxoethyl]pyrrolidin-2-yl]-2-oxoethyl]amino]-7-amino-2-oxoheptyl]amino]-4-amino-4-oxobutanoic acid

$$$$
