
     RDKit          3D

 19 19  0  0  0  0  0  0  0  0999 V2000
    2.2769   -0.3322    0.1723 C   0  0  0  0  0  0  0  0  0  0  0  0
    1.2940   -0.2817   -0.9628 C   0  0  0  0  0  0  0  0  0  0  0  0
    0.0273    0.3389   -0.4773 C   0  0  0  0  0  0  0  0  0  0  0  0
   -0.1849    1.6499   -0.8027 N   0  0  0  0  0  0  0  0  0  0  0  0
   -1.3042    2.2614   -0.3835 C   0  0  0  0  0  0  0  0  0  0  0  0
   -2.2183    1.5379    0.3728 C   0  0  0  0  0  0  0  0  0  0  0  0
   -2.0263    0.2539    0.6989 N   0  0  0  0  0  0  0  0  0  0  0  0
   -0.8920   -0.3660    0.2743 C   0  0  0  0  0  0  0  0  0  0  0  0
   -0.6939   -1.7874    0.6303 C   0  0  0  0  0  0  0  0  0  0  0  0
    1.8548   -0.0633    1.1498 H   0  0  0  0  0  0  0  0  0  0  0  0
    2.7294   -1.3646    0.2046 H   0  0  0  0  0  0  0  0  0  0  0  0
    3.1049    0.3874   -0.0382 H   0  0  0  0  0  0  0  0  0  0  0  0
    1.0511   -1.3361   -1.2462 H   0  0  0  0  0  0  0  0  0  0  0  0
    1.6314    0.2910   -1.8257 H   0  0  0  0  0  0  0  0  0  0  0  0
   -1.5209    3.3160   -0.6211 H   0  0  0  0  0  0  0  0  0  0  0  0
   -3.1472    1.9904    0.7408 H   0  0  0  0  0  0  0  0  0  0  0  0
    0.0532   -1.8749    1.4432 H   0  0  0  0  0  0  0  0  0  0  0  0
   -0.3371   -2.4010   -0.2449 H   0  0  0  0  0  0  0  0  0  0  0  0
   -1.6983   -2.2194    0.9154 H   0  0  0  0  0  0  0  0  0  0  0  0
  1  2  1  0
  2  3  1  0
  3  4  2  0
  4  5  1  0
  5  6  2  0
  6  7  1  0
  7  8  2  0
  8  9  1  0
  8  3  1  0
  1 10  1  0
  1 11  1  0
  1 12  1  0
  2 13  1  0
  2 14  1  0
  5 15  1  0
  6 16  1  0
  9 17  1  0
  9 18  1  0
  9 19  1  0
M  END
>  <Ligand ID>  (1) 
LIG0000301

>  <Ligand>  (1) 
2-Ethyl-3-methylpyrazine

>  <SMILES>  (1) 
CCc1nccnc1C

>  <CID>  (1) 
27457.0

>  <ChEMBL ID>  (1) 
nan

>  <InChiKey>  (1) 
LNIMMWYNSBZESE-UHFFFAOYSA-N

>  <InChi>  (1) 
InChI=1S/C7H10N2/c1-3-7-6(2)8-4-5-9-7/h4-5H,3H2,1-2H3

>  <IUPAC Name>  (1) 
2-ethyl-3-methylpyrazine

$$$$
