
     RDKit          3D

 63 66  0  0  0  0  0  0  0  0999 V2000
    5.3960    1.4403    0.2961 O   0  0  0  0  0  0  0  0  0  0  0  0
    5.2339    0.3219    0.7903 C   0  0  0  0  0  0  0  0  0  0  0  0
    3.9405   -0.2340    0.7974 N   0  0  0  0  0  0  0  0  0  0  0  0
    2.7590    0.3489    0.3055 C   0  0  0  0  0  0  0  0  0  0  0  0
    2.6457    1.5843   -0.2757 C   0  0  0  0  0  0  0  0  0  0  0  0
    1.4202    2.0880   -0.7245 C   0  0  0  0  0  0  0  0  0  0  0  0
    0.2538    1.3612   -0.6040 C   0  0  0  0  0  0  0  0  0  0  0  0
    0.3616    0.1158   -0.0194 C   0  0  0  0  0  0  0  0  0  0  0  0
    1.5636   -0.3721    0.4179 C   0  0  0  0  0  0  0  0  0  0  0  0
   -0.8918   -0.7463    0.1641 C   0  0  0  0  0  0  0  0  0  0  0  0
   -1.3836   -0.3692    1.5344 C   0  0  0  0  0  0  0  0  0  0  0  0
   -2.5133   -1.0551    1.9576 N   0  0  0  0  0  0  0  0  0  0  0  0
   -3.7724   -0.8505    1.4520 C   0  0  0  0  0  0  0  0  0  0  0  0
   -4.1487   -1.2660    0.0586 C   0  0  0  0  0  0  0  0  0  0  0  0
   -5.6782   -1.1235   -0.0304 C   0  0  0  0  0  0  0  0  0  0  0  0
   -6.4687   -2.2192    0.2536 C   0  0  0  0  0  0  0  0  0  0  0  0
   -7.8617   -2.1127    0.1800 C   0  0  0  0  0  0  0  0  0  0  0  0
   -8.4380   -0.9130   -0.1752 C   0  0  0  0  0  0  0  0  0  0  0  0
   -7.6279    0.1687   -0.4542 C   0  0  0  0  0  0  0  0  0  0  0  0
   -6.2333    0.0872   -0.3883 C   0  0  0  0  0  0  0  0  0  0  0  0
   -5.4319    1.1752   -0.6667 C   0  0  0  0  0  0  0  0  0  0  0  0
   -6.1034    2.3502   -1.0152 C   0  0  0  0  0  0  0  0  0  0  0  0
   -7.4738    2.4224   -1.0781 C   0  0  0  0  0  0  0  0  0  0  0  0
   -8.0619    3.5023   -1.3984 O   0  0  0  0  0  0  0  0  0  0  0  0
   -8.2414    1.3342   -0.7986 N   0  0  0  0  0  0  0  0  0  0  0  0
   -9.8109   -0.7700   -0.2579 O   0  0  0  0  0  0  0  0  0  0  0  0
   -3.8981   -2.6530   -0.0150 O   0  0  0  0  0  0  0  0  0  0  0  0
    6.3330   -0.3638    1.3288 N   0  0  0  0  0  0  0  0  0  0  0  0
    7.6997   -0.0143    1.4344 C   0  0  0  0  0  0  0  0  0  0  0  0
    8.4638    0.2341    0.2156 C   0  0  0  0  0  0  0  0  0  0  0  0
    8.6508    1.4232   -0.4229 C   0  0  0  0  0  0  0  0  0  0  0  0
    8.1259    2.9453    0.2871 Cl  0  0  0  0  0  0  0  0  0  0  0  0
    9.3392    1.5412   -1.6388 C   0  0  0  0  0  0  0  0  0  0  0  0
    9.8608    0.4231   -2.2323 C   0  0  0  0  0  0  0  0  0  0  0  0
    9.6934   -0.7915   -1.6158 C   0  0  0  0  0  0  0  0  0  0  0  0
    9.0092   -0.8956   -0.4129 C   0  0  0  0  0  0  0  0  0  0  0  0
    8.8319   -2.4800    0.3220 Cl  0  0  0  0  0  0  0  0  0  0  0  0
    3.8499   -1.1971    1.2186 H   0  0  0  0  0  0  0  0  0  0  0  0
    3.4853    2.2295   -0.4167 H   0  0  0  0  0  0  0  0  0  0  0  0
    1.3557    3.0657   -1.1785 H   0  0  0  0  0  0  0  0  0  0  0  0
   -0.6965    1.7416   -0.9454 H   0  0  0  0  0  0  0  0  0  0  0  0
    1.5493   -1.3710    0.8680 H   0  0  0  0  0  0  0  0  0  0  0  0
   -0.5927   -1.8104    0.1361 H   0  0  0  0  0  0  0  0  0  0  0  0
   -1.5217   -0.4890   -0.6725 H   0  0  0  0  0  0  0  0  0  0  0  0
   -1.5247    0.7636    1.5233 H   0  0  0  0  0  0  0  0  0  0  0  0
   -0.5376   -0.4713    2.2827 H   0  0  0  0  0  0  0  0  0  0  0  0
   -2.3214   -1.9977    2.3473 H   0  0  0  0  0  0  0  0  0  0  0  0
   -4.1028    0.2536    1.6059 H   0  0  0  0  0  0  0  0  0  0  0  0
   -4.5450   -1.3438    2.1622 H   0  0  0  0  0  0  0  0  0  0  0  0
   -3.7011   -0.7354   -0.7565 H   0  0  0  0  0  0  0  0  0  0  0  0
   -6.0773   -3.1777    0.5355 H   0  0  0  0  0  0  0  0  0  0  0  0
   -8.5114   -2.9495    0.3958 H   0  0  0  0  0  0  0  0  0  0  0  0
   -4.3664    1.1544   -0.6260 H   0  0  0  0  0  0  0  0  0  0  0  0
   -5.4970    3.2128   -1.2356 H   0  0  0  0  0  0  0  0  0  0  0  0
   -9.2733    1.4074   -0.8512 H   0  0  0  0  0  0  0  0  0  0  0  0
  -10.4363   -1.0891    0.4585 H   0  0  0  0  0  0  0  0  0  0  0  0
   -4.0737   -3.0296    0.8769 H   0  0  0  0  0  0  0  0  0  0  0  0
    6.0844   -1.3396    1.7364 H   0  0  0  0  0  0  0  0  0  0  0  0
    7.7373    0.9483    2.0667 H   0  0  0  0  0  0  0  0  0  0  0  0
    8.2144   -0.7394    2.1184 H   0  0  0  0  0  0  0  0  0  0  0  0
    9.4691    2.5055   -2.1209 H   0  0  0  0  0  0  0  0  0  0  0  0
   10.3869    0.5279   -3.1662 H   0  0  0  0  0  0  0  0  0  0  0  0
   10.1037   -1.7069   -2.0702 H   0  0  0  0  0  0  0  0  0  0  0  0
  1  2  2  0
  2  3  1  0
  3  4  1  0
  4  5  2  0
  5  6  1  0
  6  7  2  0
  7  8  1  0
  8  9  2  0
  8 10  1  0
 10 11  1  0
 11 12  1  0
 12 13  1  0
 13 14  1  0
 14 15  1  0
 15 16  2  0
 16 17  1  0
 17 18  2  0
 18 19  1  0
 19 20  2  0
 20 21  1  0
 21 22  2  0
 22 23  1  0
 23 24  2  0
 23 25  1  0
 18 26  1  0
 14 27  1  0
  2 28  1  0
 28 29  1  0
 29 30  1  0
 30 31  2  0
 31 32  1  0
 31 33  1  0
 33 34  2  0
 34 35  1  0
 35 36  2  0
 36 37  1  0
  9  4  1  0
 20 15  1  0
 36 30  1  0
 25 19  1  0
  3 38  1  0
  5 39  1  0
  6 40  1  0
  7 41  1  0
  9 42  1  0
 10 43  1  0
 10 44  1  0
 11 45  1  0
 11 46  1  0
 12 47  1  0
 13 48  1  0
 13 49  1  0
 14 50  1  0
 16 51  1  0
 17 52  1  0
 21 53  1  0
 22 54  1  0
 25 55  1  0
 26 56  1  0
 27 57  1  0
 28 58  1  0
 29 59  1  0
 29 60  1  0
 33 61  1  0
 34 62  1  0
 35 63  1  0
M  END
>  <Ligand ID>  (1) 
LIG0005862

>  <Ligand>  (1) 
CHEMBL1682217

>  <SMILES>  (1) 
O=C(Nc1cccc(c1)CCNCC(c1ccc(c2c1ccc(=O)[nH]2)O)O)NCc1c(Cl)cccc1Cl

>  <CID>  (1) 
44237669.0

>  <ChEMBL ID>  (1) 
nan

>  <InChiKey>  (1) 
AGRBGRIZVSNPBG-UHFFFAOYSA-N

>  <InChi>  (1) 
InChI=1S/C27H26Cl2N4O4/c28-21-5-2-6-22(29)20(21)14-31-27(37)32-17-4-1-3-16(13-17)11-12-30-15-24(35)18-7-9-23(34)26-19(18)8-10-25(36)33-26/h1-10,13,24,30,34-35H,11-12,14-15H2,(H,33,36)(H2,31,32,37)

>  <IUPAC Name>  (1) 
1-[(2,6-dichlorophenyl)methyl]-3-[3-[2-[[2-hydroxy-2-(8-hydroxy-2-oxo-1H-quinolin-5-yl)ethyl]amino]ethyl]phenyl]urea

$$$$
