
     RDKit          3D

 34 34  0  0  0  0  0  0  0  0999 V2000
   -2.9037    1.8158    0.2718 O   0  0  0  0  0  0  0  0  0  0  0  0
   -4.2748    1.8932    0.2954 C   0  0  0  0  0  0  0  0  0  0  0  0
   -4.9382    0.5999   -0.0054 C   0  0  0  0  0  0  0  0  0  0  0  0
   -4.2812   -0.5168   -0.2692 C   0  0  0  0  0  0  0  0  0  0  0  0
   -2.8454   -0.5218   -0.2745 C   0  0  0  0  0  0  0  0  0  0  0  0
   -1.6339   -0.5446   -0.2701 C   0  0  0  0  0  0  0  0  0  0  0  0
   -0.1991   -0.5961   -0.2598 C   0  0  0  0  0  0  0  0  0  0  0  0
    0.4263   -1.3875    0.6791 C   0  0  0  0  0  0  0  0  0  0  0  0
    1.7911   -1.5168    0.7868 C   0  0  0  0  0  0  0  0  0  0  0  0
    2.5930   -0.8111   -0.0996 C   0  0  0  0  0  0  0  0  0  0  0  0
    1.9762   -0.0200   -1.0394 C   0  0  0  0  0  0  0  0  0  0  0  0
    0.5967    0.1010   -1.1362 C   0  0  0  0  0  0  0  0  0  0  0  0
    2.7236    0.6701   -1.9326 F   0  0  0  0  0  0  0  0  0  0  0  0
    4.0515   -0.9587    0.0499 C   0  0  0  0  0  0  0  0  0  0  0  0
    4.7490    0.1352    0.7665 C   0  0  0  0  0  0  0  0  0  0  0  0
    4.5644    1.4261    0.1021 C   0  0  0  0  0  0  0  0  0  0  0  0
    3.6432    2.2479    0.4410 O   0  0  0  0  0  0  0  0  0  0  0  0
    5.4437    1.7478   -0.9404 O   0  0  0  0  0  0  0  0  0  0  0  0
   -5.0190   -1.7975   -0.5668 C   0  0  0  0  0  0  0  0  0  0  0  0
   -2.4442    2.4791    0.8087 H   0  0  0  0  0  0  0  0  0  0  0  0
   -4.6074    2.6686   -0.4495 H   0  0  0  0  0  0  0  0  0  0  0  0
   -4.5969    2.2337    1.3230 H   0  0  0  0  0  0  0  0  0  0  0  0
   -6.0194    0.5705   -0.0084 H   0  0  0  0  0  0  0  0  0  0  0  0
   -0.2077   -1.9473    1.3827 H   0  0  0  0  0  0  0  0  0  0  0  0
    2.2290   -2.1492    1.5409 H   0  0  0  0  0  0  0  0  0  0  0  0
    0.1193    0.7193   -1.8695 H   0  0  0  0  0  0  0  0  0  0  0  0
    4.3210   -1.9505    0.5014 H   0  0  0  0  0  0  0  0  0  0  0  0
    4.5000   -1.0222   -0.9791 H   0  0  0  0  0  0  0  0  0  0  0  0
    4.4345    0.1587    1.8390 H   0  0  0  0  0  0  0  0  0  0  0  0
    5.8484   -0.1230    0.7421 H   0  0  0  0  0  0  0  0  0  0  0  0
    5.4795    2.7140   -1.2523 H   0  0  0  0  0  0  0  0  0  0  0  0
   -4.8407   -2.5415    0.2256 H   0  0  0  0  0  0  0  0  0  0  0  0
   -6.0987   -1.5874   -0.6761 H   0  0  0  0  0  0  0  0  0  0  0  0
   -4.5800   -2.1888   -1.5110 H   0  0  0  0  0  0  0  0  0  0  0  0
  1  2  1  0
  2  3  1  0
  3  4  2  0
  4  5  1  0
  5  6  3  0
  6  7  1  0
  7  8  2  0
  8  9  1  0
  9 10  2  0
 10 11  1  0
 11 12  2  0
 11 13  1  0
 10 14  1  0
 14 15  1  0
 15 16  1  0
 16 17  2  0
 16 18  1  0
  4 19  1  0
 12  7  1  0
  1 20  1  0
  2 21  1  0
  2 22  1  0
  3 23  1  0
  8 24  1  0
  9 25  1  0
 12 26  1  0
 14 27  1  0
 14 28  1  0
 15 29  1  0
 15 30  1  0
 18 31  1  0
 19 32  1  0
 19 33  1  0
 19 34  1  0
M  END
>  <Ligand ID>  (1) 
LIG0005561

>  <Ligand>  (1) 
CHEMBL3785413

>  <SMILES>  (1) 
OC/C=C(\C#Cc1ccc(c(c1)F)CCC(=O)O)/C

>  <CID>  (1) 
66562391.0

>  <ChEMBL ID>  (1) 
nan

>  <InChiKey>  (1) 
JVYDPNBFCZQRAE-FLIBITNWSA-N

>  <InChi>  (1) 
InChI=1S/C15H15FO3/c1-11(8-9-17)2-3-12-4-5-13(14(16)10-12)6-7-15(18)19/h4-5,8,10,17H,6-7,9H2,1H3,(H,18,19)/b11-8-

>  <IUPAC Name>  (1) 
3-[2-fluoro-4-[(Z)-5-hydroxy-3-methylpent-3-en-1-ynyl]phenyl]propanoic acid

$$$$
