
     RDKit          3D

 50 54  0  0  0  0  0  0  0  0999 V2000
   -8.1678    2.1909    0.7691 F   0  0  0  0  0  0  0  0  0  0  0  0
   -6.8817    1.8005    0.5400 C   0  0  0  0  0  0  0  0  0  0  0  0
   -6.3549    1.6810   -0.7295 C   0  0  0  0  0  0  0  0  0  0  0  0
   -5.0558    1.2868   -0.9631 C   0  0  0  0  0  0  0  0  0  0  0  0
   -4.2674    1.0053    0.1271 C   0  0  0  0  0  0  0  0  0  0  0  0
   -4.7663    1.1152    1.4261 C   0  0  0  0  0  0  0  0  0  0  0  0
   -6.0880    1.5171    1.6372 C   0  0  0  0  0  0  0  0  0  0  0  0
   -3.9549    0.8274    2.4928 F   0  0  0  0  0  0  0  0  0  0  0  0
   -2.9028    0.5885   -0.0390 N   0  0  0  0  0  0  0  0  0  0  0  0
   -1.8780    1.3553    0.2883 N   0  0  0  0  0  0  0  0  0  0  0  0
   -0.7373    0.6951    0.0190 C   0  0  0  0  0  0  0  0  0  0  0  0
   -1.0645   -0.5390   -0.4996 C   0  0  0  0  0  0  0  0  0  0  0  0
   -2.4398   -0.5740   -0.5227 C   0  0  0  0  0  0  0  0  0  0  0  0
   -2.9025   -1.8691   -1.0679 C   0  0  2  0  0  0  0  0  0  0  0  0
   -2.5662   -3.1540   -0.3237 C   0  0  0  0  0  0  0  0  0  0  0  0
   -1.7100   -2.6387   -1.4188 C   0  0  2  0  0  0  0  0  0  0  0  0
   -0.5317   -1.8008   -1.0243 C   0  0  0  0  0  0  0  0  0  0  0  0
    0.5958    1.2645    0.2655 C   0  0  0  0  0  0  0  0  0  0  0  0
    0.6465    2.4236    0.7519 O   0  0  0  0  0  0  0  0  0  0  0  0
    1.7782    0.5342   -0.0340 N   0  0  0  0  0  0  0  0  0  0  0  0
    3.1134    1.0512    0.1905 C   0  0  0  0  0  0  0  0  0  0  0  0
    4.0849    0.0141   -0.1825 C   0  0  0  0  0  0  0  0  0  0  0  0
    4.0551   -1.1913    0.4999 C   0  0  0  0  0  0  0  0  0  0  0  0
    4.9318   -2.2269    0.2173 C   0  0  0  0  0  0  0  0  0  0  0  0
    5.8817   -2.0489   -0.7941 C   0  0  0  0  0  0  0  0  0  0  0  0
    5.9298   -0.8586   -1.4859 C   0  0  0  0  0  0  0  0  0  0  0  0
    5.0351    0.1462   -1.1693 C   0  0  0  0  0  0  0  0  0  0  0  0
    3.2628    2.3030   -0.6302 C   0  0  0  0  0  0  0  0  0  0  0  0
    3.3392    1.4303    1.6333 C   0  0  0  0  0  0  0  0  0  0  0  0
   -7.0043    1.9106   -1.5608 H   0  0  0  0  0  0  0  0  0  0  0  0
   -4.6343    1.1903   -1.9537 H   0  0  0  0  0  0  0  0  0  0  0  0
   -6.4534    1.5955    2.6487 H   0  0  0  0  0  0  0  0  0  0  0  0
   -3.8174   -1.8534   -1.6934 H   0  0  0  0  0  0  0  0  0  0  0  0
   -3.2669   -3.9899   -0.5046 H   0  0  0  0  0  0  0  0  0  0  0  0
   -2.2113   -3.0009    0.7156 H   0  0  0  0  0  0  0  0  0  0  0  0
   -1.6263   -3.2749   -2.3226 H   0  0  0  0  0  0  0  0  0  0  0  0
    0.0887   -1.6808   -1.9444 H   0  0  0  0  0  0  0  0  0  0  0  0
    0.1269   -2.3004   -0.2836 H   0  0  0  0  0  0  0  0  0  0  0  0
    1.6221   -0.4309   -0.4396 H   0  0  0  0  0  0  0  0  0  0  0  0
    3.3198   -1.3295    1.2831 H   0  0  0  0  0  0  0  0  0  0  0  0
    4.8790   -3.1544    0.7712 H   0  0  0  0  0  0  0  0  0  0  0  0
    6.5445   -2.8790   -0.9821 H   0  0  0  0  0  0  0  0  0  0  0  0
    6.6691   -0.7493   -2.2572 H   0  0  0  0  0  0  0  0  0  0  0  0
    5.0882    1.0646   -1.7187 H   0  0  0  0  0  0  0  0  0  0  0  0
    2.7008    3.1091   -0.1237 H   0  0  0  0  0  0  0  0  0  0  0  0
    4.3177    2.6478   -0.6906 H   0  0  0  0  0  0  0  0  0  0  0  0
    2.8011    2.1758   -1.6382 H   0  0  0  0  0  0  0  0  0  0  0  0
    4.4599    1.4023    1.7741 H   0  0  0  0  0  0  0  0  0  0  0  0
    3.0762    2.4954    1.8176 H   0  0  0  0  0  0  0  0  0  0  0  0
    2.9356    0.7231    2.3629 H   0  0  0  0  0  0  0  0  0  0  0  0
  1  2  1  0
  2  3  2  0
  3  4  1  0
  4  5  2  0
  5  6  1  0
  6  7  2  0
  6  8  1  0
  5  9  1  0
  9 10  1  0
 10 11  2  0
 11 12  1  0
 12 13  2  0
 13 14  1  0
 14 15  1  0
 15 16  1  0
 16 17  1  0
 11 18  1  0
 18 19  2  0
 18 20  1  0
 20 21  1  0
 21 22  1  0
 22 23  2  0
 23 24  1  0
 24 25  2  0
 25 26  1  0
 26 27  2  0
 21 28  1  0
 21 29  1  0
  7  2  1  0
 13  9  1  0
 16 14  1  0
 27 22  1  0
 17 12  1  0
  3 30  1  0
  4 31  1  0
  7 32  1  0
 14 33  1  6
 15 34  1  0
 15 35  1  0
 16 36  1  6
 17 37  1  0
 17 38  1  0
 20 39  1  0
 23 40  1  0
 24 41  1  0
 25 42  1  0
 26 43  1  0
 27 44  1  0
 28 45  1  0
 28 46  1  0
 28 47  1  0
 29 48  1  0
 29 49  1  0
 29 50  1  0
M  END
>  <Ligand ID>  (1) 
LIG0001480

>  <Ligand>  (1) 
CHEMBL3354942

>  <SMILES>  (1) 
Fc1ccc(c(c1)F)n1nc(c2c1[C@@H]1C[C@@H]1C2)C(=O)NC(c1ccccc1)(C)C

>  <CID>  (1) 
86688562.0

>  <ChEMBL ID>  (1) 
nan

>  <InChiKey>  (1) 
HZJISAONKFNAPO-CZUORRHYSA-N

>  <InChi>  (1) 
InChI=1S/C23H21F2N3O/c1-23(2,14-6-4-3-5-7-14)26-22(29)20-17-11-13-10-16(13)21(17)28(27-20)19-9-8-15(24)12-18(19)25/h3-9,12-13,16H,10-11H2,1-2H3,(H,26,29)/t13-,16-/m1/s1

>  <IUPAC Name>  (1) 
(2R,4R)-9-(2,4-difluorophenyl)-N-(2-phenylpropan-2-yl)-8,9-diazatricyclo[4.3.0.02,4]nona-1(6),7-diene-7-carboxamide

$$$$
