
     RDKit          3D

 29 28  0  0  0  0  0  0  0  0999 V2000
   -4.2375    0.5814    0.5108 N   0  0  0  0  0  0  0  0  0  0  0  0
   -2.9089    1.1658    0.5012 C   0  0  0  0  0  0  0  0  0  0  0  0
   -2.8046    2.1595   -0.2863 O   0  0  0  0  0  0  0  0  0  0  0  0
   -1.8673    0.6229    1.3367 C   0  0  0  0  0  0  0  0  0  0  0  0
   -0.4757    0.4606    0.8429 C   0  0  0  0  0  0  0  0  0  0  0  0
   -0.1818   -0.5067   -0.2134 C   0  0  1  0  0  0  0  0  0  0  0  0
   -0.7338   -0.3895   -1.5530 C   0  0  0  0  0  0  0  0  0  0  0  0
   -1.4080    0.4801   -2.0821 O   0  0  0  0  0  0  0  0  0  0  0  0
   -0.4310   -1.5011   -2.4138 O   0  0  0  0  0  0  0  0  0  0  0  0
    1.1896   -1.0528   -0.2838 C   0  0  0  0  0  0  0  0  0  0  0  0
    2.3802   -0.2251   -0.5042 C   0  0  1  0  0  0  0  0  0  0  0  0
    2.7525    0.8166    0.4411 C   0  0  0  0  0  0  0  0  0  0  0  0
    3.6375    0.4927    1.3234 O   0  0  0  0  0  0  0  0  0  0  0  0
    2.2984    2.1085    0.5269 O   0  0  0  0  0  0  0  0  0  0  0  0
    3.5443   -1.1898   -0.4945 N   0  0  0  0  0  0  0  0  0  0  0  0
   -4.3229   -0.4753    0.5509 H   0  0  0  0  0  0  0  0  0  0  0  0
   -5.0755    1.1944    0.4789 H   0  0  0  0  0  0  0  0  0  0  0  0
   -1.7568    1.2246    2.3110 H   0  0  0  0  0  0  0  0  0  0  0  0
   -2.2504   -0.3668    1.7636 H   0  0  0  0  0  0  0  0  0  0  0  0
    0.1612    0.2291    1.7205 H   0  0  0  0  0  0  0  0  0  0  0  0
   -0.1473    1.5125    0.5535 H   0  0  0  0  0  0  0  0  0  0  0  0
   -0.7793   -1.4761    0.1947 H   0  0  0  0  0  0  0  0  0  0  0  0
   -0.5974   -1.4231   -3.4062 H   0  0  0  0  0  0  0  0  0  0  0  0
    1.1636   -1.7843   -1.1694 H   0  0  0  0  0  0  0  0  0  0  0  0
    1.3794   -1.7988    0.5687 H   0  0  0  0  0  0  0  0  0  0  0  0
    2.3900    0.1224   -1.5677 H   0  0  0  0  0  0  0  0  0  0  0  0
    2.0500    2.5402    1.4099 H   0  0  0  0  0  0  0  0  0  0  0  0
    3.5754   -1.7007   -1.3904 H   0  0  0  0  0  0  0  0  0  0  0  0
    3.4560   -1.8214    0.3296 H   0  0  0  0  0  0  0  0  0  0  0  0
  1  2  1  0
  2  3  2  0
  2  4  1  0
  4  5  1  0
  5  6  1  0
  6  7  1  0
  7  8  2  0
  7  9  1  0
  6 10  1  0
 10 11  1  0
 11 12  1  0
 12 13  2  0
 12 14  1  0
 11 15  1  0
  1 16  1  0
  1 17  1  0
  4 18  1  0
  4 19  1  0
  5 20  1  0
  5 21  1  0
  6 22  1  1
  9 23  1  0
 10 24  1  0
 10 25  1  0
 11 26  1  6
 14 27  1  0
 15 28  1  0
 15 29  1  0
M  END
>  <Ligand ID>  (1) 
LIG0000645

>  <Ligand>  (1) 
CHEMBL479804

>  <SMILES>  (1) 
NC(=O)CC[C@@H](C(=O)O)C[C@@H](C(=O)O)N

>  <CID>  (1) 
24905646.0

>  <ChEMBL ID>  (1) 
nan

>  <InChiKey>  (1) 
BFKOJIBMYJQCOV-UHNVWZDZSA-N

>  <InChi>  (1) 
InChI=1S/C8H14N2O5/c9-5(8(14)15)3-4(7(12)13)1-2-6(10)11/h4-5H,1-3,9H2,(H2,10,11)(H,12,13)(H,14,15)/t4-,5+/m1/s1

>  <IUPAC Name>  (1) 
(2S,4R)-2-amino-4-(3-amino-3-oxopropyl)pentanedioic acid

$$$$
