
     RDKit          3D

 56 58  0  0  0  0  0  0  0  0999 V2000
    2.3789   -1.0325   -3.2649 O   0  0  0  0  0  0  0  0  0  0  0  0
    2.1722   -0.0848   -2.2696 C   0  0  2  0  0  0  0  0  0  0  0  0
    3.5482    0.2658   -1.6880 C   0  0  2  0  0  0  0  0  0  0  0  0
    4.5851   -0.0975   -2.5165 O   0  0  0  0  0  0  0  0  0  0  0  0
    3.4984   -0.5049   -0.3964 C   0  0  2  0  0  0  0  0  0  0  0  0
    2.1860   -0.2661    0.0063 O   0  0  0  0  0  0  0  0  0  0  0  0
    1.5108   -0.7727   -1.1140 C   0  0  1  0  0  0  0  0  0  0  0  0
    0.0934   -0.6461   -1.0551 N   0  0  0  0  0  0  0  0  0  0  0  0
   -0.6438   -1.5659   -1.7452 C   0  0  0  0  0  0  0  0  0  0  0  0
   -2.0060   -1.5595   -1.7729 C   0  0  0  0  0  0  0  0  0  0  0  0
   -2.6648   -0.5750   -1.0687 C   0  0  0  0  0  0  0  0  0  0  0  0
   -1.9556    0.3370   -0.3850 N   0  0  0  0  0  0  0  0  0  0  0  0
   -0.5916    0.2834   -0.3918 C   0  0  0  0  0  0  0  0  0  0  0  0
    0.0601    1.1423    0.2518 O   0  0  0  0  0  0  0  0  0  0  0  0
   -4.0864   -0.5927   -1.1154 N   0  0  0  0  0  0  0  0  0  0  0  0
   -4.7839    0.0742   -2.0633 O   0  0  0  0  0  0  0  0  0  0  0  0
   -5.3413    1.1999   -1.4635 C   0  0  0  0  0  0  0  0  0  0  0  0
   -6.2304    0.7283   -0.3702 C   0  0  0  0  0  0  0  0  0  0  0  0
   -7.5612    0.4699   -0.6580 C   0  0  0  0  0  0  0  0  0  0  0  0
   -8.4453    0.0246    0.3276 C   0  0  0  0  0  0  0  0  0  0  0  0
   -7.9730   -0.1590    1.6134 C   0  0  0  0  0  0  0  0  0  0  0  0
   -6.6554    0.0940    1.9109 C   0  0  0  0  0  0  0  0  0  0  0  0
   -5.8076    0.5311    0.9225 C   0  0  0  0  0  0  0  0  0  0  0  0
   -8.8788   -0.6137    2.6166 N   0  0  0  0  0  0  0  0  0  0  0  0
   -8.4865   -0.7904    3.7889 O   0  0  0  0  0  0  0  0  0  0  0  0
  -10.1967   -0.8721    2.3423 O   0  0  0  0  0  0  0  0  0  0  0  0
    4.5267   -0.0705    0.5954 C   0  0  0  0  0  0  0  0  0  0  0  0
    4.5220    1.2663    0.9086 O   0  0  0  0  0  0  0  0  0  0  0  0
    5.7791    1.4913    2.0487 P   0  0  0  0  0  0  0  0  0  0  0  0
    5.4160    2.7529    2.8291 O   0  0  0  0  0  0  0  0  0  0  0  0
    7.2387    1.7784    1.2939 O   0  0  0  0  0  0  0  0  0  0  0  0
    8.4155    0.6274    1.5791 P   0  0  0  0  0  0  0  0  0  0  0  0
    9.6414    1.0536    0.7764 O   0  0  0  0  0  0  0  0  0  0  0  0
    8.9166    0.6267    3.2061 O   0  0  0  0  0  0  0  0  0  0  0  0
    8.0273   -0.9136    1.0648 O   0  0  0  0  0  0  0  0  0  0  0  0
    5.8555    0.2322    3.1567 O   0  0  0  0  0  0  0  0  0  0  0  0
    2.4420   -1.9297   -2.8491 H   0  0  0  0  0  0  0  0  0  0  0  0
    1.6446    0.8065   -2.6208 H   0  0  0  0  0  0  0  0  0  0  0  0
    3.5302    1.3346   -1.4358 H   0  0  0  0  0  0  0  0  0  0  0  0
    4.3729    0.2704   -3.4112 H   0  0  0  0  0  0  0  0  0  0  0  0
    3.6083   -1.5914   -0.5370 H   0  0  0  0  0  0  0  0  0  0  0  0
    1.7599   -1.8713   -1.1161 H   0  0  0  0  0  0  0  0  0  0  0  0
   -0.1398   -2.3545   -2.3098 H   0  0  0  0  0  0  0  0  0  0  0  0
   -2.5510   -2.3047   -2.3307 H   0  0  0  0  0  0  0  0  0  0  0  0
   -4.5558   -1.1637   -0.3570 H   0  0  0  0  0  0  0  0  0  0  0  0
   -5.9041    1.8240   -2.1851 H   0  0  0  0  0  0  0  0  0  0  0  0
   -4.4931    1.8162   -1.0975 H   0  0  0  0  0  0  0  0  0  0  0  0
   -7.9591    0.6045   -1.6552 H   0  0  0  0  0  0  0  0  0  0  0  0
   -9.4958   -0.1768    0.0892 H   0  0  0  0  0  0  0  0  0  0  0  0
   -6.2573   -0.0411    2.9106 H   0  0  0  0  0  0  0  0  0  0  0  0
   -4.7599    0.7395    1.1277 H   0  0  0  0  0  0  0  0  0  0  0  0
    5.5135   -0.2918    0.1391 H   0  0  0  0  0  0  0  0  0  0  0  0
    4.4539   -0.7347    1.4751 H   0  0  0  0  0  0  0  0  0  0  0  0
    8.1401    0.7466    3.7997 H   0  0  0  0  0  0  0  0  0  0  0  0
    8.3522   -1.6326    1.6416 H   0  0  0  0  0  0  0  0  0  0  0  0
    6.2344   -0.5974    2.8215 H   0  0  0  0  0  0  0  0  0  0  0  0
  1  2  1  0
  2  3  1  0
  3  4  1  0
  3  5  1  0
  5  6  1  0
  6  7  1  0
  7  8  1  0
  8  9  1  0
  9 10  2  0
 10 11  1  0
 11 12  2  0
 12 13  1  0
 13 14  2  0
 11 15  1  0
 15 16  1  0
 16 17  1  0
 17 18  1  0
 18 19  2  0
 19 20  1  0
 20 21  2  0
 21 22  1  0
 22 23  2  0
 21 24  1  0
 24 25  2  0
 24 26  1  0
  5 27  1  0
 27 28  1  0
 28 29  1  0
 29 30  2  0
 29 31  1  0
 31 32  1  0
 32 33  2  0
 32 34  1  0
 32 35  1  0
 29 36  1  0
  7  2  1  0
 13  8  1  0
 23 18  1  0
  1 37  1  0
  2 38  1  6
  3 39  1  1
  4 40  1  0
  5 41  1  6
  7 42  1  6
  9 43  1  0
 10 44  1  0
 15 45  1  0
 17 46  1  0
 17 47  1  0
 19 48  1  0
 20 49  1  0
 22 50  1  0
 23 51  1  0
 27 52  1  0
 27 53  1  0
 34 54  1  0
 35 55  1  0
 36 56  1  0
M  CHG  2  24   1  26  -1
M  END
>  <Ligand ID>  (1) 
LIG0002563

>  <Ligand>  (1) 
CHEMBL3220050

>  <SMILES>  (1) 
O[C@@H]1[C@H](O)[C@H](O[C@H]1n1ccc(nc1=O)NOCc1ccc(cc1)[N+](=O)[O-])COP(=O)(OP(=O)(O)O)O

>  <CID>  (1) 
90666793.0

>  <ChEMBL ID>  (1) 
nan

>  <InChiKey>  (1) 
HFBYGNURQMHJFJ-NMFUWQPSSA-N

>  <InChi>  (1) 
InChI=1S/C16H20N4O14P2/c21-13-11(8-32-36(29,30)34-35(26,27)28)33-15(14(13)22)19-6-5-12(17-16(19)23)18-31-7-9-1-3-10(4-2-9)20(24)25/h1-6,11,13-15,21-22H,7-8H2,(H,29,30)(H,17,18,23)(H2,26,27,28)/t11-,13-,14-,15-/m1/s1

>  <IUPAC Name>  (1) 
[(2R,3S,4R,5R)-3,4-dihydroxy-5-[4-[(4-nitrophenyl)methoxyamino]-2-oxopyrimidin-1-yl]oxolan-2-yl]methyl phosphono hydrogen phosphate

$$$$
