
     RDKit          3D

 54 56  0  0  0  0  0  0  0  0999 V2000
    3.7266    5.8634    1.5708 Cl  0  0  0  0  0  0  0  0  0  0  0  0
    2.4679    4.6609    1.4618 C   0  0  0  0  0  0  0  0  0  0  0  0
    1.2753    4.8662    0.7914 C   0  0  0  0  0  0  0  0  0  0  0  0
    0.3217    3.8735    0.7411 C   0  0  0  0  0  0  0  0  0  0  0  0
    0.4992    2.6439    1.3431 C   0  0  0  0  0  0  0  0  0  0  0  0
    1.6860    2.4500    2.0059 C   0  0  0  0  0  0  0  0  0  0  0  0
    2.6612    3.4325    2.0728 C   0  0  0  0  0  0  0  0  0  0  0  0
   -0.5721    1.6741    1.2283 C   0  0  0  0  0  0  0  0  0  0  0  0
   -1.5944    1.7677    1.9645 O   0  0  0  0  0  0  0  0  0  0  0  0
   -0.5605    0.5840    0.3067 N   0  0  0  0  0  0  0  0  0  0  0  0
   -1.6649   -0.3108    0.2412 C   0  0  0  0  0  0  0  0  0  0  0  0
   -1.9624   -1.0992    1.2660 C   0  0  0  0  0  0  0  0  0  0  0  0
   -2.8227   -2.3236    1.1016 C   0  0  0  0  0  0  0  0  0  0  0  0
   -3.2772   -2.5128   -0.2486 N   0  0  0  0  0  0  0  0  0  0  0  0
   -3.8054   -1.2145   -0.5851 C   0  0  0  0  0  0  0  0  0  0  0  0
   -2.5609   -0.3899   -0.9554 C   0  0  0  0  0  0  0  0  0  0  0  0
   -4.3717   -0.6556    0.7269 C   0  0  0  0  0  0  0  0  0  0  0  0
   -4.1737   -1.8384    1.7050 C   0  0  0  0  0  0  0  0  0  0  0  0
   -2.3542   -3.0629   -1.1716 C   0  0  0  0  0  0  0  0  0  0  0  0
    0.5623    0.2877   -0.5617 C   0  0  0  0  0  0  0  0  0  0  0  0
    1.5182   -0.6936    0.0653 C   0  0  0  0  0  0  0  0  0  0  0  0
    2.6393   -0.9190   -0.8735 C   0  0  0  0  0  0  0  0  0  0  0  0
    3.7923   -0.1114   -0.7646 C   0  0  0  0  0  0  0  0  0  0  0  0
    4.8471   -0.2773   -1.6136 C   0  0  0  0  0  0  0  0  0  0  0  0
    4.8528   -1.2447   -2.6322 C   0  0  0  0  0  0  0  0  0  0  0  0
    3.7093   -2.0165   -2.7111 C   0  0  0  0  0  0  0  0  0  0  0  0
    2.6278   -1.8755   -1.8684 C   0  0  0  0  0  0  0  0  0  0  0  0
    0.6829    0.0000    0.0000 Cl  0  0  0  0  0  0  0  0  0  0  0  0
    1.0926    5.8357    0.3010 H   0  0  0  0  0  0  0  0  0  0  0  0
   -0.5995    4.1271    0.1883 H   0  0  0  0  0  0  0  0  0  0  0  0
    1.8603    1.4828    2.5064 H   0  0  0  0  0  0  0  0  0  0  0  0
    3.5502    3.1747    2.6202 H   0  0  0  0  0  0  0  0  0  0  0  0
   -1.5903   -0.8898    2.2552 H   0  0  0  0  0  0  0  0  0  0  0  0
   -2.4528   -3.2009    1.6201 H   0  0  0  0  0  0  0  0  0  0  0  0
   -4.5110   -1.1848   -1.4044 H   0  0  0  0  0  0  0  0  0  0  0  0
   -2.0563   -0.7927   -1.8283 H   0  0  0  0  0  0  0  0  0  0  0  0
   -2.9850    0.6069   -1.2036 H   0  0  0  0  0  0  0  0  0  0  0  0
   -3.8076    0.2290    1.0785 H   0  0  0  0  0  0  0  0  0  0  0  0
   -5.4553   -0.4265    0.6485 H   0  0  0  0  0  0  0  0  0  0  0  0
   -4.0446   -1.4671    2.7240 H   0  0  0  0  0  0  0  0  0  0  0  0
   -4.9645   -2.5891    1.5766 H   0  0  0  0  0  0  0  0  0  0  0  0
   -2.6631   -2.7076   -2.1989 H   0  0  0  0  0  0  0  0  0  0  0  0
   -2.5737   -4.1705   -1.2328 H   0  0  0  0  0  0  0  0  0  0  0  0
   -1.2866   -2.9021   -0.9782 H   0  0  0  0  0  0  0  0  0  0  0  0
    1.1170    1.2327   -0.7220 H   0  0  0  0  0  0  0  0  0  0  0  0
    0.1914   -0.1816   -1.4784 H   0  0  0  0  0  0  0  0  0  0  0  0
    1.0322   -1.6812    0.2615 H   0  0  0  0  0  0  0  0  0  0  0  0
    1.9826   -0.3499    1.0012 H   0  0  0  0  0  0  0  0  0  0  0  0
    3.8433    0.6582    0.0100 H   0  0  0  0  0  0  0  0  0  0  0  0
    5.7645    0.3173   -1.5742 H   0  0  0  0  0  0  0  0  0  0  0  0
    5.7045   -1.3460   -3.2879 H   0  0  0  0  0  0  0  0  0  0  0  0
    3.6316   -2.7883   -3.4742 H   0  0  0  0  0  0  0  0  0  0  0  0
    1.7531   -2.5442   -2.0153 H   0  0  0  0  0  0  0  0  0  0  0  0
   -0.6829    0.0000    0.0000 H   0  0  0  0  0  0  0  0  0  0  0  0
  1  2  1  0
  2  3  2  0
  3  4  1  0
  4  5  2  0
  5  6  1  0
  6  7  2  0
  5  8  1  0
  8  9  2  0
  8 10  1  0
 10 11  1  0
 11 12  2  0
 12 13  1  0
 13 14  1  0
 14 15  1  0
 15 16  1  0
 15 17  1  0
 17 18  1  0
 14 19  1  0
 10 20  1  0
 20 21  1  0
 21 22  1  0
 22 23  2  0
 23 24  1  0
 24 25  2  0
 25 26  1  0
 26 27  2  0
  7  2  1  0
 16 11  1  0
 27 22  1  0
 18 13  1  0
  3 29  1  0
  4 30  1  0
  6 31  1  0
  7 32  1  0
 12 33  1  0
 13 34  1  0
 15 35  1  0
 16 36  1  0
 16 37  1  0
 17 38  1  0
 17 39  1  0
 18 40  1  0
 18 41  1  0
 19 42  1  0
 19 43  1  0
 19 44  1  0
 20 45  1  0
 20 46  1  0
 21 47  1  0
 21 48  1  0
 23 49  1  0
 24 50  1  0
 25 51  1  0
 26 52  1  0
 27 53  1  0
 28 54  1  0
M  END
>  <Ligand ID>  (1) 
LIG0004584

>  <Ligand>  (1) 
MLS000712245

>  <SMILES>  (1) 
Clc1ccc(cc1)C(=O)N(C1=CC2N(C(C1)CC2)C)CCc1ccccc1.Cl

>  <CID>  (1) 
2862001.0

>  <ChEMBL ID>  (1) 
nan

>  <InChiKey>  (1) 
TXJOYBAWOAHXGW-UHFFFAOYSA-N

>  <InChi>  (1) 
InChI=1S/C23H25ClN2O.ClH/c1-25-20-11-12-21(25)16-22(15-20)26(14-13-17-5-3-2-4-6-17)23(27)18-7-9-19(24)10-8-18;/h2-10,15,20-21H,11-14,16H2,1H3;1H

>  <IUPAC Name>  (1) 
4-chloro-N-(8-methyl-8-azabicyclo[3.2.1]oct-2-en-3-yl)-N-(2-phenylethyl)benzamide;hydrochloride

$$$$
