
     RDKit          3D

 47 48  0  0  0  0  0  0  0  0999 V2000
   -3.0742   -1.6079   -0.8624 C   0  0  0  0  0  0  0  0  0  0  0  0
   -2.2242   -0.8470   -0.0486 N   0  0  0  0  0  0  0  0  0  0  0  0
   -2.6687    0.3812    0.4612 C   0  0  0  0  0  0  0  0  0  0  0  0
   -1.9704    1.5015   -0.2535 C   0  0  0  0  0  0  0  0  0  0  0  0
   -2.3418    2.8595    0.2882 C   0  0  0  0  0  0  0  0  0  0  0  0
   -0.5126    1.2147   -0.1133 C   0  0  0  0  0  0  0  0  0  0  0  0
   -0.0237   -0.0605    0.0965 C   0  0  0  0  0  0  0  0  0  0  0  0
   -0.9128   -1.2553    0.2003 C   0  0  0  0  0  0  0  0  0  0  0  0
   -0.4905   -2.3988   -0.6606 C   0  0  0  0  0  0  0  0  0  0  0  0
    1.3515    0.0961    0.1697 C   0  0  0  0  0  0  0  0  0  0  0  0
    2.4061   -0.7745    0.3627 C   0  0  0  0  0  0  0  0  0  0  0  0
    3.7149   -0.3349    0.3922 C   0  0  0  0  0  0  0  0  0  0  0  0
    4.8057   -1.2529    0.5942 N   0  0  0  0  0  0  0  0  0  0  0  0
    3.9993    1.0192    0.2247 C   0  0  0  0  0  0  0  0  0  0  0  0
    2.9404    1.8666    0.0347 C   0  0  0  0  0  0  0  0  0  0  0  0
    1.6218    1.4452    0.0020 C   0  0  0  0  0  0  0  0  0  0  0  0
    0.4822    2.0602   -0.1616 O   0  0  0  0  0  0  0  0  0  0  0  0
    2.3283    0.0140   -1.0543 O   0  0  0  0  0  0  0  0  0  0  0  0
    1.8312   -0.4500    0.1578 C   0  0  0  0  0  0  0  0  0  0  0  0
    2.6402   -0.9512    0.9819 O   0  0  0  0  0  0  0  0  0  0  0  0
    0.4073   -0.3567    0.4631 C   0  0  0  0  0  0  0  0  0  0  0  0
   -0.3988    0.1785   -0.4381 C   0  0  0  0  0  0  0  0  0  0  0  0
   -1.8379    0.3128   -0.2185 C   0  0  0  0  0  0  0  0  0  0  0  0
   -2.6114    0.8266   -1.0837 O   0  0  0  0  0  0  0  0  0  0  0  0
   -2.4475   -0.1159    0.9556 O   0  0  0  0  0  0  0  0  0  0  0  0
   -3.9680   -0.9685   -1.1133 H   0  0  0  0  0  0  0  0  0  0  0  0
   -2.6784   -1.9005   -1.8687 H   0  0  0  0  0  0  0  0  0  0  0  0
   -3.4873   -2.4680   -0.2968 H   0  0  0  0  0  0  0  0  0  0  0  0
   -2.3373    0.4375    1.5399 H   0  0  0  0  0  0  0  0  0  0  0  0
   -3.7605    0.4525    0.4784 H   0  0  0  0  0  0  0  0  0  0  0  0
   -2.1980    1.4970   -1.3399 H   0  0  0  0  0  0  0  0  0  0  0  0
   -1.6445    3.1941    1.1019 H   0  0  0  0  0  0  0  0  0  0  0  0
   -2.3550    3.6049   -0.5356 H   0  0  0  0  0  0  0  0  0  0  0  0
   -3.3530    2.8358    0.7228 H   0  0  0  0  0  0  0  0  0  0  0  0
   -0.8864   -1.6478    1.2559 H   0  0  0  0  0  0  0  0  0  0  0  0
    0.2453   -3.0649   -0.1219 H   0  0  0  0  0  0  0  0  0  0  0  0
   -0.1134   -2.1155   -1.6571 H   0  0  0  0  0  0  0  0  0  0  0  0
   -1.3707   -3.0589   -0.8154 H   0  0  0  0  0  0  0  0  0  0  0  0
    2.2076   -1.8281    0.4946 H   0  0  0  0  0  0  0  0  0  0  0  0
    5.4777   -1.3755   -0.2036 H   0  0  0  0  0  0  0  0  0  0  0  0
    4.9272   -1.7681    1.4768 H   0  0  0  0  0  0  0  0  0  0  0  0
    5.0363    1.3403    0.2519 H   0  0  0  0  0  0  0  0  0  0  0  0
    3.1554    2.9212   -0.0962 H   0  0  0  0  0  0  0  0  0  0  0  0
    3.2795    0.3339   -1.1759 H   0  0  0  0  0  0  0  0  0  0  0  0
    0.0275   -0.7138    1.3948 H   0  0  0  0  0  0  0  0  0  0  0  0
   -0.0120    0.5399   -1.3818 H   0  0  0  0  0  0  0  0  0  0  0  0
   -3.2065    0.3820    1.3992 H   0  0  0  0  0  0  0  0  0  0  0  0
  1  2  1  0
  2  3  1  0
  3  4  1  0
  4  5  1  0
  4  6  1  0
  6  7  2  0
  7  8  1  0
  8  9  1  0
  7 10  1  0
 10 11  2  0
 11 12  1  0
 12 13  1  0
 12 14  2  0
 14 15  1  0
 15 16  2  0
 16 17  1  0
 18 19  1  0
 19 20  2  0
 19 21  1  0
 21 22  2  0
 22 23  1  0
 23 24  2  0
 23 25  1  0
  8  2  1  0
 16 10  1  0
 17  6  1  0
  1 26  1  0
  1 27  1  0
  1 28  1  0
  3 29  1  0
  3 30  1  0
  4 31  1  0
  5 32  1  0
  5 33  1  0
  5 34  1  0
  8 35  1  0
  9 36  1  0
  9 37  1  0
  9 38  1  0
 11 39  1  0
 13 40  1  0
 13 41  1  0
 14 42  1  0
 15 43  1  0
 18 44  1  0
 21 45  1  0
 22 46  1  0
 25 47  1  0
M  END
>  <Ligand ID>  (1) 
LIG0004010

>  <Ligand>  (1) 
AC1NX5VS

>  <SMILES>  (1) 
CN1CC(C)c2c(C1C)c1cc(N)ccc1o2.OC(=O)/C=C/C(=O)O

>  <CID>  (1) 
5721268.0

>  <ChEMBL ID>  (1) 
nan

>  <InChiKey>  (1) 
JCHMIIDLAIEDAB-WLHGVMLRSA-N

>  <InChi>  (1) 
InChI=1S/C14H18N2O.C4H4O4/c1-8-7-16(3)9(2)13-11-6-10(15)4-5-12(11)17-14(8)13;5-3(6)1-2-4(7)8/h4-6,8-9H,7,15H2,1-3H3;1-2H,(H,5,6)(H,7,8)/b;2-1+

>  <IUPAC Name>  (1) 
(E)-but-2-enedioic acid;1,2,4-trimethyl-3,4-dihydro-1H-[1]benzofuro[3,2-c]pyridin-8-amine

$$$$
