
     RDKit          3D

 50 51  0  0  0  0  0  0  0  0999 V2000
    2.5993    2.7815    0.2798 C   0  0  0  0  0  0  0  0  0  0  0  0
    3.0753    2.1804   -1.0216 C   0  0  0  0  0  0  0  0  0  0  0  0
    3.7288    0.8824   -0.7444 C   0  0  0  0  0  0  0  0  0  0  0  0
    5.1114    0.7706   -0.7499 C   0  0  0  0  0  0  0  0  0  0  0  0
    5.7745   -0.3951   -0.5033 C   0  0  0  0  0  0  0  0  0  0  0  0
    5.0440   -1.5399   -0.2306 C   0  0  0  0  0  0  0  0  0  0  0  0
    3.6589   -1.4703   -0.2155 C   0  0  0  0  0  0  0  0  0  0  0  0
    3.0202   -0.2622   -0.4721 C   0  0  0  0  0  0  0  0  0  0  0  0
    1.6004   -0.2760   -0.4370 N   0  0  0  0  0  0  0  0  0  0  0  0
    0.8296   -0.1463    0.7407 C   0  0  0  0  0  0  0  0  0  0  0  0
    1.5292    0.0267    2.1860 S   0  0  0  0  0  0  0  0  0  0  0  0
   -0.6091   -0.1734    0.6456 N   0  0  0  0  0  0  0  0  0  0  0  0
   -1.1500   -0.3334   -0.6858 C   0  0  0  0  0  0  0  0  0  0  0  0
   -2.6533   -0.3649   -0.7186 C   0  0  0  0  0  0  0  0  0  0  0  0
   -3.2770    0.8462   -0.1940 C   0  0  0  0  0  0  0  0  0  0  0  0
   -4.6719    0.8403   -0.0659 C   0  0  0  0  0  0  0  0  0  0  0  0
   -5.3527    1.9375    0.4218 C   0  0  0  0  0  0  0  0  0  0  0  0
   -4.6291    3.0548    0.7860 C   0  0  0  0  0  0  0  0  0  0  0  0
   -3.2737    3.0716    0.6658 N   0  0  0  0  0  0  0  0  0  0  0  0
   -2.6042    1.9895    0.1850 C   0  0  0  0  0  0  0  0  0  0  0  0
   -3.1359   -1.5805   -0.1733 N   0  0  0  0  0  0  0  0  0  0  0  0
   -2.7228   -2.7851   -0.7939 C   0  0  0  0  0  0  0  0  0  0  0  0
   -3.4988   -1.6201    1.1880 C   0  0  0  0  0  0  0  0  0  0  0  0
    2.9279   -2.7207    0.0820 C   0  0  0  0  0  0  0  0  0  0  0  0
    3.1276    2.3374    1.1675 H   0  0  0  0  0  0  0  0  0  0  0  0
    1.5258    2.6391    0.4057 H   0  0  0  0  0  0  0  0  0  0  0  0
    2.8078    3.8732    0.3272 H   0  0  0  0  0  0  0  0  0  0  0  0
    2.2200    2.0026   -1.7222 H   0  0  0  0  0  0  0  0  0  0  0  0
    3.8327    2.8347   -1.5137 H   0  0  0  0  0  0  0  0  0  0  0  0
    5.6693    1.6641   -0.9629 H   0  0  0  0  0  0  0  0  0  0  0  0
    6.8505   -0.4452   -0.5158 H   0  0  0  0  0  0  0  0  0  0  0  0
    5.5754   -2.4722   -0.0334 H   0  0  0  0  0  0  0  0  0  0  0  0
    1.1259   -0.3929   -1.3755 H   0  0  0  0  0  0  0  0  0  0  0  0
   -1.1820   -0.0799    1.5069 H   0  0  0  0  0  0  0  0  0  0  0  0
   -0.7312    0.4915   -1.3140 H   0  0  0  0  0  0  0  0  0  0  0  0
   -0.6958   -1.2573   -1.0916 H   0  0  0  0  0  0  0  0  0  0  0  0
   -2.9122   -0.4032   -1.8200 H   0  0  0  0  0  0  0  0  0  0  0  0
   -5.2633   -0.0266   -0.3453 H   0  0  0  0  0  0  0  0  0  0  0  0
   -6.4476    1.9062    0.5125 H   0  0  0  0  0  0  0  0  0  0  0  0
   -5.1848    3.9078    1.1673 H   0  0  0  0  0  0  0  0  0  0  0  0
   -1.5081    2.0001    0.0868 H   0  0  0  0  0  0  0  0  0  0  0  0
   -1.9297   -3.2987   -0.1891 H   0  0  0  0  0  0  0  0  0  0  0  0
   -3.5322   -3.4795   -1.0591 H   0  0  0  0  0  0  0  0  0  0  0  0
   -2.2113   -2.5143   -1.7496 H   0  0  0  0  0  0  0  0  0  0  0  0
   -4.4912   -2.0747    1.3949 H   0  0  0  0  0  0  0  0  0  0  0  0
   -3.5206   -0.5767    1.5891 H   0  0  0  0  0  0  0  0  0  0  0  0
   -2.7121   -2.1520    1.7676 H   0  0  0  0  0  0  0  0  0  0  0  0
    3.1260   -2.9830    1.1309 H   0  0  0  0  0  0  0  0  0  0  0  0
    3.2904   -3.5528   -0.5779 H   0  0  0  0  0  0  0  0  0  0  0  0
    1.8499   -2.6615   -0.0649 H   0  0  0  0  0  0  0  0  0  0  0  0
  1  2  1  0
  2  3  1  0
  3  4  2  0
  4  5  1  0
  5  6  2  0
  6  7  1  0
  7  8  2  0
  8  9  1  0
  9 10  1  0
 10 11  2  0
 10 12  1  0
 12 13  1  0
 13 14  1  0
 14 15  1  0
 15 16  2  0
 16 17  1  0
 17 18  2  0
 18 19  1  0
 19 20  2  0
 14 21  1  0
 21 22  1  0
 21 23  1  0
  7 24  1  0
  8  3  1  0
 20 15  1  0
  1 25  1  0
  1 26  1  0
  1 27  1  0
  2 28  1  0
  2 29  1  0
  4 30  1  0
  5 31  1  0
  6 32  1  0
  9 33  1  0
 12 34  1  0
 13 35  1  0
 13 36  1  0
 14 37  1  0
 16 38  1  0
 17 39  1  0
 18 40  1  0
 20 41  1  0
 22 42  1  0
 22 43  1  0
 22 44  1  0
 23 45  1  0
 23 46  1  0
 23 47  1  0
 24 48  1  0
 24 49  1  0
 24 50  1  0
M  END
>  <Ligand ID>  (1) 
LIG0004116

>  <Ligand>  (1) 
MLS000730947

>  <SMILES>  (1) 
CCc1cccc(c1NC(=S)NCC(c1cccnc1)N(C)C)C

>  <CID>  (1) 
16193682.0

>  <ChEMBL ID>  (1) 
nan

>  <InChiKey>  (1) 
GZLNTICPYRNIOO-UHFFFAOYSA-N

>  <InChi>  (1) 
InChI=1S/C19H26N4S/c1-5-15-9-6-8-14(2)18(15)22-19(24)21-13-17(23(3)4)16-10-7-11-20-12-16/h6-12,17H,5,13H2,1-4H3,(H2,21,22,24)

>  <IUPAC Name>  (1) 
1-[2-(dimethylamino)-2-pyridin-3-ylethyl]-3-(2-ethyl-6-methylphenyl)thiourea

$$$$
