
     RDKit          3D

 72 74  0  0  0  0  0  0  0  0999 V2000
    4.5843   -3.8441    1.7570 C   0  0  0  0  0  0  0  0  0  0  0  0
    4.8678   -2.6379    1.2327 C   0  0  0  0  0  0  0  0  0  0  0  0
    5.1357   -2.4150   -0.1966 C   0  0  0  0  0  0  0  0  0  0  0  0
    4.2230   -1.4981   -0.8423 N   0  0  0  0  0  0  0  0  0  0  0  0
    2.8870   -2.1163   -0.9138 C   0  0  0  0  0  0  0  0  0  0  0  0
    2.0804   -1.1806   -1.8046 C   0  0  1  0  0  0  0  0  0  0  0  0
    0.9965   -1.8394   -2.5815 C   0  0  0  0  0  0  0  0  0  0  0  0
    1.8297    0.0662   -1.2181 N   0  0  0  0  0  0  0  0  0  0  0  0
    3.1580    0.6663   -0.9711 C   0  0  0  0  0  0  0  0  0  0  0  0
    4.0643   -0.2392   -0.1934 C   0  0  2  0  0  0  0  0  0  0  0  0
    5.3764    0.4979   -0.0055 C   0  0  0  0  0  0  0  0  0  0  0  0
    1.0743    0.2890   -0.0741 C   0  0  0  0  0  0  0  0  0  0  0  0
    1.0215    1.8014    0.0746 C   0  0  0  0  0  0  0  0  0  0  0  0
    0.7792    2.4704   -1.1295 C   0  0  0  0  0  0  0  0  0  0  0  0
    0.7040    3.8588   -1.1364 C   0  0  0  0  0  0  0  0  0  0  0  0
    0.8763    4.5065    0.0707 C   0  0  0  0  0  0  0  0  0  0  0  0
    1.1160    3.8282    1.2572 C   0  0  0  0  0  0  0  0  0  0  0  0
    1.1922    2.4298    1.2647 C   0  0  0  0  0  0  0  0  0  0  0  0
    1.2837    4.5104    2.4522 O   0  0  0  0  0  0  0  0  0  0  0  0
    1.2194    5.9058    2.5187 C   0  0  0  0  0  0  0  0  0  0  0  0
   -0.2515   -0.2739    0.1111 C   0  0  0  0  0  0  0  0  0  0  0  0
   -1.3194    0.6171    0.3053 C   0  0  0  0  0  0  0  0  0  0  0  0
   -2.6070    0.1785    0.5187 C   0  0  0  0  0  0  0  0  0  0  0  0
   -2.9064   -1.1560    0.5510 C   0  0  0  0  0  0  0  0  0  0  0  0
   -1.8739   -2.0666    0.3625 C   0  0  0  0  0  0  0  0  0  0  0  0
   -0.5869   -1.6040    0.1504 C   0  0  0  0  0  0  0  0  0  0  0  0
   -4.2305   -1.7132    0.7721 C   0  0  0  0  0  0  0  0  0  0  0  0
   -4.3426   -2.4483    1.8105 O   0  0  0  0  0  0  0  0  0  0  0  0
   -5.3471   -1.4949   -0.0633 N   0  0  0  0  0  0  0  0  0  0  0  0
   -5.3587   -0.6848   -1.2501 C   0  0  0  0  0  0  0  0  0  0  0  0
   -5.7375    0.7585   -0.9903 C   0  0  0  0  0  0  0  0  0  0  0  0
   -6.6041   -2.1481    0.2972 C   0  0  0  0  0  0  0  0  0  0  0  0
   -7.4643   -1.3179    1.2025 C   0  0  0  0  0  0  0  0  0  0  0  0
    4.3970   -3.9377    2.8196 H   0  0  0  0  0  0  0  0  0  0  0  0
    4.5633   -4.6650    1.0558 H   0  0  0  0  0  0  0  0  0  0  0  0
    4.9038   -1.7742    1.8924 H   0  0  0  0  0  0  0  0  0  0  0  0
    6.1988   -2.2218   -0.4453 H   0  0  0  0  0  0  0  0  0  0  0  0
    4.9288   -3.4102   -0.6961 H   0  0  0  0  0  0  0  0  0  0  0  0
    2.5399   -2.1233    0.1384 H   0  0  0  0  0  0  0  0  0  0  0  0
    2.9368   -3.1000   -1.3947 H   0  0  0  0  0  0  0  0  0  0  0  0
    2.8634   -0.9327   -2.6205 H   0  0  0  0  0  0  0  0  0  0  0  0
    0.7408   -2.8801   -2.2204 H   0  0  0  0  0  0  0  0  0  0  0  0
    1.2428   -2.0117   -3.6573 H   0  0  0  0  0  0  0  0  0  0  0  0
    0.0890   -1.1844   -2.6301 H   0  0  0  0  0  0  0  0  0  0  0  0
    2.9737    1.5757   -0.3712 H   0  0  0  0  0  0  0  0  0  0  0  0
    3.6493    0.9403   -1.8993 H   0  0  0  0  0  0  0  0  0  0  0  0
    3.7168   -0.4574    0.8435 H   0  0  0  0  0  0  0  0  0  0  0  0
    5.5007    1.3110   -0.7487 H   0  0  0  0  0  0  0  0  0  0  0  0
    6.2084   -0.2098   -0.1753 H   0  0  0  0  0  0  0  0  0  0  0  0
    5.5109    0.8971    1.0225 H   0  0  0  0  0  0  0  0  0  0  0  0
    1.7472    0.0096    0.8167 H   0  0  0  0  0  0  0  0  0  0  0  0
    0.6468    1.9347   -2.0663 H   0  0  0  0  0  0  0  0  0  0  0  0
    0.5164    4.3718   -2.0718 H   0  0  0  0  0  0  0  0  0  0  0  0
    0.8136    5.6014    0.0388 H   0  0  0  0  0  0  0  0  0  0  0  0
    1.3753    1.8651    2.1617 H   0  0  0  0  0  0  0  0  0  0  0  0
    2.0847    6.4306    2.0588 H   0  0  0  0  0  0  0  0  0  0  0  0
    0.3214    6.2191    1.9112 H   0  0  0  0  0  0  0  0  0  0  0  0
    0.9823    6.2737    3.5427 H   0  0  0  0  0  0  0  0  0  0  0  0
   -1.1539    1.6822    0.2926 H   0  0  0  0  0  0  0  0  0  0  0  0
   -3.3959    0.9008    0.6689 H   0  0  0  0  0  0  0  0  0  0  0  0
   -2.0647   -3.1387    0.3789 H   0  0  0  0  0  0  0  0  0  0  0  0
    0.1749   -2.3525    0.0350 H   0  0  0  0  0  0  0  0  0  0  0  0
   -4.3783   -0.7834   -1.7610 H   0  0  0  0  0  0  0  0  0  0  0  0
   -6.1093   -1.1048   -1.9761 H   0  0  0  0  0  0  0  0  0  0  0  0
   -5.1281    1.4859   -1.5623 H   0  0  0  0  0  0  0  0  0  0  0  0
   -6.8085    0.9514   -1.2927 H   0  0  0  0  0  0  0  0  0  0  0  0
   -5.7188    1.0195    0.1006 H   0  0  0  0  0  0  0  0  0  0  0  0
   -7.1917   -2.3594   -0.6294 H   0  0  0  0  0  0  0  0  0  0  0  0
   -6.3727   -3.1325    0.7555 H   0  0  0  0  0  0  0  0  0  0  0  0
   -7.8286   -1.9868    2.0318 H   0  0  0  0  0  0  0  0  0  0  0  0
   -8.3762   -0.9646    0.6679 H   0  0  0  0  0  0  0  0  0  0  0  0
   -6.9400   -0.4454    1.6462 H   0  0  0  0  0  0  0  0  0  0  0  0
  1  2  2  0
  2  3  1  0
  3  4  1  0
  4  5  1  0
  5  6  1  0
  6  7  1  0
  6  8  1  0
  8  9  1  0
  9 10  1  0
 10 11  1  0
  8 12  1  0
 12 13  1  0
 13 14  2  0
 14 15  1  0
 15 16  2  0
 16 17  1  0
 17 18  2  0
 17 19  1  0
 19 20  1  0
 12 21  1  0
 21 22  2  0
 22 23  1  0
 23 24  2  0
 24 25  1  0
 25 26  2  0
 24 27  1  0
 27 28  2  0
 27 29  1  0
 29 30  1  0
 30 31  1  0
 29 32  1  0
 32 33  1  0
 10  4  1  0
 18 13  1  0
 26 21  1  0
  1 34  1  0
  1 35  1  0
  2 36  1  0
  3 37  1  0
  3 38  1  0
  5 39  1  0
  5 40  1  0
  6 41  1  6
  7 42  1  0
  7 43  1  0
  7 44  1  0
  9 45  1  0
  9 46  1  0
 10 47  1  1
 11 48  1  0
 11 49  1  0
 11 50  1  0
 12 51  1  0
 14 52  1  0
 15 53  1  0
 16 54  1  0
 18 55  1  0
 20 56  1  0
 20 57  1  0
 20 58  1  0
 22 59  1  0
 23 60  1  0
 25 61  1  0
 26 62  1  0
 30 63  1  0
 30 64  1  0
 31 65  1  0
 31 66  1  0
 31 67  1  0
 32 68  1  0
 32 69  1  0
 33 70  1  0
 33 71  1  0
 33 72  1  0
M  END
>  <Ligand ID>  (1) 
LIG0004366

>  <Ligand>  (1) 
SNC80

>  <SMILES>  (1) 
C=CCN1C[C@@H](C)N(C[C@@H]1C)C(c1cccc(c1)OC)c1ccc(cc1)C(=O)N(CC)CC

>  <CID>  (1) 
16219954.0

>  <ChEMBL ID>  (1) 
nan

>  <InChiKey>  (1) 
KQWVAUSXZDRQPZ-QNWUEUMSSA-N

>  <InChi>  (1) 
InChI=1S/C28H39N3O2/c1-7-17-30-19-22(5)31(20-21(30)4)27(25-11-10-12-26(18-25)33-6)23-13-15-24(16-14-23)28(32)29(8-2)9-3/h7,10-16,18,21-22,27H,1,8-9,17,19-20H2,2-6H3/t21-,22+,27?/m0/s1

>  <IUPAC Name>  (1) 
4-[[(2R,5S)-2,5-dimethyl-4-prop-2-enylpiperazin-1-yl]-(3-methoxyphenyl)methyl]-N,N-diethylbenzamide

$$$$
