
     RDKit          3D

 34 36  0  0  0  0  0  0  0  0999 V2000
   -4.8887    2.1144   -1.0251 C   0  0  0  0  0  0  0  0  0  0  0  0
   -4.8620    0.7765   -1.3427 C   0  0  0  0  0  0  0  0  0  0  0  0
   -3.8134    0.0232   -1.0412 N   0  0  0  0  0  0  0  0  0  0  0  0
   -2.6892    0.4897   -0.4040 C   0  0  0  0  0  0  0  0  0  0  0  0
   -2.7388    1.8153   -0.0966 C   0  0  0  0  0  0  0  0  0  0  0  0
   -3.8168    2.6119   -0.4026 N   0  0  0  0  0  0  0  0  0  0  0  0
   -1.6821   -0.4725   -0.0602 C   0  0  0  0  0  0  0  0  0  0  0  0
   -2.0765   -1.8267   -0.1074 C   0  0  0  0  0  0  0  0  0  0  0  0
   -1.2891   -2.8370    0.3860 C   0  0  0  0  0  0  0  0  0  0  0  0
   -0.0626   -2.6024    0.9602 C   0  0  0  0  0  0  0  0  0  0  0  0
    0.3438   -1.2775    1.0120 C   0  0  0  0  0  0  0  0  0  0  0  0
   -0.4604   -0.2525    0.5043 C   0  0  0  0  0  0  0  0  0  0  0  0
    0.1151    1.0202    0.4179 N   0  0  0  0  0  0  0  0  0  0  0  0
    1.4152    1.2944    1.0528 C   0  0  0  0  0  0  0  0  0  0  0  0
    2.5184    0.6146    0.3119 C   0  0  0  0  0  0  0  0  0  0  0  0
    2.4731   -0.0603   -0.7864 N   0  0  0  0  0  0  0  0  0  0  0  0
    3.7481   -0.5631   -1.1885 C   0  0  0  0  0  0  0  0  0  0  0  0
    4.6930   -0.1141   -0.1103 C   0  0  0  0  0  0  0  0  0  0  0  0
    3.8665    0.6497    0.7731 N   0  0  0  0  0  0  0  0  0  0  0  0
   -5.7668    2.6788   -1.2954 H   0  0  0  0  0  0  0  0  0  0  0  0
   -5.6916    0.3034   -1.8458 H   0  0  0  0  0  0  0  0  0  0  0  0
   -1.9828    2.3184    0.4580 H   0  0  0  0  0  0  0  0  0  0  0  0
   -3.0241   -2.1222   -0.5393 H   0  0  0  0  0  0  0  0  0  0  0  0
   -1.6323   -3.8585    0.3290 H   0  0  0  0  0  0  0  0  0  0  0  0
    0.5271   -3.4212    1.3397 H   0  0  0  0  0  0  0  0  0  0  0  0
    1.2993   -1.1014    1.4766 H   0  0  0  0  0  0  0  0  0  0  0  0
   -0.2408    1.8339   -0.1227 H   0  0  0  0  0  0  0  0  0  0  0  0
    1.5931    2.3815    1.1528 H   0  0  0  0  0  0  0  0  0  0  0  0
    1.4166    0.8337    2.0842 H   0  0  0  0  0  0  0  0  0  0  0  0
    4.0646   -0.1776   -2.1958 H   0  0  0  0  0  0  0  0  0  0  0  0
    3.7016   -1.6819   -1.2700 H   0  0  0  0  0  0  0  0  0  0  0  0
    5.5489    0.4636   -0.5388 H   0  0  0  0  0  0  0  0  0  0  0  0
    5.1531   -1.0059    0.3902 H   0  0  0  0  0  0  0  0  0  0  0  0
    4.2402    1.1515    1.6316 H   0  0  0  0  0  0  0  0  0  0  0  0
  1  2  2  0
  2  3  1  0
  3  4  2  0
  4  5  1  0
  5  6  2  0
  4  7  1  0
  7  8  2  0
  8  9  1  0
  9 10  2  0
 10 11  1  0
 11 12  2  0
 12 13  1  0
 13 14  1  0
 14 15  1  0
 15 16  2  0
 16 17  1  0
 17 18  1  0
 18 19  1  0
  6  1  1  0
 12  7  1  0
 19 15  1  0
  1 20  1  0
  2 21  1  0
  5 22  1  0
  8 23  1  0
  9 24  1  0
 10 25  1  0
 11 26  1  0
 13 27  1  0
 14 28  1  0
 14 29  1  0
 17 30  1  0
 17 31  1  0
 18 32  1  0
 18 33  1  0
 19 34  1  0
M  END
>  <Ligand ID>  (1) 
LIG0003183

>  <Ligand>  (1) 
CHEMBL349082

>  <SMILES>  (1) 
c1cnc(cn1)c1ccccc1NCC1=NCCN1

>  <CID>  (1) 
9816460.0

>  <ChEMBL ID>  (1) 
nan

>  <InChiKey>  (1) 
SUBLOIVGKGUTMT-UHFFFAOYSA-N

>  <InChi>  (1) 
InChI=1S/C14H15N5/c1-2-4-12(19-10-14-17-7-8-18-14)11(3-1)13-9-15-5-6-16-13/h1-6,9,19H,7-8,10H2,(H,17,18)

>  <IUPAC Name>  (1) 
N-(4,5-dihydro-1H-imidazol-2-ylmethyl)-2-pyrazin-2-ylaniline

$$$$
