
     RDKit          3D

160164  0  0  0  0  0  0  0  0999 V2000
  -14.1125   -2.3018   -3.2949 C   0  0  0  0  0  0  0  0  0  0  0  0
  -14.0391   -2.8426   -1.9900 N   0  0  0  0  0  0  0  0  0  0  0  0
  -13.1952   -2.7472   -1.0806 C   0  0  0  0  0  0  0  0  0  0  0  0
  -11.9821   -2.0327   -1.0667 N   0  0  0  0  0  0  0  0  0  0  0  0
  -11.2993   -1.8104   -2.3019 C   0  0  0  0  0  0  0  0  0  0  0  0
   -9.9697   -1.0645   -2.0378 C   0  0  0  0  0  0  0  0  0  0  0  0
   -9.0748   -1.8402   -1.1596 C   0  0  0  0  0  0  0  0  0  0  0  0
   -7.7681   -1.2617   -0.7606 C   0  0  1  0  0  0  0  0  0  0  0  0
   -7.6881   -0.0785    0.0633 C   0  0  0  0  0  0  0  0  0  0  0  0
   -6.5157    0.1856    0.5501 O   0  0  0  0  0  0  0  0  0  0  0  0
   -8.6814    0.8424    0.4416 N   0  0  0  0  0  0  0  0  0  0  0  0
   -8.3471    1.9506    1.2602 C   0  0  2  0  0  0  0  0  0  0  0  0
   -8.8085    1.6202    2.6646 C   0  0  0  0  0  0  0  0  0  0  0  0
   -8.5994    2.5000    3.5765 O   0  0  0  0  0  0  0  0  0  0  0  0
   -9.4504    0.3846    2.9651 N   0  0  0  0  0  0  0  0  0  0  0  0
   -8.9245    3.2797    0.9200 C   0  0  0  0  0  0  0  0  0  0  0  0
  -10.3802    3.3975    0.9450 C   0  0  0  0  0  0  0  0  0  0  0  0
  -11.0878    3.9106    2.0445 C   0  0  0  0  0  0  0  0  0  0  0  0
  -12.3896    3.8661    1.7960 N   0  0  0  0  0  0  0  0  0  0  0  0
  -12.6186    3.3437    0.5738 C   0  0  0  0  0  0  0  0  0  0  0  0
  -11.3652    3.0553    0.0501 C   0  0  0  0  0  0  0  0  0  0  0  0
  -11.3282    2.5086   -1.2138 C   0  0  0  0  0  0  0  0  0  0  0  0
  -12.4741    2.2517   -1.9330 C   0  0  0  0  0  0  0  0  0  0  0  0
  -13.7109    2.5467   -1.3836 C   0  0  0  0  0  0  0  0  0  0  0  0
  -13.7915    3.0983   -0.1184 C   0  0  0  0  0  0  0  0  0  0  0  0
   -6.7877   -2.2921   -0.5538 N   0  0  0  0  0  0  0  0  0  0  0  0
   -5.4264   -2.3068   -0.9389 C   0  0  0  0  0  0  0  0  0  0  0  0
   -4.8345   -1.3637   -1.5152 O   0  0  0  0  0  0  0  0  0  0  0  0
   -4.6546   -3.5429   -0.6527 C   0  0  1  0  0  0  0  0  0  0  0  0
   -3.3033   -3.4075   -1.1184 N   0  0  0  0  0  0  0  0  0  0  0  0
   -2.3936   -2.3722   -0.7608 C   0  0  0  0  0  0  0  0  0  0  0  0
   -2.7460   -1.4766    0.0096 O   0  0  0  0  0  0  0  0  0  0  0  0
   -1.0898   -2.4462   -1.3267 N   0  0  0  0  0  0  0  0  0  0  0  0
   -0.0340   -1.5729   -1.0900 N   0  0  0  0  0  0  0  0  0  0  0  0
    0.2838   -0.4109   -1.8104 C   0  0  0  0  0  0  0  0  0  0  0  0
   -0.4414   -0.0575   -2.7759 O   0  0  0  0  0  0  0  0  0  0  0  0
    1.4555    0.4718   -1.5268 C   0  0  1  0  0  0  0  0  0  0  0  0
    2.2844   -0.0765   -0.4809 N   0  0  0  0  0  0  0  0  0  0  0  0
    3.0351    0.7499    0.4377 C   0  0  0  0  0  0  0  0  0  0  0  0
    3.0306    2.0069    0.3504 O   0  0  0  0  0  0  0  0  0  0  0  0
    3.8020    0.0634    1.4677 C   0  0  1  0  0  0  0  0  0  0  0  0
    4.9779    0.7633    1.9500 N   0  0  0  0  0  0  0  0  0  0  0  0
    5.8926    0.2057    2.8747 C   0  0  0  0  0  0  0  0  0  0  0  0
    5.7024   -0.9490    3.3676 O   0  0  0  0  0  0  0  0  0  0  0  0
    7.0830    0.9469    3.2932 C   0  0  1  0  0  0  0  0  0  0  0  0
    7.9992    1.2306    2.2090 N   0  0  0  0  0  0  0  0  0  0  0  0
    8.1008    2.3537    1.4037 C   0  0  0  0  0  0  0  0  0  0  0  0
    7.3791    3.3742    1.4533 O   0  0  0  0  0  0  0  0  0  0  0  0
    9.1946    2.3317    0.3533 C   0  0  2  0  0  0  0  0  0  0  0  0
   10.1993    1.3703    0.6589 N   0  0  0  0  0  0  0  0  0  0  0  0
   10.4442    0.1423    0.0250 C   0  0  0  0  0  0  0  0  0  0  0  0
    9.8025   -0.3345   -0.9317 O   0  0  0  0  0  0  0  0  0  0  0  0
   11.5905   -0.7109    0.5247 C   0  0  1  0  0  0  0  0  0  0  0  0
   12.5274   -0.8689   -0.6513 C   0  0  0  0  0  0  0  0  0  0  0  0
   13.7201   -1.6883   -0.2969 C   0  0  0  0  0  0  0  0  0  0  0  0
   14.8138   -1.0326    0.2004 C   0  0  0  0  0  0  0  0  0  0  0  0
   15.9784   -1.6845    0.5592 C   0  0  0  0  0  0  0  0  0  0  0  0
   16.0343   -3.0752    0.4068 C   0  0  0  0  0  0  0  0  0  0  0  0
   14.9051   -3.7266   -0.1025 C   0  0  0  0  0  0  0  0  0  0  0  0
   13.7620   -3.0564   -0.4528 C   0  0  0  0  0  0  0  0  0  0  0  0
   17.1869   -3.7595    0.7560 O   0  0  0  0  0  0  0  0  0  0  0  0
   12.2852   -0.0578    1.6129 N   0  0  0  0  0  0  0  0  0  0  0  0
    9.7381    3.6918    0.0304 C   0  0  0  0  0  0  0  0  0  0  0  0
   10.7948    3.4495   -1.0243 C   0  0  0  0  0  0  0  0  0  0  0  0
   10.3760    3.4556   -2.3466 C   0  0  0  0  0  0  0  0  0  0  0  0
   11.3053    3.2204   -3.3308 C   0  0  0  0  0  0  0  0  0  0  0  0
   12.6189    2.9841   -3.0305 N   0  0  0  0  0  0  0  0  0  0  0  0
   12.9917    2.9865   -1.7287 C   0  0  0  0  0  0  0  0  0  0  0  0
   12.1134    3.2142   -0.6962 C   0  0  0  0  0  0  0  0  0  0  0  0
    6.5610    2.3622    3.7770 C   0  0  0  0  0  0  0  0  0  0  0  0
    2.8521   -0.1001    2.7229 C   0  0  0  0  0  0  0  0  0  0  0  0
    1.6970   -0.7479    2.3652 O   0  0  0  0  0  0  0  0  0  0  0  0
    2.2206    0.5105   -2.8703 C   0  0  0  0  0  0  0  0  0  0  0  0
    3.3955    1.3954   -2.6668 C   0  0  0  0  0  0  0  0  0  0  0  0
    4.5925    0.9133   -2.2293 C   0  0  0  0  0  0  0  0  0  0  0  0
    5.6373    1.7785   -2.0561 C   0  0  0  0  0  0  0  0  0  0  0  0
    5.5523    3.1316   -2.2977 C   0  0  0  0  0  0  0  0  0  0  0  0
    4.3457    3.6286   -2.7418 C   0  0  0  0  0  0  0  0  0  0  0  0
    3.2615    2.7625   -2.9281 C   0  0  0  0  0  0  0  0  0  0  0  0
   -4.8105   -4.2364    0.6118 C   0  0  0  0  0  0  0  0  0  0  0  0
   -4.4664   -3.6061    1.8993 C   0  0  0  0  0  0  0  0  0  0  0  0
   -5.2301   -2.3710    2.2640 C   0  0  0  0  0  0  0  0  0  0  0  0
   -4.6882   -4.5775    3.0772 C   0  0  0  0  0  0  0  0  0  0  0  0
  -13.5040   -3.4760    0.1466 N   0  0  0  0  0  0  0  0  0  0  0  0
  -13.3175   -2.6663   -3.9749 H   0  0  0  0  0  0  0  0  0  0  0  0
  -15.1012   -2.6085   -3.7702 H   0  0  0  0  0  0  0  0  0  0  0  0
  -14.1909   -1.1830   -3.2637 H   0  0  0  0  0  0  0  0  0  0  0  0
  -11.6438   -1.6844   -0.1313 H   0  0  0  0  0  0  0  0  0  0  0  0
  -11.1458   -2.7492   -2.8436 H   0  0  0  0  0  0  0  0  0  0  0  0
  -11.8774   -1.0938   -2.9319 H   0  0  0  0  0  0  0  0  0  0  0  0
  -10.1317   -0.0429   -1.8016 H   0  0  0  0  0  0  0  0  0  0  0  0
   -9.4584   -1.0798   -3.0764 H   0  0  0  0  0  0  0  0  0  0  0  0
   -8.9491   -2.9074   -1.5363 H   0  0  0  0  0  0  0  0  0  0  0  0
   -9.6641   -2.0328   -0.1939 H   0  0  0  0  0  0  0  0  0  0  0  0
   -7.4231   -0.7599   -1.8174 H   0  0  0  0  0  0  0  0  0  0  0  0
   -9.6502    0.6937    0.1512 H   0  0  0  0  0  0  0  0  0  0  0  0
   -7.2424    2.0624    1.3533 H   0  0  0  0  0  0  0  0  0  0  0  0
  -10.2087    0.3192    3.6779 H   0  0  0  0  0  0  0  0  0  0  0  0
   -9.1173   -0.4454    2.4286 H   0  0  0  0  0  0  0  0  0  0  0  0
   -8.5691    3.5310   -0.1246 H   0  0  0  0  0  0  0  0  0  0  0  0
   -8.4899    4.1033    1.5433 H   0  0  0  0  0  0  0  0  0  0  0  0
  -10.6613    4.2980    2.9709 H   0  0  0  0  0  0  0  0  0  0  0  0
  -13.1324    4.2014    2.4718 H   0  0  0  0  0  0  0  0  0  0  0  0
  -10.3289    2.2995   -1.6055 H   0  0  0  0  0  0  0  0  0  0  0  0
  -12.3810    1.8170   -2.9349 H   0  0  0  0  0  0  0  0  0  0  0  0
  -14.5859    2.3186   -1.9894 H   0  0  0  0  0  0  0  0  0  0  0  0
  -14.7733    3.3135    0.2624 H   0  0  0  0  0  0  0  0  0  0  0  0
   -7.1634   -3.1512   -0.0467 H   0  0  0  0  0  0  0  0  0  0  0  0
   -5.1169   -4.2707   -1.4449 H   0  0  0  0  0  0  0  0  0  0  0  0
   -2.9445   -4.1536   -1.7902 H   0  0  0  0  0  0  0  0  0  0  0  0
   -0.8500   -3.2404   -2.0018 H   0  0  0  0  0  0  0  0  0  0  0  0
    0.5667   -1.8249   -0.2600 H   0  0  0  0  0  0  0  0  0  0  0  0
    1.1110    1.4895   -1.3160 H   0  0  0  0  0  0  0  0  0  0  0  0
    2.3931   -1.1055   -0.3642 H   0  0  0  0  0  0  0  0  0  0  0  0
    4.0277   -0.9666    1.2415 H   0  0  0  0  0  0  0  0  0  0  0  0
    5.0974    1.7390    1.5639 H   0  0  0  0  0  0  0  0  0  0  0  0
    7.6176    0.6044    4.1774 H   0  0  0  0  0  0  0  0  0  0  0  0
    8.6985    0.4333    2.0290 H   0  0  0  0  0  0  0  0  0  0  0  0
    8.6107    2.0195   -0.5813 H   0  0  0  0  0  0  0  0  0  0  0  0
   10.8504    1.6239    1.4731 H   0  0  0  0  0  0  0  0  0  0  0  0
   11.2194   -1.6863    0.8985 H   0  0  0  0  0  0  0  0  0  0  0  0
   12.7710    0.1475   -0.9976 H   0  0  0  0  0  0  0  0  0  0  0  0
   11.9997   -1.3784   -1.4853 H   0  0  0  0  0  0  0  0  0  0  0  0
   14.7861    0.0460    0.3194 H   0  0  0  0  0  0  0  0  0  0  0  0
   16.8379   -1.1691    0.9533 H   0  0  0  0  0  0  0  0  0  0  0  0
   15.0204   -4.8107   -0.1931 H   0  0  0  0  0  0  0  0  0  0  0  0
   12.9220   -3.5696   -0.8410 H   0  0  0  0  0  0  0  0  0  0  0  0
   17.6311   -4.4926    0.2208 H   0  0  0  0  0  0  0  0  0  0  0  0
   12.7169    0.8477    1.3182 H   0  0  0  0  0  0  0  0  0  0  0  0
   11.7549   -0.0333    2.4910 H   0  0  0  0  0  0  0  0  0  0  0  0
    8.9620    4.3280   -0.4336 H   0  0  0  0  0  0  0  0  0  0  0  0
   10.2201    4.2056    0.8885 H   0  0  0  0  0  0  0  0  0  0  0  0
    9.3571    3.6382   -2.6428 H   0  0  0  0  0  0  0  0  0  0  0  0
   11.0658    3.2052   -4.3934 H   0  0  0  0  0  0  0  0  0  0  0  0
   14.0090    2.7930   -1.4788 H   0  0  0  0  0  0  0  0  0  0  0  0
   12.3842    3.2160    0.3484 H   0  0  0  0  0  0  0  0  0  0  0  0
    5.7868    2.7182    3.0986 H   0  0  0  0  0  0  0  0  0  0  0  0
    6.2417    2.2597    4.8109 H   0  0  0  0  0  0  0  0  0  0  0  0
    7.5031    2.9734    3.7824 H   0  0  0  0  0  0  0  0  0  0  0  0
    3.4001   -0.7162    3.4606 H   0  0  0  0  0  0  0  0  0  0  0  0
    2.6684    0.8820    3.1445 H   0  0  0  0  0  0  0  0  0  0  0  0
    1.2254   -1.1420    3.1269 H   0  0  0  0  0  0  0  0  0  0  0  0
    2.5420   -0.5315   -3.0906 H   0  0  0  0  0  0  0  0  0  0  0  0
    1.5587    0.8798   -3.6518 H   0  0  0  0  0  0  0  0  0  0  0  0
    4.6504   -0.1497   -2.0420 H   0  0  0  0  0  0  0  0  0  0  0  0
    6.5740    1.3324   -1.6964 H   0  0  0  0  0  0  0  0  0  0  0  0
    6.3922    3.7951   -2.1470 H   0  0  0  0  0  0  0  0  0  0  0  0
    4.2938    4.6857   -2.9335 H   0  0  0  0  0  0  0  0  0  0  0  0
    2.3628    3.2184   -3.2775 H   0  0  0  0  0  0  0  0  0  0  0  0
   -5.9133   -4.5073    0.7134 H   0  0  0  0  0  0  0  0  0  0  0  0
   -4.3730   -5.2733    0.5049 H   0  0  0  0  0  0  0  0  0  0  0  0
   -3.3887   -3.3053    1.9847 H   0  0  0  0  0  0  0  0  0  0  0  0
   -6.2948   -2.5325    2.1009 H   0  0  0  0  0  0  0  0  0  0  0  0
   -4.8269   -1.4636    1.7724 H   0  0  0  0  0  0  0  0  0  0  0  0
   -5.1241   -2.2294    3.4025 H   0  0  0  0  0  0  0  0  0  0  0  0
   -5.7380   -4.8124    3.2414 H   0  0  0  0  0  0  0  0  0  0  0  0
   -4.1303   -5.5171    2.8852 H   0  0  0  0  0  0  0  0  0  0  0  0
   -4.2601   -4.1346    4.0074 H   0  0  0  0  0  0  0  0  0  0  0  0
  -14.0235   -3.0319    0.9187 H   0  0  0  0  0  0  0  0  0  0  0  0
  -13.1512   -4.4579    0.1493 H   0  0  0  0  0  0  0  0  0  0  0  0
  1  2  1  0
  2  3  2  3
  3  4  1  0
  4  5  1  0
  5  6  1  0
  6  7  1  0
  7  8  1  0
  8  9  1  0
  9 10  2  0
  9 11  1  0
 11 12  1  0
 12 13  1  0
 13 14  2  0
 13 15  1  0
 12 16  1  0
 16 17  1  0
 17 18  2  0
 18 19  1  0
 19 20  1  0
 20 21  2  0
 21 22  1  0
 22 23  2  0
 23 24  1  0
 24 25  2  0
  8 26  1  0
 26 27  1  0
 27 28  2  0
 27 29  1  0
 29 30  1  0
 30 31  1  0
 31 32  2  0
 31 33  1  0
 33 34  1  0
 34 35  1  0
 35 36  2  0
 35 37  1  0
 37 38  1  0
 38 39  1  0
 39 40  2  0
 39 41  1  0
 41 42  1  0
 42 43  1  0
 43 44  2  0
 43 45  1  0
 45 46  1  0
 46 47  1  0
 47 48  2  0
 47 49  1  0
 49 50  1  0
 50 51  1  0
 51 52  2  0
 51 53  1  0
 53 54  1  0
 54 55  1  0
 55 56  2  0
 56 57  1  0
 57 58  2  0
 58 59  1  0
 59 60  2  0
 58 61  1  0
 53 62  1  0
 49 63  1  0
 63 64  1  0
 64 65  2  0
 65 66  1  0
 66 67  2  0
 67 68  1  0
 68 69  2  0
 45 70  1  0
 41 71  1  0
 71 72  1  0
 37 73  1  0
 73 74  1  0
 74 75  2  0
 75 76  1  0
 76 77  2  0
 77 78  1  0
 78 79  2  0
 29 80  1  0
 80 81  1  0
 81 82  1  0
 81 83  1  0
  3 84  1  0
 21 17  1  0
 60 55  1  0
 69 64  1  0
 79 74  1  0
 25 20  1  0
  1 85  1  0
  1 86  1  0
  1 87  1  0
  4 88  1  0
  5 89  1  0
  5 90  1  0
  6 91  1  0
  6 92  1  0
  7 93  1  0
  7 94  1  0
  8 95  1  6
 11 96  1  0
 12 97  1  1
 15 98  1  0
 15 99  1  0
 16100  1  0
 16101  1  0
 18102  1  0
 19103  1  0
 22104  1  0
 23105  1  0
 24106  1  0
 25107  1  0
 26108  1  0
 29109  1  6
 30110  1  0
 33111  1  0
 34112  1  0
 37113  1  1
 38114  1  0
 41115  1  6
 42116  1  0
 45117  1  1
 46118  1  0
 49119  1  6
 50120  1  0
 53121  1  1
 54122  1  0
 54123  1  0
 56124  1  0
 57125  1  0
 59126  1  0
 60127  1  0
 61128  1  0
 62129  1  0
 62130  1  0
 63131  1  0
 63132  1  0
 65133  1  0
 66134  1  0
 68135  1  0
 69136  1  0
 70137  1  0
 70138  1  0
 70139  1  0
 71140  1  0
 71141  1  0
 72142  1  0
 73143  1  0
 73144  1  0
 75145  1  0
 76146  1  0
 77147  1  0
 78148  1  0
 79149  1  0
 80150  1  0
 80151  1  0
 81152  1  0
 82153  1  0
 82154  1  0
 82155  1  0
 83156  1  0
 83157  1  0
 83158  1  0
 84159  1  0
 84160  1  0
M  END
>  <Ligand ID>  (1) 
LIG0005162

>  <Ligand>  (1) 
CHEMBL3314218

>  <SMILES>  (1) 
CN=C(NCCC[C@@H](C(=O)N[C@H](C(=O)N)Cc1c[nH]c2c1cccc2)NC(=O)[C@@H](NC(=O)NNC(=O)[C@@H](NC(=O)[C@@H](NC(=O)[C@@H](NC(=O)[C@H](NC(=O)[C@@H](Cc1ccc(cc1)O)N)Cc1ccncc1)C)CO)Cc1ccccc1)CC(C)C)N

>  <CID>  (1) 
118707487.0

>  <ChEMBL ID>  (1) 
nan

>  <InChiKey>  (1) 
GMPDKZHBWSZMLZ-OKAKWAGCSA-N

>  <InChi>  (1) 
InChI=1S/C57H76N16O11/c1-32(2)25-44(53(81)66-42(15-10-22-63-56(60)61-4)51(79)67-43(48(59)76)29-37-30-64-41-14-9-8-13-39(37)41)71-57(84)73-72-55(83)46(27-34-11-6-5-7-12-34)69-54(82)47(31-74)70-49(77)33(3)65-52(80)45(28-36-20-23-62-24-21-36)68-50(78)40(58)26-35-16-18-38(75)19-17-35/h5-9,11-14,16-21,23-24,30,32-33,40,42-47,64,74-75H,10,15,22,25-29,31,58H2,1-4H3,(H2,59,76)(H,65,80)(H,66,81)(H,67,79)(H,68,78)(H,69,82)(H,70,77)(H,72,83)(H3,60,61,63)(H2,71,73,84)/t33-,40+,42-,43-,44-,45+,46-,47-/m0/s1

>  <IUPAC Name>  (1) 
(2S)-2-[[[(2S)-2-[[(2S)-2-[[(2S)-2-[[(2R)-2-[[(2R)-2-amino-3-(4-hydroxyphenyl)propanoyl]amino]-3-pyridin-4-ylpropanoyl]amino]propanoyl]amino]-3-hydroxypropanoyl]amino]-3-phenylpropanoyl]amino]carbamoylamino]-N-[(2S)-1-[[(2S)-1-amino-3-(1H-indol-3-yl)-1-oxopropan-2-yl]amino]-5-[(N'-methylcarbamimidoyl)amino]-1-oxopentan-2-yl]-4-methylpentanamide

$$$$
