
     RDKit          3D

 79 82  0  0  0  0  0  0  0  0999 V2000
  -10.0043    3.8097    0.1528 O   0  0  0  0  0  0  0  0  0  0  0  0
   -8.9016    3.0142    0.3148 C   0  0  0  0  0  0  0  0  0  0  0  0
   -8.6605    2.0381   -0.6291 C   0  0  0  0  0  0  0  0  0  0  0  0
   -7.5536    1.1947   -0.5213 C   0  0  0  0  0  0  0  0  0  0  0  0
   -6.6597    1.2881    0.5103 C   0  0  0  0  0  0  0  0  0  0  0  0
   -6.9044    2.2730    1.4615 C   0  0  0  0  0  0  0  0  0  0  0  0
   -8.0069    3.1200    1.3632 C   0  0  0  0  0  0  0  0  0  0  0  0
   -5.4628    0.4428    0.6810 C   0  0  0  0  0  0  0  0  0  0  0  0
   -4.2501    1.0911    0.1066 C   0  0  1  0  0  0  0  0  0  0  0  0
   -3.0273    0.2615    0.2701 C   0  0  0  0  0  0  0  0  0  0  0  0
   -2.8148   -0.1517    1.4635 O   0  0  0  0  0  0  0  0  0  0  0  0
   -2.1414   -0.0659   -0.7915 N   0  0  0  0  0  0  0  0  0  0  0  0
   -2.2923    0.3379   -2.1799 C   0  0  0  0  0  0  0  0  0  0  0  0
   -1.2479   -0.4350   -2.9509 C   0  0  0  0  0  0  0  0  0  0  0  0
   -0.2498   -0.8707   -1.9437 C   0  0  0  0  0  0  0  0  0  0  0  0
   -0.9576   -0.8495   -0.6350 C   0  0  1  0  0  0  0  0  0  0  0  0
   -0.0748   -0.4231    0.4851 C   0  0  0  0  0  0  0  0  0  0  0  0
   -0.3145    0.5630    1.2248 O   0  0  0  0  0  0  0  0  0  0  0  0
    1.1014   -1.2087    0.6951 N   0  0  0  0  0  0  0  0  0  0  0  0
    2.0534   -0.9360    1.7257 C   0  0  2  0  0  0  0  0  0  0  0  0
    3.3931   -0.5805    1.2112 C   0  0  0  0  0  0  0  0  0  0  0  0
    4.2837   -0.3336    2.0843 O   0  0  0  0  0  0  0  0  0  0  0  0
    3.6515   -0.5230   -0.1852 N   0  0  0  0  0  0  0  0  0  0  0  0
    4.8967   -0.1822   -0.7841 C   0  0  2  0  0  0  0  0  0  0  0  0
    5.8622   -1.2790   -0.9411 C   0  0  0  0  0  0  0  0  0  0  0  0
    6.9796   -1.0238   -1.4665 O   0  0  0  0  0  0  0  0  0  0  0  0
    5.5779   -2.6175   -0.5204 N   0  0  0  0  0  0  0  0  0  0  0  0
    5.6177    0.9950   -0.1401 C   0  0  0  0  0  0  0  0  0  0  0  0
    4.8820    2.2552   -0.1975 C   0  0  0  0  0  0  0  0  0  0  0  0
    4.0287    2.7643    0.7385 C   0  0  0  0  0  0  0  0  0  0  0  0
    3.3644    3.9847    0.5822 C   0  0  0  0  0  0  0  0  0  0  0  0
    3.5548    4.7371   -0.5565 C   0  0  0  0  0  0  0  0  0  0  0  0
    4.4126    4.2421   -1.5149 C   0  0  0  0  0  0  0  0  0  0  0  0
    5.0622    3.0376   -1.3502 C   0  0  0  0  0  0  0  0  0  0  0  0
    2.0908   -2.0461    2.7606 C   0  0  0  0  0  0  0  0  0  0  0  0
    2.4506   -3.3566    2.2180 C   0  0  0  0  0  0  0  0  0  0  0  0
    3.7371   -3.8447    2.1165 C   0  0  0  0  0  0  0  0  0  0  0  0
    4.0075   -5.1084    1.5872 C   0  0  0  0  0  0  0  0  0  0  0  0
    2.9552   -5.8953    1.1515 C   0  0  0  0  0  0  0  0  0  0  0  0
    1.6496   -5.4303    1.2412 C   0  0  0  0  0  0  0  0  0  0  0  0
    1.4218   -4.1769    1.7697 C   0  0  0  0  0  0  0  0  0  0  0  0
   -4.4970    1.5210   -1.2360 N   0  0  0  0  0  0  0  0  0  0  0  0
   -9.9576    4.8011   -0.0679 H   0  0  0  0  0  0  0  0  0  0  0  0
   -9.3448    1.9212   -1.4755 H   0  0  0  0  0  0  0  0  0  0  0  0
   -7.4461    0.4608   -1.2862 H   0  0  0  0  0  0  0  0  0  0  0  0
   -6.2533    2.4225    2.3123 H   0  0  0  0  0  0  0  0  0  0  0  0
   -8.1888    3.8947    2.1222 H   0  0  0  0  0  0  0  0  0  0  0  0
   -5.2730    0.2470    1.7605 H   0  0  0  0  0  0  0  0  0  0  0  0
   -5.7008   -0.5363    0.2151 H   0  0  0  0  0  0  0  0  0  0  0  0
   -4.0730    2.0267    0.7033 H   0  0  0  0  0  0  0  0  0  0  0  0
   -3.2726   -0.0792   -2.5289 H   0  0  0  0  0  0  0  0  0  0  0  0
   -2.2781    1.4127   -2.3470 H   0  0  0  0  0  0  0  0  0  0  0  0
   -0.8170    0.1666   -3.7737 H   0  0  0  0  0  0  0  0  0  0  0  0
   -1.6597   -1.3692   -3.4238 H   0  0  0  0  0  0  0  0  0  0  0  0
    0.6651   -0.2252   -1.9299 H   0  0  0  0  0  0  0  0  0  0  0  0
    0.1367   -1.9062   -2.1191 H   0  0  0  0  0  0  0  0  0  0  0  0
   -1.2940   -1.8988   -0.4048 H   0  0  0  0  0  0  0  0  0  0  0  0
    1.3017   -2.0408    0.0691 H   0  0  0  0  0  0  0  0  0  0  0  0
    1.6787   -0.0342    2.2782 H   0  0  0  0  0  0  0  0  0  0  0  0
    2.8154   -0.7634   -0.8016 H   0  0  0  0  0  0  0  0  0  0  0  0
    4.6627    0.2212   -1.8146 H   0  0  0  0  0  0  0  0  0  0  0  0
    6.3459   -3.2303   -0.1340 H   0  0  0  0  0  0  0  0  0  0  0  0
    4.6190   -3.0294   -0.5790 H   0  0  0  0  0  0  0  0  0  0  0  0
    5.9835    0.7265    0.8865 H   0  0  0  0  0  0  0  0  0  0  0  0
    6.5724    1.0881   -0.7308 H   0  0  0  0  0  0  0  0  0  0  0  0
    3.8299    2.2458    1.6542 H   0  0  0  0  0  0  0  0  0  0  0  0
    2.6977    4.3509    1.3475 H   0  0  0  0  0  0  0  0  0  0  0  0
    3.0249    5.6749   -0.6438 H   0  0  0  0  0  0  0  0  0  0  0  0
    4.5478    4.8513   -2.4039 H   0  0  0  0  0  0  0  0  0  0  0  0
    5.7217    2.7154   -2.1502 H   0  0  0  0  0  0  0  0  0  0  0  0
    2.7905   -1.7699    3.5727 H   0  0  0  0  0  0  0  0  0  0  0  0
    1.0673   -2.0948    3.1991 H   0  0  0  0  0  0  0  0  0  0  0  0
    4.5492   -3.2043    2.4673 H   0  0  0  0  0  0  0  0  0  0  0  0
    5.0151   -5.4861    1.5096 H   0  0  0  0  0  0  0  0  0  0  0  0
    3.0796   -6.8775    0.7327 H   0  0  0  0  0  0  0  0  0  0  0  0
    0.8023   -6.0102    0.9139 H   0  0  0  0  0  0  0  0  0  0  0  0
    0.3864   -3.8254    1.8332 H   0  0  0  0  0  0  0  0  0  0  0  0
   -4.5323    2.5374   -1.3918 H   0  0  0  0  0  0  0  0  0  0  0  0
   -5.2157    0.9837   -1.7177 H   0  0  0  0  0  0  0  0  0  0  0  0
  1  2  1  0
  2  3  2  0
  3  4  1  0
  4  5  2  0
  5  6  1  0
  6  7  2  0
  5  8  1  0
  8  9  1  0
  9 10  1  0
 10 11  2  0
 10 12  1  0
 12 13  1  0
 13 14  1  0
 14 15  1  0
 15 16  1  0
 16 17  1  0
 17 18  2  0
 17 19  1  0
 19 20  1  0
 20 21  1  0
 21 22  2  0
 21 23  1  0
 23 24  1  0
 24 25  1  0
 25 26  2  0
 25 27  1  0
 24 28  1  0
 28 29  1  0
 29 30  2  0
 30 31  1  0
 31 32  2  0
 32 33  1  0
 33 34  2  0
 20 35  1  0
 35 36  1  0
 36 37  2  0
 37 38  1  0
 38 39  2  0
 39 40  1  0
 40 41  2  0
  9 42  1  0
  7  2  1  0
 16 12  1  0
 34 29  1  0
 41 36  1  0
  1 43  1  0
  3 44  1  0
  4 45  1  0
  6 46  1  0
  7 47  1  0
  8 48  1  0
  8 49  1  0
  9 50  1  1
 13 51  1  0
 13 52  1  0
 14 53  1  0
 14 54  1  0
 15 55  1  0
 15 56  1  0
 16 57  1  1
 19 58  1  0
 20 59  1  1
 23 60  1  0
 24 61  1  6
 27 62  1  0
 27 63  1  0
 28 64  1  0
 28 65  1  0
 30 66  1  0
 31 67  1  0
 32 68  1  0
 33 69  1  0
 34 70  1  0
 35 71  1  0
 35 72  1  0
 37 73  1  0
 38 74  1  0
 39 75  1  0
 40 76  1  0
 41 77  1  0
 42 78  1  0
 42 79  1  0
M  END
>  <Ligand ID>  (1) 
LIG0002898

>  <Ligand>  (1) 
Endomorphin 2

>  <SMILES>  (1) 
Oc1ccc(cc1)C[C@@H](C(=O)N1CCC[C@H]1C(=O)N[C@H](C(=O)N[C@H](C(=O)N)Cc1ccccc1)Cc1ccccc1)N

>  <CID>  (1) 
5311081.0

>  <ChEMBL ID>  (1) 
nan

>  <InChiKey>  (1) 
XIJHWXXXIMEHKW-LJWNLINESA-N

>  <InChi>  (1) 
InChI=1S/C32H37N5O5/c33-25(18-23-13-15-24(38)16-14-23)32(42)37-17-7-12-28(37)31(41)36-27(20-22-10-5-2-6-11-22)30(40)35-26(29(34)39)19-21-8-3-1-4-9-21/h1-6,8-11,13-16,25-28,38H,7,12,17-20,33H2,(H2,34,39)(H,35,40)(H,36,41)/t25-,26-,27-,28-/m0/s1

>  <IUPAC Name>  (1) 
(2S)-1-[(2S)-2-amino-3-(4-hydroxyphenyl)propanoyl]-N-[(2S)-1-[[(2S)-1-amino-1-oxo-3-phenylpropan-2-yl]amino]-1-oxo-3-phenylpropan-2-yl]pyrrolidine-2-carboxamide

$$$$
