
     RDKit          3D

 26 27  0  0  0  0  0  0  0  0999 V2000
   -2.7836    1.1394   -0.2307 C   0  0  0  0  0  0  0  0  0  0  0  0
   -2.2835   -0.2791   -0.1596 C   0  0  0  0  0  0  0  0  0  0  0  0
   -0.8037   -0.3549   -0.3050 C   0  0  0  0  0  0  0  0  0  0  0  0
   -0.2000   -1.0767   -1.3137 C   0  0  0  0  0  0  0  0  0  0  0  0
    1.1714   -1.1284   -1.4229 C   0  0  0  0  0  0  0  0  0  0  0  0
    1.9663   -0.4563   -0.5216 C   0  0  0  0  0  0  0  0  0  0  0  0
    1.3425    0.2654    0.4874 C   0  0  0  0  0  0  0  0  0  0  0  0
   -0.0389    0.3224    0.6041 C   0  0  0  0  0  0  0  0  0  0  0  0
    2.1768    0.9235    1.3683 C   0  0  0  0  0  0  0  0  0  0  0  0
    3.5567    0.8673    1.2525 C   0  0  0  0  0  0  0  0  0  0  0  0
    4.1182    0.1360    0.2321 C   0  0  0  0  0  0  0  0  0  0  0  0
    3.3135   -0.5099   -0.6329 N   0  0  0  0  0  0  0  0  0  0  0  0
   -2.7347   -0.8570    1.1646 C   0  0  0  0  0  0  0  0  0  0  0  0
   -3.8956    1.0638   -0.3642 H   0  0  0  0  0  0  0  0  0  0  0  0
   -2.3228    1.7415   -1.0353 H   0  0  0  0  0  0  0  0  0  0  0  0
   -2.6599    1.5990    0.7699 H   0  0  0  0  0  0  0  0  0  0  0  0
   -2.7918   -0.8789   -0.9698 H   0  0  0  0  0  0  0  0  0  0  0  0
   -0.8556   -1.6001   -2.0145 H   0  0  0  0  0  0  0  0  0  0  0  0
    1.5737   -1.7184   -2.2447 H   0  0  0  0  0  0  0  0  0  0  0  0
   -0.4900    0.8829    1.3869 H   0  0  0  0  0  0  0  0  0  0  0  0
    1.7324    1.4979    2.1699 H   0  0  0  0  0  0  0  0  0  0  0  0
    4.2303    1.3713    1.9262 H   0  0  0  0  0  0  0  0  0  0  0  0
    5.1868    0.0528    0.0879 H   0  0  0  0  0  0  0  0  0  0  0  0
   -2.9080   -1.9344    1.0193 H   0  0  0  0  0  0  0  0  0  0  0  0
   -1.9553   -0.7083    1.9677 H   0  0  0  0  0  0  0  0  0  0  0  0
   -3.6453   -0.3607    1.5510 H   0  0  0  0  0  0  0  0  0  0  0  0
  1  2  1  0
  2  3  1  0
  3  4  2  0
  4  5  1  0
  5  6  2  0
  6  7  1  0
  7  8  2  0
  7  9  1  0
  9 10  2  0
 10 11  1  0
 11 12  2  0
  2 13  1  0
  8  3  1  0
 12  6  1  0
  1 14  1  0
  1 15  1  0
  1 16  1  0
  2 17  1  0
  4 18  1  0
  5 19  1  0
  8 20  1  0
  9 21  1  0
 10 22  1  0
 11 23  1  0
 13 24  1  0
 13 25  1  0
 13 26  1  0
M  END
>  <Ligand ID>  (1) 
LIG0000368

>  <Ligand>  (1) 
6-Isopropylquinoline

>  <SMILES>  (1) 
CC(c1ccc2c(c1)cccn2)C

>  <CID>  (1) 
67285.0

>  <ChEMBL ID>  (1) 
nan

>  <InChiKey>  (1) 
NKCQEIXYLHACJC-UHFFFAOYSA-N

>  <InChi>  (1) 
InChI=1S/C12H13N/c1-9(2)10-5-6-12-11(8-10)4-3-7-13-12/h3-9H,1-2H3

>  <IUPAC Name>  (1) 
6-propan-2-ylquinoline

$$$$
