
     RDKit          3D

142147  0  0  0  0  0  0  0  0999 V2000
    3.1022   -7.8682    3.9099 N   0  0  0  0  0  0  0  0  0  0  0  0
    3.9794   -7.9989    2.7814 C   0  0  0  0  0  0  0  0  0  0  0  0
    4.6629   -6.7196    2.4210 C   0  0  0  0  0  0  0  0  0  0  0  0
    3.6722   -5.6595    2.0634 C   0  0  0  0  0  0  0  0  0  0  0  0
    4.3425   -4.3527    1.6949 C   0  0  0  0  0  0  0  0  0  0  0  0
    3.3710   -3.2931    1.3335 C   0  0  2  0  0  0  0  0  0  0  0  0
    2.5112   -3.6502    0.1840 N   0  0  0  0  0  0  0  0  0  0  0  0
    1.1468   -3.2933    0.1335 C   0  0  0  0  0  0  0  0  0  0  0  0
    0.8456   -2.5273    1.1515 O   0  0  0  0  0  0  0  0  0  0  0  0
    0.0653   -3.5667   -0.7622 C   0  0  2  0  0  0  0  0  0  0  0  0
    0.2063   -4.2646   -2.0299 C   0  0  0  0  0  0  0  0  0  0  0  0
    0.6230   -5.6689   -1.9540 C   0  0  0  0  0  0  0  0  0  0  0  0
    1.8839   -6.1718   -2.0962 C   0  0  0  0  0  0  0  0  0  0  0  0
    2.0486   -7.5314   -1.9952 C   0  0  0  0  0  0  0  0  0  0  0  0
    1.0882   -8.4408   -1.7695 C   0  0  0  0  0  0  0  0  0  0  0  0
   -0.2230   -7.9402   -1.6223 C   0  0  0  0  0  0  0  0  0  0  0  0
   -0.4543   -6.5726   -1.7129 C   0  0  0  0  0  0  0  0  0  0  0  0
   -0.9782   -2.5031   -0.7251 N   0  0  0  0  0  0  0  0  0  0  0  0
   -2.3422   -2.7831   -0.4709 C   0  0  0  0  0  0  0  0  0  0  0  0
   -2.5662   -4.0366   -0.2930 O   0  0  0  0  0  0  0  0  0  0  0  0
   -3.4830   -1.9131   -0.3877 C   0  0  2  0  0  0  0  0  0  0  0  0
   -4.5089   -2.3198   -1.4767 C   0  0  0  0  0  0  0  0  0  0  0  0
   -5.7110   -1.4811   -1.4441 C   0  0  0  0  0  0  0  0  0  0  0  0
   -5.8783   -0.2897   -2.1093 C   0  0  0  0  0  0  0  0  0  0  0  0
   -7.0643    0.4493   -2.0572 C   0  0  0  0  0  0  0  0  0  0  0  0
   -8.0874   -0.0651   -1.3016 C   0  0  0  0  0  0  0  0  0  0  0  0
   -7.9877   -1.2489   -0.6121 C   0  0  0  0  0  0  0  0  0  0  0  0
   -6.8019   -1.9311   -0.6967 C   0  0  0  0  0  0  0  0  0  0  0  0
   -3.3454   -0.4870   -0.5103 N   0  0  0  0  0  0  0  0  0  0  0  0
   -3.7152    0.3857    0.6218 C   0  0  0  0  0  0  0  0  0  0  0  0
   -3.9801   -0.2934    1.6289 O   0  0  0  0  0  0  0  0  0  0  0  0
   -3.7420    1.8356    0.5202 C   0  0  2  0  0  0  0  0  0  0  0  0
   -5.1327    2.3279    0.9490 C   0  0  0  0  0  0  0  0  0  0  0  0
   -5.5162    2.0101    2.3294 C   0  0  0  0  0  0  0  0  0  0  0  0
   -6.9058    2.5353    2.6205 C   0  0  0  0  0  0  0  0  0  0  0  0
   -7.1335    3.8938    2.5351 N   0  0  0  0  0  0  0  0  0  0  0  0
   -6.3518    4.8782    2.7104 C   0  0  0  0  0  0  0  0  0  0  0  0
   -6.9721    6.1819    2.5248 N   0  0  0  0  0  0  0  0  0  0  0  0
   -4.9833    4.7786    3.0791 N   0  0  0  0  0  0  0  0  0  0  0  0
   -3.4089    2.3865   -0.7823 N   0  0  0  0  0  0  0  0  0  0  0  0
   -2.3283    3.3495   -0.9526 C   0  0  0  0  0  0  0  0  0  0  0  0
   -1.7646    3.6285    0.1076 O   0  0  0  0  0  0  0  0  0  0  0  0
   -2.0007    3.8930   -2.2956 C   0  0  1  0  0  0  0  0  0  0  0  0
   -0.6447    4.2714   -2.5329 N   0  0  0  0  0  0  0  0  0  0  0  0
    0.0783    5.2564   -1.7187 C   0  0  0  0  0  0  0  0  0  0  0  0
   -0.6631    5.7580   -0.8700 O   0  0  0  0  0  0  0  0  0  0  0  0
    1.4593    5.4769   -2.0184 C   0  0  2  0  0  0  0  0  0  0  0  0
    2.4555    4.7253   -1.2206 N   0  0  0  0  0  0  0  0  0  0  0  0
    2.1817    4.1301    0.0231 C   0  0  0  0  0  0  0  0  0  0  0  0
    1.0878    4.5303    0.5182 O   0  0  0  0  0  0  0  0  0  0  0  0
    2.9535    3.1766    0.7978 C   0  0  1  0  0  0  0  0  0  0  0  0
    3.8968    2.3522    0.0978 N   0  0  0  0  0  0  0  0  0  0  0  0
    3.6667    0.9511    0.0858 C   0  0  0  0  0  0  0  0  0  0  0  0
    2.6573    0.5386    0.6782 O   0  0  0  0  0  0  0  0  0  0  0  0
    4.5286   -0.0727   -0.5778 C   0  0  1  0  0  0  0  0  0  0  0  0
    3.8448   -1.3455   -0.2752 N   0  0  0  0  0  0  0  0  0  0  0  0
    4.0802   -1.9979    0.9860 C   0  0  0  0  0  0  0  0  0  0  0  0
    4.8759   -1.4284    1.7285 O   0  0  0  0  0  0  0  0  0  0  0  0
    4.7436    0.1604   -2.0223 C   0  0  0  0  0  0  0  0  0  0  0  0
    3.6571    3.9409    1.9332 C   0  0  0  0  0  0  0  0  0  0  0  0
    4.4654    3.0023    2.7599 C   0  0  0  0  0  0  0  0  0  0  0  0
    5.7455    2.7283    2.3497 C   0  0  0  0  0  0  0  0  0  0  0  0
    6.6201    1.8984    3.0185 C   0  0  0  0  0  0  0  0  0  0  0  0
    6.1624    1.3110    4.1743 C   0  0  0  0  0  0  0  0  0  0  0  0
    4.8872    1.5550    4.6262 C   0  0  0  0  0  0  0  0  0  0  0  0
    4.0081    2.4143    3.9192 C   0  0  0  0  0  0  0  0  0  0  0  0
    3.6603    4.8980   -1.9635 C   0  0  0  0  0  0  0  0  0  0  0  0
    3.5496    6.3978   -2.3239 C   0  0  0  0  0  0  0  0  0  0  0  0
    2.0940    6.8001   -1.9633 C   0  0  0  0  0  0  0  0  0  0  0  0
   -0.0981    3.6499   -3.7136 C   0  0  0  0  0  0  0  0  0  0  0  0
   -1.3153    3.0470   -4.4040 C   0  0  0  0  0  0  0  0  0  0  0  0
   -2.1872    2.6881   -3.2323 C   0  0  0  0  0  0  0  0  0  0  0  0
    2.4010   -7.1392    3.8216 H   0  0  0  0  0  0  0  0  0  0  0  0
    2.6750   -8.8119    4.1548 H   0  0  0  0  0  0  0  0  0  0  0  0
    3.4125   -8.4117    1.8926 H   0  0  0  0  0  0  0  0  0  0  0  0
    4.7171   -8.8195    2.9916 H   0  0  0  0  0  0  0  0  0  0  0  0
    5.2684   -6.9461    1.4894 H   0  0  0  0  0  0  0  0  0  0  0  0
    5.3543   -6.4375    3.2345 H   0  0  0  0  0  0  0  0  0  0  0  0
    2.9676   -5.4792    2.9286 H   0  0  0  0  0  0  0  0  0  0  0  0
    3.0340   -6.0272    1.2522 H   0  0  0  0  0  0  0  0  0  0  0  0
    5.0783   -4.5507    0.8957 H   0  0  0  0  0  0  0  0  0  0  0  0
    4.9362   -4.0070    2.5795 H   0  0  0  0  0  0  0  0  0  0  0  0
    2.6981   -3.0426    2.1650 H   0  0  0  0  0  0  0  0  0  0  0  0
    2.9432   -4.1265   -0.5680 H   0  0  0  0  0  0  0  0  0  0  0  0
   -0.5582   -4.4160   -0.1326 H   0  0  0  0  0  0  0  0  0  0  0  0
   -0.7615   -4.2452   -2.5983 H   0  0  0  0  0  0  0  0  0  0  0  0
    0.9014   -3.6788   -2.7029 H   0  0  0  0  0  0  0  0  0  0  0  0
    2.7041   -5.5202   -2.2975 H   0  0  0  0  0  0  0  0  0  0  0  0
    3.0910   -7.8877   -2.1143 H   0  0  0  0  0  0  0  0  0  0  0  0
    1.2050   -9.5120   -1.6859 H   0  0  0  0  0  0  0  0  0  0  0  0
   -1.0535   -8.6278   -1.4430 H   0  0  0  0  0  0  0  0  0  0  0  0
   -1.4543   -6.2159   -1.6036 H   0  0  0  0  0  0  0  0  0  0  0  0
   -0.7453   -1.5246   -0.8852 H   0  0  0  0  0  0  0  0  0  0  0  0
   -4.0284   -2.1826    0.5652 H   0  0  0  0  0  0  0  0  0  0  0  0
   -4.7086   -3.3914   -1.3222 H   0  0  0  0  0  0  0  0  0  0  0  0
   -3.9516   -2.2355   -2.4332 H   0  0  0  0  0  0  0  0  0  0  0  0
   -5.0540    0.0751   -2.6908 H   0  0  0  0  0  0  0  0  0  0  0  0
   -7.1827    1.3931   -2.5916 H   0  0  0  0  0  0  0  0  0  0  0  0
   -9.0220    0.4596   -1.2307 H   0  0  0  0  0  0  0  0  0  0  0  0
   -8.8077   -1.6419   -0.0230 H   0  0  0  0  0  0  0  0  0  0  0  0
   -6.6943   -2.8611   -0.1654 H   0  0  0  0  0  0  0  0  0  0  0  0
   -3.0104    0.0456   -1.3073 H   0  0  0  0  0  0  0  0  0  0  0  0
   -3.0068    2.2286    1.2557 H   0  0  0  0  0  0  0  0  0  0  0  0
   -5.2285    3.3990    0.6986 H   0  0  0  0  0  0  0  0  0  0  0  0
   -5.8656    1.8135    0.2635 H   0  0  0  0  0  0  0  0  0  0  0  0
   -5.6090    0.8882    2.4528 H   0  0  0  0  0  0  0  0  0  0  0  0
   -4.8062    2.4127    3.0895 H   0  0  0  0  0  0  0  0  0  0  0  0
   -7.6310    2.0305    1.8806 H   0  0  0  0  0  0  0  0  0  0  0  0
   -7.2684    2.0659    3.5987 H   0  0  0  0  0  0  0  0  0  0  0  0
   -7.0106    6.6315    1.5914 H   0  0  0  0  0  0  0  0  0  0  0  0
   -7.3561    6.5882    3.4030 H   0  0  0  0  0  0  0  0  0  0  0  0
   -4.7719    4.8004    4.1100 H   0  0  0  0  0  0  0  0  0  0  0  0
   -4.1918    4.6909    2.4289 H   0  0  0  0  0  0  0  0  0  0  0  0
   -3.8908    2.1539   -1.6508 H   0  0  0  0  0  0  0  0  0  0  0  0
   -2.7028    4.7018   -2.5821 H   0  0  0  0  0  0  0  0  0  0  0  0
    1.7062    5.0802   -3.0854 H   0  0  0  0  0  0  0  0  0  0  0  0
    2.2278    2.5180    1.3159 H   0  0  0  0  0  0  0  0  0  0  0  0
    4.7425    2.6487   -0.4063 H   0  0  0  0  0  0  0  0  0  0  0  0
    5.5119   -0.0285   -0.0193 H   0  0  0  0  0  0  0  0  0  0  0  0
    3.2097   -1.8276   -0.8959 H   0  0  0  0  0  0  0  0  0  0  0  0
    3.8037    0.5780   -2.4841 H   0  0  0  0  0  0  0  0  0  0  0  0
    5.4984    0.9955   -2.1208 H   0  0  0  0  0  0  0  0  0  0  0  0
    5.1252   -0.6946   -2.5823 H   0  0  0  0  0  0  0  0  0  0  0  0
    2.9206    4.4899    2.5515 H   0  0  0  0  0  0  0  0  0  0  0  0
    4.3537    4.6949    1.5176 H   0  0  0  0  0  0  0  0  0  0  0  0
    6.1106    3.1900    1.4430 H   0  0  0  0  0  0  0  0  0  0  0  0
    7.6349    1.7225    2.6237 H   0  0  0  0  0  0  0  0  0  0  0  0
    6.7700    0.6458    4.7517 H   0  0  0  0  0  0  0  0  0  0  0  0
    4.5288    1.0941    5.5403 H   0  0  0  0  0  0  0  0  0  0  0  0
    3.0213    2.6015    4.2723 H   0  0  0  0  0  0  0  0  0  0  0  0
    3.6196    4.3532   -2.9457 H   0  0  0  0  0  0  0  0  0  0  0  0
    4.6010    4.7219   -1.4138 H   0  0  0  0  0  0  0  0  0  0  0  0
    4.2485    6.9314   -1.6641 H   0  0  0  0  0  0  0  0  0  0  0  0
    3.7604    6.5727   -3.3909 H   0  0  0  0  0  0  0  0  0  0  0  0
    1.7122    7.5075   -2.7114 H   0  0  0  0  0  0  0  0  0  0  0  0
    2.1125    7.2744   -0.9700 H   0  0  0  0  0  0  0  0  0  0  0  0
    0.2104    4.5057   -4.3996 H   0  0  0  0  0  0  0  0  0  0  0  0
    0.7251    2.9653   -3.5642 H   0  0  0  0  0  0  0  0  0  0  0  0
   -0.9652    2.1860   -4.9657 H   0  0  0  0  0  0  0  0  0  0  0  0
   -1.8643    3.7912   -5.0112 H   0  0  0  0  0  0  0  0  0  0  0  0
   -3.2423    2.5428   -3.5095 H   0  0  0  0  0  0  0  0  0  0  0  0
   -1.7321    1.8242   -2.6934 H   0  0  0  0  0  0  0  0  0  0  0  0
  1  2  1  0
  2  3  1  0
  3  4  1  0
  4  5  1  0
  5  6  1  0
  6  7  1  0
  7  8  1  0
  8  9  2  0
  8 10  1  0
 10 11  1  0
 11 12  1  0
 12 13  2  0
 13 14  1  0
 14 15  2  0
 15 16  1  0
 16 17  2  0
 10 18  1  0
 18 19  1  0
 19 20  2  0
 19 21  1  0
 21 22  1  0
 22 23  1  0
 23 24  2  0
 24 25  1  0
 25 26  2  0
 26 27  1  0
 27 28  2  0
 21 29  1  0
 29 30  1  0
 30 31  2  0
 30 32  1  0
 32 33  1  0
 33 34  1  0
 34 35  1  0
 35 36  1  0
 36 37  2  3
 37 38  1  0
 37 39  1  0
 32 40  1  0
 40 41  1  0
 41 42  2  0
 41 43  1  0
 43 44  1  0
 44 45  1  0
 45 46  2  0
 45 47  1  0
 47 48  1  0
 48 49  1  0
 49 50  2  0
 49 51  1  0
 51 52  1  0
 52 53  1  0
 53 54  2  0
 53 55  1  0
 55 56  1  0
 56 57  1  0
 57 58  2  0
 55 59  1  0
 51 60  1  0
 60 61  1  0
 61 62  2  0
 62 63  1  0
 63 64  2  0
 64 65  1  0
 65 66  2  0
 48 67  1  0
 67 68  1  0
 68 69  1  0
 44 70  1  0
 70 71  1  0
 71 72  1  0
 57  6  1  0
 66 61  1  0
 17 12  1  0
 28 23  1  0
 72 43  1  0
 69 47  1  0
  1 73  1  0
  1 74  1  0
  2 75  1  0
  2 76  1  0
  3 77  1  0
  3 78  1  0
  4 79  1  0
  4 80  1  0
  5 81  1  0
  5 82  1  0
  6 83  1  1
  7 84  1  0
 10 85  1  1
 11 86  1  0
 11 87  1  0
 13 88  1  0
 14 89  1  0
 15 90  1  0
 16 91  1  0
 17 92  1  0
 18 93  1  0
 21 94  1  1
 22 95  1  0
 22 96  1  0
 24 97  1  0
 25 98  1  0
 26 99  1  0
 27100  1  0
 28101  1  0
 29102  1  0
 32103  1  1
 33104  1  0
 33105  1  0
 34106  1  0
 34107  1  0
 35108  1  0
 35109  1  0
 38110  1  0
 38111  1  0
 39112  1  0
 39113  1  0
 40114  1  0
 43115  1  6
 47116  1  6
 51117  1  1
 52118  1  0
 55119  1  1
 56120  1  0
 59121  1  0
 59122  1  0
 59123  1  0
 60124  1  0
 60125  1  0
 62126  1  0
 63127  1  0
 64128  1  0
 65129  1  0
 66130  1  0
 67131  1  0
 67132  1  0
 68133  1  0
 68134  1  0
 69135  1  0
 69136  1  0
 70137  1  0
 70138  1  0
 71139  1  0
 71140  1  0
 72141  1  0
 72142  1  0
M  END
>  <Ligand ID>  (1) 
LIG0005500

>  <Ligand>  (1) 
CHEMBL3577999

>  <SMILES>  (1) 
NCCCC[C@@H]1NC(=O)[C@H](Cc2ccccc2)NC(=O)[C@H](Cc2ccccc2)NC(=O)[C@H](CCCN=C(N)N)NC(=O)[C@H]2N(C(=O)[C@@H]3N(C(=O)[C@@H](NC(=O)[C@@H](NC1=O)C)Cc1ccccc1)CCC3)CCC2

>  <CID>  (1) 
122178170.0

>  <ChEMBL ID>  (1) 
nan

>  <InChiKey>  (1) 
GECURXWEFHHWFQ-LVXPXGLXSA-N

>  <InChi>  (1) 
InChI=1S/C52H70N12O8/c1-33-44(65)62-41(32-36-20-9-4-10-21-36)50(71)64-29-15-25-43(64)51(72)63-28-14-24-42(63)49(70)59-38(23-13-27-56-52(54)55)46(67)60-40(31-35-18-7-3-8-19-35)48(69)61-39(30-34-16-5-2-6-17-34)47(68)58-37(45(66)57-33)22-11-12-26-53/h2-10,16-21,33,37-43H,11-15,22-32,53H2,1H3,(H,57,66)(H,58,68)(H,59,70)(H,60,67)(H,61,69)(H,62,65)(H4,54,55,56)/t33-,37-,38-,39-,40-,41-,42-,43+/m0/s1

>  <IUPAC Name>  (1) 
2-[3-[(3R,9S,12S,15S,18S,21S,24S,27S)-15-(4-aminobutyl)-9,18,21-tribenzyl-12-methyl-2,8,11,14,17,20,23,26-octaoxo-1,7,10,13,16,19,22,25-octazatricyclo[25.3.0.03,7]triacontan-24-yl]propyl]guanidine

$$$$
