
     RDKit          3D

134138  0  0  0  0  0  0  0  0999 V2000
   -1.6738   -5.2772   -2.8202 O   0  0  0  0  0  0  0  0  0  0  0  0
   -1.1053   -4.8887   -1.7711 C   0  0  0  0  0  0  0  0  0  0  0  0
    0.3432   -4.7835   -1.7626 C   0  0  0  0  0  0  0  0  0  0  0  0
    0.9799   -4.2764   -0.5733 N   0  0  0  0  0  0  0  0  0  0  0  0
    0.6309   -2.9581   -0.1571 C   0  0  0  0  0  0  0  0  0  0  0  0
   -0.2217   -2.3929   -0.8556 O   0  0  0  0  0  0  0  0  0  0  0  0
    1.2412   -2.2809    1.0541 C   0  0  1  0  0  0  0  0  0  0  0  0
    2.6288   -2.3718    1.1787 N   0  0  0  0  0  0  0  0  0  0  0  0
    3.5766   -2.7501    0.1890 C   0  0  0  0  0  0  0  0  0  0  0  0
    3.2690   -3.0450   -1.0009 O   0  0  0  0  0  0  0  0  0  0  0  0
    5.0513   -2.8356    0.4731 C   0  0  2  0  0  0  0  0  0  0  0  0
    5.4945   -4.2156    0.0570 C   0  0  0  0  0  0  0  0  0  0  0  0
    6.9431   -4.4260    0.2720 C   0  0  0  0  0  0  0  0  0  0  0  0
    7.7863   -4.0832   -0.7728 C   0  0  0  0  0  0  0  0  0  0  0  0
    9.1355   -4.2380   -0.7127 C   0  0  0  0  0  0  0  0  0  0  0  0
    9.6978   -4.7626    0.4444 C   0  0  0  0  0  0  0  0  0  0  0  0
    8.8572   -5.1091    1.4985 C   0  0  0  0  0  0  0  0  0  0  0  0
    7.4906   -4.9453    1.4205 C   0  0  0  0  0  0  0  0  0  0  0  0
   11.0859   -4.9327    0.5304 O   0  0  0  0  0  0  0  0  0  0  0  0
    5.3208   -2.6581    1.8788 N   0  0  0  0  0  0  0  0  0  0  0  0
    0.4716   -1.0682    1.3795 C   0  0  0  0  0  0  0  0  0  0  0  0
   -0.9485   -1.4361    1.8536 C   0  0  0  0  0  0  0  0  0  0  0  0
    1.0494   -0.2142    2.4538 C   0  0  0  0  0  0  0  0  0  0  0  0
    0.1831   -0.0569   -0.1143 S   0  0  0  0  0  0  0  0  0  0  0  0
    1.8233    0.9780   -0.8415 S   0  0  0  0  0  0  0  0  0  0  0  0
    1.9660    2.7018   -0.3474 C   0  0  0  0  0  0  0  0  0  0  0  0
    1.9794    2.8509    1.1286 C   0  0  0  0  0  0  0  0  0  0  0  0
    3.4254    3.0834   -0.7994 C   0  0  0  0  0  0  0  0  0  0  0  0
    1.1042    3.6051   -1.1366 C   0  0  2  0  0  0  0  0  0  0  0  0
    1.1061    4.9858   -0.7075 N   0  0  0  0  0  0  0  0  0  0  0  0
    1.7056    6.0428   -1.4462 C   0  0  0  0  0  0  0  0  0  0  0  0
    2.2815    5.8016   -2.5411 O   0  0  0  0  0  0  0  0  0  0  0  0
    1.6131    7.4029   -0.8669 C   0  0  2  0  0  0  0  0  0  0  0  0
    2.9915    7.9045   -0.5454 C   0  0  0  0  0  0  0  0  0  0  0  0
    2.9518    9.2729    0.0418 C   0  0  0  0  0  0  0  0  0  0  0  0
    3.0060   10.4154   -0.7278 C   0  0  0  0  0  0  0  0  0  0  0  0
    2.9622   11.6789   -0.1666 C   0  0  0  0  0  0  0  0  0  0  0  0
    2.8618   11.8541    1.1990 C   0  0  0  0  0  0  0  0  0  0  0  0
    2.8070   10.7003    1.9798 C   0  0  0  0  0  0  0  0  0  0  0  0
    2.8510    9.4533    1.4101 C   0  0  0  0  0  0  0  0  0  0  0  0
    2.8167   13.0999    1.7763 O   0  0  0  0  0  0  0  0  0  0  0  0
    0.8619    7.4304    0.3845 N   0  0  0  0  0  0  0  0  0  0  0  0
   -0.2402    3.1428   -1.5244 C   0  0  0  0  0  0  0  0  0  0  0  0
   -0.5473    1.9850   -1.8528 O   0  0  0  0  0  0  0  0  0  0  0  0
   -1.3858    4.0463   -1.5697 N   0  0  0  0  0  0  0  0  0  0  0  0
   -2.6927    3.6055   -1.9701 C   0  0  0  0  0  0  0  0  0  0  0  0
   -3.3143    2.5732   -1.1199 C   0  0  0  0  0  0  0  0  0  0  0  0
   -2.8303    2.0846   -0.0921 O   0  0  0  0  0  0  0  0  0  0  0  0
   -4.6132    2.0342   -1.4703 N   0  0  0  0  0  0  0  0  0  0  0  0
   -5.2764    1.0508   -0.6030 C   0  0  2  0  0  0  0  0  0  0  0  0
   -5.0920   -0.3312   -1.1338 C   0  0  0  0  0  0  0  0  0  0  0  0
   -4.6015   -0.5926   -2.2465 O   0  0  0  0  0  0  0  0  0  0  0  0
   -5.4709   -1.4656   -0.3703 N   0  0  0  0  0  0  0  0  0  0  0  0
   -5.3085   -2.8019   -0.8020 N   0  0  0  0  0  0  0  0  0  0  0  0
   -3.9955   -3.3119   -0.6144 C   0  0  0  0  0  0  0  0  0  0  0  0
   -3.2100   -2.4842   -0.1125 O   0  0  0  0  0  0  0  0  0  0  0  0
   -3.4800   -4.6515   -0.9355 C   0  0  1  0  0  0  0  0  0  0  0  0
   -2.0067   -4.6065   -0.7056 N   0  0  0  0  0  0  0  0  0  0  0  0
   -4.1014   -5.6892   -0.0294 C   0  0  0  0  0  0  0  0  0  0  0  0
   -3.5801   -7.0507   -0.3413 C   0  0  0  0  0  0  0  0  0  0  0  0
   -4.1802   -7.8819   -1.2680 C   0  0  0  0  0  0  0  0  0  0  0  0
   -3.6269   -9.1309   -1.4974 C   0  0  0  0  0  0  0  0  0  0  0  0
   -2.4824   -9.5602   -0.8135 C   0  0  0  0  0  0  0  0  0  0  0  0
   -1.9402   -8.6815    0.0931 C   0  0  0  0  0  0  0  0  0  0  0  0
   -2.4372   -7.4348    0.3660 C   0  0  0  0  0  0  0  0  0  0  0  0
   -6.6833    1.5082   -0.5109 C   0  0  0  0  0  0  0  0  0  0  0  0
   -7.6162    0.7261    0.2806 C   0  0  0  0  0  0  0  0  0  0  0  0
   -8.3593   -0.2596   -0.3654 C   0  0  0  0  0  0  0  0  0  0  0  0
   -9.2743   -1.0521    0.2925 C   0  0  0  0  0  0  0  0  0  0  0  0
   -9.4213   -0.8152    1.6533 C   0  0  0  0  0  0  0  0  0  0  0  0
   -8.6854    0.1657    2.3094 C   0  0  0  0  0  0  0  0  0  0  0  0
   -7.7883    0.9304    1.6211 C   0  0  0  0  0  0  0  0  0  0  0  0
    0.7593   -5.7782   -2.0648 H   0  0  0  0  0  0  0  0  0  0  0  0
    0.6092   -4.1337   -2.6612 H   0  0  0  0  0  0  0  0  0  0  0  0
    1.6401   -4.7673    0.0284 H   0  0  0  0  0  0  0  0  0  0  0  0
    0.8677   -3.1018    1.8334 H   0  0  0  0  0  0  0  0  0  0  0  0
    3.0626   -2.1347    2.1284 H   0  0  0  0  0  0  0  0  0  0  0  0
    5.6143   -2.0965   -0.1416 H   0  0  0  0  0  0  0  0  0  0  0  0
    4.9065   -4.9430    0.6938 H   0  0  0  0  0  0  0  0  0  0  0  0
    5.2551   -4.3997   -1.0273 H   0  0  0  0  0  0  0  0  0  0  0  0
    7.3735   -3.6705   -1.6924 H   0  0  0  0  0  0  0  0  0  0  0  0
    9.7525   -3.9526   -1.5595 H   0  0  0  0  0  0  0  0  0  0  0  0
    9.3136   -5.5174    2.3916 H   0  0  0  0  0  0  0  0  0  0  0  0
    6.8127   -5.2124    2.2392 H   0  0  0  0  0  0  0  0  0  0  0  0
   11.5305   -5.8062    0.2361 H   0  0  0  0  0  0  0  0  0  0  0  0
    4.7548   -3.3395    2.4202 H   0  0  0  0  0  0  0  0  0  0  0  0
    5.0520   -1.6835    2.1299 H   0  0  0  0  0  0  0  0  0  0  0  0
   -1.6953   -0.8099    1.3779 H   0  0  0  0  0  0  0  0  0  0  0  0
   -1.0805   -2.5277    1.6170 H   0  0  0  0  0  0  0  0  0  0  0  0
   -0.9444   -1.3713    2.9629 H   0  0  0  0  0  0  0  0  0  0  0  0
    2.0399    0.1862    2.1742 H   0  0  0  0  0  0  0  0  0  0  0  0
    0.3989    0.6411    2.7171 H   0  0  0  0  0  0  0  0  0  0  0  0
    1.1259   -0.7812    3.4365 H   0  0  0  0  0  0  0  0  0  0  0  0
    2.8439    2.2821    1.5228 H   0  0  0  0  0  0  0  0  0  0  0  0
    1.0377    2.5690    1.5987 H   0  0  0  0  0  0  0  0  0  0  0  0
    2.2239    3.9265    1.4135 H   0  0  0  0  0  0  0  0  0  0  0  0
    4.0752    2.2495   -0.4775 H   0  0  0  0  0  0  0  0  0  0  0  0
    3.7339    4.0214   -0.3491 H   0  0  0  0  0  0  0  0  0  0  0  0
    3.4144    3.0975   -1.8992 H   0  0  0  0  0  0  0  0  0  0  0  0
    1.6388    3.6327   -2.1866 H   0  0  0  0  0  0  0  0  0  0  0  0
    0.6290    5.1863    0.2109 H   0  0  0  0  0  0  0  0  0  0  0  0
    1.0639    8.0362   -1.5897 H   0  0  0  0  0  0  0  0  0  0  0  0
    3.6029    7.9423   -1.4627 H   0  0  0  0  0  0  0  0  0  0  0  0
    3.3952    7.2343    0.2454 H   0  0  0  0  0  0  0  0  0  0  0  0
    3.0860   10.3201   -1.7967 H   0  0  0  0  0  0  0  0  0  0  0  0
    3.0094   12.5290   -0.8076 H   0  0  0  0  0  0  0  0  0  0  0  0
    2.7267   10.8549    3.0558 H   0  0  0  0  0  0  0  0  0  0  0  0
    2.8023    8.5872    2.0639 H   0  0  0  0  0  0  0  0  0  0  0  0
    3.6714   13.5612    2.0409 H   0  0  0  0  0  0  0  0  0  0  0  0
   -0.1185    7.1372    0.2639 H   0  0  0  0  0  0  0  0  0  0  0  0
    1.4101    6.8700    1.0732 H   0  0  0  0  0  0  0  0  0  0  0  0
   -1.1490    4.9991   -1.2900 H   0  0  0  0  0  0  0  0  0  0  0  0
   -3.3695    4.5104   -1.8545 H   0  0  0  0  0  0  0  0  0  0  0  0
   -2.7270    3.2914   -3.0395 H   0  0  0  0  0  0  0  0  0  0  0  0
   -4.9957    2.3893   -2.3381 H   0  0  0  0  0  0  0  0  0  0  0  0
   -4.7573    1.0224    0.3968 H   0  0  0  0  0  0  0  0  0  0  0  0
   -5.8806   -1.3214    0.5322 H   0  0  0  0  0  0  0  0  0  0  0  0
   -6.0042   -3.3900   -1.1976 H   0  0  0  0  0  0  0  0  0  0  0  0
   -3.7216   -4.9002   -1.9614 H   0  0  0  0  0  0  0  0  0  0  0  0
   -1.5966   -4.3981    0.1946 H   0  0  0  0  0  0  0  0  0  0  0  0
   -4.0035   -5.4890    1.0394 H   0  0  0  0  0  0  0  0  0  0  0  0
   -5.1792   -5.7106   -0.2664 H   0  0  0  0  0  0  0  0  0  0  0  0
   -5.0607   -7.5439   -1.7894 H   0  0  0  0  0  0  0  0  0  0  0  0
   -4.0590   -9.7985   -2.2024 H   0  0  0  0  0  0  0  0  0  0  0  0
   -2.0415  -10.5333   -0.9851 H   0  0  0  0  0  0  0  0  0  0  0  0
   -1.0429   -8.9735    0.6528 H   0  0  0  0  0  0  0  0  0  0  0  0
   -1.9608   -6.7967    1.0915 H   0  0  0  0  0  0  0  0  0  0  0  0
   -7.0659    1.6194   -1.5740 H   0  0  0  0  0  0  0  0  0  0  0  0
   -6.6485    2.5847   -0.1641 H   0  0  0  0  0  0  0  0  0  0  0  0
   -8.2278   -0.4264   -1.4239 H   0  0  0  0  0  0  0  0  0  0  0  0
   -9.8518   -1.8212   -0.2291 H   0  0  0  0  0  0  0  0  0  0  0  0
  -10.1425   -1.4415    2.1607 H   0  0  0  0  0  0  0  0  0  0  0  0
   -8.8615    0.2837    3.3694 H   0  0  0  0  0  0  0  0  0  0  0  0
   -7.2083    1.6990    2.1142 H   0  0  0  0  0  0  0  0  0  0  0  0
  1  2  2  0
  2  3  1  0
  3  4  1  0
  4  5  1  0
  5  6  2  0
  5  7  1  0
  7  8  1  0
  8  9  1  0
  9 10  2  0
  9 11  1  0
 11 12  1  0
 12 13  1  0
 13 14  2  0
 14 15  1  0
 15 16  2  0
 16 17  1  0
 17 18  2  0
 16 19  1  0
 11 20  1  0
  7 21  1  0
 21 22  1  0
 21 23  1  0
 21 24  1  0
 24 25  1  0
 25 26  1  0
 26 27  1  0
 26 28  1  0
 26 29  1  0
 29 30  1  0
 30 31  1  0
 31 32  2  0
 31 33  1  0
 33 34  1  0
 34 35  1  0
 35 36  2  0
 36 37  1  0
 37 38  2  0
 38 39  1  0
 39 40  2  0
 38 41  1  0
 33 42  1  0
 29 43  1  0
 43 44  2  0
 43 45  1  0
 45 46  1  0
 46 47  1  0
 47 48  2  0
 47 49  1  0
 49 50  1  0
 50 51  1  0
 51 52  2  0
 51 53  1  0
 53 54  1  0
 54 55  1  0
 55 56  2  0
 55 57  1  0
 57 58  1  0
 57 59  1  0
 59 60  1  0
 60 61  2  0
 61 62  1  0
 62 63  2  0
 63 64  1  0
 64 65  2  0
 50 66  1  0
 66 67  1  0
 67 68  2  0
 68 69  1  0
 69 70  2  0
 70 71  1  0
 71 72  2  0
 58  2  1  0
 65 60  1  0
 72 67  1  0
 18 13  1  0
 40 35  1  0
  3 73  1  0
  3 74  1  0
  4 75  1  0
  7 76  1  1
  8 77  1  0
 11 78  1  6
 12 79  1  0
 12 80  1  0
 14 81  1  0
 15 82  1  0
 17 83  1  0
 18 84  1  0
 19 85  1  0
 20 86  1  0
 20 87  1  0
 22 88  1  0
 22 89  1  0
 22 90  1  0
 23 91  1  0
 23 92  1  0
 23 93  1  0
 27 94  1  0
 27 95  1  0
 27 96  1  0
 28 97  1  0
 28 98  1  0
 28 99  1  0
 29100  1  6
 30101  1  0
 33102  1  6
 34103  1  0
 34104  1  0
 36105  1  0
 37106  1  0
 39107  1  0
 40108  1  0
 41109  1  0
 42110  1  0
 42111  1  0
 45112  1  0
 46113  1  0
 46114  1  0
 49115  1  0
 50116  1  1
 53117  1  0
 54118  1  0
 57119  1  6
 58120  1  0
 59121  1  0
 59122  1  0
 61123  1  0
 62124  1  0
 63125  1  0
 64126  1  0
 65127  1  0
 66128  1  0
 66129  1  0
 68130  1  0
 69131  1  0
 70132  1  0
 71133  1  0
 72134  1  0
M  END
>  <Ligand ID>  (1) 
LIG0003554

>  <Ligand>  (1) 
CHEMBL3331511

>  <SMILES>  (1) 
O=C1CNC(=O)[C@@H](NC(=O)[C@H](Cc2ccc(cc2)O)N)C(C)(C)SSC(C)(C)[C@H](NC(=O)[C@H](Cc2ccc(cc2)O)N)C(=O)NCC(=O)N[C@H](C(=O)NNC(=O)[C@@H](N1)Cc1ccccc1)Cc1ccccc1

>  <CID>  (1) 
118713811.0

>  <ChEMBL ID>  (1) 
nan

>  <InChiKey>  (1) 
BNEJMYFGXBQLFU-DGLGNKQCSA-N

>  <InChi>  (1) 
InChI=1S/C50H62N10O10S2/c1-49(2)41(57-43(65)35(51)23-31-15-19-33(61)20-16-31)47(69)53-27-39(63)55-37(25-29-11-7-5-8-12-29)45(67)59-60-46(68)38(26-30-13-9-6-10-14-30)56-40(64)28-54-48(70)42(50(3,4)72-71-49)58-44(66)36(52)24-32-17-21-34(62)22-18-32/h5-22,35-38,41-42,61-62H,23-28,51-52H2,1-4H3,(H,53,69)(H,54,70)(H,55,63)(H,56,64)(H,57,65)(H,58,66)(H,59,67)(H,60,68)/t35-,36-,37-,38-,41+,42+/m0/s1

>  <IUPAC Name>  (1) 
(2S)-2-amino-N-[(4R,10S,15S,21R)-21-[[(2S)-2-amino-3-(4-hydroxyphenyl)propanoyl]amino]-10,15-dibenzyl-3,3,22,22-tetramethyl-5,8,11,14,17,20-hexaoxo-1,2-dithia-6,9,12,13,16,19-hexazacyclodocos-4-yl]-3-(4-hydroxyphenyl)propanamide

$$$$
