
     RDKit          3D

 44 46  0  0  0  0  0  0  0  0999 V2000
   -5.9114    0.4371   -0.3567 C   0  0  0  0  0  0  0  0  0  0  0  0
   -4.7608    0.8600    0.5237 C   0  0  0  0  0  0  0  0  0  0  0  0
   -3.9471   -0.3582    0.9381 C   0  0  0  0  0  0  0  0  0  0  0  0
   -2.7909    0.0419    1.8195 C   0  0  0  0  0  0  0  0  0  0  0  0
   -1.9016    0.9465    1.1441 N   0  0  0  0  0  0  0  0  0  0  0  0
   -2.0638    2.2881    1.3102 N   0  0  0  0  0  0  0  0  0  0  0  0
   -1.1005    2.9219    0.6267 C   0  0  0  0  0  0  0  0  0  0  0  0
   -0.3804    1.9521    0.0640 N   0  0  0  0  0  0  0  0  0  0  0  0
   -0.8399    0.7274    0.3560 C   0  0  0  0  0  0  0  0  0  0  0  0
   -0.2330   -0.5027   -0.1171 C   0  0  0  0  0  0  0  0  0  0  0  0
   -0.7309   -1.7596    0.1344 C   0  0  0  0  0  0  0  0  0  0  0  0
   -0.1570   -2.9381   -0.3498 C   0  0  0  0  0  0  0  0  0  0  0  0
    0.9601   -2.8651   -1.1188 C   0  0  0  0  0  0  0  0  0  0  0  0
    1.4747   -1.6206   -1.3841 C   0  0  0  0  0  0  0  0  0  0  0  0
    0.9036   -0.4357   -0.9000 C   0  0  0  0  0  0  0  0  0  0  0  0
    1.5671    0.7505   -1.2956 N   0  0  0  0  0  0  0  0  0  0  0  0
    2.7937    0.7404   -2.1111 C   0  0  0  0  0  0  0  0  0  0  0  0
    3.8859    0.2493   -1.2404 C   0  0  0  0  0  0  0  0  0  0  0  0
    4.7801   -0.6536   -1.4033 N   0  0  0  0  0  0  0  0  0  0  0  0
    5.6587   -0.8117   -0.2883 C   0  0  0  0  0  0  0  0  0  0  0  0
    5.4998    0.5104    0.4431 C   0  0  0  0  0  0  0  0  0  0  0  0
    4.1168    0.8302    0.0638 N   0  0  0  0  0  0  0  0  0  0  0  0
   -5.5581    0.3475   -1.4174 H   0  0  0  0  0  0  0  0  0  0  0  0
   -6.7869    1.1124   -0.2588 H   0  0  0  0  0  0  0  0  0  0  0  0
   -6.2643   -0.5600   -0.0225 H   0  0  0  0  0  0  0  0  0  0  0  0
   -4.0741    1.5468   -0.0157 H   0  0  0  0  0  0  0  0  0  0  0  0
   -5.1171    1.4184    1.4118 H   0  0  0  0  0  0  0  0  0  0  0  0
   -4.5706   -1.0783    1.5071 H   0  0  0  0  0  0  0  0  0  0  0  0
   -3.5748   -0.7930   -0.0108 H   0  0  0  0  0  0  0  0  0  0  0  0
   -2.3375   -0.8291    2.2940 H   0  0  0  0  0  0  0  0  0  0  0  0
   -3.3105    0.6202    2.6698 H   0  0  0  0  0  0  0  0  0  0  0  0
   -0.9325    3.9970    0.5421 H   0  0  0  0  0  0  0  0  0  0  0  0
   -1.6185   -1.9325    0.7132 H   0  0  0  0  0  0  0  0  0  0  0  0
   -0.5771   -3.9040   -0.1296 H   0  0  0  0  0  0  0  0  0  0  0  0
    1.4249   -3.7550   -1.5063 H   0  0  0  0  0  0  0  0  0  0  0  0
    2.3416   -1.5802   -2.0001 H   0  0  0  0  0  0  0  0  0  0  0  0
    1.2615    1.7200   -1.0528 H   0  0  0  0  0  0  0  0  0  0  0  0
    2.9712    1.7850   -2.4349 H   0  0  0  0  0  0  0  0  0  0  0  0
    2.6764    0.1101   -3.0220 H   0  0  0  0  0  0  0  0  0  0  0  0
    6.6859   -0.9988   -0.6330 H   0  0  0  0  0  0  0  0  0  0  0  0
    5.3184   -1.6143    0.4267 H   0  0  0  0  0  0  0  0  0  0  0  0
    6.1290    1.2583   -0.0784 H   0  0  0  0  0  0  0  0  0  0  0  0
    5.6447    0.4455    1.5228 H   0  0  0  0  0  0  0  0  0  0  0  0
    3.4455    1.3738    0.6395 H   0  0  0  0  0  0  0  0  0  0  0  0
  1  2  1  0
  2  3  1  0
  3  4  1  0
  4  5  1  0
  5  6  1  0
  6  7  2  0
  7  8  1  0
  8  9  2  0
  9 10  1  0
 10 11  2  0
 11 12  1  0
 12 13  2  0
 13 14  1  0
 14 15  2  0
 15 16  1  0
 16 17  1  0
 17 18  1  0
 18 19  2  0
 19 20  1  0
 20 21  1  0
 21 22  1  0
  9  5  1  0
 15 10  1  0
 22 18  1  0
  1 23  1  0
  1 24  1  0
  1 25  1  0
  2 26  1  0
  2 27  1  0
  3 28  1  0
  3 29  1  0
  4 30  1  0
  4 31  1  0
  7 32  1  0
 11 33  1  0
 12 34  1  0
 13 35  1  0
 14 36  1  0
 16 37  1  0
 17 38  1  0
 17 39  1  0
 20 40  1  0
 20 41  1  0
 21 42  1  0
 21 43  1  0
 22 44  1  0
M  END
>  <Ligand ID>  (1) 
LIG0004328

>  <Ligand>  (1) 
CHEMBL18436

>  <SMILES>  (1) 
CCCCn1ncnc1c1ccccc1NCC1=NCCN1

>  <CID>  (1) 
22493367.0

>  <ChEMBL ID>  (1) 
nan

>  <InChiKey>  (1) 
NKCHSAFUOLWUFI-UHFFFAOYSA-N

>  <InChi>  (1) 
InChI=1S/C16H22N6/c1-2-3-10-22-16(20-12-21-22)13-6-4-5-7-14(13)19-11-15-17-8-9-18-15/h4-7,12,19H,2-3,8-11H2,1H3,(H,17,18)

>  <IUPAC Name>  (1) 
2-(2-butyl-1,2,4-triazol-3-yl)-N-(4,5-dihydro-1H-imidazol-2-ylmethyl)aniline

$$$$
