
     RDKit          3D

 20 19  0  0  0  0  0  0  0  0999 V2000
    1.0428    1.1872    0.0751 C   0  0  0  0  0  0  0  0  0  0  0  0
    1.0482   -0.2397   -0.4233 C   0  0  0  0  0  0  0  0  0  0  0  0
   -0.2465   -0.6804   -0.9561 C   0  0  0  0  0  0  0  0  0  0  0  0
   -1.4462   -0.6909   -0.1103 C   0  0  0  0  0  0  0  0  0  0  0  0
   -1.8924    0.5836    0.4746 C   0  0  0  0  0  0  0  0  0  0  0  0
   -1.7981    0.7317    1.7477 O   0  0  0  0  0  0  0  0  0  0  0  0
   -2.4103    1.6438   -0.2696 O   0  0  0  0  0  0  0  0  0  0  0  0
    1.6553   -1.1139    0.6274 C   0  0  0  0  0  0  0  0  0  0  0  0
    2.0670    1.6293    0.0062 H   0  0  0  0  0  0  0  0  0  0  0  0
    0.7901    1.2143    1.1529 H   0  0  0  0  0  0  0  0  0  0  0  0
    0.3669    1.8017   -0.5622 H   0  0  0  0  0  0  0  0  0  0  0  0
    1.7642   -0.2144   -1.3009 H   0  0  0  0  0  0  0  0  0  0  0  0
   -0.1048   -1.7537   -1.2858 H   0  0  0  0  0  0  0  0  0  0  0  0
   -0.4295   -0.1286   -1.9300 H   0  0  0  0  0  0  0  0  0  0  0  0
   -2.3022   -1.0270   -0.7582 H   0  0  0  0  0  0  0  0  0  0  0  0
   -1.3367   -1.4797    0.6900 H   0  0  0  0  0  0  0  0  0  0  0  0
   -2.3415    2.5878    0.1405 H   0  0  0  0  0  0  0  0  0  0  0  0
    1.0810   -2.0482    0.7752 H   0  0  0  0  0  0  0  0  0  0  0  0
    1.8179   -0.5480    1.5967 H   0  0  0  0  0  0  0  0  0  0  0  0
    2.6749   -1.4550    0.3101 H   0  0  0  0  0  0  0  0  0  0  0  0
  1  2  1  0
  2  3  1  0
  3  4  1  0
  4  5  1  0
  5  6  2  0
  5  7  1  0
  2  8  1  0
  1  9  1  0
  1 10  1  0
  1 11  1  0
  2 12  1  0
  3 13  1  0
  3 14  1  0
  4 15  1  0
  4 16  1  0
  7 17  1  0
  8 18  1  0
  8 19  1  0
  8 20  1  0
M  END
>  <Ligand ID>  (1) 
LIG0000046

>  <Ligand>  (1) 
Isocaproic acid

>  <SMILES>  (1) 
CC(CCC(=O)O)C

>  <CID>  (1) 
12587.0

>  <ChEMBL ID>  (1) 
nan

>  <InChiKey>  (1) 
FGKJLKRYENPLQH-UHFFFAOYSA-N

>  <InChi>  (1) 
InChI=1S/C6H12O2/c1-5(2)3-4-6(7)8/h5H,3-4H2,1-2H3,(H,7,8)

>  <IUPAC Name>  (1) 
4-methylpentanoic acid

$$$$
