
     RDKit          3D

 48 51  0  0  0  0  0  0  0  0999 V2000
    0.3178    1.1541    0.9364 O   0  0  0  0  0  0  0  0  0  0  0  0
   -0.6091    0.4656    0.3554 C   0  0  0  0  0  0  0  0  0  0  0  0
   -0.2407   -0.9191    0.0715 C   0  0  0  0  0  0  0  0  0  0  0  0
    1.1490   -1.1693   -0.1126 C   0  0  0  0  0  0  0  0  0  0  0  0
    1.3761   -2.8749   -0.3928 S   0  0  0  0  0  0  0  0  0  0  0  0
   -0.3724   -3.2375   -0.2618 C   0  0  0  0  0  0  0  0  0  0  0  0
   -1.0191   -1.9961   -0.0040 C   0  0  0  0  0  0  0  0  0  0  0  0
   -2.5072   -2.3061    0.2041 C   0  0  0  0  0  0  0  0  0  0  0  0
   -3.0451   -2.9354   -1.0292 C   0  0  0  0  0  0  0  0  0  0  0  0
   -2.3615   -4.2637   -1.3294 C   0  0  0  0  0  0  0  0  0  0  0  0
   -1.1734   -4.4894   -0.3875 C   0  0  0  0  0  0  0  0  0  0  0  0
    2.2331   -0.2523   -0.0973 N   0  0  0  0  0  0  0  0  0  0  0  0
    2.9651    0.0940    1.0588 C   0  0  0  0  0  0  0  0  0  0  0  0
    2.6685   -0.4273    2.1885 O   0  0  0  0  0  0  0  0  0  0  0  0
    4.0523    1.0520    0.9147 C   0  0  0  0  0  0  0  0  0  0  0  0
    4.0145    2.2471    1.6011 C   0  0  0  0  0  0  0  0  0  0  0  0
    5.0463    3.1821    1.4792 C   0  0  0  0  0  0  0  0  0  0  0  0
    6.1039    2.8471    0.6368 C   0  0  0  0  0  0  0  0  0  0  0  0
    6.1403    1.6467   -0.0517 C   0  0  0  0  0  0  0  0  0  0  0  0
    5.1105    0.7322    0.0803 C   0  0  0  0  0  0  0  0  0  0  0  0
    5.1450   -0.7907   -0.7862 Cl  0  0  0  0  0  0  0  0  0  0  0  0
   -1.7681    1.1836    0.1078 N   0  0  0  0  0  0  0  0  0  0  0  0
   -1.7049    2.5981    0.6375 C   0  0  0  0  0  0  0  0  0  0  0  0
   -3.1474    3.0492    0.6009 C   0  0  0  0  0  0  0  0  0  0  0  0
   -3.4564    3.2469   -0.7436 O   0  0  0  0  0  0  0  0  0  0  0  0
   -3.4375    2.0571   -1.4573 C   0  0  0  0  0  0  0  0  0  0  0  0
   -2.9597    0.8953   -0.5940 C   0  0  0  0  0  0  0  0  0  0  0  0
   -3.0583   -1.5013    0.6080 H   0  0  0  0  0  0  0  0  0  0  0  0
   -2.4990   -3.0877    1.0582 H   0  0  0  0  0  0  0  0  0  0  0  0
   -2.9527   -2.2430   -1.8694 H   0  0  0  0  0  0  0  0  0  0  0  0
   -4.1177   -3.1602   -0.8652 H   0  0  0  0  0  0  0  0  0  0  0  0
   -2.0344   -4.2532   -2.3678 H   0  0  0  0  0  0  0  0  0  0  0  0
   -3.0365   -5.1081   -1.1677 H   0  0  0  0  0  0  0  0  0  0  0  0
   -0.5657   -5.2736   -0.9265 H   0  0  0  0  0  0  0  0  0  0  0  0
   -1.5254   -4.8318    0.5862 H   0  0  0  0  0  0  0  0  0  0  0  0
    2.4846    0.1823   -1.0258 H   0  0  0  0  0  0  0  0  0  0  0  0
    3.2047    2.5241    2.2572 H   0  0  0  0  0  0  0  0  0  0  0  0
    5.0206    4.1238    2.0179 H   0  0  0  0  0  0  0  0  0  0  0  0
    6.9233    3.5479    0.5168 H   0  0  0  0  0  0  0  0  0  0  0  0
    6.9479    1.3636   -0.7103 H   0  0  0  0  0  0  0  0  0  0  0  0
   -1.2682    2.6042    1.6384 H   0  0  0  0  0  0  0  0  0  0  0  0
   -1.1508    3.1730   -0.1303 H   0  0  0  0  0  0  0  0  0  0  0  0
   -3.8012    2.3301    1.1161 H   0  0  0  0  0  0  0  0  0  0  0  0
   -3.2132    4.0660    1.0672 H   0  0  0  0  0  0  0  0  0  0  0  0
   -4.4676    1.8635   -1.8126 H   0  0  0  0  0  0  0  0  0  0  0  0
   -2.8002    2.2114   -2.3481 H   0  0  0  0  0  0  0  0  0  0  0  0
   -2.7869    0.0756   -1.3158 H   0  0  0  0  0  0  0  0  0  0  0  0
   -3.8233    0.6044    0.0480 H   0  0  0  0  0  0  0  0  0  0  0  0
  1  2  2  0
  2  3  1  0
  3  4  2  0
  4  5  1  0
  5  6  1  0
  6  7  2  0
  7  8  1  0
  8  9  1  0
  9 10  1  0
 10 11  1  0
  4 12  1  0
 12 13  1  0
 13 14  2  0
 13 15  1  0
 15 16  2  0
 16 17  1  0
 17 18  2  0
 18 19  1  0
 19 20  2  0
 20 21  1  0
  2 22  1  0
 22 23  1  0
 23 24  1  0
 24 25  1  0
 25 26  1  0
 26 27  1  0
  7  3  1  0
 20 15  1  0
 27 22  1  0
 11  6  1  0
  8 28  1  0
  8 29  1  0
  9 30  1  0
  9 31  1  0
 10 32  1  0
 10 33  1  0
 11 34  1  0
 11 35  1  0
 12 36  1  0
 16 37  1  0
 17 38  1  0
 18 39  1  0
 19 40  1  0
 23 41  1  0
 23 42  1  0
 24 43  1  0
 24 44  1  0
 26 45  1  0
 26 46  1  0
 27 47  1  0
 27 48  1  0
M  END
>  <Ligand ID>  (1) 
LIG0003074

>  <Ligand>  (1) 
CHEMBL2205621

>  <SMILES>  (1) 
O=C(c1c(sc2c1CCCC2)NC(=O)c1ccccc1Cl)N1CCOCC1

>  <CID>  (1) 
1350471.0

>  <ChEMBL ID>  (1) 
nan

>  <InChiKey>  (1) 
ATXDAVMXQDOABZ-UHFFFAOYSA-N

>  <InChi>  (1) 
InChI=1S/C20H21ClN2O3S/c21-15-7-3-1-5-13(15)18(24)22-19-17(14-6-2-4-8-16(14)27-19)20(25)23-9-11-26-12-10-23/h1,3,5,7H,2,4,6,8-12H2,(H,22,24)

>  <IUPAC Name>  (1) 
2-chloro-N-[3-(morpholine-4-carbonyl)-4,5,6,7-tetrahydro-1-benzothiophen-2-yl]benzamide

$$$$
