
     RDKit          3D

 39 42  0  0  0  0  0  0  0  0999 V2000
    8.2780   -1.7259   -0.6007 F   0  0  0  0  0  0  0  0  0  0  0  0
    7.0329   -1.2201   -0.4321 C   0  0  0  0  0  0  0  0  0  0  0  0
    6.0596   -1.2988   -1.4038 C   0  0  0  0  0  0  0  0  0  0  0  0
    4.8027   -0.7827   -1.2206 C   0  0  0  0  0  0  0  0  0  0  0  0
    4.4698   -0.1502   -0.0181 C   0  0  0  0  0  0  0  0  0  0  0  0
    5.4543   -0.0698    0.9666 C   0  0  0  0  0  0  0  0  0  0  0  0
    6.7056   -0.5943    0.7595 C   0  0  0  0  0  0  0  0  0  0  0  0
    3.1715    0.3713    0.1441 N   0  0  0  0  0  0  0  0  0  0  0  0
    2.9966    1.7030    0.1160 C   0  0  0  0  0  0  0  0  0  0  0  0
    1.7099    2.2184    0.2767 C   0  0  0  0  0  0  0  0  0  0  0  0
    0.6839    1.3140    0.4569 C   0  0  0  0  0  0  0  0  0  0  0  0
    0.8602   -0.0156    0.4847 N   0  0  0  0  0  0  0  0  0  0  0  0
    2.1301   -0.4745    0.3242 C   0  0  0  0  0  0  0  0  0  0  0  0
    2.3042   -1.7390    0.3498 O   0  0  0  0  0  0  0  0  0  0  0  0
   -0.3373   -0.6318    0.6777 C   0  0  0  0  0  0  0  0  0  0  0  0
   -1.2869    0.3692    0.7716 C   0  0  0  0  0  0  0  0  0  0  0  0
   -0.6443    1.5529    0.6343 N   0  0  0  0  0  0  0  0  0  0  0  0
   -2.7550    0.2259    0.9838 C   0  0  0  0  0  0  0  0  0  0  0  0
   -3.4003    0.1284   -0.2822 O   0  0  0  0  0  0  0  0  0  0  0  0
   -4.7629   -0.0122   -0.3851 C   0  0  0  0  0  0  0  0  0  0  0  0
   -5.5925   -0.0677    0.7369 C   0  0  0  0  0  0  0  0  0  0  0  0
   -6.9710   -0.2115    0.5719 C   0  0  0  0  0  0  0  0  0  0  0  0
   -7.5086   -0.2987   -0.7163 C   0  0  0  0  0  0  0  0  0  0  0  0
   -6.6602   -0.2401   -1.7915 C   0  0  0  0  0  0  0  0  0  0  0  0
   -5.2967   -0.0987   -1.6626 C   0  0  0  0  0  0  0  0  0  0  0  0
    6.3054   -1.7912   -2.3508 H   0  0  0  0  0  0  0  0  0  0  0  0
    4.0531   -0.8538   -1.9934 H   0  0  0  0  0  0  0  0  0  0  0  0
    5.1684    0.4237    1.8838 H   0  0  0  0  0  0  0  0  0  0  0  0
    7.4571   -0.5204    1.5404 H   0  0  0  0  0  0  0  0  0  0  0  0
    3.8134    2.4048   -0.0268 H   0  0  0  0  0  0  0  0  0  0  0  0
    1.5103    3.2857    0.2625 H   0  0  0  0  0  0  0  0  0  0  0  0
   -0.5146   -1.6963    0.7448 H   0  0  0  0  0  0  0  0  0  0  0  0
   -3.0132   -0.6251    1.6454 H   0  0  0  0  0  0  0  0  0  0  0  0
   -3.1524    1.1290    1.5232 H   0  0  0  0  0  0  0  0  0  0  0  0
   -5.1731    0.0001    1.7315 H   0  0  0  0  0  0  0  0  0  0  0  0
   -7.5936   -0.2520    1.4573 H   0  0  0  0  0  0  0  0  0  0  0  0
   -8.5773   -0.4095   -0.8188 H   0  0  0  0  0  0  0  0  0  0  0  0
   -7.0512   -0.3051   -2.7934 H   0  0  0  0  0  0  0  0  0  0  0  0
   -4.6759   -0.0583   -2.5474 H   0  0  0  0  0  0  0  0  0  0  0  0
  1  2  1  0
  2  3  2  0
  3  4  1  0
  4  5  2  0
  5  6  1  0
  6  7  2  0
  5  8  1  0
  8  9  1  0
  9 10  2  0
 10 11  1  0
 11 12  1  0
 12 13  1  0
 13 14  2  0
 12 15  1  0
 15 16  2  0
 16 17  1  0
 16 18  1  0
 18 19  1  0
 19 20  1  0
 20 21  2  0
 21 22  1  0
 22 23  2  0
 23 24  1  0
 24 25  2  0
  7  2  1  0
 13  8  1  0
 25 20  1  0
 17 11  2  0
  3 26  1  0
  4 27  1  0
  6 28  1  0
  7 29  1  0
  9 30  1  0
 10 31  1  0
 15 32  1  0
 18 33  1  0
 18 34  1  0
 21 35  1  0
 22 36  1  0
 23 37  1  0
 24 38  1  0
 25 39  1  0
M  END
>  <Ligand ID>  (1) 
LIG0000586

>  <Ligand>  (1) 
CHEMBL3401177

>  <SMILES>  (1) 
Fc1ccc(cc1)n1ccc2n(c1=O)cc(n2)COc1ccccc1

>  <CID>  (1) 
68290572.0

>  <ChEMBL ID>  (1) 
nan

>  <InChiKey>  (1) 
SCXUQPKHWUFDNI-UHFFFAOYSA-N

>  <InChi>  (1) 
InChI=1S/C19H14FN3O2/c20-14-6-8-16(9-7-14)22-11-10-18-21-15(12-23(18)19(22)24)13-25-17-4-2-1-3-5-17/h1-12H,13H2

>  <IUPAC Name>  (1) 
6-(4-fluorophenyl)-2-(phenoxymethyl)imidazo[1,2-c]pyrimidin-5-one

$$$$
