
     RDKit          3D

 52 54  0  0  0  0  0  0  0  0999 V2000
   -0.1540   -4.5135    0.0803 C   0  0  0  0  0  0  0  0  0  0  0  0
   -0.3628   -3.1329    0.1231 O   0  0  0  0  0  0  0  0  0  0  0  0
    0.6132   -2.1935   -0.1149 C   0  0  0  0  0  0  0  0  0  0  0  0
    1.9176   -2.5241   -0.4247 C   0  0  0  0  0  0  0  0  0  0  0  0
    2.8802   -1.5603   -0.6595 C   0  0  0  0  0  0  0  0  0  0  0  0
    2.5128   -0.2312   -0.5786 C   0  0  0  0  0  0  0  0  0  0  0  0
    1.2235    0.1492   -0.2726 C   0  0  0  0  0  0  0  0  0  0  0  0
    0.2912   -0.8361   -0.0449 C   0  0  0  0  0  0  0  0  0  0  0  0
   -1.0735   -0.4985    0.2775 N   0  0  0  0  0  0  0  0  0  0  0  0
   -1.9584   -0.3582   -0.8059 C   0  0  0  0  0  0  0  0  0  0  0  0
   -1.5685   -0.5211   -1.9911 O   0  0  0  0  0  0  0  0  0  0  0  0
   -3.3786   -0.0093   -0.5139 C   0  0  0  0  0  0  0  0  0  0  0  0
   -4.3643    0.1670   -1.3978 C   0  0  0  0  0  0  0  0  0  0  0  0
   -5.5968    0.4811   -0.9612 C   0  0  0  0  0  0  0  0  0  0  0  0
   -5.7561    0.6015    0.4095 C   0  0  0  0  0  0  0  0  0  0  0  0
   -4.0564    0.2453    1.0725 S   0  0  0  0  0  0  0  0  0  0  0  0
   -6.9013    0.9187    1.2425 C   0  0  0  0  0  0  0  0  0  0  0  0
   -7.1579    2.4175    1.1434 C   0  0  0  0  0  0  0  0  0  0  0  0
   -6.7950    0.7060   -1.8656 C   0  0  0  0  0  0  0  0  0  0  0  0
    3.7844    0.9553   -0.8897 S   0  0  0  0  0  0  0  0  0  0  0  0
    3.1088    2.2154   -1.3647 O   0  0  0  0  0  0  0  0  0  0  0  0
    4.7520    0.4514   -1.9243 O   0  0  0  0  0  0  0  0  0  0  0  0
    4.5790    1.3257    0.6029 N   0  0  0  0  0  0  0  0  0  0  0  0
    5.2055    0.1472    1.1709 C   0  0  0  0  0  0  0  0  0  0  0  0
    6.4022   -0.2960    0.3494 C   0  0  0  0  0  0  0  0  0  0  0  0
    6.9651    0.7765   -0.3413 O   0  0  0  0  0  0  0  0  0  0  0  0
    6.9226    1.9258    0.4209 C   0  0  0  0  0  0  0  0  0  0  0  0
    5.4817    2.4204    0.4366 C   0  0  0  0  0  0  0  0  0  0  0  0
    0.8550   -4.8147    0.3676 H   0  0  0  0  0  0  0  0  0  0  0  0
   -0.4321   -4.9450   -0.9186 H   0  0  0  0  0  0  0  0  0  0  0  0
   -0.8508   -4.9844    0.8205 H   0  0  0  0  0  0  0  0  0  0  0  0
    2.2177   -3.5626   -0.4910 H   0  0  0  0  0  0  0  0  0  0  0  0
    3.8950   -1.8801   -0.9003 H   0  0  0  0  0  0  0  0  0  0  0  0
    0.9754    1.1991   -0.2187 H   0  0  0  0  0  0  0  0  0  0  0  0
   -1.3374   -0.3756    1.2877 H   0  0  0  0  0  0  0  0  0  0  0  0
   -4.1654    0.0535   -2.5016 H   0  0  0  0  0  0  0  0  0  0  0  0
   -7.8111    0.3836    0.9121 H   0  0  0  0  0  0  0  0  0  0  0  0
   -6.6776    0.6352    2.3072 H   0  0  0  0  0  0  0  0  0  0  0  0
   -8.0149    2.6124    0.4400 H   0  0  0  0  0  0  0  0  0  0  0  0
   -7.3326    2.8979    2.1120 H   0  0  0  0  0  0  0  0  0  0  0  0
   -6.2967    2.9343    0.6489 H   0  0  0  0  0  0  0  0  0  0  0  0
   -6.8536    1.7729   -2.1679 H   0  0  0  0  0  0  0  0  0  0  0  0
   -6.6477    0.0782   -2.7786 H   0  0  0  0  0  0  0  0  0  0  0  0
   -7.7007    0.3079   -1.3881 H   0  0  0  0  0  0  0  0  0  0  0  0
    4.4771   -0.6833    1.1458 H   0  0  0  0  0  0  0  0  0  0  0  0
    5.4449    0.3257    2.2330 H   0  0  0  0  0  0  0  0  0  0  0  0
    7.1690   -0.6562    1.0649 H   0  0  0  0  0  0  0  0  0  0  0  0
    6.1641   -1.1417   -0.3283 H   0  0  0  0  0  0  0  0  0  0  0  0
    7.2087    1.7490    1.4798 H   0  0  0  0  0  0  0  0  0  0  0  0
    7.5142    2.7184   -0.0622 H   0  0  0  0  0  0  0  0  0  0  0  0
    5.3207    2.9355   -0.5371 H   0  0  0  0  0  0  0  0  0  0  0  0
    5.3627    3.2108    1.2186 H   0  0  0  0  0  0  0  0  0  0  0  0
  1  2  1  0
  2  3  1  0
  3  4  2  0
  4  5  1  0
  5  6  2  0
  6  7  1  0
  7  8  2  0
  8  9  1  0
  9 10  1  0
 10 11  2  0
 10 12  1  0
 12 13  2  0
 13 14  1  0
 14 15  2  0
 15 16  1  0
 15 17  1  0
 17 18  1  0
 14 19  1  0
  6 20  1  0
 20 21  2  0
 20 22  2  0
 20 23  1  0
 23 24  1  0
 24 25  1  0
 25 26  1  0
 26 27  1  0
 27 28  1  0
  8  3  1  0
 16 12  1  0
 28 23  1  0
  1 29  1  0
  1 30  1  0
  1 31  1  0
  4 32  1  0
  5 33  1  0
  7 34  1  0
  9 35  1  0
 13 36  1  0
 17 37  1  0
 17 38  1  0
 18 39  1  0
 18 40  1  0
 18 41  1  0
 19 42  1  0
 19 43  1  0
 19 44  1  0
 24 45  1  0
 24 46  1  0
 25 47  1  0
 25 48  1  0
 27 49  1  0
 27 50  1  0
 28 51  1  0
 28 52  1  0
M  END
>  <Ligand ID>  (1) 
LIG0001749

>  <Ligand>  (1) 
MLS-0418254.0001

>  <SMILES>  (1) 
COc1ccc(cc1NC(=O)c1cc(c(s1)CC)C)S(=O)(=O)N1CCOCC1

>  <CID>  (1) 
4878446.0

>  <ChEMBL ID>  (1) 
nan

>  <InChiKey>  (1) 
CPYIIHGSBLUWEM-UHFFFAOYSA-N

>  <InChi>  (1) 
InChI=1S/C19H24N2O5S2/c1-4-17-13(2)11-18(27-17)19(22)20-15-12-14(5-6-16(15)25-3)28(23,24)21-7-9-26-10-8-21/h5-6,11-12H,4,7-10H2,1-3H3,(H,20,22)

>  <IUPAC Name>  (1) 
5-ethyl-N-(2-methoxy-5-morpholin-4-ylsulfonylphenyl)-4-methylthiophene-2-carboxamide

$$$$
