
     RDKit          3D

 45 48  0  0  0  0  0  0  0  0999 V2000
    5.7734    3.1618   -1.7615 Cl  0  0  0  0  0  0  0  0  0  0  0  0
    5.4630    1.5575   -1.1362 C   0  0  0  0  0  0  0  0  0  0  0  0
    6.5293    0.8198   -0.6835 C   0  0  0  0  0  0  0  0  0  0  0  0
    6.2617   -0.4402   -0.1957 C   0  0  0  0  0  0  0  0  0  0  0  0
    4.9757   -0.9443   -0.1618 C   0  0  0  0  0  0  0  0  0  0  0  0
    3.8785   -0.2099   -0.6173 C   0  0  0  0  0  0  0  0  0  0  0  0
    4.1607    1.0468   -1.1016 C   0  0  0  0  0  0  0  0  0  0  0  0
    2.5538   -0.7203   -0.5729 N   0  0  0  0  0  0  0  0  0  0  0  0
    1.4389   -0.1232   -1.2906 C   0  0  0  0  0  0  0  0  0  0  0  0
    0.3379    0.2315   -0.3213 C   0  0  0  0  0  0  0  0  0  0  0  0
   -0.0630   -0.9323    0.4678 N   0  0  0  0  0  0  0  0  0  0  0  0
    1.0453   -1.5437    1.1282 C   0  0  0  0  0  0  0  0  0  0  0  0
    2.2033   -1.9059    0.2262 C   0  0  0  0  0  0  0  0  0  0  0  0
   -0.9639   -0.4566    1.5073 C   0  0  0  0  0  0  0  0  0  0  0  0
   -2.1689    0.1943    0.8921 C   0  0  0  0  0  0  0  0  0  0  0  0
   -2.3564    1.4724    0.5532 N   0  0  0  0  0  0  0  0  0  0  0  0
   -3.5988    1.6349    0.0240 C   0  0  0  0  0  0  0  0  0  0  0  0
   -4.2021    0.3820    0.0422 C   0  0  0  0  0  0  0  0  0  0  0  0
   -3.2889   -0.4735    0.5833 N   0  0  0  0  0  0  0  0  0  0  0  0
   -3.5051   -1.9050    0.7928 C   0  0  0  0  0  0  0  0  0  0  0  0
   -5.4849    0.1752   -0.4268 C   0  0  0  0  0  0  0  0  0  0  0  0
   -6.1875    1.2651   -0.9323 C   0  0  0  0  0  0  0  0  0  0  0  0
   -5.6040    2.5071   -0.9562 C   0  0  0  0  0  0  0  0  0  0  0  0
   -4.3060    2.7080   -0.4799 C   0  0  0  0  0  0  0  0  0  0  0  0
    7.5512    1.1481   -0.6804 H   0  0  0  0  0  0  0  0  0  0  0  0
    7.0991   -1.0526    0.1738 H   0  0  0  0  0  0  0  0  0  0  0  0
    4.8690   -1.9421    0.2341 H   0  0  0  0  0  0  0  0  0  0  0  0
    3.4048    1.7103   -1.4775 H   0  0  0  0  0  0  0  0  0  0  0  0
    1.0421   -0.9154   -1.9642 H   0  0  0  0  0  0  0  0  0  0  0  0
    1.7127    0.7562   -1.8577 H   0  0  0  0  0  0  0  0  0  0  0  0
   -0.5309    0.5659   -0.9130 H   0  0  0  0  0  0  0  0  0  0  0  0
    0.6977    1.0067    0.3834 H   0  0  0  0  0  0  0  0  0  0  0  0
    1.3558   -0.8935    1.9678 H   0  0  0  0  0  0  0  0  0  0  0  0
    0.6691   -2.4938    1.5758 H   0  0  0  0  0  0  0  0  0  0  0  0
    1.8204   -2.6665   -0.4872 H   0  0  0  0  0  0  0  0  0  0  0  0
    3.0152   -2.2327    0.8671 H   0  0  0  0  0  0  0  0  0  0  0  0
   -0.4448    0.2713    2.1707 H   0  0  0  0  0  0  0  0  0  0  0  0
   -1.2817   -1.2847    2.1744 H   0  0  0  0  0  0  0  0  0  0  0  0
   -2.8430   -2.4464    0.0737 H   0  0  0  0  0  0  0  0  0  0  0  0
   -4.5389   -2.1710    0.4920 H   0  0  0  0  0  0  0  0  0  0  0  0
   -3.3323   -2.1818    1.8471 H   0  0  0  0  0  0  0  0  0  0  0  0
   -5.9375   -0.8051   -0.4049 H   0  0  0  0  0  0  0  0  0  0  0  0
   -7.1914    1.0822   -1.2951 H   0  0  0  0  0  0  0  0  0  0  0  0
   -6.1831    3.3446   -1.3603 H   0  0  0  0  0  0  0  0  0  0  0  0
   -3.8452    3.6990   -0.5008 H   0  0  0  0  0  0  0  0  0  0  0  0
  1  2  1  0
  2  3  2  0
  3  4  1  0
  4  5  2  0
  5  6  1  0
  6  7  2  0
  6  8  1  0
  8  9  1  0
  9 10  1  0
 10 11  1  0
 11 12  1  0
 12 13  1  0
 11 14  1  0
 14 15  1  0
 15 16  2  0
 16 17  1  0
 17 18  2  0
 18 19  1  0
 19 20  1  0
 18 21  1  0
 21 22  2  0
 22 23  1  0
 23 24  2  0
  7  2  1  0
 13  8  1  0
 19 15  1  0
 24 17  1  0
  3 25  1  0
  4 26  1  0
  5 27  1  0
  7 28  1  0
  9 29  1  0
  9 30  1  0
 10 31  1  0
 10 32  1  0
 12 33  1  0
 12 34  1  0
 13 35  1  0
 13 36  1  0
 14 37  1  0
 14 38  1  0
 20 39  1  0
 20 40  1  0
 20 41  1  0
 21 42  1  0
 22 43  1  0
 23 44  1  0
 24 45  1  0
M  END
>  <Ligand ID>  (1) 
LIG0004582

>  <Ligand>  (1) 
MLS000547944

>  <SMILES>  (1) 
Clc1cccc(c1)N1CCN(CC1)Cc1nc2c(n1C)cccc2

>  <CID>  (1) 
851992.0

>  <ChEMBL ID>  (1) 
nan

>  <InChiKey>  (1) 
DGGCMRLNBJCGGO-UHFFFAOYSA-N

>  <InChi>  (1) 
InChI=1S/C19H21ClN4/c1-22-18-8-3-2-7-17(18)21-19(22)14-23-9-11-24(12-10-23)16-6-4-5-15(20)13-16/h2-8,13H,9-12,14H2,1H3

>  <IUPAC Name>  (1) 
2-[[4-(3-chlorophenyl)piperazin-1-yl]methyl]-1-methylbenzimidazole

$$$$
