
     RDKit          3D

 43 45  0  0  0  0  0  0  0  0999 V2000
   -4.7333    0.6405   -1.6018 C   0  0  0  0  0  0  0  0  0  0  0  0
   -3.8639   -0.4782   -1.5199 N   0  0  0  0  0  0  0  0  0  0  0  0
   -2.5791   -0.2641   -0.9548 C   0  0  0  0  0  0  0  0  0  0  0  0
   -2.5681    0.4473    0.3442 C   0  0  0  0  0  0  0  0  0  0  0  0
   -3.3740    0.2369    1.4422 C   0  0  0  0  0  0  0  0  0  0  0  0
   -3.0206    1.1254    2.4377 C   0  0  0  0  0  0  0  0  0  0  0  0
   -1.9787    1.8660    1.8875 C   0  0  0  0  0  0  0  0  0  0  0  0
   -1.7550    1.4440    0.6916 O   0  0  0  0  0  0  0  0  0  0  0  0
   -1.8275   -1.5687   -0.9345 C   0  0  0  0  0  0  0  0  0  0  0  0
   -0.5107   -1.3971   -0.3628 N   0  0  0  0  0  0  0  0  0  0  0  0
    0.4919   -0.5579   -0.8646 C   0  0  0  0  0  0  0  0  0  0  0  0
    0.2562    0.1177   -1.9038 O   0  0  0  0  0  0  0  0  0  0  0  0
    1.8152   -0.4000   -0.2680 C   0  0  0  0  0  0  0  0  0  0  0  0
    2.2014   -1.0874    0.8786 C   0  0  0  0  0  0  0  0  0  0  0  0
    3.4620   -0.9283    1.4356 C   0  0  0  0  0  0  0  0  0  0  0  0
    4.3727   -0.0814    0.8675 C   0  0  0  0  0  0  0  0  0  0  0  0
    4.0219    0.6144   -0.2687 C   0  0  0  0  0  0  0  0  0  0  0  0
    2.7618    0.4436   -0.8098 C   0  0  0  0  0  0  0  0  0  0  0  0
    4.8922    1.4905   -0.9002 C   0  0  0  0  0  0  0  0  0  0  0  0
    6.1674    1.6951   -0.3947 C   0  0  0  0  0  0  0  0  0  0  0  0
    6.5300    0.9972    0.7516 C   0  0  0  0  0  0  0  0  0  0  0  0
    5.6443    0.1314    1.3599 C   0  0  0  0  0  0  0  0  0  0  0  0
   -4.5012   -1.7177   -1.2631 C   0  0  0  0  0  0  0  0  0  0  0  0
   -5.7908    0.3889   -1.3261 H   0  0  0  0  0  0  0  0  0  0  0  0
   -4.4201    1.5019   -0.9709 H   0  0  0  0  0  0  0  0  0  0  0  0
   -4.7936    0.9834   -2.6539 H   0  0  0  0  0  0  0  0  0  0  0  0
   -2.0279    0.3980   -1.6911 H   0  0  0  0  0  0  0  0  0  0  0  0
   -4.1591   -0.4818    1.5589 H   0  0  0  0  0  0  0  0  0  0  0  0
   -3.4607    1.2252    3.4353 H   0  0  0  0  0  0  0  0  0  0  0  0
   -1.4765    2.6579    2.4288 H   0  0  0  0  0  0  0  0  0  0  0  0
   -1.6611   -1.8767   -1.9947 H   0  0  0  0  0  0  0  0  0  0  0  0
   -2.3792   -2.3638   -0.3966 H   0  0  0  0  0  0  0  0  0  0  0  0
   -0.2778   -1.9508    0.5109 H   0  0  0  0  0  0  0  0  0  0  0  0
    1.5395   -1.7641    1.3726 H   0  0  0  0  0  0  0  0  0  0  0  0
    3.7432   -1.4707    2.3261 H   0  0  0  0  0  0  0  0  0  0  0  0
    2.5063    0.9909   -1.6911 H   0  0  0  0  0  0  0  0  0  0  0  0
    4.6286    2.0429   -1.7930 H   0  0  0  0  0  0  0  0  0  0  0  0
    6.8738    2.3704   -0.8596 H   0  0  0  0  0  0  0  0  0  0  0  0
    7.5311    1.1711    1.1308 H   0  0  0  0  0  0  0  0  0  0  0  0
    5.9274   -0.4018    2.2394 H   0  0  0  0  0  0  0  0  0  0  0  0
   -4.8133   -1.9183   -0.2356 H   0  0  0  0  0  0  0  0  0  0  0  0
   -3.9327   -2.5632   -1.7010 H   0  0  0  0  0  0  0  0  0  0  0  0
   -5.4621   -1.7085   -1.8580 H   0  0  0  0  0  0  0  0  0  0  0  0
  1  2  1  0
  2  3  1  0
  3  4  1  0
  4  5  2  0
  5  6  1  0
  6  7  2  0
  7  8  1  0
  3  9  1  0
  9 10  1  0
 10 11  1  0
 11 12  2  0
 11 13  1  0
 13 14  2  0
 14 15  1  0
 15 16  2  0
 16 17  1  0
 17 18  2  0
 17 19  1  0
 19 20  2  0
 20 21  1  0
 21 22  2  0
  2 23  1  0
  8  4  1  0
 18 13  1  0
 22 16  1  0
  1 24  1  0
  1 25  1  0
  1 26  1  0
  3 27  1  0
  5 28  1  0
  6 29  1  0
  7 30  1  0
  9 31  1  0
  9 32  1  0
 10 33  1  0
 14 34  1  0
 15 35  1  0
 18 36  1  0
 19 37  1  0
 20 38  1  0
 21 39  1  0
 22 40  1  0
 23 41  1  0
 23 42  1  0
 23 43  1  0
M  END
>  <Ligand ID>  (1) 
LIG0004519

>  <Ligand>  (1) 
MLS000772470

>  <SMILES>  (1) 
CN(C(c1ccco1)CNC(=O)c1ccc2c(c1)cccc2)C

>  <CID>  (1) 
4882909.0

>  <ChEMBL ID>  (1) 
nan

>  <InChiKey>  (1) 
KYCLCCPZCWREJX-UHFFFAOYSA-N

>  <InChi>  (1) 
InChI=1S/C19H20N2O2/c1-21(2)17(18-8-5-11-23-18)13-20-19(22)16-10-9-14-6-3-4-7-15(14)12-16/h3-12,17H,13H2,1-2H3,(H,20,22)

>  <IUPAC Name>  (1) 
N-[2-(dimethylamino)-2-(furan-2-yl)ethyl]naphthalene-2-carboxamide

$$$$
