
     RDKit          3D

 64 67  0  0  0  0  0  0  0  0999 V2000
   -1.0262    0.0187   -4.9164 C   0  0  0  0  0  0  0  0  0  0  0  0
   -0.8655   -0.5629   -3.5373 C   0  0  0  0  0  0  0  0  0  0  0  0
   -2.1164   -0.5516   -2.7375 C   0  0  0  0  0  0  0  0  0  0  0  0
   -3.2284   -0.9437   -3.1846 O   0  0  0  0  0  0  0  0  0  0  0  0
   -2.0411   -0.0682   -1.3882 N   0  0  0  0  0  0  0  0  0  0  0  0
   -3.2497   -0.0663   -0.6376 C   0  0  0  0  0  0  0  0  0  0  0  0
   -4.1100    1.0259   -0.6245 C   0  0  0  0  0  0  0  0  0  0  0  0
   -5.2902    1.0054    0.1165 C   0  0  0  0  0  0  0  0  0  0  0  0
   -5.6571   -0.0989    0.8701 C   0  0  0  0  0  0  0  0  0  0  0  0
   -4.8038   -1.1691    0.8511 C   0  0  0  0  0  0  0  0  0  0  0  0
   -3.6146   -1.1630    0.1109 C   0  0  0  0  0  0  0  0  0  0  0  0
   -6.8679   -0.1098    1.6086 N   0  0  0  0  0  0  0  0  0  0  0  0
   -7.9230    0.8934    1.3941 C   0  0  0  0  0  0  0  0  0  0  0  0
   -9.2273    0.0858    1.3314 C   0  0  0  0  0  0  0  0  0  0  0  0
   -8.9587   -1.2567    1.0488 O   0  0  0  0  0  0  0  0  0  0  0  0
   -8.3325   -1.9199    2.0894 C   0  0  0  0  0  0  0  0  0  0  0  0
   -7.1695   -1.0943    2.6393 C   0  0  0  0  0  0  0  0  0  0  0  0
    0.2370   -0.0719   -2.8229 O   0  0  0  0  0  0  0  0  0  0  0  0
    1.3116   -0.8592   -2.4298 C   0  0  0  0  0  0  0  0  0  0  0  0
    1.2511   -2.0869   -2.7559 O   0  0  0  0  0  0  0  0  0  0  0  0
    2.4423   -0.3158   -1.6881 C   0  0  0  0  0  0  0  0  0  0  0  0
    2.5541    1.0043   -1.3235 C   0  0  0  0  0  0  0  0  0  0  0  0
    3.6574    1.4579   -0.6132 C   0  0  0  0  0  0  0  0  0  0  0  0
    4.6891    0.5964   -0.2444 C   0  0  0  0  0  0  0  0  0  0  0  0
    4.5657   -0.7402   -0.6192 C   0  0  0  0  0  0  0  0  0  0  0  0
    3.4591   -1.1730   -1.3265 C   0  0  0  0  0  0  0  0  0  0  0  0
    5.7933    1.0561    0.4667 O   0  0  0  0  0  0  0  0  0  0  0  0
    6.7965    0.1176    0.8050 C   0  0  0  0  0  0  0  0  0  0  0  0
    7.9256    0.7089    1.5586 C   0  0  0  0  0  0  0  0  0  0  0  0
    7.8659    1.0487    2.8934 C   0  0  0  0  0  0  0  0  0  0  0  0
    6.6997    0.9031    3.8346 C   0  0  0  0  0  0  0  0  0  0  0  0
    9.0806    1.5484    3.2038 N   0  0  0  0  0  0  0  0  0  0  0  0
    9.8353    1.5258    2.1620 O   0  0  0  0  0  0  0  0  0  0  0  0
    9.1929    1.0235    1.1140 C   0  0  0  0  0  0  0  0  0  0  0  0
    9.7011    0.8249   -0.2677 C   0  0  0  0  0  0  0  0  0  0  0  0
   -1.6895    0.9146   -4.7947 H   0  0  0  0  0  0  0  0  0  0  0  0
   -0.0538    0.2423   -5.3506 H   0  0  0  0  0  0  0  0  0  0  0  0
   -1.5685   -0.7534   -5.5374 H   0  0  0  0  0  0  0  0  0  0  0  0
   -0.6454   -1.6627   -3.6900 H   0  0  0  0  0  0  0  0  0  0  0  0
   -1.1250    0.2636   -0.9960 H   0  0  0  0  0  0  0  0  0  0  0  0
   -3.8336    1.8971   -1.2099 H   0  0  0  0  0  0  0  0  0  0  0  0
   -5.8821    1.9064    0.0581 H   0  0  0  0  0  0  0  0  0  0  0  0
   -4.9902   -2.0818    1.3954 H   0  0  0  0  0  0  0  0  0  0  0  0
   -2.9486   -2.0038    0.0983 H   0  0  0  0  0  0  0  0  0  0  0  0
   -7.7835    1.4983    0.5037 H   0  0  0  0  0  0  0  0  0  0  0  0
   -7.9833    1.5375    2.2933 H   0  0  0  0  0  0  0  0  0  0  0  0
   -9.8864    0.4768    0.5280 H   0  0  0  0  0  0  0  0  0  0  0  0
   -9.7294    0.1110    2.3198 H   0  0  0  0  0  0  0  0  0  0  0  0
   -9.0348   -2.1274    2.9215 H   0  0  0  0  0  0  0  0  0  0  0  0
   -7.9113   -2.8552    1.6842 H   0  0  0  0  0  0  0  0  0  0  0  0
   -7.5303   -0.4974    3.5084 H   0  0  0  0  0  0  0  0  0  0  0  0
   -6.2843   -1.6803    2.8525 H   0  0  0  0  0  0  0  0  0  0  0  0
    1.7635    1.6891   -1.6002 H   0  0  0  0  0  0  0  0  0  0  0  0
    3.7634    2.4979   -0.3151 H   0  0  0  0  0  0  0  0  0  0  0  0
    5.3715   -1.4313   -0.3342 H   0  0  0  0  0  0  0  0  0  0  0  0
    3.3763   -2.2332   -1.6152 H   0  0  0  0  0  0  0  0  0  0  0  0
    7.1106   -0.3837   -0.1362 H   0  0  0  0  0  0  0  0  0  0  0  0
    6.2644   -0.6863    1.3957 H   0  0  0  0  0  0  0  0  0  0  0  0
    7.0531    0.5434    4.8059 H   0  0  0  0  0  0  0  0  0  0  0  0
    6.1653    1.8760    3.9063 H   0  0  0  0  0  0  0  0  0  0  0  0
    6.0364    0.1131    3.4006 H   0  0  0  0  0  0  0  0  0  0  0  0
   10.7677    1.0494   -0.3399 H   0  0  0  0  0  0  0  0  0  0  0  0
    9.5576   -0.2405   -0.5876 H   0  0  0  0  0  0  0  0  0  0  0  0
    9.0736    1.4271   -0.9836 H   0  0  0  0  0  0  0  0  0  0  0  0
  1  2  1  0
  2  3  1  0
  3  4  2  0
  3  5  1  0
  5  6  1  0
  6  7  2  0
  7  8  1  0
  8  9  2  0
  9 10  1  0
 10 11  2  0
  9 12  1  0
 12 13  1  0
 13 14  1  0
 14 15  1  0
 15 16  1  0
 16 17  1  0
  2 18  1  0
 18 19  1  0
 19 20  2  0
 19 21  1  0
 21 22  2  0
 22 23  1  0
 23 24  2  0
 24 25  1  0
 25 26  2  0
 24 27  1  0
 27 28  1  0
 28 29  1  0
 29 30  1  0
 30 31  1  0
 30 32  2  0
 32 33  1  0
 33 34  1  0
 34 35  1  0
 11  6  1  0
 17 12  1  0
 26 21  1  0
 34 29  2  0
  1 36  1  0
  1 37  1  0
  1 38  1  0
  2 39  1  0
  5 40  1  0
  7 41  1  0
  8 42  1  0
 10 43  1  0
 11 44  1  0
 13 45  1  0
 13 46  1  0
 14 47  1  0
 14 48  1  0
 16 49  1  0
 16 50  1  0
 17 51  1  0
 17 52  1  0
 22 53  1  0
 23 54  1  0
 25 55  1  0
 26 56  1  0
 28 57  1  0
 28 58  1  0
 31 59  1  0
 31 60  1  0
 31 61  1  0
 35 62  1  0
 35 63  1  0
 35 64  1  0
M  END
>  <Ligand ID>  (1) 
LIG0003600

>  <Ligand>  (1) 
MLS000056068

>  <SMILES>  (1) 
CC(C(=O)Nc1ccc(cc1)N1CCOCC1)OC(=O)c1ccc(cc1)OCc1c(C)noc1C

>  <CID>  (1) 
2998209.0

>  <ChEMBL ID>  (1) 
nan

>  <InChiKey>  (1) 
PHZWBSTZHMMLTI-UHFFFAOYSA-N

>  <InChi>  (1) 
InChI=1S/C26H29N3O6/c1-17-24(18(2)35-28-17)16-33-23-10-4-20(5-11-23)26(31)34-19(3)25(30)27-21-6-8-22(9-7-21)29-12-14-32-15-13-29/h4-11,19H,12-16H2,1-3H3,(H,27,30)

>  <IUPAC Name>  (1) 
[1-(4-morpholin-4-ylanilino)-1-oxopropan-2-yl] 4-[(3,5-dimethyl-1,2-oxazol-4-yl)methoxy]benzoate

$$$$
