
     RDKit          3D

 20 20  0  0  0  0  0  0  0  0999 V2000
   -2.6567    0.8245   -0.1181 C   0  0  0  0  0  0  0  0  0  0  0  0
   -1.2844    0.8351   -0.4995 N   0  0  0  0  0  0  0  0  0  0  0  0
   -0.4113    0.2110    0.4717 C   0  0  0  0  0  0  0  0  0  0  0  0
    1.0124    0.2999    0.0691 C   0  0  0  0  0  0  0  0  0  0  0  0
    1.5475    1.4160   -0.3874 O   0  0  0  0  0  0  0  0  0  0  0  0
    2.8025    1.2539   -0.6747 N   0  0  0  0  0  0  0  0  0  0  0  0
    3.1404   -0.0257   -0.4038 C   0  0  0  0  0  0  0  0  0  0  0  0
    4.2802   -0.5679   -0.5535 O   0  0  0  0  0  0  0  0  0  0  0  0
    2.0042   -0.6519    0.0741 C   0  0  0  0  0  0  0  0  0  0  0  0
   -0.7263   -1.2170    0.7224 C   0  0  0  0  0  0  0  0  0  0  0  0
   -0.0957   -1.9378    1.5392 O   0  0  0  0  0  0  0  0  0  0  0  0
   -1.7674   -1.8212    0.0347 O   0  0  0  0  0  0  0  0  0  0  0  0
   -3.2715    0.5754   -1.0078 H   0  0  0  0  0  0  0  0  0  0  0  0
   -3.0386    1.8182    0.2088 H   0  0  0  0  0  0  0  0  0  0  0  0
   -2.9239    0.1004    0.6851 H   0  0  0  0  0  0  0  0  0  0  0  0
   -1.1579    0.3284   -1.3795 H   0  0  0  0  0  0  0  0  0  0  0  0
   -0.5428    0.8153    1.4079 H   0  0  0  0  0  0  0  0  0  0  0  0
    3.4354    1.9999   -1.0528 H   0  0  0  0  0  0  0  0  0  0  0  0
    1.9035   -1.6659    0.3860 H   0  0  0  0  0  0  0  0  0  0  0  0
   -2.2498   -2.5907    0.4781 H   0  0  0  0  0  0  0  0  0  0  0  0
  1  2  1  0
  2  3  1  0
  3  4  1  0
  4  5  1  0
  5  6  1  0
  6  7  1  0
  7  8  2  0
  7  9  1  0
  3 10  1  0
 10 11  2  0
 10 12  1  0
  9  4  2  0
  1 13  1  0
  1 14  1  0
  1 15  1  0
  2 16  1  0
  3 17  1  0
  6 18  1  0
  9 19  1  0
 12 20  1  0
M  END
>  <Ligand ID>  (1) 
LIG0004681

>  <Ligand>  (1) 
CHEMBL41352

>  <SMILES>  (1) 
CNC(c1o[nH]c(=O)c1)C(=O)O

>  <CID>  (1) 
10374869.0

>  <ChEMBL ID>  (1) 
nan

>  <InChiKey>  (1) 
WQILXFDLXYKVFJ-UHFFFAOYSA-N

>  <InChi>  (1) 
InChI=1S/C6H8N2O4/c1-7-5(6(10)11)3-2-4(9)8-12-3/h2,5,7H,1H3,(H,8,9)(H,10,11)

>  <IUPAC Name>  (1) 
2-(methylamino)-2-(3-oxo-1,2-oxazol-5-yl)acetic acid

$$$$
