
     RDKit          3D

 51 53  0  0  0  0  0  0  0  0999 V2000
   -1.9550   -2.4230   -0.3021 C   0  0  0  0  0  0  0  0  0  0  0  0
   -1.9171   -0.9286    0.0383 C   0  0  2  0  0  0  0  0  0  0  0  0
   -0.5000   -0.5691    0.4675 C   0  0  0  0  0  0  0  0  0  0  0  0
    0.3836   -0.8662   -0.6276 N   0  0  0  0  0  0  0  0  0  0  0  0
    1.7786   -0.6161   -0.4235 C   0  0  0  0  0  0  0  0  0  0  0  0
    2.1754   -0.1098    0.8032 C   0  0  0  0  0  0  0  0  0  0  0  0
    3.5287    0.1439    1.0403 C   0  0  0  0  0  0  0  0  0  0  0  0
    4.4431   -0.1137    0.0508 C   0  0  0  0  0  0  0  0  0  0  0  0
    4.0707   -0.6172   -1.1769 C   0  0  0  0  0  0  0  0  0  0  0  0
    2.7149   -0.8675   -1.4041 C   0  0  0  0  0  0  0  0  0  0  0  0
    5.8446    0.1629    0.3407 C   0  0  0  0  0  0  0  0  0  0  0  0
    6.3406    0.6365    1.4559 O   0  0  0  0  0  0  0  0  0  0  0  0
    7.6448    0.7658    1.3800 C   0  0  0  0  0  0  0  0  0  0  0  0
    8.0110    0.3413    0.1168 C   0  0  0  0  0  0  0  0  0  0  0  0
    6.8834   -0.0295   -0.5157 N   0  0  0  0  0  0  0  0  0  0  0  0
    9.3715    0.3094   -0.4074 C   0  0  0  0  0  0  0  0  0  0  0  0
   10.3182    0.6924    0.3212 O   0  0  0  0  0  0  0  0  0  0  0  0
    9.6156   -0.1364   -1.6888 O   0  0  0  0  0  0  0  0  0  0  0  0
   -2.8356   -0.7565    1.1230 N   0  0  0  0  0  0  0  0  0  0  0  0
   -2.9804    0.5836    1.6084 C   0  0  0  0  0  0  0  0  0  0  0  0
   -3.6601    1.4946    0.6080 C   0  0  1  0  0  0  0  0  0  0  0  0
   -5.0343    0.9915    0.2824 C   0  0  0  0  0  0  0  0  0  0  0  0
   -5.3327    0.3848   -0.9193 C   0  0  0  0  0  0  0  0  0  0  0  0
   -6.6264   -0.0460   -1.1294 C   0  0  0  0  0  0  0  0  0  0  0  0
   -7.5884    0.1320   -0.1523 C   0  0  0  0  0  0  0  0  0  0  0  0
   -7.2803    0.7387    1.0434 C   0  0  0  0  0  0  0  0  0  0  0  0
   -5.9914    1.1799    1.2795 C   0  0  0  0  0  0  0  0  0  0  0  0
   -8.4553    0.9919    2.3176 Cl  0  0  0  0  0  0  0  0  0  0  0  0
   -3.7506    2.7753    1.1778 O   0  0  0  0  0  0  0  0  0  0  0  0
   -1.8802   -2.5645   -1.3997 H   0  0  0  0  0  0  0  0  0  0  0  0
   -2.8932   -2.8888    0.0584 H   0  0  0  0  0  0  0  0  0  0  0  0
   -1.1328   -2.8912    0.2449 H   0  0  0  0  0  0  0  0  0  0  0  0
   -2.1310   -0.3863   -0.8765 H   0  0  0  0  0  0  0  0  0  0  0  0
   -0.4728    0.5148    0.7279 H   0  0  0  0  0  0  0  0  0  0  0  0
   -0.1901   -1.1471    1.3480 H   0  0  0  0  0  0  0  0  0  0  0  0
    0.0718   -1.2442   -1.5394 H   0  0  0  0  0  0  0  0  0  0  0  0
    1.4748    0.1033    1.6039 H   0  0  0  0  0  0  0  0  0  0  0  0
    3.8412    0.5425    2.0068 H   0  0  0  0  0  0  0  0  0  0  0  0
    4.7739   -0.8269   -1.9671 H   0  0  0  0  0  0  0  0  0  0  0  0
    2.3702   -1.2626   -2.3514 H   0  0  0  0  0  0  0  0  0  0  0  0
    8.3541    1.1242    2.1158 H   0  0  0  0  0  0  0  0  0  0  0  0
   10.4883    0.0225   -2.1796 H   0  0  0  0  0  0  0  0  0  0  0  0
   -3.7511   -1.1621    0.8993 H   0  0  0  0  0  0  0  0  0  0  0  0
   -3.6360    0.5326    2.5033 H   0  0  0  0  0  0  0  0  0  0  0  0
   -2.0320    1.0220    1.9472 H   0  0  0  0  0  0  0  0  0  0  0  0
   -3.1198    1.5979   -0.3373 H   0  0  0  0  0  0  0  0  0  0  0  0
   -4.5742    0.2539   -1.6675 H   0  0  0  0  0  0  0  0  0  0  0  0
   -6.8899   -0.5263   -2.0635 H   0  0  0  0  0  0  0  0  0  0  0  0
   -8.6132   -0.2017   -0.2999 H   0  0  0  0  0  0  0  0  0  0  0  0
   -5.7247    1.6651    2.2244 H   0  0  0  0  0  0  0  0  0  0  0  0
   -3.5501    3.4781    0.4921 H   0  0  0  0  0  0  0  0  0  0  0  0
  1  2  1  0
  2  3  1  0
  3  4  1  0
  4  5  1  0
  5  6  2  0
  6  7  1  0
  7  8  2  0
  8  9  1  0
  9 10  2  0
  8 11  1  0
 11 12  1  0
 12 13  1  0
 13 14  2  0
 14 15  1  0
 14 16  1  0
 16 17  2  0
 16 18  1  0
  2 19  1  0
 19 20  1  0
 20 21  1  0
 21 22  1  0
 22 23  2  0
 23 24  1  0
 24 25  2  0
 25 26  1  0
 26 27  2  0
 26 28  1  0
 21 29  1  0
 10  5  1  0
 15 11  2  0
 27 22  1  0
  1 30  1  0
  1 31  1  0
  1 32  1  0
  2 33  1  6
  3 34  1  0
  3 35  1  0
  4 36  1  0
  6 37  1  0
  7 38  1  0
  9 39  1  0
 10 40  1  0
 13 41  1  0
 18 42  1  0
 19 43  1  0
 20 44  1  0
 20 45  1  0
 21 46  1  6
 23 47  1  0
 24 48  1  0
 25 49  1  0
 27 50  1  0
 29 51  1  0
M  END
>  <Ligand ID>  (1) 
LIG0002240

>  <Ligand>  (1) 
CHEMBL246908

>  <SMILES>  (1) 
C[C@H](CNc1ccc(cc1)c1occ(n1)C(=O)O)NC[C@@H](c1cccc(c1)Cl)O

>  <CID>  (1) 
44441226.0

>  <ChEMBL ID>  (1) 
nan

>  <InChiKey>  (1) 
CQANIXYUUUXTBI-YJYMSZOUSA-N

>  <InChi>  (1) 
InChI=1S/C21H22ClN3O4/c1-13(23-11-19(26)15-3-2-4-16(22)9-15)10-24-17-7-5-14(6-8-17)20-25-18(12-29-20)21(27)28/h2-9,12-13,19,23-24,26H,10-11H2,1H3,(H,27,28)/t13-,19+/m1/s1

>  <IUPAC Name>  (1) 
2-[4-[[(2R)-2-[[(2R)-2-(3-chlorophenyl)-2-hydroxyethyl]amino]propyl]amino]phenyl]-1,3-oxazole-4-carboxylic acid

$$$$
