
     RDKit          3D

 46 47  0  0  0  0  0  0  0  0999 V2000
   -1.4871   -1.1717   -2.4893 O   0  0  0  0  0  0  0  0  0  0  0  0
   -2.0117   -0.6606   -1.3298 C   0  0  2  0  0  0  0  0  0  0  0  0
   -1.3856   -1.2643   -0.0661 C   0  0  1  0  0  0  0  0  0  0  0  0
   -0.0768   -0.6147    0.2373 C   0  0  0  0  0  0  0  0  0  0  0  0
    0.9004   -0.8328   -0.7315 O   0  0  0  0  0  0  0  0  0  0  0  0
    2.2914   -0.0122   -0.1868 P   0  0  0  0  0  0  0  0  0  0  0  0
    1.8451    1.4368    0.0315 O   0  0  0  0  0  0  0  0  0  0  0  0
    3.5191    0.0014   -1.3133 O   0  0  0  0  0  0  0  0  0  0  0  0
    4.7554   -1.0684   -0.9865 P   0  0  0  0  0  0  0  0  0  0  0  0
    4.4807   -1.9473    0.2050 O   0  0  0  0  0  0  0  0  0  0  0  0
    6.3100   -0.1672   -0.7246 C   0  0  0  0  0  0  0  0  0  0  0  0
    6.1145    0.8360    0.7720 P   0  0  0  0  0  0  0  0  0  0  0  0
    5.7380   -0.0467    1.9265 O   0  0  0  0  0  0  0  0  0  0  0  0
    4.8701    1.9444    0.4802 O   0  0  0  0  0  0  0  0  0  0  0  0
    7.5466    1.6388    1.1685 O   0  0  0  0  0  0  0  0  0  0  0  0
    6.6075    0.9041   -2.1214 Cl  0  0  0  0  0  0  0  0  0  0  0  0
    7.6731   -1.2899   -0.5416 Cl  0  0  0  0  0  0  0  0  0  0  0  0
    4.9921   -2.0115   -2.3844 O   0  0  0  0  0  0  0  0  0  0  0  0
    2.7539   -0.6360    1.2946 O   0  0  0  0  0  0  0  0  0  0  0  0
   -2.3016   -1.0017    0.9410 O   0  0  0  0  0  0  0  0  0  0  0  0
   -3.5604   -0.9964    0.3913 C   0  0  2  0  0  0  0  0  0  0  0  0
   -3.4591   -1.0431   -1.0963 C   0  0  2  0  0  0  0  0  0  0  0  0
   -3.6323   -2.3700   -1.5340 O   0  0  0  0  0  0  0  0  0  0  0  0
   -4.3243    0.1754    0.7680 N   0  0  0  0  0  0  0  0  0  0  0  0
   -5.6073    0.2823    0.4249 C   0  0  0  0  0  0  0  0  0  0  0  0
   -6.2784    1.4400    0.8231 C   0  0  0  0  0  0  0  0  0  0  0  0
   -5.6421    2.4232    1.5366 C   0  0  0  0  0  0  0  0  0  0  0  0
   -6.3901    3.7999    2.0257 S   0  0  0  0  0  0  0  0  0  0  0  0
   -4.3546    2.2763    1.8602 N   0  0  0  0  0  0  0  0  0  0  0  0
   -3.7134    1.1489    1.4685 C   0  0  0  0  0  0  0  0  0  0  0  0
   -2.5040    1.0579    1.7971 O   0  0  0  0  0  0  0  0  0  0  0  0
   -0.9932   -0.4377   -2.9518 H   0  0  0  0  0  0  0  0  0  0  0  0
   -1.9044    0.4570   -1.2821 H   0  0  0  0  0  0  0  0  0  0  0  0
   -1.2671   -2.3478   -0.2226 H   0  0  0  0  0  0  0  0  0  0  0  0
    0.2353   -0.9735    1.2510 H   0  0  0  0  0  0  0  0  0  0  0  0
   -0.2501    0.4859    0.3282 H   0  0  0  0  0  0  0  0  0  0  0  0
    4.5852    2.3560    1.3339 H   0  0  0  0  0  0  0  0  0  0  0  0
    7.7961    2.2684    0.4367 H   0  0  0  0  0  0  0  0  0  0  0  0
    4.3353   -1.8254   -3.0812 H   0  0  0  0  0  0  0  0  0  0  0  0
    2.2281   -1.4445    1.5418 H   0  0  0  0  0  0  0  0  0  0  0  0
   -4.1367   -1.8704    0.7983 H   0  0  0  0  0  0  0  0  0  0  0  0
   -4.1781   -0.3703   -1.6086 H   0  0  0  0  0  0  0  0  0  0  0  0
   -2.8404   -2.6683   -2.0488 H   0  0  0  0  0  0  0  0  0  0  0  0
   -6.1307   -0.4807   -0.1380 H   0  0  0  0  0  0  0  0  0  0  0  0
   -7.3204    1.6036    0.5847 H   0  0  0  0  0  0  0  0  0  0  0  0
   -3.8279    3.0167    2.4123 H   0  0  0  0  0  0  0  0  0  0  0  0
  1  2  1  0
  2  3  1  0
  3  4  1  0
  4  5  1  0
  5  6  1  0
  6  7  2  0
  6  8  1  0
  8  9  1  0
  9 10  2  0
  9 11  1  0
 11 12  1  0
 12 13  2  0
 12 14  1  0
 12 15  1  0
 11 16  1  0
 11 17  1  0
  9 18  1  0
  6 19  1  0
  3 20  1  0
 20 21  1  0
 21 22  1  0
 22 23  1  0
 21 24  1  0
 24 25  1  0
 25 26  2  0
 26 27  1  0
 27 28  2  0
 27 29  1  0
 29 30  1  0
 30 31  2  0
 22  2  1  0
 30 24  1  0
  1 32  1  0
  2 33  1  6
  3 34  1  6
  4 35  1  0
  4 36  1  0
 14 37  1  0
 15 38  1  0
 18 39  1  0
 19 40  1  0
 21 41  1  1
 22 42  1  6
 23 43  1  0
 25 44  1  0
 26 45  1  0
 29 46  1  0
M  END
>  <Ligand ID>  (1) 
LIG0002837

>  <Ligand>  (1) 
CHEMBL1765116

>  <SMILES>  (1) 
O[C@@H]1[C@@H](COP(=O)(OP(=O)(C(P(=O)(O)O)(Cl)Cl)O)O)O[C@H]([C@@H]1O)n1ccc(=S)[nH]c1=O

>  <CID>  (1) 
52952603.0

>  <ChEMBL ID>  (1) 
nan

>  <InChiKey>  (1) 
LUWOVOPRCPGURH-XVFCMESISA-N

>  <InChi>  (1) 
InChI=1S/C10H15Cl2N2O13P3S/c11-10(12,28(18,19)20)29(21,22)27-30(23,24)25-3-4-6(15)7(16)8(26-4)14-2-1-5(31)13-9(14)17/h1-2,4,6-8,15-16H,3H2,(H,21,22)(H,23,24)(H,13,17,31)(H2,18,19,20)/t4-,6-,7-,8-/m1/s1

>  <IUPAC Name>  (1) 
[dichloro-[[[(2R,3S,4R,5R)-3,4-dihydroxy-5-(2-oxo-4-sulfanylidenepyrimidin-1-yl)oxolan-2-yl]methoxy-hydroxyphosphoryl]oxy-hydroxyphosphoryl]methyl]phosphonic acid

$$$$
