
     RDKit          3D

 63 67  0  0  0  0  0  0  0  0999 V2000
   -0.1732   -3.7957   -0.6564 C   0  0  0  0  0  0  0  0  0  0  0  0
   -0.6117   -3.5586   -2.0794 C   0  0  0  0  0  0  0  0  0  0  0  0
   -1.8133   -2.8549   -2.1749 O   0  0  0  0  0  0  0  0  0  0  0  0
   -2.0762   -1.6000   -1.7041 C   0  0  0  0  0  0  0  0  0  0  0  0
   -1.1572   -0.8094   -1.0426 C   0  0  0  0  0  0  0  0  0  0  0  0
   -1.5181    0.4378   -0.6078 C   0  0  0  0  0  0  0  0  0  0  0  0
   -2.7975    0.9041   -0.8292 C   0  0  0  0  0  0  0  0  0  0  0  0
   -3.7560    0.1417   -1.4917 C   0  0  0  0  0  0  0  0  0  0  0  0
   -3.3623   -1.1001   -1.9136 C   0  0  0  0  0  0  0  0  0  0  0  0
   -4.2972   -1.8792   -2.5758 O   0  0  0  0  0  0  0  0  0  0  0  0
   -5.6062   -1.4877   -2.8412 C   0  0  0  0  0  0  0  0  0  0  0  0
   -3.1480    2.1358   -0.3865 N   0  0  0  0  0  0  0  0  0  0  0  0
   -2.2397    2.8858    0.2634 C   0  0  0  0  0  0  0  0  0  0  0  0
   -0.9882    2.4532    0.4899 N   0  0  0  0  0  0  0  0  0  0  0  0
   -0.6005    1.2151    0.0563 C   0  0  0  0  0  0  0  0  0  0  0  0
    0.7372    0.8631    0.3089 N   0  0  0  0  0  0  0  0  0  0  0  0
    1.7788    0.7864   -0.6985 C   0  0  0  0  0  0  0  0  0  0  0  0
    3.1119    0.4320   -0.0886 C   0  0  0  0  0  0  0  0  0  0  0  0
    3.0149   -0.6724    0.8369 N   0  0  0  0  0  0  0  0  0  0  0  0
    1.7958   -0.8145    1.6283 C   0  0  0  0  0  0  0  0  0  0  0  0
    1.1493    0.5440    1.6835 C   0  0  0  0  0  0  0  0  0  0  0  0
    4.0193   -1.6495    1.0409 C   0  0  0  0  0  0  0  0  0  0  0  0
    4.8108   -1.4752    2.1771 C   0  0  0  0  0  0  0  0  0  0  0  0
    5.8473   -2.3162    2.4981 C   0  0  0  0  0  0  0  0  0  0  0  0
    6.0940   -3.3681    1.6449 C   0  0  0  0  0  0  0  0  0  0  0  0
    5.3218   -3.5469    0.5280 C   0  0  0  0  0  0  0  0  0  0  0  0
    4.2630   -2.6993    0.1889 C   0  0  0  0  0  0  0  0  0  0  0  0
    3.5137   -2.9950   -0.9630 N   0  0  0  0  0  0  0  0  0  0  0  0
    3.4610   -4.2187   -1.2993 O   0  0  0  0  0  0  0  0  0  0  0  0
    2.8339   -2.1339   -1.7568 O   0  0  0  0  0  0  0  0  0  0  0  0
   -2.6199    4.2108    0.7388 C   0  0  0  0  0  0  0  0  0  0  0  0
   -1.7370    5.0204    1.4059 C   0  0  0  0  0  0  0  0  0  0  0  0
   -2.0861    6.2664    1.8554 C   0  0  0  0  0  0  0  0  0  0  0  0
   -3.3476    6.7696    1.6582 C   0  0  0  0  0  0  0  0  0  0  0  0
   -4.2661    5.9639    0.9808 C   0  0  0  0  0  0  0  0  0  0  0  0
   -3.9048    4.6947    0.5249 C   0  0  0  0  0  0  0  0  0  0  0  0
    0.8083   -3.3998   -0.3991 H   0  0  0  0  0  0  0  0  0  0  0  0
   -0.9227   -3.2922   -0.0013 H   0  0  0  0  0  0  0  0  0  0  0  0
   -0.1947   -4.8565   -0.3585 H   0  0  0  0  0  0  0  0  0  0  0  0
    0.2309   -3.0477   -2.6170 H   0  0  0  0  0  0  0  0  0  0  0  0
   -0.6910   -4.5517   -2.5663 H   0  0  0  0  0  0  0  0  0  0  0  0
   -0.1698   -1.1860   -0.8687 H   0  0  0  0  0  0  0  0  0  0  0  0
   -4.7268    0.5707   -1.6265 H   0  0  0  0  0  0  0  0  0  0  0  0
   -6.0737   -0.9547   -1.9789 H   0  0  0  0  0  0  0  0  0  0  0  0
   -5.6989   -0.8930   -3.7832 H   0  0  0  0  0  0  0  0  0  0  0  0
   -6.2212   -2.4067   -2.9923 H   0  0  0  0  0  0  0  0  0  0  0  0
    1.9054    1.8669   -1.0350 H   0  0  0  0  0  0  0  0  0  0  0  0
    1.5163    0.2503   -1.6045 H   0  0  0  0  0  0  0  0  0  0  0  0
    3.5409    1.3410    0.4131 H   0  0  0  0  0  0  0  0  0  0  0  0
    3.8162    0.1641   -0.8844 H   0  0  0  0  0  0  0  0  0  0  0  0
    1.1644   -1.5407    1.0887 H   0  0  0  0  0  0  0  0  0  0  0  0
    2.0117   -1.2271    2.6334 H   0  0  0  0  0  0  0  0  0  0  0  0
    0.3033    0.5902    2.3947 H   0  0  0  0  0  0  0  0  0  0  0  0
    1.8773    1.3162    1.9869 H   0  0  0  0  0  0  0  0  0  0  0  0
    4.6277   -0.6501    2.8587 H   0  0  0  0  0  0  0  0  0  0  0  0
    6.4666   -2.1892    3.3770 H   0  0  0  0  0  0  0  0  0  0  0  0
    6.9091   -4.0309    1.8948 H   0  0  0  0  0  0  0  0  0  0  0  0
    5.5395   -4.3809   -0.1220 H   0  0  0  0  0  0  0  0  0  0  0  0
   -0.7416    4.6777    1.5861 H   0  0  0  0  0  0  0  0  0  0  0  0
   -1.3772    6.8964    2.3817 H   0  0  0  0  0  0  0  0  0  0  0  0
   -3.6626    7.7530    1.9995 H   0  0  0  0  0  0  0  0  0  0  0  0
   -5.2643    6.3413    0.8150 H   0  0  0  0  0  0  0  0  0  0  0  0
   -4.6188    4.0902    0.0083 H   0  0  0  0  0  0  0  0  0  0  0  0
  1  2  1  0
  2  3  1  0
  3  4  1  0
  4  5  2  0
  5  6  1  0
  6  7  2  0
  7  8  1  0
  8  9  2  0
  9 10  1  0
 10 11  1  0
  7 12  1  0
 12 13  2  0
 13 14  1  0
 14 15  2  0
 15 16  1  0
 16 17  1  0
 17 18  1  0
 18 19  1  0
 19 20  1  0
 20 21  1  0
 19 22  1  0
 22 23  2  0
 23 24  1  0
 24 25  2  0
 25 26  1  0
 26 27  2  0
 27 28  1  0
 28 29  2  0
 28 30  1  0
 13 31  1  0
 31 32  2  0
 32 33  1  0
 33 34  2  0
 34 35  1  0
 35 36  2  0
  9  4  1  0
 21 16  1  0
 27 22  1  0
 36 31  1  0
 15  6  1  0
  1 37  1  0
  1 38  1  0
  1 39  1  0
  2 40  1  0
  2 41  1  0
  5 42  1  0
  8 43  1  0
 11 44  1  0
 11 45  1  0
 11 46  1  0
 17 47  1  0
 17 48  1  0
 18 49  1  0
 18 50  1  0
 20 51  1  0
 20 52  1  0
 21 53  1  0
 21 54  1  0
 23 55  1  0
 24 56  1  0
 25 57  1  0
 26 58  1  0
 32 59  1  0
 33 60  1  0
 34 61  1  0
 35 62  1  0
 36 63  1  0
M  CHG  2  28   1  30  -1
M  END
>  <Ligand ID>  (1) 
LIG0004469

>  <Ligand>  (1) 
CHEMBL2431235

>  <SMILES>  (1) 
CCOc1cc2c(cc1OC)nc(nc2N1CCN(CC1)c1ccccc1[N+](=O)[O-])c1ccccc1

>  <CID>  (1) 
73352405.0

>  <ChEMBL ID>  (1) 
nan

>  <InChiKey>  (1) 
NCAZRSMRZPBXMW-UHFFFAOYSA-N

>  <InChi>  (1) 
InChI=1S/C27H27N5O4/c1-3-36-25-17-20-21(18-24(25)35-2)28-26(19-9-5-4-6-10-19)29-27(20)31-15-13-30(14-16-31)22-11-7-8-12-23(22)32(33)34/h4-12,17-18H,3,13-16H2,1-2H3

>  <IUPAC Name>  (1) 
6-ethoxy-7-methoxy-4-[4-(2-nitrophenyl)piperazin-1-yl]-2-phenylquinazoline

$$$$
