
     RDKit          3D

 34 34  0  0  0  0  0  0  0  0999 V2000
    4.4991    1.0423    0.7224 N   0  0  0  0  0  0  0  0  0  0  0  0
    3.7292    0.0659    0.0018 C   0  0  0  0  0  0  0  0  0  0  0  0
    2.3933   -0.1808    0.6630 C   0  0  1  0  0  0  0  0  0  0  0  0
    1.4832    1.0629    0.7767 C   0  0  0  0  0  0  0  0  0  0  0  0
    1.1323   -0.0325   -0.1094 C   0  0  2  0  0  0  0  0  0  0  0  0
    0.0672   -1.0191    0.0641 C   0  0  0  0  0  0  0  0  0  0  0  0
    0.3337   -2.2326    0.6627 C   0  0  0  0  0  0  0  0  0  0  0  0
   -0.6525   -3.1529    0.8218 C   0  0  0  0  0  0  0  0  0  0  0  0
   -0.4001   -4.3381    1.4050 F   0  0  0  0  0  0  0  0  0  0  0  0
   -1.9067   -2.8822    0.3913 C   0  0  0  0  0  0  0  0  0  0  0  0
   -2.1713   -1.6676   -0.2080 C   0  0  0  0  0  0  0  0  0  0  0  0
   -1.2131   -0.6889   -0.3987 C   0  0  0  0  0  0  0  0  0  0  0  0
   -1.3789    0.5089   -0.9683 O   0  0  0  0  0  0  0  0  0  0  0  0
   -2.3665    1.2538   -1.5238 C   0  0  0  0  0  0  0  0  0  0  0  0
   -3.4205    1.6032   -0.5471 C   0  0  0  0  0  0  0  0  0  0  0  0
   -3.6421    2.9174   -0.3189 C   0  0  0  0  0  0  0  0  0  0  0  0
   -4.1917    0.7517    0.1426 F   0  0  0  0  0  0  0  0  0  0  0  0
    0.6913    0.0000    0.0000 Cl  0  0  0  0  0  0  0  0  0  0  0  0
    4.2998    1.9808    0.3419 H   0  0  0  0  0  0  0  0  0  0  0  0
    5.5160    0.8745    0.5311 H   0  0  0  0  0  0  0  0  0  0  0  0
    3.6225    0.3386   -1.0584 H   0  0  0  0  0  0  0  0  0  0  0  0
    4.2910   -0.9005    0.0508 H   0  0  0  0  0  0  0  0  0  0  0  0
    2.4040   -0.8788    1.4940 H   0  0  0  0  0  0  0  0  0  0  0  0
    1.8723    2.0108    0.3392 H   0  0  0  0  0  0  0  0  0  0  0  0
    1.1180    1.2204    1.7895 H   0  0  0  0  0  0  0  0  0  0  0  0
    1.3304    0.1491   -1.2089 H   0  0  0  0  0  0  0  0  0  0  0  0
    1.3286   -2.5090    1.0279 H   0  0  0  0  0  0  0  0  0  0  0  0
   -2.7009   -3.6276    0.5212 H   0  0  0  0  0  0  0  0  0  0  0  0
   -3.1725   -1.5083   -0.5471 H   0  0  0  0  0  0  0  0  0  0  0  0
   -2.8161    0.6741   -2.3757 H   0  0  0  0  0  0  0  0  0  0  0  0
   -1.9591    2.2035   -1.9984 H   0  0  0  0  0  0  0  0  0  0  0  0
   -3.0518    3.6793   -0.8484 H   0  0  0  0  0  0  0  0  0  0  0  0
   -4.3768    3.2817    0.3641 H   0  0  0  0  0  0  0  0  0  0  0  0
   -0.6913    0.0000    0.0000 H   0  0  0  0  0  0  0  0  0  0  0  0
  1  2  1  0
  2  3  1  0
  3  4  1  0
  4  5  1  0
  5  6  1  0
  6  7  2  0
  7  8  1  0
  8  9  1  0
  8 10  2  0
 10 11  1  0
 11 12  2  0
 12 13  1  0
 13 14  1  0
 14 15  1  0
 15 16  2  0
 15 17  1  0
  5  3  1  0
 12  6  1  0
  1 19  1  0
  1 20  1  0
  2 21  1  0
  2 22  1  0
  3 23  1  1
  4 24  1  0
  4 25  1  0
  5 26  1  6
  7 27  1  0
 10 28  1  0
 11 29  1  0
 14 30  1  0
 14 31  1  0
 16 32  1  0
 16 33  1  0
 18 34  1  0
M  END
>  <Ligand ID>  (1) 
LIG0005611

>  <Ligand>  (1) 
CHEMBL3416065

>  <SMILES>  (1) 
NC[C@H]1C[C@@H]1c1cc(F)ccc1OCC(=C)F.Cl

>  <CID>  (1) 
118733823.0

>  <ChEMBL ID>  (1) 
nan

>  <InChiKey>  (1) 
RXTHMUKOFNDZHR-XQKZEKTMSA-N

>  <InChi>  (1) 
InChI=1S/C13H15F2NO.ClH/c1-8(14)7-17-13-3-2-10(15)5-12(13)11-4-9(11)6-16;/h2-3,5,9,11H,1,4,6-7,16H2;1H/t9-,11+;/m1./s1

>  <IUPAC Name>  (1) 
[(1S,2S)-2-[5-fluoro-2-(2-fluoroprop-2-enoxy)phenyl]cyclopropyl]methanamine;hydrochloride

$$$$
