
     RDKit          3D

 41 40  0  0  0  0  0  0  0  0999 V2000
   -5.3757    0.3812    1.7834 C   0  0  0  0  0  0  0  0  0  0  0  0
   -4.9982   -0.1774    0.4295 C   0  0  0  0  0  0  0  0  0  0  0  0
   -3.9166    0.6669   -0.2271 C   0  0  0  0  0  0  0  0  0  0  0  0
   -2.6755    0.7070    0.6176 C   0  0  0  0  0  0  0  0  0  0  0  0
   -2.0930   -0.6450    0.8455 C   0  0  0  0  0  0  0  0  0  0  0  0
   -1.6936   -1.3644   -0.4015 C   0  0  0  0  0  0  0  0  0  0  0  0
   -0.6643   -0.6605   -1.2187 C   0  0  0  0  0  0  0  0  0  0  0  0
    0.6299   -0.4314   -0.4740 C   0  0  0  0  0  0  0  0  0  0  0  0
    1.6053    0.2830   -1.3770 C   0  0  0  0  0  0  0  0  0  0  0  0
    2.9300    0.5675   -0.7489 C   0  0  0  0  0  0  0  0  0  0  0  0
    3.6516   -0.6631   -0.3065 C   0  0  0  0  0  0  0  0  0  0  0  0
    4.9626   -0.3458    0.3121 C   0  0  0  0  0  0  0  0  0  0  0  0
    5.6408   -1.3483    0.7180 O   0  0  0  0  0  0  0  0  0  0  0  0
    5.4724    0.9122    0.4690 O   0  0  0  0  0  0  0  0  0  0  0  0
    6.7439    1.1566    1.0736 C   0  0  0  0  0  0  0  0  0  0  0  0
   -5.1201    1.4502    1.7804 H   0  0  0  0  0  0  0  0  0  0  0  0
   -4.7787   -0.1502    2.5591 H   0  0  0  0  0  0  0  0  0  0  0  0
   -6.4418    0.1900    1.9633 H   0  0  0  0  0  0  0  0  0  0  0  0
   -4.6960   -1.2383    0.5212 H   0  0  0  0  0  0  0  0  0  0  0  0
   -5.9029   -0.1143   -0.2403 H   0  0  0  0  0  0  0  0  0  0  0  0
   -4.3243    1.6947   -0.3253 H   0  0  0  0  0  0  0  0  0  0  0  0
   -3.6747    0.2764   -1.2160 H   0  0  0  0  0  0  0  0  0  0  0  0
   -3.0106    1.0763    1.6319 H   0  0  0  0  0  0  0  0  0  0  0  0
   -1.9745    1.4562    0.2517 H   0  0  0  0  0  0  0  0  0  0  0  0
   -2.8463   -1.2683    1.3701 H   0  0  0  0  0  0  0  0  0  0  0  0
   -1.2319   -0.5822    1.5476 H   0  0  0  0  0  0  0  0  0  0  0  0
   -1.2534   -2.3369   -0.0929 H   0  0  0  0  0  0  0  0  0  0  0  0
   -2.5454   -1.5893   -1.0438 H   0  0  0  0  0  0  0  0  0  0  0  0
   -0.4036   -1.3465   -2.0655 H   0  0  0  0  0  0  0  0  0  0  0  0
   -0.9866    0.2796   -1.6699 H   0  0  0  0  0  0  0  0  0  0  0  0
    1.0993   -1.4046   -0.1912 H   0  0  0  0  0  0  0  0  0  0  0  0
    0.4701    0.1359    0.4628 H   0  0  0  0  0  0  0  0  0  0  0  0
    1.7506   -0.2468   -2.3165 H   0  0  0  0  0  0  0  0  0  0  0  0
    1.1546    1.2744   -1.6337 H   0  0  0  0  0  0  0  0  0  0  0  0
    2.8254    1.2567    0.1155 H   0  0  0  0  0  0  0  0  0  0  0  0
    3.5585    1.0419   -1.5293 H   0  0  0  0  0  0  0  0  0  0  0  0
    3.0298   -1.2090    0.4324 H   0  0  0  0  0  0  0  0  0  0  0  0
    3.8470   -1.3153   -1.1712 H   0  0  0  0  0  0  0  0  0  0  0  0
    7.2981    0.2013    1.1969 H   0  0  0  0  0  0  0  0  0  0  0  0
    7.3838    1.8279    0.4924 H   0  0  0  0  0  0  0  0  0  0  0  0
    6.5540    1.6016    2.0727 H   0  0  0  0  0  0  0  0  0  0  0  0
  1  2  1  0
  2  3  1  0
  3  4  1  0
  4  5  1  0
  5  6  1  0
  6  7  1  0
  7  8  1  0
  8  9  1  0
  9 10  1  0
 10 11  1  0
 11 12  1  0
 12 13  2  0
 12 14  1  0
 14 15  1  0
  1 16  1  0
  1 17  1  0
  1 18  1  0
  2 19  1  0
  2 20  1  0
  3 21  1  0
  3 22  1  0
  4 23  1  0
  4 24  1  0
  5 25  1  0
  5 26  1  0
  6 27  1  0
  6 28  1  0
  7 29  1  0
  7 30  1  0
  8 31  1  0
  8 32  1  0
  9 33  1  0
  9 34  1  0
 10 35  1  0
 10 36  1  0
 11 37  1  0
 11 38  1  0
 15 39  1  0
 15 40  1  0
 15 41  1  0
M  END
>  <Ligand ID>  (1) 
LIG0000546

>  <Ligand>  (1) 
Methyl Laurate

>  <SMILES>  (1) 
CCCCCCCCCCCC(=O)OC

>  <CID>  (1) 
8139.0

>  <ChEMBL ID>  (1) 
nan

>  <InChiKey>  (1) 
UQDUPQYQJKYHQI-UHFFFAOYSA-N

>  <InChi>  (1) 
InChI=1S/C13H26O2/c1-3-4-5-6-7-8-9-10-11-12-13(14)15-2/h3-12H2,1-2H3

>  <IUPAC Name>  (1) 
methyl dodecanoate

$$$$
