
     RDKit          3D

151155  0  0  0  0  0  0  0  0999 V2000
    9.3518   -4.0921   -2.1950 N   0  0  0  0  0  0  0  0  0  0  0  0
    8.2822   -3.3101   -1.5322 C   0  0  0  0  0  0  0  0  0  0  0  0
    7.2081   -2.9342   -2.5114 C   0  0  0  0  0  0  0  0  0  0  0  0
    6.1214   -2.1636   -1.8183 C   0  0  0  0  0  0  0  0  0  0  0  0
    5.4745   -2.9642   -0.7295 C   0  0  0  0  0  0  0  0  0  0  0  0
    4.3146   -2.2178   -0.0406 C   0  0  1  0  0  0  0  0  0  0  0  0
    4.8599   -1.0063    0.5675 C   0  0  0  0  0  0  0  0  0  0  0  0
    4.5074    0.1048    0.0307 O   0  0  0  0  0  0  0  0  0  0  0  0
    5.7313   -1.0361    1.6832 N   0  0  0  0  0  0  0  0  0  0  0  0
    6.1782   -2.1554    2.4971 C   0  0  0  0  0  0  0  0  0  0  0  0
    6.2083   -1.5934    3.9090 C   0  0  0  0  0  0  0  0  0  0  0  0
    6.5587   -0.1324    3.6885 C   0  0  0  0  0  0  0  0  0  0  0  0
    6.4206    0.1413    2.2268 C   0  0  1  0  0  0  0  0  0  0  0  0
    7.8086    0.1567    1.6298 C   0  0  0  0  0  0  0  0  0  0  0  0
    8.0616   -0.8446    0.8973 O   0  0  0  0  0  0  0  0  0  0  0  0
    8.7448    1.1801    1.8576 N   0  0  0  0  0  0  0  0  0  0  0  0
   10.0482    1.0277    1.1931 C   0  0  2  0  0  0  0  0  0  0  0  0
   11.1856    1.1067    2.1223 C   0  0  0  0  0  0  0  0  0  0  0  0
   12.4044    0.9662    1.7372 O   0  0  0  0  0  0  0  0  0  0  0  0
   11.0544    1.3472    3.5302 N   0  0  0  0  0  0  0  0  0  0  0  0
   10.1695    2.0621    0.0896 C   0  0  0  0  0  0  0  0  0  0  0  0
   10.0773    3.4695    0.5865 C   0  0  0  0  0  0  0  0  0  0  0  0
   11.4337    1.8548   -0.6769 C   0  0  0  0  0  0  0  0  0  0  0  0
    3.2526   -1.9598   -0.9876 N   0  0  0  0  0  0  0  0  0  0  0  0
    2.6570   -2.9305   -1.8180 C   0  0  0  0  0  0  0  0  0  0  0  0
    3.1444   -4.1086   -1.7217 O   0  0  0  0  0  0  0  0  0  0  0  0
    1.5714   -2.7561   -2.7609 C   0  0  0  0  0  0  0  0  0  0  0  0
    0.8516   -1.5261   -2.8205 N   0  0  0  0  0  0  0  0  0  0  0  0
    0.1116   -1.2433   -1.5674 C   0  0  0  0  0  0  0  0  0  0  0  0
    0.3269   -2.1347   -0.7223 O   0  0  0  0  0  0  0  0  0  0  0  0
   -0.7437   -0.0540   -1.4503 C   0  0  2  0  0  0  0  0  0  0  0  0
    0.1090    1.1845   -1.6081 C   0  0  0  0  0  0  0  0  0  0  0  0
   -0.6407    2.4473   -1.5119 C   0  0  0  0  0  0  0  0  0  0  0  0
   -0.6133    3.2664   -0.3863 C   0  0  0  0  0  0  0  0  0  0  0  0
   -1.4077    4.3602   -0.5941 N   0  0  0  0  0  0  0  0  0  0  0  0
   -1.9493    4.2620   -1.8379 C   0  0  0  0  0  0  0  0  0  0  0  0
   -1.4767    3.0819   -2.4044 C   0  0  0  0  0  0  0  0  0  0  0  0
   -1.8499    2.6933   -3.6791 C   0  0  0  0  0  0  0  0  0  0  0  0
   -2.7166    3.5465   -4.3510 C   0  0  0  0  0  0  0  0  0  0  0  0
   -3.1821    4.7147   -3.7856 C   0  0  0  0  0  0  0  0  0  0  0  0
   -2.8111    5.1032   -2.5147 C   0  0  0  0  0  0  0  0  0  0  0  0
   -1.5654   -0.0487   -0.3082 N   0  0  0  0  0  0  0  0  0  0  0  0
   -1.6734   -0.8321    0.8432 C   0  0  0  0  0  0  0  0  0  0  0  0
   -0.9135   -1.8298    1.1295 O   0  0  0  0  0  0  0  0  0  0  0  0
   -2.7014   -0.5925    1.8965 C   0  0  1  0  0  0  0  0  0  0  0  0
   -3.8066    0.2173    1.5268 N   0  0  0  0  0  0  0  0  0  0  0  0
   -4.1879    1.4730    2.0439 C   0  0  0  0  0  0  0  0  0  0  0  0
   -3.5605    2.0990    2.9369 O   0  0  0  0  0  0  0  0  0  0  0  0
   -5.4408    2.1202    1.5091 C   0  0  1  0  0  0  0  0  0  0  0  0
   -5.3038    3.5119    1.0846 C   0  0  0  0  0  0  0  0  0  0  0  0
   -6.6002    4.0409    0.6000 C   0  0  0  0  0  0  0  0  0  0  0  0
   -7.0314    4.0006   -0.6985 C   0  0  0  0  0  0  0  0  0  0  0  0
   -8.2614    4.5125   -1.1158 C   0  0  0  0  0  0  0  0  0  0  0  0
   -9.0703    5.0913   -0.1279 C   0  0  0  0  0  0  0  0  0  0  0  0
   -8.6792    5.1552    1.1892 C   0  0  0  0  0  0  0  0  0  0  0  0
   -7.4579    4.6337    1.5359 C   0  0  0  0  0  0  0  0  0  0  0  0
   -6.0024    1.2783    0.4750 N   0  0  0  0  0  0  0  0  0  0  0  0
   -6.8963    0.2193    0.8337 C   0  0  0  0  0  0  0  0  0  0  0  0
   -7.2166    0.0068    2.0526 O   0  0  0  0  0  0  0  0  0  0  0  0
   -7.4987   -0.6960   -0.1687 C   0  0  2  0  0  0  0  0  0  0  0  0
   -8.5896    0.0183   -0.9735 C   0  0  0  0  0  0  0  0  0  0  0  0
   -9.6553    0.4458   -0.0286 C   0  0  0  0  0  0  0  0  0  0  0  0
  -10.7701   -0.3178    0.2780 C   0  0  0  0  0  0  0  0  0  0  0  0
  -11.4998    0.4117    1.1549 N   0  0  0  0  0  0  0  0  0  0  0  0
  -10.8682    1.5915    1.3905 C   0  0  0  0  0  0  0  0  0  0  0  0
   -9.7324    1.5824    0.6448 N   0  0  0  0  0  0  0  0  0  0  0  0
   -8.2137   -1.7470    0.5679 N   0  0  0  0  0  0  0  0  0  0  0  0
   -7.8540   -3.0945    0.2704 C   0  0  0  0  0  0  0  0  0  0  0  0
   -6.9462   -3.3104   -0.6030 O   0  0  0  0  0  0  0  0  0  0  0  0
   -8.4837   -4.2612    0.9281 C   0  0  0  0  0  0  0  0  0  0  0  0
   -3.0482   -1.8413    2.5890 C   0  0  0  0  0  0  0  0  0  0  0  0
   -3.6920   -2.9905    1.9998 C   0  0  0  0  0  0  0  0  0  0  0  0
   -3.2104   -3.7267    0.8194 C   0  0  0  0  0  0  0  0  0  0  0  0
   -3.2553   -3.0154   -0.4246 N   0  0  0  0  0  0  0  0  0  0  0  0
   -2.5781   -3.3191   -1.4585 C   0  0  0  0  0  0  0  0  0  0  0  0
   -2.7218   -2.5249   -2.6306 N   0  0  0  0  0  0  0  0  0  0  0  0
   -1.6673   -4.4158   -1.5484 N   0  0  0  0  0  0  0  0  0  0  0  0
    9.5035   -4.9843   -1.7193 H   0  0  0  0  0  0  0  0  0  0  0  0
    9.0790   -4.2587   -3.1791 H   0  0  0  0  0  0  0  0  0  0  0  0
    8.8207   -2.4136   -1.1304 H   0  0  0  0  0  0  0  0  0  0  0  0
    7.9382   -3.9139   -0.6896 H   0  0  0  0  0  0  0  0  0  0  0  0
    7.6331   -2.2858   -3.3230 H   0  0  0  0  0  0  0  0  0  0  0  0
    6.8350   -3.8860   -2.9586 H   0  0  0  0  0  0  0  0  0  0  0  0
    6.6334   -1.2561   -1.3964 H   0  0  0  0  0  0  0  0  0  0  0  0
    5.3838   -1.7320   -2.5327 H   0  0  0  0  0  0  0  0  0  0  0  0
    5.2644   -4.0096   -0.9574 H   0  0  0  0  0  0  0  0  0  0  0  0
    6.2877   -3.0366    0.0748 H   0  0  0  0  0  0  0  0  0  0  0  0
    3.9600   -2.9450    0.6938 H   0  0  0  0  0  0  0  0  0  0  0  0
    5.4187   -2.9706    2.4950 H   0  0  0  0  0  0  0  0  0  0  0  0
    7.1952   -2.4972    2.2581 H   0  0  0  0  0  0  0  0  0  0  0  0
    5.2196   -1.7010    4.3893 H   0  0  0  0  0  0  0  0  0  0  0  0
    6.9419   -2.1184    4.5515 H   0  0  0  0  0  0  0  0  0  0  0  0
    5.7980    0.4762    4.2607 H   0  0  0  0  0  0  0  0  0  0  0  0
    7.5391    0.0778    4.1212 H   0  0  0  0  0  0  0  0  0  0  0  0
    5.8808    1.0536    2.0035 H   0  0  0  0  0  0  0  0  0  0  0  0
    8.5058    1.9767    2.4590 H   0  0  0  0  0  0  0  0  0  0  0  0
   10.0320    0.0380    0.6590 H   0  0  0  0  0  0  0  0  0  0  0  0
   11.6365    0.8214    4.2342 H   0  0  0  0  0  0  0  0  0  0  0  0
   10.3461    2.0726    3.8047 H   0  0  0  0  0  0  0  0  0  0  0  0
    9.2886    1.9013   -0.5783 H   0  0  0  0  0  0  0  0  0  0  0  0
   10.2810    3.5694    1.6797 H   0  0  0  0  0  0  0  0  0  0  0  0
   10.8714    4.0732    0.0607 H   0  0  0  0  0  0  0  0  0  0  0  0
    9.1086    3.9562    0.3539 H   0  0  0  0  0  0  0  0  0  0  0  0
   12.3322    2.2717   -0.1906 H   0  0  0  0  0  0  0  0  0  0  0  0
   11.5867    0.7688   -0.9151 H   0  0  0  0  0  0  0  0  0  0  0  0
   11.3823    2.3425   -1.6942 H   0  0  0  0  0  0  0  0  0  0  0  0
    2.8930   -0.9819   -1.0696 H   0  0  0  0  0  0  0  0  0  0  0  0
    0.7801   -3.5715   -2.6366 H   0  0  0  0  0  0  0  0  0  0  0  0
    1.9960   -3.0208   -3.7838 H   0  0  0  0  0  0  0  0  0  0  0  0
    0.8051   -0.8539   -3.6062 H   0  0  0  0  0  0  0  0  0  0  0  0
   -1.4443   -0.1852   -2.3587 H   0  0  0  0  0  0  0  0  0  0  0  0
    0.6514    1.0877   -2.5828 H   0  0  0  0  0  0  0  0  0  0  0  0
    0.9076    1.1445   -0.8430 H   0  0  0  0  0  0  0  0  0  0  0  0
   -0.0696    3.1182    0.5467 H   0  0  0  0  0  0  0  0  0  0  0  0
   -1.5732    5.1493    0.0925 H   0  0  0  0  0  0  0  0  0  0  0  0
   -1.4754    1.7752   -4.1031 H   0  0  0  0  0  0  0  0  0  0  0  0
   -3.0149    3.2535   -5.3470 H   0  0  0  0  0  0  0  0  0  0  0  0
   -3.8732    5.3920   -4.3171 H   0  0  0  0  0  0  0  0  0  0  0  0
   -3.1986    6.0264   -2.1079 H   0  0  0  0  0  0  0  0  0  0  0  0
   -2.3109    0.7683   -0.3212 H   0  0  0  0  0  0  0  0  0  0  0  0
   -2.1285    0.0527    2.6623 H   0  0  0  0  0  0  0  0  0  0  0  0
   -4.4342   -0.1748    0.7532 H   0  0  0  0  0  0  0  0  0  0  0  0
   -6.1431    2.0399    2.3947 H   0  0  0  0  0  0  0  0  0  0  0  0
   -4.5112    3.6569    0.3005 H   0  0  0  0  0  0  0  0  0  0  0  0
   -4.9913    4.1852    1.9312 H   0  0  0  0  0  0  0  0  0  0  0  0
   -6.3761    3.5517   -1.4215 H   0  0  0  0  0  0  0  0  0  0  0  0
   -8.5916    4.4751   -2.1386 H   0  0  0  0  0  0  0  0  0  0  0  0
  -10.0419    5.5067   -0.3756 H   0  0  0  0  0  0  0  0  0  0  0  0
   -9.3127    5.6009    1.9337 H   0  0  0  0  0  0  0  0  0  0  0  0
   -7.1718    4.6996    2.5945 H   0  0  0  0  0  0  0  0  0  0  0  0
   -5.7750    1.4168   -0.5254 H   0  0  0  0  0  0  0  0  0  0  0  0
   -6.7280   -1.1337   -0.8083 H   0  0  0  0  0  0  0  0  0  0  0  0
   -8.1059    0.8626   -1.4647 H   0  0  0  0  0  0  0  0  0  0  0  0
   -8.9371   -0.7498   -1.7044 H   0  0  0  0  0  0  0  0  0  0  0  0
  -11.0586   -1.2988   -0.0730 H   0  0  0  0  0  0  0  0  0  0  0  0
  -11.1507    2.4074    2.0220 H   0  0  0  0  0  0  0  0  0  0  0  0
   -9.0253    2.3357    0.6086 H   0  0  0  0  0  0  0  0  0  0  0  0
   -8.9392   -1.5534    1.2695 H   0  0  0  0  0  0  0  0  0  0  0  0
   -7.9721   -4.4831    1.9034 H   0  0  0  0  0  0  0  0  0  0  0  0
   -9.5547   -4.1544    1.1196 H   0  0  0  0  0  0  0  0  0  0  0  0
   -8.3343   -5.1552    0.2900 H   0  0  0  0  0  0  0  0  0  0  0  0
   -3.6707   -1.5814    3.5358 H   0  0  0  0  0  0  0  0  0  0  0  0
   -2.1053   -2.2525    3.1402 H   0  0  0  0  0  0  0  0  0  0  0  0
   -4.8315   -2.8436    1.8873 H   0  0  0  0  0  0  0  0  0  0  0  0
   -3.7235   -3.7922    2.8437 H   0  0  0  0  0  0  0  0  0  0  0  0
   -2.1943   -4.1940    0.9649 H   0  0  0  0  0  0  0  0  0  0  0  0
   -3.8480   -4.6605    0.6264 H   0  0  0  0  0  0  0  0  0  0  0  0
   -2.0491   -2.5118   -3.4212 H   0  0  0  0  0  0  0  0  0  0  0  0
   -3.5626   -1.8876   -2.7426 H   0  0  0  0  0  0  0  0  0  0  0  0
   -1.0971   -4.6912   -0.7216 H   0  0  0  0  0  0  0  0  0  0  0  0
   -1.5957   -4.9259   -2.4745 H   0  0  0  0  0  0  0  0  0  0  0  0
  1  2  1  0
  2  3  1  0
  3  4  1  0
  4  5  1  0
  5  6  1  0
  6  7  1  0
  7  8  2  0
  7  9  1  0
  9 10  1  0
 10 11  1  0
 11 12  1  0
 12 13  1  0
 13 14  1  0
 14 15  2  0
 14 16  1  0
 16 17  1  0
 17 18  1  0
 18 19  2  0
 18 20  1  0
 17 21  1  0
 21 22  1  0
 21 23  1  0
  6 24  1  0
 24 25  1  0
 25 26  2  0
 25 27  1  0
 27 28  1  0
 28 29  1  0
 29 30  2  0
 29 31  1  0
 31 32  1  0
 32 33  1  0
 33 34  2  0
 34 35  1  0
 35 36  1  0
 36 37  2  0
 37 38  1  0
 38 39  2  0
 39 40  1  0
 40 41  2  0
 31 42  1  0
 42 43  1  0
 43 44  2  0
 43 45  1  0
 45 46  1  0
 46 47  1  0
 47 48  2  0
 47 49  1  0
 49 50  1  0
 50 51  1  0
 51 52  2  0
 52 53  1  0
 53 54  2  0
 54 55  1  0
 55 56  2  0
 49 57  1  0
 57 58  1  0
 58 59  2  0
 58 60  1  0
 60 61  1  0
 61 62  1  0
 62 63  2  0
 63 64  1  0
 64 65  2  0
 65 66  1  0
 60 67  1  0
 67 68  1  0
 68 69  2  0
 68 70  1  0
 45 71  1  0
 71 72  1  0
 72 73  1  0
 73 74  1  0
 74 75  2  3
 75 76  1  0
 75 77  1  0
 13  9  1  0
 37 33  1  0
 56 51  1  0
 66 62  1  0
 41 36  1  0
  1 78  1  0
  1 79  1  0
  2 80  1  0
  2 81  1  0
  3 82  1  0
  3 83  1  0
  4 84  1  0
  4 85  1  0
  5 86  1  0
  5 87  1  0
  6 88  1  1
 10 89  1  0
 10 90  1  0
 11 91  1  0
 11 92  1  0
 12 93  1  0
 12 94  1  0
 13 95  1  1
 16 96  1  0
 17 97  1  6
 20 98  1  0
 20 99  1  0
 21100  1  0
 22101  1  0
 22102  1  0
 22103  1  0
 23104  1  0
 23105  1  0
 23106  1  0
 24107  1  0
 27108  1  0
 27109  1  0
 28110  1  0
 31111  1  6
 32112  1  0
 32113  1  0
 34114  1  0
 35115  1  0
 38116  1  0
 39117  1  0
 40118  1  0
 41119  1  0
 42120  1  0
 45121  1  1
 46122  1  0
 49123  1  1
 50124  1  0
 50125  1  0
 52126  1  0
 53127  1  0
 54128  1  0
 55129  1  0
 56130  1  0
 57131  1  0
 60132  1  6
 61133  1  0
 61134  1  0
 63135  1  0
 65136  1  0
 66137  1  0
 67138  1  0
 70139  1  0
 70140  1  0
 70141  1  0
 71142  1  0
 71143  1  0
 72144  1  0
 72145  1  0
 73146  1  0
 73147  1  0
 76148  1  0
 76149  1  0
 77150  1  0
 77151  1  0
M  END
>  <Ligand ID>  (1) 
LIG0001502

>  <Ligand>  (1) 
CHEMBL405335

>  <SMILES>  (1) 
NCCCC[C@@H](C(=O)N1CCC[C@H]1C(=O)N[C@H](C(=O)N)C(C)C)NC(=O)CNC(=O)[C@H](Cc1c[nH]c2c1cccc2)NC(=O)[C@@H](NC(=O)[C@@H](Cc1ccccc1)NC(=O)[C@H](Cc1cnc[nH]1)NC(=O)C)CCCN=C(N)N

>  <CID>  (1) 
10898423.0

>  <ChEMBL ID>  (1) 
nan

>  <InChiKey>  (1) 
CZJLEWKLJVYQIZ-NTACYJAKSA-N

>  <InChi>  (1) 
InChI=1S/C52H74N16O9/c1-30(2)44(45(54)71)67-50(76)42-19-12-22-68(42)51(77)38(17-9-10-20-53)63-43(70)28-60-46(72)40(24-33-26-59-36-16-8-7-15-35(33)36)66-47(73)37(18-11-21-58-52(55)56)64-48(74)39(23-32-13-5-4-6-14-32)65-49(75)41(62-31(3)69)25-34-27-57-29-61-34/h4-8,13-16,26-27,29-30,37-42,44,59H,9-12,17-25,28,53H2,1-3H3,(H2,54,71)(H,57,61)(H,60,72)(H,62,69)(H,63,70)(H,64,74)(H,65,75)(H,66,73)(H,67,76)(H4,55,56,58)/t37-,38-,39+,40-,41-,42-,44-/m0/s1

>  <IUPAC Name>  (1) 
(2S)-1-[(2S)-2-[[2-[[(2S)-2-[[(2S)-2-[[(2R)-2-[[(2S)-2-acetamido-3-(1H-imidazol-5-yl)propanoyl]amino]-3-phenylpropanoyl]amino]-5-(diaminomethylideneamino)pentanoyl]amino]-3-(1H-indol-3-yl)propanoyl]amino]acetyl]amino]-6-aminohexanoyl]-N-[(2S)-1-amino-3-methyl-1-oxobutan-2-yl]pyrrolidine-2-carboxamide

$$$$
