
     RDKit          3D

 55 58  0  0  0  0  0  0  0  0999 V2000
    4.1634    1.7332    0.7614 C   0  0  0  0  0  0  0  0  0  0  0  0
    5.3440    1.1877   -0.0206 C   0  0  0  0  0  0  0  0  0  0  0  0
    5.6347   -0.1260    0.4262 N   0  0  0  0  0  0  0  0  0  0  0  0
    4.9041   -1.3544   -0.4801 S   0  0  0  0  0  0  0  0  0  0  0  0
    5.3291   -1.1668   -1.9291 O   0  0  0  0  0  0  0  0  0  0  0  0
    5.3699   -2.7306   -0.0871 O   0  0  0  0  0  0  0  0  0  0  0  0
    3.1657   -1.2380   -0.4169 C   0  0  0  0  0  0  0  0  0  0  0  0
    2.4295   -1.7944    0.6117 C   0  0  0  0  0  0  0  0  0  0  0  0
    1.0413   -1.6895    0.6201 C   0  0  0  0  0  0  0  0  0  0  0  0
    0.4081   -1.0153   -0.4243 C   0  0  0  0  0  0  0  0  0  0  0  0
    1.1199   -0.4516   -1.4620 C   0  0  0  0  0  0  0  0  0  0  0  0
    2.4890   -0.5769   -1.4338 C   0  0  0  0  0  0  0  0  0  0  0  0
   -1.0094   -0.9196   -0.3941 N   0  0  0  0  0  0  0  0  0  0  0  0
   -1.7109    0.1535    0.2193 C   0  0  0  0  0  0  0  0  0  0  0  0
   -1.1137    1.1053    0.7835 O   0  0  0  0  0  0  0  0  0  0  0  0
   -3.1562    0.1208    0.1768 C   0  0  0  0  0  0  0  0  0  0  0  0
   -3.8669    1.0981   -0.4885 C   0  0  0  0  0  0  0  0  0  0  0  0
   -5.2257    1.0072   -0.4918 C   0  0  0  0  0  0  0  0  0  0  0  0
   -5.8407   -0.0071    0.1363 N   0  0  0  0  0  0  0  0  0  0  0  0
   -5.1885   -0.9829    0.7979 C   0  0  0  0  0  0  0  0  0  0  0  0
   -3.8047   -0.9129    0.8162 C   0  0  0  0  0  0  0  0  0  0  0  0
   -3.0957   -1.8859    1.4781 C   0  0  0  0  0  0  0  0  0  0  0  0
   -3.7846   -2.9076    2.1078 C   0  0  0  0  0  0  0  0  0  0  0  0
   -5.1607   -2.9969    2.1027 C   0  0  0  0  0  0  0  0  0  0  0  0
   -5.8709   -2.0147    1.4346 C   0  0  0  0  0  0  0  0  0  0  0  0
   -6.0524    1.9854   -1.1616 C   0  0  0  0  0  0  0  0  0  0  0  0
   -5.6891    3.1236   -1.8734 C   0  0  0  0  0  0  0  0  0  0  0  0
   -6.6241    3.8835   -2.4071 C   0  0  0  0  0  0  0  0  0  0  0  0
   -7.9586    3.5487   -2.2580 C   0  0  0  0  0  0  0  0  0  0  0  0
   -7.8472    1.9762   -1.2440 S   0  0  0  0  0  0  0  0  0  0  0  0
    6.9653   -0.3732    0.8701 C   0  0  0  0  0  0  0  0  0  0  0  0
    8.0393    0.0212   -0.0902 C   0  0  0  0  0  0  0  0  0  0  0  0
    4.4153    2.7761    1.0547 H   0  0  0  0  0  0  0  0  0  0  0  0
    4.1156    1.1456    1.7197 H   0  0  0  0  0  0  0  0  0  0  0  0
    3.2296    1.6502    0.2108 H   0  0  0  0  0  0  0  0  0  0  0  0
    5.0174    1.2297   -1.0969 H   0  0  0  0  0  0  0  0  0  0  0  0
    6.1996    1.9068    0.0313 H   0  0  0  0  0  0  0  0  0  0  0  0
    2.9694   -2.3096    1.4020 H   0  0  0  0  0  0  0  0  0  0  0  0
    0.4699   -2.1285    1.4318 H   0  0  0  0  0  0  0  0  0  0  0  0
    0.6242    0.0733   -2.2765 H   0  0  0  0  0  0  0  0  0  0  0  0
    3.0769   -0.1447   -2.2357 H   0  0  0  0  0  0  0  0  0  0  0  0
   -1.5317   -1.7061   -0.8634 H   0  0  0  0  0  0  0  0  0  0  0  0
   -3.4012    1.9191   -0.9993 H   0  0  0  0  0  0  0  0  0  0  0  0
   -2.0069   -1.8916    1.5307 H   0  0  0  0  0  0  0  0  0  0  0  0
   -3.2201   -3.6883    2.6385 H   0  0  0  0  0  0  0  0  0  0  0  0
   -5.6979   -3.7930    2.5955 H   0  0  0  0  0  0  0  0  0  0  0  0
   -6.9617   -2.0409    1.4013 H   0  0  0  0  0  0  0  0  0  0  0  0
   -4.5957    3.3419   -1.9578 H   0  0  0  0  0  0  0  0  0  0  0  0
   -6.3936    4.8125   -2.9910 H   0  0  0  0  0  0  0  0  0  0  0  0
   -8.8565    3.9505   -2.5581 H   0  0  0  0  0  0  0  0  0  0  0  0
    7.0755   -1.4372    1.1598 H   0  0  0  0  0  0  0  0  0  0  0  0
    7.1172    0.2131    1.8106 H   0  0  0  0  0  0  0  0  0  0  0  0
    8.3052   -0.9045   -0.6700 H   0  0  0  0  0  0  0  0  0  0  0  0
    7.7127    0.8319   -0.7666 H   0  0  0  0  0  0  0  0  0  0  0  0
    8.9338    0.3935    0.4661 H   0  0  0  0  0  0  0  0  0  0  0  0
  1  2  1  0
  2  3  1  0
  3  4  1  0
  4  5  2  0
  4  6  2  0
  4  7  1  0
  7  8  2  0
  8  9  1  0
  9 10  2  0
 10 11  1  0
 11 12  2  0
 10 13  1  0
 13 14  1  0
 14 15  2  0
 14 16  1  0
 16 17  2  0
 17 18  1  0
 18 19  2  0
 19 20  1  0
 20 21  2  0
 21 22  1  0
 22 23  2  0
 23 24  1  0
 24 25  2  0
 18 26  1  0
 26 27  2  0
 27 28  1  0
 28 29  2  0
 29 30  1  0
  3 31  1  0
 31 32  1  0
 12  7  1  0
 21 16  1  0
 30 26  1  0
 25 20  1  0
  1 33  1  0
  1 34  1  0
  1 35  1  0
  2 36  1  0
  2 37  1  0
  8 38  1  0
  9 39  1  0
 11 40  1  0
 12 41  1  0
 13 42  1  0
 17 43  1  0
 22 44  1  0
 23 45  1  0
 24 46  1  0
 25 47  1  0
 27 48  1  0
 28 49  1  0
 29 50  1  0
 31 51  1  0
 31 52  1  0
 32 53  1  0
 32 54  1  0
 32 55  1  0
M  END
>  <Ligand ID>  (1) 
LIG0004383

>  <Ligand>  (1) 
MLS-0226851.0001

>  <SMILES>  (1) 
CCN(S(=O)(=O)c1ccc(cc1)NC(=O)c1cc(nc2c1cccc2)c1cccs1)CC

>  <CID>  (1) 
4803470.0

>  <ChEMBL ID>  (1) 
nan

>  <InChiKey>  (1) 
TWFZHTHMHDVZLD-UHFFFAOYSA-N

>  <InChi>  (1) 
InChI=1S/C24H23N3O3S2/c1-3-27(4-2)32(29,30)18-13-11-17(12-14-18)25-24(28)20-16-22(23-10-7-15-31-23)26-21-9-6-5-8-19(20)21/h5-16H,3-4H2,1-2H3,(H,25,28)

>  <IUPAC Name>  (1) 
N-[4-(diethylsulfamoyl)phenyl]-2-thiophen-2-ylquinoline-4-carboxamide

$$$$
