
     RDKit          3D

126130  0  0  0  0  0  0  0  0999 V2000
   -7.9577   -5.4522    0.3078 C   0  0  0  0  0  0  0  0  0  0  0  0
   -7.1816   -5.5483    1.6103 C   0  0  0  0  0  0  0  0  0  0  0  0
   -6.0862   -4.4667    1.6269 C   0  0  0  0  0  0  0  0  0  0  0  0
   -5.2162   -4.7294    0.4422 C   0  0  0  0  0  0  0  0  0  0  0  0
   -4.0693   -3.8313    0.2272 C   0  0  2  0  0  0  0  0  0  0  0  0
   -3.0675   -3.7886    1.2890 N   0  0  0  0  0  0  0  0  0  0  0  0
   -1.7267   -3.8980    0.8768 C   0  0  0  0  0  0  0  0  0  0  0  0
   -1.5060   -4.0374   -0.3373 O   0  0  0  0  0  0  0  0  0  0  0  0
   -0.4856   -3.8580    1.7479 C   0  0  0  0  0  0  0  0  0  0  0  0
    0.6377   -3.5571    0.8044 C   0  0  0  0  0  0  0  0  0  0  0  0
    2.0374   -3.3683    1.3342 C   0  0  2  0  0  0  0  0  0  0  0  0
    2.7061   -2.8500    0.0759 N   0  0  0  0  0  0  0  0  0  0  0  0
    2.9760   -1.4608    0.0155 C   0  0  0  0  0  0  0  0  0  0  0  0
    2.8873   -0.8498    1.0899 O   0  0  0  0  0  0  0  0  0  0  0  0
    3.3288   -0.7762   -1.2067 C   0  0  1  0  0  0  0  0  0  0  0  0
    3.3519    0.6755   -0.8442 N   0  0  0  0  0  0  0  0  0  0  0  0
    2.1394    1.2642   -0.4334 C   0  0  0  0  0  0  0  0  0  0  0  0
    1.1651    0.5200   -0.2905 O   0  0  0  0  0  0  0  0  0  0  0  0
    1.9739    2.7443   -0.1530 C   0  0  1  0  0  0  0  0  0  0  0  0
    0.7246    2.9118    0.5728 N   0  0  0  0  0  0  0  0  0  0  0  0
   -0.5602    2.6997    0.0000 C   0  0  0  0  0  0  0  0  0  0  0  0
   -0.5734    2.3239   -1.1743 O   0  0  0  0  0  0  0  0  0  0  0  0
   -1.8097    2.9251    0.8234 C   0  0  2  0  0  0  0  0  0  0  0  0
   -2.9215    2.2758    0.1666 N   0  0  0  0  0  0  0  0  0  0  0  0
   -3.1805    0.9308    0.5546 C   0  0  0  0  0  0  0  0  0  0  0  0
   -2.3573    0.4382    1.3537 O   0  0  0  0  0  0  0  0  0  0  0  0
   -4.2934    0.0734    0.1154 C   0  0  1  0  0  0  0  0  0  0  0  0
   -4.0728   -1.2801    0.6027 N   0  0  0  0  0  0  0  0  0  0  0  0
   -4.4380   -2.4386   -0.1891 C   0  0  0  0  0  0  0  0  0  0  0  0
   -5.0746   -2.1682   -1.2062 O   0  0  0  0  0  0  0  0  0  0  0  0
   -5.6024    0.6959    0.3879 C   0  0  0  0  0  0  0  0  0  0  0  0
   -6.0084    1.0729    1.7402 C   0  0  0  0  0  0  0  0  0  0  0  0
   -6.1290    0.0464    2.7724 C   0  0  0  0  0  0  0  0  0  0  0  0
   -6.0757   -1.1979    2.5855 O   0  0  0  0  0  0  0  0  0  0  0  0
   -6.3276    0.4571    4.1429 N   0  0  0  0  0  0  0  0  0  0  0  0
   -1.9854    4.3909    1.0934 C   0  0  0  0  0  0  0  0  0  0  0  0
   -2.1083    5.1678   -0.1770 C   0  0  0  0  0  0  0  0  0  0  0  0
   -3.2997    5.4242   -0.7987 C   0  0  0  0  0  0  0  0  0  0  0  0
   -3.3275    6.1339   -1.9820 C   0  0  0  0  0  0  0  0  0  0  0  0
   -2.1413    6.5776   -2.5217 C   0  0  0  0  0  0  0  0  0  0  0  0
   -0.9071    6.3454   -1.9309 C   0  0  0  0  0  0  0  0  0  0  0  0
   -0.9319    5.6217   -0.7336 C   0  0  0  0  0  0  0  0  0  0  0  0
    0.2694    6.7942   -2.4926 C   0  0  0  0  0  0  0  0  0  0  0  0
    0.2425    7.5062   -3.6927 C   0  0  0  0  0  0  0  0  0  0  0  0
   -0.9655    7.7521   -4.3010 C   0  0  0  0  0  0  0  0  0  0  0  0
   -2.1214    7.2859   -3.7061 C   0  0  0  0  0  0  0  0  0  0  0  0
    3.1671    3.3316    0.4951 C   0  0  0  0  0  0  0  0  0  0  0  0
    3.5333    2.7413    1.8298 C   0  0  0  0  0  0  0  0  0  0  0  0
    4.8107    3.4398    2.3220 C   0  0  0  0  0  0  0  0  0  0  0  0
    5.8158    3.1562    1.2903 N   0  0  0  0  0  0  0  0  0  0  0  0
    6.7859    3.9335    1.0246 C   0  0  0  0  0  0  0  0  0  0  0  0
    7.6748    3.4642   -0.0307 N   0  0  0  0  0  0  0  0  0  0  0  0
    7.0807    5.1732    1.6211 N   0  0  0  0  0  0  0  0  0  0  0  0
    4.4998   -1.0014   -2.0027 C   0  0  0  0  0  0  0  0  0  0  0  0
    4.7859   -2.3225   -2.5604 C   0  0  0  0  0  0  0  0  0  0  0  0
    4.3197   -2.7513   -3.7999 C   0  0  0  0  0  0  0  0  0  0  0  0
    4.6910   -4.0207   -4.0339 N   0  0  0  0  0  0  0  0  0  0  0  0
    5.3923   -4.4234   -2.9651 C   0  0  0  0  0  0  0  0  0  0  0  0
    5.4666   -3.4072   -2.0511 C   0  0  0  0  0  0  0  0  0  0  0  0
    6.1712   -3.5338   -0.8412 C   0  0  0  0  0  0  0  0  0  0  0  0
    6.8323   -4.7221   -0.5308 C   0  0  0  0  0  0  0  0  0  0  0  0
    6.7558   -5.7643   -1.4713 C   0  0  0  0  0  0  0  0  0  0  0  0
    6.0548   -5.5999   -2.6386 C   0  0  0  0  0  0  0  0  0  0  0  0
    2.6490   -4.6442    1.6610 C   0  0  0  0  0  0  0  0  0  0  0  0
    2.2186   -5.2662    2.6880 O   0  0  0  0  0  0  0  0  0  0  0  0
    3.7107   -5.2055    0.8612 N   0  0  0  0  0  0  0  0  0  0  0  0
   -7.9848   -4.3746   -0.0299 H   0  0  0  0  0  0  0  0  0  0  0  0
   -8.9595   -5.8979    0.3760 H   0  0  0  0  0  0  0  0  0  0  0  0
   -7.3590   -5.9870   -0.4676 H   0  0  0  0  0  0  0  0  0  0  0  0
   -7.8679   -5.4594    2.4545 H   0  0  0  0  0  0  0  0  0  0  0  0
   -6.7259   -6.5580    1.6122 H   0  0  0  0  0  0  0  0  0  0  0  0
   -5.5780   -4.4951    2.5841 H   0  0  0  0  0  0  0  0  0  0  0  0
   -6.6450   -3.5269    1.3969 H   0  0  0  0  0  0  0  0  0  0  0  0
   -4.9201   -5.8110    0.5087 H   0  0  0  0  0  0  0  0  0  0  0  0
   -5.8470   -4.6883   -0.4785 H   0  0  0  0  0  0  0  0  0  0  0  0
   -3.5488   -4.2148   -0.7061 H   0  0  0  0  0  0  0  0  0  0  0  0
   -3.2409   -3.6880    2.2823 H   0  0  0  0  0  0  0  0  0  0  0  0
   -0.5722   -3.1641    2.5737 H   0  0  0  0  0  0  0  0  0  0  0  0
   -0.3600   -4.8923    2.1325 H   0  0  0  0  0  0  0  0  0  0  0  0
    0.3571   -2.6821    0.1243 H   0  0  0  0  0  0  0  0  0  0  0  0
    0.7414   -4.3948    0.0356 H   0  0  0  0  0  0  0  0  0  0  0  0
    2.0017   -2.6009    2.0947 H   0  0  0  0  0  0  0  0  0  0  0  0
    2.9601   -3.4332   -0.6876 H   0  0  0  0  0  0  0  0  0  0  0  0
    2.3770   -0.8861   -1.8833 H   0  0  0  0  0  0  0  0  0  0  0  0
    4.1753    1.2510   -0.8736 H   0  0  0  0  0  0  0  0  0  0  0  0
    1.8564    3.1530   -1.1989 H   0  0  0  0  0  0  0  0  0  0  0  0
    0.7116    3.1995    1.5617 H   0  0  0  0  0  0  0  0  0  0  0  0
   -1.5465    2.4243    1.7961 H   0  0  0  0  0  0  0  0  0  0  0  0
   -3.5394    2.6593   -0.5396 H   0  0  0  0  0  0  0  0  0  0  0  0
   -4.2361    0.0470   -1.0326 H   0  0  0  0  0  0  0  0  0  0  0  0
   -3.6559   -1.5256    1.5032 H   0  0  0  0  0  0  0  0  0  0  0  0
   -5.6162    1.6447   -0.2386 H   0  0  0  0  0  0  0  0  0  0  0  0
   -6.4159    0.0871   -0.0703 H   0  0  0  0  0  0  0  0  0  0  0  0
   -7.0616    1.4982    1.6329 H   0  0  0  0  0  0  0  0  0  0  0  0
   -5.4620    1.9693    2.1461 H   0  0  0  0  0  0  0  0  0  0  0  0
   -6.2900    1.4709    4.4070 H   0  0  0  0  0  0  0  0  0  0  0  0
   -6.5158   -0.2606    4.9006 H   0  0  0  0  0  0  0  0  0  0  0  0
   -2.9248    4.5175    1.6855 H   0  0  0  0  0  0  0  0  0  0  0  0
   -1.1134    4.7295    1.6594 H   0  0  0  0  0  0  0  0  0  0  0  0
   -4.2020    5.0751   -0.3557 H   0  0  0  0  0  0  0  0  0  0  0  0
   -4.2325    6.3623   -2.5033 H   0  0  0  0  0  0  0  0  0  0  0  0
    0.0517    5.4588   -0.2901 H   0  0  0  0  0  0  0  0  0  0  0  0
    1.1965    6.5765   -1.9970 H   0  0  0  0  0  0  0  0  0  0  0  0
    1.1353    7.8640   -4.1578 H   0  0  0  0  0  0  0  0  0  0  0  0
   -0.9586    8.3068   -5.2373 H   0  0  0  0  0  0  0  0  0  0  0  0
   -3.0422    7.5125   -4.2393 H   0  0  0  0  0  0  0  0  0  0  0  0
    2.9898    4.4324    0.6074 H   0  0  0  0  0  0  0  0  0  0  0  0
    4.0137    3.2562   -0.2294 H   0  0  0  0  0  0  0  0  0  0  0  0
    2.6891    2.9959    2.5325 H   0  0  0  0  0  0  0  0  0  0  0  0
    3.6839    1.6674    1.8301 H   0  0  0  0  0  0  0  0  0  0  0  0
    5.1471    3.0193    3.2663 H   0  0  0  0  0  0  0  0  0  0  0  0
    4.6199    4.5271    2.3698 H   0  0  0  0  0  0  0  0  0  0  0  0
    7.4109    3.7369   -0.9943 H   0  0  0  0  0  0  0  0  0  0  0  0
    8.4632    2.9196    0.3048 H   0  0  0  0  0  0  0  0  0  0  0  0
    6.4724    5.9874    1.3995 H   0  0  0  0  0  0  0  0  0  0  0  0
    7.8666    5.3342    2.2715 H   0  0  0  0  0  0  0  0  0  0  0  0
    5.4259   -0.6848   -1.4441 H   0  0  0  0  0  0  0  0  0  0  0  0
    4.4501   -0.3006   -2.8993 H   0  0  0  0  0  0  0  0  0  0  0  0
    3.7287   -2.1830   -4.5242 H   0  0  0  0  0  0  0  0  0  0  0  0
    4.4643   -4.5876   -4.9029 H   0  0  0  0  0  0  0  0  0  0  0  0
    6.2032   -2.6925   -0.1399 H   0  0  0  0  0  0  0  0  0  0  0  0
    7.3957   -4.8501    0.3873 H   0  0  0  0  0  0  0  0  0  0  0  0
    7.2640   -6.7176   -1.2609 H   0  0  0  0  0  0  0  0  0  0  0  0
    6.0270   -6.4294   -3.3336 H   0  0  0  0  0  0  0  0  0  0  0  0
    3.5291   -5.6750   -0.0519 H   0  0  0  0  0  0  0  0  0  0  0  0
    4.6662   -5.0979    1.2743 H   0  0  0  0  0  0  0  0  0  0  0  0
  1  2  1  0
  2  3  1  0
  3  4  1  0
  4  5  1  0
  5  6  1  0
  6  7  1  0
  7  8  2  0
  7  9  1  0
  9 10  1  0
 10 11  1  0
 11 12  1  0
 12 13  1  0
 13 14  2  0
 13 15  1  0
 15 16  1  0
 16 17  1  0
 17 18  2  0
 17 19  1  0
 19 20  1  0
 20 21  1  0
 21 22  2  0
 21 23  1  0
 23 24  1  0
 24 25  1  0
 25 26  2  0
 25 27  1  0
 27 28  1  0
 28 29  1  0
 29 30  2  0
 27 31  1  0
 31 32  1  0
 32 33  1  0
 33 34  2  0
 33 35  1  0
 23 36  1  0
 36 37  1  0
 37 38  2  0
 38 39  1  0
 39 40  2  0
 40 41  1  0
 41 42  2  0
 41 43  1  0
 43 44  2  0
 44 45  1  0
 45 46  2  0
 19 47  1  0
 47 48  1  0
 48 49  1  0
 49 50  1  0
 50 51  2  3
 51 52  1  0
 51 53  1  0
 15 54  1  0
 54 55  1  0
 55 56  2  0
 56 57  1  0
 57 58  1  0
 58 59  2  0
 59 60  1  0
 60 61  2  0
 61 62  1  0
 62 63  2  0
 11 64  1  0
 64 65  2  0
 64 66  1  0
 29  5  1  0
 42 37  1  0
 59 55  1  0
 46 40  1  0
 63 58  1  0
  1 67  1  0
  1 68  1  0
  1 69  1  0
  2 70  1  0
  2 71  1  0
  3 72  1  0
  3 73  1  0
  4 74  1  0
  4 75  1  0
  5 76  1  6
  6 77  1  0
  9 78  1  0
  9 79  1  0
 10 80  1  0
 10 81  1  0
 11 82  1  1
 12 83  1  0
 15 84  1  6
 16 85  1  0
 19 86  1  6
 20 87  1  0
 23 88  1  1
 24 89  1  0
 27 90  1  6
 28 91  1  0
 31 92  1  0
 31 93  1  0
 32 94  1  0
 32 95  1  0
 35 96  1  0
 35 97  1  0
 36 98  1  0
 36 99  1  0
 38100  1  0
 39101  1  0
 42102  1  0
 43103  1  0
 44104  1  0
 45105  1  0
 46106  1  0
 47107  1  0
 47108  1  0
 48109  1  0
 48110  1  0
 49111  1  0
 49112  1  0
 52113  1  0
 52114  1  0
 53115  1  0
 53116  1  0
 54117  1  0
 54118  1  0
 56119  1  0
 57120  1  0
 60121  1  0
 61122  1  0
 62123  1  0
 63124  1  0
 66125  1  0
 66126  1  0
M  END
>  <Ligand ID>  (1) 
LIG0001844

>  <Ligand>  (1) 
CHEMBL204310

>  <SMILES>  (1) 
CCCC[C@@H]1NC(=O)CC[C@H](NC(=O)[C@@H](NC(=O)[C@@H](NC(=O)[C@H](NC(=O)[C@@H](NC1=O)CCC(=O)N)Cc1ccc2c(c1)cccc2)CCCN=C(N)N)Cc1c[nH]c2c1cccc2)C(=O)N

>  <CID>  (1) 
11498895.0

>  <ChEMBL ID>  (1) 
nan

>  <InChiKey>  (1) 
TUOOEJAUOYDGGA-BWBQVKFQSA-N

>  <InChi>  (1) 
InChI=1S/C46H60N12O8/c1-2-3-12-33-41(62)56-35(17-19-38(47)59)43(64)57-36(23-26-15-16-27-9-4-5-10-28(27)22-26)44(65)55-34(14-8-21-51-46(49)50)42(63)58-37(24-29-25-52-31-13-7-6-11-30(29)31)45(66)54-32(40(48)61)18-20-39(60)53-33/h4-7,9-11,13,15-16,22,25,32-37,52H,2-3,8,12,14,17-21,23-24H2,1H3,(H2,47,59)(H2,48,61)(H,53,60)(H,54,66)(H,55,65)(H,56,62)(H,57,64)(H,58,63)(H4,49,50,51)/t32-,33-,34-,35-,36+,37-/m0/s1

>  <IUPAC Name>  (1) 
(2S,5S,8R,11S,14S,17S)-5-(3-amino-3-oxopropyl)-2-butyl-11-[3-(diaminomethylideneamino)propyl]-14-(1H-indol-3-ylmethyl)-8-(naphthalen-2-ylmethyl)-3,6,9,12,15,20-hexaoxo-1,4,7,10,13,16-hexazacycloicosane-17-carboxamide

$$$$
