
     RDKit          3D

 25 25  0  0  0  0  0  0  0  0999 V2000
   -2.7209   -0.5302    0.8322 C   0  0  0  0  0  0  0  0  0  0  0  0
   -1.6896    0.1848   -0.0063 C   0  0  0  0  0  0  0  0  0  0  0  0
   -1.6172    1.5109    0.0051 C   0  0  0  0  0  0  0  0  0  0  0  0
   -0.7741   -0.6493   -0.8323 C   0  0  0  0  0  0  0  0  0  0  0  0
    0.0222    0.1807   -1.7814 C   0  0  0  0  0  0  0  0  0  0  0  0
    1.1826    0.8474   -1.1790 C   0  0  0  0  0  0  0  0  0  0  0  0
    1.8177    0.1891   -0.1976 C   0  0  0  0  0  0  0  0  0  0  0  0
    1.4071   -1.1152    0.2699 C   0  0  0  0  0  0  0  0  0  0  0  0
    2.1770   -1.8983    0.8845 O   0  0  0  0  0  0  0  0  0  0  0  0
    0.0212   -1.5709    0.0250 C   0  0  0  0  0  0  0  0  0  0  0  0
    2.9921    0.8435    0.4252 C   0  0  0  0  0  0  0  0  0  0  0  0
   -2.4906   -1.5921    0.9273 H   0  0  0  0  0  0  0  0  0  0  0  0
   -2.8038   -0.0338    1.8374 H   0  0  0  0  0  0  0  0  0  0  0  0
   -3.6946   -0.3603    0.3265 H   0  0  0  0  0  0  0  0  0  0  0  0
   -0.9105    2.0911   -0.5646 H   0  0  0  0  0  0  0  0  0  0  0  0
   -2.3107    2.0648    0.6259 H   0  0  0  0  0  0  0  0  0  0  0  0
   -1.4289   -1.2993   -1.4608 H   0  0  0  0  0  0  0  0  0  0  0  0
    0.4213   -0.4367   -2.6269 H   0  0  0  0  0  0  0  0  0  0  0  0
   -0.6453    0.9446   -2.2277 H   0  0  0  0  0  0  0  0  0  0  0  0
    1.5218    1.8254   -1.5020 H   0  0  0  0  0  0  0  0  0  0  0  0
    0.0863   -2.5983   -0.4100 H   0  0  0  0  0  0  0  0  0  0  0  0
   -0.4556   -1.6795    1.0203 H   0  0  0  0  0  0  0  0  0  0  0  0
    2.7482    1.8460    0.8208 H   0  0  0  0  0  0  0  0  0  0  0  0
    3.7324    1.0052   -0.3943 H   0  0  0  0  0  0  0  0  0  0  0  0
    3.4118    0.2307    1.2279 H   0  0  0  0  0  0  0  0  0  0  0  0
  1  2  1  0
  2  3  2  0
  2  4  1  0
  4  5  1  0
  5  6  1  0
  6  7  2  0
  7  8  1  0
  8  9  2  0
  8 10  1  0
  7 11  1  0
 10  4  1  0
  1 12  1  0
  1 13  1  0
  1 14  1  0
  3 15  1  0
  3 16  1  0
  4 17  1  0
  5 18  1  0
  5 19  1  0
  6 20  1  0
 10 21  1  0
 10 22  1  0
 11 23  1  0
 11 24  1  0
 11 25  1  0
M  END
>  <Ligand ID>  (1) 
LIG0000328

>  <Ligand>  (1) 
Carvone

>  <SMILES>  (1) 
CC(=C)C1CC=C(C(=O)C1)C

>  <CID>  (1) 
7439.0

>  <ChEMBL ID>  (1) 
nan

>  <InChiKey>  (1) 
ULDHMXUKGWMISQ-UHFFFAOYSA-N

>  <InChi>  (1) 
InChI=1S/C10H14O/c1-7(2)9-5-4-8(3)10(11)6-9/h4,9H,1,5-6H2,2-3H3

>  <IUPAC Name>  (1) 
2-methyl-5-prop-1-en-2-ylcyclohex-2-en-1-one

$$$$
