
     RDKit          3D

 18 17  0  0  0  0  0  0  0  0999 V2000
    2.5411   -0.3836   -0.0932 C   0  0  0  0  0  0  0  0  0  0  0  0
    1.1126   -0.4859    0.3927 C   0  0  0  0  0  0  0  0  0  0  0  0
    0.2169    0.5238   -0.3037 C   0  0  0  0  0  0  0  0  0  0  0  0
   -1.2089    0.4483    0.1563 C   0  0  0  0  0  0  0  0  0  0  0  0
   -2.1151    1.7286   -0.7897 S   0  0  0  0  0  0  0  0  0  0  0  0
   -1.8731   -0.8680   -0.1611 C   0  0  0  0  0  0  0  0  0  0  0  0
    2.5528    0.2678   -0.9980 H   0  0  0  0  0  0  0  0  0  0  0  0
    3.1767    0.1348    0.6776 H   0  0  0  0  0  0  0  0  0  0  0  0
    2.9790   -1.3550   -0.3832 H   0  0  0  0  0  0  0  0  0  0  0  0
    1.0155   -0.4190    1.4926 H   0  0  0  0  0  0  0  0  0  0  0  0
    0.7797   -1.5165    0.0902 H   0  0  0  0  0  0  0  0  0  0  0  0
    0.3411    0.4361   -1.3823 H   0  0  0  0  0  0  0  0  0  0  0  0
    0.5700    1.5488   -0.0288 H   0  0  0  0  0  0  0  0  0  0  0  0
   -1.2380    0.6910    1.2428 H   0  0  0  0  0  0  0  0  0  0  0  0
   -2.5803    2.7374    0.0560 H   0  0  0  0  0  0  0  0  0  0  0  0
   -2.1742   -0.8628   -1.2236 H   0  0  0  0  0  0  0  0  0  0  0  0
   -2.8320   -0.8762    0.4353 H   0  0  0  0  0  0  0  0  0  0  0  0
   -1.2639   -1.7496    0.1118 H   0  0  0  0  0  0  0  0  0  0  0  0
  1  2  1  0
  2  3  1  0
  3  4  1  0
  4  5  1  0
  4  6  1  0
  1  7  1  0
  1  8  1  0
  1  9  1  0
  2 10  1  0
  2 11  1  0
  3 12  1  0
  3 13  1  0
  4 14  1  0
  5 15  1  0
  6 16  1  0
  6 17  1  0
  6 18  1  0
M  END
>  <Ligand ID>  (1) 
LIG0005016

>  <Ligand>  (1) 
2-Pentanethiol

>  <SMILES>  (1) 
CCCC(S)C

>  <CID>  (1) 
62424.0

>  <ChEMBL ID>  (1) 
nan

>  <InChiKey>  (1) 
QUSTYFNPKBDELJ-UHFFFAOYSA-N

>  <InChi>  (1) 
InChI=1S/C5H12S/c1-3-4-5(2)6/h5-6H,3-4H2,1-2H3

>  <IUPAC Name>  (1) 
pentane-2-thiol

$$$$
