
     RDKit          3D

 59 62  0  0  0  0  0  0  0  0999 V2000
   -8.6151   -1.0193   -1.9711 C   0  0  0  0  0  0  0  0  0  0  0  0
   -8.1795   -0.3271   -0.8022 O   0  0  0  0  0  0  0  0  0  0  0  0
   -6.8661   -0.5836   -0.3640 C   0  0  0  0  0  0  0  0  0  0  0  0
   -6.0469   -1.4641   -1.0372 C   0  0  0  0  0  0  0  0  0  0  0  0
   -4.7838   -1.6713   -0.5623 C   0  0  0  0  0  0  0  0  0  0  0  0
   -4.3066   -1.0271    0.5682 C   0  0  0  0  0  0  0  0  0  0  0  0
   -5.1226   -0.1441    1.2469 C   0  0  0  0  0  0  0  0  0  0  0  0
   -6.4217    0.0802    0.7723 C   0  0  0  0  0  0  0  0  0  0  0  0
   -7.2475    1.0209    1.5121 C   0  0  0  0  0  0  0  0  0  0  0  0
   -6.8677    1.6353    2.5384 O   0  0  0  0  0  0  0  0  0  0  0  0
   -8.5461    1.2275    1.0156 O   0  0  0  0  0  0  0  0  0  0  0  0
   -3.0103   -1.3268    0.9431 O   0  0  0  0  0  0  0  0  0  0  0  0
   -1.9885   -0.4955    0.5282 C   0  0  0  0  0  0  0  0  0  0  0  0
   -2.2054    0.7062   -0.1379 C   0  0  0  0  0  0  0  0  0  0  0  0
   -1.1135    1.4988   -0.5279 C   0  0  0  0  0  0  0  0  0  0  0  0
    0.1419    1.0328   -0.2234 C   0  0  0  0  0  0  0  0  0  0  0  0
    0.3770   -0.1557    0.4340 C   0  0  0  0  0  0  0  0  0  0  0  0
   -0.6908   -0.9328    0.8176 C   0  0  0  0  0  0  0  0  0  0  0  0
    1.7650   -0.5793    0.6905 C   0  0  0  0  0  0  0  0  0  0  0  0
    2.5059    0.6269    1.3329 C   0  0  2  0  0  0  0  0  0  0  0  0
    2.0835    1.9225    0.8250 C   0  0  0  0  0  0  0  0  0  0  0  0
    1.3935    1.8185   -0.5580 C   0  0  0  0  0  0  0  0  0  0  0  0
    3.7774    0.1994    1.5878 N   0  0  0  0  0  0  0  0  0  0  0  0
    4.9613    0.8340    1.8229 C   0  0  0  0  0  0  0  0  0  0  0  0
    5.6501    1.3946    0.6221 C   0  0  1  0  0  0  0  0  0  0  0  0
    6.0415    0.2682   -0.3176 C   0  0  0  0  0  0  0  0  0  0  0  0
    7.2873   -0.3122   -0.2630 C   0  0  0  0  0  0  0  0  0  0  0  0
    7.6881   -1.3424   -1.0859 C   0  0  0  0  0  0  0  0  0  0  0  0
    6.8106   -1.8322   -2.0208 C   0  0  0  0  0  0  0  0  0  0  0  0
    5.5647   -1.2543   -2.0790 C   0  0  0  0  0  0  0  0  0  0  0  0
    5.1624   -0.2230   -1.2551 C   0  0  0  0  0  0  0  0  0  0  0  0
    4.4470   -1.8952   -3.2909 Cl  0  0  0  0  0  0  0  0  0  0  0  0
    5.0234    2.3436   -0.1200 O   0  0  0  0  0  0  0  0  0  0  0  0
   -7.9417   -0.7640   -2.7917 H   0  0  0  0  0  0  0  0  0  0  0  0
   -8.5282   -2.1004   -1.7292 H   0  0  0  0  0  0  0  0  0  0  0  0
   -9.6686   -0.7496   -2.1657 H   0  0  0  0  0  0  0  0  0  0  0  0
   -6.3965   -1.9807   -1.9203 H   0  0  0  0  0  0  0  0  0  0  0  0
   -4.1519   -2.3659   -1.1014 H   0  0  0  0  0  0  0  0  0  0  0  0
   -4.7396    0.3509    2.1271 H   0  0  0  0  0  0  0  0  0  0  0  0
   -9.0934    2.0497    1.2978 H   0  0  0  0  0  0  0  0  0  0  0  0
   -3.2296    1.0283   -0.3560 H   0  0  0  0  0  0  0  0  0  0  0  0
   -1.2471    2.4368   -1.0470 H   0  0  0  0  0  0  0  0  0  0  0  0
   -0.5493   -1.8921    1.3459 H   0  0  0  0  0  0  0  0  0  0  0  0
    1.8585   -1.4042    1.4129 H   0  0  0  0  0  0  0  0  0  0  0  0
    2.2948   -0.8380   -0.2544 H   0  0  0  0  0  0  0  0  0  0  0  0
    1.9832    0.5733    2.4072 H   0  0  0  0  0  0  0  0  0  0  0  0
    1.1921    2.3290    1.4554 H   0  0  0  0  0  0  0  0  0  0  0  0
    2.7317    2.7731    0.7937 H   0  0  0  0  0  0  0  0  0  0  0  0
    1.1523    2.8094   -0.9435 H   0  0  0  0  0  0  0  0  0  0  0  0
    2.0742    1.2344   -1.1897 H   0  0  0  0  0  0  0  0  0  0  0  0
    3.8450   -0.8722    1.5356 H   0  0  0  0  0  0  0  0  0  0  0  0
    5.6987    0.0570    2.2317 H   0  0  0  0  0  0  0  0  0  0  0  0
    4.9655    1.5771    2.6792 H   0  0  0  0  0  0  0  0  0  0  0  0
    6.6891    1.7747    0.9540 H   0  0  0  0  0  0  0  0  0  0  0  0
    7.9873    0.0593    0.4629 H   0  0  0  0  0  0  0  0  0  0  0  0
    8.6922   -1.7325   -0.9624 H   0  0  0  0  0  0  0  0  0  0  0  0
    7.0855   -2.6273   -2.6719 H   0  0  0  0  0  0  0  0  0  0  0  0
    4.1584    0.1379   -1.4007 H   0  0  0  0  0  0  0  0  0  0  0  0
    4.4689    1.9869   -0.8106 H   0  0  0  0  0  0  0  0  0  0  0  0
  1  2  1  0
  2  3  1  0
  3  4  2  0
  4  5  1  0
  5  6  2  0
  6  7  1  0
  7  8  2  0
  8  9  1  0
  9 10  2  0
  9 11  1  0
  6 12  1  0
 12 13  1  0
 13 14  2  0
 14 15  1  0
 15 16  2  0
 16 17  1  0
 17 18  2  0
 17 19  1  0
 19 20  1  0
 20 21  1  0
 21 22  1  0
 20 23  1  0
 23 24  1  0
 24 25  1  0
 25 26  1  0
 26 27  2  0
 27 28  1  0
 28 29  2  0
 29 30  1  0
 30 31  2  0
 30 32  1  0
 25 33  1  0
  8  3  1  0
 18 13  1  0
 31 26  1  0
 22 16  1  0
  1 34  1  0
  1 35  1  0
  1 36  1  0
  4 37  1  0
  5 38  1  0
  7 39  1  0
 11 40  1  0
 14 41  1  0
 15 42  1  0
 18 43  1  0
 19 44  1  0
 19 45  1  0
 20 46  1  1
 21 47  1  0
 21 48  1  0
 22 49  1  0
 22 50  1  0
 23 51  1  0
 24 52  1  0
 24 53  1  0
 25 54  1  1
 27 55  1  0
 28 56  1  0
 29 57  1  0
 31 58  1  0
 33 59  1  0
M  END
>  <Ligand ID>  (1) 
LIG0004738

>  <Ligand>  (1) 
CHEMBL498145

>  <SMILES>  (1) 
COc1ccc(cc1C(=O)O)Oc1ccc2c(c1)C[C@H](CC2)NC[C@@H](c1cccc(c1)Cl)O

>  <CID>  (1) 
9912443.0

>  <ChEMBL ID>  (1) 
nan

>  <InChiKey>  (1) 
OFUHXMUPWBDUCT-RDPSFJRHSA-N

>  <InChi>  (1) 
InChI=1S/C26H26ClNO5/c1-32-25-10-9-22(14-23(25)26(30)31)33-21-8-6-16-5-7-20(12-18(16)13-21)28-15-24(29)17-3-2-4-19(27)11-17/h2-4,6,8-11,13-14,20,24,28-29H,5,7,12,15H2,1H3,(H,30,31)/t20-,24-/m0/s1

>  <IUPAC Name>  (1) 
5-[[(7S)-7-[[(2R)-2-(3-chlorophenyl)-2-hydroxyethyl]amino]-5,6,7,8-tetrahydronaphthalen-2-yl]oxy]-2-methoxybenzoic acid

$$$$
