
     RDKit          3D

 56 59  0  0  0  0  0  0  0  0999 V2000
    5.4790    3.8972   -1.0967 C   0  0  0  0  0  0  0  0  0  0  0  0
    4.5968    2.9308   -0.4340 N   0  0  0  0  0  0  0  0  0  0  0  0
    5.1889    1.6906   -0.0780 C   0  0  0  0  0  0  0  0  0  0  0  0
    6.4198    1.4812   -0.3422 O   0  0  0  0  0  0  0  0  0  0  0  0
    4.4524    0.5939    0.5981 C   0  0  1  0  0  0  0  0  0  0  0  0
    3.1324    0.9818    0.8122 O   0  0  0  0  0  0  0  0  0  0  0  0
    2.3848   -0.1949    0.8469 C   0  0  2  0  0  0  0  0  0  0  0  0
    2.8853   -0.9002   -0.3753 C   0  0  1  0  0  0  0  0  0  0  0  0
    4.3903   -0.6203   -0.3047 C   0  0  2  0  0  0  0  0  0  0  0  0
    4.9722   -1.7230    0.3472 O   0  0  0  0  0  0  0  0  0  0  0  0
    2.6453   -2.2586   -0.2197 O   0  0  0  0  0  0  0  0  0  0  0  0
    0.9975    0.1505    0.7842 N   0  0  0  0  0  0  0  0  0  0  0  0
    0.4175    1.3623    0.8640 C   0  0  0  0  0  0  0  0  0  0  0  0
   -0.9156    1.2202    0.7565 N   0  0  0  0  0  0  0  0  0  0  0  0
   -1.2271   -0.0546    0.6079 C   0  0  0  0  0  0  0  0  0  0  0  0
   -0.0029   -0.7356    0.6262 C   0  0  0  0  0  0  0  0  0  0  0  0
    0.0108   -2.0654    0.5002 N   0  0  0  0  0  0  0  0  0  0  0  0
   -1.1526   -2.7261    0.3583 C   0  0  0  0  0  0  0  0  0  0  0  0
   -2.3277   -2.0757    0.3405 N   0  0  0  0  0  0  0  0  0  0  0  0
   -2.4262   -0.7182    0.4630 C   0  0  0  0  0  0  0  0  0  0  0  0
   -3.6889   -0.0830    0.4271 N   0  0  0  0  0  0  0  0  0  0  0  0
   -3.9256    1.3206    0.4916 C   0  0  0  0  0  0  0  0  0  0  0  0
   -5.4506    1.5273    0.6126 C   0  0  0  0  0  0  0  0  0  0  0  0
   -5.5363    3.0202    0.3995 C   0  0  0  0  0  0  0  0  0  0  0  0
   -4.4232    3.3509   -0.5914 C   0  0  0  0  0  0  0  0  0  0  0  0
   -3.6938    2.0210   -0.8273 C   0  0  0  0  0  0  0  0  0  0  0  0
   -1.1664   -4.1420    0.2224 N   0  0  0  0  0  0  0  0  0  0  0  0
   -2.3930   -4.9009    0.0668 C   0  0  0  0  0  0  0  0  0  0  0  0
    0.1071   -4.8726    0.2393 C   0  0  0  0  0  0  0  0  0  0  0  0
    6.0789    4.3996   -0.3230 H   0  0  0  0  0  0  0  0  0  0  0  0
    6.1379    3.3095   -1.8002 H   0  0  0  0  0  0  0  0  0  0  0  0
    4.8758    4.5553   -1.7287 H   0  0  0  0  0  0  0  0  0  0  0  0
    3.6107    3.1048   -0.2250 H   0  0  0  0  0  0  0  0  0  0  0  0
    4.8800    0.3423    1.5979 H   0  0  0  0  0  0  0  0  0  0  0  0
    2.6582   -0.7955    1.7315 H   0  0  0  0  0  0  0  0  0  0  0  0
    2.4452   -0.5054   -1.3115 H   0  0  0  0  0  0  0  0  0  0  0  0
    4.8260   -0.4316   -1.3029 H   0  0  0  0  0  0  0  0  0  0  0  0
    4.2813   -2.1835    0.9170 H   0  0  0  0  0  0  0  0  0  0  0  0
    3.1996   -2.8077   -0.8334 H   0  0  0  0  0  0  0  0  0  0  0  0
    0.9425    2.3037    0.9943 H   0  0  0  0  0  0  0  0  0  0  0  0
   -4.5238   -0.7410    0.3428 H   0  0  0  0  0  0  0  0  0  0  0  0
   -3.3912    1.8082    1.3017 H   0  0  0  0  0  0  0  0  0  0  0  0
   -5.9246    1.0235   -0.2508 H   0  0  0  0  0  0  0  0  0  0  0  0
   -5.8219    1.1858    1.5871 H   0  0  0  0  0  0  0  0  0  0  0  0
   -5.3742    3.5034    1.3883 H   0  0  0  0  0  0  0  0  0  0  0  0
   -6.4874    3.3252   -0.0784 H   0  0  0  0  0  0  0  0  0  0  0  0
   -3.7396    4.0653   -0.0714 H   0  0  0  0  0  0  0  0  0  0  0  0
   -4.8039    3.7977   -1.5138 H   0  0  0  0  0  0  0  0  0  0  0  0
   -2.6711    2.2794   -1.0613 H   0  0  0  0  0  0  0  0  0  0  0  0
   -4.1862    1.4852   -1.6490 H   0  0  0  0  0  0  0  0  0  0  0  0
   -2.7072   -5.3330    1.0461 H   0  0  0  0  0  0  0  0  0  0  0  0
   -2.1805   -5.7825   -0.6018 H   0  0  0  0  0  0  0  0  0  0  0  0
   -3.2019   -4.2951   -0.3963 H   0  0  0  0  0  0  0  0  0  0  0  0
    0.7680   -4.5147   -0.5926 H   0  0  0  0  0  0  0  0  0  0  0  0
   -0.0596   -5.9459    0.1585 H   0  0  0  0  0  0  0  0  0  0  0  0
    0.6187   -4.6304    1.2041 H   0  0  0  0  0  0  0  0  0  0  0  0
  1  2  1  0
  2  3  1  0
  3  4  2  0
  3  5  1  0
  5  6  1  0
  6  7  1  0
  7  8  1  0
  8  9  1  0
  9 10  1  0
  8 11  1  0
  7 12  1  0
 12 13  1  0
 13 14  2  0
 14 15  1  0
 15 16  2  0
 16 17  1  0
 17 18  2  0
 18 19  1  0
 19 20  2  0
 20 21  1  0
 21 22  1  0
 22 23  1  0
 23 24  1  0
 24 25  1  0
 25 26  1  0
 18 27  1  0
 27 28  1  0
 27 29  1  0
  9  5  1  0
 16 12  1  0
 26 22  1  0
 20 15  1  0
  1 30  1  0
  1 31  1  0
  1 32  1  0
  2 33  1  0
  5 34  1  1
  7 35  1  1
  8 36  1  6
  9 37  1  6
 10 38  1  0
 11 39  1  0
 13 40  1  0
 21 41  1  0
 22 42  1  0
 23 43  1  0
 23 44  1  0
 24 45  1  0
 24 46  1  0
 25 47  1  0
 25 48  1  0
 26 49  1  0
 26 50  1  0
 28 51  1  0
 28 52  1  0
 28 53  1  0
 29 54  1  0
 29 55  1  0
 29 56  1  0
M  END
>  <Ligand ID>  (1) 
LIG0001977

>  <Ligand>  (1) 
CHEMBL3133082

>  <SMILES>  (1) 
CNC(=O)[C@H]1O[C@H]([C@@H]([C@@H]1O)O)n1cnc2c1nc(nc2NC1CCCC1)N(C)C

>  <CID>  (1) 
76325693.0

>  <ChEMBL ID>  (1) 
nan

>  <InChiKey>  (1) 
PSGHMUQNICYTNJ-PFHKOEEOSA-N

>  <InChi>  (1) 
InChI=1S/C18H27N7O4/c1-19-16(28)13-11(26)12(27)17(29-13)25-8-20-10-14(21-9-6-4-5-7-9)22-18(24(2)3)23-15(10)25/h8-9,11-13,17,26-27H,4-7H2,1-3H3,(H,19,28)(H,21,22,23)/t11-,12+,13-,17+/m0/s1

>  <IUPAC Name>  (1) 
(2S,3S,4R,5R)-5-[6-(cyclopentylamino)-2-(dimethylamino)purin-9-yl]-3,4-dihydroxy-N-methyloxolane-2-carboxamide

$$$$
