
     RDKit          3D

 48 50  0  0  0  0  0  0  0  0999 V2000
    6.6873   -0.4090   -1.3105 C   0  0  0  0  0  0  0  0  0  0  0  0
    6.4375    0.4785   -0.2683 O   0  0  0  0  0  0  0  0  0  0  0  0
    5.2416    1.0521    0.0794 C   0  0  0  0  0  0  0  0  0  0  0  0
    5.2580    1.9180    1.1780 C   0  0  0  0  0  0  0  0  0  0  0  0
    4.1026    2.5405    1.6002 C   0  0  0  0  0  0  0  0  0  0  0  0
    2.9134    2.2939    0.9144 C   0  0  0  0  0  0  0  0  0  0  0  0
    2.8584    1.4450   -0.1748 C   0  0  0  0  0  0  0  0  0  0  0  0
    4.0470    0.8318   -0.5749 C   0  0  0  0  0  0  0  0  0  0  0  0
    1.6061    1.1916   -0.8862 C   0  0  0  0  0  0  0  0  0  0  0  0
    0.8382    0.0252   -0.4275 C   0  0  0  0  0  0  0  0  0  0  0  0
    0.8852   -1.1172   -1.2189 C   0  0  0  0  0  0  0  0  0  0  0  0
    0.1956   -2.2733   -0.8794 C   0  0  0  0  0  0  0  0  0  0  0  0
    0.2882   -3.4525   -1.7642 C   0  0  0  0  0  0  0  0  0  0  0  0
   -0.5203   -2.2343    0.2528 N   0  0  0  0  0  0  0  0  0  0  0  0
   -0.5844   -1.1580    1.0291 N   0  0  0  0  0  0  0  0  0  0  0  0
    0.0803   -0.0135    0.7210 C   0  0  0  0  0  0  0  0  0  0  0  0
    0.0176    0.9885    1.4486 O   0  0  0  0  0  0  0  0  0  0  0  0
   -1.3772   -1.1945    2.2390 C   0  0  0  0  0  0  0  0  0  0  0  0
   -2.7975   -0.7479    1.9984 C   0  0  0  0  0  0  0  0  0  0  0  0
   -3.5438   -0.7592    3.0009 O   0  0  0  0  0  0  0  0  0  0  0  0
   -3.2161   -0.3517    0.7152 N   0  0  0  0  0  0  0  0  0  0  0  0
   -4.5070    0.0859    0.3545 C   0  0  0  0  0  0  0  0  0  0  0  0
   -5.5811    0.1961    1.1934 C   0  0  0  0  0  0  0  0  0  0  0  0
   -6.8332    0.6398    0.7696 C   0  0  0  0  0  0  0  0  0  0  0  0
   -7.0339    0.9918   -0.5481 C   0  0  0  0  0  0  0  0  0  0  0  0
   -5.9476    0.8788   -1.3905 C   0  0  0  0  0  0  0  0  0  0  0  0
   -4.7108    0.4397   -0.9676 C   0  0  0  0  0  0  0  0  0  0  0  0
   -8.9104    1.6651   -1.2196 I   0  0  0  0  0  0  0  0  0  0  0  0
    6.3852   -1.4632   -1.0638 H   0  0  0  0  0  0  0  0  0  0  0  0
    7.8037   -0.4073   -1.4767 H   0  0  0  0  0  0  0  0  0  0  0  0
    6.2459   -0.1696   -2.2788 H   0  0  0  0  0  0  0  0  0  0  0  0
    6.1988    2.1097    1.7164 H   0  0  0  0  0  0  0  0  0  0  0  0
    4.1117    3.2129    2.4526 H   0  0  0  0  0  0  0  0  0  0  0  0
    2.0465    2.8152    1.2961 H   0  0  0  0  0  0  0  0  0  0  0  0
    4.0716    0.1503   -1.4285 H   0  0  0  0  0  0  0  0  0  0  0  0
    1.8043    1.1569   -1.9881 H   0  0  0  0  0  0  0  0  0  0  0  0
    0.9403    2.0956   -0.7749 H   0  0  0  0  0  0  0  0  0  0  0  0
    1.4715   -1.1359   -2.1374 H   0  0  0  0  0  0  0  0  0  0  0  0
   -0.4652   -3.4449   -2.5822 H   0  0  0  0  0  0  0  0  0  0  0  0
    0.1560   -4.3529   -1.1294 H   0  0  0  0  0  0  0  0  0  0  0  0
    1.2888   -3.5128   -2.2229 H   0  0  0  0  0  0  0  0  0  0  0  0
   -0.9360   -0.5701    3.0439 H   0  0  0  0  0  0  0  0  0  0  0  0
   -1.4464   -2.2176    2.6652 H   0  0  0  0  0  0  0  0  0  0  0  0
   -2.4638   -0.3962   -0.0400 H   0  0  0  0  0  0  0  0  0  0  0  0
   -5.4999   -0.0579    2.2224 H   0  0  0  0  0  0  0  0  0  0  0  0
   -7.6499    0.7122    1.4592 H   0  0  0  0  0  0  0  0  0  0  0  0
   -6.0536    1.1426   -2.4319 H   0  0  0  0  0  0  0  0  0  0  0  0
   -3.9033    0.3819   -1.7105 H   0  0  0  0  0  0  0  0  0  0  0  0
  1  2  1  0
  2  3  1  0
  3  4  2  0
  4  5  1  0
  5  6  2  0
  6  7  1  0
  7  8  2  0
  7  9  1  0
  9 10  1  0
 10 11  2  0
 11 12  1  0
 12 13  1  0
 12 14  2  0
 14 15  1  0
 15 16  1  0
 16 17  2  0
 15 18  1  0
 18 19  1  0
 19 20  2  0
 19 21  1  0
 21 22  1  0
 22 23  2  0
 23 24  1  0
 24 25  2  0
 25 26  1  0
 26 27  2  0
 25 28  1  0
  8  3  1  0
 16 10  1  0
 27 22  1  0
  1 29  1  0
  1 30  1  0
  1 31  1  0
  4 32  1  0
  5 33  1  0
  6 34  1  0
  8 35  1  0
  9 36  1  0
  9 37  1  0
 11 38  1  0
 13 39  1  0
 13 40  1  0
 13 41  1  0
 18 42  1  0
 18 43  1  0
 21 44  1  0
 23 45  1  0
 24 46  1  0
 26 47  1  0
 27 48  1  0
M  END
>  <Ligand ID>  (1) 
LIG0003943

>  <Ligand>  (1) 
CHEMBL560780

>  <SMILES>  (1) 
COc1cccc(c1)Cc1cc(C)nn(c1=O)CC(=O)Nc1ccc(cc1)I

>  <CID>  (1) 
44233644.0

>  <ChEMBL ID>  (1) 
nan

>  <InChiKey>  (1) 
CRXUEUHJLRJWGE-UHFFFAOYSA-N

>  <InChi>  (1) 
InChI=1S/C21H20IN3O3/c1-14-10-16(11-15-4-3-5-19(12-15)28-2)21(27)25(24-14)13-20(26)23-18-8-6-17(22)7-9-18/h3-10,12H,11,13H2,1-2H3,(H,23,26)

>  <IUPAC Name>  (1) 
N-(4-iodophenyl)-2-[5-[(3-methoxyphenyl)methyl]-3-methyl-6-oxopyridazin-1-yl]acetamide

$$$$
