
     RDKit          3D

 30 29  0  0  0  0  0  0  0  0999 V2000
   -3.0134   -1.5133   -0.3501 C   0  0  0  0  0  0  0  0  0  0  0  0
   -3.7605   -0.4989    0.4854 C   0  0  0  0  0  0  0  0  0  0  0  0
   -3.3858    0.9096    0.2690 C   0  0  0  0  0  0  0  0  0  0  0  0
   -2.0150    1.3573    0.5223 C   0  0  0  0  0  0  0  0  0  0  0  0
   -0.8918    0.7603   -0.2217 C   0  0  0  0  0  0  0  0  0  0  0  0
    0.3891    1.4609    0.2776 C   0  0  0  0  0  0  0  0  0  0  0  0
    1.4941    0.8334   -0.4934 C   0  0  0  0  0  0  0  0  0  0  0  0
    2.4743    0.1945    0.1261 C   0  0  0  0  0  0  0  0  0  0  0  0
    3.5847   -0.4411   -0.5694 C   0  0  0  0  0  0  0  0  0  0  0  0
    4.5257   -1.0602    0.1177 C   0  0  0  0  0  0  0  0  0  0  0  0
    5.6640   -1.7149   -0.5475 C   0  0  0  0  0  0  0  0  0  0  0  0
    6.5413   -2.2962    0.1588 O   0  0  0  0  0  0  0  0  0  0  0  0
   -2.5443   -1.0792   -1.2490 H   0  0  0  0  0  0  0  0  0  0  0  0
   -2.2918   -2.0224    0.3221 H   0  0  0  0  0  0  0  0  0  0  0  0
   -3.7115   -2.3419   -0.6748 H   0  0  0  0  0  0  0  0  0  0  0  0
   -3.8010   -0.8173    1.5479 H   0  0  0  0  0  0  0  0  0  0  0  0
   -4.8420   -0.5859    0.1602 H   0  0  0  0  0  0  0  0  0  0  0  0
   -3.7341    1.1814   -0.7720 H   0  0  0  0  0  0  0  0  0  0  0  0
   -4.0711    1.5344    0.9159 H   0  0  0  0  0  0  0  0  0  0  0  0
   -1.9829    2.4691    0.3180 H   0  0  0  0  0  0  0  0  0  0  0  0
   -1.7533    1.3073    1.6202 H   0  0  0  0  0  0  0  0  0  0  0  0
   -0.6733   -0.3039    0.0046 H   0  0  0  0  0  0  0  0  0  0  0  0
   -0.8986    0.9708   -1.3115 H   0  0  0  0  0  0  0  0  0  0  0  0
    0.3664    2.5382    0.0343 H   0  0  0  0  0  0  0  0  0  0  0  0
    0.5609    1.2947    1.3425 H   0  0  0  0  0  0  0  0  0  0  0  0
    1.5500    0.8673   -1.5745 H   0  0  0  0  0  0  0  0  0  0  0  0
    2.4175    0.1613    1.2062 H   0  0  0  0  0  0  0  0  0  0  0  0
    3.6362   -0.4046   -1.6491 H   0  0  0  0  0  0  0  0  0  0  0  0
    4.4493   -1.0814    1.1965 H   0  0  0  0  0  0  0  0  0  0  0  0
    5.7167   -1.6791   -1.6279 H   0  0  0  0  0  0  0  0  0  0  0  0
  1  2  1  0
  2  3  1  0
  3  4  1  0
  4  5  1  0
  5  6  1  0
  6  7  1  0
  7  8  2  0
  8  9  1  0
  9 10  2  0
 10 11  1  0
 11 12  2  0
  1 13  1  0
  1 14  1  0
  1 15  1  0
  2 16  1  0
  2 17  1  0
  3 18  1  0
  3 19  1  0
  4 20  1  0
  4 21  1  0
  5 22  1  0
  5 23  1  0
  6 24  1  0
  6 25  1  0
  7 26  1  0
  8 27  1  0
  9 28  1  0
 10 29  1  0
 11 30  1  0
M  END
>  <Ligand ID>  (1) 
LIG0000407

>  <Ligand>  (1) 
2,4-Undecadienal

>  <SMILES>  (1) 
CCCCCC/C=C/C=C/C=O

>  <CID>  (1) 
5367531.0

>  <ChEMBL ID>  (1) 
nan

>  <InChiKey>  (1) 
UVIUIIFPIWRILL-XBLVEGMJSA-N

>  <InChi>  (1) 
InChI=1S/C11H18O/c1-2-3-4-5-6-7-8-9-10-11-12/h7-11H,2-6H2,1H3/b8-7+,10-9+

>  <IUPAC Name>  (1) 
(2E,4E)-undeca-2,4-dienal

$$$$
