
     RDKit          3D

 55 58  0  0  0  0  0  0  0  0999 V2000
    2.0658   -2.6623    2.8316 O   0  0  0  0  0  0  0  0  0  0  0  0
    2.8984   -1.6434    2.3854 C   0  0  2  0  0  0  0  0  0  0  0  0
    2.3776   -0.3444    2.9602 C   0  0  0  0  0  0  0  0  0  0  0  0
    1.2214   -0.0296    2.1082 C   0  0  0  0  0  0  0  0  0  0  0  0
    1.4100   -0.6646    0.9010 C   0  0  0  0  0  0  0  0  0  0  0  0
    2.6923   -1.4289    0.9036 C   0  0  1  0  0  0  0  0  0  0  0  0
    3.7110   -0.5771    0.3560 N   0  0  0  0  0  0  0  0  0  0  0  0
    4.4212   -1.0156   -0.7976 C   0  0  0  0  0  0  0  0  0  0  0  0
    4.0820   -2.1523   -1.2530 O   0  0  0  0  0  0  0  0  0  0  0  0
    5.4695   -0.2107   -1.4147 C   0  0  0  0  0  0  0  0  0  0  0  0
    5.8714    1.0143   -0.9267 C   0  0  0  0  0  0  0  0  0  0  0  0
    6.8815    1.6826   -1.6113 C   0  0  0  0  0  0  0  0  0  0  0  0
    7.4735    1.1648   -2.7334 C   0  0  0  0  0  0  0  0  0  0  0  0
    7.0799   -0.0539   -3.2264 C   0  0  0  0  0  0  0  0  0  0  0  0
    6.0760   -0.7172   -2.5456 C   0  0  0  0  0  0  0  0  0  0  0  0
    8.8611    2.1537   -3.6186 Br  0  0  0  0  0  0  0  0  0  0  0  0
    0.4817   -0.5452   -0.0958 C   0  0  0  0  0  0  0  0  0  0  0  0
   -0.6839    0.2102    0.0499 C   0  0  0  0  0  0  0  0  0  0  0  0
   -0.8468    0.8321    1.2620 C   0  0  0  0  0  0  0  0  0  0  0  0
    0.0726    0.7329    2.2937 C   0  0  0  0  0  0  0  0  0  0  0  0
   -1.5917    0.2932   -1.0297 N   0  0  0  0  0  0  0  0  0  0  0  0
   -2.8381    0.9685   -0.9897 C   0  0  0  0  0  0  0  0  0  0  0  0
   -3.5231    0.8201    0.1211 N   0  0  0  0  0  0  0  0  0  0  0  0
   -4.7934    1.4602    0.2622 C   0  0  0  0  0  0  0  0  0  0  0  0
   -5.8522    0.4308    0.3635 C   0  0  0  0  0  0  0  0  0  0  0  0
   -6.1750   -0.0325    1.6310 C   0  0  0  0  0  0  0  0  0  0  0  0
   -7.1383   -0.9843    1.8613 C   0  0  0  0  0  0  0  0  0  0  0  0
   -7.8141   -1.4992    0.7638 C   0  0  0  0  0  0  0  0  0  0  0  0
   -7.4936   -1.0385   -0.5005 C   0  0  0  0  0  0  0  0  0  0  0  0
   -6.5302   -0.0900   -0.7029 C   0  0  0  0  0  0  0  0  0  0  0  0
   -8.1457   -1.5311   -1.5912 F   0  0  0  0  0  0  0  0  0  0  0  0
   -3.3672    1.7895   -2.1049 C   0  0  0  0  0  0  0  0  0  0  0  0
    2.4900   -3.1139    3.6064 H   0  0  0  0  0  0  0  0  0  0  0  0
    3.9603   -1.7950    2.6543 H   0  0  0  0  0  0  0  0  0  0  0  0
    3.2110    0.4014    2.8315 H   0  0  0  0  0  0  0  0  0  0  0  0
    2.1271   -0.4114    4.0379 H   0  0  0  0  0  0  0  0  0  0  0  0
    2.5903   -2.3857    0.3512 H   0  0  0  0  0  0  0  0  0  0  0  0
    3.9134    0.3395    0.8067 H   0  0  0  0  0  0  0  0  0  0  0  0
    5.4117    1.4179   -0.0545 H   0  0  0  0  0  0  0  0  0  0  0  0
    7.1740    2.6411   -1.2030 H   0  0  0  0  0  0  0  0  0  0  0  0
    7.5359   -0.4947   -4.1236 H   0  0  0  0  0  0  0  0  0  0  0  0
    5.7896   -1.6868   -2.9722 H   0  0  0  0  0  0  0  0  0  0  0  0
    0.6338   -1.0516   -1.0565 H   0  0  0  0  0  0  0  0  0  0  0  0
   -1.7167    1.4375    1.4538 H   0  0  0  0  0  0  0  0  0  0  0  0
   -0.0634    1.2236    3.2396 H   0  0  0  0  0  0  0  0  0  0  0  0
   -1.3511   -0.1663   -1.9494 H   0  0  0  0  0  0  0  0  0  0  0  0
   -4.7774    2.0608    1.1969 H   0  0  0  0  0  0  0  0  0  0  0  0
   -4.9724    2.1495   -0.5911 H   0  0  0  0  0  0  0  0  0  0  0  0
   -5.6433    0.3722    2.4943 H   0  0  0  0  0  0  0  0  0  0  0  0
   -7.3661   -1.3242    2.8607 H   0  0  0  0  0  0  0  0  0  0  0  0
   -8.5751   -2.2496    0.9413 H   0  0  0  0  0  0  0  0  0  0  0  0
   -6.3020    0.2492   -1.6899 H   0  0  0  0  0  0  0  0  0  0  0  0
   -4.3694    1.4458   -2.4377 H   0  0  0  0  0  0  0  0  0  0  0  0
   -3.4315    2.8457   -1.7545 H   0  0  0  0  0  0  0  0  0  0  0  0
   -2.6224    1.7630   -2.9235 H   0  0  0  0  0  0  0  0  0  0  0  0
  1  2  1  0
  2  3  1  0
  3  4  1  0
  4  5  2  0
  5  6  1  0
  6  7  1  0
  7  8  1  0
  8  9  2  0
  8 10  1  0
 10 11  2  0
 11 12  1  0
 12 13  2  0
 13 14  1  0
 14 15  2  0
 13 16  1  0
  5 17  1  0
 17 18  2  0
 18 19  1  0
 19 20  2  0
 18 21  1  0
 21 22  1  0
 22 23  2  3
 23 24  1  0
 24 25  1  0
 25 26  2  0
 26 27  1  0
 27 28  2  0
 28 29  1  0
 29 30  2  0
 29 31  1  0
 22 32  1  0
  6  2  1  0
 15 10  1  0
 30 25  1  0
 20  4  1  0
  1 33  1  0
  2 34  1  6
  3 35  1  0
  3 36  1  0
  6 37  1  6
  7 38  1  0
 11 39  1  0
 12 40  1  0
 14 41  1  0
 15 42  1  0
 17 43  1  0
 19 44  1  0
 20 45  1  0
 21 46  1  0
 24 47  1  0
 24 48  1  0
 26 49  1  0
 27 50  1  0
 28 51  1  0
 30 52  1  0
 32 53  1  0
 32 54  1  0
 32 55  1  0
M  END
>  <Ligand ID>  (1) 
LIG0003261

>  <Ligand>  (1) 
CHEMBL3618444

>  <SMILES>  (1) 
O[C@@H]1Cc2c([C@H]1NC(=O)c1ccc(cc1)Br)cc(cc2)NC(=NCc1cccc(c1)F)C

>  <CID>  (1) 
122191001.0

>  <ChEMBL ID>  (1) 
nan

>  <InChiKey>  (1) 
PZZSDDQQIYYRHC-DNQXCXABSA-N

>  <InChi>  (1) 
InChI=1S/C25H23BrFN3O2/c1-15(28-14-16-3-2-4-20(27)11-16)29-21-10-7-18-12-23(31)24(22(18)13-21)30-25(32)17-5-8-19(26)9-6-17/h2-11,13,23-24,31H,12,14H2,1H3,(H,28,29)(H,30,32)/t23-,24-/m1/s1

>  <IUPAC Name>  (1) 
4-bromo-N-[(1R,2R)-6-[[N-[(3-fluorophenyl)methyl]-C-methylcarbonimidoyl]amino]-2-hydroxy-2,3-dihydro-1H-inden-1-yl]benzamide

$$$$
