
     RDKit          3D

 54 57  0  0  0  0  0  0  0  0999 V2000
   -1.2032    2.1784   -0.3844 O   0  0  0  0  0  0  0  0  0  0  0  0
   -0.5256    1.4866    0.6131 C   0  0  2  0  0  0  0  0  0  0  0  0
    0.7468    2.1420    1.0305 C   0  0  0  0  0  0  0  0  0  0  0  0
    1.8288    1.0666    1.0592 C   0  0  1  0  0  0  0  0  0  0  0  0
    0.9840   -0.1886    1.1522 C   0  0  1  0  0  0  0  0  0  0  0  0
   -0.0851    0.1136    0.1409 C   0  0  1  0  0  0  0  0  0  0  0  0
   -1.2051   -0.8582    0.1526 C   0  0  0  0  0  0  0  0  0  0  0  0
   -1.5933   -1.4624   -0.9613 C   0  0  0  0  0  0  0  0  0  0  0  0
   -2.7128   -2.4496   -1.0179 C   0  0  0  0  0  0  0  0  0  0  0  0
   -3.3601   -2.6823    0.3188 C   0  0  0  0  0  0  0  0  0  0  0  0
   -3.9309   -1.5945    0.9332 O   0  0  0  0  0  0  0  0  0  0  0  0
   -4.9591   -0.7859    0.5793 C   0  0  0  0  0  0  0  0  0  0  0  0
   -5.7440   -0.8627   -0.5344 C   0  0  0  0  0  0  0  0  0  0  0  0
   -6.7831    0.0329   -0.8023 C   0  0  0  0  0  0  0  0  0  0  0  0
   -7.0277    1.0320    0.0893 C   0  0  0  0  0  0  0  0  0  0  0  0
   -6.2754    1.1566    1.2196 C   0  0  0  0  0  0  0  0  0  0  0  0
   -5.2583    0.2663    1.4648 C   0  0  0  0  0  0  0  0  0  0  0  0
    1.7772   -1.4265    0.8183 C   0  0  0  0  0  0  0  0  0  0  0  0
    3.2193   -0.9838    0.6471 C   0  0  0  0  0  0  0  0  0  0  0  0
    3.1933    0.0195   -0.5152 C   0  0  1  0  0  0  0  0  0  0  0  0
    2.5097    1.1671   -0.1273 O   0  0  0  0  0  0  0  0  0  0  0  0
    4.5248    0.2999   -1.0388 C   0  0  0  0  0  0  0  0  0  0  0  0
    5.0920   -0.5898   -2.6539 S   0  0  0  0  0  0  0  0  0  0  0  0
    6.7065    0.2635   -2.5808 C   0  0  0  0  0  0  0  0  0  0  0  0
    6.6333    1.0758   -1.4102 C   0  0  0  0  0  0  0  0  0  0  0  0
    5.4979    0.9644   -0.7875 N   0  0  0  0  0  0  0  0  0  0  0  0
    7.7613    1.9121   -1.0278 C   0  0  0  0  0  0  0  0  0  0  0  0
    8.7949    1.9074   -1.7410 O   0  0  0  0  0  0  0  0  0  0  0  0
    7.7111    2.7055    0.1011 O   0  0  0  0  0  0  0  0  0  0  0  0
   -2.1731    2.0204   -0.2617 H   0  0  0  0  0  0  0  0  0  0  0  0
   -1.1558    1.3387    1.5267 H   0  0  0  0  0  0  0  0  0  0  0  0
    0.6536    2.5799    2.0629 H   0  0  0  0  0  0  0  0  0  0  0  0
    1.0040    2.9599    0.3056 H   0  0  0  0  0  0  0  0  0  0  0  0
    2.4554    1.2304    1.9355 H   0  0  0  0  0  0  0  0  0  0  0  0
    0.5313   -0.2220    2.1455 H   0  0  0  0  0  0  0  0  0  0  0  0
    0.2992    0.2624   -0.8780 H   0  0  0  0  0  0  0  0  0  0  0  0
   -1.6875   -1.0584    1.0839 H   0  0  0  0  0  0  0  0  0  0  0  0
   -1.0951   -1.2541   -1.9019 H   0  0  0  0  0  0  0  0  0  0  0  0
   -2.2774   -3.4537   -1.3126 H   0  0  0  0  0  0  0  0  0  0  0  0
   -3.4243   -2.1410   -1.7763 H   0  0  0  0  0  0  0  0  0  0  0  0
   -2.6287   -3.2244    0.9920 H   0  0  0  0  0  0  0  0  0  0  0  0
   -4.1454   -3.4812    0.1236 H   0  0  0  0  0  0  0  0  0  0  0  0
   -5.5979   -1.6332   -1.2508 H   0  0  0  0  0  0  0  0  0  0  0  0
   -7.3788   -0.0688   -1.7011 H   0  0  0  0  0  0  0  0  0  0  0  0
   -7.8161    1.7370   -0.0830 H   0  0  0  0  0  0  0  0  0  0  0  0
   -6.4877    1.9548    1.9106 H   0  0  0  0  0  0  0  0  0  0  0  0
   -4.6905    0.3989    2.3647 H   0  0  0  0  0  0  0  0  0  0  0  0
    1.7008   -2.1908    1.6290 H   0  0  0  0  0  0  0  0  0  0  0  0
    1.4592   -1.8621   -0.1534 H   0  0  0  0  0  0  0  0  0  0  0  0
    3.8774   -1.8287    0.3537 H   0  0  0  0  0  0  0  0  0  0  0  0
    3.5822   -0.5007    1.5774 H   0  0  0  0  0  0  0  0  0  0  0  0
    2.5593   -0.4717   -1.2922 H   0  0  0  0  0  0  0  0  0  0  0  0
    7.5268    0.1418   -3.3095 H   0  0  0  0  0  0  0  0  0  0  0  0
    8.5920    2.8608    0.6015 H   0  0  0  0  0  0  0  0  0  0  0  0
  1  2  1  0
  2  3  1  0
  3  4  1  0
  4  5  1  0
  5  6  1  0
  6  7  1  0
  7  8  2  0
  8  9  1  0
  9 10  1  0
 10 11  1  0
 11 12  1  0
 12 13  2  0
 13 14  1  0
 14 15  2  0
 15 16  1  0
 16 17  2  0
  5 18  1  0
 18 19  1  0
 19 20  1  0
 20 21  1  0
 20 22  1  0
 22 23  1  0
 23 24  1  0
 24 25  2  0
 25 26  1  0
 25 27  1  0
 27 28  2  0
 27 29  1  0
  6  2  1  0
 17 12  1  0
 26 22  2  0
 21  4  1  0
  1 30  1  0
  2 31  1  1
  3 32  1  0
  3 33  1  0
  4 34  1  1
  5 35  1  1
  6 36  1  6
  7 37  1  0
  8 38  1  0
  9 39  1  0
  9 40  1  0
 10 41  1  0
 10 42  1  0
 13 43  1  0
 14 44  1  0
 15 45  1  0
 16 46  1  0
 17 47  1  0
 18 48  1  0
 18 49  1  0
 19 50  1  0
 19 51  1  0
 20 52  1  6
 24 53  1  0
 29 54  1  0
M  END
>  <Ligand ID>  (1) 
LIG0000835

>  <Ligand>  (1) 
CHEMBL3805176

>  <SMILES>  (1) 
O[C@@H]1C[C@H]2[C@@H]([C@H]1/C=C/CCOc1ccccc1)CC[C@@H](O2)c1scc(n1)C(=O)O

>  <CID>  (1) 
127052614.0

>  <ChEMBL ID>  (1) 
nan

>  <InChiKey>  (1) 
GJEDKMXFVUIJBT-QEJOXDNVSA-N

>  <InChi>  (1) 
InChI=1S/C22H25NO5S/c24-18-12-20-16(9-10-19(28-20)21-23-17(13-29-21)22(25)26)15(18)8-4-5-11-27-14-6-2-1-3-7-14/h1-4,6-8,13,15-16,18-20,24H,5,9-12H2,(H,25,26)/b8-4+/t15-,16-,18-,19-,20+/m1/s1

>  <IUPAC Name>  (1) 
2-[(2R,4aR,5R,6R,7aS)-6-hydroxy-5-[(E)-4-phenoxybut-1-enyl]-2,3,4,4a,5,6,7,7a-octahydrocyclopenta[b]pyran-2-yl]-1,3-thiazole-4-carboxylic acid

$$$$
