
     RDKit          3D

 33 35  0  0  0  0  0  0  0  0999 V2000
    3.4460    2.8621    0.4510 C   0  0  0  0  0  0  0  0  0  0  0  0
    4.2242    1.7476    0.2641 C   0  0  0  0  0  0  0  0  0  0  0  0
    3.7080    0.5313    0.0929 N   0  0  0  0  0  0  0  0  0  0  0  0
    2.3646    0.3462    0.0971 C   0  0  0  0  0  0  0  0  0  0  0  0
    1.6045    1.4651    0.2842 C   0  0  0  0  0  0  0  0  0  0  0  0
    2.1222    2.7081    0.4594 N   0  0  0  0  0  0  0  0  0  0  0  0
    1.8881   -1.0004   -0.0947 C   0  0  0  0  0  0  0  0  0  0  0  0
    2.8424   -2.0094   -0.2698 C   0  0  0  0  0  0  0  0  0  0  0  0
    2.4865   -3.3282   -0.4603 C   0  0  0  0  0  0  0  0  0  0  0  0
    1.1689   -3.7282   -0.4892 C   0  0  0  0  0  0  0  0  0  0  0  0
    0.2178   -2.7479   -0.3186 C   0  0  0  0  0  0  0  0  0  0  0  0
    0.5808   -1.4089   -0.1251 C   0  0  0  0  0  0  0  0  0  0  0  0
   -0.4315   -0.5100    0.0347 O   0  0  0  0  0  0  0  0  0  0  0  0
   -1.7644   -0.8925    0.0088 C   0  0  0  0  0  0  0  0  0  0  0  0
   -2.7174    0.2355    0.2018 C   0  0  0  0  0  0  0  0  0  0  0  0
   -3.5804    0.3458    1.1489 N   0  0  0  0  0  0  0  0  0  0  0  0
   -4.3268    1.5994    0.9863 C   0  0  0  0  0  0  0  0  0  0  0  0
   -4.0616    2.0030   -0.4604 C   0  0  0  0  0  0  0  0  0  0  0  0
   -2.7731    1.3512   -0.6768 N   0  0  0  0  0  0  0  0  0  0  0  0
    3.8923    3.8442    0.5885 H   0  0  0  0  0  0  0  0  0  0  0  0
    5.3079    1.8525    0.2540 H   0  0  0  0  0  0  0  0  0  0  0  0
    0.5378    1.4023    0.3003 H   0  0  0  0  0  0  0  0  0  0  0  0
    3.9065   -1.8013   -0.2638 H   0  0  0  0  0  0  0  0  0  0  0  0
    3.2496   -4.0785   -0.5918 H   0  0  0  0  0  0  0  0  0  0  0  0
    0.9481   -4.7724   -0.6415 H   0  0  0  0  0  0  0  0  0  0  0  0
   -0.8215   -3.0429   -0.3383 H   0  0  0  0  0  0  0  0  0  0  0  0
   -1.9124   -1.6780    0.7913 H   0  0  0  0  0  0  0  0  0  0  0  0
   -1.9586   -1.3680   -0.9720 H   0  0  0  0  0  0  0  0  0  0  0  0
   -3.9090    2.4142    1.5999 H   0  0  0  0  0  0  0  0  0  0  0  0
   -5.3962    1.4650    1.2119 H   0  0  0  0  0  0  0  0  0  0  0  0
   -4.7971    1.4752   -1.1207 H   0  0  0  0  0  0  0  0  0  0  0  0
   -4.0233    3.0837   -0.6084 H   0  0  0  0  0  0  0  0  0  0  0  0
   -2.0228    1.6344   -1.3438 H   0  0  0  0  0  0  0  0  0  0  0  0
  1  2  2  0
  2  3  1  0
  3  4  2  0
  4  5  1  0
  5  6  2  0
  4  7  1  0
  7  8  2  0
  8  9  1  0
  9 10  2  0
 10 11  1  0
 11 12  2  0
 12 13  1  0
 13 14  1  0
 14 15  1  0
 15 16  2  0
 16 17  1  0
 17 18  1  0
 18 19  1  0
  6  1  1  0
 12  7  1  0
 19 15  1  0
  1 20  1  0
  2 21  1  0
  5 22  1  0
  8 23  1  0
  9 24  1  0
 10 25  1  0
 11 26  1  0
 14 27  1  0
 14 28  1  0
 17 29  1  0
 17 30  1  0
 18 31  1  0
 18 32  1  0
 19 33  1  0
M  END
>  <Ligand ID>  (1) 
LIG0003201

>  <Ligand>  (1) 
CHEMBL143973

>  <SMILES>  (1) 
c1cnc(cn1)c1ccccc1OCC1=NCCN1

>  <CID>  (1) 
44362288.0

>  <ChEMBL ID>  (1) 
nan

>  <InChiKey>  (1) 
IJLWJFGTCGYKBI-UHFFFAOYSA-N

>  <InChi>  (1) 
InChI=1S/C14H14N4O/c1-2-4-13(19-10-14-17-7-8-18-14)11(3-1)12-9-15-5-6-16-12/h1-6,9H,7-8,10H2,(H,17,18)

>  <IUPAC Name>  (1) 
2-[2-(4,5-dihydro-1H-imidazol-2-ylmethoxy)phenyl]pyrazine

$$$$
