
     RDKit          3D

 39 41  0  0  0  0  0  0  0  0999 V2000
   -3.4463    1.9088   -1.0893 C   0  0  0  0  0  0  0  0  0  0  0  0
   -2.4035    1.4644   -2.0651 C   0  0  0  0  0  0  0  0  0  0  0  0
   -1.1567    0.9116   -1.4365 C   0  0  0  0  0  0  0  0  0  0  0  0
   -1.4265    0.1617   -0.2096 N   0  0  0  0  0  0  0  0  0  0  0  0
   -2.3093    0.8590    0.7427 C   0  0  0  0  0  0  0  0  0  0  0  0
   -3.6431    0.9130    0.0424 C   0  0  0  0  0  0  0  0  0  0  0  0
   -0.9083   -1.1089    0.0700 C   0  0  0  0  0  0  0  0  0  0  0  0
   -1.7916   -2.1866    0.1513 C   0  0  0  0  0  0  0  0  0  0  0  0
   -1.3455   -3.4766    0.4097 C   0  0  0  0  0  0  0  0  0  0  0  0
   -0.0094   -3.7549    0.5984 C   0  0  0  0  0  0  0  0  0  0  0  0
    0.8674   -2.7042    0.5211 C   0  0  0  0  0  0  0  0  0  0  0  0
    0.4196   -1.4051    0.2613 C   0  0  0  0  0  0  0  0  0  0  0  0
    1.4025   -0.3777    0.2174 N   0  0  0  0  0  0  0  0  0  0  0  0
    2.8084   -0.6903    0.4153 C   0  0  0  0  0  0  0  0  0  0  0  0
    3.6539    0.5252    0.3290 C   0  0  0  0  0  0  0  0  0  0  0  0
    4.0174    1.3727    1.3565 C   0  0  0  0  0  0  0  0  0  0  0  0
    4.7798    2.3228    0.7997 N   0  0  0  0  0  0  0  0  0  0  0  0
    4.9101    2.1104   -0.5235 C   0  0  0  0  0  0  0  0  0  0  0  0
    4.2094    0.9893   -0.8246 N   0  0  0  0  0  0  0  0  0  0  0  0
   -4.4209    2.0539   -1.5969 H   0  0  0  0  0  0  0  0  0  0  0  0
   -3.1845    2.8789   -0.6210 H   0  0  0  0  0  0  0  0  0  0  0  0
   -2.8801    0.7572   -2.7723 H   0  0  0  0  0  0  0  0  0  0  0  0
   -2.1086    2.3479   -2.6655 H   0  0  0  0  0  0  0  0  0  0  0  0
   -0.4729    1.7344   -1.1450 H   0  0  0  0  0  0  0  0  0  0  0  0
   -0.6430    0.3202   -2.2121 H   0  0  0  0  0  0  0  0  0  0  0  0
   -2.3379    0.3702    1.7175 H   0  0  0  0  0  0  0  0  0  0  0  0
   -1.9464    1.8963    0.8980 H   0  0  0  0  0  0  0  0  0  0  0  0
   -3.9302   -0.0326   -0.4564 H   0  0  0  0  0  0  0  0  0  0  0  0
   -4.4475    1.3134    0.6896 H   0  0  0  0  0  0  0  0  0  0  0  0
   -2.8556   -2.0819    0.0202 H   0  0  0  0  0  0  0  0  0  0  0  0
   -2.0526   -4.2990    0.4682 H   0  0  0  0  0  0  0  0  0  0  0  0
    0.2776   -4.7730    0.7951 H   0  0  0  0  0  0  0  0  0  0  0  0
    1.9243   -2.9040    0.6670 H   0  0  0  0  0  0  0  0  0  0  0  0
    1.1794    0.6259    0.0518 H   0  0  0  0  0  0  0  0  0  0  0  0
    3.0765   -1.4273   -0.3776 H   0  0  0  0  0  0  0  0  0  0  0  0
    2.8821   -1.1505    1.4270 H   0  0  0  0  0  0  0  0  0  0  0  0
    3.7264    1.2652    2.4050 H   0  0  0  0  0  0  0  0  0  0  0  0
    5.4717    2.7138   -1.2498 H   0  0  0  0  0  0  0  0  0  0  0  0
    4.1140    0.5562   -1.7843 H   0  0  0  0  0  0  0  0  0  0  0  0
  1  2  1  0
  2  3  1  0
  3  4  1  0
  4  5  1  0
  5  6  1  0
  4  7  1  0
  7  8  2  0
  8  9  1  0
  9 10  2  0
 10 11  1  0
 11 12  2  0
 12 13  1  0
 13 14  1  0
 14 15  1  0
 15 16  2  0
 16 17  1  0
 17 18  2  0
 18 19  1  0
  6  1  1  0
 12  7  1  0
 19 15  1  0
  1 20  1  0
  1 21  1  0
  2 22  1  0
  2 23  1  0
  3 24  1  0
  3 25  1  0
  5 26  1  0
  5 27  1  0
  6 28  1  0
  6 29  1  0
  8 30  1  0
  9 31  1  0
 10 32  1  0
 11 33  1  0
 13 34  1  0
 14 35  1  0
 14 36  1  0
 16 37  1  0
 18 38  1  0
 19 39  1  0
M  END
>  <Ligand ID>  (1) 
LIG0003097

>  <Ligand>  (1) 
CHEMBL325648

>  <SMILES>  (1) 
C1CCN(CC1)c1ccccc1NCc1cnc[nH]1

>  <CID>  (1) 
44343245.0

>  <ChEMBL ID>  (1) 
nan

>  <InChiKey>  (1) 
IIGMRZNQNZVRHU-UHFFFAOYSA-N

>  <InChi>  (1) 
InChI=1S/C15H20N4/c1-4-8-19(9-5-1)15-7-3-2-6-14(15)17-11-13-10-16-12-18-13/h2-3,6-7,10,12,17H,1,4-5,8-9,11H2,(H,16,18)

>  <IUPAC Name>  (1) 
N-(1H-imidazol-5-ylmethyl)-2-piperidin-1-ylaniline

$$$$
