
     RDKit          3D

 62 64  0  0  0  0  0  0  0  0999 V2000
   -1.6476    0.0329    1.5869 C   0  0  0  0  0  0  0  0  0  0  0  0
   -2.9916    0.1223    0.8628 C   0  0  1  0  0  0  0  0  0  0  0  0
   -3.4812    1.4315    1.0872 N   0  0  0  0  0  0  0  0  0  0  0  0
   -4.6768    1.8667    0.5032 C   0  0  0  0  0  0  0  0  0  0  0  0
   -5.9793    1.3113    0.9563 C   0  0  1  0  0  0  0  0  0  0  0  0
   -6.3811   -0.0067    0.4545 C   0  0  0  0  0  0  0  0  0  0  0  0
   -6.8421   -0.1157   -0.8496 C   0  0  0  0  0  0  0  0  0  0  0  0
   -7.2693   -1.3286   -1.3765 C   0  0  0  0  0  0  0  0  0  0  0  0
   -7.2554   -2.4841   -0.6268 C   0  0  0  0  0  0  0  0  0  0  0  0
   -6.7955   -2.3882    0.6818 C   0  0  0  0  0  0  0  0  0  0  0  0
   -6.3756   -1.1760    1.1876 C   0  0  0  0  0  0  0  0  0  0  0  0
   -6.7653   -3.8388    1.6599 Cl  0  0  0  0  0  0  0  0  0  0  0  0
   -6.2538    1.4896    2.3139 O   0  0  0  0  0  0  0  0  0  0  0  0
   -2.9131   -0.2586   -0.5894 C   0  0  0  0  0  0  0  0  0  0  0  0
   -2.0380    0.5219   -1.4003 N   0  0  0  0  0  0  0  0  0  0  0  0
   -0.6595    0.3538   -1.5996 C   0  0  0  0  0  0  0  0  0  0  0  0
    0.0529    1.2791   -2.3719 C   0  0  0  0  0  0  0  0  0  0  0  0
    1.3983    1.1391   -2.6271 C   0  0  0  0  0  0  0  0  0  0  0  0
    2.1191    0.0771   -2.1348 C   0  0  0  0  0  0  0  0  0  0  0  0
    1.4403   -0.8477   -1.3716 C   0  0  0  0  0  0  0  0  0  0  0  0
    0.0903   -0.7003   -1.1201 C   0  0  0  0  0  0  0  0  0  0  0  0
    3.5623   -0.0133   -2.4497 C   0  0  0  0  0  0  0  0  0  0  0  0
    4.4114    0.6701   -1.4451 C   0  0  0  0  0  0  0  0  0  0  0  0
    3.9321    1.2640   -0.4296 O   0  0  0  0  0  0  0  0  0  0  0  0
    5.8265    0.6302   -1.6760 N   0  0  0  0  0  0  0  0  0  0  0  0
    6.9406    1.3821   -0.5920 S   0  0  0  0  0  0  0  0  0  0  0  0
    8.1589    1.7661   -1.3879 O   0  0  0  0  0  0  0  0  0  0  0  0
    6.3414    2.6015    0.0482 O   0  0  0  0  0  0  0  0  0  0  0  0
    7.3825    0.1869    0.6068 C   0  0  0  0  0  0  0  0  0  0  0  0
    8.4889   -0.6119    0.3238 C   0  0  0  0  0  0  0  0  0  0  0  0
    8.8960   -1.5781    1.2258 C   0  0  0  0  0  0  0  0  0  0  0  0
    8.2079   -1.7502    2.4029 C   0  0  0  0  0  0  0  0  0  0  0  0
    7.1130   -0.9513    2.6706 C   0  0  0  0  0  0  0  0  0  0  0  0
    6.6775    0.0270    1.7884 C   0  0  0  0  0  0  0  0  0  0  0  0
   -1.3084   -1.0166    1.5655 H   0  0  0  0  0  0  0  0  0  0  0  0
   -0.8748    0.6704    1.1667 H   0  0  0  0  0  0  0  0  0  0  0  0
   -1.8431    0.2838    2.6649 H   0  0  0  0  0  0  0  0  0  0  0  0
   -3.6670   -0.6239    1.3400 H   0  0  0  0  0  0  0  0  0  0  0  0
   -2.7762    2.1735    1.1438 H   0  0  0  0  0  0  0  0  0  0  0  0
   -4.7437    2.9890    0.7231 H   0  0  0  0  0  0  0  0  0  0  0  0
   -4.6241    1.8807   -0.6303 H   0  0  0  0  0  0  0  0  0  0  0  0
   -6.8053    2.0124    0.4915 H   0  0  0  0  0  0  0  0  0  0  0  0
   -6.8651    0.7742   -1.4644 H   0  0  0  0  0  0  0  0  0  0  0  0
   -7.6124   -1.2996   -2.4142 H   0  0  0  0  0  0  0  0  0  0  0  0
   -7.5856   -3.4105   -1.0418 H   0  0  0  0  0  0  0  0  0  0  0  0
   -6.0138   -1.1136    2.2254 H   0  0  0  0  0  0  0  0  0  0  0  0
   -5.6640    2.2281    2.6124 H   0  0  0  0  0  0  0  0  0  0  0  0
   -2.5928   -1.3480   -0.6111 H   0  0  0  0  0  0  0  0  0  0  0  0
   -3.9409   -0.3098   -1.0523 H   0  0  0  0  0  0  0  0  0  0  0  0
   -2.4903    1.3340   -1.9196 H   0  0  0  0  0  0  0  0  0  0  0  0
   -0.4503    2.1462   -2.7958 H   0  0  0  0  0  0  0  0  0  0  0  0
    1.8995    1.8755   -3.2250 H   0  0  0  0  0  0  0  0  0  0  0  0
    1.9862   -1.6880   -0.9758 H   0  0  0  0  0  0  0  0  0  0  0  0
   -0.3782   -1.4616   -0.5309 H   0  0  0  0  0  0  0  0  0  0  0  0
    3.7314    0.4007   -3.4807 H   0  0  0  0  0  0  0  0  0  0  0  0
    3.9087   -1.0649   -2.5213 H   0  0  0  0  0  0  0  0  0  0  0  0
    6.2082    0.1282   -2.5315 H   0  0  0  0  0  0  0  0  0  0  0  0
    9.0488   -0.4982   -0.5954 H   0  0  0  0  0  0  0  0  0  0  0  0
    9.7616   -2.1875    0.9812 H   0  0  0  0  0  0  0  0  0  0  0  0
    8.5623   -2.5170    3.0772 H   0  0  0  0  0  0  0  0  0  0  0  0
    6.5800   -1.1074    3.6172 H   0  0  0  0  0  0  0  0  0  0  0  0
    5.8347    0.6459    1.9885 H   0  0  0  0  0  0  0  0  0  0  0  0
  1  2  1  0
  2  3  1  0
  3  4  1  0
  4  5  1  0
  5  6  1  0
  6  7  2  0
  7  8  1  0
  8  9  2  0
  9 10  1  0
 10 11  2  0
 10 12  1  0
  5 13  1  0
  2 14  1  0
 14 15  1  0
 15 16  1  0
 16 17  2  0
 17 18  1  0
 18 19  2  0
 19 20  1  0
 20 21  2  0
 19 22  1  0
 22 23  1  0
 23 24  2  0
 23 25  1  0
 25 26  1  0
 26 27  2  0
 26 28  2  0
 26 29  1  0
 29 30  2  0
 30 31  1  0
 31 32  2  0
 32 33  1  0
 33 34  2  0
 11  6  1  0
 21 16  1  0
 34 29  1  0
  1 35  1  0
  1 36  1  0
  1 37  1  0
  2 38  1  1
  3 39  1  0
  4 40  1  0
  4 41  1  0
  5 42  1  6
  7 43  1  0
  8 44  1  0
  9 45  1  0
 11 46  1  0
 13 47  1  0
 14 48  1  0
 14 49  1  0
 15 50  1  0
 17 51  1  0
 18 52  1  0
 20 53  1  0
 21 54  1  0
 22 55  1  0
 22 56  1  0
 25 57  1  0
 30 58  1  0
 31 59  1  0
 32 60  1  0
 33 61  1  0
 34 62  1  0
M  END
>  <Ligand ID>  (1) 
LIG0002244

>  <Ligand>  (1) 
CHEMBL347616

>  <SMILES>  (1) 
C[C@@H](NC[C@@H](c1cccc(c1)Cl)O)CNc1ccc(cc1)CC(=O)NS(=O)(=O)c1ccccc1

>  <CID>  (1) 
11060184.0

>  <ChEMBL ID>  (1) 
nan

>  <InChiKey>  (1) 
XONYCBGQLPOOHV-KOSHJBKYSA-N

>  <InChi>  (1) 
InChI=1S/C25H28ClN3O4S/c1-18(27-17-24(30)20-6-5-7-21(26)15-20)16-28-22-12-10-19(11-13-22)14-25(31)29-34(32,33)23-8-3-2-4-9-23/h2-13,15,18,24,27-28,30H,14,16-17H2,1H3,(H,29,31)/t18-,24+/m1/s1

>  <IUPAC Name>  (1) 
N-(benzenesulfonyl)-2-[4-[[(2R)-2-[[(2R)-2-(3-chlorophenyl)-2-hydroxyethyl]amino]propyl]amino]phenyl]acetamide

$$$$
