
     RDKit          3D

 51 52  0  0  0  0  0  0  0  0999 V2000
    2.5585    0.9714   -2.9631 O   0  0  0  0  0  0  0  0  0  0  0  0
    2.9872    0.5646   -1.7150 C   0  0  2  0  0  0  0  0  0  0  0  0
    1.9958    0.9199   -0.6357 C   0  0  1  0  0  0  0  0  0  0  0  0
    0.9611   -0.1359   -0.4030 C   0  0  0  0  0  0  0  0  0  0  0  0
    0.1898   -0.3873   -1.5414 O   0  0  0  0  0  0  0  0  0  0  0  0
   -0.9426   -1.5884   -1.1750 P   0  0  0  0  0  0  0  0  0  0  0  0
   -2.2081   -1.2233   -1.9380 O   0  0  0  0  0  0  0  0  0  0  0  0
   -1.3100   -1.6358    0.4724 O   0  0  0  0  0  0  0  0  0  0  0  0
   -2.8318   -0.9493    0.7423 P   0  0  0  0  0  0  0  0  0  0  0  0
   -2.6434    0.5555    0.7963 O   0  0  0  0  0  0  0  0  0  0  0  0
   -3.8490   -1.4022   -0.5215 O   0  0  0  0  0  0  0  0  0  0  0  0
   -5.1021   -0.3003   -0.7557 P   0  0  0  0  0  0  0  0  0  0  0  0
   -4.9195    0.3137   -2.1390 O   0  0  0  0  0  0  0  0  0  0  0  0
   -6.5586   -1.1181   -0.7560 O   0  0  0  0  0  0  0  0  0  0  0  0
   -7.5598   -0.6926    0.5320 P   0  0  0  0  0  0  0  0  0  0  0  0
   -6.7993   -0.9707    1.8072 O   0  0  0  0  0  0  0  0  0  0  0  0
   -8.9376   -1.6661    0.4361 O   0  0  0  0  0  0  0  0  0  0  0  0
   -8.0576    1.0392    0.4055 C   0  0  0  0  0  0  0  0  0  0  0  0
   -5.0627    0.9724    0.3439 O   0  0  0  0  0  0  0  0  0  0  0  0
   -3.4424   -1.4993    2.2338 O   0  0  0  0  0  0  0  0  0  0  0  0
   -0.4271   -3.1073   -1.7061 O   0  0  0  0  0  0  0  0  0  0  0  0
    2.7170    1.1138    0.5297 O   0  0  0  0  0  0  0  0  0  0  0  0
    3.9990    1.4599    0.1941 C   0  0  2  0  0  0  0  0  0  0  0  0
    4.1634    1.4232   -1.2905 C   0  0  2  0  0  0  0  0  0  0  0  0
    3.9114    2.6958   -1.8277 O   0  0  0  0  0  0  0  0  0  0  0  0
    5.0243    0.6965    0.8852 N   0  0  0  0  0  0  0  0  0  0  0  0
    4.9015   -0.6518    0.9345 C   0  0  0  0  0  0  0  0  0  0  0  0
    5.8868   -1.3882    1.5988 C   0  0  0  0  0  0  0  0  0  0  0  0
    6.9501   -0.7379    2.1830 C   0  0  0  0  0  0  0  0  0  0  0  0
    7.8718   -1.3663    2.7989 O   0  0  0  0  0  0  0  0  0  0  0  0
    7.0449    0.5926    2.1184 N   0  0  0  0  0  0  0  0  0  0  0  0
    6.0924    1.2930    1.4772 C   0  0  0  0  0  0  0  0  0  0  0  0
    6.1735    2.5649    1.4096 O   0  0  0  0  0  0  0  0  0  0  0  0
    3.1676    0.5273   -3.6254 H   0  0  0  0  0  0  0  0  0  0  0  0
    3.2369   -0.5116   -1.7575 H   0  0  0  0  0  0  0  0  0  0  0  0
    1.5015    1.8661   -0.9373 H   0  0  0  0  0  0  0  0  0  0  0  0
    1.4231   -1.0667   -0.0145 H   0  0  0  0  0  0  0  0  0  0  0  0
    0.3093    0.2342    0.4155 H   0  0  0  0  0  0  0  0  0  0  0  0
   -8.6628   -2.6106    0.3502 H   0  0  0  0  0  0  0  0  0  0  0  0
   -9.1568    1.1274    0.4752 H   0  0  0  0  0  0  0  0  0  0  0  0
   -7.5703    1.6251    1.2221 H   0  0  0  0  0  0  0  0  0  0  0  0
   -7.7488    1.4794   -0.5849 H   0  0  0  0  0  0  0  0  0  0  0  0
   -5.2388    0.7032    1.2758 H   0  0  0  0  0  0  0  0  0  0  0  0
   -3.8186   -0.7501    2.7687 H   0  0  0  0  0  0  0  0  0  0  0  0
   -0.4771   -3.1000   -2.7136 H   0  0  0  0  0  0  0  0  0  0  0  0
    4.1484    2.5309    0.5194 H   0  0  0  0  0  0  0  0  0  0  0  0
    5.1359    1.0251   -1.6405 H   0  0  0  0  0  0  0  0  0  0  0  0
    3.2244    3.1053   -1.2171 H   0  0  0  0  0  0  0  0  0  0  0  0
    4.0628   -1.1771    0.4748 H   0  0  0  0  0  0  0  0  0  0  0  0
    5.8309   -2.4538    1.6628 H   0  0  0  0  0  0  0  0  0  0  0  0
    7.8550    1.0908    2.5632 H   0  0  0  0  0  0  0  0  0  0  0  0
  1  2  1  0
  2  3  1  0
  3  4  1  0
  4  5  1  0
  5  6  1  0
  6  7  2  0
  6  8  1  0
  8  9  1  0
  9 10  2  0
  9 11  1  0
 11 12  1  0
 12 13  2  0
 12 14  1  0
 14 15  1  0
 15 16  2  0
 15 17  1  0
 15 18  1  0
 12 19  1  0
  9 20  1  0
  6 21  1  0
  3 22  1  0
 22 23  1  0
 23 24  1  0
 24 25  1  0
 23 26  1  0
 26 27  1  0
 27 28  2  0
 28 29  1  0
 29 30  2  0
 29 31  1  0
 31 32  1  0
 32 33  2  0
 24  2  1  0
 32 26  1  0
  1 34  1  0
  2 35  1  6
  3 36  1  6
  4 37  1  0
  4 38  1  0
 17 39  1  0
 18 40  1  0
 18 41  1  0
 18 42  1  0
 19 43  1  0
 20 44  1  0
 21 45  1  0
 23 46  1  1
 24 47  1  1
 25 48  1  0
 27 49  1  0
 28 50  1  0
 31 51  1  0
M  END
>  <Ligand ID>  (1) 
LIG0004913

>  <Ligand>  (1) 
CHEMBL483913

>  <SMILES>  (1) 
O[C@@H]1[C@@H](COP(=O)(OP(=O)(OP(=O)(OP(=O)(O)C)O)O)O)O[C@H]([C@@H]1O)n1ccc(=O)[nH]c1=O

>  <CID>  (1) 
44586043.0

>  <ChEMBL ID>  (1) 
nan

>  <InChiKey>  (1) 
WUXWLMUYIMIUQQ-ZOQUXTDFSA-N

>  <InChi>  (1) 
InChI=1S/C10H18N2O17P4/c1-30(17,18)27-32(21,22)29-33(23,24)28-31(19,20)25-4-5-7(14)8(15)9(26-5)12-3-2-6(13)11-10(12)16/h2-3,5,7-9,14-15H,4H2,1H3,(H,17,18)(H,19,20)(H,21,22)(H,23,24)(H,11,13,16)/t5-,7-,8-,9-/m1/s1

>  <IUPAC Name>  (1) 
[[[[(2R,3S,4R,5R)-5-(2,4-dioxopyrimidin-1-yl)-3,4-dihydroxyoxolan-2-yl]methoxy-hydroxyphosphoryl]oxy-hydroxyphosphoryl]oxy-hydroxyphosphoryl]oxy-methylphosphinic acid

$$$$
