
     RDKit          3D

 60 64  0  0  0  0  0  0  0  0999 V2000
    8.5076    3.5507   -0.7565 C   0  0  0  0  0  0  0  0  0  0  0  0
    7.8198    2.3824   -0.2191 N   0  0  0  0  0  0  0  0  0  0  0  0
    8.5109    1.4003    0.3733 N   0  0  0  0  0  0  0  0  0  0  0  0
    7.6462    0.4457    0.7766 C   0  0  0  0  0  0  0  0  0  0  0  0
    6.3652    0.8729    0.4089 C   0  0  0  0  0  0  0  0  0  0  0  0
    6.5086    2.0934   -0.2147 C   0  0  0  0  0  0  0  0  0  0  0  0
    5.1647    0.0972    0.6835 C   0  0  0  0  0  0  0  0  0  0  0  0
    4.0479    0.1038   -0.1254 C   0  0  0  0  0  0  0  0  0  0  0  0
    2.9254   -0.6648    0.1784 C   0  0  0  0  0  0  0  0  0  0  0  0
    2.8779   -1.4671    1.3011 C   0  0  0  0  0  0  0  0  0  0  0  0
    4.0151   -1.4725    2.1257 C   0  0  0  0  0  0  0  0  0  0  0  0
    5.1252   -0.7038    1.8116 C   0  0  0  0  0  0  0  0  0  0  0  0
    4.0035   -2.2535    3.2452 F   0  0  0  0  0  0  0  0  0  0  0  0
    1.7219   -2.3041    1.6762 C   0  0  0  0  0  0  0  0  0  0  0  0
    0.4532   -1.8452    1.1911 N   0  0  0  0  0  0  0  0  0  0  0  0
   -0.4706   -1.0255    1.7186 C   0  0  0  0  0  0  0  0  0  0  0  0
   -1.5456   -0.8933    0.8729 C   0  0  0  0  0  0  0  0  0  0  0  0
   -1.2656   -1.6799   -0.2441 C   0  0  0  0  0  0  0  0  0  0  0  0
   -0.0331   -2.2536   -0.0249 C   0  0  0  0  0  0  0  0  0  0  0  0
    0.4985   -3.1010   -0.9952 C   0  0  0  0  0  0  0  0  0  0  0  0
   -0.2265   -3.3379   -2.1416 C   0  0  0  0  0  0  0  0  0  0  0  0
   -1.4637   -2.7558   -2.3498 C   0  0  0  0  0  0  0  0  0  0  0  0
   -1.9276   -1.9494   -1.3850 N   0  0  0  0  0  0  0  0  0  0  0  0
   -2.7779   -0.1369    0.9971 C   0  0  0  0  0  0  0  0  0  0  0  0
   -3.3131    0.1183    2.1065 O   0  0  0  0  0  0  0  0  0  0  0  0
   -3.4404    0.3530   -0.1634 N   0  0  0  0  0  0  0  0  0  0  0  0
   -4.6599    1.0927   -0.0022 C   0  0  1  0  0  0  0  0  0  0  0  0
   -4.6160    2.5071   -0.4983 C   0  0  0  0  0  0  0  0  0  0  0  0
   -5.9598    3.1301   -0.0987 C   0  0  0  0  0  0  0  0  0  0  0  0
   -7.0280    2.4531   -0.6312 O   0  0  0  0  0  0  0  0  0  0  0  0
   -7.0815    1.1047   -0.2532 C   0  0  0  0  0  0  0  0  0  0  0  0
   -5.8210    0.4255   -0.7397 C   0  0  2  0  0  0  0  0  0  0  0  0
   -5.8710   -1.0590   -0.4500 C   0  0  0  0  0  0  0  0  0  0  0  0
   -5.6957    0.6266   -2.1001 O   0  0  0  0  0  0  0  0  0  0  0  0
    9.4405    3.2502   -1.2936 H   0  0  0  0  0  0  0  0  0  0  0  0
    8.7266    4.2427    0.0922 H   0  0  0  0  0  0  0  0  0  0  0  0
    7.8696    4.0655   -1.4921 H   0  0  0  0  0  0  0  0  0  0  0  0
    7.8684   -0.4884    1.2900 H   0  0  0  0  0  0  0  0  0  0  0  0
    5.7217    2.7003   -0.6208 H   0  0  0  0  0  0  0  0  0  0  0  0
    4.0787    0.7360   -1.0181 H   0  0  0  0  0  0  0  0  0  0  0  0
    2.0580   -0.6517   -0.4590 H   0  0  0  0  0  0  0  0  0  0  0  0
    5.9972   -0.7375    2.4793 H   0  0  0  0  0  0  0  0  0  0  0  0
    1.9425   -3.3529    1.3178 H   0  0  0  0  0  0  0  0  0  0  0  0
    1.7391   -2.4104    2.7899 H   0  0  0  0  0  0  0  0  0  0  0  0
   -0.3780   -0.5389    2.6765 H   0  0  0  0  0  0  0  0  0  0  0  0
    1.4754   -3.5717   -0.8534 H   0  0  0  0  0  0  0  0  0  0  0  0
    0.1449   -3.9976   -2.9362 H   0  0  0  0  0  0  0  0  0  0  0  0
   -2.0115   -2.9559   -3.2512 H   0  0  0  0  0  0  0  0  0  0  0  0
   -3.0768    0.1984   -1.1101 H   0  0  0  0  0  0  0  0  0  0  0  0
   -4.9653    1.1454    1.0695 H   0  0  0  0  0  0  0  0  0  0  0  0
   -4.5267    2.6181   -1.5827 H   0  0  0  0  0  0  0  0  0  0  0  0
   -3.8441    3.0825    0.0575 H   0  0  0  0  0  0  0  0  0  0  0  0
   -6.0059    3.1260    1.0268 H   0  0  0  0  0  0  0  0  0  0  0  0
   -5.9626    4.1493   -0.5029 H   0  0  0  0  0  0  0  0  0  0  0  0
   -7.0632    1.0600    0.8543 H   0  0  0  0  0  0  0  0  0  0  0  0
   -8.0054    0.6779   -0.6942 H   0  0  0  0  0  0  0  0  0  0  0  0
   -4.8608   -1.4762   -0.6792 H   0  0  0  0  0  0  0  0  0  0  0  0
   -6.2470   -1.3135    0.5408 H   0  0  0  0  0  0  0  0  0  0  0  0
   -6.5685   -1.5103   -1.1839 H   0  0  0  0  0  0  0  0  0  0  0  0
   -6.5417    0.7236   -2.5909 H   0  0  0  0  0  0  0  0  0  0  0  0
  1  2  1  0
  2  3  1  0
  3  4  2  0
  4  5  1  0
  5  6  2  0
  5  7  1  0
  7  8  2  0
  8  9  1  0
  9 10  2  0
 10 11  1  0
 11 12  2  0
 11 13  1  0
 10 14  1  0
 14 15  1  0
 15 16  1  0
 16 17  2  0
 17 18  1  0
 18 19  2  0
 19 20  1  0
 20 21  2  0
 21 22  1  0
 22 23  2  0
 17 24  1  0
 24 25  2  0
 24 26  1  0
 26 27  1  0
 27 28  1  0
 28 29  1  0
 29 30  1  0
 30 31  1  0
 31 32  1  0
 32 33  1  0
 32 34  1  6
  6  2  1  0
 12  7  1  0
 19 15  1  0
 32 27  1  0
 23 18  1  0
  1 35  1  0
  1 36  1  0
  1 37  1  0
  4 38  1  0
  6 39  1  0
  8 40  1  0
  9 41  1  0
 12 42  1  0
 14 43  1  0
 14 44  1  0
 16 45  1  0
 20 46  1  0
 21 47  1  0
 22 48  1  0
 26 49  1  0
 27 50  1  1
 28 51  1  0
 28 52  1  0
 29 53  1  0
 29 54  1  0
 31 55  1  0
 31 56  1  0
 33 57  1  0
 33 58  1  0
 33 59  1  0
 34 60  1  0
M  END
>  <Ligand ID>  (1) 
LIG0005119

>  <Ligand>  (1) 
CHEMBL3608416

>  <SMILES>  (1) 
Cn1ncc(c1)c1ccc(c(c1)F)Cn1cc(c2c1cccn2)C(=O)N[C@H]1CCOC[C@@]1(C)O

>  <CID>  (1) 
122186857.0

>  <ChEMBL ID>  (1) 
nan

>  <InChiKey>  (1) 
KIJJKSWIIOQXOZ-WIOPSUGQSA-N

>  <InChi>  (1) 
InChI=1S/C25H26FN5O3/c1-25(33)15-34-9-7-22(25)29-24(32)19-14-31(21-4-3-8-27-23(19)21)13-17-6-5-16(10-20(17)26)18-11-28-30(2)12-18/h3-6,8,10-12,14,22,33H,7,9,13,15H2,1-2H3,(H,29,32)/t22-,25+/m0/s1

>  <IUPAC Name>  (1) 
1-[[2-fluoro-4-(1-methylpyrazol-4-yl)phenyl]methyl]-N-[(3S,4S)-3-hydroxy-3-methyloxan-4-yl]pyrrolo[3,2-b]pyridine-3-carboxamide

$$$$
