
     RDKit          3D

 59 61  0  0  0  0  0  0  0  0999 V2000
    4.3451    1.4314    1.1182 O   0  0  0  0  0  0  0  0  0  0  0  0
    4.3210    0.0262    1.2714 C   0  0  2  0  0  0  0  0  0  0  0  0
    5.7621   -0.4405    1.2967 C   0  0  0  0  0  0  0  0  0  0  0  0
    6.2432   -1.4196    2.1014 C   0  0  0  0  0  0  0  0  0  0  0  0
    7.6188   -1.6866    1.9945 C   0  0  0  0  0  0  0  0  0  0  0  0
    8.4465   -1.0198    1.1406 C   0  0  0  0  0  0  0  0  0  0  0  0
    7.9710    0.0031    0.2894 C   0  0  0  0  0  0  0  0  0  0  0  0
    6.5974    0.2238    0.4407 C   0  0  0  0  0  0  0  0  0  0  0  0
    6.2429    1.5689   -0.7551 S   0  0  0  0  0  0  0  0  0  0  0  0
    8.0203    1.6565   -1.3061 C   0  0  0  0  0  0  0  0  0  0  0  0
    8.4126    2.4468   -2.1665 O   0  0  0  0  0  0  0  0  0  0  0  0
    8.6275    0.7143   -0.5631 N   0  0  0  0  0  0  0  0  0  0  0  0
    9.7891   -1.3831    1.1391 O   0  0  0  0  0  0  0  0  0  0  0  0
    3.6790   -0.5857    0.0591 C   0  0  0  0  0  0  0  0  0  0  0  0
    2.3570    0.0044   -0.1831 N   0  0  0  0  0  0  0  0  0  0  0  0
    1.8372   -0.5279   -1.4355 C   0  0  0  0  0  0  0  0  0  0  0  0
    0.7716    0.2957   -2.0547 C   0  0  0  0  0  0  0  0  0  0  0  0
   -0.4782    0.4616   -1.2759 C   0  0  0  0  0  0  0  0  0  0  0  0
   -1.1417   -0.7038   -1.1166 O   0  0  0  0  0  0  0  0  0  0  0  0
   -2.4095   -0.6568   -0.5109 C   0  0  0  0  0  0  0  0  0  0  0  0
   -3.3371    0.2522   -1.2270 C   0  0  0  0  0  0  0  0  0  0  0  0
   -4.6862    0.3841   -0.7652 N   0  0  0  0  0  0  0  0  0  0  0  0
   -4.9192    0.9241    0.4953 C   0  0  0  0  0  0  0  0  0  0  0  0
   -6.2887    1.3853    0.7932 C   0  0  0  0  0  0  0  0  0  0  0  0
   -7.3549    0.4178    0.6308 C   0  0  0  0  0  0  0  0  0  0  0  0
   -7.6582   -0.4568    1.6632 C   0  0  0  0  0  0  0  0  0  0  0  0
   -8.6356   -1.4209    1.5799 C   0  0  0  0  0  0  0  0  0  0  0  0
   -9.3670   -1.5477    0.4237 C   0  0  0  0  0  0  0  0  0  0  0  0
   -9.1076   -0.7033   -0.6332 C   0  0  0  0  0  0  0  0  0  0  0  0
   -8.1231    0.2550   -0.5222 C   0  0  0  0  0  0  0  0  0  0  0  0
   -7.9531    1.3388   -1.9054 Cl  0  0  0  0  0  0  0  0  0  0  0  0
  -10.0530   -0.8637   -2.1159 Cl  0  0  0  0  0  0  0  0  0  0  0  0
    3.4065    1.7173    1.3284 H   0  0  0  0  0  0  0  0  0  0  0  0
    3.8557   -0.2614    2.2010 H   0  0  0  0  0  0  0  0  0  0  0  0
    5.5966   -1.9317    2.7559 H   0  0  0  0  0  0  0  0  0  0  0  0
    8.0220   -2.4596    2.6298 H   0  0  0  0  0  0  0  0  0  0  0  0
    9.6958    0.6008   -0.7264 H   0  0  0  0  0  0  0  0  0  0  0  0
   10.0700   -1.9605    0.3284 H   0  0  0  0  0  0  0  0  0  0  0  0
    4.3021   -0.2877   -0.8095 H   0  0  0  0  0  0  0  0  0  0  0  0
    3.6177   -1.6607    0.1956 H   0  0  0  0  0  0  0  0  0  0  0  0
    1.7810   -0.2423    0.6366 H   0  0  0  0  0  0  0  0  0  0  0  0
    1.4117   -1.5260   -1.1797 H   0  0  0  0  0  0  0  0  0  0  0  0
    2.6839   -0.7540   -2.1264 H   0  0  0  0  0  0  0  0  0  0  0  0
    0.5790   -0.1563   -3.0750 H   0  0  0  0  0  0  0  0  0  0  0  0
    1.2321    1.2828   -2.3246 H   0  0  0  0  0  0  0  0  0  0  0  0
   -0.1546    0.8025   -0.2395 H   0  0  0  0  0  0  0  0  0  0  0  0
   -1.0770    1.3322   -1.6360 H   0  0  0  0  0  0  0  0  0  0  0  0
   -2.8113   -1.6806   -0.5306 H   0  0  0  0  0  0  0  0  0  0  0  0
   -2.2477   -0.4053    0.5412 H   0  0  0  0  0  0  0  0  0  0  0  0
   -2.9462    1.3220   -1.2977 H   0  0  0  0  0  0  0  0  0  0  0  0
   -3.4003   -0.0389   -2.3148 H   0  0  0  0  0  0  0  0  0  0  0  0
   -5.3305    0.5465   -1.5328 H   0  0  0  0  0  0  0  0  0  0  0  0
   -4.2423    1.8174    0.7321 H   0  0  0  0  0  0  0  0  0  0  0  0
   -4.6743    0.1230    1.2656 H   0  0  0  0  0  0  0  0  0  0  0  0
   -6.4547    2.3080    0.1599 H   0  0  0  0  0  0  0  0  0  0  0  0
   -6.3069    1.8032    1.8650 H   0  0  0  0  0  0  0  0  0  0  0  0
   -7.1198   -0.3833    2.5717 H   0  0  0  0  0  0  0  0  0  0  0  0
   -8.8609   -2.1022    2.4033 H   0  0  0  0  0  0  0  0  0  0  0  0
  -10.1567   -2.2813    0.2775 H   0  0  0  0  0  0  0  0  0  0  0  0
  1  2  1  0
  2  3  1  0
  3  4  2  0
  4  5  1  0
  5  6  2  0
  6  7  1  0
  7  8  2  0
  8  9  1  0
  9 10  1  0
 10 11  2  0
 10 12  1  0
  6 13  1  0
  2 14  1  0
 14 15  1  0
 15 16  1  0
 16 17  1  0
 17 18  1  0
 18 19  1  0
 19 20  1  0
 20 21  1  0
 21 22  1  0
 22 23  1  0
 23 24  1  0
 24 25  1  0
 25 26  2  0
 26 27  1  0
 27 28  2  0
 28 29  1  0
 29 30  2  0
 30 31  1  0
 29 32  1  0
  8  3  1  0
 30 25  1  0
 12  7  1  0
  1 33  1  0
  2 34  1  1
  4 35  1  0
  5 36  1  0
 12 37  1  0
 13 38  1  0
 14 39  1  0
 14 40  1  0
 15 41  1  0
 16 42  1  0
 16 43  1  0
 17 44  1  0
 17 45  1  0
 18 46  1  0
 18 47  1  0
 20 48  1  0
 20 49  1  0
 21 50  1  0
 21 51  1  0
 22 52  1  0
 23 53  1  0
 23 54  1  0
 24 55  1  0
 24 56  1  0
 26 57  1  0
 27 58  1  0
 28 59  1  0
M  END
>  <Ligand ID>  (1) 
LIG0005771

>  <Ligand>  (1) 
CHEMBL1807873

>  <SMILES>  (1) 
O[C@H](c1ccc(c2c1sc(=O)[nH]2)O)CNCCCOCCNCCc1cccc(c1Cl)Cl

>  <CID>  (1) 
56673609.0

>  <ChEMBL ID>  (1) 
nan

>  <InChiKey>  (1) 
OOXNTGSMQFBSGF-SFHVURJKSA-N

>  <InChi>  (1) 
InChI=1S/C22H27Cl2N3O4S/c23-16-4-1-3-14(19(16)24)7-9-25-10-12-31-11-2-8-26-13-18(29)15-5-6-17(28)20-21(15)32-22(30)27-20/h1,3-6,18,25-26,28-29H,2,7-13H2,(H,27,30)/t18-/m0/s1

>  <IUPAC Name>  (1) 
7-[(1R)-2-[3-[2-[2-(2,3-dichlorophenyl)ethylamino]ethoxy]propylamino]-1-hydroxyethyl]-4-hydroxy-3H-1,3-benzothiazol-2-one

$$$$
