
     RDKit          3D

 30 32  0  0  0  0  0  0  0  0999 V2000
    3.7425   -0.6207    1.3690 C   0  0  0  0  0  0  0  0  0  0  0  0
    3.3476   -0.5159    0.0024 O   0  0  0  0  0  0  0  0  0  0  0  0
    2.3419    0.3728   -0.3585 C   0  0  0  0  0  0  0  0  0  0  0  0
    2.6991    1.6514   -0.6990 C   0  0  0  0  0  0  0  0  0  0  0  0
    4.3847    2.1160   -0.6685 Cl  0  0  0  0  0  0  0  0  0  0  0  0
    1.6972    2.5253   -1.0553 C   0  0  0  0  0  0  0  0  0  0  0  0
    0.3925    2.0977   -1.0589 C   0  0  0  0  0  0  0  0  0  0  0  0
    0.0218    0.8207   -0.7202 C   0  0  0  0  0  0  0  0  0  0  0  0
    1.0176   -0.0681   -0.3602 C   0  0  0  0  0  0  0  0  0  0  0  0
    0.3850   -1.3390   -0.0493 C   0  0  0  0  0  0  0  0  0  0  0  0
    0.9746   -2.3712    0.3126 O   0  0  0  0  0  0  0  0  0  0  0  0
   -0.9998   -1.1596   -0.2394 N   0  0  0  0  0  0  0  0  0  0  0  0
   -1.3060    0.1929   -0.6671 C   0  0  1  0  0  0  0  0  0  0  0  0
   -2.2484    0.8685    0.3036 C   0  0  0  0  0  0  0  0  0  0  0  0
   -3.0983   -0.1031    0.9073 N   0  0  0  0  0  0  0  0  0  0  0  0
   -3.3373   -1.2620    0.0757 C   0  0  0  0  0  0  0  0  0  0  0  0
   -2.0885   -2.1044   -0.0698 C   0  0  0  0  0  0  0  0  0  0  0  0
    2.9533   -0.1899    2.0070 H   0  0  0  0  0  0  0  0  0  0  0  0
    4.7046   -0.0570    1.4732 H   0  0  0  0  0  0  0  0  0  0  0  0
    3.9185   -1.6911    1.6166 H   0  0  0  0  0  0  0  0  0  0  0  0
    1.9809    3.5299   -1.3225 H   0  0  0  0  0  0  0  0  0  0  0  0
   -0.3663    2.8071   -1.3426 H   0  0  0  0  0  0  0  0  0  0  0  0
   -1.8042    0.1566   -1.6658 H   0  0  0  0  0  0  0  0  0  0  0  0
   -2.8706    1.5850   -0.2743 H   0  0  0  0  0  0  0  0  0  0  0  0
   -1.6672    1.4658    1.0319 H   0  0  0  0  0  0  0  0  0  0  0  0
   -2.7959   -0.3738    1.8639 H   0  0  0  0  0  0  0  0  0  0  0  0
   -3.6548   -0.9285   -0.9267 H   0  0  0  0  0  0  0  0  0  0  0  0
   -4.1373   -1.9078    0.4828 H   0  0  0  0  0  0  0  0  0  0  0  0
   -2.1941   -2.8365   -0.8661 H   0  0  0  0  0  0  0  0  0  0  0  0
   -1.9929   -2.6609    0.8982 H   0  0  0  0  0  0  0  0  0  0  0  0
  1  2  1  0
  2  3  1  0
  3  4  2  0
  4  5  1  0
  4  6  1  0
  6  7  2  0
  7  8  1  0
  8  9  2  0
  9 10  1  0
 10 11  2  0
 10 12  1  0
 12 13  1  0
 13 14  1  0
 14 15  1  0
 15 16  1  0
 16 17  1  0
  9  3  1  0
 17 12  1  0
 13  8  1  0
  1 18  1  0
  1 19  1  0
  1 20  1  0
  6 21  1  0
  7 22  1  0
 13 23  1  6
 14 24  1  0
 14 25  1  0
 15 26  1  0
 16 27  1  0
 16 28  1  0
 17 29  1  0
 17 30  1  0
M  END
>  <Ligand ID>  (1) 
LIG0004760

>  <Ligand>  (1) 
CHEMBL385577

>  <SMILES>  (1) 
COc1c(Cl)ccc2c1C(=O)N1[C@H]2CNCC1

>  <CID>  (1) 
11300712.0

>  <ChEMBL ID>  (1) 
nan

>  <InChiKey>  (1) 
JGMDYLOFCDBBNK-VIFPVBQESA-N

>  <InChi>  (1) 
InChI=1S/C12H13ClN2O2/c1-17-11-8(13)3-2-7-9-6-14-4-5-15(9)12(16)10(7)11/h2-3,9,14H,4-6H2,1H3/t9-/m0/s1

>  <IUPAC Name>  (1) 
(10bR)-8-chloro-7-methoxy-2,3,4,10b-tetrahydro-1H-pyrazino[1,2-b]isoindol-6-one

$$$$
