
     RDKit          3D

 50 53  0  0  0  0  0  0  0  0999 V2000
   -8.3910   -0.2824    0.7394 C   0  0  0  0  0  0  0  0  0  0  0  0
   -7.0197   -0.6717    0.6401 N   0  0  0  0  0  0  0  0  0  0  0  0
   -6.4308   -0.4517   -0.6426 C   0  0  0  0  0  0  0  0  0  0  0  0
   -5.0098   -1.0309   -0.5949 C   0  0  0  0  0  0  0  0  0  0  0  0
   -4.2796   -0.1154    0.2994 N   0  0  0  0  0  0  0  0  0  0  0  0
   -5.1249    0.6916    1.1709 C   0  0  0  0  0  0  0  0  0  0  0  0
   -6.1843   -0.2428    1.7165 C   0  0  0  0  0  0  0  0  0  0  0  0
   -2.8766   -0.0529    0.2867 C   0  0  0  0  0  0  0  0  0  0  0  0
   -2.1237    0.7987    1.0744 C   0  0  0  0  0  0  0  0  0  0  0  0
   -0.7424    0.8323    1.0366 C   0  0  0  0  0  0  0  0  0  0  0  0
   -0.0461   -0.0046    0.1895 C   0  0  0  0  0  0  0  0  0  0  0  0
   -0.7822   -0.8601   -0.6028 C   0  0  0  0  0  0  0  0  0  0  0  0
   -2.1818   -0.8878   -0.5584 C   0  0  0  0  0  0  0  0  0  0  0  0
    1.3723   -0.0224    0.1001 N   0  0  0  0  0  0  0  0  0  0  0  0
    1.9481    0.8747   -0.8717 C   0  0  0  0  0  0  0  0  0  0  0  0
    1.2329    1.6213   -1.5897 O   0  0  0  0  0  0  0  0  0  0  0  0
    3.4056    0.9162   -1.0252 C   0  0  0  0  0  0  0  0  0  0  0  0
    4.0303    1.7484   -1.9333 C   0  0  0  0  0  0  0  0  0  0  0  0
    5.3761    1.5265   -1.8061 C   0  0  0  0  0  0  0  0  0  0  0  0
    5.5107    0.5699   -0.8271 C   0  0  0  0  0  0  0  0  0  0  0  0
    4.3030    0.2339   -0.3879 O   0  0  0  0  0  0  0  0  0  0  0  0
    6.8043    0.0461   -0.3838 C   0  0  0  0  0  0  0  0  0  0  0  0
    8.0043    0.4837   -0.9274 C   0  0  0  0  0  0  0  0  0  0  0  0
    9.2184   -0.0320   -0.4864 C   0  0  0  0  0  0  0  0  0  0  0  0
    9.1997   -0.9872    0.5027 C   0  0  0  0  0  0  0  0  0  0  0  0
    8.0169   -1.4513    1.0724 C   0  0  0  0  0  0  0  0  0  0  0  0
    6.8213   -0.9171    0.6109 C   0  0  0  0  0  0  0  0  0  0  0  0
    5.6902   -1.3893    1.1850 F   0  0  0  0  0  0  0  0  0  0  0  0
   -8.9980   -1.2265    0.8595 H   0  0  0  0  0  0  0  0  0  0  0  0
   -8.5284    0.3045    1.6762 H   0  0  0  0  0  0  0  0  0  0  0  0
   -8.8122    0.2051   -0.1608 H   0  0  0  0  0  0  0  0  0  0  0  0
   -6.4629    0.5732   -1.0193 H   0  0  0  0  0  0  0  0  0  0  0  0
   -6.9621   -1.0684   -1.4210 H   0  0  0  0  0  0  0  0  0  0  0  0
   -5.1099   -2.0438   -0.1690 H   0  0  0  0  0  0  0  0  0  0  0  0
   -4.5652   -1.0607   -1.6021 H   0  0  0  0  0  0  0  0  0  0  0  0
   -4.6052    1.1818    1.9878 H   0  0  0  0  0  0  0  0  0  0  0  0
   -5.5605    1.5154    0.5458 H   0  0  0  0  0  0  0  0  0  0  0  0
   -6.7899    0.2468    2.5306 H   0  0  0  0  0  0  0  0  0  0  0  0
   -5.6512   -1.1251    2.1133 H   0  0  0  0  0  0  0  0  0  0  0  0
   -2.6126    1.4624    1.7423 H   0  0  0  0  0  0  0  0  0  0  0  0
   -0.1759    1.5100    1.6651 H   0  0  0  0  0  0  0  0  0  0  0  0
   -0.2421   -1.5177   -1.2681 H   0  0  0  0  0  0  0  0  0  0  0  0
   -2.6411   -1.6004   -1.2256 H   0  0  0  0  0  0  0  0  0  0  0  0
    1.9785   -0.6432    0.6964 H   0  0  0  0  0  0  0  0  0  0  0  0
    3.5808    2.4534   -2.6281 H   0  0  0  0  0  0  0  0  0  0  0  0
    6.1299    2.0355   -2.3898 H   0  0  0  0  0  0  0  0  0  0  0  0
    7.9571    1.2391   -1.7049 H   0  0  0  0  0  0  0  0  0  0  0  0
   10.1343    0.3232   -0.9232 H   0  0  0  0  0  0  0  0  0  0  0  0
   10.1624   -1.3903    0.8463 H   0  0  0  0  0  0  0  0  0  0  0  0
    8.0328   -2.2156    1.8614 H   0  0  0  0  0  0  0  0  0  0  0  0
  1  2  1  0
  2  3  1  0
  3  4  1  0
  4  5  1  0
  5  6  1  0
  6  7  1  0
  5  8  1  0
  8  9  2  0
  9 10  1  0
 10 11  2  0
 11 12  1  0
 12 13  2  0
 11 14  1  0
 14 15  1  0
 15 16  2  0
 15 17  1  0
 17 18  2  0
 18 19  1  0
 19 20  2  0
 20 21  1  0
 20 22  1  0
 22 23  2  0
 23 24  1  0
 24 25  2  0
 25 26  1  0
 26 27  2  0
 27 28  1  0
  7  2  1  0
 13  8  1  0
 21 17  1  0
 27 22  1  0
  1 29  1  0
  1 30  1  0
  1 31  1  0
  3 32  1  0
  3 33  1  0
  4 34  1  0
  4 35  1  0
  6 36  1  0
  6 37  1  0
  7 38  1  0
  7 39  1  0
  9 40  1  0
 10 41  1  0
 12 42  1  0
 13 43  1  0
 14 44  1  0
 18 45  1  0
 19 46  1  0
 23 47  1  0
 24 48  1  0
 25 49  1  0
 26 50  1  0
M  END
>  <Ligand ID>  (1) 
LIG0004636

>  <Ligand>  (1) 
MLS002165366

>  <SMILES>  (1) 
CN1CCN(CC1)c1ccc(cc1)NC(=O)c1ccc(o1)c1ccccc1F

>  <CID>  (1) 
4973873.0

>  <ChEMBL ID>  (1) 
nan

>  <InChiKey>  (1) 
QNXKYHIJIMBHFB-UHFFFAOYSA-N

>  <InChi>  (1) 
InChI=1S/C22H22FN3O2/c1-25-12-14-26(15-13-25)17-8-6-16(7-9-17)24-22(27)21-11-10-20(28-21)18-4-2-3-5-19(18)23/h2-11H,12-15H2,1H3,(H,24,27)

>  <IUPAC Name>  (1) 
5-(2-fluorophenyl)-N-[4-(4-methylpiperazin-1-yl)phenyl]furan-2-carboxamide

$$$$
