
     RDKit          3D

 56 59  0  0  0  0  0  0  0  0999 V2000
   -1.5607   -3.2264    0.4947 C   0  0  0  0  0  0  0  0  0  0  0  0
   -2.2761   -1.9583    0.0804 C   0  0  2  0  0  0  0  0  0  0  0  0
   -3.7291   -2.3290   -0.2093 C   0  0  0  0  0  0  0  0  0  0  0  0
   -4.4962   -1.1153   -0.6125 C   0  0  0  0  0  0  0  0  0  0  0  0
   -4.9230   -0.6968   -1.8372 C   0  0  0  0  0  0  0  0  0  0  0  0
   -5.5745    0.4770   -1.6542 N   0  0  0  0  0  0  0  0  0  0  0  0
   -5.5766    0.8194   -0.3552 C   0  0  0  0  0  0  0  0  0  0  0  0
   -4.8997   -0.1723    0.3282 C   0  0  0  0  0  0  0  0  0  0  0  0
   -4.7408   -0.0899    1.6955 C   0  0  0  0  0  0  0  0  0  0  0  0
   -5.2310    0.9537    2.4484 C   0  0  0  0  0  0  0  0  0  0  0  0
   -5.9093    1.9465    1.7599 C   0  0  0  0  0  0  0  0  0  0  0  0
   -6.0668    1.8623    0.3929 C   0  0  0  0  0  0  0  0  0  0  0  0
   -1.7093   -1.4770   -1.1257 N   0  0  0  0  0  0  0  0  0  0  0  0
   -0.8062   -0.3750   -1.0598 C   0  0  0  0  0  0  0  0  0  0  0  0
    0.4488   -0.7252   -0.3553 C   0  0  1  0  0  0  0  0  0  0  0  0
    1.4005    0.4171   -0.2599 C   0  0  0  0  0  0  0  0  0  0  0  0
    1.3030    1.5058   -1.1190 C   0  0  0  0  0  0  0  0  0  0  0  0
    2.1857    2.5333   -0.9850 C   0  0  0  0  0  0  0  0  0  0  0  0
    3.1837    2.5672   -0.0414 C   0  0  0  0  0  0  0  0  0  0  0  0
    3.2942    1.4836    0.8269 C   0  0  0  0  0  0  0  0  0  0  0  0
    2.3991    0.4439    0.6890 C   0  0  0  0  0  0  0  0  0  0  0  0
    4.3085    1.5358    1.7905 N   0  0  0  0  0  0  0  0  0  0  0  0
    5.9332    1.9953    1.5001 S   0  0  0  0  0  0  0  0  0  0  0  0
    6.0088    3.3640    0.8327 O   0  0  0  0  0  0  0  0  0  0  0  0
    6.7372    2.0217    2.7751 O   0  0  0  0  0  0  0  0  0  0  0  0
    6.6867    0.8968    0.3631 C   0  0  0  0  0  0  0  0  0  0  0  0
    6.1460   -0.2143   -0.2684 C   0  0  0  0  0  0  0  0  0  0  0  0
    6.9057   -0.9173   -1.1024 C   0  0  0  0  0  0  0  0  0  0  0  0
    8.2061   -0.5214   -1.3142 C   0  0  0  0  0  0  0  0  0  0  0  0
    8.3804    0.9947   -0.2298 S   0  0  0  0  0  0  0  0  0  0  0  0
    0.1312   -1.0845    0.9553 O   0  0  0  0  0  0  0  0  0  0  0  0
   -0.6694   -3.4208   -0.1383 H   0  0  0  0  0  0  0  0  0  0  0  0
   -2.2279   -4.1226    0.2653 H   0  0  0  0  0  0  0  0  0  0  0  0
   -1.3066   -3.2854    1.5548 H   0  0  0  0  0  0  0  0  0  0  0  0
   -2.2363   -1.2068    0.9163 H   0  0  0  0  0  0  0  0  0  0  0  0
   -3.7327   -3.0348   -1.0667 H   0  0  0  0  0  0  0  0  0  0  0  0
   -4.1350   -2.8376    0.6653 H   0  0  0  0  0  0  0  0  0  0  0  0
   -4.7551   -1.2312   -2.7694 H   0  0  0  0  0  0  0  0  0  0  0  0
   -6.0255    1.0651   -2.3841 H   0  0  0  0  0  0  0  0  0  0  0  0
   -4.2076   -0.8721    2.2323 H   0  0  0  0  0  0  0  0  0  0  0  0
   -5.0820    0.9771    3.5242 H   0  0  0  0  0  0  0  0  0  0  0  0
   -6.2980    2.7727    2.3476 H   0  0  0  0  0  0  0  0  0  0  0  0
   -6.6068    2.6694   -0.0942 H   0  0  0  0  0  0  0  0  0  0  0  0
   -2.2843   -1.5586   -1.9748 H   0  0  0  0  0  0  0  0  0  0  0  0
   -1.3175    0.4275   -0.4622 H   0  0  0  0  0  0  0  0  0  0  0  0
   -0.6479   -0.0361   -2.1119 H   0  0  0  0  0  0  0  0  0  0  0  0
    0.9308   -1.5822   -0.8494 H   0  0  0  0  0  0  0  0  0  0  0  0
    0.5570    1.5703   -1.8867 H   0  0  0  0  0  0  0  0  0  0  0  0
    2.1042    3.3901   -1.6675 H   0  0  0  0  0  0  0  0  0  0  0  0
    3.8361    3.4196   -0.0072 H   0  0  0  0  0  0  0  0  0  0  0  0
    2.4812   -0.4028    1.3630 H   0  0  0  0  0  0  0  0  0  0  0  0
    4.0447    1.2667    2.7811 H   0  0  0  0  0  0  0  0  0  0  0  0
    5.0858   -0.4718   -0.0469 H   0  0  0  0  0  0  0  0  0  0  0  0
    6.5341   -1.8204   -1.6421 H   0  0  0  0  0  0  0  0  0  0  0  0
    9.0312   -0.8828   -1.9143 H   0  0  0  0  0  0  0  0  0  0  0  0
    0.7679   -1.7080    1.3400 H   0  0  0  0  0  0  0  0  0  0  0  0
  1  2  1  0
  2  3  1  0
  3  4  1  0
  4  5  2  0
  5  6  1  0
  6  7  1  0
  7  8  2  0
  8  9  1  0
  9 10  2  0
 10 11  1  0
 11 12  2  0
  2 13  1  0
 13 14  1  0
 14 15  1  0
 15 16  1  0
 16 17  2  0
 17 18  1  0
 18 19  2  0
 19 20  1  0
 20 21  2  0
 20 22  1  0
 22 23  1  0
 23 24  2  0
 23 25  2  0
 23 26  1  0
 26 27  2  0
 27 28  1  0
 28 29  2  0
 29 30  1  0
 15 31  1  0
  8  4  1  0
 21 16  1  0
 30 26  1  0
 12  7  1  0
  1 32  1  0
  1 33  1  0
  1 34  1  0
  2 35  1  1
  3 36  1  0
  3 37  1  0
  5 38  1  0
  6 39  1  0
  9 40  1  0
 10 41  1  0
 11 42  1  0
 12 43  1  0
 13 44  1  0
 14 45  1  0
 14 46  1  0
 15 47  1  6
 17 48  1  0
 18 49  1  0
 19 50  1  0
 21 51  1  0
 22 52  1  0
 27 53  1  0
 28 54  1  0
 29 55  1  0
 31 56  1  0
M  END
>  <Ligand ID>  (1) 
LIG0002232

>  <Ligand>  (1) 
CHEMBL185836

>  <SMILES>  (1) 
C[C@H](Cc1c[nH]c2c1cccc2)NC[C@@H](c1cccc(c1)NS(=O)(=O)c1cccs1)O

>  <CID>  (1) 
44396532.0

>  <ChEMBL ID>  (1) 
nan

>  <InChiKey>  (1) 
MHWIKAADEJCYCU-ZHRRBRCNSA-N

>  <InChi>  (1) 
InChI=1S/C23H25N3O3S2/c1-16(12-18-14-25-21-9-3-2-8-20(18)21)24-15-22(27)17-6-4-7-19(13-17)26-31(28,29)23-10-5-11-30-23/h2-11,13-14,16,22,24-27H,12,15H2,1H3/t16-,22+/m1/s1

>  <IUPAC Name>  (1) 
N-[3-[(1R)-1-hydroxy-2-[[(2R)-1-(1H-indol-3-yl)propan-2-yl]amino]ethyl]phenyl]thiophene-2-sulfonamide

$$$$
