
     RDKit          3D

  8  7  0  0  0  0  0  0  0  0999 V2000
   -0.9664   -0.0421    0.0356 C   0  0  0  0  0  0  0  0  0  0  0  0
    0.4772    0.2740   -0.1054 C   0  0  0  0  0  0  0  0  0  0  0  0
    0.8495    1.4734   -0.0136 O   0  0  0  0  0  0  0  0  0  0  0  0
    1.4249   -0.6938   -0.3327 O   0  0  0  0  0  0  0  0  0  0  0  0
   -1.1717   -0.5908    0.9756 H   0  0  0  0  0  0  0  0  0  0  0  0
   -1.3817   -0.6591   -0.7767 H   0  0  0  0  0  0  0  0  0  0  0  0
   -1.5642    0.8774    0.0597 H   0  0  0  0  0  0  0  0  0  0  0  0
    2.3324   -0.6388    0.1574 H   0  0  0  0  0  0  0  0  0  0  0  0
  1  2  1  0
  2  3  2  0
  2  4  1  0
  1  5  1  0
  1  6  1  0
  1  7  1  0
  4  8  1  0
M  END
>  <Ligand ID>  (1) 
LIG0000231

>  <Ligand>  (1) 
acetic acid

>  <SMILES>  (1) 
CC(=O)O

>  <CID>  (1) 
176.0

>  <ChEMBL ID>  (1) 
nan

>  <InChiKey>  (1) 
QTBSBXVTEAMEQO-UHFFFAOYSA-N

>  <InChi>  (1) 
InChI=1S/C2H4O2/c1-2(3)4/h1H3,(H,3,4)

>  <IUPAC Name>  (1) 
acetic acid

$$$$
