
     RDKit          3D

 72 72  0  0  0  0  0  0  0  0999 V2000
   -4.6087   -2.3403   -3.0145 C   0  0  0  0  0  0  0  0  0  0  0  0
   -3.8373   -1.2771   -2.2399 C   0  0  0  0  0  0  0  0  0  0  0  0
   -4.5580   -1.0102   -1.0090 N   0  0  0  0  0  0  0  0  0  0  0  0
   -3.9747   -0.1590   -0.0280 C   0  0  0  0  0  0  0  0  0  0  0  0
   -2.6982    0.3475   -0.3050 C   0  0  0  0  0  0  0  0  0  0  0  0
   -2.0210    1.1654    0.5717 C   0  0  0  0  0  0  0  0  0  0  0  0
   -2.6469    1.4774    1.7527 C   0  0  0  0  0  0  0  0  0  0  0  0
   -3.9235    0.9759    2.0395 C   0  0  0  0  0  0  0  0  0  0  0  0
   -4.6044    0.1572    1.1646 C   0  0  0  0  0  0  0  0  0  0  0  0
   -5.9293   -0.3355    1.5059 C   0  0  0  0  0  0  0  0  0  0  0  0
   -6.6403   -1.0657    0.7931 O   0  0  0  0  0  0  0  0  0  0  0  0
   -6.5300    0.0183    2.7718 N   0  0  0  0  0  0  0  0  0  0  0  0
   -8.1025   -0.5484    3.2140 S   0  0  0  0  0  0  0  0  0  0  0  0
   -8.9875    0.6353    3.4649 O   0  0  0  0  0  0  0  0  0  0  0  0
   -7.9777   -1.2845    4.5271 O   0  0  0  0  0  0  0  0  0  0  0  0
   -8.8351   -1.5613    1.9831 C   0  0  0  0  0  0  0  0  0  0  0  0
   -0.6903    1.6834    0.2700 C   0  0  0  0  0  0  0  0  0  0  0  0
   -0.2640    1.9722   -1.0107 C   0  0  0  0  0  0  0  0  0  0  0  0
    1.0219    2.4585   -1.1984 C   0  0  0  0  0  0  0  0  0  0  0  0
    1.8986    2.6667   -0.1485 C   0  0  0  0  0  0  0  0  0  0  0  0
    1.4259    2.3632    1.1112 C   0  0  0  0  0  0  0  0  0  0  0  0
    0.1555    1.8779    1.3437 C   0  0  0  0  0  0  0  0  0  0  0  0
    3.2413    3.2034   -0.4307 C   0  0  0  0  0  0  0  0  0  0  0  0
    4.1608    2.0213   -0.7527 C   0  0  0  0  0  0  0  0  0  0  0  0
    4.1842    1.1585    0.3855 N   0  0  0  0  0  0  0  0  0  0  0  0
    5.0264    0.0204    0.1643 C   0  0  0  0  0  0  0  0  0  0  0  0
    6.4862    0.2943    0.1102 C   0  0  1  0  0  0  0  0  0  0  0  0
    7.1551   -1.0400   -0.1324 C   0  0  0  0  0  0  0  0  0  0  0  0
    7.7087   -1.7371    0.9309 C   0  0  0  0  0  0  0  0  0  0  0  0
    8.3028   -2.9454    0.6366 C   0  0  0  0  0  0  0  0  0  0  0  0
    8.3592   -3.4624   -0.6449 C   0  0  0  0  0  0  0  0  0  0  0  0
    7.8065   -2.7646   -1.7008 C   0  0  0  0  0  0  0  0  0  0  0  0
    7.2136   -1.5560   -1.3985 C   0  0  0  0  0  0  0  0  0  0  0  0
    6.9309    1.1371   -0.8767 O   0  0  0  0  0  0  0  0  0  0  0  0
   -3.6970   -0.0199   -3.0795 C   0  0  0  0  0  0  0  0  0  0  0  0
    0.6859    0.0000    0.0000 Cl  0  0  0  0  0  0  0  0  0  0  0  0
    0.6925    0.0000    0.0000 Cl  0  0  0  0  0  0  0  0  0  0  0  0
   -5.3196   -1.8754   -3.7154 H   0  0  0  0  0  0  0  0  0  0  0  0
   -5.1602   -3.0351   -2.3489 H   0  0  0  0  0  0  0  0  0  0  0  0
   -3.9087   -3.0006   -3.5963 H   0  0  0  0  0  0  0  0  0  0  0  0
   -2.8480   -1.6875   -1.9868 H   0  0  0  0  0  0  0  0  0  0  0  0
   -5.4797   -1.4713   -0.9203 H   0  0  0  0  0  0  0  0  0  0  0  0
   -2.1759    0.1122   -1.2256 H   0  0  0  0  0  0  0  0  0  0  0  0
   -2.1173    2.1191    2.4411 H   0  0  0  0  0  0  0  0  0  0  0  0
   -4.3076    1.2944    3.0002 H   0  0  0  0  0  0  0  0  0  0  0  0
   -6.0538    0.6222    3.4707 H   0  0  0  0  0  0  0  0  0  0  0  0
   -8.9424   -0.9725    1.0510 H   0  0  0  0  0  0  0  0  0  0  0  0
   -8.1874   -2.4519    1.8258 H   0  0  0  0  0  0  0  0  0  0  0  0
   -9.8314   -1.8910    2.3597 H   0  0  0  0  0  0  0  0  0  0  0  0
   -0.9429    1.8123   -1.8411 H   0  0  0  0  0  0  0  0  0  0  0  0
    1.3569    2.6856   -2.2053 H   0  0  0  0  0  0  0  0  0  0  0  0
    2.0891    2.5153    1.9667 H   0  0  0  0  0  0  0  0  0  0  0  0
   -0.1244    1.6695    2.3669 H   0  0  0  0  0  0  0  0  0  0  0  0
    3.2219    3.9496   -1.2487 H   0  0  0  0  0  0  0  0  0  0  0  0
    3.5859    3.7400    0.4720 H   0  0  0  0  0  0  0  0  0  0  0  0
    3.5802    1.4565   -1.5483 H   0  0  0  0  0  0  0  0  0  0  0  0
    5.1204    2.3686   -1.1313 H   0  0  0  0  0  0  0  0  0  0  0  0
    3.2314    0.8438    0.6847 H   0  0  0  0  0  0  0  0  0  0  0  0
    4.8062   -0.6903    0.9995 H   0  0  0  0  0  0  0  0  0  0  0  0
    4.6948   -0.4155   -0.8151 H   0  0  0  0  0  0  0  0  0  0  0  0
    6.8184    0.6492    1.1348 H   0  0  0  0  0  0  0  0  0  0  0  0
    7.6681   -1.3419    1.9258 H   0  0  0  0  0  0  0  0  0  0  0  0
    8.7363   -3.4983    1.4513 H   0  0  0  0  0  0  0  0  0  0  0  0
    8.8314   -4.4151   -0.8570 H   0  0  0  0  0  0  0  0  0  0  0  0
    7.8589   -3.1794   -2.6867 H   0  0  0  0  0  0  0  0  0  0  0  0
    6.7820   -1.0174   -2.2446 H   0  0  0  0  0  0  0  0  0  0  0  0
    7.6283    1.7405   -0.5022 H   0  0  0  0  0  0  0  0  0  0  0  0
   -4.0215    0.8975   -2.5412 H   0  0  0  0  0  0  0  0  0  0  0  0
   -2.7128    0.0545   -3.5596 H   0  0  0  0  0  0  0  0  0  0  0  0
   -4.4281   -0.1142   -3.9258 H   0  0  0  0  0  0  0  0  0  0  0  0
   -0.6859    0.0000    0.0000 H   0  0  0  0  0  0  0  0  0  0  0  0
   -0.6925    0.0000    0.0000 H   0  0  0  0  0  0  0  0  0  0  0  0
  1  2  1  0
  2  3  1  0
  3  4  1  0
  4  5  2  0
  5  6  1  0
  6  7  2  0
  7  8  1  0
  8  9  2  0
  9 10  1  0
 10 11  2  0
 10 12  1  0
 12 13  1  0
 13 14  2  0
 13 15  2  0
 13 16  1  0
  6 17  1  0
 17 18  2  0
 18 19  1  0
 19 20  2  0
 20 21  1  0
 21 22  2  0
 20 23  1  0
 23 24  1  0
 24 25  1  0
 25 26  1  0
 26 27  1  0
 27 28  1  0
 28 29  2  0
 29 30  1  0
 30 31  2  0
 31 32  1  0
 32 33  2  0
 27 34  1  0
  2 35  1  0
  9  4  1  0
 22 17  1  0
 33 28  1  0
  1 38  1  0
  1 39  1  0
  1 40  1  0
  2 41  1  0
  3 42  1  0
  5 43  1  0
  7 44  1  0
  8 45  1  0
 12 46  1  0
 16 47  1  0
 16 48  1  0
 16 49  1  0
 18 50  1  0
 19 51  1  0
 21 52  1  0
 22 53  1  0
 23 54  1  0
 23 55  1  0
 24 56  1  0
 24 57  1  0
 25 58  1  0
 26 59  1  0
 26 60  1  0
 27 61  1  1
 29 62  1  0
 30 63  1  0
 31 64  1  0
 32 65  1  0
 33 66  1  0
 34 67  1  0
 35 68  1  0
 35 69  1  0
 35 70  1  0
 36 71  1  0
 37 72  1  0
M  END
>  <Ligand ID>  (1) 
LIG0001523

>  <Ligand>  (1) 
CHEMBL471060

>  <SMILES>  (1) 
CC(Nc1cc(ccc1C(=O)NS(=O)(=O)C)c1ccc(cc1)CCNC[C@@H](c1ccccc1)O)C.Cl.Cl

>  <CID>  (1) 
42639962.0

>  <ChEMBL ID>  (1) 
nan

>  <InChiKey>  (1) 
ICEOZRUPAFOPHY-ROPHLPQBSA-N

>  <InChi>  (1) 
InChI=1S/C27H33N3O4S.2ClH/c1-19(2)29-25-17-23(13-14-24(25)27(32)30-35(3,33)34)21-11-9-20(10-12-21)15-16-28-18-26(31)22-7-5-4-6-8-22;;/h4-14,17,19,26,28-29,31H,15-16,18H2,1-3H3,(H,30,32);2*1H/t26-;;/m0../s1

>  <IUPAC Name>  (1) 
4-[4-[2-[[(2R)-2-hydroxy-2-phenylethyl]amino]ethyl]phenyl]-N-methylsulfonyl-2-(propan-2-ylamino)benzamide;dihydrochloride

$$$$
