
     RDKit          3D

 83 82  0  0  0  0  0  0  0  0999 V2000
   -8.9802    0.7770   -1.3756 C   0  0  0  0  0  0  0  0  0  0  0  0
   -9.2262   -0.6325   -0.9224 C   0  0  0  0  0  0  0  0  0  0  0  0
  -10.1257   -0.8152    0.2188 C   0  0  0  0  0  0  0  0  0  0  0  0
   -9.9090   -0.2486    1.5456 C   0  0  0  0  0  0  0  0  0  0  0  0
   -8.7026   -0.6710    2.2743 C   0  0  0  0  0  0  0  0  0  0  0  0
   -7.4127   -0.2344    1.6950 C   0  0  0  0  0  0  0  0  0  0  0  0
   -7.3508    1.2902    1.6970 C   0  0  0  0  0  0  0  0  0  0  0  0
   -6.0250    1.6979    1.0812 C   0  0  0  0  0  0  0  0  0  0  0  0
   -4.9066    1.1340    1.9115 C   0  0  0  0  0  0  0  0  0  0  0  0
   -3.5794    1.5976    1.2990 C   0  0  0  0  0  0  0  0  0  0  0  0
   -3.4730    1.0924   -0.0838 C   0  0  0  0  0  0  0  0  0  0  0  0
   -2.1795    1.5283   -0.7219 C   0  0  0  0  0  0  0  0  0  0  0  0
   -1.0146    0.9889    0.0616 C   0  0  0  0  0  0  0  0  0  0  0  0
    0.2919    1.4043   -0.6091 C   0  0  0  0  0  0  0  0  0  0  0  0
    1.4693    0.8841    0.1450 C   0  0  0  0  0  0  0  0  0  0  0  0
    1.5369   -0.6006    0.2802 C   0  0  0  0  0  0  0  0  0  0  0  0
    1.5924   -1.3111   -1.0593 C   0  0  0  0  0  0  0  0  0  0  0  0
    2.7772   -0.9098   -1.8584 C   0  0  0  0  0  0  0  0  0  0  0  0
    2.7020    0.1600   -2.4988 O   0  0  0  0  0  0  0  0  0  0  0  0
    3.9048   -1.6842   -1.8892 O   0  0  0  0  0  0  0  0  0  0  0  0
    5.0982   -1.4904   -2.5562 C   0  0  0  0  0  0  0  0  0  0  0  0
    5.7951   -0.2534   -2.0952 C   0  0  2  0  0  0  0  0  0  0  0  0
    6.1911   -0.3739   -0.6330 C   0  0  0  0  0  0  0  0  0  0  0  0
    7.0073    0.7255   -0.3700 O   0  0  0  0  0  0  0  0  0  0  0  0
    7.5891    0.7688    1.2021 P   0  0  0  0  0  0  0  0  0  0  0  0
    7.7584    2.1877    1.7086 O   0  0  0  0  0  0  0  0  0  0  0  0
    9.1452    0.0604    1.2044 O   0  0  0  0  0  0  0  0  0  0  0  0
    9.7073    0.2666   -0.0634 C   0  0  0  0  0  0  0  0  0  0  0  0
   11.0845   -0.4062   -0.0778 C   0  0  1  0  0  0  0  0  0  0  0  0
   11.6893   -0.1561   -1.4275 C   0  0  0  0  0  0  0  0  0  0  0  0
   12.7736    0.4498   -1.5468 O   0  0  0  0  0  0  0  0  0  0  0  0
   10.9939   -0.6267   -2.5402 O   0  0  0  0  0  0  0  0  0  0  0  0
   11.9515    0.1516    0.9268 N   0  0  0  0  0  0  0  0  0  0  0  0
    6.5251   -0.0352    2.2178 O   0  0  0  0  0  0  0  0  0  0  0  0
    5.1267    0.9230   -2.2685 O   0  0  0  0  0  0  0  0  0  0  0  0
   -9.5483    1.5238   -0.7787 H   0  0  0  0  0  0  0  0  0  0  0  0
   -7.8894    0.9735   -1.4136 H   0  0  0  0  0  0  0  0  0  0  0  0
   -9.3300    0.9404   -2.4262 H   0  0  0  0  0  0  0  0  0  0  0  0
   -8.3129   -1.2508   -0.9763 H   0  0  0  0  0  0  0  0  0  0  0  0
   -9.8267   -1.1022   -1.8177 H   0  0  0  0  0  0  0  0  0  0  0  0
  -11.1692   -0.4586   -0.1105 H   0  0  0  0  0  0  0  0  0  0  0  0
  -10.3074   -1.9568    0.2843 H   0  0  0  0  0  0  0  0  0  0  0  0
   -9.9127    0.8839    1.5501 H   0  0  0  0  0  0  0  0  0  0  0  0
  -10.7868   -0.4829    2.2448 H   0  0  0  0  0  0  0  0  0  0  0  0
   -8.6371   -1.7990    2.3667 H   0  0  0  0  0  0  0  0  0  0  0  0
   -8.7229   -0.2431    3.3299 H   0  0  0  0  0  0  0  0  0  0  0  0
   -6.6258   -0.6219    2.4264 H   0  0  0  0  0  0  0  0  0  0  0  0
   -7.0944   -0.6166    0.7416 H   0  0  0  0  0  0  0  0  0  0  0  0
   -8.1479    1.7726    1.1378 H   0  0  0  0  0  0  0  0  0  0  0  0
   -7.2902    1.6393    2.7577 H   0  0  0  0  0  0  0  0  0  0  0  0
   -6.0238    2.7913    1.0413 H   0  0  0  0  0  0  0  0  0  0  0  0
   -6.0479    1.2328    0.0599 H   0  0  0  0  0  0  0  0  0  0  0  0
   -4.9221    1.4587    2.9504 H   0  0  0  0  0  0  0  0  0  0  0  0
   -4.8562    0.0126    1.8179 H   0  0  0  0  0  0  0  0  0  0  0  0
   -2.7378    1.2241    1.9256 H   0  0  0  0  0  0  0  0  0  0  0  0
   -3.5095    2.7178    1.3243 H   0  0  0  0  0  0  0  0  0  0  0  0
   -3.5523   -0.0270   -0.0486 H   0  0  0  0  0  0  0  0  0  0  0  0
   -4.2934    1.4264   -0.7592 H   0  0  0  0  0  0  0  0  0  0  0  0
   -2.0914    2.6338   -0.7537 H   0  0  0  0  0  0  0  0  0  0  0  0
   -2.1407    1.1419   -1.7785 H   0  0  0  0  0  0  0  0  0  0  0  0
   -0.9868    1.4387    1.0926 H   0  0  0  0  0  0  0  0  0  0  0  0
   -1.1250   -0.0887    0.1703 H   0  0  0  0  0  0  0  0  0  0  0  0
    0.2818    1.1664   -1.6714 H   0  0  0  0  0  0  0  0  0  0  0  0
    0.3180    2.5200   -0.5294 H   0  0  0  0  0  0  0  0  0  0  0  0
    2.3833    1.1912   -0.4345 H   0  0  0  0  0  0  0  0  0  0  0  0
    1.4975    1.3124    1.1598 H   0  0  0  0  0  0  0  0  0  0  0  0
    0.7951   -1.0474    0.9547 H   0  0  0  0  0  0  0  0  0  0  0  0
    2.5317   -0.8206    0.7704 H   0  0  0  0  0  0  0  0  0  0  0  0
    1.6423   -2.4102   -0.9205 H   0  0  0  0  0  0  0  0  0  0  0  0
    0.6715   -1.0977   -1.6591 H   0  0  0  0  0  0  0  0  0  0  0  0
    4.8885   -1.4548   -3.6503 H   0  0  0  0  0  0  0  0  0  0  0  0
    5.7447   -2.3802   -2.3225 H   0  0  0  0  0  0  0  0  0  0  0  0
    6.7306   -0.1762   -2.7283 H   0  0  0  0  0  0  0  0  0  0  0  0
    6.8073   -1.2846   -0.4888 H   0  0  0  0  0  0  0  0  0  0  0  0
    5.3292   -0.3570    0.0353 H   0  0  0  0  0  0  0  0  0  0  0  0
    9.7763    1.3205   -0.3491 H   0  0  0  0  0  0  0  0  0  0  0  0
    9.0730   -0.2407   -0.8166 H   0  0  0  0  0  0  0  0  0  0  0  0
   10.9877   -1.4998    0.0459 H   0  0  0  0  0  0  0  0  0  0  0  0
   11.0917   -0.1416   -3.4296 H   0  0  0  0  0  0  0  0  0  0  0  0
   11.5888    0.9916    1.4028 H   0  0  0  0  0  0  0  0  0  0  0  0
   12.2332   -0.5391    1.6410 H   0  0  0  0  0  0  0  0  0  0  0  0
    6.7669    0.2291    3.1601 H   0  0  0  0  0  0  0  0  0  0  0  0
    4.9243    1.3474   -1.4004 H   0  0  0  0  0  0  0  0  0  0  0  0
  1  2  1  0
  2  3  1  0
  3  4  1  0
  4  5  1  0
  5  6  1  0
  6  7  1  0
  7  8  1  0
  8  9  1  0
  9 10  1  0
 10 11  1  0
 11 12  1  0
 12 13  1  0
 13 14  1  0
 14 15  1  0
 15 16  1  0
 16 17  1  0
 17 18  1  0
 18 19  2  0
 18 20  1  0
 20 21  1  0
 21 22  1  0
 22 23  1  0
 23 24  1  0
 24 25  1  0
 25 26  2  0
 25 27  1  0
 27 28  1  0
 28 29  1  0
 29 30  1  0
 30 31  2  0
 30 32  1  0
 29 33  1  0
 25 34  1  0
 22 35  1  0
  1 36  1  0
  1 37  1  0
  1 38  1  0
  2 39  1  0
  2 40  1  0
  3 41  1  0
  3 42  1  0
  4 43  1  0
  4 44  1  0
  5 45  1  0
  5 46  1  0
  6 47  1  0
  6 48  1  0
  7 49  1  0
  7 50  1  0
  8 51  1  0
  8 52  1  0
  9 53  1  0
  9 54  1  0
 10 55  1  0
 10 56  1  0
 11 57  1  0
 11 58  1  0
 12 59  1  0
 12 60  1  0
 13 61  1  0
 13 62  1  0
 14 63  1  0
 14 64  1  0
 15 65  1  0
 15 66  1  0
 16 67  1  0
 16 68  1  0
 17 69  1  0
 17 70  1  0
 21 71  1  0
 21 72  1  0
 22 73  1  6
 23 74  1  0
 23 75  1  0
 28 76  1  0
 28 77  1  0
 29 78  1  1
 32 79  1  0
 33 80  1  0
 33 81  1  0
 34 82  1  0
 35 83  1  0
M  END
>  <Ligand ID>  (1) 
LIG0004266

>  <Ligand>  (1) 
lysophosphatidylserine

>  <SMILES>  (1) 
CCCCCCCCCCCCCCCCCC(=O)OC[C@H](COP(=O)(OC[C@@H](C(=O)O)N)O)O

>  <CID>  (1) 
42607474.0

>  <ChEMBL ID>  (1) 
nan

>  <InChiKey>  (1) 
ZPDQFUYPBVXUKS-YADHBBJMSA-N

>  <InChi>  (1) 
InChI=1S/C24H48NO9P/c1-2-3-4-5-6-7-8-9-10-11-12-13-14-15-16-17-23(27)32-18-21(26)19-33-35(30,31)34-20-22(25)24(28)29/h21-22,26H,2-20,25H2,1H3,(H,28,29)(H,30,31)/t21-,22+/m1/s1

>  <IUPAC Name>  (1) 
(2S)-2-amino-3-[hydroxy-[(2R)-2-hydroxy-3-octadecanoyloxypropoxy]phosphoryl]oxypropanoic acid

$$$$
