
     RDKit          3D

155160  0  0  0  0  0  0  0  0999 V2000
    7.6422   -5.1712   -2.3731 C   0  0  0  0  0  0  0  0  0  0  0  0
    8.3438   -4.3101   -1.3000 C   0  0  0  0  0  0  0  0  0  0  0  0
    7.3580   -4.0686   -0.2157 C   0  0  0  0  0  0  0  0  0  0  0  0
    7.7802   -3.2936    0.9622 C   0  0  0  0  0  0  0  0  0  0  0  0
    8.2671   -1.9073    0.7875 C   0  0  2  0  0  0  0  0  0  0  0  0
    7.3071   -0.9731    0.1533 C   0  0  0  0  0  0  0  0  0  0  0  0
    7.8030   -0.1681   -0.7097 O   0  0  0  0  0  0  0  0  0  0  0  0
    5.9184   -0.9349    0.4490 N   0  0  0  0  0  0  0  0  0  0  0  0
    5.1556    0.0753   -0.3040 C   0  0  1  0  0  0  0  0  0  0  0  0
    4.2616   -0.7567   -1.2103 C   0  0  0  0  0  0  0  0  0  0  0  0
    3.3310   -1.6091   -0.4422 C   0  0  0  0  0  0  0  0  0  0  0  0
    3.2932   -1.7158    0.7956 O   0  0  0  0  0  0  0  0  0  0  0  0
    2.3271   -2.4417   -1.0889 N   0  0  0  0  0  0  0  0  0  0  0  0
    1.5064   -3.2338   -0.2069 C   0  0  0  0  0  0  0  0  0  0  0  0
    0.4697   -4.0803   -0.9080 C   0  0  0  0  0  0  0  0  0  0  0  0
   -0.1498   -4.9386    0.1744 C   0  0  0  0  0  0  0  0  0  0  0  0
   -1.1694   -5.8652   -0.3538 C   0  0  0  0  0  0  0  0  0  0  0  0
   -2.3874   -5.1159   -0.8468 C   0  0  2  0  0  0  0  0  0  0  0  0
   -2.9047   -4.4216    0.3186 N   0  0  0  0  0  0  0  0  0  0  0  0
   -3.4358   -3.0702    0.2216 C   0  0  0  0  0  0  0  0  0  0  0  0
   -3.5724   -2.6960   -0.9553 O   0  0  0  0  0  0  0  0  0  0  0  0
   -3.7759   -2.2368    1.3628 C   0  0  1  0  0  0  0  0  0  0  0  0
   -4.3175   -0.9482    0.8323 N   0  0  0  0  0  0  0  0  0  0  0  0
   -3.4355    0.0510    0.3535 C   0  0  0  0  0  0  0  0  0  0  0  0
   -2.2375   -0.2802    0.3013 O   0  0  0  0  0  0  0  0  0  0  0  0
   -3.8960    1.4298   -0.0793 C   0  0  1  0  0  0  0  0  0  0  0  0
   -2.7911    2.0662   -0.7724 N   0  0  0  0  0  0  0  0  0  0  0  0
   -1.6094    2.5467   -0.1438 C   0  0  0  0  0  0  0  0  0  0  0  0
   -1.5587    2.3978    1.0813 O   0  0  0  0  0  0  0  0  0  0  0  0
   -0.5232    3.1762   -0.9684 C   0  0  2  0  0  0  0  0  0  0  0  0
    0.7828    2.8038   -0.5612 N   0  0  0  0  0  0  0  0  0  0  0  0
    1.5210    3.1946    0.5633 C   0  0  0  0  0  0  0  0  0  0  0  0
    0.8000    3.9534    1.3012 O   0  0  0  0  0  0  0  0  0  0  0  0
    2.8494    2.9196    1.0276 C   0  0  1  0  0  0  0  0  0  0  0  0
    3.7972    2.1975    0.2327 N   0  0  0  0  0  0  0  0  0  0  0  0
    4.3370    0.8938    0.6254 C   0  0  0  0  0  0  0  0  0  0  0  0
    4.0365    0.6123    1.7736 O   0  0  0  0  0  0  0  0  0  0  0  0
    4.4059    2.6956   -0.9704 C   0  0  0  0  0  0  0  0  0  0  0  0
    3.5262    4.0435    1.8110 C   0  0  0  0  0  0  0  0  0  0  0  0
    3.7292    5.3009    1.1478 C   0  0  0  0  0  0  0  0  0  0  0  0
    2.9330    6.3850    1.0782 N   0  0  0  0  0  0  0  0  0  0  0  0
    3.5167    7.3602    0.3649 C   0  0  0  0  0  0  0  0  0  0  0  0
    4.7161    6.9284   -0.0491 N   0  0  0  0  0  0  0  0  0  0  0  0
    4.8652    5.6688    0.4209 C   0  0  0  0  0  0  0  0  0  0  0  0
    1.4315    1.7796   -1.3887 C   0  0  0  0  0  0  0  0  0  0  0  0
   -0.9237    4.5248   -1.3488 C   0  0  0  0  0  0  0  0  0  0  0  0
   -1.2287    5.5314   -0.3459 C   0  0  0  0  0  0  0  0  0  0  0  0
   -2.5015    5.4940    0.2427 C   0  0  0  0  0  0  0  0  0  0  0  0
   -2.9153    6.4153    1.1682 C   0  0  0  0  0  0  0  0  0  0  0  0
   -2.0751    7.4293    1.5581 C   0  0  0  0  0  0  0  0  0  0  0  0
   -0.8095    7.5027    1.0010 C   0  0  0  0  0  0  0  0  0  0  0  0
   -0.4207    6.5615    0.0714 C   0  0  0  0  0  0  0  0  0  0  0  0
   -0.0043    8.5277    1.4175 C   0  0  0  0  0  0  0  0  0  0  0  0
   -0.4254    9.4632    2.3589 C   0  0  0  0  0  0  0  0  0  0  0  0
   -1.6876    9.3781    2.9058 C   0  0  0  0  0  0  0  0  0  0  0  0
   -2.5054    8.3498    2.4933 C   0  0  0  0  0  0  0  0  0  0  0  0
   -5.1802    1.4430   -0.8028 C   0  0  0  0  0  0  0  0  0  0  0  0
   -5.0570    0.6050   -2.0731 C   0  0  0  0  0  0  0  0  0  0  0  0
   -6.3731    0.6562   -2.8030 C   0  0  0  0  0  0  0  0  0  0  0  0
   -7.4116    0.1221   -1.9722 N   0  0  0  0  0  0  0  0  0  0  0  0
   -8.6357    0.4966   -2.1754 C   0  0  0  0  0  0  0  0  0  0  0  0
   -8.9971    1.4189   -3.1909 N   0  0  0  0  0  0  0  0  0  0  0  0
   -9.7003   -0.0179   -1.3712 N   0  0  0  0  0  0  0  0  0  0  0  0
   -4.6788   -2.6366    2.4300 C   0  0  0  0  0  0  0  0  0  0  0  0
   -6.0706   -2.9390    2.0980 C   0  0  0  0  0  0  0  0  0  0  0  0
   -7.0807   -1.9557    2.1869 C   0  0  0  0  0  0  0  0  0  0  0  0
   -8.2507   -2.4853    1.7988 N   0  0  0  0  0  0  0  0  0  0  0  0
   -8.0752   -3.7676    1.4568 C   0  0  0  0  0  0  0  0  0  0  0  0
   -6.7223   -4.0399    1.6450 C   0  0  0  0  0  0  0  0  0  0  0  0
   -6.2731   -5.3025    1.3815 C   0  0  0  0  0  0  0  0  0  0  0  0
   -7.1616   -6.2747    0.9367 C   0  0  0  0  0  0  0  0  0  0  0  0
   -8.5157   -5.9748    0.7545 C   0  0  0  0  0  0  0  0  0  0  0  0
   -8.9706   -4.7161    1.0162 C   0  0  0  0  0  0  0  0  0  0  0  0
   -3.2753   -6.1204   -1.4466 C   0  0  0  0  0  0  0  0  0  0  0  0
   -2.8197   -6.7184   -2.4844 O   0  0  0  0  0  0  0  0  0  0  0  0
   -4.5498   -6.4999   -1.0225 N   0  0  0  0  0  0  0  0  0  0  0  0
    9.6067   -1.7421    0.3030 N   0  0  0  0  0  0  0  0  0  0  0  0
   10.6519   -1.2188    1.1666 C   0  0  0  0  0  0  0  0  0  0  0  0
   10.3845   -0.9037    2.3615 O   0  0  0  0  0  0  0  0  0  0  0  0
   12.0346   -1.0537    0.6463 C   0  0  0  0  0  0  0  0  0  0  0  0
    7.9250   -4.8839   -3.3887 H   0  0  0  0  0  0  0  0  0  0  0  0
    6.5435   -5.0615   -2.2739 H   0  0  0  0  0  0  0  0  0  0  0  0
    7.8621   -6.2563   -2.1638 H   0  0  0  0  0  0  0  0  0  0  0  0
    8.5414   -3.3482   -1.8699 H   0  0  0  0  0  0  0  0  0  0  0  0
    9.2579   -4.8396   -1.0287 H   0  0  0  0  0  0  0  0  0  0  0  0
    7.0704   -5.0946    0.1770 H   0  0  0  0  0  0  0  0  0  0  0  0
    6.4090   -3.7138   -0.6826 H   0  0  0  0  0  0  0  0  0  0  0  0
    6.9022   -3.2451    1.6587 H   0  0  0  0  0  0  0  0  0  0  0  0
    8.5899   -3.8593    1.4798 H   0  0  0  0  0  0  0  0  0  0  0  0
    8.3257   -1.5104    1.8761 H   0  0  0  0  0  0  0  0  0  0  0  0
    5.5165   -1.5736    1.1411 H   0  0  0  0  0  0  0  0  0  0  0  0
    5.7829    0.7027   -0.9309 H   0  0  0  0  0  0  0  0  0  0  0  0
    3.7281   -0.1661   -1.9243 H   0  0  0  0  0  0  0  0  0  0  0  0
    4.9776   -1.4948   -1.6945 H   0  0  0  0  0  0  0  0  0  0  0  0
    2.3092   -2.3781   -2.0920 H   0  0  0  0  0  0  0  0  0  0  0  0
    2.2014   -3.9704    0.2848 H   0  0  0  0  0  0  0  0  0  0  0  0
    1.0794   -2.6589    0.6286 H   0  0  0  0  0  0  0  0  0  0  0  0
   -0.2819   -3.4822   -1.4347 H   0  0  0  0  0  0  0  0  0  0  0  0
    0.9684   -4.7753   -1.6198 H   0  0  0  0  0  0  0  0  0  0  0  0
    0.6876   -5.4924    0.6906 H   0  0  0  0  0  0  0  0  0  0  0  0
   -0.5413   -4.2553    0.9649 H   0  0  0  0  0  0  0  0  0  0  0  0
   -1.4578   -6.5692    0.4834 H   0  0  0  0  0  0  0  0  0  0  0  0
   -0.7721   -6.5519   -1.1372 H   0  0  0  0  0  0  0  0  0  0  0  0
   -2.1169   -4.4023   -1.6549 H   0  0  0  0  0  0  0  0  0  0  0  0
   -2.9497   -4.7970    1.2659 H   0  0  0  0  0  0  0  0  0  0  0  0
   -2.7422   -1.9770    1.7960 H   0  0  0  0  0  0  0  0  0  0  0  0
   -5.3072   -0.7395    0.7863 H   0  0  0  0  0  0  0  0  0  0  0  0
   -4.0402    1.9168    0.9410 H   0  0  0  0  0  0  0  0  0  0  0  0
   -2.8422    2.1900   -1.7808 H   0  0  0  0  0  0  0  0  0  0  0  0
   -0.6636    2.5749   -1.9736 H   0  0  0  0  0  0  0  0  0  0  0  0
    2.6321    2.2007    1.9252 H   0  0  0  0  0  0  0  0  0  0  0  0
    4.4712    2.0144   -1.8102 H   0  0  0  0  0  0  0  0  0  0  0  0
    5.4823    2.9819   -0.7651 H   0  0  0  0  0  0  0  0  0  0  0  0
    3.9066    3.6087   -1.3174 H   0  0  0  0  0  0  0  0  0  0  0  0
    4.5187    3.6834    2.2030 H   0  0  0  0  0  0  0  0  0  0  0  0
    2.9626    4.2637    2.7678 H   0  0  0  0  0  0  0  0  0  0  0  0
    2.0019    6.4099    1.5432 H   0  0  0  0  0  0  0  0  0  0  0  0
    3.1505    8.3534    0.1205 H   0  0  0  0  0  0  0  0  0  0  0  0
    5.7591    5.1007    0.2269 H   0  0  0  0  0  0  0  0  0  0  0  0
    2.0669    1.0994   -0.8556 H   0  0  0  0  0  0  0  0  0  0  0  0
    0.5978    1.1782   -1.8792 H   0  0  0  0  0  0  0  0  0  0  0  0
    1.9656    2.3064   -2.1801 H   0  0  0  0  0  0  0  0  0  0  0  0
   -0.2514    4.9643   -2.1730 H   0  0  0  0  0  0  0  0  0  0  0  0
   -1.8915    4.4063   -1.9465 H   0  0  0  0  0  0  0  0  0  0  0  0
   -3.1935    4.7178   -0.0290 H   0  0  0  0  0  0  0  0  0  0  0  0
   -3.9110    6.3332    1.5873 H   0  0  0  0  0  0  0  0  0  0  0  0
    0.5626    6.6193   -0.3635 H   0  0  0  0  0  0  0  0  0  0  0  0
    0.9729    8.6306    1.0231 H   0  0  0  0  0  0  0  0  0  0  0  0
    0.2093   10.2750    2.6906 H   0  0  0  0  0  0  0  0  0  0  0  0
   -2.0119   10.1220    3.6509 H   0  0  0  0  0  0  0  0  0  0  0  0
   -3.5077    8.3024    2.9440 H   0  0  0  0  0  0  0  0  0  0  0  0
   -5.9710    1.0177   -0.1547 H   0  0  0  0  0  0  0  0  0  0  0  0
   -5.5315    2.4390   -1.1036 H   0  0  0  0  0  0  0  0  0  0  0  0
   -4.8282   -0.4108   -1.7286 H   0  0  0  0  0  0  0  0  0  0  0  0
   -4.2240    1.0011   -2.6880 H   0  0  0  0  0  0  0  0  0  0  0  0
   -6.2535    0.0658   -3.7370 H   0  0  0  0  0  0  0  0  0  0  0  0
   -6.6122    1.7146   -3.0289 H   0  0  0  0  0  0  0  0  0  0  0  0
   -9.7447    1.2257   -3.9036 H   0  0  0  0  0  0  0  0  0  0  0  0
   -8.5330    2.3561   -3.2880 H   0  0  0  0  0  0  0  0  0  0  0  0
  -10.1332    0.6292   -0.6758 H   0  0  0  0  0  0  0  0  0  0  0  0
   -9.9651   -0.9970   -1.5360 H   0  0  0  0  0  0  0  0  0  0  0  0
   -4.7170   -1.8656    3.2733 H   0  0  0  0  0  0  0  0  0  0  0  0
   -4.1980   -3.5137    2.9811 H   0  0  0  0  0  0  0  0  0  0  0  0
   -6.9607   -0.9322    2.5127 H   0  0  0  0  0  0  0  0  0  0  0  0
   -9.1605   -1.9949    1.7611 H   0  0  0  0  0  0  0  0  0  0  0  0
   -5.2233   -5.5147    1.5286 H   0  0  0  0  0  0  0  0  0  0  0  0
   -6.8269   -7.2898    0.7215 H   0  0  0  0  0  0  0  0  0  0  0  0
   -9.1963   -6.7577    0.4031 H   0  0  0  0  0  0  0  0  0  0  0  0
  -10.0224   -4.5052    0.8684 H   0  0  0  0  0  0  0  0  0  0  0  0
   -5.4040   -6.0053   -1.3549 H   0  0  0  0  0  0  0  0  0  0  0  0
   -4.6067   -7.3160   -0.3450 H   0  0  0  0  0  0  0  0  0  0  0  0
    9.9383   -1.9652   -0.6604 H   0  0  0  0  0  0  0  0  0  0  0  0
   12.0965   -0.1040    0.0828 H   0  0  0  0  0  0  0  0  0  0  0  0
   12.7114   -0.9979    1.5215 H   0  0  0  0  0  0  0  0  0  0  0  0
   12.2804   -1.9341    0.0103 H   0  0  0  0  0  0  0  0  0  0  0  0
  1  2  1  0
  2  3  1  0
  3  4  1  0
  4  5  1  0
  5  6  1  0
  6  7  2  0
  6  8  1  0
  8  9  1  0
  9 10  1  0
 10 11  1  0
 11 12  2  0
 11 13  1  0
 13 14  1  0
 14 15  1  0
 15 16  1  0
 16 17  1  0
 17 18  1  0
 18 19  1  0
 19 20  1  0
 20 21  2  0
 20 22  1  0
 22 23  1  0
 23 24  1  0
 24 25  2  0
 24 26  1  0
 26 27  1  0
 27 28  1  0
 28 29  2  0
 28 30  1  0
 30 31  1  0
 31 32  1  0
 32 33  2  0
 32 34  1  0
 34 35  1  0
 35 36  1  0
 36 37  2  0
 35 38  1  0
 34 39  1  0
 39 40  1  0
 40 41  1  0
 41 42  1  0
 42 43  2  0
 43 44  1  0
 31 45  1  0
 30 46  1  0
 46 47  1  0
 47 48  2  0
 48 49  1  0
 49 50  2  0
 50 51  1  0
 51 52  2  0
 51 53  1  0
 53 54  2  0
 54 55  1  0
 55 56  2  0
 26 57  1  0
 57 58  1  0
 58 59  1  0
 59 60  1  0
 60 61  2  3
 61 62  1  0
 61 63  1  0
 22 64  1  0
 64 65  1  0
 65 66  2  0
 66 67  1  0
 67 68  1  0
 68 69  2  0
 69 70  1  0
 70 71  2  0
 71 72  1  0
 72 73  2  0
 18 74  1  0
 74 75  2  0
 74 76  1  0
  5 77  1  0
 77 78  1  0
 78 79  2  0
 78 80  1  0
 36  9  1  0
 44 40  2  0
 52 47  1  0
 69 65  1  0
 56 50  1  0
 73 68  1  0
  1 81  1  0
  1 82  1  0
  1 83  1  0
  2 84  1  0
  2 85  1  0
  3 86  1  0
  3 87  1  0
  4 88  1  0
  4 89  1  0
  5 90  1  1
  8 91  1  0
  9 92  1  6
 10 93  1  0
 10 94  1  0
 13 95  1  0
 14 96  1  0
 14 97  1  0
 15 98  1  0
 15 99  1  0
 16100  1  0
 16101  1  0
 17102  1  0
 17103  1  0
 18104  1  6
 19105  1  0
 22106  1  1
 23107  1  0
 26108  1  1
 27109  1  0
 30110  1  6
 34111  1  1
 38112  1  0
 38113  1  0
 38114  1  0
 39115  1  0
 39116  1  0
 41117  1  0
 42118  1  0
 44119  1  0
 45120  1  0
 45121  1  0
 45122  1  0
 46123  1  0
 46124  1  0
 48125  1  0
 49126  1  0
 52127  1  0
 53128  1  0
 54129  1  0
 55130  1  0
 56131  1  0
 57132  1  0
 57133  1  0
 58134  1  0
 58135  1  0
 59136  1  0
 59137  1  0
 62138  1  0
 62139  1  0
 63140  1  0
 63141  1  0
 64142  1  0
 64143  1  0
 66144  1  0
 67145  1  0
 70146  1  0
 71147  1  0
 72148  1  0
 73149  1  0
 76150  1  0
 76151  1  0
 77152  1  0
 80153  1  0
 80154  1  0
 80155  1  0
M  END
>  <Ligand ID>  (1) 
LIG0001828

>  <Ligand>  (1) 
CHEMBL3600913

>  <SMILES>  (1) 
CCCC[C@H](C(=O)N[C@H]1CC(=O)NCCCC[C@H](NC(=O)[C@@H](NC(=O)[C@@H](NC(=O)[C@H](N(C(=O)[C@@H](N(C1=O)C)Cc1[nH]cnc1)C)Cc1ccc2c(c1)cccc2)CCCN=C(N)N)Cc1c[nH]c2c1cccc2)C(=O)N)NC(=O)C

>  <CID>  (1) 
122184632.0

>  <ChEMBL ID>  (1) 
nan

>  <InChiKey>  (1) 
HBAGIZNHOXCGJI-YAHXOJCFSA-N

>  <InChi>  (1) 
InChI=1S/C56H75N15O9/c1-5-6-17-42(65-33(2)72)50(75)69-45-29-48(73)61-23-12-11-19-41(49(57)74)66-52(77)44(27-37-30-63-40-18-10-9-16-39(37)40)68-51(76)43(20-13-24-62-56(58)59)67-53(78)46(26-34-21-22-35-14-7-8-15-36(35)25-34)70(3)55(80)47(71(4)54(45)79)28-38-31-60-32-64-38/h7-10,14-16,18,21-22,25,30-32,41-47,63H,5-6,11-13,17,19-20,23-24,26-29H2,1-4H3,(H2,57,74)(H,60,64)(H,61,73)(H,65,72)(H,66,77)(H,67,78)(H,68,76)(H,69,75)(H4,58,59,62)/t41-,42+,43-,44-,45-,46+,47-/m0/s1

>  <IUPAC Name>  (1) 
(3S,6S,9R,12S,15S,23S)-15-[[(2R)-2-acetamidohexanoyl]amino]-6-[3-(diaminomethylideneamino)propyl]-12-(1H-imidazol-5-ylmethyl)-3-(1H-indol-3-ylmethyl)-10,13-dimethyl-9-(naphthalen-2-ylmethyl)-2,5,8,11,14,17-hexaoxo-1,4,7,10,13,18-hexazacyclotricosane-23-carboxamide

$$$$
