
     RDKit          3D

 32 32  0  0  0  0  0  0  0  0999 V2000
    4.2135    0.1564    1.6455 N   0  0  0  0  0  0  0  0  0  0  0  0
    3.8557   -0.2172    0.2873 C   0  0  0  0  0  0  0  0  0  0  0  0
    2.4388    0.1913   -0.0659 C   0  0  1  0  0  0  0  0  0  0  0  0
    2.0209   -0.1721   -1.4579 C   0  0  0  0  0  0  0  0  0  0  0  0
    1.4512   -0.8819   -0.1863 C   0  0  2  0  0  0  0  0  0  0  0  0
   -0.0156   -0.6585   -0.0123 C   0  0  0  0  0  0  0  0  0  0  0  0
   -0.8238   -1.7455    0.3076 C   0  0  0  0  0  0  0  0  0  0  0  0
   -2.1828   -1.5638    0.4735 C   0  0  0  0  0  0  0  0  0  0  0  0
   -2.7542   -0.3123    0.3257 C   0  0  0  0  0  0  0  0  0  0  0  0
   -1.9211    0.7408    0.0085 C   0  0  0  0  0  0  0  0  0  0  0  0
   -0.5570    0.5992   -0.1656 C   0  0  0  0  0  0  0  0  0  0  0  0
   -2.5393    2.0937   -0.1511 C   0  0  0  0  0  0  0  0  0  0  0  0
   -4.2012   -0.1151    0.5017 C   0  0  0  0  0  0  0  0  0  0  0  0
    0.6853    0.0000    0.0000 Cl  0  0  0  0  0  0  0  0  0  0  0  0
    4.9181   -0.5412    1.9943 H   0  0  0  0  0  0  0  0  0  0  0  0
    4.7285    1.0783    1.6452 H   0  0  0  0  0  0  0  0  0  0  0  0
    4.6107    0.2538   -0.3727 H   0  0  0  0  0  0  0  0  0  0  0  0
    3.9576   -1.3087    0.1727 H   0  0  0  0  0  0  0  0  0  0  0  0
    2.1632    1.2155    0.3160 H   0  0  0  0  0  0  0  0  0  0  0  0
    1.3586    0.5695   -1.9492 H   0  0  0  0  0  0  0  0  0  0  0  0
    2.6628   -0.8015   -2.0880 H   0  0  0  0  0  0  0  0  0  0  0  0
    1.7930   -1.9206   -0.0442 H   0  0  0  0  0  0  0  0  0  0  0  0
   -0.4362   -2.7376    0.4343 H   0  0  0  0  0  0  0  0  0  0  0  0
   -2.8563   -2.3811    0.7237 H   0  0  0  0  0  0  0  0  0  0  0  0
    0.0800    1.4600   -0.4184 H   0  0  0  0  0  0  0  0  0  0  0  0
   -3.2675    2.1207   -0.9896 H   0  0  0  0  0  0  0  0  0  0  0  0
   -3.1139    2.3265    0.7695 H   0  0  0  0  0  0  0  0  0  0  0  0
   -1.7914    2.8708   -0.3381 H   0  0  0  0  0  0  0  0  0  0  0  0
   -4.5942   -0.9917    1.0747 H   0  0  0  0  0  0  0  0  0  0  0  0
   -4.7399   -0.1237   -0.4863 H   0  0  0  0  0  0  0  0  0  0  0  0
   -4.4583    0.7961    1.0655 H   0  0  0  0  0  0  0  0  0  0  0  0
   -0.6853    0.0000    0.0000 H   0  0  0  0  0  0  0  0  0  0  0  0
  1  2  1  0
  2  3  1  0
  3  4  1  0
  4  5  1  0
  5  6  1  0
  6  7  2  0
  7  8  1  0
  8  9  2  0
  9 10  1  0
 10 11  2  0
 10 12  1  0
  9 13  1  0
  5  3  1  0
 11  6  1  0
  1 15  1  0
  1 16  1  0
  2 17  1  0
  2 18  1  0
  3 19  1  1
  4 20  1  0
  4 21  1  0
  5 22  1  6
  7 23  1  0
  8 24  1  0
 11 25  1  0
 12 26  1  0
 12 27  1  0
 12 28  1  0
 13 29  1  0
 13 30  1  0
 13 31  1  0
 14 32  1  0
M  END
>  <Ligand ID>  (1) 
LIG0003607

>  <Ligand>  (1) 
CHEMBL475643

>  <SMILES>  (1) 
NC[C@H]1C[C@@H]1c1ccc(c(c1)C)C.Cl

>  <CID>  (1) 
44572179.0

>  <ChEMBL ID>  (1) 
nan

>  <InChiKey>  (1) 
GOMXRULDHAGFRS-MNMPKAIFSA-N

>  <InChi>  (1) 
InChI=1S/C12H17N.ClH/c1-8-3-4-10(5-9(8)2)12-6-11(12)7-13;/h3-5,11-12H,6-7,13H2,1-2H3;1H/t11-,12-;/m1./s1

>  <IUPAC Name>  (1) 
[(1S,2S)-2-(3,4-dimethylphenyl)cyclopropyl]methanamine;hydrochloride

$$$$
