
     RDKit          3D

 55 58  0  0  0  0  0  0  0  0999 V2000
    1.4230    5.0527    1.7512 C   0  0  0  0  0  0  0  0  0  0  0  0
    0.5366    4.3950    0.7151 C   0  0  0  0  0  0  0  0  0  0  0  0
    0.5404    3.0099    0.7936 O   0  0  0  0  0  0  0  0  0  0  0  0
   -0.5206    2.1564    0.9440 C   0  0  0  0  0  0  0  0  0  0  0  0
   -1.8387    2.5316    1.0491 C   0  0  0  0  0  0  0  0  0  0  0  0
   -2.8669    1.6161    1.1999 C   0  0  0  0  0  0  0  0  0  0  0  0
   -2.5964    0.2638    1.2509 C   0  0  0  0  0  0  0  0  0  0  0  0
   -1.2780   -0.1290    1.1467 C   0  0  0  0  0  0  0  0  0  0  0  0
   -0.2523    0.8000    0.9954 C   0  0  0  0  0  0  0  0  0  0  0  0
    1.0646    0.2698    0.8992 N   0  0  0  0  0  0  0  0  0  0  0  0
    1.6050   -0.0638   -0.3637 C   0  0  0  0  0  0  0  0  0  0  0  0
    0.9406    0.0991   -1.4185 O   0  0  0  0  0  0  0  0  0  0  0  0
    2.9437   -0.5993   -0.4253 C   0  0  0  0  0  0  0  0  0  0  0  0
    3.6840   -0.9930   -1.4882 C   0  0  0  0  0  0  0  0  0  0  0  0
    4.9253   -1.4649   -1.2851 C   0  0  0  0  0  0  0  0  0  0  0  0
    5.3899   -1.5272   -0.0038 C   0  0  0  0  0  0  0  0  0  0  0  0
    4.0173   -0.8875    1.0158 S   0  0  0  0  0  0  0  0  0  0  0  0
    6.6249   -1.9790    0.3853 C   0  0  0  0  0  0  0  0  0  0  0  0
    7.5215   -2.4242   -0.5687 C   0  0  0  0  0  0  0  0  0  0  0  0
    7.0875   -2.3766   -1.8778 C   0  0  0  0  0  0  0  0  0  0  0  0
    5.8467   -1.9214   -2.2557 C   0  0  0  0  0  0  0  0  0  0  0  0
   -3.9138   -0.8609    1.4414 S   0  0  0  0  0  0  0  0  0  0  0  0
   -3.4119   -2.0048    2.2814 O   0  0  0  0  0  0  0  0  0  0  0  0
   -4.9917   -0.1752    2.2395 O   0  0  0  0  0  0  0  0  0  0  0  0
   -4.5750   -1.3869   -0.0307 N   0  0  0  0  0  0  0  0  0  0  0  0
   -3.6757   -2.0860   -0.8788 C   0  0  0  0  0  0  0  0  0  0  0  0
   -4.2472   -3.1091   -1.7867 C   0  0  0  0  0  0  0  0  0  0  0  0
   -5.5795   -3.4166   -1.5960 O   0  0  0  0  0  0  0  0  0  0  0  0
   -5.8169   -3.4281   -0.2216 C   0  0  0  0  0  0  0  0  0  0  0  0
   -5.8604   -1.9555    0.1714 C   0  0  0  0  0  0  0  0  0  0  0  0
    1.0418    4.9024   -0.6352 C   0  0  0  0  0  0  0  0  0  0  0  0
    2.4569    4.9893    1.3559 H   0  0  0  0  0  0  0  0  0  0  0  0
    1.1823    6.1014    1.9177 H   0  0  0  0  0  0  0  0  0  0  0  0
    1.3981    4.4335    2.6854 H   0  0  0  0  0  0  0  0  0  0  0  0
   -0.5021    4.7673    0.7936 H   0  0  0  0  0  0  0  0  0  0  0  0
   -2.1040    3.5609    1.0159 H   0  0  0  0  0  0  0  0  0  0  0  0
   -3.8953    1.9430    1.2800 H   0  0  0  0  0  0  0  0  0  0  0  0
   -1.0583   -1.2024    1.1868 H   0  0  0  0  0  0  0  0  0  0  0  0
    1.5898    0.1470    1.7967 H   0  0  0  0  0  0  0  0  0  0  0  0
    3.2306   -0.9108   -2.5147 H   0  0  0  0  0  0  0  0  0  0  0  0
    6.8584   -1.9708    1.4473 H   0  0  0  0  0  0  0  0  0  0  0  0
    8.4912   -2.7790   -0.2641 H   0  0  0  0  0  0  0  0  0  0  0  0
    7.7747   -2.7202   -2.6348 H   0  0  0  0  0  0  0  0  0  0  0  0
    5.6180   -1.9303   -3.3045 H   0  0  0  0  0  0  0  0  0  0  0  0
   -2.8819   -2.6101   -0.2689 H   0  0  0  0  0  0  0  0  0  0  0  0
   -3.0942   -1.3221   -1.4490 H   0  0  0  0  0  0  0  0  0  0  0  0
   -3.6673   -4.0709   -1.7956 H   0  0  0  0  0  0  0  0  0  0  0  0
   -4.1717   -2.7296   -2.8388 H   0  0  0  0  0  0  0  0  0  0  0  0
   -6.7454   -3.9669    0.0422 H   0  0  0  0  0  0  0  0  0  0  0  0
   -4.9162   -3.8724    0.2520 H   0  0  0  0  0  0  0  0  0  0  0  0
   -6.6655   -1.4696   -0.4158 H   0  0  0  0  0  0  0  0  0  0  0  0
   -6.1358   -1.9035    1.2379 H   0  0  0  0  0  0  0  0  0  0  0  0
    1.7511    4.2270   -1.1165 H   0  0  0  0  0  0  0  0  0  0  0  0
    0.1828    5.0915   -1.3347 H   0  0  0  0  0  0  0  0  0  0  0  0
    1.5358    5.8899   -0.5179 H   0  0  0  0  0  0  0  0  0  0  0  0
  1  2  1  0
  2  3  1  0
  3  4  1  0
  4  5  2  0
  5  6  1  0
  6  7  2  0
  7  8  1  0
  8  9  2  0
  9 10  1  0
 10 11  1  0
 11 12  2  0
 11 13  1  0
 13 14  2  0
 14 15  1  0
 15 16  2  0
 16 17  1  0
 16 18  1  0
 18 19  2  0
 19 20  1  0
 20 21  2  0
  7 22  1  0
 22 23  2  0
 22 24  2  0
 22 25  1  0
 25 26  1  0
 26 27  1  0
 27 28  1  0
 28 29  1  0
 29 30  1  0
  2 31  1  0
  9  4  1  0
 17 13  1  0
 30 25  1  0
 21 15  1  0
  1 32  1  0
  1 33  1  0
  1 34  1  0
  2 35  1  0
  5 36  1  0
  6 37  1  0
  8 38  1  0
 10 39  1  0
 14 40  1  0
 18 41  1  0
 19 42  1  0
 20 43  1  0
 21 44  1  0
 26 45  1  0
 26 46  1  0
 27 47  1  0
 27 48  1  0
 29 49  1  0
 29 50  1  0
 30 51  1  0
 30 52  1  0
 31 53  1  0
 31 54  1  0
 31 55  1  0
M  END
>  <Ligand ID>  (1) 
LIG0001538

>  <Ligand>  (1) 
MLS-0435536.0001

>  <SMILES>  (1) 
CC(Oc1ccc(cc1NC(=O)c1cc2c(s1)cccc2)S(=O)(=O)N1CCOCC1)C

>  <CID>  (1) 
16282645.0

>  <ChEMBL ID>  (1) 
nan

>  <InChiKey>  (1) 
ZUORCZYEOXPHGZ-UHFFFAOYSA-N

>  <InChi>  (1) 
InChI=1S/C22H24N2O5S2/c1-15(2)29-19-8-7-17(31(26,27)24-9-11-28-12-10-24)14-18(19)23-22(25)21-13-16-5-3-4-6-20(16)30-21/h3-8,13-15H,9-12H2,1-2H3,(H,23,25)

>  <IUPAC Name>  (1) 
N-(5-morpholin-4-ylsulfonyl-2-propan-2-yloxyphenyl)-1-benzothiophene-2-carboxamide

$$$$
