
     RDKit          3D

 85 92  0  0  0  0  0  0  0  0999 V2000
    0.6564    4.5731    1.0905 C   0  0  0  0  0  0  0  0  0  0  0  0
    1.1183    3.3299    0.7668 O   0  0  0  0  0  0  0  0  0  0  0  0
    0.1893    2.3250    0.6641 C   0  0  2  0  0  0  0  0  0  0  0  0
   -0.5654    2.1042    1.9402 C   0  0  0  0  0  0  0  0  0  0  0  0
   -1.3268    0.8053    1.9444 C   0  0  0  0  0  0  0  0  0  0  0  0
   -1.3163    0.2524    0.5313 C   0  0  2  0  0  0  0  0  0  0  0  0
    0.1170   -0.1833    0.3250 C   0  0  0  0  0  0  0  0  0  0  0  0
    0.9281    1.0905    0.1938 C   0  0  2  0  0  0  0  0  0  0  0  0
    2.3492    0.9643    0.6883 C   0  0  1  0  0  0  0  0  0  0  0  0
    2.8457   -0.2962    0.0698 C   0  0  0  0  0  0  0  0  0  0  0  0
    4.2004   -0.7753    0.3145 C   0  0  0  0  0  0  0  0  0  0  0  0
    4.3920   -2.0482   -0.4893 C   0  0  0  0  0  0  0  0  0  0  0  0
    5.6545   -2.6098   -0.3792 C   0  0  0  0  0  0  0  0  0  0  0  0
    5.9053   -3.7703   -1.0802 C   0  0  0  0  0  0  0  0  0  0  0  0
    4.9067   -4.3290   -1.8585 C   0  0  0  0  0  0  0  0  0  0  0  0
    3.6454   -3.7581   -1.9616 C   0  0  0  0  0  0  0  0  0  0  0  0
    3.3909   -2.5862   -1.2542 C   0  0  0  0  0  0  0  0  0  0  0  0
    4.3035   -1.2651    1.7718 C   0  0  0  0  0  0  0  0  0  0  0  0
    5.3259    0.1113   -0.0671 C   0  0  0  0  0  0  0  0  0  0  0  0
    3.0025    2.0629    0.0501 O   0  0  0  0  0  0  0  0  0  0  0  0
    2.5005    1.1252    2.1505 C   0  0  0  0  0  0  0  0  0  0  0  0
   -1.7272    1.3350   -0.4070 C   0  0  2  0  0  0  0  0  0  0  0  0
   -0.8270    2.5662   -0.4205 C   0  0  1  0  0  0  0  0  0  0  0  0
   -1.6897    3.6527   -0.2923 O   0  0  0  0  0  0  0  0  0  0  0  0
   -2.9141    3.2712    0.2375 C   0  0  0  0  0  0  0  0  0  0  0  0
   -2.9400    1.9188    0.2243 C   0  0  0  0  0  0  0  0  0  0  0  0
   -3.9085    1.0863    0.6510 C   0  0  0  0  0  0  0  0  0  0  0  0
   -3.7181   -0.3744    0.6350 C   0  0  0  0  0  0  0  0  0  0  0  0
   -2.3314   -0.8656    0.3383 C   0  0  1  0  0  0  0  0  0  0  0  0
   -2.2377   -1.2598   -1.0459 N   0  0  0  0  0  0  0  0  0  0  0  0
   -2.7618   -0.3018   -1.9434 C   0  0  0  0  0  0  0  0  0  0  0  0
   -1.9751    0.9684   -1.8139 C   0  0  0  0  0  0  0  0  0  0  0  0
   -2.2284   -2.6093   -1.3675 C   0  0  0  0  0  0  0  0  0  0  0  0
   -3.4540   -3.4201   -1.1541 C   0  0  0  0  0  0  0  0  0  0  0  0
   -4.7452   -3.1609   -1.7939 C   0  0  0  0  0  0  0  0  0  0  0  0
   -3.9436   -4.2606   -2.3673 C   0  0  0  0  0  0  0  0  0  0  0  0
   -5.0528    1.7072    1.1747 C   0  0  0  0  0  0  0  0  0  0  0  0
   -5.0995    3.1054    1.2157 C   0  0  0  0  0  0  0  0  0  0  0  0
   -4.0442    3.8977    0.7542 C   0  0  0  0  0  0  0  0  0  0  0  0
   -4.0722    5.2732    0.7878 O   0  0  0  0  0  0  0  0  0  0  0  0
    1.5723    5.2409    1.1341 H   0  0  0  0  0  0  0  0  0  0  0  0
    0.0238    5.0705    0.3248 H   0  0  0  0  0  0  0  0  0  0  0  0
    0.2508    4.5919    2.1041 H   0  0  0  0  0  0  0  0  0  0  0  0
   -1.3317    2.9189    2.0157 H   0  0  0  0  0  0  0  0  0  0  0  0
    0.0347    2.2379    2.8674 H   0  0  0  0  0  0  0  0  0  0  0  0
   -0.7044    0.0991    2.5727 H   0  0  0  0  0  0  0  0  0  0  0  0
   -2.2898    0.8472    2.4299 H   0  0  0  0  0  0  0  0  0  0  0  0
    0.4042   -0.7422    1.2523 H   0  0  0  0  0  0  0  0  0  0  0  0
    0.1560   -0.8278   -0.5727 H   0  0  0  0  0  0  0  0  0  0  0  0
    1.0463    1.2170   -0.9245 H   0  0  0  0  0  0  0  0  0  0  0  0
    2.6238   -0.1831   -1.0394 H   0  0  0  0  0  0  0  0  0  0  0  0
    2.1402   -1.1211    0.3666 H   0  0  0  0  0  0  0  0  0  0  0  0
    6.4286   -2.1596    0.2354 H   0  0  0  0  0  0  0  0  0  0  0  0
    6.8986   -4.2285   -1.0046 H   0  0  0  0  0  0  0  0  0  0  0  0
    5.1722   -5.2417   -2.3835 H   0  0  0  0  0  0  0  0  0  0  0  0
    2.8961   -4.2292   -2.5813 H   0  0  0  0  0  0  0  0  0  0  0  0
    2.4083   -2.1534   -1.3417 H   0  0  0  0  0  0  0  0  0  0  0  0
    4.6498   -2.3492    1.8055 H   0  0  0  0  0  0  0  0  0  0  0  0
    5.0830   -0.7375    2.3366 H   0  0  0  0  0  0  0  0  0  0  0  0
    3.3108   -1.3254    2.2592 H   0  0  0  0  0  0  0  0  0  0  0  0
    5.0716    1.1025   -0.4551 H   0  0  0  0  0  0  0  0  0  0  0  0
    5.9960    0.1886    0.8380 H   0  0  0  0  0  0  0  0  0  0  0  0
    6.0223   -0.3151   -0.8403 H   0  0  0  0  0  0  0  0  0  0  0  0
    2.8462    1.9447   -0.9351 H   0  0  0  0  0  0  0  0  0  0  0  0
    3.5346    0.9936    2.5260 H   0  0  0  0  0  0  0  0  0  0  0  0
    1.8495    0.4952    2.7846 H   0  0  0  0  0  0  0  0  0  0  0  0
    2.3207    2.2281    2.3663 H   0  0  0  0  0  0  0  0  0  0  0  0
   -0.3151    2.6705   -1.4165 H   0  0  0  0  0  0  0  0  0  0  0  0
   -4.0947   -0.8356    1.6082 H   0  0  0  0  0  0  0  0  0  0  0  0
   -4.4868   -0.7615   -0.1000 H   0  0  0  0  0  0  0  0  0  0  0  0
   -2.0715   -1.7182    0.9618 H   0  0  0  0  0  0  0  0  0  0  0  0
   -3.8574   -0.1329   -1.9068 H   0  0  0  0  0  0  0  0  0  0  0  0
   -2.5858   -0.7011   -2.9823 H   0  0  0  0  0  0  0  0  0  0  0  0
   -0.9984    0.7563   -2.3553 H   0  0  0  0  0  0  0  0  0  0  0  0
   -2.4819    1.8287   -2.3153 H   0  0  0  0  0  0  0  0  0  0  0  0
   -1.3644   -3.1011   -0.8299 H   0  0  0  0  0  0  0  0  0  0  0  0
   -1.9151   -2.6996   -2.4506 H   0  0  0  0  0  0  0  0  0  0  0  0
   -3.4319   -4.0472   -0.2118 H   0  0  0  0  0  0  0  0  0  0  0  0
   -4.9319   -2.2236   -2.3511 H   0  0  0  0  0  0  0  0  0  0  0  0
   -5.6449   -3.4699   -1.1892 H   0  0  0  0  0  0  0  0  0  0  0  0
   -4.2303   -5.2976   -2.2037 H   0  0  0  0  0  0  0  0  0  0  0  0
   -3.4643   -4.0240   -3.3440 H   0  0  0  0  0  0  0  0  0  0  0  0
   -5.8616    1.0935    1.5299 H   0  0  0  0  0  0  0  0  0  0  0  0
   -5.9843    3.6117    1.6194 H   0  0  0  0  0  0  0  0  0  0  0  0
   -3.2464    5.8369    0.9727 H   0  0  0  0  0  0  0  0  0  0  0  0
  1  2  1  0
  3  2  1  1
  3  4  1  0
  4  5  1  0
  6  5  1  1
  6  7  1  0
  7  8  1  0
  8  9  1  0
  9 10  1  0
 10 11  1  0
 11 12  1  0
 12 13  2  0
 13 14  1  0
 14 15  2  0
 15 16  1  0
 16 17  2  0
 11 18  1  0
 11 19  1  0
  9 20  1  6
  9 21  1  0
  6 22  1  0
 22 23  1  0
 23 24  1  0
 24 25  1  0
 25 26  2  0
 26 27  1  0
 27 28  1  0
 28 29  1  0
 29 30  1  0
 30 31  1  0
 31 32  1  0
 30 33  1  0
 33 34  1  0
 34 35  1  0
 35 36  1  0
 27 37  2  0
 37 38  1  0
 38 39  2  0
 39 40  1  0
  8  3  1  0
 17 12  1  0
 22 32  1  6
 36 34  1  0
 23  3  1  0
 39 25  1  0
 29  6  1  0
 26 22  1  0
  1 41  1  0
  1 42  1  0
  1 43  1  0
  4 44  1  0
  4 45  1  0
  5 46  1  0
  5 47  1  0
  7 48  1  0
  7 49  1  0
  8 50  1  6
 10 51  1  0
 10 52  1  0
 13 53  1  0
 14 54  1  0
 15 55  1  0
 16 56  1  0
 17 57  1  0
 18 58  1  0
 18 59  1  0
 18 60  1  0
 19 61  1  0
 19 62  1  0
 19 63  1  0
 20 64  1  0
 21 65  1  0
 21 66  1  0
 21 67  1  0
 23 68  1  6
 28 69  1  0
 28 70  1  0
 29 71  1  1
 31 72  1  0
 31 73  1  0
 32 74  1  0
 32 75  1  0
 33 76  1  0
 33 77  1  0
 34 78  1  0
 35 79  1  0
 35 80  1  0
 36 81  1  0
 36 82  1  0
 37 83  1  0
 38 84  1  0
 40 85  1  0
M  END
>  <Ligand ID>  (1) 
LIG0002125

>  <Ligand>  (1) 
CHEMBL1834411

>  <SMILES>  (1) 
CO[C@]12CC[C@]3(C[C@@H]1[C@@](CC(c1ccccc1)(C)C)(O)C)[C@@]14[C@H]2Oc2c4c(C[C@H]3N(CC1)CC1CC1)ccc2O

>  <CID>  (1) 
54756990.0

>  <ChEMBL ID>  (1) 
nan

>  <InChiKey>  (1) 
GJLNONMXNYAOTE-MMLCPGSSSA-N

>  <InChi>  (1) 
InChI=1S/C35H45NO4/c1-31(2,24-8-6-5-7-9-24)21-32(3,38)26-19-33-14-15-35(26,39-4)30-34(33)16-17-36(20-22-10-11-22)27(33)18-23-12-13-25(37)29(40-30)28(23)34/h5-9,12-13,22,26-27,30,37-38H,10-11,14-21H2,1-4H3/t26-,27-,30-,32-,33-,34+,35-/m1/s1

>  <IUPAC Name>  (1) 
(1S,2S,6R,14R,15R,16R)-5-(cyclopropylmethyl)-16-[(2R)-2-hydroxy-4-methyl-4-phenylpentan-2-yl]-15-methoxy-13-oxa-5-azahexacyclo[13.2.2.12,8.01,6.02,14.012,20]icosa-8(20),9,11-trien-11-ol

$$$$
