
     RDKit          3D

 53 55  0  0  0  0  0  0  0  0999 V2000
    6.3142    1.0729    0.7202 C   0  0  0  0  0  0  0  0  0  0  0  0
    6.4461   -0.0389   -0.2772 C   0  0  0  0  0  0  0  0  0  0  0  0
    5.6109   -1.2380   -0.0680 C   0  0  0  0  0  0  0  0  0  0  0  0
    4.1288   -1.0992   -0.1138 C   0  0  0  0  0  0  0  0  0  0  0  0
    3.4813   -0.1969    0.8603 C   0  0  0  0  0  0  0  0  0  0  0  0
    1.9755   -0.1999    0.7149 C   0  0  0  0  0  0  0  0  0  0  0  0
    1.2146   -1.0976    1.4299 C   0  0  0  0  0  0  0  0  0  0  0  0
   -0.1630   -1.1146    1.3092 C   0  0  0  0  0  0  0  0  0  0  0  0
   -0.8351   -2.0586    2.0749 O   0  0  0  0  0  0  0  0  0  0  0  0
   -0.8385   -0.2286    0.4628 C   0  0  0  0  0  0  0  0  0  0  0  0
   -0.0193    0.6607   -0.2383 C   0  0  0  0  0  0  0  0  0  0  0  0
    1.3363    0.6857   -0.1269 C   0  0  0  0  0  0  0  0  0  0  0  0
   -0.5900    1.6047   -1.1230 O   0  0  0  0  0  0  0  0  0  0  0  0
   -2.0151    1.7972   -1.0222 C   0  0  0  0  0  0  0  0  0  0  0  0
   -2.7257    0.4984   -0.8726 C   0  0  1  0  0  0  0  0  0  0  0  0
   -2.2831   -0.2656    0.3519 C   0  0  1  0  0  0  0  0  0  0  0  0
   -2.9250   -1.5999    0.3959 C   0  0  0  0  0  0  0  0  0  0  0  0
   -4.2809   -1.5814    0.3448 C   0  0  0  0  0  0  0  0  0  0  0  0
   -5.0550   -2.8208    0.3791 C   0  0  0  0  0  0  0  0  0  0  0  0
   -4.8762   -0.2102    0.2529 C   0  0  0  0  0  0  0  0  0  0  0  0
   -4.2099    0.5891   -0.8445 C   0  0  0  0  0  0  0  0  0  0  0  0
   -2.4058    2.4392   -2.3369 C   0  0  0  0  0  0  0  0  0  0  0  0
   -2.2806    2.7744    0.0724 C   0  0  0  0  0  0  0  0  0  0  0  0
    7.3458    1.4704    0.9885 H   0  0  0  0  0  0  0  0  0  0  0  0
    5.7902    1.9602    0.2815 H   0  0  0  0  0  0  0  0  0  0  0  0
    5.8987    0.7118    1.6625 H   0  0  0  0  0  0  0  0  0  0  0  0
    7.5337   -0.3628   -0.2633 H   0  0  0  0  0  0  0  0  0  0  0  0
    6.2971    0.3653   -1.3310 H   0  0  0  0  0  0  0  0  0  0  0  0
    5.9394   -1.7484    0.8829 H   0  0  0  0  0  0  0  0  0  0  0  0
    5.8832   -1.9613   -0.9022 H   0  0  0  0  0  0  0  0  0  0  0  0
    3.8797   -0.6813   -1.1449 H   0  0  0  0  0  0  0  0  0  0  0  0
    3.6930   -2.1284   -0.0860 H   0  0  0  0  0  0  0  0  0  0  0  0
    3.7803    0.8833    0.7216 H   0  0  0  0  0  0  0  0  0  0  0  0
    3.6842   -0.4820    1.9057 H   0  0  0  0  0  0  0  0  0  0  0  0
    1.7203   -1.7908    2.0895 H   0  0  0  0  0  0  0  0  0  0  0  0
   -0.5569   -3.0409    1.9273 H   0  0  0  0  0  0  0  0  0  0  0  0
    1.9455    1.3962   -0.6920 H   0  0  0  0  0  0  0  0  0  0  0  0
   -2.4208   -0.1591   -1.7402 H   0  0  0  0  0  0  0  0  0  0  0  0
   -2.7087    0.2930    1.2258 H   0  0  0  0  0  0  0  0  0  0  0  0
   -2.4076   -2.5417    0.4591 H   0  0  0  0  0  0  0  0  0  0  0  0
   -5.5199   -2.9535    1.3734 H   0  0  0  0  0  0  0  0  0  0  0  0
   -4.4089   -3.6744    0.1094 H   0  0  0  0  0  0  0  0  0  0  0  0
   -5.8940   -2.7080   -0.3482 H   0  0  0  0  0  0  0  0  0  0  0  0
   -4.8095    0.3142    1.2257 H   0  0  0  0  0  0  0  0  0  0  0  0
   -5.9528   -0.2965   -0.0131 H   0  0  0  0  0  0  0  0  0  0  0  0
   -4.5963    1.6264   -0.7980 H   0  0  0  0  0  0  0  0  0  0  0  0
   -4.6494    0.1752   -1.7994 H   0  0  0  0  0  0  0  0  0  0  0  0
   -3.4368    2.8148   -2.3033 H   0  0  0  0  0  0  0  0  0  0  0  0
   -1.7208    3.2788   -2.6218 H   0  0  0  0  0  0  0  0  0  0  0  0
   -2.3739    1.6351   -3.1163 H   0  0  0  0  0  0  0  0  0  0  0  0
   -3.0900    3.4858   -0.2331 H   0  0  0  0  0  0  0  0  0  0  0  0
   -2.4718    2.3126    1.0627 H   0  0  0  0  0  0  0  0  0  0  0  0
   -1.3772    3.4338    0.1697 H   0  0  0  0  0  0  0  0  0  0  0  0
  1  2  1  0
  2  3  1  0
  3  4  1  0
  4  5  1  0
  5  6  1  0
  6  7  2  0
  7  8  1  0
  8  9  1  0
  8 10  2  0
 10 11  1  0
 11 12  2  0
 11 13  1  0
 13 14  1  0
 14 15  1  0
 15 16  1  0
 16 17  1  0
 17 18  2  0
 18 19  1  0
 18 20  1  0
 20 21  1  0
 14 22  1  0
 14 23  1  0
 12  6  1  0
 21 15  1  0
 16 10  1  0
  1 24  1  0
  1 25  1  0
  1 26  1  0
  2 27  1  0
  2 28  1  0
  3 29  1  0
  3 30  1  0
  4 31  1  0
  4 32  1  0
  5 33  1  0
  5 34  1  0
  7 35  1  0
  9 36  1  0
 12 37  1  0
 15 38  1  6
 16 39  1  1
 17 40  1  0
 19 41  1  0
 19 42  1  0
 19 43  1  0
 20 44  1  0
 20 45  1  0
 21 46  1  0
 21 47  1  0
 22 48  1  0
 22 49  1  0
 22 50  1  0
 23 51  1  0
 23 52  1  0
 23 53  1  0
M  END
>  <Ligand ID>  (1) 
LIG0000975

>  <Ligand>  (1) 
Delta;9-tetrahydrocannabinol

>  <SMILES>  (1) 
CCCCCc1cc(O)c2c(c1)OC([C@H]1[C@H]2C=C(C)CC1)(C)C

>  <CID>  (1) 
16078.0

>  <ChEMBL ID>  (1) 
nan

>  <InChiKey>  (1) 
CYQFCXCEBYINGO-IAGOWNOFSA-N

>  <InChi>  (1) 
InChI=1S/C21H30O2/c1-5-6-7-8-15-12-18(22)20-16-11-14(2)9-10-17(16)21(3,4)23-19(20)13-15/h11-13,16-17,22H,5-10H2,1-4H3/t16-,17-/m1/s1

>  <IUPAC Name>  (1) 
(6aR,10aR)-6,6,9-trimethyl-3-pentyl-6a,7,8,10a-tetrahydrobenzo[c]chromen-1-ol

$$$$
