
     RDKit          3D

 58 62  0  0  0  0  0  0  0  0999 V2000
   -0.9839    5.7521   -0.7087 Cl  0  0  0  0  0  0  0  0  0  0  0  0
   -1.5960    4.2027   -0.1254 C   0  0  0  0  0  0  0  0  0  0  0  0
   -1.9515    4.0077    1.1863 C   0  0  0  0  0  0  0  0  0  0  0  0
   -2.4352    2.7779    1.6401 C   0  0  0  0  0  0  0  0  0  0  0  0
   -2.5616    1.7161    0.7364 C   0  0  0  0  0  0  0  0  0  0  0  0
   -2.1953    1.9378   -0.5871 C   0  0  0  0  0  0  0  0  0  0  0  0
   -1.7161    3.1778   -1.0061 C   0  0  0  0  0  0  0  0  0  0  0  0
   -3.0771    0.4096    1.2159 C   0  0  0  0  0  0  0  0  0  0  0  0
   -1.9871   -0.4498    1.7429 C   0  0  0  0  0  0  0  0  0  0  0  0
   -2.0590   -0.9920    3.0134 C   0  0  0  0  0  0  0  0  0  0  0  0
   -1.0168   -1.7689    3.4650 C   0  0  0  0  0  0  0  0  0  0  0  0
    0.0923   -2.0132    2.6728 C   0  0  0  0  0  0  0  0  0  0  0  0
    0.1860   -1.4835    1.4040 C   0  0  0  0  0  0  0  0  0  0  0  0
   -0.8638   -0.7088    0.9673 C   0  0  0  0  0  0  0  0  0  0  0  0
    1.3150   -1.7346    0.6053 C   0  0  0  0  0  0  0  0  0  0  0  0
    1.4170   -1.2304   -0.6931 N   0  0  0  0  0  0  0  0  0  0  0  0
    2.5181   -1.3809   -1.6156 C   0  0  0  0  0  0  0  0  0  0  0  0
    3.7075   -0.5887   -1.3395 C   0  0  0  0  0  0  0  0  0  0  0  0
    3.6815    0.7539   -1.7644 C   0  0  0  0  0  0  0  0  0  0  0  0
    4.7607    1.5883   -1.5790 C   0  0  0  0  0  0  0  0  0  0  0  0
    5.8812    1.1009   -0.9689 C   0  0  0  0  0  0  0  0  0  0  0  0
    5.9363   -0.1678   -0.5553 N   0  0  0  0  0  0  0  0  0  0  0  0
    4.8675   -0.9897   -0.7407 C   0  0  0  0  0  0  0  0  0  0  0  0
    7.0557    1.9886   -0.7604 C   0  0  0  0  0  0  0  0  0  0  0  0
    8.0516    1.3240   -0.0874 F   0  0  0  0  0  0  0  0  0  0  0  0
    6.6578    3.0851    0.0120 F   0  0  0  0  0  0  0  0  0  0  0  0
    7.5059    2.4927   -1.9834 F   0  0  0  0  0  0  0  0  0  0  0  0
    2.2695   -2.5366    1.2166 C   0  0  0  0  0  0  0  0  0  0  0  0
    2.1290   -3.0424    2.4902 C   0  0  0  0  0  0  0  0  0  0  0  0
    3.0492   -3.7701    2.9819 O   0  0  0  0  0  0  0  0  0  0  0  0
    1.0473   -2.7876    3.2250 N   0  0  0  0  0  0  0  0  0  0  0  0
   -3.9278   -0.3030    0.2510 C   0  0  0  0  0  0  0  0  0  0  0  0
   -5.2378    0.1512    0.0729 C   0  0  0  0  0  0  0  0  0  0  0  0
   -6.1111   -0.4534   -0.8001 C   0  0  0  0  0  0  0  0  0  0  0  0
   -5.7128   -1.5507   -1.5431 C   0  0  0  0  0  0  0  0  0  0  0  0
   -4.4258   -2.0214   -1.3883 C   0  0  0  0  0  0  0  0  0  0  0  0
   -3.5595   -1.3905   -0.4963 C   0  0  0  0  0  0  0  0  0  0  0  0
   -6.8447   -2.3026   -2.6483 Cl  0  0  0  0  0  0  0  0  0  0  0  0
   -1.8454    4.8514    1.8792 H   0  0  0  0  0  0  0  0  0  0  0  0
   -2.6985    2.6802    2.6763 H   0  0  0  0  0  0  0  0  0  0  0  0
   -2.2773    1.1553   -1.3072 H   0  0  0  0  0  0  0  0  0  0  0  0
   -1.4334    3.3312   -2.0520 H   0  0  0  0  0  0  0  0  0  0  0  0
   -3.7415    0.6372    2.1129 H   0  0  0  0  0  0  0  0  0  0  0  0
   -2.9271   -0.7916    3.6131 H   0  0  0  0  0  0  0  0  0  0  0  0
   -1.0851   -2.1951    4.4776 H   0  0  0  0  0  0  0  0  0  0  0  0
   -0.8541   -0.2574    0.0007 H   0  0  0  0  0  0  0  0  0  0  0  0
    0.6083   -0.6724   -1.0665 H   0  0  0  0  0  0  0  0  0  0  0  0
    2.1795   -1.1525   -2.6689 H   0  0  0  0  0  0  0  0  0  0  0  0
    2.8470   -2.4516   -1.6868 H   0  0  0  0  0  0  0  0  0  0  0  0
    2.7885    1.1570   -2.2552 H   0  0  0  0  0  0  0  0  0  0  0  0
    4.7693    2.6200   -1.8938 H   0  0  0  0  0  0  0  0  0  0  0  0
    4.9956   -1.9984   -0.3955 H   0  0  0  0  0  0  0  0  0  0  0  0
    3.1578   -2.7997    0.6882 H   0  0  0  0  0  0  0  0  0  0  0  0
    0.9967   -3.1940    4.1737 H   0  0  0  0  0  0  0  0  0  0  0  0
   -5.5868    1.0186    0.6457 H   0  0  0  0  0  0  0  0  0  0  0  0
   -7.1169   -0.0475   -0.8893 H   0  0  0  0  0  0  0  0  0  0  0  0
   -4.0738   -2.8831   -1.9552 H   0  0  0  0  0  0  0  0  0  0  0  0
   -2.5694   -1.8073   -0.4150 H   0  0  0  0  0  0  0  0  0  0  0  0
  1  2  1  0
  2  3  2  0
  3  4  1  0
  4  5  2  0
  5  6  1  0
  6  7  2  0
  5  8  1  0
  8  9  1  0
  9 10  2  0
 10 11  1  0
 11 12  2  0
 12 13  1  0
 13 14  2  0
 13 15  1  0
 15 16  1  0
 16 17  1  0
 17 18  1  0
 18 19  2  0
 19 20  1  0
 20 21  2  0
 21 22  1  0
 22 23  2  0
 21 24  1  0
 24 25  1  0
 24 26  1  0
 24 27  1  0
 15 28  2  0
 28 29  1  0
 29 30  2  0
 29 31  1  0
  8 32  1  0
 32 33  2  0
 33 34  1  0
 34 35  2  0
 35 36  1  0
 36 37  2  0
 35 38  1  0
  7  2  1  0
 14  9  1  0
 23 18  1  0
 37 32  1  0
 31 12  1  0
  3 39  1  0
  4 40  1  0
  6 41  1  0
  7 42  1  0
  8 43  1  0
 10 44  1  0
 11 45  1  0
 14 46  1  0
 16 47  1  0
 17 48  1  0
 17 49  1  0
 19 50  1  0
 20 51  1  0
 23 52  1  0
 28 53  1  0
 31 54  1  0
 33 55  1  0
 34 56  1  0
 36 57  1  0
 37 58  1  0
M  END
>  <Ligand ID>  (1) 
LIG0005901

>  <Ligand>  (1) 
CHEMBL3931509

>  <SMILES>  (1) 
Clc1ccc(cc1)C(c1ccc2c(c1)c(NCc1ccc(nc1)C(F)(F)F)cc(=O)[nH]2)c1ccc(cc1)Cl

>  <CID>  (1) 
118324038.0

>  <ChEMBL ID>  (1) 
nan

>  <InChiKey>  (1) 
DTGGVTYBUOQRTR-UHFFFAOYSA-N

>  <InChi>  (1) 
InChI=1S/C29H20Cl2F3N3O/c30-21-7-2-18(3-8-21)28(19-4-9-22(31)10-5-19)20-6-11-24-23(13-20)25(14-27(38)37-24)35-15-17-1-12-26(36-16-17)29(32,33)34/h1-14,16,28H,15H2,(H2,35,37,38)

>  <IUPAC Name>  (1) 
6-[bis(4-chlorophenyl)methyl]-4-[[6-(trifluoromethyl)pyridin-3-yl]methylamino]-1H-quinolin-2-one

$$$$
