
     RDKit          3D

 62 61  0  0  0  0  0  0  0  0999 V2000
   -7.9870    0.6039   -1.0963 C   0  0  0  0  0  0  0  0  0  0  0  0
   -8.7380    0.6777    0.1845 C   0  0  0  0  0  0  0  0  0  0  0  0
   -8.2566   -0.1693    1.3003 C   0  0  0  0  0  0  0  0  0  0  0  0
   -6.8968    0.0726    1.8368 C   0  0  0  0  0  0  0  0  0  0  0  0
   -5.7506   -0.0651    0.8983 C   0  0  0  0  0  0  0  0  0  0  0  0
   -4.4346    0.1748    1.6356 C   0  0  0  0  0  0  0  0  0  0  0  0
   -3.2619    0.0461    0.6873 C   0  0  0  0  0  0  0  0  0  0  0  0
   -1.9987    0.2776    1.5114 C   0  0  0  0  0  0  0  0  0  0  0  0
   -0.7637    0.1782    0.6417 C   0  0  0  0  0  0  0  0  0  0  0  0
   -0.6348   -1.1486   -0.0297 C   0  0  0  0  0  0  0  0  0  0  0  0
    0.6052   -1.2729   -0.9055 C   0  0  0  0  0  0  0  0  0  0  0  0
    1.8624   -1.1080   -0.1354 C   0  0  0  0  0  0  0  0  0  0  0  0
    3.0975   -1.2389   -0.9673 C   0  0  0  0  0  0  0  0  0  0  0  0
    3.1265   -0.1832   -2.0272 C   0  0  0  0  0  0  0  0  0  0  0  0
    4.3593   -0.3340   -2.8727 C   0  0  0  0  0  0  0  0  0  0  0  0
    5.5985   -0.2209   -2.0385 C   0  0  0  0  0  0  0  0  0  0  0  0
    5.6163    1.1224   -1.3513 C   0  0  0  0  0  0  0  0  0  0  0  0
    6.8611    1.2504   -0.5236 C   0  0  0  0  0  0  0  0  0  0  0  0
    7.9132    1.5208   -1.1512 O   0  0  0  0  0  0  0  0  0  0  0  0
    6.8358    1.0757    0.8673 O   0  0  0  0  0  0  0  0  0  0  0  0
    8.0125    1.1941    1.6381 C   0  0  0  0  0  0  0  0  0  0  0  0
    9.0650    0.1832    1.2404 C   0  0  0  0  0  0  0  0  0  0  0  0
   -8.7526    0.5333   -1.9359 H   0  0  0  0  0  0  0  0  0  0  0  0
   -7.4600    1.5435   -1.3155 H   0  0  0  0  0  0  0  0  0  0  0  0
   -7.3767   -0.3159   -1.1995 H   0  0  0  0  0  0  0  0  0  0  0  0
   -9.8074    0.3751   -0.0073 H   0  0  0  0  0  0  0  0  0  0  0  0
   -8.8212    1.7439    0.5142 H   0  0  0  0  0  0  0  0  0  0  0  0
   -8.4030   -1.2622    1.0836 H   0  0  0  0  0  0  0  0  0  0  0  0
   -8.9740    0.0083    2.1622 H   0  0  0  0  0  0  0  0  0  0  0  0
   -6.7361   -0.6759    2.6745 H   0  0  0  0  0  0  0  0  0  0  0  0
   -6.8959    1.0503    2.3769 H   0  0  0  0  0  0  0  0  0  0  0  0
   -5.7057   -1.0017    0.3581 H   0  0  0  0  0  0  0  0  0  0  0  0
   -5.8055    0.7872    0.1578 H   0  0  0  0  0  0  0  0  0  0  0  0
   -4.3915    1.1576    2.1178 H   0  0  0  0  0  0  0  0  0  0  0  0
   -4.3116   -0.6169    2.4035 H   0  0  0  0  0  0  0  0  0  0  0  0
   -3.2725   -0.9298    0.1783 H   0  0  0  0  0  0  0  0  0  0  0  0
   -3.2661    0.8654   -0.0762 H   0  0  0  0  0  0  0  0  0  0  0  0
   -2.0743    1.3170    1.8913 H   0  0  0  0  0  0  0  0  0  0  0  0
   -2.0079   -0.4003    2.3660 H   0  0  0  0  0  0  0  0  0  0  0  0
   -0.8018    0.9839   -0.1024 H   0  0  0  0  0  0  0  0  0  0  0  0
    0.1055    0.3931    1.3073 H   0  0  0  0  0  0  0  0  0  0  0  0
   -1.4918   -1.2190   -0.7616 H   0  0  0  0  0  0  0  0  0  0  0  0
   -0.7371   -2.0086    0.6384 H   0  0  0  0  0  0  0  0  0  0  0  0
    0.5361   -0.5054   -1.7123 H   0  0  0  0  0  0  0  0  0  0  0  0
    0.5520   -2.2714   -1.3829 H   0  0  0  0  0  0  0  0  0  0  0  0
    1.8569   -1.8741    0.6746 H   0  0  0  0  0  0  0  0  0  0  0  0
    1.8924   -0.0673    0.2997 H   0  0  0  0  0  0  0  0  0  0  0  0
    3.9613   -1.0250   -0.2619 H   0  0  0  0  0  0  0  0  0  0  0  0
    3.2560   -2.2540   -1.3648 H   0  0  0  0  0  0  0  0  0  0  0  0
    3.0734    0.8449   -1.6163 H   0  0  0  0  0  0  0  0  0  0  0  0
    2.2245   -0.2534   -2.6951 H   0  0  0  0  0  0  0  0  0  0  0  0
    4.3273    0.4519   -3.6761 H   0  0  0  0  0  0  0  0  0  0  0  0
    4.3194   -1.3365   -3.3823 H   0  0  0  0  0  0  0  0  0  0  0  0
    6.4899   -0.3083   -2.7289 H   0  0  0  0  0  0  0  0  0  0  0  0
    5.6224   -1.0340   -1.2928 H   0  0  0  0  0  0  0  0  0  0  0  0
    5.6266    1.9011   -2.1209 H   0  0  0  0  0  0  0  0  0  0  0  0
    4.7825    1.1933   -0.6248 H   0  0  0  0  0  0  0  0  0  0  0  0
    7.7645    1.0924    2.6970 H   0  0  0  0  0  0  0  0  0  0  0  0
    8.4418    2.2276    1.5116 H   0  0  0  0  0  0  0  0  0  0  0  0
    8.9170   -0.7759    1.8169 H   0  0  0  0  0  0  0  0  0  0  0  0
   10.0605    0.5759    1.5289 H   0  0  0  0  0  0  0  0  0  0  0  0
    9.0522   -0.0338    0.1558 H   0  0  0  0  0  0  0  0  0  0  0  0
  1  2  1  0
  2  3  1  0
  3  4  1  0
  4  5  1  0
  5  6  1  0
  6  7  1  0
  7  8  1  0
  8  9  1  0
  9 10  1  0
 10 11  1  0
 11 12  1  0
 12 13  1  0
 13 14  1  0
 14 15  1  0
 15 16  1  0
 16 17  1  0
 17 18  1  0
 18 19  2  0
 18 20  1  0
 20 21  1  0
 21 22  1  0
  1 23  1  0
  1 24  1  0
  1 25  1  0
  2 26  1  0
  2 27  1  0
  3 28  1  0
  3 29  1  0
  4 30  1  0
  4 31  1  0
  5 32  1  0
  5 33  1  0
  6 34  1  0
  6 35  1  0
  7 36  1  0
  7 37  1  0
  8 38  1  0
  8 39  1  0
  9 40  1  0
  9 41  1  0
 10 42  1  0
 10 43  1  0
 11 44  1  0
 11 45  1  0
 12 46  1  0
 12 47  1  0
 13 48  1  0
 13 49  1  0
 14 50  1  0
 14 51  1  0
 15 52  1  0
 15 53  1  0
 16 54  1  0
 16 55  1  0
 17 56  1  0
 17 57  1  0
 21 58  1  0
 21 59  1  0
 22 60  1  0
 22 61  1  0
 22 62  1  0
M  END
>  <Ligand ID>  (1) 
LIG0000553

>  <Ligand>  (1) 
Ethyl stearate

>  <SMILES>  (1) 
CCCCCCCCCCCCCCCCCC(=O)OCC

>  <CID>  (1) 
8122.0

>  <ChEMBL ID>  (1) 
nan

>  <InChiKey>  (1) 
MVLVMROFTAUDAG-UHFFFAOYSA-N

>  <InChi>  (1) 
InChI=1S/C20H40O2/c1-3-5-6-7-8-9-10-11-12-13-14-15-16-17-18-19-20(21)22-4-2/h3-19H2,1-2H3

>  <IUPAC Name>  (1) 
ethyl octadecanoate

$$$$
