
     RDKit          3D

 42 44  0  0  0  0  0  0  0  0999 V2000
   -3.9340    1.9789   -0.7935 C   0  0  0  0  0  0  0  0  0  0  0  0
   -2.7872    1.2767   -1.4880 C   0  0  0  0  0  0  0  0  0  0  0  0
   -1.4976    1.3915   -0.6464 C   0  0  0  0  0  0  0  0  0  0  0  0
   -1.7470    0.7725    0.6351 N   0  0  0  0  0  0  0  0  0  0  0  0
   -2.2965    1.4622    1.6436 N   0  0  0  0  0  0  0  0  0  0  0  0
   -2.4783    0.6770    2.7150 C   0  0  0  0  0  0  0  0  0  0  0  0
   -2.0125   -0.5638    2.3398 C   0  0  0  0  0  0  0  0  0  0  0  0
   -1.5512   -0.4791    1.0135 C   0  0  0  0  0  0  0  0  0  0  0  0
   -1.0310   -1.6476    0.3361 C   0  0  0  0  0  0  0  0  0  0  0  0
   -1.8621   -2.7708    0.2775 C   0  0  0  0  0  0  0  0  0  0  0  0
   -1.4881   -3.9455   -0.3058 C   0  0  0  0  0  0  0  0  0  0  0  0
   -0.2509   -4.0496   -0.8631 C   0  0  0  0  0  0  0  0  0  0  0  0
    0.5772   -2.9468   -0.8097 C   0  0  0  0  0  0  0  0  0  0  0  0
    0.2136   -1.7566   -0.2241 C   0  0  0  0  0  0  0  0  0  0  0  0
    1.1390   -0.6830   -0.1663 N   0  0  0  0  0  0  0  0  0  0  0  0
    2.4452   -0.8315   -0.7740 C   0  0  0  0  0  0  0  0  0  0  0  0
    3.2818    0.3881   -0.6186 C   0  0  0  0  0  0  0  0  0  0  0  0
    4.4177    0.4788   -0.0276 N   0  0  0  0  0  0  0  0  0  0  0  0
    4.9609    1.8007   -0.0555 C   0  0  0  0  0  0  0  0  0  0  0  0
    4.1331    2.5089   -1.1148 C   0  0  0  0  0  0  0  0  0  0  0  0
    2.9282    1.6697   -1.1209 N   0  0  0  0  0  0  0  0  0  0  0  0
   -4.4612    1.2479   -0.1204 H   0  0  0  0  0  0  0  0  0  0  0  0
   -3.5156    2.7761   -0.1554 H   0  0  0  0  0  0  0  0  0  0  0  0
   -4.6775    2.3470   -1.5412 H   0  0  0  0  0  0  0  0  0  0  0  0
   -2.9964    0.1931   -1.6476 H   0  0  0  0  0  0  0  0  0  0  0  0
   -2.6320    1.7486   -2.4780 H   0  0  0  0  0  0  0  0  0  0  0  0
   -1.3506    2.4745   -0.5054 H   0  0  0  0  0  0  0  0  0  0  0  0
   -0.7397    0.9097   -1.2553 H   0  0  0  0  0  0  0  0  0  0  0  0
   -2.9065    1.0121    3.6467 H   0  0  0  0  0  0  0  0  0  0  0  0
   -2.0153   -1.4353    2.9810 H   0  0  0  0  0  0  0  0  0  0  0  0
   -2.8626   -2.7161    0.7176 H   0  0  0  0  0  0  0  0  0  0  0  0
   -2.1840   -4.7866   -0.3187 H   0  0  0  0  0  0  0  0  0  0  0  0
    0.0655   -4.9718   -1.3314 H   0  0  0  0  0  0  0  0  0  0  0  0
    1.5630   -3.0119   -1.2473 H   0  0  0  0  0  0  0  0  0  0  0  0
    0.9465    0.2297    0.2989 H   0  0  0  0  0  0  0  0  0  0  0  0
    2.9528   -1.7023   -0.2839 H   0  0  0  0  0  0  0  0  0  0  0  0
    2.3756   -1.1063   -1.8592 H   0  0  0  0  0  0  0  0  0  0  0  0
    4.7588    2.3207    0.9178 H   0  0  0  0  0  0  0  0  0  0  0  0
    6.0486    1.7967   -0.3015 H   0  0  0  0  0  0  0  0  0  0  0  0
    4.6078    2.4144   -2.1054 H   0  0  0  0  0  0  0  0  0  0  0  0
    3.8918    3.5529   -0.8578 H   0  0  0  0  0  0  0  0  0  0  0  0
    1.9704    1.9761   -1.4445 H   0  0  0  0  0  0  0  0  0  0  0  0
  1  2  1  0
  2  3  1  0
  3  4  1  0
  4  5  1  0
  5  6  2  0
  6  7  1  0
  7  8  2  0
  8  9  1  0
  9 10  2  0
 10 11  1  0
 11 12  2  0
 12 13  1  0
 13 14  2  0
 14 15  1  0
 15 16  1  0
 16 17  1  0
 17 18  2  0
 18 19  1  0
 19 20  1  0
 20 21  1  0
  8  4  1  0
 14  9  1  0
 21 17  1  0
  1 22  1  0
  1 23  1  0
  1 24  1  0
  2 25  1  0
  2 26  1  0
  3 27  1  0
  3 28  1  0
  6 29  1  0
  7 30  1  0
 10 31  1  0
 11 32  1  0
 12 33  1  0
 13 34  1  0
 15 35  1  0
 16 36  1  0
 16 37  1  0
 19 38  1  0
 19 39  1  0
 20 40  1  0
 20 41  1  0
 21 42  1  0
M  END
>  <Ligand ID>  (1) 
LIG0004344

>  <Ligand>  (1) 
CHEMBL275386

>  <SMILES>  (1) 
CCCn1nccc1c1ccccc1NCC1=NCCN1

>  <CID>  (1) 
44271931.0

>  <ChEMBL ID>  (1) 
nan

>  <InChiKey>  (1) 
HEOQNUWDRLFQCS-UHFFFAOYSA-N

>  <InChi>  (1) 
InChI=1S/C16H21N5/c1-2-11-21-15(7-8-20-21)13-5-3-4-6-14(13)19-12-16-17-9-10-18-16/h3-8,19H,2,9-12H2,1H3,(H,17,18)

>  <IUPAC Name>  (1) 
N-(4,5-dihydro-1H-imidazol-2-ylmethyl)-2-(2-propylpyrazol-3-yl)aniline

$$$$
