
     RDKit          3D

 36 39  0  0  0  0  0  0  0  0999 V2000
   -5.5868   -3.9555   -0.4476 Cl  0  0  0  0  0  0  0  0  0  0  0  0
   -4.5147   -2.6146   -0.1143 C   0  0  0  0  0  0  0  0  0  0  0  0
   -4.8231   -1.3230   -0.4980 C   0  0  0  0  0  0  0  0  0  0  0  0
   -4.0008   -0.2552   -0.2491 C   0  0  0  0  0  0  0  0  0  0  0  0
   -2.7965   -0.4847    0.4230 C   0  0  0  0  0  0  0  0  0  0  0  0
   -2.5050   -1.7625    0.7955 C   0  0  0  0  0  0  0  0  0  0  0  0
   -3.3240   -2.8515    0.5520 C   0  0  0  0  0  0  0  0  0  0  0  0
   -1.9591    0.6716    0.6665 C   0  0  0  0  0  0  0  0  0  0  0  0
   -2.5793    1.7891    1.1398 N   0  0  0  0  0  0  0  0  0  0  0  0
   -1.9048    2.9119    1.3986 N   0  0  0  0  0  0  0  0  0  0  0  0
   -0.5767    2.9838    1.2004 C   0  0  0  0  0  0  0  0  0  0  0  0
    0.0907    1.8734    0.7214 C   0  0  0  0  0  0  0  0  0  0  0  0
   -0.6169    0.7347    0.4630 C   0  0  0  0  0  0  0  0  0  0  0  0
    0.2651   -0.2109    0.0017 C   0  0  0  0  0  0  0  0  0  0  0  0
    1.4700    0.3910   -0.0009 N   0  0  0  0  0  0  0  0  0  0  0  0
    1.3743    1.6384    0.4284 N   0  0  0  0  0  0  0  0  0  0  0  0
    2.6951   -0.2152   -0.4072 C   0  0  0  0  0  0  0  0  0  0  0  0
    2.6796   -1.3410   -1.2043 C   0  0  0  0  0  0  0  0  0  0  0  0
    3.8682   -1.9247   -1.5954 C   0  0  0  0  0  0  0  0  0  0  0  0
    5.0860   -1.3885   -1.1931 C   0  0  0  0  0  0  0  0  0  0  0  0
    5.1235   -0.2626   -0.3956 C   0  0  0  0  0  0  0  0  0  0  0  0
    3.9156    0.3089   -0.0135 C   0  0  0  0  0  0  0  0  0  0  0  0
    0.2153    4.2149    1.4755 C   0  0  0  0  0  0  0  0  0  0  0  0
   -5.7488   -1.1346   -1.0167 H   0  0  0  0  0  0  0  0  0  0  0  0
   -4.2679    0.7420   -0.5605 H   0  0  0  0  0  0  0  0  0  0  0  0
   -1.5837   -1.9561    1.3142 H   0  0  0  0  0  0  0  0  0  0  0  0
   -3.0400   -3.8496    0.8725 H   0  0  0  0  0  0  0  0  0  0  0  0
    0.0299   -1.2236   -0.2950 H   0  0  0  0  0  0  0  0  0  0  0  0
    1.7576   -1.8070   -1.5513 H   0  0  0  0  0  0  0  0  0  0  0  0
    3.9028   -2.8182   -2.2271 H   0  0  0  0  0  0  0  0  0  0  0  0
    6.0137   -1.8357   -1.4924 H   0  0  0  0  0  0  0  0  0  0  0  0
    6.0773    0.1613   -0.0778 H   0  0  0  0  0  0  0  0  0  0  0  0
    3.9011    1.2040    0.6198 H   0  0  0  0  0  0  0  0  0  0  0  0
   -0.3098    4.9209    2.1298 H   0  0  0  0  0  0  0  0  0  0  0  0
    0.4858    4.7024    0.5336 H   0  0  0  0  0  0  0  0  0  0  0  0
    1.1863    3.9664    1.9907 H   0  0  0  0  0  0  0  0  0  0  0  0
  1  2  1  0
  2  3  2  0
  3  4  1  0
  4  5  2  0
  5  6  1  0
  6  7  2  0
  5  8  1  0
  8  9  2  0
  9 10  1  0
 10 11  2  0
 11 12  1  0
 12 13  1  0
 13 14  2  0
 14 15  1  0
 15 16  1  0
 15 17  1  0
 17 18  2  0
 18 19  1  0
 19 20  2  0
 20 21  1  0
 21 22  2  0
 11 23  1  0
  7  2  1  0
 13  8  1  0
 22 17  1  0
 16 12  2  0
  3 24  1  0
  4 25  1  0
  6 26  1  0
  7 27  1  0
 14 28  1  0
 18 29  1  0
 19 30  1  0
 20 31  1  0
 21 32  1  0
 22 33  1  0
 23 34  1  0
 23 35  1  0
 23 36  1  0
M  END
>  <Ligand ID>  (1) 
LIG0003985

>  <Ligand>  (1) 
4-(4-chlorophenyl)-7-methyl-2-phenylpyrazolo[3,4-d]pyridazine

>  <SMILES>  (1) 
Clc1ccc(cc1)c1nnc(c2c1cn(n2)c1ccccc1)C

>  <CID>  (1) 
5143845.0

>  <ChEMBL ID>  (1) 
nan

>  <InChiKey>  (1) 
JTIDGCJITBMBGH-UHFFFAOYSA-N

>  <InChi>  (1) 
InChI=1S/C18H13ClN4/c1-12-17-16(11-23(22-17)15-5-3-2-4-6-15)18(21-20-12)13-7-9-14(19)10-8-13/h2-11H,1H3

>  <IUPAC Name>  (1) 
4-(4-chlorophenyl)-7-methyl-2-phenylpyrazolo[3,4-d]pyridazine

$$$$
