
     RDKit          3D

 24 25  0  0  0  0  0  0  0  0999 V2000
   -3.1000    0.5679   -0.8680 N   0  0  0  0  0  0  0  0  0  0  0  0
   -2.7512    0.6832    0.5103 C   0  0  0  0  0  0  0  0  0  0  0  0
   -1.4562    0.0017    0.8921 C   0  0  1  0  0  0  0  0  0  0  0  0
   -1.2787   -1.4698    0.6967 C   0  0  0  0  0  0  0  0  0  0  0  0
   -0.6164   -0.5804   -0.2550 C   0  0  2  0  0  0  0  0  0  0  0  0
    0.7877   -0.1830   -0.2336 C   0  0  0  0  0  0  0  0  0  0  0  0
    1.2776    0.9919    0.3005 C   0  0  0  0  0  0  0  0  0  0  0  0
    0.4287    1.8913    0.8476 F   0  0  0  0  0  0  0  0  0  0  0  0
    2.6221    1.3115    0.2997 C   0  0  0  0  0  0  0  0  0  0  0  0
    3.5451    0.4470   -0.2484 C   0  0  0  0  0  0  0  0  0  0  0  0
    3.0846   -0.7313   -0.7882 C   0  0  0  0  0  0  0  0  0  0  0  0
    1.7201   -1.0427   -0.7807 C   0  0  0  0  0  0  0  0  0  0  0  0
    1.3801   -2.2346   -1.3419 F   0  0  0  0  0  0  0  0  0  0  0  0
   -2.7505    1.3159   -1.4914 H   0  0  0  0  0  0  0  0  0  0  0  0
   -3.1348   -0.3792   -1.2625 H   0  0  0  0  0  0  0  0  0  0  0  0
   -2.6224    1.7655    0.7290 H   0  0  0  0  0  0  0  0  0  0  0  0
   -3.5503    0.2030    1.1091 H   0  0  0  0  0  0  0  0  0  0  0  0
   -0.9694    0.3993    1.7906 H   0  0  0  0  0  0  0  0  0  0  0  0
   -0.7192   -2.0518    1.4563 H   0  0  0  0  0  0  0  0  0  0  0  0
   -2.1713   -2.0205    0.3321 H   0  0  0  0  0  0  0  0  0  0  0  0
   -1.0697   -0.4849   -1.2828 H   0  0  0  0  0  0  0  0  0  0  0  0
    2.9483    2.2599    0.7395 H   0  0  0  0  0  0  0  0  0  0  0  0
    4.5830    0.7406   -0.2254 H   0  0  0  0  0  0  0  0  0  0  0  0
    3.8128   -1.4005   -1.2143 H   0  0  0  0  0  0  0  0  0  0  0  0
  1  2  1  0
  2  3  1  0
  3  4  1  0
  4  5  1  0
  5  6  1  0
  6  7  2  0
  7  8  1  0
  7  9  1  0
  9 10  2  0
 10 11  1  0
 11 12  2  0
 12 13  1  0
  5  3  1  0
 12  6  1  0
  1 14  1  0
  1 15  1  0
  2 16  1  0
  2 17  1  0
  3 18  1  1
  4 19  1  0
  4 20  1  0
  5 21  1  6
  9 22  1  0
 10 23  1  0
 11 24  1  0
M  END
>  <Ligand ID>  (1) 
LIG0002366

>  <Ligand>  (1) 
CHEMBL498863

>  <SMILES>  (1) 
NC[C@H]1C[C@@H]1c1c(F)cccc1F

>  <CID>  (1) 
44573016.0

>  <ChEMBL ID>  (1) 
nan

>  <InChiKey>  (1) 
CXXJOCRJAABWDN-RQJHMYQMSA-N

>  <InChi>  (1) 
InChI=1S/C10H11F2N/c11-8-2-1-3-9(12)10(8)7-4-6(7)5-13/h1-3,6-7H,4-5,13H2/t6-,7+/m1/s1

>  <IUPAC Name>  (1) 
[(1S,2S)-2-(2,6-difluorophenyl)cyclopropyl]methanamine

$$$$
