
     RDKit          3D

 44 47  0  0  0  0  0  0  0  0999 V2000
   -6.2067    0.3782    0.2136 O   0  0  0  0  0  0  0  0  0  0  0  0
   -4.8738    0.7416    0.2962 C   0  0  0  0  0  0  0  0  0  0  0  0
   -3.9309   -0.3944   -0.0824 C   0  0  0  0  0  0  0  0  0  0  0  0
   -2.5729    0.1357    0.0519 N   0  0  0  0  0  0  0  0  0  0  0  0
   -1.4943   -0.7249   -0.2435 C   0  0  0  0  0  0  0  0  0  0  0  0
   -1.7277   -1.9072   -0.6090 O   0  0  0  0  0  0  0  0  0  0  0  0
   -0.1031   -0.2984   -0.1425 C   0  0  0  0  0  0  0  0  0  0  0  0
    0.9329   -1.1299   -0.4278 N   0  0  0  0  0  0  0  0  0  0  0  0
    2.0818   -0.4801   -0.2510 N   0  0  0  0  0  0  0  0  0  0  0  0
    1.7932    0.7816    0.1517 C   0  0  0  0  0  0  0  0  0  0  0  0
    0.4208    0.9087    0.2239 C   0  0  0  0  0  0  0  0  0  0  0  0
    0.0399    2.2756    0.6617 C   0  0  0  0  0  0  0  0  0  0  0  0
    1.3638    2.9804    0.8696 C   0  0  2  0  0  0  0  0  0  0  0  0
    2.4577    2.0532    0.5350 C   0  0  1  0  0  0  0  0  0  0  0  0
    2.2733    2.5091    1.9601 C   0  0  0  0  0  0  0  0  0  0  0  0
    3.3928   -1.0093   -0.4479 C   0  0  0  0  0  0  0  0  0  0  0  0
    3.5258   -2.1141   -1.2643 C   0  0  0  0  0  0  0  0  0  0  0  0
    4.7807   -2.6813   -1.4988 C   0  0  0  0  0  0  0  0  0  0  0  0
    5.8577   -2.0821   -0.8771 C   0  0  0  0  0  0  0  0  0  0  0  0
    5.7319   -0.9775   -0.0597 C   0  0  0  0  0  0  0  0  0  0  0  0
    4.4795   -0.4217    0.1665 C   0  0  0  0  0  0  0  0  0  0  0  0
   -4.1471   -1.5987    0.8051 C   0  0  0  0  0  0  0  0  0  0  0  0
   -4.2392   -0.7937   -1.5029 C   0  0  0  0  0  0  0  0  0  0  0  0
   -6.5807    0.6395   -0.6717 H   0  0  0  0  0  0  0  0  0  0  0  0
   -4.7081    1.5588   -0.4366 H   0  0  0  0  0  0  0  0  0  0  0  0
   -4.6012    1.1372    1.2972 H   0  0  0  0  0  0  0  0  0  0  0  0
   -2.3611    1.0984    0.3489 H   0  0  0  0  0  0  0  0  0  0  0  0
   -0.5097    2.8200   -0.1169 H   0  0  0  0  0  0  0  0  0  0  0  0
   -0.4629    2.2873    1.6497 H   0  0  0  0  0  0  0  0  0  0  0  0
    1.4506    4.0463    0.5708 H   0  0  0  0  0  0  0  0  0  0  0  0
    3.2936    2.4589   -0.0373 H   0  0  0  0  0  0  0  0  0  0  0  0
    2.9882    3.2515    2.3632 H   0  0  0  0  0  0  0  0  0  0  0  0
    1.9766    1.7296    2.6733 H   0  0  0  0  0  0  0  0  0  0  0  0
    2.6585   -2.5667   -1.7423 H   0  0  0  0  0  0  0  0  0  0  0  0
    4.8863   -3.5514   -2.1416 H   0  0  0  0  0  0  0  0  0  0  0  0
    6.8264   -2.4930   -1.0377 H   0  0  0  0  0  0  0  0  0  0  0  0
    6.5640   -0.4961    0.4346 H   0  0  0  0  0  0  0  0  0  0  0  0
    4.3486    0.4450    0.8029 H   0  0  0  0  0  0  0  0  0  0  0  0
   -4.6411   -2.4187    0.2445 H   0  0  0  0  0  0  0  0  0  0  0  0
   -3.1969   -2.0103    1.2109 H   0  0  0  0  0  0  0  0  0  0  0  0
   -4.8640   -1.3464    1.6407 H   0  0  0  0  0  0  0  0  0  0  0  0
   -5.3030   -0.6640   -1.6956 H   0  0  0  0  0  0  0  0  0  0  0  0
   -3.6040   -0.1978   -2.1992 H   0  0  0  0  0  0  0  0  0  0  0  0
   -3.9961   -1.8787   -1.6860 H   0  0  0  0  0  0  0  0  0  0  0  0
  1  2  1  0
  2  3  1  0
  3  4  1  0
  4  5  1  0
  5  6  2  0
  5  7  1  0
  7  8  2  0
  8  9  1  0
  9 10  1  0
 10 11  2  0
 11 12  1  0
 12 13  1  0
 13 14  1  0
 14 15  1  0
  9 16  1  0
 16 17  2  0
 17 18  1  0
 18 19  2  0
 19 20  1  0
 20 21  2  0
  3 22  1  0
  3 23  1  0
 11  7  1  0
 15 13  1  0
 21 16  1  0
 14 10  1  0
  1 24  1  0
  2 25  1  0
  2 26  1  0
  4 27  1  0
 12 28  1  0
 12 29  1  0
 13 30  1  6
 14 31  1  6
 15 32  1  0
 15 33  1  0
 17 34  1  0
 18 35  1  0
 19 36  1  0
 20 37  1  0
 21 38  1  0
 22 39  1  0
 22 40  1  0
 22 41  1  0
 23 42  1  0
 23 43  1  0
 23 44  1  0
M  END
>  <Ligand ID>  (1) 
LIG0001495

>  <Ligand>  (1) 
CHEMBL3354967

>  <SMILES>  (1) 
OCC(NC(=O)c1nn(c2c1C[C@@H]1[C@H]2C1)c1ccccc1)(C)C

>  <CID>  (1) 
118720574.0

>  <ChEMBL ID>  (1) 
nan

>  <InChiKey>  (1) 
JQYHRKRHFMYNNN-DGCLKSJQSA-N

>  <InChi>  (1) 
InChI=1S/C18H21N3O2/c1-18(2,10-22)19-17(23)15-14-9-11-8-13(11)16(14)21(20-15)12-6-4-3-5-7-12/h3-7,11,13,22H,8-10H2,1-2H3,(H,19,23)/t11-,13-/m1/s1

>  <IUPAC Name>  (1) 
(2R,4R)-N-(1-hydroxy-2-methylpropan-2-yl)-9-phenyl-8,9-diazatricyclo[4.3.0.02,4]nona-1(6),7-diene-7-carboxamide

$$$$
