
     RDKit          3D

 41 43  0  0  0  0  0  0  0  0999 V2000
   -2.9199   -2.5625    1.2435 Cl  0  0  0  0  0  0  0  0  0  0  0  0
   -3.9866   -1.2526    0.8218 C   0  0  0  0  0  0  0  0  0  0  0  0
   -4.9975   -1.4372   -0.1020 C   0  0  0  0  0  0  0  0  0  0  0  0
   -5.8698   -0.4386   -0.4722 C   0  0  0  0  0  0  0  0  0  0  0  0
   -5.7112    0.8025    0.1197 C   0  0  0  0  0  0  0  0  0  0  0  0
   -4.7049    0.9964    1.0428 C   0  0  0  0  0  0  0  0  0  0  0  0
   -3.8327   -0.0222    1.4055 C   0  0  0  0  0  0  0  0  0  0  0  0
   -2.7622    0.2677    2.4179 C   0  0  0  0  0  0  0  0  0  0  0  0
   -1.4692    0.3993    1.6243 C   0  0  0  0  0  0  0  0  0  0  0  0
   -1.5463    1.4545    0.6675 O   0  0  0  0  0  0  0  0  0  0  0  0
   -0.4191    1.6625   -0.1151 C   0  0  0  0  0  0  0  0  0  0  0  0
   -0.4910    2.6922   -1.0512 C   0  0  0  0  0  0  0  0  0  0  0  0
    0.6036    2.9051   -1.8218 N   0  0  0  0  0  0  0  0  0  0  0  0
    1.7226    2.1670   -1.7061 C   0  0  0  0  0  0  0  0  0  0  0  0
    1.7884    1.1435   -0.7726 C   0  0  0  0  0  0  0  0  0  0  0  0
    0.7046    0.9293   -0.0063 N   0  0  0  0  0  0  0  0  0  0  0  0
    2.9644    0.3553   -0.6399 N   0  0  0  0  0  0  0  0  0  0  0  0
    3.1032   -0.7132    0.3308 C   0  0  0  0  0  0  0  0  0  0  0  0
    3.8097   -1.8499   -0.3884 C   0  0  0  0  0  0  0  0  0  0  0  0
    5.1685   -1.4278   -0.6223 N   0  0  0  0  0  0  0  0  0  0  0  0
    5.3201   -0.0578   -0.9914 C   0  0  0  0  0  0  0  0  0  0  0  0
    4.0938    0.6165   -1.5106 C   0  0  0  0  0  0  0  0  0  0  0  0
   -5.1067   -2.4175   -0.5557 H   0  0  0  0  0  0  0  0  0  0  0  0
   -6.6442   -0.6383   -1.2014 H   0  0  0  0  0  0  0  0  0  0  0  0
   -6.3969    1.5695   -0.1777 H   0  0  0  0  0  0  0  0  0  0  0  0
   -4.6119    1.9867    1.4870 H   0  0  0  0  0  0  0  0  0  0  0  0
   -2.6096   -0.5977    3.0931 H   0  0  0  0  0  0  0  0  0  0  0  0
   -3.0046    1.1995    2.9362 H   0  0  0  0  0  0  0  0  0  0  0  0
   -0.6554    0.5254    2.3476 H   0  0  0  0  0  0  0  0  0  0  0  0
   -1.3212   -0.5858    1.1116 H   0  0  0  0  0  0  0  0  0  0  0  0
   -1.3786    3.3003   -1.1646 H   0  0  0  0  0  0  0  0  0  0  0  0
    2.5521    2.4042   -2.3618 H   0  0  0  0  0  0  0  0  0  0  0  0
    2.0848   -1.0482    0.6676 H   0  0  0  0  0  0  0  0  0  0  0  0
    3.7384   -0.3945    1.1810 H   0  0  0  0  0  0  0  0  0  0  0  0
    3.2560   -2.1127   -1.3157 H   0  0  0  0  0  0  0  0  0  0  0  0
    3.8464   -2.7481    0.2618 H   0  0  0  0  0  0  0  0  0  0  0  0
    5.7097   -1.6029    0.2589 H   0  0  0  0  0  0  0  0  0  0  0  0
    5.7444    0.5384   -0.1580 H   0  0  0  0  0  0  0  0  0  0  0  0
    6.0671   -0.0363   -1.8340 H   0  0  0  0  0  0  0  0  0  0  0  0
    4.3263    1.7213   -1.5262 H   0  0  0  0  0  0  0  0  0  0  0  0
    3.8355    0.2352   -2.5239 H   0  0  0  0  0  0  0  0  0  0  0  0
  1  2  1  0
  2  3  2  0
  3  4  1  0
  4  5  2  0
  5  6  1  0
  6  7  2  0
  7  8  1  0
  8  9  1  0
  9 10  1  0
 10 11  1  0
 11 12  2  0
 12 13  1  0
 13 14  2  0
 14 15  1  0
 15 16  2  0
 15 17  1  0
 17 18  1  0
 18 19  1  0
 19 20  1  0
 20 21  1  0
 21 22  1  0
  7  2  1  0
 16 11  1  0
 22 17  1  0
  3 23  1  0
  4 24  1  0
  5 25  1  0
  6 26  1  0
  8 27  1  0
  8 28  1  0
  9 29  1  0
  9 30  1  0
 12 31  1  0
 14 32  1  0
 18 33  1  0
 18 34  1  0
 19 35  1  0
 19 36  1  0
 20 37  1  0
 21 38  1  0
 21 39  1  0
 22 40  1  0
 22 41  1  0
M  END
>  <Ligand ID>  (1) 
LIG0003150

>  <Ligand>  (1) 
CHEMBL572228

>  <SMILES>  (1) 
Clc1ccccc1CCOc1cncc(n1)N1CCNCC1

>  <CID>  (1) 
45485742.0

>  <ChEMBL ID>  (1) 
nan

>  <InChiKey>  (1) 
SJCOZNMAFPWOOQ-UHFFFAOYSA-N

>  <InChi>  (1) 
InChI=1S/C16H19ClN4O/c17-14-4-2-1-3-13(14)5-10-22-16-12-19-11-15(20-16)21-8-6-18-7-9-21/h1-4,11-12,18H,5-10H2

>  <IUPAC Name>  (1) 
2-[2-(2-chlorophenyl)ethoxy]-6-piperazin-1-ylpyrazine

$$$$
