
     RDKit          3D

 63 65  0  0  0  0  0  0  0  0999 V2000
   -4.1752   -0.1217    2.7109 C   0  0  0  0  0  0  0  0  0  0  0  0
   -5.5484    0.4683    2.3937 C   0  0  0  0  0  0  0  0  0  0  0  0
   -5.5029    1.3411    1.1890 C   0  0  0  0  0  0  0  0  0  0  0  0
   -5.0833    0.6810   -0.0620 C   0  0  0  0  0  0  0  0  0  0  0  0
   -3.7015    0.6716   -0.3103 C   0  0  0  0  0  0  0  0  0  0  0  0
   -3.1528    0.0228   -1.3886 C   0  0  0  0  0  0  0  0  0  0  0  0
   -4.0009   -0.6374   -2.2474 C   0  0  0  0  0  0  0  0  0  0  0  0
   -5.3554   -0.6313   -2.0118 C   0  0  0  0  0  0  0  0  0  0  0  0
   -5.9312    0.0247   -0.9210 C   0  0  0  0  0  0  0  0  0  0  0  0
   -7.3738    0.0387   -0.8298 C   0  0  0  0  0  0  0  0  0  0  0  0
   -8.0311   -0.6437   -1.6626 O   0  0  0  0  0  0  0  0  0  0  0  0
   -8.1273    0.7403    0.0919 O   0  0  0  0  0  0  0  0  0  0  0  0
   -1.7233   -0.0026   -1.6796 C   0  0  0  0  0  0  0  0  0  0  0  0
   -1.1893   -1.1049   -2.3072 C   0  0  0  0  0  0  0  0  0  0  0  0
    0.1576   -1.1715   -2.6077 C   0  0  0  0  0  0  0  0  0  0  0  0
    1.0352   -0.1318   -2.2915 C   0  0  0  0  0  0  0  0  0  0  0  0
    0.4672    0.9710   -1.6567 C   0  0  0  0  0  0  0  0  0  0  0  0
   -0.8734    1.0391   -1.3568 C   0  0  0  0  0  0  0  0  0  0  0  0
    2.4806   -0.1970   -2.6160 C   0  0  0  0  0  0  0  0  0  0  0  0
    3.3199   -0.7955   -1.5345 C   0  0  0  0  0  0  0  0  0  0  0  0
    3.3265   -0.1647   -0.2833 N   0  0  0  0  0  0  0  0  0  0  0  0
    3.9140    1.1063   -0.1341 C   0  0  0  0  0  0  0  0  0  0  0  0
    5.3937    1.1909   -0.2835 C   0  0  1  0  0  0  0  0  0  0  0  0
    6.1564    0.4861    0.7722 C   0  0  0  0  0  0  0  0  0  0  0  0
    5.6135   -0.0944    1.8762 C   0  0  0  0  0  0  0  0  0  0  0  0
    6.4358   -0.7347    2.8050 C   0  0  0  0  0  0  0  0  0  0  0  0
    7.8040   -0.7735    2.5930 C   0  0  0  0  0  0  0  0  0  0  0  0
    8.3242   -0.2004    1.5065 N   0  0  0  0  0  0  0  0  0  0  0  0
    7.5302    0.4162    0.6125 C   0  0  0  0  0  0  0  0  0  0  0  0
    8.7064   -1.4086    3.4942 N   0  0  0  0  0  0  0  0  0  0  0  0
    5.8514    0.7825   -1.5344 O   0  0  0  0  0  0  0  0  0  0  0  0
   -6.5097   -0.6799    2.3738 C   0  0  0  0  0  0  0  0  0  0  0  0
   -3.5439    0.6527    3.1893 H   0  0  0  0  0  0  0  0  0  0  0  0
   -3.7378   -0.6094    1.8358 H   0  0  0  0  0  0  0  0  0  0  0  0
   -4.3704   -0.8776    3.5084 H   0  0  0  0  0  0  0  0  0  0  0  0
   -5.7715    1.1311    3.2722 H   0  0  0  0  0  0  0  0  0  0  0  0
   -6.4654    1.9125    1.0862 H   0  0  0  0  0  0  0  0  0  0  0  0
   -4.7568    2.1554    1.4026 H   0  0  0  0  0  0  0  0  0  0  0  0
   -3.0185    1.1826    0.3519 H   0  0  0  0  0  0  0  0  0  0  0  0
   -3.5882   -1.1579   -3.1060 H   0  0  0  0  0  0  0  0  0  0  0  0
   -5.9706   -1.1701   -2.7223 H   0  0  0  0  0  0  0  0  0  0  0  0
   -9.1249    0.8742    0.0042 H   0  0  0  0  0  0  0  0  0  0  0  0
   -1.7854   -1.9726   -2.5988 H   0  0  0  0  0  0  0  0  0  0  0  0
    0.5874   -2.0266   -3.0977 H   0  0  0  0  0  0  0  0  0  0  0  0
    1.1615    1.7748   -1.4151 H   0  0  0  0  0  0  0  0  0  0  0  0
   -1.2877    1.9081   -0.8630 H   0  0  0  0  0  0  0  0  0  0  0  0
    2.5892   -0.8685   -3.5072 H   0  0  0  0  0  0  0  0  0  0  0  0
    2.7932    0.7984   -2.9562 H   0  0  0  0  0  0  0  0  0  0  0  0
    4.3601   -0.9823   -1.8662 H   0  0  0  0  0  0  0  0  0  0  0  0
    2.9052   -1.8372   -1.3758 H   0  0  0  0  0  0  0  0  0  0  0  0
    2.7773   -0.5480    0.4817 H   0  0  0  0  0  0  0  0  0  0  0  0
    3.4636    1.9160   -0.7446 H   0  0  0  0  0  0  0  0  0  0  0  0
    3.6968    1.4346    0.9251 H   0  0  0  0  0  0  0  0  0  0  0  0
    5.6604    2.2775   -0.2093 H   0  0  0  0  0  0  0  0  0  0  0  0
    4.5479   -0.0550    2.0248 H   0  0  0  0  0  0  0  0  0  0  0  0
    6.0157   -1.2020    3.6894 H   0  0  0  0  0  0  0  0  0  0  0  0
    8.0443    0.8557   -0.2459 H   0  0  0  0  0  0  0  0  0  0  0  0
    8.8316   -1.0813    4.4950 H   0  0  0  0  0  0  0  0  0  0  0  0
    9.2980   -2.2307    3.2321 H   0  0  0  0  0  0  0  0  0  0  0  0
    6.6036    0.1674   -1.5233 H   0  0  0  0  0  0  0  0  0  0  0  0
   -6.3845   -1.3104    1.4916 H   0  0  0  0  0  0  0  0  0  0  0  0
   -6.2370   -1.3295    3.2510 H   0  0  0  0  0  0  0  0  0  0  0  0
   -7.5304   -0.2691    2.5310 H   0  0  0  0  0  0  0  0  0  0  0  0
  1  2  1  0
  2  3  1  0
  3  4  1  0
  4  5  2  0
  5  6  1  0
  6  7  2  0
  7  8  1  0
  8  9  2  0
  9 10  1  0
 10 11  2  0
 10 12  1  0
  6 13  1  0
 13 14  2  0
 14 15  1  0
 15 16  2  0
 16 17  1  0
 17 18  2  0
 16 19  1  0
 19 20  1  0
 20 21  1  0
 21 22  1  0
 22 23  1  0
 23 24  1  0
 24 25  2  0
 25 26  1  0
 26 27  2  0
 27 28  1  0
 28 29  2  0
 27 30  1  0
 23 31  1  0
  2 32  1  0
  9  4  1  0
 18 13  1  0
 29 24  1  0
  1 33  1  0
  1 34  1  0
  1 35  1  0
  2 36  1  0
  3 37  1  0
  3 38  1  0
  5 39  1  0
  7 40  1  0
  8 41  1  0
 12 42  1  0
 14 43  1  0
 15 44  1  0
 17 45  1  0
 18 46  1  0
 19 47  1  0
 19 48  1  0
 20 49  1  0
 20 50  1  0
 21 51  1  0
 22 52  1  0
 22 53  1  0
 23 54  1  1
 25 55  1  0
 26 56  1  0
 29 57  1  0
 30 58  1  0
 30 59  1  0
 31 60  1  0
 32 61  1  0
 32 62  1  0
 32 63  1  0
M  END
>  <Ligand ID>  (1) 
LIG0001513

>  <Ligand>  (1) 
CHEMBL487682

>  <SMILES>  (1) 
CC(Cc1cc(ccc1C(=O)O)c1ccc(cc1)CCNC[C@@H](c1ccc(nc1)N)O)C

>  <CID>  (1) 
16222940.0

>  <ChEMBL ID>  (1) 
nan

>  <InChiKey>  (1) 
NCHDMAKDMUDOFA-DEOSSOPVSA-N

>  <InChi>  (1) 
InChI=1S/C26H31N3O3/c1-17(2)13-22-14-20(7-9-23(22)26(31)32)19-5-3-18(4-6-19)11-12-28-16-24(30)21-8-10-25(27)29-15-21/h3-10,14-15,17,24,28,30H,11-13,16H2,1-2H3,(H2,27,29)(H,31,32)/t24-/m0/s1

>  <IUPAC Name>  (1) 
4-[4-[2-[[(2R)-2-(6-aminopyridin-3-yl)-2-hydroxyethyl]amino]ethyl]phenyl]-2-(2-methylpropyl)benzoic acid

$$$$
