
     RDKit          3D

 60 63  0  0  0  0  0  0  0  0999 V2000
    7.7822   -0.4928   -1.4469 C   0  0  0  0  0  0  0  0  0  0  0  0
    6.5432   -0.4651   -0.8096 O   0  0  0  0  0  0  0  0  0  0  0  0
    6.2245    0.1871    0.3592 C   0  0  0  0  0  0  0  0  0  0  0  0
    7.1434    0.9353    1.0836 C   0  0  0  0  0  0  0  0  0  0  0  0
    6.7828    1.5796    2.2600 C   0  0  0  0  0  0  0  0  0  0  0  0
    5.4973    1.4888    2.7355 C   0  0  0  0  0  0  0  0  0  0  0  0
    4.5623    0.7428    2.0222 C   0  0  0  0  0  0  0  0  0  0  0  0
    4.9182    0.1039    0.8564 C   0  0  0  0  0  0  0  0  0  0  0  0
    3.9873   -0.6725    0.0954 N   0  0  0  0  0  0  0  0  0  0  0  0
    3.6460   -0.3702   -1.2766 C   0  0  0  0  0  0  0  0  0  0  0  0
    2.1193   -0.2604   -1.4598 C   0  0  0  0  0  0  0  0  0  0  0  0
    1.5135   -1.2642   -0.6783 N   0  0  0  0  0  0  0  0  0  0  0  0
    2.3244   -2.3786   -0.2993 C   0  0  0  0  0  0  0  0  0  0  0  0
    3.3417   -1.8321    0.7148 C   0  0  0  0  0  0  0  0  0  0  0  0
    0.4544   -0.9500    0.1856 C   0  0  0  0  0  0  0  0  0  0  0  0
   -0.8509   -0.5781   -0.4151 C   0  0  0  0  0  0  0  0  0  0  0  0
   -0.8519    0.6329   -1.3054 C   0  0  0  0  0  0  0  0  0  0  0  0
   -2.2391    0.8218   -1.7679 N   0  0  0  0  0  0  0  0  0  0  0  0
   -3.3163    1.0650   -0.9053 C   0  0  0  0  0  0  0  0  0  0  0  0
   -3.2358    1.1554    0.3486 O   0  0  0  0  0  0  0  0  0  0  0  0
   -4.5980    1.2257   -1.4398 O   0  0  0  0  0  0  0  0  0  0  0  0
   -5.6680    1.4665   -0.5849 C   0  0  0  0  0  0  0  0  0  0  0  0
   -6.0546    2.7626   -0.2513 C   0  0  0  0  0  0  0  0  0  0  0  0
   -7.1272    2.8978    0.6036 C   0  0  0  0  0  0  0  0  0  0  0  0
   -7.7935    1.7978    1.1106 C   0  0  0  0  0  0  0  0  0  0  0  0
   -7.3913    0.5105    0.7648 C   0  0  0  0  0  0  0  0  0  0  0  0
   -6.3203    0.3540   -0.0893 C   0  0  0  0  0  0  0  0  0  0  0  0
   -5.9451   -0.9339   -0.4133 C   0  0  0  0  0  0  0  0  0  0  0  0
   -6.6057   -2.0389    0.0894 C   0  0  0  0  0  0  0  0  0  0  0  0
   -7.6873   -1.8803    0.9518 C   0  0  0  0  0  0  0  0  0  0  0  0
   -8.0687   -0.5896    1.2808 C   0  0  0  0  0  0  0  0  0  0  0  0
    8.3181    0.4642   -1.2461 H   0  0  0  0  0  0  0  0  0  0  0  0
    8.3807   -1.3272   -0.9809 H   0  0  0  0  0  0  0  0  0  0  0  0
    7.6605   -0.6864   -2.5324 H   0  0  0  0  0  0  0  0  0  0  0  0
    8.1496    1.0060    0.7117 H   0  0  0  0  0  0  0  0  0  0  0  0
    7.5698    2.1522    2.7740 H   0  0  0  0  0  0  0  0  0  0  0  0
    5.2147    1.9947    3.6592 H   0  0  0  0  0  0  0  0  0  0  0  0
    3.5386    0.6685    2.3974 H   0  0  0  0  0  0  0  0  0  0  0  0
    3.9640   -1.2165   -1.9176 H   0  0  0  0  0  0  0  0  0  0  0  0
    4.1339    0.5632   -1.6277 H   0  0  0  0  0  0  0  0  0  0  0  0
    1.8913   -0.3657   -2.5576 H   0  0  0  0  0  0  0  0  0  0  0  0
    1.8099    0.7426   -1.0945 H   0  0  0  0  0  0  0  0  0  0  0  0
    2.8564   -2.7602   -1.1840 H   0  0  0  0  0  0  0  0  0  0  0  0
    1.6934   -3.1549    0.1379 H   0  0  0  0  0  0  0  0  0  0  0  0
    2.8293   -1.5286    1.6495 H   0  0  0  0  0  0  0  0  0  0  0  0
    4.0913   -2.6049    0.9126 H   0  0  0  0  0  0  0  0  0  0  0  0
    0.8198   -0.1493    0.9071 H   0  0  0  0  0  0  0  0  0  0  0  0
    0.2952   -1.8315    0.8633 H   0  0  0  0  0  0  0  0  0  0  0  0
   -1.2210   -1.4761   -0.9749 H   0  0  0  0  0  0  0  0  0  0  0  0
   -1.6049   -0.4378    0.4023 H   0  0  0  0  0  0  0  0  0  0  0  0
   -0.5248    1.5351   -0.7449 H   0  0  0  0  0  0  0  0  0  0  0  0
   -0.2541    0.5094   -2.2065 H   0  0  0  0  0  0  0  0  0  0  0  0
   -2.4673    0.7764   -2.8075 H   0  0  0  0  0  0  0  0  0  0  0  0
   -5.5261    3.6260   -0.6537 H   0  0  0  0  0  0  0  0  0  0  0  0
   -7.4886    3.8823    0.9109 H   0  0  0  0  0  0  0  0  0  0  0  0
   -8.6462    1.9072    1.7902 H   0  0  0  0  0  0  0  0  0  0  0  0
   -5.1190   -1.1020   -1.0730 H   0  0  0  0  0  0  0  0  0  0  0  0
   -6.3147   -3.0327   -0.1612 H   0  0  0  0  0  0  0  0  0  0  0  0
   -8.2291   -2.7064    1.3653 H   0  0  0  0  0  0  0  0  0  0  0  0
   -8.9076   -0.4685    1.9494 H   0  0  0  0  0  0  0  0  0  0  0  0
  1  2  1  0
  2  3  1  0
  3  4  2  0
  4  5  1  0
  5  6  2  0
  6  7  1  0
  7  8  2  0
  8  9  1  0
  9 10  1  0
 10 11  1  0
 11 12  1  0
 12 13  1  0
 13 14  1  0
 12 15  1  0
 15 16  1  0
 16 17  1  0
 17 18  1  0
 18 19  1  0
 19 20  2  0
 19 21  1  0
 21 22  1  0
 22 23  2  0
 23 24  1  0
 24 25  2  0
 25 26  1  0
 26 27  2  0
 27 28  1  0
 28 29  2  0
 29 30  1  0
 30 31  2  0
  8  3  1  0
 14  9  1  0
 27 22  1  0
 31 26  1  0
  1 32  1  0
  1 33  1  0
  1 34  1  0
  4 35  1  0
  5 36  1  0
  6 37  1  0
  7 38  1  0
 10 39  1  0
 10 40  1  0
 11 41  1  0
 11 42  1  0
 13 43  1  0
 13 44  1  0
 14 45  1  0
 14 46  1  0
 15 47  1  0
 15 48  1  0
 16 49  1  0
 16 50  1  0
 17 51  1  0
 17 52  1  0
 18 53  1  0
 23 54  1  0
 24 55  1  0
 25 56  1  0
 28 57  1  0
 29 58  1  0
 30 59  1  0
 31 60  1  0
M  END
>  <Ligand ID>  (1) 
LIG0004875

>  <Ligand>  (1) 
CHEMBL3798334

>  <SMILES>  (1) 
COc1ccccc1N1CCN(CC1)CCCNC(=O)Oc1cccc2c1cccc2

>  <CID>  (1) 
127047458.0

>  <ChEMBL ID>  (1) 
nan

>  <InChiKey>  (1) 
SAVFVEFYMIPDEM-UHFFFAOYSA-N

>  <InChi>  (1) 
InChI=1S/C25H29N3O3/c1-30-24-12-5-4-11-22(24)28-18-16-27(17-19-28)15-7-14-26-25(29)31-23-13-6-9-20-8-2-3-10-21(20)23/h2-6,8-13H,7,14-19H2,1H3,(H,26,29)

>  <IUPAC Name>  (1) 
naphthalen-1-yl N-[3-[4-(2-methoxyphenyl)piperazin-1-yl]propyl]carbamate

$$$$
