
     RDKit          3D

 22 21  0  0  0  0  0  0  0  0999 V2000
   -2.0662    1.1606   -0.1809 C   0  0  0  0  0  0  0  0  0  0  0  0
   -2.2438   -0.3061   -0.2578 C   0  0  0  0  0  0  0  0  0  0  0  0
   -1.2948   -1.1675    0.4817 C   0  0  0  0  0  0  0  0  0  0  0  0
    0.1390   -1.1018    0.1274 C   0  0  0  0  0  0  0  0  0  0  0  0
    0.8320    0.2039    0.2759 C   0  0  0  0  0  0  0  0  0  0  0  0
    2.2872   -0.0455   -0.1433 C   0  0  0  0  0  0  0  0  0  0  0  0
    3.0181    1.1989   -0.0192 N   0  0  0  0  0  0  0  0  0  0  0  0
   -3.0984    1.6296   -0.0940 H   0  0  0  0  0  0  0  0  0  0  0  0
   -1.6733    1.6386   -1.1139 H   0  0  0  0  0  0  0  0  0  0  0  0
   -1.5578    1.5027    0.7401 H   0  0  0  0  0  0  0  0  0  0  0  0
   -3.2762   -0.5672    0.1292 H   0  0  0  0  0  0  0  0  0  0  0  0
   -2.2796   -0.6495   -1.3165 H   0  0  0  0  0  0  0  0  0  0  0  0
   -1.6131   -2.2342    0.2597 H   0  0  0  0  0  0  0  0  0  0  0  0
   -1.4450   -1.1024    1.5931 H   0  0  0  0  0  0  0  0  0  0  0  0
    0.6758   -1.8212    0.8185 H   0  0  0  0  0  0  0  0  0  0  0  0
    0.2887   -1.5646   -0.8766 H   0  0  0  0  0  0  0  0  0  0  0  0
    0.4791    1.0218   -0.3658 H   0  0  0  0  0  0  0  0  0  0  0  0
    0.8719    0.5623    1.3228 H   0  0  0  0  0  0  0  0  0  0  0  0
    2.2739   -0.3455   -1.1998 H   0  0  0  0  0  0  0  0  0  0  0  0
    2.7470   -0.8651    0.4385 H   0  0  0  0  0  0  0  0  0  0  0  0
    2.9232    1.8006   -0.8632 H   0  0  0  0  0  0  0  0  0  0  0  0
    4.0123    1.0517    0.2441 H   0  0  0  0  0  0  0  0  0  0  0  0
  1  2  1  0
  2  3  1  0
  3  4  1  0
  4  5  1  0
  5  6  1  0
  6  7  1  0
  1  8  1  0
  1  9  1  0
  1 10  1  0
  2 11  1  0
  2 12  1  0
  3 13  1  0
  3 14  1  0
  4 15  1  0
  4 16  1  0
  5 17  1  0
  5 18  1  0
  6 19  1  0
  6 20  1  0
  7 21  1  0
  7 22  1  0
M  END
>  <Ligand ID>  (1) 
LIG0005034

>  <Ligand>  (1) 
hexan-1-amine

>  <SMILES>  (1) 
CCCCCCN

>  <CID>  (1) 
8102.0

>  <ChEMBL ID>  (1) 
nan

>  <InChiKey>  (1) 
BMVXCPBXGZKUPN-UHFFFAOYSA-N

>  <InChi>  (1) 
InChI=1S/C6H15N/c1-2-3-4-5-6-7/h2-7H2,1H3

>  <IUPAC Name>  (1) 
hexan-1-amine

$$$$
