
     RDKit          3D

 70 70  0  0  0  0  0  0  0  0999 V2000
   -8.4807    2.6191    0.8059 C   0  0  0  0  0  0  0  0  0  0  0  0
   -7.4033    1.6959    1.3574 C   0  0  0  0  0  0  0  0  0  0  0  0
   -7.6701    0.2912    0.8782 C   0  0  0  0  0  0  0  0  0  0  0  0
   -7.6725    0.1228   -0.5832 C   0  0  0  0  0  0  0  0  0  0  0  0
   -6.5462    0.4774   -1.4342 C   0  0  0  0  0  0  0  0  0  0  0  0
   -5.2444   -0.2043   -1.2254 C   0  0  0  0  0  0  0  0  0  0  0  0
   -4.5389    0.0516    0.0648 C   0  0  0  0  0  0  0  0  0  0  0  0
   -3.3275   -0.6180    0.1795 O   0  0  0  0  0  0  0  0  0  0  0  0
   -2.9753   -1.9203    0.2253 C   0  0  0  0  0  0  0  0  0  0  0  0
   -3.7908   -3.0208    0.1883 C   0  0  0  0  0  0  0  0  0  0  0  0
   -3.3059   -4.3283    0.2454 C   0  0  0  0  0  0  0  0  0  0  0  0
   -1.9567   -4.5599    0.3442 C   0  0  0  0  0  0  0  0  0  0  0  0
   -1.1247   -3.4715    0.3834 C   0  0  0  0  0  0  0  0  0  0  0  0
   -1.5968   -2.1990    0.3274 C   0  0  0  0  0  0  0  0  0  0  0  0
   -0.6324   -1.0616    0.3758 C   0  0  0  0  0  0  0  0  0  0  0  0
   -0.4248   -0.4321   -0.9923 C   0  0  0  0  0  0  0  0  0  0  0  0
    0.5563    0.6879   -0.7972 C   0  0  0  0  0  0  0  0  0  0  0  0
    0.8672    1.3452   -1.8020 O   0  0  0  0  0  0  0  0  0  0  0  0
    1.1034    0.9943    0.4326 O   0  0  0  0  0  0  0  0  0  0  0  0
    2.0179    2.0135    0.7030 C   0  0  0  0  0  0  0  0  0  0  0  0
    3.2750    1.8195   -0.0826 C   0  0  2  0  0  0  0  0  0  0  0  0
    3.9955    0.5507    0.2438 C   0  0  0  0  0  0  0  0  0  0  0  0
    5.1772    0.5082   -0.5063 O   0  0  0  0  0  0  0  0  0  0  0  0
    6.0645   -0.8864   -0.2653 P   0  0  0  0  0  0  0  0  0  0  0  0
    5.8442   -1.7717   -1.4784 O   0  0  0  0  0  0  0  0  0  0  0  0
    7.6960   -0.4825   -0.1189 O   0  0  0  0  0  0  0  0  0  0  0  0
    7.8665    0.8485   -0.4698 C   0  0  0  0  0  0  0  0  0  0  0  0
    9.3217    1.2451   -0.3736 C   0  0  1  0  0  0  0  0  0  0  0  0
    9.7653    1.0103    1.0299 C   0  0  0  0  0  0  0  0  0  0  0  0
    9.2044    1.5698    2.0211 O   0  0  0  0  0  0  0  0  0  0  0  0
   10.8310    0.1541    1.3255 O   0  0  0  0  0  0  0  0  0  0  0  0
   10.1661    0.4619   -1.2455 N   0  0  0  0  0  0  0  0  0  0  0  0
    5.6053   -1.7466    1.1187 O   0  0  0  0  0  0  0  0  0  0  0  0
    4.1321    2.8907    0.2598 O   0  0  0  0  0  0  0  0  0  0  0  0
   -8.3133    3.6239    1.2240 H   0  0  0  0  0  0  0  0  0  0  0  0
   -9.4685    2.2772    1.1563 H   0  0  0  0  0  0  0  0  0  0  0  0
   -8.3929    2.6092   -0.2944 H   0  0  0  0  0  0  0  0  0  0  0  0
   -6.4008    2.0547    1.0637 H   0  0  0  0  0  0  0  0  0  0  0  0
   -7.4840    1.6776    2.4648 H   0  0  0  0  0  0  0  0  0  0  0  0
   -7.1952   -0.4972    1.4389 H   0  0  0  0  0  0  0  0  0  0  0  0
   -8.7970    0.1491    1.1677 H   0  0  0  0  0  0  0  0  0  0  0  0
   -8.6107    0.6017   -1.0242 H   0  0  0  0  0  0  0  0  0  0  0  0
   -7.8830   -0.9978   -0.7577 H   0  0  0  0  0  0  0  0  0  0  0  0
   -6.4001    1.6090   -1.5016 H   0  0  0  0  0  0  0  0  0  0  0  0
   -6.8681    0.2650   -2.5207 H   0  0  0  0  0  0  0  0  0  0  0  0
   -5.3512   -1.3104   -1.3716 H   0  0  0  0  0  0  0  0  0  0  0  0
   -4.5017    0.1109   -2.0293 H   0  0  0  0  0  0  0  0  0  0  0  0
   -5.1597   -0.0280    0.9593 H   0  0  0  0  0  0  0  0  0  0  0  0
   -4.2325    1.1638   -0.0047 H   0  0  0  0  0  0  0  0  0  0  0  0
   -4.8559   -2.9279    0.1303 H   0  0  0  0  0  0  0  0  0  0  0  0
   -3.9769   -5.1774    0.2132 H   0  0  0  0  0  0  0  0  0  0  0  0
   -1.5480   -5.5533    0.3907 H   0  0  0  0  0  0  0  0  0  0  0  0
   -0.0640   -3.6611    0.4616 H   0  0  0  0  0  0  0  0  0  0  0  0
    0.2958   -1.4226    0.8140 H   0  0  0  0  0  0  0  0  0  0  0  0
   -1.0430   -0.2425    1.0318 H   0  0  0  0  0  0  0  0  0  0  0  0
   -1.3622   -0.0207   -1.3991 H   0  0  0  0  0  0  0  0  0  0  0  0
    0.0203   -1.1959   -1.6795 H   0  0  0  0  0  0  0  0  0  0  0  0
    2.1936    2.0631    1.7967 H   0  0  0  0  0  0  0  0  0  0  0  0
    1.5601    2.9986    0.4458 H   0  0  0  0  0  0  0  0  0  0  0  0
    3.0538    1.8260   -1.1527 H   0  0  0  0  0  0  0  0  0  0  0  0
    3.4253   -0.3557    0.0078 H   0  0  0  0  0  0  0  0  0  0  0  0
    4.2212    0.5191    1.3338 H   0  0  0  0  0  0  0  0  0  0  0  0
    7.3067    1.4982    0.2348 H   0  0  0  0  0  0  0  0  0  0  0  0
    7.5043    1.0869   -1.4885 H   0  0  0  0  0  0  0  0  0  0  0  0
    9.4429    2.3055   -0.6420 H   0  0  0  0  0  0  0  0  0  0  0  0
   11.4770    0.3464    2.1057 H   0  0  0  0  0  0  0  0  0  0  0  0
   10.2393   -0.5385   -0.9623 H   0  0  0  0  0  0  0  0  0  0  0  0
    9.9711    0.6141   -2.2506 H   0  0  0  0  0  0  0  0  0  0  0  0
    5.7627   -2.7189    1.0101 H   0  0  0  0  0  0  0  0  0  0  0  0
    4.6358    2.5930    1.0462 H   0  0  0  0  0  0  0  0  0  0  0  0
  1  2  1  0
  2  3  1  0
  3  4  1  0
  4  5  1  0
  5  6  1  0
  6  7  1  0
  7  8  1  0
  8  9  1  0
  9 10  2  0
 10 11  1  0
 11 12  2  0
 12 13  1  0
 13 14  2  0
 14 15  1  0
 15 16  1  0
 16 17  1  0
 17 18  2  0
 17 19  1  0
 19 20  1  0
 20 21  1  0
 21 22  1  0
 22 23  1  0
 23 24  1  0
 24 25  2  0
 24 26  1  0
 26 27  1  0
 27 28  1  0
 28 29  1  0
 29 30  2  0
 29 31  1  0
 28 32  1  0
 24 33  1  0
 21 34  1  0
 14  9  1  0
  1 35  1  0
  1 36  1  0
  1 37  1  0
  2 38  1  0
  2 39  1  0
  3 40  1  0
  3 41  1  0
  4 42  1  0
  4 43  1  0
  5 44  1  0
  5 45  1  0
  6 46  1  0
  6 47  1  0
  7 48  1  0
  7 49  1  0
 10 50  1  0
 11 51  1  0
 12 52  1  0
 13 53  1  0
 15 54  1  0
 15 55  1  0
 16 56  1  0
 16 57  1  0
 20 58  1  0
 20 59  1  0
 21 60  1  6
 22 61  1  0
 22 62  1  0
 27 63  1  0
 27 64  1  0
 28 65  1  6
 31 66  1  0
 32 67  1  0
 32 68  1  0
 33 69  1  0
 34 70  1  0
M  END
>  <Ligand ID>  (1) 
LIG0004303

>  <Ligand>  (1) 
CHEMBL3577167

>  <SMILES>  (1) 
CCCCCCCOc1ccccc1CCC(=O)OC[C@H](COP(=O)(OC[C@@H](C(=O)O)N)O)O

>  <CID>  (1) 
122177513.0

>  <ChEMBL ID>  (1) 
nan

>  <InChiKey>  (1) 
PEIJVSZKYNNUKV-MOPGFXCFSA-N

>  <InChi>  (1) 
InChI=1S/C22H36NO10P/c1-2-3-4-5-8-13-30-20-10-7-6-9-17(20)11-12-21(25)31-14-18(24)15-32-34(28,29)33-16-19(23)22(26)27/h6-7,9-10,18-19,24H,2-5,8,11-16,23H2,1H3,(H,26,27)(H,28,29)/t18-,19+/m1/s1

>  <IUPAC Name>  (1) 
(2S)-2-amino-3-[[(2R)-3-[3-(2-heptoxyphenyl)propanoyloxy]-2-hydroxypropoxy]-hydroxyphosphoryl]oxypropanoic acid

$$$$
