
     RDKit          3D

 17 17  0  0  0  0  0  0  0  0999 V2000
   -3.9339   -0.0224    0.1872 O   0  0  0  0  0  0  0  0  0  0  0  0
   -2.5678    0.2029    0.3883 C   0  0  0  0  0  0  0  0  0  0  0  0
   -2.1328    0.9965    1.2447 O   0  0  0  0  0  0  0  0  0  0  0  0
   -1.6546   -0.5874   -0.5099 C   0  0  0  0  0  0  0  0  0  0  0  0
   -0.2298   -0.2680   -0.2072 C   0  0  0  0  0  0  0  0  0  0  0  0
    0.4837   -0.9781    0.7262 C   0  0  0  0  0  0  0  0  0  0  0  0
    1.7933   -0.6192    0.9457 C   0  0  0  0  0  0  0  0  0  0  0  0
    2.3698    0.4353    0.2368 C   0  0  0  0  0  0  0  0  0  0  0  0
    1.6668    1.1516   -0.6978 C   0  0  0  0  0  0  0  0  0  0  0  0
    0.3448    0.7856   -0.9161 C   0  0  0  0  0  0  0  0  0  0  0  0
   -1.9241   -0.4651   -1.5593 H   0  0  0  0  0  0  0  0  0  0  0  0
   -1.7755   -1.6810   -0.2605 H   0  0  0  0  0  0  0  0  0  0  0  0
   -0.0153   -1.7897    1.2489 H   0  0  0  0  0  0  0  0  0  0  0  0
    2.3628   -1.1682    1.6747 H   0  0  0  0  0  0  0  0  0  0  0  0
    3.4022    0.7193    0.4089 H   0  0  0  0  0  0  0  0  0  0  0  0
    2.0625    1.9640   -1.2640 H   0  0  0  0  0  0  0  0  0  0  0  0
   -0.2521    1.3238   -1.6466 H   0  0  0  0  0  0  0  0  0  0  0  0
  1  2  1  0
  2  3  2  0
  2  4  1  0
  4  5  1  0
  5  6  2  0
  6  7  1  0
  7  8  2  0
  8  9  1  0
  9 10  2  0
 10  5  1  0
  4 11  1  0
  4 12  1  0
  6 13  1  0
  7 14  1  0
  8 15  1  0
  9 16  1  0
 10 17  1  0
M  CHG  1   1  -1
M  END
>  <Ligand ID>  (1) 
LIG0004976

>  <Ligand>  (1) 
phenylacetate

>  <SMILES>  (1) 
[O-]C(=O)Cc1ccccc1

>  <CID>  (1) 
4409936.0

>  <ChEMBL ID>  (1) 
nan

>  <InChiKey>  (1) 
WLJVXDMOQOGPHL-UHFFFAOYSA-M

>  <InChi>  (1) 
InChI=1S/C8H8O2/c9-8(10)6-7-4-2-1-3-5-7/h1-5H,6H2,(H,9,10)/p-1

>  <IUPAC Name>  (1) 
2-phenylacetate

$$$$
