
     RDKit          3D

 19 19  0  0  0  0  0  0  0  0999 V2000
    2.9189    0.1082   -0.6419 C   0  0  0  0  0  0  0  0  0  0  0  0
    1.7274   -0.1529    0.2218 C   0  0  0  0  0  0  0  0  0  0  0  0
    0.7344   -1.5813   -0.3928 S   0  0  0  0  0  0  0  0  0  0  0  0
   -0.8253   -0.8751    0.2073 C   0  0  0  0  0  0  0  0  0  0  0  0
   -0.4557    0.5587    0.2317 C   0  0  0  0  0  0  0  0  0  0  0  0
    0.7428    0.8355    0.2378 N   0  0  0  0  0  0  0  0  0  0  0  0
   -1.5402    1.6254    0.2476 C   0  0  0  0  0  0  0  0  0  0  0  0
   -1.9466   -1.1370   -0.7665 C   0  0  0  0  0  0  0  0  0  0  0  0
    3.7742    0.4257    0.0057 H   0  0  0  0  0  0  0  0  0  0  0  0
    3.2395   -0.8712   -1.0898 H   0  0  0  0  0  0  0  0  0  0  0  0
    2.7647    0.8576   -1.4370 H   0  0  0  0  0  0  0  0  0  0  0  0
    2.0840   -0.4390    1.2310 H   0  0  0  0  0  0  0  0  0  0  0  0
   -1.0780   -1.2527    1.2352 H   0  0  0  0  0  0  0  0  0  0  0  0
   -1.9202    1.7358   -0.7870 H   0  0  0  0  0  0  0  0  0  0  0  0
   -1.1591    2.5465    0.6800 H   0  0  0  0  0  0  0  0  0  0  0  0
   -2.3594    1.2759    0.8990 H   0  0  0  0  0  0  0  0  0  0  0  0
   -2.3944   -2.1151   -0.4616 H   0  0  0  0  0  0  0  0  0  0  0  0
   -1.5535   -1.1559   -1.7850 H   0  0  0  0  0  0  0  0  0  0  0  0
   -2.7534   -0.3891   -0.7387 H   0  0  0  0  0  0  0  0  0  0  0  0
  1  2  1  0
  2  3  1  0
  3  4  1  0
  4  5  1  0
  5  6  2  0
  5  7  1  0
  4  8  1  0
  6  2  1  0
  1  9  1  0
  1 10  1  0
  1 11  1  0
  2 12  1  0
  4 13  1  0
  7 14  1  0
  7 15  1  0
  7 16  1  0
  8 17  1  0
  8 18  1  0
  8 19  1  0
M  END
>  <Ligand ID>  (1) 
LIG0000251

>  <Ligand>  (1) 
2,4,5-trimethyl-2,5-dihydro-1,3-thiazoleÂ 

>  <SMILES>  (1) 
CC1SC(C(=N1)C)C

>  <CID>  (1) 
181287.0

>  <ChEMBL ID>  (1) 
nan

>  <InChiKey>  (1) 
AIVVNNYXOSPRCW-UHFFFAOYSA-N

>  <InChi>  (1) 
InChI=1S/C6H11NS/c1-4-5(2)8-6(3)7-4/h5-6H,1-3H3

>  <IUPAC Name>  (1) 
2,4,5-trimethyl-2,5-dihydro-1,3-thiazole

$$$$
