
     RDKit          3D

 27 25  0  0  0  0  0  0  0  0999 V2000
    3.3490   -1.0932   -0.1007 C   0  0  0  0  0  0  0  0  0  0  0  0
    2.3727    0.0284   -0.1364 C   0  0  0  0  0  0  0  0  0  0  0  0
    2.4964    0.9175    0.7417 O   0  0  0  0  0  0  0  0  0  0  0  0
    1.3838    0.0898   -1.0828 O   0  0  0  0  0  0  0  0  0  0  0  0
    0.4124    1.1065   -1.2025 C   0  0  0  0  0  0  0  0  0  0  0  0
   -0.4436    1.2287    0.0247 C   0  0  0  0  0  0  0  0  0  0  0  0
   -1.1848    0.0586    0.3733 N   0  0  0  0  0  0  0  0  0  0  0  0
   -1.8925   -0.5246   -0.7503 C   0  0  0  0  0  0  0  0  0  0  0  0
   -2.2161    0.5062    1.3269 C   0  0  0  0  0  0  0  0  0  0  0  0
   -0.4457   -0.9702    1.0441 C   0  0  0  0  0  0  0  0  0  0  0  0
    0.0000    0.0000    0.0000 Cl  0  0  0  0  0  0  0  0  0  0  0  0
    3.0145   -1.9990   -0.6205 H   0  0  0  0  0  0  0  0  0  0  0  0
    4.2998   -0.6902   -0.4757 H   0  0  0  0  0  0  0  0  0  0  0  0
    3.4951   -1.3523    0.9852 H   0  0  0  0  0  0  0  0  0  0  0  0
    0.9418    2.0746   -1.3156 H   0  0  0  0  0  0  0  0  0  0  0  0
   -0.1518    0.9271   -2.1161 H   0  0  0  0  0  0  0  0  0  0  0  0
   -1.1628    2.0698   -0.0430 H   0  0  0  0  0  0  0  0  0  0  0  0
    0.2228    1.4373    0.8949 H   0  0  0  0  0  0  0  0  0  0  0  0
   -2.3685    0.2466   -1.3959 H   0  0  0  0  0  0  0  0  0  0  0  0
   -2.7240   -1.1454   -0.3483 H   0  0  0  0  0  0  0  0  0  0  0  0
   -1.1503   -1.1130   -1.3256 H   0  0  0  0  0  0  0  0  0  0  0  0
   -2.6269    1.5088    1.0355 H   0  0  0  0  0  0  0  0  0  0  0  0
   -1.7260    0.6568    2.3312 H   0  0  0  0  0  0  0  0  0  0  0  0
   -3.0231   -0.2353    1.4390 H   0  0  0  0  0  0  0  0  0  0  0  0
    0.2726   -0.5580    1.7756 H   0  0  0  0  0  0  0  0  0  0  0  0
   -1.1732   -1.5509    1.6494 H   0  0  0  0  0  0  0  0  0  0  0  0
    0.0285   -1.6250    0.2891 H   0  0  0  0  0  0  0  0  0  0  0  0
  1  2  1  0
  2  3  2  0
  2  4  1  0
  4  5  1  0
  5  6  1  0
  6  7  1  0
  7  8  1  0
  7  9  1  0
  7 10  1  0
  1 12  1  0
  1 13  1  0
  1 14  1  0
  5 15  1  0
  5 16  1  0
  6 17  1  0
  6 18  1  0
  8 19  1  0
  8 20  1  0
  8 21  1  0
  9 22  1  0
  9 23  1  0
  9 24  1  0
 10 25  1  0
 10 26  1  0
 10 27  1  0
M  CHG  2   7   1  11  -1
M  END
>  <Ligand ID>  (1) 
LIG0003368

>  <Ligand>  (1) 
ACETYLCHOLINE CHLORIDE

>  <SMILES>  (1) 
CC(=O)OCC[N+](C)(C)C.[Cl-]

>  <CID>  (1) 
6060.0

>  <ChEMBL ID>  (1) 
nan

>  <InChiKey>  (1) 
JUGOREOARAHOCO-UHFFFAOYSA-M

>  <InChi>  (1) 
InChI=1S/C7H16NO2.ClH/c1-7(9)10-6-5-8(2,3)4;/h5-6H2,1-4H3;1H/q+1;/p-1

>  <IUPAC Name>  (1) 
2-acetyloxyethyl(trimethyl)azanium;chloride

$$$$
