
     RDKit          3D

 97100  0  0  0  0  0  0  0  0999 V2000
   -8.6962    0.7177    3.6218 N   0  0  0  0  0  0  0  0  0  0  0  0
   -7.9492    0.8524    2.7444 C   0  0  0  0  0  0  0  0  0  0  0  0
   -6.9905    1.0131    1.6502 C   0  0  0  0  0  0  0  0  0  0  0  0
   -6.4039   -0.3192    1.2520 C   0  0  0  0  0  0  0  0  0  0  0  0
   -6.7551   -1.3873    1.8228 O   0  0  0  0  0  0  0  0  0  0  0  0
   -5.4392   -0.2945    0.2033 N   0  0  0  0  0  0  0  0  0  0  0  0
   -4.7670   -1.4336   -0.3213 C   0  0  2  0  0  0  0  0  0  0  0  0
   -3.2961   -1.3159   -0.0078 C   0  0  0  0  0  0  0  0  0  0  0  0
   -2.5803   -2.2464   -0.4538 O   0  0  0  0  0  0  0  0  0  0  0  0
   -2.8108   -0.2182    0.7386 N   0  0  0  0  0  0  0  0  0  0  0  0
   -1.4690    0.0255    1.1262 C   0  0  2  0  0  0  0  0  0  0  0  0
   -0.6978    0.9461    0.2910 C   0  0  0  0  0  0  0  0  0  0  0  0
   -1.2711    1.4448   -0.7236 O   0  0  0  0  0  0  0  0  0  0  0  0
    0.6431    1.3346    0.5171 N   0  0  0  0  0  0  0  0  0  0  0  0
    1.2835    2.2671   -0.3993 C   0  0  2  0  0  0  0  0  0  0  0  0
    2.5063    1.5993   -0.9089 C   0  0  0  0  0  0  0  0  0  0  0  0
    3.2868    2.1465   -1.7523 O   0  0  0  0  0  0  0  0  0  0  0  0
    2.8917    0.2915   -0.4852 N   0  0  0  0  0  0  0  0  0  0  0  0
    4.1061   -0.3612   -0.9948 C   0  0  2  0  0  0  0  0  0  0  0  0
    3.7850   -1.5638   -1.7558 C   0  0  0  0  0  0  0  0  0  0  0  0
    2.5733   -1.9737   -1.7134 O   0  0  0  0  0  0  0  0  0  0  0  0
    4.6720   -2.3260   -2.5446 N   0  0  0  0  0  0  0  0  0  0  0  0
    5.0351   -0.5902    0.1307 C   0  0  0  0  0  0  0  0  0  0  0  0
    6.2978   -1.2557   -0.1955 C   0  0  0  0  0  0  0  0  0  0  0  0
    7.4598   -0.5558   -0.5209 C   0  0  0  0  0  0  0  0  0  0  0  0
    8.4463   -1.4165   -0.8053 N   0  0  0  0  0  0  0  0  0  0  0  0
    7.9693   -2.6743   -0.6765 C   0  0  0  0  0  0  0  0  0  0  0  0
    6.6494   -2.5783   -0.3015 C   0  0  0  0  0  0  0  0  0  0  0  0
    5.9596   -3.7591   -0.0903 C   0  0  0  0  0  0  0  0  0  0  0  0
    6.6023   -4.9490   -0.2604 C   0  0  0  0  0  0  0  0  0  0  0  0
    7.9288   -5.0359   -0.6389 C   0  0  0  0  0  0  0  0  0  0  0  0
    8.6400   -3.8566   -0.8553 C   0  0  0  0  0  0  0  0  0  0  0  0
    1.6875    3.4569    0.4388 C   0  0  0  0  0  0  0  0  0  0  0  0
    2.3651    4.5540   -0.3254 C   0  0  0  0  0  0  0  0  0  0  0  0
    2.6837    5.6676    0.6888 C   0  0  0  0  0  0  0  0  0  0  0  0
    3.3402    6.7624    0.0161 N   0  0  0  0  0  0  0  0  0  0  0  0
    2.6292    7.7891   -0.3541 C   0  0  0  0  0  0  0  0  0  0  0  0
    1.2335    7.8777   -0.1241 N   0  0  0  0  0  0  0  0  0  0  0  0
    3.2980    8.8761   -1.0248 N   0  0  0  0  0  0  0  0  0  0  0  0
   -0.6684   -1.2007    1.5463 C   0  0  0  0  0  0  0  0  0  0  0  0
   -1.2865   -1.8018    2.7377 C   0  0  0  0  0  0  0  0  0  0  0  0
   -0.9002   -1.2523    3.9713 C   0  0  0  0  0  0  0  0  0  0  0  0
   -1.3861   -1.7288    5.1664 C   0  0  0  0  0  0  0  0  0  0  0  0
   -2.2831   -2.7770    5.2152 C   0  0  0  0  0  0  0  0  0  0  0  0
   -2.6653   -3.3201    4.0068 C   0  0  0  0  0  0  0  0  0  0  0  0
   -2.1691   -2.8336    2.7890 C   0  0  0  0  0  0  0  0  0  0  0  0
   -4.9106   -1.7406   -1.7529 C   0  0  0  0  0  0  0  0  0  0  0  0
   -6.2856   -1.9913   -2.2062 C   0  0  0  0  0  0  0  0  0  0  0  0
   -6.8899   -3.2246   -2.2219 C   0  0  0  0  0  0  0  0  0  0  0  0
   -8.2000   -3.4167   -2.6609 C   0  0  0  0  0  0  0  0  0  0  0  0
   -8.9274   -2.3170   -3.1014 C   0  0  0  0  0  0  0  0  0  0  0  0
   -8.3459   -1.0631   -3.0974 C   0  0  0  0  0  0  0  0  0  0  0  0
   -7.0443   -0.9169   -2.6540 C   0  0  0  0  0  0  0  0  0  0  0  0
  -10.5806   -2.5479   -3.6552 Cl  0  0  0  0  0  0  0  0  0  0  0  0
   -6.1895    1.7454    1.8824 H   0  0  0  0  0  0  0  0  0  0  0  0
   -7.5656    1.3893    0.7653 H   0  0  0  0  0  0  0  0  0  0  0  0
   -5.1898    0.6476   -0.2349 H   0  0  0  0  0  0  0  0  0  0  0  0
   -5.1741   -2.3218    0.2467 H   0  0  0  0  0  0  0  0  0  0  0  0
   -3.5562    0.4926    1.0266 H   0  0  0  0  0  0  0  0  0  0  0  0
   -1.5684    0.5490    2.1623 H   0  0  0  0  0  0  0  0  0  0  0  0
    1.1519    0.9502    1.3373 H   0  0  0  0  0  0  0  0  0  0  0  0
    0.5738    2.5609   -1.2044 H   0  0  0  0  0  0  0  0  0  0  0  0
    2.3305   -0.2466    0.1973 H   0  0  0  0  0  0  0  0  0  0  0  0
    4.5952    0.4024   -1.6797 H   0  0  0  0  0  0  0  0  0  0  0  0
    4.4921   -3.3526   -2.7184 H   0  0  0  0  0  0  0  0  0  0  0  0
    5.5223   -1.8424   -2.9573 H   0  0  0  0  0  0  0  0  0  0  0  0
    5.2654    0.3928    0.6569 H   0  0  0  0  0  0  0  0  0  0  0  0
    4.4989   -1.1689    0.9460 H   0  0  0  0  0  0  0  0  0  0  0  0
    7.5623    0.5417   -0.5434 H   0  0  0  0  0  0  0  0  0  0  0  0
    9.4311   -1.1232   -1.0824 H   0  0  0  0  0  0  0  0  0  0  0  0
    4.9207   -3.6468    0.2057 H   0  0  0  0  0  0  0  0  0  0  0  0
    6.0149   -5.8565   -0.0824 H   0  0  0  0  0  0  0  0  0  0  0  0
    8.4354   -5.9711   -0.7740 H   0  0  0  0  0  0  0  0  0  0  0  0
    9.6883   -3.8772   -1.1549 H   0  0  0  0  0  0  0  0  0  0  0  0
    2.3484    3.1581    1.2839 H   0  0  0  0  0  0  0  0  0  0  0  0
    0.7897    3.9068    0.9486 H   0  0  0  0  0  0  0  0  0  0  0  0
    3.2794    4.2208   -0.8208 H   0  0  0  0  0  0  0  0  0  0  0  0
    1.6325    5.0195   -1.0417 H   0  0  0  0  0  0  0  0  0  0  0  0
    3.3770    5.2462    1.4559 H   0  0  0  0  0  0  0  0  0  0  0  0
    1.7407    5.9306    1.1864 H   0  0  0  0  0  0  0  0  0  0  0  0
    0.5746    8.0221   -0.9145 H   0  0  0  0  0  0  0  0  0  0  0  0
    0.7929    7.8051    0.8293 H   0  0  0  0  0  0  0  0  0  0  0  0
    3.0148    9.1591   -1.9730 H   0  0  0  0  0  0  0  0  0  0  0  0
    4.0705    9.3394   -0.4849 H   0  0  0  0  0  0  0  0  0  0  0  0
    0.3483   -0.8552    1.7912 H   0  0  0  0  0  0  0  0  0  0  0  0
   -0.5666   -1.9180    0.7043 H   0  0  0  0  0  0  0  0  0  0  0  0
   -0.1948   -0.4221    4.0136 H   0  0  0  0  0  0  0  0  0  0  0  0
   -1.0689   -1.2840    6.0958 H   0  0  0  0  0  0  0  0  0  0  0  0
   -2.6697   -3.1584    6.1492 H   0  0  0  0  0  0  0  0  0  0  0  0
   -3.3731   -4.1502    4.0085 H   0  0  0  0  0  0  0  0  0  0  0  0
   -2.5147   -3.3231    1.9206 H   0  0  0  0  0  0  0  0  0  0  0  0
   -4.3621   -2.7163   -1.9152 H   0  0  0  0  0  0  0  0  0  0  0  0
   -4.3419   -1.0228   -2.4149 H   0  0  0  0  0  0  0  0  0  0  0  0
   -6.3212   -4.0784   -1.8781 H   0  0  0  0  0  0  0  0  0  0  0  0
   -8.6298   -4.4242   -2.6508 H   0  0  0  0  0  0  0  0  0  0  0  0
   -8.8885   -0.1781   -3.4356 H   0  0  0  0  0  0  0  0  0  0  0  0
   -6.5809    0.0795   -2.6496 H   0  0  0  0  0  0  0  0  0  0  0  0
  1  2  3  0
  2  3  1  0
  3  4  1  0
  4  5  2  0
  4  6  1  0
  6  7  1  0
  7  8  1  0
  8  9  2  0
  8 10  1  0
 10 11  1  0
 11 12  1  0
 12 13  2  0
 12 14  1  0
 14 15  1  0
 15 16  1  0
 16 17  2  0
 16 18  1  0
 18 19  1  0
 19 20  1  0
 20 21  2  0
 20 22  1  0
 19 23  1  0
 23 24  1  0
 24 25  2  0
 25 26  1  0
 26 27  1  0
 27 28  2  0
 28 29  1  0
 29 30  2  0
 30 31  1  0
 31 32  2  0
 15 33  1  0
 33 34  1  0
 34 35  1  0
 35 36  1  0
 36 37  2  3
 37 38  1  0
 37 39  1  0
 11 40  1  0
 40 41  1  0
 41 42  2  0
 42 43  1  0
 43 44  2  0
 44 45  1  0
 45 46  2  0
  7 47  1  0
 47 48  1  0
 48 49  2  0
 49 50  1  0
 50 51  2  0
 51 52  1  0
 52 53  2  0
 51 54  1  0
 28 24  1  0
 46 41  1  0
 53 48  1  0
 32 27  1  0
  3 55  1  0
  3 56  1  0
  6 57  1  0
  7 58  1  1
 10 59  1  0
 11 60  1  1
 14 61  1  0
 15 62  1  6
 18 63  1  0
 19 64  1  6
 22 65  1  0
 22 66  1  0
 23 67  1  0
 23 68  1  0
 25 69  1  0
 26 70  1  0
 29 71  1  0
 30 72  1  0
 31 73  1  0
 32 74  1  0
 33 75  1  0
 33 76  1  0
 34 77  1  0
 34 78  1  0
 35 79  1  0
 35 80  1  0
 38 81  1  0
 38 82  1  0
 39 83  1  0
 39 84  1  0
 40 85  1  0
 40 86  1  0
 42 87  1  0
 43 88  1  0
 44 89  1  0
 45 90  1  0
 46 91  1  0
 47 92  1  0
 47 93  1  0
 49 94  1  0
 50 95  1  0
 52 96  1  0
 53 97  1  0
M  END
>  <Ligand ID>  (1) 
LIG0002627

>  <Ligand>  (1) 
CHEMBL186687

>  <SMILES>  (1) 
N#CCC(=O)N[C@H](C(=O)N[C@H](C(=O)N[C@H](C(=O)N[C@H](C(=O)N)Cc1c[nH]c2c1cccc2)CCCN=C(N)N)Cc1ccccc1)Cc1ccc(cc1)Cl

>  <CID>  (1) 
44394659.0

>  <ChEMBL ID>  (1) 
nan

>  <InChiKey>  (1) 
RPSOTMDLQLYDDJ-YDPTYEFTSA-N

>  <InChi>  (1) 
InChI=1S/C38H43ClN10O5/c39-26-14-12-24(13-15-26)20-31(46-33(50)16-17-40)36(53)49-32(19-23-7-2-1-3-8-23)37(54)47-29(11-6-18-44-38(42)43)35(52)48-30(34(41)51)21-25-22-45-28-10-5-4-9-27(25)28/h1-5,7-10,12-15,22,29-32,45H,6,11,16,18-21H2,(H2,41,51)(H,46,50)(H,47,54)(H,48,52)(H,49,53)(H4,42,43,44)/t29-,30-,31-,32-/m0/s1

>  <IUPAC Name>  (1) 
(2S)-N-[(2S)-1-amino-3-(1H-indol-3-yl)-1-oxopropan-2-yl]-2-[[(2S)-2-[[(2S)-3-(4-chlorophenyl)-2-[(2-cyanoacetyl)amino]propanoyl]amino]-3-phenylpropanoyl]amino]-5-(diaminomethylideneamino)pentanamide

$$$$
