
     RDKit          3D

 43 45  0  0  0  0  0  0  0  0999 V2000
   -5.4790   -0.9181   -0.5932 C   0  0  0  0  0  0  0  0  0  0  0  0
   -4.8917   -1.0615    0.7943 C   0  0  0  0  0  0  0  0  0  0  0  0
   -3.3783   -1.1235    0.7810 C   0  0  0  0  0  0  0  0  0  0  0  0
   -2.9323    0.1927    0.1418 C   0  0  0  0  0  0  0  0  0  0  0  0
   -3.3503    0.1256   -1.2902 C   0  0  0  0  0  0  0  0  0  0  0  0
   -4.8778    0.2775   -1.2815 C   0  0  0  0  0  0  0  0  0  0  0  0
   -1.4925    0.4787    0.3869 C   0  0  0  0  0  0  0  0  0  0  0  0
   -0.5797   -0.4974   -0.1138 N   0  0  0  0  0  0  0  0  0  0  0  0
    0.8044   -0.1655    0.1585 C   0  0  0  0  0  0  0  0  0  0  0  0
    1.2957    1.0380   -0.6089 C   0  0  0  0  0  0  0  0  0  0  0  0
    2.7388    1.3588   -0.2962 C   0  0  1  0  0  0  0  0  0  0  0  0
    3.1287    1.6802    1.0975 C   0  0  0  0  0  0  0  0  0  0  0  0
    3.5988    0.3800    0.4152 C   0  0  2  0  0  0  0  0  0  0  0  0
    5.0617    0.3466    0.1572 C   0  0  0  0  0  0  0  0  0  0  0  0
    5.8990    1.3819   -0.2428 C   0  0  0  0  0  0  0  0  0  0  0  0
    7.1656    0.9305   -0.3666 N   0  0  0  0  0  0  0  0  0  0  0  0
    7.1372   -0.3758   -0.0496 C   0  0  0  0  0  0  0  0  0  0  0  0
    5.8713   -0.7468    0.2700 N   0  0  0  0  0  0  0  0  0  0  0  0
   -5.2181   -1.8146   -1.1612 H   0  0  0  0  0  0  0  0  0  0  0  0
   -6.5698   -0.7744   -0.4504 H   0  0  0  0  0  0  0  0  0  0  0  0
   -5.1434   -0.1377    1.3862 H   0  0  0  0  0  0  0  0  0  0  0  0
   -5.3584   -1.9337    1.3153 H   0  0  0  0  0  0  0  0  0  0  0  0
   -3.0677   -1.9853    0.1570 H   0  0  0  0  0  0  0  0  0  0  0  0
   -3.0521   -1.1601    1.8199 H   0  0  0  0  0  0  0  0  0  0  0  0
   -3.5743    0.9693    0.6329 H   0  0  0  0  0  0  0  0  0  0  0  0
   -2.8890    0.9358   -1.8691 H   0  0  0  0  0  0  0  0  0  0  0  0
   -3.1736   -0.8729   -1.7437 H   0  0  0  0  0  0  0  0  0  0  0  0
   -5.2970    0.4142   -2.2867 H   0  0  0  0  0  0  0  0  0  0  0  0
   -5.0696    1.1926   -0.6482 H   0  0  0  0  0  0  0  0  0  0  0  0
   -1.2659    1.4458   -0.1369 H   0  0  0  0  0  0  0  0  0  0  0  0
   -1.3388    0.6237    1.4724 H   0  0  0  0  0  0  0  0  0  0  0  0
   -0.7477   -1.4522    0.2481 H   0  0  0  0  0  0  0  0  0  0  0  0
    1.4107   -1.0298   -0.2139 H   0  0  0  0  0  0  0  0  0  0  0  0
    0.9986   -0.1064    1.2276 H   0  0  0  0  0  0  0  0  0  0  0  0
    0.6925    1.9366   -0.3710 H   0  0  0  0  0  0  0  0  0  0  0  0
    1.2174    0.8771   -1.7006 H   0  0  0  0  0  0  0  0  0  0  0  0
    3.2403    1.9263   -1.1036 H   0  0  0  0  0  0  0  0  0  0  0  0
    3.8780    2.4890    1.2510 H   0  0  0  0  0  0  0  0  0  0  0  0
    2.4061    1.6062    1.9313 H   0  0  0  0  0  0  0  0  0  0  0  0
    3.1709   -0.5798    0.7737 H   0  0  0  0  0  0  0  0  0  0  0  0
    5.5418    2.3855   -0.4165 H   0  0  0  0  0  0  0  0  0  0  0  0
    7.9723   -1.0894   -0.0318 H   0  0  0  0  0  0  0  0  0  0  0  0
    5.5171   -1.6870    0.5585 H   0  0  0  0  0  0  0  0  0  0  0  0
  1  2  1  0
  2  3  1  0
  3  4  1  0
  4  5  1  0
  5  6  1  0
  4  7  1  0
  7  8  1  0
  8  9  1  0
  9 10  1  0
 10 11  1  0
 11 12  1  0
 12 13  1  0
 13 14  1  0
 14 15  2  0
 15 16  1  0
 16 17  2  0
 17 18  1  0
  6  1  1  0
 13 11  1  0
 18 14  1  0
  1 19  1  0
  1 20  1  0
  2 21  1  0
  2 22  1  0
  3 23  1  0
  3 24  1  0
  4 25  1  0
  5 26  1  0
  5 27  1  0
  6 28  1  0
  6 29  1  0
  7 30  1  0
  7 31  1  0
  8 32  1  0
  9 33  1  0
  9 34  1  0
 10 35  1  0
 10 36  1  0
 11 37  1  6
 12 38  1  0
 12 39  1  0
 13 40  1  1
 15 41  1  0
 17 42  1  0
 18 43  1  0
M  END
>  <Ligand ID>  (1) 
LIG0001359

>  <Ligand>  (1) 
CHEMBL214312

>  <SMILES>  (1) 
C1CCC(CC1)CNCC[C@H]1C[C@@H]1c1cnc[nH]1

>  <CID>  (1) 
16082833.0

>  <ChEMBL ID>  (1) 
nan

>  <InChiKey>  (1) 
NESASFDNMLPZIR-KBPBESRZSA-N

>  <InChi>  (1) 
InChI=1S/C15H25N3/c1-2-4-12(5-3-1)9-16-7-6-13-8-14(13)15-10-17-11-18-15/h10-14,16H,1-9H2,(H,17,18)/t13-,14-/m0/s1

>  <IUPAC Name>  (1) 
N-(cyclohexylmethyl)-2-[(1R,2S)-2-(1H-imidazol-5-yl)cyclopropyl]ethanamine

$$$$
