
     RDKit          3D

 38 40  0  0  0  0  0  0  0  0999 V2000
   -3.2535    0.4194    1.5524 C   0  0  0  0  0  0  0  0  0  0  0  0
   -2.8933    1.0825    0.2268 C   0  0  2  0  0  0  0  0  0  0  0  0
   -4.1436    1.1750   -0.6021 C   0  0  0  0  0  0  0  0  0  0  0  0
   -3.6855    0.7054   -1.9582 C   0  0  0  0  0  0  0  0  0  0  0  0
   -2.6973   -0.3751   -1.5952 C   0  0  1  0  0  0  0  0  0  0  0  0
   -1.9515    0.2794   -0.5361 N   0  0  0  0  0  0  0  0  0  0  0  0
   -0.5617    0.2042   -0.2313 C   0  0  0  0  0  0  0  0  0  0  0  0
    0.0120    0.8921    0.8213 C   0  0  0  0  0  0  0  0  0  0  0  0
    1.3900    0.7687    1.0604 C   0  0  0  0  0  0  0  0  0  0  0  0
    2.2050   -0.0100    0.2913 C   0  0  0  0  0  0  0  0  0  0  0  0
    1.5744   -0.6641   -0.7337 N   0  0  0  0  0  0  0  0  0  0  0  0
    0.2759   -0.5540   -0.9667 N   0  0  0  0  0  0  0  0  0  0  0  0
    3.6141   -0.2348    0.4346 C   0  0  0  0  0  0  0  0  0  0  0  0
    4.1840   -1.2140   -0.3921 C   0  0  0  0  0  0  0  0  0  0  0  0
    5.5283   -1.5123   -0.3548 C   0  0  0  0  0  0  0  0  0  0  0  0
    6.3924   -0.8656    0.4972 C   0  0  0  0  0  0  0  0  0  0  0  0
    5.8531    0.0986    1.3161 C   0  0  0  0  0  0  0  0  0  0  0  0
    4.4785    0.4034    1.2774 C   0  0  0  0  0  0  0  0  0  0  0  0
    3.9543    1.6524    2.3488 Cl  0  0  0  0  0  0  0  0  0  0  0  0
    6.9270    0.9331    2.4053 Cl  0  0  0  0  0  0  0  0  0  0  0  0
   -3.3228   -1.6557   -1.1783 C   0  0  0  0  0  0  0  0  0  0  0  0
   -2.5685   -0.4033    1.7975 H   0  0  0  0  0  0  0  0  0  0  0  0
   -3.2207    1.1692    2.3882 H   0  0  0  0  0  0  0  0  0  0  0  0
   -4.2811    0.0005    1.5185 H   0  0  0  0  0  0  0  0  0  0  0  0
   -2.5043    2.1008    0.4525 H   0  0  0  0  0  0  0  0  0  0  0  0
   -4.5754    2.1846   -0.6398 H   0  0  0  0  0  0  0  0  0  0  0  0
   -4.8865    0.4208   -0.2471 H   0  0  0  0  0  0  0  0  0  0  0  0
   -3.0902    1.5219   -2.4386 H   0  0  0  0  0  0  0  0  0  0  0  0
   -4.4948    0.3697   -2.6241 H   0  0  0  0  0  0  0  0  0  0  0  0
   -2.0627   -0.5524   -2.4913 H   0  0  0  0  0  0  0  0  0  0  0  0
   -0.5951    1.5182    1.4530 H   0  0  0  0  0  0  0  0  0  0  0  0
    1.7665    1.3046    1.8780 H   0  0  0  0  0  0  0  0  0  0  0  0
    3.5922   -1.7836   -1.0996 H   0  0  0  0  0  0  0  0  0  0  0  0
    5.9256   -2.2704   -1.0052 H   0  0  0  0  0  0  0  0  0  0  0  0
    7.4485   -1.0833    0.5432 H   0  0  0  0  0  0  0  0  0  0  0  0
   -2.6541   -2.1507   -0.4231 H   0  0  0  0  0  0  0  0  0  0  0  0
   -4.3128   -1.5361   -0.6933 H   0  0  0  0  0  0  0  0  0  0  0  0
   -3.3664   -2.3389   -2.0519 H   0  0  0  0  0  0  0  0  0  0  0  0
  1  2  1  0
  2  3  1  0
  3  4  1  0
  4  5  1  0
  5  6  1  0
  6  7  1  0
  7  8  2  0
  8  9  1  0
  9 10  2  0
 10 11  1  0
 11 12  2  0
 10 13  1  0
 13 14  2  0
 14 15  1  0
 15 16  2  0
 16 17  1  0
 17 18  2  0
 18 19  1  0
 17 20  1  0
  5 21  1  0
  6  2  1  0
 12  7  1  0
 18 13  1  0
  1 22  1  0
  1 23  1  0
  1 24  1  0
  2 25  1  1
  3 26  1  0
  3 27  1  0
  4 28  1  0
  4 29  1  0
  5 30  1  6
  8 31  1  0
  9 32  1  0
 14 33  1  0
 15 34  1  0
 16 35  1  0
 21 36  1  0
 21 37  1  0
 21 38  1  0
M  END
>  <Ligand ID>  (1) 
LIG0005234

>  <Ligand>  (1) 
CHEMBL594529

>  <SMILES>  (1) 
C[C@@H]1CC[C@@H](N1c1ccc(nn1)c1cccc(c1Cl)Cl)C

>  <CID>  (1) 
46226428.0

>  <ChEMBL ID>  (1) 
nan

>  <InChiKey>  (1) 
RTIKERGWNGSDJW-PHIMTYICSA-N

>  <InChi>  (1) 
InChI=1S/C16H17Cl2N3/c1-10-6-7-11(2)21(10)15-9-8-14(19-20-15)12-4-3-5-13(17)16(12)18/h3-5,8-11H,6-7H2,1-2H3/t10-,11+

>  <IUPAC Name>  (1) 
3-(2,3-dichlorophenyl)-6-[(2S,5R)-2,5-dimethylpyrrolidin-1-yl]pyridazine

$$$$
