
     RDKit          3D

 34 35  0  0  0  0  0  0  0  0999 V2000
    1.0583    1.4350    1.7217 C   0  0  0  0  0  0  0  0  0  0  0  0
    0.8287    0.2835    0.7307 C   0  0  0  0  0  0  0  0  0  0  0  0
    2.1243   -0.1117    0.1208 C   0  0  0  0  0  0  0  0  0  0  0  0
    3.2594    0.5008    0.3565 N   0  0  0  0  0  0  0  0  0  0  0  0
    4.3461   -0.1005   -0.3722 C   0  0  0  0  0  0  0  0  0  0  0  0
    3.5731   -0.7375   -1.5373 C   0  0  0  0  0  0  0  0  0  0  0  0
    2.3937   -1.1699   -0.7914 N   0  0  0  0  0  0  0  0  0  0  0  0
   -0.1273    0.7168   -0.2180 O   0  0  0  0  0  0  0  0  0  0  0  0
   -1.4083    0.2269   -0.3481 C   0  0  0  0  0  0  0  0  0  0  0  0
   -1.7803   -0.8147   -1.1525 C   0  0  0  0  0  0  0  0  0  0  0  0
   -0.7583   -1.5002   -1.9744 C   0  0  0  0  0  0  0  0  0  0  0  0
   -3.0858   -1.2683   -1.2451 C   0  0  0  0  0  0  0  0  0  0  0  0
   -4.0850   -0.6655   -0.5062 C   0  0  0  0  0  0  0  0  0  0  0  0
   -3.7434    0.3745    0.3033 C   0  0  0  0  0  0  0  0  0  0  0  0
   -2.4328    0.8269    0.3938 C   0  0  0  0  0  0  0  0  0  0  0  0
   -2.1732    1.9692    1.3076 C   0  0  0  0  0  0  0  0  0  0  0  0
    2.1401    1.3769    2.0343 H   0  0  0  0  0  0  0  0  0  0  0  0
    0.4425    1.3594    2.6174 H   0  0  0  0  0  0  0  0  0  0  0  0
    0.9289    2.4213    1.2417 H   0  0  0  0  0  0  0  0  0  0  0  0
    0.3740   -0.5455    1.3074 H   0  0  0  0  0  0  0  0  0  0  0  0
    4.8245   -0.9340    0.1640 H   0  0  0  0  0  0  0  0  0  0  0  0
    5.0568    0.6559   -0.7722 H   0  0  0  0  0  0  0  0  0  0  0  0
    4.1087   -1.6234   -1.8769 H   0  0  0  0  0  0  0  0  0  0  0  0
    3.3455   -0.0184   -2.3352 H   0  0  0  0  0  0  0  0  0  0  0  0
    1.8426   -2.0489   -0.8734 H   0  0  0  0  0  0  0  0  0  0  0  0
   -0.4363   -2.4512   -1.5055 H   0  0  0  0  0  0  0  0  0  0  0  0
    0.0655   -0.8489   -2.3118 H   0  0  0  0  0  0  0  0  0  0  0  0
   -1.2567   -1.8329   -2.9322 H   0  0  0  0  0  0  0  0  0  0  0  0
   -3.3488   -2.0949   -1.8904 H   0  0  0  0  0  0  0  0  0  0  0  0
   -5.1018   -1.0273   -0.5856 H   0  0  0  0  0  0  0  0  0  0  0  0
   -4.5214    0.8618    0.8938 H   0  0  0  0  0  0  0  0  0  0  0  0
   -1.4305    2.6599    0.8810 H   0  0  0  0  0  0  0  0  0  0  0  0
   -3.0964    2.5704    1.4442 H   0  0  0  0  0  0  0  0  0  0  0  0
   -1.9265    1.5548    2.2952 H   0  0  0  0  0  0  0  0  0  0  0  0
  1  2  1  0
  2  3  1  0
  3  4  2  0
  4  5  1  0
  5  6  1  0
  6  7  1  0
  2  8  1  0
  8  9  1  0
  9 10  2  0
 10 11  1  0
 10 12  1  0
 12 13  2  0
 13 14  1  0
 14 15  2  0
 15 16  1  0
  7  3  1  0
 15  9  1  0
  1 17  1  0
  1 18  1  0
  1 19  1  0
  2 20  1  0
  5 21  1  0
  5 22  1  0
  6 23  1  0
  6 24  1  0
  7 25  1  0
 11 26  1  0
 11 27  1  0
 11 28  1  0
 12 29  1  0
 13 30  1  0
 14 31  1  0
 16 32  1  0
 16 33  1  0
 16 34  1  0
M  END
>  <Ligand ID>  (1) 
LIG0003585

>  <Ligand>  (1) 
CHEMBL155866

>  <SMILES>  (1) 
CC(C1=NCCN1)Oc1c(C)cccc1C

>  <CID>  (1) 
44371755.0

>  <ChEMBL ID>  (1) 
nan

>  <InChiKey>  (1) 
JWAAXMLRAVOKBQ-UHFFFAOYSA-N

>  <InChi>  (1) 
InChI=1S/C13H18N2O/c1-9-5-4-6-10(2)12(9)16-11(3)13-14-7-8-15-13/h4-6,11H,7-8H2,1-3H3,(H,14,15)

>  <IUPAC Name>  (1) 
2-[1-(2,6-dimethylphenoxy)ethyl]-4,5-dihydro-1H-imidazole

$$$$
