
     RDKit          3D

 96 99  0  0  0  0  0  0  0  0999 V2000
   -2.9393    3.1297    1.0427 O   0  0  0  0  0  0  0  0  0  0  0  0
   -2.6828    3.7874    0.0346 C   0  0  0  0  0  0  0  0  0  0  0  0
   -1.3106    4.1002   -0.1752 N   0  0  0  0  0  0  0  0  0  0  0  0
   -0.2569    3.6161    0.7435 C   0  0  0  0  0  0  0  0  0  0  0  0
    1.0320    4.0189    0.0668 C   0  0  0  0  0  0  0  0  0  0  0  0
    2.1631    3.0010    0.3476 C   0  0  0  0  0  0  0  0  0  0  0  0
    1.5149    1.6673   -0.0249 C   0  0  0  0  0  0  0  0  0  0  0  0
    2.3963    0.6982   -0.7207 C   0  0  1  0  0  0  0  0  0  0  0  0
    3.6650    0.3779   -0.1538 N   0  0  0  0  0  0  0  0  0  0  0  0
    4.8856    0.9310   -0.6605 C   0  0  0  0  0  0  0  0  0  0  0  0
    4.9310    1.7319   -1.6233 O   0  0  0  0  0  0  0  0  0  0  0  0
    6.1301    0.4951    0.0344 C   0  0  2  0  0  0  0  0  0  0  0  0
    7.3083    0.3613   -0.8602 C   0  0  0  0  0  0  0  0  0  0  0  0
    8.4859   -0.0719   -0.0756 C   0  0  0  0  0  0  0  0  0  0  0  0
    8.8490   -1.3997    0.0908 C   0  0  0  0  0  0  0  0  0  0  0  0
    9.9638   -1.7723    0.8428 C   0  0  0  0  0  0  0  0  0  0  0  0
   10.7222   -0.7643    1.4367 C   0  0  0  0  0  0  0  0  0  0  0  0
   10.3874    0.5782    1.2915 C   0  0  0  0  0  0  0  0  0  0  0  0
    9.2847    0.8956    0.5442 C   0  0  0  0  0  0  0  0  0  0  0  0
   11.8427   -1.0524    2.1975 O   0  0  0  0  0  0  0  0  0  0  0  0
    5.8981   -0.6228    0.9119 N   0  0  0  0  0  0  0  0  0  0  0  0
    1.5946   -0.5385   -1.0136 C   0  0  0  0  0  0  0  0  0  0  0  0
    2.2042   -1.5657   -1.3102 O   0  0  0  0  0  0  0  0  0  0  0  0
    0.1855   -0.6106   -0.9565 N   0  0  0  0  0  0  0  0  0  0  0  0
   -0.6266   -1.7567   -1.2943 C   0  0  2  0  0  0  0  0  0  0  0  0
   -2.0625   -1.6099   -1.0902 C   0  0  0  0  0  0  0  0  0  0  0  0
   -2.8366   -2.4677   -1.5613 O   0  0  0  0  0  0  0  0  0  0  0  0
   -2.7244   -0.5671   -0.3872 N   0  0  0  0  0  0  0  0  0  0  0  0
   -4.1795   -0.5687   -0.1285 C   0  0  2  0  0  0  0  0  0  0  0  0
   -4.8292    0.7236   -0.3085 C   0  0  0  0  0  0  0  0  0  0  0  0
   -5.9921    0.9792    0.0538 O   0  0  0  0  0  0  0  0  0  0  0  0
   -4.1966    1.8619   -0.9464 N   0  0  0  0  0  0  0  0  0  0  0  0
   -4.8356    3.1913   -0.9247 C   0  0  1  0  0  0  0  0  0  0  0  0
   -3.7286    4.2363   -0.9691 C   0  0  0  0  0  0  0  0  0  0  0  0
   -5.6353    3.3883   -2.1651 C   0  0  0  0  0  0  0  0  0  0  0  0
   -5.7033    2.5255   -3.0781 O   0  0  0  0  0  0  0  0  0  0  0  0
   -6.3414    4.6155   -2.2948 N   0  0  0  0  0  0  0  0  0  0  0  0
   -4.4030   -1.0941    1.2788 C   0  0  0  0  0  0  0  0  0  0  0  0
   -5.8164   -1.1280    1.6283 C   0  0  0  0  0  0  0  0  0  0  0  0
   -6.4728   -0.1533    2.3784 C   0  0  0  0  0  0  0  0  0  0  0  0
   -7.8005   -0.2031    2.6855 C   0  0  0  0  0  0  0  0  0  0  0  0
   -8.5228   -1.2936    2.2168 C   0  0  0  0  0  0  0  0  0  0  0  0
   -7.9290   -2.2785    1.4769 C   0  0  0  0  0  0  0  0  0  0  0  0
   -6.5919   -2.1798    1.1965 C   0  0  0  0  0  0  0  0  0  0  0  0
   -0.1885   -2.9229   -0.3440 C   0  0  0  0  0  0  0  0  0  0  0  0
   -1.0096   -4.0978   -0.6675 C   0  0  0  0  0  0  0  0  0  0  0  0
   -0.5963   -4.9210   -1.7207 C   0  0  0  0  0  0  0  0  0  0  0  0
   -1.3262   -6.0565   -2.0364 C   0  0  0  0  0  0  0  0  0  0  0  0
   -2.4532   -6.4125   -1.3495 C   0  0  0  0  0  0  0  0  0  0  0  0
   -2.8742   -5.6173   -0.3142 C   0  0  0  0  0  0  0  0  0  0  0  0
   -2.1435   -4.4905   -0.0067 C   0  0  0  0  0  0  0  0  0  0  0  0
   -3.1553   -7.5380   -1.6842 F   0  0  0  0  0  0  0  0  0  0  0  0
   -1.1168    4.6781   -0.9954 H   0  0  0  0  0  0  0  0  0  0  0  0
   -0.3033    2.5548    0.9282 H   0  0  0  0  0  0  0  0  0  0  0  0
   -0.3424    4.1251    1.7228 H   0  0  0  0  0  0  0  0  0  0  0  0
    1.3044    5.0325    0.4079 H   0  0  0  0  0  0  0  0  0  0  0  0
    0.9202    4.0106   -1.0422 H   0  0  0  0  0  0  0  0  0  0  0  0
    2.3727    3.0897    1.4290 H   0  0  0  0  0  0  0  0  0  0  0  0
    3.0253    3.2438   -0.2723 H   0  0  0  0  0  0  0  0  0  0  0  0
    0.6445    1.9034   -0.7127 H   0  0  0  0  0  0  0  0  0  0  0  0
    1.1282    1.2052    0.9093 H   0  0  0  0  0  0  0  0  0  0  0  0
    2.6636    1.1639   -1.7525 H   0  0  0  0  0  0  0  0  0  0  0  0
    3.6623   -0.2975    0.6691 H   0  0  0  0  0  0  0  0  0  0  0  0
    6.3649    1.3692    0.7276 H   0  0  0  0  0  0  0  0  0  0  0  0
    7.1458   -0.2839   -1.7505 H   0  0  0  0  0  0  0  0  0  0  0  0
    7.5966    1.3616   -1.3023 H   0  0  0  0  0  0  0  0  0  0  0  0
    8.2183   -2.1368   -0.3966 H   0  0  0  0  0  0  0  0  0  0  0  0
   10.2336   -2.8290    0.9610 H   0  0  0  0  0  0  0  0  0  0  0  0
   10.9943    1.3587    1.7659 H   0  0  0  0  0  0  0  0  0  0  0  0
    9.0492    1.9638    0.4526 H   0  0  0  0  0  0  0  0  0  0  0  0
   12.7211   -1.1684    1.7109 H   0  0  0  0  0  0  0  0  0  0  0  0
    5.3689   -0.3179    1.7793 H   0  0  0  0  0  0  0  0  0  0  0  0
    6.7527   -1.0917    1.2684 H   0  0  0  0  0  0  0  0  0  0  0  0
   -0.2895    0.2345   -0.6378 H   0  0  0  0  0  0  0  0  0  0  0  0
   -0.3786   -2.1709   -2.2760 H   0  0  0  0  0  0  0  0  0  0  0  0
   -2.1596    0.1990   -0.0572 H   0  0  0  0  0  0  0  0  0  0  0  0
   -4.6433   -1.3366   -0.7842 H   0  0  0  0  0  0  0  0  0  0  0  0
   -3.3128    1.6496   -1.3920 H   0  0  0  0  0  0  0  0  0  0  0  0
   -5.4604    3.2697   -0.0661 H   0  0  0  0  0  0  0  0  0  0  0  0
   -3.2569    4.3058   -1.9456 H   0  0  0  0  0  0  0  0  0  0  0  0
   -4.1668    5.1877   -0.6820 H   0  0  0  0  0  0  0  0  0  0  0  0
   -7.0040    4.9469   -1.5334 H   0  0  0  0  0  0  0  0  0  0  0  0
   -6.1769    5.1632   -3.1605 H   0  0  0  0  0  0  0  0  0  0  0  0
   -3.9008   -0.4227    2.0327 H   0  0  0  0  0  0  0  0  0  0  0  0
   -4.0074   -2.1239    1.3787 H   0  0  0  0  0  0  0  0  0  0  0  0
   -5.9100    0.6977    2.7526 H   0  0  0  0  0  0  0  0  0  0  0  0
   -8.2604    0.5894    3.2761 H   0  0  0  0  0  0  0  0  0  0  0  0
   -9.5885   -1.3473    2.4551 H   0  0  0  0  0  0  0  0  0  0  0  0
   -8.5295   -3.1218    1.1238 H   0  0  0  0  0  0  0  0  0  0  0  0
   -6.1158   -2.9578    0.6096 H   0  0  0  0  0  0  0  0  0  0  0  0
    0.8575   -3.2033   -0.5400 H   0  0  0  0  0  0  0  0  0  0  0  0
   -0.4114   -2.5656    0.6642 H   0  0  0  0  0  0  0  0  0  0  0  0
    0.2900   -4.6773   -2.2913 H   0  0  0  0  0  0  0  0  0  0  0  0
   -1.0076   -6.6944   -2.8520 H   0  0  0  0  0  0  0  0  0  0  0  0
   -3.7706   -5.8389    0.2833 H   0  0  0  0  0  0  0  0  0  0  0  0
   -2.4811   -3.8743    0.8086 H   0  0  0  0  0  0  0  0  0  0  0  0
  1  2  2  0
  2  3  1  0
  3  4  1  0
  4  5  1  0
  5  6  1  0
  6  7  1  0
  7  8  1  0
  8  9  1  0
  9 10  1  0
 10 11  2  0
 10 12  1  0
 12 13  1  0
 13 14  1  0
 14 15  2  0
 15 16  1  0
 16 17  2  0
 17 18  1  0
 18 19  2  0
 17 20  1  0
 12 21  1  0
  8 22  1  0
 22 23  2  0
 22 24  1  0
 24 25  1  0
 25 26  1  0
 26 27  2  0
 26 28  1  0
 28 29  1  0
 29 30  1  0
 30 31  2  0
 30 32  1  0
 32 33  1  0
 33 34  1  0
 33 35  1  0
 35 36  2  0
 35 37  1  0
 29 38  1  0
 38 39  1  0
 39 40  2  0
 40 41  1  0
 41 42  2  0
 42 43  1  0
 43 44  2  0
 25 45  1  0
 45 46  1  0
 46 47  2  0
 47 48  1  0
 48 49  2  0
 49 50  1  0
 50 51  2  0
 49 52  1  0
 34  2  1  0
 44 39  1  0
 51 46  1  0
 19 14  1  0
  3 53  1  0
  4 54  1  0
  4 55  1  0
  5 56  1  0
  5 57  1  0
  6 58  1  0
  6 59  1  0
  7 60  1  0
  7 61  1  0
  8 62  1  6
  9 63  1  0
 12 64  1  1
 13 65  1  0
 13 66  1  0
 15 67  1  0
 16 68  1  0
 18 69  1  0
 19 70  1  0
 20 71  1  0
 21 72  1  0
 21 73  1  0
 24 74  1  0
 25 75  1  6
 28 76  1  0
 29 77  1  6
 32 78  1  0
 33 79  1  1
 34 80  1  0
 34 81  1  0
 37 82  1  0
 37 83  1  0
 38 84  1  0
 38 85  1  0
 40 86  1  0
 41 87  1  0
 42 88  1  0
 43 89  1  0
 44 90  1  0
 45 91  1  0
 45 92  1  0
 47 93  1  0
 48 94  1  0
 50 95  1  0
 51 96  1  0
M  END
>  <Ligand ID>  (1) 
LIG0003103

>  <Ligand>  (1) 
CHEMBL3582484

>  <SMILES>  (1) 
O=C1NCCCC[C@@H](NC(=O)[C@H](Cc2ccc(cc2)O)N)C(=O)N[C@H](C(=O)N[C@H](C(=O)N[C@@H](C1)C(=O)N)Cc1ccccc1)Cc1ccc(cc1)F

>  <CID>  (1) 
122179557.0

>  <ChEMBL ID>  (1) 
nan

>  <InChiKey>  (1) 
ATYCQTCKIKMDME-JZVHMONDSA-N

>  <InChi>  (1) 
InChI=1S/C37H44FN7O7/c38-25-13-9-24(10-14-25)20-31-37(52)45-30(19-22-6-2-1-3-7-22)36(51)43-29(33(40)48)21-32(47)41-17-5-4-8-28(35(50)44-31)42-34(49)27(39)18-23-11-15-26(46)16-12-23/h1-3,6-7,9-16,27-31,46H,4-5,8,17-21,39H2,(H2,40,48)(H,41,47)(H,42,49)(H,43,51)(H,44,50)(H,45,52)/t27-,28+,29-,30-,31-/m0/s1

>  <IUPAC Name>  (1) 
(2S,5S,8S,16R)-16-[[(2S)-2-amino-3-(4-hydroxyphenyl)propanoyl]amino]-5-benzyl-2-[(4-fluorophenyl)methyl]-3,6,10,17-tetraoxo-1,4,7,11-tetrazacycloheptadecane-8-carboxamide

$$$$
