
     RDKit          3D

235240  0  0  0  0  0  0  0  0999 V2000
    1.7211   -9.5671    0.9672 N   0  0  0  0  0  0  0  0  0  0  0  0
    0.4673   -8.8883    0.9606 C   0  0  0  0  0  0  0  0  0  0  0  0
   -0.4884   -9.2551    0.2040 O   0  0  0  0  0  0  0  0  0  0  0  0
    0.2250   -7.7037    1.8444 C   0  0  0  0  0  0  0  0  0  0  0  0
   -1.0679   -7.0464    1.6197 C   0  0  2  0  0  0  0  0  0  0  0  0
   -2.2419   -7.9121    1.8563 N   0  0  0  0  0  0  0  0  0  0  0  0
   -3.4655   -7.2144    1.7748 C   0  0  0  0  0  0  0  0  0  0  0  0
   -3.3025   -6.0189    1.3063 O   0  0  0  0  0  0  0  0  0  0  0  0
   -4.8480   -7.5542    2.0950 C   0  0  2  0  0  0  0  0  0  0  0  0
   -5.3242   -8.9183    2.0927 C   0  0  0  0  0  0  0  0  0  0  0  0
   -5.2782   -9.7139    0.8578 C   0  0  0  0  0  0  0  0  0  0  0  0
   -6.3862   -9.6470    0.0013 C   0  0  0  0  0  0  0  0  0  0  0  0
   -6.4454  -10.3853   -1.1644 C   0  0  0  0  0  0  0  0  0  0  0  0
   -5.4188  -11.2239   -1.5468 C   0  0  0  0  0  0  0  0  0  0  0  0
   -4.3206  -11.2990   -0.7127 C   0  0  0  0  0  0  0  0  0  0  0  0
   -4.2627  -10.5504    0.4710 C   0  0  0  0  0  0  0  0  0  0  0  0
   -5.7266   -6.5699    1.3926 N   0  0  0  0  0  0  0  0  0  0  0  0
   -5.7048   -5.1914    1.7403 C   0  0  0  0  0  0  0  0  0  0  0  0
   -5.0522   -4.9159    2.7656 O   0  0  0  0  0  0  0  0  0  0  0  0
   -6.3675   -4.0986    1.0237 C   0  0  2  0  0  0  0  0  0  0  0  0
   -5.9048   -3.9031   -0.4133 C   0  0  0  0  0  0  0  0  0  0  0  0
   -6.1474   -5.1344   -1.2008 C   0  0  0  0  0  0  0  0  0  0  0  0
   -7.3965   -5.4194   -1.6776 C   0  0  0  0  0  0  0  0  0  0  0  0
   -7.6798   -6.5162   -2.4602 C   0  0  0  0  0  0  0  0  0  0  0  0
   -6.6606   -7.3629   -2.7800 C   0  0  0  0  0  0  0  0  0  0  0  0
   -5.3831   -7.1322   -2.3328 C   0  0  0  0  0  0  0  0  0  0  0  0
   -5.1343   -6.0260   -1.5518 C   0  0  0  0  0  0  0  0  0  0  0  0
   -6.0706   -2.8767    1.7954 N   0  0  0  0  0  0  0  0  0  0  0  0
   -5.5557   -1.6635    1.2999 C   0  0  0  0  0  0  0  0  0  0  0  0
   -5.3226   -1.5991    0.0804 O   0  0  0  0  0  0  0  0  0  0  0  0
   -5.2452   -0.4542    2.0827 C   0  0  2  0  0  0  0  0  0  0  0  0
   -6.2936    0.5516    2.2412 C   0  0  0  0  0  0  0  0  0  0  0  0
   -6.9114    1.2147    1.0933 C   0  0  0  0  0  0  0  0  0  0  0  0
   -7.8779    0.5405    0.1871 C   0  0  0  0  0  0  0  0  0  0  0  0
   -9.1400    0.2305    0.8416 N   0  0  0  0  0  0  0  0  0  0  0  0
   -9.3369   -0.7497    1.8157 C   0  0  0  0  0  0  0  0  0  0  0  0
   -9.0067   -1.9607    1.5237 N   0  0  0  0  0  0  0  0  0  0  0  0
   -9.9006   -0.4702    3.0796 N   0  0  0  0  0  0  0  0  0  0  0  0
   -4.1257    0.2594    1.3380 N   0  0  0  0  0  0  0  0  0  0  0  0
   -2.8578    0.0771    1.8644 C   0  0  0  0  0  0  0  0  0  0  0  0
   -2.7591   -0.6408    2.8921 O   0  0  0  0  0  0  0  0  0  0  0  0
   -1.5091    0.6052    1.3892 C   0  0  2  0  0  0  0  0  0  0  0  0
   -0.5516    0.6584    2.4965 C   0  0  0  0  0  0  0  0  0  0  0  0
    1.1531    0.8036    2.0822 S   0  0  0  0  0  0  0  0  0  0  0  0
    1.8379    2.5339    1.2588 S   0  0  0  0  0  0  0  0  0  0  0  0
    1.9595    2.7404   -0.4800 C   0  0  0  0  0  0  0  0  0  0  0  0
    3.1172    1.9535   -1.0886 C   0  0  2  0  0  0  0  0  0  0  0  0
    3.0332    0.5429   -0.9192 N   0  0  0  0  0  0  0  0  0  0  0  0
    2.2460   -0.3338   -1.7717 C   0  0  0  0  0  0  0  0  0  0  0  0
    1.5394    0.2617   -2.5882 O   0  0  0  0  0  0  0  0  0  0  0  0
    2.3651   -1.7725   -1.5625 C   0  0  1  0  0  0  0  0  0  0  0  0
    1.2882   -2.6040   -2.0182 N   0  0  0  0  0  0  0  0  0  0  0  0
    0.8280   -3.5790   -1.0791 C   0  0  0  0  0  0  0  0  0  0  0  0
    1.5008   -3.6187   -0.0111 O   0  0  0  0  0  0  0  0  0  0  0  0
   -0.2830   -4.5024   -1.1924 C   0  0  1  0  0  0  0  0  0  0  0  0
   -0.4257   -5.2753    0.0323 N   0  0  0  0  0  0  0  0  0  0  0  0
   -1.1061   -6.4940    0.2080 C   0  0  0  0  0  0  0  0  0  0  0  0
   -1.6638   -6.9811   -0.7538 O   0  0  0  0  0  0  0  0  0  0  0  0
   -1.5961   -3.7198   -1.4184 C   0  0  0  0  0  0  0  0  0  0  0  0
    3.5887   -2.1966   -2.4159 C   0  0  0  0  0  0  0  0  0  0  0  0
    3.7322   -3.6489   -2.2912 C   0  0  0  0  0  0  0  0  0  0  0  0
    3.1126   -4.4178   -3.2738 C   0  0  0  0  0  0  0  0  0  0  0  0
    3.1536   -5.7939   -3.2660 C   0  0  0  0  0  0  0  0  0  0  0  0
    3.8368   -6.4660   -2.2503 C   0  0  0  0  0  0  0  0  0  0  0  0
    4.4490   -5.6954   -1.2816 C   0  0  0  0  0  0  0  0  0  0  0  0
    4.3922   -4.3231   -1.3098 C   0  0  0  0  0  0  0  0  0  0  0  0
    4.3985    2.4327   -0.5402 C   0  0  0  0  0  0  0  0  0  0  0  0
    4.5697    3.6691   -0.3897 O   0  0  0  0  0  0  0  0  0  0  0  0
    5.4708    1.5775   -0.1637 N   0  0  0  0  0  0  0  0  0  0  0  0
    6.6730    2.0931    0.3899 C   0  0  2  0  0  0  0  0  0  0  0  0
    7.7015    2.3063   -0.6138 C   0  0  0  0  0  0  0  0  0  0  0  0
    8.9119    2.4013   -0.2777 O   0  0  0  0  0  0  0  0  0  0  0  0
    7.4599    2.4336   -2.0381 N   0  0  0  0  0  0  0  0  0  0  0  0
    8.7241    2.6043   -2.7840 C   0  0  2  0  0  0  0  0  0  0  0  0
    9.3687    3.8136   -2.1054 C   0  0  0  0  0  0  0  0  0  0  0  0
    8.6556    4.6391   -1.4653 O   0  0  0  0  0  0  0  0  0  0  0  0
   10.7525    3.8920   -2.2447 N   0  0  0  0  0  0  0  0  0  0  0  0
   11.5999    4.9341   -1.6332 C   0  0  2  0  0  0  0  0  0  0  0  0
   12.8784    5.1209   -2.2836 C   0  0  0  0  0  0  0  0  0  0  0  0
   13.7458    5.9988   -1.9374 O   0  0  0  0  0  0  0  0  0  0  0  0
   13.2775    4.3074   -3.3943 N   0  0  0  0  0  0  0  0  0  0  0  0
   11.7451    4.4372   -0.1639 C   0  0  0  0  0  0  0  0  0  0  0  0
   12.6336    5.3571    0.5918 C   0  0  0  0  0  0  0  0  0  0  0  0
   12.7057    4.9066    2.0799 C   0  0  0  0  0  0  0  0  0  0  0  0
   13.1278    3.5348    2.1903 N   0  0  0  0  0  0  0  0  0  0  0  0
   14.3898    3.0573    1.8568 C   0  0  0  0  0  0  0  0  0  0  0  0
   15.3907    3.7900    1.7279 N   0  0  0  0  0  0  0  0  0  0  0  0
   14.5305    1.6348    1.6546 N   0  0  0  0  0  0  0  0  0  0  0  0
    8.4520    2.7884   -4.2061 C   0  0  0  0  0  0  0  0  0  0  0  0
    7.1791    1.3331    1.5691 C   0  0  0  0  0  0  0  0  0  0  0  0
    7.5403   -0.0674    1.3702 C   0  0  0  0  0  0  0  0  0  0  0  0
    8.8794   -0.3817    1.1579 C   0  0  0  0  0  0  0  0  0  0  0  0
    9.3480   -1.6502    0.9520 C   0  0  0  0  0  0  0  0  0  0  0  0
    8.4711   -2.7168    0.9476 C   0  0  0  0  0  0  0  0  0  0  0  0
    7.1418   -2.4317    1.1568 C   0  0  0  0  0  0  0  0  0  0  0  0
    6.6709   -1.1384    1.3666 C   0  0  0  0  0  0  0  0  0  0  0  0
    8.9432   -4.0085    0.7399 O   0  0  0  0  0  0  0  0  0  0  0  0
   -1.7165    1.7141    0.5454 N   0  0  0  0  0  0  0  0  0  0  0  0
   -2.6809    2.7893    0.7127 C   0  0  0  0  0  0  0  0  0  0  0  0
   -3.4536    2.8603    1.6814 O   0  0  0  0  0  0  0  0  0  0  0  0
   -2.6409    3.7939   -0.4100 C   0  0  1  0  0  0  0  0  0  0  0  0
   -3.7448    4.6977   -0.3465 N   0  0  0  0  0  0  0  0  0  0  0  0
   -4.8567    4.4334   -1.1877 C   0  0  0  0  0  0  0  0  0  0  0  0
   -4.7328    3.3429   -1.8748 O   0  0  0  0  0  0  0  0  0  0  0  0
   -6.0600    5.1886   -1.3749 C   0  0  1  0  0  0  0  0  0  0  0  0
   -5.9918    6.5031   -0.7871 N   0  0  0  0  0  0  0  0  0  0  0  0
   -6.8926    7.5701   -1.0970 C   0  0  0  0  0  0  0  0  0  0  0  0
   -7.8286    7.4533   -1.9460 O   0  0  0  0  0  0  0  0  0  0  0  0
   -6.7646    8.8992   -0.4289 C   0  0  2  0  0  0  0  0  0  0  0  0
   -7.5075    8.7370    0.9083 C   0  0  2  0  0  0  0  0  0  0  0  0
   -8.8396    8.4067    0.6721 O   0  0  0  0  0  0  0  0  0  0  0  0
   -7.4083   10.0844    1.6241 C   0  0  0  0  0  0  0  0  0  0  0  0
   -7.3482    9.9645   -1.1762 N   0  0  0  0  0  0  0  0  0  0  0  0
   -8.6227   10.1207   -1.6958 C   0  0  0  0  0  0  0  0  0  0  0  0
   -9.5716    9.3212   -1.6056 O   0  0  0  0  0  0  0  0  0  0  0  0
   -8.9208   11.3935   -2.4585 C   0  0  0  0  0  0  0  0  0  0  0  0
   -6.3649    5.3357   -2.8981 C   0  0  0  0  0  0  0  0  0  0  0  0
   -1.3925    4.6644   -0.2606 C   0  0  0  0  0  0  0  0  0  0  0  0
   -1.4222    5.4030    1.0268 C   0  0  0  0  0  0  0  0  0  0  0  0
   -1.0152    4.7581    2.1830 C   0  0  0  0  0  0  0  0  0  0  0  0
   -0.9816    5.3832    3.4137 C   0  0  0  0  0  0  0  0  0  0  0  0
   -1.3657    6.6956    3.5031 C   0  0  0  0  0  0  0  0  0  0  0  0
   -1.7841    7.3853    2.3664 C   0  0  0  0  0  0  0  0  0  0  0  0
   -1.8001    6.7175    1.1583 C   0  0  0  0  0  0  0  0  0  0  0  0
   -1.3547    7.3814    4.7096 O   0  0  0  0  0  0  0  0  0  0  0  0
    2.4972   -9.0505    0.4502 H   0  0  0  0  0  0  0  0  0  0  0  0
    1.8891  -10.4868    1.4241 H   0  0  0  0  0  0  0  0  0  0  0  0
    1.0416   -6.9791    1.5790 H   0  0  0  0  0  0  0  0  0  0  0  0
    0.4104   -7.9785    2.9078 H   0  0  0  0  0  0  0  0  0  0  0  0
   -1.1908   -6.1403    2.2763 H   0  0  0  0  0  0  0  0  0  0  0  0
   -2.2371   -8.8904    2.0450 H   0  0  0  0  0  0  0  0  0  0  0  0
   -4.9272   -7.1529    3.1933 H   0  0  0  0  0  0  0  0  0  0  0  0
   -4.8746   -9.5360    2.9437 H   0  0  0  0  0  0  0  0  0  0  0  0
   -6.4265   -8.9320    2.4021 H   0  0  0  0  0  0  0  0  0  0  0  0
   -7.2387   -9.0194    0.2172 H   0  0  0  0  0  0  0  0  0  0  0  0
   -7.3403  -10.3032   -1.7991 H   0  0  0  0  0  0  0  0  0  0  0  0
   -5.4520  -11.8081   -2.4569 H   0  0  0  0  0  0  0  0  0  0  0  0
   -3.4847  -11.9506   -0.9839 H   0  0  0  0  0  0  0  0  0  0  0  0
   -3.3947  -10.6546    1.0660 H   0  0  0  0  0  0  0  0  0  0  0  0
   -6.4011   -6.8380    0.6830 H   0  0  0  0  0  0  0  0  0  0  0  0
   -7.4611   -4.2134    1.0270 H   0  0  0  0  0  0  0  0  0  0  0  0
   -4.8517   -3.6602   -0.4364 H   0  0  0  0  0  0  0  0  0  0  0  0
   -6.5224   -3.0668   -0.8197 H   0  0  0  0  0  0  0  0  0  0  0  0
   -8.1890   -4.7060   -1.3947 H   0  0  0  0  0  0  0  0  0  0  0  0
   -8.7083   -6.6590   -2.7819 H   0  0  0  0  0  0  0  0  0  0  0  0
   -6.8240   -8.2315   -3.3890 H   0  0  0  0  0  0  0  0  0  0  0  0
   -4.5368   -7.7924   -2.5646 H   0  0  0  0  0  0  0  0  0  0  0  0
   -4.1451   -5.8570   -1.2236 H   0  0  0  0  0  0  0  0  0  0  0  0
   -6.2480   -2.8985    2.8090 H   0  0  0  0  0  0  0  0  0  0  0  0
   -4.8507   -0.7537    3.0936 H   0  0  0  0  0  0  0  0  0  0  0  0
   -7.0989    0.1677    2.9740 H   0  0  0  0  0  0  0  0  0  0  0  0
   -5.8588    1.4104    2.8910 H   0  0  0  0  0  0  0  0  0  0  0  0
   -7.4165    2.2058    1.4346 H   0  0  0  0  0  0  0  0  0  0  0  0
   -6.0874    1.6111    0.4103 H   0  0  0  0  0  0  0  0  0  0  0  0
   -7.4917   -0.3170   -0.3735 H   0  0  0  0  0  0  0  0  0  0  0  0
   -8.1498    1.2862   -0.6366 H   0  0  0  0  0  0  0  0  0  0  0  0
  -10.0117    0.8102    0.5925 H   0  0  0  0  0  0  0  0  0  0  0  0
   -8.5976   -2.2750    0.6115 H   0  0  0  0  0  0  0  0  0  0  0  0
   -9.2730   -0.4124    3.9330 H   0  0  0  0  0  0  0  0  0  0  0  0
  -10.9117   -0.3069    3.2696 H   0  0  0  0  0  0  0  0  0  0  0  0
   -4.3003    0.7916    0.5203 H   0  0  0  0  0  0  0  0  0  0  0  0
   -1.2269   -0.3170    0.7268 H   0  0  0  0  0  0  0  0  0  0  0  0
   -0.8365    1.5462    3.1431 H   0  0  0  0  0  0  0  0  0  0  0  0
   -0.7069   -0.2756    3.1340 H   0  0  0  0  0  0  0  0  0  0  0  0
    2.1095    3.8333   -0.7113 H   0  0  0  0  0  0  0  0  0  0  0  0
    1.0085    2.4313   -0.9935 H   0  0  0  0  0  0  0  0  0  0  0  0
    3.0573    2.2661   -2.1713 H   0  0  0  0  0  0  0  0  0  0  0  0
    3.5138    0.0585   -0.1594 H   0  0  0  0  0  0  0  0  0  0  0  0
    2.6738   -1.9509   -0.5051 H   0  0  0  0  0  0  0  0  0  0  0  0
    0.8121   -2.6006   -2.9149 H   0  0  0  0  0  0  0  0  0  0  0  0
   -0.2276   -5.1714   -2.0334 H   0  0  0  0  0  0  0  0  0  0  0  0
    0.0249   -4.8857    0.8674 H   0  0  0  0  0  0  0  0  0  0  0  0
   -1.9828   -3.4992   -0.3830 H   0  0  0  0  0  0  0  0  0  0  0  0
   -2.3166   -4.4604   -1.8242 H   0  0  0  0  0  0  0  0  0  0  0  0
   -1.4937   -2.8645   -2.0604 H   0  0  0  0  0  0  0  0  0  0  0  0
    3.4240   -1.8391   -3.4409 H   0  0  0  0  0  0  0  0  0  0  0  0
    4.4832   -1.6667   -2.0151 H   0  0  0  0  0  0  0  0  0  0  0  0
    2.5848   -3.9006   -4.0822 H   0  0  0  0  0  0  0  0  0  0  0  0
    2.6568   -6.3511   -4.0453 H   0  0  0  0  0  0  0  0  0  0  0  0
    3.8420   -7.5295   -2.2998 H   0  0  0  0  0  0  0  0  0  0  0  0
    4.9776   -6.2335   -0.4977 H   0  0  0  0  0  0  0  0  0  0  0  0
    4.8734   -3.7780   -0.5382 H   0  0  0  0  0  0  0  0  0  0  0  0
    5.4046    0.5327   -0.2871 H   0  0  0  0  0  0  0  0  0  0  0  0
    6.4089    3.1539    0.7662 H   0  0  0  0  0  0  0  0  0  0  0  0
    6.5410    2.4192   -2.4585 H   0  0  0  0  0  0  0  0  0  0  0  0
    9.4195    1.7809   -2.5048 H   0  0  0  0  0  0  0  0  0  0  0  0
   11.2989    3.1899   -2.8084 H   0  0  0  0  0  0  0  0  0  0  0  0
   11.0030    5.8694   -1.5563 H   0  0  0  0  0  0  0  0  0  0  0  0
   13.3478    4.8087   -4.3098 H   0  0  0  0  0  0  0  0  0  0  0  0
   13.4704    3.3042   -3.2435 H   0  0  0  0  0  0  0  0  0  0  0  0
   10.7210    4.4153    0.2802 H   0  0  0  0  0  0  0  0  0  0  0  0
   12.1672    3.4015   -0.1980 H   0  0  0  0  0  0  0  0  0  0  0  0
   12.2927    6.4046    0.5281 H   0  0  0  0  0  0  0  0  0  0  0  0
   13.6872    5.3020    0.2318 H   0  0  0  0  0  0  0  0  0  0  0  0
   11.6948    5.0845    2.4774 H   0  0  0  0  0  0  0  0  0  0  0  0
   13.3758    5.6217    2.6003 H   0  0  0  0  0  0  0  0  0  0  0  0
   12.4177    2.8475    2.5486 H   0  0  0  0  0  0  0  0  0  0  0  0
   15.5463    4.8033    1.8203 H   0  0  0  0  0  0  0  0  0  0  0  0
   14.4029    1.2572    0.6750 H   0  0  0  0  0  0  0  0  0  0  0  0
   14.7448    1.0301    2.4704 H   0  0  0  0  0  0  0  0  0  0  0  0
    8.5658    3.8465   -4.5306 H   0  0  0  0  0  0  0  0  0  0  0  0
    7.4011    2.4533   -4.4193 H   0  0  0  0  0  0  0  0  0  0  0  0
    9.1199    2.1889   -4.8596 H   0  0  0  0  0  0  0  0  0  0  0  0
    8.0277    1.9094    2.0759 H   0  0  0  0  0  0  0  0  0  0  0  0
    6.3989    1.3254    2.3993 H   0  0  0  0  0  0  0  0  0  0  0  0
    9.6578    0.3950    1.1704 H   0  0  0  0  0  0  0  0  0  0  0  0
   10.3788   -1.8595    0.7956 H   0  0  0  0  0  0  0  0  0  0  0  0
    6.4750   -3.3031    1.1512 H   0  0  0  0  0  0  0  0  0  0  0  0
    5.6338   -0.9770    1.5292 H   0  0  0  0  0  0  0  0  0  0  0  0
    9.9081   -4.1246    0.4358 H   0  0  0  0  0  0  0  0  0  0  0  0
   -1.1181    1.7725   -0.3326 H   0  0  0  0  0  0  0  0  0  0  0  0
   -2.6112    3.2109   -1.3534 H   0  0  0  0  0  0  0  0  0  0  0  0
   -3.7524    5.5223    0.2755 H   0  0  0  0  0  0  0  0  0  0  0  0
   -6.9753    4.6888   -0.9654 H   0  0  0  0  0  0  0  0  0  0  0  0
   -5.2549    6.7625   -0.0723 H   0  0  0  0  0  0  0  0  0  0  0  0
   -5.7171    9.0628   -0.2259 H   0  0  0  0  0  0  0  0  0  0  0  0
   -7.0409    7.9346    1.4726 H   0  0  0  0  0  0  0  0  0  0  0  0
   -9.3484    8.4010    1.5275 H   0  0  0  0  0  0  0  0  0  0  0  0
   -7.2231   10.9032    0.9002 H   0  0  0  0  0  0  0  0  0  0  0  0
   -6.5831   10.0534    2.3437 H   0  0  0  0  0  0  0  0  0  0  0  0
   -8.3547   10.2461    2.1855 H   0  0  0  0  0  0  0  0  0  0  0  0
   -6.6676   10.7864   -1.3644 H   0  0  0  0  0  0  0  0  0  0  0  0
   -9.9861   11.5891   -2.5019 H   0  0  0  0  0  0  0  0  0  0  0  0
   -8.5480   11.1753   -3.5007 H   0  0  0  0  0  0  0  0  0  0  0  0
   -8.3057   12.2258   -2.0611 H   0  0  0  0  0  0  0  0  0  0  0  0
   -7.4623    5.4189   -2.9879 H   0  0  0  0  0  0  0  0  0  0  0  0
   -5.8001    6.1411   -3.3586 H   0  0  0  0  0  0  0  0  0  0  0  0
   -6.1083    4.3372   -3.3543 H   0  0  0  0  0  0  0  0  0  0  0  0
   -1.3854    5.4019   -1.0838 H   0  0  0  0  0  0  0  0  0  0  0  0
   -0.4880    4.0400   -0.2563 H   0  0  0  0  0  0  0  0  0  0  0  0
   -0.7098    3.7256    2.1675 H   0  0  0  0  0  0  0  0  0  0  0  0
   -0.6528    4.8153    4.2869 H   0  0  0  0  0  0  0  0  0  0  0  0
   -2.0697    8.4075    2.4825 H   0  0  0  0  0  0  0  0  0  0  0  0
   -2.1159    7.2550    0.2806 H   0  0  0  0  0  0  0  0  0  0  0  0
   -2.0919    7.1823    5.3960 H   0  0  0  0  0  0  0  0  0  0  0  0
  1  2  1  0
  2  3  2  0
  2  4  1  0
  4  5  1  0
  5  6  1  0
  6  7  1  0
  7  8  2  0
  7  9  1  0
  9 10  1  0
 10 11  1  0
 11 12  2  0
 12 13  1  0
 13 14  2  0
 14 15  1  0
 15 16  2  0
  9 17  1  0
 17 18  1  0
 18 19  2  0
 18 20  1  0
 20 21  1  0
 21 22  1  0
 22 23  2  0
 23 24  1  0
 24 25  2  0
 25 26  1  0
 26 27  2  0
 20 28  1  0
 28 29  1  0
 29 30  2  0
 29 31  1  0
 31 32  1  0
 32 33  1  0
 33 34  1  0
 34 35  1  0
 35 36  1  0
 36 37  2  3
 36 38  1  0
 31 39  1  0
 39 40  1  0
 40 41  2  0
 40 42  1  0
 42 43  1  0
 43 44  1  0
 44 45  1  0
 45 46  1  0
 46 47  1  0
 47 48  1  0
 48 49  1  0
 49 50  2  0
 49 51  1  0
 51 52  1  0
 52 53  1  0
 53 54  2  0
 53 55  1  0
 55 56  1  0
 56 57  1  0
 57 58  2  0
 55 59  1  0
 51 60  1  0
 60 61  1  0
 61 62  2  0
 62 63  1  0
 63 64  2  0
 64 65  1  0
 65 66  2  0
 47 67  1  0
 67 68  2  0
 67 69  1  0
 69 70  1  0
 70 71  1  0
 71 72  2  0
 71 73  1  0
 73 74  1  0
 74 75  1  0
 75 76  2  0
 75 77  1  0
 77 78  1  0
 78 79  1  0
 79 80  2  0
 79 81  1  0
 78 82  1  0
 82 83  1  0
 83 84  1  0
 84 85  1  0
 85 86  1  0
 86 87  2  3
 86 88  1  0
 74 89  1  0
 70 90  1  0
 90 91  1  0
 91 92  2  0
 92 93  1  0
 93 94  2  0
 94 95  1  0
 95 96  2  0
 94 97  1  0
 42 98  1  0
 98 99  1  0
 99100  2  0
 99101  1  0
101102  1  0
102103  1  0
103104  2  0
103105  1  0
105106  1  0
106107  1  0
107108  2  0
107109  1  0
109110  1  0
110111  1  0
110112  1  0
109113  1  0
113114  1  0
114115  2  0
114116  1  0
105117  1  0
101118  1  0
118119  1  0
119120  2  0
120121  1  0
121122  2  0
122123  1  0
123124  2  0
122125  1  0
 57  5  1  0
 66 61  1  0
 96 91  1  0
124119  1  0
 16 11  1  0
 27 22  1  0
  1126  1  0
  1127  1  0
  4128  1  0
  4129  1  0
  5130  1  1
  6131  1  0
  9132  1  1
 10133  1  0
 10134  1  0
 12135  1  0
 13136  1  0
 14137  1  0
 15138  1  0
 16139  1  0
 17140  1  0
 20141  1  6
 21142  1  0
 21143  1  0
 23144  1  0
 24145  1  0
 25146  1  0
 26147  1  0
 27148  1  0
 28149  1  0
 31150  1  1
 32151  1  0
 32152  1  0
 33153  1  0
 33154  1  0
 34155  1  0
 34156  1  0
 35157  1  0
 37158  1  0
 38159  1  0
 38160  1  0
 39161  1  0
 42162  1  6
 43163  1  0
 43164  1  0
 46165  1  0
 46166  1  0
 47167  1  6
 48168  1  0
 51169  1  1
 52170  1  0
 55171  1  6
 56172  1  0
 59173  1  0
 59174  1  0
 59175  1  0
 60176  1  0
 60177  1  0
 62178  1  0
 63179  1  0
 64180  1  0
 65181  1  0
 66182  1  0
 69183  1  0
 70184  1  1
 73185  1  0
 74186  1  6
 77187  1  0
 78188  1  1
 81189  1  0
 81190  1  0
 82191  1  0
 82192  1  0
 83193  1  0
 83194  1  0
 84195  1  0
 84196  1  0
 85197  1  0
 87198  1  0
 88199  1  0
 88200  1  0
 89201  1  0
 89202  1  0
 89203  1  0
 90204  1  0
 90205  1  0
 92206  1  0
 93207  1  0
 95208  1  0
 96209  1  0
 97210  1  0
 98211  1  0
101212  1  6
102213  1  0
105214  1  1
106215  1  0
109216  1  1
110217  1  1
111218  1  0
112219  1  0
112220  1  0
112221  1  0
113222  1  0
116223  1  0
116224  1  0
116225  1  0
117226  1  0
117227  1  0
117228  1  0
118229  1  0
118230  1  0
120231  1  0
121232  1  0
123233  1  0
124234  1  0
125235  1  0
M  END
>  <Ligand ID>  (1) 
LIG0005493

>  <Ligand>  (1) 
CHEMBL3577976

>  <SMILES>  (1) 
NC(=O)C[C@@H]1NC(=O)[C@H](Cc2ccccc2)NC(=O)[C@H](Cc2ccccc2)NC(=O)[C@H](CCCNC(=N)N)NC(=O)[C@H](CSSC[C@H](NC(=O)[C@@H](NC(=O)[C@@H](NC1=O)C)Cc1ccccc1)C(=O)N[C@H](C(=O)N[C@H](C(=O)N[C@H](C(=O)N)CCCNC(=N)N)C)Cc1ccc(cc1)O)NC(=O)[C@@H](NC(=O)[C@@H](NC(=O)[C@H]([C@H](O)C)NC(=O)C)C)Cc1ccc(cc1)O

>  <CID>  (1) 
122178146.0

>  <ChEMBL ID>  (1) 
nan

>  <InChiKey>  (1) 
HUXCMOSLMQJMGG-IJXJEDSYSA-N

>  <InChi>  (1) 
InChI=1S/C82H110N22O19S2/c1-43(68(111)95-55(67(84)110)23-15-33-89-81(85)86)91-72(115)57(38-51-25-29-53(107)30-26-51)101-79(122)64-42-125-124-41-63(103-77(120)59(39-52-27-31-54(108)32-28-52)98-70(113)45(3)93-80(123)66(46(4)105)94-47(5)106)78(121)96-56(24-16-34-90-82(87)88)71(114)99-60(36-49-19-11-7-12-20-49)74(117)100-61(37-50-21-13-8-14-22-50)75(118)102-62(40-65(83)109)73(116)92-44(2)69(112)97-58(76(119)104-64)35-48-17-9-6-10-18-48/h6-14,17-22,25-32,43-46,55-64,66,105,107-108H,15-16,23-24,33-42H2,1-5H3,(H2,83,109)(H2,84,110)(H,91,115)(H,92,116)(H,93,123)(H,94,106)(H,95,111)(H,96,121)(H,97,112)(H,98,113)(H,99,114)(H,100,117)(H,101,122)(H,102,118)(H,103,120)(H,104,119)(H4,85,86,89)(H4,87,88,90)/t43-,44-,45-,46+,55-,56-,57-,58-,59-,60-,61-,62-,63-,64-,66-/m0/s1

>  <IUPAC Name>  (1) 
(4R,7S,10S,13S,16S,19S,22S,25R)-25-[[(2S)-2-[[(2S)-2-[[(2S,3R)-2-acetamido-3-hydroxybutanoyl]amino]propanoyl]amino]-3-(4-hydroxyphenyl)propanoyl]amino]-N-[(2S)-1-[[(2S)-1-[[(2S)-1-amino-5-carbamimidamido-1-oxopentan-2-yl]amino]-1-oxopropan-2-yl]amino]-3-(4-hydroxyphenyl)-1-oxopropan-2-yl]-13-(2-amino-2-oxoethyl)-7,16,19-tribenzyl-22-(3-carbamimidamidopropyl)-10-methyl-6,9,12,15,18,21,24-heptaoxo-1,2-dithia-5,8,11,14,17,20,23-heptazacyclohexacosane-4-carboxamide

$$$$
