
     RDKit          3D

 60 59  0  0  0  0  0  0  0  0999 V2000
   -0.9598   -0.1827    0.1024 C   0  0  0  0  0  0  0  0  0  0  0  0
    0.4079    0.3201   -0.1651 C   0  0  0  0  0  0  0  0  0  0  0  0
    0.6141    1.5662   -0.2136 O   0  0  0  0  0  0  0  0  0  0  0  0
    1.5032   -0.5115   -0.3707 O   0  0  0  0  0  0  0  0  0  0  0  0
    6.6045    0.0789   -1.9688 O   0  0  0  0  0  0  0  0  0  0  0  0
    7.1128   -0.7343   -0.9814 C   0  0  0  0  0  0  0  0  0  0  0  0
    6.2842   -0.8448    0.2543 C   0  0  0  0  0  0  0  0  0  0  0  0
    6.0548    0.3257    0.9267 O   0  0  0  0  0  0  0  0  0  0  0  0
    5.3997    1.3105    0.2396 C   0  0  0  0  0  0  0  0  0  0  0  0
    4.0130    0.8639   -0.2210 C   0  0  0  0  0  0  0  0  0  0  0  0
    3.2476    0.5312    1.0142 C   0  0  0  0  0  0  0  0  0  0  0  0
    1.8435    0.0419    0.6506 C   0  0  0  0  0  0  0  0  0  0  0  0
    1.0887    1.0905   -0.0956 C   0  0  0  0  0  0  0  0  0  0  0  0
   -0.2622    0.6644   -0.4970 C   0  0  0  0  0  0  0  0  0  0  0  0
   -1.2626    0.2879    0.3656 N   0  0  0  0  0  0  0  0  0  0  0  0
   -1.3138   -0.8805    1.1171 C   0  0  0  0  0  0  0  0  0  0  0  0
   -2.6710   -0.8512    1.8764 C   0  0  1  0  0  0  0  0  0  0  0  0
   -3.7504   -0.7830    0.8637 C   0  0  0  0  0  0  0  0  0  0  0  0
   -4.0181   -1.9178    0.0928 C   0  0  0  0  0  0  0  0  0  0  0  0
   -5.0311   -1.8924   -0.8691 C   0  0  0  0  0  0  0  0  0  0  0  0
   -5.7533   -0.7169   -1.0309 C   0  0  0  0  0  0  0  0  0  0  0  0
   -5.5004    0.4108   -0.2775 C   0  0  0  0  0  0  0  0  0  0  0  0
   -4.4981    0.3819    0.6725 C   0  0  0  0  0  0  0  0  0  0  0  0
   -6.3022    1.6478   -0.4871 C   0  0  0  0  0  0  0  0  0  0  0  0
   -7.5508    1.4129    0.1336 O   0  0  0  0  0  0  0  0  0  0  0  0
   -6.7698   -0.7161   -2.0068 O   0  0  0  0  0  0  0  0  0  0  0  0
   -2.7333   -2.0175    2.6304 O   0  0  0  0  0  0  0  0  0  0  0  0
   -1.5843   -0.2057   -0.8097 H   0  0  0  0  0  0  0  0  0  0  0  0
   -0.9727   -1.2036    0.5252 H   0  0  0  0  0  0  0  0  0  0  0  0
   -1.4036    0.5080    0.8342 H   0  0  0  0  0  0  0  0  0  0  0  0
    2.3952   -0.2908    0.0972 H   0  0  0  0  0  0  0  0  0  0  0  0
    7.2963    0.7482   -2.2689 H   0  0  0  0  0  0  0  0  0  0  0  0
    7.2174   -1.7584   -1.4099 H   0  0  0  0  0  0  0  0  0  0  0  0
    8.1255   -0.3888   -0.6528 H   0  0  0  0  0  0  0  0  0  0  0  0
    6.8616   -1.5034    0.9646 H   0  0  0  0  0  0  0  0  0  0  0  0
    5.3691   -1.4336    0.0238 H   0  0  0  0  0  0  0  0  0  0  0  0
    5.2113    2.1347    0.9939 H   0  0  0  0  0  0  0  0  0  0  0  0
    5.9412    1.7942   -0.5742 H   0  0  0  0  0  0  0  0  0  0  0  0
    3.5784    1.6557   -0.8542 H   0  0  0  0  0  0  0  0  0  0  0  0
    4.0560   -0.0412   -0.8416 H   0  0  0  0  0  0  0  0  0  0  0  0
    3.0756    1.4381    1.6605 H   0  0  0  0  0  0  0  0  0  0  0  0
    3.7479   -0.1905    1.6598 H   0  0  0  0  0  0  0  0  0  0  0  0
    1.3786   -0.1118    1.6588 H   0  0  0  0  0  0  0  0  0  0  0  0
    1.8747   -0.9057    0.0967 H   0  0  0  0  0  0  0  0  0  0  0  0
    1.1166    2.0611    0.4538 H   0  0  0  0  0  0  0  0  0  0  0  0
    1.6736    1.3402   -1.0427 H   0  0  0  0  0  0  0  0  0  0  0  0
   -0.6915    1.5070   -1.1581 H   0  0  0  0  0  0  0  0  0  0  0  0
   -0.1642   -0.1591   -1.3006 H   0  0  0  0  0  0  0  0  0  0  0  0
   -2.0802    0.9384    0.4696 H   0  0  0  0  0  0  0  0  0  0  0  0
   -1.4517   -1.7876    0.4482 H   0  0  0  0  0  0  0  0  0  0  0  0
   -0.6014   -1.0874    1.9044 H   0  0  0  0  0  0  0  0  0  0  0  0
   -2.7029    0.0643    2.4982 H   0  0  0  0  0  0  0  0  0  0  0  0
   -3.4562   -2.8336    0.2190 H   0  0  0  0  0  0  0  0  0  0  0  0
   -5.2301   -2.7847   -1.4624 H   0  0  0  0  0  0  0  0  0  0  0  0
   -4.3145    1.2688    1.2522 H   0  0  0  0  0  0  0  0  0  0  0  0
   -5.8591    2.5129    0.0033 H   0  0  0  0  0  0  0  0  0  0  0  0
   -6.4972    1.7738   -1.5730 H   0  0  0  0  0  0  0  0  0  0  0  0
   -7.5418    1.7406    1.0752 H   0  0  0  0  0  0  0  0  0  0  0  0
   -7.7235   -0.9275   -1.7166 H   0  0  0  0  0  0  0  0  0  0  0  0
   -2.4415   -2.7586    2.0133 H   0  0  0  0  0  0  0  0  0  0  0  0
  1  2  1  0
  2  3  2  0
  2  4  1  0
  5  6  1  0
  6  7  1  0
  7  8  1  0
  8  9  1  0
  9 10  1  0
 10 11  1  0
 11 12  1  0
 12 13  1  0
 13 14  1  0
 14 15  1  0
 15 16  1  0
 16 17  1  0
 17 18  1  0
 18 19  2  0
 19 20  1  0
 20 21  2  0
 21 22  1  0
 22 23  2  0
 22 24  1  0
 24 25  1  0
 21 26  1  0
 17 27  1  0
 23 18  1  0
  1 28  1  0
  1 29  1  0
  1 30  1  0
  4 31  1  0
  5 32  1  0
  6 33  1  0
  6 34  1  0
  7 35  1  0
  7 36  1  0
  9 37  1  0
  9 38  1  0
 10 39  1  0
 10 40  1  0
 11 41  1  0
 11 42  1  0
 12 43  1  0
 12 44  1  0
 13 45  1  0
 13 46  1  0
 14 47  1  0
 14 48  1  0
 15 49  1  0
 16 50  1  0
 16 51  1  0
 17 52  1  1
 19 53  1  0
 20 54  1  0
 23 55  1  0
 24 56  1  0
 24 57  1  0
 25 58  1  0
 26 59  1  0
 27 60  1  0
M  END
>  <Ligand ID>  (1) 
LIG0003335

>  <Ligand>  (1) 
CHEMBL1083884

>  <SMILES>  (1) 
CC(=O)O.OCCOCCCCCCNC[C@@H](c1ccc(c(c1)CO)O)O

>  <CID>  (1) 
46832226.0

>  <ChEMBL ID>  (1) 
nan

>  <InChiKey>  (1) 
CVXARJMJYXZVSG-LMOVPXPDSA-N

>  <InChi>  (1) 
InChI=1S/C17H29NO5.C2H4O2/c19-8-10-23-9-4-2-1-3-7-18-12-17(22)14-5-6-16(21)15(11-14)13-20;1-2(3)4/h5-6,11,17-22H,1-4,7-10,12-13H2;1H3,(H,3,4)/t17-;/m0./s1

>  <IUPAC Name>  (1) 
acetic acid;4-[(1R)-1-hydroxy-2-[6-(2-hydroxyethoxy)hexylamino]ethyl]-2-(hydroxymethyl)phenol

$$$$
