
     RDKit          3D

 55 57  0  0  0  0  0  0  0  0999 V2000
    7.8420    0.9490    0.4886 C   0  0  0  0  0  0  0  0  0  0  0  0
    7.0101    1.4856   -0.6431 C   0  0  0  0  0  0  0  0  0  0  0  0
    5.5953    0.9456   -0.5606 C   0  0  0  0  0  0  0  0  0  0  0  0
    5.5768   -0.4673   -0.6356 O   0  0  0  0  0  0  0  0  0  0  0  0
    4.3229   -1.0797   -0.5691 C   0  0  0  0  0  0  0  0  0  0  0  0
    4.2415   -2.4550   -0.6378 C   0  0  0  0  0  0  0  0  0  0  0  0
    3.0139   -3.0828   -0.5742 C   0  0  0  0  0  0  0  0  0  0  0  0
    1.8256   -2.3862   -0.4415 C   0  0  0  0  0  0  0  0  0  0  0  0
    1.9030   -0.9924   -0.3715 C   0  0  0  0  0  0  0  0  0  0  0  0
    3.1500   -0.3663   -0.4367 C   0  0  0  0  0  0  0  0  0  0  0  0
    0.7521   -0.1419   -0.2337 C   0  0  0  0  0  0  0  0  0  0  0  0
    0.3028    0.1924    1.0330 C   0  0  0  0  0  0  0  0  0  0  0  0
    1.0206   -0.3357    2.1778 C   0  0  0  0  0  0  0  0  0  0  0  0
    1.6183   -0.7521    3.1000 N   0  0  0  0  0  0  0  0  0  0  0  0
   -0.8080    1.0136    1.1971 C   0  0  0  0  0  0  0  0  0  0  0  0
   -1.2879    1.3692    2.8825 S   0  0  0  0  0  0  0  0  0  0  0  0
   -2.4627    0.0422    3.3563 C   0  0  0  0  0  0  0  0  0  0  0  0
   -3.6619    0.2432    2.5005 C   0  0  0  0  0  0  0  0  0  0  0  0
   -4.6520    1.0654    3.0063 C   0  0  0  0  0  0  0  0  0  0  0  0
   -5.8026    1.3141    2.2881 C   0  0  0  0  0  0  0  0  0  0  0  0
   -5.9120    0.7241    1.0859 N   0  0  0  0  0  0  0  0  0  0  0  0
   -4.9798   -0.0721    0.5688 C   0  0  0  0  0  0  0  0  0  0  0  0
   -3.8149   -0.3423    1.2618 C   0  0  0  0  0  0  0  0  0  0  0  0
   -5.1609   -0.6915   -0.7606 C   0  0  0  0  0  0  0  0  0  0  0  0
   -4.3010   -1.4373   -1.2602 O   0  0  0  0  0  0  0  0  0  0  0  0
   -6.3587   -0.4162   -1.4749 N   0  0  0  0  0  0  0  0  0  0  0  0
   -6.6580   -0.9577   -2.7804 C   0  0  0  0  0  0  0  0  0  0  0  0
   -1.4869    1.5134    0.1326 N   0  0  0  0  0  0  0  0  0  0  0  0
   -1.0607    1.1961   -1.1254 C   0  0  0  0  0  0  0  0  0  0  0  0
    0.0366    0.3849   -1.2924 C   0  0  0  0  0  0  0  0  0  0  0  0
    0.4885    0.0482   -2.6123 C   0  0  0  0  0  0  0  0  0  0  0  0
    0.8484   -0.2045   -3.6723 N   0  0  0  0  0  0  0  0  0  0  0  0
   -1.7638    1.7141   -2.2673 N   0  0  0  0  0  0  0  0  0  0  0  0
    8.2395   -0.0801    0.2856 H   0  0  0  0  0  0  0  0  0  0  0  0
    7.2451    0.9453    1.4217 H   0  0  0  0  0  0  0  0  0  0  0  0
    8.7257    1.6102    0.7057 H   0  0  0  0  0  0  0  0  0  0  0  0
    6.9945    2.5873   -0.5275 H   0  0  0  0  0  0  0  0  0  0  0  0
    7.4097    1.1963   -1.6416 H   0  0  0  0  0  0  0  0  0  0  0  0
    5.1646    1.2365    0.4332 H   0  0  0  0  0  0  0  0  0  0  0  0
    4.9416    1.4127   -1.3229 H   0  0  0  0  0  0  0  0  0  0  0  0
    5.1233   -3.0906   -0.7427 H   0  0  0  0  0  0  0  0  0  0  0  0
    2.9840   -4.1742   -0.6313 H   0  0  0  0  0  0  0  0  0  0  0  0
    0.8564   -2.8637   -0.3904 H   0  0  0  0  0  0  0  0  0  0  0  0
    3.2382    0.7261   -0.3842 H   0  0  0  0  0  0  0  0  0  0  0  0
   -2.6841    0.0549    4.4294 H   0  0  0  0  0  0  0  0  0  0  0  0
   -1.9897   -0.9153    3.0460 H   0  0  0  0  0  0  0  0  0  0  0  0
   -4.5737    1.5468    3.9777 H   0  0  0  0  0  0  0  0  0  0  0  0
   -6.5650    1.9581    2.6972 H   0  0  0  0  0  0  0  0  0  0  0  0
   -3.0289   -0.9818    0.8842 H   0  0  0  0  0  0  0  0  0  0  0  0
   -7.0651    0.2158   -1.0289 H   0  0  0  0  0  0  0  0  0  0  0  0
   -7.2408   -1.8980   -2.7529 H   0  0  0  0  0  0  0  0  0  0  0  0
   -5.7637   -1.0749   -3.4254 H   0  0  0  0  0  0  0  0  0  0  0  0
   -7.3122   -0.2331   -3.3450 H   0  0  0  0  0  0  0  0  0  0  0  0
   -2.7376    1.3551   -2.4974 H   0  0  0  0  0  0  0  0  0  0  0  0
   -1.3380    2.4467   -2.8891 H   0  0  0  0  0  0  0  0  0  0  0  0
  1  2  1  0
  2  3  1  0
  3  4  1  0
  4  5  1  0
  5  6  2  0
  6  7  1  0
  7  8  2  0
  8  9  1  0
  9 10  2  0
  9 11  1  0
 11 12  2  0
 12 13  1  0
 13 14  3  0
 12 15  1  0
 15 16  1  0
 16 17  1  0
 17 18  1  0
 18 19  2  0
 19 20  1  0
 20 21  2  0
 21 22  1  0
 22 23  2  0
 22 24  1  0
 24 25  2  0
 24 26  1  0
 26 27  1  0
 15 28  2  0
 28 29  1  0
 29 30  2  0
 30 31  1  0
 31 32  3  0
 29 33  1  0
 10  5  1  0
 30 11  1  0
 23 18  1  0
  1 34  1  0
  1 35  1  0
  1 36  1  0
  2 37  1  0
  2 38  1  0
  3 39  1  0
  3 40  1  0
  6 41  1  0
  7 42  1  0
  8 43  1  0
 10 44  1  0
 17 45  1  0
 17 46  1  0
 19 47  1  0
 20 48  1  0
 23 49  1  0
 26 50  1  0
 27 51  1  0
 27 52  1  0
 27 53  1  0
 33 54  1  0
 33 55  1  0
M  END
>  <Ligand ID>  (1) 
LIG0004357

>  <Ligand>  (1) 
SCHEMBL3356789

>  <SMILES>  (1) 
CCCOc1cccc(c1)c1c(C#N)c(SCc2ccnc(c2)C(=O)NC)nc(c1C#N)N

>  <CID>  (1) 
68611206.0

>  <ChEMBL ID>  (1) 
nan

>  <InChiKey>  (1) 
URQAZXHQWHGMEP-UHFFFAOYSA-N

>  <InChi>  (1) 
InChI=1S/C24H22N6O2S/c1-3-9-32-17-6-4-5-16(11-17)21-18(12-25)22(27)30-24(19(21)13-26)33-14-15-7-8-29-20(10-15)23(31)28-2/h4-8,10-11H,3,9,14H2,1-2H3,(H2,27,30)(H,28,31)

>  <IUPAC Name>  (1) 
4-[[6-amino-3,5-dicyano-4-(3-propoxyphenyl)pyridin-2-yl]sulfanylmethyl]-N-methylpyridine-2-carboxamide

$$$$
