
     RDKit          3D

 99102  0  0  0  0  0  0  0  0999 V2000
   -4.4862   -4.5127   -1.5990 C   0  0  0  0  0  0  0  0  0  0  0  0
   -3.8427   -4.6945   -0.2447 C   0  0  0  0  0  0  0  0  0  0  0  0
   -3.0499   -3.4725    0.2065 C   0  0  0  0  0  0  0  0  0  0  0  0
   -3.9236   -2.2776    0.2465 C   0  0  0  0  0  0  0  0  0  0  0  0
   -5.1186   -2.4559   -0.1558 O   0  0  0  0  0  0  0  0  0  0  0  0
   -3.5030   -0.9829    0.6959 N   0  0  0  0  0  0  0  0  0  0  0  0
   -4.5094    0.0533    0.6279 C   0  0  2  0  0  0  0  0  0  0  0  0
   -4.1418    1.1089   -0.3991 C   0  0  0  0  0  0  0  0  0  0  0  0
   -5.0212    1.8544   -0.8260 O   0  0  0  0  0  0  0  0  0  0  0  0
   -2.7937    1.1510   -0.7856 N   0  0  0  0  0  0  0  0  0  0  0  0
   -2.2069    2.0397   -1.7579 C   0  0  2  0  0  0  0  0  0  0  0  0
   -0.7627    2.0156   -1.8618 C   0  0  0  0  0  0  0  0  0  0  0  0
   -0.2243    2.5343   -2.8915 O   0  0  0  0  0  0  0  0  0  0  0  0
    0.0470    1.4530   -0.8568 N   0  0  0  0  0  0  0  0  0  0  0  0
    1.5194    1.4288   -0.8914 C   0  0  2  0  0  0  0  0  0  0  0  0
    2.0519    0.1424   -0.4991 C   0  0  0  0  0  0  0  0  0  0  0  0
    1.2076   -0.7302   -0.0615 O   0  0  0  0  0  0  0  0  0  0  0  0
    3.3942   -0.2969   -0.5352 N   0  0  0  0  0  0  0  0  0  0  0  0
    3.8548   -1.5861   -0.1204 C   0  0  2  0  0  0  0  0  0  0  0  0
    4.8222   -1.5031    0.9796 C   0  0  0  0  0  0  0  0  0  0  0  0
    5.3139   -2.5836    1.4610 O   0  0  0  0  0  0  0  0  0  0  0  0
    5.2829   -0.3084    1.5841 N   0  0  0  0  0  0  0  0  0  0  0  0
    4.3961   -2.3147   -1.3376 C   0  0  0  0  0  0  0  0  0  0  0  0
    4.8902   -3.6410   -0.8929 C   0  0  0  0  0  0  0  0  0  0  0  0
    6.2411   -3.9724   -0.7188 C   0  0  0  0  0  0  0  0  0  0  0  0
    6.3532   -5.2415   -0.3068 N   0  0  0  0  0  0  0  0  0  0  0  0
    5.1081   -5.7540   -0.2051 C   0  0  0  0  0  0  0  0  0  0  0  0
    4.2120   -4.7844   -0.5602 C   0  0  0  0  0  0  0  0  0  0  0  0
    2.8568   -5.0537   -0.5427 C   0  0  0  0  0  0  0  0  0  0  0  0
    2.4574   -6.3206   -0.1577 C   0  0  0  0  0  0  0  0  0  0  0  0
    3.3784   -7.2954    0.1998 C   0  0  0  0  0  0  0  0  0  0  0  0
    4.7405   -7.0238    0.1818 C   0  0  0  0  0  0  0  0  0  0  0  0
    1.8923    2.5796    0.0736 C   0  0  0  0  0  0  0  0  0  0  0  0
    3.3529    2.7766    0.2596 C   0  0  0  0  0  0  0  0  0  0  0  0
    3.6537    3.9430    1.2002 C   0  0  0  0  0  0  0  0  0  0  0  0
    3.0565    3.7139    2.5273 N   0  0  0  0  0  0  0  0  0  0  0  0
    1.9032    4.2962    2.7955 C   0  0  0  0  0  0  0  0  0  0  0  0
    1.2470    5.1199    1.8469 N   0  0  0  0  0  0  0  0  0  0  0  0
    1.2853    4.1038    4.0697 N   0  0  0  0  0  0  0  0  0  0  0  0
   -2.6708    3.5000   -1.4333 C   0  0  0  0  0  0  0  0  0  0  0  0
   -2.1075    4.4751   -2.3823 C   0  0  0  0  0  0  0  0  0  0  0  0
   -0.8725    5.0402   -2.0182 C   0  0  0  0  0  0  0  0  0  0  0  0
   -0.3522    5.9454   -2.9123 C   0  0  0  0  0  0  0  0  0  0  0  0
   -0.9257    6.3262   -4.0934 C   0  0  0  0  0  0  0  0  0  0  0  0
   -2.1347    5.7643   -4.4361 C   0  0  0  0  0  0  0  0  0  0  0  0
   -2.7070    4.8393   -3.5627 C   0  0  0  0  0  0  0  0  0  0  0  0
   -4.6891    0.7404    1.9700 C   0  0  0  0  0  0  0  0  0  0  0  0
   -5.0994   -0.2498    2.9982 C   0  0  0  0  0  0  0  0  0  0  0  0
   -4.2604   -0.9987    3.7987 C   0  0  0  0  0  0  0  0  0  0  0  0
   -4.9765   -1.7925    4.6008 N   0  0  0  0  0  0  0  0  0  0  0  0
   -6.2638   -1.5775    4.3396 C   0  0  0  0  0  0  0  0  0  0  0  0
   -6.3481   -0.6341    3.3598 N   0  0  0  0  0  0  0  0  0  0  0  0
   -4.1220   -3.6435   -2.1384 H   0  0  0  0  0  0  0  0  0  0  0  0
   -4.5048   -5.4421   -2.2061 H   0  0  0  0  0  0  0  0  0  0  0  0
   -5.5838   -4.3236   -1.3794 H   0  0  0  0  0  0  0  0  0  0  0  0
   -3.0777   -5.5062   -0.3994 H   0  0  0  0  0  0  0  0  0  0  0  0
   -4.5502   -5.0652    0.4936 H   0  0  0  0  0  0  0  0  0  0  0  0
   -2.6170   -3.7166    1.1818 H   0  0  0  0  0  0  0  0  0  0  0  0
   -2.2493   -3.3549   -0.5772 H   0  0  0  0  0  0  0  0  0  0  0  0
   -2.5329   -0.8730    1.0418 H   0  0  0  0  0  0  0  0  0  0  0  0
   -5.4636   -0.3562    0.3138 H   0  0  0  0  0  0  0  0  0  0  0  0
   -2.1261    0.4632   -0.3368 H   0  0  0  0  0  0  0  0  0  0  0  0
   -2.7028    1.8972   -2.7118 H   0  0  0  0  0  0  0  0  0  0  0  0
   -0.3341    1.0051    0.0237 H   0  0  0  0  0  0  0  0  0  0  0  0
    1.8889    1.7726   -1.8650 H   0  0  0  0  0  0  0  0  0  0  0  0
    4.1118    0.3830   -0.9188 H   0  0  0  0  0  0  0  0  0  0  0  0
    2.9486   -2.1840    0.2002 H   0  0  0  0  0  0  0  0  0  0  0  0
    4.8674   -0.0179    2.4975 H   0  0  0  0  0  0  0  0  0  0  0  0
    6.0211    0.2240    1.0693 H   0  0  0  0  0  0  0  0  0  0  0  0
    5.2184   -1.7866   -1.8315 H   0  0  0  0  0  0  0  0  0  0  0  0
    3.5913   -2.4699   -2.0761 H   0  0  0  0  0  0  0  0  0  0  0  0
    7.0391   -3.2472   -0.9095 H   0  0  0  0  0  0  0  0  0  0  0  0
    7.2492   -5.7453   -0.1016 H   0  0  0  0  0  0  0  0  0  0  0  0
    2.1236   -4.3067   -0.8203 H   0  0  0  0  0  0  0  0  0  0  0  0
    1.3853   -6.5023   -0.1517 H   0  0  0  0  0  0  0  0  0  0  0  0
    3.0066   -8.2743    0.4926 H   0  0  0  0  0  0  0  0  0  0  0  0
    5.4821   -7.7822    0.4600 H   0  0  0  0  0  0  0  0  0  0  0  0
    1.5120    3.5299   -0.4196 H   0  0  0  0  0  0  0  0  0  0  0  0
    1.3721    2.4436    1.0401 H   0  0  0  0  0  0  0  0  0  0  0  0
    3.8768    2.9128   -0.6976 H   0  0  0  0  0  0  0  0  0  0  0  0
    3.8390    1.9040    0.7795 H   0  0  0  0  0  0  0  0  0  0  0  0
    4.7407    3.9458    1.3878 H   0  0  0  0  0  0  0  0  0  0  0  0
    3.3797    4.9230    0.7766 H   0  0  0  0  0  0  0  0  0  0  0  0
    1.6944    6.0188    1.5081 H   0  0  0  0  0  0  0  0  0  0  0  0
    0.3121    4.7868    1.5154 H   0  0  0  0  0  0  0  0  0  0  0  0
    0.7590    4.9348    4.4478 H   0  0  0  0  0  0  0  0  0  0  0  0
    1.3484    3.2000    4.6015 H   0  0  0  0  0  0  0  0  0  0  0  0
   -3.7598    3.5987   -1.4854 H   0  0  0  0  0  0  0  0  0  0  0  0
   -2.3674    3.6516   -0.3871 H   0  0  0  0  0  0  0  0  0  0  0  0
   -0.3980    4.7586   -1.0936 H   0  0  0  0  0  0  0  0  0  0  0  0
    0.6162    6.4062   -2.6535 H   0  0  0  0  0  0  0  0  0  0  0  0
   -0.4345    7.0594   -4.7446 H   0  0  0  0  0  0  0  0  0  0  0  0
   -2.6141    6.0471   -5.3639 H   0  0  0  0  0  0  0  0  0  0  0  0
   -3.6397    4.4205   -3.8547 H   0  0  0  0  0  0  0  0  0  0  0  0
   -3.7897    1.2286    2.3452 H   0  0  0  0  0  0  0  0  0  0  0  0
   -5.5344    1.4746    1.8647 H   0  0  0  0  0  0  0  0  0  0  0  0
   -3.1656   -1.0044    3.8296 H   0  0  0  0  0  0  0  0  0  0  0  0
   -7.1385   -2.0439    4.7957 H   0  0  0  0  0  0  0  0  0  0  0  0
   -7.2046   -0.2307    2.9166 H   0  0  0  0  0  0  0  0  0  0  0  0
  1  2  1  0
  2  3  1  0
  3  4  1  0
  4  5  2  0
  4  6  1  0
  6  7  1  0
  7  8  1  0
  8  9  2  0
  8 10  1  0
 10 11  1  0
 11 12  1  0
 12 13  2  0
 12 14  1  0
 14 15  1  0
 15 16  1  0
 16 17  2  0
 16 18  1  0
 18 19  1  0
 19 20  1  0
 20 21  2  0
 20 22  1  0
 19 23  1  0
 23 24  1  0
 24 25  2  0
 25 26  1  0
 26 27  1  0
 27 28  2  0
 28 29  1  0
 29 30  2  0
 30 31  1  0
 31 32  2  0
 15 33  1  0
 33 34  1  0
 34 35  1  0
 35 36  1  0
 36 37  2  3
 37 38  1  0
 37 39  1  0
 11 40  1  0
 40 41  1  0
 41 42  2  0
 42 43  1  0
 43 44  2  0
 44 45  1  0
 45 46  2  0
  7 47  1  0
 47 48  1  0
 48 49  2  0
 49 50  1  0
 50 51  2  0
 51 52  1  0
 28 24  1  0
 46 41  1  0
 52 48  1  0
 32 27  1  0
  1 53  1  0
  1 54  1  0
  1 55  1  0
  2 56  1  0
  2 57  1  0
  3 58  1  0
  3 59  1  0
  6 60  1  0
  7 61  1  6
 10 62  1  0
 11 63  1  6
 14 64  1  0
 15 65  1  6
 18 66  1  0
 19 67  1  1
 22 68  1  0
 22 69  1  0
 23 70  1  0
 23 71  1  0
 25 72  1  0
 26 73  1  0
 29 74  1  0
 30 75  1  0
 31 76  1  0
 32 77  1  0
 33 78  1  0
 33 79  1  0
 34 80  1  0
 34 81  1  0
 35 82  1  0
 35 83  1  0
 38 84  1  0
 38 85  1  0
 39 86  1  0
 39 87  1  0
 40 88  1  0
 40 89  1  0
 42 90  1  0
 43 91  1  0
 44 92  1  0
 45 93  1  0
 46 94  1  0
 47 95  1  0
 47 96  1  0
 49 97  1  0
 51 98  1  0
 52 99  1  0
M  END
>  <Ligand ID>  (1) 
LIG0004140

>  <Ligand>  (1) 
CHEMBL264306

>  <SMILES>  (1) 
CCCC(=O)N[C@H](C(=O)N[C@H](C(=O)N[C@H](C(=O)N[C@H](C(=O)N)Cc1c[nH]c2c1cccc2)CCCN=C(N)N)Cc1ccccc1)Cc1cnc[nH]1

>  <CID>  (1) 
44322987.0

>  <ChEMBL ID>  (1) 
nan

>  <InChiKey>  (1) 
NAEZHDBXDQXCIQ-KRCBVYEFSA-N

>  <InChi>  (1) 
InChI=1S/C36H47N11O5/c1-2-9-31(48)44-30(18-24-20-40-21-43-24)35(52)47-29(16-22-10-4-3-5-11-22)34(51)45-27(14-8-15-41-36(38)39)33(50)46-28(32(37)49)17-23-19-42-26-13-7-6-12-25(23)26/h3-7,10-13,19-21,27-30,42H,2,8-9,14-18H2,1H3,(H2,37,49)(H,40,43)(H,44,48)(H,45,51)(H,46,50)(H,47,52)(H4,38,39,41)/t27-,28-,29-,30-/m0/s1

>  <IUPAC Name>  (1) 
(2S)-N-[(2S)-1-amino-3-(1H-indol-3-yl)-1-oxopropan-2-yl]-2-[[(2S)-2-[[(2S)-2-(butanoylamino)-3-(1H-imidazol-5-yl)propanoyl]amino]-3-phenylpropanoyl]amino]-5-(diaminomethylideneamino)pentanamide

$$$$
