
     RDKit          3D

 68 75  0  0  0  0  0  0  0  0999 V2000
    3.2787    1.2223    1.8287 O   0  0  0  0  0  0  0  0  0  0  0  0
    3.2499    0.5034    0.7876 C   0  0  0  0  0  0  0  0  0  0  0  0
    4.5167    0.1749    0.1522 C   0  0  0  0  0  0  0  0  0  0  0  0
    4.6461   -0.5910   -0.9401 N   0  0  0  0  0  0  0  0  0  0  0  0
    5.8639   -0.8404   -1.5060 C   0  0  0  0  0  0  0  0  0  0  0  0
    7.0232   -0.3134   -0.9781 C   0  0  0  0  0  0  0  0  0  0  0  0
    6.9279    0.4679    0.1301 C   0  0  0  0  0  0  0  0  0  0  0  0
    5.7033    0.7030    0.6778 C   0  0  0  0  0  0  0  0  0  0  0  0
    8.0433    1.0503    0.7344 C   0  0  0  0  0  0  0  0  0  0  0  0
    9.2889    0.7979    0.1488 C   0  0  0  0  0  0  0  0  0  0  0  0
    9.4081    0.0163   -0.9642 C   0  0  0  0  0  0  0  0  0  0  0  0
    8.2778   -0.5313   -1.5161 C   0  0  0  0  0  0  0  0  0  0  0  0
    1.9888    0.0764    0.3173 N   0  0  0  0  0  0  0  0  0  0  0  0
    0.7770    0.4714    1.0128 C   0  0  1  0  0  0  0  0  0  0  0  0
    0.3032    1.7212    0.3111 C   0  0  0  0  0  0  0  0  0  0  0  0
   -0.9006    1.5308   -0.5796 C   0  0  0  0  0  0  0  0  0  0  0  0
   -1.9754    0.8885    0.2530 C   0  0  2  0  0  0  0  0  0  0  0  0
   -1.5325   -0.4930    0.5644 C   0  0  2  0  0  0  0  0  0  0  0  0
   -0.1493   -0.6277    1.1611 C   0  0  1  0  0  0  0  0  0  0  0  0
    0.2849   -1.8988    0.6175 O   0  0  0  0  0  0  0  0  0  0  0  0
   -0.1974   -1.9830   -0.6853 C   0  0  0  0  0  0  0  0  0  0  0  0
   -1.2856   -1.1438   -0.7428 C   0  0  0  0  0  0  0  0  0  0  0  0
   -2.0577   -0.9109   -1.8230 C   0  0  0  0  0  0  0  0  0  0  0  0
   -3.1744    0.0369   -1.8260 C   0  0  0  0  0  0  0  0  0  0  0  0
   -3.2332    0.7916   -0.5292 C   0  0  1  0  0  0  0  0  0  0  0  0
   -4.3191    0.1899    0.2317 N   0  0  0  0  0  0  0  0  0  0  0  0
   -3.9378   -1.0654    0.7970 C   0  0  0  0  0  0  0  0  0  0  0  0
   -2.5725   -1.2234    1.3212 C   0  0  0  0  0  0  0  0  0  0  0  0
   -4.9876    1.1099    1.0844 C   0  0  0  0  0  0  0  0  0  0  0  0
   -6.2967    0.6116    1.6711 C   0  0  0  0  0  0  0  0  0  0  0  0
   -7.4073    0.2332    0.7636 C   0  0  0  0  0  0  0  0  0  0  0  0
   -7.4469    1.5805    1.4696 C   0  0  0  0  0  0  0  0  0  0  0  0
   -1.7151   -1.5972   -3.0023 C   0  0  0  0  0  0  0  0  0  0  0  0
   -0.6134   -2.4622   -2.9751 C   0  0  0  0  0  0  0  0  0  0  0  0
    0.1377   -2.6549   -1.8343 C   0  0  0  0  0  0  0  0  0  0  0  0
    1.2234   -3.5220   -1.8574 O   0  0  0  0  0  0  0  0  0  0  0  0
   -2.1771    1.6709    1.3927 O   0  0  0  0  0  0  0  0  0  0  0  0
    5.8906   -1.4628   -2.3817 H   0  0  0  0  0  0  0  0  0  0  0  0
    5.6391    1.3367    1.5774 H   0  0  0  0  0  0  0  0  0  0  0  0
    7.9574    1.6757    1.6214 H   0  0  0  0  0  0  0  0  0  0  0  0
   10.1253    1.2663    0.6485 H   0  0  0  0  0  0  0  0  0  0  0  0
   10.4065   -0.1353   -1.3594 H   0  0  0  0  0  0  0  0  0  0  0  0
    8.3386   -1.1525   -2.3982 H   0  0  0  0  0  0  0  0  0  0  0  0
    1.9575   -0.5236   -0.5357 H   0  0  0  0  0  0  0  0  0  0  0  0
    1.1502    0.8443    2.0160 H   0  0  0  0  0  0  0  0  0  0  0  0
    1.0939    2.1803   -0.3100 H   0  0  0  0  0  0  0  0  0  0  0  0
    0.0176    2.5123    1.0345 H   0  0  0  0  0  0  0  0  0  0  0  0
   -1.2818    2.5590   -0.8248 H   0  0  0  0  0  0  0  0  0  0  0  0
   -0.6035    0.9369   -1.4299 H   0  0  0  0  0  0  0  0  0  0  0  0
   -0.3248   -0.8730    2.2295 H   0  0  0  0  0  0  0  0  0  0  0  0
   -4.1594   -0.4863   -1.9688 H   0  0  0  0  0  0  0  0  0  0  0  0
   -3.0712    0.7488   -2.6843 H   0  0  0  0  0  0  0  0  0  0  0  0
   -3.5917    1.8276   -0.7840 H   0  0  0  0  0  0  0  0  0  0  0  0
   -4.6888   -1.2594    1.6261 H   0  0  0  0  0  0  0  0  0  0  0  0
   -4.1713   -1.9052    0.0724 H   0  0  0  0  0  0  0  0  0  0  0  0
   -2.3182   -2.3284    1.2479 H   0  0  0  0  0  0  0  0  0  0  0  0
   -2.5088   -0.9390    2.4095 H   0  0  0  0  0  0  0  0  0  0  0  0
   -5.1934    2.0393    0.5253 H   0  0  0  0  0  0  0  0  0  0  0  0
   -4.3317    1.4279    1.9461 H   0  0  0  0  0  0  0  0  0  0  0  0
   -6.2599    0.1410    2.6592 H   0  0  0  0  0  0  0  0  0  0  0  0
   -8.1603   -0.5170    1.0997 H   0  0  0  0  0  0  0  0  0  0  0  0
   -7.3270    0.2948   -0.3337 H   0  0  0  0  0  0  0  0  0  0  0  0
   -7.2540    2.4970    0.8578 H   0  0  0  0  0  0  0  0  0  0  0  0
   -8.2122    1.6978    2.2374 H   0  0  0  0  0  0  0  0  0  0  0  0
   -2.3071   -1.4560   -3.9110 H   0  0  0  0  0  0  0  0  0  0  0  0
   -0.3387   -2.9995   -3.8887 H   0  0  0  0  0  0  0  0  0  0  0  0
    1.0026   -4.5207   -1.8219 H   0  0  0  0  0  0  0  0  0  0  0  0
   -2.4387    2.5828    1.0527 H   0  0  0  0  0  0  0  0  0  0  0  0
  1  2  2  0
  2  3  1  0
  3  4  2  0
  4  5  1  0
  5  6  2  0
  6  7  1  0
  7  8  2  0
  7  9  1  0
  9 10  2  0
 10 11  1  0
 11 12  2  0
  2 13  1  0
 13 14  1  0
 14 15  1  0
 15 16  1  0
 16 17  1  0
 17 18  1  0
 18 19  1  0
 19 20  1  0
 20 21  1  0
 21 22  2  0
 22 23  1  0
 23 24  1  0
 24 25  1  0
 25 26  1  0
 26 27  1  0
 27 28  1  0
 26 29  1  0
 29 30  1  0
 30 31  1  0
 31 32  1  0
 23 33  2  0
 33 34  1  0
 34 35  2  0
 35 36  1  0
 17 37  1  1
  8  3  1  0
 19 14  1  0
 35 21  1  0
 12  6  1  0
 25 17  1  0
 32 30  1  0
 18 28  1  1
 22 18  1  0
  5 38  1  0
  8 39  1  0
  9 40  1  0
 10 41  1  0
 11 42  1  0
 12 43  1  0
 13 44  1  0
 14 45  1  1
 15 46  1  0
 15 47  1  0
 16 48  1  0
 16 49  1  0
 19 50  1  1
 24 51  1  0
 24 52  1  0
 25 53  1  6
 27 54  1  0
 27 55  1  0
 28 56  1  0
 28 57  1  0
 29 58  1  0
 29 59  1  0
 30 60  1  0
 31 61  1  0
 31 62  1  0
 32 63  1  0
 32 64  1  0
 33 65  1  0
 34 66  1  0
 36 67  1  0
 37 68  1  0
M  END
>  <Ligand ID>  (1) 
LIG0001295

>  <Ligand>  (1) 
CHEMBL522201

>  <SMILES>  (1) 
O=C(c1ncc2c(c1)cccc2)N[C@H]1CC[C@@]2([C@@]34[C@H]1Oc1c4c(C[C@H]2N(CC3)CC2CC2)ccc1O)O

>  <CID>  (1) 
25232541.0

>  <ChEMBL ID>  (1) 
nan

>  <InChiKey>  (1) 
IZOHFCRCMJBTBF-YSAQZOOCSA-N

>  <InChi>  (1) 
InChI=1S/C30H31N3O4/c34-23-8-7-19-14-24-30(36)10-9-21(32-28(35)22-13-18-3-1-2-4-20(18)15-31-22)27-29(30,25(19)26(23)37-27)11-12-33(24)16-17-5-6-17/h1-4,7-8,13,15,17,21,24,27,34,36H,5-6,9-12,14,16H2,(H,32,35)/t21-,24+,27-,29-,30+/m0/s1

>  <IUPAC Name>  (1) 
N-[(4R,4aS,7S,7aR,12bS)-3-(cyclopropylmethyl)-4a,9-dihydroxy-1,2,4,5,6,7,7a,13-octahydro-4,12-methanobenzofuro[3,2-e]isoquinolin-7-yl]isoquinoline-3-carboxamide

$$$$
