
     RDKit          3D

 57 59  0  0  0  0  0  0  0  0999 V2000
   -1.8230    1.1594    1.6845 O   0  0  0  0  0  0  0  0  0  0  0  0
   -1.9320    0.0313    0.9055 C   0  0  0  0  0  0  0  0  0  0  0  0
   -3.0707    0.1836   -0.0818 C   0  0  0  0  0  0  0  0  0  0  0  0
   -4.3698    0.3911    0.6021 C   0  0  0  0  0  0  0  0  0  0  0  0
   -4.7729    1.6963    0.8874 C   0  0  0  0  0  0  0  0  0  0  0  0
   -5.9647    1.9759    1.5202 C   0  0  0  0  0  0  0  0  0  0  0  0
   -6.7583    0.9066    1.8675 C   0  0  0  0  0  0  0  0  0  0  0  0
   -6.3839   -0.4096    1.5963 C   0  0  0  0  0  0  0  0  0  0  0  0
   -5.1765   -0.6795    0.9561 C   0  0  0  0  0  0  0  0  0  0  0  0
   -7.2476   -1.5586    1.9752 C   0  0  0  0  0  0  0  0  0  0  0  0
   -6.6159   -2.4042    2.8666 F   0  0  0  0  0  0  0  0  0  0  0  0
   -7.7079   -2.1958    0.8509 F   0  0  0  0  0  0  0  0  0  0  0  0
   -8.3685   -1.0681    2.6428 F   0  0  0  0  0  0  0  0  0  0  0  0
   -0.6748   -0.0778    0.0777 C   0  0  0  0  0  0  0  0  0  0  0  0
   -0.5869   -1.0461   -0.7952 C   0  0  0  0  0  0  0  0  0  0  0  0
    0.5851   -1.2878   -1.6856 C   0  0  1  0  0  0  0  0  0  0  0  0
    0.2317   -1.0320   -3.1371 C   0  0  0  0  0  0  0  0  0  0  0  0
    0.4738    0.4393   -3.3761 C   0  0  0  0  0  0  0  0  0  0  0  0
    1.1559    0.9550   -2.1640 C   0  0  0  0  0  0  0  0  0  0  0  0
    1.2338    2.1076   -1.8517 O   0  0  0  0  0  0  0  0  0  0  0  0
    1.6906   -0.2785   -1.4741 C   0  0  2  0  0  0  0  0  0  0  0  0
    2.8646   -0.7139   -2.3242 C   0  0  0  0  0  0  0  0  0  0  0  0
    4.0495    0.2198   -2.1962 C   0  0  0  0  0  0  0  0  0  0  0  0
    4.5400    0.2870   -0.8050 C   0  0  0  0  0  0  0  0  0  0  0  0
    4.1076    1.1829    0.1358 C   0  0  0  0  0  0  0  0  0  0  0  0
    4.6056    1.1906    1.4152 C   0  0  0  0  0  0  0  0  0  0  0  0
    5.5699    0.2941    1.8205 C   0  0  0  0  0  0  0  0  0  0  0  0
    6.0264   -0.6261    0.8854 C   0  0  0  0  0  0  0  0  0  0  0  0
    5.5157   -0.6205   -0.3954 C   0  0  0  0  0  0  0  0  0  0  0  0
    6.1270    0.2652    3.1663 C   0  0  0  0  0  0  0  0  0  0  0  0
    7.0212   -0.5875    3.4928 O   0  0  0  0  0  0  0  0  0  0  0  0
    5.7173    1.1487    4.1374 O   0  0  0  0  0  0  0  0  0  0  0  0
   -1.8126    0.9797    2.6735 H   0  0  0  0  0  0  0  0  0  0  0  0
   -2.0730   -0.8737    1.5244 H   0  0  0  0  0  0  0  0  0  0  0  0
   -3.1569   -0.6826   -0.7550 H   0  0  0  0  0  0  0  0  0  0  0  0
   -2.8800    1.0807   -0.7066 H   0  0  0  0  0  0  0  0  0  0  0  0
   -4.1288    2.5327    0.6037 H   0  0  0  0  0  0  0  0  0  0  0  0
   -6.2243    3.0034    1.7150 H   0  0  0  0  0  0  0  0  0  0  0  0
   -7.6927    1.1214    2.3633 H   0  0  0  0  0  0  0  0  0  0  0  0
   -4.8846   -1.6999    0.7450 H   0  0  0  0  0  0  0  0  0  0  0  0
    0.1304    0.6077    0.1877 H   0  0  0  0  0  0  0  0  0  0  0  0
   -1.4155   -1.7370   -0.8967 H   0  0  0  0  0  0  0  0  0  0  0  0
    1.0046   -2.2907   -1.6085 H   0  0  0  0  0  0  0  0  0  0  0  0
   -0.8685   -1.1827   -3.1997 H   0  0  0  0  0  0  0  0  0  0  0  0
    0.7232   -1.7006   -3.8413 H   0  0  0  0  0  0  0  0  0  0  0  0
   -0.4690    1.0143   -3.5124 H   0  0  0  0  0  0  0  0  0  0  0  0
    1.0990    0.5468   -4.2666 H   0  0  0  0  0  0  0  0  0  0  0  0
    1.9424   -0.0766   -0.4362 H   0  0  0  0  0  0  0  0  0  0  0  0
    3.1494   -1.7613   -2.2061 H   0  0  0  0  0  0  0  0  0  0  0  0
    2.5272   -0.6199   -3.3970 H   0  0  0  0  0  0  0  0  0  0  0  0
    3.8230    1.2373   -2.5304 H   0  0  0  0  0  0  0  0  0  0  0  0
    4.8859   -0.1498   -2.8199 H   0  0  0  0  0  0  0  0  0  0  0  0
    3.3560    1.9040   -0.1320 H   0  0  0  0  0  0  0  0  0  0  0  0
    4.2409    1.9130    2.1329 H   0  0  0  0  0  0  0  0  0  0  0  0
    6.7841   -1.3558    1.1466 H   0  0  0  0  0  0  0  0  0  0  0  0
    5.9059   -1.3638   -1.0964 H   0  0  0  0  0  0  0  0  0  0  0  0
    5.9717    1.0370    5.1130 H   0  0  0  0  0  0  0  0  0  0  0  0
  1  2  1  0
  2  3  1  0
  3  4  1  0
  4  5  2  0
  5  6  1  0
  6  7  2  0
  7  8  1  0
  8  9  2  0
  8 10  1  0
 10 11  1  0
 10 12  1  0
 10 13  1  0
  2 14  1  0
 14 15  2  0
 15 16  1  0
 16 17  1  0
 17 18  1  0
 18 19  1  0
 19 20  2  0
 19 21  1  0
 21 22  1  0
 22 23  1  0
 23 24  1  0
 24 25  2  0
 25 26  1  0
 26 27  2  0
 27 28  1  0
 28 29  2  0
 27 30  1  0
 30 31  2  0
 30 32  1  0
  9  4  1  0
 21 16  1  0
 29 24  1  0
  1 33  1  0
  2 34  1  0
  3 35  1  0
  3 36  1  0
  5 37  1  0
  6 38  1  0
  7 39  1  0
  9 40  1  0
 14 41  1  0
 15 42  1  0
 16 43  1  6
 17 44  1  0
 17 45  1  0
 18 46  1  0
 18 47  1  0
 21 48  1  1
 22 49  1  0
 22 50  1  0
 23 51  1  0
 23 52  1  0
 25 53  1  0
 26 54  1  0
 28 55  1  0
 29 56  1  0
 32 57  1  0
M  END
>  <Ligand ID>  (1) 
LIG0002918

>  <Ligand>  (1) 
CHEMBL3978590

>  <SMILES>  (1) 
OC(Cc1cccc(c1)C(F)(F)F)/C=C/[C@H]1CCC(=O)[C@@H]1CCc1ccc(cc1)C(=O)O

>  <CID>  (1) 
118517361.0

>  <ChEMBL ID>  (1) 
nan

>  <InChiKey>  (1) 
UZKOHPYLAOHDTN-FSKZSRKQSA-N

>  <InChi>  (1) 
InChI=1S/C25H25F3O4/c26-25(27,28)20-3-1-2-17(14-20)15-21(29)11-9-18-10-13-23(30)22(18)12-6-16-4-7-19(8-5-16)24(31)32/h1-5,7-9,11,14,18,21-22,29H,6,10,12-13,15H2,(H,31,32)/b11-9+/t18-,21?,22+/m0/s1

>  <IUPAC Name>  (1) 
4-[2-[(1R,2R)-2-[(E)-3-hydroxy-4-[3-(trifluoromethyl)phenyl]but-1-enyl]-5-oxocyclopentyl]ethyl]benzoic acid

$$$$
