
     RDKit          3D

 65 69  0  0  0  0  0  0  0  0999 V2000
   -1.5340    3.1854   -2.4236 C   0  0  0  0  0  0  0  0  0  0  0  0
   -0.1732    3.5635   -2.5242 O   0  0  0  0  0  0  0  0  0  0  0  0
    0.7507    2.8381   -1.7943 C   0  0  0  0  0  0  0  0  0  0  0  0
    0.4002    1.7807   -0.9875 C   0  0  0  0  0  0  0  0  0  0  0  0
    1.4193    1.1421   -0.3148 C   0  0  0  0  0  0  0  0  0  0  0  0
    2.7461    1.5151   -0.4169 C   0  0  0  0  0  0  0  0  0  0  0  0
    3.0816    2.5808   -1.2324 C   0  0  0  0  0  0  0  0  0  0  0  0
    2.0811    3.2355   -1.9161 C   0  0  0  0  0  0  0  0  0  0  0  0
    2.4386    4.3006   -2.7273 O   0  0  0  0  0  0  0  0  0  0  0  0
    3.8057    4.6532   -2.8061 C   0  0  0  0  0  0  0  0  0  0  0  0
    3.7242    0.8675    0.2669 N   0  0  0  0  0  0  0  0  0  0  0  0
    3.4139   -0.1658    1.0687 C   0  0  0  0  0  0  0  0  0  0  0  0
    2.1272   -0.5394    1.1765 N   0  0  0  0  0  0  0  0  0  0  0  0
    1.1171    0.0848    0.5063 C   0  0  0  0  0  0  0  0  0  0  0  0
   -0.1782   -0.4512    0.6991 N   0  0  0  0  0  0  0  0  0  0  0  0
   -0.8938   -1.2078   -0.3053 C   0  0  0  0  0  0  0  0  0  0  0  0
   -2.3676   -1.2969   -0.0800 C   0  0  0  0  0  0  0  0  0  0  0  0
   -2.8697   -0.1986    0.7036 N   0  0  0  0  0  0  0  0  0  0  0  0
   -2.0910    0.5592    1.6545 C   0  0  0  0  0  0  0  0  0  0  0  0
   -0.8062   -0.2135    1.9840 C   0  0  0  0  0  0  0  0  0  0  0  0
   -4.2528    0.1492    0.5125 C   0  0  0  0  0  0  0  0  0  0  0  0
   -4.6415    1.3901    0.0533 C   0  0  0  0  0  0  0  0  0  0  0  0
   -6.0024    1.6671   -0.1127 C   0  0  0  0  0  0  0  0  0  0  0  0
   -6.9059    0.6565    0.2006 C   0  0  0  0  0  0  0  0  0  0  0  0
   -6.5024   -0.5806    0.6591 C   0  0  0  0  0  0  0  0  0  0  0  0
   -5.1609   -0.8543    0.8229 C   0  0  0  0  0  0  0  0  0  0  0  0
   -4.7611   -2.0820    1.2785 O   0  0  0  0  0  0  0  0  0  0  0  0
   -5.6630   -3.1175    1.6024 C   0  0  0  0  0  0  0  0  0  0  0  0
    4.4170   -0.9328    1.8500 C   0  0  0  0  0  0  0  0  0  0  0  0
    4.9347   -2.0952    1.0737 C   0  0  0  0  0  0  0  0  0  0  0  0
    6.0555   -2.0278    0.2742 C   0  0  0  0  0  0  0  0  0  0  0  0
    6.4325   -3.1716   -0.3974 C   0  0  0  0  0  0  0  0  0  0  0  0
    5.7045   -4.3477   -0.2693 C   0  0  0  0  0  0  0  0  0  0  0  0
    4.5817   -4.4332    0.5252 C   0  0  0  0  0  0  0  0  0  0  0  0
    4.2076   -3.2785    1.1985 C   0  0  0  0  0  0  0  0  0  0  0  0
   -1.8710    3.0839   -1.3836 H   0  0  0  0  0  0  0  0  0  0  0  0
   -2.2129    3.8863   -2.9451 H   0  0  0  0  0  0  0  0  0  0  0  0
   -1.6915    2.1829   -2.9025 H   0  0  0  0  0  0  0  0  0  0  0  0
   -0.6126    1.4827   -0.8862 H   0  0  0  0  0  0  0  0  0  0  0  0
    4.1263    2.8401   -1.2855 H   0  0  0  0  0  0  0  0  0  0  0  0
    3.9401    5.5630   -3.4392 H   0  0  0  0  0  0  0  0  0  0  0  0
    4.2238    4.8159   -1.7824 H   0  0  0  0  0  0  0  0  0  0  0  0
    4.3964    3.8301   -3.2661 H   0  0  0  0  0  0  0  0  0  0  0  0
   -0.6178   -0.8116   -1.3098 H   0  0  0  0  0  0  0  0  0  0  0  0
   -0.4741   -2.2667   -0.2510 H   0  0  0  0  0  0  0  0  0  0  0  0
   -2.8463   -1.3544   -1.0822 H   0  0  0  0  0  0  0  0  0  0  0  0
   -2.5761   -2.2327    0.4843 H   0  0  0  0  0  0  0  0  0  0  0  0
   -1.8331    1.5253    1.1765 H   0  0  0  0  0  0  0  0  0  0  0  0
   -2.6409    0.7722    2.5931 H   0  0  0  0  0  0  0  0  0  0  0  0
   -0.2022    0.3962    2.6538 H   0  0  0  0  0  0  0  0  0  0  0  0
   -1.1103   -1.1295    2.5150 H   0  0  0  0  0  0  0  0  0  0  0  0
   -3.9011    2.1367   -0.1748 H   0  0  0  0  0  0  0  0  0  0  0  0
   -6.3400    2.6297   -0.4693 H   0  0  0  0  0  0  0  0  0  0  0  0
   -7.9780    0.8079    0.0940 H   0  0  0  0  0  0  0  0  0  0  0  0
   -7.2446   -1.3323    0.8876 H   0  0  0  0  0  0  0  0  0  0  0  0
   -6.5122   -2.7043    2.2072 H   0  0  0  0  0  0  0  0  0  0  0  0
   -5.1526   -3.8566    2.2810 H   0  0  0  0  0  0  0  0  0  0  0  0
   -6.0162   -3.6751    0.7217 H   0  0  0  0  0  0  0  0  0  0  0  0
    5.2991   -0.3097    2.1020 H   0  0  0  0  0  0  0  0  0  0  0  0
    3.9883   -1.3053    2.8127 H   0  0  0  0  0  0  0  0  0  0  0  0
    6.5820   -1.0951    0.2094 H   0  0  0  0  0  0  0  0  0  0  0  0
    7.3055   -3.1497   -1.0306 H   0  0  0  0  0  0  0  0  0  0  0  0
    6.0181   -5.2515   -0.8112 H   0  0  0  0  0  0  0  0  0  0  0  0
    4.0007   -5.3248    0.6429 H   0  0  0  0  0  0  0  0  0  0  0  0
    3.3183   -3.3283    1.8353 H   0  0  0  0  0  0  0  0  0  0  0  0
  1  2  1  0
  2  3  1  0
  3  4  2  0
  4  5  1  0
  5  6  2  0
  6  7  1  0
  7  8  2  0
  8  9  1  0
  9 10  1  0
  6 11  1  0
 11 12  2  0
 12 13  1  0
 13 14  2  0
 14 15  1  0
 15 16  1  0
 16 17  1  0
 17 18  1  0
 18 19  1  0
 19 20  1  0
 18 21  1  0
 21 22  2  0
 22 23  1  0
 23 24  2  0
 24 25  1  0
 25 26  2  0
 26 27  1  0
 27 28  1  0
 12 29  1  0
 29 30  1  0
 30 31  2  0
 31 32  1  0
 32 33  2  0
 33 34  1  0
 34 35  2  0
  8  3  1  0
 20 15  1  0
 26 21  1  0
 35 30  1  0
 14  5  1  0
  1 36  1  0
  1 37  1  0
  1 38  1  0
  4 39  1  0
  7 40  1  0
 10 41  1  0
 10 42  1  0
 10 43  1  0
 16 44  1  0
 16 45  1  0
 17 46  1  0
 17 47  1  0
 19 48  1  0
 19 49  1  0
 20 50  1  0
 20 51  1  0
 22 52  1  0
 23 53  1  0
 24 54  1  0
 25 55  1  0
 28 56  1  0
 28 57  1  0
 28 58  1  0
 29 59  1  0
 29 60  1  0
 31 61  1  0
 32 62  1  0
 33 63  1  0
 34 64  1  0
 35 65  1  0
M  END
>  <Ligand ID>  (1) 
LIG0004867

>  <Ligand>  (1) 
CHEMBL2431114

>  <SMILES>  (1) 
COc1cc2c(cc1OC)nc(nc2N1CCN(CC1)c1ccccc1OC)Cc1ccccc1

>  <CID>  (1) 
53245615.0

>  <ChEMBL ID>  (1) 
nan

>  <InChiKey>  (1) 
TWKQXPMKDQQWCX-UHFFFAOYSA-N

>  <InChi>  (1) 
InChI=1S/C28H30N4O3/c1-33-24-12-8-7-11-23(24)31-13-15-32(16-14-31)28-21-18-25(34-2)26(35-3)19-22(21)29-27(30-28)17-20-9-5-4-6-10-20/h4-12,18-19H,13-17H2,1-3H3

>  <IUPAC Name>  (1) 
2-benzyl-6,7-dimethoxy-4-[4-(2-methoxyphenyl)piperazin-1-yl]quinazoline

$$$$
