
     RDKit          3D

 17 17  0  0  0  0  0  0  0  0999 V2000
    2.5810   -0.9089   -0.1357 C   0  0  0  0  0  0  0  0  0  0  0  0
    1.7240    0.1996   -0.3380 O   0  0  0  0  0  0  0  0  0  0  0  0
    0.3627    0.0933   -0.1283 C   0  0  0  0  0  0  0  0  0  0  0  0
   -0.2583   -1.0693    0.2841 C   0  0  0  0  0  0  0  0  0  0  0  0
   -1.6258   -1.0703    0.4646 C   0  0  0  0  0  0  0  0  0  0  0  0
   -2.3598    0.0787    0.2346 C   0  0  0  0  0  0  0  0  0  0  0  0
   -1.7566    1.2578   -0.1802 C   0  0  0  0  0  0  0  0  0  0  0  0
   -0.3841    1.2544   -0.3601 C   0  0  0  0  0  0  0  0  0  0  0  0
    0.2477    2.4263   -0.7766 O   0  0  0  0  0  0  0  0  0  0  0  0
    3.5333   -0.8032   -0.7048 H   0  0  0  0  0  0  0  0  0  0  0  0
    2.1493   -1.8687   -0.4727 H   0  0  0  0  0  0  0  0  0  0  0  0
    2.7669   -0.9660    0.9599 H   0  0  0  0  0  0  0  0  0  0  0  0
    0.3368   -1.9598    0.4589 H   0  0  0  0  0  0  0  0  0  0  0  0
   -2.0905   -1.9766    0.7835 H   0  0  0  0  0  0  0  0  0  0  0  0
   -3.4444    0.0297    0.3915 H   0  0  0  0  0  0  0  0  0  0  0  0
   -2.3575    2.1616   -0.3580 H   0  0  0  0  0  0  0  0  0  0  0  0
    0.5753    3.1214   -0.1227 H   0  0  0  0  0  0  0  0  0  0  0  0
  1  2  1  0
  2  3  1  0
  3  4  2  0
  4  5  1  0
  5  6  2  0
  6  7  1  0
  7  8  2  0
  8  9  1  0
  8  3  1  0
  1 10  1  0
  1 11  1  0
  1 12  1  0
  4 13  1  0
  5 14  1  0
  6 15  1  0
  7 16  1  0
  9 17  1  0
M  END
>  <Ligand ID>  (1) 
LIG0000023

>  <Ligand>  (1) 
guaiacol

>  <SMILES>  (1) 
COc1ccccc1O

>  <CID>  (1) 
460.0

>  <ChEMBL ID>  (1) 
nan

>  <InChiKey>  (1) 
LHGVFZTZFXWLCP-UHFFFAOYSA-N

>  <InChi>  (1) 
InChI=1S/C7H8O2/c1-9-7-5-3-2-4-6(7)8/h2-5,8H,1H3

>  <IUPAC Name>  (1) 
2-methoxyphenol

$$$$
