
     RDKit          3D

 65 66  0  0  0  0  0  0  0  0999 V2000
    6.3935    0.8402    0.6953 O   0  0  0  0  0  0  0  0  0  0  0  0
    6.6900   -0.0674   -0.1189 C   0  0  0  0  0  0  0  0  0  0  0  0
    7.8464   -0.8506    0.0490 N   0  0  0  0  0  0  0  0  0  0  0  0
    8.8771   -0.5503    1.4100 S   0  0  0  0  0  0  0  0  0  0  0  0
    8.7451    0.8995    1.8359 O   0  0  0  0  0  0  0  0  0  0  0  0
   10.2887   -0.8852    1.0751 O   0  0  0  0  0  0  0  0  0  0  0  0
    8.3735   -1.5353    2.7950 C   0  0  0  0  0  0  0  0  0  0  0  0
    5.7702   -0.2783   -1.2644 C   0  0  0  0  0  0  0  0  0  0  0  0
    4.6301    0.7176   -1.1591 C   0  0  0  0  0  0  0  0  0  0  0  0
    3.6612    0.5323   -2.3207 C   0  0  0  0  0  0  0  0  0  0  0  0
    2.5794    1.5314   -2.1547 C   0  0  0  0  0  0  0  0  0  0  0  0
    1.2997    1.2513   -2.0121 C   0  0  0  0  0  0  0  0  0  0  0  0
    0.6950   -0.0845   -1.9889 C   0  0  0  0  0  0  0  0  0  0  0  0
   -0.0367   -0.4169   -0.7160 C   0  0  1  0  0  0  0  0  0  0  0  0
    0.8741   -0.3655    0.4910 C   0  0  1  0  0  0  0  0  0  0  0  0
    1.4271    0.9102    0.5374 O   0  0  0  0  0  0  0  0  0  0  0  0
   -0.0979   -0.4876    1.6264 C   0  0  0  0  0  0  0  0  0  0  0  0
   -1.3386    0.2265    1.1409 C   0  0  2  0  0  0  0  0  0  0  0  0
   -1.0298    0.6559   -0.2924 C   0  0  2  0  0  0  0  0  0  0  0  0
   -2.2073    0.7542   -1.1474 C   0  0  0  0  0  0  0  0  0  0  0  0
   -3.4633    0.6035   -0.7949 C   0  0  0  0  0  0  0  0  0  0  0  0
   -4.5705    0.7387   -1.8137 C   0  0  2  0  0  0  0  0  0  0  0  0
   -5.6028    1.6608   -1.2583 C   0  0  0  0  0  0  0  0  0  0  0  0
   -6.1062    1.3261   -0.0636 O   0  0  0  0  0  0  0  0  0  0  0  0
   -6.8019    0.4345    0.6127 C   0  0  0  0  0  0  0  0  0  0  0  0
   -6.9780    0.6813    1.9958 C   0  0  0  0  0  0  0  0  0  0  0  0
   -7.6759   -0.1537    2.8149 C   0  0  0  0  0  0  0  0  0  0  0  0
   -8.2386   -1.2803    2.3093 C   0  0  0  0  0  0  0  0  0  0  0  0
   -8.1110   -1.5844    0.9829 C   0  0  0  0  0  0  0  0  0  0  0  0
   -7.4004   -0.7267    0.1664 C   0  0  0  0  0  0  0  0  0  0  0  0
   -5.0626   -0.5288   -2.0046 O   0  0  0  0  0  0  0  0  0  0  0  0
   -1.6324    1.2784    1.9747 O   0  0  0  0  0  0  0  0  0  0  0  0
    8.1107   -1.6087   -0.6150 H   0  0  0  0  0  0  0  0  0  0  0  0
    9.2754   -1.8850    3.3392 H   0  0  0  0  0  0  0  0  0  0  0  0
    7.7762   -0.9278    3.5315 H   0  0  0  0  0  0  0  0  0  0  0  0
    7.7613   -2.3665    2.3914 H   0  0  0  0  0  0  0  0  0  0  0  0
    5.4125   -1.3232   -1.1988 H   0  0  0  0  0  0  0  0  0  0  0  0
    6.3357   -0.1175   -2.1904 H   0  0  0  0  0  0  0  0  0  0  0  0
    5.0937    1.7226   -1.1785 H   0  0  0  0  0  0  0  0  0  0  0  0
    4.1182    0.6033   -0.1862 H   0  0  0  0  0  0  0  0  0  0  0  0
    4.2456    0.7735   -3.2570 H   0  0  0  0  0  0  0  0  0  0  0  0
    3.3432   -0.5001   -2.4196 H   0  0  0  0  0  0  0  0  0  0  0  0
    2.8911    2.5806   -2.1535 H   0  0  0  0  0  0  0  0  0  0  0  0
    0.6172    2.1077   -1.9023 H   0  0  0  0  0  0  0  0  0  0  0  0
   -0.0180   -0.1138   -2.8657 H   0  0  0  0  0  0  0  0  0  0  0  0
    1.3884   -0.9248   -2.1848 H   0  0  0  0  0  0  0  0  0  0  0  0
   -0.5232   -1.3955   -0.7395 H   0  0  0  0  0  0  0  0  0  0  0  0
    1.6385   -1.1619    0.4772 H   0  0  0  0  0  0  0  0  0  0  0  0
    1.0944    1.4653    1.2839 H   0  0  0  0  0  0  0  0  0  0  0  0
    0.2851   -0.0454    2.5709 H   0  0  0  0  0  0  0  0  0  0  0  0
   -0.3119   -1.5815    1.7549 H   0  0  0  0  0  0  0  0  0  0  0  0
   -2.1706   -0.5190    1.0944 H   0  0  0  0  0  0  0  0  0  0  0  0
   -0.4486    1.6182   -0.2541 H   0  0  0  0  0  0  0  0  0  0  0  0
   -2.0328    0.9806   -2.2146 H   0  0  0  0  0  0  0  0  0  0  0  0
   -3.7153    0.3853    0.2291 H   0  0  0  0  0  0  0  0  0  0  0  0
   -4.1349    1.1384   -2.7668 H   0  0  0  0  0  0  0  0  0  0  0  0
   -6.4628    1.7599   -1.9958 H   0  0  0  0  0  0  0  0  0  0  0  0
   -5.1704    2.7233   -1.2795 H   0  0  0  0  0  0  0  0  0  0  0  0
   -6.5453    1.5731    2.4499 H   0  0  0  0  0  0  0  0  0  0  0  0
   -7.7880    0.0702    3.8674 H   0  0  0  0  0  0  0  0  0  0  0  0
   -8.7933   -1.9539    2.9358 H   0  0  0  0  0  0  0  0  0  0  0  0
   -8.5614   -2.4827    0.5870 H   0  0  0  0  0  0  0  0  0  0  0  0
   -7.3422   -0.9930   -0.8644 H   0  0  0  0  0  0  0  0  0  0  0  0
   -4.7065   -1.2162   -1.4086 H   0  0  0  0  0  0  0  0  0  0  0  0
   -2.4588    1.7406    1.7595 H   0  0  0  0  0  0  0  0  0  0  0  0
  1  2  2  0
  2  3  1  0
  3  4  1  0
  4  5  2  0
  4  6  2  0
  4  7  1  0
  2  8  1  0
  8  9  1  0
  9 10  1  0
 10 11  1  0
 11 12  2  0
 12 13  1  0
 13 14  1  0
 14 15  1  0
 15 16  1  0
 15 17  1  0
 17 18  1  0
 18 19  1  0
 19 20  1  0
 20 21  2  0
 21 22  1  0
 22 23  1  0
 23 24  1  0
 24 25  1  0
 25 26  2  0
 26 27  1  0
 27 28  2  0
 28 29  1  0
 29 30  2  0
 22 31  1  0
 18 32  1  0
 19 14  1  0
 30 25  1  0
  3 33  1  0
  7 34  1  0
  7 35  1  0
  7 36  1  0
  8 37  1  0
  8 38  1  0
  9 39  1  0
  9 40  1  0
 10 41  1  0
 10 42  1  0
 11 43  1  0
 12 44  1  0
 13 45  1  0
 13 46  1  0
 14 47  1  6
 15 48  1  6
 16 49  1  0
 17 50  1  0
 17 51  1  0
 18 52  1  6
 19 53  1  1
 20 54  1  0
 21 55  1  0
 22 56  1  6
 23 57  1  0
 23 58  1  0
 26 59  1  0
 27 60  1  0
 28 61  1  0
 29 62  1  0
 30 63  1  0
 31 64  1  0
 32 65  1  0
M  END
>  <Ligand ID>  (1) 
LIG0004931

>  <Ligand>  (1) 
CHEMBL3889508

>  <SMILES>  (1) 
O=C(NS(=O)(=O)C)CCC/C=C\C[C@H]1[C@@H](O)C[C@H]([C@@H]1/C=C/[C@H](COc1ccccc1)O)O

>  <CID>  (1) 
14429703.0

>  <ChEMBL ID>  (1) 
nan

>  <InChiKey>  (1) 
HOLXELUFBALNSM-CNAXQHPCSA-N

>  <InChi>  (1) 
InChI=1S/C23H33NO7S/c1-32(29,30)24-23(28)12-8-3-2-7-11-19-20(22(27)15-21(19)26)14-13-17(25)16-31-18-9-5-4-6-10-18/h2,4-7,9-10,13-14,17,19-22,25-27H,3,8,11-12,15-16H2,1H3,(H,24,28)/b7-2-,14-13+/t17-,19-,20-,21+,22-/m1/s1

>  <IUPAC Name>  (1) 
(Z)-7-[(1R,2R,3R,5S)-3,5-dihydroxy-2-[(E,3R)-3-hydroxy-4-phenoxybut-1-enyl]cyclopentyl]-N-methylsulfonylhept-5-enamide

$$$$
