
     RDKit          3D

 46 47  0  0  0  0  0  0  0  0999 V2000
   -1.1524    0.1039    0.0692 C   0  0  0  0  0  0  0  0  0  0  0  0
    0.5062   -0.4097   -0.2335 S   0  0  0  0  0  0  0  0  0  0  0  0
    0.7025   -1.8767   -0.0292 O   0  0  0  0  0  0  0  0  0  0  0  0
    0.9949    0.0149   -1.5978 O   0  0  0  0  0  0  0  0  0  0  0  0
    1.4995    0.3782    0.8807 O   0  0  0  0  0  0  0  0  0  0  0  0
    5.2225    2.0043    0.6756 O   0  0  0  0  0  0  0  0  0  0  0  0
    4.0371    1.3789    0.3412 C   0  0  0  0  0  0  0  0  0  0  0  0
    3.1685    2.0304   -0.5047 C   0  0  0  0  0  0  0  0  0  0  0  0
    1.9672    1.4651   -0.8807 C   0  0  0  0  0  0  0  0  0  0  0  0
    1.5716    0.2021   -0.4215 C   0  0  0  0  0  0  0  0  0  0  0  0
    2.4651   -0.4230    0.4243 C   0  0  0  0  0  0  0  0  0  0  0  0
    3.6673    0.1349    0.8048 C   0  0  0  0  0  0  0  0  0  0  0  0
    0.2897   -0.3512   -0.8499 C   0  0  0  0  0  0  0  0  0  0  0  0
    0.3001   -1.8450   -0.9871 C   0  0  0  0  0  0  0  0  0  0  0  0
   -0.9916   -2.3559   -1.3206 N   0  0  0  0  0  0  0  0  0  0  0  0
   -1.7420   -1.6000   -2.2704 C   0  0  0  0  0  0  0  0  0  0  0  0
   -2.7769   -0.7270   -1.5655 C   0  0  0  0  0  0  0  0  0  0  0  0
   -2.1843   -0.1730   -0.2966 C   0  0  0  0  0  0  0  0  0  0  0  0
   -0.8469   -0.0023    0.0315 C   0  0  0  0  0  0  0  0  0  0  0  0
   -0.4971    0.5250    1.2508 C   0  0  0  0  0  0  0  0  0  0  0  0
   -1.4494    0.9037    2.1922 C   0  0  0  0  0  0  0  0  0  0  0  0
   -1.0365    1.4255    3.3952 O   0  0  0  0  0  0  0  0  0  0  0  0
   -2.7773    0.7237    1.8416 C   0  0  0  0  0  0  0  0  0  0  0  0
   -3.1407    0.1931    0.6153 C   0  0  0  0  0  0  0  0  0  0  0  0
   -4.8346   -0.0171    0.2138 Cl  0  0  0  0  0  0  0  0  0  0  0  0
   -3.7290    1.0967    2.7696 O   0  0  0  0  0  0  0  0  0  0  0  0
   -1.7000    0.3274   -0.8660 H   0  0  0  0  0  0  0  0  0  0  0  0
   -1.7118   -0.6671    0.6270 H   0  0  0  0  0  0  0  0  0  0  0  0
   -1.1787    1.0425    0.6729 H   0  0  0  0  0  0  0  0  0  0  0  0
    2.0398    1.0866    0.4767 H   0  0  0  0  0  0  0  0  0  0  0  0
    6.0291    1.5288    1.0024 H   0  0  0  0  0  0  0  0  0  0  0  0
    3.4436    3.0120   -0.8800 H   0  0  0  0  0  0  0  0  0  0  0  0
    1.3250    2.0396   -1.5565 H   0  0  0  0  0  0  0  0  0  0  0  0
    2.2162   -1.3975    0.8108 H   0  0  0  0  0  0  0  0  0  0  0  0
    4.3458   -0.3981    1.4787 H   0  0  0  0  0  0  0  0  0  0  0  0
    0.0655    0.0879   -1.8673 H   0  0  0  0  0  0  0  0  0  0  0  0
    1.1208   -2.1985   -1.6621 H   0  0  0  0  0  0  0  0  0  0  0  0
    0.5493   -2.2672    0.0307 H   0  0  0  0  0  0  0  0  0  0  0  0
   -0.9236   -3.3736   -1.5519 H   0  0  0  0  0  0  0  0  0  0  0  0
   -2.3485   -2.3484   -2.8600 H   0  0  0  0  0  0  0  0  0  0  0  0
   -1.1614   -1.0547   -3.0263 H   0  0  0  0  0  0  0  0  0  0  0  0
   -3.5760   -1.4081   -1.2206 H   0  0  0  0  0  0  0  0  0  0  0  0
   -3.1449    0.0900   -2.2135 H   0  0  0  0  0  0  0  0  0  0  0  0
    0.5258    0.6536    1.4972 H   0  0  0  0  0  0  0  0  0  0  0  0
   -0.6074    0.8513    4.1261 H   0  0  0  0  0  0  0  0  0  0  0  0
   -4.5422    1.5941    2.4335 H   0  0  0  0  0  0  0  0  0  0  0  0
  1  2  1  0
  2  3  2  0
  2  4  2  0
  2  5  1  0
  6  7  1  0
  7  8  2  0
  8  9  1  0
  9 10  2  0
 10 11  1  0
 11 12  2  0
 10 13  1  0
 13 14  1  0
 14 15  1  0
 15 16  1  0
 16 17  1  0
 17 18  1  0
 18 19  2  0
 19 20  1  0
 20 21  2  0
 21 22  1  0
 21 23  1  0
 23 24  2  0
 24 25  1  0
 23 26  1  0
 12  7  1  0
 19 13  1  0
 24 18  1  0
  1 27  1  0
  1 28  1  0
  1 29  1  0
  5 30  1  0
  6 31  1  0
  8 32  1  0
  9 33  1  0
 11 34  1  0
 12 35  1  0
 13 36  1  0
 14 37  1  0
 14 38  1  0
 15 39  1  0
 16 40  1  0
 16 41  1  0
 17 42  1  0
 17 43  1  0
 20 44  1  0
 22 45  1  0
 26 46  1  0
M  END
>  <Ligand ID>  (1) 
LIG0004958

>  <Ligand>  (1) 
FENOLDOPAM MESYLATE

>  <SMILES>  (1) 
CS(=O)(=O)O.Oc1ccc(cc1)C1CNCCc2c1cc(O)c(c2Cl)O

>  <CID>  (1) 
49659.0

>  <ChEMBL ID>  (1) 
nan

>  <InChiKey>  (1) 
CVKUMNRCIJMVAR-UHFFFAOYSA-N

>  <InChi>  (1) 
InChI=1S/C16H16ClNO3.CH4O3S/c17-15-11-5-6-18-8-13(9-1-3-10(19)4-2-9)12(11)7-14(20)16(15)21;1-5(2,3)4/h1-4,7,13,18-21H,5-6,8H2;1H3,(H,2,3,4)

>  <IUPAC Name>  (1) 
9-chloro-5-(4-hydroxyphenyl)-2,3,4,5-tetrahydro-1H-3-benzazepine-7,8-diol;methanesulfonic acid

$$$$
