
     RDKit          3D

142147  0  0  0  0  0  0  0  0999 V2000
    0.0346   -2.2288    5.4813 Cl  0  0  0  0  0  0  0  0  0  0  0  0
   -0.0641   -2.9757    3.9009 C   0  0  0  0  0  0  0  0  0  0  0  0
    1.0709   -3.2954    3.2099 C   0  0  0  0  0  0  0  0  0  0  0  0
    1.0275   -3.8878    1.9537 C   0  0  0  0  0  0  0  0  0  0  0  0
   -0.1940   -4.1859    1.3351 C   0  0  0  0  0  0  0  0  0  0  0  0
   -1.3386   -3.8590    2.0412 C   0  0  0  0  0  0  0  0  0  0  0  0
   -1.2725   -3.2675    3.2952 C   0  0  0  0  0  0  0  0  0  0  0  0
   -0.1945   -4.8368    0.0151 C   0  0  0  0  0  0  0  0  0  0  0  0
   -0.1057   -3.9193   -1.1696 C   0  0  2  0  0  0  0  0  0  0  0  0
    1.1232   -3.1251   -1.1314 N   0  0  0  0  0  0  0  0  0  0  0  0
    2.3132   -3.3874   -1.8424 C   0  0  0  0  0  0  0  0  0  0  0  0
    2.2889   -4.4038   -2.5571 O   0  0  0  0  0  0  0  0  0  0  0  0
    3.5034   -2.5107   -1.7288 C   0  0  2  0  0  0  0  0  0  0  0  0
    4.4119   -3.1993   -0.6500 C   0  0  0  0  0  0  0  0  0  0  0  0
    4.7389   -4.5475   -1.1367 C   0  0  0  0  0  0  0  0  0  0  0  0
    3.9943   -5.6982   -0.8637 C   0  0  0  0  0  0  0  0  0  0  0  0
    4.5945   -6.7651   -1.4639 N   0  0  0  0  0  0  0  0  0  0  0  0
    5.6820   -6.2975   -2.0940 C   0  0  0  0  0  0  0  0  0  0  0  0
    5.7770   -4.9721   -1.9035 N   0  0  0  0  0  0  0  0  0  0  0  0
    3.2139   -1.2134   -1.1519 N   0  0  0  0  0  0  0  0  0  0  0  0
    4.2014   -0.1560   -1.0809 C   0  0  0  0  0  0  0  0  0  0  0  0
    5.3199   -0.4506   -1.4720 O   0  0  0  0  0  0  0  0  0  0  0  0
    3.8000    1.1973   -0.5334 C   0  0  2  0  0  0  0  0  0  0  0  0
    3.2389    2.0376   -1.6759 C   0  0  0  0  0  0  0  0  0  0  0  0
    2.7358    3.6816   -1.2161 S   0  0  0  0  0  0  0  0  0  0  0  0
    0.9484    3.8128   -0.1030 S   0  0  0  0  0  0  0  0  0  0  0  0
   -0.4766    4.0228   -1.1629 C   0  0  0  0  0  0  0  0  0  0  0  0
   -1.7938    4.2632   -0.4761 C   0  0  1  0  0  0  0  0  0  0  0  0
   -2.2257    3.1707    0.3734 N   0  0  0  0  0  0  0  0  0  0  0  0
   -3.0340    2.1401   -0.1871 C   0  0  0  0  0  0  0  0  0  0  0  0
   -3.2714    2.2326   -1.3962 O   0  0  0  0  0  0  0  0  0  0  0  0
   -3.5773    0.9835    0.6161 C   0  0  2  0  0  0  0  0  0  0  0  0
   -4.0550    0.0266   -0.4101 N   0  0  0  0  0  0  0  0  0  0  0  0
   -3.3588   -1.1932   -0.4744 C   0  0  0  0  0  0  0  0  0  0  0  0
   -2.4781   -1.3914    0.3686 O   0  0  0  0  0  0  0  0  0  0  0  0
   -3.5894   -2.2863   -1.4813 C   0  0  1  0  0  0  0  0  0  0  0  0
   -2.6309   -3.3688   -1.2019 N   0  0  0  0  0  0  0  0  0  0  0  0
   -1.2643   -3.0411   -1.3851 C   0  0  0  0  0  0  0  0  0  0  0  0
   -1.0394   -1.8704   -1.7656 O   0  0  0  0  0  0  0  0  0  0  0  0
   -4.9705   -2.6872   -1.6993 C   0  0  0  0  0  0  0  0  0  0  0  0
   -5.0604   -3.7867   -2.7286 C   0  0  0  0  0  0  0  0  0  0  0  0
   -6.4928   -4.2066   -2.9701 C   0  0  0  0  0  0  0  0  0  0  0  0
   -6.4873   -5.2461   -3.9653 N   0  0  0  0  0  0  0  0  0  0  0  0
   -6.4791   -6.4990   -3.7582 C   0  0  0  0  0  0  0  0  0  0  0  0
   -6.4756   -7.0209   -2.4455 N   0  0  0  0  0  0  0  0  0  0  0  0
   -6.4710   -7.3641   -4.8884 N   0  0  0  0  0  0  0  0  0  0  0  0
   -4.7982    1.5228    1.3239 C   0  0  0  0  0  0  0  0  0  0  0  0
   -5.4506    0.4848    2.1661 C   0  0  0  0  0  0  0  0  0  0  0  0
   -6.6147   -0.2011    1.8551 C   0  0  0  0  0  0  0  0  0  0  0  0
   -6.9158   -1.0646    2.8365 N   0  0  0  0  0  0  0  0  0  0  0  0
   -5.9441   -0.9255    3.7681 C   0  0  0  0  0  0  0  0  0  0  0  0
   -5.0292    0.0164    3.3899 C   0  0  0  0  0  0  0  0  0  0  0  0
   -3.9459    0.3166    4.2041 C   0  0  0  0  0  0  0  0  0  0  0  0
   -3.7590   -0.3219    5.4141 C   0  0  0  0  0  0  0  0  0  0  0  0
   -4.6897   -1.2839    5.8048 C   0  0  0  0  0  0  0  0  0  0  0  0
   -5.7618   -1.5701    4.9819 C   0  0  0  0  0  0  0  0  0  0  0  0
   -1.8063    5.5679    0.2431 C   0  0  0  0  0  0  0  0  0  0  0  0
   -2.1629    5.5766    1.4478 O   0  0  0  0  0  0  0  0  0  0  0  0
   -1.4133    6.7103   -0.4841 N   0  0  0  0  0  0  0  0  0  0  0  0
   -1.3667    8.0541    0.0810 C   0  0  1  0  0  0  0  0  0  0  0  0
    0.0283    8.5911    0.0306 C   0  0  0  0  0  0  0  0  0  0  0  0
    0.8894    7.8106   -0.4861 O   0  0  0  0  0  0  0  0  0  0  0  0
    0.3591    9.8783    0.5253 N   0  0  0  0  0  0  0  0  0  0  0  0
   -2.2712    9.0095   -0.6384 C   0  0  1  0  0  0  0  0  0  0  0  0
   -2.2085   10.2838   -0.0798 O   0  0  0  0  0  0  0  0  0  0  0  0
   -1.9537    9.1285   -2.1015 C   0  0  0  0  0  0  0  0  0  0  0  0
    4.9757    1.9516   -0.1012 N   0  0  0  0  0  0  0  0  0  0  0  0
    5.1735    2.0444    1.2941 C   0  0  0  0  0  0  0  0  0  0  0  0
    4.3389    1.4558    2.0564 O   0  0  0  0  0  0  0  0  0  0  0  0
    6.2653    2.7676    1.9728 C   0  0  1  0  0  0  0  0  0  0  0  0
    7.3662    1.8205    2.4321 C   0  0  0  0  0  0  0  0  0  0  0  0
    8.0205    1.1017    1.3202 C   0  0  0  0  0  0  0  0  0  0  0  0
    9.1429    1.7330    0.7727 C   0  0  0  0  0  0  0  0  0  0  0  0
    9.8451    1.1708   -0.2666 C   0  0  0  0  0  0  0  0  0  0  0  0
    9.4504   -0.0571   -0.8068 C   0  0  0  0  0  0  0  0  0  0  0  0
    8.3366   -0.6435   -0.2343 C   0  0  0  0  0  0  0  0  0  0  0  0
    7.6221   -0.0986    0.8037 C   0  0  0  0  0  0  0  0  0  0  0  0
    6.9062    3.6538    0.9994 N   0  0  0  0  0  0  0  0  0  0  0  0
    2.0803   -3.1064    3.5953 H   0  0  0  0  0  0  0  0  0  0  0  0
    1.9440   -4.1280    1.4291 H   0  0  0  0  0  0  0  0  0  0  0  0
   -2.2744   -4.0779    1.5845 H   0  0  0  0  0  0  0  0  0  0  0  0
   -2.1706   -3.0070    3.8631 H   0  0  0  0  0  0  0  0  0  0  0  0
   -1.1767   -5.3851   -0.1067 H   0  0  0  0  0  0  0  0  0  0  0  0
    0.5630   -5.6535   -0.0314 H   0  0  0  0  0  0  0  0  0  0  0  0
    0.0666   -4.6179   -2.0387 H   0  0  0  0  0  0  0  0  0  0  0  0
    1.1091   -2.3136   -0.5213 H   0  0  0  0  0  0  0  0  0  0  0  0
    4.1597   -2.4941   -2.5986 H   0  0  0  0  0  0  0  0  0  0  0  0
    3.8325   -3.1930    0.2749 H   0  0  0  0  0  0  0  0  0  0  0  0
    5.2870   -2.5577   -0.5467 H   0  0  0  0  0  0  0  0  0  0  0  0
    3.0870   -5.7661   -0.2773 H   0  0  0  0  0  0  0  0  0  0  0  0
    6.3456   -6.9450   -2.6549 H   0  0  0  0  0  0  0  0  0  0  0  0
    6.5193   -4.3459   -2.2740 H   0  0  0  0  0  0  0  0  0  0  0  0
    2.3140   -0.9230   -0.7548 H   0  0  0  0  0  0  0  0  0  0  0  0
    3.1336    1.0671    0.3121 H   0  0  0  0  0  0  0  0  0  0  0  0
    4.0091    2.1218   -2.4602 H   0  0  0  0  0  0  0  0  0  0  0  0
    2.3888    1.4922   -2.1762 H   0  0  0  0  0  0  0  0  0  0  0  0
   -0.3548    4.8332   -1.9163 H   0  0  0  0  0  0  0  0  0  0  0  0
   -0.6046    3.0866   -1.7545 H   0  0  0  0  0  0  0  0  0  0  0  0
   -2.5276    4.2789   -1.3539 H   0  0  0  0  0  0  0  0  0  0  0  0
   -2.0045    3.0553    1.3640 H   0  0  0  0  0  0  0  0  0  0  0  0
   -2.8103    0.5621    1.2622 H   0  0  0  0  0  0  0  0  0  0  0  0
   -4.8193    0.1812   -1.0415 H   0  0  0  0  0  0  0  0  0  0  0  0
   -3.1615   -1.8133   -2.4254 H   0  0  0  0  0  0  0  0  0  0  0  0
   -2.8498   -4.3014   -0.8992 H   0  0  0  0  0  0  0  0  0  0  0  0
   -5.5127   -1.8149   -2.1573 H   0  0  0  0  0  0  0  0  0  0  0  0
   -5.5599   -2.9105   -0.7835 H   0  0  0  0  0  0  0  0  0  0  0  0
   -4.5157   -4.7022   -2.3916 H   0  0  0  0  0  0  0  0  0  0  0  0
   -4.6537   -3.4047   -3.6737 H   0  0  0  0  0  0  0  0  0  0  0  0
   -7.0846   -3.3512   -3.3536 H   0  0  0  0  0  0  0  0  0  0  0  0
   -6.9703   -4.5217   -2.0198 H   0  0  0  0  0  0  0  0  0  0  0  0
   -6.1136   -6.4144   -1.6656 H   0  0  0  0  0  0  0  0  0  0  0  0
   -6.8184   -7.9907   -2.2014 H   0  0  0  0  0  0  0  0  0  0  0  0
   -6.4731   -8.4177   -4.8000 H   0  0  0  0  0  0  0  0  0  0  0  0
   -6.4644   -6.9960   -5.8735 H   0  0  0  0  0  0  0  0  0  0  0  0
   -5.4790    1.9273    0.5600 H   0  0  0  0  0  0  0  0  0  0  0  0
   -4.4439    2.3989    1.9259 H   0  0  0  0  0  0  0  0  0  0  0  0
   -7.2045   -0.0682    0.9548 H   0  0  0  0  0  0  0  0  0  0  0  0
   -7.7242   -1.7371    2.9235 H   0  0  0  0  0  0  0  0  0  0  0  0
   -3.2526    1.0675    3.8581 H   0  0  0  0  0  0  0  0  0  0  0  0
   -2.9084   -0.0670    6.0242 H   0  0  0  0  0  0  0  0  0  0  0  0
   -4.5688   -1.8113    6.7643 H   0  0  0  0  0  0  0  0  0  0  0  0
   -6.4788   -2.3326    5.3149 H   0  0  0  0  0  0  0  0  0  0  0  0
   -1.1205    6.6619   -1.5059 H   0  0  0  0  0  0  0  0  0  0  0  0
   -1.6662    8.0692    1.1579 H   0  0  0  0  0  0  0  0  0  0  0  0
    0.0910   10.1667    1.4899 H   0  0  0  0  0  0  0  0  0  0  0  0
    0.8806   10.5074   -0.1282 H   0  0  0  0  0  0  0  0  0  0  0  0
   -3.3322    8.6851   -0.5707 H   0  0  0  0  0  0  0  0  0  0  0  0
   -2.4438   10.9853   -0.7364 H   0  0  0  0  0  0  0  0  0  0  0  0
   -1.0430    9.7068   -2.3204 H   0  0  0  0  0  0  0  0  0  0  0  0
   -1.9714    8.1463   -2.6271 H   0  0  0  0  0  0  0  0  0  0  0  0
   -2.7978    9.7019   -2.5605 H   0  0  0  0  0  0  0  0  0  0  0  0
    5.6438    2.4070   -0.7486 H   0  0  0  0  0  0  0  0  0  0  0  0
    5.9099    3.3772    2.7990 H   0  0  0  0  0  0  0  0  0  0  0  0
    6.8551    1.0748    3.1144 H   0  0  0  0  0  0  0  0  0  0  0  0
    8.0919    2.3974    3.0050 H   0  0  0  0  0  0  0  0  0  0  0  0
    9.4919    2.6942    1.1611 H   0  0  0  0  0  0  0  0  0  0  0  0
   10.7111    1.7036   -0.6546 H   0  0  0  0  0  0  0  0  0  0  0  0
   10.0180   -0.4603   -1.6070 H   0  0  0  0  0  0  0  0  0  0  0  0
    8.0401   -1.5978   -0.6636 H   0  0  0  0  0  0  0  0  0  0  0  0
    6.7634   -0.5796    1.2224 H   0  0  0  0  0  0  0  0  0  0  0  0
    6.1819    4.2422    0.5043 H   0  0  0  0  0  0  0  0  0  0  0  0
    7.5917    4.3004    1.4642 H   0  0  0  0  0  0  0  0  0  0  0  0
  1  2  1  0
  2  3  2  0
  3  4  1  0
  4  5  2  0
  5  6  1  0
  6  7  2  0
  5  8  1  0
  8  9  1  0
  9 10  1  0
 10 11  1  0
 11 12  2  0
 11 13  1  0
 13 14  1  0
 14 15  1  0
 15 16  2  0
 16 17  1  0
 17 18  2  0
 18 19  1  0
 13 20  1  0
 20 21  1  0
 21 22  2  0
 21 23  1  0
 23 24  1  0
 24 25  1  0
 25 26  1  0
 26 27  1  0
 27 28  1  0
 28 29  1  0
 29 30  1  0
 30 31  2  0
 30 32  1  0
 32 33  1  0
 33 34  1  0
 34 35  2  0
 34 36  1  0
 36 37  1  0
 37 38  1  0
 38 39  2  0
 36 40  1  0
 40 41  1  0
 41 42  1  0
 42 43  1  0
 43 44  2  3
 44 45  1  0
 44 46  1  0
 32 47  1  0
 47 48  1  0
 48 49  2  0
 49 50  1  0
 50 51  1  0
 51 52  2  0
 52 53  1  0
 53 54  2  0
 54 55  1  0
 55 56  2  0
 28 57  1  0
 57 58  2  0
 57 59  1  0
 59 60  1  0
 60 61  1  0
 61 62  2  0
 61 63  1  0
 60 64  1  0
 64 65  1  0
 64 66  1  0
 23 67  1  0
 67 68  1  0
 68 69  2  0
 68 70  1  0
 70 71  1  0
 71 72  1  0
 72 73  2  0
 73 74  1  0
 74 75  2  0
 75 76  1  0
 76 77  2  0
 70 78  1  0
  7  2  1  0
 38  9  1  0
 52 48  1  0
 77 72  1  0
 19 15  1  0
 56 51  1  0
  3 79  1  0
  4 80  1  0
  6 81  1  0
  7 82  1  0
  8 83  1  0
  8 84  1  0
  9 85  1  6
 10 86  1  0
 13 87  1  6
 14 88  1  0
 14 89  1  0
 16 90  1  0
 18 91  1  0
 19 92  1  0
 20 93  1  0
 23 94  1  1
 24 95  1  0
 24 96  1  0
 27 97  1  0
 27 98  1  0
 28 99  1  6
 29100  1  0
 32101  1  1
 33102  1  0
 36103  1  6
 37104  1  0
 40105  1  0
 40106  1  0
 41107  1  0
 41108  1  0
 42109  1  0
 42110  1  0
 45111  1  0
 45112  1  0
 46113  1  0
 46114  1  0
 47115  1  0
 47116  1  0
 49117  1  0
 50118  1  0
 53119  1  0
 54120  1  0
 55121  1  0
 56122  1  0
 59123  1  0
 60124  1  1
 63125  1  0
 63126  1  0
 64127  1  6
 65128  1  0
 66129  1  0
 66130  1  0
 66131  1  0
 67132  1  0
 70133  1  1
 71134  1  0
 71135  1  0
 73136  1  0
 74137  1  0
 75138  1  0
 76139  1  0
 77140  1  0
 78141  1  0
 78142  1  0
M  END
>  <Ligand ID>  (1) 
LIG0000793

>  <Ligand>  (1) 
CHEMBL406842

>  <SMILES>  (1) 
Clc1ccc(cc1)C[C@@H]1NC(=O)[C@H](Cc2cnc[nH]2)NC(=O)[C@H](CSSC[C@@H](NC(=O)[C@H](NC(=O)[C@@H](NC1=O)CCCN=C(N)N)Cc1c[nH]c2c1cccc2)C(=O)N[C@@H](C(=O)N)[C@@H](O)C)NC(=O)[C@@H](Cc1ccccc1)N

>  <CID>  (1) 
44285234.0

>  <ChEMBL ID>  (1) 
nan

>  <InChiKey>  (1) 
WZAMLQNJEPHSTH-JMCLYXOWSA-N

>  <InChi>  (1) 
InChI=1S/C51H64ClN15O9S2/c1-27(68)42(43(54)69)67-50(76)41-25-78-77-24-40(65-44(70)34(53)18-28-8-3-2-4-9-28)49(75)64-39(21-32-23-57-26-60-32)48(74)62-37(19-29-13-15-31(52)16-14-29)46(72)61-36(12-7-17-58-51(55)56)45(71)63-38(47(73)66-41)20-30-22-59-35-11-6-5-10-33(30)35/h2-6,8-11,13-16,22-23,26-27,34,36-42,59,68H,7,12,17-21,24-25,53H2,1H3,(H2,54,69)(H,57,60)(H,61,72)(H,62,74)(H,63,71)(H,64,75)(H,65,70)(H,66,73)(H,67,76)(H4,55,56,58)/t27-,34+,36-,37-,38+,39-,40-,41+,42+/m0/s1

>  <IUPAC Name>  (1) 
(4S,7R,10S,13S,16S,19R)-N-[(2R,3S)-1-amino-3-hydroxy-1-oxobutan-2-yl]-19-[[(2R)-2-amino-3-phenylpropanoyl]amino]-13-[(4-chlorophenyl)methyl]-10-[3-(diaminomethylideneamino)propyl]-16-(1H-imidazol-5-ylmethyl)-7-(1H-indol-3-ylmethyl)-6,9,12,15,18-pentaoxo-1,2-dithia-5,8,11,14,17-pentazacycloicosane-4-carboxamide

$$$$
