
     RDKit          3D

 78 79  0  0  0  0  0  0  0  0999 V2000
  -10.3569    2.7107    0.2915 O   0  0  0  0  0  0  0  0  0  0  0  0
   -9.6257    1.9127   -0.5935 C   0  0  0  0  0  0  0  0  0  0  0  0
   -9.2624    0.6658    0.1009 C   0  0  0  0  0  0  0  0  0  0  0  0
   -7.9829    0.5094    0.5448 C   0  0  0  0  0  0  0  0  0  0  0  0
   -7.5371   -0.6355    1.2137 C   0  0  0  0  0  0  0  0  0  0  0  0
   -8.4662   -1.6418    1.4197 C   0  0  0  0  0  0  0  0  0  0  0  0
   -9.7614   -1.4627    0.9605 C   0  0  0  0  0  0  0  0  0  0  0  0
  -10.1829   -0.3349    0.3065 C   0  0  0  0  0  0  0  0  0  0  0  0
  -11.4807   -0.1509   -0.1554 O   0  0  0  0  0  0  0  0  0  0  0  0
   -6.1335   -0.7105    1.6524 C   0  0  2  0  0  0  0  0  0  0  0  0
   -5.3588   -1.6234    0.7418 C   0  0  0  0  0  0  0  0  0  0  0  0
   -3.9838   -1.7419    1.1189 N   0  0  0  0  0  0  0  0  0  0  0  0
   -3.2196   -0.5208    0.9359 C   0  0  0  0  0  0  0  0  0  0  0  0
   -3.0977   -0.2230   -0.5250 C   0  0  0  0  0  0  0  0  0  0  0  0
   -2.3097    1.0278   -0.8174 C   0  0  0  0  0  0  0  0  0  0  0  0
   -0.8993    0.8896   -0.2816 C   0  0  0  0  0  0  0  0  0  0  0  0
   -0.1847   -0.2821   -0.9152 C   0  0  0  0  0  0  0  0  0  0  0  0
    1.2145   -0.3505   -0.3429 C   0  0  0  0  0  0  0  0  0  0  0  0
    1.9426    0.7918   -0.5960 O   0  0  0  0  0  0  0  0  0  0  0  0
    2.1053    1.0815   -1.9207 C   0  0  0  0  0  0  0  0  0  0  0  0
    2.8452    0.0961   -2.7489 C   0  0  0  0  0  0  0  0  0  0  0  0
    4.2505   -0.1241   -2.3331 C   0  0  0  0  0  0  0  0  0  0  0  0
    4.4864   -0.6290   -0.9558 C   0  0  0  0  0  0  0  0  0  0  0  0
    5.9847   -0.7531   -0.8135 C   0  0  0  0  0  0  0  0  0  0  0  0
    6.6067   -1.9434   -1.1539 C   0  0  0  0  0  0  0  0  0  0  0  0
    7.9711   -2.1180   -1.0475 C   0  0  0  0  0  0  0  0  0  0  0  0
    8.7039   -1.0252   -0.5749 C   0  0  0  0  0  0  0  0  0  0  0  0
    8.0729    0.1544   -0.2393 C   0  0  0  0  0  0  0  0  0  0  0  0
    6.7053    0.3078   -0.3534 C   0  0  0  0  0  0  0  0  0  0  0  0
    9.0604    1.4904    0.3477 S   0  0  0  0  0  0  0  0  0  0  0  0
   10.3462    1.4974   -0.3862 O   0  0  0  0  0  0  0  0  0  0  0  0
    8.3495    2.7886   -0.0005 O   0  0  0  0  0  0  0  0  0  0  0  0
    9.2560    1.4695    2.0472 N   0  0  0  0  0  0  0  0  0  0  0  0
    7.9840    1.5983    2.7061 C   0  0  0  0  0  0  0  0  0  0  0  0
   10.0172    0.3296    2.4671 C   0  0  0  0  0  0  0  0  0  0  0  0
   -6.0974   -1.2088    2.9516 O   0  0  0  0  0  0  0  0  0  0  0  0
   -9.7465    3.3479    0.7819 H   0  0  0  0  0  0  0  0  0  0  0  0
  -10.3157    1.6761   -1.4537 H   0  0  0  0  0  0  0  0  0  0  0  0
   -8.7493    2.5071   -0.9072 H   0  0  0  0  0  0  0  0  0  0  0  0
   -7.2639    1.3026    0.3775 H   0  0  0  0  0  0  0  0  0  0  0  0
   -8.1682   -2.5468    1.9323 H   0  0  0  0  0  0  0  0  0  0  0  0
  -10.4733   -2.2607    1.1309 H   0  0  0  0  0  0  0  0  0  0  0  0
  -11.5750    0.0890   -1.1473 H   0  0  0  0  0  0  0  0  0  0  0  0
   -5.7090    0.3210    1.6385 H   0  0  0  0  0  0  0  0  0  0  0  0
   -5.5149   -1.3807   -0.3118 H   0  0  0  0  0  0  0  0  0  0  0  0
   -5.8031   -2.6495    0.8762 H   0  0  0  0  0  0  0  0  0  0  0  0
   -3.8739   -2.1465    2.0745 H   0  0  0  0  0  0  0  0  0  0  0  0
   -3.5918    0.3258    1.5307 H   0  0  0  0  0  0  0  0  0  0  0  0
   -2.2047   -0.7458    1.3213 H   0  0  0  0  0  0  0  0  0  0  0  0
   -4.1087   -0.0861   -1.0097 H   0  0  0  0  0  0  0  0  0  0  0  0
   -2.6628   -1.1124   -1.0202 H   0  0  0  0  0  0  0  0  0  0  0  0
   -2.7680    1.8920   -0.3206 H   0  0  0  0  0  0  0  0  0  0  0  0
   -2.2342    1.1871   -1.9091 H   0  0  0  0  0  0  0  0  0  0  0  0
   -0.3756    1.8352   -0.5183 H   0  0  0  0  0  0  0  0  0  0  0  0
   -0.9666    0.7949    0.8176 H   0  0  0  0  0  0  0  0  0  0  0  0
   -0.2189   -0.1460   -1.9981 H   0  0  0  0  0  0  0  0  0  0  0  0
   -0.6632   -1.2484   -0.6691 H   0  0  0  0  0  0  0  0  0  0  0  0
    1.7273   -1.2908   -0.6136 H   0  0  0  0  0  0  0  0  0  0  0  0
    1.0693   -0.3968    0.7758 H   0  0  0  0  0  0  0  0  0  0  0  0
    1.1400    1.4043   -2.4130 H   0  0  0  0  0  0  0  0  0  0  0  0
    2.7157    2.0353   -1.9551 H   0  0  0  0  0  0  0  0  0  0  0  0
    2.3414   -0.8878   -2.8417 H   0  0  0  0  0  0  0  0  0  0  0  0
    2.8836    0.5277   -3.7917 H   0  0  0  0  0  0  0  0  0  0  0  0
    4.7816   -0.7668   -3.0674 H   0  0  0  0  0  0  0  0  0  0  0  0
    4.7806    0.8728   -2.4089 H   0  0  0  0  0  0  0  0  0  0  0  0
    4.0676   -1.6551   -0.8958 H   0  0  0  0  0  0  0  0  0  0  0  0
    4.0870   -0.0125   -0.1543 H   0  0  0  0  0  0  0  0  0  0  0  0
    6.0150   -2.7937   -1.5237 H   0  0  0  0  0  0  0  0  0  0  0  0
    8.4650   -3.0454   -1.3109 H   0  0  0  0  0  0  0  0  0  0  0  0
    9.7710   -1.1778   -0.4975 H   0  0  0  0  0  0  0  0  0  0  0  0
    6.1967    1.2175   -0.0965 H   0  0  0  0  0  0  0  0  0  0  0  0
    7.4025    2.3737    2.1636 H   0  0  0  0  0  0  0  0  0  0  0  0
    8.1274    1.9751    3.7385 H   0  0  0  0  0  0  0  0  0  0  0  0
    7.3534    0.6852    2.6633 H   0  0  0  0  0  0  0  0  0  0  0  0
   10.8520    0.6832    3.1041 H   0  0  0  0  0  0  0  0  0  0  0  0
   10.4831   -0.1194    1.5607 H   0  0  0  0  0  0  0  0  0  0  0  0
    9.3393   -0.3833    2.9769 H   0  0  0  0  0  0  0  0  0  0  0  0
   -6.5741   -2.0426    3.0816 H   0  0  0  0  0  0  0  0  0  0  0  0
  1  2  1  0
  2  3  1  0
  3  4  2  0
  4  5  1  0
  5  6  2  0
  6  7  1  0
  7  8  2  0
  8  9  1  0
  5 10  1  0
 10 11  1  0
 11 12  1  0
 12 13  1  0
 13 14  1  0
 14 15  1  0
 15 16  1  0
 16 17  1  0
 17 18  1  0
 18 19  1  0
 19 20  1  0
 20 21  1  0
 21 22  1  0
 22 23  1  0
 23 24  1  0
 24 25  2  0
 25 26  1  0
 26 27  2  0
 27 28  1  0
 28 29  2  0
 28 30  1  0
 30 31  2  0
 30 32  2  0
 30 33  1  0
 33 34  1  0
 33 35  1  0
 10 36  1  0
  8  3  1  0
 29 24  1  0
  1 37  1  0
  2 38  1  0
  2 39  1  0
  4 40  1  0
  6 41  1  0
  7 42  1  0
  9 43  1  0
 10 44  1  1
 11 45  1  0
 11 46  1  0
 12 47  1  0
 13 48  1  0
 13 49  1  0
 14 50  1  0
 14 51  1  0
 15 52  1  0
 15 53  1  0
 16 54  1  0
 16 55  1  0
 17 56  1  0
 17 57  1  0
 18 58  1  0
 18 59  1  0
 20 60  1  0
 20 61  1  0
 21 62  1  0
 21 63  1  0
 22 64  1  0
 22 65  1  0
 23 66  1  0
 23 67  1  0
 25 68  1  0
 26 69  1  0
 27 70  1  0
 29 71  1  0
 34 72  1  0
 34 73  1  0
 34 74  1  0
 35 75  1  0
 35 76  1  0
 35 77  1  0
 36 78  1  0
M  END
>  <Ligand ID>  (1) 
LIG0004551

>  <Ligand>  (1) 
CHEMBL474393

>  <SMILES>  (1) 
OCc1cc(ccc1O)[C@H](CNCCCCCCOCCCCc1cccc(c1)S(=O)(=O)N(C)C)O

>  <CID>  (1) 
42625821.0

>  <ChEMBL ID>  (1) 
nan

>  <InChiKey>  (1) 
UVXVHCDZVYUCCX-MHZLTWQESA-N

>  <InChi>  (1) 
InChI=1S/C27H42N2O6S/c1-29(2)36(33,34)25-12-9-11-22(18-25)10-5-8-17-35-16-7-4-3-6-15-28-20-27(32)23-13-14-26(31)24(19-23)21-30/h9,11-14,18-19,27-28,30-32H,3-8,10,15-17,20-21H2,1-2H3/t27-/m0/s1

>  <IUPAC Name>  (1) 
3-[4-[6-[[(2R)-2-hydroxy-2-[4-hydroxy-3-(hydroxymethyl)phenyl]ethyl]amino]hexoxy]butyl]-N,N-dimethylbenzenesulfonamide

$$$$
