
     RDKit          3D

 29 28  0  0  0  0  0  0  0  0999 V2000
    4.8836    0.3394    0.6316 O   0  0  0  0  0  0  0  0  0  0  0  0
    4.3518   -0.6490   -0.1983 C   0  0  0  0  0  0  0  0  0  0  0  0
    5.1708   -1.3531   -0.8474 O   0  0  0  0  0  0  0  0  0  0  0  0
    2.8662   -0.8614   -0.3104 C   0  0  0  0  0  0  0  0  0  0  0  0
    2.1717    0.1311    0.5845 C   0  0  0  0  0  0  0  0  0  0  0  0
    0.6853   -0.0016    0.5426 C   0  0  0  0  0  0  0  0  0  0  0  0
    0.1801    0.2213   -0.8483 C   0  0  0  0  0  0  0  0  0  0  0  0
   -1.3230    0.0992   -0.9498 C   0  0  0  0  0  0  0  0  0  0  0  0
   -2.0696    1.0680   -0.1008 C   0  0  0  0  0  0  0  0  0  0  0  0
   -3.5514    0.9412   -0.2065 C   0  0  0  0  0  0  0  0  0  0  0  0
   -4.0976   -0.3652    0.1856 C   0  0  0  0  0  0  0  0  0  0  0  0
   -5.3497   -0.5219    0.0977 O   0  0  0  0  0  0  0  0  0  0  0  0
   -3.3647   -1.4354    0.6412 O   0  0  0  0  0  0  0  0  0  0  0  0
    5.7132    0.8644    0.3597 H   0  0  0  0  0  0  0  0  0  0  0  0
    2.6123   -1.9123   -0.0576 H   0  0  0  0  0  0  0  0  0  0  0  0
    2.6194   -0.6500   -1.3919 H   0  0  0  0  0  0  0  0  0  0  0  0
    2.5011    1.1472    0.2435 H   0  0  0  0  0  0  0  0  0  0  0  0
    2.5517   -0.0825    1.6235 H   0  0  0  0  0  0  0  0  0  0  0  0
    0.1986    0.6720    1.2462 H   0  0  0  0  0  0  0  0  0  0  0  0
    0.4307   -1.0338    0.8676 H   0  0  0  0  0  0  0  0  0  0  0  0
    0.5840   -0.6241   -1.4795 H   0  0  0  0  0  0  0  0  0  0  0  0
    0.5508    1.1440   -1.2954 H   0  0  0  0  0  0  0  0  0  0  0  0
   -1.5684    0.3463   -2.0181 H   0  0  0  0  0  0  0  0  0  0  0  0
   -1.6104   -0.9385   -0.8080 H   0  0  0  0  0  0  0  0  0  0  0  0
   -1.8050    2.0960   -0.4167 H   0  0  0  0  0  0  0  0  0  0  0  0
   -1.8060    0.9904    0.9804 H   0  0  0  0  0  0  0  0  0  0  0  0
   -4.0534    1.7035    0.4030 H   0  0  0  0  0  0  0  0  0  0  0  0
   -3.8116    1.0637   -1.2996 H   0  0  0  0  0  0  0  0  0  0  0  0
   -3.6605   -2.3987    0.5882 H   0  0  0  0  0  0  0  0  0  0  0  0
  1  2  1  0
  2  3  2  0
  2  4  1  0
  4  5  1  0
  5  6  1  0
  6  7  1  0
  7  8  1  0
  8  9  1  0
  9 10  1  0
 10 11  1  0
 11 12  2  0
 11 13  1  0
  1 14  1  0
  4 15  1  0
  4 16  1  0
  5 17  1  0
  5 18  1  0
  6 19  1  0
  6 20  1  0
  7 21  1  0
  7 22  1  0
  8 23  1  0
  8 24  1  0
  9 25  1  0
  9 26  1  0
 10 27  1  0
 10 28  1  0
 13 29  1  0
M  END
>  <Ligand ID>  (1) 
LIG0000136

>  <Ligand>  (1) 
Azelaic Acid

>  <SMILES>  (1) 
OC(=O)CCCCCCCC(=O)O

>  <CID>  (1) 
2266.0

>  <ChEMBL ID>  (1) 
nan

>  <InChiKey>  (1) 
BDJRBEYXGGNYIS-UHFFFAOYSA-N

>  <InChi>  (1) 
InChI=1S/C9H16O4/c10-8(11)6-4-2-1-3-5-7-9(12)13/h1-7H2,(H,10,11)(H,12,13)

>  <IUPAC Name>  (1) 
nonanedioic acid

$$$$
