
     RDKit          3D

 96 97  0  0  0  0  0  0  0  0999 V2000
   -6.7344    0.5449   -1.1645 O   0  0  0  0  0  0  0  0  0  0  0  0
   -6.0378    0.5882   -2.2012 C   0  0  0  0  0  0  0  0  0  0  0  0
   -6.5836    0.0192   -3.3746 N   0  0  0  0  0  0  0  0  0  0  0  0
   -7.8933   -0.5763   -3.4134 C   0  0  0  0  0  0  0  0  0  0  0  0
   -8.6843   -0.6453   -2.5503 N   0  0  0  0  0  0  0  0  0  0  0  0
   -9.3555   -0.5636   -1.3914 C   0  0  0  0  0  0  0  0  0  0  0  0
   -9.0334   -1.5710   -0.2899 C   0  0  0  0  0  0  0  0  0  0  0  0
   -9.8816   -1.2755    0.9161 C   0  0  0  0  0  0  0  0  0  0  0  0
  -11.3237   -1.4348    0.7503 C   0  0  0  0  0  0  0  0  0  0  0  0
  -12.2641   -1.1689    1.7136 C   0  0  0  0  0  0  0  0  0  0  0  0
  -13.5049   -1.3809    1.3290 N   0  0  0  0  0  0  0  0  0  0  0  0
  -13.9276   -1.7483    0.3299 C   0  0  0  0  0  0  0  0  0  0  0  0
  -12.3006   -1.9774   -0.6566 S   0  0  0  0  0  0  0  0  0  0  0  0
  -15.1488   -2.0764   -0.4063 N   0  0  0  0  0  0  0  0  0  0  0  0
   -8.2074   -1.1449   -4.7305 N   0  0  0  0  0  0  0  0  0  0  0  0
   -4.7014    1.2257   -2.1403 C   0  0  0  0  0  0  0  0  0  0  0  0
   -4.3399    1.6137   -0.7228 C   0  0  0  0  0  0  0  0  0  0  0  0
   -2.9988    2.2934   -0.7476 C   0  0  0  0  0  0  0  0  0  0  0  0
   -2.5423    2.6911    0.6447 C   0  0  0  0  0  0  0  0  0  0  0  0
   -2.3513    1.4808    1.5278 C   0  0  0  0  0  0  0  0  0  0  0  0
   -1.9603    1.8893    2.8862 C   0  0  0  0  0  0  0  0  0  0  0  0
   -0.7903    2.7188    3.1547 C   0  0  0  0  0  0  0  0  0  0  0  0
    0.5791    2.3347    2.7964 C   0  0  0  0  0  0  0  0  0  0  0  0
    0.9832    2.1731    1.3875 C   0  0  0  0  0  0  0  0  0  0  0  0
    2.4831    1.8074    1.2687 C   0  0  0  0  0  0  0  0  0  0  0  0
    2.7618    0.4932    1.9018 C   0  0  0  0  0  0  0  0  0  0  0  0
    4.2599    0.1370    1.8432 C   0  0  0  0  0  0  0  0  0  0  0  0
    4.3659   -1.2222    2.4599 C   0  0  0  0  0  0  0  0  0  0  0  0
    5.7336   -1.7701    2.6106 C   0  0  0  0  0  0  0  0  0  0  0  0
    6.5463   -1.8899    1.4037 C   0  0  0  0  0  0  0  0  0  0  0  0
    6.2205   -1.5297    0.2467 O   0  0  0  0  0  0  0  0  0  0  0  0
    7.8539   -2.4809    1.5617 N   0  0  0  0  0  0  0  0  0  0  0  0
    8.7326   -2.6307    0.4566 C   0  0  0  0  0  0  0  0  0  0  0  0
    8.4533   -2.2412   -0.7416 N   0  0  0  0  0  0  0  0  0  0  0  0
    9.3913   -2.4193   -1.8347 C   0  0  0  0  0  0  0  0  0  0  0  0
    9.0522   -1.6616   -3.0728 C   0  0  0  0  0  0  0  0  0  0  0  0
    8.9621   -0.1740   -2.8702 C   0  0  0  0  0  0  0  0  0  0  0  0
   10.1936    0.3718   -2.3866 C   0  0  0  0  0  0  0  0  0  0  0  0
   10.7063    0.5872   -1.1326 C   0  0  0  0  0  0  0  0  0  0  0  0
   11.8790    1.1198   -1.0236 N   0  0  0  0  0  0  0  0  0  0  0  0
   12.6260    1.4737   -1.9854 C   0  0  0  0  0  0  0  0  0  0  0  0
   11.5681    1.0125   -3.4705 S   0  0  0  0  0  0  0  0  0  0  0  0
   13.8756    2.0454   -2.2209 N   0  0  0  0  0  0  0  0  0  0  0  0
    9.9972   -3.2646    0.7335 N   0  0  0  0  0  0  0  0  0  0  0  0
   -5.9628    0.0557   -4.2330 H   0  0  0  0  0  0  0  0  0  0  0  0
  -10.5090   -0.6650   -1.5160 H   0  0  0  0  0  0  0  0  0  0  0  0
   -9.3333    0.4411   -0.8216 H   0  0  0  0  0  0  0  0  0  0  0  0
   -9.2677   -2.6164   -0.6299 H   0  0  0  0  0  0  0  0  0  0  0  0
   -7.9927   -1.5574    0.0319 H   0  0  0  0  0  0  0  0  0  0  0  0
   -9.6979   -0.2086    1.2690 H   0  0  0  0  0  0  0  0  0  0  0  0
   -9.5275   -1.8750    1.8063 H   0  0  0  0  0  0  0  0  0  0  0  0
  -12.0146   -0.8084    2.7282 H   0  0  0  0  0  0  0  0  0  0  0  0
  -15.1699   -1.9760   -1.4545 H   0  0  0  0  0  0  0  0  0  0  0  0
  -15.9468   -2.3988    0.1687 H   0  0  0  0  0  0  0  0  0  0  0  0
   -7.4866   -1.2640   -5.4566 H   0  0  0  0  0  0  0  0  0  0  0  0
   -9.1697   -1.4426   -4.9617 H   0  0  0  0  0  0  0  0  0  0  0  0
   -3.9412    0.5384   -2.5753 H   0  0  0  0  0  0  0  0  0  0  0  0
   -4.7589    2.1627   -2.7484 H   0  0  0  0  0  0  0  0  0  0  0  0
   -5.1299    2.3596   -0.3966 H   0  0  0  0  0  0  0  0  0  0  0  0
   -4.4157    0.7586   -0.0550 H   0  0  0  0  0  0  0  0  0  0  0  0
   -3.1414    3.2415   -1.3073 H   0  0  0  0  0  0  0  0  0  0  0  0
   -2.2641    1.6712   -1.2903 H   0  0  0  0  0  0  0  0  0  0  0  0
   -3.3020    3.3829    1.0416 H   0  0  0  0  0  0  0  0  0  0  0  0
   -1.5922    3.2232    0.5516 H   0  0  0  0  0  0  0  0  0  0  0  0
   -3.3475    0.9387    1.6447 H   0  0  0  0  0  0  0  0  0  0  0  0
   -1.6956    0.7362    1.1041 H   0  0  0  0  0  0  0  0  0  0  0  0
   -2.8458    2.4240    3.3831 H   0  0  0  0  0  0  0  0  0  0  0  0
   -1.8694    0.9645    3.5508 H   0  0  0  0  0  0  0  0  0  0  0  0
   -0.7742    2.8576    4.3032 H   0  0  0  0  0  0  0  0  0  0  0  0
   -0.9944    3.8265    2.8600 H   0  0  0  0  0  0  0  0  0  0  0  0
    1.3283    3.0815    3.2412 H   0  0  0  0  0  0  0  0  0  0  0  0
    0.8257    1.3992    3.3695 H   0  0  0  0  0  0  0  0  0  0  0  0
    0.4276    1.4030    0.8302 H   0  0  0  0  0  0  0  0  0  0  0  0
    0.8864    3.1038    0.7964 H   0  0  0  0  0  0  0  0  0  0  0  0
    2.6863    1.7327    0.1935 H   0  0  0  0  0  0  0  0  0  0  0  0
    3.0209    2.6186    1.7858 H   0  0  0  0  0  0  0  0  0  0  0  0
    2.1450   -0.3303    1.5330 H   0  0  0  0  0  0  0  0  0  0  0  0
    2.5855    0.5943    3.0176 H   0  0  0  0  0  0  0  0  0  0  0  0
    4.6237    0.1814    0.8029 H   0  0  0  0  0  0  0  0  0  0  0  0
    4.7938    0.9082    2.4202 H   0  0  0  0  0  0  0  0  0  0  0  0
    3.7722   -1.9856    1.8705 H   0  0  0  0  0  0  0  0  0  0  0  0
    3.8949   -1.1886    3.4501 H   0  0  0  0  0  0  0  0  0  0  0  0
    6.2380   -1.2113    3.4316 H   0  0  0  0  0  0  0  0  0  0  0  0
    5.6167   -2.8147    3.0159 H   0  0  0  0  0  0  0  0  0  0  0  0
    8.1515   -2.8039    2.5162 H   0  0  0  0  0  0  0  0  0  0  0  0
   10.3871   -2.0247   -1.4734 H   0  0  0  0  0  0  0  0  0  0  0  0
    9.4974   -3.4893   -2.0750 H   0  0  0  0  0  0  0  0  0  0  0  0
    8.1928   -2.0712   -3.6372 H   0  0  0  0  0  0  0  0  0  0  0  0
    9.9253   -1.8172   -3.7773 H   0  0  0  0  0  0  0  0  0  0  0  0
    8.0767    0.1139   -2.2672 H   0  0  0  0  0  0  0  0  0  0  0  0
    8.7293    0.2423   -3.9028 H   0  0  0  0  0  0  0  0  0  0  0  0
   10.0952    0.2971   -0.2418 H   0  0  0  0  0  0  0  0  0  0  0  0
   14.4343    2.3620   -1.3968 H   0  0  0  0  0  0  0  0  0  0  0  0
   14.2846    2.1727   -3.1740 H   0  0  0  0  0  0  0  0  0  0  0  0
   10.2251   -4.1042    0.1564 H   0  0  0  0  0  0  0  0  0  0  0  0
   10.6473   -2.9134    1.4605 H   0  0  0  0  0  0  0  0  0  0  0  0
  1  2  2  0
  2  3  1  0
  3  4  1  0
  4  5  2  3
  5  6  1  0
  6  7  1  0
  7  8  1  0
  8  9  1  0
  9 10  2  0
 10 11  1  0
 11 12  2  0
 12 13  1  0
 12 14  1  0
  4 15  1  0
  2 16  1  0
 16 17  1  0
 17 18  1  0
 18 19  1  0
 19 20  1  0
 20 21  1  0
 21 22  1  0
 22 23  1  0
 23 24  1  0
 24 25  1  0
 25 26  1  0
 26 27  1  0
 27 28  1  0
 28 29  1  0
 29 30  1  0
 30 31  2  0
 30 32  1  0
 32 33  1  0
 33 34  2  3
 34 35  1  0
 35 36  1  0
 36 37  1  0
 37 38  1  0
 38 39  2  0
 39 40  1  0
 40 41  2  0
 41 42  1  0
 41 43  1  0
 33 44  1  0
 13  9  1  0
 42 38  1  0
  3 45  1  0
  6 46  1  0
  6 47  1  0
  7 48  1  0
  7 49  1  0
  8 50  1  0
  8 51  1  0
 10 52  1  0
 14 53  1  0
 14 54  1  0
 15 55  1  0
 15 56  1  0
 16 57  1  0
 16 58  1  0
 17 59  1  0
 17 60  1  0
 18 61  1  0
 18 62  1  0
 19 63  1  0
 19 64  1  0
 20 65  1  0
 20 66  1  0
 21 67  1  0
 21 68  1  0
 22 69  1  0
 22 70  1  0
 23 71  1  0
 23 72  1  0
 24 73  1  0
 24 74  1  0
 25 75  1  0
 25 76  1  0
 26 77  1  0
 26 78  1  0
 27 79  1  0
 27 80  1  0
 28 81  1  0
 28 82  1  0
 29 83  1  0
 29 84  1  0
 32 85  1  0
 35 86  1  0
 35 87  1  0
 36 88  1  0
 36 89  1  0
 37 90  1  0
 37 91  1  0
 39 92  1  0
 43 93  1  0
 43 94  1  0
 44 95  1  0
 44 96  1  0
M  END
>  <Ligand ID>  (1) 
LIG0005765

>  <Ligand>  (1) 
CHEMBL2165638

>  <SMILES>  (1) 
O=C(NC(=NCCCc1cnc(s1)N)N)CCCCCCCCCCCCCCC(=O)NC(=NCCCc1cnc(s1)N)N

>  <CID>  (1) 
56954229.0

>  <ChEMBL ID>  (1) 
nan

>  <InChiKey>  (1) 
ZALMMYYKSMXEKE-UHFFFAOYSA-N

>  <InChi>  (1) 
InChI=1S/C30H52N10O2S2/c31-27(35-19-13-15-23-21-37-29(33)43-23)39-25(41)17-11-9-7-5-3-1-2-4-6-8-10-12-18-26(42)40-28(32)36-20-14-16-24-22-38-30(34)44-24/h21-22H,1-20H2,(H2,33,37)(H2,34,38)(H3,31,35,39,41)(H3,32,36,40,42)

>  <IUPAC Name>  (1) 
N,N'-bis[N'-[3-(2-amino-1,3-thiazol-5-yl)propyl]carbamimidoyl]hexadecanediamide

$$$$
