
     RDKit          3D

 66 66  0  0  0  0  0  0  0  0999 V2000
    2.3683   -0.5397    0.3777 C   0  0  0  0  0  0  0  0  0  0  0  0
    1.0523   -0.9005   -0.2269 C   0  0  0  0  0  0  0  0  0  0  0  0
    0.0000    0.0073    0.2645 N   0  0  0  0  0  0  0  0  0  0  0  0
   -1.2519   -0.4395   -0.3472 C   0  0  0  0  0  0  0  0  0  0  0  0
   -1.7088   -1.7811    0.1261 C   0  0  0  0  0  0  0  0  0  0  0  0
    0.2074    1.3296   -0.3303 C   0  0  0  0  0  0  0  0  0  0  0  0
   -0.5951    2.3184    0.4506 C   0  0  0  0  0  0  0  0  0  0  0  0
   -7.9028    1.3491    1.2663 C   0  0  0  0  0  0  0  0  0  0  0  0
   -6.8531    0.9234    0.4699 O   0  0  0  0  0  0  0  0  0  0  0  0
   -5.6626    1.3983    0.9393 N   0  0  0  0  0  0  0  0  0  0  0  0
   -4.4419    0.8597    0.4559 C   0  0  0  0  0  0  0  0  0  0  0  0
   -3.2031    1.3111    0.9041 C   0  0  0  0  0  0  0  0  0  0  0  0
   -2.0587    0.7381    0.3868 C   0  0  0  0  0  0  0  0  0  0  0  0
   -2.0976   -0.2390   -0.5330 N   0  0  0  0  0  0  0  0  0  0  0  0
   -3.3201   -0.6522   -0.9450 C   0  0  0  0  0  0  0  0  0  0  0  0
   -3.3694   -1.5800   -1.8187 O   0  0  0  0  0  0  0  0  0  0  0  0
   -4.4616   -0.1198   -0.4658 N   0  0  0  0  0  0  0  0  0  0  0  0
   -0.9015   -0.8409   -1.0764 C   0  0  2  0  0  0  0  0  0  0  0  0
    0.0467   -1.1622   -0.1167 O   0  0  0  0  0  0  0  0  0  0  0  0
    1.2479   -1.1990   -0.8637 C   0  0  1  0  0  0  0  0  0  0  0  0
    1.1802    0.1915   -1.4619 C   0  0  2  0  0  0  0  0  0  0  0  0
   -0.2513    0.1698   -2.0051 C   0  0  1  0  0  0  0  0  0  0  0  0
   -0.2274   -0.3937   -3.2829 O   0  0  0  0  0  0  0  0  0  0  0  0
    2.1005    0.3731   -2.4861 O   0  0  0  0  0  0  0  0  0  0  0  0
    2.4395   -1.3925    0.0131 C   0  0  0  0  0  0  0  0  0  0  0  0
    3.6557   -1.4463   -0.5762 O   0  0  0  0  0  0  0  0  0  0  0  0
    4.9644   -1.6638    0.4334 P   0  0  0  0  0  0  0  0  0  0  0  0
    4.5713   -1.8235    1.8810 O   0  0  0  0  0  0  0  0  0  0  0  0
    5.9336   -0.2780    0.3346 O   0  0  0  0  0  0  0  0  0  0  0  0
    5.7874    0.7385    1.6470 P   0  0  0  0  0  0  0  0  0  0  0  0
    7.1656    1.3174    1.9624 O   0  0  0  0  0  0  0  0  0  0  0  0
    5.3251   -0.1386    3.0234 O   0  0  0  0  0  0  0  0  0  0  0  0
    4.7520    2.0306    1.3600 O   0  0  0  0  0  0  0  0  0  0  0  0
    5.9532   -2.9567   -0.0767 O   0  0  0  0  0  0  0  0  0  0  0  0
    2.7820    0.4445    0.0885 H   0  0  0  0  0  0  0  0  0  0  0  0
    3.1185   -1.3010    0.0955 H   0  0  0  0  0  0  0  0  0  0  0  0
    2.3018   -0.5524    1.4829 H   0  0  0  0  0  0  0  0  0  0  0  0
    1.0560   -0.9464   -1.3317 H   0  0  0  0  0  0  0  0  0  0  0  0
    0.7571   -1.8927    0.1553 H   0  0  0  0  0  0  0  0  0  0  0  0
   -1.1015   -0.4794   -1.4577 H   0  0  0  0  0  0  0  0  0  0  0  0
   -2.0105    0.3243   -0.1258 H   0  0  0  0  0  0  0  0  0  0  0  0
   -1.8276   -1.7719    1.2158 H   0  0  0  0  0  0  0  0  0  0  0  0
   -1.0880   -2.6162   -0.2611 H   0  0  0  0  0  0  0  0  0  0  0  0
   -2.7161   -1.9599   -0.3399 H   0  0  0  0  0  0  0  0  0  0  0  0
    1.2358    1.6376   -0.4220 H   0  0  0  0  0  0  0  0  0  0  0  0
   -0.1817    1.2988   -1.4010 H   0  0  0  0  0  0  0  0  0  0  0  0
    0.0097    3.2365    0.6859 H   0  0  0  0  0  0  0  0  0  0  0  0
   -0.9406    1.9192    1.4257 H   0  0  0  0  0  0  0  0  0  0  0  0
   -1.4672    2.6645   -0.1250 H   0  0  0  0  0  0  0  0  0  0  0  0
   -8.8592    1.2741    0.7019 H   0  0  0  0  0  0  0  0  0  0  0  0
   -7.7642    2.4294    1.4630 H   0  0  0  0  0  0  0  0  0  0  0  0
   -7.9476    0.7810    2.2060 H   0  0  0  0  0  0  0  0  0  0  0  0
   -5.6247    2.1663    1.6625 H   0  0  0  0  0  0  0  0  0  0  0  0
   -3.1888    2.1004    1.6469 H   0  0  0  0  0  0  0  0  0  0  0  0
   -1.1127    1.1108    0.7554 H   0  0  0  0  0  0  0  0  0  0  0  0
   -1.1479   -1.7781   -1.5976 H   0  0  0  0  0  0  0  0  0  0  0  0
    1.0985   -1.9228   -1.6574 H   0  0  0  0  0  0  0  0  0  0  0  0
    1.2242    0.9812   -0.6808 H   0  0  0  0  0  0  0  0  0  0  0  0
   -0.7125    1.1589   -1.9752 H   0  0  0  0  0  0  0  0  0  0  0  0
   -0.2910   -1.3802   -3.2195 H   0  0  0  0  0  0  0  0  0  0  0  0
    2.1987    1.3601   -2.6122 H   0  0  0  0  0  0  0  0  0  0  0  0
    2.2861   -2.2662    0.6789 H   0  0  0  0  0  0  0  0  0  0  0  0
    2.4553   -0.5120    0.7143 H   0  0  0  0  0  0  0  0  0  0  0  0
    6.1338   -0.5574    3.3947 H   0  0  0  0  0  0  0  0  0  0  0  0
    5.2402    2.8625    1.2365 H   0  0  0  0  0  0  0  0  0  0  0  0
    5.6399   -3.3222   -0.9501 H   0  0  0  0  0  0  0  0  0  0  0  0
  1  2  1  0
  2  3  1  0
  3  4  1  0
  4  5  1  0
  3  6  1  0
  6  7  1  0
  8  9  1  0
  9 10  1  0
 10 11  1  0
 11 12  1  0
 12 13  2  0
 13 14  1  0
 14 15  1  0
 15 16  2  0
 15 17  1  0
 14 18  1  0
 18 19  1  0
 19 20  1  0
 20 21  1  0
 21 22  1  0
 22 23  1  0
 21 24  1  0
 20 25  1  0
 25 26  1  0
 26 27  1  0
 27 28  2  0
 27 29  1  0
 29 30  1  0
 30 31  2  0
 30 32  1  0
 30 33  1  0
 27 34  1  0
 17 11  2  0
 22 18  1  0
  1 35  1  0
  1 36  1  0
  1 37  1  0
  2 38  1  0
  2 39  1  0
  4 40  1  0
  4 41  1  0
  5 42  1  0
  5 43  1  0
  5 44  1  0
  6 45  1  0
  6 46  1  0
  7 47  1  0
  7 48  1  0
  7 49  1  0
  8 50  1  0
  8 51  1  0
  8 52  1  0
 10 53  1  0
 12 54  1  0
 13 55  1  0
 18 56  1  6
 20 57  1  6
 21 58  1  1
 22 59  1  6
 23 60  1  0
 24 61  1  0
 25 62  1  0
 25 63  1  0
 32 64  1  0
 33 65  1  0
 34 66  1  0
M  END
>  <Ligand ID>  (1) 
LIG0001912

>  <Ligand>  (1) 
CHEMBL1084020

>  <SMILES>  (1) 
CCN(CC)CC.CONc1ccn(c(=O)n1)[C@@H]1O[C@@H]([C@H]([C@H]1O)O)COP(=O)(OP(=O)(O)O)O

>  <CID>  (1) 
46831382.0

>  <ChEMBL ID>  (1) 
nan

>  <InChiKey>  (1) 
QSIXIKNWMURNPT-BKZSBQMKSA-N

>  <InChi>  (1) 
InChI=1S/C10H17N3O12P2.C6H15N/c1-22-12-6-2-3-13(10(16)11-6)9-8(15)7(14)5(24-9)4-23-27(20,21)25-26(17,18)19;1-4-7(5-2)6-3/h2-3,5,7-9,14-15H,4H2,1H3,(H,20,21)(H,11,12,16)(H2,17,18,19);4-6H2,1-3H3/t5-,7-,8-,9-;/m1./s1

>  <IUPAC Name>  (1) 
N,N-diethylethanamine;[(2R,3S,4R,5R)-3,4-dihydroxy-5-[4-(methoxyamino)-2-oxopyrimidin-1-yl]oxolan-2-yl]methyl phosphono hydrogen phosphate

$$$$
