
     RDKit          3D

 94 97  0  0  0  0  0  0  0  0999 V2000
   -3.7537   -5.5886   -2.4682 N   0  0  0  0  0  0  0  0  0  0  0  0
   -4.3750   -4.8595   -1.7857 C   0  0  0  0  0  0  0  0  0  0  0  0
   -5.1444   -3.9764   -0.9249 C   0  0  0  0  0  0  0  0  0  0  0  0
   -5.1716   -2.6157   -1.5711 C   0  0  0  0  0  0  0  0  0  0  0  0
   -4.5905   -2.5215   -2.6915 O   0  0  0  0  0  0  0  0  0  0  0  0
   -5.8186   -1.5452   -0.9241 N   0  0  0  0  0  0  0  0  0  0  0  0
   -5.9331   -0.2057   -1.4031 C   0  0  2  0  0  0  0  0  0  0  0  0
   -4.8367    0.5618   -0.6712 C   0  0  0  0  0  0  0  0  0  0  0  0
   -4.7513    1.8103   -0.8188 O   0  0  0  0  0  0  0  0  0  0  0  0
   -3.9116   -0.0699    0.1623 N   0  0  0  0  0  0  0  0  0  0  0  0
   -2.8446    0.6563    0.8880 C   0  0  2  0  0  0  0  0  0  0  0  0
   -1.6210    0.3603    0.0989 C   0  0  0  0  0  0  0  0  0  0  0  0
   -1.7600   -0.4573   -0.8594 O   0  0  0  0  0  0  0  0  0  0  0  0
   -0.3572    0.9044    0.3211 N   0  0  0  0  0  0  0  0  0  0  0  0
    0.7657    0.5593   -0.5177 C   0  0  2  0  0  0  0  0  0  0  0  0
    1.9350    0.0273    0.2001 C   0  0  0  0  0  0  0  0  0  0  0  0
    1.9960   -0.1495    1.4427 O   0  0  0  0  0  0  0  0  0  0  0  0
    3.0786   -0.3036   -0.6119 N   0  0  0  0  0  0  0  0  0  0  0  0
    4.3011   -0.8234   -0.1077 C   0  0  2  0  0  0  0  0  0  0  0  0
    5.3901    0.1416   -0.5071 C   0  0  0  0  0  0  0  0  0  0  0  0
    6.6035   -0.0817   -0.1701 O   0  0  0  0  0  0  0  0  0  0  0  0
    5.1093    1.3147   -1.2607 N   0  0  0  0  0  0  0  0  0  0  0  0
    4.6012   -2.1254   -0.8590 C   0  0  0  0  0  0  0  0  0  0  0  0
    5.8753   -2.7168   -0.3903 C   0  0  0  0  0  0  0  0  0  0  0  0
    7.0536   -2.6567   -1.0882 C   0  0  0  0  0  0  0  0  0  0  0  0
    8.0482   -3.2740   -0.4230 N   0  0  0  0  0  0  0  0  0  0  0  0
    7.4879   -3.7287    0.7080 C   0  0  0  0  0  0  0  0  0  0  0  0
    6.1509   -3.4078    0.7687 C   0  0  0  0  0  0  0  0  0  0  0  0
    5.3353   -3.7594    1.8342 C   0  0  0  0  0  0  0  0  0  0  0  0
    5.9302   -4.4594    2.8559 C   0  0  0  0  0  0  0  0  0  0  0  0
    7.2727   -4.7879    2.8064 C   0  0  0  0  0  0  0  0  0  0  0  0
    8.0770   -4.4329    1.7395 C   0  0  0  0  0  0  0  0  0  0  0  0
    1.1200    1.7763   -1.3563 C   0  0  0  0  0  0  0  0  0  0  0  0
    1.4923    2.9603   -0.4976 C   0  0  0  0  0  0  0  0  0  0  0  0
    1.8152    4.1041   -1.4348 C   0  0  0  0  0  0  0  0  0  0  0  0
    2.1856    5.3010   -0.7045 N   0  0  0  0  0  0  0  0  0  0  0  0
    2.5375    6.3211   -1.4053 C   0  0  0  0  0  0  0  0  0  0  0  0
    2.5527    6.2488   -2.8237 N   0  0  0  0  0  0  0  0  0  0  0  0
    2.9045    7.5072   -0.6893 N   0  0  0  0  0  0  0  0  0  0  0  0
   -2.8158    0.0124    2.2367 C   0  0  0  0  0  0  0  0  0  0  0  0
   -1.8483    0.5096    3.1998 C   0  0  0  0  0  0  0  0  0  0  0  0
   -2.1245    1.5864    4.0399 C   0  0  0  0  0  0  0  0  0  0  0  0
   -1.2372    2.0419    4.9651 C   0  0  0  0  0  0  0  0  0  0  0  0
   -0.0053    1.4680    5.1338 C   0  0  0  0  0  0  0  0  0  0  0  0
    0.3055    0.3873    4.3098 C   0  0  0  0  0  0  0  0  0  0  0  0
   -0.6127   -0.0731    3.3615 C   0  0  0  0  0  0  0  0  0  0  0  0
   -7.2386    0.4653   -1.2332 C   0  0  0  0  0  0  0  0  0  0  0  0
   -8.3189   -0.2437   -1.9273 C   0  0  0  0  0  0  0  0  0  0  0  0
   -9.6470    0.2215   -1.8827 C   0  0  0  0  0  0  0  0  0  0  0  0
  -10.4061   -0.6292   -2.6024 N   0  0  0  0  0  0  0  0  0  0  0  0
   -9.6281   -1.5990   -3.0944 C   0  0  0  0  0  0  0  0  0  0  0  0
   -8.3770   -1.3382   -2.6698 N   0  0  0  0  0  0  0  0  0  0  0  0
   -6.2232   -4.2914   -0.9163 H   0  0  0  0  0  0  0  0  0  0  0  0
   -4.7219   -3.8573    0.0810 H   0  0  0  0  0  0  0  0  0  0  0  0
   -6.2624   -1.7611    0.0085 H   0  0  0  0  0  0  0  0  0  0  0  0
   -5.6302   -0.1884   -2.4925 H   0  0  0  0  0  0  0  0  0  0  0  0
   -3.9663   -1.1162    0.2914 H   0  0  0  0  0  0  0  0  0  0  0  0
   -3.0731    1.7410    0.8781 H   0  0  0  0  0  0  0  0  0  0  0  0
   -0.1987    1.5821    1.0938 H   0  0  0  0  0  0  0  0  0  0  0  0
    0.4195   -0.1831   -1.2865 H   0  0  0  0  0  0  0  0  0  0  0  0
    3.0207   -0.1552   -1.6659 H   0  0  0  0  0  0  0  0  0  0  0  0
    4.3231   -1.0030    0.9653 H   0  0  0  0  0  0  0  0  0  0  0  0
    4.7271    1.1747   -2.2101 H   0  0  0  0  0  0  0  0  0  0  0  0
    5.2627    2.2748   -0.9175 H   0  0  0  0  0  0  0  0  0  0  0  0
    3.7760   -2.8628   -0.6836 H   0  0  0  0  0  0  0  0  0  0  0  0
    4.6373   -1.9701   -1.9500 H   0  0  0  0  0  0  0  0  0  0  0  0
    7.1941   -2.1827   -2.0505 H   0  0  0  0  0  0  0  0  0  0  0  0
    9.0253   -3.3761   -0.7180 H   0  0  0  0  0  0  0  0  0  0  0  0
    4.2804   -3.4910    1.8543 H   0  0  0  0  0  0  0  0  0  0  0  0
    5.3787   -4.7741    3.7236 H   0  0  0  0  0  0  0  0  0  0  0  0
    7.7732   -5.3428    3.6022 H   0  0  0  0  0  0  0  0  0  0  0  0
    9.1163   -4.6876    1.7031 H   0  0  0  0  0  0  0  0  0  0  0  0
    0.2265    2.0440   -1.9435 H   0  0  0  0  0  0  0  0  0  0  0  0
    1.9650    1.5694   -2.0219 H   0  0  0  0  0  0  0  0  0  0  0  0
    0.6656    3.2798    0.1733 H   0  0  0  0  0  0  0  0  0  0  0  0
    2.3866    2.7733    0.1161 H   0  0  0  0  0  0  0  0  0  0  0  0
    0.9727    4.2808   -2.1396 H   0  0  0  0  0  0  0  0  0  0  0  0
    2.6916    3.8061   -2.0443 H   0  0  0  0  0  0  0  0  0  0  0  0
    2.9034    5.4192   -3.3230 H   0  0  0  0  0  0  0  0  0  0  0  0
    2.1800    7.1019   -3.3315 H   0  0  0  0  0  0  0  0  0  0  0  0
    2.1897    8.1897   -0.3277 H   0  0  0  0  0  0  0  0  0  0  0  0
    3.9189    7.7047   -0.5170 H   0  0  0  0  0  0  0  0  0  0  0  0
   -2.7062   -1.0973    2.0519 H   0  0  0  0  0  0  0  0  0  0  0  0
   -3.8503    0.0830    2.7025 H   0  0  0  0  0  0  0  0  0  0  0  0
   -3.1102    2.0387    3.8967 H   0  0  0  0  0  0  0  0  0  0  0  0
   -1.4871    2.8813    5.6040 H   0  0  0  0  0  0  0  0  0  0  0  0
    0.7294    1.7785    5.8396 H   0  0  0  0  0  0  0  0  0  0  0  0
    1.2451   -0.1380    4.3592 H   0  0  0  0  0  0  0  0  0  0  0  0
   -0.3839   -0.9132    2.7097 H   0  0  0  0  0  0  0  0  0  0  0  0
   -7.4598    0.6083   -0.1486 H   0  0  0  0  0  0  0  0  0  0  0  0
   -7.1685    1.4867   -1.6787 H   0  0  0  0  0  0  0  0  0  0  0  0
  -10.0024    1.1163   -1.3570 H   0  0  0  0  0  0  0  0  0  0  0  0
   -9.9882   -2.4234   -3.7142 H   0  0  0  0  0  0  0  0  0  0  0  0
   -7.5727   -1.9369   -2.9141 H   0  0  0  0  0  0  0  0  0  0  0  0
  1  2  3  0
  2  3  1  0
  3  4  1  0
  4  5  2  0
  4  6  1  0
  6  7  1  0
  7  8  1  0
  8  9  2  0
  8 10  1  0
 10 11  1  0
 11 12  1  0
 12 13  2  0
 12 14  1  0
 14 15  1  0
 15 16  1  0
 16 17  2  0
 16 18  1  0
 18 19  1  0
 19 20  1  0
 20 21  2  0
 20 22  1  0
 19 23  1  0
 23 24  1  0
 24 25  2  0
 25 26  1  0
 26 27  1  0
 27 28  2  0
 28 29  1  0
 29 30  2  0
 30 31  1  0
 31 32  2  0
 15 33  1  0
 33 34  1  0
 34 35  1  0
 35 36  1  0
 36 37  2  3
 37 38  1  0
 37 39  1  0
 11 40  1  0
 40 41  1  0
 41 42  2  0
 42 43  1  0
 43 44  2  0
 44 45  1  0
 45 46  2  0
  7 47  1  0
 47 48  1  0
 48 49  2  0
 49 50  1  0
 50 51  2  0
 51 52  1  0
 28 24  1  0
 46 41  1  0
 52 48  1  0
 32 27  1  0
  3 53  1  0
  3 54  1  0
  6 55  1  0
  7 56  1  6
 10 57  1  0
 11 58  1  1
 14 59  1  0
 15 60  1  6
 18 61  1  0
 19 62  1  1
 22 63  1  0
 22 64  1  0
 23 65  1  0
 23 66  1  0
 25 67  1  0
 26 68  1  0
 29 69  1  0
 30 70  1  0
 31 71  1  0
 32 72  1  0
 33 73  1  0
 33 74  1  0
 34 75  1  0
 34 76  1  0
 35 77  1  0
 35 78  1  0
 38 79  1  0
 38 80  1  0
 39 81  1  0
 39 82  1  0
 40 83  1  0
 40 84  1  0
 42 85  1  0
 43 86  1  0
 44 87  1  0
 45 88  1  0
 46 89  1  0
 47 90  1  0
 47 91  1  0
 49 92  1  0
 51 93  1  0
 52 94  1  0
M  END
>  <Ligand ID>  (1) 
LIG0002642

>  <Ligand>  (1) 
CHEMBL88630

>  <SMILES>  (1) 
N#CCC(=O)N[C@H](C(=O)N[C@H](C(=O)N[C@H](C(=O)N[C@H](C(=O)N)Cc1c[nH]c2c1cccc2)CCCN=C(N)N)Cc1ccccc1)Cc1cnc[nH]1

>  <CID>  (1) 
44322923.0

>  <ChEMBL ID>  (1) 
nan

>  <InChiKey>  (1) 
ZDRWLGHFJFKMFH-DZUOILHNSA-N

>  <InChi>  (1) 
InChI=1S/C35H42N12O5/c36-13-12-30(48)44-29(17-23-19-40-20-43-23)34(52)47-28(15-21-7-2-1-3-8-21)33(51)45-26(11-6-14-41-35(38)39)32(50)46-27(31(37)49)16-22-18-42-25-10-5-4-9-24(22)25/h1-5,7-10,18-20,26-29,42H,6,11-12,14-17H2,(H2,37,49)(H,40,43)(H,44,48)(H,45,51)(H,46,50)(H,47,52)(H4,38,39,41)/t26-,27-,28-,29-/m0/s1

>  <IUPAC Name>  (1) 
(2S)-N-[(2S)-1-amino-3-(1H-indol-3-yl)-1-oxopropan-2-yl]-2-[[(2S)-2-[[(2S)-2-[(2-cyanoacetyl)amino]-3-(1H-imidazol-5-yl)propanoyl]amino]-3-phenylpropanoyl]amino]-5-(diaminomethylideneamino)pentanamide

$$$$
