
     RDKit          3D

 14 13  0  0  0  0  0  0  0  0999 V2000
    3.2375   -0.2293    0.8950 C   0  0  0  0  0  0  0  0  0  0  0  0
    2.7967   -0.6133   -0.8343 S   0  0  0  0  0  0  0  0  0  0  0  0
    0.9136   -1.5322   -0.9967 S   0  0  0  0  0  0  0  0  0  0  0  0
   -0.4323   -0.3783   -0.6197 C   0  0  0  0  0  0  0  0  0  0  0  0
   -2.0574   -1.0827   -0.9107 S   0  0  0  0  0  0  0  0  0  0  0  0
   -3.2491    0.1373   -0.2579 C   0  0  0  0  0  0  0  0  0  0  0  0
    4.3111   -0.0611    1.0241 H   0  0  0  0  0  0  0  0  0  0  0  0
    2.8280   -1.0452    1.5408 H   0  0  0  0  0  0  0  0  0  0  0  0
    2.6160    0.6668    1.1502 H   0  0  0  0  0  0  0  0  0  0  0  0
   -0.3080    0.6013   -1.1203 H   0  0  0  0  0  0  0  0  0  0  0  0
   -0.3497   -0.1812    0.4796 H   0  0  0  0  0  0  0  0  0  0  0  0
   -3.1391    1.0399   -0.8956 H   0  0  0  0  0  0  0  0  0  0  0  0
   -2.8937    0.3910    0.7729 H   0  0  0  0  0  0  0  0  0  0  0  0
   -4.2737   -0.2548   -0.2274 H   0  0  0  0  0  0  0  0  0  0  0  0
  1  2  1  0
  2  3  1  0
  3  4  1  0
  4  5  1  0
  5  6  1  0
  1  7  1  0
  1  8  1  0
  1  9  1  0
  4 10  1  0
  4 11  1  0
  6 12  1  0
  6 13  1  0
  6 14  1  0
M  END
>  <Ligand ID>  (1) 
LIG0002092

>  <Ligand>  (1) 
2,3,5-Trithiahexane

>  <SMILES>  (1) 
CSSCSC

>  <CID>  (1) 
93236.0

>  <ChEMBL ID>  (1) 
nan

>  <InChiKey>  (1) 
MYIOBINSHMEDEY-UHFFFAOYSA-N

>  <InChi>  (1) 
InChI=1S/C3H8S3/c1-4-3-6-5-2/h3H2,1-2H3

>  <IUPAC Name>  (1) 
(methyldisulfanyl)-methylsulfanylmethane

$$$$
