
     RDKit          3D

 25 24  0  0  0  0  0  0  0  0999 V2000
    3.6240   -0.4412    0.3953 C   0  0  0  0  0  0  0  0  0  0  0  0
    2.5351   -0.0878   -0.6044 C   0  0  0  0  0  0  0  0  0  0  0  0
    1.1937   -0.0335    0.1325 C   0  0  0  0  0  0  0  0  0  0  0  0
    0.1854    0.3143   -0.8987 C   0  0  0  0  0  0  0  0  0  0  0  0
    0.5807    0.4782   -2.0447 O   0  0  0  0  0  0  0  0  0  0  0  0
   -1.2604    0.4625   -0.5683 C   0  0  0  0  0  0  0  0  0  0  0  0
   -1.7562   -0.8329   -0.0166 C   0  0  0  0  0  0  0  0  0  0  0  0
   -3.2180   -0.8177    0.3613 C   0  0  0  0  0  0  0  0  0  0  0  0
   -1.3513    1.6022    0.4168 C   0  0  0  0  0  0  0  0  0  0  0  0
    4.4017   -1.0273   -0.1279 H   0  0  0  0  0  0  0  0  0  0  0  0
    3.1438   -1.0299    1.2020 H   0  0  0  0  0  0  0  0  0  0  0  0
    4.0128    0.5287    0.7788 H   0  0  0  0  0  0  0  0  0  0  0  0
    2.4126   -0.9133   -1.3646 H   0  0  0  0  0  0  0  0  0  0  0  0
    2.7263    0.8792   -1.0847 H   0  0  0  0  0  0  0  0  0  0  0  0
    1.2707    0.7587    0.9069 H   0  0  0  0  0  0  0  0  0  0  0  0
    1.0284   -0.9821    0.6403 H   0  0  0  0  0  0  0  0  0  0  0  0
   -1.8262    0.7265   -1.4601 H   0  0  0  0  0  0  0  0  0  0  0  0
   -1.1629   -1.2288    0.8192 H   0  0  0  0  0  0  0  0  0  0  0  0
   -1.6728   -1.5784   -0.8511 H   0  0  0  0  0  0  0  0  0  0  0  0
   -3.3776   -1.4714    1.2566 H   0  0  0  0  0  0  0  0  0  0  0  0
   -3.8827   -1.2563   -0.4190 H   0  0  0  0  0  0  0  0  0  0  0  0
   -3.6142    0.1740    0.5969 H   0  0  0  0  0  0  0  0  0  0  0  0
   -0.9903    2.5126   -0.1063 H   0  0  0  0  0  0  0  0  0  0  0  0
   -0.6360    1.4612    1.2708 H   0  0  0  0  0  0  0  0  0  0  0  0
   -2.3667    1.8026    0.7689 H   0  0  0  0  0  0  0  0  0  0  0  0
  1  2  1  0
  2  3  1  0
  3  4  1  0
  4  5  2  0
  4  6  1  0
  6  7  1  0
  7  8  1  0
  6  9  1  0
  1 10  1  0
  1 11  1  0
  1 12  1  0
  2 13  1  0
  2 14  1  0
  3 15  1  0
  3 16  1  0
  6 17  1  0
  7 18  1  0
  7 19  1  0
  8 20  1  0
  8 21  1  0
  8 22  1  0
  9 23  1  0
  9 24  1  0
  9 25  1  0
M  END
>  <Ligand ID>  (1) 
LIG0002066

>  <Ligand>  (1) 
3-methylheptan-4-one

>  <SMILES>  (1) 
CCCC(=O)C(CC)C

>  <CID>  (1) 
27470.0

>  <ChEMBL ID>  (1) 
nan

>  <InChiKey>  (1) 
NHIMSNHOEAVUKE-UHFFFAOYSA-N

>  <InChi>  (1) 
InChI=1S/C8H16O/c1-4-6-8(9)7(3)5-2/h7H,4-6H2,1-3H3

>  <IUPAC Name>  (1) 
3-methylheptan-4-one

$$$$
