
     RDKit          3D

 33 32  0  0  0  0  0  0  0  0999 V2000
    3.6325    1.2896    0.3392 C   0  0  0  0  0  0  0  0  0  0  0  0
    2.7514    0.1797   -0.2359 C   0  0  1  0  0  0  0  0  0  0  0  0
    2.8034   -1.0411    0.6099 C   0  0  0  0  0  0  0  0  0  0  0  0
    1.7720   -1.2617    1.4681 O   0  0  0  0  0  0  0  0  0  0  0  0
    0.5986   -0.5992    1.2323 C   0  0  0  0  0  0  0  0  0  0  0  0
    0.4601   -0.1740   -0.2078 C   0  0  2  0  0  0  0  0  0  0  0  0
    1.5214    0.7260   -0.4370 O   0  0  0  0  0  0  0  0  0  0  0  0
   -0.7577    0.6126   -0.4750 C   0  0  0  0  0  0  0  0  0  0  0  0
   -2.0225   -0.0007   -0.3357 N   0  0  0  0  0  0  0  0  0  0  0  0
   -2.9230    0.7851   -1.2018 C   0  0  0  0  0  0  0  0  0  0  0  0
   -2.0937   -1.3547   -0.8387 C   0  0  0  0  0  0  0  0  0  0  0  0
   -2.6078    0.1006    0.9904 C   0  0  0  0  0  0  0  0  0  0  0  0
    0.0000    0.0000    0.0000 I   0  0  0  0  0  0  0  0  0  0  0  0
    4.7030    1.0763    0.2255 H   0  0  0  0  0  0  0  0  0  0  0  0
    3.4202    2.2318   -0.2047 H   0  0  0  0  0  0  0  0  0  0  0  0
    3.4212    1.4467    1.4026 H   0  0  0  0  0  0  0  0  0  0  0  0
    3.1959   -0.0662   -1.2277 H   0  0  0  0  0  0  0  0  0  0  0  0
    2.9741   -1.9656   -0.0057 H   0  0  0  0  0  0  0  0  0  0  0  0
    3.7458   -0.9706    1.2304 H   0  0  0  0  0  0  0  0  0  0  0  0
    0.5853    0.2911    1.9108 H   0  0  0  0  0  0  0  0  0  0  0  0
   -0.2353   -1.2529    1.5650 H   0  0  0  0  0  0  0  0  0  0  0  0
    0.6454   -1.0381   -0.8432 H   0  0  0  0  0  0  0  0  0  0  0  0
   -0.6310    1.0952   -1.4814 H   0  0  0  0  0  0  0  0  0  0  0  0
   -0.7361    1.4882    0.2372 H   0  0  0  0  0  0  0  0  0  0  0  0
   -2.3754    1.0901   -2.1084 H   0  0  0  0  0  0  0  0  0  0  0  0
   -3.8549    0.2470   -1.3829 H   0  0  0  0  0  0  0  0  0  0  0  0
   -3.1127    1.7303   -0.6210 H   0  0  0  0  0  0  0  0  0  0  0  0
   -3.0490   -1.5330   -1.3778 H   0  0  0  0  0  0  0  0  0  0  0  0
   -1.3006   -1.5803   -1.5748 H   0  0  0  0  0  0  0  0  0  0  0  0
   -2.1058   -2.0382    0.0260 H   0  0  0  0  0  0  0  0  0  0  0  0
   -2.1240    0.9494    1.5026 H   0  0  0  0  0  0  0  0  0  0  0  0
   -2.6014   -0.8499    1.5521 H   0  0  0  0  0  0  0  0  0  0  0  0
   -3.6993    0.3867    0.9568 H   0  0  0  0  0  0  0  0  0  0  0  0
  1  2  1  0
  2  3  1  0
  3  4  1  0
  4  5  1  0
  5  6  1  0
  6  7  1  0
  6  8  1  0
  8  9  1  0
  9 10  1  0
  9 11  1  0
  9 12  1  0
  7  2  1  0
  1 14  1  0
  1 15  1  0
  1 16  1  0
  2 17  1  6
  3 18  1  0
  3 19  1  0
  5 20  1  0
  5 21  1  0
  6 22  1  6
  8 23  1  0
  8 24  1  0
 10 25  1  0
 10 26  1  0
 10 27  1  0
 11 28  1  0
 11 29  1  0
 11 30  1  0
 12 31  1  0
 12 32  1  0
 12 33  1  0
M  CHG  2   9   1  13  -1
M  END
>  <Ligand ID>  (1) 
LIG0000809

>  <Ligand>  (1) 
CHEMBL390842

>  <SMILES>  (1) 
C[C@H]1COC[C@H](O1)C[N+](C)(C)C.[I-]

>  <CID>  (1) 
24865894.0

>  <ChEMBL ID>  (1) 
nan

>  <InChiKey>  (1) 
KUBKWLQZGDWVNE-OULXEKPRSA-M

>  <InChi>  (1) 
InChI=1S/C9H20NO2.HI/c1-8-6-11-7-9(12-8)5-10(2,3)4;/h8-9H,5-7H2,1-4H3;1H/q+1;/p-1/t8-,9+;/m0./s1

>  <IUPAC Name>  (1) 
trimethyl-[[(2R,6S)-6-methyl-1,4-dioxan-2-yl]methyl]azanium;iodide

$$$$
