
     RDKit          3D

 27 27  0  0  0  0  0  0  0  0999 V2000
    3.6563   -0.8088    0.8367 C   0  0  0  0  0  0  0  0  0  0  0  0
    3.2434    0.6373    0.8132 C   0  0  0  0  0  0  0  0  0  0  0  0
    2.4613    0.9531   -0.4420 C   0  0  0  0  0  0  0  0  0  0  0  0
    1.2348    0.1185   -0.5150 C   0  0  0  0  0  0  0  0  0  0  0  0
    1.0169   -0.6913    0.4149 O   0  0  0  0  0  0  0  0  0  0  0  0
    0.4043    0.2694   -1.5849 O   0  0  0  0  0  0  0  0  0  0  0  0
   -0.7828   -0.4218   -1.8208 C   0  0  0  0  0  0  0  0  0  0  0  0
   -1.8048   -0.2318   -0.7671 C   0  0  0  0  0  0  0  0  0  0  0  0
   -2.6715    0.8646   -0.8246 C   0  0  0  0  0  0  0  0  0  0  0  0
   -3.6465    1.0732    0.1297 C   0  0  0  0  0  0  0  0  0  0  0  0
   -3.8062    0.2002    1.1881 C   0  0  0  0  0  0  0  0  0  0  0  0
   -2.9607   -0.8907    1.2648 C   0  0  0  0  0  0  0  0  0  0  0  0
   -1.9886   -1.0828    0.2971 C   0  0  0  0  0  0  0  0  0  0  0  0
    4.7251   -0.9020    1.0659 H   0  0  0  0  0  0  0  0  0  0  0  0
    3.0816   -1.3915    1.6033 H   0  0  0  0  0  0  0  0  0  0  0  0
    3.4514   -1.3324   -0.1249 H   0  0  0  0  0  0  0  0  0  0  0  0
    2.5766    0.8312    1.6749 H   0  0  0  0  0  0  0  0  0  0  0  0
    4.1403    1.2860    0.8445 H   0  0  0  0  0  0  0  0  0  0  0  0
    2.2486    2.0349   -0.5280 H   0  0  0  0  0  0  0  0  0  0  0  0
    3.1385    0.7135   -1.3137 H   0  0  0  0  0  0  0  0  0  0  0  0
   -0.6279   -1.5134   -1.9697 H   0  0  0  0  0  0  0  0  0  0  0  0
   -1.2375    0.0080   -2.7522 H   0  0  0  0  0  0  0  0  0  0  0  0
   -2.5512    1.5661   -1.6652 H   0  0  0  0  0  0  0  0  0  0  0  0
   -4.3029    1.9407    0.0493 H   0  0  0  0  0  0  0  0  0  0  0  0
   -4.5477    0.3137    1.9590 H   0  0  0  0  0  0  0  0  0  0  0  0
   -3.0814   -1.5851    2.0989 H   0  0  0  0  0  0  0  0  0  0  0  0
   -1.3692   -1.9588    0.4141 H   0  0  0  0  0  0  0  0  0  0  0  0
  1  2  1  0
  2  3  1  0
  3  4  1  0
  4  5  2  0
  4  6  1  0
  6  7  1  0
  7  8  1  0
  8  9  2  0
  9 10  1  0
 10 11  2  0
 11 12  1  0
 12 13  2  0
 13  8  1  0
  1 14  1  0
  1 15  1  0
  1 16  1  0
  2 17  1  0
  2 18  1  0
  3 19  1  0
  3 20  1  0
  7 21  1  0
  7 22  1  0
  9 23  1  0
 10 24  1  0
 11 25  1  0
 12 26  1  0
 13 27  1  0
M  END
>  <Ligand ID>  (1) 
LIG0000617

>  <Ligand>  (1) 
benzyl butyrate

>  <SMILES>  (1) 
CCCC(=O)OCc1ccccc1

>  <CID>  (1) 
7650.0

>  <ChEMBL ID>  (1) 
nan

>  <InChiKey>  (1) 
VONGZNXBKCOUHB-UHFFFAOYSA-N

>  <InChi>  (1) 
InChI=1S/C11H14O2/c1-2-6-11(12)13-9-10-7-4-3-5-8-10/h3-5,7-8H,2,6,9H2,1H3

>  <IUPAC Name>  (1) 
benzyl butanoate

$$$$
