
     RDKit          3D

 25 26  0  0  0  0  0  0  0  0999 V2000
    2.7657    1.7958   -1.4284 O   0  0  0  0  0  0  0  0  0  0  0  0
    2.6436    0.5527   -1.3292 C   0  0  0  0  0  0  0  0  0  0  0  0
    1.4992   -0.0119   -0.6040 C   0  0  0  0  0  0  0  0  0  0  0  0
    1.3304   -1.3304   -0.4744 C   0  0  0  0  0  0  0  0  0  0  0  0
    0.3118   -1.8291    0.4851 C   0  0  0  0  0  0  0  0  0  0  0  0
   -0.4432   -0.6659    1.0477 C   0  0  0  0  0  0  0  0  0  0  0  0
    0.4624    0.4757    1.4986 C   0  0  0  0  0  0  0  0  0  0  0  0
    0.4892    0.8581    0.0110 C   0  0  0  0  0  0  0  0  0  0  0  0
   -0.9016    0.3028   -0.0235 C   0  0  0  0  0  0  0  0  0  0  0  0
   -1.8807    1.2772    0.5898 C   0  0  0  0  0  0  0  0  0  0  0  0
   -1.4057   -0.2826   -1.2926 C   0  0  0  0  0  0  0  0  0  0  0  0
    3.3667   -0.1400   -1.7681 H   0  0  0  0  0  0  0  0  0  0  0  0
    1.9203   -2.0221   -1.0533 H   0  0  0  0  0  0  0  0  0  0  0  0
    0.7810   -2.3788    1.3060 H   0  0  0  0  0  0  0  0  0  0  0  0
   -0.3965   -2.4410   -0.1083 H   0  0  0  0  0  0  0  0  0  0  0  0
   -1.1819   -0.8863    1.8250 H   0  0  0  0  0  0  0  0  0  0  0  0
   -0.1440    1.2218    2.0228 H   0  0  0  0  0  0  0  0  0  0  0  0
    1.4328    0.1912    1.9075 H   0  0  0  0  0  0  0  0  0  0  0  0
    0.6021    1.9321   -0.1297 H   0  0  0  0  0  0  0  0  0  0  0  0
   -2.8632    1.2836    0.0528 H   0  0  0  0  0  0  0  0  0  0  0  0
   -1.4735    2.3041    0.6082 H   0  0  0  0  0  0  0  0  0  0  0  0
   -2.1433    1.0353    1.6417 H   0  0  0  0  0  0  0  0  0  0  0  0
   -2.3472   -0.8390   -1.0317 H   0  0  0  0  0  0  0  0  0  0  0  0
   -0.7043   -0.9324   -1.8072 H   0  0  0  0  0  0  0  0  0  0  0  0
   -1.7202    0.5291   -1.9460 H   0  0  0  0  0  0  0  0  0  0  0  0
  1  2  2  0
  2  3  1  0
  3  4  2  0
  4  5  1  0
  5  6  1  0
  6  7  1  0
  7  8  1  0
  8  9  1  0
  9 10  1  0
  9 11  1  0
  8  3  1  0
  9  6  1  0
  2 12  1  0
  4 13  1  0
  5 14  1  0
  5 15  1  0
  6 16  1  0
  7 17  1  0
  7 18  1  0
  8 19  1  0
 10 20  1  0
 10 21  1  0
 10 22  1  0
 11 23  1  0
 11 24  1  0
 11 25  1  0
M  END
>  <Ligand ID>  (1) 
LIG0000771

>  <Ligand>  (1) 
Myrtenal

>  <SMILES>  (1) 
O=CC1=CCC2CC1C2(C)C

>  <CID>  (1) 
61130.0

>  <ChEMBL ID>  (1) 
nan

>  <InChiKey>  (1) 
KMRMUZKLFIEVAO-UHFFFAOYSA-N

>  <InChi>  (1) 
InChI=1S/C10H14O/c1-10(2)8-4-3-7(6-11)9(10)5-8/h3,6,8-9H,4-5H2,1-2H3

>  <IUPAC Name>  (1) 
6,6-dimethylbicyclo[3.1.1]hept-2-ene-2-carbaldehyde

$$$$
