
     RDKit          3D

 85 90  0  0  0  0  0  0  0  0999 V2000
    3.2848   -1.0486    2.5389 O   0  0  0  0  0  0  0  0  0  0  0  0
    3.7114   -1.2144    1.3665 C   0  0  0  0  0  0  0  0  0  0  0  0
    5.0834   -1.8259    1.2042 C   0  0  2  0  0  0  0  0  0  0  0  0
    5.5801   -2.0730    2.5288 N   0  0  0  0  0  0  0  0  0  0  0  0
    7.0166   -1.9795    2.6117 C   0  0  0  0  0  0  0  0  0  0  0  0
    7.3257   -0.5152    2.4272 C   0  0  0  0  0  0  0  0  0  0  0  0
    6.7626    0.0272    1.2658 C   0  0  0  0  0  0  0  0  0  0  0  0
    5.9889   -0.9269    0.4405 C   0  0  0  0  0  0  0  0  0  0  0  0
    6.9512    1.3496    0.9639 C   0  0  0  0  0  0  0  0  0  0  0  0
    7.7103    2.0931    1.8517 C   0  0  0  0  0  0  0  0  0  0  0  0
    8.2659    1.5595    2.9970 C   0  0  0  0  0  0  0  0  0  0  0  0
    8.0738    0.2095    3.3059 C   0  0  0  0  0  0  0  0  0  0  0  0
    2.9348   -0.8411    0.2342 N   0  0  0  0  0  0  0  0  0  0  0  0
    1.6196   -0.2536    0.4675 C   0  0  2  0  0  0  0  0  0  0  0  0
    0.5717   -1.1135   -0.1069 C   0  0  0  0  0  0  0  0  0  0  0  0
    0.9634   -2.1569   -0.7207 O   0  0  0  0  0  0  0  0  0  0  0  0
   -0.8132   -0.8989   -0.0444 N   0  0  0  0  0  0  0  0  0  0  0  0
   -1.7422   -1.8555   -0.6737 C   0  0  0  0  0  0  0  0  0  0  0  0
   -2.9296   -1.0735   -1.1410 C   0  0  0  0  0  0  0  0  0  0  0  0
   -3.8029   -0.6180    0.0079 C   0  0  0  0  0  0  0  0  0  0  0  0
   -2.8498   -0.1803    1.0977 C   0  0  0  0  0  0  0  0  0  0  0  0
   -1.4748    0.2114    0.6083 C   0  0  0  0  0  0  0  0  0  0  0  0
   -4.6139   -1.8121    0.4367 C   0  0  0  0  0  0  0  0  0  0  0  0
   -5.5716   -1.5825    1.5412 C   0  0  0  0  0  0  0  0  0  0  0  0
   -6.8421   -1.1411    1.2788 N   0  0  0  0  0  0  0  0  0  0  0  0
   -7.4622   -1.0600    2.4260 N   0  0  0  0  0  0  0  0  0  0  0  0
   -6.6305   -1.4307    3.3692 N   0  0  0  0  0  0  0  0  0  0  0  0
   -5.4486   -1.7629    2.8634 N   0  0  0  0  0  0  0  0  0  0  0  0
   -4.3591   -2.2258    3.6645 C   0  0  0  0  0  0  0  0  0  0  0  0
   -4.7068    0.5332   -0.4032 C   0  0  0  0  0  0  0  0  0  0  0  0
   -3.9509    1.7899   -0.7662 C   0  0  0  0  0  0  0  0  0  0  0  0
   -4.9905    2.8182   -1.1934 C   0  0  0  0  0  0  0  0  0  0  0  0
   -5.7434    2.3603   -2.4202 C   0  0  0  0  0  0  0  0  0  0  0  0
   -6.5551    1.1594   -1.9805 C   0  0  0  0  0  0  0  0  0  0  0  0
   -5.5250    0.0781   -1.6188 C   0  0  0  0  0  0  0  0  0  0  0  0
    1.5931    1.1744   -0.0452 C   0  0  0  0  0  0  0  0  0  0  0  0
    1.8629    1.2903   -1.4819 C   0  0  0  0  0  0  0  0  0  0  0  0
    3.1693    1.4507   -1.9606 C   0  0  0  0  0  0  0  0  0  0  0  0
    3.4381    1.5620   -3.3094 C   0  0  0  0  0  0  0  0  0  0  0  0
    2.4128    1.5172   -4.2276 C   0  0  0  0  0  0  0  0  0  0  0  0
    1.1087    1.3589   -3.7776 C   0  0  0  0  0  0  0  0  0  0  0  0
    0.8483    1.2476   -2.4161 C   0  0  0  0  0  0  0  0  0  0  0  0
    2.7979    1.6624   -5.9347 Cl  0  0  0  0  0  0  0  0  0  0  0  0
    4.9503   -2.8101    0.6956 H   0  0  0  0  0  0  0  0  0  0  0  0
    5.1241   -1.5117    3.2620 H   0  0  0  0  0  0  0  0  0  0  0  0
    7.3557   -2.3358    3.5999 H   0  0  0  0  0  0  0  0  0  0  0  0
    7.4685   -2.5815    1.7865 H   0  0  0  0  0  0  0  0  0  0  0  0
    5.3666   -0.3143   -0.2695 H   0  0  0  0  0  0  0  0  0  0  0  0
    6.6875   -1.4983   -0.2311 H   0  0  0  0  0  0  0  0  0  0  0  0
    6.5108    1.7451    0.0687 H   0  0  0  0  0  0  0  0  0  0  0  0
    7.8452    3.1393    1.5896 H   0  0  0  0  0  0  0  0  0  0  0  0
    8.8478    2.1848    3.6519 H   0  0  0  0  0  0  0  0  0  0  0  0
    8.4870   -0.2517    4.1871 H   0  0  0  0  0  0  0  0  0  0  0  0
    3.3041   -0.9872   -0.7327 H   0  0  0  0  0  0  0  0  0  0  0  0
    1.4804   -0.2255    1.5655 H   0  0  0  0  0  0  0  0  0  0  0  0
   -1.2727   -2.3463   -1.5497 H   0  0  0  0  0  0  0  0  0  0  0  0
   -1.9248   -2.6301    0.0645 H   0  0  0  0  0  0  0  0  0  0  0  0
   -3.4787   -1.7549   -1.8298 H   0  0  0  0  0  0  0  0  0  0  0  0
   -2.5508   -0.1794   -1.6663 H   0  0  0  0  0  0  0  0  0  0  0  0
   -2.7436   -1.0404    1.7860 H   0  0  0  0  0  0  0  0  0  0  0  0
   -3.2254    0.6745    1.6833 H   0  0  0  0  0  0  0  0  0  0  0  0
   -0.8924    0.5193    1.4907 H   0  0  0  0  0  0  0  0  0  0  0  0
   -1.5141    1.0465   -0.1041 H   0  0  0  0  0  0  0  0  0  0  0  0
   -5.1671   -2.2474   -0.4176 H   0  0  0  0  0  0  0  0  0  0  0  0
   -3.8271   -2.5722    0.7591 H   0  0  0  0  0  0  0  0  0  0  0  0
   -3.8812   -1.3765    4.2269 H   0  0  0  0  0  0  0  0  0  0  0  0
   -4.7525   -2.8983    4.4795 H   0  0  0  0  0  0  0  0  0  0  0  0
   -3.6154   -2.8220    3.1368 H   0  0  0  0  0  0  0  0  0  0  0  0
   -5.4389    0.8139    0.3716 H   0  0  0  0  0  0  0  0  0  0  0  0
   -3.5471    2.2137    0.1817 H   0  0  0  0  0  0  0  0  0  0  0  0
   -3.2532    1.7023   -1.5893 H   0  0  0  0  0  0  0  0  0  0  0  0
   -5.7380    2.8592   -0.3630 H   0  0  0  0  0  0  0  0  0  0  0  0
   -4.5619    3.8233   -1.3049 H   0  0  0  0  0  0  0  0  0  0  0  0
   -5.1041    2.1774   -3.2894 H   0  0  0  0  0  0  0  0  0  0  0  0
   -6.4630    3.1712   -2.6575 H   0  0  0  0  0  0  0  0  0  0  0  0
   -7.1709    0.7291   -2.7884 H   0  0  0  0  0  0  0  0  0  0  0  0
   -7.1200    1.4646   -1.0999 H   0  0  0  0  0  0  0  0  0  0  0  0
   -6.1045   -0.7990   -1.3686 H   0  0  0  0  0  0  0  0  0  0  0  0
   -4.8876   -0.0156   -2.5176 H   0  0  0  0  0  0  0  0  0  0  0  0
    0.7153    1.7460    0.2251 H   0  0  0  0  0  0  0  0  0  0  0  0
    2.4546    1.7035    0.4704 H   0  0  0  0  0  0  0  0  0  0  0  0
    3.9903    1.4875   -1.2371 H   0  0  0  0  0  0  0  0  0  0  0  0
    4.4532    1.6814   -3.6018 H   0  0  0  0  0  0  0  0  0  0  0  0
    0.3235    1.3275   -4.5257 H   0  0  0  0  0  0  0  0  0  0  0  0
   -0.1935    1.1252   -2.1247 H   0  0  0  0  0  0  0  0  0  0  0  0
  1  2  2  0
  2  3  1  0
  3  4  1  0
  4  5  1  0
  5  6  1  0
  6  7  2  0
  7  8  1  0
  7  9  1  0
  9 10  2  0
 10 11  1  0
 11 12  2  0
  2 13  1  0
 13 14  1  0
 14 15  1  0
 15 16  2  0
 15 17  1  0
 17 18  1  0
 18 19  1  0
 19 20  1  0
 20 21  1  0
 21 22  1  0
 20 23  1  0
 23 24  1  0
 24 25  2  0
 25 26  1  0
 26 27  2  0
 27 28  1  0
 28 29  1  0
 20 30  1  0
 30 31  1  0
 31 32  1  0
 32 33  1  0
 33 34  1  0
 34 35  1  0
 14 36  1  0
 36 37  1  0
 37 38  2  0
 38 39  1  0
 39 40  2  0
 40 41  1  0
 41 42  2  0
 40 43  1  0
  8  3  1  0
 22 17  1  0
 28 24  1  0
 35 30  1  0
 42 37  1  0
 12  6  1  0
  3 44  1  6
  4 45  1  0
  5 46  1  0
  5 47  1  0
  8 48  1  0
  8 49  1  0
  9 50  1  0
 10 51  1  0
 11 52  1  0
 12 53  1  0
 13 54  1  0
 14 55  1  1
 18 56  1  0
 18 57  1  0
 19 58  1  0
 19 59  1  0
 21 60  1  0
 21 61  1  0
 22 62  1  0
 22 63  1  0
 23 64  1  0
 23 65  1  0
 29 66  1  0
 29 67  1  0
 29 68  1  0
 30 69  1  0
 31 70  1  0
 31 71  1  0
 32 72  1  0
 32 73  1  0
 33 74  1  0
 33 75  1  0
 34 76  1  0
 34 77  1  0
 35 78  1  0
 35 79  1  0
 36 80  1  0
 36 81  1  0
 38 82  1  0
 39 83  1  0
 41 84  1  0
 42 85  1  0
M  END
>  <Ligand ID>  (1) 
LIG0004565

>  <Ligand>  (1) 
CHEMBL250508

>  <SMILES>  (1) 
O=C([C@@H]1NCc2c(C1)cccc2)N[C@H](C(=O)N1CCC(CC1)(Cc1nnnn1C)C1CCCCC1)Cc1ccc(cc1)Cl

>  <CID>  (1) 
44441641.0

>  <ChEMBL ID>  (1) 
nan

>  <InChiKey>  (1) 
IJYUZXAPJHBRJR-WDYNHAJCSA-N

>  <InChi>  (1) 
InChI=1S/C33H42ClN7O2/c1-40-30(37-38-39-40)21-33(26-9-3-2-4-10-26)15-17-41(18-16-33)32(43)29(19-23-11-13-27(34)14-12-23)36-31(42)28-20-24-7-5-6-8-25(24)22-35-28/h5-8,11-14,26,28-29,35H,2-4,9-10,15-22H2,1H3,(H,36,42)/t28-,29+/m1/s1

>  <IUPAC Name>  (1) 
(3R)-N-[(2S)-3-(4-chlorophenyl)-1-[4-cyclohexyl-4-[(1-methyltetrazol-5-yl)methyl]piperidin-1-yl]-1-oxopropan-2-yl]-1,2,3,4-tetrahydroisoquinoline-3-carboxamide

$$$$
