
     RDKit          3D

 71 72  0  0  0  0  0  0  0  0999 V2000
   -3.2014    1.9451   -3.7779 O   0  0  0  0  0  0  0  0  0  0  0  0
   -4.5194    1.7463   -3.4356 C   0  0  0  0  0  0  0  0  0  0  0  0
   -4.6072    1.0914   -2.0861 C   0  0  0  0  0  0  0  0  0  0  0  0
   -4.9047   -0.2472   -1.9396 C   0  0  0  0  0  0  0  0  0  0  0  0
   -4.9805   -0.8326   -0.6868 C   0  0  0  0  0  0  0  0  0  0  0  0
   -4.7397    0.0087    0.3993 C   0  0  0  0  0  0  0  0  0  0  0  0
   -4.4434    1.3421    0.2528 C   0  0  0  0  0  0  0  0  0  0  0  0
   -4.3699    1.9181   -1.0039 C   0  0  0  0  0  0  0  0  0  0  0  0
   -4.0693    3.2659   -1.1273 O   0  0  0  0  0  0  0  0  0  0  0  0
   -5.2993   -2.2671   -0.4811 C   0  0  2  0  0  0  0  0  0  0  0  0
   -4.1338   -3.1452   -0.8979 C   0  0  0  0  0  0  0  0  0  0  0  0
   -2.9923   -2.7995   -0.1098 N   0  0  0  0  0  0  0  0  0  0  0  0
   -3.0975   -3.1367    1.2886 C   0  0  0  0  0  0  0  0  0  0  0  0
   -1.7697   -2.6953    1.9253 C   0  0  0  0  0  0  0  0  0  0  0  0
   -0.6893   -3.4737    1.2218 C   0  0  0  0  0  0  0  0  0  0  0  0
    0.6831   -3.1410    1.7557 C   0  0  0  0  0  0  0  0  0  0  0  0
    0.9158   -1.6621    1.5348 C   0  0  0  0  0  0  0  0  0  0  0  0
    2.2778   -1.2363    2.0376 C   0  0  0  0  0  0  0  0  0  0  0  0
    2.5515    0.1013    1.8629 O   0  0  0  0  0  0  0  0  0  0  0  0
    1.7202    0.9843    2.4688 C   0  0  0  0  0  0  0  0  0  0  0  0
    2.1155    2.3866    2.2044 C   0  0  0  0  0  0  0  0  0  0  0  0
    3.3044    2.8458    2.5628 O   0  0  0  0  0  0  0  0  0  0  0  0
    4.4827    2.4395    2.0928 C   0  0  0  0  0  0  0  0  0  0  0  0
    4.7600    2.6610    0.6554 C   0  0  0  0  0  0  0  0  0  0  0  0
    5.2718    3.9010    0.2937 C   0  0  0  0  0  0  0  0  0  0  0  0
    5.5846    4.2248   -1.0048 C   0  0  0  0  0  0  0  0  0  0  0  0
    5.3735    3.2635   -1.9711 C   0  0  0  0  0  0  0  0  0  0  0  0
    4.8684    2.0137   -1.6782 C   0  0  0  0  0  0  0  0  0  0  0  0
    4.5736    1.7532   -0.3440 C   0  0  0  0  0  0  0  0  0  0  0  0
    4.6752    1.0701   -2.7114 N   0  0  0  0  0  0  0  0  0  0  0  0
    5.7262    0.1798   -3.0529 C   0  0  0  0  0  0  0  0  0  0  0  0
    6.8008    0.2834   -2.3978 O   0  0  0  0  0  0  0  0  0  0  0  0
    5.5471   -0.7783   -4.0943 N   0  0  0  0  0  0  0  0  0  0  0  0
   -6.3793   -2.6546   -1.2863 O   0  0  0  0  0  0  0  0  0  0  0  0
   -3.0778    2.8840   -4.1061 H   0  0  0  0  0  0  0  0  0  0  0  0
   -5.0281    1.1016   -4.1703 H   0  0  0  0  0  0  0  0  0  0  0  0
   -5.0823    2.6917   -3.3578 H   0  0  0  0  0  0  0  0  0  0  0  0
   -5.0835   -0.8587   -2.8070 H   0  0  0  0  0  0  0  0  0  0  0  0
   -4.7774   -0.3645    1.4274 H   0  0  0  0  0  0  0  0  0  0  0  0
   -4.2607    1.9740    1.1245 H   0  0  0  0  0  0  0  0  0  0  0  0
   -4.5881    3.9066   -0.5072 H   0  0  0  0  0  0  0  0  0  0  0  0
   -5.5843   -2.4157    0.5583 H   0  0  0  0  0  0  0  0  0  0  0  0
   -3.8613   -2.9881   -1.9562 H   0  0  0  0  0  0  0  0  0  0  0  0
   -4.3547   -4.2140   -0.7523 H   0  0  0  0  0  0  0  0  0  0  0  0
   -2.6706   -1.8237   -0.2292 H   0  0  0  0  0  0  0  0  0  0  0  0
   -3.8860   -2.5576    1.8113 H   0  0  0  0  0  0  0  0  0  0  0  0
   -3.2500   -4.2269    1.4133 H   0  0  0  0  0  0  0  0  0  0  0  0
   -1.7168   -1.6030    1.6839 H   0  0  0  0  0  0  0  0  0  0  0  0
   -1.7217   -2.9220    2.9971 H   0  0  0  0  0  0  0  0  0  0  0  0
   -0.6887   -3.1030    0.1537 H   0  0  0  0  0  0  0  0  0  0  0  0
   -0.8862   -4.5437    1.1719 H   0  0  0  0  0  0  0  0  0  0  0  0
    1.4044   -3.7638    1.1770 H   0  0  0  0  0  0  0  0  0  0  0  0
    0.6930   -3.4066    2.8323 H   0  0  0  0  0  0  0  0  0  0  0  0
    0.7520   -1.4771    0.4716 H   0  0  0  0  0  0  0  0  0  0  0  0
    0.1822   -1.1340    2.2113 H   0  0  0  0  0  0  0  0  0  0  0  0
    3.0141   -1.7888    1.4044 H   0  0  0  0  0  0  0  0  0  0  0  0
    2.4047   -1.6068    3.0637 H   0  0  0  0  0  0  0  0  0  0  0  0
    0.6609    0.8872    2.0791 H   0  0  0  0  0  0  0  0  0  0  0  0
    1.5677    0.7712    3.5693 H   0  0  0  0  0  0  0  0  0  0  0  0
    1.3234    3.0359    2.6962 H   0  0  0  0  0  0  0  0  0  0  0  0
    1.9435    2.5716    1.1171 H   0  0  0  0  0  0  0  0  0  0  0  0
    5.2862    3.0111    2.6550 H   0  0  0  0  0  0  0  0  0  0  0  0
    4.7572    1.3785    2.2971 H   0  0  0  0  0  0  0  0  0  0  0  0
    5.4384    4.6597    1.0528 H   0  0  0  0  0  0  0  0  0  0  0  0
    5.9865    5.1965   -1.2929 H   0  0  0  0  0  0  0  0  0  0  0  0
    5.6037    3.4629   -3.0167 H   0  0  0  0  0  0  0  0  0  0  0  0
    4.1877    0.7711   -0.1357 H   0  0  0  0  0  0  0  0  0  0  0  0
    3.7779    0.9799   -3.2612 H   0  0  0  0  0  0  0  0  0  0  0  0
    5.9531   -0.5269   -5.0445 H   0  0  0  0  0  0  0  0  0  0  0  0
    5.0459   -1.6843   -3.9499 H   0  0  0  0  0  0  0  0  0  0  0  0
   -6.5000   -3.6304   -1.1358 H   0  0  0  0  0  0  0  0  0  0  0  0
  1  2  1  0
  2  3  1  0
  3  4  2  0
  4  5  1  0
  5  6  2  0
  6  7  1  0
  7  8  2  0
  8  9  1  0
  5 10  1  0
 10 11  1  0
 11 12  1  0
 12 13  1  0
 13 14  1  0
 14 15  1  0
 15 16  1  0
 16 17  1  0
 17 18  1  0
 18 19  1  0
 19 20  1  0
 20 21  1  0
 21 22  1  0
 22 23  1  0
 23 24  1  0
 24 25  2  0
 25 26  1  0
 26 27  2  0
 27 28  1  0
 28 29  2  0
 28 30  1  0
 30 31  1  0
 31 32  2  0
 31 33  1  0
 10 34  1  0
  8  3  1  0
 29 24  1  0
  1 35  1  0
  2 36  1  0
  2 37  1  0
  4 38  1  0
  6 39  1  0
  7 40  1  0
  9 41  1  0
 10 42  1  1
 11 43  1  0
 11 44  1  0
 12 45  1  0
 13 46  1  0
 13 47  1  0
 14 48  1  0
 14 49  1  0
 15 50  1  0
 15 51  1  0
 16 52  1  0
 16 53  1  0
 17 54  1  0
 17 55  1  0
 18 56  1  0
 18 57  1  0
 20 58  1  0
 20 59  1  0
 21 60  1  0
 21 61  1  0
 23 62  1  0
 23 63  1  0
 25 64  1  0
 26 65  1  0
 27 66  1  0
 29 67  1  0
 30 68  1  0
 33 69  1  0
 33 70  1  0
 34 71  1  0
M  END
>  <Ligand ID>  (1) 
LIG0002515

>  <Ligand>  (1) 
CHEMBL1085638

>  <SMILES>  (1) 
OCc1cc(ccc1O)[C@H](CNCCCCCCOCCOCc1cccc(c1)NC(=O)N)O

>  <CID>  (1) 
46832507.0

>  <ChEMBL ID>  (1) 
nan

>  <InChiKey>  (1) 
UOGPFMKAGBNCRO-DEOSSOPVSA-N

>  <InChi>  (1) 
InChI=1S/C25H37N3O6/c26-25(32)28-22-7-5-6-19(14-22)18-34-13-12-33-11-4-2-1-3-10-27-16-24(31)20-8-9-23(30)21(15-20)17-29/h5-9,14-15,24,27,29-31H,1-4,10-13,16-18H2,(H3,26,28,32)/t24-/m0/s1

>  <IUPAC Name>  (1) 
[3-[2-[6-[[(2R)-2-hydroxy-2-[4-hydroxy-3-(hydroxymethyl)phenyl]ethyl]amino]hexoxy]ethoxymethyl]phenyl]urea

$$$$
