
     RDKit          3D

 75 79  0  0  0  0  0  0  0  0999 V2000
   -1.7713   -1.5445   -0.3263 O   0  0  0  0  0  0  0  0  0  0  0  0
   -1.2407   -0.4589   -0.6774 C   0  0  0  0  0  0  0  0  0  0  0  0
    0.1724   -0.2888   -0.7988 N   0  0  0  0  0  0  0  0  0  0  0  0
    1.0714   -1.3934   -0.5164 C   0  0  0  0  0  0  0  0  0  0  0  0
    0.8013   -2.5683   -1.4366 C   0  0  0  0  0  0  0  0  0  0  0  0
    1.0482   -1.8352    0.9211 C   0  0  0  0  0  0  0  0  0  0  0  0
    2.1079   -1.0404    1.5845 C   0  0  0  0  0  0  0  0  0  0  0  0
    2.8350   -0.3489    0.5483 N   0  0  0  0  0  0  0  0  0  0  0  0
    2.4696   -0.9340   -0.6919 C   0  0  0  0  0  0  0  0  0  0  0  0
    3.2346   -1.0069   -1.6853 O   0  0  0  0  0  0  0  0  0  0  0  0
    3.7617    0.7508    0.8093 C   0  0  0  0  0  0  0  0  0  0  0  0
    5.1326    0.1429    1.0058 C   0  0  0  0  0  0  0  0  0  0  0  0
    6.1684    1.2035    1.2961 C   0  0  0  0  0  0  0  0  0  0  0  0
    7.4787    0.5055    1.4645 C   0  0  0  0  0  0  0  0  0  0  0  0
    7.9250    0.0372    2.6803 C   0  0  0  0  0  0  0  0  0  0  0  0
    9.1464   -0.6024    2.7908 C   0  0  0  0  0  0  0  0  0  0  0  0
    9.8888   -0.7453    1.6275 C   0  0  0  0  0  0  0  0  0  0  0  0
    9.4445   -0.2772    0.4072 C   0  0  0  0  0  0  0  0  0  0  0  0
    8.2269    0.3613    0.2919 C   0  0  0  0  0  0  0  0  0  0  0  0
   -2.0683    0.7598   -1.0009 C   0  0  0  0  0  0  0  0  0  0  0  0
   -3.5330    0.5369   -0.8342 C   0  0  0  0  0  0  0  0  0  0  0  0
   -4.2607    1.8073   -1.2071 C   0  0  0  0  0  0  0  0  0  0  0  0
   -5.4712    1.7392   -1.8584 C   0  0  0  0  0  0  0  0  0  0  0  0
   -6.1748    2.8892   -2.2173 C   0  0  0  0  0  0  0  0  0  0  0  0
   -5.6378    4.1206   -1.9084 C   0  0  0  0  0  0  0  0  0  0  0  0
   -4.4298    4.2076   -1.2580 C   0  0  0  0  0  0  0  0  0  0  0  0
   -3.7586    3.0522   -0.9165 C   0  0  0  0  0  0  0  0  0  0  0  0
   -3.8282    0.3850    0.6229 C   0  0  0  0  0  0  0  0  0  0  0  0
   -2.8918    0.4355    1.6083 C   0  0  0  0  0  0  0  0  0  0  0  0
   -3.2419    0.2967    2.9433 C   0  0  0  0  0  0  0  0  0  0  0  0
   -4.5471    0.1014    3.3486 C   0  0  0  0  0  0  0  0  0  0  0  0
   -5.4998    0.0503    2.3460 C   0  0  0  0  0  0  0  0  0  0  0  0
   -5.1523    0.1877    1.0216 C   0  0  0  0  0  0  0  0  0  0  0  0
   -4.0366   -0.6092   -1.5975 C   0  0  0  0  0  0  0  0  0  0  0  0
   -4.4970   -1.7873   -1.0596 C   0  0  0  0  0  0  0  0  0  0  0  0
   -4.9612   -2.8379   -1.8371 C   0  0  0  0  0  0  0  0  0  0  0  0
   -4.9761   -2.7295   -3.2337 C   0  0  0  0  0  0  0  0  0  0  0  0
   -4.5114   -1.5427   -3.7594 C   0  0  0  0  0  0  0  0  0  0  0  0
   -4.0493   -0.4957   -2.9920 C   0  0  0  0  0  0  0  0  0  0  0  0
    0.5709    0.6521   -1.0976 H   0  0  0  0  0  0  0  0  0  0  0  0
    0.7690   -3.4780   -0.8053 H   0  0  0  0  0  0  0  0  0  0  0  0
    1.6449   -2.6759   -2.1311 H   0  0  0  0  0  0  0  0  0  0  0  0
   -0.1721   -2.4687   -1.9530 H   0  0  0  0  0  0  0  0  0  0  0  0
    0.0406   -1.7124    1.3748 H   0  0  0  0  0  0  0  0  0  0  0  0
    1.3676   -2.9015    0.9301 H   0  0  0  0  0  0  0  0  0  0  0  0
    1.6268   -0.3019    2.2854 H   0  0  0  0  0  0  0  0  0  0  0  0
    2.7849   -1.6969    2.1952 H   0  0  0  0  0  0  0  0  0  0  0  0
    3.7693    1.5116    0.0256 H   0  0  0  0  0  0  0  0  0  0  0  0
    3.4737    1.2430    1.7467 H   0  0  0  0  0  0  0  0  0  0  0  0
    5.1514   -0.5589    1.8507 H   0  0  0  0  0  0  0  0  0  0  0  0
    5.3953   -0.4109    0.0901 H   0  0  0  0  0  0  0  0  0  0  0  0
    5.9140    1.7010    2.2550 H   0  0  0  0  0  0  0  0  0  0  0  0
    6.1950    1.9102    0.4430 H   0  0  0  0  0  0  0  0  0  0  0  0
    7.3170    0.1688    3.5623 H   0  0  0  0  0  0  0  0  0  0  0  0
    9.4890   -0.9649    3.7374 H   0  0  0  0  0  0  0  0  0  0  0  0
   10.8618   -1.2533    1.7080 H   0  0  0  0  0  0  0  0  0  0  0  0
   10.0205   -0.3885   -0.4926 H   0  0  0  0  0  0  0  0  0  0  0  0
    7.8746    0.7283   -0.6534 H   0  0  0  0  0  0  0  0  0  0  0  0
   -1.6337    1.5560   -0.3691 H   0  0  0  0  0  0  0  0  0  0  0  0
   -1.8235    1.0843   -2.0530 H   0  0  0  0  0  0  0  0  0  0  0  0
   -5.9443    0.8051   -2.1262 H   0  0  0  0  0  0  0  0  0  0  0  0
   -7.1340    2.8362   -2.7332 H   0  0  0  0  0  0  0  0  0  0  0  0
   -6.1700    5.0044   -2.1794 H   0  0  0  0  0  0  0  0  0  0  0  0
   -3.9992    5.1717   -1.0093 H   0  0  0  0  0  0  0  0  0  0  0  0
   -2.8171    3.1745   -0.4064 H   0  0  0  0  0  0  0  0  0  0  0  0
   -1.8499    0.5890    1.4041 H   0  0  0  0  0  0  0  0  0  0  0  0
   -2.4868    0.3389    3.7079 H   0  0  0  0  0  0  0  0  0  0  0  0
   -4.8102   -0.0051    4.3885 H   0  0  0  0  0  0  0  0  0  0  0  0
   -6.5261   -0.1029    2.6715 H   0  0  0  0  0  0  0  0  0  0  0  0
   -5.9186    0.1445    0.2503 H   0  0  0  0  0  0  0  0  0  0  0  0
   -4.5002   -1.9196    0.0114 H   0  0  0  0  0  0  0  0  0  0  0  0
   -5.3110   -3.7413   -1.3354 H   0  0  0  0  0  0  0  0  0  0  0  0
   -5.3383   -3.5515   -3.8249 H   0  0  0  0  0  0  0  0  0  0  0  0
   -4.5050   -1.4139   -4.8533 H   0  0  0  0  0  0  0  0  0  0  0  0
   -3.7013    0.4021   -3.4837 H   0  0  0  0  0  0  0  0  0  0  0  0
  1  2  2  0
  2  3  1  0
  3  4  1  0
  4  5  1  0
  4  6  1  0
  6  7  1  0
  7  8  1  0
  8  9  1  0
  9 10  2  0
  8 11  1  0
 11 12  1  0
 12 13  1  0
 13 14  1  0
 14 15  2  0
 15 16  1  0
 16 17  2  0
 17 18  1  0
 18 19  2  0
  2 20  1  0
 20 21  1  0
 21 22  1  0
 22 23  2  0
 23 24  1  0
 24 25  2  0
 25 26  1  0
 26 27  2  0
 21 28  1  0
 28 29  2  0
 29 30  1  0
 30 31  2  0
 31 32  1  0
 32 33  2  0
 21 34  1  0
 34 35  2  0
 35 36  1  0
 36 37  2  0
 37 38  1  0
 38 39  2  0
  9  4  1  0
 19 14  1  0
 27 22  1  0
 33 28  1  0
 39 34  1  0
  3 40  1  0
  5 41  1  0
  5 42  1  0
  5 43  1  0
  6 44  1  0
  6 45  1  0
  7 46  1  0
  7 47  1  0
 11 48  1  0
 11 49  1  0
 12 50  1  0
 12 51  1  0
 13 52  1  0
 13 53  1  0
 15 54  1  0
 16 55  1  0
 17 56  1  0
 18 57  1  0
 19 58  1  0
 20 59  1  0
 20 60  1  0
 23 61  1  0
 24 62  1  0
 25 63  1  0
 26 64  1  0
 27 65  1  0
 29 66  1  0
 30 67  1  0
 31 68  1  0
 32 69  1  0
 33 70  1  0
 35 71  1  0
 36 72  1  0
 37 73  1  0
 38 74  1  0
 39 75  1  0
M  END
>  <Ligand ID>  (1) 
LIG0003573

>  <Ligand>  (1) 
MLS002425557

>  <SMILES>  (1) 
O=C(NC1(C)CCN(C1=O)CCCc1ccccc1)CC(c1ccccc1)(c1ccccc1)c1ccccc1

>  <CID>  (1) 
44142946.0

>  <ChEMBL ID>  (1) 
nan

>  <InChiKey>  (1) 
QZZMUQUYBAEYOW-UHFFFAOYSA-N

>  <InChi>  (1) 
InChI=1S/C35H36N2O2/c1-34(24-26-37(33(34)39)25-14-17-28-15-6-2-7-16-28)36-32(38)27-35(29-18-8-3-9-19-29,30-20-10-4-11-21-30)31-22-12-5-13-23-31/h2-13,15-16,18-23H,14,17,24-27H2,1H3,(H,36,38)

>  <IUPAC Name>  (1) 
N-[3-methyl-2-oxo-1-(3-phenylpropyl)pyrrolidin-3-yl]-3,3,3-triphenylpropanamide

$$$$
