
     RDKit          3D

 30 32  0  0  0  0  0  0  0  0999 V2000
    5.6614   -2.4167   -1.1096 N   0  0  0  0  0  0  0  0  0  0  0  0
    4.7521   -1.7469   -0.8943 C   0  0  0  0  0  0  0  0  0  0  0  0
    3.6035   -0.9094   -0.6091 C   0  0  0  0  0  0  0  0  0  0  0  0
    3.7389    0.4472   -0.3715 C   0  0  0  0  0  0  0  0  0  0  0  0
    2.6344    1.2211   -0.1031 C   0  0  0  0  0  0  0  0  0  0  0  0
    1.3976    0.6104   -0.0778 C   0  0  0  0  0  0  0  0  0  0  0  0
    1.2146   -0.7372   -0.3084 C   0  0  0  0  0  0  0  0  0  0  0  0
    2.3492   -1.4788   -0.5742 C   0  0  0  0  0  0  0  0  0  0  0  0
   -0.0753   -1.4257   -0.2917 C   0  0  0  0  0  0  0  0  0  0  0  0
   -1.2440   -0.6125    0.0918 C   0  0  1  0  0  0  0  0  0  0  0  0
   -1.0306    0.7915    0.2293 N   0  0  0  0  0  0  0  0  0  0  0  0
    0.2414    1.4207    0.2034 C   0  0  0  0  0  0  0  0  0  0  0  0
    0.3590    2.6555    0.4202 O   0  0  0  0  0  0  0  0  0  0  0  0
   -2.1872    1.6497    0.4094 C   0  0  0  0  0  0  0  0  0  0  0  0
   -3.3248    1.2576   -0.4742 C   0  0  0  0  0  0  0  0  0  0  0  0
   -3.5286   -0.1576   -0.5753 N   0  0  0  0  0  0  0  0  0  0  0  0
   -2.3063   -0.8038   -0.9990 C   0  0  0  0  0  0  0  0  0  0  0  0
    4.7291    0.8902   -0.4003 H   0  0  0  0  0  0  0  0  0  0  0  0
    2.7718    2.2779    0.0784 H   0  0  0  0  0  0  0  0  0  0  0  0
    2.2837   -2.5597   -0.7682 H   0  0  0  0  0  0  0  0  0  0  0  0
    0.0196   -2.2980    0.4178 H   0  0  0  0  0  0  0  0  0  0  0  0
   -0.1788   -1.9159   -1.2998 H   0  0  0  0  0  0  0  0  0  0  0  0
   -1.6817   -0.9649    1.0635 H   0  0  0  0  0  0  0  0  0  0  0  0
   -2.5239    1.5337    1.4749 H   0  0  0  0  0  0  0  0  0  0  0  0
   -1.9699    2.7230    0.2551 H   0  0  0  0  0  0  0  0  0  0  0  0
   -3.1750    1.6767   -1.4799 H   0  0  0  0  0  0  0  0  0  0  0  0
   -4.2699    1.6787   -0.0610 H   0  0  0  0  0  0  0  0  0  0  0  0
   -3.8812   -0.5977    0.2904 H   0  0  0  0  0  0  0  0  0  0  0  0
   -2.4538   -1.8802   -1.1232 H   0  0  0  0  0  0  0  0  0  0  0  0
   -1.9256   -0.3290   -1.9173 H   0  0  0  0  0  0  0  0  0  0  0  0
  1  2  3  0
  2  3  1  0
  3  4  2  0
  4  5  1  0
  5  6  2  0
  6  7  1  0
  7  8  2  0
  7  9  1  0
  9 10  1  0
 10 11  1  0
 11 12  1  0
 12 13  2  0
 11 14  1  0
 14 15  1  0
 15 16  1  0
 16 17  1  0
  8  3  1  0
 17 10  1  0
 12  6  1  0
  4 18  1  0
  5 19  1  0
  8 20  1  0
  9 21  1  0
  9 22  1  0
 10 23  1  1
 14 24  1  0
 14 25  1  0
 15 26  1  0
 15 27  1  0
 16 28  1  0
 17 29  1  0
 17 30  1  0
M  END
>  <Ligand ID>  (1) 
LIG0003216

>  <Ligand>  (1) 
CHEMBL2397903

>  <SMILES>  (1) 
N#Cc1ccc2c(c1)C[C@H]1N(C2=O)CCNC1

>  <CID>  (1) 
68691189.0

>  <ChEMBL ID>  (1) 
nan

>  <InChiKey>  (1) 
DUASGPJPDRYCSI-LLVKDONJSA-N

>  <InChi>  (1) 
InChI=1S/C13H13N3O/c14-7-9-1-2-12-10(5-9)6-11-8-15-3-4-16(11)13(12)17/h1-2,5,11,15H,3-4,6,8H2/t11-/m1/s1

>  <IUPAC Name>  (1) 
(11aR)-6-oxo-1,2,3,4,11,11a-hexahydropyrazino[1,2-b]isoquinoline-9-carbonitrile

$$$$
