
     RDKit          3D

 58 61  0  0  0  0  0  0  0  0999 V2000
    1.7500    2.6685    0.1687 O   0  0  0  0  0  0  0  0  0  0  0  0
    1.0280    1.6692   -0.0876 C   0  0  0  0  0  0  0  0  0  0  0  0
   -0.3375    1.9248   -0.5285 C   0  0  0  0  0  0  0  0  0  0  0  0
   -0.7375    3.2405   -0.6323 C   0  0  0  0  0  0  0  0  0  0  0  0
   -2.0309    3.5782   -1.0480 C   0  0  0  0  0  0  0  0  0  0  0  0
   -2.9285    2.5657   -1.3619 C   0  0  0  0  0  0  0  0  0  0  0  0
   -2.5188    1.2346   -1.2552 C   0  0  0  0  0  0  0  0  0  0  0  0
   -1.2338    0.9247   -0.8418 C   0  0  0  0  0  0  0  0  0  0  0  0
   -3.6916    0.0110   -1.6634 S   0  0  0  0  0  0  0  0  0  0  0  0
   -3.0849   -1.3383   -1.6835 O   0  0  0  0  0  0  0  0  0  0  0  0
   -4.1847    0.3536   -3.0613 O   0  0  0  0  0  0  0  0  0  0  0  0
   -5.0735    0.1371   -0.6395 N   0  0  0  0  0  0  0  0  0  0  0  0
   -4.6410   -0.0789    0.7236 C   0  0  0  0  0  0  0  0  0  0  0  0
   -5.8001   -0.3873    1.6369 C   0  0  0  0  0  0  0  0  0  0  0  0
   -6.5177   -1.4956    1.2473 O   0  0  0  0  0  0  0  0  0  0  0  0
   -6.0618   -2.0224    0.0311 C   0  0  0  0  0  0  0  0  0  0  0  0
   -6.0600   -0.8729   -0.9694 C   0  0  0  0  0  0  0  0  0  0  0  0
   -4.6997    3.0054   -1.9316 Br  0  0  0  0  0  0  0  0  0  0  0  0
    1.5652    0.3573    0.0611 N   0  0  0  0  0  0  0  0  0  0  0  0
    2.9326    0.2042    0.5047 C   0  0  1  0  0  0  0  0  0  0  0  0
    3.0554   -0.5176    1.8198 C   0  0  2  0  0  0  0  0  0  0  0  0
    1.8388   -0.6175    2.6373 C   0  0  0  0  0  0  0  0  0  0  0  0
    4.2630    0.0395    2.5637 C   0  0  0  0  0  0  0  0  0  0  0  0
    5.3384   -0.2117    1.4948 C   0  0  0  0  0  0  0  0  0  0  0  0
    4.7687   -1.1985    0.5300 C   0  0  2  0  0  0  0  0  0  0  0  0
    3.8409   -0.4821   -0.4619 C   0  0  0  0  0  0  0  0  0  0  0  0
    3.2154   -1.5703   -1.2802 C   0  0  0  0  0  0  0  0  0  0  0  0
    4.6557    0.4286   -1.3258 C   0  0  0  0  0  0  0  0  0  0  0  0
    3.6637   -1.8460    1.3816 C   0  0  0  0  0  0  0  0  0  0  0  0
   -0.0908    4.0822   -0.4039 H   0  0  0  0  0  0  0  0  0  0  0  0
   -2.3657    4.5928   -1.1367 H   0  0  0  0  0  0  0  0  0  0  0  0
   -0.9333   -0.1097   -0.7647 H   0  0  0  0  0  0  0  0  0  0  0  0
   -3.9451   -0.9585    0.7219 H   0  0  0  0  0  0  0  0  0  0  0  0
   -4.0617    0.7506    1.1490 H   0  0  0  0  0  0  0  0  0  0  0  0
   -6.4059    0.5233    1.7638 H   0  0  0  0  0  0  0  0  0  0  0  0
   -5.3456   -0.6263    2.6310 H   0  0  0  0  0  0  0  0  0  0  0  0
   -6.8393   -2.7316   -0.3541 H   0  0  0  0  0  0  0  0  0  0  0  0
   -5.0909   -2.5313    0.1093 H   0  0  0  0  0  0  0  0  0  0  0  0
   -5.8131   -1.2389   -1.9926 H   0  0  0  0  0  0  0  0  0  0  0  0
   -7.0972   -0.4575   -0.9399 H   0  0  0  0  0  0  0  0  0  0  0  0
    0.9724   -0.4761   -0.1496 H   0  0  0  0  0  0  0  0  0  0  0  0
    3.3549    1.2315    0.6636 H   0  0  0  0  0  0  0  0  0  0  0  0
    0.9407   -0.6628    2.0230 H   0  0  0  0  0  0  0  0  0  0  0  0
    1.7341    0.2341    3.3245 H   0  0  0  0  0  0  0  0  0  0  0  0
    1.8920   -1.5603    3.2487 H   0  0  0  0  0  0  0  0  0  0  0  0
    4.1347    1.1008    2.7898 H   0  0  0  0  0  0  0  0  0  0  0  0
    4.5040   -0.5516    3.4664 H   0  0  0  0  0  0  0  0  0  0  0  0
    6.3121   -0.4600    1.9197 H   0  0  0  0  0  0  0  0  0  0  0  0
    5.4482    0.7828    0.9850 H   0  0  0  0  0  0  0  0  0  0  0  0
    5.4407   -1.9036    0.0772 H   0  0  0  0  0  0  0  0  0  0  0  0
    3.1761   -1.2943   -2.3586 H   0  0  0  0  0  0  0  0  0  0  0  0
    2.2043   -1.8628   -0.9998 H   0  0  0  0  0  0  0  0  0  0  0  0
    3.8138   -2.5244   -1.2555 H   0  0  0  0  0  0  0  0  0  0  0  0
    5.6840   -0.0256   -1.4177 H   0  0  0  0  0  0  0  0  0  0  0  0
    4.2436    0.3474   -2.3739 H   0  0  0  0  0  0  0  0  0  0  0  0
    4.7048    1.4603   -0.9773 H   0  0  0  0  0  0  0  0  0  0  0  0
    4.1289   -2.3706    2.2394 H   0  0  0  0  0  0  0  0  0  0  0  0
    2.9858   -2.4636    0.7864 H   0  0  0  0  0  0  0  0  0  0  0  0
  1  2  2  0
  2  3  1  0
  3  4  2  0
  4  5  1  0
  5  6  2  0
  6  7  1  0
  7  8  2  0
  7  9  1  0
  9 10  2  0
  9 11  2  0
  9 12  1  0
 12 13  1  0
 13 14  1  0
 14 15  1  0
 15 16  1  0
 16 17  1  0
  6 18  1  0
  2 19  1  0
 19 20  1  0
 20 21  1  0
 21 22  1  1
 21 23  1  0
 23 24  1  0
 24 25  1  0
 25 26  1  0
 26 27  1  0
 26 28  1  0
 25 29  1  0
  8  3  1  0
 17 12  1  0
 26 20  1  0
 29 21  1  0
  4 30  1  0
  5 31  1  0
  8 32  1  0
 13 33  1  0
 13 34  1  0
 14 35  1  0
 14 36  1  0
 16 37  1  0
 16 38  1  0
 17 39  1  0
 17 40  1  0
 19 41  1  0
 20 42  1  1
 22 43  1  0
 22 44  1  0
 22 45  1  0
 23 46  1  0
 23 47  1  0
 24 48  1  0
 24 49  1  0
 25 50  1  6
 27 51  1  0
 27 52  1  0
 27 53  1  0
 28 54  1  0
 28 55  1  0
 28 56  1  0
 29 57  1  0
 29 58  1  0
M  END
>  <Ligand ID>  (1) 
LIG0005148

>  <Ligand>  (1) 
CHEMBL256962

>  <SMILES>  (1) 
O=C(c1ccc(c(c1)S(=O)(=O)N1CCOCC1)Br)N[C@H]1[C@]2(C)CC[C@H](C1(C)C)C2

>  <CID>  (1) 
44449159.0

>  <ChEMBL ID>  (1) 
nan

>  <InChiKey>  (1) 
HEVLHKWIATUOPS-NYSBEXSLSA-N

>  <InChi>  (1) 
InChI=1S/C21H29BrN2O4S/c1-20(2)15-6-7-21(3,13-15)19(20)23-18(25)14-4-5-16(22)17(12-14)29(26,27)24-8-10-28-11-9-24/h4-5,12,15,19H,6-11,13H2,1-3H3,(H,23,25)/t15-,19+,21+/m0/s1

>  <IUPAC Name>  (1) 
4-bromo-3-morpholin-4-ylsulfonyl-N-[(1R,2S,4S)-1,3,3-trimethyl-2-bicyclo[2.2.1]heptanyl]benzamide

$$$$
