
     RDKit          3D

 67 68  0  0  0  0  0  0  0  0999 V2000
   -8.2211    1.6554   -0.4724 O   0  0  0  0  0  0  0  0  0  0  0  0
   -7.6503    1.3668    0.7572 C   0  0  0  0  0  0  0  0  0  0  0  0
   -7.4368    2.3516    1.5372 O   0  0  0  0  0  0  0  0  0  0  0  0
   -7.2882   -0.0272    1.1790 C   0  0  0  0  0  0  0  0  0  0  0  0
   -5.8855    0.0385    1.6918 C   0  0  0  0  0  0  0  0  0  0  0  0
   -4.9095    0.4804    0.6194 C   0  0  0  0  0  0  0  0  0  0  0  0
   -4.8765   -0.5123   -0.5352 C   0  0  0  0  0  0  0  0  0  0  0  0
   -4.4544   -1.8611   -0.0556 C   0  0  0  0  0  0  0  0  0  0  0  0
   -3.1133   -1.8403    0.5752 C   0  0  0  0  0  0  0  0  0  0  0  0
   -2.0751   -1.4110   -0.3327 N   0  0  0  0  0  0  0  0  0  0  0  0
   -1.5034   -0.1260   -0.6203 C   0  0  1  0  0  0  0  0  0  0  0  0
   -0.5866    0.2547    0.4711 C   0  0  0  0  0  0  0  0  0  0  0  0
    0.6906   -0.0885    0.5492 C   0  0  0  0  0  0  0  0  0  0  0  0
    1.4584    0.4089    1.7513 C   0  0  2  0  0  0  0  0  0  0  0  0
    2.0217    1.7390    1.4020 C   0  0  2  0  0  0  0  0  0  0  0  0
    2.9092    1.9428    0.2798 C   0  0  0  0  0  0  0  0  0  0  0  0
    4.2224    1.3715    0.0433 C   0  0  0  0  0  0  0  0  0  0  0  0
    4.4162   -0.1013   -0.1054 C   0  0  0  0  0  0  0  0  0  0  0  0
    5.8909   -0.3567   -0.4367 C   0  0  0  0  0  0  0  0  0  0  0  0
    6.2644   -0.4219   -1.7749 C   0  0  0  0  0  0  0  0  0  0  0  0
    7.5973   -0.6595   -2.0619 C   0  0  0  0  0  0  0  0  0  0  0  0
    8.5287   -0.8269   -1.0595 C   0  0  0  0  0  0  0  0  0  0  0  0
    8.1373   -0.7579    0.2382 C   0  0  0  0  0  0  0  0  0  0  0  0
    6.8079   -0.5205    0.5828 C   0  0  0  0  0  0  0  0  0  0  0  0
    2.5157    2.4211    2.6942 C   0  0  0  0  0  0  0  0  0  0  0  0
    2.2820   -0.5754    2.1936 O   0  0  0  0  0  0  0  0  0  0  0  0
   -0.7936   -0.3008   -1.9422 C   0  0  0  0  0  0  0  0  0  0  0  0
   -0.8769   -1.7244   -2.3581 C   0  0  0  0  0  0  0  0  0  0  0  0
   -1.3880   -2.4000   -1.1568 C   0  0  0  0  0  0  0  0  0  0  0  0
   -1.2653   -3.6274   -0.8678 O   0  0  0  0  0  0  0  0  0  0  0  0
   -1.8200   -1.9376   -3.3588 F   0  0  0  0  0  0  0  0  0  0  0  0
    0.3032   -2.2518   -2.8444 F   0  0  0  0  0  0  0  0  0  0  0  0
   -8.0565    2.5847   -0.8916 H   0  0  0  0  0  0  0  0  0  0  0  0
   -7.9397   -0.3208    2.0272 H   0  0  0  0  0  0  0  0  0  0  0  0
   -7.4528   -0.6712    0.3204 H   0  0  0  0  0  0  0  0  0  0  0  0
   -5.8346    0.8048    2.4863 H   0  0  0  0  0  0  0  0  0  0  0  0
   -5.5374   -0.9314    2.1276 H   0  0  0  0  0  0  0  0  0  0  0  0
   -3.9273    0.5942    1.0507 H   0  0  0  0  0  0  0  0  0  0  0  0
   -5.2544    1.4794    0.2727 H   0  0  0  0  0  0  0  0  0  0  0  0
   -4.2937   -0.1062   -1.3588 H   0  0  0  0  0  0  0  0  0  0  0  0
   -5.9133   -0.6413   -0.9513 H   0  0  0  0  0  0  0  0  0  0  0  0
   -5.1808   -2.2947    0.6743 H   0  0  0  0  0  0  0  0  0  0  0  0
   -4.3936   -2.5354   -0.9527 H   0  0  0  0  0  0  0  0  0  0  0  0
   -2.8664   -2.8647    0.9882 H   0  0  0  0  0  0  0  0  0  0  0  0
   -3.1184   -1.1765    1.4886 H   0  0  0  0  0  0  0  0  0  0  0  0
   -2.2645    0.7028   -0.6872 H   0  0  0  0  0  0  0  0  0  0  0  0
   -0.9924    0.8743    1.2961 H   0  0  0  0  0  0  0  0  0  0  0  0
    1.1220   -0.6907   -0.2150 H   0  0  0  0  0  0  0  0  0  0  0  0
    0.6908    0.5361    2.6047 H   0  0  0  0  0  0  0  0  0  0  0  0
    1.0846    2.3827    1.1768 H   0  0  0  0  0  0  0  0  0  0  0  0
    2.2884    1.6898   -0.6672 H   0  0  0  0  0  0  0  0  0  0  0  0
    3.0240    3.0886    0.0798 H   0  0  0  0  0  0  0  0  0  0  0  0
    4.5886    1.8023   -0.9548 H   0  0  0  0  0  0  0  0  0  0  0  0
    5.0262    1.7846    0.7373 H   0  0  0  0  0  0  0  0  0  0  0  0
    4.2987   -0.6969    0.8131 H   0  0  0  0  0  0  0  0  0  0  0  0
    3.8266   -0.4637   -0.9613 H   0  0  0  0  0  0  0  0  0  0  0  0
    5.5460   -0.2961   -2.5865 H   0  0  0  0  0  0  0  0  0  0  0  0
    7.9678   -0.7241   -3.0966 H   0  0  0  0  0  0  0  0  0  0  0  0
    9.5867   -1.0166   -1.2612 H   0  0  0  0  0  0  0  0  0  0  0  0
    8.8378   -0.8861    1.0672 H   0  0  0  0  0  0  0  0  0  0  0  0
    6.5020   -0.4633    1.6445 H   0  0  0  0  0  0  0  0  0  0  0  0
    2.6711    3.4694    2.4379 H   0  0  0  0  0  0  0  0  0  0  0  0
    3.3417    1.8884    3.1566 H   0  0  0  0  0  0  0  0  0  0  0  0
    1.6495    2.3954    3.3844 H   0  0  0  0  0  0  0  0  0  0  0  0
    2.2038   -1.4044    1.6980 H   0  0  0  0  0  0  0  0  0  0  0  0
    0.2299    0.1161   -1.9286 H   0  0  0  0  0  0  0  0  0  0  0  0
   -1.3619    0.2883   -2.6976 H   0  0  0  0  0  0  0  0  0  0  0  0
  1  2  1  0
  2  3  2  0
  2  4  1  0
  4  5  1  0
  5  6  1  0
  6  7  1  0
  7  8  1  0
  8  9  1  0
  9 10  1  0
 10 11  1  0
 11 12  1  0
 12 13  2  0
 13 14  1  0
 14 15  1  0
 15 16  1  0
 16 17  1  0
 17 18  1  0
 18 19  1  0
 19 20  2  0
 20 21  1  0
 21 22  2  0
 22 23  1  0
 23 24  2  0
 15 25  1  0
 14 26  1  0
 11 27  1  0
 27 28  1  0
 28 29  1  0
 29 30  2  0
 28 31  1  0
 28 32  1  0
 29 10  1  0
 24 19  1  0
  1 33  1  0
  4 34  1  0
  4 35  1  0
  5 36  1  0
  5 37  1  0
  6 38  1  0
  6 39  1  0
  7 40  1  0
  7 41  1  0
  8 42  1  0
  8 43  1  0
  9 44  1  0
  9 45  1  0
 11 46  1  6
 12 47  1  0
 13 48  1  0
 14 49  1  1
 15 50  1  6
 16 51  1  0
 16 52  1  0
 17 53  1  0
 17 54  1  0
 18 55  1  0
 18 56  1  0
 20 57  1  0
 21 58  1  0
 22 59  1  0
 23 60  1  0
 24 61  1  0
 25 62  1  0
 25 63  1  0
 25 64  1  0
 26 65  1  0
 27 66  1  0
 27 67  1  0
M  END
>  <Ligand ID>  (1) 
LIG0005220

>  <Ligand>  (1) 
CHEMBL3897335

>  <SMILES>  (1) 
OC(=O)CCCCCCN1[C@@H](/C=C/[C@H]([C@H](CCCc2ccccc2)C)O)CC(C1=O)(F)F

>  <CID>  (1) 
72949915.0

>  <ChEMBL ID>  (1) 
nan

>  <InChiKey>  (1) 
UJPIOOJJAAMYNA-ZFBSANRWSA-N

>  <InChi>  (1) 
InChI=1S/C25H35F2NO4/c1-19(10-9-13-20-11-5-4-6-12-20)22(29)16-15-21-18-25(26,27)24(32)28(21)17-8-3-2-7-14-23(30)31/h4-6,11-12,15-16,19,21-22,29H,2-3,7-10,13-14,17-18H2,1H3,(H,30,31)/b16-15+/t19-,21-,22+/m0/s1

>  <IUPAC Name>  (1) 
7-[(5R)-3,3-difluoro-5-[(E,3S,4S)-3-hydroxy-4-methyl-7-phenylhept-1-enyl]-2-oxopyrrolidin-1-yl]heptanoic acid

$$$$
