
     RDKit          3D

 11 10  0  0  0  0  0  0  0  0999 V2000
   -1.1373   -0.4292   -0.5813 N   0  0  0  0  0  0  0  0  0  0  0  0
   -0.4937   -0.0303    0.6099 C   0  0  0  0  0  0  0  0  0  0  0  0
    0.7702    0.7388    0.2138 C   0  0  0  0  0  0  0  0  0  0  0  0
    1.8816   -0.3060   -0.7644 S   0  0  0  0  0  0  0  0  0  0  0  0
   -2.0639   -0.8570   -0.5027 H   0  0  0  0  0  0  0  0  0  0  0  0
   -0.9416    0.1079   -1.4304 H   0  0  0  0  0  0  0  0  0  0  0  0
   -0.1265   -0.9511    1.1237 H   0  0  0  0  0  0  0  0  0  0  0  0
   -1.1547    0.5852    1.2177 H   0  0  0  0  0  0  0  0  0  0  0  0
    1.2721    1.2089    1.0688 H   0  0  0  0  0  0  0  0  0  0  0  0
    0.4755    1.5797   -0.4785 H   0  0  0  0  0  0  0  0  0  0  0  0
    1.5184   -1.6468   -0.4768 H   0  0  0  0  0  0  0  0  0  0  0  0
  1  2  1  0
  2  3  1  0
  3  4  1  0
  1  5  1  0
  1  6  1  0
  2  7  1  0
  2  8  1  0
  3  9  1  0
  3 10  1  0
  4 11  1  0
M  END
>  <Ligand ID>  (1) 
LIG0005045

>  <Ligand>  (1) 
Cysteamine

>  <SMILES>  (1) 
NCCS

>  <CID>  (1) 
6058.0

>  <ChEMBL ID>  (1) 
nan

>  <InChiKey>  (1) 
UFULAYFCSOUIOV-UHFFFAOYSA-N

>  <InChi>  (1) 
InChI=1S/C2H7NS/c3-1-2-4/h4H,1-3H2

>  <IUPAC Name>  (1) 
2-aminoethanethiol

$$$$
