
     RDKit          3D

 24 25  0  0  0  0  0  0  0  0999 V2000
    3.4541    0.5742    0.2315 O   0  0  0  0  0  0  0  0  0  0  0  0
    2.9265   -0.6213   -0.2461 C   0  0  0  0  0  0  0  0  0  0  0  0
    3.6698   -1.5595   -0.6641 O   0  0  0  0  0  0  0  0  0  0  0  0
    1.4644   -0.8696   -0.2949 C   0  0  1  0  0  0  0  0  0  0  0  0
    0.7297   -0.3753    0.9036 C   0  0  1  0  0  0  0  0  0  0  0  0
    0.6053    0.3096   -0.4202 C   0  0  2  0  0  0  0  0  0  0  0  0
   -0.8505    0.2852   -0.6788 C   0  0  2  0  0  0  0  0  0  0  0  0
   -1.3409   -1.0204   -0.1299 C   0  0  1  0  0  0  0  0  0  0  0  0
   -0.5604   -1.1197    1.1645 C   0  0  0  0  0  0  0  0  0  0  0  0
   -2.6882   -0.9633    0.1527 F   0  0  0  0  0  0  0  0  0  0  0  0
   -1.2114    0.4967   -2.0577 N   0  0  0  0  0  0  0  0  0  0  0  0
   -1.4867    1.3715    0.1300 C   0  0  0  0  0  0  0  0  0  0  0  0
   -1.3500    1.4513    1.3795 O   0  0  0  0  0  0  0  0  0  0  0  0
   -2.2736    2.3647   -0.4608 O   0  0  0  0  0  0  0  0  0  0  0  0
    4.4521    0.6392    0.4510 H   0  0  0  0  0  0  0  0  0  0  0  0
    1.2230   -1.8708   -0.7024 H   0  0  0  0  0  0  0  0  0  0  0  0
    1.2110    0.2207    1.6934 H   0  0  0  0  0  0  0  0  0  0  0  0
    1.0836    1.2903   -0.6065 H   0  0  0  0  0  0  0  0  0  0  0  0
   -1.1298   -1.8822   -0.7951 H   0  0  0  0  0  0  0  0  0  0  0  0
   -1.1116   -0.7768    2.0460 H   0  0  0  0  0  0  0  0  0  0  0  0
   -0.2619   -2.2031    1.2759 H   0  0  0  0  0  0  0  0  0  0  0  0
   -1.4345    1.5247   -2.2114 H   0  0  0  0  0  0  0  0  0  0  0  0
   -2.0559   -0.0616   -2.3279 H   0  0  0  0  0  0  0  0  0  0  0  0
   -3.0641    2.7957    0.0036 H   0  0  0  0  0  0  0  0  0  0  0  0
  1  2  1  0
  2  3  2  0
  2  4  1  0
  4  5  1  0
  5  6  1  0
  6  7  1  0
  7  8  1  0
  8  9  1  0
  8 10  1  0
  7 11  1  6
  7 12  1  0
 12 13  2  0
 12 14  1  0
  6  4  1  0
  9  5  1  0
  1 15  1  0
  4 16  1  6
  5 17  1  1
  6 18  1  1
  8 19  1  6
  9 20  1  0
  9 21  1  0
 11 22  1  0
 11 23  1  0
 14 24  1  0
M  END
>  <Ligand ID>  (1) 
LIG0005732

>  <Ligand>  (1) 
CHEMBL341888

>  <SMILES>  (1) 
OC(=O)[C@H]1[C@H]2[C@@H]1[C@]([C@@H](C2)F)(N)C(=O)O

>  <CID>  (1) 
10608207.0

>  <ChEMBL ID>  (1) 
nan

>  <InChiKey>  (1) 
DIWVNJFXRKZAGI-AZDHXYLBSA-N

>  <InChi>  (1) 
InChI=1S/C8H10FNO4/c9-3-1-2-4(6(11)12)5(2)8(3,10)7(13)14/h2-5H,1,10H2,(H,11,12)(H,13,14)/t2-,3+,4-,5-,8-/m0/s1

>  <IUPAC Name>  (1) 
(1S,2S,3R,5R,6S)-2-amino-3-fluorobicyclo[3.1.0]hexane-2,6-dicarboxylic acid

$$$$
