
     RDKit          3D

 46 49  0  0  0  0  0  0  0  0999 V2000
   -5.8645    0.5731    0.0468 C   0  0  0  0  0  0  0  0  0  0  0  0
   -4.8025    0.8865    1.0968 C   0  0  0  0  0  0  0  0  0  0  0  0
   -3.4688    0.6322    0.6433 N   0  0  0  0  0  0  0  0  0  0  0  0
   -2.4902    0.9260    1.6280 C   0  0  0  0  0  0  0  0  0  0  0  0
   -1.1110    0.4017    1.2575 C   0  0  0  0  0  0  0  0  0  0  0  0
   -1.0255    0.2438   -0.1888 N   0  0  0  0  0  0  0  0  0  0  0  0
   -1.7716    1.2666   -0.9434 C   0  0  0  0  0  0  0  0  0  0  0  0
   -3.2296    0.9893   -0.6998 C   0  0  0  0  0  0  0  0  0  0  0  0
   -0.3064   -0.7939   -0.8326 C   0  0  0  0  0  0  0  0  0  0  0  0
   -1.0284   -1.6708   -1.5419 N   0  0  0  0  0  0  0  0  0  0  0  0
   -0.4981   -2.7026   -2.1922 C   0  0  0  0  0  0  0  0  0  0  0  0
   -1.2512   -3.6922   -2.9840 C   0  0  0  0  0  0  0  0  0  0  0  0
    0.8574   -2.8593   -2.1207 N   0  0  0  0  0  0  0  0  0  0  0  0
    1.6053   -1.9963   -1.4181 C   0  0  0  0  0  0  0  0  0  0  0  0
    1.0959   -0.9088   -0.7262 C   0  0  0  0  0  0  0  0  0  0  0  0
    1.9871   -0.1412   -0.0753 C   0  0  0  0  0  0  0  0  0  0  0  0
    3.2910   -0.4445   -0.1166 C   0  0  0  0  0  0  0  0  0  0  0  0
    3.3985   -1.9276   -1.1361 S   0  0  0  0  0  0  0  0  0  0  0  0
    4.4447    0.1906    0.4760 C   0  0  0  0  0  0  0  0  0  0  0  0
    5.7125   -0.3608    0.2551 C   0  0  0  0  0  0  0  0  0  0  0  0
    6.7790    0.2866    0.8450 C   0  0  0  0  0  0  0  0  0  0  0  0
    6.6251    1.4274    1.6213 C   0  0  0  0  0  0  0  0  0  0  0  0
    5.3428    1.9235    1.8017 C   0  0  0  0  0  0  0  0  0  0  0  0
    4.2491    1.3133    1.2343 C   0  0  0  0  0  0  0  0  0  0  0  0
   -6.8261    0.3685    0.5718 H   0  0  0  0  0  0  0  0  0  0  0  0
   -5.9605    1.4374   -0.6655 H   0  0  0  0  0  0  0  0  0  0  0  0
   -5.5866   -0.3360   -0.5596 H   0  0  0  0  0  0  0  0  0  0  0  0
   -4.9494    1.9732    1.3502 H   0  0  0  0  0  0  0  0  0  0  0  0
   -5.0803    0.3194    2.0048 H   0  0  0  0  0  0  0  0  0  0  0  0
   -2.7818    0.3957    2.5590 H   0  0  0  0  0  0  0  0  0  0  0  0
   -2.4657    2.0011    1.8975 H   0  0  0  0  0  0  0  0  0  0  0  0
   -0.8278   -0.5152    1.7900 H   0  0  0  0  0  0  0  0  0  0  0  0
   -0.4092    1.2016    1.5420 H   0  0  0  0  0  0  0  0  0  0  0  0
   -1.4751    2.2765   -0.5894 H   0  0  0  0  0  0  0  0  0  0  0  0
   -1.5861    1.1904   -2.0321 H   0  0  0  0  0  0  0  0  0  0  0  0
   -3.8125    1.9204   -0.9262 H   0  0  0  0  0  0  0  0  0  0  0  0
   -3.5549    0.1855   -1.4021 H   0  0  0  0  0  0  0  0  0  0  0  0
   -0.7484   -3.9555   -3.9447 H   0  0  0  0  0  0  0  0  0  0  0  0
   -2.2159   -3.2213   -3.2479 H   0  0  0  0  0  0  0  0  0  0  0  0
   -1.4302   -4.6260   -2.4090 H   0  0  0  0  0  0  0  0  0  0  0  0
    1.6498    0.7631    0.5062 H   0  0  0  0  0  0  0  0  0  0  0  0
    5.8304   -1.2597   -0.3568 H   0  0  0  0  0  0  0  0  0  0  0  0
    7.7758   -0.1453    0.6720 H   0  0  0  0  0  0  0  0  0  0  0  0
    7.4974    1.9213    2.0791 H   0  0  0  0  0  0  0  0  0  0  0  0
    5.1613    2.8116    2.3981 H   0  0  0  0  0  0  0  0  0  0  0  0
    3.2554    1.7304    1.3968 H   0  0  0  0  0  0  0  0  0  0  0  0
  1  2  1  0
  2  3  1  0
  3  4  1  0
  4  5  1  0
  5  6  1  0
  6  7  1  0
  7  8  1  0
  6  9  1  0
  9 10  2  0
 10 11  1  0
 11 12  1  0
 11 13  2  0
 13 14  1  0
 14 15  2  0
 15 16  1  0
 16 17  2  0
 17 18  1  0
 17 19  1  0
 19 20  2  0
 20 21  1  0
 21 22  2  0
 22 23  1  0
 23 24  2  0
  8  3  1  0
 15  9  1  0
 24 19  1  0
 18 14  1  0
  1 25  1  0
  1 26  1  0
  1 27  1  0
  2 28  1  0
  2 29  1  0
  4 30  1  0
  4 31  1  0
  5 32  1  0
  5 33  1  0
  7 34  1  0
  7 35  1  0
  8 36  1  0
  8 37  1  0
 12 38  1  0
 12 39  1  0
 12 40  1  0
 16 41  1  0
 20 42  1  0
 21 43  1  0
 22 44  1  0
 23 45  1  0
 24 46  1  0
M  END
>  <Ligand ID>  (1) 
LIG0004404

>  <Ligand>  (1) 
CHEMBL2057795

>  <SMILES>  (1) 
CCN1CCN(CC1)c1nc(C)nc2c1cc(s2)c1ccccc1

>  <CID>  (1) 
853261.0

>  <ChEMBL ID>  (1) 
nan

>  <InChiKey>  (1) 
CWQYMWNABHHDQG-UHFFFAOYSA-N

>  <InChi>  (1) 
InChI=1S/C19H22N4S/c1-3-22-9-11-23(12-10-22)18-16-13-17(15-7-5-4-6-8-15)24-19(16)21-14(2)20-18/h4-8,13H,3,9-12H2,1-2H3

>  <IUPAC Name>  (1) 
4-(4-ethylpiperazin-1-yl)-2-methyl-6-phenylthieno[2,3-d]pyrimidine

$$$$
