
     RDKit          3D

 59 61  0  0  0  0  0  0  0  0999 V2000
    5.6883    3.3001   -1.9907 O   0  0  0  0  0  0  0  0  0  0  0  0
    6.3864    2.2878   -1.3107 C   0  0  0  0  0  0  0  0  0  0  0  0
    7.4496    2.5599   -0.6592 O   0  0  0  0  0  0  0  0  0  0  0  0
    5.9141    0.8624   -1.3201 C   0  0  0  0  0  0  0  0  0  0  0  0
    5.6950    0.3897    0.0762 C   0  0  0  0  0  0  0  0  0  0  0  0
    5.2105   -1.0014    0.1449 C   0  0  0  0  0  0  0  0  0  0  0  0
    3.8680   -1.3113   -0.3657 C   0  0  0  0  0  0  0  0  0  0  0  0
    3.0362   -0.3826   -0.7879 C   0  0  0  0  0  0  0  0  0  0  0  0
    1.6654   -0.5177   -1.3341 C   0  0  0  0  0  0  0  0  0  0  0  0
    0.7276   -1.3254   -0.5037 C   0  0  1  0  0  0  0  0  0  0  0  0
    1.2895   -2.6663   -0.1026 C   0  0  1  0  0  0  0  0  0  0  0  0
    2.3550   -3.0646   -0.8653 O   0  0  0  0  0  0  0  0  0  0  0  0
    3.5854   -2.7976   -0.3354 C   0  0  0  0  0  0  0  0  0  0  0  0
    1.5743   -2.4903    1.3619 C   0  0  0  0  0  0  0  0  0  0  0  0
    0.3123   -1.7367    1.8108 C   0  0  2  0  0  0  0  0  0  0  0  0
    0.2667   -0.6631    0.7651 C   0  0  2  0  0  0  0  0  0  0  0  0
   -1.0374    0.0133    0.6385 C   0  0  0  0  0  0  0  0  0  0  0  0
   -2.0861   -0.3130    1.3732 C   0  0  0  0  0  0  0  0  0  0  0  0
   -3.4141    0.3517    1.2662 C   0  0  2  0  0  0  0  0  0  0  0  0
   -3.3890    1.4039    0.2157 C   0  0  0  0  0  0  0  0  0  0  0  0
   -4.5505    2.1142    0.0434 O   0  0  0  0  0  0  0  0  0  0  0  0
   -5.8005    1.7778   -0.3316 C   0  0  0  0  0  0  0  0  0  0  0  0
   -6.2713    0.5347   -0.6799 C   0  0  0  0  0  0  0  0  0  0  0  0
   -7.5807    0.2856   -1.0517 C   0  0  0  0  0  0  0  0  0  0  0  0
   -8.4966    1.3028   -1.0906 C   0  0  0  0  0  0  0  0  0  0  0  0
   -8.0539    2.5660   -0.7463 C   0  0  0  0  0  0  0  0  0  0  0  0
   -6.7583    2.8070   -0.3793 C   0  0  0  0  0  0  0  0  0  0  0  0
   -3.6803    0.9086    2.5323 O   0  0  0  0  0  0  0  0  0  0  0  0
    0.4493   -1.2292    3.1005 O   0  0  0  0  0  0  0  0  0  0  0  0
    5.6786    4.2454   -1.5732 H   0  0  0  0  0  0  0  0  0  0  0  0
    6.7895    0.2747   -1.7939 H   0  0  0  0  0  0  0  0  0  0  0  0
    5.0723    0.7564   -1.9673 H   0  0  0  0  0  0  0  0  0  0  0  0
    5.0207    1.0670    0.6488 H   0  0  0  0  0  0  0  0  0  0  0  0
    6.6806    0.4639    0.6209 H   0  0  0  0  0  0  0  0  0  0  0  0
    5.2411   -1.3520    1.2125 H   0  0  0  0  0  0  0  0  0  0  0  0
    5.9712   -1.6905   -0.3579 H   0  0  0  0  0  0  0  0  0  0  0  0
    3.3566    0.6422   -0.6919 H   0  0  0  0  0  0  0  0  0  0  0  0
    1.2157    0.4805   -1.4820 H   0  0  0  0  0  0  0  0  0  0  0  0
    1.6714   -0.9775   -2.3628 H   0  0  0  0  0  0  0  0  0  0  0  0
   -0.1738   -1.5197   -1.1441 H   0  0  0  0  0  0  0  0  0  0  0  0
    0.5286   -3.4962   -0.1704 H   0  0  0  0  0  0  0  0  0  0  0  0
    4.3648   -3.2251   -1.0287 H   0  0  0  0  0  0  0  0  0  0  0  0
    3.7889   -3.2506    0.6345 H   0  0  0  0  0  0  0  0  0  0  0  0
    1.6204   -3.4521    1.9004 H   0  0  0  0  0  0  0  0  0  0  0  0
    2.4025   -1.7905    1.5908 H   0  0  0  0  0  0  0  0  0  0  0  0
   -0.4978   -2.4634    1.7678 H   0  0  0  0  0  0  0  0  0  0  0  0
    1.0224    0.0946    1.0520 H   0  0  0  0  0  0  0  0  0  0  0  0
   -1.1168    0.8091   -0.0954 H   0  0  0  0  0  0  0  0  0  0  0  0
   -2.0020   -1.1117    2.1098 H   0  0  0  0  0  0  0  0  0  0  0  0
   -4.1632   -0.4257    1.1247 H   0  0  0  0  0  0  0  0  0  0  0  0
   -2.5710    2.1248    0.4532 H   0  0  0  0  0  0  0  0  0  0  0  0
   -3.1681    0.8817   -0.7596 H   0  0  0  0  0  0  0  0  0  0  0  0
   -5.6052   -0.3054   -0.6810 H   0  0  0  0  0  0  0  0  0  0  0  0
   -7.8984   -0.7220   -1.3188 H   0  0  0  0  0  0  0  0  0  0  0  0
   -9.5316    1.1736   -1.3718 H   0  0  0  0  0  0  0  0  0  0  0  0
   -8.7799    3.3734   -0.7768 H   0  0  0  0  0  0  0  0  0  0  0  0
   -6.4715    3.8159   -0.1236 H   0  0  0  0  0  0  0  0  0  0  0  0
   -3.4336    1.8575    2.4489 H   0  0  0  0  0  0  0  0  0  0  0  0
    0.6327   -0.2446    2.9764 H   0  0  0  0  0  0  0  0  0  0  0  0
  1  2  1  0
  2  3  2  0
  2  4  1  0
  4  5  1  0
  5  6  1  0
  6  7  1  0
  7  8  2  0
  8  9  1  0
  9 10  1  0
 10 11  1  0
 11 12  1  0
 12 13  1  0
 11 14  1  0
 14 15  1  0
 15 16  1  0
 16 17  1  0
 17 18  2  0
 18 19  1  0
 19 20  1  0
 20 21  1  0
 21 22  1  0
 22 23  2  0
 23 24  1  0
 24 25  2  0
 25 26  1  0
 26 27  2  0
 19 28  1  0
 15 29  1  0
 13  7  1  0
 27 22  1  0
 16 10  1  0
  1 30  1  0
  4 31  1  0
  4 32  1  0
  5 33  1  0
  5 34  1  0
  6 35  1  0
  6 36  1  0
  8 37  1  0
  9 38  1  0
  9 39  1  0
 10 40  1  6
 11 41  1  1
 13 42  1  0
 13 43  1  0
 14 44  1  0
 14 45  1  0
 15 46  1  1
 16 47  1  1
 17 48  1  0
 18 49  1  0
 19 50  1  6
 20 51  1  0
 20 52  1  0
 23 53  1  0
 24 54  1  0
 25 55  1  0
 26 56  1  0
 27 57  1  0
 28 58  1  0
 29 59  1  0
M  END
>  <Ligand ID>  (1) 
LIG0002910

>  <Ligand>  (1) 
CHEMBL3932636

>  <SMILES>  (1) 
OC(=O)CCCC1=CC[C@H]2[C@@H](OC1)C[C@H]([C@@H]2/C=C/[C@H](COc1ccccc1)O)O

>  <CID>  (1) 
68747472.0

>  <ChEMBL ID>  (1) 
nan

>  <InChiKey>  (1) 
IFKMJGLNUCDECQ-OLLGJNDCSA-N

>  <InChi>  (1) 
InChI=1S/C23H30O6/c24-17(15-28-18-6-2-1-3-7-18)10-12-19-20-11-9-16(5-4-8-23(26)27)14-29-22(20)13-21(19)25/h1-3,6-7,9-10,12,17,19-22,24-25H,4-5,8,11,13-15H2,(H,26,27)/b12-10+/t17-,19-,20-,21-,22+/m1/s1

>  <IUPAC Name>  (1) 
4-[(5aR,6R,7R,8aS)-7-hydroxy-6-[(E,3R)-3-hydroxy-4-phenoxybut-1-enyl]-5,5a,6,7,8,8a-hexahydro-2H-cyclopenta[b]oxepin-3-yl]butanoic acid

$$$$
