
     RDKit          3D

 29 31  0  0  0  0  0  0  0  0999 V2000
    3.6431    0.7661    0.4223 N   0  0  0  0  0  0  0  0  0  0  0  0
    3.0711    0.7438   -0.8993 C   0  0  0  0  0  0  0  0  0  0  0  0
    1.5638    0.7934   -0.7916 C   0  0  0  0  0  0  0  0  0  0  0  0
    1.1023   -0.1803    0.2236 C   0  0  0  0  0  0  0  0  0  0  0  0
    1.9305   -0.8055    1.0631 C   0  0  0  0  0  0  0  0  0  0  0  0
    3.3987   -0.5428    1.0175 C   0  0  0  0  0  0  0  0  0  0  0  0
   -0.3140   -0.5531    0.3847 C   0  0  0  0  0  0  0  0  0  0  0  0
   -0.8010   -1.5524    1.2274 C   0  0  0  0  0  0  0  0  0  0  0  0
   -2.1462   -1.6078    1.1418 N   0  0  0  0  0  0  0  0  0  0  0  0
   -2.5723   -0.6795    0.2715 C   0  0  0  0  0  0  0  0  0  0  0  0
   -1.4334   -0.0206   -0.2013 C   0  0  0  0  0  0  0  0  0  0  0  0
   -1.6569    0.9840   -1.1051 C   0  0  0  0  0  0  0  0  0  0  0  0
   -2.9256    1.3201   -1.5214 C   0  0  0  0  0  0  0  0  0  0  0  0
   -4.0467    0.6689   -1.0556 C   0  0  0  0  0  0  0  0  0  0  0  0
   -3.8426   -0.3454   -0.1436 C   0  0  0  0  0  0  0  0  0  0  0  0
    3.1844    1.5137    0.9629 H   0  0  0  0  0  0  0  0  0  0  0  0
    3.4086   -0.1842   -1.4159 H   0  0  0  0  0  0  0  0  0  0  0  0
    3.4483    1.6322   -1.4783 H   0  0  0  0  0  0  0  0  0  0  0  0
    1.1188    0.4832   -1.7810 H   0  0  0  0  0  0  0  0  0  0  0  0
    1.2705    1.7946   -0.4623 H   0  0  0  0  0  0  0  0  0  0  0  0
    1.6064   -1.5155    1.8049 H   0  0  0  0  0  0  0  0  0  0  0  0
    3.8506   -0.5894    2.0233 H   0  0  0  0  0  0  0  0  0  0  0  0
    3.8546   -1.3272    0.3889 H   0  0  0  0  0  0  0  0  0  0  0  0
   -0.2544   -2.2212    1.8776 H   0  0  0  0  0  0  0  0  0  0  0  0
   -2.7887   -2.2658    1.6638 H   0  0  0  0  0  0  0  0  0  0  0  0
   -0.8424    1.5286   -1.4888 H   0  0  0  0  0  0  0  0  0  0  0  0
   -3.0719    2.1310   -2.2484 H   0  0  0  0  0  0  0  0  0  0  0  0
   -5.0536    0.9111   -1.3652 H   0  0  0  0  0  0  0  0  0  0  0  0
   -4.7022   -0.8800    0.2450 H   0  0  0  0  0  0  0  0  0  0  0  0
  1  2  1  0
  2  3  1  0
  3  4  1  0
  4  5  2  0
  5  6  1  0
  4  7  1  0
  7  8  2  0
  8  9  1  0
  9 10  1  0
 10 11  2  0
 11 12  1  0
 12 13  2  0
 13 14  1  0
 14 15  2  0
  6  1  1  0
 11  7  1  0
 15 10  1  0
  1 16  1  0
  2 17  1  0
  2 18  1  0
  3 19  1  0
  3 20  1  0
  5 21  1  0
  6 22  1  0
  6 23  1  0
  8 24  1  0
  9 25  1  0
 12 26  1  0
 13 27  1  0
 14 28  1  0
 15 29  1  0
M  END
>  <Ligand ID>  (1) 
LIG0001386

>  <Ligand>  (1) 
3-(1,2,3,6-tetrahydropyridin-4-yl)-1H-indole

>  <SMILES>  (1) 
N1CCC(=CC1)c1c[nH]c2c1cccc2

>  <CID>  (1) 
2761023.0

>  <ChEMBL ID>  (1) 
nan

>  <InChiKey>  (1) 
CIRSPTXGPFAXRE-UHFFFAOYSA-N

>  <InChi>  (1) 
InChI=1S/C13H14N2/c1-2-4-13-11(3-1)12(9-15-13)10-5-7-14-8-6-10/h1-5,9,14-15H,6-8H2

>  <IUPAC Name>  (1) 
3-(1,2,3,6-tetrahydropyridin-4-yl)-1H-indole

$$$$
