
     RDKit          3D

 27 28  0  0  0  0  0  0  0  0999 V2000
   -3.5854   -0.3353    0.2484 C   0  0  0  0  0  0  0  0  0  0  0  0
   -2.2602    0.0638   -0.4085 C   0  0  1  0  0  0  0  0  0  0  0  0
   -1.3441    0.4210    0.7412 C   0  0  0  0  0  0  0  0  0  0  0  0
   -0.0300    0.8290    0.3315 N   0  0  0  0  0  0  0  0  0  0  0  0
    0.2816    2.1278    0.0680 C   0  0  0  0  0  0  0  0  0  0  0  0
    1.6091    2.2181   -0.3014 C   0  0  0  0  0  0  0  0  0  0  0  0
    2.1247    0.9419   -0.2634 C   0  0  0  0  0  0  0  0  0  0  0  0
    1.0920    0.1132    0.1289 C   0  0  0  0  0  0  0  0  0  0  0  0
    1.3185   -1.2432    0.2557 C   0  0  0  0  0  0  0  0  0  0  0  0
    2.5904   -1.7507   -0.0160 C   0  0  0  0  0  0  0  0  0  0  0  0
    2.9342   -3.4710    0.1297 Cl  0  0  0  0  0  0  0  0  0  0  0  0
    3.6006   -0.8808   -0.4079 C   0  0  0  0  0  0  0  0  0  0  0  0
    3.3932    0.4804   -0.5405 C   0  0  0  0  0  0  0  0  0  0  0  0
    4.8483   -1.3749   -0.6749 F   0  0  0  0  0  0  0  0  0  0  0  0
   -1.7950   -1.0876   -1.1375 N   0  0  0  0  0  0  0  0  0  0  0  0
   -3.3144   -0.9272    1.1461 H   0  0  0  0  0  0  0  0  0  0  0  0
   -4.2226   -0.9291   -0.4311 H   0  0  0  0  0  0  0  0  0  0  0  0
   -4.1169    0.5814    0.5720 H   0  0  0  0  0  0  0  0  0  0  0  0
   -2.4163    0.9459   -1.0548 H   0  0  0  0  0  0  0  0  0  0  0  0
   -1.3200   -0.4412    1.4611 H   0  0  0  0  0  0  0  0  0  0  0  0
   -1.8657    1.2453    1.2861 H   0  0  0  0  0  0  0  0  0  0  0  0
   -0.3602    2.9967    0.1203 H   0  0  0  0  0  0  0  0  0  0  0  0
    2.1757    3.0984   -0.5756 H   0  0  0  0  0  0  0  0  0  0  0  0
    0.5153   -1.9133    0.5644 H   0  0  0  0  0  0  0  0  0  0  0  0
    4.1913    1.1486   -0.8475 H   0  0  0  0  0  0  0  0  0  0  0  0
   -1.6214   -0.9407   -2.1427 H   0  0  0  0  0  0  0  0  0  0  0  0
   -2.4229   -1.9164   -1.0392 H   0  0  0  0  0  0  0  0  0  0  0  0
  1  2  1  0
  2  3  1  0
  3  4  1  0
  4  5  1  0
  5  6  2  0
  6  7  1  0
  7  8  2  0
  8  9  1  0
  9 10  2  0
 10 11  1  0
 10 12  1  0
 12 13  2  0
 12 14  1  0
  2 15  1  0
  8  4  1  0
 13  7  1  0
  1 16  1  0
  1 17  1  0
  1 18  1  0
  2 19  1  6
  3 20  1  0
  3 21  1  0
  5 22  1  0
  6 23  1  0
  9 24  1  0
 13 25  1  0
 15 26  1  0
 15 27  1  0
M  END
>  <Ligand ID>  (1) 
LIG0001097

>  <Ligand>  (1) 
Ro 60-0175

>  <SMILES>  (1) 
C[C@@H](Cn1ccc2c1cc(Cl)c(c2)F)N

>  <CID>  (1) 
3045227.0

>  <ChEMBL ID>  (1) 
nan

>  <InChiKey>  (1) 
XJJZQXUGLLXTHO-ZETCQYMHSA-N

>  <InChi>  (1) 
InChI=1S/C11H12ClFN2/c1-7(14)6-15-3-2-8-4-10(13)9(12)5-11(8)15/h2-5,7H,6,14H2,1H3/t7-/m0/s1

>  <IUPAC Name>  (1) 
(2S)-1-(6-chloro-5-fluoroindol-1-yl)propan-2-amine

$$$$
