
     RDKit          3D

 32 33  0  0  0  0  0  0  0  0999 V2000
   -2.1428    0.4444    2.4469 C   0  0  0  0  0  0  0  0  0  0  0  0
   -3.0497    0.6891    0.9522 S   0  0  0  0  0  0  0  0  0  0  0  0
   -3.2295    2.1544    0.6416 O   0  0  0  0  0  0  0  0  0  0  0  0
   -4.4371    0.1568    1.1589 O   0  0  0  0  0  0  0  0  0  0  0  0
   -2.3274   -0.1545   -0.3987 C   0  0  0  0  0  0  0  0  0  0  0  0
   -3.0363   -1.1204   -1.0834 C   0  0  0  0  0  0  0  0  0  0  0  0
   -2.4981   -1.7955   -2.1399 C   0  0  0  0  0  0  0  0  0  0  0  0
   -1.2133   -1.4894   -2.5156 C   0  0  0  0  0  0  0  0  0  0  0  0
   -0.5088   -0.5252   -1.8303 C   0  0  0  0  0  0  0  0  0  0  0  0
   -1.0164    0.1794   -0.7580 C   0  0  0  0  0  0  0  0  0  0  0  0
   -0.3006    1.1921   -0.0700 N   0  0  0  0  0  0  0  0  0  0  0  0
    1.0290    1.6192   -0.3136 C   0  0  0  0  0  0  0  0  0  0  0  0
    2.1133    0.7378    0.1516 C   0  0  0  0  0  0  0  0  0  0  0  0
    3.0336    1.1710    0.9882 N   0  0  0  0  0  0  0  0  0  0  0  0
    3.9832    0.1612    1.3058 C   0  0  0  0  0  0  0  0  0  0  0  0
    3.8601   -0.7596    0.0923 C   0  0  0  0  0  0  0  0  0  0  0  0
    2.4147   -0.6139   -0.1342 N   0  0  0  0  0  0  0  0  0  0  0  0
   -2.7765   -0.0900    3.1790 H   0  0  0  0  0  0  0  0  0  0  0  0
   -1.1825   -0.0918    2.2986 H   0  0  0  0  0  0  0  0  0  0  0  0
   -1.8976    1.4528    2.8524 H   0  0  0  0  0  0  0  0  0  0  0  0
   -4.0551   -1.3362   -0.7555 H   0  0  0  0  0  0  0  0  0  0  0  0
   -3.0722   -2.5478   -2.6609 H   0  0  0  0  0  0  0  0  0  0  0  0
   -0.7646   -2.0033   -3.3415 H   0  0  0  0  0  0  0  0  0  0  0  0
    0.4942   -0.3242   -2.1692 H   0  0  0  0  0  0  0  0  0  0  0  0
   -0.8358    1.6718    0.7120 H   0  0  0  0  0  0  0  0  0  0  0  0
    1.1533    2.6486    0.1359 H   0  0  0  0  0  0  0  0  0  0  0  0
    1.1148    1.7548   -1.4356 H   0  0  0  0  0  0  0  0  0  0  0  0
    3.8247   -0.3858    2.2400 H   0  0  0  0  0  0  0  0  0  0  0  0
    5.0033    0.6079    1.2951 H   0  0  0  0  0  0  0  0  0  0  0  0
    4.1399   -1.7849    0.3205 H   0  0  0  0  0  0  0  0  0  0  0  0
    4.4025   -0.2707   -0.7336 H   0  0  0  0  0  0  0  0  0  0  0  0
    1.7776   -1.3481   -0.4308 H   0  0  0  0  0  0  0  0  0  0  0  0
  1  2  1  0
  2  3  2  0
  2  4  2  0
  2  5  1  0
  5  6  2  0
  6  7  1  0
  7  8  2  0
  8  9  1  0
  9 10  2  0
 10 11  1  0
 11 12  1  0
 12 13  1  0
 13 14  2  0
 14 15  1  0
 15 16  1  0
 16 17  1  0
 10  5  1  0
 17 13  1  0
  1 18  1  0
  1 19  1  0
  1 20  1  0
  6 21  1  0
  7 22  1  0
  8 23  1  0
  9 24  1  0
 11 25  1  0
 12 26  1  0
 12 27  1  0
 15 28  1  0
 15 29  1  0
 16 30  1  0
 16 31  1  0
 17 32  1  0
M  END
>  <Ligand ID>  (1) 
LIG0004915

>  <Ligand>  (1) 
UNII-K8F7E2OVP2

>  <SMILES>  (1) 
CS(=O)(=O)c1ccccc1NCC1=NCCN1

>  <CID>  (1) 
9816461.0

>  <ChEMBL ID>  (1) 
nan

>  <InChiKey>  (1) 
MCTRZCCYVQDHLM-UHFFFAOYSA-N

>  <InChi>  (1) 
InChI=1S/C11H15N3O2S/c1-17(15,16)10-5-3-2-4-9(10)14-8-11-12-6-7-13-11/h2-5,14H,6-8H2,1H3,(H,12,13)

>  <IUPAC Name>  (1) 
N-(4,5-dihydro-1H-imidazol-2-ylmethyl)-2-methylsulfonylaniline

$$$$
