
     RDKit          3D

 60 60  0  0  0  0  0  0  0  0999 V2000
    1.5071   -0.6202   -0.2857 O   0  0  0  0  0  0  0  0  0  0  0  0
    0.4805    0.2941   -0.1139 C   0  0  0  0  0  0  0  0  0  0  0  0
    0.8231    1.5203   -0.0973 O   0  0  0  0  0  0  0  0  0  0  0  0
   -0.9393   -0.1086    0.0433 C   0  0  0  0  0  0  0  0  0  0  0  0
   -1.6989    1.0351    0.1930 F   0  0  0  0  0  0  0  0  0  0  0  0
   -1.4469   -0.7123   -1.0851 F   0  0  0  0  0  0  0  0  0  0  0  0
   -1.1107   -0.9261    1.1113 F   0  0  0  0  0  0  0  0  0  0  0  0
    8.2435   -0.9890   -1.0373 C   0  0  0  0  0  0  0  0  0  0  0  0
    6.9797   -0.7576   -0.1606 C   0  0  0  0  0  0  0  0  0  0  0  0
    6.8754    0.6932    0.0672 C   0  0  0  0  0  0  0  0  0  0  0  0
    5.8203    1.2791    0.8899 C   0  0  0  0  0  0  0  0  0  0  0  0
    4.3894    1.1961    0.5665 C   0  0  0  0  0  0  0  0  0  0  0  0
    3.7401   -0.1476    0.4861 C   0  0  0  0  0  0  0  0  0  0  0  0
    2.2421    0.1114    0.2149 C   0  0  0  0  0  0  0  0  0  0  0  0
    1.5109   -1.1890    0.1190 C   0  0  0  0  0  0  0  0  0  0  0  0
    0.0649   -0.8807   -0.1444 C   0  0  0  0  0  0  0  0  0  0  0  0
   -0.7865   -0.7137    0.9399 C   0  0  0  0  0  0  0  0  0  0  0  0
   -2.1343   -0.4271    0.7558 C   0  0  0  0  0  0  0  0  0  0  0  0
   -2.6430   -0.3047   -0.5214 C   0  0  0  0  0  0  0  0  0  0  0  0
   -1.7813   -0.4742   -1.5731 C   0  0  0  0  0  0  0  0  0  0  0  0
   -0.4381   -0.7595   -1.4227 C   0  0  0  0  0  0  0  0  0  0  0  0
   -4.0598   -0.0036   -0.6945 C   0  0  0  0  0  0  0  0  0  0  0  0
   -4.7258    0.1510   -1.8970 C   0  0  0  0  0  0  0  0  0  0  0  0
   -6.0203    0.4203   -1.5588 N   0  0  0  0  0  0  0  0  0  0  0  0
   -6.1452    0.4311   -0.2266 C   0  0  0  0  0  0  0  0  0  0  0  0
   -4.9278    0.1679    0.3057 N   0  0  0  0  0  0  0  0  0  0  0  0
   -7.3403    0.6735    0.6231 C   0  0  1  0  0  0  0  0  0  0  0  0
   -8.5736    0.6873   -0.2570 C   0  0  0  0  0  0  0  0  0  0  0  0
   -9.7042    1.0271    0.4840 O   0  0  0  0  0  0  0  0  0  0  0  0
   -7.4537   -0.2759    1.6987 N   0  0  0  0  0  0  0  0  0  0  0  0
    2.3852   -0.4823    0.2345 H   0  0  0  0  0  0  0  0  0  0  0  0
    8.3764   -2.0761   -1.1967 H   0  0  0  0  0  0  0  0  0  0  0  0
    8.1924   -0.3891   -1.9588 H   0  0  0  0  0  0  0  0  0  0  0  0
    9.0762   -0.5957   -0.4184 H   0  0  0  0  0  0  0  0  0  0  0  0
    7.2482   -1.2583    0.8017 H   0  0  0  0  0  0  0  0  0  0  0  0
    6.1345   -1.2069   -0.6629 H   0  0  0  0  0  0  0  0  0  0  0  0
    6.8722    1.2536   -0.9333 H   0  0  0  0  0  0  0  0  0  0  0  0
    7.8652    1.0326    0.5102 H   0  0  0  0  0  0  0  0  0  0  0  0
    5.9767    1.0177    2.0120 H   0  0  0  0  0  0  0  0  0  0  0  0
    6.0509    2.4029    0.9330 H   0  0  0  0  0  0  0  0  0  0  0  0
    3.8060    1.8307    1.3242 H   0  0  0  0  0  0  0  0  0  0  0  0
    4.2051    1.7033   -0.4474 H   0  0  0  0  0  0  0  0  0  0  0  0
    3.8135   -0.7588    1.3965 H   0  0  0  0  0  0  0  0  0  0  0  0
    4.0491   -0.7243   -0.4266 H   0  0  0  0  0  0  0  0  0  0  0  0
    1.7968    0.7121    1.0210 H   0  0  0  0  0  0  0  0  0  0  0  0
    2.1947    0.6172   -0.7692 H   0  0  0  0  0  0  0  0  0  0  0  0
    1.9427   -1.7344   -0.7630 H   0  0  0  0  0  0  0  0  0  0  0  0
    1.6298   -1.8448    0.9849 H   0  0  0  0  0  0  0  0  0  0  0  0
   -0.3912   -0.8088    1.9259 H   0  0  0  0  0  0  0  0  0  0  0  0
   -2.7274   -0.3125    1.6531 H   0  0  0  0  0  0  0  0  0  0  0  0
   -2.1780   -0.3788   -2.5682 H   0  0  0  0  0  0  0  0  0  0  0  0
    0.2363   -0.8920   -2.2658 H   0  0  0  0  0  0  0  0  0  0  0  0
   -4.3172    0.0766   -2.9077 H   0  0  0  0  0  0  0  0  0  0  0  0
   -4.6980    0.1074    1.3343 H   0  0  0  0  0  0  0  0  0  0  0  0
   -7.3021    1.6812    1.1018 H   0  0  0  0  0  0  0  0  0  0  0  0
   -8.7474   -0.3341   -0.6434 H   0  0  0  0  0  0  0  0  0  0  0  0
   -8.4737    1.4527   -1.0511 H   0  0  0  0  0  0  0  0  0  0  0  0
   -9.4790    1.1475    1.4535 H   0  0  0  0  0  0  0  0  0  0  0  0
   -7.7778   -1.2201    1.3893 H   0  0  0  0  0  0  0  0  0  0  0  0
   -6.5075   -0.4165    2.1178 H   0  0  0  0  0  0  0  0  0  0  0  0
  1  2  1  0
  2  3  2  0
  2  4  1  0
  4  5  1  0
  4  6  1  0
  4  7  1  0
  8  9  1  0
  9 10  1  0
 10 11  1  0
 11 12  1  0
 12 13  1  0
 13 14  1  0
 14 15  1  0
 15 16  1  0
 16 17  2  0
 17 18  1  0
 18 19  2  0
 19 20  1  0
 20 21  2  0
 19 22  1  0
 22 23  2  0
 23 24  1  0
 24 25  2  0
 25 26  1  0
 25 27  1  0
 27 28  1  0
 28 29  1  0
 27 30  1  0
 21 16  1  0
 26 22  1  0
  1 31  1  0
  8 32  1  0
  8 33  1  0
  8 34  1  0
  9 35  1  0
  9 36  1  0
 10 37  1  0
 10 38  1  0
 11 39  1  0
 11 40  1  0
 12 41  1  0
 12 42  1  0
 13 43  1  0
 13 44  1  0
 14 45  1  0
 14 46  1  0
 15 47  1  0
 15 48  1  0
 17 49  1  0
 18 50  1  0
 20 51  1  0
 21 52  1  0
 23 53  1  0
 26 54  1  0
 27 55  1  1
 28 56  1  0
 28 57  1  0
 29 58  1  0
 30 59  1  0
 30 60  1  0
M  END
>  <Ligand ID>  (1) 
LIG0004236

>  <Ligand>  (1) 
CHEMBL190529

>  <SMILES>  (1) 
OC(=O)C(F)(F)F.CCCCCCCCc1ccc(cc1)c1cnc([nH]1)[C@@H](CO)N

>  <CID>  (1) 
44398171.0

>  <ChEMBL ID>  (1) 
nan

>  <InChiKey>  (1) 
VQYAXJOIXAPPBA-UNTBIKODSA-N

>  <InChi>  (1) 
InChI=1S/C19H29N3O.C2HF3O2/c1-2-3-4-5-6-7-8-15-9-11-16(12-10-15)18-13-21-19(22-18)17(20)14-23;3-2(4,5)1(6)7/h9-13,17,23H,2-8,14,20H2,1H3,(H,21,22);(H,6,7)/t17-;/m1./s1

>  <IUPAC Name>  (1) 
(2S)-2-amino-2-[5-(4-octylphenyl)-1H-imidazol-2-yl]ethanol;2,2,2-trifluoroacetic acid

$$$$
