
     RDKit          3D

 33 33  0  0  0  0  0  0  0  0999 V2000
    4.2603    0.8028    0.8072 C   0  0  0  0  0  0  0  0  0  0  0  0
    3.9131   -0.5393    1.3820 C   0  0  0  0  0  0  0  0  0  0  0  0
    3.3722   -1.4308    0.3122 C   0  0  0  0  0  0  0  0  0  0  0  0
    2.1240   -1.0600   -0.3665 C   0  0  0  0  0  0  0  0  0  0  0  0
    2.0096    0.1981   -1.1185 C   0  0  0  0  0  0  0  0  0  0  0  0
    0.6917    0.2443   -1.6889 O   0  0  0  0  0  0  0  0  0  0  0  0
   -0.4710    0.2549   -0.9480 C   0  0  0  0  0  0  0  0  0  0  0  0
   -0.5238    0.2293    0.3042 O   0  0  0  0  0  0  0  0  0  0  0  0
   -1.7570    0.3001   -1.6856 C   0  0  0  0  0  0  0  0  0  0  0  0
   -2.9243    0.3079   -0.8010 C   0  0  0  0  0  0  0  0  0  0  0  0
   -3.5670   -0.8165   -0.3575 C   0  0  0  0  0  0  0  0  0  0  0  0
   -4.6678   -0.7976    0.4772 C   0  0  0  0  0  0  0  0  0  0  0  0
   -5.1697    0.4226    0.9044 C   0  0  0  0  0  0  0  0  0  0  0  0
   -4.5320    1.5570    0.4651 C   0  0  0  0  0  0  0  0  0  0  0  0
   -3.4311    1.5393   -0.3695 C   0  0  0  0  0  0  0  0  0  0  0  0
    3.5972    1.6303    1.1297 H   0  0  0  0  0  0  0  0  0  0  0  0
    4.3378    0.6995   -0.2922 H   0  0  0  0  0  0  0  0  0  0  0  0
    5.3215    1.0218    1.1288 H   0  0  0  0  0  0  0  0  0  0  0  0
    3.2007   -0.4522    2.2397 H   0  0  0  0  0  0  0  0  0  0  0  0
    4.8326   -0.9955    1.8652 H   0  0  0  0  0  0  0  0  0  0  0  0
    4.1895   -1.7208   -0.4062 H   0  0  0  0  0  0  0  0  0  0  0  0
    3.1668   -2.4220    0.8380 H   0  0  0  0  0  0  0  0  0  0  0  0
    1.9082   -1.8991   -1.1068 H   0  0  0  0  0  0  0  0  0  0  0  0
    1.2869   -1.1614    0.3686 H   0  0  0  0  0  0  0  0  0  0  0  0
    2.0573    1.1413   -0.5333 H   0  0  0  0  0  0  0  0  0  0  0  0
    2.6915    0.2784   -1.9675 H   0  0  0  0  0  0  0  0  0  0  0  0
   -1.8471   -0.5261   -2.4108 H   0  0  0  0  0  0  0  0  0  0  0  0
   -1.7889    1.2375   -2.3087 H   0  0  0  0  0  0  0  0  0  0  0  0
   -3.2099   -1.7930   -0.6656 H   0  0  0  0  0  0  0  0  0  0  0  0
   -5.1658   -1.6947    0.8199 H   0  0  0  0  0  0  0  0  0  0  0  0
   -6.0367    0.4402    1.5619 H   0  0  0  0  0  0  0  0  0  0  0  0
   -4.9103    2.5301    0.7893 H   0  0  0  0  0  0  0  0  0  0  0  0
   -2.9586    2.4736   -0.6915 H   0  0  0  0  0  0  0  0  0  0  0  0
  1  2  1  0
  2  3  1  0
  3  4  1  0
  4  5  1  0
  5  6  1  0
  6  7  1  0
  7  8  2  0
  7  9  1  0
  9 10  1  0
 10 11  2  0
 11 12  1  0
 12 13  2  0
 13 14  1  0
 14 15  2  0
 15 10  1  0
  1 16  1  0
  1 17  1  0
  1 18  1  0
  2 19  1  0
  2 20  1  0
  3 21  1  0
  3 22  1  0
  4 23  1  0
  4 24  1  0
  5 25  1  0
  5 26  1  0
  9 27  1  0
  9 28  1  0
 11 29  1  0
 12 30  1  0
 13 31  1  0
 14 32  1  0
 15 33  1  0
M  END
>  <Ligand ID>  (1) 
LIG0000381

>  <Ligand>  (1) 
pentyl 2-phenylacetate

>  <SMILES>  (1) 
CCCCCOC(=O)Cc1ccccc1

>  <CID>  (1) 
98492.0

>  <ChEMBL ID>  (1) 
nan

>  <InChiKey>  (1) 
LRVLBFSVAFUOGO-UHFFFAOYSA-N

>  <InChi>  (1) 
InChI=1S/C13H18O2/c1-2-3-7-10-15-13(14)11-12-8-5-4-6-9-12/h4-6,8-9H,2-3,7,10-11H2,1H3

>  <IUPAC Name>  (1) 
pentyl 2-phenylacetate

$$$$
