
     RDKit          3D

 57 58  0  0  0  0  0  0  0  0999 V2000
   -8.1606   -0.9079    1.8362 C   0  0  0  0  0  0  0  0  0  0  0  0
   -7.1925   -1.3185    0.7555 C   0  0  0  0  0  0  0  0  0  0  0  0
   -5.9122   -0.5122    0.9877 C   0  0  0  0  0  0  0  0  0  0  0  0
   -4.9330   -0.8770   -0.0433 C   0  0  0  0  0  0  0  0  0  0  0  0
   -5.1692   -1.7314   -0.9548 O   0  0  0  0  0  0  0  0  0  0  0  0
   -3.6135   -0.2631   -0.0715 C   0  0  0  0  0  0  0  0  0  0  0  0
   -3.2159    0.6776    0.8504 C   0  0  0  0  0  0  0  0  0  0  0  0
   -1.9501    1.2200    0.7660 C   0  0  0  0  0  0  0  0  0  0  0  0
   -1.0433    0.8586   -0.2177 C   0  0  0  0  0  0  0  0  0  0  0  0
   -1.4427   -0.0875   -1.1452 C   0  0  0  0  0  0  0  0  0  0  0  0
   -2.7260   -0.6335   -1.0548 C   0  0  0  0  0  0  0  0  0  0  0  0
   -3.0462   -1.5747   -2.0233 O   0  0  0  0  0  0  0  0  0  0  0  0
   -0.4892   -0.4932   -2.2112 C   0  0  0  0  0  0  0  0  0  0  0  0
    0.2388    1.4388   -0.2653 O   0  0  0  0  0  0  0  0  0  0  0  0
    0.5995    2.3869    0.6875 C   0  0  0  0  0  0  0  0  0  0  0  0
    1.9844    2.9126    0.5118 C   0  0  0  0  0  0  0  0  0  0  0  0
    3.0354    1.8589    0.6417 C   0  0  0  0  0  0  0  0  0  0  0  0
    2.9782    0.7327   -0.3243 C   0  0  0  0  0  0  0  0  0  0  0  0
    4.0003   -0.1766   -0.1684 O   0  0  0  0  0  0  0  0  0  0  0  0
    5.3392   -0.1176   -0.2887 C   0  0  0  0  0  0  0  0  0  0  0  0
    6.1069    0.9608   -0.6534 C   0  0  0  0  0  0  0  0  0  0  0  0
    7.4965    0.9060   -0.7417 C   0  0  0  0  0  0  0  0  0  0  0  0
    8.1750   -0.2575   -0.4617 C   0  0  0  0  0  0  0  0  0  0  0  0
    7.4251   -1.3513   -0.0948 C   0  0  0  0  0  0  0  0  0  0  0  0
    6.0545   -1.2925   -0.0087 C   0  0  0  0  0  0  0  0  0  0  0  0
    8.1080   -2.6109    0.2118 C   0  0  0  0  0  0  0  0  0  0  0  0
    7.4549   -3.6493    0.5557 O   0  0  0  0  0  0  0  0  0  0  0  0
    9.4890   -2.7059    0.1352 O   0  0  0  0  0  0  0  0  0  0  0  0
   -7.7240   -0.9636   -0.6203 C   0  0  0  0  0  0  0  0  0  0  0  0
   -8.9682   -1.6523    1.9829 H   0  0  0  0  0  0  0  0  0  0  0  0
   -7.6605   -0.7756    2.8128 H   0  0  0  0  0  0  0  0  0  0  0  0
   -8.6672    0.0551    1.5983 H   0  0  0  0  0  0  0  0  0  0  0  0
   -6.9937   -2.3932    0.7889 H   0  0  0  0  0  0  0  0  0  0  0  0
   -5.5283   -0.6698    2.0092 H   0  0  0  0  0  0  0  0  0  0  0  0
   -6.1409    0.5660    0.9089 H   0  0  0  0  0  0  0  0  0  0  0  0
   -3.9124    0.9707    1.6251 H   0  0  0  0  0  0  0  0  0  0  0  0
   -1.6496    1.9641    1.5035 H   0  0  0  0  0  0  0  0  0  0  0  0
   -3.0832   -1.2249   -2.9866 H   0  0  0  0  0  0  0  0  0  0  0  0
   -0.9478   -1.3755   -2.7275 H   0  0  0  0  0  0  0  0  0  0  0  0
   -0.2568    0.3178   -2.9114 H   0  0  0  0  0  0  0  0  0  0  0  0
    0.4170   -0.8925   -1.6802 H   0  0  0  0  0  0  0  0  0  0  0  0
    0.5636    1.9280    1.7153 H   0  0  0  0  0  0  0  0  0  0  0  0
   -0.1099    3.2569    0.7052 H   0  0  0  0  0  0  0  0  0  0  0  0
    2.1287    3.4161   -0.4788 H   0  0  0  0  0  0  0  0  0  0  0  0
    2.1226    3.6784    1.3373 H   0  0  0  0  0  0  0  0  0  0  0  0
    4.0225    2.3731    0.5900 H   0  0  0  0  0  0  0  0  0  0  0  0
    2.9280    1.4025    1.6786 H   0  0  0  0  0  0  0  0  0  0  0  0
    2.8926    1.0937   -1.3936 H   0  0  0  0  0  0  0  0  0  0  0  0
    2.0213    0.1373   -0.1833 H   0  0  0  0  0  0  0  0  0  0  0  0
    5.6664    1.9086   -0.9080 H   0  0  0  0  0  0  0  0  0  0  0  0
    8.0637    1.7859   -1.0342 H   0  0  0  0  0  0  0  0  0  0  0  0
    9.2490   -0.2520   -0.5436 H   0  0  0  0  0  0  0  0  0  0  0  0
    5.5300   -2.1906    0.2858 H   0  0  0  0  0  0  0  0  0  0  0  0
   10.0318   -3.3917    0.6256 H   0  0  0  0  0  0  0  0  0  0  0  0
   -8.8276   -0.8078   -0.5821 H   0  0  0  0  0  0  0  0  0  0  0  0
   -7.4650   -1.6883   -1.3998 H   0  0  0  0  0  0  0  0  0  0  0  0
   -7.2933    0.0313   -0.9363 H   0  0  0  0  0  0  0  0  0  0  0  0
  1  2  1  0
  2  3  1  0
  3  4  1  0
  4  5  2  0
  4  6  1  0
  6  7  2  0
  7  8  1  0
  8  9  2  0
  9 10  1  0
 10 11  2  0
 11 12  1  0
 10 13  1  0
  9 14  1  0
 14 15  1  0
 15 16  1  0
 16 17  1  0
 17 18  1  0
 18 19  1  0
 19 20  1  0
 20 21  2  0
 21 22  1  0
 22 23  2  0
 23 24  1  0
 24 25  2  0
 24 26  1  0
 26 27  2  0
 26 28  1  0
  2 29  1  0
 11  6  1  0
 25 20  1  0
  1 30  1  0
  1 31  1  0
  1 32  1  0
  2 33  1  0
  3 34  1  0
  3 35  1  0
  7 36  1  0
  8 37  1  0
 12 38  1  0
 13 39  1  0
 13 40  1  0
 13 41  1  0
 15 42  1  0
 15 43  1  0
 16 44  1  0
 16 45  1  0
 17 46  1  0
 17 47  1  0
 18 48  1  0
 18 49  1  0
 21 50  1  0
 22 51  1  0
 23 52  1  0
 25 53  1  0
 28 54  1  0
 29 55  1  0
 29 56  1  0
 29 57  1  0
M  END
>  <Ligand ID>  (1) 
LIG0003646

>  <Ligand>  (1) 
CHEMBL3287675

>  <SMILES>  (1) 
CC(CC(=O)c1ccc(c(c1O)C)OCCCCOc1cccc(c1)C(=O)O)C

>  <CID>  (1) 
90643860.0

>  <ChEMBL ID>  (1) 
nan

>  <InChiKey>  (1) 
BTAUFYWICSLREV-UHFFFAOYSA-N

>  <InChi>  (1) 
InChI=1S/C23H28O6/c1-15(2)13-20(24)19-9-10-21(16(3)22(19)25)29-12-5-4-11-28-18-8-6-7-17(14-18)23(26)27/h6-10,14-15,25H,4-5,11-13H2,1-3H3,(H,26,27)

>  <IUPAC Name>  (1) 
3-[4-[3-hydroxy-2-methyl-4-(3-methylbutanoyl)phenoxy]butoxy]benzoic acid

$$$$
