
     RDKit          3D

 53 55  0  0  0  0  0  0  0  0999 V2000
   -0.5164   -0.2410    0.5172 O   0  0  0  0  0  0  0  0  0  0  0  0
   -0.6762    0.4828   -0.5004 C   0  0  0  0  0  0  0  0  0  0  0  0
   -1.8623    1.4063   -0.6337 C   0  0  0  0  0  0  0  0  0  0  0  0
   -2.7212    1.2760    0.6028 C   0  0  0  0  0  0  0  0  0  0  0  0
   -3.8677    2.1612    0.4909 C   0  0  0  0  0  0  0  0  0  0  0  0
   -4.5759    2.4276   -0.6611 C   0  0  0  0  0  0  0  0  0  0  0  0
   -5.6596    3.2804   -0.7076 C   0  0  0  0  0  0  0  0  0  0  0  0
   -6.0853    3.9175    0.4394 C   0  0  0  0  0  0  0  0  0  0  0  0
   -5.4017    3.6757    1.6105 C   0  0  0  0  0  0  0  0  0  0  0  0
   -4.3245    2.8234    1.6390 C   0  0  0  0  0  0  0  0  0  0  0  0
   -3.0384   -0.1360    0.8724 C   0  0  0  0  0  0  0  0  0  0  0  0
   -3.1471   -0.6320    2.1569 C   0  0  0  0  0  0  0  0  0  0  0  0
   -3.4471   -1.9672    2.4150 C   0  0  0  0  0  0  0  0  0  0  0  0
   -3.6385   -2.8058    1.3367 C   0  0  0  0  0  0  0  0  0  0  0  0
   -3.5349   -2.3320    0.0455 C   0  0  0  0  0  0  0  0  0  0  0  0
   -3.2367   -1.0054   -0.1794 C   0  0  0  0  0  0  0  0  0  0  0  0
    0.2344    0.4928   -1.5971 N   0  0  0  0  0  0  0  0  0  0  0  0
    1.3910   -0.3393   -1.5811 C   0  0  0  0  0  0  0  0  0  0  0  0
    1.6164   -1.1165   -0.5522 N   0  0  0  0  0  0  0  0  0  0  0  0
    2.7838   -1.9759   -0.5036 C   0  0  0  0  0  0  0  0  0  0  0  0
    3.9932   -1.2513    0.0231 C   0  0  0  0  0  0  0  0  0  0  0  0
    5.2119   -2.1724    0.0669 C   0  0  0  0  0  0  0  0  0  0  0  0
    6.3830   -1.4427    0.5851 C   0  0  0  0  0  0  0  0  0  0  0  0
    6.7564   -1.3488    1.9084 C   0  0  0  0  0  0  0  0  0  0  0  0
    7.8851   -0.5955    1.9906 N   0  0  0  0  0  0  0  0  0  0  0  0
    8.2115   -0.2245    0.7371 C   0  0  0  0  0  0  0  0  0  0  0  0
    7.2841   -0.7503   -0.1080 N   0  0  0  0  0  0  0  0  0  0  0  0
    2.2724   -0.2965   -2.6979 N   0  0  0  0  0  0  0  0  0  0  0  0
   -2.3998    1.2191   -1.5689 H   0  0  0  0  0  0  0  0  0  0  0  0
   -1.4323    2.4245   -0.7296 H   0  0  0  0  0  0  0  0  0  0  0  0
   -2.0955    1.6190    1.4800 H   0  0  0  0  0  0  0  0  0  0  0  0
   -4.2829    1.9565   -1.5711 H   0  0  0  0  0  0  0  0  0  0  0  0
   -6.2089    3.4839   -1.6133 H   0  0  0  0  0  0  0  0  0  0  0  0
   -6.9349    4.5856    0.4010 H   0  0  0  0  0  0  0  0  0  0  0  0
   -5.7297    4.1770    2.5347 H   0  0  0  0  0  0  0  0  0  0  0  0
   -3.7987    2.6508    2.5916 H   0  0  0  0  0  0  0  0  0  0  0  0
   -2.9969    0.0262    3.0140 H   0  0  0  0  0  0  0  0  0  0  0  0
   -3.5319   -2.3543    3.4289 H   0  0  0  0  0  0  0  0  0  0  0  0
   -3.8755   -3.8603    1.5375 H   0  0  0  0  0  0  0  0  0  0  0  0
   -3.6971   -3.0444   -0.7538 H   0  0  0  0  0  0  0  0  0  0  0  0
   -3.1612   -0.6593   -1.2186 H   0  0  0  0  0  0  0  0  0  0  0  0
    0.0754    1.1067   -2.4324 H   0  0  0  0  0  0  0  0  0  0  0  0
    2.9845   -2.2997   -1.5553 H   0  0  0  0  0  0  0  0  0  0  0  0
    2.6049   -2.8996    0.0705 H   0  0  0  0  0  0  0  0  0  0  0  0
    3.7983   -0.8991    1.0527 H   0  0  0  0  0  0  0  0  0  0  0  0
    4.2076   -0.3905   -0.6408 H   0  0  0  0  0  0  0  0  0  0  0  0
    4.9536   -3.0802    0.6490 H   0  0  0  0  0  0  0  0  0  0  0  0
    5.4088   -2.4764   -0.9869 H   0  0  0  0  0  0  0  0  0  0  0  0
    6.2389   -1.7978    2.7346 H   0  0  0  0  0  0  0  0  0  0  0  0
    9.0637    0.3829    0.4770 H   0  0  0  0  0  0  0  0  0  0  0  0
    7.2715   -0.6337   -1.1511 H   0  0  0  0  0  0  0  0  0  0  0  0
    2.3137   -1.0608   -3.4176 H   0  0  0  0  0  0  0  0  0  0  0  0
    2.9346    0.5133   -2.8598 H   0  0  0  0  0  0  0  0  0  0  0  0
  1  2  2  0
  2  3  1  0
  3  4  1  0
  4  5  1  0
  5  6  2  0
  6  7  1  0
  7  8  2  0
  8  9  1  0
  9 10  2  0
  4 11  1  0
 11 12  2  0
 12 13  1  0
 13 14  2  0
 14 15  1  0
 15 16  2  0
  2 17  1  0
 17 18  1  0
 18 19  2  3
 19 20  1  0
 20 21  1  0
 21 22  1  0
 22 23  1  0
 23 24  2  0
 24 25  1  0
 25 26  2  0
 26 27  1  0
 18 28  1  0
 10  5  1  0
 16 11  1  0
 27 23  1  0
  3 29  1  0
  3 30  1  0
  4 31  1  0
  6 32  1  0
  7 33  1  0
  8 34  1  0
  9 35  1  0
 10 36  1  0
 12 37  1  0
 13 38  1  0
 14 39  1  0
 15 40  1  0
 16 41  1  0
 17 42  1  0
 20 43  1  0
 20 44  1  0
 21 45  1  0
 21 46  1  0
 22 47  1  0
 22 48  1  0
 24 49  1  0
 26 50  1  0
 27 51  1  0
 28 52  1  0
 28 53  1  0
M  END
>  <Ligand ID>  (1) 
LIG0002608

>  <Ligand>  (1) 
CHEMBL471413

>  <SMILES>  (1) 
O=C(CC(c1ccccc1)c1ccccc1)NC(=NCCCc1cnc[nH]1)N

>  <CID>  (1) 
25149521.0

>  <ChEMBL ID>  (1) 
nan

>  <InChiKey>  (1) 
UPTJWSNQGUAZJA-UHFFFAOYSA-N

>  <InChi>  (1) 
InChI=1S/C22H25N5O/c23-22(25-13-7-12-19-15-24-16-26-19)27-21(28)14-20(17-8-3-1-4-9-17)18-10-5-2-6-11-18/h1-6,8-11,15-16,20H,7,12-14H2,(H,24,26)(H3,23,25,27,28)

>  <IUPAC Name>  (1) 
N-[N'-[3-(1H-imidazol-5-yl)propyl]carbamimidoyl]-3,3-diphenylpropanamide

$$$$
