
     RDKit          3D

 72 77  0  0  0  0  0  0  0  0999 V2000
   -8.2947    4.1349   -2.3903 C   0  0  0  0  0  0  0  0  0  0  0  0
   -7.9213    2.8006   -2.6812 O   0  0  0  0  0  0  0  0  0  0  0  0
   -6.7634    2.3242   -2.0838 C   0  0  0  0  0  0  0  0  0  0  0  0
   -5.9852    3.1073   -1.2295 C   0  0  0  0  0  0  0  0  0  0  0  0
   -4.8349    2.6282   -0.6389 C   0  0  0  0  0  0  0  0  0  0  0  0
   -4.4255    1.3363   -0.8891 C   0  0  0  0  0  0  0  0  0  0  0  0
   -5.1751    0.5607   -1.7200 C   0  0  0  0  0  0  0  0  0  0  0  0
   -6.3356    1.0206   -2.3258 C   0  0  0  0  0  0  0  0  0  0  0  0
   -3.2233    0.7479   -0.3116 C   0  0  0  0  0  0  0  0  0  0  0  0
   -1.9561    1.2431   -0.5254 C   0  0  0  0  0  0  0  0  0  0  0  0
   -0.9274    0.6137    0.0513 N   0  0  0  0  0  0  0  0  0  0  0  0
   -0.9996   -0.4670    0.8302 C   0  0  0  0  0  0  0  0  0  0  0  0
   -2.2611   -0.9563    1.0416 N   0  0  0  0  0  0  0  0  0  0  0  0
   -3.3376   -0.3672    0.4882 C   0  0  0  0  0  0  0  0  0  0  0  0
   -4.6379   -0.9760    0.7780 C   0  0  0  0  0  0  0  0  0  0  0  0
   -5.6496   -0.2851    1.4170 C   0  0  0  0  0  0  0  0  0  0  0  0
   -6.8267   -0.9680    1.6377 C   0  0  0  0  0  0  0  0  0  0  0  0
   -7.0083   -2.2844    1.2457 C   0  0  0  0  0  0  0  0  0  0  0  0
   -5.9959   -2.9635    0.6102 C   0  0  0  0  0  0  0  0  0  0  0  0
   -4.7887   -2.2961    0.3727 C   0  0  0  0  0  0  0  0  0  0  0  0
   -3.7885   -2.9600   -0.2522 F   0  0  0  0  0  0  0  0  0  0  0  0
   -8.2843   -3.0219    1.4875 C   0  0  0  0  0  0  0  0  0  0  0  0
    0.1265   -1.1453    1.4340 C   0  0  0  0  0  0  0  0  0  0  0  0
   -0.1422   -2.2194    2.0875 O   0  0  0  0  0  0  0  0  0  0  0  0
    1.4720   -0.7439    1.3722 N   0  0  0  0  0  0  0  0  0  0  0  0
    1.9927    0.4246    0.7068 C   0  0  0  0  0  0  0  0  0  0  0  0
    3.1473   -0.0766   -0.1846 C   0  0  0  0  0  0  0  0  0  0  0  0
    4.2277   -0.4338    0.7147 N   0  0  0  0  0  0  0  0  0  0  0  0
    3.8422   -0.9199    2.0303 C   0  0  0  0  0  0  0  0  0  0  0  0
    2.4811   -1.5853    2.0362 C   0  0  0  0  0  0  0  0  0  0  0  0
    5.6108   -0.3171    0.3354 C   0  0  0  0  0  0  0  0  0  0  0  0
    6.6320   -0.7046    1.1932 C   0  0  0  0  0  0  0  0  0  0  0  0
    7.9692   -0.5966    0.8450 C   0  0  0  0  0  0  0  0  0  0  0  0
    8.9264   -1.0048    1.7487 C   0  0  0  0  0  0  0  0  0  0  0  0
   10.2631   -0.9076    1.4206 C   0  0  0  0  0  0  0  0  0  0  0  0
   10.5570   -0.3941    0.1756 C   0  0  0  0  0  0  0  0  0  0  0  0
    9.5998    0.0144   -0.7286 C   0  0  0  0  0  0  0  0  0  0  0  0
    8.2684   -0.0827   -0.4029 C   0  0  0  0  0  0  0  0  0  0  0  0
    7.3009    0.3218   -1.3043 C   0  0  0  0  0  0  0  0  0  0  0  0
    5.9893    0.1818   -0.8825 C   0  0  0  0  0  0  0  0  0  0  0  0
    7.5740    0.8675   -2.6090 C   0  0  0  0  0  0  0  0  0  0  0  0
    8.6732    1.0711   -3.1501 O   0  0  0  0  0  0  0  0  0  0  0  0
    6.4638    1.2310   -3.4085 O   0  0  0  0  0  0  0  0  0  0  0  0
   -8.2974    4.2009   -1.2652 H   0  0  0  0  0  0  0  0  0  0  0  0
   -9.2560    4.4231   -2.8461 H   0  0  0  0  0  0  0  0  0  0  0  0
   -7.4648    4.8063   -2.7249 H   0  0  0  0  0  0  0  0  0  0  0  0
   -6.2817    4.1303   -1.0115 H   0  0  0  0  0  0  0  0  0  0  0  0
   -4.2376    3.2356    0.0193 H   0  0  0  0  0  0  0  0  0  0  0  0
   -4.8790   -0.4594   -1.9365 H   0  0  0  0  0  0  0  0  0  0  0  0
   -6.8802    0.3426   -2.9771 H   0  0  0  0  0  0  0  0  0  0  0  0
   -1.8452    2.1239   -1.1527 H   0  0  0  0  0  0  0  0  0  0  0  0
   -5.5152    0.7309    1.7219 H   0  0  0  0  0  0  0  0  0  0  0  0
   -7.6686   -0.4789    2.1392 H   0  0  0  0  0  0  0  0  0  0  0  0
   -6.1125   -4.0078    0.2887 H   0  0  0  0  0  0  0  0  0  0  0  0
   -9.0501   -2.2609    1.7311 H   0  0  0  0  0  0  0  0  0  0  0  0
   -8.6257   -3.5625    0.5673 H   0  0  0  0  0  0  0  0  0  0  0  0
   -8.1312   -3.7675    2.2972 H   0  0  0  0  0  0  0  0  0  0  0  0
    2.4647    1.1359    1.4281 H   0  0  0  0  0  0  0  0  0  0  0  0
    1.3211    0.9624    0.0554 H   0  0  0  0  0  0  0  0  0  0  0  0
    3.3869    0.7111   -0.9041 H   0  0  0  0  0  0  0  0  0  0  0  0
    2.7573   -1.0133   -0.6670 H   0  0  0  0  0  0  0  0  0  0  0  0
    4.5560   -1.6496    2.4366 H   0  0  0  0  0  0  0  0  0  0  0  0
    3.8691   -0.0283    2.7069 H   0  0  0  0  0  0  0  0  0  0  0  0
    2.5926   -2.5070    1.4236 H   0  0  0  0  0  0  0  0  0  0  0  0
    2.2155   -1.8013    3.0810 H   0  0  0  0  0  0  0  0  0  0  0  0
    6.4301   -1.1050    2.1735 H   0  0  0  0  0  0  0  0  0  0  0  0
    8.6617   -1.4036    2.7196 H   0  0  0  0  0  0  0  0  0  0  0  0
   11.0703   -1.2055    2.0716 H   0  0  0  0  0  0  0  0  0  0  0  0
   11.6035   -0.3154   -0.0885 H   0  0  0  0  0  0  0  0  0  0  0  0
    9.9342    0.3924   -1.6555 H   0  0  0  0  0  0  0  0  0  0  0  0
    5.2218    0.4872   -1.5682 H   0  0  0  0  0  0  0  0  0  0  0  0
    6.6060    1.9309   -4.1466 H   0  0  0  0  0  0  0  0  0  0  0  0
  1  2  1  0
  2  3  1  0
  3  4  2  0
  4  5  1  0
  5  6  2  0
  6  7  1  0
  7  8  2  0
  6  9  1  0
  9 10  2  0
 10 11  1  0
 11 12  2  0
 12 13  1  0
 13 14  2  0
 14 15  1  0
 15 16  2  0
 16 17  1  0
 17 18  2  0
 18 19  1  0
 19 20  2  0
 20 21  1  0
 18 22  1  0
 12 23  1  0
 23 24  2  0
 23 25  1  0
 25 26  1  0
 26 27  1  0
 27 28  1  0
 28 29  1  0
 29 30  1  0
 28 31  1  0
 31 32  2  0
 32 33  1  0
 33 34  2  0
 34 35  1  0
 35 36  2  0
 36 37  1  0
 37 38  2  0
 38 39  1  0
 39 40  2  0
 39 41  1  0
 41 42  2  0
 41 43  1  0
  8  3  1  0
 14  9  1  0
 20 15  1  0
 30 25  1  0
 40 31  1  0
 38 33  1  0
  1 44  1  0
  1 45  1  0
  1 46  1  0
  4 47  1  0
  5 48  1  0
  7 49  1  0
  8 50  1  0
 10 51  1  0
 16 52  1  0
 17 53  1  0
 19 54  1  0
 22 55  1  0
 22 56  1  0
 22 57  1  0
 26 58  1  0
 26 59  1  0
 27 60  1  0
 27 61  1  0
 29 62  1  0
 29 63  1  0
 30 64  1  0
 30 65  1  0
 32 66  1  0
 34 67  1  0
 35 68  1  0
 36 69  1  0
 37 70  1  0
 40 71  1  0
 43 72  1  0
M  END
>  <Ligand ID>  (1) 
LIG0003710

>  <Ligand>  (1) 
CHEMBL1774043

>  <SMILES>  (1) 
COc1ccc(cc1)c1cnc(nc1c1ccc(cc1F)C)C(=O)N1CCN(CC1)c1cc2ccccc2c(c1)C(=O)O

>  <CID>  (1) 
46869398.0

>  <ChEMBL ID>  (1) 
nan

>  <InChiKey>  (1) 
SLFCKQWVMXDHDU-UHFFFAOYSA-N

>  <InChi>  (1) 
InChI=1S/C34H29FN4O4/c1-21-7-12-27(30(35)17-21)31-29(22-8-10-25(43-2)11-9-22)20-36-32(37-31)33(40)39-15-13-38(14-16-39)24-18-23-5-3-4-6-26(23)28(19-24)34(41)42/h3-12,17-20H,13-16H2,1-2H3,(H,41,42)

>  <IUPAC Name>  (1) 
3-[4-[4-(2-fluoro-4-methylphenyl)-5-(4-methoxyphenyl)pyrimidine-2-carbonyl]piperazin-1-yl]naphthalene-1-carboxylic acid

$$$$
