
     RDKit          3D

 34 33  0  0  0  0  0  0  0  0999 V2000
    0.9492   -1.5726    1.6639 C   0  0  0  0  0  0  0  0  0  0  0  0
    0.7053   -0.6835    0.4857 C   0  0  0  0  0  0  0  0  0  0  0  0
    1.7237   -0.4304   -0.3235 C   0  0  0  0  0  0  0  0  0  0  0  0
    3.0607   -1.0189   -0.0563 C   0  0  0  0  0  0  0  0  0  0  0  0
    4.0162    0.0112    0.1268 O   0  0  0  0  0  0  0  0  0  0  0  0
    4.2183    0.8897   -0.9155 C   0  0  0  0  0  0  0  0  0  0  0  0
    3.6291    0.8559   -2.0126 O   0  0  0  0  0  0  0  0  0  0  0  0
    5.2244    1.9691   -0.7138 C   0  0  0  0  0  0  0  0  0  0  0  0
   -0.6754   -0.0925    0.2382 C   0  0  0  0  0  0  0  0  0  0  0  0
   -1.6349   -1.2291    0.0571 C   0  0  0  0  0  0  0  0  0  0  0  0
   -3.0382   -0.8988   -0.1820 C   0  0  0  0  0  0  0  0  0  0  0  0
   -3.6692    0.2254   -0.2386 C   0  0  0  0  0  0  0  0  0  0  0  0
   -5.1743    0.1704   -0.5175 C   0  0  0  0  0  0  0  0  0  0  0  0
   -3.1354    1.5932   -0.0599 C   0  0  0  0  0  0  0  0  0  0  0  0
   -0.0013   -1.6185    2.2733 H   0  0  0  0  0  0  0  0  0  0  0  0
    1.7602   -1.1261    2.2808 H   0  0  0  0  0  0  0  0  0  0  0  0
    1.1620   -2.5805    1.2836 H   0  0  0  0  0  0  0  0  0  0  0  0
    1.5434    0.2145   -1.1762 H   0  0  0  0  0  0  0  0  0  0  0  0
    3.4112   -1.6260   -0.9173 H   0  0  0  0  0  0  0  0  0  0  0  0
    2.9964   -1.7237    0.7857 H   0  0  0  0  0  0  0  0  0  0  0  0
    4.9336    2.8459   -1.2938 H   0  0  0  0  0  0  0  0  0  0  0  0
    5.2743    2.2376    0.3588 H   0  0  0  0  0  0  0  0  0  0  0  0
    6.2059    1.5732   -1.0757 H   0  0  0  0  0  0  0  0  0  0  0  0
   -0.5393    0.4428   -0.7460 H   0  0  0  0  0  0  0  0  0  0  0  0
   -0.8836    0.5709    1.0702 H   0  0  0  0  0  0  0  0  0  0  0  0
   -1.2426   -1.9001   -0.7757 H   0  0  0  0  0  0  0  0  0  0  0  0
   -1.5249   -1.9025    0.9681 H   0  0  0  0  0  0  0  0  0  0  0  0
   -3.6810   -1.8173   -0.3476 H   0  0  0  0  0  0  0  0  0  0  0  0
   -5.5379   -0.8563   -0.4530 H   0  0  0  0  0  0  0  0  0  0  0  0
   -5.3137    0.5860   -1.5207 H   0  0  0  0  0  0  0  0  0  0  0  0
   -5.6111    0.8316    0.2847 H   0  0  0  0  0  0  0  0  0  0  0  0
   -2.3551    1.8680   -0.7886 H   0  0  0  0  0  0  0  0  0  0  0  0
   -2.8513    1.8213    1.0083 H   0  0  0  0  0  0  0  0  0  0  0  0
   -3.9448    2.3699   -0.2446 H   0  0  0  0  0  0  0  0  0  0  0  0
  1  2  1  0
  2  3  2  3
  3  4  1  0
  4  5  1  0
  5  6  1  0
  6  7  2  0
  6  8  1  0
  2  9  1  0
  9 10  1  0
 10 11  1  0
 11 12  2  3
 12 13  1  0
 12 14  1  0
  1 15  1  0
  1 16  1  0
  1 17  1  0
  3 18  1  0
  4 19  1  0
  4 20  1  0
  8 21  1  0
  8 22  1  0
  8 23  1  0
  9 24  1  0
  9 25  1  0
 10 26  1  0
 10 27  1  0
 11 28  1  0
 13 29  1  0
 13 30  1  0
 13 31  1  0
 14 32  1  0
 14 33  1  0
 14 34  1  0
M  END
>  <Ligand ID>  (1) 
LIG0002049

>  <Ligand>  (1) 
3,7-dimethylocta-2,6-dienyl acetate

>  <SMILES>  (1) 
CC(=CCOC(=O)C)CCC=C(C)C

>  <CID>  (1) 
7780.0

>  <ChEMBL ID>  (1) 
nan

>  <InChiKey>  (1) 
HIGQPQRQIQDZMP-UHFFFAOYSA-N

>  <InChi>  (1) 
InChI=1S/C12H20O2/c1-10(2)6-5-7-11(3)8-9-14-12(4)13/h6,8H,5,7,9H2,1-4H3

>  <IUPAC Name>  (1) 
3,7-dimethylocta-2,6-dienyl acetate

$$$$
