
     RDKit          3D

 76 80  0  0  0  0  0  0  0  0999 V2000
   11.0844   -1.0307    0.5467 C   0  0  0  0  0  0  0  0  0  0  0  0
   10.1988   -0.0917   -0.2623 C   0  0  0  0  0  0  0  0  0  0  0  0
    9.2514   -0.9833   -1.0709 C   0  0  0  0  0  0  0  0  0  0  0  0
    8.4619   -1.7973   -0.0803 C   0  0  0  0  0  0  0  0  0  0  0  0
    7.6937   -1.0942    0.8237 O   0  0  0  0  0  0  0  0  0  0  0  0
    6.6385   -0.2781    0.6099 C   0  0  0  0  0  0  0  0  0  0  0  0
    6.0692    0.3268    1.7457 C   0  0  0  0  0  0  0  0  0  0  0  0
    4.9919    1.1749    1.6593 C   0  0  0  0  0  0  0  0  0  0  0  0
    4.4252    1.4652    0.4423 C   0  0  0  0  0  0  0  0  0  0  0  0
    4.9554    0.8916   -0.6905 C   0  0  0  0  0  0  0  0  0  0  0  0
    6.0429    0.0377   -0.5832 C   0  0  0  0  0  0  0  0  0  0  0  0
    3.0550    2.5290    0.2357 S   0  0  0  0  0  0  0  0  0  0  0  0
    3.0362    3.5588    1.3518 O   0  0  0  0  0  0  0  0  0  0  0  0
    3.1956    3.2913   -1.0406 O   0  0  0  0  0  0  0  0  0  0  0  0
    1.6248    1.6538    0.3184 N   0  0  0  0  0  0  0  0  0  0  0  0
    1.4363    0.6431   -0.6649 C   0  0  0  0  0  0  0  0  0  0  0  0
    0.0065    0.7023   -1.1490 C   0  0  0  0  0  0  0  0  0  0  0  0
   -0.8963    0.3948    0.0370 C   0  0  0  0  0  0  0  0  0  0  0  0
   -0.5598    1.3039    1.2054 C   0  0  0  0  0  0  0  0  0  0  0  0
    0.4765    2.3423    0.7870 C   0  0  0  0  0  0  0  0  0  0  0  0
   -2.2750    0.5382   -0.2779 N   0  0  0  0  0  0  0  0  0  0  0  0
   -2.7785   -0.2776   -1.3242 C   0  0  0  0  0  0  0  0  0  0  0  0
   -2.7810   -1.7402   -0.8439 C   0  0  1  0  0  0  0  0  0  0  0  0
   -3.7077   -1.7607    0.3387 C   0  0  0  0  0  0  0  0  0  0  0  0
   -4.9636   -1.3418    0.2242 O   0  0  0  0  0  0  0  0  0  0  0  0
   -6.0753   -1.6989   -0.4088 C   0  0  0  0  0  0  0  0  0  0  0  0
   -6.3138   -2.7682   -1.2269 C   0  0  0  0  0  0  0  0  0  0  0  0
   -7.5575   -3.0125   -1.8238 C   0  0  0  0  0  0  0  0  0  0  0  0
   -8.6191   -2.1671   -1.6067 C   0  0  0  0  0  0  0  0  0  0  0  0
   -8.4073   -1.0871   -0.7890 C   0  0  0  0  0  0  0  0  0  0  0  0
   -7.2012   -0.8546   -0.2137 C   0  0  0  0  0  0  0  0  0  0  0  0
   -7.3576    0.3092    0.5330 C   0  0  0  0  0  0  0  0  0  0  0  0
   -6.4896    1.0491    1.3390 C   0  0  0  0  0  0  0  0  0  0  0  0
   -6.9307    2.2093    1.9832 C   0  0  0  0  0  0  0  0  0  0  0  0
   -8.2382    2.6398    1.8290 C   0  0  0  0  0  0  0  0  0  0  0  0
   -9.0996    1.9129    1.0346 C   0  0  0  0  0  0  0  0  0  0  0  0
   -8.6590    0.7540    0.3907 C   0  0  0  0  0  0  0  0  0  0  0  0
   -9.2821   -0.1267   -0.4300 N   0  0  0  0  0  0  0  0  0  0  0  0
   -3.2532   -2.5310   -1.8548 O   0  0  0  0  0  0  0  0  0  0  0  0
   11.3551   -1.8741   -0.1345 H   0  0  0  0  0  0  0  0  0  0  0  0
   10.5910   -1.3741    1.4780 H   0  0  0  0  0  0  0  0  0  0  0  0
   12.0164   -0.4933    0.8466 H   0  0  0  0  0  0  0  0  0  0  0  0
    9.5407    0.4997    0.4247 H   0  0  0  0  0  0  0  0  0  0  0  0
   10.8328    0.5285   -0.8984 H   0  0  0  0  0  0  0  0  0  0  0  0
    9.8524   -1.7061   -1.6810 H   0  0  0  0  0  0  0  0  0  0  0  0
    8.6562   -0.3783   -1.7428 H   0  0  0  0  0  0  0  0  0  0  0  0
    9.1472   -2.5215    0.4488 H   0  0  0  0  0  0  0  0  0  0  0  0
    7.7914   -2.4701   -0.7024 H   0  0  0  0  0  0  0  0  0  0  0  0
    6.4815    0.1281    2.7290 H   0  0  0  0  0  0  0  0  0  0  0  0
    4.5676    1.6299    2.5349 H   0  0  0  0  0  0  0  0  0  0  0  0
    4.5330    1.0988   -1.6713 H   0  0  0  0  0  0  0  0  0  0  0  0
    6.3993   -0.3909   -1.4995 H   0  0  0  0  0  0  0  0  0  0  0  0
    1.5763   -0.3479   -0.1857 H   0  0  0  0  0  0  0  0  0  0  0  0
    2.1630    0.8204   -1.4806 H   0  0  0  0  0  0  0  0  0  0  0  0
   -0.1816   -0.0078   -1.9775 H   0  0  0  0  0  0  0  0  0  0  0  0
   -0.1731    1.7438   -1.5065 H   0  0  0  0  0  0  0  0  0  0  0  0
   -0.6119   -0.6218    0.3666 H   0  0  0  0  0  0  0  0  0  0  0  0
   -0.2161    0.7509    2.1047 H   0  0  0  0  0  0  0  0  0  0  0  0
   -1.4722    1.8568    1.4933 H   0  0  0  0  0  0  0  0  0  0  0  0
    0.0230    3.0439    0.0675 H   0  0  0  0  0  0  0  0  0  0  0  0
    0.7510    2.9265    1.6801 H   0  0  0  0  0  0  0  0  0  0  0  0
   -2.9008    0.7799    0.4880 H   0  0  0  0  0  0  0  0  0  0  0  0
   -2.2748   -0.1741   -2.2842 H   0  0  0  0  0  0  0  0  0  0  0  0
   -3.8662   -0.0391   -1.4785 H   0  0  0  0  0  0  0  0  0  0  0  0
   -1.7399   -2.0099   -0.5498 H   0  0  0  0  0  0  0  0  0  0  0  0
   -3.1793   -1.1264    1.1228 H   0  0  0  0  0  0  0  0  0  0  0  0
   -3.6719   -2.8370    0.7008 H   0  0  0  0  0  0  0  0  0  0  0  0
   -5.5643   -3.4973   -1.4388 H   0  0  0  0  0  0  0  0  0  0  0  0
   -7.6904   -3.8876   -2.4712 H   0  0  0  0  0  0  0  0  0  0  0  0
   -9.5605   -2.3811   -2.0784 H   0  0  0  0  0  0  0  0  0  0  0  0
   -5.4582    0.7144    1.4641 H   0  0  0  0  0  0  0  0  0  0  0  0
   -6.2826    2.7913    2.6051 H   0  0  0  0  0  0  0  0  0  0  0  0
   -8.5993    3.5405    2.3227 H   0  0  0  0  0  0  0  0  0  0  0  0
  -10.1407    2.2437    0.9032 H   0  0  0  0  0  0  0  0  0  0  0  0
  -10.2955   -0.0637   -0.7356 H   0  0  0  0  0  0  0  0  0  0  0  0
   -3.5970   -1.9808   -2.5945 H   0  0  0  0  0  0  0  0  0  0  0  0
  1  2  1  0
  2  3  1  0
  3  4  1  0
  4  5  1  0
  5  6  1  0
  6  7  2  0
  7  8  1  0
  8  9  2  0
  9 10  1  0
 10 11  2  0
  9 12  1  0
 12 13  2  0
 12 14  2  0
 12 15  1  0
 15 16  1  0
 16 17  1  0
 17 18  1  0
 18 19  1  0
 19 20  1  0
 18 21  1  0
 21 22  1  0
 22 23  1  0
 23 24  1  0
 24 25  1  0
 25 26  1  0
 26 27  2  0
 27 28  1  0
 28 29  2  0
 29 30  1  0
 30 31  2  0
 31 32  1  0
 32 33  2  0
 33 34  1  0
 34 35  2  0
 35 36  1  0
 36 37  2  0
 37 38  1  0
 23 39  1  0
 11  6  1  0
 20 15  1  0
 31 26  1  0
 37 32  1  0
 38 30  1  0
  1 40  1  0
  1 41  1  0
  1 42  1  0
  2 43  1  0
  2 44  1  0
  3 45  1  0
  3 46  1  0
  4 47  1  0
  4 48  1  0
  7 49  1  0
  8 50  1  0
 10 51  1  0
 11 52  1  0
 16 53  1  0
 16 54  1  0
 17 55  1  0
 17 56  1  0
 18 57  1  0
 19 58  1  0
 19 59  1  0
 20 60  1  0
 20 61  1  0
 21 62  1  0
 22 63  1  0
 22 64  1  0
 23 65  1  1
 24 66  1  0
 24 67  1  0
 27 68  1  0
 28 69  1  0
 29 70  1  0
 33 71  1  0
 34 72  1  0
 35 73  1  0
 36 74  1  0
 38 75  1  0
 39 76  1  0
M  END
>  <Ligand ID>  (1) 
LIG0004333

>  <Ligand>  (1) 
CHEMBL70230

>  <SMILES>  (1) 
CCCCOc1ccc(cc1)S(=O)(=O)N1CCC(CC1)NC[C@@H](COc1cccc2c1c1ccccc1[nH]2)O

>  <CID>  (1) 
10144004.0

>  <ChEMBL ID>  (1) 
nan

>  <InChiKey>  (1) 
OREPUSYBWQMUPX-QHCPKHFHSA-N

>  <InChi>  (1) 
InChI=1S/C30H37N3O5S/c1-2-3-19-37-24-11-13-25(14-12-24)39(35,36)33-17-15-22(16-18-33)31-20-23(34)21-38-29-10-6-9-28-30(29)26-7-4-5-8-27(26)32-28/h4-14,22-23,31-32,34H,2-3,15-21H2,1H3/t23-/m0/s1

>  <IUPAC Name>  (1) 
(2S)-1-[[1-(4-butoxyphenyl)sulfonylpiperidin-4-yl]amino]-3-(9H-carbazol-4-yloxy)propan-2-ol

$$$$
