
     RDKit          3D

 61 64  0  0  0  0  0  0  0  0999 V2000
    8.3217    1.7546    1.5909 N   0  0  0  0  0  0  0  0  0  0  0  0
    7.9558    1.6064    0.4844 C   0  0  0  0  0  0  0  0  0  0  0  0
    7.4866    1.4048   -0.8776 C   0  0  0  0  0  0  0  0  0  0  0  0
    7.5855    2.4408   -1.8076 C   0  0  0  0  0  0  0  0  0  0  0  0
    7.1481    2.2524   -3.0768 N   0  0  0  0  0  0  0  0  0  0  0  0
    6.6132    1.0735   -3.4669 C   0  0  0  0  0  0  0  0  0  0  0  0
    6.5213    0.0618   -2.5427 C   0  0  0  0  0  0  0  0  0  0  0  0
    6.9367    0.1700   -1.2506 C   0  0  0  0  0  0  0  0  0  0  0  0
    6.9029   -0.8698   -0.2138 C   0  0  0  0  0  0  0  0  0  0  0  0
    5.9676   -0.6225    0.7411 O   0  0  0  0  0  0  0  0  0  0  0  0
    4.6307   -0.5271    0.6747 C   0  0  0  0  0  0  0  0  0  0  0  0
    3.8112   -0.6756   -0.4127 C   0  0  0  0  0  0  0  0  0  0  0  0
    2.4630   -0.5461   -0.3256 N   0  0  0  0  0  0  0  0  0  0  0  0
    1.8562   -0.2636    0.8415 C   0  0  0  0  0  0  0  0  0  0  0  0
    2.6243   -0.1110    1.9308 N   0  0  0  0  0  0  0  0  0  0  0  0
    3.9593   -0.2313    1.8831 C   0  0  0  0  0  0  0  0  0  0  0  0
    0.4379   -0.1420    0.8595 N   0  0  0  0  0  0  0  0  0  0  0  0
   -0.3030   -0.3178   -0.3517 C   0  0  0  0  0  0  0  0  0  0  0  0
   -1.5400    0.5255   -0.4451 C   0  0  0  0  0  0  0  0  0  0  0  0
   -2.1838    0.7316    0.8333 N   0  0  0  0  0  0  0  0  0  0  0  0
   -1.3389    1.2026    1.9246 C   0  0  0  0  0  0  0  0  0  0  0  0
   -0.2572    0.1593    2.1017 C   0  0  1  0  0  0  0  0  0  0  0  0
   -0.9561   -1.1346    2.5176 C   0  0  0  0  0  0  0  0  0  0  0  0
   -3.5660    0.4927    1.0327 C   0  0  0  0  0  0  0  0  0  0  0  0
   -4.0898    0.6774    2.1359 O   0  0  0  0  0  0  0  0  0  0  0  0
   -4.3169    0.0529   -0.0162 O   0  0  0  0  0  0  0  0  0  0  0  0
   -5.6547   -0.2457   -0.0712 C   0  0  0  0  0  0  0  0  0  0  0  0
   -6.0141   -1.3564    0.8928 C   0  0  0  0  0  0  0  0  0  0  0  0
   -6.4449   -0.3836    1.7867 O   0  0  0  0  0  0  0  0  0  0  0  0
   -6.6670    0.4503    0.7314 C   0  0  0  0  0  0  0  0  0  0  0  0
   -6.0540   -0.5489   -1.5138 C   0  0  0  0  0  0  0  0  0  0  0  0
   -5.7271    0.7329   -2.2860 C   0  0  0  0  0  0  0  0  0  0  0  0
   -5.2127   -1.6457   -2.0995 C   0  0  0  0  0  0  0  0  0  0  0  0
    8.0037    3.3820   -1.5259 H   0  0  0  0  0  0  0  0  0  0  0  0
    6.2544    0.8884   -4.4709 H   0  0  0  0  0  0  0  0  0  0  0  0
    6.0921   -0.8985   -2.8434 H   0  0  0  0  0  0  0  0  0  0  0  0
    6.8049   -1.8823   -0.7002 H   0  0  0  0  0  0  0  0  0  0  0  0
    7.9253   -0.9593    0.2868 H   0  0  0  0  0  0  0  0  0  0  0  0
    4.2003   -0.9137   -1.3789 H   0  0  0  0  0  0  0  0  0  0  0  0
    4.5079   -0.0940    2.8037 H   0  0  0  0  0  0  0  0  0  0  0  0
   -0.5308   -1.4185   -0.4550 H   0  0  0  0  0  0  0  0  0  0  0  0
    0.3669   -0.0775   -1.2046 H   0  0  0  0  0  0  0  0  0  0  0  0
   -2.2672   -0.0128   -1.0891 H   0  0  0  0  0  0  0  0  0  0  0  0
   -1.3082    1.4730   -0.9739 H   0  0  0  0  0  0  0  0  0  0  0  0
   -0.9085    2.2028    1.6965 H   0  0  0  0  0  0  0  0  0  0  0  0
   -1.8935    1.2262    2.8864 H   0  0  0  0  0  0  0  0  0  0  0  0
    0.4803    0.4721    2.8729 H   0  0  0  0  0  0  0  0  0  0  0  0
   -1.7139   -1.3606    1.7389 H   0  0  0  0  0  0  0  0  0  0  0  0
   -0.2114   -1.9332    2.6511 H   0  0  0  0  0  0  0  0  0  0  0  0
   -1.5221   -0.9312    3.4466 H   0  0  0  0  0  0  0  0  0  0  0  0
   -5.1420   -1.8910    1.3319 H   0  0  0  0  0  0  0  0  0  0  0  0
   -6.8093   -2.0306    0.5157 H   0  0  0  0  0  0  0  0  0  0  0  0
   -6.6056    1.5348    0.8628 H   0  0  0  0  0  0  0  0  0  0  0  0
   -7.6903    0.2290    0.3069 H   0  0  0  0  0  0  0  0  0  0  0  0
   -7.1332   -0.6971   -1.5853 H   0  0  0  0  0  0  0  0  0  0  0  0
   -6.1311    1.5971   -1.7017 H   0  0  0  0  0  0  0  0  0  0  0  0
   -6.0892    0.7158   -3.3170 H   0  0  0  0  0  0  0  0  0  0  0  0
   -4.6191    0.8576   -2.2865 H   0  0  0  0  0  0  0  0  0  0  0  0
   -5.6368   -2.6644   -1.9650 H   0  0  0  0  0  0  0  0  0  0  0  0
   -5.1371   -1.4383   -3.1971 H   0  0  0  0  0  0  0  0  0  0  0  0
   -4.1824   -1.5435   -1.7116 H   0  0  0  0  0  0  0  0  0  0  0  0
  1  2  3  0
  2  3  1  0
  3  4  2  0
  4  5  1  0
  5  6  2  0
  6  7  1  0
  7  8  2  0
  8  9  1  0
  9 10  1  0
 10 11  1  0
 11 12  2  0
 12 13  1  0
 13 14  2  0
 14 15  1  0
 15 16  2  0
 14 17  1  0
 17 18  1  0
 18 19  1  0
 19 20  1  0
 20 21  1  0
 21 22  1  0
 22 23  1  0
 20 24  1  0
 24 25  2  0
 24 26  1  0
 26 27  1  0
 27 28  1  0
 28 29  1  0
 29 30  1  0
 27 31  1  0
 31 32  1  0
 31 33  1  0
  8  3  1  0
 16 11  1  0
 22 17  1  0
 30 27  1  0
  4 34  1  0
  6 35  1  0
  7 36  1  0
  9 37  1  0
  9 38  1  0
 12 39  1  0
 16 40  1  0
 18 41  1  0
 18 42  1  0
 19 43  1  0
 19 44  1  0
 21 45  1  0
 21 46  1  0
 22 47  1  1
 23 48  1  0
 23 49  1  0
 23 50  1  0
 28 51  1  0
 28 52  1  0
 30 53  1  0
 30 54  1  0
 31 55  1  0
 32 56  1  0
 32 57  1  0
 32 58  1  0
 33 59  1  0
 33 60  1  0
 33 61  1  0
M  END
>  <Ligand ID>  (1) 
LIG0005296

>  <Ligand>  (1) 
CHEMBL3220238

>  <SMILES>  (1) 
N#Cc1cnccc1COc1cnc(nc1)N1CCN(C[C@H]1C)C(=O)OC1(COC1)C(C)C

>  <CID>  (1) 
90666911.0

>  <ChEMBL ID>  (1) 
nan

>  <InChiKey>  (1) 
DDYCBJGOQOUBLC-QGZVFWFLSA-N

>  <InChi>  (1) 
InChI=1S/C23H28N6O4/c1-16(2)23(14-31-15-23)33-22(30)28-6-7-29(17(3)12-28)21-26-10-20(11-27-21)32-13-18-4-5-25-9-19(18)8-24/h4-5,9-11,16-17H,6-7,12-15H2,1-3H3/t17-/m1/s1

>  <IUPAC Name>  (1) 
(3-propan-2-yloxetan-3-yl) (3R)-4-[5-[(3-cyanopyridin-4-yl)methoxy]pyrimidin-2-yl]-3-methylpiperazine-1-carboxylate

$$$$
