
     RDKit          3D

 90 93  0  0  0  0  0  0  0  0999 V2000
    2.0151    6.0283    1.4848 N   0  0  0  0  0  0  0  0  0  0  0  0
    2.6535    5.3170    0.4264 C   0  0  0  0  0  0  0  0  0  0  0  0
    2.2760    4.1449    0.0587 N   0  0  0  0  0  0  0  0  0  0  0  0
    1.1699    3.4669    0.7012 C   0  0  0  0  0  0  0  0  0  0  0  0
    1.6254    2.3459    1.5793 C   0  0  0  0  0  0  0  0  0  0  0  0
    2.3892    1.3319    0.7697 C   0  0  0  0  0  0  0  0  0  0  0  0
    1.4908    0.7819   -0.2987 C   0  0  1  0  0  0  0  0  0  0  0  0
    2.2971   -0.2306   -1.0816 C   0  0  0  0  0  0  0  0  0  0  0  0
    3.2599    0.1868   -1.7673 O   0  0  0  0  0  0  0  0  0  0  0  0
    1.9729   -1.6164   -1.0406 N   0  0  0  0  0  0  0  0  0  0  0  0
    2.7324   -2.6206   -1.7860 C   0  0  2  0  0  0  0  0  0  0  0  0
    1.8076   -3.4789   -2.5547 C   0  0  0  0  0  0  0  0  0  0  0  0
    2.2998   -4.4045   -3.2619 O   0  0  0  0  0  0  0  0  0  0  0  0
    0.3963   -3.3341   -2.5525 N   0  0  0  0  0  0  0  0  0  0  0  0
    3.5551   -3.4575   -0.7968 C   0  0  0  0  0  0  0  0  0  0  0  0
    4.4818   -2.5232   -0.0711 C   0  0  0  0  0  0  0  0  0  0  0  0
    4.4002   -2.0060    1.1820 C   0  0  0  0  0  0  0  0  0  0  0  0
    5.4754   -1.1997    1.3765 N   0  0  0  0  0  0  0  0  0  0  0  0
    6.2510   -1.1806    0.2845 C   0  0  0  0  0  0  0  0  0  0  0  0
    5.6415   -2.0140   -0.6499 C   0  0  0  0  0  0  0  0  0  0  0  0
    6.1939   -2.2168   -1.8996 C   0  0  0  0  0  0  0  0  0  0  0  0
    7.3743   -1.5955   -2.2640 C   0  0  0  0  0  0  0  0  0  0  0  0
    7.9911   -0.7606   -1.3385 C   0  0  0  0  0  0  0  0  0  0  0  0
    7.4427   -0.5486   -0.0740 C   0  0  0  0  0  0  0  0  0  0  0  0
    0.4445    0.0355    0.3663 N   0  0  0  0  0  0  0  0  0  0  0  0
   -0.9256    0.2930    0.1117 C   0  0  0  0  0  0  0  0  0  0  0  0
   -1.3356    1.1740   -0.6917 O   0  0  0  0  0  0  0  0  0  0  0  0
   -1.9856   -0.5152    0.8247 C   0  0  1  0  0  0  0  0  0  0  0  0
   -1.8353   -0.3520    2.2859 C   0  0  0  0  0  0  0  0  0  0  0  0
   -2.2322    0.8330    2.8639 C   0  0  0  0  0  0  0  0  0  0  0  0
   -2.0845    0.9736    4.2497 C   0  0  0  0  0  0  0  0  0  0  0  0
   -1.5522   -0.0706    4.9756 C   0  0  0  0  0  0  0  0  0  0  0  0
   -1.1519   -1.2646    4.3961 C   0  0  0  0  0  0  0  0  0  0  0  0
   -1.3128   -1.3651    3.0313 C   0  0  0  0  0  0  0  0  0  0  0  0
   -3.3045   -0.0799    0.4426 N   0  0  0  0  0  0  0  0  0  0  0  0
   -4.1779   -0.8177   -0.4005 C   0  0  0  0  0  0  0  0  0  0  0  0
   -3.7617   -1.9197   -0.8422 O   0  0  0  0  0  0  0  0  0  0  0  0
   -5.5119   -0.2535   -0.7072 C   0  0  2  0  0  0  0  0  0  0  0  0
   -5.7489   -0.0685   -2.1981 C   0  0  0  0  0  0  0  0  0  0  0  0
   -5.6595   -1.3369   -2.9590 C   0  0  0  0  0  0  0  0  0  0  0  0
   -4.5533   -1.8701   -3.5342 N   0  0  0  0  0  0  0  0  0  0  0  0
   -4.9139   -3.0340   -4.1239 C   0  0  0  0  0  0  0  0  0  0  0  0
   -6.2298   -3.2579   -3.9382 N   0  0  0  0  0  0  0  0  0  0  0  0
   -6.7174   -2.2094   -3.2119 C   0  0  0  0  0  0  0  0  0  0  0  0
   -5.7450    0.9923    0.0020 N   0  0  0  0  0  0  0  0  0  0  0  0
   -6.8163    1.0578    0.9377 C   0  0  0  0  0  0  0  0  0  0  0  0
   -7.5487    0.0264    1.1320 O   0  0  0  0  0  0  0  0  0  0  0  0
   -7.1038    2.3028    1.6975 C   0  0  0  0  0  0  0  0  0  0  0  0
    3.7522    5.9368   -0.2444 N   0  0  0  0  0  0  0  0  0  0  0  0
    2.0612    5.6848    2.4908 H   0  0  0  0  0  0  0  0  0  0  0  0
    1.4892    6.9169    1.2409 H   0  0  0  0  0  0  0  0  0  0  0  0
    0.6298    4.2392    1.3280 H   0  0  0  0  0  0  0  0  0  0  0  0
    0.4395    3.1662   -0.0671 H   0  0  0  0  0  0  0  0  0  0  0  0
    0.6965    1.8173    1.9250 H   0  0  0  0  0  0  0  0  0  0  0  0
    2.1835    2.6884    2.4684 H   0  0  0  0  0  0  0  0  0  0  0  0
    3.3246    1.7486    0.3544 H   0  0  0  0  0  0  0  0  0  0  0  0
    2.6167    0.4613    1.4465 H   0  0  0  0  0  0  0  0  0  0  0  0
    1.1099    1.5250   -1.0067 H   0  0  0  0  0  0  0  0  0  0  0  0
    1.1806   -1.9757   -0.4783 H   0  0  0  0  0  0  0  0  0  0  0  0
    3.4701   -2.0977   -2.3995 H   0  0  0  0  0  0  0  0  0  0  0  0
   -0.0558   -3.1378   -3.4817 H   0  0  0  0  0  0  0  0  0  0  0  0
   -0.1699   -3.4183   -1.6703 H   0  0  0  0  0  0  0  0  0  0  0  0
    2.9395   -3.9848   -0.0720 H   0  0  0  0  0  0  0  0  0  0  0  0
    4.1758   -4.1870   -1.3495 H   0  0  0  0  0  0  0  0  0  0  0  0
    3.6106   -2.2154    1.8773 H   0  0  0  0  0  0  0  0  0  0  0  0
    5.7023   -0.6473    2.2517 H   0  0  0  0  0  0  0  0  0  0  0  0
    5.7195   -2.8739   -2.6388 H   0  0  0  0  0  0  0  0  0  0  0  0
    7.7636   -1.7844   -3.2459 H   0  0  0  0  0  0  0  0  0  0  0  0
    8.9226   -0.2729   -1.6330 H   0  0  0  0  0  0  0  0  0  0  0  0
    7.9254    0.1058    0.6520 H   0  0  0  0  0  0  0  0  0  0  0  0
    0.7130   -0.6901    1.0319 H   0  0  0  0  0  0  0  0  0  0  0  0
   -1.7735   -1.5573    0.5004 H   0  0  0  0  0  0  0  0  0  0  0  0
   -2.6493    1.6698    2.3299 H   0  0  0  0  0  0  0  0  0  0  0  0
   -2.3967    1.9038    4.7036 H   0  0  0  0  0  0  0  0  0  0  0  0
   -1.4246    0.0077    6.0546 H   0  0  0  0  0  0  0  0  0  0  0  0
   -0.7387   -2.0653    4.9836 H   0  0  0  0  0  0  0  0  0  0  0  0
   -0.9997   -2.3050    2.5628 H   0  0  0  0  0  0  0  0  0  0  0  0
   -3.6506    0.8343    0.7997 H   0  0  0  0  0  0  0  0  0  0  0  0
   -6.2661   -0.9793   -0.3488 H   0  0  0  0  0  0  0  0  0  0  0  0
   -4.9753    0.6263   -2.6352 H   0  0  0  0  0  0  0  0  0  0  0  0
   -6.7314    0.4152   -2.3538 H   0  0  0  0  0  0  0  0  0  0  0  0
   -3.5774   -1.4754   -3.5414 H   0  0  0  0  0  0  0  0  0  0  0  0
   -4.2815   -3.7022   -4.6642 H   0  0  0  0  0  0  0  0  0  0  0  0
   -7.7414   -2.0618   -2.8799 H   0  0  0  0  0  0  0  0  0  0  0  0
   -5.1804    1.8516   -0.1245 H   0  0  0  0  0  0  0  0  0  0  0  0
   -7.8239    2.0732    2.4957 H   0  0  0  0  0  0  0  0  0  0  0  0
   -7.5471    3.0372    1.0249 H   0  0  0  0  0  0  0  0  0  0  0  0
   -6.1708    2.6315    2.2018 H   0  0  0  0  0  0  0  0  0  0  0  0
    4.7112    5.5628   -0.2512 H   0  0  0  0  0  0  0  0  0  0  0  0
    3.5875    6.8390   -0.7735 H   0  0  0  0  0  0  0  0  0  0  0  0
  1  2  1  0
  2  3  2  3
  3  4  1  0
  4  5  1  0
  5  6  1  0
  6  7  1  0
  7  8  1  0
  8  9  2  0
  8 10  1  0
 10 11  1  0
 11 12  1  0
 12 13  2  0
 12 14  1  0
 11 15  1  0
 15 16  1  0
 16 17  2  0
 17 18  1  0
 18 19  1  0
 19 20  2  0
 20 21  1  0
 21 22  2  0
 22 23  1  0
 23 24  2  0
  7 25  1  0
 25 26  1  0
 26 27  2  0
 26 28  1  0
 28 29  1  0
 29 30  2  0
 30 31  1  0
 31 32  2  0
 32 33  1  0
 33 34  2  0
 28 35  1  0
 35 36  1  0
 36 37  2  0
 36 38  1  0
 38 39  1  0
 39 40  1  0
 40 41  1  0
 41 42  1  0
 42 43  2  0
 43 44  1  0
 38 45  1  0
 45 46  1  0
 46 47  2  0
 46 48  1  0
  2 49  1  0
 20 16  1  0
 34 29  1  0
 44 40  2  0
 24 19  1  0
  1 50  1  0
  1 51  1  0
  4 52  1  0
  4 53  1  0
  5 54  1  0
  5 55  1  0
  6 56  1  0
  6 57  1  0
  7 58  1  6
 10 59  1  0
 11 60  1  6
 14 61  1  0
 14 62  1  0
 15 63  1  0
 15 64  1  0
 17 65  1  0
 18 66  1  0
 21 67  1  0
 22 68  1  0
 23 69  1  0
 24 70  1  0
 25 71  1  0
 28 72  1  1
 30 73  1  0
 31 74  1  0
 32 75  1  0
 33 76  1  0
 34 77  1  0
 35 78  1  0
 38 79  1  1
 39 80  1  0
 39 81  1  0
 41 82  1  0
 42 83  1  0
 44 84  1  0
 45 85  1  0
 48 86  1  0
 48 87  1  0
 48 88  1  0
 49 89  1  0
 49 90  1  0
M  END
>  <Ligand ID>  (1) 
LIG0003297

>  <Ligand>  (1) 
CHEMBL318119

>  <SMILES>  (1) 
NC(=NCCC[C@@H](C(=O)N[C@H](C(=O)N)Cc1c[nH]c2c1cccc2)NC(=O)[C@@H](c1ccccc1)NC(=O)[C@H](Cc1[nH]cnc1)NC(=O)C)N

>  <CID>  (1) 
11767559.0

>  <ChEMBL ID>  (1) 
nan

>  <InChiKey>  (1) 
YXCLDFLLWJXJPD-LAJGZZDBSA-N

>  <InChi>  (1) 
InChI=1S/C33H41N11O5/c1-19(45)41-27(15-22-17-37-18-40-22)31(48)44-28(20-8-3-2-4-9-20)32(49)42-25(12-7-13-38-33(35)36)30(47)43-26(29(34)46)14-21-16-39-24-11-6-5-10-23(21)24/h2-6,8-11,16-18,25-28,39H,7,12-15H2,1H3,(H2,34,46)(H,37,40)(H,41,45)(H,42,49)(H,43,47)(H,44,48)(H4,35,36,38)/t25-,26-,27-,28+/m0/s1

>  <IUPAC Name>  (1) 
(2S)-2-[[(2R)-2-[[(2S)-2-acetamido-3-(1H-imidazol-5-yl)propanoyl]amino]-2-phenylacetyl]amino]-N-[(2S)-1-amino-3-(1H-indol-3-yl)-1-oxopropan-2-yl]-5-(diaminomethylideneamino)pentanamide

$$$$
