
     RDKit          3D

165169  0  0  0  0  0  0  0  0999 V2000
    5.8259    0.5166    0.8052 O   0  0  0  0  0  0  0  0  0  0  0  0
    5.6446    1.7347    0.5898 C   0  0  0  0  0  0  0  0  0  0  0  0
    4.4406    2.4788    0.3743 C   0  0  0  0  0  0  0  0  0  0  0  0
    3.1044    1.9735    0.1511 C   0  0  0  0  0  0  0  0  0  0  0  0
    2.6503    1.2046   -1.0076 C   0  0  1  0  0  0  0  0  0  0  0  0
    3.1696   -0.1024   -1.3377 C   0  0  0  0  0  0  0  0  0  0  0  0
    4.2853   -0.6103   -1.2266 O   0  0  0  0  0  0  0  0  0  0  0  0
    2.1819   -1.0329   -1.9333 N   0  0  0  0  0  0  0  0  0  0  0  0
    1.2234    1.4027   -1.2811 N   0  0  0  0  0  0  0  0  0  0  0  0
    0.1701    0.5725   -0.9180 C   0  0  0  0  0  0  0  0  0  0  0  0
    0.2975   -0.5143   -0.2570 O   0  0  0  0  0  0  0  0  0  0  0  0
   -1.2235    0.9175   -1.2995 C   0  0  2  0  0  0  0  0  0  0  0  0
   -1.7147    2.2508   -0.8727 C   0  0  0  0  0  0  0  0  0  0  0  0
   -1.6748    2.4562    0.6217 C   0  0  0  0  0  0  0  0  0  0  0  0
   -1.2358    3.4133   -1.6794 C   0  0  0  0  0  0  0  0  0  0  0  0
   -2.2038   -0.0819   -0.9268 N   0  0  0  0  0  0  0  0  0  0  0  0
   -2.6413   -1.0237   -1.8847 C   0  0  0  0  0  0  0  0  0  0  0  0
   -2.1391   -0.9546   -3.0518 O   0  0  0  0  0  0  0  0  0  0  0  0
   -3.6403   -2.0959   -1.6440 C   0  0  2  0  0  0  0  0  0  0  0  0
   -4.5763   -2.3642   -2.7527 C   0  0  0  0  0  0  0  0  0  0  0  0
   -3.8687   -2.7925   -4.0268 C   0  0  0  0  0  0  0  0  0  0  0  0
   -5.5485   -1.2439   -3.0097 C   0  0  0  0  0  0  0  0  0  0  0  0
   -4.3339   -1.9634   -0.3839 N   0  0  0  0  0  0  0  0  0  0  0  0
   -3.7185   -2.3794    0.7986 C   0  0  0  0  0  0  0  0  0  0  0  0
   -2.5334   -2.8600    0.6635 O   0  0  0  0  0  0  0  0  0  0  0  0
   -4.2302   -2.3435    2.1685 C   0  0  0  0  0  0  0  0  0  0  0  0
   -5.5630   -1.9626    2.4087 N   0  0  0  0  0  0  0  0  0  0  0  0
   -6.2203   -0.7523    2.1304 C   0  0  0  0  0  0  0  0  0  0  0  0
   -5.5979    0.1790    1.5687 O   0  0  0  0  0  0  0  0  0  0  0  0
   -7.6521   -0.6430    2.5357 C   0  0  1  0  0  0  0  0  0  0  0  0
   -8.2830    0.5769    2.1636 N   0  0  0  0  0  0  0  0  0  0  0  0
   -8.3328    1.7693    2.9268 C   0  0  0  0  0  0  0  0  0  0  0  0
   -7.7527    1.8069    4.0458 O   0  0  0  0  0  0  0  0  0  0  0  0
   -9.0663    2.9747    2.4202 C   0  0  2  0  0  0  0  0  0  0  0  0
   -9.8612    2.5922    1.2670 N   0  0  0  0  0  0  0  0  0  0  0  0
  -11.2903    2.6480    1.4628 C   0  0  0  0  0  0  0  0  0  0  0  0
  -11.7983    3.0085    2.5497 O   0  0  0  0  0  0  0  0  0  0  0  0
  -12.2438    2.2765    0.3760 C   0  0  2  0  0  0  0  0  0  0  0  0
  -13.1879    1.2013    0.8489 C   0  0  0  0  0  0  0  0  0  0  0  0
  -14.1717    0.7691   -0.1659 C   0  0  0  0  0  0  0  0  0  0  0  0
  -15.3842    1.4243   -0.2815 C   0  0  0  0  0  0  0  0  0  0  0  0
  -16.3429    1.0361   -1.2228 C   0  0  0  0  0  0  0  0  0  0  0  0
  -16.0591   -0.0263   -2.0489 C   0  0  0  0  0  0  0  0  0  0  0  0
  -14.8440   -0.6588   -1.9111 C   0  0  0  0  0  0  0  0  0  0  0  0
  -13.8869   -0.2909   -0.9897 C   0  0  0  0  0  0  0  0  0  0  0  0
  -16.9753   -0.4345   -2.9832 O   0  0  0  0  0  0  0  0  0  0  0  0
  -11.4653    1.7988   -0.7424 N   0  0  0  0  0  0  0  0  0  0  0  0
   -8.1235    4.1029    2.0959 C   0  0  0  0  0  0  0  0  0  0  0  0
   -8.5123   -1.8016    2.2347 C   0  0  0  0  0  0  0  0  0  0  0  0
   -8.6580   -2.1684    0.8099 C   0  0  0  0  0  0  0  0  0  0  0  0
   -9.7006   -1.6049    0.0754 C   0  0  0  0  0  0  0  0  0  0  0  0
   -9.9215   -1.8837   -1.2533 C   0  0  0  0  0  0  0  0  0  0  0  0
   -9.0873   -2.7537   -1.8992 C   0  0  0  0  0  0  0  0  0  0  0  0
   -8.0605   -3.3164   -1.1996 C   0  0  0  0  0  0  0  0  0  0  0  0
   -7.8366   -3.0365    0.1401 C   0  0  0  0  0  0  0  0  0  0  0  0
   -4.0223   -3.7597    2.7513 C   0  0  0  0  0  0  0  0  0  0  0  0
   -3.2504   -1.4676    2.9863 C   0  0  0  0  0  0  0  0  0  0  0  0
    6.8860    2.5045    0.5589 N   0  0  0  0  0  0  0  0  0  0  0  0
    8.1718    1.9324    0.7496 C   0  0  0  0  0  0  0  0  0  0  0  0
    8.5361    0.8904   -0.2646 C   0  0  0  0  0  0  0  0  0  0  0  0
    7.7213    0.5621   -1.1617 O   0  0  0  0  0  0  0  0  0  0  0  0
    9.8526    0.2969   -0.1637 N   0  0  0  0  0  0  0  0  0  0  0  0
   10.7192    0.7083    0.8842 C   0  0  0  0  0  0  0  0  0  0  0  0
   11.5959    1.7631    0.7933 C   0  0  0  0  0  0  0  0  0  0  0  0
   12.3859    2.0528    1.8996 C   0  0  0  0  0  0  0  0  0  0  0  0
   12.3085    1.3111    3.0723 C   0  0  0  0  0  0  0  0  0  0  0  0
   11.4239    0.2472    3.1605 C   0  0  0  0  0  0  0  0  0  0  0  0
   10.6322   -0.0472    2.0605 C   0  0  0  0  0  0  0  0  0  0  0  0
   10.1776   -0.7001   -1.1527 C   0  0  0  0  0  0  0  0  0  0  0  0
   10.5537   -2.0332   -0.6438 C   0  0  0  0  0  0  0  0  0  0  0  0
   12.0296   -2.2866   -0.5288 C   0  0  0  0  0  0  0  0  0  0  0  0
   12.7329   -1.0283   -0.5182 N   0  0  0  0  0  0  0  0  0  0  0  0
   12.6073   -0.2671   -1.7306 C   0  0  0  0  0  0  0  0  0  0  0  0
   11.1882   -0.2288   -2.1782 C   0  0  0  0  0  0  0  0  0  0  0  0
   14.1362   -1.2149   -0.1622 C   0  0  0  0  0  0  0  0  0  0  0  0
   14.9495    0.0215   -0.1390 C   0  0  0  0  0  0  0  0  0  0  0  0
   16.3473   -0.3654    0.2216 C   0  0  0  0  0  0  0  0  0  0  0  0
   16.8056   -0.3856    1.5201 C   0  0  0  0  0  0  0  0  0  0  0  0
   18.0895   -0.7516    1.7877 C   0  0  0  0  0  0  0  0  0  0  0  0
   18.9707   -1.1142    0.7681 C   0  0  0  0  0  0  0  0  0  0  0  0
   18.5270   -1.1017   -0.5618 C   0  0  0  0  0  0  0  0  0  0  0  0
   17.2238   -0.7260   -0.7925 C   0  0  0  0  0  0  0  0  0  0  0  0
    4.3540    3.1856    1.3042 H   0  0  0  0  0  0  0  0  0  0  0  0
    4.7098    3.2635   -0.4548 H   0  0  0  0  0  0  0  0  0  0  0  0
    2.4039    2.8998    0.2676 H   0  0  0  0  0  0  0  0  0  0  0  0
    2.7649    1.4294    1.1316 H   0  0  0  0  0  0  0  0  0  0  0  0
    3.1324    1.8249   -1.9165 H   0  0  0  0  0  0  0  0  0  0  0  0
    2.1426   -2.0104   -1.5958 H   0  0  0  0  0  0  0  0  0  0  0  0
    1.5656   -0.6327   -2.6834 H   0  0  0  0  0  0  0  0  0  0  0  0
    0.9773    2.2878   -1.8200 H   0  0  0  0  0  0  0  0  0  0  0  0
   -1.1832    0.9113   -2.4317 H   0  0  0  0  0  0  0  0  0  0  0  0
   -2.8461    2.2097   -1.0963 H   0  0  0  0  0  0  0  0  0  0  0  0
   -2.6542    2.7188    1.0718 H   0  0  0  0  0  0  0  0  0  0  0  0
   -1.3711    1.5049    1.1485 H   0  0  0  0  0  0  0  0  0  0  0  0
   -0.9857    3.2874    0.8985 H   0  0  0  0  0  0  0  0  0  0  0  0
   -1.0130    3.0948   -2.7158 H   0  0  0  0  0  0  0  0  0  0  0  0
   -0.4463    4.0249   -1.2006 H   0  0  0  0  0  0  0  0  0  0  0  0
   -2.0756    4.1762   -1.8349 H   0  0  0  0  0  0  0  0  0  0  0  0
   -2.6244   -0.1603    0.0332 H   0  0  0  0  0  0  0  0  0  0  0  0
   -3.0030   -3.0453   -1.4901 H   0  0  0  0  0  0  0  0  0  0  0  0
   -5.1919   -3.2587   -2.4581 H   0  0  0  0  0  0  0  0  0  0  0  0
   -3.5441   -1.9381   -4.6273 H   0  0  0  0  0  0  0  0  0  0  0  0
   -4.5727   -3.3774   -4.6835 H   0  0  0  0  0  0  0  0  0  0  0  0
   -3.0439   -3.4806   -3.8082 H   0  0  0  0  0  0  0  0  0  0  0  0
   -6.6021   -1.5839   -2.9960 H   0  0  0  0  0  0  0  0  0  0  0  0
   -5.4703   -0.5204   -2.1550 H   0  0  0  0  0  0  0  0  0  0  0  0
   -5.3762   -0.7499   -3.9884 H   0  0  0  0  0  0  0  0  0  0  0  0
   -5.2880   -1.5751   -0.3568 H   0  0  0  0  0  0  0  0  0  0  0  0
   -6.1962   -2.7070    2.8776 H   0  0  0  0  0  0  0  0  0  0  0  0
   -7.5677   -0.5996    3.6788 H   0  0  0  0  0  0  0  0  0  0  0  0
   -8.7616    0.6129    1.2257 H   0  0  0  0  0  0  0  0  0  0  0  0
   -9.7328    3.2828    3.2268 H   0  0  0  0  0  0  0  0  0  0  0  0
   -9.4664    2.3001    0.3507 H   0  0  0  0  0  0  0  0  0  0  0  0
  -12.7865    3.1815    0.0214 H   0  0  0  0  0  0  0  0  0  0  0  0
  -13.7778    1.5858    1.7223 H   0  0  0  0  0  0  0  0  0  0  0  0
  -12.6137    0.3077    1.1881 H   0  0  0  0  0  0  0  0  0  0  0  0
  -15.6311    2.2529    0.3448 H   0  0  0  0  0  0  0  0  0  0  0  0
  -17.2636    1.5618   -1.2867 H   0  0  0  0  0  0  0  0  0  0  0  0
  -14.6263   -1.4964   -2.5635 H   0  0  0  0  0  0  0  0  0  0  0  0
  -12.9315   -0.8229   -0.9132 H   0  0  0  0  0  0  0  0  0  0  0  0
  -16.7342   -0.9935   -3.8098 H   0  0  0  0  0  0  0  0  0  0  0  0
  -12.0921    1.4754   -1.5326 H   0  0  0  0  0  0  0  0  0  0  0  0
  -10.8521    2.5461   -1.1402 H   0  0  0  0  0  0  0  0  0  0  0  0
   -7.1923    3.9214    2.6693 H   0  0  0  0  0  0  0  0  0  0  0  0
   -8.5169    5.0734    2.4281 H   0  0  0  0  0  0  0  0  0  0  0  0
   -7.8060    4.0818    1.0281 H   0  0  0  0  0  0  0  0  0  0  0  0
   -9.5523   -1.5263    2.5961 H   0  0  0  0  0  0  0  0  0  0  0  0
   -8.2812   -2.7085    2.8504 H   0  0  0  0  0  0  0  0  0  0  0  0
  -10.4116   -0.9089    0.5330 H   0  0  0  0  0  0  0  0  0  0  0  0
  -10.7389   -1.4270   -1.7832 H   0  0  0  0  0  0  0  0  0  0  0  0
   -9.2980   -2.9436   -2.9508 H   0  0  0  0  0  0  0  0  0  0  0  0
   -7.4117   -4.0044   -1.7392 H   0  0  0  0  0  0  0  0  0  0  0  0
   -7.0227   -3.5062    0.6366 H   0  0  0  0  0  0  0  0  0  0  0  0
   -4.4044   -3.7955    3.7811 H   0  0  0  0  0  0  0  0  0  0  0  0
   -4.5016   -4.5203    2.1160 H   0  0  0  0  0  0  0  0  0  0  0  0
   -2.9308   -3.9454    2.7332 H   0  0  0  0  0  0  0  0  0  0  0  0
   -3.3505   -1.7554    4.0487 H   0  0  0  0  0  0  0  0  0  0  0  0
   -2.2011   -1.6727    2.6958 H   0  0  0  0  0  0  0  0  0  0  0  0
   -3.5679   -0.4251    2.8658 H   0  0  0  0  0  0  0  0  0  0  0  0
    6.8145    3.5370    0.3890 H   0  0  0  0  0  0  0  0  0  0  0  0
    8.9479    2.7270    0.6196 H   0  0  0  0  0  0  0  0  0  0  0  0
    8.3242    1.5282    1.7810 H   0  0  0  0  0  0  0  0  0  0  0  0
   11.6429    2.3295   -0.1259 H   0  0  0  0  0  0  0  0  0  0  0  0
   13.0813    2.8996    1.8108 H   0  0  0  0  0  0  0  0  0  0  0  0
   12.9517    1.5939    3.8946 H   0  0  0  0  0  0  0  0  0  0  0  0
   11.3558   -0.3440    4.0770 H   0  0  0  0  0  0  0  0  0  0  0  0
    9.9474   -0.8804    2.1506 H   0  0  0  0  0  0  0  0  0  0  0  0
    9.2224   -0.8055   -1.7634 H   0  0  0  0  0  0  0  0  0  0  0  0
   10.1920   -2.7881   -1.4167 H   0  0  0  0  0  0  0  0  0  0  0  0
   10.0032   -2.3437    0.2739 H   0  0  0  0  0  0  0  0  0  0  0  0
   12.4455   -2.9227   -1.3393 H   0  0  0  0  0  0  0  0  0  0  0  0
   12.2997   -2.7923    0.4331 H   0  0  0  0  0  0  0  0  0  0  0  0
   13.1930   -0.7301   -2.5572 H   0  0  0  0  0  0  0  0  0  0  0  0
   12.9433    0.7780   -1.5326 H   0  0  0  0  0  0  0  0  0  0  0  0
   11.0260   -0.9003   -3.0691 H   0  0  0  0  0  0  0  0  0  0  0  0
   10.9327    0.7906   -2.5673 H   0  0  0  0  0  0  0  0  0  0  0  0
   14.5385   -1.8888   -0.9558 H   0  0  0  0  0  0  0  0  0  0  0  0
   14.1617   -1.8122    0.7680 H   0  0  0  0  0  0  0  0  0  0  0  0
   14.9152    0.5610   -1.1024 H   0  0  0  0  0  0  0  0  0  0  0  0
   14.6505    0.7551    0.6371 H   0  0  0  0  0  0  0  0  0  0  0  0
   16.1554   -0.1117    2.3178 H   0  0  0  0  0  0  0  0  0  0  0  0
   18.4897   -0.7791    2.7824 H   0  0  0  0  0  0  0  0  0  0  0  0
   19.9890   -1.4083    0.9478 H   0  0  0  0  0  0  0  0  0  0  0  0
   19.2240   -1.3852   -1.3340 H   0  0  0  0  0  0  0  0  0  0  0  0
   16.8844   -0.7196   -1.8194 H   0  0  0  0  0  0  0  0  0  0  0  0
  1  2  2  0
  2  3  1  0
  3  4  1  0
  4  5  1  0
  5  6  1  0
  6  7  2  0
  6  8  1  0
  5  9  1  0
  9 10  1  0
 10 11  2  0
 10 12  1  0
 12 13  1  0
 13 14  1  0
 13 15  1  0
 12 16  1  0
 16 17  1  0
 17 18  2  0
 17 19  1  0
 19 20  1  0
 20 21  1  0
 20 22  1  0
 19 23  1  0
 23 24  1  0
 24 25  2  0
 24 26  1  0
 26 27  1  0
 27 28  1  0
 28 29  2  0
 28 30  1  0
 30 31  1  0
 31 32  1  0
 32 33  2  0
 32 34  1  0
 34 35  1  0
 35 36  1  0
 36 37  2  0
 36 38  1  0
 38 39  1  0
 39 40  1  0
 40 41  2  0
 41 42  1  0
 42 43  2  0
 43 44  1  0
 44 45  2  0
 43 46  1  0
 38 47  1  0
 34 48  1  0
 30 49  1  0
 49 50  1  0
 50 51  2  0
 51 52  1  0
 52 53  2  0
 53 54  1  0
 54 55  2  0
 26 56  1  0
 26 57  1  0
  2 58  1  0
 58 59  1  0
 59 60  1  0
 60 61  2  0
 60 62  1  0
 62 63  1  0
 63 64  2  0
 64 65  1  0
 65 66  2  0
 66 67  1  0
 67 68  2  0
 62 69  1  0
 69 70  1  0
 70 71  1  0
 71 72  1  0
 72 73  1  0
 73 74  1  0
 72 75  1  0
 75 76  1  0
 76 77  1  0
 77 78  2  0
 78 79  1  0
 79 80  2  0
 80 81  1  0
 81 82  2  0
 45 40  1  0
 55 50  1  0
 68 63  1  0
 74 69  1  0
 82 77  1  0
  3 83  1  0
  3 84  1  0
  4 85  1  0
  4 86  1  0
  5 87  1  6
  8 88  1  0
  8 89  1  0
  9 90  1  0
 12 91  1  6
 13 92  1  0
 14 93  1  0
 14 94  1  0
 14 95  1  0
 15 96  1  0
 15 97  1  0
 15 98  1  0
 16 99  1  0
 19100  1  1
 20101  1  0
 21102  1  0
 21103  1  0
 21104  1  0
 22105  1  0
 22106  1  0
 22107  1  0
 23108  1  0
 27109  1  0
 30110  1  1
 31111  1  0
 34112  1  1
 35113  1  0
 38114  1  6
 39115  1  0
 39116  1  0
 41117  1  0
 42118  1  0
 44119  1  0
 45120  1  0
 46121  1  0
 47122  1  0
 47123  1  0
 48124  1  0
 48125  1  0
 48126  1  0
 49127  1  0
 49128  1  0
 51129  1  0
 52130  1  0
 53131  1  0
 54132  1  0
 55133  1  0
 56134  1  0
 56135  1  0
 56136  1  0
 57137  1  0
 57138  1  0
 57139  1  0
 58140  1  0
 59141  1  0
 59142  1  0
 64143  1  0
 65144  1  0
 66145  1  0
 67146  1  0
 68147  1  0
 69148  1  0
 70149  1  0
 70150  1  0
 71151  1  0
 71152  1  0
 73153  1  0
 73154  1  0
 74155  1  0
 74156  1  0
 75157  1  0
 75158  1  0
 76159  1  0
 76160  1  0
 78161  1  0
 79162  1  0
 80163  1  0
 81164  1  0
 82165  1  0
M  END
>  <Ligand ID>  (1) 
LIG0005365

>  <Ligand>  (1) 
CHEMBL2387211

>  <SMILES>  (1) 
O=C(CC[C@@H](C(=O)N)NC(=O)[C@H](C(C)C)NC(=O)[C@H](C(C)C)NC(=O)C(NC(=O)[C@@H](NC(=O)[C@H](NC(=O)[C@H](Cc1ccc(cc1)O)N)C)Cc1ccccc1)(C)C)NCC(=O)N(c1ccccc1)C1CCN(CC1)CCc1ccccc1

>  <CID>  (1) 
71624288.0

>  <ChEMBL ID>  (1) 
nan

>  <InChiKey>  (1) 
OOOQPXIKDXSCRA-BVWCKYCNSA-N

>  <InChi>  (1) 
InChI=1S/C61H83N11O10/c1-38(2)52(58(80)66-48(54(63)76)27-28-50(74)64-37-51(75)72(44-21-15-10-16-22-44)45-30-33-71(34-31-45)32-29-41-17-11-8-12-18-41)68-59(81)53(39(3)4)69-60(82)61(6,7)70-57(79)49(36-42-19-13-9-14-20-42)67-55(77)40(5)65-56(78)47(62)35-43-23-25-46(73)26-24-43/h8-26,38-40,45,47-49,52-53,73H,27-37,62H2,1-7H3,(H2,63,76)(H,64,74)(H,65,78)(H,66,80)(H,67,77)(H,68,81)(H,69,82)(H,70,79)/t40-,47+,48+,49+,52+,53+/m1/s1

>  <IUPAC Name>  (1) 
(2S)-2-[[(2S)-2-[[(2S)-2-[[2-[[(2S)-2-[[(2R)-2-[[(2S)-2-amino-3-(4-hydroxyphenyl)propanoyl]amino]propanoyl]amino]-3-phenylpropanoyl]amino]-2-methylpropanoyl]amino]-3-methylbutanoyl]amino]-3-methylbutanoyl]amino]-N'-[2-oxo-2-(N-[1-(2-phenylethyl)piperidin-4-yl]anilino)ethyl]pentanediamide

$$$$
