
     RDKit          3D

 45 47  0  0  0  0  0  0  0  0999 V2000
   -2.4211    2.5421   -0.1325 C   0  0  0  0  0  0  0  0  0  0  0  0
   -2.2061    1.7971   -1.4120 C   0  0  0  0  0  0  0  0  0  0  0  0
   -2.4458    0.3416   -1.3746 C   0  0  0  0  0  0  0  0  0  0  0  0
   -1.7508   -0.4974   -0.5350 N   0  0  0  0  0  0  0  0  0  0  0  0
   -0.3658   -0.7514   -0.6998 C   0  0  1  0  0  0  0  0  0  0  0  0
    0.0557   -1.2342   -2.0449 C   0  0  0  0  0  0  0  0  0  0  0  0
    1.3349   -2.0284   -1.8709 C   0  0  0  0  0  0  0  0  0  0  0  0
    2.2846   -1.2130   -1.0770 C   0  0  0  0  0  0  0  0  0  0  0  0
    1.9317   -0.1642   -0.2743 C   0  0  0  0  0  0  0  0  0  0  0  0
    0.5282    0.2990   -0.0929 C   0  0  0  0  0  0  0  0  0  0  0  0
    3.1047    0.3400    0.3017 C   0  0  0  0  0  0  0  0  0  0  0  0
    3.2839    1.3947    1.1849 C   0  0  0  0  0  0  0  0  0  0  0  0
    4.5665    1.7031    1.6175 C   0  0  0  0  0  0  0  0  0  0  0  0
    5.6160    0.9315    1.1391 C   0  0  0  0  0  0  0  0  0  0  0  0
    5.3758   -0.1029    0.2644 C   0  0  0  0  0  0  0  0  0  0  0  0
    4.1185   -0.4079   -0.1622 N   0  0  0  0  0  0  0  0  0  0  0  0
    3.6200   -1.3237   -0.9780 N   0  0  0  0  0  0  0  0  0  0  0  0
   -2.1714   -0.6564    0.8195 C   0  0  0  0  0  0  0  0  0  0  0  0
   -3.4780   -1.3508    1.0187 C   0  0  0  0  0  0  0  0  0  0  0  0
   -3.7759   -1.4470    2.5211 C   0  0  0  0  0  0  0  0  0  0  0  0
   -2.5908    3.6266   -0.4069 H   0  0  0  0  0  0  0  0  0  0  0  0
   -3.2326    2.1468    0.4757 H   0  0  0  0  0  0  0  0  0  0  0  0
   -1.4386    2.5741    0.4067 H   0  0  0  0  0  0  0  0  0  0  0  0
   -2.9983    2.2164   -2.1207 H   0  0  0  0  0  0  0  0  0  0  0  0
   -1.2644    2.1317   -1.8950 H   0  0  0  0  0  0  0  0  0  0  0  0
   -3.5495    0.1949   -1.1942 H   0  0  0  0  0  0  0  0  0  0  0  0
   -2.3301   -0.0213   -2.4428 H   0  0  0  0  0  0  0  0  0  0  0  0
   -0.1771   -1.6596   -0.0202 H   0  0  0  0  0  0  0  0  0  0  0  0
    0.2929   -0.4448   -2.7845 H   0  0  0  0  0  0  0  0  0  0  0  0
   -0.7292   -1.9161   -2.4127 H   0  0  0  0  0  0  0  0  0  0  0  0
    1.7753   -2.3715   -2.8306 H   0  0  0  0  0  0  0  0  0  0  0  0
    1.0362   -2.9102   -1.2298 H   0  0  0  0  0  0  0  0  0  0  0  0
    0.2631    0.3380    1.0036 H   0  0  0  0  0  0  0  0  0  0  0  0
    0.4058    1.3091   -0.4593 H   0  0  0  0  0  0  0  0  0  0  0  0
    2.4543    1.9866    1.5490 H   0  0  0  0  0  0  0  0  0  0  0  0
    4.7220    2.5183    2.3039 H   0  0  0  0  0  0  0  0  0  0  0  0
    6.6393    1.1255    1.4416 H   0  0  0  0  0  0  0  0  0  0  0  0
    6.2226   -0.6961   -0.0980 H   0  0  0  0  0  0  0  0  0  0  0  0
   -1.3946   -1.3312    1.2987 H   0  0  0  0  0  0  0  0  0  0  0  0
   -2.0800    0.2844    1.3927 H   0  0  0  0  0  0  0  0  0  0  0  0
   -3.5335   -2.3298    0.5247 H   0  0  0  0  0  0  0  0  0  0  0  0
   -4.2778   -0.6577    0.6326 H   0  0  0  0  0  0  0  0  0  0  0  0
   -4.8510   -1.4609    2.7077 H   0  0  0  0  0  0  0  0  0  0  0  0
   -3.3456   -0.5252    2.9743 H   0  0  0  0  0  0  0  0  0  0  0  0
   -3.2239   -2.2999    2.9710 H   0  0  0  0  0  0  0  0  0  0  0  0
  1  2  1  0
  2  3  1  0
  3  4  1  0
  4  5  1  0
  5  6  1  0
  6  7  1  0
  7  8  1  0
  8  9  1  0
  9 10  1  0
  9 11  2  0
 11 12  1  0
 12 13  2  0
 13 14  1  0
 14 15  2  0
 15 16  1  0
 16 17  1  0
  4 18  1  0
 18 19  1  0
 19 20  1  0
 10  5  1  0
 16 11  1  0
 17  8  2  0
  1 21  1  0
  1 22  1  0
  1 23  1  0
  2 24  1  0
  2 25  1  0
  3 26  1  0
  3 27  1  0
  5 28  1  1
  6 29  1  0
  6 30  1  0
  7 31  1  0
  7 32  1  0
 10 33  1  0
 10 34  1  0
 12 35  1  0
 13 36  1  0
 14 37  1  0
 15 38  1  0
 18 39  1  0
 18 40  1  0
 19 41  1  0
 19 42  1  0
 20 43  1  0
 20 44  1  0
 20 45  1  0
M  END
>  <Ligand ID>  (1) 
LIG0004339

>  <Ligand>  (1) 
CHEMBL310867

>  <SMILES>  (1) 
CCCN([C@H]1CCc2c(C1)c1ccccn1n2)CCC

>  <CID>  (1) 
10084583.0

>  <ChEMBL ID>  (1) 
nan

>  <InChiKey>  (1) 
PWWITWFCENNJEP-AWEZNQCLSA-N

>  <InChi>  (1) 
InChI=1S/C17H25N3/c1-3-10-19(11-4-2)14-8-9-16-15(13-14)17-7-5-6-12-20(17)18-16/h5-7,12,14H,3-4,8-11,13H2,1-2H3/t14-/m0/s1

>  <IUPAC Name>  (1) 
(2S)-N,N-dipropyl-1,2,3,4-tetrahydropyrido[1,2-b]indazol-2-amine

$$$$
