
     RDKit          3D

 59 61  0  0  0  0  0  0  0  0999 V2000
    3.7425   -2.8455   -0.5375 O   0  0  0  0  0  0  0  0  0  0  0  0
    3.9565   -1.6895    0.2099 C   0  0  2  0  0  0  0  0  0  0  0  0
    3.4009   -0.4648   -0.4501 C   0  0  1  0  0  0  0  0  0  0  0  0
    1.9714   -0.2508   -0.0063 C   0  0  0  0  0  0  0  0  0  0  0  0
    1.2288   -1.3015   -0.5369 O   0  0  0  0  0  0  0  0  0  0  0  0
   -0.4003   -1.2315   -0.1450 P   0  0  0  0  0  0  0  0  0  0  0  0
   -0.7091   -1.9645    1.1371 O   0  0  0  0  0  0  0  0  0  0  0  0
   -0.9218    0.3521   -0.0927 O   0  0  0  0  0  0  0  0  0  0  0  0
   -2.1764    0.6347    0.9857 P   0  0  0  0  0  0  0  0  0  0  0  0
   -1.9495    2.0394    1.5479 O   0  0  0  0  0  0  0  0  0  0  0  0
   -3.6270    0.6499    0.1002 O   0  0  0  0  0  0  0  0  0  0  0  0
   -4.7087    0.2524    0.9016 C   0  0  1  0  0  0  0  0  0  0  0  0
   -5.6136    1.2581    1.1291 O   0  0  0  0  0  0  0  0  0  0  0  0
   -6.5327    1.4022    0.0998 C   0  0  2  0  0  0  0  0  0  0  0  0
   -7.2880    2.6551    0.2023 C   0  0  0  0  0  0  0  0  0  0  0  0
   -7.0911    3.4786    1.1370 O   0  0  0  0  0  0  0  0  0  0  0  0
   -8.2447    2.9306   -0.7640 O   0  0  0  0  0  0  0  0  0  0  0  0
   -7.4415    0.1803    0.1604 C   0  0  2  0  0  0  0  0  0  0  0  0
   -6.5728   -0.9725   -0.2890 C   0  0  1  0  0  0  0  0  0  0  0  0
   -5.2825   -1.0556    0.4630 C   0  0  1  0  0  0  0  0  0  0  0  0
   -4.3542   -1.6292   -0.4259 O   0  0  0  0  0  0  0  0  0  0  0  0
   -7.2468   -2.1897   -0.2115 O   0  0  0  0  0  0  0  0  0  0  0  0
   -8.5274    0.2666   -0.6743 O   0  0  0  0  0  0  0  0  0  0  0  0
   -2.2097   -0.4002    2.2905 O   0  0  0  0  0  0  0  0  0  0  0  0
   -1.2353   -2.0074   -1.4215 O   0  0  0  0  0  0  0  0  0  0  0  0
    4.2495    0.5446    0.0310 O   0  0  0  0  0  0  0  0  0  0  0  0
    5.4858    0.0020   -0.2999 C   0  0  2  0  0  0  0  0  0  0  0  0
    5.4431   -1.3645    0.3027 C   0  0  2  0  0  0  0  0  0  0  0  0
    6.1719   -2.3152   -0.3811 O   0  0  0  0  0  0  0  0  0  0  0  0
    6.6120    0.8042    0.0138 N   0  0  0  0  0  0  0  0  0  0  0  0
    7.1527    0.8441    1.2479 C   0  0  0  0  0  0  0  0  0  0  0  0
    8.2505    1.6291    1.5442 C   0  0  0  0  0  0  0  0  0  0  0  0
    8.8277    2.4081    0.5506 C   0  0  0  0  0  0  0  0  0  0  0  0
    9.8211    3.1209    0.8110 O   0  0  0  0  0  0  0  0  0  0  0  0
    8.2684    2.3514   -0.6778 N   0  0  0  0  0  0  0  0  0  0  0  0
    7.1975    1.5794   -0.9470 C   0  0  0  0  0  0  0  0  0  0  0  0
    6.7346    1.5869   -2.1344 O   0  0  0  0  0  0  0  0  0  0  0  0
    3.7330   -2.6228   -1.5014 H   0  0  0  0  0  0  0  0  0  0  0  0
    3.4837   -1.7760    1.2145 H   0  0  0  0  0  0  0  0  0  0  0  0
    3.4840   -0.5434   -1.5492 H   0  0  0  0  0  0  0  0  0  0  0  0
    1.6174    0.6851   -0.5068 H   0  0  0  0  0  0  0  0  0  0  0  0
    1.9337   -0.2276    1.0823 H   0  0  0  0  0  0  0  0  0  0  0  0
   -4.2319    0.0479    1.9059 H   0  0  0  0  0  0  0  0  0  0  0  0
   -6.0459    1.3456   -0.9178 H   0  0  0  0  0  0  0  0  0  0  0  0
   -8.9904    3.6255   -0.6020 H   0  0  0  0  0  0  0  0  0  0  0  0
   -7.6703    0.0154    1.2243 H   0  0  0  0  0  0  0  0  0  0  0  0
   -6.3618   -0.7972   -1.3807 H   0  0  0  0  0  0  0  0  0  0  0  0
   -5.4033   -1.7824    1.3015 H   0  0  0  0  0  0  0  0  0  0  0  0
   -3.9596   -0.9050   -0.9848 H   0  0  0  0  0  0  0  0  0  0  0  0
   -6.7330   -2.8204   -0.7893 H   0  0  0  0  0  0  0  0  0  0  0  0
   -8.4661   -0.2311   -1.5180 H   0  0  0  0  0  0  0  0  0  0  0  0
   -2.6750   -1.2429    2.1756 H   0  0  0  0  0  0  0  0  0  0  0  0
   -1.2160   -3.0026   -1.2676 H   0  0  0  0  0  0  0  0  0  0  0  0
    5.4625   -0.1535   -1.4120 H   0  0  0  0  0  0  0  0  0  0  0  0
    5.7050   -1.3937    1.3725 H   0  0  0  0  0  0  0  0  0  0  0  0
    5.8020   -2.3866   -1.2932 H   0  0  0  0  0  0  0  0  0  0  0  0
    6.7433    0.2574    2.0602 H   0  0  0  0  0  0  0  0  0  0  0  0
    8.7034    1.6817    2.5181 H   0  0  0  0  0  0  0  0  0  0  0  0
    8.7034    2.9385   -1.4266 H   0  0  0  0  0  0  0  0  0  0  0  0
  1  2  1  0
  2  3  1  0
  3  4  1  0
  4  5  1  0
  5  6  1  0
  6  7  2  0
  6  8  1  0
  8  9  1  0
  9 10  2  0
  9 11  1  0
 11 12  1  0
 12 13  1  0
 13 14  1  0
 14 15  1  0
 15 16  2  0
 15 17  1  0
 14 18  1  0
 18 19  1  0
 19 20  1  0
 20 21  1  0
 19 22  1  0
 18 23  1  0
  9 24  1  0
  6 25  1  0
  3 26  1  0
 26 27  1  0
 27 28  1  0
 28 29  1  0
 27 30  1  0
 30 31  1  0
 31 32  2  0
 32 33  1  0
 33 34  2  0
 33 35  1  0
 35 36  1  0
 36 37  2  0
 28  2  1  0
 36 30  1  0
 20 12  1  0
  1 38  1  0
  2 39  1  1
  3 40  1  6
  4 41  1  0
  4 42  1  0
 12 43  1  1
 14 44  1  6
 17 45  1  0
 18 46  1  1
 19 47  1  6
 20 48  1  1
 21 49  1  0
 22 50  1  0
 23 51  1  0
 24 52  1  0
 25 53  1  0
 27 54  1  6
 28 55  1  1
 29 56  1  0
 31 57  1  0
 32 58  1  0
 35 59  1  0
M  END
>  <Ligand ID>  (1) 
LIG0002814

>  <Ligand>  (1) 
UDP-glucuronic acid

>  <SMILES>  (1) 
O[C@@H]1[C@@H](COP(=O)(OP(=O)(O[C@H]2O[C@H](C(=O)O)[C@H]([C@@H]([C@H]2O)O)O)O)O)O[C@H]([C@@H]1O)n1ccc(=O)[nH]c1=O

>  <CID>  (1) 
17473.0

>  <ChEMBL ID>  (1) 
nan

>  <InChiKey>  (1) 
HDYANYHVCAPMJV-LXQIFKJMSA-N

>  <InChi>  (1) 
InChI=1S/C15H22N2O18P2/c18-5-1-2-17(15(26)16-5)12-9(22)6(19)4(32-12)3-31-36(27,28)35-37(29,30)34-14-10(23)7(20)8(21)11(33-14)13(24)25/h1-2,4,6-12,14,19-23H,3H2,(H,24,25)(H,27,28)(H,29,30)(H,16,18,26)/t4-,6-,7+,8+,9-,10-,11+,12-,14-/m1/s1

>  <IUPAC Name>  (1) 
(2S,3S,4S,5R,6R)-6-[[[(2R,3S,4R,5R)-5-(2,4-dioxopyrimidin-1-yl)-3,4-dihydroxyoxolan-2-yl]methoxy-hydroxyphosphoryl]oxy-hydroxyphosphoryl]oxy-3,4,5-trihydroxyoxane-2-carboxylic acid

$$$$
