
     RDKit          3D

 49 51  0  0  0  0  0  0  0  0999 V2000
   -6.3162   -2.8776    3.3270 Cl  0  0  0  0  0  0  0  0  0  0  0  0
   -6.0051   -1.8384    1.9389 C   0  0  0  0  0  0  0  0  0  0  0  0
   -6.6017   -2.0862    0.7031 C   0  0  0  0  0  0  0  0  0  0  0  0
   -6.3322   -1.2467   -0.3635 C   0  0  0  0  0  0  0  0  0  0  0  0
   -5.4785   -0.1783   -0.1884 C   0  0  0  0  0  0  0  0  0  0  0  0
   -4.8673    0.0974    1.0294 C   0  0  0  0  0  0  0  0  0  0  0  0
   -5.1452   -0.7436    2.0736 C   0  0  0  0  0  0  0  0  0  0  0  0
   -3.9785    1.2631    1.0936 C   0  0  2  0  0  0  0  0  0  0  0  0
   -2.5076    0.9068    1.1174 C   0  0  0  0  0  0  0  0  0  0  0  0
   -2.0847    0.1838   -0.0296 N   0  0  0  0  0  0  0  0  0  0  0  0
   -2.0761    0.8821   -1.2688 C   0  0  0  0  0  0  0  0  0  0  0  0
   -1.0551    1.9718   -1.3962 C   0  0  0  0  0  0  0  0  0  0  0  0
    0.3125    1.4005   -1.2357 C   0  0  0  0  0  0  0  0  0  0  0  0
    0.8933    1.3303    0.0146 C   0  0  0  0  0  0  0  0  0  0  0  0
    2.1698    0.8028    0.2111 C   0  0  0  0  0  0  0  0  0  0  0  0
    2.9005    0.3281   -0.8582 C   0  0  0  0  0  0  0  0  0  0  0  0
    2.3273    0.3947   -2.1113 C   0  0  0  0  0  0  0  0  0  0  0  0
    1.0495    0.9234   -2.3034 C   0  0  0  0  0  0  0  0  0  0  0  0
    4.2317   -0.2164   -0.6162 C   0  0  0  0  0  0  0  0  0  0  0  0
    5.0507   -0.7154   -1.5838 C   0  0  0  0  0  0  0  0  0  0  0  0
    6.2966   -1.2089   -1.2453 C   0  0  0  0  0  0  0  0  0  0  0  0
    6.7282   -1.2053    0.0617 C   0  0  0  0  0  0  0  0  0  0  0  0
    5.8822   -0.6974    1.0094 C   0  0  0  0  0  0  0  0  0  0  0  0
    4.6775   -0.2242    0.6555 N   0  0  0  0  0  0  0  0  0  0  0  0
    8.0458   -1.7376    0.3454 C   0  0  0  0  0  0  0  0  0  0  0  0
    8.7359   -2.1769   -0.6012 O   0  0  0  0  0  0  0  0  0  0  0  0
    8.5996   -1.7926    1.6156 O   0  0  0  0  0  0  0  0  0  0  0  0
   -4.2766    1.9737    2.2778 O   0  0  0  0  0  0  0  0  0  0  0  0
   -7.2692   -2.9248    0.5733 H   0  0  0  0  0  0  0  0  0  0  0  0
   -6.7823   -1.4160   -1.3357 H   0  0  0  0  0  0  0  0  0  0  0  0
   -5.2861    0.4617   -1.0415 H   0  0  0  0  0  0  0  0  0  0  0  0
   -4.6763   -0.5406    3.0281 H   0  0  0  0  0  0  0  0  0  0  0  0
   -4.1882    1.9817    0.2784 H   0  0  0  0  0  0  0  0  0  0  0  0
   -2.3677    0.2379    1.9959 H   0  0  0  0  0  0  0  0  0  0  0  0
   -1.9715    1.8312    1.3504 H   0  0  0  0  0  0  0  0  0  0  0  0
   -1.2360   -0.3736    0.0830 H   0  0  0  0  0  0  0  0  0  0  0  0
   -3.0746    1.2896   -1.5555 H   0  0  0  0  0  0  0  0  0  0  0  0
   -1.8537    0.1273   -2.0620 H   0  0  0  0  0  0  0  0  0  0  0  0
   -1.1722    2.7818   -0.6672 H   0  0  0  0  0  0  0  0  0  0  0  0
   -1.1598    2.4425   -2.3945 H   0  0  0  0  0  0  0  0  0  0  0  0
    0.3773    1.6825    0.8890 H   0  0  0  0  0  0  0  0  0  0  0  0
    2.5739    0.7733    1.2133 H   0  0  0  0  0  0  0  0  0  0  0  0
    2.8681    0.0337   -2.9686 H   0  0  0  0  0  0  0  0  0  0  0  0
    0.6438    0.9542   -3.2999 H   0  0  0  0  0  0  0  0  0  0  0  0
    4.7237   -0.7218   -2.5975 H   0  0  0  0  0  0  0  0  0  0  0  0
    6.9066   -1.5890   -2.0285 H   0  0  0  0  0  0  0  0  0  0  0  0
    6.1912   -0.6803    2.0451 H   0  0  0  0  0  0  0  0  0  0  0  0
    9.5844   -1.5352    1.7620 H   0  0  0  0  0  0  0  0  0  0  0  0
   -4.0078    1.4297    3.0599 H   0  0  0  0  0  0  0  0  0  0  0  0
  1  2  1  0
  2  3  2  0
  3  4  1  0
  4  5  2  0
  5  6  1  0
  6  7  2  0
  6  8  1  0
  8  9  1  0
  9 10  1  0
 10 11  1  0
 11 12  1  0
 12 13  1  0
 13 14  2  0
 14 15  1  0
 15 16  2  0
 16 17  1  0
 17 18  2  0
 16 19  1  0
 19 20  2  0
 20 21  1  0
 21 22  2  0
 22 23  1  0
 23 24  2  0
 22 25  1  0
 25 26  2  0
 25 27  1  0
  8 28  1  0
  7  2  1  0
 18 13  1  0
 24 19  1  0
  3 29  1  0
  4 30  1  0
  5 31  1  0
  7 32  1  0
  8 33  1  6
  9 34  1  0
  9 35  1  0
 10 36  1  0
 11 37  1  0
 11 38  1  0
 12 39  1  0
 12 40  1  0
 14 41  1  0
 15 42  1  0
 17 43  1  0
 18 44  1  0
 20 45  1  0
 21 46  1  0
 23 47  1  0
 27 48  1  0
 28 49  1  0
M  END
>  <Ligand ID>  (1) 
LIG0005826

>  <Ligand>  (1) 
CHEMBL273097

>  <SMILES>  (1) 
Clc1cccc(c1)[C@H](CNCCc1ccc(cc1)c1ccc(cn1)C(=O)O)O

>  <CID>  (1) 
24823782.0

>  <ChEMBL ID>  (1) 
nan

>  <InChiKey>  (1) 
JUBKAVTXCSVZRR-NRFANRHFSA-N

>  <InChi>  (1) 
InChI=1S/C22H21ClN2O3/c23-19-3-1-2-17(12-19)21(26)14-24-11-10-15-4-6-16(7-5-15)20-9-8-18(13-25-20)22(27)28/h1-9,12-13,21,24,26H,10-11,14H2,(H,27,28)/t21-/m0/s1

>  <IUPAC Name>  (1) 
6-[4-[2-[[(2R)-2-(3-chlorophenyl)-2-hydroxyethyl]amino]ethyl]phenyl]pyridine-3-carboxylic acid

$$$$
