
     RDKit          3D

 42 44  0  0  0  0  0  0  0  0999 V2000
   -3.3436   -4.1228    1.5466 C   0  0  0  0  0  0  0  0  0  0  0  0
   -1.9406   -3.3671    0.6508 S   0  0  0  0  0  0  0  0  0  0  0  0
   -2.5540   -1.8602   -0.0952 C   0  0  0  0  0  0  0  0  0  0  0  0
   -3.1148   -1.7035   -1.3211 N   0  0  0  0  0  0  0  0  0  0  0  0
   -3.4512   -0.4159   -1.5249 C   0  0  0  0  0  0  0  0  0  0  0  0
   -3.0849    0.2584   -0.3783 C   0  0  0  0  0  0  0  0  0  0  0  0
   -2.5418   -0.6426    0.4753 N   0  0  0  0  0  0  0  0  0  0  0  0
   -2.0500   -0.2558    1.7842 C   0  0  0  0  0  0  0  0  0  0  0  0
   -0.5960    0.1246    1.6747 C   0  0  0  0  0  0  0  0  0  0  0  0
   -0.0476    0.4801    2.7396 O   0  0  0  0  0  0  0  0  0  0  0  0
    0.0651    0.0683    0.4281 N   0  0  0  0  0  0  0  0  0  0  0  0
    1.4107    0.3928    0.1824 C   0  0  0  0  0  0  0  0  0  0  0  0
    1.8742    0.2727   -1.1143 C   0  0  0  0  0  0  0  0  0  0  0  0
    3.1730    0.5720   -1.4244 C   0  0  0  0  0  0  0  0  0  0  0  0
    4.0774    1.0001   -0.4921 C   0  0  0  0  0  0  0  0  0  0  0  0
    3.6421    1.1284    0.8070 C   0  0  0  0  0  0  0  0  0  0  0  0
    2.3161    0.8220    1.1193 C   0  0  0  0  0  0  0  0  0  0  0  0
    5.4931    1.3331   -0.7945 C   0  0  0  0  0  0  0  0  0  0  0  0
    6.3603    0.0951   -0.6409 C   0  0  0  0  0  0  0  0  0  0  0  0
   -3.3102    1.6352   -0.2855 C   0  0  0  0  0  0  0  0  0  0  0  0
   -3.8863    2.3555   -1.2957 C   0  0  0  0  0  0  0  0  0  0  0  0
   -4.2552    1.6798   -2.4489 C   0  0  0  0  0  0  0  0  0  0  0  0
   -4.0341    0.3065   -2.5498 C   0  0  0  0  0  0  0  0  0  0  0  0
   -4.3079   -3.9777    0.9909 H   0  0  0  0  0  0  0  0  0  0  0  0
   -3.2027   -5.2214    1.6627 H   0  0  0  0  0  0  0  0  0  0  0  0
   -3.4434   -3.7146    2.5728 H   0  0  0  0  0  0  0  0  0  0  0  0
   -2.5693    0.6448    2.1685 H   0  0  0  0  0  0  0  0  0  0  0  0
   -2.1527   -1.0872    2.5082 H   0  0  0  0  0  0  0  0  0  0  0  0
   -0.5392   -0.2547   -0.3863 H   0  0  0  0  0  0  0  0  0  0  0  0
    1.2117   -0.0657   -1.9274 H   0  0  0  0  0  0  0  0  0  0  0  0
    3.4889    0.4646   -2.4417 H   0  0  0  0  0  0  0  0  0  0  0  0
    4.3319    1.4683    1.5881 H   0  0  0  0  0  0  0  0  0  0  0  0
    2.0426    0.9428    2.1457 H   0  0  0  0  0  0  0  0  0  0  0  0
    5.8148    2.1131   -0.0985 H   0  0  0  0  0  0  0  0  0  0  0  0
    5.6004    1.6738   -1.8394 H   0  0  0  0  0  0  0  0  0  0  0  0
    7.0369    0.2448    0.2234 H   0  0  0  0  0  0  0  0  0  0  0  0
    6.8944   -0.1562   -1.5839 H   0  0  0  0  0  0  0  0  0  0  0  0
    5.6925   -0.7882   -0.4374 H   0  0  0  0  0  0  0  0  0  0  0  0
   -3.0210    2.1475    0.6107 H   0  0  0  0  0  0  0  0  0  0  0  0
   -4.0333    3.4024   -1.1692 H   0  0  0  0  0  0  0  0  0  0  0  0
   -4.7172    2.2127   -3.2788 H   0  0  0  0  0  0  0  0  0  0  0  0
   -4.3292   -0.2059   -3.4598 H   0  0  0  0  0  0  0  0  0  0  0  0
  1  2  1  0
  2  3  1  0
  3  4  2  0
  4  5  1  0
  5  6  2  0
  6  7  1  0
  7  8  1  0
  8  9  1  0
  9 10  2  0
  9 11  1  0
 11 12  1  0
 12 13  2  0
 13 14  1  0
 14 15  2  0
 15 16  1  0
 16 17  2  0
 15 18  1  0
 18 19  1  0
  6 20  1  0
 20 21  2  0
 21 22  1  0
 22 23  2  0
  7  3  1  0
 17 12  1  0
 23  5  1  0
  1 24  1  0
  1 25  1  0
  1 26  1  0
  8 27  1  0
  8 28  1  0
 11 29  1  0
 13 30  1  0
 14 31  1  0
 16 32  1  0
 17 33  1  0
 18 34  1  0
 18 35  1  0
 19 36  1  0
 19 37  1  0
 19 38  1  0
 20 39  1  0
 21 40  1  0
 22 41  1  0
 23 42  1  0
M  END
>  <Ligand ID>  (1) 
LIG0004111

>  <Ligand>  (1) 
SMR000012737

>  <SMILES>  (1) 
CSc1nc2c(n1CC(=O)Nc1ccc(cc1)CC)cccc2

>  <CID>  (1) 
644926.0

>  <ChEMBL ID>  (1) 
nan

>  <InChiKey>  (1) 
YVTQQBUMRYYLDL-UHFFFAOYSA-N

>  <InChi>  (1) 
InChI=1S/C18H19N3OS/c1-3-13-8-10-14(11-9-13)19-17(22)12-21-16-7-5-4-6-15(16)20-18(21)23-2/h4-11H,3,12H2,1-2H3,(H,19,22)

>  <IUPAC Name>  (1) 
N-(4-ethylphenyl)-2-(2-methylsulfanylbenzimidazol-1-yl)acetamide

$$$$
