
     RDKit          3D

 61 62  0  0  0  0  0  0  0  0999 V2000
    6.6128   -1.9298    0.0625 C   0  0  0  0  0  0  0  0  0  0  0  0
    5.7679   -1.1224    0.8289 O   0  0  0  0  0  0  0  0  0  0  0  0
    5.6587    0.2477    0.7876 C   0  0  0  0  0  0  0  0  0  0  0  0
    6.4281    0.9788   -0.0788 C   0  0  0  0  0  0  0  0  0  0  0  0
    6.2962    2.3737   -0.0969 C   0  0  0  0  0  0  0  0  0  0  0  0
    5.4080    2.9959    0.7440 C   0  0  0  0  0  0  0  0  0  0  0  0
    4.6594    2.2164    1.5944 C   0  0  0  0  0  0  0  0  0  0  0  0
    4.7340    0.8477    1.6660 C   0  0  0  0  0  0  0  0  0  0  0  0
    4.0331    0.0518    2.4645 O   0  0  0  0  0  0  0  0  0  0  0  0
    3.0876    0.1100    3.4330 C   0  0  0  0  0  0  0  0  0  0  0  0
    1.7726    0.7425    3.1256 C   0  0  0  0  0  0  0  0  0  0  0  0
    1.0243    0.1441    1.9880 C   0  0  0  0  0  0  0  0  0  0  0  0
    0.6789   -1.3043    2.1055 C   0  0  0  0  0  0  0  0  0  0  0  0
   -0.0378   -1.8008    1.0274 O   0  0  0  0  0  0  0  0  0  0  0  0
   -1.2664   -1.5176    0.5506 C   0  0  0  0  0  0  0  0  0  0  0  0
   -2.1783   -0.6267    1.0589 C   0  0  0  0  0  0  0  0  0  0  0  0
   -3.4159   -0.4022    0.5025 C   0  0  0  0  0  0  0  0  0  0  0  0
   -3.8133   -1.0819   -0.6276 C   0  0  0  0  0  0  0  0  0  0  0  0
   -2.9195   -1.9867   -1.1644 C   0  0  0  0  0  0  0  0  0  0  0  0
   -1.6830   -2.2067   -0.6027 C   0  0  0  0  0  0  0  0  0  0  0  0
   -0.8066   -3.2097   -1.2625 C   0  0  0  0  0  0  0  0  0  0  0  0
   -3.3540   -2.6635   -2.3165 O   0  0  0  0  0  0  0  0  0  0  0  0
   -5.1237   -0.8251   -1.2064 C   0  0  0  0  0  0  0  0  0  0  0  0
   -5.4145   -1.4880   -2.2454 O   0  0  0  0  0  0  0  0  0  0  0  0
   -6.0149    0.1597   -0.5758 C   0  0  0  0  0  0  0  0  0  0  0  0
   -7.3216    0.3738   -1.2890 C   0  0  0  0  0  0  0  0  0  0  0  0
   -7.1792    0.8674   -2.6898 C   0  0  0  0  0  0  0  0  0  0  0  0
   -8.1043    1.4145   -0.4999 C   0  0  0  0  0  0  0  0  0  0  0  0
    7.0770    3.2047   -0.9960 C   0  0  0  0  0  0  0  0  0  0  0  0
    6.9680    4.4503   -1.0221 O   0  0  0  0  0  0  0  0  0  0  0  0
    7.9954    2.6114   -1.8805 O   0  0  0  0  0  0  0  0  0  0  0  0
    7.0664   -2.7386    0.6795 H   0  0  0  0  0  0  0  0  0  0  0  0
    6.0020   -2.4509   -0.7068 H   0  0  0  0  0  0  0  0  0  0  0  0
    7.4751   -1.4047   -0.3947 H   0  0  0  0  0  0  0  0  0  0  0  0
    7.1458    0.5608   -0.7663 H   0  0  0  0  0  0  0  0  0  0  0  0
    5.3149    4.0769    0.7239 H   0  0  0  0  0  0  0  0  0  0  0  0
    3.9748    2.7420    2.2450 H   0  0  0  0  0  0  0  0  0  0  0  0
    3.5383    0.6652    4.3197 H   0  0  0  0  0  0  0  0  0  0  0  0
    2.8569   -0.8940    3.8808 H   0  0  0  0  0  0  0  0  0  0  0  0
    1.9134    1.8184    2.8975 H   0  0  0  0  0  0  0  0  0  0  0  0
    1.1540    0.6979    4.0824 H   0  0  0  0  0  0  0  0  0  0  0  0
    1.7341    0.2200    1.0930 H   0  0  0  0  0  0  0  0  0  0  0  0
    0.1665    0.7684    1.7473 H   0  0  0  0  0  0  0  0  0  0  0  0
    0.0690   -1.5320    3.0217 H   0  0  0  0  0  0  0  0  0  0  0  0
    1.6322   -1.8773    2.1955 H   0  0  0  0  0  0  0  0  0  0  0  0
   -1.9466   -0.0712    1.9541 H   0  0  0  0  0  0  0  0  0  0  0  0
   -4.0907    0.3149    0.9557 H   0  0  0  0  0  0  0  0  0  0  0  0
   -1.0213   -3.2866   -2.3433 H   0  0  0  0  0  0  0  0  0  0  0  0
   -1.1254   -4.2120   -0.8450 H   0  0  0  0  0  0  0  0  0  0  0  0
    0.2597   -3.1051   -1.0051 H   0  0  0  0  0  0  0  0  0  0  0  0
   -4.0260   -3.4032   -2.3248 H   0  0  0  0  0  0  0  0  0  0  0  0
   -5.4505    1.1271   -0.4910 H   0  0  0  0  0  0  0  0  0  0  0  0
   -6.2725   -0.1006    0.4734 H   0  0  0  0  0  0  0  0  0  0  0  0
   -7.9181   -0.5693   -1.3196 H   0  0  0  0  0  0  0  0  0  0  0  0
   -8.1709    0.8333   -3.1800 H   0  0  0  0  0  0  0  0  0  0  0  0
   -6.4945    0.2533   -3.2995 H   0  0  0  0  0  0  0  0  0  0  0  0
   -6.8700    1.9339   -2.7034 H   0  0  0  0  0  0  0  0  0  0  0  0
   -7.3858    2.1860   -0.1520 H   0  0  0  0  0  0  0  0  0  0  0  0
   -8.5576    0.9028    0.3689 H   0  0  0  0  0  0  0  0  0  0  0  0
   -8.8926    1.8533   -1.1357 H   0  0  0  0  0  0  0  0  0  0  0  0
    8.3505    3.0663   -2.6993 H   0  0  0  0  0  0  0  0  0  0  0  0
  1  2  1  0
  2  3  1  0
  3  4  2  0
  4  5  1  0
  5  6  2  0
  6  7  1  0
  7  8  2  0
  8  9  1  0
  9 10  1  0
 10 11  1  0
 11 12  1  0
 12 13  1  0
 13 14  1  0
 14 15  1  0
 15 16  2  0
 16 17  1  0
 17 18  2  0
 18 19  1  0
 19 20  2  0
 20 21  1  0
 19 22  1  0
 18 23  1  0
 23 24  2  0
 23 25  1  0
 25 26  1  0
 26 27  1  0
 26 28  1  0
  5 29  1  0
 29 30  2  0
 29 31  1  0
  8  3  1  0
 20 15  1  0
  1 32  1  0
  1 33  1  0
  1 34  1  0
  4 35  1  0
  6 36  1  0
  7 37  1  0
 10 38  1  0
 10 39  1  0
 11 40  1  0
 11 41  1  0
 12 42  1  0
 12 43  1  0
 13 44  1  0
 13 45  1  0
 16 46  1  0
 17 47  1  0
 21 48  1  0
 21 49  1  0
 21 50  1  0
 22 51  1  0
 25 52  1  0
 25 53  1  0
 26 54  1  0
 27 55  1  0
 27 56  1  0
 27 57  1  0
 28 58  1  0
 28 59  1  0
 28 60  1  0
 31 61  1  0
M  END
>  <Ligand ID>  (1) 
LIG0003641

>  <Ligand>  (1) 
CHEMBL3287695

>  <SMILES>  (1) 
COc1cc(ccc1OCCCCOc1ccc(c(c1C)O)C(=O)CC(C)C)C(=O)O

>  <CID>  (1) 
90643858.0

>  <ChEMBL ID>  (1) 
nan

>  <InChiKey>  (1) 
XJICBRVIAXTUNH-UHFFFAOYSA-N

>  <InChi>  (1) 
InChI=1S/C24H30O7/c1-15(2)13-19(25)18-8-10-20(16(3)23(18)26)30-11-5-6-12-31-21-9-7-17(24(27)28)14-22(21)29-4/h7-10,14-15,26H,5-6,11-13H2,1-4H3,(H,27,28)

>  <IUPAC Name>  (1) 
4-[4-[3-hydroxy-2-methyl-4-(3-methylbutanoyl)phenoxy]butoxy]-3-methoxybenzoic acid

$$$$
