
     RDKit          3D

 40 40  0  0  0  0  0  0  0  0999 V2000
    1.4561   -0.3274    0.5764 O   0  0  0  0  0  0  0  0  0  0  0  0
    0.4822    0.2179   -0.2498 C   0  0  0  0  0  0  0  0  0  0  0  0
    0.7666    1.0087   -1.1813 O   0  0  0  0  0  0  0  0  0  0  0  0
   -0.9486   -0.1564   -0.0129 C   0  0  0  0  0  0  0  0  0  0  0  0
   -1.0628   -1.5274   -0.1567 F   0  0  0  0  0  0  0  0  0  0  0  0
   -1.7864    0.5194   -0.8436 F   0  0  0  0  0  0  0  0  0  0  0  0
   -1.3195    0.2057    1.2879 F   0  0  0  0  0  0  0  0  0  0  0  0
   -1.9706   -2.8941    1.7398 C   0  0  0  0  0  0  0  0  0  0  0  0
   -2.9520   -2.0026    1.8312 C   0  0  0  0  0  0  0  0  0  0  0  0
   -2.7923   -0.6214    1.2930 C   0  0  0  0  0  0  0  0  0  0  0  0
   -1.5376   -0.4148    0.7144 O   0  0  0  0  0  0  0  0  0  0  0  0
   -1.2175    0.8182    0.1621 C   0  0  0  0  0  0  0  0  0  0  0  0
   -2.0995    1.8794    0.1552 C   0  0  0  0  0  0  0  0  0  0  0  0
   -1.7430    3.0957   -0.4061 C   0  0  0  0  0  0  0  0  0  0  0  0
   -0.4871    3.2183   -0.9564 C   0  0  0  0  0  0  0  0  0  0  0  0
    0.3841    2.1415   -0.9397 C   0  0  0  0  0  0  0  0  0  0  0  0
    0.0642    0.9212   -0.3918 C   0  0  0  0  0  0  0  0  0  0  0  0
    0.9920   -0.2389   -0.3697 C   0  0  2  0  0  0  0  0  0  0  0  0
    1.8613   -0.2688    0.8889 C   0  0  0  0  0  0  0  0  0  0  0  0
    2.4259   -0.0463   -0.5171 C   0  0  1  0  0  0  0  0  0  0  0  0
    3.3627   -1.0810   -1.0268 C   0  0  0  0  0  0  0  0  0  0  0  0
    3.0739   -1.5320   -2.3642 N   0  0  0  0  0  0  0  0  0  0  0  0
    0.0031    4.7367   -1.6753 Cl  0  0  0  0  0  0  0  0  0  0  0  0
    2.4124    0.0595    0.5800 H   0  0  0  0  0  0  0  0  0  0  0  0
   -2.0679   -3.9207    2.1313 H   0  0  0  0  0  0  0  0  0  0  0  0
   -1.0429   -2.5969    1.2625 H   0  0  0  0  0  0  0  0  0  0  0  0
   -3.8989   -2.2467    2.2981 H   0  0  0  0  0  0  0  0  0  0  0  0
   -2.9067    0.1005    2.1452 H   0  0  0  0  0  0  0  0  0  0  0  0
   -3.6048   -0.4707    0.5540 H   0  0  0  0  0  0  0  0  0  0  0  0
   -3.0846    1.7563    0.5960 H   0  0  0  0  0  0  0  0  0  0  0  0
   -2.4122    3.9459   -0.4268 H   0  0  0  0  0  0  0  0  0  0  0  0
    1.3491    2.2896   -1.3811 H   0  0  0  0  0  0  0  0  0  0  0  0
    0.4648   -1.1798   -0.6132 H   0  0  0  0  0  0  0  0  0  0  0  0
    1.8677    0.5935    1.5672 H   0  0  0  0  0  0  0  0  0  0  0  0
    1.9873   -1.2581    1.3703 H   0  0  0  0  0  0  0  0  0  0  0  0
    2.7872    1.0019   -0.7239 H   0  0  0  0  0  0  0  0  0  0  0  0
    4.4184   -0.7560   -0.9979 H   0  0  0  0  0  0  0  0  0  0  0  0
    3.2914   -1.9768   -0.3761 H   0  0  0  0  0  0  0  0  0  0  0  0
    2.2695   -2.1551   -2.4410 H   0  0  0  0  0  0  0  0  0  0  0  0
    3.2153   -0.8380   -3.1023 H   0  0  0  0  0  0  0  0  0  0  0  0
  1  2  1  0
  2  3  2  0
  2  4  1  0
  4  5  1  0
  4  6  1  0
  4  7  1  0
  8  9  2  0
  9 10  1  0
 10 11  1  0
 11 12  1  0
 12 13  2  0
 13 14  1  0
 14 15  2  0
 15 16  1  0
 16 17  2  0
 17 18  1  0
 18 19  1  0
 19 20  1  0
 20 21  1  0
 21 22  1  0
 15 23  1  0
 17 12  1  0
 20 18  1  0
  1 24  1  0
  8 25  1  0
  8 26  1  0
  9 27  1  0
 10 28  1  0
 10 29  1  0
 13 30  1  0
 14 31  1  0
 16 32  1  0
 18 33  1  6
 19 34  1  0
 19 35  1  0
 20 36  1  1
 21 37  1  0
 21 38  1  0
 22 39  1  0
 22 40  1  0
M  END
>  <Ligand ID>  (1) 
LIG0005651

>  <Ligand>  (1) 
CID 118733787

>  <SMILES>  (1) 
OC(=O)C(F)(F)F.C=CCOc1ccc(cc1[C@@H]1C[C@H]1CN)Cl

>  <CID>  (1) 
118733787.0

>  <ChEMBL ID>  (1) 
nan

>  <InChiKey>  (1) 
BVQUTZSFPJRZCS-QLSWKGBWSA-N

>  <InChi>  (1) 
InChI=1S/C13H16ClNO.C2HF3O2/c1-2-5-16-13-4-3-10(14)7-12(13)11-6-9(11)8-15;3-2(4,5)1(6)7/h2-4,7,9,11H,1,5-6,8,15H2;(H,6,7)/t9-,11+;/m0./s1

>  <IUPAC Name>  (1) 
[(1R,2R)-2-(5-chloro-2-prop-2-enoxyphenyl)cyclopropyl]methanamine;2,2,2-trifluoroacetic acid

$$$$
