
     RDKit          3D

 45 47  0  0  0  0  0  0  0  0999 V2000
    6.9006    1.5182   -1.3150 O   0  0  0  0  0  0  0  0  0  0  0  0
    6.4067    0.4730   -0.5737 C   0  0  0  0  0  0  0  0  0  0  0  0
    6.7580   -0.6995   -0.8769 O   0  0  0  0  0  0  0  0  0  0  0  0
    5.4678    0.7378    0.5719 C   0  0  0  0  0  0  0  0  0  0  0  0
    5.0971   -0.6198    1.1951 C   0  0  0  0  0  0  0  0  0  0  0  0
    4.1619   -0.2970    2.3294 C   0  0  0  0  0  0  0  0  0  0  0  0
    3.0248    0.3497    1.9053 O   0  0  0  0  0  0  0  0  0  0  0  0
    2.0114   -0.0473    1.1047 C   0  0  0  0  0  0  0  0  0  0  0  0
    1.8476   -1.2754    0.5080 C   0  0  0  0  0  0  0  0  0  0  0  0
    0.7601   -1.5753   -0.3061 C   0  0  0  0  0  0  0  0  0  0  0  0
   -0.1947   -0.6122   -0.5279 C   0  0  0  0  0  0  0  0  0  0  0  0
   -0.0744    0.6258    0.0463 C   0  0  0  0  0  0  0  0  0  0  0  0
    1.0093    0.8879    0.8422 C   0  0  0  0  0  0  0  0  0  0  0  0
   -1.3616   -0.8517   -1.3688 C   0  0  0  0  0  0  0  0  0  0  0  0
   -2.6208   -0.4553   -0.9521 C   0  0  0  0  0  0  0  0  0  0  0  0
   -3.7561   -0.6561   -1.7041 C   0  0  0  0  0  0  0  0  0  0  0  0
   -3.6480   -1.2808   -2.9329 C   0  0  0  0  0  0  0  0  0  0  0  0
   -2.4137   -1.6889   -3.3808 C   0  0  0  0  0  0  0  0  0  0  0  0
   -1.2915   -1.4720   -2.6005 C   0  0  0  0  0  0  0  0  0  0  0  0
    0.2604   -2.0068   -3.2091 Cl  0  0  0  0  0  0  0  0  0  0  0  0
   -5.0210   -0.2637   -1.2973 O   0  0  0  0  0  0  0  0  0  0  0  0
   -5.2354    0.3717   -0.0789 C   0  0  0  0  0  0  0  0  0  0  0  0
   -5.1925    1.7472    0.0543 C   0  0  0  0  0  0  0  0  0  0  0  0
   -5.4256    2.2424    1.3296 C   0  0  0  0  0  0  0  0  0  0  0  0
   -5.6855    1.4065    2.4035 C   0  0  0  0  0  0  0  0  0  0  0  0
   -5.7216    0.0525    2.2420 N   0  0  0  0  0  0  0  0  0  0  0  0
   -5.4970   -0.4476    1.0073 C   0  0  0  0  0  0  0  0  0  0  0  0
    7.5330    1.4237   -2.1215 H   0  0  0  0  0  0  0  0  0  0  0  0
    5.9413    1.3284    1.3605 H   0  0  0  0  0  0  0  0  0  0  0  0
    4.5597    1.2240    0.1750 H   0  0  0  0  0  0  0  0  0  0  0  0
    4.6123   -1.2198    0.4316 H   0  0  0  0  0  0  0  0  0  0  0  0
    6.0442   -1.0755    1.5643 H   0  0  0  0  0  0  0  0  0  0  0  0
    3.9393   -1.2605    2.8823 H   0  0  0  0  0  0  0  0  0  0  0  0
    4.7382    0.2934    3.0952 H   0  0  0  0  0  0  0  0  0  0  0  0
    2.5459   -2.0699    0.6610 H   0  0  0  0  0  0  0  0  0  0  0  0
    0.6745   -2.5632   -0.7573 H   0  0  0  0  0  0  0  0  0  0  0  0
   -0.8181    1.3870   -0.1216 H   0  0  0  0  0  0  0  0  0  0  0  0
    1.0656    1.8951    1.2829 H   0  0  0  0  0  0  0  0  0  0  0  0
   -2.7545    0.0428    0.0132 H   0  0  0  0  0  0  0  0  0  0  0  0
   -4.5305   -1.4411   -3.5259 H   0  0  0  0  0  0  0  0  0  0  0  0
   -2.3234   -2.1850   -4.3554 H   0  0  0  0  0  0  0  0  0  0  0  0
   -4.9892    2.3609   -0.7953 H   0  0  0  0  0  0  0  0  0  0  0  0
   -5.4037    3.3067    1.4884 H   0  0  0  0  0  0  0  0  0  0  0  0
   -5.8701    1.7678    3.4054 H   0  0  0  0  0  0  0  0  0  0  0  0
   -5.5305   -1.5275    0.9017 H   0  0  0  0  0  0  0  0  0  0  0  0
  1  2  1  0
  2  3  2  0
  2  4  1  0
  4  5  1  0
  5  6  1  0
  6  7  1  0
  7  8  1  0
  8  9  2  0
  9 10  1  0
 10 11  2  0
 11 12  1  0
 12 13  2  0
 11 14  1  0
 14 15  2  0
 15 16  1  0
 16 17  2  0
 17 18  1  0
 18 19  2  0
 19 20  1  0
 16 21  1  0
 21 22  1  0
 22 23  2  0
 23 24  1  0
 24 25  2  0
 25 26  1  0
 26 27  2  0
 13  8  1  0
 19 14  1  0
 27 22  1  0
  1 28  1  0
  4 29  1  0
  4 30  1  0
  5 31  1  0
  5 32  1  0
  6 33  1  0
  6 34  1  0
  9 35  1  0
 10 36  1  0
 12 37  1  0
 13 38  1  0
 15 39  1  0
 17 40  1  0
 18 41  1  0
 23 42  1  0
 24 43  1  0
 25 44  1  0
 27 45  1  0
M  END
>  <Ligand ID>  (1) 
LIG0002571

>  <Ligand>  (1) 
CHEMBL3938783

>  <SMILES>  (1) 
OC(=O)CCCOc1ccc(cc1)c1cc(ccc1Cl)Oc1cccnc1

>  <CID>  (1) 
134148736.0

>  <ChEMBL ID>  (1) 
nan

>  <InChiKey>  (1) 
QIENYTMYNPLRHW-UHFFFAOYSA-N

>  <InChi>  (1) 
InChI=1S/C21H18ClNO4/c22-20-10-9-17(27-18-3-1-11-23-14-18)13-19(20)15-5-7-16(8-6-15)26-12-2-4-21(24)25/h1,3,5-11,13-14H,2,4,12H2,(H,24,25)

>  <IUPAC Name>  (1) 
4-[4-(2-chloro-5-pyridin-3-yloxyphenyl)phenoxy]butanoic acid

$$$$
