
     RDKit          3D

 63 65  0  0  0  0  0  0  0  0999 V2000
   -9.7910   -1.1966    1.1989 C   0  0  0  0  0  0  0  0  0  0  0  0
   -9.3654   -0.4303    0.0911 O   0  0  0  0  0  0  0  0  0  0  0  0
   -8.1825    0.2754    0.1871 C   0  0  0  0  0  0  0  0  0  0  0  0
   -7.7689    1.0141   -0.8986 C   0  0  0  0  0  0  0  0  0  0  0  0
   -6.6031    1.7155   -0.8199 C   0  0  0  0  0  0  0  0  0  0  0  0
   -5.7896    1.7340    0.3059 C   0  0  0  0  0  0  0  0  0  0  0  0
   -6.2015    0.9965    1.3912 C   0  0  0  0  0  0  0  0  0  0  0  0
   -7.3830    0.2870    1.3081 C   0  0  0  0  0  0  0  0  0  0  0  0
   -4.5445    2.5228    0.2494 C   0  0  0  0  0  0  0  0  0  0  0  0
   -3.4249    1.6114   -0.0142 C   0  0  0  0  0  0  0  0  0  0  0  0
   -3.1106    0.7406    0.8303 O   0  0  0  0  0  0  0  0  0  0  0  0
   -2.6314    1.6396   -1.2084 N   0  0  0  0  0  0  0  0  0  0  0  0
   -1.5833    0.6632   -1.2552 C   0  0  0  0  0  0  0  0  0  0  0  0
   -0.2931    0.9559   -0.8649 C   0  0  0  0  0  0  0  0  0  0  0  0
    0.6783   -0.0325   -0.9014 C   0  0  0  0  0  0  0  0  0  0  0  0
    0.4243   -1.2993   -1.3073 C   0  0  0  0  0  0  0  0  0  0  0  0
   -0.8981   -1.5689   -1.6994 C   0  0  0  0  0  0  0  0  0  0  0  0
   -1.8770   -0.6068   -1.6731 C   0  0  0  0  0  0  0  0  0  0  0  0
    1.4621   -2.3903   -1.3422 C   0  0  0  0  0  0  0  0  0  0  0  0
    1.5293   -3.1397   -0.0721 C   0  0  0  0  0  0  0  0  0  0  0  0
    1.8476   -2.5762    1.1426 N   0  0  0  0  0  0  0  0  0  0  0  0
    3.0694   -2.1507    1.6070 C   0  0  0  0  0  0  0  0  0  0  0  0
    3.7949   -0.9761    1.0571 C   0  0  1  0  0  0  0  0  0  0  0  0
    5.0625   -0.7100    1.8902 C   0  0  0  0  0  0  0  0  0  0  0  0
    5.8120    0.3467    1.5512 O   0  0  0  0  0  0  0  0  0  0  0  0
    6.5766    0.8256    0.5676 C   0  0  0  0  0  0  0  0  0  0  0  0
    7.1275    2.1078    0.7516 C   0  0  0  0  0  0  0  0  0  0  0  0
    7.9264    2.7049   -0.1764 C   0  0  0  0  0  0  0  0  0  0  0  0
    8.2384    2.0724   -1.3566 C   0  0  0  0  0  0  0  0  0  0  0  0
    7.7194    0.8144   -1.5778 C   0  0  0  0  0  0  0  0  0  0  0  0
    6.9084    0.2218   -0.6230 C   0  0  0  0  0  0  0  0  0  0  0  0
    9.0468    2.6476   -2.3190 O   0  0  0  0  0  0  0  0  0  0  0  0
    4.1042   -1.1606   -0.2530 O   0  0  0  0  0  0  0  0  0  0  0  0
  -10.1051   -0.5614    2.0458 H   0  0  0  0  0  0  0  0  0  0  0  0
  -10.6101   -1.8830    0.9130 H   0  0  0  0  0  0  0  0  0  0  0  0
   -8.9658   -1.8786    1.5409 H   0  0  0  0  0  0  0  0  0  0  0  0
   -8.3825    1.0267   -1.7991 H   0  0  0  0  0  0  0  0  0  0  0  0
   -6.2820    2.2957   -1.6820 H   0  0  0  0  0  0  0  0  0  0  0  0
   -5.5861    0.9943    2.2755 H   0  0  0  0  0  0  0  0  0  0  0  0
   -7.6821   -0.2869    2.1801 H   0  0  0  0  0  0  0  0  0  0  0  0
   -4.4286    3.0192    1.2524 H   0  0  0  0  0  0  0  0  0  0  0  0
   -4.6148    3.2864   -0.5568 H   0  0  0  0  0  0  0  0  0  0  0  0
   -2.8326    2.3248   -1.9444 H   0  0  0  0  0  0  0  0  0  0  0  0
   -0.0500    1.9662   -0.5312 H   0  0  0  0  0  0  0  0  0  0  0  0
    1.6582    0.2499   -0.5904 H   0  0  0  0  0  0  0  0  0  0  0  0
   -1.1747   -2.5687   -2.0379 H   0  0  0  0  0  0  0  0  0  0  0  0
   -2.8751   -0.8440   -1.9777 H   0  0  0  0  0  0  0  0  0  0  0  0
    2.3731   -2.1148   -1.8542 H   0  0  0  0  0  0  0  0  0  0  0  0
    0.9840   -3.1397   -2.0835 H   0  0  0  0  0  0  0  0  0  0  0  0
    0.4879   -3.6194    0.0429 H   0  0  0  0  0  0  0  0  0  0  0  0
    2.1741   -4.0568   -0.2275 H   0  0  0  0  0  0  0  0  0  0  0  0
    1.0330   -2.4390    1.8101 H   0  0  0  0  0  0  0  0  0  0  0  0
    3.7638   -3.0446    1.6636 H   0  0  0  0  0  0  0  0  0  0  0  0
    2.9285   -1.8966    2.7226 H   0  0  0  0  0  0  0  0  0  0  0  0
    3.1990   -0.0293    1.1622 H   0  0  0  0  0  0  0  0  0  0  0  0
    5.6550   -1.6765    1.9413 H   0  0  0  0  0  0  0  0  0  0  0  0
    4.7233   -0.5894    2.9674 H   0  0  0  0  0  0  0  0  0  0  0  0
    6.9174    2.6618    1.6650 H   0  0  0  0  0  0  0  0  0  0  0  0
    8.3406    3.6916   -0.0122 H   0  0  0  0  0  0  0  0  0  0  0  0
    7.9712    0.3148   -2.5127 H   0  0  0  0  0  0  0  0  0  0  0  0
    6.5634   -0.7619   -0.8565 H   0  0  0  0  0  0  0  0  0  0  0  0
    8.9732    2.3131   -3.2729 H   0  0  0  0  0  0  0  0  0  0  0  0
    3.9637   -0.4131   -0.8588 H   0  0  0  0  0  0  0  0  0  0  0  0
  1  2  1  0
  2  3  1  0
  3  4  2  0
  4  5  1  0
  5  6  2  0
  6  7  1  0
  7  8  2  0
  6  9  1  0
  9 10  1  0
 10 11  2  0
 10 12  1  0
 12 13  1  0
 13 14  2  0
 14 15  1  0
 15 16  2  0
 16 17  1  0
 17 18  2  0
 16 19  1  0
 19 20  1  0
 20 21  1  0
 21 22  1  0
 22 23  1  0
 23 24  1  0
 24 25  1  0
 25 26  1  0
 26 27  2  0
 27 28  1  0
 28 29  2  0
 29 30  1  0
 30 31  2  0
 29 32  1  0
 23 33  1  0
  8  3  1  0
 18 13  1  0
 31 26  1  0
  1 34  1  0
  1 35  1  0
  1 36  1  0
  4 37  1  0
  5 38  1  0
  7 39  1  0
  8 40  1  0
  9 41  1  0
  9 42  1  0
 12 43  1  0
 14 44  1  0
 15 45  1  0
 17 46  1  0
 18 47  1  0
 19 48  1  0
 19 49  1  0
 20 50  1  0
 20 51  1  0
 21 52  1  0
 22 53  1  0
 22 54  1  0
 23 55  1  6
 24 56  1  0
 24 57  1  0
 27 58  1  0
 28 59  1  0
 30 60  1  0
 31 61  1  0
 32 62  1  0
 33 63  1  0
M  END
>  <Ligand ID>  (1) 
LIG0004807

>  <Ligand>  (1) 
CHEMBL551350

>  <SMILES>  (1) 
COc1ccc(cc1)CC(=O)Nc1ccc(cc1)CCNC[C@@H](COc1ccc(cc1)O)O

>  <CID>  (1) 
44127054.0

>  <ChEMBL ID>  (1) 
nan

>  <InChiKey>  (1) 
AQLXCWUWNRWFSB-QHCPKHFHSA-N

>  <InChi>  (1) 
InChI=1S/C26H30N2O5/c1-32-24-10-4-20(5-11-24)16-26(31)28-21-6-2-19(3-7-21)14-15-27-17-23(30)18-33-25-12-8-22(29)9-13-25/h2-13,23,27,29-30H,14-18H2,1H3,(H,28,31)/t23-/m0/s1

>  <IUPAC Name>  (1) 
N-[4-[2-[[(2S)-2-hydroxy-3-(4-hydroxyphenoxy)propyl]amino]ethyl]phenyl]-2-(4-methoxyphenyl)acetamide

$$$$
