
     RDKit          3D

 54 56  0  0  0  0  0  0  0  0999 V2000
   -5.2244    2.7313   -1.9960 C   0  0  0  0  0  0  0  0  0  0  0  0
   -6.0321    1.8857   -1.2507 O   0  0  0  0  0  0  0  0  0  0  0  0
   -5.5347    0.8856   -0.4590 C   0  0  0  0  0  0  0  0  0  0  0  0
   -4.1751    0.6008   -0.3167 C   0  0  0  0  0  0  0  0  0  0  0  0
   -3.7940   -0.4315    0.5109 C   0  0  0  0  0  0  0  0  0  0  0  0
   -4.7561   -1.1843    1.2002 C   0  0  0  0  0  0  0  0  0  0  0  0
   -6.1010   -0.9031    1.0578 C   0  0  0  0  0  0  0  0  0  0  0  0
   -6.4808    0.1243    0.2345 C   0  0  0  0  0  0  0  0  0  0  0  0
   -7.9051    0.3988    0.0907 C   0  0  0  0  0  0  0  0  0  0  0  0
   -8.7943   -0.2580    0.7110 O   0  0  0  0  0  0  0  0  0  0  0  0
   -8.3914    1.4106   -0.7502 O   0  0  0  0  0  0  0  0  0  0  0  0
   -2.4015   -0.8097    0.7332 C   0  0  0  0  0  0  0  0  0  0  0  0
   -1.3551    0.1041    0.7275 C   0  0  0  0  0  0  0  0  0  0  0  0
   -0.0328   -0.3126    0.9244 C   0  0  0  0  0  0  0  0  0  0  0  0
    0.2230   -1.6529    1.1260 C   0  0  0  0  0  0  0  0  0  0  0  0
   -0.8357   -2.5663    1.1289 C   0  0  0  0  0  0  0  0  0  0  0  0
   -2.1318   -2.1401    0.9330 C   0  0  0  0  0  0  0  0  0  0  0  0
    1.5660   -2.2285    1.3467 C   0  0  0  0  0  0  0  0  0  0  0  0
    2.2652   -2.6258    0.0984 C   0  0  0  0  0  0  0  0  0  0  0  0
    2.5572   -1.5627   -0.8292 N   0  0  0  0  0  0  0  0  0  0  0  0
    3.5748   -0.7110   -0.2131 C   0  0  0  0  0  0  0  0  0  0  0  0
    4.0731    0.3391   -1.1948 C   0  0  1  0  0  0  0  0  0  0  0  0
    5.2134    1.0634   -0.5603 C   0  0  0  0  0  0  0  0  0  0  0  0
    5.1618    2.4050   -0.2374 C   0  0  0  0  0  0  0  0  0  0  0  0
    6.2780    2.9742    0.3511 C   0  0  0  0  0  0  0  0  0  0  0  0
    7.4193    2.2174    0.6079 C   0  0  0  0  0  0  0  0  0  0  0  0
    7.4616    0.8586    0.2782 C   0  0  0  0  0  0  0  0  0  0  0  0
    6.3423    0.2899   -0.3096 C   0  0  0  0  0  0  0  0  0  0  0  0
    8.8730   -0.1316    0.5942 Cl  0  0  0  0  0  0  0  0  0  0  0  0
    4.6148   -0.3524   -2.2857 O   0  0  0  0  0  0  0  0  0  0  0  0
   -5.7433    3.7220   -2.1436 H   0  0  0  0  0  0  0  0  0  0  0  0
   -5.0403    2.2506   -2.9971 H   0  0  0  0  0  0  0  0  0  0  0  0
   -4.2635    2.8885   -1.4680 H   0  0  0  0  0  0  0  0  0  0  0  0
   -3.4220    1.1900   -0.8524 H   0  0  0  0  0  0  0  0  0  0  0  0
   -4.4977   -1.9966    1.8544 H   0  0  0  0  0  0  0  0  0  0  0  0
   -6.8335   -1.5029    1.6053 H   0  0  0  0  0  0  0  0  0  0  0  0
   -9.3711    1.7259   -0.7298 H   0  0  0  0  0  0  0  0  0  0  0  0
   -1.5747    1.1554    0.5725 H   0  0  0  0  0  0  0  0  0  0  0  0
    0.7880    0.3789    0.9227 H   0  0  0  0  0  0  0  0  0  0  0  0
   -0.6438   -3.6402    1.2900 H   0  0  0  0  0  0  0  0  0  0  0  0
   -2.9177   -2.9070    0.9505 H   0  0  0  0  0  0  0  0  0  0  0  0
    1.5335   -3.1347    1.9988 H   0  0  0  0  0  0  0  0  0  0  0  0
    2.1408   -1.4763    1.9353 H   0  0  0  0  0  0  0  0  0  0  0  0
    1.6602   -3.4388   -0.3768 H   0  0  0  0  0  0  0  0  0  0  0  0
    3.2242   -3.1238    0.4161 H   0  0  0  0  0  0  0  0  0  0  0  0
    1.6643   -0.9916   -0.9035 H   0  0  0  0  0  0  0  0  0  0  0  0
    4.4540   -1.3079    0.1015 H   0  0  0  0  0  0  0  0  0  0  0  0
    3.1031   -0.2090    0.6710 H   0  0  0  0  0  0  0  0  0  0  0  0
    3.3028    1.0528   -1.4535 H   0  0  0  0  0  0  0  0  0  0  0  0
    4.2637    3.0017   -0.4456 H   0  0  0  0  0  0  0  0  0  0  0  0
    6.3170    4.0126    0.6261 H   0  0  0  0  0  0  0  0  0  0  0  0
    8.3078    2.6591    1.0732 H   0  0  0  0  0  0  0  0  0  0  0  0
    6.3775   -0.7542   -0.5617 H   0  0  0  0  0  0  0  0  0  0  0  0
    5.4929    0.0271   -2.5454 H   0  0  0  0  0  0  0  0  0  0  0  0
  1  2  1  0
  2  3  1  0
  3  4  2  0
  4  5  1  0
  5  6  2  0
  6  7  1  0
  7  8  2  0
  8  9  1  0
  9 10  2  0
  9 11  1  0
  5 12  1  0
 12 13  2  0
 13 14  1  0
 14 15  2  0
 15 16  1  0
 16 17  2  0
 15 18  1  0
 18 19  1  0
 19 20  1  0
 20 21  1  0
 21 22  1  0
 22 23  1  0
 23 24  2  0
 24 25  1  0
 25 26  2  0
 26 27  1  0
 27 28  2  0
 27 29  1  0
 22 30  1  0
  8  3  1  0
 17 12  1  0
 28 23  1  0
  1 31  1  0
  1 32  1  0
  1 33  1  0
  4 34  1  0
  6 35  1  0
  7 36  1  0
 11 37  1  0
 13 38  1  0
 14 39  1  0
 16 40  1  0
 17 41  1  0
 18 42  1  0
 18 43  1  0
 19 44  1  0
 19 45  1  0
 20 46  1  0
 21 47  1  0
 21 48  1  0
 22 49  1  6
 24 50  1  0
 25 51  1  0
 26 52  1  0
 28 53  1  0
 30 54  1  0
M  END
>  <Ligand ID>  (1) 
LIG0004758

>  <Ligand>  (1) 
UNII-780SH2YCYY

>  <SMILES>  (1) 
COc1cc(ccc1C(=O)O)c1ccc(cc1)CCNC[C@@H](c1cccc(c1)Cl)O

>  <CID>  (1) 
10048077.0

>  <ChEMBL ID>  (1) 
nan

>  <InChiKey>  (1) 
IBPCNRNTIRZRJZ-QFIPXVFZSA-N

>  <InChi>  (1) 
InChI=1S/C24H24ClNO4/c1-30-23-14-18(9-10-21(23)24(28)29)17-7-5-16(6-8-17)11-12-26-15-22(27)19-3-2-4-20(25)13-19/h2-10,13-14,22,26-27H,11-12,15H2,1H3,(H,28,29)/t22-/m0/s1

>  <IUPAC Name>  (1) 
4-[4-[2-[[(2R)-2-(3-chlorophenyl)-2-hydroxyethyl]amino]ethyl]phenyl]-2-methoxybenzoic acid

$$$$
