
     RDKit          3D

 23 22  0  0  0  0  0  0  0  0999 V2000
    3.2081    0.4691    0.6955 C   0  0  0  0  0  0  0  0  0  0  0  0
    2.9210    0.4116   -0.7729 C   0  0  0  0  0  0  0  0  0  0  0  0
    1.6193   -0.3693   -0.9903 C   0  0  0  0  0  0  0  0  0  0  0  0
    0.5043    0.3774   -0.2458 C   0  0  0  0  0  0  0  0  0  0  0  0
   -0.7550   -0.3886   -0.4625 C   0  0  0  0  0  0  0  0  0  0  0  0
   -1.8957    0.1501    0.1511 O   0  0  0  0  0  0  0  0  0  0  0  0
   -3.1159   -0.5121   -0.0062 C   0  0  0  0  0  0  0  0  0  0  0  0
   -3.1995   -1.5707   -0.6827 O   0  0  0  0  0  0  0  0  0  0  0  0
   -4.3358    0.0259    0.6250 C   0  0  0  0  0  0  0  0  0  0  0  0
    2.5834    1.2448    1.1814 H   0  0  0  0  0  0  0  0  0  0  0  0
    2.9393   -0.5077    1.1738 H   0  0  0  0  0  0  0  0  0  0  0  0
    4.2819    0.6431    0.9055 H   0  0  0  0  0  0  0  0  0  0  0  0
    2.7050    1.4336   -1.1729 H   0  0  0  0  0  0  0  0  0  0  0  0
    3.7320   -0.0078   -1.3680 H   0  0  0  0  0  0  0  0  0  0  0  0
    1.4542   -0.3293   -2.0834 H   0  0  0  0  0  0  0  0  0  0  0  0
    1.6799   -1.4008   -0.6362 H   0  0  0  0  0  0  0  0  0  0  0  0
    0.4280    1.4090   -0.6583 H   0  0  0  0  0  0  0  0  0  0  0  0
    0.7430    0.4374    0.8307 H   0  0  0  0  0  0  0  0  0  0  0  0
   -0.8900   -0.5235   -1.5605 H   0  0  0  0  0  0  0  0  0  0  0  0
   -0.6102   -1.4163   -0.0464 H   0  0  0  0  0  0  0  0  0  0  0  0
   -5.1990   -0.0343   -0.0848 H   0  0  0  0  0  0  0  0  0  0  0  0
   -4.2241    1.0679    0.9485 H   0  0  0  0  0  0  0  0  0  0  0  0
   -4.5744   -0.6098    1.5027 H   0  0  0  0  0  0  0  0  0  0  0  0
  1  2  1  0
  2  3  1  0
  3  4  1  0
  4  5  1  0
  5  6  1  0
  6  7  1  0
  7  8  2  0
  7  9  1  0
  1 10  1  0
  1 11  1  0
  1 12  1  0
  2 13  1  0
  2 14  1  0
  3 15  1  0
  3 16  1  0
  4 17  1  0
  4 18  1  0
  5 19  1  0
  5 20  1  0
  9 21  1  0
  9 22  1  0
  9 23  1  0
M  END
>  <Ligand ID>  (1) 
LIG0000026

>  <Ligand>  (1) 
n-amyl acetate

>  <SMILES>  (1) 
CCCCCOC(=O)C

>  <CID>  (1) 
12348.0

>  <ChEMBL ID>  (1) 
nan

>  <InChiKey>  (1) 
PGMYKACGEOXYJE-UHFFFAOYSA-N

>  <InChi>  (1) 
InChI=1S/C7H14O2/c1-3-4-5-6-9-7(2)8/h3-6H2,1-2H3

>  <IUPAC Name>  (1) 
pentyl acetate

$$$$
