
     RDKit          3D

 53 56  0  0  0  0  0  0  0  0999 V2000
   -4.6479    1.7505    1.0043 C   0  0  0  0  0  0  0  0  0  0  0  0
   -4.9775    1.0300   -0.2879 C   0  0  2  0  0  0  0  0  0  0  0  0
   -3.7283    0.8533   -1.1365 C   0  0  0  0  0  0  0  0  0  0  0  0
   -2.7158    0.0560   -0.3939 C   0  0  0  0  0  0  0  0  0  0  0  0
   -2.7912   -1.3034   -0.2156 C   0  0  0  0  0  0  0  0  0  0  0  0
   -3.7299   -2.2263   -0.6458 O   0  0  0  0  0  0  0  0  0  0  0  0
   -3.6250   -3.4084    0.1467 C   0  0  0  0  0  0  0  0  0  0  0  0
   -2.1730   -3.4335    0.5604 C   0  0  0  0  0  0  0  0  0  0  0  0
   -1.8157   -1.9833    0.5053 C   0  0  0  0  0  0  0  0  0  0  0  0
   -0.7942   -1.2470    1.0217 C   0  0  0  0  0  0  0  0  0  0  0  0
   -0.6611    0.1235    0.8784 C   0  0  0  0  0  0  0  0  0  0  0  0
   -1.6574    0.7557    0.1496 C   0  0  0  0  0  0  0  0  0  0  0  0
   -1.2311    2.2121    0.0946 C   0  0  0  0  0  0  0  0  0  0  0  0
    0.2778    2.1269    0.3044 C   0  0  0  0  0  0  0  0  0  0  0  0
    0.2816    1.0773    1.3060 O   0  0  0  0  0  0  0  0  0  0  0  0
    0.4276   -1.8834    1.6971 C   0  0  0  0  0  0  0  0  0  0  0  0
    1.4119   -1.7587    0.9120 O   0  0  0  0  0  0  0  0  0  0  0  0
    2.1238   -1.8860   -0.1274 C   0  0  0  0  0  0  0  0  0  0  0  0
    3.3570   -1.0492    0.0236 C   0  0  0  0  0  0  0  0  0  0  0  0
    3.4571   -0.4508    1.1516 O   0  0  0  0  0  0  0  0  0  0  0  0
    4.3686   -0.8445   -0.8699 O   0  0  0  0  0  0  0  0  0  0  0  0
    5.4178    0.0333   -0.4293 C   0  0  0  0  0  0  0  0  0  0  0  0
    5.1842    1.3970   -0.5017 C   0  0  0  0  0  0  0  0  0  0  0  0
    6.2035    2.2627   -0.0630 C   0  0  0  0  0  0  0  0  0  0  0  0
    7.4039    1.7333    0.4289 C   0  0  0  0  0  0  0  0  0  0  0  0
    7.5949    0.3730    0.4831 C   0  0  0  0  0  0  0  0  0  0  0  0
    6.5990   -0.4711    0.0517 C   0  0  0  0  0  0  0  0  0  0  0  0
   -5.9740    1.7571   -1.0320 N   0  0  0  0  0  0  0  0  0  0  0  0
   -4.1436    1.0224    1.6849 H   0  0  0  0  0  0  0  0  0  0  0  0
   -5.6467    2.0818    1.4154 H   0  0  0  0  0  0  0  0  0  0  0  0
   -4.0617    2.6635    0.8777 H   0  0  0  0  0  0  0  0  0  0  0  0
   -5.3823    0.0370   -0.0246 H   0  0  0  0  0  0  0  0  0  0  0  0
   -4.0039    0.3583   -2.0851 H   0  0  0  0  0  0  0  0  0  0  0  0
   -3.3281    1.8553   -1.3885 H   0  0  0  0  0  0  0  0  0  0  0  0
   -4.2322   -3.3645    1.0649 H   0  0  0  0  0  0  0  0  0  0  0  0
   -3.8295   -4.3329   -0.4221 H   0  0  0  0  0  0  0  0  0  0  0  0
   -2.0689   -3.7571    1.6213 H   0  0  0  0  0  0  0  0  0  0  0  0
   -1.5442   -4.0382   -0.0833 H   0  0  0  0  0  0  0  0  0  0  0  0
   -1.6748    2.7111    0.9518 H   0  0  0  0  0  0  0  0  0  0  0  0
   -1.4900    2.5814   -0.8977 H   0  0  0  0  0  0  0  0  0  0  0  0
    0.7509    3.0056    0.6799 H   0  0  0  0  0  0  0  0  0  0  0  0
    0.7044    1.6492   -0.6012 H   0  0  0  0  0  0  0  0  0  0  0  0
    0.5067   -1.4181    2.7233 H   0  0  0  0  0  0  0  0  0  0  0  0
    0.1261   -2.9759    1.9111 H   0  0  0  0  0  0  0  0  0  0  0  0
    2.4315   -2.9296   -0.4462 H   0  0  0  0  0  0  0  0  0  0  0  0
    1.6513   -1.4728   -1.0906 H   0  0  0  0  0  0  0  0  0  0  0  0
    4.2490    1.8113   -0.8814 H   0  0  0  0  0  0  0  0  0  0  0  0
    6.0844    3.3354   -0.0833 H   0  0  0  0  0  0  0  0  0  0  0  0
    8.1637    2.4546    0.7674 H   0  0  0  0  0  0  0  0  0  0  0  0
    8.5327   -0.0211    0.8686 H   0  0  0  0  0  0  0  0  0  0  0  0
    6.7064   -1.5425    0.0811 H   0  0  0  0  0  0  0  0  0  0  0  0
   -5.5802    2.2741   -1.8448 H   0  0  0  0  0  0  0  0  0  0  0  0
   -6.5077    2.4159   -0.3913 H   0  0  0  0  0  0  0  0  0  0  0  0
  1  2  1  0
  2  3  1  0
  3  4  1  0
  4  5  2  0
  5  6  1  0
  6  7  1  0
  7  8  1  0
  8  9  1  0
  9 10  2  0
 10 11  1  0
 11 12  2  0
 12 13  1  0
 13 14  1  0
 14 15  1  0
 10 16  1  0
 16 17  1  0
 17 18  1  0
 18 19  1  0
 19 20  2  0
 19 21  1  0
 21 22  1  0
 22 23  2  0
 23 24  1  0
 24 25  2  0
 25 26  1  0
 26 27  2  0
  2 28  1  0
 12  4  1  0
 27 22  1  0
  9  5  1  0
 15 11  1  0
  1 29  1  0
  1 30  1  0
  1 31  1  0
  2 32  1  1
  3 33  1  0
  3 34  1  0
  7 35  1  0
  7 36  1  0
  8 37  1  0
  8 38  1  0
 13 39  1  0
 13 40  1  0
 14 41  1  0
 14 42  1  0
 16 43  1  0
 16 44  1  0
 18 45  1  0
 18 46  1  0
 23 47  1  0
 24 48  1  0
 25 49  1  0
 26 50  1  0
 27 51  1  0
 28 52  1  0
 28 53  1  0
M  END
>  <Ligand ID>  (1) 
LIG0002200

>  <Ligand>  (1) 
CHEMBL232995

>  <SMILES>  (1) 
C[C@H](Cc1c2OCCc2c(c2c1CCO2)COCC(=O)Oc1ccccc1)N

>  <CID>  (1) 
44431689.0

>  <ChEMBL ID>  (1) 
nan

>  <InChiKey>  (1) 
IYCCUZBPGUYMNP-CQSZACIVSA-N

>  <InChi>  (1) 
InChI=1S/C22H25NO5/c1-14(23)11-18-16-7-9-27-22(16)19(17-8-10-26-21(17)18)12-25-13-20(24)28-15-5-3-2-4-6-15/h2-6,14H,7-13,23H2,1H3/t14-/m1/s1

>  <IUPAC Name>  (1) 
phenyl 2-[[8-[(2R)-2-aminopropyl]-2,3,6,7-tetrahydrofuro[2,3-f][1]benzofuran-4-yl]methoxy]acetate

$$$$
