
     RDKit          3D

 30 29  0  0  0  0  0  0  0  0999 V2000
   -3.8673   -1.3109    0.8895 C   0  0  0  0  0  0  0  0  0  0  0  0
   -4.0592    0.1102    0.3973 C   0  0  0  0  0  0  0  0  0  0  0  0
   -2.7743    0.9039    0.4353 C   0  0  0  0  0  0  0  0  0  0  0  0
   -1.7049    0.2767   -0.4330 C   0  0  0  0  0  0  0  0  0  0  0  0
   -0.4671    1.1418   -0.3261 C   0  0  0  0  0  0  0  0  0  0  0  0
    0.6786    0.5917   -1.1731 C   0  0  0  0  0  0  0  0  0  0  0  0
    1.0578   -0.7614   -0.7540 C   0  0  0  0  0  0  0  0  0  0  0  0
    2.2443   -1.1224   -0.3069 C   0  0  0  0  0  0  0  0  0  0  0  0
    3.3760   -0.2303   -0.1553 C   0  0  0  0  0  0  0  0  0  0  0  0
    3.4187    0.9724   -0.4070 O   0  0  0  0  0  0  0  0  0  0  0  0
    4.5609   -0.8071    0.3360 O   0  0  0  0  0  0  0  0  0  0  0  0
    5.7301   -0.0110    0.5202 C   0  0  0  0  0  0  0  0  0  0  0  0
   -3.1695   -1.3134    1.7387 H   0  0  0  0  0  0  0  0  0  0  0  0
   -4.8571   -1.6423    1.3021 H   0  0  0  0  0  0  0  0  0  0  0  0
   -3.5256   -1.9112    0.0358 H   0  0  0  0  0  0  0  0  0  0  0  0
   -4.5343    0.1500   -0.5884 H   0  0  0  0  0  0  0  0  0  0  0  0
   -4.7492    0.6052    1.1226 H   0  0  0  0  0  0  0  0  0  0  0  0
   -3.0167    1.8969    0.0034 H   0  0  0  0  0  0  0  0  0  0  0  0
   -2.3831    0.9553    1.4573 H   0  0  0  0  0  0  0  0  0  0  0  0
   -2.0782    0.3067   -1.4754 H   0  0  0  0  0  0  0  0  0  0  0  0
   -1.4779   -0.7462   -0.1321 H   0  0  0  0  0  0  0  0  0  0  0  0
   -0.0901    1.1639    0.7159 H   0  0  0  0  0  0  0  0  0  0  0  0
   -0.6828    2.1943   -0.5824 H   0  0  0  0  0  0  0  0  0  0  0  0
    0.1773    0.4506   -2.1924 H   0  0  0  0  0  0  0  0  0  0  0  0
    1.4508    1.3118   -1.3657 H   0  0  0  0  0  0  0  0  0  0  0  0
    0.2653   -1.5289   -0.8288 H   0  0  0  0  0  0  0  0  0  0  0  0
    2.3402   -2.1834   -0.0414 H   0  0  0  0  0  0  0  0  0  0  0  0
    6.2107   -0.4217    1.4324 H   0  0  0  0  0  0  0  0  0  0  0  0
    5.4764    1.0541    0.6861 H   0  0  0  0  0  0  0  0  0  0  0  0
    6.4500   -0.0955   -0.3106 H   0  0  0  0  0  0  0  0  0  0  0  0
  1  2  1  0
  2  3  1  0
  3  4  1  0
  4  5  1  0
  5  6  1  0
  6  7  1  0
  7  8  2  0
  8  9  1  0
  9 10  2  0
  9 11  1  0
 11 12  1  0
  1 13  1  0
  1 14  1  0
  1 15  1  0
  2 16  1  0
  2 17  1  0
  3 18  1  0
  3 19  1  0
  4 20  1  0
  4 21  1  0
  5 22  1  0
  5 23  1  0
  6 24  1  0
  6 25  1  0
  7 26  1  0
  8 27  1  0
 12 28  1  0
 12 29  1  0
 12 30  1  0
M  END
>  <Ligand ID>  (1) 
LIG0000750

>  <Ligand>  (1) 
methyl (Z)-non-2-enoate

>  <SMILES>  (1) 
CCCCCC/C=C\C(=O)OC

>  <CID>  (1) 
5357388.0

>  <ChEMBL ID>  (1) 
nan

>  <InChiKey>  (1) 
ZWNPUELCBZVMDA-HJWRWDBZSA-N

>  <InChi>  (1) 
InChI=1S/C10H18O2/c1-3-4-5-6-7-8-9-10(11)12-2/h8-9H,3-7H2,1-2H3/b9-8-

>  <IUPAC Name>  (1) 
methyl (Z)-non-2-enoate

$$$$
