
     RDKit          3D

 58 61  0  0  0  0  0  0  0  0999 V2000
   10.1894    1.3525   -1.4730 C   0  0  0  0  0  0  0  0  0  0  0  0
    8.8071    1.4183   -0.9182 C   0  0  0  0  0  0  0  0  0  0  0  0
    8.6692    2.0307    0.1814 O   0  0  0  0  0  0  0  0  0  0  0  0
    7.6795    0.8516   -1.5370 N   0  0  0  0  0  0  0  0  0  0  0  0
    6.4118    0.9627   -0.9446 C   0  0  0  0  0  0  0  0  0  0  0  0
    5.6525    2.0830   -1.2918 C   0  0  0  0  0  0  0  0  0  0  0  0
    4.4013    2.2573   -0.7509 C   0  0  0  0  0  0  0  0  0  0  0  0
    3.8438    1.3497    0.1457 C   0  0  0  0  0  0  0  0  0  0  0  0
    4.6086    0.2666    0.4668 C   0  0  0  0  0  0  0  0  0  0  0  0
    5.8723    0.0531   -0.0549 C   0  0  0  0  0  0  0  0  0  0  0  0
    2.2435    1.7230    0.7794 S   0  0  0  0  0  0  0  0  0  0  0  0
    1.4769    0.3766    1.7101 C   0  0  0  0  0  0  0  0  0  0  0  0
    1.0526   -0.7452    0.8565 C   0  0  0  0  0  0  0  0  0  0  0  0
    1.9633   -1.2327    0.0997 O   0  0  0  0  0  0  0  0  0  0  0  0
   -0.2572   -1.3440    0.7812 C   0  0  0  0  0  0  0  0  0  0  0  0
   -0.5441   -2.4220   -0.0689 C   0  0  0  0  0  0  0  0  0  0  0  0
   -1.8647   -2.7775    0.0688 C   0  0  0  0  0  0  0  0  0  0  0  0
   -2.4091   -1.9536    0.9789 N   0  0  0  0  0  0  0  0  0  0  0  0
   -1.4410   -1.0871    1.4122 C   0  0  0  0  0  0  0  0  0  0  0  0
   -1.6982   -0.0569    2.4134 C   0  0  0  0  0  0  0  0  0  0  0  0
   -3.7899   -2.0365    1.3845 C   0  0  0  0  0  0  0  0  0  0  0  0
   -4.7565   -1.2600    0.5771 C   0  0  0  0  0  0  0  0  0  0  0  0
   -4.8469   -1.6064   -0.8723 C   0  0  0  0  0  0  0  0  0  0  0  0
   -5.9622   -0.8684   -1.3943 O   0  0  0  0  0  0  0  0  0  0  0  0
   -6.1185    0.4553   -1.0266 C   0  0  0  0  0  0  0  0  0  0  0  0
   -5.4102    1.0281    0.0345 C   0  0  0  0  0  0  0  0  0  0  0  0
   -4.5310    0.1528    0.6937 O   0  0  0  0  0  0  0  0  0  0  0  0
   -5.5821    2.3302    0.3760 C   0  0  0  0  0  0  0  0  0  0  0  0
   -6.4741    3.0886   -0.3447 C   0  0  0  0  0  0  0  0  0  0  0  0
   -7.1999    2.5488   -1.4124 C   0  0  0  0  0  0  0  0  0  0  0  0
   -7.0098    1.2166   -1.7456 C   0  0  0  0  0  0  0  0  0  0  0  0
   -2.5218   -3.8956   -0.6902 C   0  0  0  0  0  0  0  0  0  0  0  0
   10.5781    2.4005   -1.5899 H   0  0  0  0  0  0  0  0  0  0  0  0
   10.8355    0.8234   -0.7460 H   0  0  0  0  0  0  0  0  0  0  0  0
   10.1254    0.8673   -2.4575 H   0  0  0  0  0  0  0  0  0  0  0  0
    7.7980    0.3520   -2.4350 H   0  0  0  0  0  0  0  0  0  0  0  0
    6.0246    2.8292   -1.9844 H   0  0  0  0  0  0  0  0  0  0  0  0
    3.8492    3.1368   -1.0493 H   0  0  0  0  0  0  0  0  0  0  0  0
    4.2462   -0.4520    1.1607 H   0  0  0  0  0  0  0  0  0  0  0  0
    6.4770   -0.7960    0.1936 H   0  0  0  0  0  0  0  0  0  0  0  0
    2.2219   -0.0605    2.4536 H   0  0  0  0  0  0  0  0  0  0  0  0
    0.7144    0.8309    2.3459 H   0  0  0  0  0  0  0  0  0  0  0  0
    0.1238   -2.9341   -0.7479 H   0  0  0  0  0  0  0  0  0  0  0  0
   -2.7810   -0.0757    2.7600 H   0  0  0  0  0  0  0  0  0  0  0  0
   -1.0923   -0.1591    3.3584 H   0  0  0  0  0  0  0  0  0  0  0  0
   -1.5789    0.9764    2.0361 H   0  0  0  0  0  0  0  0  0  0  0  0
   -3.9198   -1.7509    2.4662 H   0  0  0  0  0  0  0  0  0  0  0  0
   -4.1174   -3.1179    1.3760 H   0  0  0  0  0  0  0  0  0  0  0  0
   -5.7991   -1.3908    0.9864 H   0  0  0  0  0  0  0  0  0  0  0  0
   -5.1289   -2.6585   -0.9947 H   0  0  0  0  0  0  0  0  0  0  0  0
   -3.9576   -1.3792   -1.4669 H   0  0  0  0  0  0  0  0  0  0  0  0
   -5.0143    2.7436    1.2073 H   0  0  0  0  0  0  0  0  0  0  0  0
   -6.6492    4.1281   -0.1150 H   0  0  0  0  0  0  0  0  0  0  0  0
   -7.8955    3.1002   -1.9931 H   0  0  0  0  0  0  0  0  0  0  0  0
   -7.5569    0.7741   -2.5669 H   0  0  0  0  0  0  0  0  0  0  0  0
   -2.8016   -3.4795   -1.6930 H   0  0  0  0  0  0  0  0  0  0  0  0
   -3.3902   -4.2800   -0.1543 H   0  0  0  0  0  0  0  0  0  0  0  0
   -1.7664   -4.6879   -0.8381 H   0  0  0  0  0  0  0  0  0  0  0  0
  1  2  1  0
  2  3  2  0
  2  4  1  0
  4  5  1  0
  5  6  2  0
  6  7  1  0
  7  8  2  0
  8  9  1  0
  9 10  2  0
  8 11  1  0
 11 12  1  0
 12 13  1  0
 13 14  2  0
 13 15  1  0
 15 16  1  0
 16 17  2  0
 17 18  1  0
 18 19  1  0
 19 20  1  0
 18 21  1  0
 21 22  1  0
 22 23  1  0
 23 24  1  0
 24 25  1  0
 25 26  2  0
 26 27  1  0
 26 28  1  0
 28 29  2  0
 29 30  1  0
 30 31  2  0
 17 32  1  0
 10  5  1  0
 19 15  2  0
 27 22  1  0
 31 25  1  0
  1 33  1  0
  1 34  1  0
  1 35  1  0
  4 36  1  0
  6 37  1  0
  7 38  1  0
  9 39  1  0
 10 40  1  0
 12 41  1  0
 12 42  1  0
 16 43  1  0
 20 44  1  0
 20 45  1  0
 20 46  1  0
 21 47  1  0
 21 48  1  0
 22 49  1  0
 23 50  1  0
 23 51  1  0
 28 52  1  0
 29 53  1  0
 30 54  1  0
 31 55  1  0
 32 56  1  0
 32 57  1  0
 32 58  1  0
M  END
>  <Ligand ID>  (1) 
LIG0003731

>  <Ligand>  (1) 
AC1MQNAT

>  <SMILES>  (1) 
CC(=O)Nc1ccc(cc1)SCC(=O)c1cc(n(c1C)CC1COc2c(O1)cccc2)C

>  <CID>  (1) 
3454512.0

>  <ChEMBL ID>  (1) 
nan

>  <InChiKey>  (1) 
VBCKDFPXKSWYNA-UHFFFAOYSA-N

>  <InChi>  (1) 
InChI=1S/C25H26N2O4S/c1-16-12-22(23(29)15-32-21-10-8-19(9-11-21)26-18(3)28)17(2)27(16)13-20-14-30-24-6-4-5-7-25(24)31-20/h4-12,20H,13-15H2,1-3H3,(H,26,28)

>  <IUPAC Name>  (1) 
N-[4-[2-[1-(2,3-dihydro-1,4-benzodioxin-3-ylmethyl)-2,5-dimethylpyrrol-3-yl]-2-oxoethyl]sulfanylphenyl]acetamide

$$$$
