
     RDKit          3D

177182  0  0  0  0  0  0  0  0999 V2000
  -10.3878    4.3657   -4.8314 C   0  0  0  0  0  0  0  0  0  0  0  0
   -9.4587    3.5978   -4.0761 N   0  0  0  0  0  0  0  0  0  0  0  0
   -9.3376    2.3366   -4.0027 C   0  0  0  0  0  0  0  0  0  0  0  0
   -8.2993    1.8006   -3.1439 N   0  0  0  0  0  0  0  0  0  0  0  0
   -7.6374    2.7246   -2.2680 C   0  0  0  0  0  0  0  0  0  0  0  0
   -8.5996    3.1969   -1.2150 C   0  0  0  0  0  0  0  0  0  0  0  0
   -9.1130    2.1569   -0.2825 C   0  0  0  0  0  0  0  0  0  0  0  0
   -8.1810    1.4997    0.6197 C   0  0  1  0  0  0  0  0  0  0  0  0
   -8.8794    0.4917    1.4979 C   0  0  0  0  0  0  0  0  0  0  0  0
   -8.2359   -0.5964    1.6437 O   0  0  0  0  0  0  0  0  0  0  0  0
  -10.1261    0.6929    2.1187 N   0  0  0  0  0  0  0  0  0  0  0  0
  -10.5825   -0.4450    2.9468 C   0  0  2  0  0  0  0  0  0  0  0  0
  -11.4869   -1.3157    2.1694 C   0  0  0  0  0  0  0  0  0  0  0  0
  -11.9749   -1.0135    1.0557 O   0  0  0  0  0  0  0  0  0  0  0  0
  -11.8059   -2.5850    2.7402 N   0  0  0  0  0  0  0  0  0  0  0  0
  -11.3239    0.1176    4.1340 C   0  0  0  0  0  0  0  0  0  0  0  0
  -12.4987    0.9256    3.7917 C   0  0  0  0  0  0  0  0  0  0  0  0
  -12.4220    2.3134    3.6430 C   0  0  0  0  0  0  0  0  0  0  0  0
  -13.6430    2.7910    3.2844 N   0  0  0  0  0  0  0  0  0  0  0  0
  -14.5178    1.7507    3.1963 C   0  0  0  0  0  0  0  0  0  0  0  0
  -13.8026    0.6124    3.5125 C   0  0  0  0  0  0  0  0  0  0  0  0
  -14.4637   -0.5674    3.5150 C   0  0  0  0  0  0  0  0  0  0  0  0
  -15.8202   -0.6640    3.2084 C   0  0  0  0  0  0  0  0  0  0  0  0
  -16.4804    0.4939    2.8975 C   0  0  0  0  0  0  0  0  0  0  0  0
  -15.8631    1.7228    2.8813 C   0  0  0  0  0  0  0  0  0  0  0  0
   -7.0640    0.8155    0.0081 N   0  0  0  0  0  0  0  0  0  0  0  0
   -7.2808   -0.3715   -0.7928 C   0  0  0  0  0  0  0  0  0  0  0  0
   -8.5269   -0.6560   -0.9088 O   0  0  0  0  0  0  0  0  0  0  0  0
   -6.2391   -1.1805   -1.4033 C   0  0  1  0  0  0  0  0  0  0  0  0
   -4.9315   -0.6661   -1.0674 N   0  0  0  0  0  0  0  0  0  0  0  0
   -3.6888   -1.3446   -1.1648 C   0  0  0  0  0  0  0  0  0  0  0  0
   -3.5890   -2.5225   -1.5642 O   0  0  0  0  0  0  0  0  0  0  0  0
   -2.5202   -0.6669   -0.7890 N   0  0  0  0  0  0  0  0  0  0  0  0
   -1.2206   -1.1068   -0.7044 N   0  0  0  0  0  0  0  0  0  0  0  0
   -0.6705   -2.3768   -0.7930 C   0  0  0  0  0  0  0  0  0  0  0  0
   -1.3280   -3.4177   -0.9933 O   0  0  0  0  0  0  0  0  0  0  0  0
    0.8144   -2.5394   -0.6365 C   0  0  2  0  0  0  0  0  0  0  0  0
    0.9866   -3.4320    0.5704 C   0  0  0  0  0  0  0  0  0  0  0  0
    0.4400   -2.9301    1.8292 C   0  0  0  0  0  0  0  0  0  0  0  0
   -0.8094   -3.4337    2.2253 C   0  0  0  0  0  0  0  0  0  0  0  0
   -1.4471   -3.0547    3.3745 C   0  0  0  0  0  0  0  0  0  0  0  0
   -0.8454   -2.1283    4.2052 C   0  0  0  0  0  0  0  0  0  0  0  0
    0.3744   -1.6079    3.8587 C   0  0  0  0  0  0  0  0  0  0  0  0
    1.0018   -2.0182    2.6725 C   0  0  0  0  0  0  0  0  0  0  0  0
    2.1987   -1.4752    2.4237 F   0  0  0  0  0  0  0  0  0  0  0  0
    1.5414   -1.3374   -0.5278 N   0  0  0  0  0  0  0  0  0  0  0  0
    2.6758   -0.9879   -1.3379 C   0  0  0  0  0  0  0  0  0  0  0  0
    3.0487   -1.8600   -2.2057 O   0  0  0  0  0  0  0  0  0  0  0  0
    3.3661    0.3097   -1.1780 C   0  0  2  0  0  0  0  0  0  0  0  0
    2.4349    1.4683   -1.5200 C   0  0  2  0  0  0  0  0  0  0  0  0
    1.3488    1.4790   -0.6774 O   0  0  0  0  0  0  0  0  0  0  0  0
    1.8496    1.2799   -2.9212 C   0  0  0  0  0  0  0  0  0  0  0  0
    4.5523    0.4266   -2.0162 N   0  0  0  0  0  0  0  0  0  0  0  0
    5.7916    0.5365   -1.3468 C   0  0  0  0  0  0  0  0  0  0  0  0
    5.8287    0.4721   -0.0685 O   0  0  0  0  0  0  0  0  0  0  0  0
    7.0941    0.7443   -2.0052 C   0  0  1  0  0  0  0  0  0  0  0  0
    8.2046    0.7769   -1.0907 N   0  0  0  0  0  0  0  0  0  0  0  0
    8.3287    1.6825   -0.0162 C   0  0  0  0  0  0  0  0  0  0  0  0
    7.4214    2.5356    0.2617 O   0  0  0  0  0  0  0  0  0  0  0  0
    9.5285    1.7241    0.8727 C   0  0  1  0  0  0  0  0  0  0  0  0
    9.1554    1.3301    2.2664 C   0  0  0  0  0  0  0  0  0  0  0  0
    8.6140   -0.0189    2.4647 C   0  0  0  0  0  0  0  0  0  0  0  0
    7.2980   -0.3880    2.6230 C   0  0  0  0  0  0  0  0  0  0  0  0
    7.1757   -1.7077    2.8032 N   0  0  0  0  0  0  0  0  0  0  0  0
    8.4335   -2.1968    2.7596 C   0  0  0  0  0  0  0  0  0  0  0  0
    9.3420   -1.1885    2.5530 C   0  0  0  0  0  0  0  0  0  0  0  0
   10.6714   -1.5450    2.4916 C   0  0  0  0  0  0  0  0  0  0  0  0
   11.0687   -2.8777    2.6353 C   0  0  0  0  0  0  0  0  0  0  0  0
   10.1622   -3.8930    2.8423 C   0  0  0  0  0  0  0  0  0  0  0  0
    8.8205   -3.5404    2.9050 C   0  0  0  0  0  0  0  0  0  0  0  0
   10.5834    0.9208    0.2932 N   0  0  0  0  0  0  0  0  0  0  0  0
   11.7261    1.6278   -0.1888 C   0  0  0  0  0  0  0  0  0  0  0  0
   11.7164    2.8787   -0.0787 O   0  0  0  0  0  0  0  0  0  0  0  0
   12.9050    1.0010   -0.8022 C   0  0  1  0  0  0  0  0  0  0  0  0
   14.1447    1.3575   -0.0098 C   0  0  0  0  0  0  0  0  0  0  0  0
   14.3201    2.8212    0.0375 C   0  0  0  0  0  0  0  0  0  0  0  0
   14.8997    3.4853   -1.0473 C   0  0  0  0  0  0  0  0  0  0  0  0
   15.1051    4.8468   -1.0086 C   0  0  0  0  0  0  0  0  0  0  0  0
   14.7352    5.5608    0.1077 C   0  0  0  0  0  0  0  0  0  0  0  0
   14.1599    4.9552    1.2050 C   0  0  0  0  0  0  0  0  0  0  0  0
   13.9711    3.5978    1.1304 C   0  0  0  0  0  0  0  0  0  0  0  0
   14.9342    6.9435    0.1540 O   0  0  0  0  0  0  0  0  0  0  0  0
   12.7694   -0.4623   -0.8608 N   0  0  0  0  0  0  0  0  0  0  0  0
   12.8995   -1.1645   -2.1058 C   0  0  0  0  0  0  0  0  0  0  0  0
   13.1313   -0.4983   -3.1473 O   0  0  0  0  0  0  0  0  0  0  0  0
   12.7530   -2.6366   -2.0832 C   0  0  0  0  0  0  0  0  0  0  0  0
    7.3352    0.0766   -3.3014 C   0  0  0  0  0  0  0  0  0  0  0  0
    7.2261   -1.4121   -3.2568 C   0  0  0  0  0  0  0  0  0  0  0  0
    6.1937   -1.9359   -3.7286 O   0  0  0  0  0  0  0  0  0  0  0  0
    8.3028   -2.1633   -2.6763 N   0  0  0  0  0  0  0  0  0  0  0  0
   -6.3754   -2.6167   -0.8222 C   0  0  0  0  0  0  0  0  0  0  0  0
   -7.7249   -3.1659   -1.1783 C   0  0  0  0  0  0  0  0  0  0  0  0
   -7.8972   -3.1698   -2.7059 C   0  0  0  0  0  0  0  0  0  0  0  0
   -7.7858   -4.6544   -0.7235 C   0  0  0  0  0  0  0  0  0  0  0  0
  -10.2023    1.4864   -4.7413 N   0  0  0  0  0  0  0  0  0  0  0  0
   -9.9915    5.4102   -5.0009 H   0  0  0  0  0  0  0  0  0  0  0  0
  -11.3743    4.5251   -4.3143 H   0  0  0  0  0  0  0  0  0  0  0  0
  -10.5035    3.9017   -5.8205 H   0  0  0  0  0  0  0  0  0  0  0  0
   -8.1146    0.7919   -3.2368 H   0  0  0  0  0  0  0  0  0  0  0  0
   -7.2859    3.5950   -2.9002 H   0  0  0  0  0  0  0  0  0  0  0  0
   -6.7160    2.2886   -1.8360 H   0  0  0  0  0  0  0  0  0  0  0  0
   -9.4476    3.7287   -1.7391 H   0  0  0  0  0  0  0  0  0  0  0  0
   -8.0773    4.0330   -0.6818 H   0  0  0  0  0  0  0  0  0  0  0  0
   -9.9484    2.6773    0.3075 H   0  0  0  0  0  0  0  0  0  0  0  0
   -9.6105    1.3582   -0.9157 H   0  0  0  0  0  0  0  0  0  0  0  0
   -7.7421    2.2504    1.3829 H   0  0  0  0  0  0  0  0  0  0  0  0
  -10.6783    1.5627    2.0064 H   0  0  0  0  0  0  0  0  0  0  0  0
   -9.6656   -1.0087    3.2393 H   0  0  0  0  0  0  0  0  0  0  0  0
  -11.6253   -2.7888    3.7698 H   0  0  0  0  0  0  0  0  0  0  0  0
  -12.2216   -3.3288    2.1266 H   0  0  0  0  0  0  0  0  0  0  0  0
  -10.5990    0.6648    4.7827 H   0  0  0  0  0  0  0  0  0  0  0  0
  -11.7139   -0.7283    4.7789 H   0  0  0  0  0  0  0  0  0  0  0  0
  -11.5458    2.9233    3.7878 H   0  0  0  0  0  0  0  0  0  0  0  0
  -13.8811    3.7692    3.1004 H   0  0  0  0  0  0  0  0  0  0  0  0
  -13.9745   -1.4795    3.7832 H   0  0  0  0  0  0  0  0  0  0  0  0
  -16.3114   -1.6462    3.2236 H   0  0  0  0  0  0  0  0  0  0  0  0
  -17.5325    0.4141    2.6572 H   0  0  0  0  0  0  0  0  0  0  0  0
  -16.4146    2.6356    2.6275 H   0  0  0  0  0  0  0  0  0  0  0  0
   -6.1286    1.2120    0.1850 H   0  0  0  0  0  0  0  0  0  0  0  0
   -6.3432   -1.3654   -2.4775 H   0  0  0  0  0  0  0  0  0  0  0  0
   -4.8896    0.3186   -0.7317 H   0  0  0  0  0  0  0  0  0  0  0  0
   -2.6602    0.3724   -0.5261 H   0  0  0  0  0  0  0  0  0  0  0  0
   -0.5038   -0.3128   -0.5448 H   0  0  0  0  0  0  0  0  0  0  0  0
    1.2332   -3.0999   -1.5252 H   0  0  0  0  0  0  0  0  0  0  0  0
    2.0984   -3.6454    0.7259 H   0  0  0  0  0  0  0  0  0  0  0  0
    0.5115   -4.4235    0.3394 H   0  0  0  0  0  0  0  0  0  0  0  0
   -1.3085   -4.1673    1.6052 H   0  0  0  0  0  0  0  0  0  0  0  0
   -2.4238   -3.5031    3.6039 H   0  0  0  0  0  0  0  0  0  0  0  0
   -1.3903   -1.8635    5.0988 H   0  0  0  0  0  0  0  0  0  0  0  0
    0.8609   -0.8772    4.5169 H   0  0  0  0  0  0  0  0  0  0  0  0
    1.2706   -0.6232    0.1753 H   0  0  0  0  0  0  0  0  0  0  0  0
    3.6701    0.4169   -0.1404 H   0  0  0  0  0  0  0  0  0  0  0  0
    2.9745    2.4133   -1.4347 H   0  0  0  0  0  0  0  0  0  0  0  0
    1.4689    2.1082    0.0807 H   0  0  0  0  0  0  0  0  0  0  0  0
    2.1135    2.1952   -3.5120 H   0  0  0  0  0  0  0  0  0  0  0  0
    0.7358    1.2611   -2.9136 H   0  0  0  0  0  0  0  0  0  0  0  0
    2.1542    0.3497   -3.4096 H   0  0  0  0  0  0  0  0  0  0  0  0
    4.5166    0.4269   -3.0618 H   0  0  0  0  0  0  0  0  0  0  0  0
    7.0047    1.8953   -2.2823 H   0  0  0  0  0  0  0  0  0  0  0  0
    8.9699    0.0837   -1.2420 H   0  0  0  0  0  0  0  0  0  0  0  0
    9.8299    2.8152    0.8718 H   0  0  0  0  0  0  0  0  0  0  0  0
   10.0481    1.4651    2.9448 H   0  0  0  0  0  0  0  0  0  0  0  0
    8.3798    2.0346    2.6896 H   0  0  0  0  0  0  0  0  0  0  0  0
    6.4989    0.3329    2.5987 H   0  0  0  0  0  0  0  0  0  0  0  0
    6.2698   -2.2294    2.9531 H   0  0  0  0  0  0  0  0  0  0  0  0
   11.4106   -0.7745    2.3215 H   0  0  0  0  0  0  0  0  0  0  0  0
   12.1161   -3.0672    2.5647 H   0  0  0  0  0  0  0  0  0  0  0  0
   10.4369   -4.9336    2.9558 H   0  0  0  0  0  0  0  0  0  0  0  0
    8.0755   -4.3162    3.0733 H   0  0  0  0  0  0  0  0  0  0  0  0
   10.5625   -0.0893    0.1857 H   0  0  0  0  0  0  0  0  0  0  0  0
   13.0039    1.3604   -1.8495 H   0  0  0  0  0  0  0  0  0  0  0  0
   15.0456    0.8660   -0.4543 H   0  0  0  0  0  0  0  0  0  0  0  0
   14.0746    0.9905    1.0293 H   0  0  0  0  0  0  0  0  0  0  0  0
   15.1925    2.9387   -1.9326 H   0  0  0  0  0  0  0  0  0  0  0  0
   15.5542    5.4238   -1.8080 H   0  0  0  0  0  0  0  0  0  0  0  0
   13.8492    5.4627    2.0971 H   0  0  0  0  0  0  0  0  0  0  0  0
   13.5137    3.0588    1.9735 H   0  0  0  0  0  0  0  0  0  0  0  0
   14.5104    7.4774    0.8842 H   0  0  0  0  0  0  0  0  0  0  0  0
   12.5751   -1.0114   -0.0255 H   0  0  0  0  0  0  0  0  0  0  0  0
   11.8279   -2.8617   -1.5086 H   0  0  0  0  0  0  0  0  0  0  0  0
   12.5963   -2.9908   -3.1124 H   0  0  0  0  0  0  0  0  0  0  0  0
   13.5964   -3.1158   -1.5453 H   0  0  0  0  0  0  0  0  0  0  0  0
    8.4145    0.2591   -3.6280 H   0  0  0  0  0  0  0  0  0  0  0  0
    6.7365    0.5464   -4.0948 H   0  0  0  0  0  0  0  0  0  0  0  0
    9.3055   -2.0146   -2.9344 H   0  0  0  0  0  0  0  0  0  0  0  0
    7.9987   -2.8829   -1.9502 H   0  0  0  0  0  0  0  0  0  0  0  0
   -5.6454   -3.3002   -1.2929 H   0  0  0  0  0  0  0  0  0  0  0  0
   -6.2729   -2.5077    0.2641 H   0  0  0  0  0  0  0  0  0  0  0  0
   -8.6018   -2.7233   -0.7393 H   0  0  0  0  0  0  0  0  0  0  0  0
   -8.4711   -2.3000   -3.0627 H   0  0  0  0  0  0  0  0  0  0  0  0
   -8.4421   -4.0958   -2.9839 H   0  0  0  0  0  0  0  0  0  0  0  0
   -6.9222   -3.1715   -3.2091 H   0  0  0  0  0  0  0  0  0  0  0  0
   -8.8412   -4.9775   -0.6287 H   0  0  0  0  0  0  0  0  0  0  0  0
   -7.2248   -5.2338   -1.5025 H   0  0  0  0  0  0  0  0  0  0  0  0
   -7.2663   -4.7520    0.2298 H   0  0  0  0  0  0  0  0  0  0  0  0
  -10.0552    1.4106   -5.7603 H   0  0  0  0  0  0  0  0  0  0  0  0
  -10.9354    0.9914   -4.1952 H   0  0  0  0  0  0  0  0  0  0  0  0
  1  2  1  0
  2  3  2  3
  3  4  1  0
  4  5  1  0
  5  6  1  0
  6  7  1  0
  7  8  1  0
  8  9  1  0
  9 10  2  0
  9 11  1  0
 11 12  1  0
 12 13  1  0
 13 14  2  0
 13 15  1  0
 12 16  1  0
 16 17  1  0
 17 18  2  0
 18 19  1  0
 19 20  1  0
 20 21  2  0
 21 22  1  0
 22 23  2  0
 23 24  1  0
 24 25  2  0
  8 26  1  0
 26 27  1  0
 27 28  2  0
 27 29  1  0
 29 30  1  0
 30 31  1  0
 31 32  2  0
 31 33  1  0
 33 34  1  0
 34 35  1  0
 35 36  2  0
 35 37  1  0
 37 38  1  0
 38 39  1  0
 39 40  2  0
 40 41  1  0
 41 42  2  0
 42 43  1  0
 43 44  2  0
 44 45  1  0
 37 46  1  0
 46 47  1  0
 47 48  2  0
 47 49  1  0
 49 50  1  0
 50 51  1  0
 50 52  1  0
 49 53  1  0
 53 54  1  0
 54 55  2  0
 54 56  1  0
 56 57  1  0
 57 58  1  0
 58 59  2  0
 58 60  1  0
 60 61  1  0
 61 62  1  0
 62 63  2  0
 63 64  1  0
 64 65  1  0
 65 66  2  0
 66 67  1  0
 67 68  2  0
 68 69  1  0
 69 70  2  0
 60 71  1  0
 71 72  1  0
 72 73  2  0
 72 74  1  0
 74 75  1  0
 75 76  1  0
 76 77  2  0
 77 78  1  0
 78 79  2  0
 79 80  1  0
 80 81  2  0
 79 82  1  0
 74 83  1  0
 83 84  1  0
 84 85  2  0
 84 86  1  0
 56 87  1  0
 87 88  1  0
 88 89  2  0
 88 90  1  0
 29 91  1  0
 91 92  1  0
 92 93  1  0
 92 94  1  0
  3 95  1  0
 21 17  1  0
 44 39  1  0
 66 62  1  0
 81 76  1  0
 25 20  1  0
 70 65  1  0
  1 96  1  0
  1 97  1  0
  1 98  1  0
  4 99  1  0
  5100  1  0
  5101  1  0
  6102  1  0
  6103  1  0
  7104  1  0
  7105  1  0
  8106  1  1
 11107  1  0
 12108  1  1
 15109  1  0
 15110  1  0
 16111  1  0
 16112  1  0
 18113  1  0
 19114  1  0
 22115  1  0
 23116  1  0
 24117  1  0
 25118  1  0
 26119  1  0
 29120  1  6
 30121  1  0
 33122  1  0
 34123  1  0
 37124  1  6
 38125  1  0
 38126  1  0
 40127  1  0
 41128  1  0
 42129  1  0
 43130  1  0
 46131  1  0
 49132  1  1
 50133  1  6
 51134  1  0
 52135  1  0
 52136  1  0
 52137  1  0
 53138  1  0
 56139  1  6
 57140  1  0
 60141  1  1
 61142  1  0
 61143  1  0
 63144  1  0
 64145  1  0
 67146  1  0
 68147  1  0
 69148  1  0
 70149  1  0
 71150  1  0
 74151  1  6
 75152  1  0
 75153  1  0
 77154  1  0
 78155  1  0
 80156  1  0
 81157  1  0
 82158  1  0
 83159  1  0
 86160  1  0
 86161  1  0
 86162  1  0
 87163  1  0
 87164  1  0
 90165  1  0
 90166  1  0
 91167  1  0
 91168  1  0
 92169  1  0
 93170  1  0
 93171  1  0
 93172  1  0
 94173  1  0
 94174  1  0
 94175  1  0
 95176  1  0
 95177  1  0
M  END
>  <Ligand ID>  (1) 
LIG0005356

>  <Ligand>  (1) 
CHEMBL3928465

>  <SMILES>  (1) 
CN=C(NCCC[C@@H](C(=O)N[C@H](C(=O)N)Cc1c[nH]c2c1cccc2)NC(=O)[C@@H](NC(=O)NNC(=O)[C@H](Cc1ccccc1F)NC(=O)[C@H]([C@H](O)C)NC(=O)[C@@H](NC(=O)[C@@H](Cc1c[nH]c2c1cccc2)NC(=O)[C@@H](Cc1ccc(cc1)O)NC(=O)C)CC(=O)N)CC(C)C)N

>  <CID>  (1) 
25075963.0

>  <ChEMBL ID>  (1) 
nan

>  <InChiKey>  (1) 
AHGOKONQDBKFQJ-CEEUSAPOSA-N

>  <InChi>  (1) 
InChI=1S/C64H82FN17O13/c1-33(2)25-48(57(89)74-46(19-12-24-70-63(68)69-5)56(88)75-47(55(67)87)28-38-31-71-44-17-10-7-14-41(38)44)79-64(95)82-81-61(93)51(27-37-13-6-9-16-43(37)65)78-62(94)54(34(3)83)80-60(92)52(30-53(66)86)77-59(91)50(29-39-32-72-45-18-11-8-15-42(39)45)76-58(90)49(73-35(4)84)26-36-20-22-40(85)23-21-36/h6-11,13-18,20-23,31-34,46-52,54,71-72,83,85H,12,19,24-30H2,1-5H3,(H2,66,86)(H2,67,87)(H,73,84)(H,74,89)(H,75,88)(H,76,90)(H,77,91)(H,78,94)(H,80,92)(H,81,93)(H3,68,69,70)(H2,79,82,95)/t34-,46+,47+,48+,49-,50-,51+,52+,54+/m1/s1

>  <IUPAC Name>  (1) 
(2S)-2-[[(2R)-2-[[(2R)-2-acetamido-3-(4-hydroxyphenyl)propanoyl]amino]-3-(1H-indol-3-yl)propanoyl]amino]-N-[(2S,3R)-1-[[(2S)-1-[2-[[(2S)-1-[[(2S)-1-[[(2S)-1-amino-3-(1H-indol-3-yl)-1-oxopropan-2-yl]amino]-5-[(N'-methylcarbamimidoyl)amino]-1-oxopentan-2-yl]amino]-4-methyl-1-oxopentan-2-yl]carbamoyl]hydrazinyl]-3-(2-fluorophenyl)-1-oxopropan-2-yl]amino]-3-hydroxy-1-oxobutan-2-yl]butanediamide

$$$$
