
     RDKit          3D

 22 23  0  0  0  0  0  0  0  0999 V2000
    3.8903    0.8830    0.5760 N   0  0  0  0  0  0  0  0  0  0  0  0
    2.7674    0.1759    0.0333 C   0  0  0  0  0  0  0  0  0  0  0  0
    1.6989   -0.0460    0.7082 N   0  0  0  0  0  0  0  0  0  0  0  0
    0.7734   -0.7728   -0.1178 C   0  0  2  0  0  0  0  0  0  0  0  0
    1.2441   -0.5014   -1.5074 C   0  0  0  0  0  0  0  0  0  0  0  0
    2.6561   -0.3627   -1.2590 O   0  0  0  0  0  0  0  0  0  0  0  0
   -0.6425   -0.3820    0.1098 C   0  0  0  0  0  0  0  0  0  0  0  0
   -0.9491    0.9604    0.1955 C   0  0  0  0  0  0  0  0  0  0  0  0
   -2.2501    1.3745    0.4062 C   0  0  0  0  0  0  0  0  0  0  0  0
   -3.2365    0.4048    0.5287 C   0  0  0  0  0  0  0  0  0  0  0  0
   -2.9608   -0.9348    0.4478 C   0  0  0  0  0  0  0  0  0  0  0  0
   -1.6522   -1.3232    0.2367 C   0  0  0  0  0  0  0  0  0  0  0  0
   -5.0664    0.9180    0.8230 Br  0  0  0  0  0  0  0  0  0  0  0  0
    4.2651    1.7602    0.1544 H   0  0  0  0  0  0  0  0  0  0  0  0
    4.3084    0.4397    1.4423 H   0  0  0  0  0  0  0  0  0  0  0  0
    0.9381   -1.8545    0.0697 H   0  0  0  0  0  0  0  0  0  0  0  0
    0.9116    0.4815   -1.8976 H   0  0  0  0  0  0  0  0  0  0  0  0
    1.0632   -1.3323   -2.2288 H   0  0  0  0  0  0  0  0  0  0  0  0
   -0.1852    1.7201    0.1009 H   0  0  0  0  0  0  0  0  0  0  0  0
   -2.4878    2.4464    0.4736 H   0  0  0  0  0  0  0  0  0  0  0  0
   -3.7326   -1.7003    0.5434 H   0  0  0  0  0  0  0  0  0  0  0  0
   -1.3533   -2.3543    0.1611 H   0  0  0  0  0  0  0  0  0  0  0  0
  1  2  1  0
  2  3  2  0
  3  4  1  0
  4  5  1  0
  5  6  1  0
  4  7  1  0
  7  8  2  0
  8  9  1  0
  9 10  2  0
 10 11  1  0
 11 12  2  0
 10 13  1  0
  6  2  1  0
 12  7  1  0
  1 14  1  0
  1 15  1  0
  4 16  1  1
  5 17  1  0
  5 18  1  0
  8 19  1  0
  9 20  1  0
 11 21  1  0
 12 22  1  0
M  END
>  <Ligand ID>  (1) 
LIG0005698

>  <Ligand>  (1) 
SCHEMBL3616446

>  <SMILES>  (1) 
NC1=N[C@H](CO1)c1ccc(cc1)Br

>  <CID>  (1) 
24966115.0

>  <ChEMBL ID>  (1) 
nan

>  <InChiKey>  (1) 
CWSFSFQMKPGYPP-MRVPVSSYSA-N

>  <InChi>  (1) 
InChI=1S/C9H9BrN2O/c10-7-3-1-6(2-4-7)8-5-13-9(11)12-8/h1-4,8H,5H2,(H2,11,12)/t8-/m1/s1

>  <IUPAC Name>  (1) 
(4S)-4-(4-bromophenyl)-4,5-dihydro-1,3-oxazol-2-amine

$$$$
