
     RDKit          3D

 30 32  0  0  0  0  0  0  0  0999 V2000
    5.2026    0.2409   -0.1518 C   0  0  0  0  0  0  0  0  0  0  0  0
    4.0203   -0.2060   -0.7604 O   0  0  0  0  0  0  0  0  0  0  0  0
    2.8120    0.1247   -0.1654 C   0  0  0  0  0  0  0  0  0  0  0  0
    2.7102    0.8682    0.9907 C   0  0  0  0  0  0  0  0  0  0  0  0
    1.4587    1.1450    1.5052 C   0  0  0  0  0  0  0  0  0  0  0  0
    0.2983    0.6865    0.8772 C   0  0  0  0  0  0  0  0  0  0  0  0
    0.3932   -0.0590   -0.2814 C   0  0  0  0  0  0  0  0  0  0  0  0
    1.6561   -0.3210   -0.7739 C   0  0  0  0  0  0  0  0  0  0  0  0
   -0.8453   -0.5584   -0.9672 C   0  0  0  0  0  0  0  0  0  0  0  0
   -1.6825   -1.4340   -0.0951 C   0  0  0  0  0  0  0  0  0  0  0  0
   -2.9891   -0.8105   -0.1064 N   0  0  0  0  0  0  0  0  0  0  0  0
   -2.9960    0.3170   -0.8061 C   0  0  0  0  0  0  0  0  0  0  0  0
   -1.6773    0.6328   -1.3828 C   0  0  0  0  0  0  0  0  0  0  0  0
   -4.2520    0.8436   -0.7717 N   0  0  0  0  0  0  0  0  0  0  0  0
   -5.0640    0.0352   -0.0345 C   0  0  0  0  0  0  0  0  0  0  0  0
   -4.2329   -1.0118    0.3774 C   0  0  0  0  0  0  0  0  0  0  0  0
    6.0382    0.0573   -0.8569 H   0  0  0  0  0  0  0  0  0  0  0  0
    5.3509   -0.3564    0.7866 H   0  0  0  0  0  0  0  0  0  0  0  0
    5.1575    1.3034    0.1737 H   0  0  0  0  0  0  0  0  0  0  0  0
    3.5881    1.2210    1.4749 H   0  0  0  0  0  0  0  0  0  0  0  0
    1.3601    1.7306    2.4170 H   0  0  0  0  0  0  0  0  0  0  0  0
   -0.6854    0.9102    1.2913 H   0  0  0  0  0  0  0  0  0  0  0  0
    1.7335   -0.9135   -1.6950 H   0  0  0  0  0  0  0  0  0  0  0  0
   -0.5116   -1.1238   -1.8640 H   0  0  0  0  0  0  0  0  0  0  0  0
   -1.3351   -1.4839    0.9607 H   0  0  0  0  0  0  0  0  0  0  0  0
   -1.7982   -2.4435   -0.5356 H   0  0  0  0  0  0  0  0  0  0  0  0
   -1.7605    0.7179   -2.4856 H   0  0  0  0  0  0  0  0  0  0  0  0
   -1.2419    1.5658   -0.9779 H   0  0  0  0  0  0  0  0  0  0  0  0
   -6.1181    0.1679    0.1869 H   0  0  0  0  0  0  0  0  0  0  0  0
   -4.5897   -1.8463    0.9996 H   0  0  0  0  0  0  0  0  0  0  0  0
  1  2  1  0
  2  3  1  0
  3  4  2  0
  4  5  1  0
  5  6  2  0
  6  7  1  0
  7  8  2  0
  7  9  1  0
  9 10  1  0
 10 11  1  0
 11 12  1  0
 12 13  1  0
 12 14  2  0
 14 15  1  0
 15 16  2  0
  8  3  1  0
 13  9  1  0
 16 11  1  0
  1 17  1  0
  1 18  1  0
  1 19  1  0
  4 20  1  0
  5 21  1  0
  6 22  1  0
  8 23  1  0
  9 24  1  0
 10 25  1  0
 10 26  1  0
 13 27  1  0
 13 28  1  0
 15 29  1  0
 16 30  1  0
M  END
>  <Ligand ID>  (1) 
LIG0004836

>  <Ligand>  (1) 
CHEMBL507755

>  <SMILES>  (1) 
COc1cccc(c1)C1Cn2c(C1)ncc2

>  <CID>  (1) 
44574938.0

>  <ChEMBL ID>  (1) 
nan

>  <InChiKey>  (1) 
OZJCKBRXCUUNCT-UHFFFAOYSA-N

>  <InChi>  (1) 
InChI=1S/C13H14N2O/c1-16-12-4-2-3-10(7-12)11-8-13-14-5-6-15(13)9-11/h2-7,11H,8-9H2,1H3

>  <IUPAC Name>  (1) 
6-(3-methoxyphenyl)-6,7-dihydro-5H-pyrrolo[1,2-a]imidazole

$$$$
