
     RDKit          3D

 48 51  0  0  0  0  0  0  0  0999 V2000
    2.0094    3.9889    0.1760 C   0  0  0  0  0  0  0  0  0  0  0  0
    2.1593    2.8651    1.1880 C   0  0  0  0  0  0  0  0  0  0  0  0
    0.9463    1.9572    1.1894 C   0  0  0  0  0  0  0  0  0  0  0  0
    0.7916    1.3946   -0.1177 N   0  0  0  0  0  0  0  0  0  0  0  0
    1.8328    0.4834   -0.4616 C   0  0  0  0  0  0  0  0  0  0  0  0
    1.7141   -0.7966    0.3048 C   0  0  2  0  0  0  0  0  0  0  0  0
    2.8416   -1.7508    0.1178 C   0  0  0  0  0  0  0  0  0  0  0  0
    3.1204   -2.3102   -1.5549 S   0  0  0  0  0  0  0  0  0  0  0  0
    4.5508   -3.4558   -1.4824 C   0  0  0  0  0  0  0  0  0  0  0  0
    0.3754   -1.4304   -0.0638 C   0  0  0  0  0  0  0  0  0  0  0  0
   -0.6670   -0.4480    0.4842 C   0  0  1  0  0  0  0  0  0  0  0  0
   -0.4965    0.7895   -0.3563 C   0  0  1  0  0  0  0  0  0  0  0  0
   -1.6214    1.7531   -0.3435 C   0  0  0  0  0  0  0  0  0  0  0  0
   -2.9270    1.0813   -0.4002 C   0  0  0  0  0  0  0  0  0  0  0  0
   -4.2082    1.4983   -0.7678 C   0  0  0  0  0  0  0  0  0  0  0  0
   -5.0433    0.4257   -0.6242 N   0  0  0  0  0  0  0  0  0  0  0  0
   -4.3400   -0.6368   -0.1843 C   0  0  0  0  0  0  0  0  0  0  0  0
   -3.0397   -0.2260   -0.0490 C   0  0  0  0  0  0  0  0  0  0  0  0
   -2.0084   -1.0235    0.3790 C   0  0  0  0  0  0  0  0  0  0  0  0
   -2.2944   -2.3343    0.6971 C   0  0  0  0  0  0  0  0  0  0  0  0
   -3.6124   -2.7818    0.5685 C   0  0  0  0  0  0  0  0  0  0  0  0
   -4.6247   -1.9488    0.1344 C   0  0  0  0  0  0  0  0  0  0  0  0
    2.6032    4.8874    0.4576 H   0  0  0  0  0  0  0  0  0  0  0  0
    2.3840    3.6745   -0.8298 H   0  0  0  0  0  0  0  0  0  0  0  0
    0.9520    4.3320    0.0809 H   0  0  0  0  0  0  0  0  0  0  0  0
    2.2581    3.3957    2.1806 H   0  0  0  0  0  0  0  0  0  0  0  0
    3.1004    2.3351    0.9469 H   0  0  0  0  0  0  0  0  0  0  0  0
    0.1027    2.5852    1.4888 H   0  0  0  0  0  0  0  0  0  0  0  0
    1.0939    1.2328    2.0045 H   0  0  0  0  0  0  0  0  0  0  0  0
    2.8405    0.9067   -0.4702 H   0  0  0  0  0  0  0  0  0  0  0  0
    1.6408    0.1961   -1.5397 H   0  0  0  0  0  0  0  0  0  0  0  0
    1.6363   -0.6396    1.4191 H   0  0  0  0  0  0  0  0  0  0  0  0
    3.7758   -1.2859    0.5125 H   0  0  0  0  0  0  0  0  0  0  0  0
    2.6027   -2.6470    0.7593 H   0  0  0  0  0  0  0  0  0  0  0  0
    4.8335   -3.8214   -2.4695 H   0  0  0  0  0  0  0  0  0  0  0  0
    5.3978   -2.9565   -0.9364 H   0  0  0  0  0  0  0  0  0  0  0  0
    4.2698   -4.3201   -0.8433 H   0  0  0  0  0  0  0  0  0  0  0  0
    0.3159   -1.3749   -1.1668 H   0  0  0  0  0  0  0  0  0  0  0  0
    0.3048   -2.4261    0.3672 H   0  0  0  0  0  0  0  0  0  0  0  0
   -0.3467   -0.2849    1.5417 H   0  0  0  0  0  0  0  0  0  0  0  0
   -0.4159    0.4083   -1.4196 H   0  0  0  0  0  0  0  0  0  0  0  0
   -1.5557    2.3494   -1.3049 H   0  0  0  0  0  0  0  0  0  0  0  0
   -1.6431    2.4971    0.4500 H   0  0  0  0  0  0  0  0  0  0  0  0
   -4.4654    2.4943   -1.1014 H   0  0  0  0  0  0  0  0  0  0  0  0
   -6.0746    0.4252   -0.8242 H   0  0  0  0  0  0  0  0  0  0  0  0
   -1.5357   -2.9983    1.0330 H   0  0  0  0  0  0  0  0  0  0  0  0
   -3.8804   -3.7971    0.8058 H   0  0  0  0  0  0  0  0  0  0  0  0
   -5.6536   -2.2621    0.0245 H   0  0  0  0  0  0  0  0  0  0  0  0
  1  2  1  0
  2  3  1  0
  3  4  1  0
  4  5  1  0
  5  6  1  0
  6  7  1  0
  7  8  1  0
  8  9  1  0
  6 10  1  0
 10 11  1  0
 11 12  1  0
 12 13  1  0
 13 14  1  0
 14 15  2  0
 15 16  1  0
 16 17  1  0
 17 18  2  0
 18 19  1  0
 19 20  2  0
 20 21  1  0
 21 22  2  0
 12  4  1  0
 18 14  1  0
 19 11  1  0
 22 17  1  0
  1 23  1  0
  1 24  1  0
  1 25  1  0
  2 26  1  0
  2 27  1  0
  3 28  1  0
  3 29  1  0
  5 30  1  0
  5 31  1  0
  6 32  1  1
  7 33  1  0
  7 34  1  0
  9 35  1  0
  9 36  1  0
  9 37  1  0
 10 38  1  0
 10 39  1  0
 11 40  1  1
 12 41  1  6
 13 42  1  0
 13 43  1  0
 15 44  1  0
 16 45  1  0
 20 46  1  0
 21 47  1  0
 22 48  1  0
M  END
>  <Ligand ID>  (1) 
LIG0000706

>  <Ligand>  (1) 
pergolide

>  <SMILES>  (1) 
CCCN1C[C@H](CSC)C[C@H]2[C@H]1Cc1c[nH]c3c1c2ccc3

>  <CID>  (1) 
47811.0

>  <ChEMBL ID>  (1) 
nan

>  <InChiKey>  (1) 
YEHCICAEULNIGD-MZMPZRCHSA-N

>  <InChi>  (1) 
InChI=1S/C19H26N2S/c1-3-7-21-11-13(12-22-2)8-16-15-5-4-6-17-19(15)14(10-20-17)9-18(16)21/h4-6,10,13,16,18,20H,3,7-9,11-12H2,1-2H3/t13-,16-,18-/m1/s1

>  <IUPAC Name>  (1) 
(6aR,9R,10aR)-9-(methylsulfanylmethyl)-7-propyl-6,6a,8,9,10,10a-hexahydro-4H-indolo[4,3-fg]quinoline

$$$$
