
     RDKit          3D

 34 35  0  0  0  0  0  0  0  0999 V2000
   -0.8192   -2.0058    0.1408 C   0  0  0  0  0  0  0  0  0  0  0  0
   -0.4443   -0.8014   -0.6983 C   0  0  0  0  0  0  0  0  0  0  0  0
   -1.2080   -0.8659   -1.9987 C   0  0  0  0  0  0  0  0  0  0  0  0
   -2.2904    0.1782   -2.0899 C   0  0  0  0  0  0  0  0  0  0  0  0
   -2.9606    0.2278   -0.7328 C   0  0  0  0  0  0  0  0  0  0  0  0
   -2.0319    0.9191    0.2058 C   0  0  0  0  0  0  0  0  0  0  0  0
   -0.6914    0.4298    0.0248 N   0  0  0  0  0  0  0  0  0  0  0  0
    0.3678    1.2112    0.5880 C   0  0  0  0  0  0  0  0  0  0  0  0
    0.0573    2.2585    1.1947 O   0  0  0  0  0  0  0  0  0  0  0  0
    1.7640    0.8436    0.4852 C   0  0  0  0  0  0  0  0  0  0  0  0
    2.3975    0.6991   -0.7042 N   0  0  0  0  0  0  0  0  0  0  0  0
    3.6486    0.3642   -0.5114 O   0  0  0  0  0  0  0  0  0  0  0  0
    3.8618    0.2826    0.7802 C   0  0  0  0  0  0  0  0  0  0  0  0
    2.6965    0.5776    1.4667 C   0  0  0  0  0  0  0  0  0  0  0  0
    5.1464   -0.0693    1.3877 C   0  0  0  0  0  0  0  0  0  0  0  0
   -2.4781    0.8296    1.6505 C   0  0  0  0  0  0  0  0  0  0  0  0
   -1.5653   -2.6629   -0.3497 H   0  0  0  0  0  0  0  0  0  0  0  0
    0.0450   -2.6600    0.3849 H   0  0  0  0  0  0  0  0  0  0  0  0
   -1.2444   -1.7051    1.1218 H   0  0  0  0  0  0  0  0  0  0  0  0
    0.6293   -0.9083   -0.9630 H   0  0  0  0  0  0  0  0  0  0  0  0
   -0.5634   -0.7440   -2.8963 H   0  0  0  0  0  0  0  0  0  0  0  0
   -1.7180   -1.8444   -2.1251 H   0  0  0  0  0  0  0  0  0  0  0  0
   -1.8068    1.1572   -2.2644 H   0  0  0  0  0  0  0  0  0  0  0  0
   -2.9920   -0.0832   -2.8905 H   0  0  0  0  0  0  0  0  0  0  0  0
   -3.1367   -0.8090   -0.3483 H   0  0  0  0  0  0  0  0  0  0  0  0
   -3.9386    0.7440   -0.8065 H   0  0  0  0  0  0  0  0  0  0  0  0
   -1.9921    2.0094   -0.0442 H   0  0  0  0  0  0  0  0  0  0  0  0
    2.5022    0.6084    2.5261 H   0  0  0  0  0  0  0  0  0  0  0  0
    5.4836   -1.0225    0.8915 H   0  0  0  0  0  0  0  0  0  0  0  0
    5.8686    0.7187    1.0912 H   0  0  0  0  0  0  0  0  0  0  0  0
    5.0842   -0.2174    2.4798 H   0  0  0  0  0  0  0  0  0  0  0  0
   -1.5643    0.7775    2.2539 H   0  0  0  0  0  0  0  0  0  0  0  0
   -3.1004    1.6932    1.8922 H   0  0  0  0  0  0  0  0  0  0  0  0
   -3.0069   -0.1305    1.7758 H   0  0  0  0  0  0  0  0  0  0  0  0
  1  2  1  0
  2  3  1  0
  3  4  1  0
  4  5  1  0
  5  6  1  0
  6  7  1  0
  7  8  1  0
  8  9  2  0
  8 10  1  0
 10 11  2  0
 11 12  1  0
 12 13  1  0
 13 14  2  0
 13 15  1  0
  6 16  1  0
  7  2  1  0
 14 10  1  0
  1 17  1  0
  1 18  1  0
  1 19  1  0
  2 20  1  0
  3 21  1  0
  3 22  1  0
  4 23  1  0
  4 24  1  0
  5 25  1  0
  5 26  1  0
  6 27  1  0
 14 28  1  0
 15 29  1  0
 15 30  1  0
 15 31  1  0
 16 32  1  0
 16 33  1  0
 16 34  1  0
M  END
>  <Ligand ID>  (1) 
LIG0004009

>  <Ligand>  (1) 
ChemDiv2_005840

>  <SMILES>  (1) 
CC1CCCC(N1C(=O)c1noc(c1)C)C

>  <CID>  (1) 
4231415.0

>  <ChEMBL ID>  (1) 
nan

>  <InChiKey>  (1) 
KNUSTMSNVGBGPV-UHFFFAOYSA-N

>  <InChi>  (1) 
InChI=1S/C12H18N2O2/c1-8-5-4-6-9(2)14(8)12(15)11-7-10(3)16-13-11/h7-9H,4-6H2,1-3H3

>  <IUPAC Name>  (1) 
(2,6-dimethylpiperidin-1-yl)-(5-methyl-1,2-oxazol-3-yl)methanone

$$$$
