
     RDKit          3D

145150  0  0  0  0  0  0  0  0999 V2000
   10.7819    0.3350   -3.3136 C   0  0  0  0  0  0  0  0  0  0  0  0
    9.4665   -0.3640   -3.1379 C   0  0  0  0  0  0  0  0  0  0  0  0
    8.5013    0.4436   -2.2525 C   0  0  0  0  0  0  0  0  0  0  0  0
    7.2150   -0.3108   -2.1046 C   0  0  0  0  0  0  0  0  0  0  0  0
    6.2874    0.4914   -1.1923 C   0  0  1  0  0  0  0  0  0  0  0  0
    4.9883   -0.2616   -1.0262 C   0  0  0  0  0  0  0  0  0  0  0  0
    4.2653   -0.4918   -2.0434 O   0  0  0  0  0  0  0  0  0  0  0  0
    4.5902   -0.7098    0.2916 N   0  0  0  0  0  0  0  0  0  0  0  0
    3.3780   -1.4326    0.4929 C   0  0  1  0  0  0  0  0  0  0  0  0
    3.6532   -2.9375    0.6471 C   0  0  0  0  0  0  0  0  0  0  0  0
    4.1951   -3.5087   -0.6234 C   0  0  0  0  0  0  0  0  0  0  0  0
    4.4333   -4.9900   -0.5049 C   0  0  0  0  0  0  0  0  0  0  0  0
    3.1954   -5.7517   -0.1079 C   0  0  0  0  0  0  0  0  0  0  0  0
    2.0641   -5.5612   -0.9725 N   0  0  0  0  0  0  0  0  0  0  0  0
    1.7962   -5.5661   -2.2608 N   0  0  0  0  0  0  0  0  0  0  0  0
    0.5272   -5.3185   -2.5168 N   0  0  0  0  0  0  0  0  0  0  0  0
   -0.1168   -5.1352   -1.3654 C   0  0  0  0  0  0  0  0  0  0  0  0
    0.8767   -5.2923   -0.3716 C   0  0  0  0  0  0  0  0  0  0  0  0
   -1.4534   -4.8384   -0.8511 C   0  0  0  0  0  0  0  0  0  0  0  0
   -2.3446   -4.0598   -1.7912 C   0  0  2  0  0  0  0  0  0  0  0  0
   -3.5900   -3.7138   -1.0522 N   0  0  0  0  0  0  0  0  0  0  0  0
   -4.0314   -2.3592   -0.9703 C   0  0  0  0  0  0  0  0  0  0  0  0
   -3.4020   -1.5563   -1.6575 O   0  0  0  0  0  0  0  0  0  0  0  0
   -5.2083   -1.9706   -0.0804 C   0  0  1  0  0  0  0  0  0  0  0  0
   -5.3590   -0.5041   -0.1657 N   0  0  0  0  0  0  0  0  0  0  0  0
   -4.2728    0.2613    0.2092 C   0  0  0  0  0  0  0  0  0  0  0  0
   -3.2196   -0.3128    0.5370 O   0  0  0  0  0  0  0  0  0  0  0  0
   -4.1766    1.7937    0.2649 C   0  0  1  0  0  0  0  0  0  0  0  0
   -2.7583    2.0156   -0.1041 N   0  0  0  0  0  0  0  0  0  0  0  0
   -1.7371    2.1658    0.9140 C   0  0  0  0  0  0  0  0  0  0  0  0
   -2.1880    2.3923    2.0342 O   0  0  0  0  0  0  0  0  0  0  0  0
   -0.3487    2.0190    0.4771 C   0  0  2  0  0  0  0  0  0  0  0  0
    0.6078    1.6670    1.5377 N   0  0  0  0  0  0  0  0  0  0  0  0
    0.3563    0.7535    2.5845 C   0  0  0  0  0  0  0  0  0  0  0  0
   -0.8144    0.4430    2.8066 O   0  0  0  0  0  0  0  0  0  0  0  0
    1.4786    0.1733    3.4364 C   0  0  1  0  0  0  0  0  0  0  0  0
    2.5953    0.0974    2.4520 N   0  0  0  0  0  0  0  0  0  0  0  0
    2.5164   -1.0132    1.5736 C   0  0  0  0  0  0  0  0  0  0  0  0
    1.4933   -1.7573    1.7964 O   0  0  0  0  0  0  0  0  0  0  0  0
    1.9049    1.0037    4.5664 C   0  0  0  0  0  0  0  0  0  0  0  0
    2.4331    2.3465    4.2400 C   0  0  0  0  0  0  0  0  0  0  0  0
    1.7786    3.5306    4.1332 N   0  0  0  0  0  0  0  0  0  0  0  0
    2.6497    4.5163    3.8293 C   0  0  0  0  0  0  0  0  0  0  0  0
    3.8918    3.9784    3.7339 N   0  0  0  0  0  0  0  0  0  0  0  0
    3.7633    2.6628    3.9822 C   0  0  0  0  0  0  0  0  0  0  0  0
    0.2591    2.8557   -0.5470 C   0  0  0  0  0  0  0  0  0  0  0  0
    0.3507    4.3041   -0.3610 C   0  0  0  0  0  0  0  0  0  0  0  0
   -0.5164    5.1951   -0.9492 C   0  0  0  0  0  0  0  0  0  0  0  0
   -0.4875    6.5544   -0.7772 C   0  0  0  0  0  0  0  0  0  0  0  0
    0.4751    7.1048    0.0420 C   0  0  0  0  0  0  0  0  0  0  0  0
    1.3597    6.2735    0.6490 C   0  0  0  0  0  0  0  0  0  0  0  0
    1.3256    4.8826    0.4712 C   0  0  0  0  0  0  0  0  0  0  0  0
   -5.1712    2.3258   -0.6593 C   0  0  0  0  0  0  0  0  0  0  0  0
   -5.2949    3.8172   -0.7212 C   0  0  0  0  0  0  0  0  0  0  0  0
   -4.0672    4.5301   -1.1814 C   0  0  0  0  0  0  0  0  0  0  0  0
   -3.7249    4.1106   -2.5433 N   0  0  0  0  0  0  0  0  0  0  0  0
   -4.4604    4.5659   -3.5200 C   0  0  0  0  0  0  0  0  0  0  0  0
   -5.5576    5.4378   -3.3107 N   0  0  0  0  0  0  0  0  0  0  0  0
   -4.1809    4.1937   -4.8749 N   0  0  0  0  0  0  0  0  0  0  0  0
   -6.4083   -2.7212   -0.4878 C   0  0  0  0  0  0  0  0  0  0  0  0
   -7.6046   -2.4220    0.3236 C   0  0  0  0  0  0  0  0  0  0  0  0
   -8.7054   -1.6332    0.0116 C   0  0  0  0  0  0  0  0  0  0  0  0
   -9.5347   -1.6751    1.0829 N   0  0  0  0  0  0  0  0  0  0  0  0
   -8.9856   -2.4581    2.0381 C   0  0  0  0  0  0  0  0  0  0  0  0
   -7.7759   -2.9467    1.6051 C   0  0  0  0  0  0  0  0  0  0  0  0
   -7.0030   -3.7813    2.3824 C   0  0  0  0  0  0  0  0  0  0  0  0
   -7.4043   -4.1638    3.6253 C   0  0  0  0  0  0  0  0  0  0  0  0
   -8.6254   -3.6814    4.0850 C   0  0  0  0  0  0  0  0  0  0  0  0
   -9.3958   -2.8434    3.2985 C   0  0  0  0  0  0  0  0  0  0  0  0
   -2.7531   -5.0107   -2.8601 C   0  0  0  0  0  0  0  0  0  0  0  0
   -1.8549   -5.4523   -3.6580 O   0  0  0  0  0  0  0  0  0  0  0  0
   -4.0751   -5.4625   -3.0544 N   0  0  0  0  0  0  0  0  0  0  0  0
    6.8930    0.6200    0.1099 N   0  0  0  0  0  0  0  0  0  0  0  0
    7.1281    1.9203    0.6300 C   0  0  0  0  0  0  0  0  0  0  0  0
    6.7960    2.8920   -0.0781 O   0  0  0  0  0  0  0  0  0  0  0  0
    7.7541    2.0614    1.9835 C   0  0  0  0  0  0  0  0  0  0  0  0
   10.7949    1.2392   -2.6393 H   0  0  0  0  0  0  0  0  0  0  0  0
   11.5939   -0.3541   -2.9921 H   0  0  0  0  0  0  0  0  0  0  0  0
   10.9783    0.6473   -4.3364 H   0  0  0  0  0  0  0  0  0  0  0  0
    9.6455   -1.3447   -2.6667 H   0  0  0  0  0  0  0  0  0  0  0  0
    9.0357   -0.4742   -4.1669 H   0  0  0  0  0  0  0  0  0  0  0  0
    8.2902    1.4361   -2.7357 H   0  0  0  0  0  0  0  0  0  0  0  0
    9.0182    0.5895   -1.3071 H   0  0  0  0  0  0  0  0  0  0  0  0
    7.3813   -1.2852   -1.6253 H   0  0  0  0  0  0  0  0  0  0  0  0
    6.6872   -0.4358   -3.0742 H   0  0  0  0  0  0  0  0  0  0  0  0
    6.1148    1.4534   -1.6613 H   0  0  0  0  0  0  0  0  0  0  0  0
    5.1843   -0.5100    1.1348 H   0  0  0  0  0  0  0  0  0  0  0  0
    2.7845   -1.3746   -0.4992 H   0  0  0  0  0  0  0  0  0  0  0  0
    4.4121   -3.0067    1.4423 H   0  0  0  0  0  0  0  0  0  0  0  0
    2.7381   -3.4361    0.9858 H   0  0  0  0  0  0  0  0  0  0  0  0
    3.4382   -3.3556   -1.4368 H   0  0  0  0  0  0  0  0  0  0  0  0
    5.1536   -3.0356   -0.9278 H   0  0  0  0  0  0  0  0  0  0  0  0
    5.2120   -5.1496    0.2874 H   0  0  0  0  0  0  0  0  0  0  0  0
    4.8167   -5.4047   -1.4635 H   0  0  0  0  0  0  0  0  0  0  0  0
    3.4845   -6.8309   -0.0315 H   0  0  0  0  0  0  0  0  0  0  0  0
    2.9476   -5.4561    0.9234 H   0  0  0  0  0  0  0  0  0  0  0  0
    0.7287   -5.2151    0.7029 H   0  0  0  0  0  0  0  0  0  0  0  0
   -1.4130   -4.3158    0.1252 H   0  0  0  0  0  0  0  0  0  0  0  0
   -1.9620   -5.8380   -0.7346 H   0  0  0  0  0  0  0  0  0  0  0  0
   -1.8113   -3.1815   -2.1414 H   0  0  0  0  0  0  0  0  0  0  0  0
   -4.1712   -4.4019   -0.5877 H   0  0  0  0  0  0  0  0  0  0  0  0
   -4.8381   -2.2775    0.9210 H   0  0  0  0  0  0  0  0  0  0  0  0
   -6.2114   -0.0618   -0.4820 H   0  0  0  0  0  0  0  0  0  0  0  0
   -4.3257    2.0832    1.3354 H   0  0  0  0  0  0  0  0  0  0  0  0
   -2.4282    2.0845   -1.0584 H   0  0  0  0  0  0  0  0  0  0  0  0
   -0.4299    0.9444   -0.0250 H   0  0  0  0  0  0  0  0  0  0  0  0
    1.5307    2.1069    1.5465 H   0  0  0  0  0  0  0  0  0  0  0  0
    1.0911   -0.8300    3.6921 H   0  0  0  0  0  0  0  0  0  0  0  0
    3.3526    0.7309    2.3655 H   0  0  0  0  0  0  0  0  0  0  0  0
    1.1320    1.0843    5.3824 H   0  0  0  0  0  0  0  0  0  0  0  0
    2.7609    0.4907    5.1107 H   0  0  0  0  0  0  0  0  0  0  0  0
    0.7437    3.6577    4.2727 H   0  0  0  0  0  0  0  0  0  0  0  0
    2.4762    5.5678    3.6766 H   0  0  0  0  0  0  0  0  0  0  0  0
    4.6270    1.9899    3.9714 H   0  0  0  0  0  0  0  0  0  0  0  0
    1.2951    2.4306   -0.7465 H   0  0  0  0  0  0  0  0  0  0  0  0
   -0.2562    2.6558   -1.5432 H   0  0  0  0  0  0  0  0  0  0  0  0
   -1.2488    4.7932   -1.6089 H   0  0  0  0  0  0  0  0  0  0  0  0
   -1.2304    7.1632   -1.2954 H   0  0  0  0  0  0  0  0  0  0  0  0
    0.4571    8.1828    0.1440 H   0  0  0  0  0  0  0  0  0  0  0  0
    2.1135    6.7273    1.2925 H   0  0  0  0  0  0  0  0  0  0  0  0
    2.0631    4.3224    0.9794 H   0  0  0  0  0  0  0  0  0  0  0  0
   -4.9583    1.8890   -1.6791 H   0  0  0  0  0  0  0  0  0  0  0  0
   -6.2081    1.8946   -0.4454 H   0  0  0  0  0  0  0  0  0  0  0  0
   -5.5429    4.1922    0.3024 H   0  0  0  0  0  0  0  0  0  0  0  0
   -6.1619    4.1187   -1.3494 H   0  0  0  0  0  0  0  0  0  0  0  0
   -3.2214    4.3809   -0.4921 H   0  0  0  0  0  0  0  0  0  0  0  0
   -4.3363    5.6246   -1.2228 H   0  0  0  0  0  0  0  0  0  0  0  0
   -6.5627    5.1628   -3.4727 H   0  0  0  0  0  0  0  0  0  0  0  0
   -5.4436    6.4337   -2.9790 H   0  0  0  0  0  0  0  0  0  0  0  0
   -4.4415    3.2358   -5.1982 H   0  0  0  0  0  0  0  0  0  0  0  0
   -3.7236    4.9128   -5.4934 H   0  0  0  0  0  0  0  0  0  0  0  0
   -6.6621   -2.5990   -1.5785 H   0  0  0  0  0  0  0  0  0  0  0  0
   -6.1964   -3.8062   -0.3490 H   0  0  0  0  0  0  0  0  0  0  0  0
   -8.8306   -1.1052   -0.9231 H   0  0  0  0  0  0  0  0  0  0  0  0
  -10.4483   -1.1950    1.1760 H   0  0  0  0  0  0  0  0  0  0  0  0
   -6.0428   -4.1570    2.0147 H   0  0  0  0  0  0  0  0  0  0  0  0
   -6.7962   -4.8191    4.2375 H   0  0  0  0  0  0  0  0  0  0  0  0
   -8.9274   -4.0012    5.0839 H   0  0  0  0  0  0  0  0  0  0  0  0
  -10.3318   -2.5146    3.7343 H   0  0  0  0  0  0  0  0  0  0  0  0
   -4.8517   -4.7751   -3.0353 H   0  0  0  0  0  0  0  0  0  0  0  0
   -4.3346   -6.4555   -3.2261 H   0  0  0  0  0  0  0  0  0  0  0  0
    7.1626   -0.2005    0.6909 H   0  0  0  0  0  0  0  0  0  0  0  0
    7.2561    1.3740    2.6842 H   0  0  0  0  0  0  0  0  0  0  0  0
    7.6306    3.1115    2.3002 H   0  0  0  0  0  0  0  0  0  0  0  0
    8.7984    1.7255    1.8864 H   0  0  0  0  0  0  0  0  0  0  0  0
  1  2  1  0
  2  3  1  0
  3  4  1  0
  4  5  1  0
  5  6  1  0
  6  7  2  0
  6  8  1  0
  8  9  1  0
  9 10  1  0
 10 11  1  0
 11 12  1  0
 12 13  1  0
 13 14  1  0
 14 15  1  0
 15 16  2  0
 16 17  1  0
 17 18  2  0
 17 19  1  0
 19 20  1  0
 20 21  1  0
 21 22  1  0
 22 23  2  0
 22 24  1  0
 24 25  1  0
 25 26  1  0
 26 27  2  0
 26 28  1  0
 28 29  1  0
 29 30  1  0
 30 31  2  0
 30 32  1  0
 32 33  1  0
 33 34  1  0
 34 35  2  0
 34 36  1  0
 36 37  1  0
 37 38  1  0
 38 39  2  0
 36 40  1  0
 40 41  1  0
 41 42  1  0
 42 43  1  0
 43 44  2  0
 44 45  1  0
 32 46  1  0
 46 47  1  0
 47 48  2  0
 48 49  1  0
 49 50  2  0
 50 51  1  0
 51 52  2  0
 28 53  1  0
 53 54  1  0
 54 55  1  0
 55 56  1  0
 56 57  2  3
 57 58  1  0
 57 59  1  0
 24 60  1  0
 60 61  1  0
 61 62  2  0
 62 63  1  0
 63 64  1  0
 64 65  2  0
 65 66  1  0
 66 67  2  0
 67 68  1  0
 68 69  2  0
 20 70  1  0
 70 71  2  0
 70 72  1  0
  5 73  1  0
 73 74  1  0
 74 75  2  0
 74 76  1  0
 38  9  1  0
 45 41  2  0
 52 47  1  0
 65 61  1  0
 18 14  1  0
 69 64  1  0
  1 77  1  0
  1 78  1  0
  1 79  1  0
  2 80  1  0
  2 81  1  0
  3 82  1  0
  3 83  1  0
  4 84  1  0
  4 85  1  0
  5 86  1  6
  8 87  1  0
  9 88  1  6
 10 89  1  0
 10 90  1  0
 11 91  1  0
 11 92  1  0
 12 93  1  0
 12 94  1  0
 13 95  1  0
 13 96  1  0
 18 97  1  0
 19 98  1  0
 19 99  1  0
 20100  1  6
 21101  1  0
 24102  1  1
 25103  1  0
 28104  1  1
 29105  1  0
 32106  1  6
 33107  1  0
 36108  1  1
 37109  1  0
 40110  1  0
 40111  1  0
 42112  1  0
 43113  1  0
 45114  1  0
 46115  1  0
 46116  1  0
 48117  1  0
 49118  1  0
 50119  1  0
 51120  1  0
 52121  1  0
 53122  1  0
 53123  1  0
 54124  1  0
 54125  1  0
 55126  1  0
 55127  1  0
 58128  1  0
 58129  1  0
 59130  1  0
 59131  1  0
 60132  1  0
 60133  1  0
 62134  1  0
 63135  1  0
 66136  1  0
 67137  1  0
 68138  1  0
 69139  1  0
 72140  1  0
 72141  1  0
 73142  1  0
 76143  1  0
 76144  1  0
 76145  1  0
M  END
>  <Ligand ID>  (1) 
LIG0001793

>  <Ligand>  (1) 
CHEMBL3358547

>  <SMILES>  (1) 
CCCC[C@@H](C(=O)N[C@H]1CCCCn2nnc(c2)C[C@H](NC(=O)[C@@H](NC(=O)[C@@H](NC(=O)[C@H](NC(=O)[C@@H](NC1=O)Cc1[nH]cnc1)Cc1ccccc1)CCCN=C(N)N)Cc1c[nH]c2c1cccc2)C(=O)N)NC(=O)C

>  <CID>  (1) 
118722939.0

>  <ChEMBL ID>  (1) 
nan

>  <InChiKey>  (1) 
PIOLFYWBAQKAOU-PMHRFVFWSA-N

>  <InChi>  (1) 
InChI=1S/C51H69N17O8/c1-3-4-16-37(59-30(2)69)45(71)60-38-18-10-11-21-68-28-34(66-67-68)25-40(44(52)70)62-49(75)42(23-32-26-57-36-17-9-8-15-35(32)36)64-47(73)39(19-12-20-56-51(53)54)61-48(74)41(22-31-13-6-5-7-14-31)63-50(76)43(65-46(38)72)24-33-27-55-29-58-33/h5-9,13-15,17,26-29,37-43,57H,3-4,10-12,16,18-25H2,1-2H3,(H2,52,70)(H,55,58)(H,59,69)(H,60,71)(H,61,74)(H,62,75)(H,63,76)(H,64,73)(H,65,72)(H4,53,54,56)/t37-,38-,39-,40-,41+,42-,43-/m0/s1

>  <IUPAC Name>  (1) 
(6S,9S,12R,15S,18S,21S)-6-[[(2S)-2-acetamidohexanoyl]amino]-12-benzyl-15-[3-(diaminomethylideneamino)propyl]-9-(1H-imidazol-5-ylmethyl)-18-(1H-indol-3-ylmethyl)-7,10,13,16,19-pentaoxo-1,8,11,14,17,20,24,25-octazabicyclo[21.2.1]hexacosa-23(26),24-diene-21-carboxamide

$$$$
