
     RDKit          3D

 26 27  0  0  0  0  0  0  0  0999 V2000
    1.7530    2.1255   -0.0223 C   0  0  0  0  0  0  0  0  0  0  0  0
    1.2575    0.8970   -0.1461 C   0  0  0  0  0  0  0  0  0  0  0  0
    1.9015   -0.2679    0.5653 C   0  0  0  0  0  0  0  0  0  0  0  0
    0.9024   -1.3602    0.7803 C   0  0  0  0  0  0  0  0  0  0  0  0
   -0.2381   -1.3126   -0.1801 C   0  0  2  0  0  0  0  0  0  0  0  0
    0.2711   -0.8229   -1.5226 C   0  0  0  0  0  0  0  0  0  0  0  0
    0.0701    0.5931   -0.9691 C   0  0  1  0  0  0  0  0  0  0  0  0
   -1.0290   -0.0403   -0.1263 C   0  0  0  0  0  0  0  0  0  0  0  0
   -1.2455    0.5671    1.2211 C   0  0  0  0  0  0  0  0  0  0  0  0
   -2.3187   -0.1754   -0.8802 C   0  0  0  0  0  0  0  0  0  0  0  0
    1.3338    2.9978   -0.5081 H   0  0  0  0  0  0  0  0  0  0  0  0
    2.6204    2.2720    0.5938 H   0  0  0  0  0  0  0  0  0  0  0  0
    2.7510   -0.6534   -0.0543 H   0  0  0  0  0  0  0  0  0  0  0  0
    2.3474    0.1310    1.4950 H   0  0  0  0  0  0  0  0  0  0  0  0
    1.3996   -2.3425    0.6622 H   0  0  0  0  0  0  0  0  0  0  0  0
    0.5305   -1.3089    1.8388 H   0  0  0  0  0  0  0  0  0  0  0  0
   -0.8281   -2.2380   -0.2268 H   0  0  0  0  0  0  0  0  0  0  0  0
   -0.4718   -0.9886   -2.3558 H   0  0  0  0  0  0  0  0  0  0  0  0
    1.2973   -1.0710   -1.7888 H   0  0  0  0  0  0  0  0  0  0  0  0
   -0.2430    1.3503   -1.6932 H   0  0  0  0  0  0  0  0  0  0  0  0
   -1.9004    1.4577    1.0674 H   0  0  0  0  0  0  0  0  0  0  0  0
   -0.3407    0.9336    1.7207 H   0  0  0  0  0  0  0  0  0  0  0  0
   -1.8339   -0.1387    1.8226 H   0  0  0  0  0  0  0  0  0  0  0  0
   -3.0907    0.5119   -0.4519 H   0  0  0  0  0  0  0  0  0  0  0  0
   -2.1961    0.0976   -1.9356 H   0  0  0  0  0  0  0  0  0  0  0  0
   -2.6995   -1.2142   -0.7634 H   0  0  0  0  0  0  0  0  0  0  0  0
  1  2  2  0
  2  3  1  0
  3  4  1  0
  4  5  1  0
  5  6  1  0
  6  7  1  0
  7  8  1  0
  8  9  1  0
  8 10  1  0
  7  2  1  0
  8  5  1  0
  1 11  1  0
  1 12  1  0
  3 13  1  0
  3 14  1  0
  4 15  1  0
  4 16  1  0
  5 17  1  6
  6 18  1  0
  6 19  1  0
  7 20  1  6
  9 21  1  0
  9 22  1  0
  9 23  1  0
 10 24  1  0
 10 25  1  0
 10 26  1  0
M  END
>  <Ligand ID>  (1) 
LIG0002042

>  <Ligand>  (1) 
beta-Pinene, (+)-

>  <SMILES>  (1) 
C=C1CC[C@@H]2C[C@H]1C2(C)C

>  <CID>  (1) 
10290825.0

>  <ChEMBL ID>  (1) 
nan

>  <InChiKey>  (1) 
WTARULDDTDQWMU-RKDXNWHRSA-N

>  <InChi>  (1) 
InChI=1S/C10H16/c1-7-4-5-8-6-9(7)10(8,2)3/h8-9H,1,4-6H2,2-3H3/t8-,9-/m1/s1

>  <IUPAC Name>  (1) 
(1R,5R)-6,6-dimethyl-2-methylidenebicyclo[3.1.1]heptane

$$$$
