
     RDKit          3D

 77 76  0  0  0  0  0  0  0  0999 V2000
    7.5998   -1.2319    1.4986 C   0  0  0  0  0  0  0  0  0  0  0  0
    8.5693   -0.3234    0.7901 C   0  0  0  0  0  0  0  0  0  0  0  0
    7.9194    0.9881    0.3873 C   0  0  0  0  0  0  0  0  0  0  0  0
    6.7463    0.8011   -0.5418 C   0  0  0  0  0  0  0  0  0  0  0  0
    7.0901    0.1170   -1.8250 C   0  0  0  0  0  0  0  0  0  0  0  0
    5.9275   -0.0812   -2.7584 C   0  0  0  0  0  0  0  0  0  0  0  0
    5.2670    1.2039   -3.1982 C   0  0  0  0  0  0  0  0  0  0  0  0
    4.1224    0.9962   -4.1065 C   0  0  0  0  0  0  0  0  0  0  0  0
    2.9794    0.1745   -3.6990 C   0  0  0  0  0  0  0  0  0  0  0  0
    2.1327    0.5440   -2.5332 C   0  0  0  0  0  0  0  0  0  0  0  0
    2.7372    0.6159   -1.1928 C   0  0  0  0  0  0  0  0  0  0  0  0
    1.6923    0.9839   -0.1595 C   0  0  0  0  0  0  0  0  0  0  0  0
    0.6210   -0.0564   -0.0743 C   0  0  0  0  0  0  0  0  0  0  0  0
   -0.3492    0.4214    1.0061 C   0  0  0  0  0  0  0  0  0  0  0  0
   -1.4780   -0.5336    1.2448 C   0  0  0  0  0  0  0  0  0  0  0  0
   -2.3221    0.1028    2.3284 C   0  0  0  0  0  0  0  0  0  0  0  0
   -2.7357    1.2570    2.0461 O   0  0  0  0  0  0  0  0  0  0  0  0
   -2.5703   -0.5740    3.4852 O   0  0  0  0  0  0  0  0  0  0  0  0
   -3.3219   -0.1681    4.5527 C   0  0  0  0  0  0  0  0  0  0  0  0
   -4.7990   -0.2008    4.3908 C   0  0  2  0  0  0  0  0  0  0  0  0
   -5.3140    0.4287    3.1670 C   0  0  0  0  0  0  0  0  0  0  0  0
   -6.7110    0.1629    3.1137 O   0  0  0  0  0  0  0  0  0  0  0  0
   -7.3155    0.9939    1.7830 P   0  0  0  0  0  0  0  0  0  0  0  0
   -8.3277    1.9982    2.3388 O   0  0  0  0  0  0  0  0  0  0  0  0
   -8.0507   -0.0918    0.7383 O   0  0  0  0  0  0  0  0  0  0  0  0
   -7.2744   -0.4697   -0.3364 C   0  0  0  0  0  0  0  0  0  0  0  0
   -8.0283   -1.4578   -1.2289 C   0  0  1  0  0  0  0  0  0  0  0  0
   -9.2978   -0.8577   -1.7331 C   0  0  0  0  0  0  0  0  0  0  0  0
   -9.4305   -0.7654   -2.9958 O   0  0  0  0  0  0  0  0  0  0  0  0
  -10.2832   -0.4228   -0.8538 O   0  0  0  0  0  0  0  0  0  0  0  0
   -7.2017   -1.8335   -2.3409 N   0  0  0  0  0  0  0  0  0  0  0  0
   -6.1048    1.8653    0.9905 O   0  0  0  0  0  0  0  0  0  0  0  0
   -5.4459    0.2806    5.5557 O   0  0  0  0  0  0  0  0  0  0  0  0
    7.1960   -1.9491    0.7337 H   0  0  0  0  0  0  0  0  0  0  0  0
    6.7138   -0.6968    1.9257 H   0  0  0  0  0  0  0  0  0  0  0  0
    8.1044   -1.8675    2.2758 H   0  0  0  0  0  0  0  0  0  0  0  0
    8.9626   -0.8551   -0.1108 H   0  0  0  0  0  0  0  0  0  0  0  0
    9.4594   -0.0940    1.4126 H   0  0  0  0  0  0  0  0  0  0  0  0
    7.5297    1.4382    1.3347 H   0  0  0  0  0  0  0  0  0  0  0  0
    8.6721    1.6990   -0.0029 H   0  0  0  0  0  0  0  0  0  0  0  0
    5.9770    0.2054    0.0210 H   0  0  0  0  0  0  0  0  0  0  0  0
    6.3058    1.7991   -0.6926 H   0  0  0  0  0  0  0  0  0  0  0  0
    7.4944   -0.9004   -1.6030 H   0  0  0  0  0  0  0  0  0  0  0  0
    7.8515    0.7206   -2.3818 H   0  0  0  0  0  0  0  0  0  0  0  0
    6.3307   -0.6136   -3.6563 H   0  0  0  0  0  0  0  0  0  0  0  0
    5.1696   -0.7768   -2.3375 H   0  0  0  0  0  0  0  0  0  0  0  0
    5.1901    1.8906   -2.3765 H   0  0  0  0  0  0  0  0  0  0  0  0
    6.0639    1.7223   -3.8756 H   0  0  0  0  0  0  0  0  0  0  0  0
    3.8037    2.0152   -4.4678 H   0  0  0  0  0  0  0  0  0  0  0  0
    4.5461    0.5355   -5.0599 H   0  0  0  0  0  0  0  0  0  0  0  0
    2.2332    0.0853   -4.5706 H   0  0  0  0  0  0  0  0  0  0  0  0
    3.2575   -0.9159   -3.5579 H   0  0  0  0  0  0  0  0  0  0  0  0
    1.2848   -0.1900   -2.4908 H   0  0  0  0  0  0  0  0  0  0  0  0
    1.6425    1.5362   -2.8229 H   0  0  0  0  0  0  0  0  0  0  0  0
    3.1332   -0.3972   -0.8666 H   0  0  0  0  0  0  0  0  0  0  0  0
    3.5476    1.3464   -1.0397 H   0  0  0  0  0  0  0  0  0  0  0  0
    2.1557    1.0328    0.8699 H   0  0  0  0  0  0  0  0  0  0  0  0
    1.1918    1.9441   -0.4018 H   0  0  0  0  0  0  0  0  0  0  0  0
    0.0924   -0.2936   -0.9950 H   0  0  0  0  0  0  0  0  0  0  0  0
    1.1211   -0.9911    0.2981 H   0  0  0  0  0  0  0  0  0  0  0  0
    0.2486    0.4952    1.9353 H   0  0  0  0  0  0  0  0  0  0  0  0
   -0.7532    1.4131    0.7835 H   0  0  0  0  0  0  0  0  0  0  0  0
   -2.0877   -0.7411    0.3452 H   0  0  0  0  0  0  0  0  0  0  0  0
   -1.1594   -1.5163    1.6381 H   0  0  0  0  0  0  0  0  0  0  0  0
   -3.0944   -0.8815    5.4118 H   0  0  0  0  0  0  0  0  0  0  0  0
   -2.9877    0.8530    4.9482 H   0  0  0  0  0  0  0  0  0  0  0  0
   -5.1562   -1.2907    4.3587 H   0  0  0  0  0  0  0  0  0  0  0  0
   -4.9470   -0.0772    2.2345 H   0  0  0  0  0  0  0  0  0  0  0  0
   -5.1407    1.5133    3.1652 H   0  0  0  0  0  0  0  0  0  0  0  0
   -6.4228   -1.0858    0.0783 H   0  0  0  0  0  0  0  0  0  0  0  0
   -6.8067    0.3469   -0.8878 H   0  0  0  0  0  0  0  0  0  0  0  0
   -8.3053   -2.3290   -0.6177 H   0  0  0  0  0  0  0  0  0  0  0  0
  -10.9415    0.2789   -1.2162 H   0  0  0  0  0  0  0  0  0  0  0  0
   -7.4561   -1.3345   -3.2293 H   0  0  0  0  0  0  0  0  0  0  0  0
   -6.1977   -1.7077   -2.1168 H   0  0  0  0  0  0  0  0  0  0  0  0
   -5.9007    2.7292    1.4475 H   0  0  0  0  0  0  0  0  0  0  0  0
   -4.9643   -0.1301    6.3204 H   0  0  0  0  0  0  0  0  0  0  0  0
  1  2  1  0
  2  3  1  0
  3  4  1  0
  4  5  1  0
  5  6  1  0
  6  7  1  0
  7  8  1  0
  8  9  1  0
  9 10  1  0
 10 11  1  0
 11 12  1  0
 12 13  1  0
 13 14  1  0
 14 15  1  0
 15 16  1  0
 16 17  2  0
 16 18  1  0
 18 19  1  0
 19 20  1  0
 20 21  1  0
 21 22  1  0
 22 23  1  0
 23 24  2  0
 23 25  1  0
 25 26  1  0
 26 27  1  0
 27 28  1  0
 28 29  2  0
 28 30  1  0
 27 31  1  0
 23 32  1  0
 20 33  1  0
  1 34  1  0
  1 35  1  0
  1 36  1  0
  2 37  1  0
  2 38  1  0
  3 39  1  0
  3 40  1  0
  4 41  1  0
  4 42  1  0
  5 43  1  0
  5 44  1  0
  6 45  1  0
  6 46  1  0
  7 47  1  0
  7 48  1  0
  8 49  1  0
  8 50  1  0
  9 51  1  0
  9 52  1  0
 10 53  1  0
 10 54  1  0
 11 55  1  0
 11 56  1  0
 12 57  1  0
 12 58  1  0
 13 59  1  0
 13 60  1  0
 14 61  1  0
 14 62  1  0
 15 63  1  0
 15 64  1  0
 19 65  1  0
 19 66  1  0
 20 67  1  6
 21 68  1  0
 21 69  1  0
 26 70  1  0
 26 71  1  0
 27 72  1  1
 30 73  1  0
 31 74  1  0
 31 75  1  0
 32 76  1  0
 33 77  1  0
M  END
>  <Ligand ID>  (1) 
LIG0004263

>  <Ligand>  (1) 
CHEMBL3577145

>  <SMILES>  (1) 
CCCCCCCCCCCCCCCC(=O)OC[C@H](COP(=O)(OC[C@@H](C(=O)O)N)O)O

>  <CID>  (1) 
9547100.0

>  <ChEMBL ID>  (1) 
nan

>  <InChiKey>  (1) 
XIVOBOJQPNEUSC-UXHICEINSA-N

>  <InChi>  (1) 
InChI=1S/C22H44NO9P/c1-2-3-4-5-6-7-8-9-10-11-12-13-14-15-21(25)30-16-19(24)17-31-33(28,29)32-18-20(23)22(26)27/h19-20,24H,2-18,23H2,1H3,(H,26,27)(H,28,29)/t19-,20+/m1/s1

>  <IUPAC Name>  (1) 
(2S)-2-amino-3-[[(2R)-3-hexadecanoyloxy-2-hydroxypropoxy]-hydroxyphosphoryl]oxypropanoic acid

$$$$
