
     RDKit          3D

 44 44  0  0  0  0  0  0  0  0999 V2000
   -3.6135    1.5927    2.5294 C   0  0  0  0  0  0  0  0  0  0  0  0
   -4.0570    1.0675    1.3043 O   0  0  0  0  0  0  0  0  0  0  0  0
   -3.1481    0.4574    0.4498 C   0  0  0  0  0  0  0  0  0  0  0  0
   -1.8423    0.3948    0.8466 C   0  0  0  0  0  0  0  0  0  0  0  0
   -0.8781   -0.1916    0.0614 C   0  0  0  0  0  0  0  0  0  0  0  0
   -1.2813   -0.7153   -1.1469 C   0  0  0  0  0  0  0  0  0  0  0  0
   -2.6173   -0.6488   -1.5500 C   0  0  0  0  0  0  0  0  0  0  0  0
   -3.5944   -0.0681   -0.7769 C   0  0  0  0  0  0  0  0  0  0  0  0
   -4.9024    0.0570   -1.0566 O   0  0  0  0  0  0  0  0  0  0  0  0
   -6.0390   -0.6388   -0.7201 C   0  0  0  0  0  0  0  0  0  0  0  0
   -6.1740   -2.0544   -1.0409 C   0  0  0  0  0  0  0  0  0  0  0  0
   -7.3018   -2.5978   -0.7214 O   0  0  0  0  0  0  0  0  0  0  0  0
   -5.2734   -2.8963   -1.6334 O   0  0  0  0  0  0  0  0  0  0  0  0
   -2.9723   -1.2902   -3.1370 Cl  0  0  0  0  0  0  0  0  0  0  0  0
    0.5530   -0.2860    0.4470 C   0  0  0  0  0  0  0  0  0  0  0  0
    1.5072    1.1293   -0.1050 P   0  0  0  0  0  0  0  0  0  0  0  0
    1.9170    1.9422    1.1137 O   0  0  0  0  0  0  0  0  0  0  0  0
    3.0652    0.6083   -0.9143 C   0  0  0  0  0  0  0  0  0  0  0  0
    4.0752    0.1628    0.1519 C   0  0  0  0  0  0  0  0  0  0  0  0
    5.3766   -0.2751   -0.4850 C   0  0  2  0  0  0  0  0  0  0  0  0
    6.3843   -0.7144    0.5033 C   0  0  0  0  0  0  0  0  0  0  0  0
    6.0407   -1.5877    1.3389 O   0  0  0  0  0  0  0  0  0  0  0  0
    7.6746   -0.2036    0.5387 O   0  0  0  0  0  0  0  0  0  0  0  0
    5.8862    0.7219   -1.3825 N   0  0  0  0  0  0  0  0  0  0  0  0
    0.6601    2.1446   -1.1294 O   0  0  0  0  0  0  0  0  0  0  0  0
   -4.4662    2.2122    2.9315 H   0  0  0  0  0  0  0  0  0  0  0  0
   -2.7474    2.2862    2.4416 H   0  0  0  0  0  0  0  0  0  0  0  0
   -3.3813    0.8438    3.2990 H   0  0  0  0  0  0  0  0  0  0  0  0
   -1.5032    0.8034    1.7974 H   0  0  0  0  0  0  0  0  0  0  0  0
   -0.5277   -1.1801   -1.7735 H   0  0  0  0  0  0  0  0  0  0  0  0
   -6.3073   -0.4536    0.3786 H   0  0  0  0  0  0  0  0  0  0  0  0
   -6.9053   -0.1217   -1.2744 H   0  0  0  0  0  0  0  0  0  0  0  0
   -5.1995   -3.8454   -1.2860 H   0  0  0  0  0  0  0  0  0  0  0  0
    0.6261   -0.4536    1.5467 H   0  0  0  0  0  0  0  0  0  0  0  0
    1.0095   -1.2038   -0.0045 H   0  0  0  0  0  0  0  0  0  0  0  0
    3.4769    1.4145   -1.5310 H   0  0  0  0  0  0  0  0  0  0  0  0
    2.8292   -0.2832   -1.5138 H   0  0  0  0  0  0  0  0  0  0  0  0
    4.3027    1.0283    0.8019 H   0  0  0  0  0  0  0  0  0  0  0  0
    3.6375   -0.6334    0.7820 H   0  0  0  0  0  0  0  0  0  0  0  0
    5.1312   -1.1704   -1.1240 H   0  0  0  0  0  0  0  0  0  0  0  0
    8.3921   -0.8479    0.8830 H   0  0  0  0  0  0  0  0  0  0  0  0
    5.3057    0.8291   -2.2197 H   0  0  0  0  0  0  0  0  0  0  0  0
    6.2476    1.5778   -0.9409 H   0  0  0  0  0  0  0  0  0  0  0  0
    0.6339    3.0875   -0.8380 H   0  0  0  0  0  0  0  0  0  0  0  0
  1  2  1  0
  2  3  1  0
  3  4  2  0
  4  5  1  0
  5  6  2  0
  6  7  1  0
  7  8  2  0
  8  9  1  0
  9 10  1  0
 10 11  1  0
 11 12  2  0
 11 13  1  0
  7 14  1  0
  5 15  1  0
 15 16  1  0
 16 17  2  0
 16 18  1  0
 18 19  1  0
 19 20  1  0
 20 21  1  0
 21 22  2  0
 21 23  1  0
 20 24  1  0
 16 25  1  0
  8  3  1  0
  1 26  1  0
  1 27  1  0
  1 28  1  0
  4 29  1  0
  6 30  1  0
 10 31  1  0
 10 32  1  0
 13 33  1  0
 15 34  1  0
 15 35  1  0
 18 36  1  0
 18 37  1  0
 19 38  1  0
 19 39  1  0
 20 40  1  6
 23 41  1  0
 24 42  1  0
 24 43  1  0
 25 44  1  0
M  END
>  <Ligand ID>  (1) 
LIG0004729

>  <Ligand>  (1) 
US9212196, Derivative 35

>  <SMILES>  (1) 
COc1cc(cc(c1OCC(=O)O)Cl)CP(=O)(CC[C@H](C(=O)O)N)O

>  <CID>  (1) 
122197965.0

>  <ChEMBL ID>  (1) 
nan

>  <InChiKey>  (1) 
POSMNGDKSNBSGR-SNVBAGLBSA-N

>  <InChi>  (1) 
InChI=1S/C14H19ClNO8P/c1-23-11-5-8(4-9(15)13(11)24-6-12(17)18)7-25(21,22)3-2-10(16)14(19)20/h4-5,10H,2-3,6-7,16H2,1H3,(H,17,18)(H,19,20)(H,21,22)/t10-/m1/s1

>  <IUPAC Name>  (1) 
(2R)-2-amino-4-[[4-(carboxymethoxy)-3-chloro-5-methoxyphenyl]methyl-hydroxyphosphoryl]butanoic acid

$$$$
