
     RDKit          3D

 63 66  0  0  0  0  0  0  0  0999 V2000
   -3.5382    3.3950    0.4165 C   0  0  0  0  0  0  0  0  0  0  0  0
   -2.9823    2.8958    1.6311 N   0  0  0  0  0  0  0  0  0  0  0  0
   -1.5659    2.7515    1.5856 C   0  0  0  0  0  0  0  0  0  0  0  0
   -1.0599    1.3822    1.8955 C   0  0  0  0  0  0  0  0  0  0  0  0
   -1.6017    0.3180    1.0140 C   0  0  0  0  0  0  0  0  0  0  0  0
   -2.9326    0.1119    0.7415 C   0  0  0  0  0  0  0  0  0  0  0  0
   -4.1316    0.8392    1.2128 C   0  0  0  0  0  0  0  0  0  0  0  0
   -3.7127    1.8513    2.2681 C   0  0  0  0  0  0  0  0  0  0  0  0
   -3.2463   -0.9319   -0.1032 C   0  0  0  0  0  0  0  0  0  0  0  0
   -2.2757   -1.7525   -0.6657 C   0  0  0  0  0  0  0  0  0  0  0  0
   -0.9126   -1.5466   -0.3906 C   0  0  0  0  0  0  0  0  0  0  0  0
   -0.6412   -0.4975    0.4546 C   0  0  0  0  0  0  0  0  0  0  0  0
    0.0217   -2.3886   -0.9931 N   0  0  0  0  0  0  0  0  0  0  0  0
    1.5238   -2.9151   -0.3791 S   0  0  0  0  0  0  0  0  0  0  0  0
    2.1046   -3.9294   -1.3597 O   0  0  0  0  0  0  0  0  0  0  0  0
    1.3239   -3.7030    0.9007 O   0  0  0  0  0  0  0  0  0  0  0  0
    2.6661   -1.6418   -0.0732 C   0  0  0  0  0  0  0  0  0  0  0  0
    3.3313   -1.1091   -1.1726 C   0  0  0  0  0  0  0  0  0  0  0  0
    4.2768   -0.1149   -1.0247 C   0  0  0  0  0  0  0  0  0  0  0  0
    4.5815    0.3737    0.2371 C   0  0  0  0  0  0  0  0  0  0  0  0
    3.9271   -0.1465    1.3476 C   0  0  0  0  0  0  0  0  0  0  0  0
    2.9786   -1.1479    1.1701 C   0  0  0  0  0  0  0  0  0  0  0  0
    5.5834    1.4248    0.3624 C   0  0  0  0  0  0  0  0  0  0  0  0
    6.6194    1.4222   -0.5614 C   0  0  0  0  0  0  0  0  0  0  0  0
    7.6029    2.3671   -0.5227 C   0  0  0  0  0  0  0  0  0  0  0  0
    7.5432    3.3319    0.4631 C   0  0  0  0  0  0  0  0  0  0  0  0
    6.5253    3.3601    1.3955 C   0  0  0  0  0  0  0  0  0  0  0  0
    5.5298    2.3940    1.3470 C   0  0  0  0  0  0  0  0  0  0  0  0
    8.8347    4.5357    0.4819 Cl  0  0  0  0  0  0  0  0  0  0  0  0
   -2.7350   -2.7944   -1.5012 N   0  0  0  0  0  0  0  0  0  0  0  0
   -4.1368   -3.0167   -1.8040 C   0  0  0  0  0  0  0  0  0  0  0  0
   -4.7979   -1.8972   -2.5340 C   0  0  0  0  0  0  0  0  0  0  0  0
   -4.3805   -4.3159   -2.5140 C   0  0  0  0  0  0  0  0  0  0  0  0
   -4.6321    3.3210    0.3582 H   0  0  0  0  0  0  0  0  0  0  0  0
   -3.1116    2.8033   -0.4374 H   0  0  0  0  0  0  0  0  0  0  0  0
   -3.3019    4.4744    0.2925 H   0  0  0  0  0  0  0  0  0  0  0  0
   -1.2567    2.9663    0.5201 H   0  0  0  0  0  0  0  0  0  0  0  0
   -1.0220    3.4605    2.2414 H   0  0  0  0  0  0  0  0  0  0  0  0
   -1.1860    1.1326    2.9785 H   0  0  0  0  0  0  0  0  0  0  0  0
    0.0644    1.4328    1.7771 H   0  0  0  0  0  0  0  0  0  0  0  0
   -4.7125    1.2911    0.4109 H   0  0  0  0  0  0  0  0  0  0  0  0
   -4.7827    0.0824    1.7052 H   0  0  0  0  0  0  0  0  0  0  0  0
   -4.6804    2.2730    2.6726 H   0  0  0  0  0  0  0  0  0  0  0  0
   -3.1989    1.3862    3.1062 H   0  0  0  0  0  0  0  0  0  0  0  0
   -4.3101   -1.0725   -0.2971 H   0  0  0  0  0  0  0  0  0  0  0  0
    0.3762   -0.2804    0.7000 H   0  0  0  0  0  0  0  0  0  0  0  0
   -0.2345   -2.7404   -1.9737 H   0  0  0  0  0  0  0  0  0  0  0  0
    3.1049   -1.4810   -2.1828 H   0  0  0  0  0  0  0  0  0  0  0  0
    4.7456    0.2432   -1.9238 H   0  0  0  0  0  0  0  0  0  0  0  0
    4.1717    0.2416    2.3331 H   0  0  0  0  0  0  0  0  0  0  0  0
    2.4554   -1.5697    2.0203 H   0  0  0  0  0  0  0  0  0  0  0  0
    6.6686    0.6640   -1.3364 H   0  0  0  0  0  0  0  0  0  0  0  0
    8.3984    2.3381   -1.2575 H   0  0  0  0  0  0  0  0  0  0  0  0
    6.5030    4.1288    2.1570 H   0  0  0  0  0  0  0  0  0  0  0  0
    4.7057    2.3676    2.0537 H   0  0  0  0  0  0  0  0  0  0  0  0
   -2.0720   -3.4878   -1.9606 H   0  0  0  0  0  0  0  0  0  0  0  0
   -4.6599   -3.1095   -0.8112 H   0  0  0  0  0  0  0  0  0  0  0  0
   -4.1600   -1.0020   -2.6878 H   0  0  0  0  0  0  0  0  0  0  0  0
   -5.7953   -1.6225   -2.1172 H   0  0  0  0  0  0  0  0  0  0  0  0
   -5.0339   -2.2515   -3.5755 H   0  0  0  0  0  0  0  0  0  0  0  0
   -4.2023   -4.1725   -3.6057 H   0  0  0  0  0  0  0  0  0  0  0  0
   -5.4588   -4.5834   -2.3864 H   0  0  0  0  0  0  0  0  0  0  0  0
   -3.7051   -5.0939   -2.0995 H   0  0  0  0  0  0  0  0  0  0  0  0
  1  2  1  0
  2  3  1  0
  3  4  1  0
  4  5  1  0
  5  6  2  0
  6  7  1  0
  7  8  1  0
  6  9  1  0
  9 10  2  0
 10 11  1  0
 11 12  2  0
 11 13  1  0
 13 14  1  0
 14 15  2  0
 14 16  2  0
 14 17  1  0
 17 18  2  0
 18 19  1  0
 19 20  2  0
 20 21  1  0
 21 22  2  0
 20 23  1  0
 23 24  2  0
 24 25  1  0
 25 26  2  0
 26 27  1  0
 27 28  2  0
 26 29  1  0
 10 30  1  0
 30 31  1  0
 31 32  1  0
 31 33  1  0
  8  2  1  0
 22 17  1  0
 28 23  1  0
 12  5  1  0
  1 34  1  0
  1 35  1  0
  1 36  1  0
  3 37  1  0
  3 38  1  0
  4 39  1  0
  4 40  1  0
  7 41  1  0
  7 42  1  0
  8 43  1  0
  8 44  1  0
  9 45  1  0
 12 46  1  0
 13 47  1  0
 18 48  1  0
 19 49  1  0
 21 50  1  0
 22 51  1  0
 24 52  1  0
 25 53  1  0
 27 54  1  0
 28 55  1  0
 30 56  1  0
 31 57  1  0
 32 58  1  0
 32 59  1  0
 32 60  1  0
 33 61  1  0
 33 62  1  0
 33 63  1  0
M  END
>  <Ligand ID>  (1) 
LIG0000911

>  <Ligand>  (1) 
CHEMBL231350

>  <SMILES>  (1) 
CN1CCc2c(CC1)cc(c(c2)NS(=O)(=O)c1ccc(cc1)c1ccc(cc1)Cl)NC(C)C

>  <CID>  (1) 
44425719.0

>  <ChEMBL ID>  (1) 
nan

>  <InChiKey>  (1) 
LQYNONCEAYAGNN-UHFFFAOYSA-N

>  <InChi>  (1) 
InChI=1S/C26H30ClN3O2S/c1-18(2)28-25-16-21-12-14-30(3)15-13-22(21)17-26(25)29-33(31,32)24-10-6-20(7-11-24)19-4-8-23(27)9-5-19/h4-11,16-18,28-29H,12-15H2,1-3H3

>  <IUPAC Name>  (1) 
4-(4-chlorophenyl)-N-[3-methyl-8-(propan-2-ylamino)-1,2,4,5-tetrahydro-3-benzazepin-7-yl]benzenesulfonamide

$$$$
