
     RDKit          3D

 94 97  0  0  0  0  0  0  0  0999 V2000
    7.6800   -1.8499    0.6856 C   0  0  0  0  0  0  0  0  0  0  0  0
    7.2904   -2.4105   -0.5984 N   0  0  0  0  0  0  0  0  0  0  0  0
    8.0688   -1.7340   -1.6118 C   0  0  0  0  0  0  0  0  0  0  0  0
    7.3286   -1.5674   -2.9189 C   0  0  0  0  0  0  0  0  0  0  0  0
    6.0810   -0.8824   -2.7711 N   0  0  0  0  0  0  0  0  0  0  0  0
    5.7118   -0.8288   -1.3918 C   0  0  2  0  0  0  0  0  0  0  0  0
    5.8498   -2.2176   -0.8177 C   0  0  0  0  0  0  0  0  0  0  0  0
    4.3422   -0.2614   -1.1983 C   0  0  0  0  0  0  0  0  0  0  0  0
    3.7339    0.0758   -2.2476 O   0  0  0  0  0  0  0  0  0  0  0  0
    3.8030   -0.1302    0.1059 N   0  0  0  0  0  0  0  0  0  0  0  0
    2.4729    0.4088    0.3704 C   0  0  2  0  0  0  0  0  0  0  0  0
    1.4878   -0.4246   -0.3273 C   0  0  0  0  0  0  0  0  0  0  0  0
    1.9718   -1.3683   -1.0553 O   0  0  0  0  0  0  0  0  0  0  0  0
    0.0696   -0.2656   -0.2539 N   0  0  0  0  0  0  0  0  0  0  0  0
   -0.5923    0.7278    0.5409 C   0  0  0  0  0  0  0  0  0  0  0  0
   -1.9250    0.2674    1.0721 C   0  0  0  0  0  0  0  0  0  0  0  0
   -2.8364   -0.2736    0.0100 C   0  0  0  0  0  0  0  0  0  0  0  0
   -2.1541   -0.8917   -1.1435 C   0  0  0  0  0  0  0  0  0  0  0  0
   -0.7167   -1.1903   -1.0534 C   0  0  0  0  0  0  0  0  0  0  0  0
   -3.8621    0.7685   -0.4132 C   0  0  0  0  0  0  0  0  0  0  0  0
   -4.7805    0.2860   -1.4835 C   0  0  0  0  0  0  0  0  0  0  0  0
   -6.0930    1.0608   -1.2979 C   0  0  0  0  0  0  0  0  0  0  0  0
   -5.7491    2.5278   -1.1814 C   0  0  0  0  0  0  0  0  0  0  0  0
   -4.3448    2.8678   -1.5631 C   0  0  0  0  0  0  0  0  0  0  0  0
   -3.2762    2.0679   -0.8585 C   0  0  0  0  0  0  0  0  0  0  0  0
   -6.1739    3.0634    0.1610 C   0  0  0  0  0  0  0  0  0  0  0  0
   -6.6283    3.2262   -2.2311 C   0  0  0  0  0  0  0  0  0  0  0  0
   -3.6349   -1.3283    0.6978 C   0  0  0  0  0  0  0  0  0  0  0  0
   -4.8892   -1.3055    0.7850 O   0  0  0  0  0  0  0  0  0  0  0  0
   -3.0010   -2.4659    1.3202 N   0  0  0  0  0  0  0  0  0  0  0  0
   -3.9005   -3.4130    1.9521 C   0  0  0  0  0  0  0  0  0  0  0  0
   -4.7009   -2.7507    3.0417 C   0  0  0  0  0  0  0  0  0  0  0  0
   -4.8520   -3.9456    0.9032 C   0  0  0  0  0  0  0  0  0  0  0  0
   -3.1511   -4.5943    2.5139 C   0  0  0  0  0  0  0  0  0  0  0  0
    2.4775    1.8575    0.0340 C   0  0  0  0  0  0  0  0  0  0  0  0
    3.5059    2.5277    0.9072 C   0  0  0  0  0  0  0  0  0  0  0  0
    3.1345    3.0013    2.1704 C   0  0  0  0  0  0  0  0  0  0  0  0
    4.0307    3.6266    3.0073 C   0  0  0  0  0  0  0  0  0  0  0  0
    5.3369    3.8034    2.6133 C   0  0  0  0  0  0  0  0  0  0  0  0
    5.6929    3.3322    1.3646 C   0  0  0  0  0  0  0  0  0  0  0  0
    4.8071    2.7053    0.5174 C   0  0  0  0  0  0  0  0  0  0  0  0
    6.2811    4.4030    3.3651 F   0  0  0  0  0  0  0  0  0  0  0  0
    8.4674   -2.4624    1.1686 H   0  0  0  0  0  0  0  0  0  0  0  0
    6.7843   -1.8998    1.3374 H   0  0  0  0  0  0  0  0  0  0  0  0
    7.9476   -0.7732    0.5855 H   0  0  0  0  0  0  0  0  0  0  0  0
    8.4804   -0.7603   -1.2430 H   0  0  0  0  0  0  0  0  0  0  0  0
    8.9535   -2.3677   -1.8289 H   0  0  0  0  0  0  0  0  0  0  0  0
    7.9931   -0.9699   -3.5716 H   0  0  0  0  0  0  0  0  0  0  0  0
    7.2367   -2.5545   -3.3944 H   0  0  0  0  0  0  0  0  0  0  0  0
    6.0485    0.0107   -3.2828 H   0  0  0  0  0  0  0  0  0  0  0  0
    6.4135   -0.1429   -0.8820 H   0  0  0  0  0  0  0  0  0  0  0  0
    5.5835   -2.9912   -1.5854 H   0  0  0  0  0  0  0  0  0  0  0  0
    5.2855   -2.3426    0.1093 H   0  0  0  0  0  0  0  0  0  0  0  0
    4.4396   -0.4547    0.8942 H   0  0  0  0  0  0  0  0  0  0  0  0
    2.2970    0.2393    1.4592 H   0  0  0  0  0  0  0  0  0  0  0  0
    0.0480    0.9341    1.4246 H   0  0  0  0  0  0  0  0  0  0  0  0
   -0.6942    1.6850   -0.0084 H   0  0  0  0  0  0  0  0  0  0  0  0
   -1.7414   -0.4568    1.8912 H   0  0  0  0  0  0  0  0  0  0  0  0
   -2.4226    1.1473    1.5284 H   0  0  0  0  0  0  0  0  0  0  0  0
   -2.2933   -0.1985   -2.0274 H   0  0  0  0  0  0  0  0  0  0  0  0
   -2.6887   -1.8265   -1.4929 H   0  0  0  0  0  0  0  0  0  0  0  0
   -0.5741   -2.1991   -0.5962 H   0  0  0  0  0  0  0  0  0  0  0  0
   -0.2355   -1.3134   -2.0729 H   0  0  0  0  0  0  0  0  0  0  0  0
   -4.4797    1.0050    0.4975 H   0  0  0  0  0  0  0  0  0  0  0  0
   -4.4382    0.6160   -2.5110 H   0  0  0  0  0  0  0  0  0  0  0  0
   -5.0382   -0.7742   -1.4666 H   0  0  0  0  0  0  0  0  0  0  0  0
   -6.6207    0.7189   -0.3814 H   0  0  0  0  0  0  0  0  0  0  0  0
   -6.7108    0.8088   -2.1661 H   0  0  0  0  0  0  0  0  0  0  0  0
   -4.2520    2.8175   -2.6749 H   0  0  0  0  0  0  0  0  0  0  0  0
   -4.1852    3.9274   -1.3023 H   0  0  0  0  0  0  0  0  0  0  0  0
   -2.8993    2.6243    0.0197 H   0  0  0  0  0  0  0  0  0  0  0  0
   -2.4588    1.9641   -1.6007 H   0  0  0  0  0  0  0  0  0  0  0  0
   -6.9933    3.8228    0.0855 H   0  0  0  0  0  0  0  0  0  0  0  0
   -6.5757    2.2827    0.8315 H   0  0  0  0  0  0  0  0  0  0  0  0
   -5.3370    3.5417    0.7111 H   0  0  0  0  0  0  0  0  0  0  0  0
   -6.5568    4.3158   -2.1057 H   0  0  0  0  0  0  0  0  0  0  0  0
   -6.1363    2.9768   -3.2164 H   0  0  0  0  0  0  0  0  0  0  0  0
   -7.6328    2.8069   -2.2825 H   0  0  0  0  0  0  0  0  0  0  0  0
   -1.9645   -2.5721    1.3021 H   0  0  0  0  0  0  0  0  0  0  0  0
   -4.1625   -1.8471    3.3649 H   0  0  0  0  0  0  0  0  0  0  0  0
   -5.6833   -2.4497    2.6621 H   0  0  0  0  0  0  0  0  0  0  0  0
   -4.8466   -3.4854    3.8642 H   0  0  0  0  0  0  0  0  0  0  0  0
   -5.8317   -3.4409    0.8999 H   0  0  0  0  0  0  0  0  0  0  0  0
   -5.0625   -5.0318    1.0945 H   0  0  0  0  0  0  0  0  0  0  0  0
   -4.4239   -3.8057   -0.1223 H   0  0  0  0  0  0  0  0  0  0  0  0
   -3.8851   -5.4024    2.7030 H   0  0  0  0  0  0  0  0  0  0  0  0
   -2.6896   -4.3657    3.5045 H   0  0  0  0  0  0  0  0  0  0  0  0
   -2.4226   -4.9809    1.7784 H   0  0  0  0  0  0  0  0  0  0  0  0
    2.8007    2.0596   -1.0080 H   0  0  0  0  0  0  0  0  0  0  0  0
    1.5328    2.3574    0.2942 H   0  0  0  0  0  0  0  0  0  0  0  0
    2.0992    2.8639    2.4878 H   0  0  0  0  0  0  0  0  0  0  0  0
    3.7510    3.9977    3.9906 H   0  0  0  0  0  0  0  0  0  0  0  0
    6.7211    3.4638    1.0377 H   0  0  0  0  0  0  0  0  0  0  0  0
    5.1577    2.3763   -0.4254 H   0  0  0  0  0  0  0  0  0  0  0  0
  1  2  1  0
  2  3  1  0
  3  4  1  0
  4  5  1  0
  5  6  1  0
  6  7  1  0
  6  8  1  0
  8  9  2  0
  8 10  1  0
 10 11  1  0
 11 12  1  0
 12 13  2  0
 12 14  1  0
 14 15  1  0
 15 16  1  0
 16 17  1  0
 17 18  1  0
 18 19  1  0
 17 20  1  0
 20 21  1  0
 21 22  1  0
 22 23  1  0
 23 24  1  0
 24 25  1  0
 23 26  1  0
 23 27  1  0
 17 28  1  0
 28 29  2  0
 28 30  1  0
 30 31  1  0
 31 32  1  0
 31 33  1  0
 31 34  1  0
 11 35  1  0
 35 36  1  0
 36 37  2  0
 37 38  1  0
 38 39  2  0
 39 40  1  0
 40 41  2  0
 39 42  1  0
  7  2  1  0
 19 14  1  0
 25 20  1  0
 41 36  1  0
  1 43  1  0
  1 44  1  0
  1 45  1  0
  3 46  1  0
  3 47  1  0
  4 48  1  0
  4 49  1  0
  5 50  1  0
  6 51  1  1
  7 52  1  0
  7 53  1  0
 10 54  1  0
 11 55  1  1
 15 56  1  0
 15 57  1  0
 16 58  1  0
 16 59  1  0
 18 60  1  0
 18 61  1  0
 19 62  1  0
 19 63  1  0
 20 64  1  0
 21 65  1  0
 21 66  1  0
 22 67  1  0
 22 68  1  0
 24 69  1  0
 24 70  1  0
 25 71  1  0
 25 72  1  0
 26 73  1  0
 26 74  1  0
 26 75  1  0
 27 76  1  0
 27 77  1  0
 27 78  1  0
 30 79  1  0
 32 80  1  0
 32 81  1  0
 32 82  1  0
 33 83  1  0
 33 84  1  0
 33 85  1  0
 34 86  1  0
 34 87  1  0
 34 88  1  0
 35 89  1  0
 35 90  1  0
 37 91  1  0
 38 92  1  0
 40 93  1  0
 41 94  1  0
M  END
>  <Ligand ID>  (1) 
LIG0003565

>  <Ligand>  (1) 
CHEMBL249322

>  <SMILES>  (1) 
CN1CCN[C@H](C1)C(=O)N[C@H](C(=O)N1CCC(CC1)(C1CCC(CC1)(C)C)C(=O)NC(C)(C)C)Cc1ccc(cc1)F

>  <CID>  (1) 
44441685.0

>  <ChEMBL ID>  (1) 
nan

>  <InChiKey>  (1) 
LNCCYFHBELRZJF-RRPNLBNLSA-N

>  <InChi>  (1) 
InChI=1S/C33H52FN5O3/c1-31(2,3)37-30(42)33(24-11-13-32(4,5)14-12-24)15-18-39(19-16-33)29(41)26(21-23-7-9-25(34)10-8-23)36-28(40)27-22-38(6)20-17-35-27/h7-10,24,26-27,35H,11-22H2,1-6H3,(H,36,40)(H,37,42)/t26-,27+/m0/s1

>  <IUPAC Name>  (1) 
(2R)-N-[(2S)-1-[4-(tert-butylcarbamoyl)-4-(4,4-dimethylcyclohexyl)piperidin-1-yl]-3-(4-fluorophenyl)-1-oxopropan-2-yl]-4-methylpiperazine-2-carboxamide

$$$$
