
     RDKit          3D

 56 58  0  0  0  0  0  0  0  0999 V2000
   -4.7683    2.1032    1.2462 O   0  0  0  0  0  0  0  0  0  0  0  0
   -4.0379    1.8973    0.0536 C   0  0  2  0  0  0  0  0  0  0  0  0
   -3.6392    0.4900   -0.1495 C   0  0  0  0  0  0  0  0  0  0  0  0
   -4.6071   -0.4473   -0.1882 O   0  0  0  0  0  0  0  0  0  0  0  0
   -5.5844   -1.0652    0.4320 C   0  0  0  0  0  0  0  0  0  0  0  0
   -6.0365   -0.8805    1.7240 C   0  0  0  0  0  0  0  0  0  0  0  0
   -7.0836   -1.5866    2.2825 C   0  0  0  0  0  0  0  0  0  0  0  0
   -7.7093   -2.5247    1.5111 C   0  0  0  0  0  0  0  0  0  0  0  0
   -7.3198   -2.7671    0.2220 C   0  0  0  0  0  0  0  0  0  0  0  0
   -6.2884   -2.0554   -0.2934 C   0  0  0  0  0  0  0  0  0  0  0  0
   -8.7623   -3.2472    2.0497 O   0  0  0  0  0  0  0  0  0  0  0  0
   -3.0054    2.9701   -0.0720 C   0  0  0  0  0  0  0  0  0  0  0  0
   -2.0896    2.9583   -1.1233 N   0  0  0  0  0  0  0  0  0  0  0  0
   -0.9771    2.1067   -1.1532 C   0  0  0  0  0  0  0  0  0  0  0  0
    0.0962    2.5135   -0.1334 C   0  0  0  0  0  0  0  0  0  0  0  0
    1.1984    1.5189   -0.2721 C   0  0  0  0  0  0  0  0  0  0  0  0
    1.2767    0.3862    0.5223 C   0  0  0  0  0  0  0  0  0  0  0  0
    2.3115   -0.5445    0.3704 C   0  0  0  0  0  0  0  0  0  0  0  0
    3.2496   -0.2806   -0.6084 C   0  0  0  0  0  0  0  0  0  0  0  0
    3.1563    0.8664   -1.4010 C   0  0  0  0  0  0  0  0  0  0  0  0
    2.1377    1.7800   -1.2485 C   0  0  0  0  0  0  0  0  0  0  0  0
    4.3610   -1.1230   -0.8774 N   0  0  0  0  0  0  0  0  0  0  0  0
    5.6456   -0.9503   -0.3086 C   0  0  0  0  0  0  0  0  0  0  0  0
    5.8883    0.0030    0.5081 O   0  0  0  0  0  0  0  0  0  0  0  0
    6.7084   -1.8869   -0.6736 C   0  0  0  0  0  0  0  0  0  0  0  0
    8.0288   -1.5354   -0.0069 C   0  0  0  0  0  0  0  0  0  0  0  0
    8.8320   -0.5787   -0.6356 C   0  0  0  0  0  0  0  0  0  0  0  0
   10.3275   -0.4549    0.4621 S   0  0  0  0  0  0  0  0  0  0  0  0
    9.6865   -1.7131    1.6411 C   0  0  0  0  0  0  0  0  0  0  0  0
    8.4635   -2.0830    1.1114 C   0  0  0  0  0  0  0  0  0  0  0  0
   -5.3581    2.8735    1.1878 H   0  0  0  0  0  0  0  0  0  0  0  0
   -4.8450    2.1756   -0.7352 H   0  0  0  0  0  0  0  0  0  0  0  0
   -2.8348    0.2381    0.5655 H   0  0  0  0  0  0  0  0  0  0  0  0
   -3.1951    0.4538   -1.2280 H   0  0  0  0  0  0  0  0  0  0  0  0
   -5.5588   -0.1586    2.3638 H   0  0  0  0  0  0  0  0  0  0  0  0
   -7.4071   -1.4039    3.3137 H   0  0  0  0  0  0  0  0  0  0  0  0
   -7.8325   -3.5090   -0.3489 H   0  0  0  0  0  0  0  0  0  0  0  0
   -5.9994   -2.2721   -1.3287 H   0  0  0  0  0  0  0  0  0  0  0  0
   -9.6910   -2.9495    1.7609 H   0  0  0  0  0  0  0  0  0  0  0  0
   -3.5971    3.9465   -0.1734 H   0  0  0  0  0  0  0  0  0  0  0  0
   -2.5240    3.1248    0.9435 H   0  0  0  0  0  0  0  0  0  0  0  0
   -2.3677    3.4262   -1.9899 H   0  0  0  0  0  0  0  0  0  0  0  0
   -1.1084    1.0505   -1.0041 H   0  0  0  0  0  0  0  0  0  0  0  0
   -0.5107    2.2073   -2.1824 H   0  0  0  0  0  0  0  0  0  0  0  0
    0.4912    3.5141   -0.3161 H   0  0  0  0  0  0  0  0  0  0  0  0
   -0.3197    2.4603    0.8764 H   0  0  0  0  0  0  0  0  0  0  0  0
    0.5256    0.2403    1.2594 H   0  0  0  0  0  0  0  0  0  0  0  0
    2.3950   -1.4272    0.9696 H   0  0  0  0  0  0  0  0  0  0  0  0
    3.8872    1.0655   -2.1595 H   0  0  0  0  0  0  0  0  0  0  0  0
    2.0850    2.6592   -1.8702 H   0  0  0  0  0  0  0  0  0  0  0  0
    4.1734   -1.9168   -1.5466 H   0  0  0  0  0  0  0  0  0  0  0  0
    6.4899   -2.9348   -0.4247 H   0  0  0  0  0  0  0  0  0  0  0  0
    6.8375   -1.8543   -1.7855 H   0  0  0  0  0  0  0  0  0  0  0  0
    8.7156   -0.0041   -1.5203 H   0  0  0  0  0  0  0  0  0  0  0  0
   10.2096   -2.0181    2.5014 H   0  0  0  0  0  0  0  0  0  0  0  0
    7.8799   -2.8566    1.6754 H   0  0  0  0  0  0  0  0  0  0  0  0
  1  2  1  0
  2  3  1  0
  3  4  1  0
  4  5  1  0
  5  6  2  0
  6  7  1  0
  7  8  2  0
  8  9  1  0
  9 10  2  0
  8 11  1  0
  2 12  1  0
 12 13  1  0
 13 14  1  0
 14 15  1  0
 15 16  1  0
 16 17  2  0
 17 18  1  0
 18 19  2  0
 19 20  1  0
 20 21  2  0
 19 22  1  0
 22 23  1  0
 23 24  2  0
 23 25  1  0
 25 26  1  0
 26 27  2  0
 27 28  1  0
 28 29  1  0
 29 30  2  0
 10  5  1  0
 21 16  1  0
 30 26  1  0
  1 31  1  0
  2 32  1  6
  3 33  1  0
  3 34  1  0
  6 35  1  0
  7 36  1  0
  9 37  1  0
 10 38  1  0
 11 39  1  0
 12 40  1  0
 12 41  1  0
 13 42  1  0
 14 43  1  0
 14 44  1  0
 15 45  1  0
 15 46  1  0
 17 47  1  0
 18 48  1  0
 20 49  1  0
 21 50  1  0
 22 51  1  0
 25 52  1  0
 25 53  1  0
 27 54  1  0
 29 55  1  0
 30 56  1  0
M  END
>  <Ligand ID>  (1) 
LIG0002558

>  <Ligand>  (1) 
CHEMBL551892

>  <SMILES>  (1) 
O[C@H](COc1ccc(cc1)O)CNCCc1ccc(cc1)NC(=O)Cc1cscc1

>  <CID>  (1) 
44127056.0

>  <ChEMBL ID>  (1) 
nan

>  <InChiKey>  (1) 
CIJDMIDDQAIQKY-NRFANRHFSA-N

>  <InChi>  (1) 
InChI=1S/C23H26N2O4S/c26-20-5-7-22(8-6-20)29-15-21(27)14-24-11-9-17-1-3-19(4-2-17)25-23(28)13-18-10-12-30-16-18/h1-8,10,12,16,21,24,26-27H,9,11,13-15H2,(H,25,28)/t21-/m0/s1

>  <IUPAC Name>  (1) 
N-[4-[2-[[(2S)-2-hydroxy-3-(4-hydroxyphenoxy)propyl]amino]ethyl]phenyl]-2-thiophen-3-ylacetamide

$$$$
