
     RDKit          3D

135138  0  0  0  0  0  0  0  0999 V2000
    9.0154   -3.4609    2.5131 C   0  0  0  0  0  0  0  0  0  0  0  0
   10.3132   -2.7689    2.2419 C   0  0  0  0  0  0  0  0  0  0  0  0
   10.4573   -1.3960    2.7586 C   0  0  0  0  0  0  0  0  0  0  0  0
    9.6849   -0.2713    2.2491 C   0  0  0  0  0  0  0  0  0  0  0  0
    8.2059   -0.3337    2.2373 C   0  0  1  0  0  0  0  0  0  0  0  0
    7.7237    1.0409    1.7879 C   0  0  0  0  0  0  0  0  0  0  0  0
    7.9928    1.9978    2.5585 O   0  0  0  0  0  0  0  0  0  0  0  0
    7.0155    1.2392    0.5806 N   0  0  0  0  0  0  0  0  0  0  0  0
    6.5921    2.5984    0.2702 C   0  0  2  0  0  0  0  0  0  0  0  0
    5.1928    2.7098   -0.1470 C   0  0  0  0  0  0  0  0  0  0  0  0
    4.6448    3.8194   -0.3783 O   0  0  0  0  0  0  0  0  0  0  0  0
    4.4242    1.5239   -0.2981 N   0  0  0  0  0  0  0  0  0  0  0  0
    3.0433    1.4723   -0.6960 C   0  0  2  0  0  0  0  0  0  0  0  0
    2.3807    0.5046    0.2142 C   0  0  0  0  0  0  0  0  0  0  0  0
    3.1114    0.0631    1.1663 O   0  0  0  0  0  0  0  0  0  0  0  0
    1.0384    0.0634    0.0856 N   0  0  0  0  0  0  0  0  0  0  0  0
    0.5458   -0.8792    1.0784 C   0  0  1  0  0  0  0  0  0  0  0  0
   -0.7210   -0.4440    1.6913 C   0  0  0  0  0  0  0  0  0  0  0  0
   -1.1029   -1.1339    2.7047 O   0  0  0  0  0  0  0  0  0  0  0  0
   -1.4353    0.6492    1.1926 N   0  0  0  0  0  0  0  0  0  0  0  0
   -2.7087    1.1217    1.8780 C   0  0  2  0  0  0  0  0  0  0  0  0
   -3.8481    0.5172    1.2430 C   0  0  0  0  0  0  0  0  0  0  0  0
   -3.6844   -0.1002    0.1416 O   0  0  0  0  0  0  0  0  0  0  0  0
   -5.1695    0.5269    1.7430 N   0  0  0  0  0  0  0  0  0  0  0  0
   -6.2971   -0.1665    1.0792 C   0  0  2  0  0  0  0  0  0  0  0  0
   -6.8572    0.6788   -0.0030 C   0  0  0  0  0  0  0  0  0  0  0  0
   -6.3649    1.8116   -0.1635 O   0  0  0  0  0  0  0  0  0  0  0  0
   -7.9056    0.2822   -0.8638 N   0  0  0  0  0  0  0  0  0  0  0  0
   -8.3661    1.1953   -1.8927 C   0  0  0  0  0  0  0  0  0  0  0  0
   -9.4898    0.6242   -2.6786 C   0  0  0  0  0  0  0  0  0  0  0  0
   -9.9810    1.3165   -3.6231 O   0  0  0  0  0  0  0  0  0  0  0  0
  -10.0589   -0.6469   -2.4484 N   0  0  0  0  0  0  0  0  0  0  0  0
   -7.2848   -0.5770    2.1319 C   0  0  0  0  0  0  0  0  0  0  0  0
   -8.4811   -1.2935    1.7101 C   0  0  0  0  0  0  0  0  0  0  0  0
   -9.7479   -0.7159    1.6655 C   0  0  0  0  0  0  0  0  0  0  0  0
  -10.5905   -1.6949    1.2604 N   0  0  0  0  0  0  0  0  0  0  0  0
   -9.8900   -2.8335    1.0597 C   0  0  0  0  0  0  0  0  0  0  0  0
   -8.5418   -2.6136    1.3365 C   0  0  0  0  0  0  0  0  0  0  0  0
   -7.6248   -3.6387    1.2034 C   0  0  0  0  0  0  0  0  0  0  0  0
   -8.0640   -4.9065    0.7862 C   0  0  0  0  0  0  0  0  0  0  0  0
   -9.3853   -5.1452    0.5089 C   0  0  0  0  0  0  0  0  0  0  0  0
  -10.2672   -4.1015    0.6526 C   0  0  0  0  0  0  0  0  0  0  0  0
   -2.5249    2.5718    1.8915 C   0  0  0  0  0  0  0  0  0  0  0  0
   -3.4290    3.5735    2.4291 C   0  0  0  0  0  0  0  0  0  0  0  0
   -4.7496    3.8685    1.8430 C   0  0  0  0  0  0  0  0  0  0  0  0
   -4.5870    4.3180    0.4671 N   0  0  0  0  0  0  0  0  0  0  0  0
   -5.5819    4.8880   -0.1065 C   0  0  0  0  0  0  0  0  0  0  0  0
   -5.4026    5.3182   -1.4489 N   0  0  0  0  0  0  0  0  0  0  0  0
   -6.8468    5.1138    0.4935 N   0  0  0  0  0  0  0  0  0  0  0  0
    0.3953   -2.2237    0.4342 C   0  0  0  0  0  0  0  0  0  0  0  0
   -0.5185   -2.2613   -0.7177 C   0  0  0  0  0  0  0  0  0  0  0  0
   -0.0138   -2.0229   -2.0087 C   0  0  0  0  0  0  0  0  0  0  0  0
   -0.8307   -2.0663   -3.1171 C   0  0  0  0  0  0  0  0  0  0  0  0
   -2.1725   -2.3433   -3.0237 C   0  0  0  0  0  0  0  0  0  0  0  0
   -2.6945   -2.5821   -1.7600 C   0  0  0  0  0  0  0  0  0  0  0  0
   -1.8635   -2.5353   -0.6506 C   0  0  0  0  0  0  0  0  0  0  0  0
    2.7796    1.1809   -2.1280 C   0  0  0  0  0  0  0  0  0  0  0  0
    3.2534   -0.0762   -2.6775 C   0  0  0  0  0  0  0  0  0  0  0  0
    3.0526   -0.4119   -3.9955 N   0  0  0  0  0  0  0  0  0  0  0  0
    3.5718   -1.6186   -4.2349 C   0  0  0  0  0  0  0  0  0  0  0  0
    4.1119   -2.1019   -3.1191 N   0  0  0  0  0  0  0  0  0  0  0  0
    3.9174   -1.1583   -2.1652 C   0  0  0  0  0  0  0  0  0  0  0  0
    7.5486    3.0764   -0.8117 C   0  0  0  0  0  0  0  0  0  0  0  0
    7.4599    2.1808   -2.0429 C   0  0  0  0  0  0  0  0  0  0  0  0
    8.4072    2.6519   -3.0999 C   0  0  0  0  0  0  0  0  0  0  0  0
    9.1638    3.6315   -2.9031 O   0  0  0  0  0  0  0  0  0  0  0  0
    8.4604    2.0076   -4.3203 O   0  0  0  0  0  0  0  0  0  0  0  0
    7.6401   -1.2371    1.2333 N   0  0  0  0  0  0  0  0  0  0  0  0
    8.1848   -1.4943   -0.0345 C   0  0  0  0  0  0  0  0  0  0  0  0
    9.2168   -1.0182   -0.5217 O   0  0  0  0  0  0  0  0  0  0  0  0
    7.4199   -2.4625   -0.9063 C   0  0  0  0  0  0  0  0  0  0  0  0
    8.3648   -2.9055    3.2154 H   0  0  0  0  0  0  0  0  0  0  0  0
    8.5338   -3.7808    1.5851 H   0  0  0  0  0  0  0  0  0  0  0  0
    9.2418   -4.4292    3.1031 H   0  0  0  0  0  0  0  0  0  0  0  0
   11.1883   -3.4096    2.6046 H   0  0  0  0  0  0  0  0  0  0  0  0
   10.5045   -2.7648    1.1252 H   0  0  0  0  0  0  0  0  0  0  0  0
   10.2762   -1.4671    3.8998 H   0  0  0  0  0  0  0  0  0  0  0  0
   11.5863   -1.1316    2.7476 H   0  0  0  0  0  0  0  0  0  0  0  0
    9.9227    0.6531    2.9074 H   0  0  0  0  0  0  0  0  0  0  0  0
   10.1059    0.0970    1.2579 H   0  0  0  0  0  0  0  0  0  0  0  0
    7.8388   -0.5454    3.2189 H   0  0  0  0  0  0  0  0  0  0  0  0
    6.8164    0.4554   -0.0503 H   0  0  0  0  0  0  0  0  0  0  0  0
    6.7908    3.2150    1.1569 H   0  0  0  0  0  0  0  0  0  0  0  0
    4.8946    0.6280   -0.0827 H   0  0  0  0  0  0  0  0  0  0  0  0
    2.5452    2.4760   -0.5124 H   0  0  0  0  0  0  0  0  0  0  0  0
    0.4747    0.4332   -0.7039 H   0  0  0  0  0  0  0  0  0  0  0  0
    1.3519   -0.9784    1.8690 H   0  0  0  0  0  0  0  0  0  0  0  0
   -1.1322    1.1773    0.3327 H   0  0  0  0  0  0  0  0  0  0  0  0
   -2.5627    0.6997    2.9280 H   0  0  0  0  0  0  0  0  0  0  0  0
   -5.3729    1.0190    2.6360 H   0  0  0  0  0  0  0  0  0  0  0  0
   -5.8503   -1.0775    0.6159 H   0  0  0  0  0  0  0  0  0  0  0  0
   -8.3381   -0.6521   -0.7783 H   0  0  0  0  0  0  0  0  0  0  0  0
   -8.7261    2.1671   -1.5025 H   0  0  0  0  0  0  0  0  0  0  0  0
   -7.5376    1.4604   -2.5942 H   0  0  0  0  0  0  0  0  0  0  0  0
   -9.4953   -1.5184   -2.2432 H   0  0  0  0  0  0  0  0  0  0  0  0
  -11.1173   -0.7584   -2.4820 H   0  0  0  0  0  0  0  0  0  0  0  0
   -6.7495   -1.1436    2.9684 H   0  0  0  0  0  0  0  0  0  0  0  0
   -7.5421    0.3940    2.6717 H   0  0  0  0  0  0  0  0  0  0  0  0
   -9.9831    0.3022    1.9045 H   0  0  0  0  0  0  0  0  0  0  0  0
  -11.6164   -1.6485    1.1049 H   0  0  0  0  0  0  0  0  0  0  0  0
   -6.5693   -3.4536    1.4246 H   0  0  0  0  0  0  0  0  0  0  0  0
   -7.3724   -5.7074    0.6754 H   0  0  0  0  0  0  0  0  0  0  0  0
   -9.7252   -6.1349    0.1835 H   0  0  0  0  0  0  0  0  0  0  0  0
  -11.3165   -4.2963    0.4265 H   0  0  0  0  0  0  0  0  0  0  0  0
   -1.4846    2.7160    2.4118 H   0  0  0  0  0  0  0  0  0  0  0  0
   -2.1960    2.9375    0.8350 H   0  0  0  0  0  0  0  0  0  0  0  0
   -3.5329    3.4739    3.5615 H   0  0  0  0  0  0  0  0  0  0  0  0
   -2.8532    4.5763    2.3704 H   0  0  0  0  0  0  0  0  0  0  0  0
   -5.5419    3.1810    2.0325 H   0  0  0  0  0  0  0  0  0  0  0  0
   -5.1035    4.8245    2.4037 H   0  0  0  0  0  0  0  0  0  0  0  0
   -5.7375    6.2553   -1.8060 H   0  0  0  0  0  0  0  0  0  0  0  0
   -4.9268    4.7216   -2.1497 H   0  0  0  0  0  0  0  0  0  0  0  0
   -7.3331    4.3772    1.0791 H   0  0  0  0  0  0  0  0  0  0  0  0
   -7.3249    6.0450    0.3576 H   0  0  0  0  0  0  0  0  0  0  0  0
   -0.0512   -2.9558    1.1806 H   0  0  0  0  0  0  0  0  0  0  0  0
    1.3827   -2.6859    0.1950 H   0  0  0  0  0  0  0  0  0  0  0  0
    1.0350   -1.8055   -2.1322 H   0  0  0  0  0  0  0  0  0  0  0  0
   -0.4212   -1.8786   -4.1212 H   0  0  0  0  0  0  0  0  0  0  0  0
   -2.7854   -2.3667   -3.9180 H   0  0  0  0  0  0  0  0  0  0  0  0
   -3.7418   -2.8033   -1.6223 H   0  0  0  0  0  0  0  0  0  0  0  0
   -2.2912   -2.7262    0.3464 H   0  0  0  0  0  0  0  0  0  0  0  0
    3.1994    2.0224   -2.7426 H   0  0  0  0  0  0  0  0  0  0  0  0
    1.6621    1.3189   -2.2642 H   0  0  0  0  0  0  0  0  0  0  0  0
    2.5619    0.1888   -4.7233 H   0  0  0  0  0  0  0  0  0  0  0  0
    3.5370   -2.0974   -5.2064 H   0  0  0  0  0  0  0  0  0  0  0  0
    4.2553   -1.3060   -1.1576 H   0  0  0  0  0  0  0  0  0  0  0  0
    8.5807    3.1498   -0.4848 H   0  0  0  0  0  0  0  0  0  0  0  0
    7.2036    4.0829   -1.1206 H   0  0  0  0  0  0  0  0  0  0  0  0
    7.7676    1.1506   -1.7895 H   0  0  0  0  0  0  0  0  0  0  0  0
    6.4440    2.2169   -2.4940 H   0  0  0  0  0  0  0  0  0  0  0  0
    9.0562    2.2074   -5.0860 H   0  0  0  0  0  0  0  0  0  0  0  0
    6.7395   -1.7198    1.5294 H   0  0  0  0  0  0  0  0  0  0  0  0
    6.5647   -2.9006   -0.3721 H   0  0  0  0  0  0  0  0  0  0  0  0
    6.9663   -1.7920   -1.6931 H   0  0  0  0  0  0  0  0  0  0  0  0
    8.0575   -3.1844   -1.4103 H   0  0  0  0  0  0  0  0  0  0  0  0
  1  2  1  0
  2  3  1  0
  3  4  1  0
  4  5  1  0
  5  6  1  0
  6  7  2  0
  6  8  1  0
  8  9  1  0
  9 10  1  0
 10 11  2  0
 10 12  1  0
 12 13  1  0
 13 14  1  0
 14 15  2  0
 14 16  1  0
 16 17  1  0
 17 18  1  0
 18 19  2  0
 18 20  1  0
 20 21  1  0
 21 22  1  0
 22 23  2  0
 22 24  1  0
 24 25  1  0
 25 26  1  0
 26 27  2  0
 26 28  1  0
 28 29  1  0
 29 30  1  0
 30 31  2  0
 30 32  1  0
 25 33  1  0
 33 34  1  0
 34 35  2  0
 35 36  1  0
 36 37  1  0
 37 38  2  0
 38 39  1  0
 39 40  2  0
 40 41  1  0
 41 42  2  0
 21 43  1  0
 43 44  1  0
 44 45  1  0
 45 46  1  0
 46 47  2  3
 47 48  1  0
 47 49  1  0
 17 50  1  0
 50 51  1  0
 51 52  2  0
 52 53  1  0
 53 54  2  0
 54 55  1  0
 55 56  2  0
 13 57  1  0
 57 58  1  0
 58 59  1  0
 59 60  1  0
 60 61  2  0
 61 62  1  0
  9 63  1  0
 63 64  1  0
 64 65  1  0
 65 66  2  0
 65 67  1  0
  5 68  1  0
 68 69  1  0
 69 70  2  0
 69 71  1  0
 38 34  1  0
 56 51  1  0
 62 58  2  0
 42 37  1  0
  1 72  1  0
  1 73  1  0
  1 74  1  0
  2 75  1  0
  2 76  1  0
  3 77  1  0
  3 78  1  0
  4 79  1  0
  4 80  1  0
  5 81  1  1
  8 82  1  0
  9 83  1  1
 12 84  1  0
 13 85  1  1
 16 86  1  0
 17 87  1  1
 20 88  1  0
 21 89  1  1
 24 90  1  0
 25 91  1  6
 28 92  1  0
 29 93  1  0
 29 94  1  0
 32 95  1  0
 32 96  1  0
 33 97  1  0
 33 98  1  0
 35 99  1  0
 36100  1  0
 39101  1  0
 40102  1  0
 41103  1  0
 42104  1  0
 43105  1  0
 43106  1  0
 44107  1  0
 44108  1  0
 45109  1  0
 45110  1  0
 48111  1  0
 48112  1  0
 49113  1  0
 49114  1  0
 50115  1  0
 50116  1  0
 52117  1  0
 53118  1  0
 54119  1  0
 55120  1  0
 56121  1  0
 57122  1  0
 57123  1  0
 59124  1  0
 60125  1  0
 62126  1  0
 63127  1  0
 63128  1  0
 64129  1  0
 64130  1  0
 67131  1  0
 68132  1  0
 71133  1  0
 71134  1  0
 71135  1  0
M  END
>  <Ligand ID>  (1) 
LIG0001764

>  <Ligand>  (1) 
CHEMBL264536

>  <SMILES>  (1) 
CCCC[C@@H](C(=O)N[C@H](C(=O)N[C@H](C(=O)N[C@@H](C(=O)N[C@H](C(=O)N[C@H](C(=O)NCC(=O)N)Cc1c[nH]c2c1cccc2)CCCN=C(N)N)Cc1ccccc1)Cc1[nH]cnc1)CCC(=O)O)NC(=O)C

>  <CID>  (1) 
10290587.0

>  <ChEMBL ID>  (1) 
nan

>  <InChiKey>  (1) 
ZHFBHJALAOQGNU-ZPRVLUMXSA-N

>  <InChi>  (1) 
InChI=1S/C47H64N14O10/c1-3-4-14-33(56-27(2)62)42(67)58-35(17-18-40(64)65)44(69)61-38(22-30-24-51-26-55-30)46(71)59-36(20-28-11-6-5-7-12-28)45(70)57-34(16-10-19-52-47(49)50)43(68)60-37(41(66)54-25-39(48)63)21-29-23-53-32-15-9-8-13-31(29)32/h5-9,11-13,15,23-24,26,33-38,53H,3-4,10,14,16-22,25H2,1-2H3,(H2,48,63)(H,51,55)(H,54,66)(H,56,62)(H,57,70)(H,58,67)(H,59,71)(H,60,68)(H,61,69)(H,64,65)(H4,49,50,52)/t33-,34-,35-,36+,37-,38-/m0/s1

>  <IUPAC Name>  (1) 
(4S)-4-[[(2S)-2-acetamidohexanoyl]amino]-5-[[(2S)-1-[[(2R)-1-[[(2S)-1-[[(2S)-1-[(2-amino-2-oxoethyl)amino]-3-(1H-indol-3-yl)-1-oxopropan-2-yl]amino]-5-(diaminomethylideneamino)-1-oxopentan-2-yl]amino]-1-oxo-3-phenylpropan-2-yl]amino]-3-(1H-imidazol-5-yl)-1-oxopropan-2-yl]amino]-5-oxopentanoic acid

$$$$
