
     RDKit          3D

 44 45  0  0  0  0  0  0  0  0999 V2000
   -3.5548    0.6784    1.6492 C   0  0  0  0  0  0  0  0  0  0  0  0
   -4.0823    1.1140    0.2999 C   0  0  0  0  0  0  0  0  0  0  0  0
   -2.9496    1.3326   -0.6910 C   0  0  0  0  0  0  0  0  0  0  0  0
   -2.2177    0.1610   -0.8789 O   0  0  0  0  0  0  0  0  0  0  0  0
   -0.8860   -0.0038   -0.5113 C   0  0  0  0  0  0  0  0  0  0  0  0
   -0.3339    0.9660    0.0157 O   0  0  0  0  0  0  0  0  0  0  0  0
   -0.2868   -1.3006   -0.7870 C   0  0  0  0  0  0  0  0  0  0  0  0
   -1.0331   -2.2922   -1.3841 C   0  0  0  0  0  0  0  0  0  0  0  0
   -0.5641   -3.5470   -1.6864 C   0  0  0  0  0  0  0  0  0  0  0  0
    0.7281   -3.8439   -1.3790 C   0  0  0  0  0  0  0  0  0  0  0  0
    1.4950   -2.8783   -0.7847 C   0  0  0  0  0  0  0  0  0  0  0  0
    1.0207   -1.6042   -0.4772 C   0  0  0  0  0  0  0  0  0  0  0  0
    1.9022   -0.6852    0.1370 N   0  0  0  0  0  0  0  0  0  0  0  0
    3.2736   -1.1305    0.4163 C   0  0  0  0  0  0  0  0  0  0  0  0
    4.0780   -0.0700    1.0567 C   0  0  0  0  0  0  0  0  0  0  0  0
    4.6191   -0.1835    2.2115 N   0  0  0  0  0  0  0  0  0  0  0  0
    5.3321    1.0148    2.5529 C   0  0  0  0  0  0  0  0  0  0  0  0
    4.8598    2.0181    1.5490 C   0  0  0  0  0  0  0  0  0  0  0  0
    4.3453    1.1943    0.4717 N   0  0  0  0  0  0  0  0  0  0  0  0
   -3.4146    1.9852   -1.9526 C   0  0  0  0  0  0  0  0  0  0  0  0
   -4.4486    1.2418   -2.7278 C   0  0  0  0  0  0  0  0  0  0  0  0
   -2.6138    0.1046    1.5667 H   0  0  0  0  0  0  0  0  0  0  0  0
   -4.2935    0.0167    2.1669 H   0  0  0  0  0  0  0  0  0  0  0  0
   -3.4172    1.5925    2.2673 H   0  0  0  0  0  0  0  0  0  0  0  0
   -4.6865    2.0076    0.4507 H   0  0  0  0  0  0  0  0  0  0  0  0
   -4.6561    0.2342   -0.0872 H   0  0  0  0  0  0  0  0  0  0  0  0
   -2.2594    2.0598   -0.2073 H   0  0  0  0  0  0  0  0  0  0  0  0
   -2.0837   -2.1043   -1.6532 H   0  0  0  0  0  0  0  0  0  0  0  0
   -1.1964   -4.2807   -2.1538 H   0  0  0  0  0  0  0  0  0  0  0  0
    1.1276   -4.8306   -1.6069 H   0  0  0  0  0  0  0  0  0  0  0  0
    2.5331   -3.1672   -0.5560 H   0  0  0  0  0  0  0  0  0  0  0  0
    1.6937    0.2820    0.4191 H   0  0  0  0  0  0  0  0  0  0  0  0
    3.2218   -2.0470    1.0233 H   0  0  0  0  0  0  0  0  0  0  0  0
    3.7071   -1.4233   -0.5712 H   0  0  0  0  0  0  0  0  0  0  0  0
    5.1390    1.3233    3.6031 H   0  0  0  0  0  0  0  0  0  0  0  0
    6.4377    0.8952    2.4630 H   0  0  0  0  0  0  0  0  0  0  0  0
    5.7011    2.6644    1.1681 H   0  0  0  0  0  0  0  0  0  0  0  0
    4.0917    2.6940    1.9737 H   0  0  0  0  0  0  0  0  0  0  0  0
    4.1912    1.4498   -0.5387 H   0  0  0  0  0  0  0  0  0  0  0  0
   -3.8142    3.0028   -1.7596 H   0  0  0  0  0  0  0  0  0  0  0  0
   -2.4931    2.1818   -2.5700 H   0  0  0  0  0  0  0  0  0  0  0  0
   -4.1965    1.3592   -3.8113 H   0  0  0  0  0  0  0  0  0  0  0  0
   -5.4858    1.6530   -2.6211 H   0  0  0  0  0  0  0  0  0  0  0  0
   -4.5303    0.1652   -2.5306 H   0  0  0  0  0  0  0  0  0  0  0  0
  1  2  1  0
  2  3  1  0
  3  4  1  0
  4  5  1  0
  5  6  2  0
  5  7  1  0
  7  8  2  0
  8  9  1  0
  9 10  2  0
 10 11  1  0
 11 12  2  0
 12 13  1  0
 13 14  1  0
 14 15  1  0
 15 16  2  0
 16 17  1  0
 17 18  1  0
 18 19  1  0
  3 20  1  0
 20 21  1  0
 12  7  1  0
 19 15  1  0
  1 22  1  0
  1 23  1  0
  1 24  1  0
  2 25  1  0
  2 26  1  0
  3 27  1  0
  8 28  1  0
  9 29  1  0
 10 30  1  0
 11 31  1  0
 13 32  1  0
 14 33  1  0
 14 34  1  0
 17 35  1  0
 17 36  1  0
 18 37  1  0
 18 38  1  0
 19 39  1  0
 20 40  1  0
 20 41  1  0
 21 42  1  0
 21 43  1  0
 21 44  1  0
M  END
>  <Ligand ID>  (1) 
LIG0004063

>  <Ligand>  (1) 
CHEMBL100383

>  <SMILES>  (1) 
CCC(OC(=O)c1ccccc1NCC1=NCCN1)CC

>  <CID>  (1) 
44329481.0

>  <ChEMBL ID>  (1) 
nan

>  <InChiKey>  (1) 
VUZRSWNQYOEPCY-UHFFFAOYSA-N

>  <InChi>  (1) 
InChI=1S/C16H23N3O2/c1-3-12(4-2)21-16(20)13-7-5-6-8-14(13)19-11-15-17-9-10-18-15/h5-8,12,19H,3-4,9-11H2,1-2H3,(H,17,18)

>  <IUPAC Name>  (1) 
pentan-3-yl 2-(4,5-dihydro-1H-imidazol-2-ylmethylamino)benzoate

$$$$
