
     RDKit          3D

 79 82  0  0  0  0  0  0  0  0999 V2000
    7.1624   -2.6704   -1.9333 C   0  0  0  0  0  0  0  0  0  0  0  0
    5.9692   -2.7199   -1.0087 C   0  0  0  0  0  0  0  0  0  0  0  0
    4.8532   -1.8166   -1.4995 C   0  0  0  0  0  0  0  0  0  0  0  0
    3.6765   -1.8310   -0.6337 C   0  0  0  0  0  0  0  0  0  0  0  0
    3.2578   -2.9649   -0.3098 O   0  0  0  0  0  0  0  0  0  0  0  0
    2.9301   -0.6462   -0.1080 C   0  0  0  0  0  0  0  0  0  0  0  0
    2.9351    0.4300   -1.1850 C   0  0  0  0  0  0  0  0  0  0  0  0
    1.7264    1.2910   -1.2598 C   0  0  0  0  0  0  0  0  0  0  0  0
    0.4907    0.5365   -0.9739 N   0  0  0  0  0  0  0  0  0  0  0  0
    0.6659   -0.8895   -0.9902 C   0  0  0  0  0  0  0  0  0  0  0  0
    1.5767   -1.1123    0.2530 C   0  0  0  0  0  0  0  0  0  0  0  0
   -0.6442    1.2996   -0.7065 C   0  0  0  0  0  0  0  0  0  0  0  0
   -0.4075    2.5913   -0.7297 O   0  0  0  0  0  0  0  0  0  0  0  0
   -2.0162    0.9524   -0.4093 C   0  0  1  0  0  0  0  0  0  0  0  0
   -3.0331    1.6886   -1.2392 C   0  0  0  0  0  0  0  0  0  0  0  0
   -3.0530    3.1326   -1.1468 C   0  0  0  0  0  0  0  0  0  0  0  0
   -2.3939    4.0138   -1.9811 C   0  0  0  0  0  0  0  0  0  0  0  0
   -2.4578    5.3781   -1.8109 C   0  0  0  0  0  0  0  0  0  0  0  0
   -3.1956    5.9400   -0.7840 C   0  0  0  0  0  0  0  0  0  0  0  0
   -3.8599    5.0840    0.0568 C   0  0  0  0  0  0  0  0  0  0  0  0
   -3.7906    3.7184   -0.1196 C   0  0  0  0  0  0  0  0  0  0  0  0
   -3.2414    7.3153   -0.6376 O   0  0  0  0  0  0  0  0  0  0  0  0
   -4.0076    7.8405    0.4296 C   0  0  0  0  0  0  0  0  0  0  0  0
   -2.3087   -0.4590   -0.4447 N   0  0  0  0  0  0  0  0  0  0  0  0
   -2.5611   -1.2048    0.7295 C   0  0  0  0  0  0  0  0  0  0  0  0
   -2.5446   -0.6866    1.8968 O   0  0  0  0  0  0  0  0  0  0  0  0
   -2.8681   -2.6666    0.6966 C   0  0  1  0  0  0  0  0  0  0  0  0
   -4.2357   -2.8047    1.3316 C   0  0  0  0  0  0  0  0  0  0  0  0
   -4.6782   -4.2198    1.3706 C   0  0  0  0  0  0  0  0  0  0  0  0
   -5.8956   -4.6010    1.9102 C   0  0  0  0  0  0  0  0  0  0  0  0
   -6.0126   -5.9486    1.8054 N   0  0  0  0  0  0  0  0  0  0  0  0
   -4.8936   -6.3792    1.2159 C   0  0  0  0  0  0  0  0  0  0  0  0
   -4.0672   -5.3311    0.9436 N   0  0  0  0  0  0  0  0  0  0  0  0
   -2.9451   -3.1259   -0.6790 N   0  0  0  0  0  0  0  0  0  0  0  0
    3.6627   -0.1669    1.0921 C   0  0  0  0  0  0  0  0  0  0  0  0
    5.0489    0.0303    1.0630 C   0  0  0  0  0  0  0  0  0  0  0  0
    5.7617    0.4660    2.1734 C   0  0  0  0  0  0  0  0  0  0  0  0
    5.1346    0.7234    3.3490 C   0  0  0  0  0  0  0  0  0  0  0  0
    3.7877    0.5458    3.4216 C   0  0  0  0  0  0  0  0  0  0  0  0
    3.0600    0.1051    2.3052 C   0  0  0  0  0  0  0  0  0  0  0  0
    8.0240   -3.1306   -1.3760 H   0  0  0  0  0  0  0  0  0  0  0  0
    6.9871   -3.2879   -2.8467 H   0  0  0  0  0  0  0  0  0  0  0  0
    7.3753   -1.6436   -2.2677 H   0  0  0  0  0  0  0  0  0  0  0  0
    5.6540   -3.7894   -0.9196 H   0  0  0  0  0  0  0  0  0  0  0  0
    6.3201   -2.4229    0.0042 H   0  0  0  0  0  0  0  0  0  0  0  0
    5.2309   -0.8887   -1.8787 H   0  0  0  0  0  0  0  0  0  0  0  0
    4.5121   -2.3657   -2.4670 H   0  0  0  0  0  0  0  0  0  0  0  0
    3.8159    1.0682   -0.9735 H   0  0  0  0  0  0  0  0  0  0  0  0
    3.1362   -0.0772   -2.1503 H   0  0  0  0  0  0  0  0  0  0  0  0
    1.5975    1.6666   -2.2886 H   0  0  0  0  0  0  0  0  0  0  0  0
    1.7684    2.1670   -0.5948 H   0  0  0  0  0  0  0  0  0  0  0  0
   -0.2050   -1.5066   -0.7884 H   0  0  0  0  0  0  0  0  0  0  0  0
    1.2035   -1.2436   -1.8966 H   0  0  0  0  0  0  0  0  0  0  0  0
    1.5719   -2.2091    0.4515 H   0  0  0  0  0  0  0  0  0  0  0  0
    1.1104   -0.5254    1.0230 H   0  0  0  0  0  0  0  0  0  0  0  0
   -2.1547    1.2133    0.6965 H   0  0  0  0  0  0  0  0  0  0  0  0
   -4.0613    1.3125   -1.0780 H   0  0  0  0  0  0  0  0  0  0  0  0
   -2.8031    1.4255   -2.3030 H   0  0  0  0  0  0  0  0  0  0  0  0
   -1.8115    3.6089   -2.8030 H   0  0  0  0  0  0  0  0  0  0  0  0
   -1.9303    6.0572   -2.4762 H   0  0  0  0  0  0  0  0  0  0  0  0
   -4.4621    5.4421    0.8880 H   0  0  0  0  0  0  0  0  0  0  0  0
   -4.3289    3.0687    0.5675 H   0  0  0  0  0  0  0  0  0  0  0  0
   -3.8911    8.9497    0.5089 H   0  0  0  0  0  0  0  0  0  0  0  0
   -5.0868    7.6891    0.1303 H   0  0  0  0  0  0  0  0  0  0  0  0
   -3.8707    7.3177    1.3849 H   0  0  0  0  0  0  0  0  0  0  0  0
   -2.3449   -0.9087   -1.4016 H   0  0  0  0  0  0  0  0  0  0  0  0
   -2.1336   -3.2590    1.2799 H   0  0  0  0  0  0  0  0  0  0  0  0
   -4.1064   -2.4938    2.4062 H   0  0  0  0  0  0  0  0  0  0  0  0
   -4.9755   -2.1441    0.8835 H   0  0  0  0  0  0  0  0  0  0  0  0
   -6.6367   -3.9439    2.3431 H   0  0  0  0  0  0  0  0  0  0  0  0
   -4.6657   -7.4159    0.9816 H   0  0  0  0  0  0  0  0  0  0  0  0
   -3.1377   -5.3593    0.4938 H   0  0  0  0  0  0  0  0  0  0  0  0
   -3.7098   -2.5582   -1.1548 H   0  0  0  0  0  0  0  0  0  0  0  0
   -2.0647   -2.9451   -1.1932 H   0  0  0  0  0  0  0  0  0  0  0  0
    5.6328   -0.1361    0.1870 H   0  0  0  0  0  0  0  0  0  0  0  0
    6.8497    0.6123    2.1193 H   0  0  0  0  0  0  0  0  0  0  0  0
    5.7159    1.0600    4.1862 H   0  0  0  0  0  0  0  0  0  0  0  0
    3.2809    0.7532    4.3721 H   0  0  0  0  0  0  0  0  0  0  0  0
    2.0057    0.0052    2.4965 H   0  0  0  0  0  0  0  0  0  0  0  0
  1  2  1  0
  2  3  1  0
  3  4  1  0
  4  5  2  0
  4  6  1  0
  6  7  1  0
  7  8  1  0
  8  9  1  0
  9 10  1  0
 10 11  1  0
  9 12  1  0
 12 13  2  0
 12 14  1  0
 14 15  1  0
 15 16  1  0
 16 17  2  0
 17 18  1  0
 18 19  2  0
 19 20  1  0
 20 21  2  0
 19 22  1  0
 22 23  1  0
 14 24  1  0
 24 25  1  0
 25 26  2  0
 25 27  1  0
 27 28  1  0
 28 29  1  0
 29 30  2  0
 30 31  1  0
 31 32  2  0
 32 33  1  0
 27 34  1  0
  6 35  1  0
 35 36  2  0
 36 37  1  0
 37 38  2  0
 38 39  1  0
 39 40  2  0
 11  6  1  0
 21 16  1  0
 33 29  1  0
 40 35  1  0
  1 41  1  0
  1 42  1  0
  1 43  1  0
  2 44  1  0
  2 45  1  0
  3 46  1  0
  3 47  1  0
  7 48  1  0
  7 49  1  0
  8 50  1  0
  8 51  1  0
 10 52  1  0
 10 53  1  0
 11 54  1  0
 11 55  1  0
 14 56  1  1
 15 57  1  0
 15 58  1  0
 17 59  1  0
 18 60  1  0
 20 61  1  0
 21 62  1  0
 23 63  1  0
 23 64  1  0
 23 65  1  0
 24 66  1  0
 27 67  1  1
 28 68  1  0
 28 69  1  0
 30 70  1  0
 32 71  1  0
 33 72  1  0
 34 73  1  0
 34 74  1  0
 36 75  1  0
 37 76  1  0
 38 77  1  0
 39 78  1  0
 40 79  1  0
M  END
>  <Ligand ID>  (1) 
LIG0001757

>  <Ligand>  (1) 
CHEMBL446941

>  <SMILES>  (1) 
CCCC(=O)C1(CCN(CC1)C(=O)[C@@H](Cc1ccc(cc1)OC)NC(=O)[C@@H](Cc1cnc[nH]1)N)c1ccccc1

>  <CID>  (1) 
11038873.0

>  <ChEMBL ID>  (1) 
nan

>  <InChiKey>  (1) 
ZQZZWEILEDVQTR-KAYWLYCHSA-N

>  <InChi>  (1) 
InChI=1S/C31H39N5O4/c1-3-7-28(37)31(23-8-5-4-6-9-23)14-16-36(17-15-31)30(39)27(18-22-10-12-25(40-2)13-11-22)35-29(38)26(32)19-24-20-33-21-34-24/h4-6,8-13,20-21,26-27H,3,7,14-19,32H2,1-2H3,(H,33,34)(H,35,38)/t26-,27-/m1/s1

>  <IUPAC Name>  (1) 
(2R)-2-amino-N-[(2R)-1-(4-butanoyl-4-phenylpiperidin-1-yl)-3-(4-methoxyphenyl)-1-oxopropan-2-yl]-3-(1H-imidazol-5-yl)propanamide

$$$$
