
     RDKit          3D

 59 63  0  0  0  0  0  0  0  0999 V2000
   -6.8131   -1.1994    3.3286 F   0  0  0  0  0  0  0  0  0  0  0  0
   -6.7450   -0.7867    2.0415 C   0  0  0  0  0  0  0  0  0  0  0  0
   -7.9165   -0.7317    1.2882 C   0  0  0  0  0  0  0  0  0  0  0  0
   -7.8773   -0.3127   -0.0331 C   0  0  0  0  0  0  0  0  0  0  0  0
   -6.6880    0.0566   -0.6284 C   0  0  0  0  0  0  0  0  0  0  0  0
   -5.5242    0.0018    0.1206 C   0  0  0  0  0  0  0  0  0  0  0  0
   -5.5472   -0.4134    1.4377 C   0  0  0  0  0  0  0  0  0  0  0  0
   -4.5083    0.4045   -0.6670 N   0  0  0  0  0  0  0  0  0  0  0  0
   -3.0998    0.5184   -0.3376 C   0  0  0  0  0  0  0  0  0  0  0  0
   -2.5694    1.8951   -0.6064 C   0  0  0  0  0  0  0  0  0  0  0  0
   -1.0590    1.8041   -0.4801 C   0  0  0  0  0  0  0  0  0  0  0  0
   -0.6454    0.6328    0.2553 N   0  0  0  0  0  0  0  0  0  0  0  0
   -0.9463   -0.5977   -0.4101 C   0  0  0  0  0  0  0  0  0  0  0  0
   -2.2613   -0.4434   -1.1612 C   0  0  0  0  0  0  0  0  0  0  0  0
    0.7474    0.7988    0.6010 C   0  0  0  0  0  0  0  0  0  0  0  0
    1.6471    0.9494   -0.5791 C   0  0  0  0  0  0  0  0  0  0  0  0
    3.0557    0.4982   -0.3329 C   0  0  0  0  0  0  0  0  0  0  0  0
    3.1906   -0.7729    0.2716 N   0  0  0  0  0  0  0  0  0  0  0  0
    2.0670   -1.3019    0.9611 C   0  0  0  0  0  0  0  0  0  0  0  0
    1.1775   -0.2521    1.5796 C   0  0  0  0  0  0  0  0  0  0  0  0
    4.5965   -0.9022    1.2670 S   0  0  0  0  0  0  0  0  0  0  0  0
    4.6169   -2.2262    1.9757 O   0  0  0  0  0  0  0  0  0  0  0  0
    4.5209    0.1740    2.3164 O   0  0  0  0  0  0  0  0  0  0  0  0
    6.0375   -0.6655    0.2945 C   0  0  0  0  0  0  0  0  0  0  0  0
    6.6022   -1.7988   -0.2797 C   0  0  0  0  0  0  0  0  0  0  0  0
    7.7362   -1.7440   -1.0659 C   0  0  0  0  0  0  0  0  0  0  0  0
    8.3036   -0.4846   -1.2653 C   0  0  0  0  0  0  0  0  0  0  0  0
    7.7394    0.6389   -0.6930 C   0  0  0  0  0  0  0  0  0  0  0  0
    6.6058    0.5719    0.0910 C   0  0  0  0  0  0  0  0  0  0  0  0
   -5.0071    0.7042   -1.8716 C   0  0  0  0  0  0  0  0  0  0  0  0
   -4.4332    1.1185   -2.9144 O   0  0  0  0  0  0  0  0  0  0  0  0
   -6.3551    0.4930   -1.8604 N   0  0  0  0  0  0  0  0  0  0  0  0
   -8.8738   -1.0094    1.7046 H   0  0  0  0  0  0  0  0  0  0  0  0
   -8.8222   -0.2824   -0.5953 H   0  0  0  0  0  0  0  0  0  0  0  0
   -4.6235   -0.4507    2.0123 H   0  0  0  0  0  0  0  0  0  0  0  0
   -2.9031    0.3066    0.7307 H   0  0  0  0  0  0  0  0  0  0  0  0
   -2.7848    2.1907   -1.6516 H   0  0  0  0  0  0  0  0  0  0  0  0
   -3.0125    2.5955    0.1073 H   0  0  0  0  0  0  0  0  0  0  0  0
   -0.7327    2.6898    0.1085 H   0  0  0  0  0  0  0  0  0  0  0  0
   -0.5341    1.8378   -1.4363 H   0  0  0  0  0  0  0  0  0  0  0  0
   -0.1607   -0.9631   -1.0951 H   0  0  0  0  0  0  0  0  0  0  0  0
   -1.1102   -1.3827    0.3545 H   0  0  0  0  0  0  0  0  0  0  0  0
   -2.7544   -1.4181   -1.3324 H   0  0  0  0  0  0  0  0  0  0  0  0
   -2.0858    0.0618   -2.1351 H   0  0  0  0  0  0  0  0  0  0  0  0
    0.7768    1.7663    1.1859 H   0  0  0  0  0  0  0  0  0  0  0  0
    1.6844    2.0235   -0.8608 H   0  0  0  0  0  0  0  0  0  0  0  0
    1.3000    0.4297   -1.4886 H   0  0  0  0  0  0  0  0  0  0  0  0
    3.5748    0.4931   -1.3140 H   0  0  0  0  0  0  0  0  0  0  0  0
    3.6016    1.2631    0.2792 H   0  0  0  0  0  0  0  0  0  0  0  0
    1.4809   -2.0050    0.3111 H   0  0  0  0  0  0  0  0  0  0  0  0
    2.4277   -1.9432    1.7920 H   0  0  0  0  0  0  0  0  0  0  0  0
    0.2972   -0.8016    2.0074 H   0  0  0  0  0  0  0  0  0  0  0  0
    1.7167    0.1486    2.4707 H   0  0  0  0  0  0  0  0  0  0  0  0
    6.1502   -2.7888   -0.1188 H   0  0  0  0  0  0  0  0  0  0  0  0
    8.1561   -2.6382   -1.5010 H   0  0  0  0  0  0  0  0  0  0  0  0
    9.2078   -0.4291   -1.8904 H   0  0  0  0  0  0  0  0  0  0  0  0
    8.2328    1.5997   -0.8873 H   0  0  0  0  0  0  0  0  0  0  0  0
    6.1619    1.4412    0.5391 H   0  0  0  0  0  0  0  0  0  0  0  0
   -7.0193    0.6374   -2.6501 H   0  0  0  0  0  0  0  0  0  0  0  0
  1  2  1  0
  2  3  2  0
  3  4  1  0
  4  5  2  0
  5  6  1  0
  6  7  2  0
  6  8  1  0
  8  9  1  0
  9 10  1  0
 10 11  1  0
 11 12  1  0
 12 13  1  0
 13 14  1  0
 12 15  1  0
 15 16  1  0
 16 17  1  0
 17 18  1  0
 18 19  1  0
 19 20  1  0
 18 21  1  0
 21 22  2  0
 21 23  2  0
 21 24  1  0
 24 25  2  0
 25 26  1  0
 26 27  2  0
 27 28  1  0
 28 29  2  0
  8 30  1  0
 30 31  2  0
 30 32  1  0
  7  2  1  0
 14  9  1  0
 20 15  1  0
 29 24  1  0
 32  5  1  0
  3 33  1  0
  4 34  1  0
  7 35  1  0
  9 36  1  0
 10 37  1  0
 10 38  1  0
 11 39  1  0
 11 40  1  0
 13 41  1  0
 13 42  1  0
 14 43  1  0
 14 44  1  0
 15 45  1  0
 16 46  1  0
 16 47  1  0
 17 48  1  0
 17 49  1  0
 19 50  1  0
 19 51  1  0
 20 52  1  0
 20 53  1  0
 25 54  1  0
 26 55  1  0
 27 56  1  0
 28 57  1  0
 29 58  1  0
 32 59  1  0
M  END
>  <Ligand ID>  (1) 
LIG0000860

>  <Ligand>  (1) 
CHEMBL485953

>  <SMILES>  (1) 
Fc1ccc2c(c1)n(C1CCN(CC1)C1CCN(CC1)S(=O)(=O)c1ccccc1)c(=O)[nH]2

>  <CID>  (1) 
44589595.0

>  <ChEMBL ID>  (1) 
nan

>  <InChiKey>  (1) 
XWZNKQSARMNAJJ-UHFFFAOYSA-N

>  <InChi>  (1) 
InChI=1S/C23H27FN4O3S/c24-17-6-7-21-22(16-17)28(23(29)25-21)19-8-12-26(13-9-19)18-10-14-27(15-11-18)32(30,31)20-4-2-1-3-5-20/h1-7,16,18-19H,8-15H2,(H,25,29)

>  <IUPAC Name>  (1) 
3-[1-[1-(benzenesulfonyl)piperidin-4-yl]piperidin-4-yl]-5-fluoro-1H-benzimidazol-2-one

$$$$
