
     RDKit          3D

 61 65  0  0  0  0  0  0  0  0999 V2000
   -4.3294   -1.4336    2.7733 O   0  0  0  0  0  0  0  0  0  0  0  0
   -5.0872   -0.8823    1.9100 C   0  0  0  0  0  0  0  0  0  0  0  0
   -6.4135   -0.8856    1.9852 N   0  0  0  0  0  0  0  0  0  0  0  0
   -6.8963   -0.2284    0.9342 C   0  0  0  0  0  0  0  0  0  0  0  0
   -5.8110    0.1830    0.2008 C   0  0  0  0  0  0  0  0  0  0  0  0
   -4.6544   -0.2184    0.7972 N   0  0  0  0  0  0  0  0  0  0  0  0
   -3.3056   -0.0284    0.3905 C   0  0  0  0  0  0  0  0  0  0  0  0
   -2.9906   -0.5059   -1.0190 C   0  0  0  0  0  0  0  0  0  0  0  0
   -1.4999   -0.7572   -1.0483 C   0  0  0  0  0  0  0  0  0  0  0  0
   -0.8138   -0.0374    0.0384 N   0  0  0  0  0  0  0  0  0  0  0  0
   -1.3157    1.3233    0.0285 C   0  0  0  0  0  0  0  0  0  0  0  0
   -2.7247    1.3306    0.6388 C   0  0  0  0  0  0  0  0  0  0  0  0
    0.5793   -0.0996   -0.2969 C   0  0  0  0  0  0  0  0  0  0  0  0
    1.0036   -1.5428   -0.4028 C   0  0  0  0  0  0  0  0  0  0  0  0
    2.4123   -1.8012   -0.1105 C   0  0  0  0  0  0  0  0  0  0  0  0
    3.3354   -0.7311   -0.3908 N   0  0  0  0  0  0  0  0  0  0  0  0
    2.8442    0.5619   -0.0404 C   0  0  0  0  0  0  0  0  0  0  0  0
    1.5057    0.5103    0.7326 C   0  0  0  0  0  0  0  0  0  0  0  0
    4.6646   -1.0409    0.0442 C   0  0  0  0  0  0  0  0  0  0  0  0
    5.7197   -0.0895   -0.3107 C   0  0  0  0  0  0  0  0  0  0  0  0
    5.6283    0.9557   -1.1753 C   0  0  0  0  0  0  0  0  0  0  0  0
    6.6863    1.8114   -1.4732 C   0  0  0  0  0  0  0  0  0  0  0  0
    7.9166    1.6132   -0.8723 C   0  0  0  0  0  0  0  0  0  0  0  0
    8.0293    0.5587    0.0058 C   0  0  0  0  0  0  0  0  0  0  0  0
    6.9675   -0.2865    0.2946 C   0  0  0  0  0  0  0  0  0  0  0  0
    7.2219   -1.3325    1.2142 N   0  0  0  0  0  0  0  0  0  0  0  0
    6.6728   -2.4456    1.1937 O   0  0  0  0  0  0  0  0  0  0  0  0
    8.1521   -1.1253    2.2224 O   0  0  0  0  0  0  0  0  0  0  0  0
   -6.0535    0.8900   -0.9498 C   0  0  0  0  0  0  0  0  0  0  0  0
   -7.3579    1.1739   -1.3509 C   0  0  0  0  0  0  0  0  0  0  0  0
   -8.4502    0.7658   -0.6241 C   0  0  0  0  0  0  0  0  0  0  0  0
   -8.2019    0.0547    0.5346 C   0  0  0  0  0  0  0  0  0  0  0  0
   -7.0010   -1.3236    2.7320 H   0  0  0  0  0  0  0  0  0  0  0  0
   -2.6873   -0.7251    1.0375 H   0  0  0  0  0  0  0  0  0  0  0  0
   -3.5764   -1.4176   -1.1931 H   0  0  0  0  0  0  0  0  0  0  0  0
   -3.1800    0.2402   -1.7997 H   0  0  0  0  0  0  0  0  0  0  0  0
   -1.3722   -1.8540   -0.8122 H   0  0  0  0  0  0  0  0  0  0  0  0
   -1.0606   -0.4926   -2.0261 H   0  0  0  0  0  0  0  0  0  0  0  0
   -1.3862    1.6714   -1.0060 H   0  0  0  0  0  0  0  0  0  0  0  0
   -0.7063    2.0256    0.6352 H   0  0  0  0  0  0  0  0  0  0  0  0
   -2.6079    1.4308    1.7582 H   0  0  0  0  0  0  0  0  0  0  0  0
   -3.3237    2.1781    0.3097 H   0  0  0  0  0  0  0  0  0  0  0  0
    0.7515    0.3681   -1.2885 H   0  0  0  0  0  0  0  0  0  0  0  0
    0.3267   -2.1233    0.2764 H   0  0  0  0  0  0  0  0  0  0  0  0
    0.7225   -1.8757   -1.4285 H   0  0  0  0  0  0  0  0  0  0  0  0
    2.5471   -2.0710    0.9574 H   0  0  0  0  0  0  0  0  0  0  0  0
    2.7605   -2.6909   -0.6916 H   0  0  0  0  0  0  0  0  0  0  0  0
    2.5314    1.0810   -0.9948 H   0  0  0  0  0  0  0  0  0  0  0  0
    3.5944    1.1659    0.4573 H   0  0  0  0  0  0  0  0  0  0  0  0
    1.5964   -0.2142    1.5647 H   0  0  0  0  0  0  0  0  0  0  0  0
    1.2357    1.5165    1.0360 H   0  0  0  0  0  0  0  0  0  0  0  0
    4.7079   -1.1723    1.1610 H   0  0  0  0  0  0  0  0  0  0  0  0
    4.9963   -2.0483   -0.3390 H   0  0  0  0  0  0  0  0  0  0  0  0
    4.7134    1.1481   -1.6719 H   0  0  0  0  0  0  0  0  0  0  0  0
    6.5336    2.6340   -2.1842 H   0  0  0  0  0  0  0  0  0  0  0  0
    8.7537    2.2533   -1.0804 H   0  0  0  0  0  0  0  0  0  0  0  0
    9.0119    0.4041    0.4845 H   0  0  0  0  0  0  0  0  0  0  0  0
   -5.2622    1.2363   -1.5569 H   0  0  0  0  0  0  0  0  0  0  0  0
   -7.5530    1.7305   -2.2578 H   0  0  0  0  0  0  0  0  0  0  0  0
   -9.4762    0.9638   -0.8998 H   0  0  0  0  0  0  0  0  0  0  0  0
   -9.0242   -0.2992    1.1586 H   0  0  0  0  0  0  0  0  0  0  0  0
  1  2  2  0
  2  3  1  0
  3  4  1  0
  4  5  2  0
  5  6  1  0
  6  7  1  0
  7  8  1  0
  8  9  1  0
  9 10  1  0
 10 11  1  0
 11 12  1  0
 10 13  1  0
 13 14  1  0
 14 15  1  0
 15 16  1  0
 16 17  1  0
 17 18  1  0
 16 19  1  0
 19 20  1  0
 20 21  2  0
 21 22  1  0
 22 23  2  0
 23 24  1  0
 24 25  2  0
 25 26  1  0
 26 27  2  0
 26 28  1  0
  5 29  1  0
 29 30  2  0
 30 31  1  0
 31 32  2  0
  6  2  1  0
 12  7  1  0
 18 13  1  0
 25 20  1  0
 32  4  1  0
  3 33  1  0
  7 34  1  0
  8 35  1  0
  8 36  1  0
  9 37  1  0
  9 38  1  0
 11 39  1  0
 11 40  1  0
 12 41  1  0
 12 42  1  0
 13 43  1  0
 14 44  1  0
 14 45  1  0
 15 46  1  0
 15 47  1  0
 17 48  1  0
 17 49  1  0
 18 50  1  0
 18 51  1  0
 19 52  1  0
 19 53  1  0
 21 54  1  0
 22 55  1  0
 23 56  1  0
 24 57  1  0
 29 58  1  0
 30 59  1  0
 31 60  1  0
 32 61  1  0
M  CHG  2  26   1  28  -1
M  END
>  <Ligand ID>  (1) 
LIG0000871

>  <Ligand>  (1) 
CHEMBL478034

>  <SMILES>  (1) 
O=c1[nH]c2c(n1C1CCN(CC1)C1CCN(CC1)Cc1ccccc1[N+](=O)[O-])cccc2

>  <CID>  (1) 
44578976.0

>  <ChEMBL ID>  (1) 
nan

>  <InChiKey>  (1) 
RCRAYIPXTHUIJR-UHFFFAOYSA-N

>  <InChi>  (1) 
InChI=1S/C24H29N5O3/c30-24-25-21-6-2-4-8-23(21)28(24)20-11-15-27(16-12-20)19-9-13-26(14-10-19)17-18-5-1-3-7-22(18)29(31)32/h1-8,19-20H,9-17H2,(H,25,30)

>  <IUPAC Name>  (1) 
3-[1-[1-[(2-nitrophenyl)methyl]piperidin-4-yl]piperidin-4-yl]-1H-benzimidazol-2-one

$$$$
