
     RDKit          3D

 21 21  0  0  0  0  0  0  0  0999 V2000
   -1.4076    1.7190   -1.0022 N   0  0  0  0  0  0  0  0  0  0  0  0
   -1.0936    0.3254   -0.7505 C   0  0  1  0  0  0  0  0  0  0  0  0
   -0.0794    0.2489    0.3282 C   0  0  1  0  0  0  0  0  0  0  0  0
    0.4779   -1.0064    0.8468 C   0  0  2  0  0  0  0  0  0  0  0  0
    1.2986   -0.2322   -0.1425 C   0  0  2  0  0  0  0  0  0  0  0  0
    2.4574    0.5689    0.3392 C   0  0  0  0  0  0  0  0  0  0  0  0
    2.3798    1.0520    1.5101 O   0  0  0  0  0  0  0  0  0  0  0  0
    3.5909    0.7909   -0.4489 O   0  0  0  0  0  0  0  0  0  0  0  0
    0.0928   -2.2628    0.4408 O   0  0  0  0  0  0  0  0  0  0  0  0
   -2.3643   -0.3586   -0.3385 C   0  0  0  0  0  0  0  0  0  0  0  0
   -3.4385    0.3139   -0.2730 O   0  0  0  0  0  0  0  0  0  0  0  0
   -2.4384   -1.6892   -0.0225 O   0  0  0  0  0  0  0  0  0  0  0  0
   -0.7040    2.3775   -0.5761 H   0  0  0  0  0  0  0  0  0  0  0  0
   -2.3414    1.9793   -0.6015 H   0  0  0  0  0  0  0  0  0  0  0  0
   -0.7591   -0.1103   -1.7200 H   0  0  0  0  0  0  0  0  0  0  0  0
   -0.1067    1.1243    1.0415 H   0  0  0  0  0  0  0  0  0  0  0  0
    0.9032   -0.9778    1.8694 H   0  0  0  0  0  0  0  0  0  0  0  0
    1.3955   -0.6337   -1.1526 H   0  0  0  0  0  0  0  0  0  0  0  0
    4.2265    1.5394   -0.2224 H   0  0  0  0  0  0  0  0  0  0  0  0
    0.8733   -2.7771    0.0856 H   0  0  0  0  0  0  0  0  0  0  0  0
   -2.9631   -1.9917    0.7889 H   0  0  0  0  0  0  0  0  0  0  0  0
  1  2  1  0
  2  3  1  0
  3  4  1  0
  4  5  1  0
  5  6  1  0
  6  7  2  0
  6  8  1  0
  4  9  1  0
  2 10  1  0
 10 11  2  0
 10 12  1  0
  5  3  1  0
  1 13  1  0
  1 14  1  0
  2 15  1  6
  3 16  1  1
  4 17  1  1
  5 18  1  6
  8 19  1  0
  9 20  1  0
 12 21  1  0
M  END
>  <Ligand ID>  (1) 
LIG0000425

>  <Ligand>  (1) 
CHEMBL140197

>  <SMILES>  (1) 
N[C@@H]([C@H]1[C@H]([C@@H]1C(=O)O)O)C(=O)O

>  <CID>  (1) 
44361401.0

>  <ChEMBL ID>  (1) 
nan

>  <InChiKey>  (1) 
LGSORWLWDBCUMM-NTAGLIMJSA-N

>  <InChi>  (1) 
InChI=1S/C6H9NO5/c7-3(6(11)12)1-2(4(1)8)5(9)10/h1-4,8H,7H2,(H,9,10)(H,11,12)/t1-,2+,3-,4+/m0/s1

>  <IUPAC Name>  (1) 
(1R,2S,3R)-2-[(S)-amino(carboxy)methyl]-3-hydroxycyclopropane-1-carboxylic acid

$$$$
