
     RDKit          3D

 83 86  0  0  0  0  0  0  0  0999 V2000
    4.2806    1.1174   -1.2101 O   0  0  0  0  0  0  0  0  0  0  0  0
    4.1508    0.1286   -0.4222 C   0  0  0  0  0  0  0  0  0  0  0  0
    2.8667   -0.5113   -0.2360 N   0  0  0  0  0  0  0  0  0  0  0  0
    1.7746    0.0044   -0.9892 C   0  0  2  0  0  0  0  0  0  0  0  0
    0.6262    0.5103   -0.1962 C   0  0  0  0  0  0  0  0  0  0  0  0
    0.5676    0.5368    1.0423 O   0  0  0  0  0  0  0  0  0  0  0  0
   -0.4838    0.9985   -0.9484 N   0  0  0  0  0  0  0  0  0  0  0  0
   -1.6872    1.5269   -0.4349 C   0  0  1  0  0  0  0  0  0  0  0  0
   -2.5417    0.4254    0.0259 C   0  0  0  0  0  0  0  0  0  0  0  0
   -2.1474   -0.7612    0.1586 O   0  0  0  0  0  0  0  0  0  0  0  0
   -3.9274    0.6898    0.3499 N   0  0  0  0  0  0  0  0  0  0  0  0
   -4.7169   -0.4177    0.8057 C   0  0  1  0  0  0  0  0  0  0  0  0
   -5.7687   -0.1507    1.7511 C   0  0  0  0  0  0  0  0  0  0  0  0
   -6.4864   -1.1381    2.1494 O   0  0  0  0  0  0  0  0  0  0  0  0
   -6.0341    1.1669    2.2566 N   0  0  0  0  0  0  0  0  0  0  0  0
   -5.0802   -1.2268   -0.4175 C   0  0  0  0  0  0  0  0  0  0  0  0
   -5.8537   -0.4895   -1.4543 C   0  0  0  0  0  0  0  0  0  0  0  0
   -7.1816    0.0167   -1.0195 C   0  0  0  0  0  0  0  0  0  0  0  0
   -8.0369   -1.0485   -0.5790 N   0  0  0  0  0  0  0  0  0  0  0  0
   -8.1292   -2.2256   -1.0252 C   0  0  0  0  0  0  0  0  0  0  0  0
   -9.0917   -3.0868   -0.3750 N   0  0  0  0  0  0  0  0  0  0  0  0
   -7.4093   -2.8112   -2.0840 N   0  0  0  0  0  0  0  0  0  0  0  0
   -1.5413    2.5349    0.6725 C   0  0  0  0  0  0  0  0  0  0  0  0
   -0.8047    3.7565    0.3073 C   0  0  0  0  0  0  0  0  0  0  0  0
    0.5185    3.9643    0.4040 C   0  0  0  0  0  0  0  0  0  0  0  0
    1.2031    5.1254    0.0641 C   0  0  0  0  0  0  0  0  0  0  0  0
    0.3818    6.1548   -0.4249 C   0  0  0  0  0  0  0  0  0  0  0  0
   -0.9765    5.9976   -0.5449 C   0  0  0  0  0  0  0  0  0  0  0  0
   -1.5854    4.8152   -0.1878 C   0  0  0  0  0  0  0  0  0  0  0  0
    1.3033   -1.0351   -1.9514 C   0  0  0  0  0  0  0  0  0  0  0  0
    0.8031   -2.2729   -1.3587 C   0  0  0  0  0  0  0  0  0  0  0  0
    0.3775   -3.3168   -2.1370 N   0  0  0  0  0  0  0  0  0  0  0  0
   -0.0518   -4.3218   -1.3709 C   0  0  0  0  0  0  0  0  0  0  0  0
    0.0861   -3.9539   -0.0878 N   0  0  0  0  0  0  0  0  0  0  0  0
    0.6119   -2.6919   -0.0786 C   0  0  0  0  0  0  0  0  0  0  0  0
    5.3431   -0.3371    0.2770 C   0  0  0  0  0  0  0  0  0  0  0  0
    6.5177    0.2456    0.0894 C   0  0  0  0  0  0  0  0  0  0  0  0
    7.7384   -0.2120    0.7833 C   0  0  0  0  0  0  0  0  0  0  0  0
    8.8918    0.4854    0.5005 C   0  0  0  0  0  0  0  0  0  0  0  0
   10.0670    0.1030    1.0967 C   0  0  0  0  0  0  0  0  0  0  0  0
   10.1033   -0.9599    1.9653 C   0  0  0  0  0  0  0  0  0  0  0  0
    8.9136   -1.6561    2.2391 C   0  0  0  0  0  0  0  0  0  0  0  0
    7.7245   -1.2828    1.6478 C   0  0  0  0  0  0  0  0  0  0  0  0
    9.2710   -2.6772    3.1509 O   0  0  0  0  0  0  0  0  0  0  0  0
   10.6658   -2.9502    2.9415 C   0  0  0  0  0  0  0  0  0  0  0  0
   11.1141   -1.5930    2.7221 O   0  0  0  0  0  0  0  0  0  0  0  0
    2.8715   -1.2921    0.4364 H   0  0  0  0  0  0  0  0  0  0  0  0
    2.1265    0.8774   -1.5862 H   0  0  0  0  0  0  0  0  0  0  0  0
   -0.3957    0.9572   -2.0172 H   0  0  0  0  0  0  0  0  0  0  0  0
   -2.2172    2.1054   -1.2490 H   0  0  0  0  0  0  0  0  0  0  0  0
   -4.3061    1.6563    0.2460 H   0  0  0  0  0  0  0  0  0  0  0  0
   -3.9654   -1.1168    1.3405 H   0  0  0  0  0  0  0  0  0  0  0  0
   -6.9253    1.3139    2.7701 H   0  0  0  0  0  0  0  0  0  0  0  0
   -5.3157    1.9066    2.0781 H   0  0  0  0  0  0  0  0  0  0  0  0
   -4.0897   -1.4928   -0.9033 H   0  0  0  0  0  0  0  0  0  0  0  0
   -5.5356   -2.2049   -0.1324 H   0  0  0  0  0  0  0  0  0  0  0  0
   -5.9330   -1.0543   -2.4155 H   0  0  0  0  0  0  0  0  0  0  0  0
   -5.1737    0.3819   -1.7628 H   0  0  0  0  0  0  0  0  0  0  0  0
   -7.6786    0.5224   -1.9095 H   0  0  0  0  0  0  0  0  0  0  0  0
   -7.1045    0.8350   -0.2683 H   0  0  0  0  0  0  0  0  0  0  0  0
   -8.9187   -3.4271    0.6154 H   0  0  0  0  0  0  0  0  0  0  0  0
   -9.9654   -3.3966   -0.8383 H   0  0  0  0  0  0  0  0  0  0  0  0
   -7.5771   -2.6548   -3.0990 H   0  0  0  0  0  0  0  0  0  0  0  0
   -6.6186   -3.4805   -1.8372 H   0  0  0  0  0  0  0  0  0  0  0  0
   -1.1289    2.0614    1.6037 H   0  0  0  0  0  0  0  0  0  0  0  0
   -2.5663    2.8338    0.9692 H   0  0  0  0  0  0  0  0  0  0  0  0
    1.1462    3.1666    0.7891 H   0  0  0  0  0  0  0  0  0  0  0  0
    2.2678    5.2381    0.1623 H   0  0  0  0  0  0  0  0  0  0  0  0
    0.8079    7.1083   -0.7208 H   0  0  0  0  0  0  0  0  0  0  0  0
   -1.5637    6.8281   -0.9280 H   0  0  0  0  0  0  0  0  0  0  0  0
   -2.6509    4.7221   -0.2912 H   0  0  0  0  0  0  0  0  0  0  0  0
    0.6164   -0.6237   -2.7387 H   0  0  0  0  0  0  0  0  0  0  0  0
    2.2203   -1.3185   -2.5592 H   0  0  0  0  0  0  0  0  0  0  0  0
    0.3676   -3.3663   -3.1859 H   0  0  0  0  0  0  0  0  0  0  0  0
   -0.4414   -5.2652   -1.7223 H   0  0  0  0  0  0  0  0  0  0  0  0
    0.8015   -2.1808    0.8284 H   0  0  0  0  0  0  0  0  0  0  0  0
    5.2233   -1.1671    0.9407 H   0  0  0  0  0  0  0  0  0  0  0  0
    6.5328    1.0678   -0.6002 H   0  0  0  0  0  0  0  0  0  0  0  0
    8.9204    1.3243   -0.1708 H   0  0  0  0  0  0  0  0  0  0  0  0
   10.9721    0.6569    0.8664 H   0  0  0  0  0  0  0  0  0  0  0  0
    6.8475   -1.8344    1.8823 H   0  0  0  0  0  0  0  0  0  0  0  0
   11.1603   -3.3293    3.8507 H   0  0  0  0  0  0  0  0  0  0  0  0
   10.8225   -3.5347    2.0323 H   0  0  0  0  0  0  0  0  0  0  0  0
  1  2  2  0
  2  3  1  0
  3  4  1  0
  4  5  1  0
  5  6  2  0
  5  7  1  0
  7  8  1  0
  8  9  1  0
  9 10  2  0
  9 11  1  0
 11 12  1  0
 12 13  1  0
 13 14  2  0
 13 15  1  0
 12 16  1  0
 16 17  1  0
 17 18  1  0
 18 19  1  0
 19 20  2  3
 20 21  1  0
 20 22  1  0
  8 23  1  0
 23 24  1  0
 24 25  2  0
 25 26  1  0
 26 27  2  0
 27 28  1  0
 28 29  2  0
  4 30  1  0
 30 31  1  0
 31 32  1  0
 32 33  1  0
 33 34  2  0
 34 35  1  0
  2 36  1  0
 36 37  2  0
 37 38  1  0
 38 39  2  0
 39 40  1  0
 40 41  2  0
 41 42  1  0
 42 43  2  0
 42 44  1  0
 44 45  1  0
 45 46  1  0
 29 24  1  0
 35 31  2  0
 43 38  1  0
 46 41  1  0
  3 47  1  0
  4 48  1  6
  7 49  1  0
  8 50  1  6
 11 51  1  0
 12 52  1  1
 15 53  1  0
 15 54  1  0
 16 55  1  0
 16 56  1  0
 17 57  1  0
 17 58  1  0
 18 59  1  0
 18 60  1  0
 21 61  1  0
 21 62  1  0
 22 63  1  0
 22 64  1  0
 23 65  1  0
 23 66  1  0
 25 67  1  0
 26 68  1  0
 27 69  1  0
 28 70  1  0
 29 71  1  0
 30 72  1  0
 30 73  1  0
 32 74  1  0
 33 75  1  0
 35 76  1  0
 36 77  1  0
 37 78  1  0
 39 79  1  0
 40 80  1  0
 43 81  1  0
 45 82  1  0
 45 83  1  0
M  END
>  <Ligand ID>  (1) 
LIG0003254

>  <Ligand>  (1) 
CHEMBL568940

>  <SMILES>  (1) 
O=C(N[C@H](C(=O)N[C@@H](C(=O)N[C@@H](C(=O)N)CCCN=C(N)N)Cc1ccccc1)Cc1[nH]cnc1)/C=C/c1ccc2c(c1)OCO2

>  <CID>  (1) 
45487286.0

>  <ChEMBL ID>  (1) 
nan

>  <InChiKey>  (1) 
JHFQXGKRYPWBNG-ZDOICQRQSA-N

>  <InChi>  (1) 
InChI=1S/C31H37N9O6/c32-28(42)22(7-4-12-36-31(33)34)39-29(43)23(13-19-5-2-1-3-6-19)40-30(44)24(15-21-16-35-17-37-21)38-27(41)11-9-20-8-10-25-26(14-20)46-18-45-25/h1-3,5-6,8-11,14,16-17,22-24H,4,7,12-13,15,18H2,(H2,32,42)(H,35,37)(H,38,41)(H,39,43)(H,40,44)(H4,33,34,36)/b11-9+/t22-,23-,24+/m1/s1

>  <IUPAC Name>  (1) 
(2R)-2-[[(2R)-2-[[(2S)-2-[[(E)-3-(1,3-benzodioxol-5-yl)prop-2-enoyl]amino]-3-(1H-imidazol-5-yl)propanoyl]amino]-3-phenylpropanoyl]amino]-5-(diaminomethylideneamino)pentanamide

$$$$
