
     RDKit          3D

 55 57  0  0  0  0  0  0  0  0999 V2000
   -7.3385    2.7698    0.0775 C   0  0  0  0  0  0  0  0  0  0  0  0
   -6.5594    2.2667    1.2869 C   0  0  0  0  0  0  0  0  0  0  0  0
   -5.3016    1.7239    0.9311 O   0  0  0  0  0  0  0  0  0  0  0  0
   -5.1374    0.6573    0.0900 C   0  0  0  0  0  0  0  0  0  0  0  0
   -6.1177    0.0642   -0.4435 O   0  0  0  0  0  0  0  0  0  0  0  0
   -3.8201    0.2014   -0.1929 N   0  0  0  0  0  0  0  0  0  0  0  0
   -2.6349    0.8439    0.3926 C   0  0  0  0  0  0  0  0  0  0  0  0
   -1.4296    0.3335   -0.4101 C   0  0  0  0  0  0  0  0  0  0  0  0
   -1.2374   -1.1054   -0.0745 C   0  0  0  0  0  0  0  0  0  0  0  0
   -2.5197   -1.8426   -0.4106 C   0  0  0  0  0  0  0  0  0  0  0  0
   -3.5464   -0.9242   -1.0742 C   0  0  0  0  0  0  0  0  0  0  0  0
   -0.1919   -1.7524   -0.7808 N   0  0  0  0  0  0  0  0  0  0  0  0
    0.0172   -3.1113   -0.4885 C   0  0  0  0  0  0  0  0  0  0  0  0
    1.3727   -3.5553   -0.0909 C   0  0  0  0  0  0  0  0  0  0  0  0
    2.5113   -2.6763   -0.4635 C   0  0  0  0  0  0  0  0  0  0  0  0
    2.0825   -1.2314   -0.1964 C   0  0  2  0  0  0  0  0  0  0  0  0
    0.9460   -0.9983   -1.1452 C   0  0  0  0  0  0  0  0  0  0  0  0
    3.2440   -0.4266   -0.4916 N   0  0  0  0  0  0  0  0  0  0  0  0
    3.8972    0.3380    0.5071 C   0  0  0  0  0  0  0  0  0  0  0  0
    3.4181    0.2847    1.6700 O   0  0  0  0  0  0  0  0  0  0  0  0
    5.0709    1.1542    0.2193 C   0  0  0  0  0  0  0  0  0  0  0  0
    5.6382    1.2527   -1.0332 C   0  0  0  0  0  0  0  0  0  0  0  0
    6.7616    2.0526   -1.2374 C   0  0  0  0  0  0  0  0  0  0  0  0
    7.3484    2.7701   -0.2163 C   0  0  0  0  0  0  0  0  0  0  0  0
    6.7701    2.6662    1.0476 C   0  0  0  0  0  0  0  0  0  0  0  0
    5.6561    1.8709    1.2418 C   0  0  0  0  0  0  0  0  0  0  0  0
    7.3232    3.3646    2.0933 F   0  0  0  0  0  0  0  0  0  0  0  0
   -6.6645    2.6182   -0.8031 H   0  0  0  0  0  0  0  0  0  0  0  0
   -7.5989    3.8263    0.1355 H   0  0  0  0  0  0  0  0  0  0  0  0
   -8.2270    2.1189   -0.1294 H   0  0  0  0  0  0  0  0  0  0  0  0
   -7.1755    1.5346    1.8525 H   0  0  0  0  0  0  0  0  0  0  0  0
   -6.3470    3.1515    1.9220 H   0  0  0  0  0  0  0  0  0  0  0  0
   -2.7363    1.9361    0.2964 H   0  0  0  0  0  0  0  0  0  0  0  0
   -2.5171    0.4781    1.4250 H   0  0  0  0  0  0  0  0  0  0  0  0
   -1.5964    0.5111   -1.4894 H   0  0  0  0  0  0  0  0  0  0  0  0
   -0.6090    0.9951   -0.0965 H   0  0  0  0  0  0  0  0  0  0  0  0
   -1.0925   -1.1509    1.0448 H   0  0  0  0  0  0  0  0  0  0  0  0
   -3.0250   -2.2033    0.5137 H   0  0  0  0  0  0  0  0  0  0  0  0
   -2.3727   -2.6585   -1.1486 H   0  0  0  0  0  0  0  0  0  0  0  0
   -4.4663   -1.5237   -1.1871 H   0  0  0  0  0  0  0  0  0  0  0  0
   -3.2283   -0.6082   -2.0730 H   0  0  0  0  0  0  0  0  0  0  0  0
   -0.6668   -3.4527    0.3436 H   0  0  0  0  0  0  0  0  0  0  0  0
   -0.3559   -3.7079   -1.3695 H   0  0  0  0  0  0  0  0  0  0  0  0
    1.4648   -3.7667    1.0086 H   0  0  0  0  0  0  0  0  0  0  0  0
    1.5699   -4.5572   -0.5627 H   0  0  0  0  0  0  0  0  0  0  0  0
    2.7444   -2.6982   -1.5592 H   0  0  0  0  0  0  0  0  0  0  0  0
    3.3913   -2.9338    0.1299 H   0  0  0  0  0  0  0  0  0  0  0  0
    1.7823   -1.1721    0.8684 H   0  0  0  0  0  0  0  0  0  0  0  0
    0.7297    0.0462   -1.3458 H   0  0  0  0  0  0  0  0  0  0  0  0
    1.3003   -1.4132   -2.1359 H   0  0  0  0  0  0  0  0  0  0  0  0
    3.5825   -0.4333   -1.4789 H   0  0  0  0  0  0  0  0  0  0  0  0
    5.2203    0.7167   -1.8540 H   0  0  0  0  0  0  0  0  0  0  0  0
    7.1946    2.1145   -2.2430 H   0  0  0  0  0  0  0  0  0  0  0  0
    8.2093    3.3961   -0.3240 H   0  0  0  0  0  0  0  0  0  0  0  0
    5.2667    1.8456    2.2610 H   0  0  0  0  0  0  0  0  0  0  0  0
  1  2  1  0
  2  3  1  0
  3  4  1  0
  4  5  2  0
  4  6  1  0
  6  7  1  0
  7  8  1  0
  8  9  1  0
  9 10  1  0
 10 11  1  0
  9 12  1  0
 12 13  1  0
 13 14  1  0
 14 15  1  0
 15 16  1  0
 16 17  1  0
 16 18  1  0
 18 19  1  0
 19 20  2  0
 19 21  1  0
 21 22  2  0
 22 23  1  0
 23 24  2  0
 24 25  1  0
 25 26  2  0
 25 27  1  0
 11  6  1  0
 17 12  1  0
 26 21  1  0
  1 28  1  0
  1 29  1  0
  1 30  1  0
  2 31  1  0
  2 32  1  0
  7 33  1  0
  7 34  1  0
  8 35  1  0
  8 36  1  0
  9 37  1  0
 10 38  1  0
 10 39  1  0
 11 40  1  0
 11 41  1  0
 13 42  1  0
 13 43  1  0
 14 44  1  0
 14 45  1  0
 15 46  1  0
 15 47  1  0
 16 48  1  1
 17 49  1  0
 17 50  1  0
 18 51  1  0
 22 52  1  0
 23 53  1  0
 24 54  1  0
 26 55  1  0
M  END
>  <Ligand ID>  (1) 
LIG0001941

>  <Ligand>  (1) 
CHEMBL1916227

>  <SMILES>  (1) 
CCOC(=O)N1CCC(CC1)N1CCC[C@H](C1)NC(=O)c1cccc(c1)F

>  <CID>  (1) 
57398164.0

>  <ChEMBL ID>  (1) 
nan

>  <InChiKey>  (1) 
OYZLCGDWJHDELT-QGZVFWFLSA-N

>  <InChi>  (1) 
InChI=1S/C20H28FN3O3/c1-2-27-20(26)23-11-8-18(9-12-23)24-10-4-7-17(14-24)22-19(25)15-5-3-6-16(21)13-15/h3,5-6,13,17-18H,2,4,7-12,14H2,1H3,(H,22,25)/t17-/m1/s1

>  <IUPAC Name>  (1) 
ethyl 4-[(3R)-3-[(3-fluorobenzoyl)amino]piperidin-1-yl]piperidine-1-carboxylate

$$$$
