
     RDKit          3D

 49 51  0  0  0  0  0  0  0  0999 V2000
   -2.6600   -2.6975   -1.6986 C   0  0  0  0  0  0  0  0  0  0  0  0
   -2.1898   -1.8176   -0.6937 O   0  0  0  0  0  0  0  0  0  0  0  0
   -0.8518   -1.9189   -0.3354 C   0  0  0  0  0  0  0  0  0  0  0  0
    0.0191   -2.8235   -0.9075 C   0  0  0  0  0  0  0  0  0  0  0  0
    1.3554   -2.8686   -0.4958 C   0  0  0  0  0  0  0  0  0  0  0  0
    1.8233   -2.0020    0.4955 C   0  0  0  0  0  0  0  0  0  0  0  0
    0.9166   -1.1153    1.0382 C   0  0  0  0  0  0  0  0  0  0  0  0
   -0.4058   -1.0522    0.6486 C   0  0  0  0  0  0  0  0  0  0  0  0
   -1.3194   -0.1098    1.2424 N   0  0  0  0  0  0  0  0  0  0  0  0
   -1.4973    1.4738    0.5266 S   0  0  0  0  0  0  0  0  0  0  0  0
   -1.1256    2.4735    1.5855 O   0  0  0  0  0  0  0  0  0  0  0  0
   -0.5094    1.6320   -0.5973 O   0  0  0  0  0  0  0  0  0  0  0  0
   -3.1534    1.7076   -0.0129 C   0  0  0  0  0  0  0  0  0  0  0  0
   -4.1217    2.2482    0.8095 C   0  0  0  0  0  0  0  0  0  0  0  0
   -5.4037    2.3986    0.3057 C   0  0  0  0  0  0  0  0  0  0  0  0
   -5.6836    2.0103   -0.9906 C   0  0  0  0  0  0  0  0  0  0  0  0
   -4.7370    1.4673   -1.8357 C   0  0  0  0  0  0  0  0  0  0  0  0
   -3.4484    1.3234   -1.3087 C   0  0  0  0  0  0  0  0  0  0  0  0
   -7.3063    2.1962   -1.6413 Cl  0  0  0  0  0  0  0  0  0  0  0  0
   -2.0840   -0.4495    2.4099 C   0  0  0  0  0  0  0  0  0  0  0  0
    3.4787   -2.1353    0.9695 S   0  0  0  0  0  0  0  0  0  0  0  0
    3.6148   -1.5729    2.3745 O   0  0  0  0  0  0  0  0  0  0  0  0
    3.8938   -3.6021    1.0046 O   0  0  0  0  0  0  0  0  0  0  0  0
    4.5180   -1.3057   -0.0871 N   0  0  0  0  0  0  0  0  0  0  0  0
    4.5240    0.0770   -0.3590 C   0  0  0  0  0  0  0  0  0  0  0  0
    5.7582    0.7237   -0.2854 C   0  0  0  0  0  0  0  0  0  0  0  0
    5.8803    2.0799   -0.5215 C   0  0  0  0  0  0  0  0  0  0  0  0
    4.7785    2.8556   -0.8422 C   0  0  0  0  0  0  0  0  0  0  0  0
    3.5650    2.2038   -0.9118 C   0  0  0  0  0  0  0  0  0  0  0  0
    3.4441    0.8498   -0.6761 C   0  0  0  0  0  0  0  0  0  0  0  0
    4.9453    4.1649   -1.0621 F   0  0  0  0  0  0  0  0  0  0  0  0
   -2.2032   -2.3863   -2.6682 H   0  0  0  0  0  0  0  0  0  0  0  0
   -3.7627   -2.6507   -1.8082 H   0  0  0  0  0  0  0  0  0  0  0  0
   -2.3554   -3.7512   -1.5337 H   0  0  0  0  0  0  0  0  0  0  0  0
   -0.3369   -3.4876   -1.6664 H   0  0  0  0  0  0  0  0  0  0  0  0
    1.9896   -3.5876   -0.9702 H   0  0  0  0  0  0  0  0  0  0  0  0
    1.2874   -0.4508    1.8025 H   0  0  0  0  0  0  0  0  0  0  0  0
   -3.8589    2.5365    1.8118 H   0  0  0  0  0  0  0  0  0  0  0  0
   -6.1804    2.8218    0.9360 H   0  0  0  0  0  0  0  0  0  0  0  0
   -4.9387    1.1596   -2.8485 H   0  0  0  0  0  0  0  0  0  0  0  0
   -2.6831    0.9033   -1.9386 H   0  0  0  0  0  0  0  0  0  0  0  0
   -1.6804   -0.0387    3.3532 H   0  0  0  0  0  0  0  0  0  0  0  0
   -2.1490   -1.5599    2.4678 H   0  0  0  0  0  0  0  0  0  0  0  0
   -3.0880    0.0135    2.2719 H   0  0  0  0  0  0  0  0  0  0  0  0
    5.2489   -1.8703   -0.6094 H   0  0  0  0  0  0  0  0  0  0  0  0
    6.6675    0.1852   -0.0400 H   0  0  0  0  0  0  0  0  0  0  0  0
    6.8586    2.5455   -0.4543 H   0  0  0  0  0  0  0  0  0  0  0  0
    2.6845    2.7980   -1.1631 H   0  0  0  0  0  0  0  0  0  0  0  0
    2.4824    0.4050   -0.7543 H   0  0  0  0  0  0  0  0  0  0  0  0
  1  2  1  0
  2  3  1  0
  3  4  2  0
  4  5  1  0
  5  6  2  0
  6  7  1  0
  7  8  2  0
  8  9  1  0
  9 10  1  0
 10 11  2  0
 10 12  2  0
 10 13  1  0
 13 14  2  0
 14 15  1  0
 15 16  2  0
 16 17  1  0
 17 18  2  0
 16 19  1  0
  9 20  1  0
  6 21  1  0
 21 22  2  0
 21 23  2  0
 21 24  1  0
 24 25  1  0
 25 26  2  0
 26 27  1  0
 27 28  2  0
 28 29  1  0
 29 30  2  0
 28 31  1  0
  8  3  1  0
 18 13  1  0
 30 25  1  0
  1 32  1  0
  1 33  1  0
  1 34  1  0
  4 35  1  0
  5 36  1  0
  7 37  1  0
 14 38  1  0
 15 39  1  0
 17 40  1  0
 18 41  1  0
 20 42  1  0
 20 43  1  0
 20 44  1  0
 24 45  1  0
 26 46  1  0
 27 47  1  0
 29 48  1  0
 30 49  1  0
M  END
>  <Ligand ID>  (1) 
LIG0004552

>  <Ligand>  (1) 
MLS000582054

>  <SMILES>  (1) 
COc1ccc(cc1N(S(=O)(=O)c1ccc(cc1)Cl)C)S(=O)(=O)Nc1ccc(cc1)F

>  <CID>  (1) 
2974727.0

>  <ChEMBL ID>  (1) 
nan

>  <InChiKey>  (1) 
PHZMYJRNOGKSBG-UHFFFAOYSA-N

>  <InChi>  (1) 
InChI=1S/C20H18ClFN2O5S2/c1-24(31(27,28)17-9-3-14(21)4-10-17)19-13-18(11-12-20(19)29-2)30(25,26)23-16-7-5-15(22)6-8-16/h3-13,23H,1-2H3

>  <IUPAC Name>  (1) 
3-[(4-chlorophenyl)sulfonyl-methylamino]-N-(4-fluorophenyl)-4-methoxybenzenesulfonamide

$$$$
