
     RDKit          3D

 56 58  0  0  0  0  0  0  0  0999 V2000
   -0.6490    2.5737   -0.0501 C   0  0  0  0  0  0  0  0  0  0  0  0
   -0.5964    2.0098    1.3177 C   0  0  0  0  0  0  0  0  0  0  0  0
   -0.4028    0.5066    1.3442 C   0  0  0  0  0  0  0  0  0  0  0  0
   -1.4377   -0.2381    0.6675 N   0  0  0  0  0  0  0  0  0  0  0  0
   -1.0887   -1.2344   -0.3311 C   0  0  0  0  0  0  0  0  0  0  0  0
    0.0839   -1.4830   -0.6369 O   0  0  0  0  0  0  0  0  0  0  0  0
   -2.1086   -2.0121   -1.0366 C   0  0  0  0  0  0  0  0  0  0  0  0
   -2.2378   -3.3328   -0.6641 C   0  0  0  0  0  0  0  0  0  0  0  0
   -3.1507   -4.1223   -1.3036 N   0  0  0  0  0  0  0  0  0  0  0  0
   -3.9307   -3.6284   -2.2965 C   0  0  0  0  0  0  0  0  0  0  0  0
   -3.7953   -2.3029   -2.6633 C   0  0  0  0  0  0  0  0  0  0  0  0
   -2.8830   -1.5415   -2.0133 N   0  0  0  0  0  0  0  0  0  0  0  0
   -2.8150   -0.0764    0.9651 C   0  0  0  0  0  0  0  0  0  0  0  0
   -3.6417    0.9076    0.2763 C   0  0  0  0  0  0  0  0  0  0  0  0
   -3.9473    2.1469    0.9040 C   0  0  0  0  0  0  0  0  0  0  0  0
   -4.7320    2.8876    0.0484 C   0  0  0  0  0  0  0  0  0  0  0  0
   -4.8672    2.0532   -1.0666 C   0  0  0  0  0  0  0  0  0  0  0  0
   -4.2275    0.9370   -0.8864 O   0  0  0  0  0  0  0  0  0  0  0  0
    0.9649    0.1107    1.0963 C   0  0  0  0  0  0  0  0  0  0  0  0
    1.5995   -0.5622    1.9926 O   0  0  0  0  0  0  0  0  0  0  0  0
    1.7482    0.3897   -0.0701 N   0  0  0  0  0  0  0  0  0  0  0  0
    3.1010   -0.0787   -0.1220 C   0  0  0  0  0  0  0  0  0  0  0  0
    4.0736    1.0538   -0.4159 C   0  0  0  0  0  0  0  0  0  0  0  0
    5.4475    0.5191   -0.0689 C   0  0  0  0  0  0  0  0  0  0  0  0
    5.7824   -0.5557   -1.0886 C   0  0  0  0  0  0  0  0  0  0  0  0
    4.7499   -1.6421   -1.0499 C   0  0  0  0  0  0  0  0  0  0  0  0
    3.3321   -1.1144   -1.1963 C   0  0  0  0  0  0  0  0  0  0  0  0
   -0.6691    0.1721    2.8499 C   0  0  0  0  0  0  0  0  0  0  0  0
   -0.9724    1.8366   -0.8277 H   0  0  0  0  0  0  0  0  0  0  0  0
   -1.4473    3.3735   -0.0703 H   0  0  0  0  0  0  0  0  0  0  0  0
    0.2779    3.1067   -0.3736 H   0  0  0  0  0  0  0  0  0  0  0  0
   -1.3351    2.3092    2.0436 H   0  0  0  0  0  0  0  0  0  0  0  0
    0.3859    2.3930    1.7573 H   0  0  0  0  0  0  0  0  0  0  0  0
   -1.6365   -3.7582    0.1218 H   0  0  0  0  0  0  0  0  0  0  0  0
   -4.6661   -4.2541   -2.8205 H   0  0  0  0  0  0  0  0  0  0  0  0
   -4.3983   -1.8485   -3.4579 H   0  0  0  0  0  0  0  0  0  0  0  0
   -3.3248   -1.0791    0.7680 H   0  0  0  0  0  0  0  0  0  0  0  0
   -2.9059   -0.0036    2.0835 H   0  0  0  0  0  0  0  0  0  0  0  0
   -3.6538    2.4857    1.8720 H   0  0  0  0  0  0  0  0  0  0  0  0
   -5.1638    3.8819    0.1838 H   0  0  0  0  0  0  0  0  0  0  0  0
   -5.4602    2.3899   -1.9325 H   0  0  0  0  0  0  0  0  0  0  0  0
    1.3206    0.9267   -0.8362 H   0  0  0  0  0  0  0  0  0  0  0  0
    3.4442   -0.5265    0.8589 H   0  0  0  0  0  0  0  0  0  0  0  0
    4.0761    1.2265   -1.5106 H   0  0  0  0  0  0  0  0  0  0  0  0
    3.8582    1.9434    0.1854 H   0  0  0  0  0  0  0  0  0  0  0  0
    6.2341    1.2875   -0.0363 H   0  0  0  0  0  0  0  0  0  0  0  0
    5.3788   -0.0242    0.9190 H   0  0  0  0  0  0  0  0  0  0  0  0
    6.7467   -1.0327   -0.7729 H   0  0  0  0  0  0  0  0  0  0  0  0
    5.9444   -0.1642   -2.1082 H   0  0  0  0  0  0  0  0  0  0  0  0
    4.9169   -2.3796   -1.8455 H   0  0  0  0  0  0  0  0  0  0  0  0
    4.8300   -2.1895   -0.0864 H   0  0  0  0  0  0  0  0  0  0  0  0
    2.6812   -1.9896   -1.1034 H   0  0  0  0  0  0  0  0  0  0  0  0
    3.1888   -0.6498   -2.1657 H   0  0  0  0  0  0  0  0  0  0  0  0
   -1.4578    0.8330    3.2352 H   0  0  0  0  0  0  0  0  0  0  0  0
   -0.8293   -0.8981    2.9635 H   0  0  0  0  0  0  0  0  0  0  0  0
    0.2652    0.4614    3.3642 H   0  0  0  0  0  0  0  0  0  0  0  0
  1  2  1  0
  2  3  1  0
  3  4  1  0
  4  5  1  0
  5  6  2  0
  5  7  1  0
  7  8  2  0
  8  9  1  0
  9 10  2  0
 10 11  1  0
 11 12  2  0
  4 13  1  0
 13 14  1  0
 14 15  2  0
 15 16  1  0
 16 17  2  0
 17 18  1  0
  3 19  1  0
 19 20  2  0
 19 21  1  0
 21 22  1  0
 22 23  1  0
 23 24  1  0
 24 25  1  0
 25 26  1  0
 26 27  1  0
  3 28  1  0
 12  7  1  0
 18 14  1  0
 27 22  1  0
  1 29  1  0
  1 30  1  0
  1 31  1  0
  2 32  1  0
  2 33  1  0
  8 34  1  0
 10 35  1  0
 11 36  1  0
 13 37  1  0
 13 38  1  0
 15 39  1  0
 16 40  1  0
 17 41  1  0
 21 42  1  0
 22 43  1  0
 23 44  1  0
 23 45  1  0
 24 46  1  0
 24 47  1  0
 25 48  1  0
 25 49  1  0
 26 50  1  0
 26 51  1  0
 27 52  1  0
 27 53  1  0
 28 54  1  0
 28 55  1  0
 28 56  1  0
M  END
>  <Ligand ID>  (1) 
LIG0004048

>  <Ligand>  (1) 
SMR000030559

>  <SMILES>  (1) 
CCC(N(C(=O)c1cnccn1)Cc1ccco1)(C(=O)NC1CCCCC1)C

>  <CID>  (1) 
3242935.0

>  <ChEMBL ID>  (1) 
nan

>  <InChiKey>  (1) 
CVRJZEXVLMQRJP-UHFFFAOYSA-N

>  <InChi>  (1) 
InChI=1S/C21H28N4O3/c1-3-21(2,20(27)24-16-8-5-4-6-9-16)25(15-17-10-7-13-28-17)19(26)18-14-22-11-12-23-18/h7,10-14,16H,3-6,8-9,15H2,1-2H3,(H,24,27)

>  <IUPAC Name>  (1) 
N-[1-(cyclohexylamino)-2-methyl-1-oxobutan-2-yl]-N-(furan-2-ylmethyl)pyrazine-2-carboxamide

$$$$
