
     RDKit          3D

 27 27  0  0  0  0  0  0  0  0999 V2000
    2.7279   -0.8897    1.3642 C   0  0  0  0  0  0  0  0  0  0  0  0
    3.3273   -0.7769    0.1838 C   0  0  0  0  0  0  0  0  0  0  0  0
    2.6222   -0.1966   -0.9989 C   0  0  0  0  0  0  0  0  0  0  0  0
    1.2347    0.2061   -0.6608 C   0  0  0  0  0  0  0  0  0  0  0  0
    0.9130    1.4701   -0.1958 C   0  0  0  0  0  0  0  0  0  0  0  0
   -0.3994    1.7965    0.1060 C   0  0  0  0  0  0  0  0  0  0  0  0
   -1.3922    0.8430   -0.0622 C   0  0  0  0  0  0  0  0  0  0  0  0
   -1.0422   -0.4077   -0.5270 C   0  0  0  0  0  0  0  0  0  0  0  0
    0.2531   -0.7667   -0.8370 C   0  0  0  0  0  0  0  0  0  0  0  0
   -2.0297   -1.3378   -0.6883 O   0  0  0  0  0  0  0  0  0  0  0  0
   -1.8887   -2.6505   -1.1427 C   0  0  0  0  0  0  0  0  0  0  0  0
   -2.7230    1.1149    0.2242 O   0  0  0  0  0  0  0  0  0  0  0  0
   -3.1253    2.3801    0.7015 C   0  0  0  0  0  0  0  0  0  0  0  0
    1.7186   -0.5604    1.4796 H   0  0  0  0  0  0  0  0  0  0  0  0
    3.2979   -1.3193    2.1780 H   0  0  0  0  0  0  0  0  0  0  0  0
    4.3502   -1.0969    0.0177 H   0  0  0  0  0  0  0  0  0  0  0  0
    2.6520   -0.9684   -1.7854 H   0  0  0  0  0  0  0  0  0  0  0  0
    3.2003    0.6717   -1.3827 H   0  0  0  0  0  0  0  0  0  0  0  0
    1.7182    2.2054   -0.0719 H   0  0  0  0  0  0  0  0  0  0  0  0
   -0.6526    2.7906    0.4717 H   0  0  0  0  0  0  0  0  0  0  0  0
    0.5182   -1.7639   -1.2056 H   0  0  0  0  0  0  0  0  0  0  0  0
   -1.7637   -2.6483   -2.2520 H   0  0  0  0  0  0  0  0  0  0  0  0
   -2.8400   -3.1931   -0.8835 H   0  0  0  0  0  0  0  0  0  0  0  0
   -1.0255   -3.1586   -0.6585 H   0  0  0  0  0  0  0  0  0  0  0  0
   -2.8182    2.4967    1.7550 H   0  0  0  0  0  0  0  0  0  0  0  0
   -2.6295    3.2213    0.1374 H   0  0  0  0  0  0  0  0  0  0  0  0
   -4.2035    2.5383    0.5870 H   0  0  0  0  0  0  0  0  0  0  0  0
  1  2  2  0
  2  3  1  0
  3  4  1  0
  4  5  2  0
  5  6  1  0
  6  7  2  0
  7  8  1  0
  8  9  2  0
  8 10  1  0
 10 11  1  0
  7 12  1  0
 12 13  1  0
  9  4  1  0
  1 14  1  0
  1 15  1  0
  2 16  1  0
  3 17  1  0
  3 18  1  0
  5 19  1  0
  6 20  1  0
  9 21  1  0
 11 22  1  0
 11 23  1  0
 11 24  1  0
 13 25  1  0
 13 26  1  0
 13 27  1  0
M  END
>  <Ligand ID>  (1) 
LIG0000011

>  <Ligand>  (1) 
eugenol methyl ether

>  <SMILES>  (1) 
C=CCc1ccc(c(c1)OC)OC

>  <CID>  (1) 
7127.0

>  <ChEMBL ID>  (1) 
nan

>  <InChiKey>  (1) 
ZYEMGPIYFIJGTP-UHFFFAOYSA-N

>  <InChi>  (1) 
InChI=1S/C11H14O2/c1-4-5-9-6-7-10(12-2)11(8-9)13-3/h4,6-8H,1,5H2,2-3H3

>  <IUPAC Name>  (1) 
1,2-dimethoxy-4-prop-2-enylbenzene

$$$$
