
     RDKit          3D

 40 39  0  0  0  0  0  0  0  0999 V2000
   -1.0723   -3.1107    0.5010 C   0  0  0  0  0  0  0  0  0  0  0  0
   -0.5113   -1.7574    0.7756 C   0  0  0  0  0  0  0  0  0  0  0  0
    0.7938   -1.6913    1.0061 C   0  0  0  0  0  0  0  0  0  0  0  0
    1.5346   -0.4455    1.2972 C   0  0  0  0  0  0  0  0  0  0  0  0
    2.5393   -0.2288    0.3137 O   0  0  0  0  0  0  0  0  0  0  0  0
    3.3638    0.8661    0.3646 C   0  0  0  0  0  0  0  0  0  0  0  0
    3.2277    1.7037    1.3091 O   0  0  0  0  0  0  0  0  0  0  0  0
    4.3989    1.0650   -0.6713 C   0  0  0  0  0  0  0  0  0  0  0  0
    5.3300   -0.1242   -0.6317 C   0  0  0  0  0  0  0  0  0  0  0  0
    5.1251    2.3625   -0.5381 C   0  0  0  0  0  0  0  0  0  0  0  0
   -1.4069   -0.6143    0.7731 C   0  0  0  0  0  0  0  0  0  0  0  0
   -2.1243   -0.3756   -0.5259 C   0  0  0  0  0  0  0  0  0  0  0  0
   -3.0019    0.8259   -0.3724 C   0  0  0  0  0  0  0  0  0  0  0  0
   -4.3095    0.7900   -0.5276 C   0  0  0  0  0  0  0  0  0  0  0  0
   -5.1165    2.0511   -0.3535 C   0  0  0  0  0  0  0  0  0  0  0  0
   -4.9812   -0.4967   -0.8741 C   0  0  0  0  0  0  0  0  0  0  0  0
   -2.1581   -3.1434    0.4891 H   0  0  0  0  0  0  0  0  0  0  0  0
   -0.6327   -3.4525   -0.4596 H   0  0  0  0  0  0  0  0  0  0  0  0
   -0.7275   -3.8554    1.2723 H   0  0  0  0  0  0  0  0  0  0  0  0
    1.3973   -2.6139    0.9864 H   0  0  0  0  0  0  0  0  0  0  0  0
    0.9490    0.4399    1.4955 H   0  0  0  0  0  0  0  0  0  0  0  0
    2.0969   -0.6626    2.2602 H   0  0  0  0  0  0  0  0  0  0  0  0
    3.8605    0.9956   -1.6582 H   0  0  0  0  0  0  0  0  0  0  0  0
    4.7126   -1.0316   -0.8254 H   0  0  0  0  0  0  0  0  0  0  0  0
    6.0670   -0.0909   -1.4734 H   0  0  0  0  0  0  0  0  0  0  0  0
    5.8010   -0.2489    0.3523 H   0  0  0  0  0  0  0  0  0  0  0  0
    5.1573    2.8587   -1.5308 H   0  0  0  0  0  0  0  0  0  0  0  0
    4.6432    3.0663    0.1706 H   0  0  0  0  0  0  0  0  0  0  0  0
    6.1720    2.1963   -0.1766 H   0  0  0  0  0  0  0  0  0  0  0  0
   -0.9615    0.3393    1.0845 H   0  0  0  0  0  0  0  0  0  0  0  0
   -2.1957   -0.8231    1.5553 H   0  0  0  0  0  0  0  0  0  0  0  0
   -2.7023   -1.2355   -0.8987 H   0  0  0  0  0  0  0  0  0  0  0  0
   -1.3932   -0.1199   -1.3241 H   0  0  0  0  0  0  0  0  0  0  0  0
   -2.4966    1.7540   -0.1202 H   0  0  0  0  0  0  0  0  0  0  0  0
   -4.6882    2.8664   -0.9818 H   0  0  0  0  0  0  0  0  0  0  0  0
   -5.1293    2.3946    0.6890 H   0  0  0  0  0  0  0  0  0  0  0  0
   -6.1358    1.8566   -0.7461 H   0  0  0  0  0  0  0  0  0  0  0  0
   -4.7339   -0.6965   -1.9357 H   0  0  0  0  0  0  0  0  0  0  0  0
   -6.0782   -0.3430   -0.8093 H   0  0  0  0  0  0  0  0  0  0  0  0
   -4.6130   -1.2700   -0.1807 H   0  0  0  0  0  0  0  0  0  0  0  0
  1  2  1  0
  2  3  2  0
  3  4  1  0
  4  5  1  0
  5  6  1  0
  6  7  2  0
  6  8  1  0
  8  9  1  0
  8 10  1  0
  2 11  1  0
 11 12  1  0
 12 13  1  0
 13 14  2  3
 14 15  1  0
 14 16  1  0
  1 17  1  0
  1 18  1  0
  1 19  1  0
  3 20  1  0
  4 21  1  0
  4 22  1  0
  8 23  1  0
  9 24  1  0
  9 25  1  0
  9 26  1  0
 10 27  1  0
 10 28  1  0
 10 29  1  0
 11 30  1  0
 11 31  1  0
 12 32  1  0
 12 33  1  0
 13 34  1  0
 15 35  1  0
 15 36  1  0
 15 37  1  0
 16 38  1  0
 16 39  1  0
 16 40  1  0
M  END
>  <Ligand ID>  (1) 
LIG0000199

>  <Ligand>  (1) 
Neryl isobutyrate

>  <SMILES>  (1) 
C/C(=C/COC(=O)C(C)C)/CCC=C(C)C

>  <CID>  (1) 
5365991.0

>  <ChEMBL ID>  (1) 
nan

>  <InChiKey>  (1) 
OGJYXQFXLSCKTP-LCYFTJDESA-N

>  <InChi>  (1) 
InChI=1S/C14H24O2/c1-11(2)7-6-8-13(5)9-10-16-14(15)12(3)4/h7,9,12H,6,8,10H2,1-5H3/b13-9-

>  <IUPAC Name>  (1) 
[(2Z)-3,7-dimethylocta-2,6-dienyl] 2-methylpropanoate

$$$$
