
     RDKit          3D

 36 38  0  0  0  0  0  0  0  0999 V2000
    0.9007   -2.9633    0.3274 N   0  0  0  0  0  0  0  0  0  0  0  0
    0.3050   -2.0120   -0.0267 C   0  0  0  0  0  0  0  0  0  0  0  0
   -0.4221   -0.8070   -0.4821 C   0  0  0  0  0  0  0  0  0  0  0  0
    0.2981    0.3270   -0.7632 C   0  0  0  0  0  0  0  0  0  0  0  0
    1.6872    0.5734   -0.6948 N   0  0  0  0  0  0  0  0  0  0  0  0
    2.3859    0.1215    0.2933 C   0  0  0  0  0  0  0  0  0  0  0  0
    3.8017    0.4047    0.3099 C   0  0  0  0  0  0  0  0  0  0  0  0
    4.3667    1.1387   -0.7121 C   0  0  0  0  0  0  0  0  0  0  0  0
    5.7134    1.4474   -0.7616 C   0  0  0  0  0  0  0  0  0  0  0  0
    6.3758    2.3934   -2.1013 Cl  0  0  0  0  0  0  0  0  0  0  0  0
    6.5353    1.0034    0.2558 C   0  0  0  0  0  0  0  0  0  0  0  0
    6.0000    0.2603    1.3032 C   0  0  0  0  0  0  0  0  0  0  0  0
    4.6405   -0.0313    1.3198 C   0  0  0  0  0  0  0  0  0  0  0  0
    4.1056   -0.7790    2.3749 O   0  0  0  0  0  0  0  0  0  0  0  0
   -0.9280    1.5405   -1.2738 S   0  0  0  0  0  0  0  0  0  0  0  0
   -2.2992    0.4326   -1.0694 C   0  0  0  0  0  0  0  0  0  0  0  0
   -1.7355   -0.7823   -0.6278 C   0  0  0  0  0  0  0  0  0  0  0  0
   -2.7862   -1.8536   -0.4009 C   0  0  0  0  0  0  0  0  0  0  0  0
   -3.8552   -1.1640    0.4182 C   0  0  0  0  0  0  0  0  0  0  0  0
   -4.5240   -0.0978   -0.2458 N   0  0  0  0  0  0  0  0  0  0  0  0
   -3.7629    0.5755   -1.2680 C   0  0  0  0  0  0  0  0  0  0  0  0
   -4.8875    0.9077    0.7518 C   0  0  0  0  0  0  0  0  0  0  0  0
    1.9433   -0.4630    1.1097 H   0  0  0  0  0  0  0  0  0  0  0  0
    3.7272    1.4984   -1.5273 H   0  0  0  0  0  0  0  0  0  0  0  0
    7.6036    1.2239    0.2571 H   0  0  0  0  0  0  0  0  0  0  0  0
    6.6121   -0.1087    2.1244 H   0  0  0  0  0  0  0  0  0  0  0  0
   -2.3670   -2.6466    0.2203 H   0  0  0  0  0  0  0  0  0  0  0  0
   -3.1376   -2.1973   -1.3731 H   0  0  0  0  0  0  0  0  0  0  0  0
   -3.3804   -0.8431    1.3697 H   0  0  0  0  0  0  0  0  0  0  0  0
   -4.6433   -1.9115    0.7241 H   0  0  0  0  0  0  0  0  0  0  0  0
   -5.4131   -0.4325   -0.7249 H   0  0  0  0  0  0  0  0  0  0  0  0
   -3.9672    0.0959   -2.2559 H   0  0  0  0  0  0  0  0  0  0  0  0
   -3.9910    1.6593   -1.2893 H   0  0  0  0  0  0  0  0  0  0  0  0
   -4.8057    1.9311    0.3672 H   0  0  0  0  0  0  0  0  0  0  0  0
   -4.1950    0.8356    1.6343 H   0  0  0  0  0  0  0  0  0  0  0  0
   -5.9011    0.7230    1.1773 H   0  0  0  0  0  0  0  0  0  0  0  0
  1  2  3  0
  2  3  1  0
  3  4  2  0
  4  5  1  0
  5  6  2  0
  6  7  1  0
  7  8  2  0
  8  9  1  0
  9 10  1  0
  9 11  2  0
 11 12  1  0
 12 13  2  0
 13 14  1  0
  4 15  1  0
 15 16  1  0
 16 17  2  0
 17 18  1  0
 18 19  1  0
 19 20  1  0
 20 21  1  0
 20 22  1  0
 17  3  1  0
 13  7  1  0
 21 16  1  0
  6 23  1  0
  8 24  1  0
 11 25  1  0
 12 26  1  0
 18 27  1  0
 18 28  1  0
 19 29  1  0
 19 30  1  0
 20 31  1  0
 21 32  1  0
 21 33  1  0
 22 34  1  0
 22 35  1  0
 22 36  1  0
M  CHG  2  14  -1  20   1
M  END
>  <Ligand ID>  (1) 
LIG0005556

>  <Ligand>  (1) 
MolPort-000-726-298

>  <SMILES>  (1) 
N#Cc1c(/N=C/c2cc(Cl)ccc2[O-])sc2c1CC[NH+](C2)C

>  <CID>  (1) 
9689490.0

>  <ChEMBL ID>  (1) 
nan

>  <InChiKey>  (1) 
ZERULFNGSDSXQC-UFWORHAWSA-N

>  <InChi>  (1) 
InChI=1S/C16H14ClN3OS/c1-20-5-4-12-13(7-18)16(22-15(12)9-20)19-8-10-6-11(17)2-3-14(10)21/h2-3,6,8,21H,4-5,9H2,1H3/b19-8+

>  <IUPAC Name>  (1) 
4-chloro-2-[(E)-(3-cyano-6-methyl-4,5,6,7-tetrahydrothieno[2,3-c]pyridin-6-ium-2-yl)iminomethyl]phenolate

$$$$
