
     RDKit          3D

 89 94  0  0  0  0  0  0  0  0999 V2000
    4.7763   -0.5589    2.1988 O   0  0  0  0  0  0  0  0  0  0  0  0
    4.2921   -0.9983    1.1270 C   0  0  0  0  0  0  0  0  0  0  0  0
    5.0281   -0.7489   -0.1208 C   0  0  2  0  0  0  0  0  0  0  0  0
    6.1944    0.0484    0.1692 N   0  0  0  0  0  0  0  0  0  0  0  0
    5.9570    1.3814    0.6107 C   0  0  0  0  0  0  0  0  0  0  0  0
    5.0027    2.0728   -0.2909 C   0  0  0  0  0  0  0  0  0  0  0  0
    4.1958    1.3564   -1.1430 C   0  0  0  0  0  0  0  0  0  0  0  0
    4.2372   -0.1145   -1.2099 C   0  0  0  0  0  0  0  0  0  0  0  0
    3.3363    2.0600   -1.9529 C   0  0  0  0  0  0  0  0  0  0  0  0
    3.2571    3.4405   -1.9355 C   0  0  0  0  0  0  0  0  0  0  0  0
    4.0787    4.1297   -1.0698 C   0  0  0  0  0  0  0  0  0  0  0  0
    4.9598    3.4424   -0.2401 C   0  0  0  0  0  0  0  0  0  0  0  0
    3.0504   -1.7186    1.1889 N   0  0  0  0  0  0  0  0  0  0  0  0
    2.4533   -1.8980    2.4721 C   0  0  1  0  0  0  0  0  0  0  0  0
    1.1420   -1.3232    2.7124 C   0  0  0  0  0  0  0  0  0  0  0  0
    0.6534   -1.5265    3.8981 O   0  0  0  0  0  0  0  0  0  0  0  0
    0.3181   -0.5777    1.8617 N   0  0  0  0  0  0  0  0  0  0  0  0
   -0.9700   -0.1153    2.3632 C   0  0  0  0  0  0  0  0  0  0  0  0
   -2.0281   -0.2467    1.2950 C   0  0  0  0  0  0  0  0  0  0  0  0
   -1.7943    0.5873    0.0935 C   0  0  0  0  0  0  0  0  0  0  0  0
   -0.2830    0.8834    0.0303 C   0  0  0  0  0  0  0  0  0  0  0  0
    0.5998   -0.2071    0.4890 C   0  0  0  0  0  0  0  0  0  0  0  0
   -2.0640   -0.1818   -1.1561 C   0  0  0  0  0  0  0  0  0  0  0  0
   -3.3665   -0.7040   -1.3605 N   0  0  0  0  0  0  0  0  0  0  0  0
   -4.5366   -0.1060   -2.0524 C   0  0  1  0  0  0  0  0  0  0  0  0
   -4.6734   -0.7089   -3.4301 C   0  0  0  0  0  0  0  0  0  0  0  0
   -5.6856   -0.5734   -1.1770 C   0  0  0  0  0  0  0  0  0  0  0  0
   -5.2975   -1.8874   -0.8586 O   0  0  0  0  0  0  0  0  0  0  0  0
   -3.9260   -1.9868   -0.9612 C   0  0  0  0  0  0  0  0  0  0  0  0
   -3.2515   -3.0357   -0.7433 O   0  0  0  0  0  0  0  0  0  0  0  0
   -2.4307    1.9279    0.2271 C   0  0  0  0  0  0  0  0  0  0  0  0
   -2.2491    2.8434   -0.9595 C   0  0  0  0  0  0  0  0  0  0  0  0
   -3.3719    3.8566   -1.0639 C   0  0  0  0  0  0  0  0  0  0  0  0
   -3.7875    4.4428    0.2472 C   0  0  0  0  0  0  0  0  0  0  0  0
   -3.9105    3.4366    1.3654 C   0  0  0  0  0  0  0  0  0  0  0  0
   -3.8189    2.0436    0.6934 C   0  0  0  0  0  0  0  0  0  0  0  0
    2.4640   -3.4151    2.7495 C   0  0  0  0  0  0  0  0  0  0  0  0
    1.6864   -4.1305    1.6981 C   0  0  0  0  0  0  0  0  0  0  0  0
    2.3082   -4.5919    0.5487 C   0  0  0  0  0  0  0  0  0  0  0  0
    1.5536   -5.2442   -0.3917 C   0  0  0  0  0  0  0  0  0  0  0  0
    0.2219   -5.4531   -0.2367 C   0  0  0  0  0  0  0  0  0  0  0  0
   -0.4202   -5.0012    0.9034 C   0  0  0  0  0  0  0  0  0  0  0  0
    0.3234   -4.3331    1.8804 C   0  0  0  0  0  0  0  0  0  0  0  0
   -0.7023   -6.2807   -1.4471 Cl  0  0  0  0  0  0  0  0  0  0  0  0
    5.4593   -1.7397   -0.4810 H   0  0  0  0  0  0  0  0  0  0  0  0
    6.8102   -0.4102    0.8919 H   0  0  0  0  0  0  0  0  0  0  0  0
    6.9511    1.9085    0.5586 H   0  0  0  0  0  0  0  0  0  0  0  0
    5.6479    1.4646    1.6681 H   0  0  0  0  0  0  0  0  0  0  0  0
    3.2187   -0.5793   -1.3137 H   0  0  0  0  0  0  0  0  0  0  0  0
    4.7756   -0.3436   -2.1814 H   0  0  0  0  0  0  0  0  0  0  0  0
    2.6600    1.5687   -2.6590 H   0  0  0  0  0  0  0  0  0  0  0  0
    2.5734    3.9971   -2.5776 H   0  0  0  0  0  0  0  0  0  0  0  0
    4.0785    5.2120   -0.9924 H   0  0  0  0  0  0  0  0  0  0  0  0
    5.6038    3.9772    0.4359 H   0  0  0  0  0  0  0  0  0  0  0  0
    2.6226   -2.0906    0.3150 H   0  0  0  0  0  0  0  0  0  0  0  0
    3.1336   -1.4639    3.2666 H   0  0  0  0  0  0  0  0  0  0  0  0
   -0.8700    0.9160    2.7283 H   0  0  0  0  0  0  0  0  0  0  0  0
   -1.2385   -0.7560    3.2152 H   0  0  0  0  0  0  0  0  0  0  0  0
   -1.9988   -1.3264    0.9440 H   0  0  0  0  0  0  0  0  0  0  0  0
   -3.0101   -0.1702    1.7876 H   0  0  0  0  0  0  0  0  0  0  0  0
   -0.0310    1.1263   -1.0437 H   0  0  0  0  0  0  0  0  0  0  0  0
   -0.0569    1.8336    0.5782 H   0  0  0  0  0  0  0  0  0  0  0  0
    1.6927    0.0759    0.3790 H   0  0  0  0  0  0  0  0  0  0  0  0
    0.4586   -1.1007   -0.1506 H   0  0  0  0  0  0  0  0  0  0  0  0
   -1.7035    0.3715   -2.0726 H   0  0  0  0  0  0  0  0  0  0  0  0
   -1.3087   -1.0384   -1.1146 H   0  0  0  0  0  0  0  0  0  0  0  0
   -4.4606    0.9682   -2.1297 H   0  0  0  0  0  0  0  0  0  0  0  0
   -4.2262   -0.0985   -4.2111 H   0  0  0  0  0  0  0  0  0  0  0  0
   -4.3141   -1.7618   -3.4254 H   0  0  0  0  0  0  0  0  0  0  0  0
   -5.7652   -0.7753   -3.6404 H   0  0  0  0  0  0  0  0  0  0  0  0
   -6.5973   -0.5849   -1.7872 H   0  0  0  0  0  0  0  0  0  0  0  0
   -5.7826    0.0682   -0.2779 H   0  0  0  0  0  0  0  0  0  0  0  0
   -1.8023    2.4334    1.0377 H   0  0  0  0  0  0  0  0  0  0  0  0
   -2.2291    2.3250   -1.9315 H   0  0  0  0  0  0  0  0  0  0  0  0
   -1.3112    3.4440   -0.9091 H   0  0  0  0  0  0  0  0  0  0  0  0
   -4.2380    3.4289   -1.6369 H   0  0  0  0  0  0  0  0  0  0  0  0
   -3.0031    4.6929   -1.7030 H   0  0  0  0  0  0  0  0  0  0  0  0
   -4.8213    4.8621    0.0872 H   0  0  0  0  0  0  0  0  0  0  0  0
   -3.0871    5.2433    0.5702 H   0  0  0  0  0  0  0  0  0  0  0  0
   -4.8746    3.5269    1.9177 H   0  0  0  0  0  0  0  0  0  0  0  0
   -3.0402    3.5218    2.0453 H   0  0  0  0  0  0  0  0  0  0  0  0
   -4.5965    2.1440   -0.1105 H   0  0  0  0  0  0  0  0  0  0  0  0
   -4.1793    1.3656    1.4662 H   0  0  0  0  0  0  0  0  0  0  0  0
    2.0649   -3.5869    3.7727 H   0  0  0  0  0  0  0  0  0  0  0  0
    3.5073   -3.7905    2.7455 H   0  0  0  0  0  0  0  0  0  0  0  0
    3.3712   -4.4169    0.4469 H   0  0  0  0  0  0  0  0  0  0  0  0
    2.0235   -5.6191   -1.3119 H   0  0  0  0  0  0  0  0  0  0  0  0
   -1.4738   -5.1409    1.0758 H   0  0  0  0  0  0  0  0  0  0  0  0
   -0.1547   -3.9675    2.7939 H   0  0  0  0  0  0  0  0  0  0  0  0
  1  2  2  0
  2  3  1  0
  3  4  1  0
  4  5  1  0
  5  6  1  0
  6  7  2  0
  7  8  1  0
  7  9  1  0
  9 10  2  0
 10 11  1  0
 11 12  2  0
  2 13  1  0
 13 14  1  0
 14 15  1  0
 15 16  2  0
 15 17  1  0
 17 18  1  0
 18 19  1  0
 19 20  1  0
 20 21  1  0
 21 22  1  0
 20 23  1  0
 23 24  1  0
 24 25  1  0
 25 26  1  0
 25 27  1  0
 27 28  1  0
 28 29  1  0
 29 30  2  0
 20 31  1  0
 31 32  1  0
 32 33  1  0
 33 34  1  0
 34 35  1  0
 35 36  1  0
 14 37  1  0
 37 38  1  0
 38 39  2  0
 39 40  1  0
 40 41  2  0
 41 42  1  0
 42 43  2  0
 41 44  1  0
  8  3  1  0
 22 17  1  0
 29 24  1  0
 36 31  1  0
 43 38  1  0
 12  6  1  0
  3 45  1  6
  4 46  1  0
  5 47  1  0
  5 48  1  0
  8 49  1  0
  8 50  1  0
  9 51  1  0
 10 52  1  0
 11 53  1  0
 12 54  1  0
 13 55  1  0
 14 56  1  1
 18 57  1  0
 18 58  1  0
 19 59  1  0
 19 60  1  0
 21 61  1  0
 21 62  1  0
 22 63  1  0
 22 64  1  0
 23 65  1  0
 23 66  1  0
 25 67  1  6
 26 68  1  0
 26 69  1  0
 26 70  1  0
 27 71  1  0
 27 72  1  0
 31 73  1  0
 32 74  1  0
 32 75  1  0
 33 76  1  0
 33 77  1  0
 34 78  1  0
 34 79  1  0
 35 80  1  0
 35 81  1  0
 36 82  1  0
 36 83  1  0
 37 84  1  0
 37 85  1  0
 39 86  1  0
 40 87  1  0
 42 88  1  0
 43 89  1  0
M  END
>  <Ligand ID>  (1) 
LIG0001174

>  <Ligand>  (1) 
CHEMBL204078

>  <SMILES>  (1) 
O=C([C@@H]1NCc2c(C1)cccc2)N[C@@H](C(=O)N1CCC(CC1)(CN1[C@@H](C)COC1=O)C1CCCCC1)Cc1ccc(cc1)Cl

>  <CID>  (1) 
44408275.0

>  <ChEMBL ID>  (1) 
nan

>  <InChiKey>  (1) 
GUUMVPUVSBGKBI-RWIFEVTBSA-N

>  <InChi>  (1) 
InChI=1S/C35H45ClN4O4/c1-24-22-44-34(43)40(24)23-35(28-9-3-2-4-10-28)15-17-39(18-16-35)33(42)31(19-25-11-13-29(36)14-12-25)38-32(41)30-20-26-7-5-6-8-27(26)21-37-30/h5-8,11-14,24,28,30-31,37H,2-4,9-10,15-23H2,1H3,(H,38,41)/t24-,30+,31+/m0/s1

>  <IUPAC Name>  (1) 
(3R)-N-[(2R)-3-(4-chlorophenyl)-1-[4-cyclohexyl-4-[[(4S)-4-methyl-2-oxo-1,3-oxazolidin-3-yl]methyl]piperidin-1-yl]-1-oxopropan-2-yl]-1,2,3,4-tetrahydroisoquinoline-3-carboxamide

$$$$
