
     RDKit          3D

 50 52  0  0  0  0  0  0  0  0999 V2000
   -9.4384   -0.8617    0.5531 C   0  0  0  0  0  0  0  0  0  0  0  0
   -8.7460   -0.3166   -0.5584 O   0  0  0  0  0  0  0  0  0  0  0  0
   -7.3544   -0.2616   -0.4854 C   0  0  0  0  0  0  0  0  0  0  0  0
   -6.6532    0.2718   -1.5695 C   0  0  0  0  0  0  0  0  0  0  0  0
   -5.2686    0.3328   -1.5106 C   0  0  0  0  0  0  0  0  0  0  0  0
   -4.5523   -0.1098   -0.4293 C   0  0  0  0  0  0  0  0  0  0  0  0
   -5.2595   -0.6380    0.6425 C   0  0  0  0  0  0  0  0  0  0  0  0
   -6.6535   -0.7155    0.6190 C   0  0  0  0  0  0  0  0  0  0  0  0
   -2.7629   -0.0333   -0.3481 S   0  0  0  0  0  0  0  0  0  0  0  0
   -2.2730    1.5392    0.3768 C   0  0  0  0  0  0  0  0  0  0  0  0
   -0.8411    1.7481    0.5088 C   0  0  0  0  0  0  0  0  0  0  0  0
   -0.4886    2.8764    1.0293 O   0  0  0  0  0  0  0  0  0  0  0  0
    0.2430    0.8725    0.1402 C   0  0  0  0  0  0  0  0  0  0  0  0
    0.2698   -0.3773   -0.4270 C   0  0  0  0  0  0  0  0  0  0  0  0
    1.5906   -0.8109   -0.5894 C   0  0  0  0  0  0  0  0  0  0  0  0
    2.3585    0.1808   -0.1185 N   0  0  0  0  0  0  0  0  0  0  0  0
    1.5803    1.2064    0.3271 C   0  0  0  0  0  0  0  0  0  0  0  0
    2.1735    2.4342    0.9012 C   0  0  0  0  0  0  0  0  0  0  0  0
    3.7801    0.1180   -0.1098 C   0  0  0  0  0  0  0  0  0  0  0  0
    4.5660    1.0911   -0.6632 C   0  0  0  0  0  0  0  0  0  0  0  0
    5.9446    1.0102   -0.6436 C   0  0  0  0  0  0  0  0  0  0  0  0
    6.5430   -0.0907   -0.0447 C   0  0  0  0  0  0  0  0  0  0  0  0
    5.7309   -1.0557    0.5047 C   0  0  0  0  0  0  0  0  0  0  0  0
    4.3542   -0.9843    0.4903 C   0  0  0  0  0  0  0  0  0  0  0  0
    7.9197   -0.1305   -0.0479 O   0  0  0  0  0  0  0  0  0  0  0  0
    8.7261   -1.1422    0.4978 C   0  0  0  0  0  0  0  0  0  0  0  0
    9.4589   -1.7268   -0.5433 F   0  0  0  0  0  0  0  0  0  0  0  0
    9.6121   -0.6299    1.4320 F   0  0  0  0  0  0  0  0  0  0  0  0
    2.0186   -2.1204   -1.1733 C   0  0  0  0  0  0  0  0  0  0  0  0
  -10.5243   -0.7655    0.4641 H   0  0  0  0  0  0  0  0  0  0  0  0
   -9.1114   -1.9278    0.6356 H   0  0  0  0  0  0  0  0  0  0  0  0
   -9.0995   -0.3202    1.4590 H   0  0  0  0  0  0  0  0  0  0  0  0
   -7.1986    0.6320   -2.4443 H   0  0  0  0  0  0  0  0  0  0  0  0
   -4.7300    0.7530   -2.3667 H   0  0  0  0  0  0  0  0  0  0  0  0
   -4.7393   -1.0076    1.5347 H   0  0  0  0  0  0  0  0  0  0  0  0
   -7.1901   -1.1352    1.4742 H   0  0  0  0  0  0  0  0  0  0  0  0
   -2.6945    2.3678   -0.2552 H   0  0  0  0  0  0  0  0  0  0  0  0
   -2.7509    1.6304    1.3879 H   0  0  0  0  0  0  0  0  0  0  0  0
   -0.5492   -0.9774   -0.7213 H   0  0  0  0  0  0  0  0  0  0  0  0
    2.0323    3.3138    0.2361 H   0  0  0  0  0  0  0  0  0  0  0  0
    3.2499    2.3446    1.0779 H   0  0  0  0  0  0  0  0  0  0  0  0
    1.6736    2.6345    1.8725 H   0  0  0  0  0  0  0  0  0  0  0  0
    4.1257    1.9570   -1.1349 H   0  0  0  0  0  0  0  0  0  0  0  0
    6.5503    1.7911   -1.0874 H   0  0  0  0  0  0  0  0  0  0  0  0
    6.1672   -1.9220    0.9766 H   0  0  0  0  0  0  0  0  0  0  0  0
    3.7471   -1.7629    0.9328 H   0  0  0  0  0  0  0  0  0  0  0  0
    8.1866   -1.9738    0.9684 H   0  0  0  0  0  0  0  0  0  0  0  0
    3.0312   -2.0281   -1.6225 H   0  0  0  0  0  0  0  0  0  0  0  0
    1.2571   -2.3990   -1.9341 H   0  0  0  0  0  0  0  0  0  0  0  0
    1.9883   -2.8812   -0.3635 H   0  0  0  0  0  0  0  0  0  0  0  0
  1  2  1  0
  2  3  1  0
  3  4  2  0
  4  5  1  0
  5  6  2  0
  6  7  1  0
  7  8  2  0
  6  9  1  0
  9 10  1  0
 10 11  1  0
 11 12  2  0
 11 13  1  0
 13 14  1  0
 14 15  2  0
 15 16  1  0
 16 17  1  0
 17 18  1  0
 16 19  1  0
 19 20  2  0
 20 21  1  0
 21 22  2  0
 22 23  1  0
 23 24  2  0
 22 25  1  0
 25 26  1  0
 26 27  1  0
 26 28  1  0
 15 29  1  0
  8  3  1  0
 17 13  2  0
 24 19  1  0
  1 30  1  0
  1 31  1  0
  1 32  1  0
  4 33  1  0
  5 34  1  0
  7 35  1  0
  8 36  1  0
 10 37  1  0
 10 38  1  0
 14 39  1  0
 18 40  1  0
 18 41  1  0
 18 42  1  0
 20 43  1  0
 21 44  1  0
 23 45  1  0
 24 46  1  0
 26 47  1  0
 29 48  1  0
 29 49  1  0
 29 50  1  0
M  END
>  <Ligand ID>  (1) 
LIG0003726

>  <Ligand>  (1) 
CHEMBL3561539

>  <SMILES>  (1) 
COc1ccc(cc1)SCC(=O)c1cc(n(c1C)c1ccc(cc1)OC(F)F)C

>  <CID>  (1) 
73058477.0

>  <ChEMBL ID>  (1) 
nan

>  <InChiKey>  (1) 
LKAQDCQASCWLEL-UHFFFAOYSA-N

>  <InChi>  (1) 
InChI=1S/C22H21F2NO3S/c1-14-12-20(21(26)13-29-19-10-8-17(27-3)9-11-19)15(2)25(14)16-4-6-18(7-5-16)28-22(23)24/h4-12,22H,13H2,1-3H3

>  <IUPAC Name>  (1) 
1-[1-[4-(difluoromethoxy)phenyl]-2,5-dimethylpyrrol-3-yl]-2-(4-methoxyphenyl)sulfanylethanone

$$$$
