
     RDKit          3D

 24 25  0  0  0  0  0  0  0  0999 V2000
   -1.9117    1.4754    1.7635 O   0  0  0  0  0  0  0  0  0  0  0  0
   -2.2609    0.3898    1.0120 C   0  0  0  0  0  0  0  0  0  0  0  0
   -3.1469   -0.4260    1.4391 O   0  0  0  0  0  0  0  0  0  0  0  0
   -1.6779    0.0560   -0.3171 C   0  0  1  0  0  0  0  0  0  0  0  0
   -0.2991   -0.0585   -0.2314 C   0  0  0  0  0  0  0  0  0  0  0  0
    0.6304    1.0519    0.2105 C   0  0  0  0  0  0  0  0  0  0  0  0
    1.5280   -0.1202   -0.0892 C   0  0  0  0  0  0  0  0  0  0  0  0
    0.7017   -0.3137   -1.3045 C   0  0  0  0  0  0  0  0  0  0  0  0
    0.5185   -0.9376    0.6257 C   0  0  0  0  0  0  0  0  0  0  0  0
    2.8860   -0.1773    0.0700 C   0  0  0  0  0  0  0  0  0  0  0  0
    3.4746   -1.0214    0.8377 O   0  0  0  0  0  0  0  0  0  0  0  0
    3.7781    0.6874   -0.5949 O   0  0  0  0  0  0  0  0  0  0  0  0
   -2.3216   -1.1637   -0.7618 N   0  0  0  0  0  0  0  0  0  0  0  0
   -2.6426    1.9768    2.2660 H   0  0  0  0  0  0  0  0  0  0  0  0
   -2.0090    0.8708   -0.9942 H   0  0  0  0  0  0  0  0  0  0  0  0
    0.5412    1.2889    1.2801 H   0  0  0  0  0  0  0  0  0  0  0  0
    0.6819    1.8824   -0.5071 H   0  0  0  0  0  0  0  0  0  0  0  0
    0.6773   -1.3328   -1.7361 H   0  0  0  0  0  0  0  0  0  0  0  0
    0.8295    0.5173   -2.0288 H   0  0  0  0  0  0  0  0  0  0  0  0
    0.4791   -0.6851    1.7019 H   0  0  0  0  0  0  0  0  0  0  0  0
    0.5723   -2.0069    0.3546 H   0  0  0  0  0  0  0  0  0  0  0  0
    4.7516    0.7688   -0.2912 H   0  0  0  0  0  0  0  0  0  0  0  0
   -2.7909   -1.6788    0.0021 H   0  0  0  0  0  0  0  0  0  0  0  0
   -2.9898   -1.0434   -1.5313 H   0  0  0  0  0  0  0  0  0  0  0  0
  1  2  1  0
  2  3  2  0
  2  4  1  0
  4  5  1  0
  5  6  1  0
  6  7  1  0
  7  8  1  0
  7  9  1  0
  7 10  1  0
 10 11  2  0
 10 12  1  0
  4 13  1  0
  8  5  1  0
  9  5  1  0
  1 14  1  0
  4 15  1  6
  6 16  1  0
  6 17  1  0
  8 18  1  0
  8 19  1  0
  9 20  1  0
  9 21  1  0
 12 22  1  0
 13 23  1  0
 13 24  1  0
M  END
>  <Ligand ID>  (1) 
LIG0001311

>  <Ligand>  (1) 
3-[(R)-amino(carboxy)methyl]bicyclo[1.1.1]pentane-1-carboxylic acid

>  <SMILES>  (1) 
OC(=O)[C@@H](C12CC(C1)(C2)C(=O)O)N

>  <CID>  (1) 
10241509.0

>  <ChEMBL ID>  (1) 
nan

>  <InChiKey>  (1) 
KNSHLWJBSDBBRH-VPRNBBMASA-N

>  <InChi>  (1) 
InChI=1S/C8H11NO4/c9-4(5(10)11)7-1-8(2-7,3-7)6(12)13/h4H,1-3,9H2,(H,10,11)(H,12,13)/t4-,7?,8?/m0/s1

>  <IUPAC Name>  (1) 
3-[(R)-amino(carboxy)methyl]bicyclo[1.1.1]pentane-1-carboxylic acid

$$$$
