
     RDKit          3D

 76 76  0  0  0  0  0  0  0  0999 V2000
   -9.0328    0.2780   -2.0531 C   0  0  0  0  0  0  0  0  0  0  0  0
   -9.8895    0.5318   -0.8561 C   0  0  0  0  0  0  0  0  0  0  0  0
   -9.6326    1.8394   -0.1762 C   0  0  0  0  0  0  0  0  0  0  0  0
   -8.1989    1.9862    0.3248 C   0  0  0  0  0  0  0  0  0  0  0  0
   -7.8167    0.9360    1.3203 C   0  0  0  0  0  0  0  0  0  0  0  0
   -6.4267    1.0513    1.8438 C   0  0  0  0  0  0  0  0  0  0  0  0
   -5.3290    0.9603    0.8487 C   0  0  0  0  0  0  0  0  0  0  0  0
   -5.2703   -0.3451    0.0816 C   0  0  0  0  0  0  0  0  0  0  0  0
   -4.0823   -0.2886   -0.8656 C   0  0  0  0  0  0  0  0  0  0  0  0
   -2.8721   -0.1008   -0.2325 O   0  0  0  0  0  0  0  0  0  0  0  0
   -2.2427   -0.9247    0.6243 C   0  0  0  0  0  0  0  0  0  0  0  0
   -2.6023   -2.1641    1.0661 C   0  0  0  0  0  0  0  0  0  0  0  0
   -1.8649   -2.9266    1.9587 C   0  0  0  0  0  0  0  0  0  0  0  0
   -0.6821   -2.4377    2.4571 C   0  0  0  0  0  0  0  0  0  0  0  0
   -0.2848   -1.1938    2.0352 C   0  0  0  0  0  0  0  0  0  0  0  0
   -1.0151   -0.4379    1.1514 C   0  0  0  0  0  0  0  0  0  0  0  0
   -0.5016    0.8717    0.7555 C   0  0  0  0  0  0  0  0  0  0  0  0
    0.1822    0.9074   -0.5938 C   0  0  0  0  0  0  0  0  0  0  0  0
    1.3754   -0.0279   -0.5827 C   0  0  0  0  0  0  0  0  0  0  0  0
    1.3640   -1.1215   -1.1773 O   0  0  0  0  0  0  0  0  0  0  0  0
    2.4628    0.4068    0.1251 O   0  0  0  0  0  0  0  0  0  0  0  0
    3.6639   -0.3060    0.2610 C   0  0  0  0  0  0  0  0  0  0  0  0
    4.3764   -0.5234   -1.0421 C   0  0  2  0  0  0  0  0  0  0  0  0
    5.6424   -1.3390   -0.8581 C   0  0  0  0  0  0  0  0  0  0  0  0
    6.5291   -0.7313    0.0291 O   0  0  0  0  0  0  0  0  0  0  0  0
    7.8903   -1.6701    0.3557 P   0  0  0  0  0  0  0  0  0  0  0  0
    7.9823   -1.8038    1.8611 O   0  0  0  0  0  0  0  0  0  0  0  0
    9.3069   -1.0357   -0.2999 O   0  0  0  0  0  0  0  0  0  0  0  0
    9.4122    0.3277   -0.1221 C   0  0  0  0  0  0  0  0  0  0  0  0
   10.7302    0.9164   -0.5454 C   0  0  1  0  0  0  0  0  0  0  0  0
   11.0260    0.6653   -1.9751 C   0  0  0  0  0  0  0  0  0  0  0  0
   11.1828    1.6102   -2.8203 O   0  0  0  0  0  0  0  0  0  0  0  0
   11.1311   -0.6767   -2.3850 O   0  0  0  0  0  0  0  0  0  0  0  0
   10.6459    2.3502   -0.2808 N   0  0  0  0  0  0  0  0  0  0  0  0
    7.6531   -3.2117   -0.2772 O   0  0  0  0  0  0  0  0  0  0  0  0
    4.6628    0.7437   -1.5539 O   0  0  0  0  0  0  0  0  0  0  0  0
   -8.2712   -0.4986   -1.8085 H   0  0  0  0  0  0  0  0  0  0  0  0
   -8.5346    1.2077   -2.4030 H   0  0  0  0  0  0  0  0  0  0  0  0
   -9.6722   -0.1164   -2.8742 H   0  0  0  0  0  0  0  0  0  0  0  0
  -10.9682    0.5095   -1.1510 H   0  0  0  0  0  0  0  0  0  0  0  0
   -9.7421   -0.3001   -0.1081 H   0  0  0  0  0  0  0  0  0  0  0  0
   -9.9245    2.6962   -0.7996 H   0  0  0  0  0  0  0  0  0  0  0  0
  -10.3013    1.8688    0.7334 H   0  0  0  0  0  0  0  0  0  0  0  0
   -7.5353    1.9851   -0.5770 H   0  0  0  0  0  0  0  0  0  0  0  0
   -8.1502    2.9934    0.7930 H   0  0  0  0  0  0  0  0  0  0  0  0
   -8.0552   -0.0792    0.9746 H   0  0  0  0  0  0  0  0  0  0  0  0
   -8.4991    1.0973    2.2088 H   0  0  0  0  0  0  0  0  0  0  0  0
   -6.3285    2.0306    2.3858 H   0  0  0  0  0  0  0  0  0  0  0  0
   -6.2725    0.2634    2.6151 H   0  0  0  0  0  0  0  0  0  0  0  0
   -4.3685    1.1008    1.3815 H   0  0  0  0  0  0  0  0  0  0  0  0
   -5.3804    1.8107    0.1067 H   0  0  0  0  0  0  0  0  0  0  0  0
   -6.1753   -0.3783   -0.5841 H   0  0  0  0  0  0  0  0  0  0  0  0
   -5.2384   -1.2168    0.6957 H   0  0  0  0  0  0  0  0  0  0  0  0
   -4.2786    0.4788   -1.6673 H   0  0  0  0  0  0  0  0  0  0  0  0
   -4.1294   -1.2660   -1.4394 H   0  0  0  0  0  0  0  0  0  0  0  0
   -3.5002   -2.6135    0.6966 H   0  0  0  0  0  0  0  0  0  0  0  0
   -2.2320   -3.9124    2.2581 H   0  0  0  0  0  0  0  0  0  0  0  0
   -0.1026   -3.0234    3.1509 H   0  0  0  0  0  0  0  0  0  0  0  0
    0.6541   -0.8237    2.4399 H   0  0  0  0  0  0  0  0  0  0  0  0
    0.2437    1.2232    1.4888 H   0  0  0  0  0  0  0  0  0  0  0  0
   -1.2893    1.6721    0.7343 H   0  0  0  0  0  0  0  0  0  0  0  0
   -0.4727    0.6275   -1.4348 H   0  0  0  0  0  0  0  0  0  0  0  0
    0.5995    1.9209   -0.7320 H   0  0  0  0  0  0  0  0  0  0  0  0
    4.2891    0.2947    0.9795 H   0  0  0  0  0  0  0  0  0  0  0  0
    3.5182   -1.2906    0.7623 H   0  0  0  0  0  0  0  0  0  0  0  0
    3.7547   -1.0459   -1.7911 H   0  0  0  0  0  0  0  0  0  0  0  0
    5.3476   -2.3170   -0.4275 H   0  0  0  0  0  0  0  0  0  0  0  0
    6.1388   -1.5422   -1.8221 H   0  0  0  0  0  0  0  0  0  0  0  0
    8.6330    0.7795   -0.7916 H   0  0  0  0  0  0  0  0  0  0  0  0
    9.1165    0.6405    0.8980 H   0  0  0  0  0  0  0  0  0  0  0  0
   11.5804    0.5347    0.0420 H   0  0  0  0  0  0  0  0  0  0  0  0
   11.6738   -0.9015   -3.2331 H   0  0  0  0  0  0  0  0  0  0  0  0
   10.7249    2.6057    0.7056 H   0  0  0  0  0  0  0  0  0  0  0  0
    9.9563    2.8453   -0.8548 H   0  0  0  0  0  0  0  0  0  0  0  0
    8.1029   -3.9152    0.2918 H   0  0  0  0  0  0  0  0  0  0  0  0
    5.6135    0.9383   -1.3482 H   0  0  0  0  0  0  0  0  0  0  0  0
  1  2  1  0
  2  3  1  0
  3  4  1  0
  4  5  1  0
  5  6  1  0
  6  7  1  0
  7  8  1  0
  8  9  1  0
  9 10  1  0
 10 11  1  0
 11 12  2  0
 12 13  1  0
 13 14  2  0
 14 15  1  0
 15 16  2  0
 16 17  1  0
 17 18  1  0
 18 19  1  0
 19 20  2  0
 19 21  1  0
 21 22  1  0
 22 23  1  0
 23 24  1  0
 24 25  1  0
 25 26  1  0
 26 27  2  0
 26 28  1  0
 28 29  1  0
 29 30  1  0
 30 31  1  0
 31 32  2  0
 31 33  1  0
 30 34  1  0
 26 35  1  0
 23 36  1  0
 16 11  1  0
  1 37  1  0
  1 38  1  0
  1 39  1  0
  2 40  1  0
  2 41  1  0
  3 42  1  0
  3 43  1  0
  4 44  1  0
  4 45  1  0
  5 46  1  0
  5 47  1  0
  6 48  1  0
  6 49  1  0
  7 50  1  0
  7 51  1  0
  8 52  1  0
  8 53  1  0
  9 54  1  0
  9 55  1  0
 12 56  1  0
 13 57  1  0
 14 58  1  0
 15 59  1  0
 17 60  1  0
 17 61  1  0
 18 62  1  0
 18 63  1  0
 22 64  1  0
 22 65  1  0
 23 66  1  6
 24 67  1  0
 24 68  1  0
 29 69  1  0
 29 70  1  0
 30 71  1  1
 33 72  1  0
 34 73  1  0
 34 74  1  0
 35 75  1  0
 36 76  1  0
M  END
>  <Ligand ID>  (1) 
LIG0004288

>  <Ligand>  (1) 
CHEMBL3577170

>  <SMILES>  (1) 
CCCCCCCCCOc1ccccc1CCC(=O)OC[C@H](COP(=O)(OC[C@@H](C(=O)O)N)O)O

>  <CID>  (1) 
122177516.0

>  <ChEMBL ID>  (1) 
nan

>  <InChiKey>  (1) 
SARTXBBEXNBKJM-RTWAWAEBSA-N

>  <InChi>  (1) 
InChI=1S/C24H40NO10P/c1-2-3-4-5-6-7-10-15-32-22-12-9-8-11-19(22)13-14-23(27)33-16-20(26)17-34-36(30,31)35-18-21(25)24(28)29/h8-9,11-12,20-21,26H,2-7,10,13-18,25H2,1H3,(H,28,29)(H,30,31)/t20-,21+/m1/s1

>  <IUPAC Name>  (1) 
(2S)-2-amino-3-[hydroxy-[(2R)-2-hydroxy-3-[3-(2-nonoxyphenyl)propanoyloxy]propoxy]phosphoryl]oxypropanoic acid

$$$$
