
     RDKit          3D

 72 71  0  0  0  0  0  0  0  0999 V2000
   -9.2680   -0.2441   -1.6651 C   0  0  0  0  0  0  0  0  0  0  0  0
   -9.5387    0.4685   -0.3562 C   0  0  0  0  0  0  0  0  0  0  0  0
   -8.8134    1.7902   -0.2807 C   0  0  0  0  0  0  0  0  0  0  0  0
   -7.3077    1.6090   -0.3922 C   0  0  0  0  0  0  0  0  0  0  0  0
   -6.7680    0.7505    0.6992 C   0  0  0  0  0  0  0  0  0  0  0  0
   -5.2532    0.5468    0.6386 C   0  0  0  0  0  0  0  0  0  0  0  0
   -4.8780   -0.1025   -0.6350 C   0  0  0  0  0  0  0  0  0  0  0  0
   -3.4665   -0.3694   -0.9345 C   0  0  0  0  0  0  0  0  0  0  0  0
   -2.6371   -1.2477   -0.1112 C   0  0  0  0  0  0  0  0  0  0  0  0
   -2.3681   -0.9469    1.3064 C   0  0  0  0  0  0  0  0  0  0  0  0
   -1.7197    0.3679    1.5669 C   0  0  0  0  0  0  0  0  0  0  0  0
   -0.3900    0.5941    0.9151 C   0  0  0  0  0  0  0  0  0  0  0  0
    0.5976   -0.4362    1.3957 C   0  0  0  0  0  0  0  0  0  0  0  0
    1.9709   -0.1906    0.7441 C   0  0  0  0  0  0  0  0  0  0  0  0
    2.8848   -1.2486    1.2711 C   0  0  0  0  0  0  0  0  0  0  0  0
    4.2995   -1.1521    0.7231 C   0  0  0  0  0  0  0  0  0  0  0  0
    4.9467    0.1490    1.0547 C   0  0  0  0  0  0  0  0  0  0  0  0
    6.2529    0.2460    0.5629 O   0  0  0  0  0  0  0  0  0  0  0  0
    6.3660    0.1466   -0.7965 C   0  0  0  0  0  0  0  0  0  0  0  0
    7.1410   -1.1678   -1.1354 C   0  0  0  0  0  0  0  0  0  0  0  0
    8.4033   -1.1016   -0.5501 O   0  0  0  0  0  0  0  0  0  0  0  0
    9.3223   -2.4782   -0.8586 P   0  0  0  0  0  0  0  0  0  0  0  0
    9.1361   -3.5649    0.4906 S   0  0  0  0  0  0  0  0  0  0  0  0
   10.9448   -2.1296   -1.1599 O   0  0  0  0  0  0  0  0  0  0  0  0
    8.7147   -3.2650   -2.2282 O   0  0  0  0  0  0  0  0  0  0  0  0
    7.1744    1.2364   -1.4097 C   0  0  0  0  0  0  0  0  0  0  0  0
    6.7695    2.5223   -1.2560 O   0  0  0  0  0  0  0  0  0  0  0  0
    6.7387    3.0867   -0.0309 C   0  0  0  0  0  0  0  0  0  0  0  0
  -10.1317   -0.8686   -1.9804 H   0  0  0  0  0  0  0  0  0  0  0  0
   -9.1009    0.5264   -2.4486 H   0  0  0  0  0  0  0  0  0  0  0  0
   -8.3984   -0.9209   -1.5779 H   0  0  0  0  0  0  0  0  0  0  0  0
   -9.3455   -0.1648    0.5326 H   0  0  0  0  0  0  0  0  0  0  0  0
  -10.6226    0.7151   -0.3407 H   0  0  0  0  0  0  0  0  0  0  0  0
   -9.1266    2.4132   -1.1286 H   0  0  0  0  0  0  0  0  0  0  0  0
   -9.1035    2.2628    0.6793 H   0  0  0  0  0  0  0  0  0  0  0  0
   -7.1501    1.1855   -1.4245 H   0  0  0  0  0  0  0  0  0  0  0  0
   -6.8616    2.6212   -0.4034 H   0  0  0  0  0  0  0  0  0  0  0  0
   -7.2449   -0.2250    0.7738 H   0  0  0  0  0  0  0  0  0  0  0  0
   -6.9513    1.2842    1.6553 H   0  0  0  0  0  0  0  0  0  0  0  0
   -4.7157    1.4935    0.7300 H   0  0  0  0  0  0  0  0  0  0  0  0
   -5.0708   -0.1574    1.5013 H   0  0  0  0  0  0  0  0  0  0  0  0
   -5.2390    0.6080   -1.4562 H   0  0  0  0  0  0  0  0  0  0  0  0
   -5.5305   -1.0187   -0.8483 H   0  0  0  0  0  0  0  0  0  0  0  0
   -3.4569   -0.8286   -1.9877 H   0  0  0  0  0  0  0  0  0  0  0  0
   -2.9851    0.6327   -1.1419 H   0  0  0  0  0  0  0  0  0  0  0  0
   -1.6192   -1.4361   -0.5961 H   0  0  0  0  0  0  0  0  0  0  0  0
   -3.0762   -2.2963   -0.1300 H   0  0  0  0  0  0  0  0  0  0  0  0
   -1.5739   -1.7216    1.6239 H   0  0  0  0  0  0  0  0  0  0  0  0
   -3.1570   -1.1347    2.0391 H   0  0  0  0  0  0  0  0  0  0  0  0
   -1.5067    0.3818    2.6805 H   0  0  0  0  0  0  0  0  0  0  0  0
   -2.4108    1.2329    1.4386 H   0  0  0  0  0  0  0  0  0  0  0  0
   -0.4541    0.6106   -0.1958 H   0  0  0  0  0  0  0  0  0  0  0  0
   -0.0201    1.5832    1.3048 H   0  0  0  0  0  0  0  0  0  0  0  0
    0.3106   -1.4844    1.1679 H   0  0  0  0  0  0  0  0  0  0  0  0
    0.7520   -0.3180    2.4866 H   0  0  0  0  0  0  0  0  0  0  0  0
    1.8265   -0.2672   -0.3323 H   0  0  0  0  0  0  0  0  0  0  0  0
    2.3177    0.8079    1.0516 H   0  0  0  0  0  0  0  0  0  0  0  0
    2.9450   -1.2111    2.3714 H   0  0  0  0  0  0  0  0  0  0  0  0
    2.5060   -2.2431    0.9839 H   0  0  0  0  0  0  0  0  0  0  0  0
    4.8801   -1.9630    1.2095 H   0  0  0  0  0  0  0  0  0  0  0  0
    4.2691   -1.3114   -0.3792 H   0  0  0  0  0  0  0  0  0  0  0  0
    4.9883    0.3725    2.1246 H   0  0  0  0  0  0  0  0  0  0  0  0
    4.3061    0.9505    0.6030 H   0  0  0  0  0  0  0  0  0  0  0  0
    5.3793    0.0853   -1.3171 H   0  0  0  0  0  0  0  0  0  0  0  0
    7.2847   -1.2600   -2.2257 H   0  0  0  0  0  0  0  0  0  0  0  0
    6.5274   -1.9838   -0.7104 H   0  0  0  0  0  0  0  0  0  0  0  0
   11.4771   -2.8672   -0.7609 H   0  0  0  0  0  0  0  0  0  0  0  0
    8.2491    1.1310   -1.0465 H   0  0  0  0  0  0  0  0  0  0  0  0
    7.3090    1.0140   -2.5236 H   0  0  0  0  0  0  0  0  0  0  0  0
    7.7496    3.0777    0.4742 H   0  0  0  0  0  0  0  0  0  0  0  0
    6.5132    4.1866   -0.1712 H   0  0  0  0  0  0  0  0  0  0  0  0
    6.0082    2.6368    0.6268 H   0  0  0  0  0  0  0  0  0  0  0  0
  1  2  1  0
  2  3  1  0
  3  4  1  0
  4  5  1  0
  5  6  1  0
  6  7  1  0
  7  8  1  0
  8  9  1  0
  9 10  1  0
 10 11  1  0
 11 12  1  0
 12 13  1  0
 13 14  1  0
 14 15  1  0
 15 16  1  0
 16 17  1  0
 17 18  1  0
 18 19  1  0
 19 20  1  0
 20 21  1  0
 21 22  1  0
 22 23  2  0
 22 24  1  0
 22 25  1  0
 19 26  1  0
 26 27  1  0
 27 28  1  0
  1 29  1  0
  1 30  1  0
  1 31  1  0
  2 32  1  0
  2 33  1  0
  3 34  1  0
  3 35  1  0
  4 36  1  0
  4 37  1  0
  5 38  1  0
  5 39  1  0
  6 40  1  0
  6 41  1  0
  7 42  1  0
  7 43  1  0
  8 44  1  0
  8 45  1  0
  9 46  1  0
  9 47  1  0
 10 48  1  0
 10 49  1  0
 11 50  1  0
 11 51  1  0
 12 52  1  0
 12 53  1  0
 13 54  1  0
 13 55  1  0
 14 56  1  0
 14 57  1  0
 15 58  1  0
 15 59  1  0
 16 60  1  0
 16 61  1  0
 17 62  1  0
 17 63  1  0
 19 64  1  0
 20 65  1  0
 20 66  1  0
 24 67  1  0
 26 68  1  0
 26 69  1  0
 28 70  1  0
 28 71  1  0
 28 72  1  0
M  CHG  1  25  -1
M  END
>  <Ligand ID>  (1) 
LIG0000702

>  <Ligand>  (1) 
CHEMBL2335050

>  <SMILES>  (1) 
CCCCCCCCCCCCCCCCCOC(COP(=S)(O)[O-])COC

>  <CID>  (1) 
91900067.0

>  <ChEMBL ID>  (1) 
nan

>  <InChiKey>  (1) 
QHLCTGAOQYVSTN-UHFFFAOYSA-M

>  <InChi>  (1) 
InChI=1S/C21H45O5PS/c1-3-4-5-6-7-8-9-10-11-12-13-14-15-16-17-18-25-21(19-24-2)20-26-27(22,23)28/h21H,3-20H2,1-2H3,(H2,22,23,28)/p-1

>  <IUPAC Name>  (1) 
(2-heptadecoxy-3-methoxypropoxy)-hydroxy-oxido-sulfanylidene-lambda5-phosphane

$$$$
