
     RDKit          3D

 33 36  0  0  0  0  0  0  0  0999 V2000
   -3.2621   -0.6138   -2.8625 Cl  0  0  0  0  0  0  0  0  0  0  0  0
   -1.7946   -0.7994   -1.9234 C   0  0  0  0  0  0  0  0  0  0  0  0
   -0.7426   -1.5334   -2.4555 C   0  0  0  0  0  0  0  0  0  0  0  0
    0.4361   -1.6894   -1.7152 C   0  0  0  0  0  0  0  0  0  0  0  0
    0.5694   -1.1240   -0.4622 C   0  0  0  0  0  0  0  0  0  0  0  0
   -0.4901   -0.3988    0.0453 C   0  0  0  0  0  0  0  0  0  0  0  0
   -1.6772   -0.2238   -0.6642 C   0  0  0  0  0  0  0  0  0  0  0  0
   -2.7839    0.5489   -0.1035 C   0  0  0  0  0  0  0  0  0  0  0  0
   -3.7933    0.0340    0.6619 C   0  0  0  0  0  0  0  0  0  0  0  0
   -4.6020    1.0545    0.9768 N   0  0  0  0  0  0  0  0  0  0  0  0
   -4.1743    2.1924    0.4610 N   0  0  0  0  0  0  0  0  0  0  0  0
   -3.0494    1.8994   -0.2115 C   0  0  0  0  0  0  0  0  0  0  0  0
   -0.1540    0.1223    1.3906 C   0  0  0  0  0  0  0  0  0  0  0  0
    0.9467   -0.8252    1.8240 C   0  0  0  0  0  0  0  0  0  0  0  0
    1.6486   -1.1091    0.5319 C   0  0  0  0  0  0  0  0  0  0  0  0
    2.6439   -0.0180    0.3240 C   0  0  0  0  0  0  0  0  0  0  0  0
    2.6340    1.2301    0.8155 N   0  0  0  0  0  0  0  0  0  0  0  0
    3.7236    1.9209    0.3921 C   0  0  0  0  0  0  0  0  0  0  0  0
    4.4180    1.0326   -0.3942 C   0  0  0  0  0  0  0  0  0  0  0  0
    3.7705   -0.1340   -0.4365 N   0  0  0  0  0  0  0  0  0  0  0  0
   -0.8163   -1.9884   -3.4339 H   0  0  0  0  0  0  0  0  0  0  0  0
    1.2636   -2.2492   -2.0987 H   0  0  0  0  0  0  0  0  0  0  0  0
   -3.8898   -1.0089    0.9420 H   0  0  0  0  0  0  0  0  0  0  0  0
   -5.4699    0.9672    1.5609 H   0  0  0  0  0  0  0  0  0  0  0  0
   -2.4177    2.5863   -0.7664 H   0  0  0  0  0  0  0  0  0  0  0  0
    0.2111    1.1600    1.3749 H   0  0  0  0  0  0  0  0  0  0  0  0
   -0.9620   -0.0347    2.1331 H   0  0  0  0  0  0  0  0  0  0  0  0
    1.6237   -0.3573    2.5668 H   0  0  0  0  0  0  0  0  0  0  0  0
    0.5532   -1.7752    2.2114 H   0  0  0  0  0  0  0  0  0  0  0  0
    2.2331   -2.0513    0.5592 H   0  0  0  0  0  0  0  0  0  0  0  0
    3.9689    2.9468    0.6352 H   0  0  0  0  0  0  0  0  0  0  0  0
    5.3512    1.2298   -0.9101 H   0  0  0  0  0  0  0  0  0  0  0  0
    4.0838   -0.9913   -0.9687 H   0  0  0  0  0  0  0  0  0  0  0  0
  1  2  1  0
  2  3  2  0
  3  4  1  0
  4  5  2  0
  5  6  1  0
  6  7  2  0
  7  8  1  0
  8  9  2  0
  9 10  1  0
 10 11  1  0
 11 12  2  0
  6 13  1  0
 13 14  1  0
 14 15  1  0
 15 16  1  0
 16 17  2  0
 17 18  1  0
 18 19  2  0
 19 20  1  0
  7  2  1  0
 12  8  1  0
 20 16  1  0
 15  5  1  0
  3 21  1  0
  4 22  1  0
  9 23  1  0
 10 24  1  0
 12 25  1  0
 13 26  1  0
 13 27  1  0
 14 28  1  0
 14 29  1  0
 15 30  1  0
 18 31  1  0
 19 32  1  0
 20 33  1  0
M  END
>  <Ligand ID>  (1) 
LIG0001345

>  <Ligand>  (1) 
CHEMBL257799

>  <SMILES>  (1) 
Clc1ccc2c(c1c1c[nH]nc1)CCC2c1ncc[nH]1

>  <CID>  (1) 
44449303.0

>  <ChEMBL ID>  (1) 
nan

>  <InChiKey>  (1) 
JMAPPYYTLHLIJH-UHFFFAOYSA-N

>  <InChi>  (1) 
InChI=1S/C15H13ClN4/c16-13-4-3-10-11(14(13)9-7-19-20-8-9)1-2-12(10)15-17-5-6-18-15/h3-8,12H,1-2H2,(H,17,18)(H,19,20)

>  <IUPAC Name>  (1) 
2-[5-chloro-4-(1H-pyrazol-4-yl)-2,3-dihydro-1H-inden-1-yl]-1H-imidazole

$$$$
