
     RDKit          3D

 45 48  0  0  0  0  0  0  0  0999 V2000
   -5.4493   -3.2359   -1.5194 O   0  0  0  0  0  0  0  0  0  0  0  0
   -4.2733   -3.0369   -0.8030 C   0  0  0  0  0  0  0  0  0  0  0  0
   -4.3466   -1.7104   -0.0425 C   0  0  1  0  0  0  0  0  0  0  0  0
   -3.2022   -1.4574    0.6899 O   0  0  0  0  0  0  0  0  0  0  0  0
   -2.9764   -0.1098    0.6991 C   0  0  2  0  0  0  0  0  0  0  0  0
   -3.9677    0.5919   -0.1623 C   0  0  1  0  0  0  0  0  0  0  0  0
   -4.5569   -0.5489   -0.9659 C   0  0  2  0  0  0  0  0  0  0  0  0
   -5.9214   -0.3559   -1.1920 O   0  0  0  0  0  0  0  0  0  0  0  0
   -5.0030    1.0956    0.6162 O   0  0  0  0  0  0  0  0  0  0  0  0
   -1.6109    0.2179    0.2595 N   0  0  0  0  0  0  0  0  0  0  0  0
   -1.2028    0.3106   -1.0182 C   0  0  0  0  0  0  0  0  0  0  0  0
    0.1139    0.6287   -0.9907 N   0  0  0  0  0  0  0  0  0  0  0  0
    0.5163    0.7317    0.2853 C   0  0  0  0  0  0  0  0  0  0  0  0
   -0.5692    0.4733    1.0995 C   0  0  0  0  0  0  0  0  0  0  0  0
   -0.4084    0.5182    2.4279 N   0  0  0  0  0  0  0  0  0  0  0  0
    0.8156    0.8162    2.9492 C   0  0  0  0  0  0  0  0  0  0  0  0
    1.8792    1.0694    2.1512 N   0  0  0  0  0  0  0  0  0  0  0  0
    1.7643    1.0355    0.7989 C   0  0  0  0  0  0  0  0  0  0  0  0
    2.8950    1.3049   -0.0217 N   0  0  0  0  0  0  0  0  0  0  0  0
    4.1911    1.6206    0.5466 C   0  0  0  0  0  0  0  0  0  0  0  0
    4.7339    0.5138    1.4231 C   0  0  0  0  0  0  0  0  0  0  0  0
    5.6150   -0.3387    0.5355 C   0  0  0  0  0  0  0  0  0  0  0  0
    5.9886    0.5084   -0.6506 C   0  0  0  0  0  0  0  0  0  0  0  0
    5.1670    1.7720   -0.5932 C   0  0  0  0  0  0  0  0  0  0  0  0
   -5.2490   -3.1474   -2.4922 H   0  0  0  0  0  0  0  0  0  0  0  0
   -4.1301   -3.8310   -0.0258 H   0  0  0  0  0  0  0  0  0  0  0  0
   -3.3660   -3.0787   -1.4334 H   0  0  0  0  0  0  0  0  0  0  0  0
   -5.1777   -1.7559    0.6901 H   0  0  0  0  0  0  0  0  0  0  0  0
   -3.1194    0.2447    1.7603 H   0  0  0  0  0  0  0  0  0  0  0  0
   -3.5167    1.3669   -0.8142 H   0  0  0  0  0  0  0  0  0  0  0  0
   -3.9996   -0.7009   -1.9098 H   0  0  0  0  0  0  0  0  0  0  0  0
   -6.1846   -0.9943   -1.9016 H   0  0  0  0  0  0  0  0  0  0  0  0
   -5.7333    0.4482    0.7463 H   0  0  0  0  0  0  0  0  0  0  0  0
   -1.7646    0.1707   -1.9312 H   0  0  0  0  0  0  0  0  0  0  0  0
    0.9359    0.8502    4.0338 H   0  0  0  0  0  0  0  0  0  0  0  0
    2.7325    1.2609   -1.0653 H   0  0  0  0  0  0  0  0  0  0  0  0
    4.0920    2.5608    1.1469 H   0  0  0  0  0  0  0  0  0  0  0  0
    5.4221    0.9566    2.1940 H   0  0  0  0  0  0  0  0  0  0  0  0
    3.9628   -0.0974    1.9003 H   0  0  0  0  0  0  0  0  0  0  0  0
    6.5665   -0.6263    1.0341 H   0  0  0  0  0  0  0  0  0  0  0  0
    5.1088   -1.2826    0.2254 H   0  0  0  0  0  0  0  0  0  0  0  0
    5.7856   -0.0747   -1.5853 H   0  0  0  0  0  0  0  0  0  0  0  0
    7.0558    0.7554   -0.6793 H   0  0  0  0  0  0  0  0  0  0  0  0
    4.6382    1.8689   -1.5778 H   0  0  0  0  0  0  0  0  0  0  0  0
    5.7485    2.6909   -0.4567 H   0  0  0  0  0  0  0  0  0  0  0  0
  1  2  1  0
  2  3  1  0
  3  4  1  0
  4  5  1  0
  5  6  1  0
  6  7  1  0
  7  8  1  0
  6  9  1  0
  5 10  1  0
 10 11  1  0
 11 12  2  0
 12 13  1  0
 13 14  2  0
 14 15  1  0
 15 16  2  0
 16 17  1  0
 17 18  2  0
 18 19  1  0
 19 20  1  0
 20 21  1  0
 21 22  1  0
 22 23  1  0
 23 24  1  0
  7  3  1  0
 14 10  1  0
 24 20  1  0
 18 13  1  0
  1 25  1  0
  2 26  1  0
  2 27  1  0
  3 28  1  1
  5 29  1  1
  6 30  1  6
  7 31  1  6
  8 32  1  0
  9 33  1  0
 11 34  1  0
 16 35  1  0
 19 36  1  0
 20 37  1  0
 21 38  1  0
 21 39  1  0
 22 40  1  0
 22 41  1  0
 23 42  1  0
 23 43  1  0
 24 44  1  0
 24 45  1  0
M  END
>  <Ligand ID>  (1) 
LIG0001354

>  <Ligand>  (1) 
cyclopentyladenosine

>  <SMILES>  (1) 
OC[C@H]1O[C@H]([C@@H]([C@@H]1O)O)n1cnc2c1ncnc2NC1CCCC1

>  <CID>  (1) 
657378.0

>  <ChEMBL ID>  (1) 
nan

>  <InChiKey>  (1) 
SQMWSBKSHWARHU-SDBHATRESA-N

>  <InChi>  (1) 
InChI=1S/C15H21N5O4/c21-5-9-11(22)12(23)15(24-9)20-7-18-10-13(16-6-17-14(10)20)19-8-3-1-2-4-8/h6-9,11-12,15,21-23H,1-5H2,(H,16,17,19)/t9-,11-,12-,15-/m1/s1

>  <IUPAC Name>  (1) 
(2R,3R,4S,5R)-2-[6-(cyclopentylamino)purin-9-yl]-5-(hydroxymethyl)oxolane-3,4-diol

$$$$
