
     RDKit          3D

114118  0  0  0  0  0  0  0  0999 V2000
    0.2698    7.4604    1.6725 N   0  0  0  0  0  0  0  0  0  0  0  0
    0.9885    6.4773    0.9636 C   0  0  0  0  0  0  0  0  0  0  0  0
    1.8512    5.6691    1.5397 N   0  0  0  0  0  0  0  0  0  0  0  0
    2.5514    4.6829    0.7559 C   0  0  0  0  0  0  0  0  0  0  0  0
    2.5388    3.3561    1.4532 C   0  0  0  0  0  0  0  0  0  0  0  0
    1.1932    2.7848    1.7354 C   0  0  0  0  0  0  0  0  0  0  0  0
    0.3432    2.5733    0.4863 C   0  0  2  0  0  0  0  0  0  0  0  0
   -0.9581    2.0204    0.7767 N   0  0  0  0  0  0  0  0  0  0  0  0
   -2.0463    2.8389    1.2850 C   0  0  0  0  0  0  0  0  0  0  0  0
   -1.7072    4.0173    1.4857 O   0  0  0  0  0  0  0  0  0  0  0  0
   -3.3986    2.2883    1.5367 C   0  0  1  0  0  0  0  0  0  0  0  0
   -4.5169    3.2520    1.5022 C   0  0  0  0  0  0  0  0  0  0  0  0
   -4.7523    3.9964    0.2751 C   0  0  0  0  0  0  0  0  0  0  0  0
   -4.2705    5.2551   -0.0132 C   0  0  0  0  0  0  0  0  0  0  0  0
   -4.5007    5.9369   -1.1667 C   0  0  0  0  0  0  0  0  0  0  0  0
   -5.2694    5.3540   -2.1425 C   0  0  0  0  0  0  0  0  0  0  0  0
   -5.7789    4.0802   -1.8945 C   0  0  0  0  0  0  0  0  0  0  0  0
   -5.5371    3.4033   -0.7217 C   0  0  0  0  0  0  0  0  0  0  0  0
   -3.6696    1.0355    0.8701 N   0  0  0  0  0  0  0  0  0  0  0  0
   -3.5311   -0.2507    1.4605 C   0  0  0  0  0  0  0  0  0  0  0  0
   -3.0855   -0.2468    2.6176 O   0  0  0  0  0  0  0  0  0  0  0  0
   -3.9078   -1.4534    0.6840 C   0  0  1  0  0  0  0  0  0  0  0  0
   -3.5552   -2.7038    1.3432 N   0  0  0  0  0  0  0  0  0  0  0  0
   -2.9653   -3.7522    0.5642 C   0  0  0  0  0  0  0  0  0  0  0  0
   -2.8625   -3.4879   -0.6489 O   0  0  0  0  0  0  0  0  0  0  0  0
   -2.5144   -5.0515    1.1656 C   0  0  0  0  0  0  0  0  0  0  0  0
   -1.8011   -5.8382    0.0574 C   0  0  0  0  0  0  0  0  0  0  0  0
   -0.7192   -4.9197   -0.3819 C   0  0  0  0  0  0  0  0  0  0  0  0
   -0.5274   -3.8939    0.2748 O   0  0  0  0  0  0  0  0  0  0  0  0
    0.1222   -5.1164   -1.5071 N   0  0  0  0  0  0  0  0  0  0  0  0
    1.1042   -4.0934   -1.7832 C   0  0  0  0  0  0  0  0  0  0  0  0
    2.1278   -3.9149   -0.7045 C   0  0  0  0  0  0  0  0  0  0  0  0
    2.9262   -2.7023   -1.1143 N   0  0  0  0  0  0  0  0  0  0  0  0
    2.5171   -1.4427   -0.6780 C   0  0  0  0  0  0  0  0  0  0  0  0
    1.5509   -1.6206    0.1860 O   0  0  0  0  0  0  0  0  0  0  0  0
    2.8587   -0.0856   -0.9059 C   0  0  1  0  0  0  0  0  0  0  0  0
    2.0329    0.7535    0.0191 N   0  0  0  0  0  0  0  0  0  0  0  0
    1.0860    1.7055   -0.4350 C   0  0  0  0  0  0  0  0  0  0  0  0
    0.8992    1.7804   -1.6436 O   0  0  0  0  0  0  0  0  0  0  0  0
    4.1921    0.4944   -1.0393 C   0  0  0  0  0  0  0  0  0  0  0  0
    5.1928    0.3660   -0.0007 C   0  0  0  0  0  0  0  0  0  0  0  0
    5.1659    0.6206    1.3555 C   0  0  0  0  0  0  0  0  0  0  0  0
    6.3489    0.2906    1.9245 N   0  0  0  0  0  0  0  0  0  0  0  0
    7.1714   -0.1815    0.9743 C   0  0  0  0  0  0  0  0  0  0  0  0
    6.4835   -0.1452   -0.2133 C   0  0  0  0  0  0  0  0  0  0  0  0
    7.1636   -0.5527   -1.3526 C   0  0  0  0  0  0  0  0  0  0  0  0
    8.4721   -0.9794   -1.3327 C   0  0  0  0  0  0  0  0  0  0  0  0
    9.1172   -0.9985   -0.1162 C   0  0  0  0  0  0  0  0  0  0  0  0
    8.4926   -0.6041    1.0681 C   0  0  0  0  0  0  0  0  0  0  0  0
    4.0999   -2.9783   -1.8402 C   0  0  0  0  0  0  0  0  0  0  0  0
    5.2089   -3.3701   -0.9113 C   0  0  0  0  0  0  0  0  0  0  0  0
    4.9465   -3.3574    0.3072 O   0  0  0  0  0  0  0  0  0  0  0  0
    6.4891   -3.7430   -1.3296 N   0  0  0  0  0  0  0  0  0  0  0  0
   -5.4472   -1.4704    0.6273 C   0  0  0  0  0  0  0  0  0  0  0  0
   -5.9091   -2.6441   -0.1345 C   0  0  0  0  0  0  0  0  0  0  0  0
   -6.1272   -2.5367   -1.4765 C   0  0  0  0  0  0  0  0  0  0  0  0
   -6.5512   -3.5656   -2.2684 C   0  0  0  0  0  0  0  0  0  0  0  0
   -6.7745   -4.8027   -1.6663 C   0  0  0  0  0  0  0  0  0  0  0  0
   -6.5588   -4.9351   -0.2985 C   0  0  0  0  0  0  0  0  0  0  0  0
   -6.1360   -3.8794    0.4492 C   0  0  0  0  0  0  0  0  0  0  0  0
    0.7914    6.3376   -0.4571 N   0  0  0  0  0  0  0  0  0  0  0  0
   -0.6958    7.6752    1.3492 H   0  0  0  0  0  0  0  0  0  0  0  0
    0.7403    7.9183    2.4733 H   0  0  0  0  0  0  0  0  0  0  0  0
    2.1166    4.6523   -0.2443 H   0  0  0  0  0  0  0  0  0  0  0  0
    3.5940    5.0655    0.6589 H   0  0  0  0  0  0  0  0  0  0  0  0
    3.1925    2.6773    0.8606 H   0  0  0  0  0  0  0  0  0  0  0  0
    3.1029    3.4942    2.4236 H   0  0  0  0  0  0  0  0  0  0  0  0
    1.2998    1.8693    2.3364 H   0  0  0  0  0  0  0  0  0  0  0  0
    0.6784    3.5110    2.4292 H   0  0  0  0  0  0  0  0  0  0  0  0
    0.2250    3.6018    0.0113 H   0  0  0  0  0  0  0  0  0  0  0  0
   -1.2025    1.0421    0.6537 H   0  0  0  0  0  0  0  0  0  0  0  0
   -3.3050    2.0137    2.6758 H   0  0  0  0  0  0  0  0  0  0  0  0
   -4.4624    3.9703    2.3741 H   0  0  0  0  0  0  0  0  0  0  0  0
   -5.4560    2.6623    1.7358 H   0  0  0  0  0  0  0  0  0  0  0  0
   -3.6521    5.7623    0.7460 H   0  0  0  0  0  0  0  0  0  0  0  0
   -4.0775    6.9401   -1.3118 H   0  0  0  0  0  0  0  0  0  0  0  0
   -5.4929    5.8492   -3.0961 H   0  0  0  0  0  0  0  0  0  0  0  0
   -6.3868    3.6590   -2.7020 H   0  0  0  0  0  0  0  0  0  0  0  0
   -5.9463    2.4213   -0.5620 H   0  0  0  0  0  0  0  0  0  0  0  0
   -3.9838    1.0555   -0.0990 H   0  0  0  0  0  0  0  0  0  0  0  0
   -3.5091   -1.3911   -0.3269 H   0  0  0  0  0  0  0  0  0  0  0  0
   -3.6840   -2.9169    2.3269 H   0  0  0  0  0  0  0  0  0  0  0  0
   -1.8089   -4.9415    1.9854 H   0  0  0  0  0  0  0  0  0  0  0  0
   -3.4292   -5.5952    1.4782 H   0  0  0  0  0  0  0  0  0  0  0  0
   -1.4590   -6.7580    0.5296 H   0  0  0  0  0  0  0  0  0  0  0  0
   -2.4989   -6.1000   -0.7622 H   0  0  0  0  0  0  0  0  0  0  0  0
   -0.0381   -5.9728   -2.0324 H   0  0  0  0  0  0  0  0  0  0  0  0
    1.6157   -4.4214   -2.7352 H   0  0  0  0  0  0  0  0  0  0  0  0
    0.6058   -3.1156   -2.0414 H   0  0  0  0  0  0  0  0  0  0  0  0
    1.6738   -3.7875    0.2578 H   0  0  0  0  0  0  0  0  0  0  0  0
    2.7810   -4.8163   -0.7446 H   0  0  0  0  0  0  0  0  0  0  0  0
    2.3452    0.2314   -1.9207 H   0  0  0  0  0  0  0  0  0  0  0  0
    2.1339    0.6344    1.0192 H   0  0  0  0  0  0  0  0  0  0  0  0
    4.6365    0.2381   -2.0639 H   0  0  0  0  0  0  0  0  0  0  0  0
    4.0339    1.6236   -1.1667 H   0  0  0  0  0  0  0  0  0  0  0  0
    4.3531    1.0065    1.9074 H   0  0  0  0  0  0  0  0  0  0  0  0
    6.5630    0.3996    2.9503 H   0  0  0  0  0  0  0  0  0  0  0  0
    6.6318   -0.5351   -2.3202 H   0  0  0  0  0  0  0  0  0  0  0  0
    9.0246   -1.2996   -2.2033 H   0  0  0  0  0  0  0  0  0  0  0  0
   10.1476   -1.3180   -0.0062 H   0  0  0  0  0  0  0  0  0  0  0  0
    9.0196   -0.6244    2.0127 H   0  0  0  0  0  0  0  0  0  0  0  0
    4.4037   -2.1702   -2.5436 H   0  0  0  0  0  0  0  0  0  0  0  0
    3.8923   -3.8582   -2.4766 H   0  0  0  0  0  0  0  0  0  0  0  0
    6.6096   -4.3326   -2.2102 H   0  0  0  0  0  0  0  0  0  0  0  0
    7.3882   -3.5081   -0.8547 H   0  0  0  0  0  0  0  0  0  0  0  0
   -5.8713   -1.4680    1.6375 H   0  0  0  0  0  0  0  0  0  0  0  0
   -5.8093   -0.5750    0.0958 H   0  0  0  0  0  0  0  0  0  0  0  0
   -5.9523   -1.5779   -1.9384 H   0  0  0  0  0  0  0  0  0  0  0  0
   -6.7126   -3.4279   -3.3471 H   0  0  0  0  0  0  0  0  0  0  0  0
   -7.1102   -5.6673   -2.2187 H   0  0  0  0  0  0  0  0  0  0  0  0
   -6.7405   -5.9130    0.1560 H   0  0  0  0  0  0  0  0  0  0  0  0
   -5.9689   -3.9889    1.5113 H   0  0  0  0  0  0  0  0  0  0  0  0
    1.6521    6.4579   -1.0302 H   0  0  0  0  0  0  0  0  0  0  0  0
   -0.1255    6.1361   -0.8852 H   0  0  0  0  0  0  0  0  0  0  0  0
  1  2  1  0
  2  3  2  3
  3  4  1  0
  4  5  1  0
  5  6  1  0
  6  7  1  0
  7  8  1  0
  8  9  1  0
  9 10  2  0
  9 11  1  0
 11 12  1  0
 12 13  1  0
 13 14  2  0
 14 15  1  0
 15 16  2  0
 16 17  1  0
 17 18  2  0
 11 19  1  0
 19 20  1  0
 20 21  2  0
 20 22  1  0
 22 23  1  0
 23 24  1  0
 24 25  2  0
 24 26  1  0
 26 27  1  0
 27 28  1  0
 28 29  2  0
 28 30  1  0
 30 31  1  0
 31 32  1  0
 32 33  1  0
 33 34  1  0
 34 35  2  0
 34 36  1  0
 36 37  1  0
 37 38  1  0
 38 39  2  0
 36 40  1  0
 40 41  1  0
 41 42  2  0
 42 43  1  0
 43 44  1  0
 44 45  2  0
 45 46  1  0
 46 47  2  0
 47 48  1  0
 48 49  2  0
 33 50  1  0
 50 51  1  0
 51 52  2  0
 51 53  1  0
 22 54  1  0
 54 55  1  0
 55 56  2  0
 56 57  1  0
 57 58  2  0
 58 59  1  0
 59 60  2  0
  2 61  1  0
 38  7  1  0
 45 41  1  0
 60 55  1  0
 18 13  1  0
 49 44  1  0
  1 62  1  0
  1 63  1  0
  4 64  1  0
  4 65  1  0
  5 66  1  0
  5 67  1  0
  6 68  1  0
  6 69  1  0
  7 70  1  6
  8 71  1  0
 11 72  1  1
 12 73  1  0
 12 74  1  0
 14 75  1  0
 15 76  1  0
 16 77  1  0
 17 78  1  0
 18 79  1  0
 19 80  1  0
 22 81  1  6
 23 82  1  0
 26 83  1  0
 26 84  1  0
 27 85  1  0
 27 86  1  0
 30 87  1  0
 31 88  1  0
 31 89  1  0
 32 90  1  0
 32 91  1  0
 36 92  1  6
 37 93  1  0
 40 94  1  0
 40 95  1  0
 42 96  1  0
 43 97  1  0
 46 98  1  0
 47 99  1  0
 48100  1  0
 49101  1  0
 50102  1  0
 50103  1  0
 53104  1  0
 53105  1  0
 54106  1  0
 54107  1  0
 56108  1  0
 57109  1  0
 58110  1  0
 59111  1  0
 60112  1  0
 61113  1  0
 61114  1  0
M  END
>  <Ligand ID>  (1) 
LIG0001323

>  <Ligand>  (1) 
CHEMBL408398

>  <SMILES>  (1) 
NC(=NCCC[C@@H]1NC(=O)[C@@H](Cc2ccccc2)NC(=O)[C@@H](NC(=O)CCC(=O)NCCN(C(=O)[C@@H](NC1=O)Cc1c[nH]c2c1cccc2)CC(=O)N)Cc1ccccc1)N

>  <CID>  (1) 
15602927.0

>  <ChEMBL ID>  (1) 
nan

>  <InChiKey>  (1) 
SDQCGYICPSEQGF-KMSCUOMXSA-N

>  <InChi>  (1) 
InChI=1S/C43H53N11O7/c44-36(55)26-54-21-20-47-37(56)17-18-38(57)50-33(22-27-10-3-1-4-11-27)40(59)52-34(23-28-12-5-2-6-13-28)41(60)51-32(16-9-19-48-43(45)46)39(58)53-35(42(54)61)24-29-25-49-31-15-8-7-14-30(29)31/h1-8,10-15,25,32-35,49H,9,16-24,26H2,(H2,44,55)(H,47,56)(H,50,57)(H,51,60)(H,52,59)(H,53,58)(H4,45,46,48)/t32-,33-,34+,35-/m0/s1

>  <IUPAC Name>  (1) 
2-[(6S,9S,12R,15S)-12,15-dibenzyl-9-[3-(diaminomethylideneamino)propyl]-6-(1H-indol-3-ylmethyl)-5,8,11,14,17,20-hexaoxo-1,4,7,10,13,16-hexazacycloicos-4-yl]acetamide

$$$$
