
     RDKit          3D

 38 40  0  0  0  0  0  0  0  0999 V2000
   -4.9707   -2.0622    0.1042 O   0  0  0  0  0  0  0  0  0  0  0  0
   -5.7714   -1.1395   -0.5401 C   0  0  0  0  0  0  0  0  0  0  0  0
   -6.4890   -1.5520   -1.5169 O   0  0  0  0  0  0  0  0  0  0  0  0
   -5.8724    0.2953   -0.1976 C   0  0  0  0  0  0  0  0  0  0  0  0
   -4.6945    1.0468   -0.7508 C   0  0  0  0  0  0  0  0  0  0  0  0
   -3.3916    0.6023   -0.1943 C   0  0  0  0  0  0  0  0  0  0  0  0
   -3.1080   -0.3120    0.6959 O   0  0  0  0  0  0  0  0  0  0  0  0
   -1.8019   -0.3883    0.9039 C   0  0  0  0  0  0  0  0  0  0  0  0
   -1.1774    0.5541    0.0820 C   0  0  0  0  0  0  0  0  0  0  0  0
   -2.1921    1.1707   -0.6053 C   0  0  0  0  0  0  0  0  0  0  0  0
    0.1954    0.6759    0.1093 C   0  0  0  0  0  0  0  0  0  0  0  0
    0.9527   -0.1363    0.9537 C   0  0  0  0  0  0  0  0  0  0  0  0
    0.3496   -1.0733    1.7746 C   0  0  0  0  0  0  0  0  0  0  0  0
   -1.0447   -1.1902    1.7376 C   0  0  0  0  0  0  0  0  0  0  0  0
    2.3839    0.0439    0.9221 C   0  0  0  0  0  0  0  0  0  0  0  0
    3.1016   -0.1924    2.0765 C   0  0  0  0  0  0  0  0  0  0  0  0
    4.4680   -0.0383    2.1386 C   0  0  0  0  0  0  0  0  0  0  0  0
    5.1711    0.3719    0.9951 C   0  0  0  0  0  0  0  0  0  0  0  0
    4.4602    0.6119   -0.1729 C   0  0  0  0  0  0  0  0  0  0  0  0
    3.0711    0.4479   -0.2094 C   0  0  0  0  0  0  0  0  0  0  0  0
    5.1669    1.0119   -1.2750 O   0  0  0  0  0  0  0  0  0  0  0  0
    5.7323    0.1680   -2.2487 C   0  0  0  0  0  0  0  0  0  0  0  0
    6.3627    0.9664   -3.1938 F   0  0  0  0  0  0  0  0  0  0  0  0
    4.7956   -0.6395   -2.8282 F   0  0  0  0  0  0  0  0  0  0  0  0
    6.7660   -0.6088   -1.7057 F   0  0  0  0  0  0  0  0  0  0  0  0
   -4.8276   -2.9492   -0.3614 H   0  0  0  0  0  0  0  0  0  0  0  0
   -5.8375    0.3866    0.9160 H   0  0  0  0  0  0  0  0  0  0  0  0
   -6.8217    0.7168   -0.6019 H   0  0  0  0  0  0  0  0  0  0  0  0
   -4.6942    0.9252   -1.8544 H   0  0  0  0  0  0  0  0  0  0  0  0
   -4.8621    2.1433   -0.5304 H   0  0  0  0  0  0  0  0  0  0  0  0
   -2.0211    1.9619   -1.3281 H   0  0  0  0  0  0  0  0  0  0  0  0
    0.6905    1.3935   -0.5175 H   0  0  0  0  0  0  0  0  0  0  0  0
    0.9681   -1.6850    2.4130 H   0  0  0  0  0  0  0  0  0  0  0  0
   -1.4985   -1.9300    2.3932 H   0  0  0  0  0  0  0  0  0  0  0  0
    2.5947   -0.5115    2.9667 H   0  0  0  0  0  0  0  0  0  0  0  0
    5.0601   -0.2169    3.0320 H   0  0  0  0  0  0  0  0  0  0  0  0
    6.2597    0.4985    1.0298 H   0  0  0  0  0  0  0  0  0  0  0  0
    2.5262    0.6324   -1.1218 H   0  0  0  0  0  0  0  0  0  0  0  0
  1  2  1  0
  2  3  2  0
  2  4  1  0
  4  5  1  0
  5  6  1  0
  6  7  1  0
  7  8  1  0
  8  9  2  0
  9 10  1  0
  9 11  1  0
 11 12  2  0
 12 13  1  0
 13 14  2  0
 12 15  1  0
 15 16  2  0
 16 17  1  0
 17 18  2  0
 18 19  1  0
 19 20  2  0
 19 21  1  0
 21 22  1  0
 22 23  1  0
 22 24  1  0
 22 25  1  0
 10  6  2  0
 20 15  1  0
 14  8  1  0
  1 26  1  0
  4 27  1  0
  4 28  1  0
  5 29  1  0
  5 30  1  0
 10 31  1  0
 11 32  1  0
 13 33  1  0
 14 34  1  0
 16 35  1  0
 17 36  1  0
 18 37  1  0
 20 38  1  0
M  END
>  <Ligand ID>  (1) 
LIG0002522

>  <Ligand>  (1) 
CHEMBL3952316

>  <SMILES>  (1) 
OC(=O)CCc1oc2c(c1)cc(cc2)c1cccc(c1)OC(F)(F)F

>  <CID>  (1) 
134143899.0

>  <ChEMBL ID>  (1) 
nan

>  <InChiKey>  (1) 
WQMNEUGVOZUFMI-UHFFFAOYSA-N

>  <InChi>  (1) 
InChI=1S/C18H13F3O4/c19-18(20,21)25-15-3-1-2-11(9-15)12-4-6-16-13(8-12)10-14(24-16)5-7-17(22)23/h1-4,6,8-10H,5,7H2,(H,22,23)

>  <IUPAC Name>  (1) 
3-[5-[3-(trifluoromethoxy)phenyl]-1-benzofuran-2-yl]propanoic acid

$$$$
