
     RDKit          3D

 81 85  0  0  0  0  0  0  0  0999 V2000
   -2.3902   -3.5656    1.8763 O   0  0  0  0  0  0  0  0  0  0  0  0
   -2.7366   -2.3056    2.2128 C   0  0  2  0  0  0  0  0  0  0  0  0
   -4.1419   -1.8533    1.9711 C   0  0  0  0  0  0  0  0  0  0  0  0
   -4.6446   -1.8344    0.7191 O   0  0  0  0  0  0  0  0  0  0  0  0
   -4.9131   -2.7826   -0.1839 C   0  0  0  0  0  0  0  0  0  0  0  0
   -4.7728   -4.1425   -0.0812 C   0  0  0  0  0  0  0  0  0  0  0  0
   -5.0928   -5.0292   -1.1103 C   0  0  0  0  0  0  0  0  0  0  0  0
   -5.5786   -4.5669   -2.3079 C   0  0  0  0  0  0  0  0  0  0  0  0
   -5.7324   -3.2056   -2.4406 C   0  0  0  0  0  0  0  0  0  0  0  0
   -5.4177   -2.3340   -1.4287 C   0  0  0  0  0  0  0  0  0  0  0  0
   -5.6960   -1.1088   -1.9032 N   0  0  0  0  0  0  0  0  0  0  0  0
   -5.5931    0.1910   -1.2832 C   0  0  0  0  0  0  0  0  0  0  0  0
   -4.2646    0.8439   -1.4586 C   0  0  0  0  0  0  0  0  0  0  0  0
   -4.3430    2.2040   -0.7889 C   0  0  0  0  0  0  0  0  0  0  0  0
   -3.0847    3.0281   -0.8426 C   0  0  0  0  0  0  0  0  0  0  0  0
   -3.4112    3.4877    0.5842 C   0  0  0  0  0  0  0  0  0  0  0  0
   -4.2773    2.2267    0.7061 C   0  0  0  0  0  0  0  0  0  0  0  0
   -6.1682   -1.2435   -3.1813 C   0  0  0  0  0  0  0  0  0  0  0  0
   -6.5337   -0.3235   -3.9548 O   0  0  0  0  0  0  0  0  0  0  0  0
   -6.1954   -2.5373   -3.5239 N   0  0  0  0  0  0  0  0  0  0  0  0
   -1.8350   -1.2581    1.5473 C   0  0  0  0  0  0  0  0  0  0  0  0
   -0.4665   -1.4299    1.9041 N   0  0  0  0  0  0  0  0  0  0  0  0
    0.4042   -0.4542    1.2330 C   0  0  0  0  0  0  0  0  0  0  0  0
    1.8338   -0.6714    1.5723 C   0  0  0  0  0  0  0  0  0  0  0  0
    2.8032    0.2331    0.9579 C   0  0  0  0  0  0  0  0  0  0  0  0
    3.3745   -0.1199   -0.2702 C   0  0  0  0  0  0  0  0  0  0  0  0
    4.2919    0.6832   -0.9090 C   0  0  0  0  0  0  0  0  0  0  0  0
    4.6854    1.8788   -0.3539 C   0  0  0  0  0  0  0  0  0  0  0  0
    4.1444    2.2594    0.8559 C   0  0  0  0  0  0  0  0  0  0  0  0
    3.2125    1.4401    1.5012 C   0  0  0  0  0  0  0  0  0  0  0  0
    5.6112    2.6345   -1.0536 O   0  0  0  0  0  0  0  0  0  0  0  0
    6.9609    2.4174   -0.8211 C   0  0  0  0  0  0  0  0  0  0  0  0
    7.4460    1.4873    0.0696 C   0  0  0  0  0  0  0  0  0  0  0  0
    8.7850    1.2718    0.2996 C   0  0  0  0  0  0  0  0  0  0  0  0
    9.6784    2.0539   -0.4246 C   0  0  0  0  0  0  0  0  0  0  0  0
    9.2000    2.9863   -1.3172 C   0  0  0  0  0  0  0  0  0  0  0  0
    7.8715    3.1560   -1.5033 N   0  0  0  0  0  0  0  0  0  0  0  0
   11.1082    1.8657   -0.2198 C   0  0  0  0  0  0  0  0  0  0  0  0
   11.9087    2.5858   -0.8819 O   0  0  0  0  0  0  0  0  0  0  0  0
   11.5942    0.9114    0.6879 N   0  0  0  0  0  0  0  0  0  0  0  0
    0.0065    0.9039    1.7795 C   0  0  0  0  0  0  0  0  0  0  0  0
    0.1739   -0.5665   -0.2348 C   0  0  0  0  0  0  0  0  0  0  0  0
   -2.6895   -4.2008    2.5786 H   0  0  0  0  0  0  0  0  0  0  0  0
   -2.5683   -2.1715    3.3229 H   0  0  0  0  0  0  0  0  0  0  0  0
   -4.8664   -2.4588    2.6251 H   0  0  0  0  0  0  0  0  0  0  0  0
   -4.2797   -0.8154    2.4419 H   0  0  0  0  0  0  0  0  0  0  0  0
   -4.4333   -4.5951    0.8192 H   0  0  0  0  0  0  0  0  0  0  0  0
   -4.9645   -6.0954   -0.9854 H   0  0  0  0  0  0  0  0  0  0  0  0
   -5.8143   -5.2831   -3.0765 H   0  0  0  0  0  0  0  0  0  0  0  0
   -5.8972    0.1194   -0.2137 H   0  0  0  0  0  0  0  0  0  0  0  0
   -6.3618    0.8883   -1.7295 H   0  0  0  0  0  0  0  0  0  0  0  0
   -3.4163    0.2615   -1.1009 H   0  0  0  0  0  0  0  0  0  0  0  0
   -4.1146    1.0544   -2.5471 H   0  0  0  0  0  0  0  0  0  0  0  0
   -5.1945    2.8287   -1.1608 H   0  0  0  0  0  0  0  0  0  0  0  0
   -3.0208    3.8164   -1.5909 H   0  0  0  0  0  0  0  0  0  0  0  0
   -2.1698    2.3805   -0.7662 H   0  0  0  0  0  0  0  0  0  0  0  0
   -2.5399    3.4980    1.2696 H   0  0  0  0  0  0  0  0  0  0  0  0
   -4.0884    4.3698    0.6274 H   0  0  0  0  0  0  0  0  0  0  0  0
   -5.2648    2.4302    1.1924 H   0  0  0  0  0  0  0  0  0  0  0  0
   -3.6996    1.4549    1.2089 H   0  0  0  0  0  0  0  0  0  0  0  0
   -6.5050   -2.9443   -4.4286 H   0  0  0  0  0  0  0  0  0  0  0  0
   -1.9500   -1.4186    0.4587 H   0  0  0  0  0  0  0  0  0  0  0  0
   -2.2629   -0.2937    1.8851 H   0  0  0  0  0  0  0  0  0  0  0  0
   -0.0825   -2.3622    1.7293 H   0  0  0  0  0  0  0  0  0  0  0  0
    1.9989   -0.6483    2.6783 H   0  0  0  0  0  0  0  0  0  0  0  0
    2.1273   -1.7221    1.2811 H   0  0  0  0  0  0  0  0  0  0  0  0
    3.1245   -1.0507   -0.7726 H   0  0  0  0  0  0  0  0  0  0  0  0
    4.7122    0.3756   -1.8601 H   0  0  0  0  0  0  0  0  0  0  0  0
    4.4612    3.1938    1.2766 H   0  0  0  0  0  0  0  0  0  0  0  0
    2.8113    1.7591    2.4418 H   0  0  0  0  0  0  0  0  0  0  0  0
    6.7263    0.8926    0.6198 H   0  0  0  0  0  0  0  0  0  0  0  0
    9.1060    0.5255    1.0142 H   0  0  0  0  0  0  0  0  0  0  0  0
    9.8530    3.6145   -1.9004 H   0  0  0  0  0  0  0  0  0  0  0  0
   11.1320    0.7316    1.6248 H   0  0  0  0  0  0  0  0  0  0  0  0
   12.4394    0.3463    0.4581 H   0  0  0  0  0  0  0  0  0  0  0  0
   -1.0036    1.2048    1.3963 H   0  0  0  0  0  0  0  0  0  0  0  0
   -0.0839    0.9017    2.8818 H   0  0  0  0  0  0  0  0  0  0  0  0
    0.6816    1.7090    1.3884 H   0  0  0  0  0  0  0  0  0  0  0  0
   -0.7958   -0.0184   -0.4362 H   0  0  0  0  0  0  0  0  0  0  0  0
    0.1162   -1.6147   -0.5891 H   0  0  0  0  0  0  0  0  0  0  0  0
    0.9726   -0.0805   -0.8529 H   0  0  0  0  0  0  0  0  0  0  0  0
  1  2  1  0
  2  3  1  0
  3  4  1  0
  4  5  1  0
  5  6  2  0
  6  7  1  0
  7  8  2  0
  8  9  1  0
  9 10  2  0
 10 11  1  0
 11 12  1  0
 12 13  1  0
 13 14  1  0
 14 15  1  0
 15 16  1  0
 16 17  1  0
 11 18  1  0
 18 19  2  0
 18 20  1  0
  2 21  1  0
 21 22  1  0
 22 23  1  0
 23 24  1  0
 24 25  1  0
 25 26  2  0
 26 27  1  0
 27 28  2  0
 28 29  1  0
 29 30  2  0
 28 31  1  0
 31 32  1  0
 32 33  2  0
 33 34  1  0
 34 35  2  0
 35 36  1  0
 36 37  2  0
 35 38  1  0
 38 39  2  0
 38 40  1  0
 23 41  1  0
 23 42  1  0
 10  5  1  0
 17 14  1  0
 30 25  1  0
 37 32  1  0
 20  9  1  0
  1 43  1  0
  2 44  1  1
  3 45  1  0
  3 46  1  0
  6 47  1  0
  7 48  1  0
  8 49  1  0
 12 50  1  0
 12 51  1  0
 13 52  1  0
 13 53  1  0
 14 54  1  0
 15 55  1  0
 15 56  1  0
 16 57  1  0
 16 58  1  0
 17 59  1  0
 17 60  1  0
 20 61  1  0
 21 62  1  0
 21 63  1  0
 22 64  1  0
 24 65  1  0
 24 66  1  0
 26 67  1  0
 27 68  1  0
 29 69  1  0
 30 70  1  0
 33 71  1  0
 34 72  1  0
 36 73  1  0
 40 74  1  0
 40 75  1  0
 41 76  1  0
 41 77  1  0
 41 78  1  0
 42 79  1  0
 42 80  1  0
 42 81  1  0
M  END
>  <Ligand ID>  (1) 
LIG0001487

>  <Ligand>  (1) 
CHEMBL374867

>  <SMILES>  (1) 
O[C@H](COc1cccc2c1n(CCC1CCC1)c(=O)[nH]2)CNC(Cc1ccc(cc1)Oc1ccc(cn1)C(=O)N)(C)C

>  <CID>  (1) 
16126657.0

>  <ChEMBL ID>  (1) 
nan

>  <InChiKey>  (1) 
HJPFFQXHOWOXMX-DEOSSOPVSA-N

>  <InChi>  (1) 
InChI=1S/C32H39N5O5/c1-32(2,17-22-9-12-25(13-10-22)42-28-14-11-23(18-34-28)30(33)39)35-19-24(38)20-41-27-8-4-7-26-29(27)37(31(40)36-26)16-15-21-5-3-6-21/h4,7-14,18,21,24,35,38H,3,5-6,15-17,19-20H2,1-2H3,(H2,33,39)(H,36,40)/t24-/m0/s1

>  <IUPAC Name>  (1) 
6-[4-[2-[[(2S)-3-[[3-(2-cyclobutylethyl)-2-oxo-1H-benzimidazol-4-yl]oxy]-2-hydroxypropyl]amino]-2-methylpropyl]phenoxy]pyridine-3-carboxamide

$$$$
