
     RDKit          3D

 61 62  0  0  0  0  0  0  0  0999 V2000
   -9.3024    0.9536   -0.5940 C   0  0  0  0  0  0  0  0  0  0  0  0
   -8.5999    0.1798   -1.6880 C   0  0  0  0  0  0  0  0  0  0  0  0
   -7.0934    0.3458   -1.5887 C   0  0  0  0  0  0  0  0  0  0  0  0
   -6.5850   -0.1592   -0.2496 C   0  0  0  0  0  0  0  0  0  0  0  0
   -5.0649    0.0420   -0.2295 C   0  0  0  0  0  0  0  0  0  0  0  0
   -4.5537   -0.4512    1.0896 C   0  0  0  0  0  0  0  0  0  0  0  0
   -3.0529   -0.3152    1.2576 C   0  0  0  0  0  0  0  0  0  0  0  0
   -2.2835   -1.0677    0.2444 C   0  0  0  0  0  0  0  0  0  0  0  0
   -0.8201   -0.9881    0.3368 C   0  0  0  0  0  0  0  0  0  0  0  0
   -0.0766   -1.8933    1.0940 C   0  0  0  0  0  0  0  0  0  0  0  0
    1.2970   -1.7327    1.1119 C   0  0  0  0  0  0  0  0  0  0  0  0
    1.9417   -0.7243    0.4171 C   0  0  0  0  0  0  0  0  0  0  0  0
    1.1884    0.1661   -0.3298 C   0  0  0  0  0  0  0  0  0  0  0  0
   -0.1866    0.0269   -0.3638 C   0  0  0  0  0  0  0  0  0  0  0  0
    3.4123   -0.5827    0.4559 C   0  0  2  0  0  0  0  0  0  0  0  0
    3.9436    0.7088    0.9195 C   0  0  0  0  0  0  0  0  0  0  0  0
    4.4847    1.4052   -0.2958 C   0  0  2  0  0  0  0  0  0  0  0  0
    4.7499    0.3750   -1.2499 N   0  0  0  0  0  0  0  0  0  0  0  0
    4.0528   -0.8086   -0.8734 C   0  0  1  0  0  0  0  0  0  0  0  0
    5.0746   -1.9503   -0.8422 C   0  0  0  0  0  0  0  0  0  0  0  0
    4.4427   -3.1603   -0.4713 O   0  0  0  0  0  0  0  0  0  0  0  0
    5.8396    2.0110    0.0633 C   0  0  0  0  0  0  0  0  0  0  0  0
    6.5626    0.9223    0.5946 O   0  0  0  0  0  0  0  0  0  0  0  0
    8.0950    1.3263    1.1101 P   0  0  0  0  0  0  0  0  0  0  0  0
    8.2585    0.7018    2.4998 O   0  0  0  0  0  0  0  0  0  0  0  0
    9.2508    0.6383    0.1129 O   0  0  0  0  0  0  0  0  0  0  0  0
    8.3260    2.9856    1.3253 O   0  0  0  0  0  0  0  0  0  0  0  0
   -9.5906    0.2500    0.2215 H   0  0  0  0  0  0  0  0  0  0  0  0
  -10.2299    1.3984   -1.0273 H   0  0  0  0  0  0  0  0  0  0  0  0
   -8.6402    1.7123   -0.1527 H   0  0  0  0  0  0  0  0  0  0  0  0
   -8.8774   -0.8856   -1.5923 H   0  0  0  0  0  0  0  0  0  0  0  0
   -8.9141    0.5910   -2.6771 H   0  0  0  0  0  0  0  0  0  0  0  0
   -6.8648    1.4204   -1.7123 H   0  0  0  0  0  0  0  0  0  0  0  0
   -6.6215   -0.2649   -2.3746 H   0  0  0  0  0  0  0  0  0  0  0  0
   -7.0612    0.3689    0.5935 H   0  0  0  0  0  0  0  0  0  0  0  0
   -6.8102   -1.2321   -0.1526 H   0  0  0  0  0  0  0  0  0  0  0  0
   -4.6196   -0.4420   -1.0951 H   0  0  0  0  0  0  0  0  0  0  0  0
   -4.9103    1.1486   -0.2578 H   0  0  0  0  0  0  0  0  0  0  0  0
   -4.7901   -1.5445    1.2260 H   0  0  0  0  0  0  0  0  0  0  0  0
   -5.0093    0.1134    1.9279 H   0  0  0  0  0  0  0  0  0  0  0  0
   -2.8302   -0.5549    2.2996 H   0  0  0  0  0  0  0  0  0  0  0  0
   -2.8556    0.7898    1.1209 H   0  0  0  0  0  0  0  0  0  0  0  0
   -2.6360   -0.7332   -0.7677 H   0  0  0  0  0  0  0  0  0  0  0  0
   -2.5479   -2.1518    0.2924 H   0  0  0  0  0  0  0  0  0  0  0  0
   -0.5511   -2.6792    1.6382 H   0  0  0  0  0  0  0  0  0  0  0  0
    1.9327   -2.4186    1.6934 H   0  0  0  0  0  0  0  0  0  0  0  0
    1.6954    0.9368   -0.8591 H   0  0  0  0  0  0  0  0  0  0  0  0
   -0.7361    0.7448   -0.9601 H   0  0  0  0  0  0  0  0  0  0  0  0
    3.7972   -1.3994    1.1277 H   0  0  0  0  0  0  0  0  0  0  0  0
    4.7933    0.5431    1.6400 H   0  0  0  0  0  0  0  0  0  0  0  0
    3.2356    1.3348    1.4965 H   0  0  0  0  0  0  0  0  0  0  0  0
    3.7947    2.1851   -0.6860 H   0  0  0  0  0  0  0  0  0  0  0  0
    4.5602    0.6664   -2.2402 H   0  0  0  0  0  0  0  0  0  0  0  0
    3.3033   -1.0832   -1.6493 H   0  0  0  0  0  0  0  0  0  0  0  0
    5.8217   -1.7253   -0.0741 H   0  0  0  0  0  0  0  0  0  0  0  0
    5.4887   -2.1322   -1.8335 H   0  0  0  0  0  0  0  0  0  0  0  0
    4.5047   -3.3364    0.4926 H   0  0  0  0  0  0  0  0  0  0  0  0
    5.6496    2.7971    0.8017 H   0  0  0  0  0  0  0  0  0  0  0  0
    6.2783    2.3493   -0.8891 H   0  0  0  0  0  0  0  0  0  0  0  0
    9.0022    0.7648   -0.8459 H   0  0  0  0  0  0  0  0  0  0  0  0
    7.9374    3.5131    0.5696 H   0  0  0  0  0  0  0  0  0  0  0  0
  1  2  1  0
  2  3  1  0
  3  4  1  0
  4  5  1  0
  5  6  1  0
  6  7  1  0
  7  8  1  0
  8  9  1  0
  9 10  2  0
 10 11  1  0
 11 12  2  0
 12 13  1  0
 13 14  2  0
 12 15  1  0
 15 16  1  0
 16 17  1  0
 17 18  1  0
 18 19  1  0
 19 20  1  0
 20 21  1  0
 17 22  1  0
 22 23  1  0
 23 24  1  0
 24 25  2  0
 24 26  1  0
 24 27  1  0
 14  9  1  0
 19 15  1  0
  1 28  1  0
  1 29  1  0
  1 30  1  0
  2 31  1  0
  2 32  1  0
  3 33  1  0
  3 34  1  0
  4 35  1  0
  4 36  1  0
  5 37  1  0
  5 38  1  0
  6 39  1  0
  6 40  1  0
  7 41  1  0
  7 42  1  0
  8 43  1  0
  8 44  1  0
 10 45  1  0
 11 46  1  0
 13 47  1  0
 14 48  1  0
 15 49  1  1
 16 50  1  0
 16 51  1  0
 17 52  1  6
 18 53  1  0
 19 54  1  6
 20 55  1  0
 20 56  1  0
 21 57  1  0
 22 58  1  0
 22 59  1  0
 26 60  1  0
 27 61  1  0
M  END
>  <Ligand ID>  (1) 
LIG0004231

>  <Ligand>  (1) 
CHEMBL247699

>  <SMILES>  (1) 
CCCCCCCCc1ccc(cc1)[C@@H]1C[C@H](N[C@H]1CO)COP(=O)(O)O

>  <CID>  (1) 
44438260.0

>  <ChEMBL ID>  (1) 
nan

>  <InChiKey>  (1) 
DKHSWCUVNLYVPR-UFYCRDLUSA-N

>  <InChi>  (1) 
InChI=1S/C20H34NO5P/c1-2-3-4-5-6-7-8-16-9-11-17(12-10-16)19-13-18(21-20(19)14-22)15-26-27(23,24)25/h9-12,18-22H,2-8,13-15H2,1H3,(H2,23,24,25)/t18-,19-,20-/m0/s1

>  <IUPAC Name>  (1) 
[(2S,4S,5R)-5-(hydroxymethyl)-4-(4-octylphenyl)pyrrolidin-2-yl]methyl dihydrogen phosphate

$$$$
