
     RDKit          3D

 29 29  0  0  0  0  0  0  0  0999 V2000
    3.5104   -0.4823   -0.2661 C   0  0  0  0  0  0  0  0  0  0  0  0
    2.1197   -0.1946    0.2726 C   0  0  1  0  0  0  0  0  0  0  0  0
    1.6103    1.0130   -0.4705 C   0  0  0  0  0  0  0  0  0  0  0  0
    0.1662    1.2853   -0.2808 C   0  0  0  0  0  0  0  0  0  0  0  0
   -0.7150    0.0886   -0.4737 C   0  0  1  0  0  0  0  0  0  0  0  0
   -0.1209   -1.0315    0.3079 C   0  0  0  0  0  0  0  0  0  0  0  0
   -0.7243   -1.6349    1.1821 O   0  0  0  0  0  0  0  0  0  0  0  0
    1.2862   -1.4270   -0.0039 C   0  0  0  0  0  0  0  0  0  0  0  0
   -2.1324    0.3743   -0.0896 C   0  0  0  0  0  0  0  0  0  0  0  0
   -3.0729   -0.7936   -0.2594 C   0  0  0  0  0  0  0  0  0  0  0  0
   -2.2870    0.8892    1.3232 C   0  0  0  0  0  0  0  0  0  0  0  0
    3.8642   -1.5019   -0.0274 H   0  0  0  0  0  0  0  0  0  0  0  0
    4.1907    0.2962    0.1350 H   0  0  0  0  0  0  0  0  0  0  0  0
    3.5523   -0.4049   -1.3727 H   0  0  0  0  0  0  0  0  0  0  0  0
    2.1898   -0.0616    1.3535 H   0  0  0  0  0  0  0  0  0  0  0  0
    1.9393    0.9840   -1.5243 H   0  0  0  0  0  0  0  0  0  0  0  0
    2.1687    1.8849   -0.0217 H   0  0  0  0  0  0  0  0  0  0  0  0
   -0.1334    2.0192   -1.0857 H   0  0  0  0  0  0  0  0  0  0  0  0
   -0.0386    1.8166    0.6722 H   0  0  0  0  0  0  0  0  0  0  0  0
   -0.7000   -0.1605   -1.5545 H   0  0  0  0  0  0  0  0  0  0  0  0
    1.3846   -1.7483   -1.0654 H   0  0  0  0  0  0  0  0  0  0  0  0
    1.6510   -2.2148    0.6816 H   0  0  0  0  0  0  0  0  0  0  0  0
   -2.5455    1.1778   -0.7527 H   0  0  0  0  0  0  0  0  0  0  0  0
   -4.1028   -0.3793   -0.2601 H   0  0  0  0  0  0  0  0  0  0  0  0
   -3.0336   -1.4999    0.6021 H   0  0  0  0  0  0  0  0  0  0  0  0
   -2.9364   -1.3192   -1.2237 H   0  0  0  0  0  0  0  0  0  0  0  0
   -1.6772    0.3160    2.0374 H   0  0  0  0  0  0  0  0  0  0  0  0
   -3.3705    0.7271    1.5975 H   0  0  0  0  0  0  0  0  0  0  0  0
   -2.0428    1.9820    1.3813 H   0  0  0  0  0  0  0  0  0  0  0  0
  1  2  1  0
  2  3  1  0
  3  4  1  0
  4  5  1  0
  5  6  1  0
  6  7  2  0
  6  8  1  0
  5  9  1  0
  9 10  1  0
  9 11  1  0
  8  2  1  0
  1 12  1  0
  1 13  1  0
  1 14  1  0
  2 15  1  1
  3 16  1  0
  3 17  1  0
  4 18  1  0
  4 19  1  0
  5 20  1  6
  8 21  1  0
  8 22  1  0
  9 23  1  0
 10 24  1  0
 10 25  1  0
 10 26  1  0
 11 27  1  0
 11 28  1  0
 11 29  1  0
M  END
>  <Ligand ID>  (1) 
LIG0000720

>  <Ligand>  (1) 
(+)-Menthone

>  <SMILES>  (1) 
C[C@H]1CC[C@@H](C(=O)C1)C(C)C

>  <CID>  (1) 
443159.0

>  <ChEMBL ID>  (1) 
nan

>  <InChiKey>  (1) 
NFLGAXVYCFJBMK-DTWKUNHWSA-N

>  <InChi>  (1) 
InChI=1S/C10H18O/c1-7(2)9-5-4-8(3)6-10(9)11/h7-9H,4-6H2,1-3H3/t8-,9+/m0/s1

>  <IUPAC Name>  (1) 
(2R,5S)-5-methyl-2-propan-2-ylcyclohexan-1-one

$$$$
