
     RDKit          3D

 55 59  0  0  0  0  0  0  0  0999 V2000
    8.0356    1.6565   -0.9470 C   0  0  0  0  0  0  0  0  0  0  0  0
    6.6534    1.7620   -1.1554 O   0  0  0  0  0  0  0  0  0  0  0  0
    5.7040    1.6194   -0.1568 C   0  0  0  0  0  0  0  0  0  0  0  0
    6.1007    1.3530    1.1433 C   0  0  0  0  0  0  0  0  0  0  0  0
    5.1218    1.2166    2.1208 C   0  0  0  0  0  0  0  0  0  0  0  0
    3.7762    1.3448    1.8038 C   0  0  0  0  0  0  0  0  0  0  0  0
    3.3695    1.6137    0.4943 C   0  0  0  0  0  0  0  0  0  0  0  0
    4.3719    1.7434   -0.4599 C   0  0  0  0  0  0  0  0  0  0  0  0
    1.9572    1.7584    0.1629 C   0  0  0  0  0  0  0  0  0  0  0  0
    1.2661    0.5365   -0.2736 C   0  0  0  0  0  0  0  0  0  0  0  0
    1.6601   -0.7410    0.0875 C   0  0  0  0  0  0  0  0  0  0  0  0
    0.9241   -1.7823   -0.3963 C   0  0  0  0  0  0  0  0  0  0  0  0
   -0.1278   -1.6114   -1.1786 N   0  0  0  0  0  0  0  0  0  0  0  0
   -0.5493   -0.3932   -1.5593 N   0  0  0  0  0  0  0  0  0  0  0  0
    0.1463    0.6596   -1.1063 C   0  0  0  0  0  0  0  0  0  0  0  0
   -0.2304    1.8192   -1.4521 O   0  0  0  0  0  0  0  0  0  0  0  0
   -1.6664   -0.2515   -2.4626 C   0  0  0  0  0  0  0  0  0  0  0  0
   -2.9526    0.0173   -1.8310 C   0  0  0  0  0  0  0  0  0  0  0  0
   -3.9565    0.0516   -2.6671 O   0  0  0  0  0  0  0  0  0  0  0  0
   -3.2770    0.2360   -0.5022 N   0  0  0  0  0  0  0  0  0  0  0  0
   -4.5216    0.5049    0.0942 C   0  0  0  0  0  0  0  0  0  0  0  0
   -4.6087    0.7201    1.4811 C   0  0  0  0  0  0  0  0  0  0  0  0
   -5.7774    0.9979    2.1219 C   0  0  0  0  0  0  0  0  0  0  0  0
   -6.9859    1.0930    1.4451 C   0  0  0  0  0  0  0  0  0  0  0  0
   -6.9241    0.8853    0.0809 C   0  0  0  0  0  0  0  0  0  0  0  0
   -5.7251    0.5991   -0.5738 C   0  0  0  0  0  0  0  0  0  0  0  0
   -8.2143    1.0218   -0.3746 O   0  0  0  0  0  0  0  0  0  0  0  0
   -9.1128    1.0217    0.7074 C   0  0  0  0  0  0  0  0  0  0  0  0
   -8.2899    1.3541    1.8098 O   0  0  0  0  0  0  0  0  0  0  0  0
    1.3912   -3.1342   -0.0527 C   0  0  0  0  0  0  0  0  0  0  0  0
    0.8338   -4.3640   -0.4167 C   0  0  0  0  0  0  0  0  0  0  0  0
    1.4698   -5.4588    0.0129 C   0  0  0  0  0  0  0  0  0  0  0  0
    2.5872   -5.3458    0.7570 C   0  0  0  0  0  0  0  0  0  0  0  0
    2.8425   -3.5148    0.9176 S   0  0  0  0  0  0  0  0  0  0  0  0
    8.3414    0.5890   -0.9596 H   0  0  0  0  0  0  0  0  0  0  0  0
    8.3352    2.1885   -0.0368 H   0  0  0  0  0  0  0  0  0  0  0  0
    8.5577    2.1655   -1.8046 H   0  0  0  0  0  0  0  0  0  0  0  0
    7.1391    1.2502    1.4232 H   0  0  0  0  0  0  0  0  0  0  0  0
    5.4668    1.0130    3.1400 H   0  0  0  0  0  0  0  0  0  0  0  0
    3.0648    1.2313    2.6014 H   0  0  0  0  0  0  0  0  0  0  0  0
    4.1021    1.9503   -1.4863 H   0  0  0  0  0  0  0  0  0  0  0  0
    1.8131    2.5262   -0.6386 H   0  0  0  0  0  0  0  0  0  0  0  0
    1.4335    2.1577    1.0718 H   0  0  0  0  0  0  0  0  0  0  0  0
    2.5295   -0.8709    0.7383 H   0  0  0  0  0  0  0  0  0  0  0  0
   -1.6874   -1.2435   -3.0280 H   0  0  0  0  0  0  0  0  0  0  0  0
   -1.3751    0.5304   -3.2001 H   0  0  0  0  0  0  0  0  0  0  0  0
   -2.4466    0.1997    0.1826 H   0  0  0  0  0  0  0  0  0  0  0  0
   -3.7056    0.6622    2.0813 H   0  0  0  0  0  0  0  0  0  0  0  0
   -5.8237    1.1660    3.1994 H   0  0  0  0  0  0  0  0  0  0  0  0
   -5.8040    0.4591   -1.6321 H   0  0  0  0  0  0  0  0  0  0  0  0
   -9.8613    1.8694    0.6222 H   0  0  0  0  0  0  0  0  0  0  0  0
   -9.6350    0.0467    0.8367 H   0  0  0  0  0  0  0  0  0  0  0  0
   -0.0863   -4.3582   -1.0295 H   0  0  0  0  0  0  0  0  0  0  0  0
    1.0796   -6.4886   -0.2411 H   0  0  0  0  0  0  0  0  0  0  0  0
    3.2704   -6.0328    1.2134 H   0  0  0  0  0  0  0  0  0  0  0  0
  1  2  1  0
  2  3  1  0
  3  4  2  0
  4  5  1  0
  5  6  2  0
  6  7  1  0
  7  8  2  0
  7  9  1  0
  9 10  1  0
 10 11  2  0
 11 12  1  0
 12 13  2  0
 13 14  1  0
 14 15  1  0
 15 16  2  0
 14 17  1  0
 17 18  1  0
 18 19  2  0
 18 20  1  0
 20 21  1  0
 21 22  2  0
 22 23  1  0
 23 24  2  0
 24 25  1  0
 25 26  2  0
 25 27  1  0
 27 28  1  0
 28 29  1  0
 12 30  1  0
 30 31  2  0
 31 32  1  0
 32 33  2  0
 33 34  1  0
  8  3  1  0
 15 10  1  0
 26 21  1  0
 34 30  1  0
 29 24  1  0
  1 35  1  0
  1 36  1  0
  1 37  1  0
  4 38  1  0
  5 39  1  0
  6 40  1  0
  8 41  1  0
  9 42  1  0
  9 43  1  0
 11 44  1  0
 17 45  1  0
 17 46  1  0
 20 47  1  0
 22 48  1  0
 23 49  1  0
 26 50  1  0
 28 51  1  0
 28 52  1  0
 31 53  1  0
 32 54  1  0
 33 55  1  0
M  END
>  <Ligand ID>  (1) 
LIG0004849

>  <Ligand>  (1) 
CHEMBL2391262

>  <SMILES>  (1) 
COc1cccc(c1)Cc1cc(nn(c1=O)CC(=O)Nc1ccc2c(c1)OCO2)c1cccs1

>  <CID>  (1) 
71698622.0

>  <ChEMBL ID>  (1) 
nan

>  <InChiKey>  (1) 
XYHVOCYINSAYHT-UHFFFAOYSA-N

>  <InChi>  (1) 
InChI=1S/C25H21N3O5S/c1-31-19-5-2-4-16(11-19)10-17-12-20(23-6-3-9-34-23)27-28(25(17)30)14-24(29)26-18-7-8-21-22(13-18)33-15-32-21/h2-9,11-13H,10,14-15H2,1H3,(H,26,29)

>  <IUPAC Name>  (1) 
N-(1,3-benzodioxol-5-yl)-2-[5-[(3-methoxyphenyl)methyl]-6-oxo-3-thiophen-2-ylpyridazin-1-yl]acetamide

$$$$
