
     RDKit          3D

 63 64  0  0  0  0  0  0  0  0999 V2000
   -7.0892   -2.5367    2.0205 O   0  0  0  0  0  0  0  0  0  0  0  0
   -7.6358   -2.1350    0.8152 C   0  0  0  0  0  0  0  0  0  0  0  0
   -8.5750   -2.8348    0.3319 O   0  0  0  0  0  0  0  0  0  0  0  0
   -7.2051   -0.9530    0.0538 C   0  0  0  0  0  0  0  0  0  0  0  0
   -6.0787   -0.2179    0.7522 C   0  0  0  0  0  0  0  0  0  0  0  0
   -5.7124    0.9773   -0.1124 C   0  0  0  0  0  0  0  0  0  0  0  0
   -4.6151    1.7472    0.5066 C   0  0  0  0  0  0  0  0  0  0  0  0
   -3.4329    1.9677   -0.0463 C   0  0  0  0  0  0  0  0  0  0  0  0
   -3.0095    1.4831   -1.3731 C   0  0  0  0  0  0  0  0  0  0  0  0
   -1.7825    0.5927   -1.1584 C   0  0  1  0  0  0  0  0  0  0  0  0
   -1.3180    0.0714   -2.5148 C   0  0  1  0  0  0  0  0  0  0  0  0
   -2.4433   -0.2661   -3.2934 O   0  0  0  0  0  0  0  0  0  0  0  0
   -0.6778    1.3102   -3.0890 C   0  0  0  0  0  0  0  0  0  0  0  0
   -0.2214    2.1622   -1.9343 C   0  0  2  0  0  0  0  0  0  0  0  0
   -0.6112    1.3980   -0.6870 C   0  0  2  0  0  0  0  0  0  0  0  0
    0.5318    0.4520   -0.4325 C   0  0  0  0  0  0  0  0  0  0  0  0
    1.0624    0.3659    0.7762 C   0  0  0  0  0  0  0  0  0  0  0  0
    2.1989   -0.5745    1.0298 C   0  0  2  0  0  0  0  0  0  0  0  0
    2.8752   -0.3177    2.3266 C   0  0  0  0  0  0  0  0  0  0  0  0
    4.0016   -1.2813    2.5710 C   0  0  0  0  0  0  0  0  0  0  0  0
    5.0623   -1.2385    1.5526 C   0  0  0  0  0  0  0  0  0  0  0  0
    5.1137   -2.0409    0.4339 C   0  0  0  0  0  0  0  0  0  0  0  0
    6.1602   -1.9090   -0.4517 C   0  0  0  0  0  0  0  0  0  0  0  0
    7.1828   -1.0076   -0.2899 C   0  0  0  0  0  0  0  0  0  0  0  0
    7.1304   -0.2005    0.8362 C   0  0  0  0  0  0  0  0  0  0  0  0
    6.0917   -0.3154    1.7364 C   0  0  0  0  0  0  0  0  0  0  0  0
    8.1775    0.8188    1.1298 C   0  0  0  0  0  0  0  0  0  0  0  0
    9.1644    0.8126    0.1645 F   0  0  0  0  0  0  0  0  0  0  0  0
    8.8133    0.4971    2.3278 F   0  0  0  0  0  0  0  0  0  0  0  0
    7.6235    2.0692    1.1755 F   0  0  0  0  0  0  0  0  0  0  0  0
    3.1235   -0.2740   -0.0038 O   0  0  0  0  0  0  0  0  0  0  0  0
   -0.6719    3.4605   -1.9649 O   0  0  0  0  0  0  0  0  0  0  0  0
   -7.6304   -3.0595    2.7131 H   0  0  0  0  0  0  0  0  0  0  0  0
   -6.8745   -1.1895   -0.9638 H   0  0  0  0  0  0  0  0  0  0  0  0
   -8.0531   -0.2427   -0.0431 H   0  0  0  0  0  0  0  0  0  0  0  0
   -5.2314   -0.8779    0.9598 H   0  0  0  0  0  0  0  0  0  0  0  0
   -6.5082    0.1933    1.6939 H   0  0  0  0  0  0  0  0  0  0  0  0
   -6.6180    1.6523   -0.0453 H   0  0  0  0  0  0  0  0  0  0  0  0
   -5.6050    0.7533   -1.1700 H   0  0  0  0  0  0  0  0  0  0  0  0
   -4.7984    2.1632    1.4940 H   0  0  0  0  0  0  0  0  0  0  0  0
   -2.7049    2.5567    0.5186 H   0  0  0  0  0  0  0  0  0  0  0  0
   -3.7264    0.8638   -1.9090 H   0  0  0  0  0  0  0  0  0  0  0  0
   -2.7172    2.3340   -2.0512 H   0  0  0  0  0  0  0  0  0  0  0  0
   -1.9995   -0.2343   -0.4830 H   0  0  0  0  0  0  0  0  0  0  0  0
   -0.6457   -0.7686   -2.3506 H   0  0  0  0  0  0  0  0  0  0  0  0
   -2.9475   -0.9950   -2.8401 H   0  0  0  0  0  0  0  0  0  0  0  0
   -1.4191    1.8902   -3.6830 H   0  0  0  0  0  0  0  0  0  0  0  0
    0.1300    1.0201   -3.7681 H   0  0  0  0  0  0  0  0  0  0  0  0
    0.8956    2.2273   -2.0160 H   0  0  0  0  0  0  0  0  0  0  0  0
   -0.7744    2.0118    0.1955 H   0  0  0  0  0  0  0  0  0  0  0  0
    0.9422   -0.1716   -1.2188 H   0  0  0  0  0  0  0  0  0  0  0  0
    0.6610    0.9894    1.5870 H   0  0  0  0  0  0  0  0  0  0  0  0
    1.9461   -1.6271    0.9356 H   0  0  0  0  0  0  0  0  0  0  0  0
    2.1818   -0.3462    3.1927 H   0  0  0  0  0  0  0  0  0  0  0  0
    3.3500    0.7066    2.3570 H   0  0  0  0  0  0  0  0  0  0  0  0
    4.4351   -1.1258    3.6053 H   0  0  0  0  0  0  0  0  0  0  0  0
    3.5674   -2.3230    2.5431 H   0  0  0  0  0  0  0  0  0  0  0  0
    4.3155   -2.7570    0.2909 H   0  0  0  0  0  0  0  0  0  0  0  0
    6.1895   -2.5413   -1.3221 H   0  0  0  0  0  0  0  0  0  0  0  0
    7.9944   -0.9152   -0.9898 H   0  0  0  0  0  0  0  0  0  0  0  0
    6.0712    0.3350    2.6219 H   0  0  0  0  0  0  0  0  0  0  0  0
    3.1216    0.7075   -0.1263 H   0  0  0  0  0  0  0  0  0  0  0  0
   -0.7813    3.7147   -2.9174 H   0  0  0  0  0  0  0  0  0  0  0  0
  1  2  1  0
  2  3  2  0
  2  4  1  0
  4  5  1  0
  5  6  1  0
  6  7  1  0
  7  8  2  0
  8  9  1  0
  9 10  1  0
 10 11  1  0
 11 12  1  0
 11 13  1  0
 13 14  1  0
 14 15  1  0
 15 16  1  0
 16 17  2  0
 17 18  1  0
 18 19  1  0
 19 20  1  0
 20 21  1  0
 21 22  2  0
 22 23  1  0
 23 24  2  0
 24 25  1  0
 25 26  2  0
 25 27  1  0
 27 28  1  0
 27 29  1  0
 27 30  1  0
 18 31  1  0
 14 32  1  0
 15 10  1  0
 26 21  1  0
  1 33  1  0
  4 34  1  0
  4 35  1  0
  5 36  1  0
  5 37  1  0
  6 38  1  0
  6 39  1  0
  7 40  1  0
  8 41  1  0
  9 42  1  0
  9 43  1  0
 10 44  1  1
 11 45  1  1
 12 46  1  0
 13 47  1  0
 13 48  1  0
 14 49  1  6
 15 50  1  1
 16 51  1  0
 17 52  1  0
 18 53  1  1
 19 54  1  0
 19 55  1  0
 20 56  1  0
 20 57  1  0
 22 58  1  0
 23 59  1  0
 24 60  1  0
 26 61  1  0
 31 62  1  0
 32 63  1  0
M  END
>  <Ligand ID>  (1) 
LIG0001179

>  <Ligand>  (1) 
CHEMBL287080

>  <SMILES>  (1) 
OC(=O)CCC/C=C\C[C@H]1[C@@H](O)C[C@H]([C@@H]1/C=C/[C@H](CCc1cccc(c1)C(F)(F)F)O)O

>  <CID>  (1) 
9825293.0

>  <ChEMBL ID>  (1) 
nan

>  <InChiKey>  (1) 
CMLNDCUXASGBMQ-NQUQXYBYSA-N

>  <InChi>  (1) 
InChI=1S/C24H31F3O5/c25-24(26,27)17-7-5-6-16(14-17)10-11-18(28)12-13-20-19(21(29)15-22(20)30)8-3-1-2-4-9-23(31)32/h1,3,5-7,12-14,18-22,28-30H,2,4,8-11,15H2,(H,31,32)/b3-1-,13-12+/t18-,19+,20+,21-,22+/m0/s1

>  <IUPAC Name>  (1) 
(Z)-7-[(1R,2R,3R,5S)-3,5-dihydroxy-2-[(E,3S)-3-hydroxy-5-[3-(trifluoromethyl)phenyl]pent-1-enyl]cyclopentyl]hept-5-enoic acid

$$$$
