
     RDKit          3D

 24 25  0  0  0  0  0  0  0  0999 V2000
    3.9133    0.0247   -0.7874 N   0  0  0  0  0  0  0  0  0  0  0  0
    2.7289    0.7787   -0.9422 C   0  0  0  0  0  0  0  0  0  0  0  0
    1.4662   -0.0487   -0.6814 C   0  0  1  0  0  0  0  0  0  0  0  0
    1.3535   -0.6409    0.6751 C   0  0  0  0  0  0  0  0  0  0  0  0
    0.4735    0.5165    0.3081 C   0  0  2  0  0  0  0  0  0  0  0  0
   -0.9659    0.1835    0.1818 C   0  0  0  0  0  0  0  0  0  0  0  0
   -1.4071   -1.0125   -0.3291 C   0  0  0  0  0  0  0  0  0  0  0  0
   -2.7411   -1.3456   -0.4567 C   0  0  0  0  0  0  0  0  0  0  0  0
   -3.6615   -0.4050   -0.0395 C   0  0  0  0  0  0  0  0  0  0  0  0
   -3.2900    0.8126    0.4816 C   0  0  0  0  0  0  0  0  0  0  0  0
   -1.9344    1.0936    0.5865 C   0  0  0  0  0  0  0  0  0  0  0  0
   -4.2044    1.7322    0.8897 F   0  0  0  0  0  0  0  0  0  0  0  0
   -5.0026   -0.6770   -0.1406 F   0  0  0  0  0  0  0  0  0  0  0  0
    4.4713    0.1840    0.0564 H   0  0  0  0  0  0  0  0  0  0  0  0
    3.9446   -0.9039   -1.2041 H   0  0  0  0  0  0  0  0  0  0  0  0
    2.7772    1.6681   -0.2804 H   0  0  0  0  0  0  0  0  0  0  0  0
    2.6814    1.1736   -1.9794 H   0  0  0  0  0  0  0  0  0  0  0  0
    1.0569   -0.5750   -1.5682 H   0  0  0  0  0  0  0  0  0  0  0  0
    0.8972   -1.6638    0.7152 H   0  0  0  0  0  0  0  0  0  0  0  0
    2.1366   -0.4047    1.4244 H   0  0  0  0  0  0  0  0  0  0  0  0
    0.7002    1.5166    0.7371 H   0  0  0  0  0  0  0  0  0  0  0  0
   -0.6805   -1.7603   -0.6607 H   0  0  0  0  0  0  0  0  0  0  0  0
   -3.0421   -2.3123   -0.8704 H   0  0  0  0  0  0  0  0  0  0  0  0
   -1.6712    2.0657    1.0029 H   0  0  0  0  0  0  0  0  0  0  0  0
  1  2  1  0
  2  3  1  0
  3  4  1  0
  4  5  1  0
  5  6  1  0
  6  7  2  0
  7  8  1  0
  8  9  2  0
  9 10  1  0
 10 11  2  0
 10 12  1  0
  9 13  1  0
  5  3  1  0
 11  6  1  0
  1 14  1  0
  1 15  1  0
  2 16  1  0
  2 17  1  0
  3 18  1  6
  4 19  1  0
  4 20  1  0
  5 21  1  1
  7 22  1  0
  8 23  1  0
 11 24  1  0
M  END
>  <Ligand ID>  (1) 
LIG0002368

>  <Ligand>  (1) 
CHEMBL492306

>  <SMILES>  (1) 
NC[C@H]1C[C@@H]1c1ccc(c(c1)F)F

>  <CID>  (1) 
44573018.0

>  <ChEMBL ID>  (1) 
nan

>  <InChiKey>  (1) 
TYTVBWPXIREWOF-HTQZYQBOSA-N

>  <InChi>  (1) 
InChI=1S/C10H11F2N/c11-9-2-1-6(4-10(9)12)8-3-7(8)5-13/h1-2,4,7-8H,3,5,13H2/t7-,8-/m1/s1

>  <IUPAC Name>  (1) 
[(1S,2S)-2-(3,4-difluorophenyl)cyclopropyl]methanamine

$$$$
