
     RDKit          3D

 18 18  0  0  0  0  0  0  0  0999 V2000
    3.4591    0.2764    0.3050 C   0  0  0  0  0  0  0  0  0  0  0  0
    1.9938    0.3123    0.5481 C   0  0  0  0  0  0  0  0  0  0  0  0
    1.4999    0.7882    1.6279 O   0  0  0  0  0  0  0  0  0  0  0  0
    1.1705   -0.1992   -0.4590 O   0  0  0  0  0  0  0  0  0  0  0  0
   -0.2199   -0.1869   -0.2752 C   0  0  0  0  0  0  0  0  0  0  0  0
   -0.9442    0.9138   -0.6960 C   0  0  0  0  0  0  0  0  0  0  0  0
   -2.3097    0.9260   -0.5156 C   0  0  0  0  0  0  0  0  0  0  0  0
   -2.9463   -0.1648    0.0861 C   0  0  0  0  0  0  0  0  0  0  0  0
   -2.1952   -1.2664    0.5036 C   0  0  0  0  0  0  0  0  0  0  0  0
   -0.8097   -1.2826    0.3223 C   0  0  0  0  0  0  0  0  0  0  0  0
    3.7263    0.5504   -0.7530 H   0  0  0  0  0  0  0  0  0  0  0  0
    3.9047   -0.7248    0.5135 H   0  0  0  0  0  0  0  0  0  0  0  0
    3.9264    0.9825    1.0160 H   0  0  0  0  0  0  0  0  0  0  0  0
   -0.3934    1.7204   -1.1518 H   0  0  0  0  0  0  0  0  0  0  0  0
   -2.8935    1.7955   -0.8464 H   0  0  0  0  0  0  0  0  0  0  0  0
   -4.0373   -0.1634    0.2341 H   0  0  0  0  0  0  0  0  0  0  0  0
   -2.6942   -2.1263    0.9775 H   0  0  0  0  0  0  0  0  0  0  0  0
   -0.2374   -2.1510    0.6542 H   0  0  0  0  0  0  0  0  0  0  0  0
  1  2  1  0
  2  3  2  0
  2  4  1  0
  4  5  1  0
  5  6  2  0
  6  7  1  0
  7  8  2  0
  8  9  1  0
  9 10  2  0
 10  5  1  0
  1 11  1  0
  1 12  1  0
  1 13  1  0
  6 14  1  0
  7 15  1  0
  8 16  1  0
  9 17  1  0
 10 18  1  0
M  END
>  <Ligand ID>  (1) 
LIG0000113

>  <Ligand>  (1) 
Phenyl acetate

>  <SMILES>  (1) 
CC(=O)Oc1ccccc1

>  <CID>  (1) 
31229.0

>  <ChEMBL ID>  (1) 
nan

>  <InChiKey>  (1) 
IPBVNPXQWQGGJP-UHFFFAOYSA-N

>  <InChi>  (1) 
InChI=1S/C8H8O2/c1-7(9)10-8-5-3-2-4-6-8/h2-6H,1H3

>  <IUPAC Name>  (1) 
phenyl acetate

$$$$
