
     RDKit          3D

 48 50  0  0  0  0  0  0  0  0999 V2000
    0.3442   -1.1009   -1.8787 C   0  0  0  0  0  0  0  0  0  0  0  0
   -0.5196   -1.2109   -0.6274 C   0  0  2  0  0  0  0  0  0  0  0  0
   -1.8062   -0.5075   -0.9788 C   0  0  0  0  0  0  0  0  0  0  0  0
   -2.8551   -0.5021    0.0461 C   0  0  0  0  0  0  0  0  0  0  0  0
   -2.8923   -1.3470    1.1281 C   0  0  0  0  0  0  0  0  0  0  0  0
   -3.9434   -1.2752    2.0560 C   0  0  0  0  0  0  0  0  0  0  0  0
   -4.9359   -0.3677    1.8885 C   0  0  0  0  0  0  0  0  0  0  0  0
   -4.9264    0.4868    0.8153 C   0  0  0  0  0  0  0  0  0  0  0  0
   -3.8825    0.4252   -0.1160 C   0  0  0  0  0  0  0  0  0  0  0  0
   -3.9094    1.2948   -1.2021 C   0  0  0  0  0  0  0  0  0  0  0  0
   -4.9434    2.1908   -1.3453 C   0  0  0  0  0  0  0  0  0  0  0  0
   -5.9866    2.2719   -0.4401 C   0  0  0  0  0  0  0  0  0  0  0  0
   -5.9478    1.4080    0.6260 C   0  0  0  0  0  0  0  0  0  0  0  0
    0.0682   -0.6795    0.5450 N   0  0  0  0  0  0  0  0  0  0  0  0
    1.2756    0.0224    0.5185 C   0  0  0  0  0  0  0  0  0  0  0  0
    2.4434   -0.8651    0.3184 C   0  0  1  0  0  0  0  0  0  0  0  0
    3.7524   -0.1769    0.2410 C   0  0  0  0  0  0  0  0  0  0  0  0
    4.8839   -0.9507    0.2714 C   0  0  0  0  0  0  0  0  0  0  0  0
    6.1348   -0.4222    0.1959 C   0  0  0  0  0  0  0  0  0  0  0  0
    7.2639   -1.2443    0.2271 O   0  0  0  0  0  0  0  0  0  0  0  0
    6.2767    0.9342    0.0870 C   0  0  0  0  0  0  0  0  0  0  0  0
    5.1508    1.7444    0.0548 C   0  0  0  0  0  0  0  0  0  0  0  0
    3.8866    1.1899    0.1320 C   0  0  0  0  0  0  0  0  0  0  0  0
    5.3633    3.1027   -0.0581 O   0  0  0  0  0  0  0  0  0  0  0  0
    2.5078   -1.7523    1.4265 O   0  0  0  0  0  0  0  0  0  0  0  0
   -0.3896   -0.9086   -2.7388 H   0  0  0  0  0  0  0  0  0  0  0  0
    0.8022   -2.0539   -2.1804 H   0  0  0  0  0  0  0  0  0  0  0  0
    0.9727   -0.2136   -1.8880 H   0  0  0  0  0  0  0  0  0  0  0  0
   -0.7328   -2.2837   -0.4743 H   0  0  0  0  0  0  0  0  0  0  0  0
   -2.2184   -0.8320   -1.9841 H   0  0  0  0  0  0  0  0  0  0  0  0
   -1.5375    0.5826   -1.1690 H   0  0  0  0  0  0  0  0  0  0  0  0
   -2.1670   -2.1016    1.3244 H   0  0  0  0  0  0  0  0  0  0  0  0
   -3.9593   -1.9586    2.9212 H   0  0  0  0  0  0  0  0  0  0  0  0
   -5.7301   -0.3502    2.6332 H   0  0  0  0  0  0  0  0  0  0  0  0
   -3.1504    1.3072   -1.9627 H   0  0  0  0  0  0  0  0  0  0  0  0
   -4.9456    2.8653   -2.2003 H   0  0  0  0  0  0  0  0  0  0  0  0
   -6.7877    2.9664   -0.5574 H   0  0  0  0  0  0  0  0  0  0  0  0
   -6.7705    1.4728    1.3317 H   0  0  0  0  0  0  0  0  0  0  0  0
   -0.0723   -1.2539    1.4117 H   0  0  0  0  0  0  0  0  0  0  0  0
    1.2173    0.8639   -0.2252 H   0  0  0  0  0  0  0  0  0  0  0  0
    1.3472    0.5911    1.5007 H   0  0  0  0  0  0  0  0  0  0  0  0
    2.3693   -1.4682   -0.6021 H   0  0  0  0  0  0  0  0  0  0  0  0
    4.8069   -2.0440    0.3549 H   0  0  0  0  0  0  0  0  0  0  0  0
    7.1674   -2.1598   -0.2310 H   0  0  0  0  0  0  0  0  0  0  0  0
    7.2874    1.3341    0.0267 H   0  0  0  0  0  0  0  0  0  0  0  0
    3.0143    1.7964    0.1131 H   0  0  0  0  0  0  0  0  0  0  0  0
    4.6654    3.7542   -0.3951 H   0  0  0  0  0  0  0  0  0  0  0  0
    2.0082   -2.5746    1.2864 H   0  0  0  0  0  0  0  0  0  0  0  0
  1  2  1  0
  2  3  1  0
  3  4  1  0
  4  5  2  0
  5  6  1  0
  6  7  2  0
  7  8  1  0
  8  9  2  0
  9 10  1  0
 10 11  2  0
 11 12  1  0
 12 13  2  0
  2 14  1  0
 14 15  1  0
 15 16  1  0
 16 17  1  0
 17 18  2  0
 18 19  1  0
 19 20  1  0
 19 21  2  0
 21 22  1  0
 22 23  2  0
 22 24  1  0
 16 25  1  0
  9  4  1  0
 23 17  1  0
 13  8  1  0
  1 26  1  0
  1 27  1  0
  1 28  1  0
  2 29  1  1
  3 30  1  0
  3 31  1  0
  5 32  1  0
  6 33  1  0
  7 34  1  0
 10 35  1  0
 11 36  1  0
 12 37  1  0
 13 38  1  0
 14 39  1  0
 15 40  1  0
 15 41  1  0
 16 42  1  6
 18 43  1  0
 20 44  1  0
 21 45  1  0
 23 46  1  0
 24 47  1  0
 25 48  1  0
M  END
>  <Ligand ID>  (1) 
LIG0005463

>  <Ligand>  (1) 
CHEMBL229401

>  <SMILES>  (1) 
C[C@H](Cc1cccc2c1cccc2)NC[C@@H](c1cc(O)cc(c1)O)O

>  <CID>  (1) 
16735495.0

>  <ChEMBL ID>  (1) 
nan

>  <InChiKey>  (1) 
QGUPDXLZKDANGO-SZNDQCEHSA-N

>  <InChi>  (1) 
InChI=1S/C21H23NO3/c1-14(9-16-7-4-6-15-5-2-3-8-20(15)16)22-13-21(25)17-10-18(23)12-19(24)11-17/h2-8,10-12,14,21-25H,9,13H2,1H3/t14-,21+/m1/s1

>  <IUPAC Name>  (1) 
5-[(1R)-1-hydroxy-2-[[(2R)-1-naphthalen-1-ylpropan-2-yl]amino]ethyl]benzene-1,3-diol

$$$$
