
     RDKit          3D

 41 44  0  0  0  0  0  0  0  0999 V2000
    5.7885   -1.1910   -1.6313 F   0  0  0  0  0  0  0  0  0  0  0  0
    5.1371   -0.9763   -0.4410 C   0  0  0  0  0  0  0  0  0  0  0  0
    5.6929   -1.4744    0.7263 C   0  0  0  0  0  0  0  0  0  0  0  0
    5.0403   -1.2629    1.9436 C   0  0  0  0  0  0  0  0  0  0  0  0
    3.8689   -0.5648    1.9219 C   0  0  0  0  0  0  0  0  0  0  0  0
    3.2858   -0.0539    0.7789 C   0  0  0  0  0  0  0  0  0  0  0  0
    3.9332   -0.2659   -0.4150 C   0  0  0  0  0  0  0  0  0  0  0  0
    3.4417    0.2217   -1.7262 C   0  0  0  0  0  0  0  0  0  0  0  0
    1.8286    0.9917   -1.6417 S   0  0  0  0  0  0  0  0  0  0  0  0
    0.5658   -0.2210   -1.2317 C   0  0  0  0  0  0  0  0  0  0  0  0
    0.7970   -1.5289   -1.0193 N   0  0  0  0  0  0  0  0  0  0  0  0
   -0.3823   -2.1029   -0.7421 N   0  0  0  0  0  0  0  0  0  0  0  0
   -1.3379   -1.1283   -0.7879 C   0  0  0  0  0  0  0  0  0  0  0  0
   -0.7595    0.0479   -1.0918 N   0  0  0  0  0  0  0  0  0  0  0  0
   -1.3108    1.3568   -1.2563 C   0  0  0  0  0  0  0  0  0  0  0  0
   -1.3462    2.1423   -0.0343 C   0  0  0  0  0  0  0  0  0  0  0  0
   -2.3136    2.2987    0.9267 C   0  0  0  0  0  0  0  0  0  0  0  0
   -2.0866    3.0900    1.9684 C   0  0  0  0  0  0  0  0  0  0  0  0
   -0.8661    3.7393    2.0515 C   0  0  0  0  0  0  0  0  0  0  0  0
    0.0312    3.1879    0.5381 S   0  0  0  0  0  0  0  0  0  0  0  0
   -2.7644   -1.3204   -0.5486 C   0  0  0  0  0  0  0  0  0  0  0  0
   -3.5985   -1.7704   -1.5683 C   0  0  0  0  0  0  0  0  0  0  0  0
   -4.9421   -1.9273   -1.2547 C   0  0  0  0  0  0  0  0  0  0  0  0
   -5.4265   -1.6466    0.0204 C   0  0  0  0  0  0  0  0  0  0  0  0
   -4.5259   -1.2086    0.9566 C   0  0  0  0  0  0  0  0  0  0  0  0
   -3.2192   -1.0455    0.6873 N   0  0  0  0  0  0  0  0  0  0  0  0
    2.1228    0.6393    0.7976 F   0  0  0  0  0  0  0  0  0  0  0  0
    6.6200   -2.0152    0.6673 H   0  0  0  0  0  0  0  0  0  0  0  0
    5.5134   -1.6690    2.8167 H   0  0  0  0  0  0  0  0  0  0  0  0
    3.3489   -0.3897    2.8470 H   0  0  0  0  0  0  0  0  0  0  0  0
    3.4828   -0.5973   -2.5053 H   0  0  0  0  0  0  0  0  0  0  0  0
    4.1846    1.0092   -2.0397 H   0  0  0  0  0  0  0  0  0  0  0  0
   -0.7142    1.9478   -2.0114 H   0  0  0  0  0  0  0  0  0  0  0  0
   -2.3387    1.2949   -1.6672 H   0  0  0  0  0  0  0  0  0  0  0  0
   -3.2802    1.7448    0.7963 H   0  0  0  0  0  0  0  0  0  0  0  0
   -2.8257    3.2599    2.7825 H   0  0  0  0  0  0  0  0  0  0  0  0
   -0.4471    4.4123    2.7675 H   0  0  0  0  0  0  0  0  0  0  0  0
   -3.2153   -1.9891   -2.5630 H   0  0  0  0  0  0  0  0  0  0  0  0
   -5.6062   -2.2771   -2.0363 H   0  0  0  0  0  0  0  0  0  0  0  0
   -6.4670   -1.7698    0.2583 H   0  0  0  0  0  0  0  0  0  0  0  0
   -4.9095   -0.9882    1.9601 H   0  0  0  0  0  0  0  0  0  0  0  0
  1  2  1  0
  2  3  2  0
  3  4  1  0
  4  5  2  0
  5  6  1  0
  6  7  2  0
  7  8  1  0
  8  9  1  0
  9 10  1  0
 10 11  2  0
 11 12  1  0
 12 13  2  0
 13 14  1  0
 14 15  1  0
 15 16  1  0
 16 17  2  0
 17 18  1  0
 18 19  2  0
 19 20  1  0
 13 21  1  0
 21 22  2  0
 22 23  1  0
 23 24  2  0
 24 25  1  0
 25 26  2  0
  6 27  1  0
  7  2  1  0
 14 10  1  0
 20 16  1  0
 26 21  1  0
  3 28  1  0
  4 29  1  0
  5 30  1  0
  8 31  1  0
  8 32  1  0
 15 33  1  0
 15 34  1  0
 17 35  1  0
 18 36  1  0
 19 37  1  0
 22 38  1  0
 23 39  1  0
 24 40  1  0
 25 41  1  0
M  END
>  <Ligand ID>  (1) 
LIG0002774

>  <Ligand>  (1) 
KUC104202N

>  <SMILES>  (1) 
Fc1cccc(c1CSc1nnc(n1Cc1cccs1)c1ccccn1)F

>  <CID>  (1) 
44620936.0

>  <ChEMBL ID>  (1) 
nan

>  <InChiKey>  (1) 
KHZUAMJYYMJLCV-UHFFFAOYSA-N

>  <InChi>  (1) 
InChI=1S/C19H14F2N4S2/c20-15-6-3-7-16(21)14(15)12-27-19-24-23-18(17-8-1-2-9-22-17)25(19)11-13-5-4-10-26-13/h1-10H,11-12H2

>  <IUPAC Name>  (1) 
2-[5-[(2,6-difluorophenyl)methylsulfanyl]-4-(thiophen-2-ylmethyl)-1,2,4-triazol-3-yl]pyridine

$$$$
