
     RDKit          3D

 68 73  0  0  0  0  0  0  0  0999 V2000
   11.2923    0.6887   -0.4739 F   0  0  0  0  0  0  0  0  0  0  0  0
    9.9470    0.7811   -0.2964 C   0  0  0  0  0  0  0  0  0  0  0  0
    9.3615    0.5661    0.9465 C   0  0  0  0  0  0  0  0  0  0  0  0
    7.9749    0.6726    1.0851 C   0  0  0  0  0  0  0  0  0  0  0  0
    7.1847    0.9944   -0.0216 C   0  0  0  0  0  0  0  0  0  0  0  0
    7.7723    1.2103   -1.2732 C   0  0  0  0  0  0  0  0  0  0  0  0
    9.1539    1.1013   -1.3990 C   0  0  0  0  0  0  0  0  0  0  0  0
    5.7750    1.1317    0.1620 N   0  0  0  0  0  0  0  0  0  0  0  0
    5.3003    1.6367    1.4142 C   0  0  0  0  0  0  0  0  0  0  0  0
    4.3616    0.6207    2.0086 C   0  0  0  0  0  0  0  0  0  0  0  0
    3.3806    0.1499    1.0111 N   0  0  0  0  0  0  0  0  0  0  0  0
    3.4712    0.4880   -0.3820 C   0  0  0  0  0  0  0  0  0  0  0  0
    4.8445    0.7595   -0.8848 C   0  0  0  0  0  0  0  0  0  0  0  0
    2.3431   -0.6565    1.5634 C   0  0  0  0  0  0  0  0  0  0  0  0
    2.3634   -0.8655    2.7936 O   0  0  0  0  0  0  0  0  0  0  0  0
    1.2707   -1.2330    0.6940 C   0  0  0  0  0  0  0  0  0  0  0  0
    1.4890   -2.5259   -0.4507 S   0  0  0  0  0  0  0  0  0  0  0  0
   -0.1714   -2.5462   -0.9360 C   0  0  0  0  0  0  0  0  0  0  0  0
   -0.8200   -1.5867   -0.2221 C   0  0  0  0  0  0  0  0  0  0  0  0
   -0.0561   -0.8841    0.6457 C   0  0  0  0  0  0  0  0  0  0  0  0
   -0.5083    0.2714    1.5435 C   0  0  0  0  0  0  0  0  0  0  0  0
   -2.1935   -1.4901   -0.5232 C   0  0  0  0  0  0  0  0  0  0  0  0
   -2.7444   -2.3104   -1.4517 N   0  0  0  0  0  0  0  0  0  0  0  0
   -2.0964   -3.2309   -2.1296 C   0  0  0  0  0  0  0  0  0  0  0  0
   -0.7614   -3.3556   -1.8636 N   0  0  0  0  0  0  0  0  0  0  0  0
   -2.6950   -4.1397   -3.1378 C   0  0  0  0  0  0  0  0  0  0  0  0
   -3.1057   -0.6234    0.1165 N   0  0  0  0  0  0  0  0  0  0  0  0
   -3.8786   -1.1787    1.2427 C   0  0  0  0  0  0  0  0  0  0  0  0
   -5.3547   -0.8376    1.0544 C   0  0  0  0  0  0  0  0  0  0  0  0
   -5.5228    0.5445    0.6466 N   0  0  0  0  0  0  0  0  0  0  0  0
   -4.3662    1.4309    0.5636 C   0  0  0  0  0  0  0  0  0  0  0  0
   -3.3374    0.7544   -0.2910 C   0  0  0  0  0  0  0  0  0  0  0  0
   -6.8277    0.9985    0.3427 C   0  0  0  0  0  0  0  0  0  0  0  0
   -7.9168    0.1945    0.5389 C   0  0  0  0  0  0  0  0  0  0  0  0
   -9.1993    0.6083    0.2518 C   0  0  0  0  0  0  0  0  0  0  0  0
   -9.4084    1.8753   -0.2513 C   0  0  0  0  0  0  0  0  0  0  0  0
   -8.2860    2.6803   -0.4450 C   0  0  0  0  0  0  0  0  0  0  0  0
   -7.0397    2.2320   -0.1487 N   0  0  0  0  0  0  0  0  0  0  0  0
    9.9968    0.3184    1.7928 H   0  0  0  0  0  0  0  0  0  0  0  0
    7.5581    0.4849    2.0695 H   0  0  0  0  0  0  0  0  0  0  0  0
    7.1576    1.4644   -2.1477 H   0  0  0  0  0  0  0  0  0  0  0  0
    9.5675    1.2794   -2.3775 H   0  0  0  0  0  0  0  0  0  0  0  0
    4.6860    2.5652    1.2608 H   0  0  0  0  0  0  0  0  0  0  0  0
    6.1148    1.8262    2.1127 H   0  0  0  0  0  0  0  0  0  0  0  0
    4.9894   -0.2372    2.3308 H   0  0  0  0  0  0  0  0  0  0  0  0
    3.7565    1.0388    2.8382 H   0  0  0  0  0  0  0  0  0  0  0  0
    2.8121    1.3998   -0.5095 H   0  0  0  0  0  0  0  0  0  0  0  0
    3.0340   -0.3470   -0.9744 H   0  0  0  0  0  0  0  0  0  0  0  0
    5.2227   -0.1749   -1.3676 H   0  0  0  0  0  0  0  0  0  0  0  0
    4.8221    1.5759   -1.6540 H   0  0  0  0  0  0  0  0  0  0  0  0
   -0.3820    1.2180    0.9472 H   0  0  0  0  0  0  0  0  0  0  0  0
    0.1368    0.2977    2.4506 H   0  0  0  0  0  0  0  0  0  0  0  0
   -1.5218    0.1237    1.8703 H   0  0  0  0  0  0  0  0  0  0  0  0
   -3.0901   -5.0620   -2.6314 H   0  0  0  0  0  0  0  0  0  0  0  0
   -3.5117   -3.6962   -3.7136 H   0  0  0  0  0  0  0  0  0  0  0  0
   -1.8835   -4.5113   -3.7965 H   0  0  0  0  0  0  0  0  0  0  0  0
   -3.6112   -0.7403    2.2167 H   0  0  0  0  0  0  0  0  0  0  0  0
   -3.8203   -2.2885    1.2439 H   0  0  0  0  0  0  0  0  0  0  0  0
   -5.8575   -1.4885    0.3381 H   0  0  0  0  0  0  0  0  0  0  0  0
   -5.8409   -0.9707    2.0314 H   0  0  0  0  0  0  0  0  0  0  0  0
   -3.9237    1.5721    1.5706 H   0  0  0  0  0  0  0  0  0  0  0  0
   -4.6205    2.3779    0.0691 H   0  0  0  0  0  0  0  0  0  0  0  0
   -3.7729    0.7450   -1.3363 H   0  0  0  0  0  0  0  0  0  0  0  0
   -2.4058    1.3167   -0.3163 H   0  0  0  0  0  0  0  0  0  0  0  0
   -7.7161   -0.8080    0.9394 H   0  0  0  0  0  0  0  0  0  0  0  0
   -9.9988   -0.0930    0.4419 H   0  0  0  0  0  0  0  0  0  0  0  0
  -10.4100    2.2215   -0.4850 H   0  0  0  0  0  0  0  0  0  0  0  0
   -8.4838    3.6647   -0.8372 H   0  0  0  0  0  0  0  0  0  0  0  0
  1  2  1  0
  2  3  2  0
  3  4  1  0
  4  5  2  0
  5  6  1  0
  6  7  2  0
  5  8  1  0
  8  9  1  0
  9 10  1  0
 10 11  1  0
 11 12  1  0
 12 13  1  0
 11 14  1  0
 14 15  2  0
 14 16  1  0
 16 17  1  0
 17 18  1  0
 18 19  2  0
 19 20  1  0
 20 21  1  0
 19 22  1  0
 22 23  2  0
 23 24  1  0
 24 25  2  0
 24 26  1  0
 22 27  1  0
 27 28  1  0
 28 29  1  0
 29 30  1  0
 30 31  1  0
 31 32  1  0
 30 33  1  0
 33 34  2  0
 34 35  1  0
 35 36  2  0
 36 37  1  0
 37 38  2  0
  7  2  1  0
 13  8  1  0
 20 16  2  0
 32 27  1  0
 38 33  1  0
 25 18  1  0
  3 39  1  0
  4 40  1  0
  6 41  1  0
  7 42  1  0
  9 43  1  0
  9 44  1  0
 10 45  1  0
 10 46  1  0
 12 47  1  0
 12 48  1  0
 13 49  1  0
 13 50  1  0
 21 51  1  0
 21 52  1  0
 21 53  1  0
 26 54  1  0
 26 55  1  0
 26 56  1  0
 28 57  1  0
 28 58  1  0
 29 59  1  0
 29 60  1  0
 31 61  1  0
 31 62  1  0
 32 63  1  0
 32 64  1  0
 34 65  1  0
 35 66  1  0
 36 67  1  0
 37 68  1  0
M  END
>  <Ligand ID>  (1) 
LIG0003685

>  <Ligand>  (1) 
MLS000923731

>  <SMILES>  (1) 
Fc1ccc(cc1)N1CCN(CC1)C(=O)c1sc2c(c1C)c(nc(n2)C)N1CCN(CC1)c1ccccn1

>  <CID>  (1) 
4368841.0

>  <ChEMBL ID>  (1) 
nan

>  <InChiKey>  (1) 
NDNNGUAGYSRLGM-UHFFFAOYSA-N

>  <InChi>  (1) 
InChI=1S/C28H30FN7OS/c1-19-24-26(35-15-13-34(14-16-35)23-5-3-4-10-30-23)31-20(2)32-27(24)38-25(19)28(37)36-17-11-33(12-18-36)22-8-6-21(29)7-9-22/h3-10H,11-18H2,1-2H3

>  <IUPAC Name>  (1) 
[2,5-dimethyl-4-(4-pyridin-2-ylpiperazin-1-yl)thieno[2,3-d]pyrimidin-6-yl]-[4-(4-fluorophenyl)piperazin-1-yl]methanone

$$$$
