
     RDKit          3D

 42 46  0  0  0  0  0  0  0  0999 V2000
    5.0397    3.1655   -2.3502 Br  0  0  0  0  0  0  0  0  0  0  0  0
    4.5268    2.2963   -0.7170 C   0  0  0  0  0  0  0  0  0  0  0  0
    5.1422    2.6304    0.4629 C   0  0  0  0  0  0  0  0  0  0  0  0
    4.7532    1.9962    1.6108 C   0  0  0  0  0  0  0  0  0  0  0  0
    3.7619    1.0251    1.6673 C   0  0  0  0  0  0  0  0  0  0  0  0
    3.1541    0.6999    0.4964 C   0  0  0  0  0  0  0  0  0  0  0  0
    3.5185    1.3231   -0.7258 C   0  0  0  0  0  0  0  0  0  0  0  0
    2.1011   -0.2558    0.3281 N   0  0  0  0  0  0  0  0  0  0  0  0
    0.8015   -0.0855    0.6329 C   0  0  0  0  0  0  0  0  0  0  0  0
    0.1764   -1.2185    0.1664 C   0  0  0  0  0  0  0  0  0  0  0  0
    1.0911   -2.0683   -0.4118 C   0  0  0  0  0  0  0  0  0  0  0  0
    2.2722   -1.4397   -0.2905 N   0  0  0  0  0  0  0  0  0  0  0  0
    0.7074   -3.2428   -1.0244 C   0  0  0  0  0  0  0  0  0  0  0  0
    1.7352   -4.1687   -1.6201 C   0  0  0  0  0  0  0  0  0  0  0  0
   -0.6084   -3.5630   -1.0637 N   0  0  0  0  0  0  0  0  0  0  0  0
   -1.4577   -2.7419   -0.5140 N   0  0  0  0  0  0  0  0  0  0  0  0
   -1.1539   -1.5628    0.1174 C   0  0  0  0  0  0  0  0  0  0  0  0
   -2.1722   -0.6701    0.6317 C   0  0  0  0  0  0  0  0  0  0  0  0
   -2.5861   -0.9139    1.9501 C   0  0  0  0  0  0  0  0  0  0  0  0
   -3.6643   -0.2624    2.5044 C   0  0  0  0  0  0  0  0  0  0  0  0
   -4.3714    0.6630    1.7621 C   0  0  0  0  0  0  0  0  0  0  0  0
   -3.9422    0.8977    0.4497 C   0  0  0  0  0  0  0  0  0  0  0  0
   -2.8730    0.2544   -0.1102 C   0  0  0  0  0  0  0  0  0  0  0  0
   -2.4064    0.5442   -1.3948 C   0  0  0  0  0  0  0  0  0  0  0  0
   -3.0814    1.5330   -2.1013 C   0  0  0  0  0  0  0  0  0  0  0  0
   -4.1702    2.1959   -1.5545 C   0  0  0  0  0  0  0  0  0  0  0  0
   -4.5975    1.8728   -0.2759 C   0  0  0  0  0  0  0  0  0  0  0  0
    5.9182    3.3689    0.5296 H   0  0  0  0  0  0  0  0  0  0  0  0
    5.2419    2.2632    2.5475 H   0  0  0  0  0  0  0  0  0  0  0  0
    3.4606    0.5268    2.5731 H   0  0  0  0  0  0  0  0  0  0  0  0
    3.0238    1.0497   -1.6468 H   0  0  0  0  0  0  0  0  0  0  0  0
    0.3514    0.7723    1.1504 H   0  0  0  0  0  0  0  0  0  0  0  0
    1.6371   -4.0797   -2.7186 H   0  0  0  0  0  0  0  0  0  0  0  0
    2.7657   -3.8072   -1.3397 H   0  0  0  0  0  0  0  0  0  0  0  0
    1.5798   -5.2044   -1.2559 H   0  0  0  0  0  0  0  0  0  0  0  0
   -2.0641   -1.6281    2.5867 H   0  0  0  0  0  0  0  0  0  0  0  0
   -3.9441   -0.5006    3.5494 H   0  0  0  0  0  0  0  0  0  0  0  0
   -5.2149    1.1845    2.1415 H   0  0  0  0  0  0  0  0  0  0  0  0
   -1.5515    0.0095   -1.7734 H   0  0  0  0  0  0  0  0  0  0  0  0
   -2.7338    1.7896   -3.0779 H   0  0  0  0  0  0  0  0  0  0  0  0
   -4.7068    2.9756   -2.0746 H   0  0  0  0  0  0  0  0  0  0  0  0
   -5.4596    2.3757    0.1826 H   0  0  0  0  0  0  0  0  0  0  0  0
  1  2  1  0
  2  3  2  0
  3  4  1  0
  4  5  2  0
  5  6  1  0
  6  7  2  0
  6  8  1  0
  8  9  1  0
  9 10  2  0
 10 11  1  0
 11 12  2  0
 11 13  1  0
 13 14  1  0
 13 15  2  0
 15 16  1  0
 16 17  2  0
 17 18  1  0
 18 19  2  0
 19 20  1  0
 20 21  2  0
 21 22  1  0
 22 23  2  0
 23 24  1  0
 24 25  2  0
 25 26  1  0
 26 27  2  0
  7  2  1  0
 12  8  1  0
 23 18  1  0
 17 10  1  0
 27 22  1  0
  3 28  1  0
  4 29  1  0
  5 30  1  0
  7 31  1  0
  9 32  1  0
 14 33  1  0
 14 34  1  0
 14 35  1  0
 19 36  1  0
 20 37  1  0
 21 38  1  0
 24 39  1  0
 25 40  1  0
 26 41  1  0
 27 42  1  0
M  END
>  <Ligand ID>  (1) 
LIG0003978

>  <Ligand>  (1) 
MLS-0437170.0001

>  <SMILES>  (1) 
Brc1cccc(c1)n1cc2c(n1)c(C)nnc2c1cccc2c1cccc2

>  <CID>  (1) 
1214651.0

>  <ChEMBL ID>  (1) 
nan

>  <InChiKey>  (1) 
GPQAMKRDGHYJDR-UHFFFAOYSA-N

>  <InChi>  (1) 
InChI=1S/C22H15BrN4/c1-14-21-20(13-27(26-21)17-9-5-8-16(23)12-17)22(25-24-14)19-11-4-7-15-6-2-3-10-18(15)19/h2-13H,1H3

>  <IUPAC Name>  (1) 
2-(3-bromophenyl)-7-methyl-4-naphthalen-1-ylpyrazolo[3,4-d]pyridazine

$$$$
