
     RDKit          3D

 33 36  0  0  0  0  0  0  0  0999 V2000
   -1.6896   -1.9340   -4.1909 F   0  0  0  0  0  0  0  0  0  0  0  0
   -1.7103   -1.3885   -2.9500 C   0  0  0  0  0  0  0  0  0  0  0  0
   -2.9141   -1.1202   -2.3784 C   0  0  0  0  0  0  0  0  0  0  0  0
   -3.0091   -0.5716   -1.1329 C   0  0  0  0  0  0  0  0  0  0  0  0
   -1.8414   -0.2861   -0.4452 C   0  0  0  0  0  0  0  0  0  0  0  0
   -0.5860   -0.5376   -0.9767 C   0  0  0  0  0  0  0  0  0  0  0  0
   -0.5624   -1.0947   -2.2440 C   0  0  0  0  0  0  0  0  0  0  0  0
    0.5874   -0.2056   -0.1831 C   0  0  0  0  0  0  0  0  0  0  0  0
    1.0980    1.2134   -0.4123 C   0  0  0  0  0  0  0  0  0  0  0  0
    2.4476    1.0848    0.2344 C   0  0  0  0  0  0  0  0  0  0  0  0
    2.8610   -0.2007    0.1554 N   0  0  0  0  0  0  0  0  0  0  0  0
    1.8317   -0.9887   -0.5348 C   0  0  0  0  0  0  0  0  0  0  0  0
    4.0833   -0.2499    0.7561 C   0  0  0  0  0  0  0  0  0  0  0  0
    4.4084    1.0170    1.2004 C   0  0  0  0  0  0  0  0  0  0  0  0
    3.3825    1.8193    0.8655 N   0  0  0  0  0  0  0  0  0  0  0  0
   -2.0014    0.2864    0.8528 N   0  0  0  0  0  0  0  0  0  0  0  0
   -1.7783   -0.2646    2.0598 C   0  0  0  0  0  0  0  0  0  0  0  0
   -2.0812    0.6970    3.0225 C   0  0  0  0  0  0  0  0  0  0  0  0
   -2.4873    1.8211    2.3051 C   0  0  0  0  0  0  0  0  0  0  0  0
   -2.4298    1.5465    0.9983 N   0  0  0  0  0  0  0  0  0  0  0  0
   -3.8484   -1.3437   -2.9173 H   0  0  0  0  0  0  0  0  0  0  0  0
   -3.9952   -0.3780   -0.7243 H   0  0  0  0  0  0  0  0  0  0  0  0
    0.4082   -1.3031   -2.6869 H   0  0  0  0  0  0  0  0  0  0  0  0
    0.4046   -0.3210    0.8954 H   0  0  0  0  0  0  0  0  0  0  0  0
    1.2670    1.3822   -1.4779 H   0  0  0  0  0  0  0  0  0  0  0  0
    0.4643    1.9682    0.0960 H   0  0  0  0  0  0  0  0  0  0  0  0
    1.8087   -2.0258   -0.1893 H   0  0  0  0  0  0  0  0  0  0  0  0
    2.0910   -0.8759   -1.6158 H   0  0  0  0  0  0  0  0  0  0  0  0
    4.7130   -1.1242    0.8768 H   0  0  0  0  0  0  0  0  0  0  0  0
    5.3330    1.2565    1.7163 H   0  0  0  0  0  0  0  0  0  0  0  0
   -1.4276   -1.2713    2.2401 H   0  0  0  0  0  0  0  0  0  0  0  0
   -2.0210    0.6097    4.0993 H   0  0  0  0  0  0  0  0  0  0  0  0
   -2.8068    2.7831    2.6855 H   0  0  0  0  0  0  0  0  0  0  0  0
  1  2  1  0
  2  3  2  0
  3  4  1  0
  4  5  2  0
  5  6  1  0
  6  7  2  0
  6  8  1  0
  8  9  1  0
  9 10  1  0
 10 11  1  0
 11 12  1  0
 11 13  1  0
 13 14  2  0
 14 15  1  0
  5 16  1  0
 16 17  1  0
 17 18  2  0
 18 19  1  0
 19 20  2  0
  7  2  1  0
 12  8  1  0
 20 16  1  0
 15 10  2  0
  3 21  1  0
  4 22  1  0
  7 23  1  0
  8 24  1  0
  9 25  1  0
  9 26  1  0
 12 27  1  0
 12 28  1  0
 13 29  1  0
 14 30  1  0
 17 31  1  0
 18 32  1  0
 19 33  1  0
M  END
>  <Ligand ID>  (1) 
LIG0002869

>  <Ligand>  (1) 
CHEMBL510023

>  <SMILES>  (1) 
Fc1ccc(c(c1)C1Cc2n(C1)ccn2)n1cccn1

>  <CID>  (1) 
44574137.0

>  <ChEMBL ID>  (1) 
nan

>  <InChiKey>  (1) 
JODPZPWJZRBJSA-UHFFFAOYSA-N

>  <InChi>  (1) 
InChI=1S/C15H13FN4/c16-12-2-3-14(20-6-1-4-18-20)13(9-12)11-8-15-17-5-7-19(15)10-11/h1-7,9,11H,8,10H2

>  <IUPAC Name>  (1) 
6-(5-fluoro-2-pyrazol-1-ylphenyl)-6,7-dihydro-5H-pyrrolo[1,2-a]imidazole

$$$$
