
     RDKit          3D

 36 39  0  0  0  0  0  0  0  0999 V2000
   -1.2499    3.0375   -1.5929 O   0  0  0  0  0  0  0  0  0  0  0  0
   -1.4040    1.8789   -1.1331 C   0  0  0  0  0  0  0  0  0  0  0  0
   -2.7195    1.2987   -0.9555 N   0  0  0  0  0  0  0  0  0  0  0  0
   -2.8516    0.4255    0.1881 C   0  0  1  0  0  0  0  0  0  0  0  0
   -4.1117   -0.3525    0.2858 C   0  0  0  0  0  0  0  0  0  0  0  0
   -3.7129   -1.4096    1.2326 N   0  0  0  0  0  0  0  0  0  0  0  0
   -2.2624   -1.5931    1.0434 C   0  0  0  0  0  0  0  0  0  0  0  0
   -1.9184   -0.7556   -0.1336 C   0  0  2  0  0  0  0  0  0  0  0  0
   -0.5593   -0.2520   -0.2424 C   0  0  0  0  0  0  0  0  0  0  0  0
   -0.2671    1.0250   -0.7414 C   0  0  0  0  0  0  0  0  0  0  0  0
    1.0254    1.4869   -0.8547 C   0  0  0  0  0  0  0  0  0  0  0  0
    1.2738    2.8584   -1.3948 C   0  0  0  0  0  0  0  0  0  0  0  0
    2.0491    0.6492   -0.4579 C   0  0  0  0  0  0  0  0  0  0  0  0
    1.8136   -0.6238    0.0432 C   0  0  0  0  0  0  0  0  0  0  0  0
    0.5119   -1.0662    0.1478 C   0  0  0  0  0  0  0  0  0  0  0  0
    2.9610   -1.4492    0.4423 C   0  0  0  0  0  0  0  0  0  0  0  0
    4.0716   -1.4706   -0.6344 C   0  0  0  0  0  0  0  0  0  0  0  0
    4.2771   -0.8835    0.7573 C   0  0  0  0  0  0  0  0  0  0  0  0
   -3.4544    1.5352   -1.6269 H   0  0  0  0  0  0  0  0  0  0  0  0
   -2.5074    0.8561    1.1373 H   0  0  0  0  0  0  0  0  0  0  0  0
   -4.2622   -0.8709   -0.6858 H   0  0  0  0  0  0  0  0  0  0  0  0
   -4.9748    0.2048    0.6572 H   0  0  0  0  0  0  0  0  0  0  0  0
   -3.9099   -1.0163    2.1816 H   0  0  0  0  0  0  0  0  0  0  0  0
   -1.7549   -1.1831    1.9626 H   0  0  0  0  0  0  0  0  0  0  0  0
   -1.9800   -2.6518    0.9772 H   0  0  0  0  0  0  0  0  0  0  0  0
   -2.2771   -1.2865   -1.0410 H   0  0  0  0  0  0  0  0  0  0  0  0
    2.3913    3.0136   -1.4210 H   0  0  0  0  0  0  0  0  0  0  0  0
    0.8516    3.6469   -0.7406 H   0  0  0  0  0  0  0  0  0  0  0  0
    0.9445    2.9592   -2.4490 H   0  0  0  0  0  0  0  0  0  0  0  0
    3.0535    1.0328   -0.5559 H   0  0  0  0  0  0  0  0  0  0  0  0
    0.3085   -2.0730    0.5431 H   0  0  0  0  0  0  0  0  0  0  0  0
    2.6911   -2.4547    0.8332 H   0  0  0  0  0  0  0  0  0  0  0  0
    4.0465   -0.7111   -1.4265 H   0  0  0  0  0  0  0  0  0  0  0  0
    4.5203   -2.4812   -0.8533 H   0  0  0  0  0  0  0  0  0  0  0  0
    4.9396   -1.5216    1.4095 H   0  0  0  0  0  0  0  0  0  0  0  0
    4.4471    0.1975    0.8560 H   0  0  0  0  0  0  0  0  0  0  0  0
  1  2  2  0
  2  3  1  0
  3  4  1  0
  4  5  1  0
  5  6  1  0
  6  7  1  0
  7  8  1  0
  8  9  1  0
  9 10  2  0
 10 11  1  0
 11 12  1  0
 11 13  2  0
 13 14  1  0
 14 15  2  0
 14 16  1  0
 16 17  1  0
 17 18  1  0
 10  2  1  0
 18 16  1  0
  8  4  1  0
 15  9  1  0
  3 19  1  0
  4 20  1  1
  5 21  1  0
  5 22  1  0
  6 23  1  0
  7 24  1  0
  7 25  1  0
  8 26  1  6
 12 27  1  0
 12 28  1  0
 12 29  1  0
 13 30  1  0
 15 31  1  0
 16 32  1  0
 17 33  1  0
 17 34  1  0
 18 35  1  0
 18 36  1  0
M  END
>  <Ligand ID>  (1) 
LIG0003779

>  <Ligand>  (1) 
CHEMBL2337104

>  <SMILES>  (1) 
O=C1N[C@H]2CNC[C@@H]2c2c1c(C)cc(c2)C1CC1

>  <CID>  (1) 
57799326.0

>  <ChEMBL ID>  (1) 
nan

>  <InChiKey>  (1) 
UBSKMMDAHTXYOM-OLZOCXBDSA-N

>  <InChi>  (1) 
InChI=1S/C15H18N2O/c1-8-4-10(9-2-3-9)5-11-12-6-16-7-13(12)17-15(18)14(8)11/h4-5,9,12-13,16H,2-3,6-7H2,1H3,(H,17,18)/t12-,13+/m1/s1

>  <IUPAC Name>  (1) 
(3aR,9bS)-8-cyclopropyl-6-methyl-1,2,3,3a,4,9b-hexahydropyrrolo[3,4-c]isoquinolin-5-one

$$$$
