
     RDKit          3D

 80 80  0  0  0  0  0  0  0  0999 V2000
   -1.0976   -0.5442   -0.2721 N   0  0  0  0  0  0  0  0  0  0  0  0
    0.2555    0.4908    0.0449 S   0  0  0  0  0  0  0  0  0  0  0  0
    0.4009    0.7613    1.5237 O   0  0  0  0  0  0  0  0  0  0  0  0
    0.1535    1.7816   -0.7230 O   0  0  0  0  0  0  0  0  0  0  0  0
    1.6048   -0.3197   -0.5485 O   0  0  0  0  0  0  0  0  0  0  0  0
   10.6417    1.0332   -1.6645 O   0  0  0  0  0  0  0  0  0  0  0  0
   10.2089    0.4929   -0.4616 C   0  0  0  0  0  0  0  0  0  0  0  0
    8.9002    1.0632   -0.0422 C   0  0  0  0  0  0  0  0  0  0  0  0
    7.7197    0.3429   -0.1746 C   0  0  0  0  0  0  0  0  0  0  0  0
    6.5249    0.8855    0.2232 C   0  0  0  0  0  0  0  0  0  0  0  0
    6.5760    2.1710    0.7539 C   0  0  0  0  0  0  0  0  0  0  0  0
    7.7234    2.8949    0.8917 C   0  0  0  0  0  0  0  0  0  0  0  0
    8.9238    2.3375    0.4865 C   0  0  0  0  0  0  0  0  0  0  0  0
   10.0665    3.0915    0.6358 O   0  0  0  0  0  0  0  0  0  0  0  0
    5.2115    0.2108    0.1161 C   0  0  2  0  0  0  0  0  0  0  0  0
    5.2286   -1.2517    0.3953 C   0  0  0  0  0  0  0  0  0  0  0  0
    4.0410   -1.9212    0.5234 N   0  0  0  0  0  0  0  0  0  0  0  0
    3.0472   -2.2472   -0.3569 C   0  0  0  0  0  0  0  0  0  0  0  0
    2.1493   -1.1811   -0.9081 C   0  0  0  0  0  0  0  0  0  0  0  0
    1.4406   -0.4092    0.1488 C   0  0  0  0  0  0  0  0  0  0  0  0
    0.4897   -1.2267    0.9666 C   0  0  0  0  0  0  0  0  0  0  0  0
   -0.6445   -1.7971    0.1160 C   0  0  0  0  0  0  0  0  0  0  0  0
   -1.3493   -0.6418   -0.5030 C   0  0  0  0  0  0  0  0  0  0  0  0
   -2.5048   -0.8883   -1.3820 C   0  0  0  0  0  0  0  0  0  0  0  0
   -3.6086   -1.5067   -0.8813 O   0  0  0  0  0  0  0  0  0  0  0  0
   -4.1843   -0.8419    0.1945 C   0  0  0  0  0  0  0  0  0  0  0  0
   -4.5593    0.5735   -0.0474 C   0  0  0  0  0  0  0  0  0  0  0  0
   -5.5319    0.8502   -1.1354 C   0  0  0  0  0  0  0  0  0  0  0  0
   -6.8537    0.2088   -0.9585 C   0  0  0  0  0  0  0  0  0  0  0  0
   -7.1164   -1.0198   -1.5175 C   0  0  0  0  0  0  0  0  0  0  0  0
   -8.3990   -1.5286   -1.2803 C   0  0  0  0  0  0  0  0  0  0  0  0
   -9.3344   -0.8581   -0.5457 C   0  0  0  0  0  0  0  0  0  0  0  0
   -9.0213    0.3888    0.0031 C   0  0  0  0  0  0  0  0  0  0  0  0
   -7.7827    0.9170   -0.2049 C   0  0  0  0  0  0  0  0  0  0  0  0
  -10.2283    1.2601    0.9526 S   0  0  0  0  0  0  0  0  0  0  0  0
  -11.1303    0.2397    1.5942 O   0  0  0  0  0  0  0  0  0  0  0  0
   -9.5642    2.0320    2.0540 O   0  0  0  0  0  0  0  0  0  0  0  0
  -11.1430    2.3081   -0.0482 N   0  0  0  0  0  0  0  0  0  0  0  0
    4.6793    0.5013   -1.1150 O   0  0  0  0  0  0  0  0  0  0  0  0
   -1.8728    0.0378   -0.6258 H   0  0  0  0  0  0  0  0  0  0  0  0
   -1.3359   -1.1455    0.5472 H   0  0  0  0  0  0  0  0  0  0  0  0
    1.8917   -1.0621    0.0536 H   0  0  0  0  0  0  0  0  0  0  0  0
   10.2895    0.5669   -2.4508 H   0  0  0  0  0  0  0  0  0  0  0  0
   10.1352   -0.6109   -0.5443 H   0  0  0  0  0  0  0  0  0  0  0  0
   11.0207    0.6962    0.2846 H   0  0  0  0  0  0  0  0  0  0  0  0
    7.7120   -0.6520   -0.5916 H   0  0  0  0  0  0  0  0  0  0  0  0
    5.6478    2.6193    1.0728 H   0  0  0  0  0  0  0  0  0  0  0  0
    7.6985    3.8859    1.3064 H   0  0  0  0  0  0  0  0  0  0  0  0
   10.0542    4.0281    0.2078 H   0  0  0  0  0  0  0  0  0  0  0  0
    4.5213    0.6943    0.8769 H   0  0  0  0  0  0  0  0  0  0  0  0
    5.8606   -1.7577   -0.4233 H   0  0  0  0  0  0  0  0  0  0  0  0
    5.8464   -1.4448    1.3451 H   0  0  0  0  0  0  0  0  0  0  0  0
    3.8833   -2.2503    1.5280 H   0  0  0  0  0  0  0  0  0  0  0  0
    2.3679   -3.0229    0.1395 H   0  0  0  0  0  0  0  0  0  0  0  0
    3.4227   -2.8578   -1.2501 H   0  0  0  0  0  0  0  0  0  0  0  0
    1.3479   -1.7982   -1.4778 H   0  0  0  0  0  0  0  0  0  0  0  0
    2.5261   -0.5386   -1.6879 H   0  0  0  0  0  0  0  0  0  0  0  0
    1.0470    0.5669   -0.1900 H   0  0  0  0  0  0  0  0  0  0  0  0
    2.2589   -0.1003    0.8894 H   0  0  0  0  0  0  0  0  0  0  0  0
    0.0556   -0.6920    1.8054 H   0  0  0  0  0  0  0  0  0  0  0  0
    1.0466   -2.0897    1.3828 H   0  0  0  0  0  0  0  0  0  0  0  0
   -0.2793   -2.5069   -0.6211 H   0  0  0  0  0  0  0  0  0  0  0  0
   -1.2900   -2.3774    0.8272 H   0  0  0  0  0  0  0  0  0  0  0  0
   -1.5959    0.1339    0.2878 H   0  0  0  0  0  0  0  0  0  0  0  0
   -0.5634   -0.1025   -1.1214 H   0  0  0  0  0  0  0  0  0  0  0  0
   -2.1489   -1.5314   -2.2500 H   0  0  0  0  0  0  0  0  0  0  0  0
   -2.7465    0.0862   -1.8883 H   0  0  0  0  0  0  0  0  0  0  0  0
   -3.6104   -0.9272    1.1129 H   0  0  0  0  0  0  0  0  0  0  0  0
   -5.1512   -1.3985    0.3845 H   0  0  0  0  0  0  0  0  0  0  0  0
   -5.0705    0.9193    0.9113 H   0  0  0  0  0  0  0  0  0  0  0  0
   -3.6688    1.2587   -0.0959 H   0  0  0  0  0  0  0  0  0  0  0  0
   -5.1140    0.4645   -2.1018 H   0  0  0  0  0  0  0  0  0  0  0  0
   -5.7323    1.9565   -1.2341 H   0  0  0  0  0  0  0  0  0  0  0  0
   -6.3968   -1.5680   -2.1023 H   0  0  0  0  0  0  0  0  0  0  0  0
   -8.6144   -2.4924   -1.7175 H   0  0  0  0  0  0  0  0  0  0  0  0
  -10.3379   -1.2568   -0.3610 H   0  0  0  0  0  0  0  0  0  0  0  0
   -7.5202    1.8980    0.2216 H   0  0  0  0  0  0  0  0  0  0  0  0
  -12.0875    2.5002    0.3540 H   0  0  0  0  0  0  0  0  0  0  0  0
  -10.6017    3.2066   -0.1711 H   0  0  0  0  0  0  0  0  0  0  0  0
    5.1714    0.0114   -1.8403 H   0  0  0  0  0  0  0  0  0  0  0  0
  1  2  1  0
  2  3  2  0
  2  4  2  0
  2  5  1  0
  6  7  1  0
  7  8  1  0
  8  9  2  0
  9 10  1  0
 10 11  2  0
 11 12  1  0
 12 13  2  0
 13 14  1  0
 10 15  1  0
 15 16  1  0
 16 17  1  0
 17 18  1  0
 18 19  1  0
 19 20  1  0
 20 21  1  0
 21 22  1  0
 22 23  1  0
 23 24  1  0
 24 25  1  0
 25 26  1  0
 26 27  1  0
 27 28  1  0
 28 29  1  0
 29 30  2  0
 30 31  1  0
 31 32  2  0
 32 33  1  0
 33 34  2  0
 33 35  1  0
 35 36  2  0
 35 37  2  0
 35 38  1  0
 15 39  1  0
 13  8  1  0
 34 29  1  0
  1 40  1  0
  1 41  1  0
  5 42  1  0
  6 43  1  0
  7 44  1  0
  7 45  1  0
  9 46  1  0
 11 47  1  0
 12 48  1  0
 14 49  1  0
 15 50  1  1
 16 51  1  0
 16 52  1  0
 17 53  1  0
 18 54  1  0
 18 55  1  0
 19 56  1  0
 19 57  1  0
 20 58  1  0
 20 59  1  0
 21 60  1  0
 21 61  1  0
 22 62  1  0
 22 63  1  0
 23 64  1  0
 23 65  1  0
 24 66  1  0
 24 67  1  0
 26 68  1  0
 26 69  1  0
 27 70  1  0
 27 71  1  0
 28 72  1  0
 28 73  1  0
 30 74  1  0
 31 75  1  0
 32 76  1  0
 34 77  1  0
 38 78  1  0
 38 79  1  0
 39 80  1  0
M  END
>  <Ligand ID>  (1) 
LIG0002530

>  <Ligand>  (1) 
CHEMBL485847

>  <SMILES>  (1) 
NS(=O)(=O)O.OCc1cc(ccc1O)[C@H](CNCCCCCCCOCCCc1cccc(c1)S(=O)(=O)N)O

>  <CID>  (1) 
42625898.0

>  <ChEMBL ID>  (1) 
nan

>  <InChiKey>  (1) 
SZXXTKLMODFRAG-UQIIZPHYSA-N

>  <InChi>  (1) 
InChI=1S/C25H38N2O6S.H3NO3S/c26-34(31,32)23-10-6-8-20(16-23)9-7-15-33-14-5-3-1-2-4-13-27-18-25(30)21-11-12-24(29)22(17-21)19-28;1-5(2,3)4/h6,8,10-12,16-17,25,27-30H,1-5,7,9,13-15,18-19H2,(H2,26,31,32);(H3,1,2,3,4)/t25-;/m0./s1

>  <IUPAC Name>  (1) 
3-[3-[7-[[(2R)-2-hydroxy-2-[4-hydroxy-3-(hydroxymethyl)phenyl]ethyl]amino]heptoxy]propyl]benzenesulfonamide;sulfamic acid

$$$$
