
     RDKit          3D

 81 81  0  0  0  0  0  0  0  0999 V2000
   -8.1755    3.7723    0.3736 C   0  0  0  0  0  0  0  0  0  0  0  0
   -8.6160    3.0174   -0.8731 C   0  0  0  0  0  0  0  0  0  0  0  0
   -7.8615    1.6859   -0.8244 C   0  0  0  0  0  0  0  0  0  0  0  0
   -8.1771    0.8184   -1.9749 C   0  0  0  0  0  0  0  0  0  0  0  0
   -7.4843   -0.4799   -1.9615 C   0  0  0  0  0  0  0  0  0  0  0  0
   -7.6869   -1.4767   -0.9333 C   0  0  0  0  0  0  0  0  0  0  0  0
   -7.4270   -1.4062    0.4887 C   0  0  0  0  0  0  0  0  0  0  0  0
   -6.0541   -1.2198    1.0123 C   0  0  0  0  0  0  0  0  0  0  0  0
   -5.3323    0.0195    0.7034 C   0  0  0  0  0  0  0  0  0  0  0  0
   -3.9327    0.0583    1.3201 C   0  0  0  0  0  0  0  0  0  0  0  0
   -3.1515   -1.1030    0.7600 C   0  0  0  0  0  0  0  0  0  0  0  0
   -1.8588   -1.0139    1.3482 O   0  0  0  0  0  0  0  0  0  0  0  0
   -0.8483   -1.9052    1.0842 C   0  0  0  0  0  0  0  0  0  0  0  0
   -0.9618   -2.9819    0.2275 C   0  0  0  0  0  0  0  0  0  0  0  0
    0.0856   -3.8389    0.0043 C   0  0  0  0  0  0  0  0  0  0  0  0
    1.2759   -3.6295    0.6420 C   0  0  0  0  0  0  0  0  0  0  0  0
    1.4492   -2.5696    1.5101 C   0  0  0  0  0  0  0  0  0  0  0  0
    0.3714   -1.7313    1.7070 C   0  0  0  0  0  0  0  0  0  0  0  0
    0.5497   -0.5861    2.6394 C   0  0  0  0  0  0  0  0  0  0  0  0
    0.7093    0.6598    1.7559 C   0  0  0  0  0  0  0  0  0  0  0  0
    1.8975    0.4908    0.8783 C   0  0  0  0  0  0  0  0  0  0  0  0
    1.7566   -0.2022   -0.1487 O   0  0  0  0  0  0  0  0  0  0  0  0
    3.0651    1.1058    1.2557 O   0  0  0  0  0  0  0  0  0  0  0  0
    4.2756    1.0753    0.5964 C   0  0  0  0  0  0  0  0  0  0  0  0
    4.9029   -0.2867    0.4616 C   0  0  0  0  0  0  0  0  0  0  0  0
    6.2265   -0.0451   -0.2891 C   0  0  0  0  0  0  0  0  0  0  0  0
    5.8485    0.5272   -1.5254 O   0  0  0  0  0  0  0  0  0  0  0  0
    7.2182    0.8449   -2.4690 P   0  0  0  0  0  0  0  0  0  0  0  0
    7.0315    2.0517   -3.3594 O   0  0  0  0  0  0  0  0  0  0  0  0
    8.5761    1.1206   -1.5036 O   0  0  0  0  0  0  0  0  0  0  0  0
    9.5204    0.1216   -1.5683 C   0  0  0  0  0  0  0  0  0  0  0  0
   10.7113    0.4179   -0.6507 C   0  0  1  0  0  0  0  0  0  0  0  0
   11.3632    1.7112   -0.9971 C   0  0  0  0  0  0  0  0  0  0  0  0
   11.4178    2.6512   -0.1606 O   0  0  0  0  0  0  0  0  0  0  0  0
   11.9033    1.8187   -2.2866 O   0  0  0  0  0  0  0  0  0  0  0  0
   10.2364    0.5242    0.7137 N   0  0  0  0  0  0  0  0  0  0  0  0
    7.4242   -0.4991   -3.4784 O   0  0  0  0  0  0  0  0  0  0  0  0
    5.1483   -0.8721    1.6849 F   0  0  0  0  0  0  0  0  0  0  0  0
    4.0996   -1.0995   -0.2984 F   0  0  0  0  0  0  0  0  0  0  0  0
   -7.0996    3.5508    0.6070 H   0  0  0  0  0  0  0  0  0  0  0  0
   -8.2086    4.8683    0.2289 H   0  0  0  0  0  0  0  0  0  0  0  0
   -8.7368    3.4271    1.2628 H   0  0  0  0  0  0  0  0  0  0  0  0
   -9.6933    2.8610   -0.8982 H   0  0  0  0  0  0  0  0  0  0  0  0
   -8.2126    3.5717   -1.7435 H   0  0  0  0  0  0  0  0  0  0  0  0
   -6.7626    1.9208   -0.8877 H   0  0  0  0  0  0  0  0  0  0  0  0
   -8.0518    1.2853    0.1715 H   0  0  0  0  0  0  0  0  0  0  0  0
   -7.8254    1.3919   -2.8981 H   0  0  0  0  0  0  0  0  0  0  0  0
   -9.2798    0.7321   -2.1752 H   0  0  0  0  0  0  0  0  0  0  0  0
   -6.3780   -0.3672   -2.2091 H   0  0  0  0  0  0  0  0  0  0  0  0
   -7.8098   -1.0232   -2.9553 H   0  0  0  0  0  0  0  0  0  0  0  0
   -8.7391   -1.9859   -1.1010 H   0  0  0  0  0  0  0  0  0  0  0  0
   -7.0570   -2.3981   -1.2976 H   0  0  0  0  0  0  0  0  0  0  0  0
   -7.7143   -2.4736    0.8849 H   0  0  0  0  0  0  0  0  0  0  0  0
   -8.1683   -0.8052    1.0874 H   0  0  0  0  0  0  0  0  0  0  0  0
   -5.4521   -2.0741    0.5706 H   0  0  0  0  0  0  0  0  0  0  0  0
   -6.0609   -1.3301    2.1337 H   0  0  0  0  0  0  0  0  0  0  0  0
   -5.8617    0.9432    1.0631 H   0  0  0  0  0  0  0  0  0  0  0  0
   -5.1599    0.1305   -0.3756 H   0  0  0  0  0  0  0  0  0  0  0  0
   -3.4316    0.9737    1.0021 H   0  0  0  0  0  0  0  0  0  0  0  0
   -3.9576   -0.0406    2.4138 H   0  0  0  0  0  0  0  0  0  0  0  0
   -3.1524   -1.0264   -0.3281 H   0  0  0  0  0  0  0  0  0  0  0  0
   -3.5386   -2.0982    1.0759 H   0  0  0  0  0  0  0  0  0  0  0  0
   -1.9244   -3.1145   -0.2597 H   0  0  0  0  0  0  0  0  0  0  0  0
    0.0049   -4.6850   -0.6649 H   0  0  0  0  0  0  0  0  0  0  0  0
    2.1209   -4.2874    0.4874 H   0  0  0  0  0  0  0  0  0  0  0  0
    2.3797   -2.3767    2.0306 H   0  0  0  0  0  0  0  0  0  0  0  0
    1.4867   -0.6601    3.2113 H   0  0  0  0  0  0  0  0  0  0  0  0
   -0.3330   -0.4722    3.2908 H   0  0  0  0  0  0  0  0  0  0  0  0
    0.8099    1.5682    2.3531 H   0  0  0  0  0  0  0  0  0  0  0  0
   -0.1963    0.8074    1.1158 H   0  0  0  0  0  0  0  0  0  0  0  0
    4.9891    1.7024    1.1768 H   0  0  0  0  0  0  0  0  0  0  0  0
    4.1464    1.4715   -0.4398 H   0  0  0  0  0  0  0  0  0  0  0  0
    6.7890    0.6841    0.3308 H   0  0  0  0  0  0  0  0  0  0  0  0
    6.7303   -1.0180   -0.4098 H   0  0  0  0  0  0  0  0  0  0  0  0
    9.0670   -0.8044   -1.1417 H   0  0  0  0  0  0  0  0  0  0  0  0
    9.8543   -0.1374   -2.5793 H   0  0  0  0  0  0  0  0  0  0  0  0
   11.4714   -0.3752   -0.7915 H   0  0  0  0  0  0  0  0  0  0  0  0
   12.5839    2.5664   -2.4123 H   0  0  0  0  0  0  0  0  0  0  0  0
   10.8027    1.1364    1.3224 H   0  0  0  0  0  0  0  0  0  0  0  0
    9.2254    0.7864    0.7428 H   0  0  0  0  0  0  0  0  0  0  0  0
    6.8477   -0.3714   -4.2677 H   0  0  0  0  0  0  0  0  0  0  0  0
  1  2  1  0
  2  3  1  0
  3  4  1  0
  4  5  1  0
  5  6  1  0
  6  7  1  0
  7  8  1  0
  8  9  1  0
  9 10  1  0
 10 11  1  0
 11 12  1  0
 12 13  1  0
 13 14  2  0
 14 15  1  0
 15 16  2  0
 16 17  1  0
 17 18  2  0
 18 19  1  0
 19 20  1  0
 20 21  1  0
 21 22  2  0
 21 23  1  0
 23 24  1  0
 24 25  1  0
 25 26  1  0
 26 27  1  0
 27 28  1  0
 28 29  2  0
 28 30  1  0
 30 31  1  0
 31 32  1  0
 32 33  1  0
 33 34  2  0
 33 35  1  0
 32 36  1  0
 28 37  1  0
 25 38  1  0
 25 39  1  0
 18 13  1  0
  1 40  1  0
  1 41  1  0
  1 42  1  0
  2 43  1  0
  2 44  1  0
  3 45  1  0
  3 46  1  0
  4 47  1  0
  4 48  1  0
  5 49  1  0
  5 50  1  0
  6 51  1  0
  6 52  1  0
  7 53  1  0
  7 54  1  0
  8 55  1  0
  8 56  1  0
  9 57  1  0
  9 58  1  0
 10 59  1  0
 10 60  1  0
 11 61  1  0
 11 62  1  0
 14 63  1  0
 15 64  1  0
 16 65  1  0
 17 66  1  0
 19 67  1  0
 19 68  1  0
 20 69  1  0
 20 70  1  0
 24 71  1  0
 24 72  1  0
 26 73  1  0
 26 74  1  0
 31 75  1  0
 31 76  1  0
 32 77  1  1
 35 78  1  0
 36 79  1  0
 36 80  1  0
 37 81  1  0
M  END
>  <Ligand ID>  (1) 
LIG0004284

>  <Ligand>  (1) 
CHEMBL3577262

>  <SMILES>  (1) 
CCCCCCCCCCCOc1ccccc1CCC(=O)OCC(COP(=O)(OC[C@@H](C(=O)O)N)O)(F)F

>  <CID>  (1) 
122177589.0

>  <ChEMBL ID>  (1) 
nan

>  <InChiKey>  (1) 
JVTWQEXFPZBCJA-QFIPXVFZSA-N

>  <InChi>  (1) 
InChI=1S/C26H42F2NO9P/c1-2-3-4-5-6-7-8-9-12-17-35-23-14-11-10-13-21(23)15-16-24(30)36-19-26(27,28)20-38-39(33,34)37-18-22(29)25(31)32/h10-11,13-14,22H,2-9,12,15-20,29H2,1H3,(H,31,32)(H,33,34)/t22-/m0/s1

>  <IUPAC Name>  (1) 
(2S)-2-amino-3-[[2,2-difluoro-3-[3-(2-undecoxyphenyl)propanoyloxy]propoxy]-hydroxyphosphoryl]oxypropanoic acid

$$$$
