
     RDKit          3D

 58 59  0  0  0  0  0  0  0  0999 V2000
   -7.8149   -2.7642    0.5575 C   0  0  0  0  0  0  0  0  0  0  0  0
   -6.6238   -2.1336    0.1947 O   0  0  0  0  0  0  0  0  0  0  0  0
   -6.2363   -0.8734    0.5612 C   0  0  0  0  0  0  0  0  0  0  0  0
   -7.0883   -0.1399    1.3650 C   0  0  0  0  0  0  0  0  0  0  0  0
   -6.7158    1.1406    1.7490 C   0  0  0  0  0  0  0  0  0  0  0  0
   -5.5005    1.6277    1.3069 C   0  0  0  0  0  0  0  0  0  0  0  0
   -4.6587    0.8830    0.5036 C   0  0  0  0  0  0  0  0  0  0  0  0
   -5.0230   -0.3901    0.1185 C   0  0  0  0  0  0  0  0  0  0  0  0
   -4.2393   -1.2028   -0.6842 O   0  0  0  0  0  0  0  0  0  0  0  0
   -2.9689   -0.7020   -1.1500 C   0  0  0  0  0  0  0  0  0  0  0  0
   -2.3684   -1.7885   -1.9784 C   0  0  0  0  0  0  0  0  0  0  0  0
   -1.0467   -1.3682   -2.5325 C   0  0  0  0  0  0  0  0  0  0  0  0
   -0.0847   -1.0476   -1.4348 C   0  0  0  0  0  0  0  0  0  0  0  0
    1.1983   -0.6603   -1.9760 O   0  0  0  0  0  0  0  0  0  0  0  0
    2.2211   -0.3255   -1.0976 C   0  0  0  0  0  0  0  0  0  0  0  0
    2.0294   -0.3578    0.2659 C   0  0  0  0  0  0  0  0  0  0  0  0
    3.0544   -0.0234    1.1019 C   0  0  0  0  0  0  0  0  0  0  0  0
    4.3193    0.3596    0.6389 C   0  0  0  0  0  0  0  0  0  0  0  0
    4.4636    0.3776   -0.7305 C   0  0  0  0  0  0  0  0  0  0  0  0
    3.4486    0.0454   -1.5971 C   0  0  0  0  0  0  0  0  0  0  0  0
    3.6477    0.0780   -3.0612 C   0  0  0  0  0  0  0  0  0  0  0  0
    5.6770    0.7451   -1.2848 O   0  0  0  0  0  0  0  0  0  0  0  0
    5.3595    0.6874    1.5836 C   0  0  0  0  0  0  0  0  0  0  0  0
    5.0790    0.6590    2.8231 O   0  0  0  0  0  0  0  0  0  0  0  0
    6.7447    1.0600    1.2384 C   0  0  0  0  0  0  0  0  0  0  0  0
    7.4246    1.4699    2.5443 C   0  0  0  0  0  0  0  0  0  0  0  0
    7.4898   -0.1506    0.6585 C   0  0  0  0  0  0  0  0  0  0  0  0
   -5.1404    2.9761    1.7288 C   0  0  0  0  0  0  0  0  0  0  0  0
   -5.9331    3.6163    2.4572 O   0  0  0  0  0  0  0  0  0  0  0  0
   -3.9375    3.5747    1.3444 O   0  0  0  0  0  0  0  0  0  0  0  0
   -8.6774   -2.0759    0.4319 H   0  0  0  0  0  0  0  0  0  0  0  0
   -8.0048   -3.6332   -0.1227 H   0  0  0  0  0  0  0  0  0  0  0  0
   -7.7143   -3.1640    1.5789 H   0  0  0  0  0  0  0  0  0  0  0  0
   -8.0467   -0.5682    1.6934 H   0  0  0  0  0  0  0  0  0  0  0  0
   -7.3830    1.6957    2.3695 H   0  0  0  0  0  0  0  0  0  0  0  0
   -3.7205    1.2744    0.1693 H   0  0  0  0  0  0  0  0  0  0  0  0
   -3.1694    0.2240   -1.6963 H   0  0  0  0  0  0  0  0  0  0  0  0
   -2.3231   -0.4815   -0.2705 H   0  0  0  0  0  0  0  0  0  0  0  0
   -3.1115   -2.0362   -2.7692 H   0  0  0  0  0  0  0  0  0  0  0  0
   -2.2792   -2.7189   -1.3664 H   0  0  0  0  0  0  0  0  0  0  0  0
   -0.6080   -2.1925   -3.1444 H   0  0  0  0  0  0  0  0  0  0  0  0
   -1.1714   -0.4457   -3.1490 H   0  0  0  0  0  0  0  0  0  0  0  0
   -0.4753   -0.1369   -0.8865 H   0  0  0  0  0  0  0  0  0  0  0  0
    0.0312   -1.8367   -0.6939 H   0  0  0  0  0  0  0  0  0  0  0  0
    1.0530   -0.6530    0.6447 H   0  0  0  0  0  0  0  0  0  0  0  0
    2.8656   -0.0606    2.1764 H   0  0  0  0  0  0  0  0  0  0  0  0
    2.9462    0.8065   -3.4800 H   0  0  0  0  0  0  0  0  0  0  0  0
    4.6836    0.4149   -3.2773 H   0  0  0  0  0  0  0  0  0  0  0  0
    3.5414   -0.9233   -3.5247 H   0  0  0  0  0  0  0  0  0  0  0  0
    5.8151    1.5739   -1.8489 H   0  0  0  0  0  0  0  0  0  0  0  0
    6.7251    1.9149    0.5625 H   0  0  0  0  0  0  0  0  0  0  0  0
    6.9995    0.8655    3.3791 H   0  0  0  0  0  0  0  0  0  0  0  0
    8.5114    1.2772    2.4749 H   0  0  0  0  0  0  0  0  0  0  0  0
    7.2107    2.5358    2.7675 H   0  0  0  0  0  0  0  0  0  0  0  0
    6.8087   -1.0021    0.4602 H   0  0  0  0  0  0  0  0  0  0  0  0
    8.1637   -0.5101    1.4822 H   0  0  0  0  0  0  0  0  0  0  0  0
    8.1011    0.1232   -0.2064 H   0  0  0  0  0  0  0  0  0  0  0  0
   -3.5482    4.3603    1.8570 H   0  0  0  0  0  0  0  0  0  0  0  0
  1  2  1  0
  2  3  1  0
  3  4  2  0
  4  5  1  0
  5  6  2  0
  6  7  1  0
  7  8  2  0
  8  9  1  0
  9 10  1  0
 10 11  1  0
 11 12  1  0
 12 13  1  0
 13 14  1  0
 14 15  1  0
 15 16  2  0
 16 17  1  0
 17 18  2  0
 18 19  1  0
 19 20  2  0
 20 21  1  0
 19 22  1  0
 18 23  1  0
 23 24  2  0
 23 25  1  0
 25 26  1  0
 25 27  1  0
  6 28  1  0
 28 29  2  0
 28 30  1  0
  8  3  1  0
 20 15  1  0
  1 31  1  0
  1 32  1  0
  1 33  1  0
  4 34  1  0
  5 35  1  0
  7 36  1  0
 10 37  1  0
 10 38  1  0
 11 39  1  0
 11 40  1  0
 12 41  1  0
 12 42  1  0
 13 43  1  0
 13 44  1  0
 16 45  1  0
 17 46  1  0
 21 47  1  0
 21 48  1  0
 21 49  1  0
 22 50  1  0
 25 51  1  0
 26 52  1  0
 26 53  1  0
 26 54  1  0
 27 55  1  0
 27 56  1  0
 27 57  1  0
 30 58  1  0
M  END
>  <Ligand ID>  (1) 
LIG0003634

>  <Ligand>  (1) 
CHEMBL3287714

>  <SMILES>  (1) 
COc1ccc(cc1OCCCCOc1ccc(c(c1C)O)C(=O)C(C)C)C(=O)O

>  <CID>  (1) 
90643881.0

>  <ChEMBL ID>  (1) 
nan

>  <InChiKey>  (1) 
FUXYSTKAKGRHGE-UHFFFAOYSA-N

>  <InChi>  (1) 
InChI=1S/C23H28O7/c1-14(2)21(24)17-8-10-18(15(3)22(17)25)29-11-5-6-12-30-20-13-16(23(26)27)7-9-19(20)28-4/h7-10,13-14,25H,5-6,11-12H2,1-4H3,(H,26,27)

>  <IUPAC Name>  (1) 
3-[4-[3-hydroxy-2-methyl-4-(2-methylpropanoyl)phenoxy]butoxy]-4-methoxybenzoic acid

$$$$
