
     RDKit          3D

 75 79  0  0  0  0  0  0  0  0999 V2000
   -4.8744    0.3313    3.4241 C   0  0  0  0  0  0  0  0  0  0  0  0
   -4.2595   -0.7449    2.5163 C   0  0  0  0  0  0  0  0  0  0  0  0
   -5.2953   -1.1587    1.6342 N   0  0  0  0  0  0  0  0  0  0  0  0
   -4.9120   -2.1022    0.6152 C   0  0  0  0  0  0  0  0  0  0  0  0
   -4.6790   -3.4767    1.2020 C   0  0  0  0  0  0  0  0  0  0  0  0
   -3.6460   -1.6849   -0.1007 C   0  0  0  0  0  0  0  0  0  0  0  0
   -3.2362   -0.3474    0.2992 N   0  0  0  0  0  0  0  0  0  0  0  0
   -3.1014   -0.1479    1.7511 C   0  0  0  0  0  0  0  0  0  0  0  0
   -3.0155    0.7075   -0.6284 C   0  0  0  0  0  0  0  0  0  0  0  0
   -4.0036    1.6391   -0.8380 N   0  0  0  0  0  0  0  0  0  0  0  0
   -3.5884    2.5293   -1.7495 C   0  0  0  0  0  0  0  0  0  0  0  0
   -2.3211    2.1328   -2.1037 C   0  0  0  0  0  0  0  0  0  0  0  0
   -1.9790    1.0024   -1.4011 N   0  0  0  0  0  0  0  0  0  0  0  0
   -0.7178    0.3741   -1.5808 C   0  0  0  0  0  0  0  0  0  0  0  0
    0.3620    1.3963   -1.2801 C   0  0  0  0  0  0  0  0  0  0  0  0
    1.2543    0.9161   -0.1256 C   0  0  0  0  0  0  0  0  0  0  0  0
    1.6823   -0.4155   -0.2521 N   0  0  0  0  0  0  0  0  0  0  0  0
    0.9367   -1.3536   -0.9321 C   0  0  0  0  0  0  0  0  0  0  0  0
   -0.5310   -0.8850   -0.8282 C   0  0  0  0  0  0  0  0  0  0  0  0
    3.0901   -0.6634    0.0351 C   0  0  0  0  0  0  0  0  0  0  0  0
    3.1421   -2.1874   -0.1943 C   0  0  0  0  0  0  0  0  0  0  0  0
    3.2204   -0.2644    1.4304 C   0  0  0  0  0  0  0  0  0  0  0  0
    4.4763   -0.0721    2.1488 C   0  0  0  0  0  0  0  0  0  0  0  0
    5.6387   -0.9442    1.9503 C   0  0  0  0  0  0  0  0  0  0  0  0
    6.6313   -0.2281    1.0529 C   0  0  0  0  0  0  0  0  0  0  0  0
    6.2822   -0.3214   -0.4063 C   0  0  0  0  0  0  0  0  0  0  0  0
    5.1764    0.5872   -0.8164 C   0  0  0  0  0  0  0  0  0  0  0  0
    3.8381    0.0167   -1.0248 C   0  0  0  0  0  0  0  0  0  0  0  0
   -1.6655    2.9001   -3.0444 C   0  0  0  0  0  0  0  0  0  0  0  0
   -2.2616    4.0180   -3.6030 C   0  0  0  0  0  0  0  0  0  0  0  0
   -3.5478    4.4010   -3.2283 C   0  0  0  0  0  0  0  0  0  0  0  0
   -4.2214    3.6364   -2.2805 C   0  0  0  0  0  0  0  0  0  0  0  0
   -5.4602    1.0341    2.7771 H   0  0  0  0  0  0  0  0  0  0  0  0
   -5.5916   -0.1781    4.0996 H   0  0  0  0  0  0  0  0  0  0  0  0
   -4.1053    0.9051    3.9619 H   0  0  0  0  0  0  0  0  0  0  0  0
   -3.9558   -1.5916    3.1712 H   0  0  0  0  0  0  0  0  0  0  0  0
   -5.8895   -0.3836    1.2655 H   0  0  0  0  0  0  0  0  0  0  0  0
   -5.7434   -2.1761   -0.1121 H   0  0  0  0  0  0  0  0  0  0  0  0
   -3.6041   -3.8084    1.1032 H   0  0  0  0  0  0  0  0  0  0  0  0
   -4.8997   -3.5237    2.2874 H   0  0  0  0  0  0  0  0  0  0  0  0
   -5.2758   -4.2579    0.6558 H   0  0  0  0  0  0  0  0  0  0  0  0
   -3.8128   -1.7381   -1.1894 H   0  0  0  0  0  0  0  0  0  0  0  0
   -2.8076   -2.3667    0.1423 H   0  0  0  0  0  0  0  0  0  0  0  0
   -2.1939   -0.6622    2.0973 H   0  0  0  0  0  0  0  0  0  0  0  0
   -3.0338    0.9143    1.9916 H   0  0  0  0  0  0  0  0  0  0  0  0
   -0.6198    0.1710   -2.6815 H   0  0  0  0  0  0  0  0  0  0  0  0
    1.0541    1.5620   -2.1413 H   0  0  0  0  0  0  0  0  0  0  0  0
   -0.0592    2.3720   -0.9646 H   0  0  0  0  0  0  0  0  0  0  0  0
    0.6267    1.0225    0.7897 H   0  0  0  0  0  0  0  0  0  0  0  0
    2.0493    1.6685   -0.0567 H   0  0  0  0  0  0  0  0  0  0  0  0
    1.1386   -1.3583   -2.0215 H   0  0  0  0  0  0  0  0  0  0  0  0
    0.8850   -2.3801   -0.4826 H   0  0  0  0  0  0  0  0  0  0  0  0
   -0.7681   -0.8249    0.2295 H   0  0  0  0  0  0  0  0  0  0  0  0
   -1.0614   -1.7204   -1.3780 H   0  0  0  0  0  0  0  0  0  0  0  0
    2.7747   -2.3935   -1.2364 H   0  0  0  0  0  0  0  0  0  0  0  0
    4.1431   -2.6004   -0.2149 H   0  0  0  0  0  0  0  0  0  0  0  0
    2.5831   -2.7273    0.5868 H   0  0  0  0  0  0  0  0  0  0  0  0
    2.6412    0.6696    1.6284 H   0  0  0  0  0  0  0  0  0  0  0  0
    2.6053   -1.0380    1.9906 H   0  0  0  0  0  0  0  0  0  0  0  0
    4.2111   -0.0961    3.2461 H   0  0  0  0  0  0  0  0  0  0  0  0
    4.8220    1.0044    2.0739 H   0  0  0  0  0  0  0  0  0  0  0  0
    6.2305   -1.0277    2.9160 H   0  0  0  0  0  0  0  0  0  0  0  0
    5.4611   -1.9809    1.6881 H   0  0  0  0  0  0  0  0  0  0  0  0
    7.6457   -0.6447    1.2075 H   0  0  0  0  0  0  0  0  0  0  0  0
    6.6452    0.8212    1.3690 H   0  0  0  0  0  0  0  0  0  0  0  0
    6.1101   -1.3439   -0.7307 H   0  0  0  0  0  0  0  0  0  0  0  0
    7.2522   -0.0437   -0.9253 H   0  0  0  0  0  0  0  0  0  0  0  0
    5.4685    0.9726   -1.8426 H   0  0  0  0  0  0  0  0  0  0  0  0
    5.1807    1.5531   -0.2377 H   0  0  0  0  0  0  0  0  0  0  0  0
    3.2529    0.8688   -1.4948 H   0  0  0  0  0  0  0  0  0  0  0  0
    3.9206   -0.6824   -1.9130 H   0  0  0  0  0  0  0  0  0  0  0  0
   -0.6735    2.6553   -3.3744 H   0  0  0  0  0  0  0  0  0  0  0  0
   -1.7465    4.6071   -4.3311 H   0  0  0  0  0  0  0  0  0  0  0  0
   -4.0451    5.2659   -3.6403 H   0  0  0  0  0  0  0  0  0  0  0  0
   -5.2288    3.8909   -1.9512 H   0  0  0  0  0  0  0  0  0  0  0  0
  1  2  1  0
  2  3  1  0
  3  4  1  0
  4  5  1  0
  4  6  1  0
  6  7  1  0
  7  8  1  0
  7  9  1  0
  9 10  2  0
 10 11  1  0
 11 12  2  0
 12 13  1  0
 13 14  1  0
 14 15  1  0
 15 16  1  0
 16 17  1  0
 17 18  1  0
 18 19  1  0
 17 20  1  0
 20 21  1  0
 20 22  1  0
 22 23  1  0
 23 24  1  0
 24 25  1  0
 25 26  1  0
 26 27  1  0
 27 28  1  0
 12 29  1  0
 29 30  2  0
 30 31  1  0
 31 32  2  0
  8  2  1  0
 13  9  1  0
 19 14  1  0
 28 20  1  0
 32 11  1  0
  1 33  1  0
  1 34  1  0
  1 35  1  0
  2 36  1  0
  3 37  1  0
  4 38  1  0
  5 39  1  0
  5 40  1  0
  5 41  1  0
  6 42  1  0
  6 43  1  0
  8 44  1  0
  8 45  1  0
 14 46  1  0
 15 47  1  0
 15 48  1  0
 16 49  1  0
 16 50  1  0
 18 51  1  0
 18 52  1  0
 19 53  1  0
 19 54  1  0
 21 55  1  0
 21 56  1  0
 21 57  1  0
 22 58  1  0
 22 59  1  0
 23 60  1  0
 23 61  1  0
 24 62  1  0
 24 63  1  0
 25 64  1  0
 25 65  1  0
 26 66  1  0
 26 67  1  0
 27 68  1  0
 27 69  1  0
 28 70  1  0
 28 71  1  0
 29 72  1  0
 30 73  1  0
 31 74  1  0
 32 75  1  0
M  END
>  <Ligand ID>  (1) 
LIG0004013

>  <Ligand>  (1) 
CHEMBL519925

>  <SMILES>  (1) 
CC1NC(C)CN(C1)c1nc2c(n1C1CCN(CC1)C1(C)CCCCCCC1)cccc2

>  <CID>  (1) 
24800107.0

>  <ChEMBL ID>  (1) 
nan

>  <InChiKey>  (1) 
IHDRRZZOAOZYJS-UHFFFAOYSA-N

>  <InChi>  (1) 
InChI=1S/C27H43N5/c1-21-19-30(20-22(2)28-21)26-29-24-11-7-8-12-25(24)32(26)23-13-17-31(18-14-23)27(3)15-9-5-4-6-10-16-27/h7-8,11-12,21-23,28H,4-6,9-10,13-20H2,1-3H3

>  <IUPAC Name>  (1) 
2-(3,5-dimethylpiperazin-1-yl)-1-[1-(1-methylcyclooctyl)piperidin-4-yl]benzimidazole

$$$$
