
     RDKit          3D

 59 60  0  0  0  0  0  0  0  0999 V2000
   -6.2273    3.5284    0.5457 C   0  0  0  0  0  0  0  0  0  0  0  0
   -5.5498    2.1869    0.1564 C   0  0  0  0  0  0  0  0  0  0  0  0
   -6.2891    1.1255    0.8448 C   0  0  0  0  0  0  0  0  0  0  0  0
   -5.9656   -0.2841    0.7070 C   0  0  0  0  0  0  0  0  0  0  0  0
   -4.6857   -0.8762    1.0916 C   0  0  0  0  0  0  0  0  0  0  0  0
   -3.4334   -0.4152    0.4217 C   0  0  0  0  0  0  0  0  0  0  0  0
   -3.5736   -0.6547   -1.0704 C   0  0  0  0  0  0  0  0  0  0  0  0
   -2.5138   -0.2818   -1.8454 O   0  0  0  0  0  0  0  0  0  0  0  0
   -1.2421   -0.7141   -1.9027 C   0  0  0  0  0  0  0  0  0  0  0  0
   -0.4027   -0.0590   -2.8293 C   0  0  0  0  0  0  0  0  0  0  0  0
    0.9145   -0.4019   -2.9912 C   0  0  0  0  0  0  0  0  0  0  0  0
    1.5062   -1.4138   -2.2554 C   0  0  0  0  0  0  0  0  0  0  0  0
    0.7017   -2.0636   -1.3475 C   0  0  0  0  0  0  0  0  0  0  0  0
   -0.6420   -1.7134   -1.1832 C   0  0  0  0  0  0  0  0  0  0  0  0
    2.9120   -1.7185   -2.5149 C   0  0  0  0  0  0  0  0  0  0  0  0
    3.8119   -0.8608   -1.7090 C   0  0  0  0  0  0  0  0  0  0  0  0
    3.6764   -0.9557   -0.2183 C   0  0  1  0  0  0  0  0  0  0  0  0
    4.7235    0.0102    0.3493 C   0  0  0  0  0  0  0  0  0  0  0  0
    4.7084    0.0252    1.8432 C   0  0  0  0  0  0  0  0  0  0  0  0
    5.7503    0.9840    2.3123 C   0  0  0  0  0  0  0  0  0  0  0  0
    6.5962    1.7415    1.6019 N   0  0  0  0  0  0  0  0  0  0  0  0
    7.3663    2.4595    2.4323 N   0  0  0  0  0  0  0  0  0  0  0  0
    6.9747    2.1259    3.6548 N   0  0  0  0  0  0  0  0  0  0  0  0
    6.0011    1.2375    3.6104 N   0  0  0  0  0  0  0  0  0  0  0  0
    2.3544   -0.5576    0.2407 N   0  0  0  0  0  0  0  0  0  0  0  0
    3.9831   -2.3180    0.3367 C   0  0  0  0  0  0  0  0  0  0  0  0
   -5.5856    4.3852    0.3341 H   0  0  0  0  0  0  0  0  0  0  0  0
   -6.5471    3.4456    1.6216 H   0  0  0  0  0  0  0  0  0  0  0  0
   -7.1697    3.5548   -0.0375 H   0  0  0  0  0  0  0  0  0  0  0  0
   -4.5071    2.3592    0.3841 H   0  0  0  0  0  0  0  0  0  0  0  0
   -5.6833    2.1406   -0.9601 H   0  0  0  0  0  0  0  0  0  0  0  0
   -6.3727    1.3857    1.9544 H   0  0  0  0  0  0  0  0  0  0  0  0
   -7.3789    1.2485    0.5261 H   0  0  0  0  0  0  0  0  0  0  0  0
   -6.1635   -0.6483   -0.3639 H   0  0  0  0  0  0  0  0  0  0  0  0
   -6.7654   -0.8939    1.2598 H   0  0  0  0  0  0  0  0  0  0  0  0
   -4.7582   -1.9781    0.8055 H   0  0  0  0  0  0  0  0  0  0  0  0
   -4.5469   -0.9699    2.2132 H   0  0  0  0  0  0  0  0  0  0  0  0
   -3.1050    0.5995    0.6213 H   0  0  0  0  0  0  0  0  0  0  0  0
   -2.6082   -1.0825    0.7794 H   0  0  0  0  0  0  0  0  0  0  0  0
   -4.5177   -0.1581   -1.4527 H   0  0  0  0  0  0  0  0  0  0  0  0
   -3.7986   -1.7693   -1.1607 H   0  0  0  0  0  0  0  0  0  0  0  0
   -0.7927    0.7491   -3.4473 H   0  0  0  0  0  0  0  0  0  0  0  0
    1.5156    0.1460   -3.7288 H   0  0  0  0  0  0  0  0  0  0  0  0
    1.1328   -2.8606   -0.7575 H   0  0  0  0  0  0  0  0  0  0  0  0
   -1.1842   -2.2826   -0.4741 H   0  0  0  0  0  0  0  0  0  0  0  0
    3.1768   -1.5246   -3.5978 H   0  0  0  0  0  0  0  0  0  0  0  0
    3.1008   -2.8083   -2.3922 H   0  0  0  0  0  0  0  0  0  0  0  0
    4.8863   -0.9318   -2.0228 H   0  0  0  0  0  0  0  0  0  0  0  0
    3.5503    0.2123   -1.9644 H   0  0  0  0  0  0  0  0  0  0  0  0
    4.4732    1.0148   -0.0510 H   0  0  0  0  0  0  0  0  0  0  0  0
    5.6865   -0.3256   -0.0795 H   0  0  0  0  0  0  0  0  0  0  0  0
    3.7032    0.3311    2.1777 H   0  0  0  0  0  0  0  0  0  0  0  0
    4.9682   -1.0066    2.1823 H   0  0  0  0  0  0  0  0  0  0  0  0
    7.3619    2.4961    4.5513 H   0  0  0  0  0  0  0  0  0  0  0  0
    2.0979    0.3897   -0.0650 H   0  0  0  0  0  0  0  0  0  0  0  0
    2.2620   -0.7667    1.2391 H   0  0  0  0  0  0  0  0  0  0  0  0
    3.4525   -3.1382   -0.1668 H   0  0  0  0  0  0  0  0  0  0  0  0
    5.0682   -2.5427    0.3949 H   0  0  0  0  0  0  0  0  0  0  0  0
    3.5932   -2.3201    1.3962 H   0  0  0  0  0  0  0  0  0  0  0  0
  1  2  1  0
  2  3  1  0
  3  4  1  0
  4  5  1  0
  5  6  1  0
  6  7  1  0
  7  8  1  0
  8  9  1  0
  9 10  2  0
 10 11  1  0
 11 12  2  0
 12 13  1  0
 13 14  2  0
 12 15  1  0
 15 16  1  0
 16 17  1  0
 17 18  1  0
 18 19  1  0
 19 20  1  0
 20 21  1  0
 21 22  2  0
 22 23  1  0
 23 24  1  0
 17 25  1  6
 17 26  1  0
 14  9  1  0
 24 20  2  0
  1 27  1  0
  1 28  1  0
  1 29  1  0
  2 30  1  0
  2 31  1  0
  3 32  1  0
  3 33  1  0
  4 34  1  0
  4 35  1  0
  5 36  1  0
  5 37  1  0
  6 38  1  0
  6 39  1  0
  7 40  1  0
  7 41  1  0
 10 42  1  0
 11 43  1  0
 13 44  1  0
 14 45  1  0
 15 46  1  0
 15 47  1  0
 16 48  1  0
 16 49  1  0
 18 50  1  0
 18 51  1  0
 19 52  1  0
 19 53  1  0
 23 54  1  0
 25 55  1  0
 25 56  1  0
 26 57  1  0
 26 58  1  0
 26 59  1  0
M  END
>  <Ligand ID>  (1) 
LIG0004299

>  <Ligand>  (1) 
CHEMBL1085191

>  <SMILES>  (1) 
CCCCCCCOc1ccc(cc1)CC[C@@](CCc1nn[nH]n1)(N)C

>  <CID>  (1) 
46881877.0

>  <ChEMBL ID>  (1) 
nan

>  <InChiKey>  (1) 
JOAQPIKVUDKYHT-FQEVSTJZSA-N

>  <InChi>  (1) 
InChI=1S/C20H33N5O/c1-3-4-5-6-7-16-26-18-10-8-17(9-11-18)12-14-20(2,21)15-13-19-22-24-25-23-19/h8-11H,3-7,12-16,21H2,1-2H3,(H,22,23,24,25)/t20-/m0/s1

>  <IUPAC Name>  (1) 
(3S)-1-(4-heptoxyphenyl)-3-methyl-5-(2H-tetrazol-5-yl)pentan-3-amine

$$$$
