
     RDKit          3D

 32 32  0  0  0  0  0  0  0  0999 V2000
    3.4871   -1.8863   -0.9094 O   0  0  0  0  0  0  0  0  0  0  0  0
    4.1114   -1.3994   -0.0196 C   0  0  0  0  0  0  0  0  0  0  0  0
    4.1107    0.0029    0.4329 C   0  0  0  0  0  0  0  0  0  0  0  0
    3.2033    0.8925   -0.3226 C   0  0  0  0  0  0  0  0  0  0  0  0
    1.7853    0.5969   -0.3280 C   0  0  0  0  0  0  0  0  0  0  0  0
    1.0200    1.0755    0.7485 C   0  0  0  0  0  0  0  0  0  0  0  0
   -0.3398    0.8603    0.8218 C   0  0  0  0  0  0  0  0  0  0  0  0
   -1.0188    0.1730   -0.1424 C   0  0  0  0  0  0  0  0  0  0  0  0
   -0.2881   -0.3089   -1.2139 C   0  0  0  0  0  0  0  0  0  0  0  0
    1.0877   -0.0903   -1.2871 C   0  0  0  0  0  0  0  0  0  0  0  0
   -2.4680   -0.0971   -0.1341 C   0  0  0  0  0  0  0  0  0  0  0  0
   -3.0786    0.5152    1.1228 C   0  0  0  0  0  0  0  0  0  0  0  0
   -3.1961    0.4582   -1.3226 C   0  0  0  0  0  0  0  0  0  0  0  0
   -2.6656   -1.6084   -0.1119 C   0  0  0  0  0  0  0  0  0  0  0  0
    4.7787   -2.0842    0.5418 H   0  0  0  0  0  0  0  0  0  0  0  0
    5.1774    0.3594    0.2763 H   0  0  0  0  0  0  0  0  0  0  0  0
    3.9929    0.0749    1.5418 H   0  0  0  0  0  0  0  0  0  0  0  0
    3.5637    0.9235   -1.3865 H   0  0  0  0  0  0  0  0  0  0  0  0
    3.3233    1.9357    0.0967 H   0  0  0  0  0  0  0  0  0  0  0  0
    1.5008    1.6375    1.5613 H   0  0  0  0  0  0  0  0  0  0  0  0
   -0.8990    1.2420    1.6635 H   0  0  0  0  0  0  0  0  0  0  0  0
   -0.7859   -0.8604   -2.0030 H   0  0  0  0  0  0  0  0  0  0  0  0
    1.5841   -0.4747   -2.1401 H   0  0  0  0  0  0  0  0  0  0  0  0
   -2.7375    0.0568    2.0499 H   0  0  0  0  0  0  0  0  0  0  0  0
   -2.8225    1.6106    1.0658 H   0  0  0  0  0  0  0  0  0  0  0  0
   -4.1942    0.5024    1.0401 H   0  0  0  0  0  0  0  0  0  0  0  0
   -2.4295    0.8057   -2.0622 H   0  0  0  0  0  0  0  0  0  0  0  0
   -3.8396   -0.3188   -1.7897 H   0  0  0  0  0  0  0  0  0  0  0  0
   -3.8332    1.3377   -1.0632 H   0  0  0  0  0  0  0  0  0  0  0  0
   -3.7210   -1.8670   -0.3275 H   0  0  0  0  0  0  0  0  0  0  0  0
   -2.0547   -2.0334   -0.9188 H   0  0  0  0  0  0  0  0  0  0  0  0
   -2.3546   -2.0321    0.8621 H   0  0  0  0  0  0  0  0  0  0  0  0
  1  2  2  0
  2  3  1  0
  3  4  1  0
  4  5  1  0
  5  6  2  0
  6  7  1  0
  7  8  2  0
  8  9  1  0
  9 10  2  0
  8 11  1  0
 11 12  1  0
 11 13  1  0
 11 14  1  0
 10  5  1  0
  2 15  1  0
  3 16  1  0
  3 17  1  0
  4 18  1  0
  4 19  1  0
  6 20  1  0
  7 21  1  0
  9 22  1  0
 10 23  1  0
 12 24  1  0
 12 25  1  0
 12 26  1  0
 13 27  1  0
 13 28  1  0
 13 29  1  0
 14 30  1  0
 14 31  1  0
 14 32  1  0
M  END
>  <Ligand ID>  (1) 
LIG0000038

>  <Ligand>  (1) 
bourgeonal

>  <SMILES>  (1) 
O=CCCc1ccc(cc1)C(C)(C)C

>  <CID>  (1) 
64832.0

>  <ChEMBL ID>  (1) 
nan

>  <InChiKey>  (1) 
FZJUFJKVIYFBSY-UHFFFAOYSA-N

>  <InChi>  (1) 
InChI=1S/C13H18O/c1-13(2,3)12-8-6-11(7-9-12)5-4-10-14/h6-10H,4-5H2,1-3H3

>  <IUPAC Name>  (1) 
3-(4-tert-butylphenyl)propanal

$$$$
