
     RDKit          3D

 57 59  0  0  0  0  0  0  0  0999 V2000
   -3.3199    3.5953   -0.1113 O   0  0  0  0  0  0  0  0  0  0  0  0
   -3.0079    2.4265   -0.7808 C   0  0  2  0  0  0  0  0  0  0  0  0
   -4.1566    1.4549   -0.8216 C   0  0  0  0  0  0  0  0  0  0  0  0
   -4.5533    1.0883    0.4848 O   0  0  0  0  0  0  0  0  0  0  0  0
   -5.6113    0.1879    0.6844 C   0  0  0  0  0  0  0  0  0  0  0  0
   -6.2275   -0.3068   -0.4491 C   0  0  0  0  0  0  0  0  0  0  0  0
   -7.2765   -1.1975   -0.3342 C   0  0  0  0  0  0  0  0  0  0  0  0
   -7.6812   -1.5705    0.9442 C   0  0  0  0  0  0  0  0  0  0  0  0
   -7.0502   -1.0629    2.0608 C   0  0  0  0  0  0  0  0  0  0  0  0
   -5.9864   -0.1601    1.9631 C   0  0  0  0  0  0  0  0  0  0  0  0
   -8.7483   -2.4762    1.0429 O   0  0  0  0  0  0  0  0  0  0  0  0
   -1.8540    1.7583   -0.0607 C   0  0  0  0  0  0  0  0  0  0  0  0
   -1.4578    0.5382   -0.6733 N   0  0  0  0  0  0  0  0  0  0  0  0
   -0.8497    0.6231   -1.9544 C   0  0  0  0  0  0  0  0  0  0  0  0
    0.5141    1.2585   -1.8303 C   0  0  0  0  0  0  0  0  0  0  0  0
    1.3439    0.4179   -0.9519 C   0  0  0  0  0  0  0  0  0  0  0  0
    2.0868   -0.6123   -1.5406 C   0  0  0  0  0  0  0  0  0  0  0  0
    2.8912   -1.4412   -0.7856 C   0  0  0  0  0  0  0  0  0  0  0  0
    2.9899   -1.2823    0.5742 C   0  0  0  0  0  0  0  0  0  0  0  0
    2.2569   -0.2604    1.1817 C   0  0  0  0  0  0  0  0  0  0  0  0
    1.4623    0.5512    0.4007 C   0  0  0  0  0  0  0  0  0  0  0  0
    3.7983   -2.0985    1.4121 N   0  0  0  0  0  0  0  0  0  0  0  0
    5.4209   -2.4570    0.8795 S   0  0  0  0  0  0  0  0  0  0  0  0
    6.0537   -3.4030    1.8886 O   0  0  0  0  0  0  0  0  0  0  0  0
    5.4168   -3.1693   -0.4358 O   0  0  0  0  0  0  0  0  0  0  0  0
    6.3455   -0.9794    0.7284 C   0  0  0  0  0  0  0  0  0  0  0  0
    6.2998   -0.3549   -0.5224 C   0  0  0  0  0  0  0  0  0  0  0  0
    6.9830    0.8156   -0.7773 C   0  0  0  0  0  0  0  0  0  0  0  0
    7.7189    1.3486    0.2617 C   0  0  0  0  0  0  0  0  0  0  0  0
    7.7641    0.7274    1.5058 C   0  0  0  0  0  0  0  0  0  0  0  0
    7.0813   -0.4426    1.7603 C   0  0  0  0  0  0  0  0  0  0  0  0
    8.5900    2.8349   -0.0546 Cl  0  0  0  0  0  0  0  0  0  0  0  0
   -3.8005    3.4098    0.7166 H   0  0  0  0  0  0  0  0  0  0  0  0
   -2.6694    2.7271   -1.7905 H   0  0  0  0  0  0  0  0  0  0  0  0
   -5.0031    1.9124   -1.3924 H   0  0  0  0  0  0  0  0  0  0  0  0
   -3.8978    0.5297   -1.3606 H   0  0  0  0  0  0  0  0  0  0  0  0
   -5.9191   -0.0225   -1.4466 H   0  0  0  0  0  0  0  0  0  0  0  0
   -7.7558   -1.5822   -1.2132 H   0  0  0  0  0  0  0  0  0  0  0  0
   -7.4179   -1.3971    3.0217 H   0  0  0  0  0  0  0  0  0  0  0  0
   -5.4992    0.2313    2.8458 H   0  0  0  0  0  0  0  0  0  0  0  0
   -9.4296   -2.5315    0.2916 H   0  0  0  0  0  0  0  0  0  0  0  0
   -2.2005    1.5233    0.9715 H   0  0  0  0  0  0  0  0  0  0  0  0
   -0.9841    2.4351    0.0190 H   0  0  0  0  0  0  0  0  0  0  0  0
   -2.0753   -0.2652   -0.5128 H   0  0  0  0  0  0  0  0  0  0  0  0
   -1.4793    1.1383   -2.7167 H   0  0  0  0  0  0  0  0  0  0  0  0
   -0.7739   -0.4292   -2.3444 H   0  0  0  0  0  0  0  0  0  0  0  0
    1.0314    1.3190   -2.8159 H   0  0  0  0  0  0  0  0  0  0  0  0
    0.3716    2.2993   -1.4742 H   0  0  0  0  0  0  0  0  0  0  0  0
    2.0403   -0.7769   -2.6164 H   0  0  0  0  0  0  0  0  0  0  0  0
    3.4489   -2.2234   -1.2699 H   0  0  0  0  0  0  0  0  0  0  0  0
    2.3212   -0.1162    2.2675 H   0  0  0  0  0  0  0  0  0  0  0  0
    0.9151    1.3282    0.9098 H   0  0  0  0  0  0  0  0  0  0  0  0
    3.4392   -2.4713    2.3124 H   0  0  0  0  0  0  0  0  0  0  0  0
    5.7132   -0.7817   -1.3459 H   0  0  0  0  0  0  0  0  0  0  0  0
    6.9255    1.2699   -1.7531 H   0  0  0  0  0  0  0  0  0  0  0  0
    8.3615    1.1928    2.2911 H   0  0  0  0  0  0  0  0  0  0  0  0
    7.1008   -0.9433    2.7165 H   0  0  0  0  0  0  0  0  0  0  0  0
  1  2  1  0
  2  3  1  0
  3  4  1  0
  4  5  1  0
  5  6  2  0
  6  7  1  0
  7  8  2  0
  8  9  1  0
  9 10  2  0
  8 11  1  0
  2 12  1  0
 12 13  1  0
 13 14  1  0
 14 15  1  0
 15 16  1  0
 16 17  2  0
 17 18  1  0
 18 19  2  0
 19 20  1  0
 20 21  2  0
 19 22  1  0
 22 23  1  0
 23 24  2  0
 23 25  2  0
 23 26  1  0
 26 27  2  0
 27 28  1  0
 28 29  2  0
 29 30  1  0
 30 31  2  0
 29 32  1  0
 10  5  1  0
 21 16  1  0
 31 26  1  0
  1 33  1  0
  2 34  1  6
  3 35  1  0
  3 36  1  0
  6 37  1  0
  7 38  1  0
  9 39  1  0
 10 40  1  0
 11 41  1  0
 12 42  1  0
 12 43  1  0
 13 44  1  0
 14 45  1  0
 14 46  1  0
 15 47  1  0
 15 48  1  0
 17 49  1  0
 18 50  1  0
 20 51  1  0
 21 52  1  0
 22 53  1  0
 27 54  1  0
 28 55  1  0
 30 56  1  0
 31 57  1  0
M  END
>  <Ligand ID>  (1) 
LIG0005937

>  <Ligand>  (1) 
CHEMBL12450

>  <SMILES>  (1) 
O[C@H](COc1ccc(cc1)O)CNCCc1ccc(cc1)NS(=O)(=O)c1ccc(cc1)Cl

>  <CID>  (1) 
44268324.0

>  <ChEMBL ID>  (1) 
nan

>  <InChiKey>  (1) 
KAALXKXXWZCFLC-NRFANRHFSA-N

>  <InChi>  (1) 
InChI=1S/C23H25ClN2O5S/c24-18-3-11-23(12-4-18)32(29,30)26-19-5-1-17(2-6-19)13-14-25-15-21(28)16-31-22-9-7-20(27)8-10-22/h1-12,21,25-28H,13-16H2/t21-/m0/s1

>  <IUPAC Name>  (1) 
4-chloro-N-[4-[2-[[(2S)-2-hydroxy-3-(4-hydroxyphenoxy)propyl]amino]ethyl]phenyl]benzenesulfonamide

$$$$
