
     RDKit          3D

201208  0  0  0  0  0  0  0  0999 V2000
   12.0147   -1.0964   -3.5258 N   0  0  0  0  0  0  0  0  0  0  0  0
   10.9174   -1.2210   -2.6029 C   0  0  0  0  0  0  0  0  0  0  0  0
   11.2962   -1.8658   -1.2899 C   0  0  0  0  0  0  0  0  0  0  0  0
   10.2116   -1.9977   -0.3254 C   0  0  0  0  0  0  0  0  0  0  0  0
    9.4448   -0.8803    0.2344 C   0  0  0  0  0  0  0  0  0  0  0  0
   10.0222    0.1719    1.0693 C   0  0  1  0  0  0  0  0  0  0  0  0
   11.0617    1.0856    0.5307 C   0  0  0  0  0  0  0  0  0  0  0  0
   11.7763    0.8430   -0.4234 O   0  0  0  0  0  0  0  0  0  0  0  0
   11.3297    2.4331    1.1532 C   0  0  0  0  0  0  0  0  0  0  0  0
   12.5005    2.9926    0.6710 N   0  0  0  0  0  0  0  0  0  0  0  0
   13.8040    2.5992    0.9999 C   0  0  2  0  0  0  0  0  0  0  0  0
   14.6667    3.5433    0.1513 C   0  0  0  0  0  0  0  0  0  0  0  0
   14.0100    4.3958   -0.5448 O   0  0  0  0  0  0  0  0  0  0  0  0
   16.0393    3.5567    0.0749 N   0  0  0  0  0  0  0  0  0  0  0  0
   14.3076    1.2529    0.6955 C   0  0  0  0  0  0  0  0  0  0  0  0
   15.7055    1.1022    1.2278 C   0  0  0  0  0  0  0  0  0  0  0  0
   16.2677    1.9092    1.9855 O   0  0  0  0  0  0  0  0  0  0  0  0
   16.3696   -0.0606    0.7956 O   0  0  0  0  0  0  0  0  0  0  0  0
    9.1041    0.7461    1.9774 N   0  0  0  0  0  0  0  0  0  0  0  0
    8.0445    1.5743    1.7653 C   0  0  0  0  0  0  0  0  0  0  0  0
    6.7770    1.3444    1.1314 C   0  0  0  0  0  0  0  0  0  0  0  0
    5.9546    2.3445    1.2635 O   0  0  0  0  0  0  0  0  0  0  0  0
    6.1656    0.2637    0.3703 C   0  0  2  0  0  0  0  0  0  0  0  0
    6.2383    0.6837   -1.1146 C   0  0  0  0  0  0  0  0  0  0  0  0
    5.1394    1.7158   -1.2540 C   0  0  0  0  0  0  0  0  0  0  0  0
    4.1158    1.2418   -0.2160 C   0  0  0  0  0  0  0  0  0  0  0  0
    4.7250    0.2557    0.5387 N   0  0  0  0  0  0  0  0  0  0  0  0
    4.2915   -0.1579    1.7913 C   0  0  0  0  0  0  0  0  0  0  0  0
    3.1173   -0.9517    2.0350 C   0  0  0  0  0  0  0  0  0  0  0  0
    2.7525   -0.9401    3.2810 O   0  0  0  0  0  0  0  0  0  0  0  0
    2.2352   -1.7780    1.2292 C   0  0  2  0  0  0  0  0  0  0  0  0
    2.5545   -3.2889    1.5497 C   0  0  0  0  0  0  0  0  0  0  0  0
    3.6892   -3.5328    0.6130 C   0  0  0  0  0  0  0  0  0  0  0  0
    3.4773   -2.6485   -0.5580 C   0  0  0  0  0  0  0  0  0  0  0  0
    2.3325   -1.7694   -0.1833 N   0  0  0  0  0  0  0  0  0  0  0  0
    1.5989   -1.1816   -1.2415 C   0  0  0  0  0  0  0  0  0  0  0  0
    2.0555   -1.6049   -2.4128 O   0  0  0  0  0  0  0  0  0  0  0  0
    0.5136   -0.2661   -1.3421 C   0  0  1  0  0  0  0  0  0  0  0  0
   -0.8263   -1.0119   -1.7141 C   0  0  0  0  0  0  0  0  0  0  0  0
   -0.7614   -2.2440   -2.9210 S   0  0  0  0  0  0  0  0  0  0  0  0
   -0.0097   -4.1213   -2.4540 S   0  0  0  0  0  0  0  0  0  0  0  0
   -1.2530   -5.3164   -1.8847 C   0  0  0  0  0  0  0  0  0  0  0  0
   -1.5328   -5.2185   -0.4604 C   0  0  1  0  0  0  0  0  0  0  0  0
   -1.7875   -3.8218    0.0956 C   0  0  0  0  0  0  0  0  0  0  0  0
   -0.9642   -3.3097    0.8110 O   0  0  0  0  0  0  0  0  0  0  0  0
   -3.0845   -3.2318   -0.3246 C   0  0  0  0  0  0  0  0  0  0  0  0
   -2.8783   -5.9027   -0.1154 C   0  0  0  0  0  0  0  0  0  0  0  0
   -3.1163   -6.0964    1.0777 O   0  0  0  0  0  0  0  0  0  0  0  0
   -3.8073   -6.3057   -1.0755 N   0  0  0  0  0  0  0  0  0  0  0  0
   -5.1743   -6.6091   -0.5862 C   0  0  2  0  0  0  0  0  0  0  0  0
   -5.5083   -8.0306   -0.7818 C   0  0  0  0  0  0  0  0  0  0  0  0
   -5.4973   -8.5901   -2.1541 C   0  0  0  0  0  0  0  0  0  0  0  0
   -5.8886  -10.0445   -2.0398 C   0  0  0  0  0  0  0  0  0  0  0  0
   -5.9655  -10.7137   -3.1025 O   0  0  0  0  0  0  0  0  0  0  0  0
   -6.1532  -10.6126   -0.7859 O   0  0  0  0  0  0  0  0  0  0  0  0
   -6.0798   -5.6266   -1.2332 C   0  0  0  0  0  0  0  0  0  0  0  0
   -5.6346   -5.0080   -2.2234 O   0  0  0  0  0  0  0  0  0  0  0  0
   -7.3905   -5.2910   -0.8626 N   0  0  0  0  0  0  0  0  0  0  0  0
   -8.1623   -5.6768    0.2624 C   0  0  0  0  0  0  0  0  0  0  0  0
   -9.6049   -5.3452   -0.0010 C   0  0  0  0  0  0  0  0  0  0  0  0
   -9.6148   -4.8169   -1.3959 C   0  0  0  0  0  0  0  0  0  0  0  0
   -8.1671   -4.3925   -1.6623 C   0  0  1  0  0  0  0  0  0  0  0  0
   -7.9964   -2.9558   -1.5476 C   0  0  0  0  0  0  0  0  0  0  0  0
   -8.1105   -2.2747   -2.6119 O   0  0  0  0  0  0  0  0  0  0  0  0
   -7.7145   -2.1653   -0.3983 N   0  0  0  0  0  0  0  0  0  0  0  0
   -7.7115   -0.6775   -0.5722 C   0  0  2  0  0  0  0  0  0  0  0  0
   -6.6957   -0.0136    0.2276 C   0  0  0  0  0  0  0  0  0  0  0  0
   -6.0261   -0.6915    1.0367 O   0  0  0  0  0  0  0  0  0  0  0  0
   -6.3583    1.3668    0.1956 N   0  0  0  0  0  0  0  0  0  0  0  0
   -5.3799    2.1231    0.8475 C   0  0  2  0  0  0  0  0  0  0  0  0
   -3.9889    1.4930    0.8589 C   0  0  0  0  0  0  0  0  0  0  0  0
   -3.7417    0.3314    0.5897 O   0  0  0  0  0  0  0  0  0  0  0  0
   -2.8393    2.3178    1.2023 N   0  0  0  0  0  0  0  0  0  0  0  0
   -1.5896    1.6314    1.3299 C   0  0  1  0  0  0  0  0  0  0  0  0
   -1.0079    1.2909   -0.0329 C   0  0  0  0  0  0  0  0  0  0  0  0
   -1.3821    1.7638   -1.0838 O   0  0  0  0  0  0  0  0  0  0  0  0
    0.0637    0.3321   -0.0602 N   0  0  0  0  0  0  0  0  0  0  0  0
   -0.6162    2.2320    2.2663 C   0  0  0  0  0  0  0  0  0  0  0  0
   -0.1660    3.5938    2.0321 C   0  0  0  0  0  0  0  0  0  0  0  0
    1.0274    3.9267    1.3678 C   0  0  0  0  0  0  0  0  0  0  0  0
    1.1263    5.2843    1.3127 N   0  0  0  0  0  0  0  0  0  0  0  0
    0.0679    5.8515    1.9032 C   0  0  0  0  0  0  0  0  0  0  0  0
   -0.7321    4.8251    2.3496 C   0  0  0  0  0  0  0  0  0  0  0  0
   -1.8874    5.1812    3.0041 C   0  0  0  0  0  0  0  0  0  0  0  0
   -2.2780    6.4731    3.2279 C   0  0  0  0  0  0  0  0  0  0  0  0
   -1.4824    7.5052    2.7834 C   0  0  0  0  0  0  0  0  0  0  0  0
   -0.2970    7.1850    2.1147 C   0  0  0  0  0  0  0  0  0  0  0  0
   -5.6501    2.6602    2.2093 C   0  0  0  0  0  0  0  0  0  0  0  0
   -6.7952    3.5653    2.3150 C   0  0  0  0  0  0  0  0  0  0  0  0
   -6.6152    4.7782    1.3913 C   0  0  0  0  0  0  0  0  0  0  0  0
   -7.7369    5.6508    1.5025 N   0  0  0  0  0  0  0  0  0  0  0  0
   -7.8914    6.8710    1.2439 C   0  0  0  0  0  0  0  0  0  0  0  0
   -9.2152    7.4053    1.5008 N   0  0  0  0  0  0  0  0  0  0  0  0
   -6.9253    7.7669    0.7323 N   0  0  0  0  0  0  0  0  0  0  0  0
   -9.1453   -0.2564   -0.4594 C   0  0  0  0  0  0  0  0  0  0  0  0
   -9.3871    1.1578   -0.6274 C   0  0  0  0  0  0  0  0  0  0  0  0
   -9.5824    2.0361    0.3923 C   0  0  0  0  0  0  0  0  0  0  0  0
   -9.8248    3.3632    0.1274 C   0  0  0  0  0  0  0  0  0  0  0  0
   -9.8816    3.8609   -1.1575 C   0  0  0  0  0  0  0  0  0  0  0  0
   -9.6844    2.9851   -2.2051 C   0  0  0  0  0  0  0  0  0  0  0  0
   -9.4409    1.6543   -1.9411 C   0  0  0  0  0  0  0  0  0  0  0  0
   -9.7376    3.5016   -3.4770 C   0  0  0  0  0  0  0  0  0  0  0  0
   -9.9757    4.8392   -3.7500 C   0  0  0  0  0  0  0  0  0  0  0  0
  -10.1720    5.7069   -2.6986 C   0  0  0  0  0  0  0  0  0  0  0  0
  -10.1225    5.2037   -1.4129 C   0  0  0  0  0  0  0  0  0  0  0  0
   12.0380   -0.2009   -4.0277 H   0  0  0  0  0  0  0  0  0  0  0  0
   12.2065   -1.9473   -4.0680 H   0  0  0  0  0  0  0  0  0  0  0  0
   10.4030   -0.2671   -2.5263 H   0  0  0  0  0  0  0  0  0  0  0  0
   10.1847   -1.9192   -3.1233 H   0  0  0  0  0  0  0  0  0  0  0  0
   12.2601   -1.6114   -0.8756 H   0  0  0  0  0  0  0  0  0  0  0  0
   11.4928   -2.9729   -1.6303 H   0  0  0  0  0  0  0  0  0  0  0  0
   10.6261   -2.5760    0.5594 H   0  0  0  0  0  0  0  0  0  0  0  0
    9.4430   -2.7045   -0.7739 H   0  0  0  0  0  0  0  0  0  0  0  0
    8.7975   -0.3746   -0.5325 H   0  0  0  0  0  0  0  0  0  0  0  0
    8.6578   -1.4137    0.9069 H   0  0  0  0  0  0  0  0  0  0  0  0
   10.6818   -0.5103    1.8394 H   0  0  0  0  0  0  0  0  0  0  0  0
   11.2632    2.3545    2.2770 H   0  0  0  0  0  0  0  0  0  0  0  0
   10.4935    3.1623    0.8945 H   0  0  0  0  0  0  0  0  0  0  0  0
   12.3520    3.7977    0.0512 H   0  0  0  0  0  0  0  0  0  0  0  0
   14.1077    2.9093    2.0480 H   0  0  0  0  0  0  0  0  0  0  0  0
   16.5543    2.8621   -0.5567 H   0  0  0  0  0  0  0  0  0  0  0  0
   16.6793    4.2269    0.6019 H   0  0  0  0  0  0  0  0  0  0  0  0
   14.4481    1.0881   -0.4141 H   0  0  0  0  0  0  0  0  0  0  0  0
   13.7744    0.3978    1.1705 H   0  0  0  0  0  0  0  0  0  0  0  0
   17.2796   -0.2505    1.1455 H   0  0  0  0  0  0  0  0  0  0  0  0
    9.3962    0.6135    2.9967 H   0  0  0  0  0  0  0  0  0  0  0  0
    7.7173    1.9104    2.8650 H   0  0  0  0  0  0  0  0  0  0  0  0
    8.3527    2.6328    1.4125 H   0  0  0  0  0  0  0  0  0  0  0  0
    6.5977   -0.7211    0.4106 H   0  0  0  0  0  0  0  0  0  0  0  0
    7.2293    1.1194   -1.3716 H   0  0  0  0  0  0  0  0  0  0  0  0
    6.0498   -0.2005   -1.7402 H   0  0  0  0  0  0  0  0  0  0  0  0
    5.5566    2.7052   -1.0271 H   0  0  0  0  0  0  0  0  0  0  0  0
    4.7147    1.7312   -2.2530 H   0  0  0  0  0  0  0  0  0  0  0  0
    3.8537    2.1812    0.3450 H   0  0  0  0  0  0  0  0  0  0  0  0
    3.2102    0.9802   -0.7814 H   0  0  0  0  0  0  0  0  0  0  0  0
    5.2217   -0.6731    2.2756 H   0  0  0  0  0  0  0  0  0  0  0  0
    4.2596    0.7761    2.4830 H   0  0  0  0  0  0  0  0  0  0  0  0
    1.1682   -1.7377    1.5436 H   0  0  0  0  0  0  0  0  0  0  0  0
    1.6795   -3.8842    1.2533 H   0  0  0  0  0  0  0  0  0  0  0  0
    2.7444   -3.3951    2.6092 H   0  0  0  0  0  0  0  0  0  0  0  0
    3.7044   -4.6219    0.2981 H   0  0  0  0  0  0  0  0  0  0  0  0
    4.6786   -3.3795    1.1109 H   0  0  0  0  0  0  0  0  0  0  0  0
    4.3300   -2.0688   -0.9095 H   0  0  0  0  0  0  0  0  0  0  0  0
    3.1617   -3.2875   -1.4169 H   0  0  0  0  0  0  0  0  0  0  0  0
    0.5564    0.5188   -2.0949 H   0  0  0  0  0  0  0  0  0  0  0  0
   -1.2344   -1.2671   -0.7333 H   0  0  0  0  0  0  0  0  0  0  0  0
   -1.4660   -0.1480   -2.1335 H   0  0  0  0  0  0  0  0  0  0  0  0
   -2.1931   -5.0822   -2.4615 H   0  0  0  0  0  0  0  0  0  0  0  0
   -0.9044   -6.3467   -2.1143 H   0  0  0  0  0  0  0  0  0  0  0  0
   -0.7921   -5.7069    0.1617 H   0  0  0  0  0  0  0  0  0  0  0  0
   -3.1998   -2.2580    0.1802 H   0  0  0  0  0  0  0  0  0  0  0  0
   -3.1846   -3.0754   -1.4096 H   0  0  0  0  0  0  0  0  0  0  0  0
   -3.9460   -3.8498    0.0712 H   0  0  0  0  0  0  0  0  0  0  0  0
   -3.5198   -6.3986   -2.0358 H   0  0  0  0  0  0  0  0  0  0  0  0
   -5.1616   -6.4076    0.4944 H   0  0  0  0  0  0  0  0  0  0  0  0
   -6.5030   -8.3099   -0.3286 H   0  0  0  0  0  0  0  0  0  0  0  0
   -4.7878   -8.6227   -0.1390 H   0  0  0  0  0  0  0  0  0  0  0  0
   -6.2661   -8.1263   -2.8019 H   0  0  0  0  0  0  0  0  0  0  0  0
   -4.4954   -8.6198   -2.6276 H   0  0  0  0  0  0  0  0  0  0  0  0
   -6.7719  -11.4222   -0.7266 H   0  0  0  0  0  0  0  0  0  0  0  0
   -8.0240   -6.7277    0.5851 H   0  0  0  0  0  0  0  0  0  0  0  0
   -7.8558   -5.0015    1.1213 H   0  0  0  0  0  0  0  0  0  0  0  0
  -10.2003   -6.2850    0.1368 H   0  0  0  0  0  0  0  0  0  0  0  0
  -10.0218   -4.6110    0.7280 H   0  0  0  0  0  0  0  0  0  0  0  0
  -10.3450   -4.0543   -1.6346 H   0  0  0  0  0  0  0  0  0  0  0  0
   -9.8239   -5.6999   -2.0593 H   0  0  0  0  0  0  0  0  0  0  0  0
   -7.9591   -4.7193   -2.7341 H   0  0  0  0  0  0  0  0  0  0  0  0
   -7.5336   -2.6400    0.4650 H   0  0  0  0  0  0  0  0  0  0  0  0
   -7.4420   -0.5029   -1.6713 H   0  0  0  0  0  0  0  0  0  0  0  0
   -6.9904    1.8898   -0.4939 H   0  0  0  0  0  0  0  0  0  0  0  0
   -5.1577    3.0227    0.1740 H   0  0  0  0  0  0  0  0  0  0  0  0
   -3.0539    3.2981    1.2976 H   0  0  0  0  0  0  0  0  0  0  0  0
   -1.7939    0.5737    1.7449 H   0  0  0  0  0  0  0  0  0  0  0  0
    0.4785    0.1410    0.8359 H   0  0  0  0  0  0  0  0  0  0  0  0
   -1.0433    2.2086    3.3202 H   0  0  0  0  0  0  0  0  0  0  0  0
    0.2815    1.5366    2.3878 H   0  0  0  0  0  0  0  0  0  0  0  0
    1.7605    3.2069    0.9628 H   0  0  0  0  0  0  0  0  0  0  0  0
    1.9450    5.7621    0.8552 H   0  0  0  0  0  0  0  0  0  0  0  0
   -2.5154    4.3774    3.3660 H   0  0  0  0  0  0  0  0  0  0  0  0
   -3.2132    6.6848    3.7554 H   0  0  0  0  0  0  0  0  0  0  0  0
   -1.7789    8.5227    2.9542 H   0  0  0  0  0  0  0  0  0  0  0  0
    0.3580    7.9538    1.7535 H   0  0  0  0  0  0  0  0  0  0  0  0
   -4.7279    3.2841    2.4615 H   0  0  0  0  0  0  0  0  0  0  0  0
   -5.6210    1.8689    2.9994 H   0  0  0  0  0  0  0  0  0  0  0  0
   -6.7381    4.0333    3.3587 H   0  0  0  0  0  0  0  0  0  0  0  0
   -7.7877    3.1579    2.1532 H   0  0  0  0  0  0  0  0  0  0  0  0
   -6.5394    4.4631    0.3223 H   0  0  0  0  0  0  0  0  0  0  0  0
   -5.6875    5.3293    1.6467 H   0  0  0  0  0  0  0  0  0  0  0  0
   -9.4638    7.4039    2.5366 H   0  0  0  0  0  0  0  0  0  0  0  0
   -9.8340    7.7502    0.7620 H   0  0  0  0  0  0  0  0  0  0  0  0
   -6.7092    7.7069   -0.2975 H   0  0  0  0  0  0  0  0  0  0  0  0
   -6.4421    8.4685    1.3427 H   0  0  0  0  0  0  0  0  0  0  0  0
   -9.5143   -0.6394    0.5377 H   0  0  0  0  0  0  0  0  0  0  0  0
   -9.7320   -0.8573   -1.2348 H   0  0  0  0  0  0  0  0  0  0  0  0
   -9.5386    1.6649    1.4273 H   0  0  0  0  0  0  0  0  0  0  0  0
   -9.9764    4.0644    0.9442 H   0  0  0  0  0  0  0  0  0  0  0  0
   -9.2836    0.9575   -2.7682 H   0  0  0  0  0  0  0  0  0  0  0  0
   -9.5870    2.8365   -4.3288 H   0  0  0  0  0  0  0  0  0  0  0  0
  -10.0067    5.2161   -4.7704 H   0  0  0  0  0  0  0  0  0  0  0  0
  -10.3683    6.7670   -2.8421 H   0  0  0  0  0  0  0  0  0  0  0  0
  -10.2792    5.8233   -0.5332 H   0  0  0  0  0  0  0  0  0  0  0  0
  1  2  1  0
  2  3  1  0
  3  4  1  0
  4  5  1  0
  5  6  1  0
  6  7  1  0
  7  8  2  0
  7  9  1  0
  9 10  1  0
 10 11  1  0
 11 12  1  0
 12 13  2  0
 12 14  1  0
 11 15  1  0
 15 16  1  0
 16 17  2  0
 16 18  1  0
  6 19  1  0
 19 20  1  0
 20 21  1  0
 21 22  2  0
 21 23  1  0
 23 24  1  0
 24 25  1  0
 25 26  1  0
 26 27  1  0
 27 28  1  0
 28 29  1  0
 29 30  2  0
 29 31  1  0
 31 32  1  0
 32 33  1  0
 33 34  1  0
 34 35  1  0
 35 36  1  0
 36 37  2  0
 36 38  1  0
 38 39  1  0
 39 40  1  0
 40 41  1  0
 41 42  1  0
 42 43  1  0
 43 44  1  0
 44 45  2  0
 44 46  1  0
 43 47  1  0
 47 48  2  0
 47 49  1  0
 49 50  1  0
 50 51  1  0
 51 52  1  0
 52 53  1  0
 53 54  2  0
 53 55  1  0
 50 56  1  0
 56 57  2  0
 56 58  1  0
 58 59  1  0
 59 60  1  0
 60 61  1  0
 61 62  1  0
 62 63  1  0
 63 64  2  0
 63 65  1  0
 65 66  1  0
 66 67  1  0
 67 68  2  0
 67 69  1  0
 69 70  1  0
 70 71  1  0
 71 72  2  0
 71 73  1  0
 73 74  1  0
 74 75  1  0
 75 76  2  0
 75 77  1  0
 74 78  1  0
 78 79  1  0
 79 80  2  0
 80 81  1  0
 81 82  1  0
 82 83  2  0
 83 84  1  0
 84 85  2  0
 85 86  1  0
 86 87  2  0
 70 88  1  0
 88 89  1  0
 89 90  1  0
 90 91  1  0
 91 92  2  3
 92 93  1  0
 92 94  1  0
 66 95  1  0
 95 96  1  0
 96 97  2  0
 97 98  1  0
 98 99  2  0
 99100  1  0
100101  2  0
100102  1  0
102103  2  0
103104  1  0
104105  2  0
 27 23  1  0
 35 31  1  0
 77 38  1  0
 83 79  1  0
101 96  1  0
 62 58  1  0
 87 82  1  0
105 99  1  0
  1106  1  0
  1107  1  0
  2108  1  0
  2109  1  0
  3110  1  0
  3111  1  0
  4112  1  0
  4113  1  0
  5114  1  0
  5115  1  0
  6116  1  1
  9117  1  0
  9118  1  0
 10119  1  0
 11120  1  1
 14121  1  0
 14122  1  0
 15123  1  0
 15124  1  0
 18125  1  0
 19126  1  0
 20127  1  0
 20128  1  0
 23129  1  6
 24130  1  0
 24131  1  0
 25132  1  0
 25133  1  0
 26134  1  0
 26135  1  0
 28136  1  0
 28137  1  0
 31138  1  6
 32139  1  0
 32140  1  0
 33141  1  0
 33142  1  0
 34143  1  0
 34144  1  0
 38145  1  6
 39146  1  0
 39147  1  0
 42148  1  0
 42149  1  0
 43150  1  1
 46151  1  0
 46152  1  0
 46153  1  0
 49154  1  0
 50155  1  1
 51156  1  0
 51157  1  0
 52158  1  0
 52159  1  0
 55160  1  0
 59161  1  0
 59162  1  0
 60163  1  0
 60164  1  0
 61165  1  0
 61166  1  0
 62167  1  6
 65168  1  0
 66169  1  6
 69170  1  0
 70171  1  6
 73172  1  0
 74173  1  1
 77174  1  0
 78175  1  0
 78176  1  0
 80177  1  0
 81178  1  0
 84179  1  0
 85180  1  0
 86181  1  0
 87182  1  0
 88183  1  0
 88184  1  0
 89185  1  0
 89186  1  0
 90187  1  0
 90188  1  0
 93189  1  0
 93190  1  0
 94191  1  0
 94192  1  0
 95193  1  0
 95194  1  0
 97195  1  0
 98196  1  0
101197  1  0
102198  1  0
103199  1  0
104200  1  0
105201  1  0
M  END
>  <Ligand ID>  (1) 
LIG0003267

>  <Ligand>  (1) 
CHEMBL268094

>  <SMILES>  (1) 
NCCCC[C@@H](C(=O)CN[C@H](C(=O)N)CC(=O)O)NCC(=O)[C@@H]1CCCN1CC(=O)[C@@H]1CCCN1C(=O)[C@H]1CSSC[C@@H](C(=O)C)C(=O)N[C@H](CCC(=O)O)C(=O)N2CCC[C@H]2C(=O)N[C@H](C(=O)N[C@H](C(=O)N[C@@H](C(=O)N1)Cc1c[nH]c2c1cccc2)CCCN=C(N)N)Cc1ccc2c(c1)cccc2

>  <CID>  (1) 
44348183.0

>  <ChEMBL ID>  (1) 
nan

>  <InChiKey>  (1) 
FPNNFLZOARGOIQ-XPBRGCSKSA-N

>  <InChi>  (1) 
InChI=1S/C71H96N16O16S2/c1-40(88)46-38-104-105-39-54(70(103)86-28-10-19-56(86)60(91)37-85-27-9-18-55(85)59(90)36-78-48(16-6-7-25-72)58(89)35-79-51(63(73)96)33-62(94)95)84-67(100)53(32-44-34-77-47-15-5-4-14-45(44)47)82-65(98)49(17-8-26-76-71(74)75)80-66(99)52(31-41-21-22-42-12-2-3-13-43(42)30-41)83-68(101)57-20-11-29-87(57)69(102)50(81-64(46)97)23-24-61(92)93/h2-5,12-15,21-22,30,34,46,48-57,77-79H,6-11,16-20,23-29,31-33,35-39,72H2,1H3,(H2,73,96)(H,80,99)(H,81,97)(H,82,98)(H,83,101)(H,84,100)(H,92,93)(H,94,95)(H4,74,75,76)/t46-,48-,49-,50+,51-,52-,53+,54+,55-,56-,57-/m0/s1

>  <IUPAC Name>  (1) 
(3S)-3-[[(3S)-3-[[2-[(2S)-1-[2-[(2S)-1-[(3R,6S,11S,14R,17S,20S,23S)-6-acetyl-3-(2-carboxyethyl)-17-[3-(diaminomethylideneamino)propyl]-14-(1H-indol-3-ylmethyl)-20-(naphthalen-2-ylmethyl)-2,5,13,16,19,22-hexaoxo-8,9-dithia-1,4,12,15,18,21-hexazabicyclo[21.3.0]hexacosane-11-carbonyl]pyrrolidin-2-yl]-2-oxoethyl]pyrrolidin-2-yl]-2-oxoethyl]amino]-7-amino-2-oxoheptyl]amino]-4-amino-4-oxobutanoic acid

$$$$
