
     RDKit          3D

 74 80  0  0  0  0  0  0  0  0999 V2000
   -2.8194    4.6673    0.6886 C   0  0  0  0  0  0  0  0  0  0  0  0
   -1.7777    3.9372    0.3022 C   0  0  0  0  0  0  0  0  0  0  0  0
   -1.9252    2.6985   -0.5166 C   0  0  0  0  0  0  0  0  0  0  0  0
   -1.4327    1.5788    0.0987 O   0  0  0  0  0  0  0  0  0  0  0  0
   -1.5279    0.3984   -0.5858 C   0  0  1  0  0  0  0  0  0  0  0  0
   -0.7773    0.5100   -1.8794 C   0  0  0  0  0  0  0  0  0  0  0  0
    0.6486    0.8984   -1.5440 C   0  0  0  0  0  0  0  0  0  0  0  0
    1.2886   -0.2674   -0.8336 C   0  0  2  0  0  0  0  0  0  0  0  0
    0.5635   -0.6321    0.4395 C   0  0  1  0  0  0  0  0  0  0  0  0
   -0.9171   -0.6837    0.2758 C   0  0  1  0  0  0  0  0  0  0  0  0
   -1.6620   -0.7794    1.5556 C   0  0  0  0  0  0  0  0  0  0  0  0
   -2.9237    0.0431    1.6391 C   0  0  0  0  0  0  0  0  0  0  0  0
   -3.6412    0.2138    0.4851 N   0  0  0  0  0  0  0  0  0  0  0  0
   -2.9657   -0.0046   -0.7723 C   0  0  2  0  0  0  0  0  0  0  0  0
   -3.2123   -1.3412   -1.3616 C   0  0  0  0  0  0  0  0  0  0  0  0
   -2.1206   -2.3253   -1.1985 C   0  0  0  0  0  0  0  0  0  0  0  0
   -1.0596   -1.9929   -0.4348 C   0  0  0  0  0  0  0  0  0  0  0  0
    0.0496   -2.7514   -0.1717 C   0  0  0  0  0  0  0  0  0  0  0  0
    0.8752   -2.0267    0.6457 O   0  0  0  0  0  0  0  0  0  0  0  0
    0.0598   -4.0097   -0.7736 C   0  0  0  0  0  0  0  0  0  0  0  0
   -1.0175   -4.3974   -1.5726 C   0  0  0  0  0  0  0  0  0  0  0  0
   -2.1114   -3.5742   -1.7965 C   0  0  0  0  0  0  0  0  0  0  0  0
    1.1516   -4.8354   -0.5522 O   0  0  0  0  0  0  0  0  0  0  0  0
   -5.0019    0.4843    0.3995 C   0  0  0  0  0  0  0  0  0  0  0  0
   -6.0160   -0.5364    0.7520 C   0  0  0  0  0  0  0  0  0  0  0  0
   -6.1818   -1.1613    2.1008 C   0  0  0  0  0  0  0  0  0  0  0  0
   -7.1527   -0.1228    1.6354 C   0  0  0  0  0  0  0  0  0  0  0  0
    2.6458    0.0941   -0.4792 N   0  0  0  0  0  0  0  0  0  0  0  0
    3.7315   -0.6294   -1.0450 C   0  0  0  0  0  0  0  0  0  0  0  0
    3.4247   -1.5631   -1.8405 O   0  0  0  0  0  0  0  0  0  0  0  0
    5.1245   -0.3483   -0.7560 C   0  0  0  0  0  0  0  0  0  0  0  0
    5.5408    0.6022    0.0578 C   0  0  0  0  0  0  0  0  0  0  0  0
    6.9218    0.8964    0.3573 C   0  0  0  0  0  0  0  0  0  0  0  0
    7.2608    1.9312    1.2381 C   0  0  0  0  0  0  0  0  0  0  0  0
    8.5673    2.2347    1.5443 C   0  0  0  0  0  0  0  0  0  0  0  0
    9.6169    1.5301    0.9954 C   0  0  0  0  0  0  0  0  0  0  0  0
    9.3078    0.5042    0.1231 C   0  0  0  0  0  0  0  0  0  0  0  0
    7.9900    0.2074   -0.1780 C   0  0  0  0  0  0  0  0  0  0  0  0
   -3.8062    4.3351    0.3882 H   0  0  0  0  0  0  0  0  0  0  0  0
   -2.6231    5.5525    1.2820 H   0  0  0  0  0  0  0  0  0  0  0  0
   -0.7535    4.2094    0.5661 H   0  0  0  0  0  0  0  0  0  0  0  0
   -1.4598    2.9519   -1.4873 H   0  0  0  0  0  0  0  0  0  0  0  0
   -3.0319    2.5294   -0.6271 H   0  0  0  0  0  0  0  0  0  0  0  0
   -0.7113   -0.4490   -2.4286 H   0  0  0  0  0  0  0  0  0  0  0  0
   -1.2317    1.2345   -2.5601 H   0  0  0  0  0  0  0  0  0  0  0  0
    0.6625    1.7430   -0.8034 H   0  0  0  0  0  0  0  0  0  0  0  0
    1.2617    1.1331   -2.4226 H   0  0  0  0  0  0  0  0  0  0  0  0
    1.2809   -1.1111   -1.5530 H   0  0  0  0  0  0  0  0  0  0  0  0
    0.9145   -0.0277    1.2880 H   0  0  0  0  0  0  0  0  0  0  0  0
   -1.9088   -1.8487    1.8267 H   0  0  0  0  0  0  0  0  0  0  0  0
   -0.9977   -0.4476    2.3806 H   0  0  0  0  0  0  0  0  0  0  0  0
   -3.5037   -0.3891    2.4652 H   0  0  0  0  0  0  0  0  0  0  0  0
   -2.6273    1.0673    2.0415 H   0  0  0  0  0  0  0  0  0  0  0  0
   -3.4482    0.7305   -1.4848 H   0  0  0  0  0  0  0  0  0  0  0  0
   -4.1115   -1.8122   -0.8921 H   0  0  0  0  0  0  0  0  0  0  0  0
   -3.4656   -1.3281   -2.4584 H   0  0  0  0  0  0  0  0  0  0  0  0
   -1.0016   -5.3932   -2.0441 H   0  0  0  0  0  0  0  0  0  0  0  0
   -2.9504   -3.8552   -2.4092 H   0  0  0  0  0  0  0  0  0  0  0  0
    2.0717   -4.3863   -0.6170 H   0  0  0  0  0  0  0  0  0  0  0  0
   -5.2018    1.3705    1.0976 H   0  0  0  0  0  0  0  0  0  0  0  0
   -5.3150    0.9303   -0.5950 H   0  0  0  0  0  0  0  0  0  0  0  0
   -6.3975   -1.1895   -0.1087 H   0  0  0  0  0  0  0  0  0  0  0  0
   -6.5994   -2.2137    2.1195 H   0  0  0  0  0  0  0  0  0  0  0  0
   -5.6094   -0.9186    2.9826 H   0  0  0  0  0  0  0  0  0  0  0  0
   -7.1382    0.8322    2.1635 H   0  0  0  0  0  0  0  0  0  0  0  0
   -8.2024   -0.4571    1.4074 H   0  0  0  0  0  0  0  0  0  0  0  0
    2.8144    0.8759    0.1819 H   0  0  0  0  0  0  0  0  0  0  0  0
    5.8815   -0.9521   -1.2345 H   0  0  0  0  0  0  0  0  0  0  0  0
    4.7785    1.2030    0.5332 H   0  0  0  0  0  0  0  0  0  0  0  0
    6.4868    2.5387    1.7171 H   0  0  0  0  0  0  0  0  0  0  0  0
    8.8196    3.0379    2.2283 H   0  0  0  0  0  0  0  0  0  0  0  0
   10.6424    1.7253    1.1999 H   0  0  0  0  0  0  0  0  0  0  0  0
   10.1231   -0.0611   -0.3182 H   0  0  0  0  0  0  0  0  0  0  0  0
    7.8335   -0.6076   -0.8677 H   0  0  0  0  0  0  0  0  0  0  0  0
  1  2  2  0
  2  3  1  0
  3  4  1  0
  5  4  1  1
  5  6  1  0
  6  7  1  0
  7  8  1  0
  8  9  1  0
  9 10  1  0
 10 11  1  1
 11 12  1  0
 12 13  1  0
 13 14  1  0
 14 15  1  0
 15 16  1  0
 16 17  2  0
 17 18  1  0
 18 19  1  0
 18 20  2  0
 20 21  1  0
 21 22  2  0
 20 23  1  0
 13 24  1  0
 24 25  1  0
 25 26  1  0
 26 27  1  0
  8 28  1  0
 28 29  1  0
 29 30  2  0
 29 31  1  0
 31 32  2  0
 32 33  1  0
 33 34  2  0
 34 35  1  0
 35 36  2  0
 36 37  1  0
 37 38  2  0
 14  5  1  0
 22 16  1  0
 27 25  1  0
 38 33  1  0
 10  5  1  0
 19  9  1  0
 17 10  1  0
  1 39  1  0
  1 40  1  0
  2 41  1  0
  3 42  1  0
  3 43  1  0
  6 44  1  0
  6 45  1  0
  7 46  1  0
  7 47  1  0
  8 48  1  6
  9 49  1  1
 11 50  1  0
 11 51  1  0
 12 52  1  0
 12 53  1  0
 14 54  1  6
 15 55  1  0
 15 56  1  0
 21 57  1  0
 22 58  1  0
 23 59  1  0
 24 60  1  0
 24 61  1  0
 25 62  1  0
 26 63  1  0
 26 64  1  0
 27 65  1  0
 27 66  1  0
 28 67  1  0
 31 68  1  0
 32 69  1  0
 34 70  1  0
 35 71  1  0
 36 72  1  0
 37 73  1  0
 38 74  1  0
M  END
>  <Ligand ID>  (1) 
LIG0005645

>  <Ligand>  (1) 
CHEMBL472410

>  <SMILES>  (1) 
C=CCO[C@]12CC[C@H]([C@H]3[C@]42CCN([C@@H]1Cc1c4c(O3)c(cc1)O)CC1CC1)NC(=O)/C=C/c1ccccc1

>  <CID>  (1) 
25256965.0

>  <ChEMBL ID>  (1) 
nan

>  <InChiKey>  (1) 
GICDOVUDOFRTQS-PGVSONQQSA-N

>  <InChi>  (1) 
InChI=1S/C32H36N2O4/c1-2-18-37-32-15-14-24(33-27(36)13-10-21-6-4-3-5-7-21)30-31(32)16-17-34(20-22-8-9-22)26(32)19-23-11-12-25(35)29(38-30)28(23)31/h2-7,10-13,22,24,26,30,35H,1,8-9,14-20H2,(H,33,36)/b13-10+/t24-,26-,30+,31+,32-/m1/s1

>  <IUPAC Name>  (1) 
(E)-N-[(4R,4aS,7R,7aR,12bS)-3-(cyclopropylmethyl)-9-hydroxy-4a-prop-2-enoxy-1,2,4,5,6,7,7a,13-octahydro-4,12-methanobenzofuro[3,2-e]isoquinolin-7-yl]-3-phenylprop-2-enamide

$$$$
