
     RDKit          3D

 75 78  0  0  0  0  0  0  0  0999 V2000
    7.5492    0.8447    2.9903 O   0  0  0  0  0  0  0  0  0  0  0  0
    7.0652    0.6233    1.6893 C   0  0  2  0  0  0  0  0  0  0  0  0
    7.0226   -0.8470    1.3947 C   0  0  1  0  0  0  0  0  0  0  0  0
    5.5913   -1.3872    1.5088 C   0  0  0  0  0  0  0  0  0  0  0  0
    4.8174   -0.6887    0.6109 O   0  0  0  0  0  0  0  0  0  0  0  0
    3.2016   -1.1528    0.5983 P   0  0  0  0  0  0  0  0  0  0  0  0
    3.0064   -2.6362    0.7781 O   0  0  0  0  0  0  0  0  0  0  0  0
    2.4170   -0.2715    1.8178 O   0  0  0  0  0  0  0  0  0  0  0  0
    0.7836   -0.6773    1.9148 P   0  0  0  0  0  0  0  0  0  0  0  0
    0.5481   -2.1492    1.6958 O   0  0  0  0  0  0  0  0  0  0  0  0
   -0.0297    0.2666    0.7763 O   0  0  0  0  0  0  0  0  0  0  0  0
   -1.6034   -0.3341    0.6404 P   0  0  0  0  0  0  0  0  0  0  0  0
   -2.5101    0.8162    0.3333 O   0  0  0  0  0  0  0  0  0  0  0  0
   -1.5817   -1.5159   -0.5652 O   0  0  0  0  0  0  0  0  0  0  0  0
   -2.6754   -1.0585   -1.7670 P   0  0  0  0  0  0  0  0  0  0  0  0
   -2.1393   -1.5978   -3.0908 O   0  0  0  0  0  0  0  0  0  0  0  0
   -4.1714   -1.7750   -1.4646 O   0  0  0  0  0  0  0  0  0  0  0  0
   -4.8506   -1.1538   -0.4427 C   0  0  0  0  0  0  0  0  0  0  0  0
   -6.1784   -1.8279   -0.2097 C   0  0  1  0  0  0  0  0  0  0  0  0
   -6.9188   -1.2533    0.8084 O   0  0  0  0  0  0  0  0  0  0  0  0
   -7.8180   -0.3660    0.2662 C   0  0  2  0  0  0  0  0  0  0  0  0
   -7.8401   -0.5435   -1.2177 C   0  0  1  0  0  0  0  0  0  0  0  0
   -7.0284   -1.7946   -1.4524 C   0  0  2  0  0  0  0  0  0  0  0  0
   -7.7905   -2.9280   -1.6223 O   0  0  0  0  0  0  0  0  0  0  0  0
   -9.1397   -0.7387   -1.6872 O   0  0  0  0  0  0  0  0  0  0  0  0
   -7.5229    1.0080    0.6328 N   0  0  0  0  0  0  0  0  0  0  0  0
   -6.6196    1.2087    1.6069 C   0  0  0  0  0  0  0  0  0  0  0  0
   -6.3147    2.4998    1.9811 C   0  0  0  0  0  0  0  0  0  0  0  0
   -6.9468    3.5460    1.3435 C   0  0  0  0  0  0  0  0  0  0  0  0
   -6.5620    5.0712    1.8118 S   0  0  0  0  0  0  0  0  0  0  0  0
   -7.8436    3.2923    0.3744 N   0  0  0  0  0  0  0  0  0  0  0  0
   -8.1406    2.0181    0.0093 C   0  0  0  0  0  0  0  0  0  0  0  0
   -8.9931    1.7863   -0.9115 O   0  0  0  0  0  0  0  0  0  0  0  0
   -2.7566    0.6193   -1.8151 O   0  0  0  0  0  0  0  0  0  0  0  0
   -2.0331   -1.0980    2.0996 O   0  0  0  0  0  0  0  0  0  0  0  0
    0.2161   -0.2500    3.4524 O   0  0  0  0  0  0  0  0  0  0  0  0
    2.4699   -0.7276   -0.8741 O   0  0  0  0  0  0  0  0  0  0  0  0
    7.4369   -1.0543    0.1085 O   0  0  0  0  0  0  0  0  0  0  0  0
    8.0864    0.0523   -0.3646 C   0  0  2  0  0  0  0  0  0  0  0  0
    8.0078    1.1392    0.6479 C   0  0  2  0  0  0  0  0  0  0  0  0
    9.2592    1.3541    1.2641 O   0  0  0  0  0  0  0  0  0  0  0  0
    7.5825    0.4434   -1.6824 N   0  0  0  0  0  0  0  0  0  0  0  0
    7.8275    1.6551   -2.2021 C   0  0  0  0  0  0  0  0  0  0  0  0
    7.3024    1.9151   -3.4533 C   0  0  0  0  0  0  0  0  0  0  0  0
    6.5547    0.9856   -4.1590 C   0  0  0  0  0  0  0  0  0  0  0  0
    5.9398    1.3121   -5.6423 S   0  0  0  0  0  0  0  0  0  0  0  0
    6.3430   -0.2132   -3.5843 N   0  0  0  0  0  0  0  0  0  0  0  0
    6.8563   -0.4728   -2.3568 C   0  0  0  0  0  0  0  0  0  0  0  0
    6.6438   -1.6051   -1.8388 O   0  0  0  0  0  0  0  0  0  0  0  0
    7.0543    0.1816    3.5672 H   0  0  0  0  0  0  0  0  0  0  0  0
    6.0631    1.0980    1.6739 H   0  0  0  0  0  0  0  0  0  0  0  0
    7.6727   -1.3617    2.1488 H   0  0  0  0  0  0  0  0  0  0  0  0
    5.2172   -1.1283    2.5424 H   0  0  0  0  0  0  0  0  0  0  0  0
    5.5830   -2.4763    1.3887 H   0  0  0  0  0  0  0  0  0  0  0  0
   -4.2562   -1.3094    0.4944 H   0  0  0  0  0  0  0  0  0  0  0  0
   -5.0292   -0.0724   -0.5967 H   0  0  0  0  0  0  0  0  0  0  0  0
   -6.0196   -2.8944    0.0555 H   0  0  0  0  0  0  0  0  0  0  0  0
   -8.8129   -0.6165    0.6934 H   0  0  0  0  0  0  0  0  0  0  0  0
   -7.3806    0.3108   -1.7491 H   0  0  0  0  0  0  0  0  0  0  0  0
   -6.3759   -1.6690   -2.3465 H   0  0  0  0  0  0  0  0  0  0  0  0
   -7.6414   -3.3704   -2.4956 H   0  0  0  0  0  0  0  0  0  0  0  0
   -9.1451   -0.5068   -2.6425 H   0  0  0  0  0  0  0  0  0  0  0  0
   -6.1372    0.3616    2.0917 H   0  0  0  0  0  0  0  0  0  0  0  0
   -5.5853    2.6388    2.7668 H   0  0  0  0  0  0  0  0  0  0  0  0
   -8.3202    4.1067   -0.1054 H   0  0  0  0  0  0  0  0  0  0  0  0
   -2.9197    0.8921   -2.7449 H   0  0  0  0  0  0  0  0  0  0  0  0
   -1.7625   -2.0367    2.0523 H   0  0  0  0  0  0  0  0  0  0  0  0
    0.2898    0.7469    3.5617 H   0  0  0  0  0  0  0  0  0  0  0  0
    2.8748    0.1240   -1.2307 H   0  0  0  0  0  0  0  0  0  0  0  0
    9.1634   -0.2245   -0.4943 H   0  0  0  0  0  0  0  0  0  0  0  0
    7.6953    2.1194    0.2332 H   0  0  0  0  0  0  0  0  0  0  0  0
    9.6010    0.4607    1.5119 H   0  0  0  0  0  0  0  0  0  0  0  0
    8.4102    2.3874   -1.6585 H   0  0  0  0  0  0  0  0  0  0  0  0
    7.4594    2.8626   -3.9278 H   0  0  0  0  0  0  0  0  0  0  0  0
    5.7814   -0.9634   -4.0714 H   0  0  0  0  0  0  0  0  0  0  0  0
  1  2  1  0
  2  3  1  0
  3  4  1  0
  4  5  1  0
  5  6  1  0
  6  7  2  0
  6  8  1  0
  8  9  1  0
  9 10  2  0
  9 11  1  0
 11 12  1  0
 12 13  2  0
 12 14  1  0
 14 15  1  0
 15 16  2  0
 15 17  1  0
 17 18  1  0
 18 19  1  0
 19 20  1  0
 20 21  1  0
 21 22  1  0
 22 23  1  0
 23 24  1  0
 22 25  1  0
 21 26  1  0
 26 27  1  0
 27 28  2  0
 28 29  1  0
 29 30  2  0
 29 31  1  0
 31 32  1  0
 32 33  2  0
 15 34  1  0
 12 35  1  0
  9 36  1  0
  6 37  1  0
  3 38  1  0
 38 39  1  0
 39 40  1  0
 40 41  1  0
 39 42  1  0
 42 43  1  0
 43 44  2  0
 44 45  1  0
 45 46  2  0
 45 47  1  0
 47 48  1  0
 48 49  2  0
 40  2  1  0
 48 42  1  0
 23 19  1  0
 32 26  1  0
  1 50  1  0
  2 51  1  1
  3 52  1  1
  4 53  1  0
  4 54  1  0
 18 55  1  0
 18 56  1  0
 19 57  1  1
 21 58  1  1
 22 59  1  6
 23 60  1  6
 24 61  1  0
 25 62  1  0
 27 63  1  0
 28 64  1  0
 31 65  1  0
 34 66  1  0
 35 67  1  0
 36 68  1  0
 37 69  1  0
 39 70  1  6
 40 71  1  6
 41 72  1  0
 43 73  1  0
 44 74  1  0
 47 75  1  0
M  END
>  <Ligand ID>  (1) 
LIG0002839

>  <Ligand>  (1) 
CHEMBL503798

>  <SMILES>  (1) 
O[C@@H]1[C@@H](COP(=O)(OP(=O)(OP(=O)(OP(=O)(OC[C@H]2O[C@H]([C@@H]([C@@H]2O)O)n2ccc(=S)[nH]c2=O)O)O)O)O)O[C@H]([C@@H]1O)n1ccc(=S)[nH]c1=O

>  <CID>  (1) 
9853990.0

>  <ChEMBL ID>  (1) 
nan

>  <InChiKey>  (1) 
HIKNCKKYLUUROS-NCOIDOBVSA-N

>  <InChi>  (1) 
InChI=1S/C18H26N4O21P4S2/c23-11-7(39-15(13(11)25)21-3-1-9(48)19-17(21)27)5-37-44(29,30)41-46(33,34)43-47(35,36)42-45(31,32)38-6-8-12(24)14(26)16(40-8)22-4-2-10(49)20-18(22)28/h1-4,7-8,11-16,23-26H,5-6H2,(H,29,30)(H,31,32)(H,33,34)(H,35,36)(H,19,27,48)(H,20,28,49)/t7-,8-,11-,12-,13-,14-,15-,16-/m1/s1

>  <IUPAC Name>  (1) 
[[(2R,3S,4R,5R)-3,4-dihydroxy-5-(2-oxo-4-sulfanylidenepyrimidin-1-yl)oxolan-2-yl]methoxy-hydroxyphosphoryl] [[[(2R,3S,4R,5R)-3,4-dihydroxy-5-(2-oxo-4-sulfanylidenepyrimidin-1-yl)oxolan-2-yl]methoxy-hydroxyphosphoryl]oxy-hydroxyphosphoryl] hydrogen phosphate

$$$$
