
     RDKit          3D

 82 89  0  0  0  0  0  0  0  0999 V2000
    1.2527   -4.1339    0.7401 C   0  0  0  0  0  0  0  0  0  0  0  0
    1.4389   -2.7900    0.6013 O   0  0  0  0  0  0  0  0  0  0  0  0
    0.3564   -2.0356    0.2417 C   0  0  2  0  0  0  0  0  0  0  0  0
   -0.2379   -2.4372   -1.0804 C   0  0  0  0  0  0  0  0  0  0  0  0
   -1.1751   -1.3864   -1.6023 C   0  0  0  0  0  0  0  0  0  0  0  0
   -1.4461   -0.3965   -0.5056 C   0  0  2  0  0  0  0  0  0  0  0  0
   -0.1576    0.3722   -0.3525 C   0  0  0  0  0  0  0  0  0  0  0  0
    0.8352   -0.5718    0.2469 C   0  0  2  0  0  0  0  0  0  0  0  0
    2.2561   -0.3934   -0.1643 C   0  0  1  0  0  0  0  0  0  0  0  0
    2.5700    1.0797   -0.1031 C   0  0  0  0  0  0  0  0  0  0  0  0
    3.9479    1.4822   -0.4655 C   0  0  0  0  0  0  0  0  0  0  0  0
    5.0539    0.9395    0.3704 C   0  0  0  0  0  0  0  0  0  0  0  0
    5.9811    2.0584    0.8818 C   0  0  0  0  0  0  0  0  0  0  0  0
    6.4856    2.8700   -0.2725 C   0  0  0  0  0  0  0  0  0  0  0  0
    5.3268    3.3752   -1.1073 C   0  0  0  0  0  0  0  0  0  0  0  0
    4.0289    3.0159   -0.4199 C   0  0  0  0  0  0  0  0  0  0  0  0
    3.0381   -1.0532    0.7717 O   0  0  0  0  0  0  0  0  0  0  0  0
    2.5843   -0.9908   -1.5065 C   0  0  0  0  0  0  0  0  0  0  0  0
   -1.8083   -1.1357    0.7508 C   0  0  2  0  0  0  0  0  0  0  0  0
   -0.7283   -2.0657    1.2817 C   0  0  1  0  0  0  0  0  0  0  0  0
   -1.4196   -3.2492    1.5048 O   0  0  0  0  0  0  0  0  0  0  0  0
   -2.6023   -3.3412    0.7851 C   0  0  0  0  0  0  0  0  0  0  0  0
   -2.8420   -2.1106    0.2725 C   0  0  0  0  0  0  0  0  0  0  0  0
   -3.8725   -1.7195   -0.5122 C   0  0  0  0  0  0  0  0  0  0  0  0
   -3.8741   -0.3297   -1.0523 C   0  0  0  0  0  0  0  0  0  0  0  0
   -2.6550    0.4590   -0.8225 C   0  0  1  0  0  0  0  0  0  0  0  0
   -2.8556    1.4025    0.2804 N   0  0  0  0  0  0  0  0  0  0  0  0
   -3.4140    0.6408    1.4119 C   0  0  0  0  0  0  0  0  0  0  0  0
   -2.3783   -0.3325    1.8496 C   0  0  0  0  0  0  0  0  0  0  0  0
   -3.8735    2.3507   -0.0727 C   0  0  0  0  0  0  0  0  0  0  0  0
   -3.8143    3.6350    0.7647 C   0  0  0  0  0  0  0  0  0  0  0  0
   -2.6068    4.5142    0.6738 C   0  0  0  0  0  0  0  0  0  0  0  0
   -2.7504    3.5771    1.8152 C   0  0  0  0  0  0  0  0  0  0  0  0
   -4.8101   -2.6776   -0.8331 C   0  0  0  0  0  0  0  0  0  0  0  0
   -4.6334   -3.9739   -0.3357 C   0  0  0  0  0  0  0  0  0  0  0  0
   -3.5409   -4.3158    0.4681 C   0  0  0  0  0  0  0  0  0  0  0  0
   -3.3551   -5.5950    0.9649 O   0  0  0  0  0  0  0  0  0  0  0  0
    0.5379   -4.4735    1.4822 H   0  0  0  0  0  0  0  0  0  0  0  0
    0.9921   -4.6111   -0.2289 H   0  0  0  0  0  0  0  0  0  0  0  0
    2.2454   -4.5596    1.0686 H   0  0  0  0  0  0  0  0  0  0  0  0
    0.5146   -2.7416   -1.8205 H   0  0  0  0  0  0  0  0  0  0  0  0
   -0.8375   -3.3651   -0.8892 H   0  0  0  0  0  0  0  0  0  0  0  0
   -0.5852   -0.8282   -2.3903 H   0  0  0  0  0  0  0  0  0  0  0  0
   -2.0392   -1.7696   -2.1350 H   0  0  0  0  0  0  0  0  0  0  0  0
   -0.3741    1.2676    0.2695 H   0  0  0  0  0  0  0  0  0  0  0  0
    0.1582    0.7595   -1.3423 H   0  0  0  0  0  0  0  0  0  0  0  0
    0.8361   -0.3062    1.3548 H   0  0  0  0  0  0  0  0  0  0  0  0
    2.4091    1.3960    0.9662 H   0  0  0  0  0  0  0  0  0  0  0  0
    1.8260    1.6818   -0.6784 H   0  0  0  0  0  0  0  0  0  0  0  0
    4.2140    1.2435   -1.5286 H   0  0  0  0  0  0  0  0  0  0  0  0
    5.7413    0.2504   -0.1929 H   0  0  0  0  0  0  0  0  0  0  0  0
    4.6961    0.3826    1.2619 H   0  0  0  0  0  0  0  0  0  0  0  0
    5.5222    2.6595    1.6682 H   0  0  0  0  0  0  0  0  0  0  0  0
    6.8684    1.5061    1.3072 H   0  0  0  0  0  0  0  0  0  0  0  0
    7.0092    3.7963    0.0910 H   0  0  0  0  0  0  0  0  0  0  0  0
    7.2471    2.3250   -0.8667 H   0  0  0  0  0  0  0  0  0  0  0  0
    5.3395    2.7994   -2.0691 H   0  0  0  0  0  0  0  0  0  0  0  0
    5.3853    4.4580   -1.3336 H   0  0  0  0  0  0  0  0  0  0  0  0
    3.2126    3.4031   -1.0798 H   0  0  0  0  0  0  0  0  0  0  0  0
    3.9411    3.3651    0.6081 H   0  0  0  0  0  0  0  0  0  0  0  0
    3.5802   -1.8042    0.3810 H   0  0  0  0  0  0  0  0  0  0  0  0
    3.5509   -0.6177   -1.8984 H   0  0  0  0  0  0  0  0  0  0  0  0
    1.8428   -0.8244   -2.2851 H   0  0  0  0  0  0  0  0  0  0  0  0
    2.7627   -2.0960   -1.3735 H   0  0  0  0  0  0  0  0  0  0  0  0
   -0.3410   -1.6261    2.2292 H   0  0  0  0  0  0  0  0  0  0  0  0
   -4.0196   -0.3811   -2.1858 H   0  0  0  0  0  0  0  0  0  0  0  0
   -4.7933    0.1608   -0.7007 H   0  0  0  0  0  0  0  0  0  0  0  0
   -2.4213    1.1056   -1.6974 H   0  0  0  0  0  0  0  0  0  0  0  0
   -3.6658    1.3517    2.2044 H   0  0  0  0  0  0  0  0  0  0  0  0
   -4.3821    0.1496    1.1535 H   0  0  0  0  0  0  0  0  0  0  0  0
   -1.6216    0.1897    2.4765 H   0  0  0  0  0  0  0  0  0  0  0  0
   -2.9044   -1.0549    2.5433 H   0  0  0  0  0  0  0  0  0  0  0  0
   -3.7661    2.7043   -1.1337 H   0  0  0  0  0  0  0  0  0  0  0  0
   -4.9158    1.9621    0.1304 H   0  0  0  0  0  0  0  0  0  0  0  0
   -4.7585    4.1419    1.0385 H   0  0  0  0  0  0  0  0  0  0  0  0
   -2.7098    5.5852    0.8806 H   0  0  0  0  0  0  0  0  0  0  0  0
   -1.9097    4.3044   -0.1682 H   0  0  0  0  0  0  0  0  0  0  0  0
   -3.0036    3.9507    2.8075 H   0  0  0  0  0  0  0  0  0  0  0  0
   -1.9813    2.7667    1.8113 H   0  0  0  0  0  0  0  0  0  0  0  0
   -5.6487   -2.4062   -1.4548 H   0  0  0  0  0  0  0  0  0  0  0  0
   -5.3705   -4.7517   -0.5798 H   0  0  0  0  0  0  0  0  0  0  0  0
   -2.6883   -6.1866    0.4659 H   0  0  0  0  0  0  0  0  0  0  0  0
  1  2  1  0
  3  2  1  1
  3  4  1  0
  4  5  1  0
  6  5  1  6
  6  7  1  0
  7  8  1  0
  8  9  1  0
  9 10  1  0
 10 11  1  0
 11 12  1  0
 12 13  1  0
 13 14  1  0
 14 15  1  0
 15 16  1  0
  9 17  1  1
  9 18  1  0
  6 19  1  0
 19 20  1  0
 20 21  1  0
 21 22  1  0
 22 23  2  0
 23 24  1  0
 24 25  1  0
 25 26  1  0
 26 27  1  0
 27 28  1  0
 28 29  1  0
 27 30  1  0
 30 31  1  0
 31 32  1  0
 32 33  1  0
 24 34  2  0
 34 35  1  0
 35 36  2  0
 36 37  1  0
  8  3  1  0
 16 11  1  0
 19 29  1  1
 33 31  1  0
 20  3  1  0
 36 22  1  0
 26  6  1  0
 23 19  1  0
  1 38  1  0
  1 39  1  0
  1 40  1  0
  4 41  1  0
  4 42  1  0
  5 43  1  0
  5 44  1  0
  7 45  1  0
  7 46  1  0
  8 47  1  1
 10 48  1  0
 10 49  1  0
 11 50  1  0
 12 51  1  0
 12 52  1  0
 13 53  1  0
 13 54  1  0
 14 55  1  0
 14 56  1  0
 15 57  1  0
 15 58  1  0
 16 59  1  0
 16 60  1  0
 17 61  1  0
 18 62  1  0
 18 63  1  0
 18 64  1  0
 20 65  1  1
 25 66  1  0
 25 67  1  0
 26 68  1  6
 28 69  1  0
 28 70  1  0
 29 71  1  0
 29 72  1  0
 30 73  1  0
 30 74  1  0
 31 75  1  0
 32 76  1  0
 32 77  1  0
 33 78  1  0
 33 79  1  0
 34 80  1  0
 35 81  1  0
 37 82  1  0
M  END
>  <Ligand ID>  (1) 
LIG0005128

>  <Ligand>  (1) 
CHEMBL2338750

>  <SMILES>  (1) 
CO[C@]12CC[C@]3(C[C@@H]1[C@@](CC1CCCCC1)(O)C)[C@@]14[C@H]2Oc2c4c(C[C@H]3N(CC1)CC1CC1)ccc2O

>  <CID>  (1) 
71624555.0

>  <ChEMBL ID>  (1) 
nan

>  <InChiKey>  (1) 
GQUAAJHEELJJGV-PPMCTTEPSA-N

>  <InChi>  (1) 
InChI=1S/C32H45NO4/c1-29(35,17-20-6-4-3-5-7-20)24-18-30-12-13-32(24,36-2)28-31(30)14-15-33(19-21-8-9-21)25(30)16-22-10-11-23(34)27(37-28)26(22)31/h10-11,20-21,24-25,28,34-35H,3-9,12-19H2,1-2H3/t24-,25-,28-,29-,30-,31+,32-/m1/s1

>  <IUPAC Name>  (1) 
(1S,2S,6R,14R,15R,16R)-16-[(2R)-1-cyclohexyl-2-hydroxypropan-2-yl]-5-(cyclopropylmethyl)-15-methoxy-13-oxa-5-azahexacyclo[13.2.2.12,8.01,6.02,14.012,20]icosa-8(20),9,11-trien-11-ol

$$$$
