
     RDKit          3D

 30 31  0  0  0  0  0  0  0  0999 V2000
    1.3248   -1.4229    2.6591 O   0  0  0  0  0  0  0  0  0  0  0  0
    1.0878   -0.3137    2.2562 N   0  0  0  0  0  0  0  0  0  0  0  0
    1.3958    0.1014    0.9236 C   0  0  0  0  0  0  0  0  0  0  0  0
    2.3461   -0.8204    0.2493 C   0  0  0  0  0  0  0  0  0  0  0  0
    2.3396   -2.1655    0.2187 N   0  0  0  0  0  0  0  0  0  0  0  0
    3.3348   -2.6039   -0.4737 O   0  0  0  0  0  0  0  0  0  0  0  0
    4.0240   -1.6059   -0.9194 N   0  0  0  0  0  0  0  0  0  0  0  0
    3.4608   -0.4664   -0.5044 C   0  0  0  0  0  0  0  0  0  0  0  0
    3.8880    0.8678   -0.7620 N   0  0  0  0  0  0  0  0  0  0  0  0
    0.2331    0.3464    0.1040 N   0  0  0  0  0  0  0  0  0  0  0  0
   -0.5695    1.3899    0.6989 C   0  0  0  0  0  0  0  0  0  0  0  0
   -1.9196    1.5214    0.0389 C   0  0  0  0  0  0  0  0  0  0  0  0
   -2.6527    0.3087    0.2215 N   0  0  0  0  0  0  0  0  0  0  0  0
   -1.8596   -0.8236    0.5464 C   0  0  0  0  0  0  0  0  0  0  0  0
   -0.5028   -0.8565   -0.1497 C   0  0  0  0  0  0  0  0  0  0  0  0
   -3.7862    0.1092   -0.6004 C   0  0  0  0  0  0  0  0  0  0  0  0
    1.9373    1.0802    1.0457 H   0  0  0  0  0  0  0  0  0  0  0  0
    3.6877    1.6219   -0.0560 H   0  0  0  0  0  0  0  0  0  0  0  0
    4.4012    1.1476   -1.6325 H   0  0  0  0  0  0  0  0  0  0  0  0
   -0.0356    2.3548    0.5981 H   0  0  0  0  0  0  0  0  0  0  0  0
   -0.7670    1.2249    1.7799 H   0  0  0  0  0  0  0  0  0  0  0  0
   -1.8437    1.8477   -1.0199 H   0  0  0  0  0  0  0  0  0  0  0  0
   -2.4607    2.3231    0.6098 H   0  0  0  0  0  0  0  0  0  0  0  0
   -2.3567   -1.7783    0.2974 H   0  0  0  0  0  0  0  0  0  0  0  0
   -1.6203   -0.7498    1.6437 H   0  0  0  0  0  0  0  0  0  0  0  0
   -0.0061   -1.7652    0.2277 H   0  0  0  0  0  0  0  0  0  0  0  0
   -0.6287   -0.9989   -1.2439 H   0  0  0  0  0  0  0  0  0  0  0  0
   -3.8623   -0.8963   -1.0812 H   0  0  0  0  0  0  0  0  0  0  0  0
   -4.6852    0.1627    0.0819 H   0  0  0  0  0  0  0  0  0  0  0  0
   -3.9044    0.8596   -1.4017 H   0  0  0  0  0  0  0  0  0  0  0  0
  1  2  2  0
  2  3  1  0
  3  4  1  0
  4  5  2  0
  5  6  1  0
  6  7  1  0
  7  8  2  0
  8  9  1  0
  3 10  1  0
 10 11  1  0
 11 12  1  0
 12 13  1  0
 13 14  1  0
 14 15  1  0
 13 16  1  0
  8  4  1  0
 15 10  1  0
  3 17  1  0
  9 18  1  0
  9 19  1  0
 11 20  1  0
 11 21  1  0
 12 22  1  0
 12 23  1  0
 14 24  1  0
 14 25  1  0
 15 26  1  0
 15 27  1  0
 16 28  1  0
 16 29  1  0
 16 30  1  0
M  END
>  <Ligand ID>  (1) 
LIG0004633

>  <Ligand>  (1) 
BDBM31001

>  <SMILES>  (1) 
O=NC(c1nonc1N)N1CCN(CC1)C

>  <CID>  (1) 
91896119.0

>  <ChEMBL ID>  (1) 
nan

>  <InChiKey>  (1) 
XJSKATRQVWDVSG-UHFFFAOYSA-N

>  <InChi>  (1) 
InChI=1S/C8H14N6O2/c1-13-2-4-14(5-3-13)8(10-15)6-7(9)12-16-11-6/h8H,2-5H2,1H3,(H2,9,12)

>  <IUPAC Name>  (1) 
4-[(4-methylpiperazin-1-yl)-nitrosomethyl]-1,2,5-oxadiazol-3-amine

$$$$
