
     RDKit          3D

 72 74  0  0  0  0  0  0  0  0999 V2000
   -6.7206   -3.6512    0.8721 C   0  0  0  0  0  0  0  0  0  0  0  0
   -5.5102   -2.7205    0.7498 C   0  0  0  0  0  0  0  0  0  0  0  0
   -6.0311   -1.3146    0.7955 C   0  0  0  0  0  0  0  0  0  0  0  0
   -4.9460   -0.2627    0.6850 C   0  0  0  0  0  0  0  0  0  0  0  0
   -5.5726    1.1086    0.7390 C   0  0  0  0  0  0  0  0  0  0  0  0
   -5.7890    1.0636   -0.7743 C   0  0  0  0  0  0  0  0  0  0  0  0
   -4.6798    0.0012   -0.7861 C   0  0  0  0  0  0  0  0  0  0  0  0
   -3.7257   -0.5137    1.4960 C   0  0  0  0  0  0  0  0  0  0  0  0
   -2.7200    0.5676    1.3298 C   0  0  0  0  0  0  0  0  0  0  0  0
   -2.7351    1.7184    2.1275 C   0  0  0  0  0  0  0  0  0  0  0  0
   -1.8278    2.7262    1.9880 C   0  0  0  0  0  0  0  0  0  0  0  0
   -0.8352    2.6495    1.0329 C   0  0  0  0  0  0  0  0  0  0  0  0
   -0.7829    1.5324    0.2248 C   0  0  0  0  0  0  0  0  0  0  0  0
   -1.7203    0.5096    0.3812 C   0  0  0  0  0  0  0  0  0  0  0  0
    0.2932    1.4734   -0.7925 C   0  0  1  0  0  0  0  0  0  0  0  0
    0.2023    2.5843   -1.8132 C   0  0  2  0  0  0  0  0  0  0  0  0
    0.5623    2.1011   -3.0904 O   0  0  0  0  0  0  0  0  0  0  0  0
    1.2363    3.6190   -1.4263 C   0  0  0  0  0  0  0  0  0  0  0  0
    1.9985    2.9679   -0.3265 C   0  0  0  0  0  0  0  0  0  0  0  0
    2.7989    3.5662    0.4093 O   0  0  0  0  0  0  0  0  0  0  0  0
    1.6686    1.5195   -0.2371 C   0  0  2  0  0  0  0  0  0  0  0  0
    2.5918    0.6632   -1.1014 C   0  0  0  0  0  0  0  0  0  0  0  0
    4.0168    0.6778   -0.5729 C   0  0  0  0  0  0  0  0  0  0  0  0
    4.8592   -0.2038   -1.5047 C   0  0  0  0  0  0  0  0  0  0  0  0
    4.4203   -1.6131   -1.5419 C   0  0  0  0  0  0  0  0  0  0  0  0
    4.4587   -2.4898   -0.3654 C   0  0  0  0  0  0  0  0  0  0  0  0
    5.7651   -2.8573    0.2048 C   0  0  0  0  0  0  0  0  0  0  0  0
    6.5809   -1.8304    0.8042 C   0  0  0  0  0  0  0  0  0  0  0  0
    6.3452   -0.6619    1.1255 O   0  0  0  0  0  0  0  0  0  0  0  0
    7.9366   -2.2250    1.0910 O   0  0  0  0  0  0  0  0  0  0  0  0
    8.7254   -1.2050    1.6797 C   0  0  0  0  0  0  0  0  0  0  0  0
   -3.9288   -0.6759    2.8467 O   0  0  0  0  0  0  0  0  0  0  0  0
   -6.3905   -4.7101    0.8845 H   0  0  0  0  0  0  0  0  0  0  0  0
   -7.2489   -3.3622    1.8031 H   0  0  0  0  0  0  0  0  0  0  0  0
   -7.3952   -3.4295    0.0252 H   0  0  0  0  0  0  0  0  0  0  0  0
   -5.0640   -2.9670   -0.2386 H   0  0  0  0  0  0  0  0  0  0  0  0
   -4.7813   -2.9695    1.5201 H   0  0  0  0  0  0  0  0  0  0  0  0
   -6.6526   -1.1692    1.7021 H   0  0  0  0  0  0  0  0  0  0  0  0
   -6.7218   -1.1735   -0.0593 H   0  0  0  0  0  0  0  0  0  0  0  0
   -6.5767    1.1402    1.2345 H   0  0  0  0  0  0  0  0  0  0  0  0
   -4.9650    1.9420    1.0801 H   0  0  0  0  0  0  0  0  0  0  0  0
   -5.5104    2.0335   -1.2124 H   0  0  0  0  0  0  0  0  0  0  0  0
   -6.7334    0.6268   -1.1109 H   0  0  0  0  0  0  0  0  0  0  0  0
   -4.9001   -0.8325   -1.4696 H   0  0  0  0  0  0  0  0  0  0  0  0
   -3.7418    0.4919   -1.0436 H   0  0  0  0  0  0  0  0  0  0  0  0
   -3.2555   -1.4477    1.0842 H   0  0  0  0  0  0  0  0  0  0  0  0
   -3.4896    1.8463    2.9139 H   0  0  0  0  0  0  0  0  0  0  0  0
   -1.8811    3.6070    2.6360 H   0  0  0  0  0  0  0  0  0  0  0  0
   -0.1494    3.4756    0.9711 H   0  0  0  0  0  0  0  0  0  0  0  0
   -1.6374   -0.3608   -0.2850 H   0  0  0  0  0  0  0  0  0  0  0  0
    0.1769    0.4916   -1.3196 H   0  0  0  0  0  0  0  0  0  0  0  0
   -0.8190    3.0180   -1.8646 H   0  0  0  0  0  0  0  0  0  0  0  0
    0.9831    2.8732   -3.5739 H   0  0  0  0  0  0  0  0  0  0  0  0
    0.7526    4.5259   -0.9884 H   0  0  0  0  0  0  0  0  0  0  0  0
    1.8649    3.9066   -2.2929 H   0  0  0  0  0  0  0  0  0  0  0  0
    1.7363    1.2029    0.8233 H   0  0  0  0  0  0  0  0  0  0  0  0
    2.5709    1.1061   -2.1150 H   0  0  0  0  0  0  0  0  0  0  0  0
    2.1711   -0.3408   -1.0953 H   0  0  0  0  0  0  0  0  0  0  0  0
    3.9724    0.1604    0.4003 H   0  0  0  0  0  0  0  0  0  0  0  0
    4.4307    1.6696   -0.4342 H   0  0  0  0  0  0  0  0  0  0  0  0
    4.6868    0.1798   -2.5714 H   0  0  0  0  0  0  0  0  0  0  0  0
    5.9067   -0.0013   -1.3169 H   0  0  0  0  0  0  0  0  0  0  0  0
    5.0591   -2.0969   -2.3705 H   0  0  0  0  0  0  0  0  0  0  0  0
    3.4008   -1.6324   -2.0470 H   0  0  0  0  0  0  0  0  0  0  0  0
    3.8947   -3.4413   -0.6690 H   0  0  0  0  0  0  0  0  0  0  0  0
    3.8454   -2.0523    0.4976 H   0  0  0  0  0  0  0  0  0  0  0  0
    6.3972   -3.3178   -0.6297 H   0  0  0  0  0  0  0  0  0  0  0  0
    5.6155   -3.7265    0.9453 H   0  0  0  0  0  0  0  0  0  0  0  0
    8.1944   -0.7455    2.5529 H   0  0  0  0  0  0  0  0  0  0  0  0
    8.8920   -0.3799    0.9491 H   0  0  0  0  0  0  0  0  0  0  0  0
    9.6884   -1.6439    2.0007 H   0  0  0  0  0  0  0  0  0  0  0  0
   -3.2612   -1.3213    3.1849 H   0  0  0  0  0  0  0  0  0  0  0  0
  1  2  1  0
  2  3  1  0
  3  4  1  0
  4  5  1  0
  5  6  1  0
  6  7  1  0
  4  8  1  0
  8  9  1  0
  9 10  2  0
 10 11  1  0
 11 12  2  0
 12 13  1  0
 13 14  2  0
 13 15  1  0
 15 16  1  0
 16 17  1  0
 16 18  1  0
 18 19  1  0
 19 20  2  0
 19 21  1  0
 21 22  1  0
 22 23  1  0
 23 24  1  0
 24 25  1  0
 25 26  1  0
 26 27  1  0
 27 28  1  0
 28 29  2  0
 28 30  1  0
 30 31  1  0
  8 32  1  0
  7  4  1  0
 14  9  1  0
 21 15  1  0
  1 33  1  0
  1 34  1  0
  1 35  1  0
  2 36  1  0
  2 37  1  0
  3 38  1  0
  3 39  1  0
  5 40  1  0
  5 41  1  0
  6 42  1  0
  6 43  1  0
  7 44  1  0
  7 45  1  0
  8 46  1  0
 10 47  1  0
 11 48  1  0
 12 49  1  0
 14 50  1  0
 15 51  1  6
 16 52  1  6
 17 53  1  0
 18 54  1  0
 18 55  1  0
 21 56  1  1
 22 57  1  0
 22 58  1  0
 23 59  1  0
 23 60  1  0
 24 61  1  0
 24 62  1  0
 25 63  1  0
 25 64  1  0
 26 65  1  0
 26 66  1  0
 27 67  1  0
 27 68  1  0
 31 69  1  0
 31 70  1  0
 31 71  1  0
 32 72  1  0
M  END
>  <Ligand ID>  (1) 
LIG0000973

>  <Ligand>  (1) 
SCHEMBL5881065

>  <SMILES>  (1) 
CCCC1(CCC1)C(c1cccc(c1)[C@H]1[C@H](O)CC(=O)[C@@H]1CCCCCCC(=O)OC)O

>  <CID>  (1) 
11955408.0

>  <ChEMBL ID>  (1) 
nan

>  <InChiKey>  (1) 
HGVQTLDTGTVRFU-YBRKRNMPSA-N

>  <InChi>  (1) 
InChI=1S/C27H40O5/c1-3-14-27(15-9-16-27)26(31)20-11-8-10-19(17-20)25-21(22(28)18-23(25)29)12-6-4-5-7-13-24(30)32-2/h8,10-11,17,21,23,25-26,29,31H,3-7,9,12-16,18H2,1-2H3/t21-,23+,25+,26?/m0/s1

>  <IUPAC Name>  (1) 
methyl 7-[(1R,2S,3R)-3-hydroxy-2-[3-[hydroxy-(1-propylcyclobutyl)methyl]phenyl]-5-oxocyclopentyl]heptanoate

$$$$
