
     RDKit          3D

 93 96  0  0  0  0  0  0  0  0999 V2000
   -0.6406   -4.6891    2.6223 N   0  0  0  0  0  0  0  0  0  0  0  0
   -2.0403   -4.4551    2.4839 C   0  0  0  0  0  0  0  0  0  0  0  0
   -2.4798   -3.3310    2.0463 N   0  0  0  0  0  0  0  0  0  0  0  0
   -1.5209   -2.3224    1.7022 C   0  0  0  0  0  0  0  0  0  0  0  0
   -1.9093   -1.0072    2.3321 C   0  0  0  0  0  0  0  0  0  0  0  0
   -0.9620    0.1007    2.0067 C   0  0  0  0  0  0  0  0  0  0  0  0
   -0.8999    0.3486    0.5237 C   0  0  1  0  0  0  0  0  0  0  0  0
   -2.1638    0.7577   -0.0820 C   0  0  0  0  0  0  0  0  0  0  0  0
   -2.2589    1.9823   -0.4424 O   0  0  0  0  0  0  0  0  0  0  0  0
   -3.3024   -0.0370   -0.3241 N   0  0  0  0  0  0  0  0  0  0  0  0
   -4.5350    0.4993   -0.9279 C   0  0  1  0  0  0  0  0  0  0  0  0
   -4.6796   -0.1641   -2.2299 C   0  0  0  0  0  0  0  0  0  0  0  0
   -5.5679    0.2192   -3.0061 O   0  0  0  0  0  0  0  0  0  0  0  0
   -3.8498   -1.2430   -2.6736 N   0  0  0  0  0  0  0  0  0  0  0  0
   -5.6875    0.3458   -0.0148 C   0  0  0  0  0  0  0  0  0  0  0  0
   -7.0120    0.7974   -0.4437 C   0  0  0  0  0  0  0  0  0  0  0  0
   -7.5116    2.0698   -0.1319 C   0  0  0  0  0  0  0  0  0  0  0  0
   -8.7512    2.1983   -0.6837 N   0  0  0  0  0  0  0  0  0  0  0  0
   -9.0569    1.0630   -1.3299 C   0  0  0  0  0  0  0  0  0  0  0  0
   -7.9961    0.2000   -1.1874 C   0  0  0  0  0  0  0  0  0  0  0  0
   -8.1198   -1.0456   -1.7729 C   0  0  0  0  0  0  0  0  0  0  0  0
   -9.2500   -1.3948   -2.4620 C   0  0  0  0  0  0  0  0  0  0  0  0
  -10.2940   -0.4940   -2.5820 C   0  0  0  0  0  0  0  0  0  0  0  0
  -10.2144    0.7584   -2.0143 C   0  0  0  0  0  0  0  0  0  0  0  0
    0.0455    1.4415    0.2531 N   0  0  0  0  0  0  0  0  0  0  0  0
    1.3600    1.0626   -0.0805 C   0  0  0  0  0  0  0  0  0  0  0  0
    1.6201   -0.1928   -0.1075 O   0  0  0  0  0  0  0  0  0  0  0  0
    2.4763    1.9567   -0.4028 C   0  0  2  0  0  0  0  0  0  0  0  0
    3.7295    1.2380   -0.5299 N   0  0  0  0  0  0  0  0  0  0  0  0
    4.4377    1.0340   -1.7367 C   0  0  0  0  0  0  0  0  0  0  0  0
    4.0990    1.4384   -2.8594 O   0  0  0  0  0  0  0  0  0  0  0  0
    5.7189    0.2407   -1.5896 C   0  0  2  0  0  0  0  0  0  0  0  0
    6.6270    0.9571   -0.6181 C   0  0  0  0  0  0  0  0  0  0  0  0
    7.8695    0.1755   -0.4465 C   0  0  0  0  0  0  0  0  0  0  0  0
    8.0197   -0.7733    0.4968 N   0  0  0  0  0  0  0  0  0  0  0  0
    9.2375   -1.3230    0.4407 C   0  0  0  0  0  0  0  0  0  0  0  0
    9.8992   -0.7062   -0.5780 N   0  0  0  0  0  0  0  0  0  0  0  0
    9.0646    0.2094   -1.1202 C   0  0  0  0  0  0  0  0  0  0  0  0
    6.3521   -0.0057   -2.8386 N   0  0  0  0  0  0  0  0  0  0  0  0
    6.4702   -1.3563   -3.2918 C   0  0  0  0  0  0  0  0  0  0  0  0
    6.0011   -2.2956   -2.5555 O   0  0  0  0  0  0  0  0  0  0  0  0
    7.1270   -1.6808   -4.6024 C   0  0  0  0  0  0  0  0  0  0  0  0
    2.5627    3.1594    0.4826 C   0  0  0  0  0  0  0  0  0  0  0  0
    2.7401    2.9153    1.9089 C   0  0  0  0  0  0  0  0  0  0  0  0
    1.7287    2.8129    2.8392 C   0  0  0  0  0  0  0  0  0  0  0  0
    1.9514    2.5800    4.1752 C   0  0  0  0  0  0  0  0  0  0  0  0
    3.2363    2.4363    4.6450 C   0  0  0  0  0  0  0  0  0  0  0  0
    4.2851    2.5352    3.7220 C   0  0  0  0  0  0  0  0  0  0  0  0
    4.0569    2.7686    2.3824 C   0  0  0  0  0  0  0  0  0  0  0  0
   -2.9994   -5.4603    2.8210 N   0  0  0  0  0  0  0  0  0  0  0  0
   -0.1090   -4.8893    1.7693 H   0  0  0  0  0  0  0  0  0  0  0  0
   -0.2175   -4.6475    3.5745 H   0  0  0  0  0  0  0  0  0  0  0  0
   -1.4409   -2.2518    0.6163 H   0  0  0  0  0  0  0  0  0  0  0  0
   -0.4871   -2.6122    2.0602 H   0  0  0  0  0  0  0  0  0  0  0  0
   -2.9569   -0.7747    2.1063 H   0  0  0  0  0  0  0  0  0  0  0  0
   -1.9255   -1.1371    3.4758 H   0  0  0  0  0  0  0  0  0  0  0  0
    0.0559   -0.2210    2.3090 H   0  0  0  0  0  0  0  0  0  0  0  0
   -1.3357    0.9818    2.5913 H   0  0  0  0  0  0  0  0  0  0  0  0
   -0.5155   -0.5578    0.0711 H   0  0  0  0  0  0  0  0  0  0  0  0
   -3.3306   -1.0526   -0.1153 H   0  0  0  0  0  0  0  0  0  0  0  0
   -4.3358    1.6076   -1.0616 H   0  0  0  0  0  0  0  0  0  0  0  0
   -3.6006   -1.9907   -1.9738 H   0  0  0  0  0  0  0  0  0  0  0  0
   -3.5182   -1.2596   -3.6657 H   0  0  0  0  0  0  0  0  0  0  0  0
   -5.4474    0.7357    1.0325 H   0  0  0  0  0  0  0  0  0  0  0  0
   -5.8143   -0.7678    0.2110 H   0  0  0  0  0  0  0  0  0  0  0  0
   -7.0205    2.8421    0.4467 H   0  0  0  0  0  0  0  0  0  0  0  0
   -9.3461    3.0747   -0.5935 H   0  0  0  0  0  0  0  0  0  0  0  0
   -7.2750   -1.7105   -1.6498 H   0  0  0  0  0  0  0  0  0  0  0  0
   -9.3020   -2.3732   -2.8991 H   0  0  0  0  0  0  0  0  0  0  0  0
  -11.1944   -0.7627   -3.1268 H   0  0  0  0  0  0  0  0  0  0  0  0
  -11.0145    1.4951   -2.0868 H   0  0  0  0  0  0  0  0  0  0  0  0
   -0.1968    2.4368    0.2945 H   0  0  0  0  0  0  0  0  0  0  0  0
    2.3155    2.3754   -1.4480 H   0  0  0  0  0  0  0  0  0  0  0  0
    4.1095    0.8527    0.3929 H   0  0  0  0  0  0  0  0  0  0  0  0
    5.4206   -0.7187   -1.1317 H   0  0  0  0  0  0  0  0  0  0  0  0
    6.9173    1.9696   -1.0066 H   0  0  0  0  0  0  0  0  0  0  0  0
    6.1466    1.0617    0.3734 H   0  0  0  0  0  0  0  0  0  0  0  0
    7.3012   -1.0801    1.2091 H   0  0  0  0  0  0  0  0  0  0  0  0
    9.6201   -2.1184    1.0960 H   0  0  0  0  0  0  0  0  0  0  0  0
    9.2402    0.8964   -1.9483 H   0  0  0  0  0  0  0  0  0  0  0  0
    6.7364    0.7752   -3.4381 H   0  0  0  0  0  0  0  0  0  0  0  0
    6.5152   -1.2995   -5.4489 H   0  0  0  0  0  0  0  0  0  0  0  0
    8.1231   -1.2500   -4.7085 H   0  0  0  0  0  0  0  0  0  0  0  0
    7.2225   -2.7873   -4.6477 H   0  0  0  0  0  0  0  0  0  0  0  0
    3.3481    3.8641    0.0700 H   0  0  0  0  0  0  0  0  0  0  0  0
    1.6092    3.7404    0.3074 H   0  0  0  0  0  0  0  0  0  0  0  0
    0.7056    2.9223    2.5058 H   0  0  0  0  0  0  0  0  0  0  0  0
    1.0982    2.5121    4.8529 H   0  0  0  0  0  0  0  0  0  0  0  0
    3.4560    2.2491    5.7055 H   0  0  0  0  0  0  0  0  0  0  0  0
    5.2879    2.4218    4.0976 H   0  0  0  0  0  0  0  0  0  0  0  0
    4.8835    2.8467    1.6584 H   0  0  0  0  0  0  0  0  0  0  0  0
   -3.9571   -5.2348    3.1880 H   0  0  0  0  0  0  0  0  0  0  0  0
   -2.7840   -6.4885    2.7160 H   0  0  0  0  0  0  0  0  0  0  0  0
  1  2  1  0
  2  3  2  3
  3  4  1  0
  4  5  1  0
  5  6  1  0
  6  7  1  0
  7  8  1  0
  8  9  2  0
  8 10  1  0
 10 11  1  0
 11 12  1  0
 12 13  2  0
 12 14  1  0
 11 15  1  0
 15 16  1  0
 16 17  2  0
 17 18  1  0
 18 19  1  0
 19 20  2  0
 20 21  1  0
 21 22  2  0
 22 23  1  0
 23 24  2  0
  7 25  1  0
 25 26  1  0
 26 27  2  0
 26 28  1  0
 28 29  1  0
 29 30  1  0
 30 31  2  0
 30 32  1  0
 32 33  1  0
 33 34  1  0
 34 35  1  0
 35 36  1  0
 36 37  2  0
 37 38  1  0
 32 39  1  0
 39 40  1  0
 40 41  2  0
 40 42  1  0
 28 43  1  0
 43 44  1  0
 44 45  2  0
 45 46  1  0
 46 47  2  0
 47 48  1  0
 48 49  2  0
  2 50  1  0
 20 16  1  0
 38 34  2  0
 49 44  1  0
 24 19  1  0
  1 51  1  0
  1 52  1  0
  4 53  1  0
  4 54  1  0
  5 55  1  0
  5 56  1  0
  6 57  1  0
  6 58  1  0
  7 59  1  6
 10 60  1  0
 11 61  1  6
 14 62  1  0
 14 63  1  0
 15 64  1  0
 15 65  1  0
 17 66  1  0
 18 67  1  0
 21 68  1  0
 22 69  1  0
 23 70  1  0
 24 71  1  0
 25 72  1  0
 28 73  1  6
 29 74  1  0
 32 75  1  1
 33 76  1  0
 33 77  1  0
 35 78  1  0
 36 79  1  0
 38 80  1  0
 39 81  1  0
 42 82  1  0
 42 83  1  0
 42 84  1  0
 43 85  1  0
 43 86  1  0
 45 87  1  0
 46 88  1  0
 47 89  1  0
 48 90  1  0
 49 91  1  0
 50 92  1  0
 50 93  1  0
M  END
>  <Ligand ID>  (1) 
LIG0001435

>  <Ligand>  (1) 
CHEMBL433296

>  <SMILES>  (1) 
NC(=NCCC[C@@H](C(=O)N[C@@H](C(=O)N)Cc1c[nH]c2c1cccc2)NC(=O)[C@H](NC(=O)[C@H](Cc1[nH]cnc1)NC(=O)C)Cc1ccccc1)N

>  <CID>  (1) 
9896284.0

>  <ChEMBL ID>  (1) 
nan

>  <InChiKey>  (1) 
DFCJPPDAOZROBS-AUAHOFGGSA-N

>  <InChi>  (1) 
InChI=1S/C34H43N11O5/c1-20(46)42-29(16-23-18-38-19-41-23)33(50)45-28(14-21-8-3-2-4-9-21)32(49)43-26(12-7-13-39-34(36)37)31(48)44-27(30(35)47)15-22-17-40-25-11-6-5-10-24(22)25/h2-6,8-11,17-19,26-29,40H,7,12-16H2,1H3,(H2,35,47)(H,38,41)(H,42,46)(H,43,49)(H,44,48)(H,45,50)(H4,36,37,39)/t26-,27+,28+,29-/m0/s1

>  <IUPAC Name>  (1) 
(2S)-2-[[(2R)-2-[[(2S)-2-acetamido-3-(1H-imidazol-5-yl)propanoyl]amino]-3-phenylpropanoyl]amino]-N-[(2R)-1-amino-3-(1H-indol-3-yl)-1-oxopropan-2-yl]-5-(diaminomethylideneamino)pentanamide

$$$$
