
     RDKit          3D

 31 33  0  0  0  0  0  0  0  0999 V2000
   -0.4471   -1.7344   -1.6125 C   0  0  0  0  0  0  0  0  0  0  0  0
   -0.4374   -0.6014   -0.6604 C   0  0  0  0  0  0  0  0  0  0  0  0
    0.7267   -0.1048   -0.0846 C   0  0  0  0  0  0  0  0  0  0  0  0
    0.6104    0.9541    0.8046 C   0  0  0  0  0  0  0  0  0  0  0  0
   -0.6110    1.5038    1.1143 C   0  0  0  0  0  0  0  0  0  0  0  0
   -1.7775    1.0181    0.5476 C   0  0  0  0  0  0  0  0  0  0  0  0
   -1.6741   -0.0453   -0.3470 C   0  0  0  0  0  0  0  0  0  0  0  0
   -2.8837   -0.5459   -0.9422 N   0  0  0  0  0  0  0  0  0  0  0  0
   -4.1307   -0.2586   -0.2785 C   0  0  0  0  0  0  0  0  0  0  0  0
   -4.2082    1.1587    0.2206 C   0  0  0  0  0  0  0  0  0  0  0  0
   -3.0225    1.5768    0.8620 O   0  0  0  0  0  0  0  0  0  0  0  0
    2.0125   -0.6177   -0.3806 N   0  0  0  0  0  0  0  0  0  0  0  0
    3.1985   -0.1193    0.2163 C   0  0  0  0  0  0  0  0  0  0  0  0
    3.9060    0.9929   -0.0651 N   0  0  0  0  0  0  0  0  0  0  0  0
    4.9767    1.0522    0.7485 C   0  0  0  0  0  0  0  0  0  0  0  0
    4.9454   -0.0744    1.5847 C   0  0  0  0  0  0  0  0  0  0  0  0
    3.8422   -0.7698    1.2300 N   0  0  0  0  0  0  0  0  0  0  0  0
   -1.1273   -2.5401   -1.2205 H   0  0  0  0  0  0  0  0  0  0  0  0
    0.5365   -2.1082   -1.8441 H   0  0  0  0  0  0  0  0  0  0  0  0
   -0.8726   -1.3737   -2.5972 H   0  0  0  0  0  0  0  0  0  0  0  0
    1.4738    1.3842    1.2838 H   0  0  0  0  0  0  0  0  0  0  0  0
   -0.6528    2.3311    1.8152 H   0  0  0  0  0  0  0  0  0  0  0  0
   -2.7872   -1.0875   -1.8218 H   0  0  0  0  0  0  0  0  0  0  0  0
   -4.2938   -1.0157    0.5190 H   0  0  0  0  0  0  0  0  0  0  0  0
   -4.9290   -0.4237   -1.0285 H   0  0  0  0  0  0  0  0  0  0  0  0
   -4.4296    1.8437   -0.6201 H   0  0  0  0  0  0  0  0  0  0  0  0
   -5.0353    1.2268    0.9460 H   0  0  0  0  0  0  0  0  0  0  0  0
    2.1733   -1.4142   -1.0669 H   0  0  0  0  0  0  0  0  0  0  0  0
    5.7367    1.8362    0.7587 H   0  0  0  0  0  0  0  0  0  0  0  0
    5.6344   -0.3667    2.3522 H   0  0  0  0  0  0  0  0  0  0  0  0
    3.5463   -1.6771    1.6821 H   0  0  0  0  0  0  0  0  0  0  0  0
  1  2  1  0
  2  3  2  0
  3  4  1  0
  4  5  2  0
  5  6  1  0
  6  7  2  0
  7  8  1  0
  8  9  1  0
  9 10  1  0
 10 11  1  0
  3 12  1  0
 12 13  1  0
 13 14  2  0
 14 15  1  0
 15 16  2  0
 16 17  1  0
  7  2  1  0
 17 13  1  0
 11  6  1  0
  1 18  1  0
  1 19  1  0
  1 20  1  0
  4 21  1  0
  5 22  1  0
  8 23  1  0
  9 24  1  0
  9 25  1  0
 10 26  1  0
 10 27  1  0
 12 28  1  0
 15 29  1  0
 16 30  1  0
 17 31  1  0
M  END
>  <Ligand ID>  (1) 
LIG0003662

>  <Ligand>  (1) 
CHEMBL432155

>  <SMILES>  (1) 
Cc1c(ccc2c1NCCO2)Nc1ncc[nH]1

>  <CID>  (1) 
9859437.0

>  <ChEMBL ID>  (1) 
nan

>  <InChiKey>  (1) 
JDFLCCTUDMVCCS-UHFFFAOYSA-N

>  <InChi>  (1) 
InChI=1S/C12H14N4O/c1-8-9(16-12-14-4-5-15-12)2-3-10-11(8)13-6-7-17-10/h2-5,13H,6-7H2,1H3,(H2,14,15,16)

>  <IUPAC Name>  (1) 
N-(1H-imidazol-2-yl)-5-methyl-3,4-dihydro-2H-1,4-benzoxazin-6-amine

$$$$
