
     RDKit          3D

 17 16  0  0  0  0  0  0  0  0999 V2000
   -2.9240   -0.1205   -1.4470 Br  0  0  0  0  0  0  0  0  0  0  0  0
   -1.8823    0.6202   -0.0200 C   0  0  0  0  0  0  0  0  0  0  0  0
   -1.0981   -0.4053    0.7321 C   0  0  0  0  0  0  0  0  0  0  0  0
   -0.1213   -1.1486   -0.1442 C   0  0  0  0  0  0  0  0  0  0  0  0
    0.8984   -0.2543   -0.7987 C   0  0  0  0  0  0  0  0  0  0  0  0
    1.7405    0.4865    0.1661 C   0  0  0  0  0  0  0  0  0  0  0  0
    1.6420    0.3890    1.4144 O   0  0  0  0  0  0  0  0  0  0  0  0
    2.7000    1.3431   -0.3519 O   0  0  0  0  0  0  0  0  0  0  0  0
   -2.5295    1.1801    0.6785 H   0  0  0  0  0  0  0  0  0  0  0  0
   -1.1745    1.3486   -0.4616 H   0  0  0  0  0  0  0  0  0  0  0  0
   -1.8081   -1.1929    1.1242 H   0  0  0  0  0  0  0  0  0  0  0  0
   -0.6459    0.0587    1.6285 H   0  0  0  0  0  0  0  0  0  0  0  0
    0.4777   -1.8755    0.4718 H   0  0  0  0  0  0  0  0  0  0  0  0
   -0.6793   -1.7373   -0.8907 H   0  0  0  0  0  0  0  0  0  0  0  0
    0.3920    0.4293   -1.5110 H   0  0  0  0  0  0  0  0  0  0  0  0
    1.5986   -0.9123   -1.3654 H   0  0  0  0  0  0  0  0  0  0  0  0
    3.4138    1.7911    0.2387 H   0  0  0  0  0  0  0  0  0  0  0  0
  1  2  1  0
  2  3  1  0
  3  4  1  0
  4  5  1  0
  5  6  1  0
  6  7  2  0
  6  8  1  0
  2  9  1  0
  2 10  1  0
  3 11  1  0
  3 12  1  0
  4 13  1  0
  4 14  1  0
  5 15  1  0
  5 16  1  0
  8 17  1  0
M  END
>  <Ligand ID>  (1) 
LIG0000282

>  <Ligand>  (1) 
5-Bromovaleric acid

>  <SMILES>  (1) 
BrCCCCC(=O)O

>  <CID>  (1) 
16368.0

>  <ChEMBL ID>  (1) 
nan

>  <InChiKey>  (1) 
WNXNUPJZWYOKMW-UHFFFAOYSA-N

>  <InChi>  (1) 
InChI=1S/C5H9BrO2/c6-4-2-1-3-5(7)8/h1-4H2,(H,7,8)

>  <IUPAC Name>  (1) 
5-bromopentanoic acid

$$$$
