
     RDKit          3D

 76 82  0  0  0  0  0  0  0  0999 V2000
   -4.3584   -5.8115    2.3671 O   0  0  0  0  0  0  0  0  0  0  0  0
   -3.6380   -5.1160    1.4200 C   0  0  0  0  0  0  0  0  0  0  0  0
   -3.8917   -5.3473    0.1955 O   0  0  0  0  0  0  0  0  0  0  0  0
   -2.5794   -4.1092    1.8057 C   0  0  0  0  0  0  0  0  0  0  0  0
   -2.0531   -3.5947    0.6025 N   0  0  0  0  0  0  0  0  0  0  0  0
   -1.0045   -2.6177    0.6986 C   0  0  1  0  0  0  0  0  0  0  0  0
   -0.5132   -2.3917   -0.7153 C   0  0  0  0  0  0  0  0  0  0  0  0
    0.4673   -1.2887   -0.8765 C   0  0  0  0  0  0  0  0  0  0  0  0
    0.1577   -0.0170   -0.1465 C   0  0  2  0  0  0  0  0  0  0  0  0
   -1.1063   -0.1251    0.6349 C   0  0  2  0  0  0  0  0  0  0  0  0
   -1.3163   -1.3927    1.4350 C   0  0  1  0  0  0  0  0  0  0  0  0
   -2.7325   -1.2532    1.6089 O   0  0  0  0  0  0  0  0  0  0  0  0
   -3.2446   -0.9010    0.3543 C   0  0  0  0  0  0  0  0  0  0  0  0
   -2.2382   -0.2387   -0.2718 C   0  0  0  0  0  0  0  0  0  0  0  0
   -2.2866    0.2759   -1.5173 C   0  0  0  0  0  0  0  0  0  0  0  0
   -1.1162    0.9119   -2.1376 C   0  0  0  0  0  0  0  0  0  0  0  0
   -0.0697    1.1536   -1.0868 C   0  0  1  0  0  0  0  0  0  0  0  0
   -0.2447    2.3753   -0.3299 N   0  0  0  0  0  0  0  0  0  0  0  0
   -1.2285    2.3080    0.6683 C   0  0  0  0  0  0  0  0  0  0  0  0
   -1.2360    1.0667    1.5044 C   0  0  0  0  0  0  0  0  0  0  0  0
   -0.4323    3.4794   -1.2016 C   0  0  0  0  0  0  0  0  0  0  0  0
   -0.4640    4.8074   -0.5145 C   0  0  0  0  0  0  0  0  0  0  0  0
   -1.4753    5.2384    0.4858 C   0  0  0  0  0  0  0  0  0  0  0  0
   -1.4500    5.8753   -0.9039 C   0  0  0  0  0  0  0  0  0  0  0  0
   -3.4849    0.1157   -2.2210 C   0  0  0  0  0  0  0  0  0  0  0  0
   -4.5560   -0.5581   -1.6170 C   0  0  0  0  0  0  0  0  0  0  0  0
   -4.4297   -1.0697   -0.3180 C   0  0  0  0  0  0  0  0  0  0  0  0
   -5.4698   -1.7421    0.3074 O   0  0  0  0  0  0  0  0  0  0  0  0
    1.1470    0.3547    0.7492 O   0  0  0  0  0  0  0  0  0  0  0  0
    2.3880    0.5983    0.2597 C   0  0  0  0  0  0  0  0  0  0  0  0
    3.2744    0.9695    1.4676 C   0  0  0  0  0  0  0  0  0  0  0  0
    4.6828    1.2594    0.9969 C   0  0  0  0  0  0  0  0  0  0  0  0
    5.2852    0.0836    0.3185 C   0  0  0  0  0  0  0  0  0  0  0  0
    6.0010   -0.8434    1.0800 C   0  0  0  0  0  0  0  0  0  0  0  0
    6.5733   -1.9492    0.4741 C   0  0  0  0  0  0  0  0  0  0  0  0
    6.4310   -2.1237   -0.8725 C   0  0  0  0  0  0  0  0  0  0  0  0
    5.7247   -1.2144   -1.6412 C   0  0  0  0  0  0  0  0  0  0  0  0
    5.1414   -0.0989   -1.0617 C   0  0  0  0  0  0  0  0  0  0  0  0
   -5.2239   -6.2399    2.0769 H   0  0  0  0  0  0  0  0  0  0  0  0
   -3.1304   -3.3374    2.3654 H   0  0  0  0  0  0  0  0  0  0  0  0
   -1.8256   -4.5877    2.4722 H   0  0  0  0  0  0  0  0  0  0  0  0
   -2.0143   -4.2119   -0.2110 H   0  0  0  0  0  0  0  0  0  0  0  0
   -0.1621   -3.1455    1.2506 H   0  0  0  0  0  0  0  0  0  0  0  0
   -1.3658   -2.4058   -1.4049 H   0  0  0  0  0  0  0  0  0  0  0  0
    0.0417   -3.3522   -0.9672 H   0  0  0  0  0  0  0  0  0  0  0  0
    0.6142   -1.1277   -1.9587 H   0  0  0  0  0  0  0  0  0  0  0  0
    1.4551   -1.6983   -0.5122 H   0  0  0  0  0  0  0  0  0  0  0  0
   -0.7891   -1.3204    2.4244 H   0  0  0  0  0  0  0  0  0  0  0  0
   -1.2993    1.8032   -2.7233 H   0  0  0  0  0  0  0  0  0  0  0  0
   -0.6391    0.1947   -2.8871 H   0  0  0  0  0  0  0  0  0  0  0  0
    0.9255    1.2911   -1.6124 H   0  0  0  0  0  0  0  0  0  0  0  0
   -0.9904    3.1355    1.4132 H   0  0  0  0  0  0  0  0  0  0  0  0
   -2.2615    2.4841    0.3367 H   0  0  0  0  0  0  0  0  0  0  0  0
   -0.4210    1.1122    2.2777 H   0  0  0  0  0  0  0  0  0  0  0  0
   -2.2254    0.9960    2.0188 H   0  0  0  0  0  0  0  0  0  0  0  0
   -1.4873    3.4078   -1.6620 H   0  0  0  0  0  0  0  0  0  0  0  0
    0.2902    3.4921   -2.0582 H   0  0  0  0  0  0  0  0  0  0  0  0
    0.5805    5.2166   -0.2302 H   0  0  0  0  0  0  0  0  0  0  0  0
   -2.4473    4.7727    0.6691 H   0  0  0  0  0  0  0  0  0  0  0  0
   -1.1636    5.8750    1.3548 H   0  0  0  0  0  0  0  0  0  0  0  0
   -2.2424    5.6347   -1.6258 H   0  0  0  0  0  0  0  0  0  0  0  0
   -1.1565    6.9330   -0.8879 H   0  0  0  0  0  0  0  0  0  0  0  0
   -3.5775    0.5169   -3.2352 H   0  0  0  0  0  0  0  0  0  0  0  0
   -5.4957   -0.6964   -2.1378 H   0  0  0  0  0  0  0  0  0  0  0  0
   -6.4333   -1.4872    0.1561 H   0  0  0  0  0  0  0  0  0  0  0  0
    2.8548   -0.3108   -0.1415 H   0  0  0  0  0  0  0  0  0  0  0  0
    2.4973    1.4734   -0.4136 H   0  0  0  0  0  0  0  0  0  0  0  0
    3.2929    0.1525    2.2147 H   0  0  0  0  0  0  0  0  0  0  0  0
    2.8638    1.8680    1.9667 H   0  0  0  0  0  0  0  0  0  0  0  0
    4.6264    2.0953    0.2458 H   0  0  0  0  0  0  0  0  0  0  0  0
    5.3034    1.5304    1.8741 H   0  0  0  0  0  0  0  0  0  0  0  0
    6.1232   -0.7188    2.1515 H   0  0  0  0  0  0  0  0  0  0  0  0
    7.1226   -2.6439    1.1136 H   0  0  0  0  0  0  0  0  0  0  0  0
    6.8804   -2.9908   -1.3475 H   0  0  0  0  0  0  0  0  0  0  0  0
    5.6434   -1.4043   -2.7098 H   0  0  0  0  0  0  0  0  0  0  0  0
    4.5824    0.6249   -1.6570 H   0  0  0  0  0  0  0  0  0  0  0  0
  1  2  1  0
  2  3  2  0
  2  4  1  0
  4  5  1  0
  5  6  1  0
  6  7  1  0
  7  8  1  0
  8  9  1  0
  9 10  1  0
 10 11  1  0
 11 12  1  0
 12 13  1  0
 13 14  2  0
 14 15  1  0
 15 16  1  0
 16 17  1  0
 17 18  1  0
 18 19  1  0
 19 20  1  0
 18 21  1  0
 21 22  1  0
 22 23  1  0
 23 24  1  0
 15 25  2  0
 25 26  1  0
 26 27  2  0
 27 28  1  0
  9 29  1  1
 29 30  1  0
 30 31  1  0
 31 32  1  0
 32 33  1  0
 33 34  2  0
 34 35  1  0
 35 36  2  0
 36 37  1  0
 37 38  2  0
 11  6  1  0
 27 13  1  0
 38 33  1  0
 17  9  1  0
 24 22  1  0
 10 20  1  1
 14 10  1  0
  1 39  1  0
  4 40  1  0
  4 41  1  0
  5 42  1  0
  6 43  1  1
  7 44  1  0
  7 45  1  0
  8 46  1  0
  8 47  1  0
 11 48  1  1
 16 49  1  0
 16 50  1  0
 17 51  1  6
 19 52  1  0
 19 53  1  0
 20 54  1  0
 20 55  1  0
 21 56  1  0
 21 57  1  0
 22 58  1  0
 23 59  1  0
 23 60  1  0
 24 61  1  0
 24 62  1  0
 25 63  1  0
 26 64  1  0
 28 65  1  0
 30 66  1  0
 30 67  1  0
 31 68  1  0
 31 69  1  0
 32 70  1  0
 32 71  1  0
 34 72  1  0
 35 73  1  0
 36 74  1  0
 37 75  1  0
 38 76  1  0
M  END
>  <Ligand ID>  (1) 
LIG0002886

>  <Ligand>  (1) 
CHEMBL1739441

>  <SMILES>  (1) 
OC(=O)CN[C@H]1CC[C@@]2([C@@]34[C@H]1Oc1c4c(C[C@H]2N(CC3)CC2CC2)ccc1O)OCCCc1ccccc1

>  <CID>  (1) 
51003219.0

>  <ChEMBL ID>  (1) 
nan

>  <InChiKey>  (1) 
ZJWDRJAMCPEBDA-CBDXKTNESA-N

>  <InChi>  (1) 
InChI=1S/C31H38N2O5/c34-24-11-10-22-17-25-31(37-16-4-7-20-5-2-1-3-6-20)13-12-23(32-18-26(35)36)29-30(31,27(22)28(24)38-29)14-15-33(25)19-21-8-9-21/h1-3,5-6,10-11,21,23,25,29,32,34H,4,7-9,12-19H2,(H,35,36)/t23-,25+,29-,30-,31+/m0/s1

>  <IUPAC Name>  (1) 
2-[[(4R,4aS,7S,7aR,12bS)-3-(cyclopropylmethyl)-9-hydroxy-4a-(3-phenylpropoxy)-1,2,4,5,6,7,7a,13-octahydro-4,12-methanobenzofuro[3,2-e]isoquinolin-7-yl]amino]acetic acid

$$$$
