
     RDKit          3D

103107  0  0  0  0  0  0  0  0999 V2000
    3.4474    4.5385    4.2458 N   0  0  0  0  0  0  0  0  0  0  0  0
    2.9660    4.8814    2.9674 C   0  0  0  0  0  0  0  0  0  0  0  0
    1.7481    4.7374    2.5420 N   0  0  0  0  0  0  0  0  0  0  0  0
    1.4567    5.1662    1.1473 C   0  0  0  0  0  0  0  0  0  0  0  0
    0.0537    4.8367    0.8502 C   0  0  0  0  0  0  0  0  0  0  0  0
   -0.4984    3.4785    0.8661 C   0  0  0  0  0  0  0  0  0  0  0  0
   -0.0506    2.4290   -0.0407 C   0  0  1  0  0  0  0  0  0  0  0  0
    1.2787    1.9050    0.0011 C   0  0  0  0  0  0  0  0  0  0  0  0
    2.2888    2.4271    0.6075 O   0  0  0  0  0  0  0  0  0  0  0  0
    1.6443    0.6850   -0.6738 N   0  0  0  0  0  0  0  0  0  0  0  0
    3.0623    0.3148   -0.5230 C   0  0  2  0  0  0  0  0  0  0  0  0
    3.7386    1.0065   -1.7021 C   0  0  0  0  0  0  0  0  0  0  0  0
    3.0996    1.5671   -2.6066 O   0  0  0  0  0  0  0  0  0  0  0  0
    5.1761    1.0214   -1.7776 N   0  0  0  0  0  0  0  0  0  0  0  0
    3.3256   -1.1338   -0.6962 C   0  0  0  0  0  0  0  0  0  0  0  0
    4.7793   -1.3892   -0.5171 C   0  0  0  0  0  0  0  0  0  0  0  0
    5.7563   -1.6672   -1.4632 C   0  0  0  0  0  0  0  0  0  0  0  0
    6.9122   -1.8283   -0.8190 N   0  0  0  0  0  0  0  0  0  0  0  0
    6.7882   -1.6788    0.5061 C   0  0  0  0  0  0  0  0  0  0  0  0
    5.4437   -1.3992    0.7241 C   0  0  0  0  0  0  0  0  0  0  0  0
    4.9322   -1.1886    1.9753 C   0  0  0  0  0  0  0  0  0  0  0  0
    5.8441   -1.2664    3.0363 C   0  0  0  0  0  0  0  0  0  0  0  0
    7.1844   -1.5431    2.8183 C   0  0  0  0  0  0  0  0  0  0  0  0
    7.6874   -1.7558    1.5421 C   0  0  0  0  0  0  0  0  0  0  0  0
   -1.0739    1.4530   -0.3653 N   0  0  0  0  0  0  0  0  0  0  0  0
   -1.7901    1.4656   -1.6197 C   0  0  0  0  0  0  0  0  0  0  0  0
   -1.5123    2.2931   -2.5240 O   0  0  0  0  0  0  0  0  0  0  0  0
   -2.8867    0.4520   -1.7566 C   0  0  1  0  0  0  0  0  0  0  0  0
   -3.1292   -0.1343   -3.0638 C   0  0  0  0  0  0  0  0  0  0  0  0
   -4.2763   -1.0984   -2.9852 C   0  0  0  0  0  0  0  0  0  0  0  0
   -5.5834   -0.6663   -3.2747 C   0  0  0  0  0  0  0  0  0  0  0  0
   -6.6596   -1.5086   -3.2202 C   0  0  0  0  0  0  0  0  0  0  0  0
   -6.4941   -2.8484   -2.8704 C   0  0  0  0  0  0  0  0  0  0  0  0
   -5.2188   -3.2818   -2.5859 C   0  0  0  0  0  0  0  0  0  0  0  0
   -4.1500   -2.4125   -2.6474 C   0  0  0  0  0  0  0  0  0  0  0  0
   -2.0102   -0.6943   -3.8400 C   0  0  0  0  0  0  0  0  0  0  0  0
   -1.9722   -0.5698   -5.2039 C   0  0  0  0  0  0  0  0  0  0  0  0
   -1.0211   -1.0655   -6.0347 C   0  0  0  0  0  0  0  0  0  0  0  0
    0.0119   -1.7655   -5.4288 C   0  0  0  0  0  0  0  0  0  0  0  0
    0.0797   -1.9518   -4.0448 C   0  0  0  0  0  0  0  0  0  0  0  0
   -0.9587   -1.3988   -3.2682 C   0  0  0  0  0  0  0  0  0  0  0  0
   -3.0402   -0.3849   -0.5965 N   0  0  0  0  0  0  0  0  0  0  0  0
   -3.5699    0.1779    0.5967 C   0  0  0  0  0  0  0  0  0  0  0  0
   -3.8840    1.4079    0.6497 O   0  0  0  0  0  0  0  0  0  0  0  0
   -3.7887   -0.6063    1.8464 C   0  0  2  0  0  0  0  0  0  0  0  0
   -2.7417   -0.2531    2.8873 C   0  0  0  0  0  0  0  0  0  0  0  0
   -3.0321   -0.9763    4.1255 C   0  0  0  0  0  0  0  0  0  0  0  0
   -2.6670   -2.1447    4.6248 N   0  0  0  0  0  0  0  0  0  0  0  0
   -3.2664   -2.3220    5.8494 C   0  0  0  0  0  0  0  0  0  0  0  0
   -4.0199   -1.2559    6.1346 N   0  0  0  0  0  0  0  0  0  0  0  0
   -3.8895   -0.4287    5.1001 C   0  0  0  0  0  0  0  0  0  0  0  0
   -3.8027   -2.0200    1.5296 N   0  0  0  0  0  0  0  0  0  0  0  0
   -2.7206   -2.8829    1.4654 C   0  0  0  0  0  0  0  0  0  0  0  0
   -1.5088   -2.5984    1.6691 O   0  0  0  0  0  0  0  0  0  0  0  0
   -2.9740   -4.3280    1.1190 C   0  0  0  0  0  0  0  0  0  0  0  0
    3.9500    5.4480    2.0703 N   0  0  0  0  0  0  0  0  0  0  0  0
    3.9141    5.2664    4.8276 H   0  0  0  0  0  0  0  0  0  0  0  0
    3.3291    3.5486    4.6093 H   0  0  0  0  0  0  0  0  0  0  0  0
    2.2293    4.8958    0.4366 H   0  0  0  0  0  0  0  0  0  0  0  0
    1.4623    6.3298    1.2516 H   0  0  0  0  0  0  0  0  0  0  0  0
   -0.2430    5.2988   -0.1633 H   0  0  0  0  0  0  0  0  0  0  0  0
   -0.5535    5.5119    1.5584 H   0  0  0  0  0  0  0  0  0  0  0  0
   -0.2486    3.0905    1.9320 H   0  0  0  0  0  0  0  0  0  0  0  0
   -1.6370    3.4920    0.9801 H   0  0  0  0  0  0  0  0  0  0  0  0
   -0.0332    3.0298   -1.0901 H   0  0  0  0  0  0  0  0  0  0  0  0
    0.9662    0.1234   -1.2112 H   0  0  0  0  0  0  0  0  0  0  0  0
    3.5068    0.6985    0.3973 H   0  0  0  0  0  0  0  0  0  0  0  0
    5.6929    0.9740   -2.6758 H   0  0  0  0  0  0  0  0  0  0  0  0
    5.6673    1.0946   -0.8352 H   0  0  0  0  0  0  0  0  0  0  0  0
    3.1200   -1.4427   -1.7657 H   0  0  0  0  0  0  0  0  0  0  0  0
    2.7326   -1.7882   -0.0277 H   0  0  0  0  0  0  0  0  0  0  0  0
    5.5361   -1.7232   -2.5261 H   0  0  0  0  0  0  0  0  0  0  0  0
    7.8589   -2.0499   -1.2586 H   0  0  0  0  0  0  0  0  0  0  0  0
    3.8990   -0.9719    2.1283 H   0  0  0  0  0  0  0  0  0  0  0  0
    5.4590   -1.1015    4.0474 H   0  0  0  0  0  0  0  0  0  0  0  0
    7.8260   -1.5911    3.6954 H   0  0  0  0  0  0  0  0  0  0  0  0
    8.7343   -1.9687    1.4331 H   0  0  0  0  0  0  0  0  0  0  0  0
   -1.2499    0.7231    0.3650 H   0  0  0  0  0  0  0  0  0  0  0  0
   -3.8067    1.1842   -1.6098 H   0  0  0  0  0  0  0  0  0  0  0  0
   -3.5295    0.7025   -3.7185 H   0  0  0  0  0  0  0  0  0  0  0  0
   -5.6858    0.3940   -3.5476 H   0  0  0  0  0  0  0  0  0  0  0  0
   -7.6818   -1.1647   -3.4492 H   0  0  0  0  0  0  0  0  0  0  0  0
   -7.3759   -3.4864   -2.8389 H   0  0  0  0  0  0  0  0  0  0  0  0
   -5.0839   -4.3409   -2.3079 H   0  0  0  0  0  0  0  0  0  0  0  0
   -3.1807   -2.8257   -2.4112 H   0  0  0  0  0  0  0  0  0  0  0  0
   -2.7965   -0.0031   -5.6693 H   0  0  0  0  0  0  0  0  0  0  0  0
   -1.0601   -0.9282   -7.1117 H   0  0  0  0  0  0  0  0  0  0  0  0
    0.8260   -2.2113   -6.0212 H   0  0  0  0  0  0  0  0  0  0  0  0
    0.8957   -2.4967   -3.5767 H   0  0  0  0  0  0  0  0  0  0  0  0
   -0.9570   -1.5070   -2.1902 H   0  0  0  0  0  0  0  0  0  0  0  0
   -2.7819   -1.4058   -0.5585 H   0  0  0  0  0  0  0  0  0  0  0  0
   -4.7305   -0.3419    2.3064 H   0  0  0  0  0  0  0  0  0  0  0  0
   -2.7992    0.8308    3.0617 H   0  0  0  0  0  0  0  0  0  0  0  0
   -1.7117   -0.4213    2.4930 H   0  0  0  0  0  0  0  0  0  0  0  0
   -2.0402   -2.8558    4.2462 H   0  0  0  0  0  0  0  0  0  0  0  0
   -3.1450   -3.2016    6.4889 H   0  0  0  0  0  0  0  0  0  0  0  0
   -4.3952    0.5467    5.0427 H   0  0  0  0  0  0  0  0  0  0  0  0
   -4.7794   -2.4126    1.3152 H   0  0  0  0  0  0  0  0  0  0  0  0
   -2.8229   -4.9433    2.0522 H   0  0  0  0  0  0  0  0  0  0  0  0
   -4.0471   -4.4530    0.7772 H   0  0  0  0  0  0  0  0  0  0  0  0
   -2.3317   -4.6031    0.2853 H   0  0  0  0  0  0  0  0  0  0  0  0
    4.4636    6.3259    2.2861 H   0  0  0  0  0  0  0  0  0  0  0  0
    4.1243    4.9335    1.1994 H   0  0  0  0  0  0  0  0  0  0  0  0
  1  2  1  0
  2  3  2  3
  3  4  1  0
  4  5  1  0
  5  6  1  0
  6  7  1  0
  7  8  1  0
  8  9  2  0
  8 10  1  0
 10 11  1  0
 11 12  1  0
 12 13  2  0
 12 14  1  0
 11 15  1  0
 15 16  1  0
 16 17  2  0
 17 18  1  0
 18 19  1  0
 19 20  2  0
 20 21  1  0
 21 22  2  0
 22 23  1  0
 23 24  2  0
  7 25  1  0
 25 26  1  0
 26 27  2  0
 26 28  1  0
 28 29  1  0
 29 30  1  0
 30 31  2  0
 31 32  1  0
 32 33  2  0
 33 34  1  0
 34 35  2  0
 29 36  1  0
 36 37  2  0
 37 38  1  0
 38 39  2  0
 39 40  1  0
 40 41  2  0
 28 42  1  0
 42 43  1  0
 43 44  2  0
 43 45  1  0
 45 46  1  0
 46 47  1  0
 47 48  1  0
 48 49  1  0
 49 50  2  0
 50 51  1  0
 45 52  1  0
 52 53  1  0
 53 54  2  0
 53 55  1  0
  2 56  1  0
 20 16  1  0
 35 30  1  0
 41 36  1  0
 51 47  2  0
 24 19  1  0
  1 57  1  0
  1 58  1  0
  4 59  1  0
  4 60  1  0
  5 61  1  0
  5 62  1  0
  6 63  1  0
  6 64  1  0
  7 65  1  6
 10 66  1  0
 11 67  1  1
 14 68  1  0
 14 69  1  0
 15 70  1  0
 15 71  1  0
 17 72  1  0
 18 73  1  0
 21 74  1  0
 22 75  1  0
 23 76  1  0
 24 77  1  0
 25 78  1  0
 28 79  1  1
 29 80  1  0
 31 81  1  0
 32 82  1  0
 33 83  1  0
 34 84  1  0
 35 85  1  0
 37 86  1  0
 38 87  1  0
 39 88  1  0
 40 89  1  0
 41 90  1  0
 42 91  1  0
 45 92  1  1
 46 93  1  0
 46 94  1  0
 48 95  1  0
 49 96  1  0
 51 97  1  0
 52 98  1  0
 55 99  1  0
 55100  1  0
 55101  1  0
 56102  1  0
 56103  1  0
M  END
>  <Ligand ID>  (1) 
LIG0001425

>  <Ligand>  (1) 
CHEMBL106959

>  <SMILES>  (1) 
NC(=NCCC[C@@H](C(=O)N[C@H](C(=O)N)Cc1c[nH]c2c1cccc2)NC(=O)[C@@H](C(c1ccccc1)c1ccccc1)NC(=O)[C@H](Cc1[nH]cnc1)NC(=O)C)N

>  <CID>  (1) 
10887200.0

>  <ChEMBL ID>  (1) 
nan

>  <InChiKey>  (1) 
JDVCDJBHKUIJSL-UJWBSGRQSA-N

>  <InChi>  (1) 
InChI=1S/C40H47N11O5/c1-24(52)48-33(20-28-22-44-23-47-28)38(55)51-35(34(25-11-4-2-5-12-25)26-13-6-3-7-14-26)39(56)49-31(17-10-18-45-40(42)43)37(54)50-32(36(41)53)19-27-21-46-30-16-9-8-15-29(27)30/h2-9,11-16,21-23,31-35,46H,10,17-20H2,1H3,(H2,41,53)(H,44,47)(H,48,52)(H,49,56)(H,50,54)(H,51,55)(H4,42,43,45)/t31-,32-,33-,35+/m0/s1

>  <IUPAC Name>  (1) 
(2S)-2-[[(2R)-2-[[(2S)-2-acetamido-3-(1H-imidazol-5-yl)propanoyl]amino]-3,3-diphenylpropanoyl]amino]-N-[(2S)-1-amino-3-(1H-indol-3-yl)-1-oxopropan-2-yl]-5-(diaminomethylideneamino)pentanamide

$$$$
