
     RDKit          3D

 38 40  0  0  0  0  0  0  0  0999 V2000
    2.4787    1.6593   -0.9799 C   0  0  0  0  0  0  0  0  0  0  0  0
    1.4466    0.6401   -1.3664 C   0  0  1  0  0  0  0  0  0  0  0  0
    2.0963   -0.7169   -1.2885 C   0  0  0  0  0  0  0  0  0  0  0  0
    3.2903   -0.9401   -0.9359 N   0  0  0  0  0  0  0  0  0  0  0  0
    3.5616   -2.3454   -0.9832 C   0  0  0  0  0  0  0  0  0  0  0  0
    2.1907   -2.9518   -0.8425 C   0  0  0  0  0  0  0  0  0  0  0  0
    1.4295   -1.9489   -1.6057 N   0  0  0  0  0  0  0  0  0  0  0  0
    0.3210    0.6350   -0.5614 O   0  0  0  0  0  0  0  0  0  0  0  0
   -0.9862    0.8388   -0.8887 C   0  0  0  0  0  0  0  0  0  0  0  0
   -1.4651    1.1036   -2.1534 C   0  0  0  0  0  0  0  0  0  0  0  0
   -2.7993    1.3032   -2.4369 C   0  0  0  0  0  0  0  0  0  0  0  0
   -3.6924    1.2354   -1.4146 C   0  0  0  0  0  0  0  0  0  0  0  0
   -3.2607    0.9754   -0.1463 C   0  0  0  0  0  0  0  0  0  0  0  0
   -1.9258    0.7763    0.1339 C   0  0  0  0  0  0  0  0  0  0  0  0
   -1.5302    0.5016    1.5147 C   0  0  0  0  0  0  0  0  0  0  0  0
   -0.6300   -0.5017    1.8365 C   0  0  0  0  0  0  0  0  0  0  0  0
   -0.2481   -0.7726    3.1273 C   0  0  0  0  0  0  0  0  0  0  0  0
   -0.8020    0.0058    4.1306 C   0  0  0  0  0  0  0  0  0  0  0  0
   -1.7100    1.0243    3.8548 C   0  0  0  0  0  0  0  0  0  0  0  0
   -2.0589    1.2540    2.5419 C   0  0  0  0  0  0  0  0  0  0  0  0
    2.8975    2.1813   -1.8755 H   0  0  0  0  0  0  0  0  0  0  0  0
    3.3412    1.1747   -0.4771 H   0  0  0  0  0  0  0  0  0  0  0  0
    2.0821    2.4350   -0.2930 H   0  0  0  0  0  0  0  0  0  0  0  0
    1.1622    0.8480   -2.4200 H   0  0  0  0  0  0  0  0  0  0  0  0
    4.2588   -2.6835   -0.1896 H   0  0  0  0  0  0  0  0  0  0  0  0
    3.9326   -2.6084   -1.9986 H   0  0  0  0  0  0  0  0  0  0  0  0
    2.1055   -3.9500   -1.3078 H   0  0  0  0  0  0  0  0  0  0  0  0
    1.7951   -2.9065    0.1830 H   0  0  0  0  0  0  0  0  0  0  0  0
    0.6051   -2.1013   -2.2262 H   0  0  0  0  0  0  0  0  0  0  0  0
   -0.7655    1.1600   -2.9742 H   0  0  0  0  0  0  0  0  0  0  0  0
   -3.1558    1.5131   -3.4551 H   0  0  0  0  0  0  0  0  0  0  0  0
   -4.7494    1.3896   -1.6154 H   0  0  0  0  0  0  0  0  0  0  0  0
   -4.0274    0.9335    0.6332 H   0  0  0  0  0  0  0  0  0  0  0  0
   -0.2335   -1.0728    1.0147 H   0  0  0  0  0  0  0  0  0  0  0  0
    0.4556   -1.5554    3.3902 H   0  0  0  0  0  0  0  0  0  0  0  0
   -0.5032   -0.2065    5.1385 H   0  0  0  0  0  0  0  0  0  0  0  0
   -2.1426    1.6305    4.6252 H   0  0  0  0  0  0  0  0  0  0  0  0
   -2.7645    2.0432    2.3113 H   0  0  0  0  0  0  0  0  0  0  0  0
  1  2  1  0
  2  3  1  0
  3  4  2  0
  4  5  1  0
  5  6  1  0
  6  7  1  0
  2  8  1  0
  8  9  1  0
  9 10  2  0
 10 11  1  0
 11 12  2  0
 12 13  1  0
 13 14  2  0
 14 15  1  0
 15 16  2  0
 16 17  1  0
 17 18  2  0
 18 19  1  0
 19 20  2  0
  7  3  1  0
 14  9  1  0
 20 15  1  0
  1 21  1  0
  1 22  1  0
  1 23  1  0
  2 24  1  6
  5 25  1  0
  5 26  1  0
  6 27  1  0
  6 28  1  0
  7 29  1  0
 10 30  1  0
 11 31  1  0
 12 32  1  0
 13 33  1  0
 16 34  1  0
 17 35  1  0
 18 36  1  0
 19 37  1  0
 20 38  1  0
M  END
>  <Ligand ID>  (1) 
LIG0002136

>  <Ligand>  (1) 
CHEMBL396013

>  <SMILES>  (1) 
C[C@@H](C1=NCCN1)Oc1ccccc1c1ccccc1

>  <CID>  (1) 
10333157.0

>  <ChEMBL ID>  (1) 
nan

>  <InChiKey>  (1) 
OGOLMGZJNRNULQ-ZDUSSCGKSA-N

>  <InChi>  (1) 
InChI=1S/C17H18N2O/c1-13(17-18-11-12-19-17)20-16-10-6-5-9-15(16)14-7-3-2-4-8-14/h2-10,13H,11-12H2,1H3,(H,18,19)/t13-/m0/s1

>  <IUPAC Name>  (1) 
2-[(1S)-1-(2-phenylphenoxy)ethyl]-4,5-dihydro-1H-imidazole

$$$$
