
     RDKit          3D

 54 54  0  0  0  0  0  0  0  0999 V2000
   -6.2774   -1.2136   -1.6566 C   0  0  0  0  0  0  0  0  0  0  0  0
   -7.0785   -1.1835   -0.4057 C   0  0  0  0  0  0  0  0  0  0  0  0
   -6.8816    0.0336    0.4052 C   0  0  0  0  0  0  0  0  0  0  0  0
   -5.5620    0.2903    1.0021 C   0  0  0  0  0  0  0  0  0  0  0  0
   -4.4427    0.4456    0.0662 C   0  0  0  0  0  0  0  0  0  0  0  0
   -3.1403    0.7918    0.7921 C   0  0  0  0  0  0  0  0  0  0  0  0
   -2.7846   -0.3000    1.7345 C   0  0  0  0  0  0  0  0  0  0  0  0
   -1.4607    0.0396    2.4522 C   0  0  0  0  0  0  0  0  0  0  0  0
   -0.3690    0.1957    1.4559 C   0  0  0  0  0  0  0  0  0  0  0  0
    0.3715   -0.9151    1.1030 C   0  0  0  0  0  0  0  0  0  0  0  0
    1.4069   -0.8135    0.1703 C   0  0  0  0  0  0  0  0  0  0  0  0
    1.6674    0.4248   -0.3862 C   0  0  0  0  0  0  0  0  0  0  0  0
    0.9446    1.5517   -0.0531 C   0  0  0  0  0  0  0  0  0  0  0  0
   -0.0652    1.4113    0.8675 C   0  0  0  0  0  0  0  0  0  0  0  0
    2.7149    0.5642   -1.3396 N   0  0  0  0  0  0  0  0  0  0  0  0
    4.0072    0.8749   -0.8416 C   0  0  0  0  0  0  0  0  0  0  0  0
    4.1985    1.0182    0.4068 O   0  0  0  0  0  0  0  0  0  0  0  0
    5.1805    1.0449   -1.7408 C   0  0  1  0  0  0  0  0  0  0  0  0
    6.3112    0.1640   -1.3194 C   0  0  0  0  0  0  0  0  0  0  0  0
    6.7150    0.3796   -0.0089 O   0  0  0  0  0  0  0  0  0  0  0  0
    7.9766   -0.6009    0.4666 P   0  0  0  0  0  0  0  0  0  0  0  0
    9.2830    0.1788    0.4306 O   0  0  0  0  0  0  0  0  0  0  0  0
    7.7489   -1.0170    2.1048 O   0  0  0  0  0  0  0  0  0  0  0  0
    8.1093   -2.0271   -0.3991 O   0  0  0  0  0  0  0  0  0  0  0  0
    4.7411    0.8410   -3.0994 N   0  0  0  0  0  0  0  0  0  0  0  0
   -5.4524   -1.9458   -1.6445 H   0  0  0  0  0  0  0  0  0  0  0  0
   -5.8984   -0.2270   -1.9319 H   0  0  0  0  0  0  0  0  0  0  0  0
   -6.9844   -1.5397   -2.5153 H   0  0  0  0  0  0  0  0  0  0  0  0
   -6.8715   -2.1096    0.2282 H   0  0  0  0  0  0  0  0  0  0  0  0
   -8.1721   -1.2654   -0.6741 H   0  0  0  0  0  0  0  0  0  0  0  0
   -7.1931    0.9142   -0.2628 H   0  0  0  0  0  0  0  0  0  0  0  0
   -7.6927    0.0502    1.1995 H   0  0  0  0  0  0  0  0  0  0  0  0
   -5.5990    1.1999    1.6794 H   0  0  0  0  0  0  0  0  0  0  0  0
   -5.3398   -0.5679    1.7302 H   0  0  0  0  0  0  0  0  0  0  0  0
   -4.1776   -0.5213   -0.4394 H   0  0  0  0  0  0  0  0  0  0  0  0
   -4.5951    1.2580   -0.6550 H   0  0  0  0  0  0  0  0  0  0  0  0
   -2.3790    0.9598    0.0046 H   0  0  0  0  0  0  0  0  0  0  0  0
   -3.2309    1.7601    1.3240 H   0  0  0  0  0  0  0  0  0  0  0  0
   -3.5377   -0.6022    2.4568 H   0  0  0  0  0  0  0  0  0  0  0  0
   -2.5578   -1.2047    1.1124 H   0  0  0  0  0  0  0  0  0  0  0  0
   -1.2165   -0.7467    3.1839 H   0  0  0  0  0  0  0  0  0  0  0  0
   -1.5725    1.0044    2.9825 H   0  0  0  0  0  0  0  0  0  0  0  0
    0.2051   -1.8991    1.5097 H   0  0  0  0  0  0  0  0  0  0  0  0
    1.9805   -1.7055   -0.0947 H   0  0  0  0  0  0  0  0  0  0  0  0
    1.1955    2.5053   -0.5257 H   0  0  0  0  0  0  0  0  0  0  0  0
   -0.6552    2.2665    1.1566 H   0  0  0  0  0  0  0  0  0  0  0  0
    2.5450    0.4439   -2.3638 H   0  0  0  0  0  0  0  0  0  0  0  0
    5.5085    2.1247   -1.6999 H   0  0  0  0  0  0  0  0  0  0  0  0
    7.1944    0.3901   -1.9566 H   0  0  0  0  0  0  0  0  0  0  0  0
    6.0548   -0.8967   -1.5192 H   0  0  0  0  0  0  0  0  0  0  0  0
    7.7762   -0.1629    2.6053 H   0  0  0  0  0  0  0  0  0  0  0  0
    9.0454   -2.2975   -0.5630 H   0  0  0  0  0  0  0  0  0  0  0  0
    4.0023    1.5560   -3.2849 H   0  0  0  0  0  0  0  0  0  0  0  0
    4.3034   -0.0902   -3.2498 H   0  0  0  0  0  0  0  0  0  0  0  0
  1  2  1  0
  2  3  1  0
  3  4  1  0
  4  5  1  0
  5  6  1  0
  6  7  1  0
  7  8  1  0
  8  9  1  0
  9 10  2  0
 10 11  1  0
 11 12  2  0
 12 13  1  0
 13 14  2  0
 12 15  1  0
 15 16  1  0
 16 17  2  0
 16 18  1  0
 18 19  1  0
 19 20  1  0
 20 21  1  0
 21 22  2  0
 21 23  1  0
 21 24  1  0
 18 25  1  0
 14  9  1  0
  1 26  1  0
  1 27  1  0
  1 28  1  0
  2 29  1  0
  2 30  1  0
  3 31  1  0
  3 32  1  0
  4 33  1  0
  4 34  1  0
  5 35  1  0
  5 36  1  0
  6 37  1  0
  6 38  1  0
  7 39  1  0
  7 40  1  0
  8 41  1  0
  8 42  1  0
 10 43  1  0
 11 44  1  0
 13 45  1  0
 14 46  1  0
 15 47  1  0
 18 48  1  6
 19 49  1  0
 19 50  1  0
 23 51  1  0
 24 52  1  0
 25 53  1  0
 25 54  1  0
M  END
>  <Ligand ID>  (1) 
LIG0004250

>  <Ligand>  (1) 
CHEMBL227371

>  <SMILES>  (1) 
CCCCCCCCc1ccc(cc1)NC(=O)[C@@H](COP(=O)(O)O)N

>  <CID>  (1) 
44342175.0

>  <ChEMBL ID>  (1) 
nan

>  <InChiKey>  (1) 
MYSPJHRAIVKWQS-MRXNPFEDSA-N

>  <InChi>  (1) 
InChI=1S/C17H29N2O5P/c1-2-3-4-5-6-7-8-14-9-11-15(12-10-14)19-17(20)16(18)13-24-25(21,22)23/h9-12,16H,2-8,13,18H2,1H3,(H,19,20)(H2,21,22,23)/t16-/m1/s1

>  <IUPAC Name>  (1) 
[(2R)-2-amino-3-(4-octylanilino)-3-oxopropyl] dihydrogen phosphate

$$$$
