
     RDKit          3D

 30 30  0  0  0  0  0  0  0  0999 V2000
   -2.5294    2.1898   -1.1313 C   0  0  0  0  0  0  0  0  0  0  0  0
   -1.4309    1.4551   -0.6194 O   0  0  0  0  0  0  0  0  0  0  0  0
   -1.5504    0.1369   -0.1628 C   0  0  0  0  0  0  0  0  0  0  0  0
   -2.7768   -0.5087   -0.1973 C   0  0  0  0  0  0  0  0  0  0  0  0
   -2.8744   -1.8224    0.2625 C   0  0  0  0  0  0  0  0  0  0  0  0
   -4.3998   -2.6855    0.2416 Cl  0  0  0  0  0  0  0  0  0  0  0  0
   -1.7649   -2.4897    0.7521 C   0  0  0  0  0  0  0  0  0  0  0  0
   -0.5429   -1.8243    0.7784 C   0  0  0  0  0  0  0  0  0  0  0  0
   -0.4263   -0.5126    0.3236 C   0  0  0  0  0  0  0  0  0  0  0  0
    0.8527    0.2287    0.3347 C   0  0  0  0  0  0  0  0  0  0  0  0
    1.6617    0.0587   -0.9530 C   0  0  0  0  0  0  0  0  0  0  0  0
    2.1613   -0.4460    0.3737 C   0  0  0  0  0  0  0  0  0  0  0  0
    3.3322    0.3074    0.9580 C   0  0  0  0  0  0  0  0  0  0  0  0
    3.5570    1.5184    0.1961 N   0  0  0  0  0  0  0  0  0  0  0  0
   -1.8970   -4.1561    1.3335 Cl  0  0  0  0  0  0  0  0  0  0  0  0
    0.6870    0.0000    0.0000 Cl  0  0  0  0  0  0  0  0  0  0  0  0
   -3.1036    1.5873   -1.8374 H   0  0  0  0  0  0  0  0  0  0  0  0
   -2.1312    3.1198   -1.5659 H   0  0  0  0  0  0  0  0  0  0  0  0
   -3.1747    2.4154   -0.2381 H   0  0  0  0  0  0  0  0  0  0  0  0
   -3.6692   -0.0033   -0.5797 H   0  0  0  0  0  0  0  0  0  0  0  0
    0.3383   -2.3243    1.1564 H   0  0  0  0  0  0  0  0  0  0  0  0
    0.7981    1.2143    0.8045 H   0  0  0  0  0  0  0  0  0  0  0  0
    1.9712    1.0100   -1.3769 H   0  0  0  0  0  0  0  0  0  0  0  0
    1.3401   -0.7243   -1.6697 H   0  0  0  0  0  0  0  0  0  0  0  0
    2.2532   -1.5452    0.4911 H   0  0  0  0  0  0  0  0  0  0  0  0
    4.2631   -0.2882    0.9469 H   0  0  0  0  0  0  0  0  0  0  0  0
    3.1345    0.6122    2.0139 H   0  0  0  0  0  0  0  0  0  0  0  0
    3.8867    1.3399   -0.7764 H   0  0  0  0  0  0  0  0  0  0  0  0
    2.7217    2.1371    0.1408 H   0  0  0  0  0  0  0  0  0  0  0  0
   -0.6870    0.0000    0.0000 H   0  0  0  0  0  0  0  0  0  0  0  0
  1  2  1  0
  2  3  1  0
  3  4  2  0
  4  5  1  0
  5  6  1  0
  5  7  2  0
  7  8  1  0
  8  9  2  0
  9 10  1  0
 10 11  1  0
 11 12  1  0
 12 13  1  0
 13 14  1  0
  7 15  1  0
  9  3  1  0
 12 10  1  0
  1 17  1  0
  1 18  1  0
  1 19  1  0
  4 20  1  0
  8 21  1  0
 10 22  1  0
 11 23  1  0
 11 24  1  0
 12 25  1  0
 13 26  1  0
 13 27  1  0
 14 28  1  0
 14 29  1  0
 16 30  1  0
M  END
>  <Ligand ID>  (1) 
LIG0004786

>  <Ligand>  (1) 
CHEMBL3769543

>  <SMILES>  (1) 
COc1cc(Cl)c(cc1C1CC1CN)Cl.Cl

>  <CID>  (1) 
127028100.0

>  <ChEMBL ID>  (1) 
nan

>  <InChiKey>  (1) 
YHHAEGAFEUZTKY-UHFFFAOYSA-N

>  <InChi>  (1) 
InChI=1S/C11H13Cl2NO.ClH/c1-15-11-4-10(13)9(12)3-8(11)7-2-6(7)5-14;/h3-4,6-7H,2,5,14H2,1H3;1H

>  <IUPAC Name>  (1) 
[2-(4,5-dichloro-2-methoxyphenyl)cyclopropyl]methanamine;hydrochloride

$$$$
