
     RDKit          3D

 75 81  0  0  0  0  0  0  0  0999 V2000
   -3.0051    2.2214    1.8669 C   0  0  0  0  0  0  0  0  0  0  0  0
   -2.7421    2.2915    0.5275 O   0  0  0  0  0  0  0  0  0  0  0  0
   -1.5606    1.6451    0.1595 C   0  0  2  0  0  0  0  0  0  0  0  0
   -1.2194    2.0281   -1.2357 C   0  0  0  0  0  0  0  0  0  0  0  0
    0.0624    1.3795   -1.7123 C   0  0  0  0  0  0  0  0  0  0  0  0
    0.5635    0.5299   -0.5725 C   0  0  2  0  0  0  0  0  0  0  0  0
   -0.4443   -0.5215   -0.2308 C   0  0  0  0  0  0  0  0  0  0  0  0
   -1.7163    0.1113    0.3230 C   0  0  2  0  0  0  0  0  0  0  0  0
   -2.9535   -0.4698   -0.2253 C   0  0  1  0  0  0  0  0  0  0  0  0
   -3.1123   -1.9493    0.0659 C   0  0  0  0  0  0  0  0  0  0  0  0
   -3.0962   -2.2089    1.5607 C   0  0  0  0  0  0  0  0  0  0  0  0
   -4.5342   -2.3496   -0.4456 C   0  0  0  0  0  0  0  0  0  0  0  0
   -2.2013   -2.9107   -0.5912 C   0  0  0  0  0  0  0  0  0  0  0  0
   -4.0672    0.1454    0.3265 O   0  0  0  0  0  0  0  0  0  0  0  0
   -3.1536   -0.3002   -1.7237 C   0  0  0  0  0  0  0  0  0  0  0  0
    0.8115    1.3603    0.6712 C   0  0  2  0  0  0  0  0  0  0  0  0
   -0.4551    1.9966    1.1315 C   0  0  1  0  0  0  0  0  0  0  0  0
   -0.2074    3.4029    1.1196 O   0  0  0  0  0  0  0  0  0  0  0  0
    0.9529    3.7051    0.4341 C   0  0  0  0  0  0  0  0  0  0  0  0
    1.5536    2.5340    0.1309 C   0  0  0  0  0  0  0  0  0  0  0  0
    2.7064    2.3006   -0.5437 C   0  0  0  0  0  0  0  0  0  0  0  0
    3.0784    0.8949   -0.7904 C   0  0  0  0  0  0  0  0  0  0  0  0
    1.9030   -0.0564   -0.9119 C   0  0  1  0  0  0  0  0  0  0  0  0
    2.0490   -1.1588    0.0564 N   0  0  0  0  0  0  0  0  0  0  0  0
    2.2757   -0.6125    1.3505 C   0  0  0  0  0  0  0  0  0  0  0  0
    1.5334    0.6093    1.7102 C   0  0  0  0  0  0  0  0  0  0  0  0
    3.1563   -1.9416   -0.4207 C   0  0  0  0  0  0  0  0  0  0  0  0
    3.4908   -3.1295    0.4176 C   0  0  0  0  0  0  0  0  0  0  0  0
    4.6809   -3.9248   -0.1427 C   0  0  0  0  0  0  0  0  0  0  0  0
    3.3265   -4.5223   -0.0146 C   0  0  0  0  0  0  0  0  0  0  0  0
    3.3813    3.4181   -0.9875 C   0  0  0  0  0  0  0  0  0  0  0  0
    2.8392    4.6828   -0.7181 C   0  0  0  0  0  0  0  0  0  0  0  0
    1.6366    4.8393   -0.0153 C   0  0  0  0  0  0  0  0  0  0  0  0
    1.0900    6.0787    0.2565 O   0  0  0  0  0  0  0  0  0  0  0  0
   -3.0788    1.2642    2.3529 H   0  0  0  0  0  0  0  0  0  0  0  0
   -4.0338    2.6937    1.9907 H   0  0  0  0  0  0  0  0  0  0  0  0
   -2.3366    2.9425    2.4076 H   0  0  0  0  0  0  0  0  0  0  0  0
   -2.0340    2.0125   -1.9465 H   0  0  0  0  0  0  0  0  0  0  0  0
   -0.9293    3.1392   -1.1586 H   0  0  0  0  0  0  0  0  0  0  0  0
    0.8243    2.0845   -2.0668 H   0  0  0  0  0  0  0  0  0  0  0  0
   -0.1648    0.7147   -2.5590 H   0  0  0  0  0  0  0  0  0  0  0  0
    0.0239   -1.1982    0.5058 H   0  0  0  0  0  0  0  0  0  0  0  0
   -0.6677   -1.1448   -1.1288 H   0  0  0  0  0  0  0  0  0  0  0  0
   -1.7091   -0.0411    1.4177 H   0  0  0  0  0  0  0  0  0  0  0  0
   -3.2803   -1.3378    2.1813 H   0  0  0  0  0  0  0  0  0  0  0  0
   -2.1262   -2.6958    1.8642 H   0  0  0  0  0  0  0  0  0  0  0  0
   -3.8650   -2.9776    1.7690 H   0  0  0  0  0  0  0  0  0  0  0  0
   -5.1496   -1.4777   -0.6470 H   0  0  0  0  0  0  0  0  0  0  0  0
   -5.0159   -2.9809    0.3257 H   0  0  0  0  0  0  0  0  0  0  0  0
   -4.4622   -2.9575   -1.3665 H   0  0  0  0  0  0  0  0  0  0  0  0
   -2.7358   -3.9288   -0.4761 H   0  0  0  0  0  0  0  0  0  0  0  0
   -1.2474   -3.1165   -0.0662 H   0  0  0  0  0  0  0  0  0  0  0  0
   -2.1202   -2.8374   -1.6955 H   0  0  0  0  0  0  0  0  0  0  0  0
   -4.5808   -0.3710    0.9602 H   0  0  0  0  0  0  0  0  0  0  0  0
   -2.2710   -0.2855   -2.3291 H   0  0  0  0  0  0  0  0  0  0  0  0
   -3.8172    0.5431   -1.9809 H   0  0  0  0  0  0  0  0  0  0  0  0
   -3.7432   -1.2063   -2.0800 H   0  0  0  0  0  0  0  0  0  0  0  0
   -0.7437    1.6964    2.1653 H   0  0  0  0  0  0  0  0  0  0  0  0
    3.8133    0.5993   -0.0238 H   0  0  0  0  0  0  0  0  0  0  0  0
    3.6489    0.8077   -1.7627 H   0  0  0  0  0  0  0  0  0  0  0  0
    1.8385   -0.5200   -1.9112 H   0  0  0  0  0  0  0  0  0  0  0  0
    1.9389   -1.4195    2.0780 H   0  0  0  0  0  0  0  0  0  0  0  0
    3.3815   -0.5434    1.5970 H   0  0  0  0  0  0  0  0  0  0  0  0
    2.2979    1.3276    2.1498 H   0  0  0  0  0  0  0  0  0  0  0  0
    0.8425    0.4572    2.6022 H   0  0  0  0  0  0  0  0  0  0  0  0
    4.0695   -1.3389   -0.6140 H   0  0  0  0  0  0  0  0  0  0  0  0
    2.8470   -2.3225   -1.4356 H   0  0  0  0  0  0  0  0  0  0  0  0
    3.5859   -2.9168    1.5036 H   0  0  0  0  0  0  0  0  0  0  0  0
    5.5088   -4.1633    0.5363 H   0  0  0  0  0  0  0  0  0  0  0  0
    5.0129   -3.7337   -1.1769 H   0  0  0  0  0  0  0  0  0  0  0  0
    2.7541   -4.8151   -0.9147 H   0  0  0  0  0  0  0  0  0  0  0  0
    3.2495   -5.2834    0.7945 H   0  0  0  0  0  0  0  0  0  0  0  0
    4.2995    3.2776   -1.5247 H   0  0  0  0  0  0  0  0  0  0  0  0
    3.3701    5.5728   -1.0665 H   0  0  0  0  0  0  0  0  0  0  0  0
    0.1830    6.3615   -0.0974 H   0  0  0  0  0  0  0  0  0  0  0  0
  1  2  1  0
  3  2  1  1
  3  4  1  0
  4  5  1  0
  6  5  1  6
  6  7  1  0
  7  8  1  0
  8  9  1  0
  9 10  1  0
 10 11  1  0
 10 12  1  0
 10 13  1  0
  9 14  1  1
  9 15  1  0
  6 16  1  0
 16 17  1  0
 17 18  1  0
 18 19  1  0
 19 20  2  0
 20 21  1  0
 21 22  1  0
 22 23  1  0
 23 24  1  0
 24 25  1  0
 25 26  1  0
 24 27  1  0
 27 28  1  0
 28 29  1  0
 29 30  1  0
 21 31  2  0
 31 32  1  0
 32 33  2  0
 33 34  1  0
  8  3  1  0
 16 26  1  1
 30 28  1  0
 17  3  1  0
 33 19  1  0
 23  6  1  0
 20 16  1  0
  1 35  1  0
  1 36  1  0
  1 37  1  0
  4 38  1  0
  4 39  1  0
  5 40  1  0
  5 41  1  0
  7 42  1  0
  7 43  1  0
  8 44  1  1
 11 45  1  0
 11 46  1  0
 11 47  1  0
 12 48  1  0
 12 49  1  0
 12 50  1  0
 13 51  1  0
 13 52  1  0
 13 53  1  0
 14 54  1  0
 15 55  1  0
 15 56  1  0
 15 57  1  0
 17 58  1  1
 22 59  1  0
 22 60  1  0
 23 61  1  6
 25 62  1  0
 25 63  1  0
 26 64  1  0
 26 65  1  0
 27 66  1  0
 27 67  1  0
 28 68  1  0
 29 69  1  0
 29 70  1  0
 30 71  1  0
 30 72  1  0
 31 73  1  0
 32 74  1  0
 34 75  1  0
M  END
>  <Ligand ID>  (1) 
LIG0000792

>  <Ligand>  (1) 
buprenorphine

>  <SMILES>  (1) 
CO[C@]12CC[C@]3(C[C@@H]1[C@@](C(C)(C)C)(O)C)[C@@]14[C@H]2Oc2c4c(C[C@H]3N(CC1)CC1CC1)ccc2O

>  <CID>  (1) 
644073.0

>  <ChEMBL ID>  (1) 
nan

>  <InChiKey>  (1) 
RMRJXGBAOAMLHD-IHFGGWKQSA-N

>  <InChi>  (1) 
InChI=1S/C29H41NO4/c1-25(2,3)26(4,32)20-15-27-10-11-29(20,33-5)24-28(27)12-13-30(16-17-6-7-17)21(27)14-18-8-9-19(31)23(34-24)22(18)28/h8-9,17,20-21,24,31-32H,6-7,10-16H2,1-5H3/t20-,21-,24-,26+,27-,28+,29-/m1/s1

>  <IUPAC Name>  (1) 
(1S,2S,6R,14R,15R,16R)-5-(cyclopropylmethyl)-16-[(2S)-2-hydroxy-3,3-dimethylbutan-2-yl]-15-methoxy-13-oxa-5-azahexacyclo[13.2.2.12,8.01,6.02,14.012,20]icosa-8(20),9,11-trien-11-ol

$$$$
