
     RDKit          3D

 45 49  0  0  0  0  0  0  0  0999 V2000
    2.9384    1.8520   -0.9828 O   0  0  0  0  0  0  0  0  0  0  0  0
    2.2226    0.9076   -0.5578 C   0  0  0  0  0  0  0  0  0  0  0  0
    2.5710   -0.2299    0.2138 N   0  0  0  0  0  0  0  0  0  0  0  0
    3.9138   -0.5774    0.5935 C   0  0  0  0  0  0  0  0  0  0  0  0
    4.4850   -0.1253    1.7656 C   0  0  0  0  0  0  0  0  0  0  0  0
    5.7969   -0.5030    2.0722 C   0  0  0  0  0  0  0  0  0  0  0  0
    6.5286   -1.3200    1.2221 C   0  0  0  0  0  0  0  0  0  0  0  0
    5.9521   -1.7750    0.0412 C   0  0  0  0  0  0  0  0  0  0  0  0
    4.6567   -1.3936   -0.2475 C   0  0  0  0  0  0  0  0  0  0  0  0
    6.8380   -2.8133   -1.0709 Cl  0  0  0  0  0  0  0  0  0  0  0  0
    8.1722   -1.8113    1.5758 Cl  0  0  0  0  0  0  0  0  0  0  0  0
    1.4043   -0.9826    0.5617 C   0  0  0  0  0  0  0  0  0  0  0  0
    1.2495   -1.7442    1.5462 O   0  0  0  0  0  0  0  0  0  0  0  0
    0.4084   -0.6540   -0.5184 C   0  0  0  0  0  0  0  0  0  0  0  0
    0.7620    0.7981   -0.8040 C   0  0  0  0  0  0  0  0  0  0  0  0
    0.1593    1.4929    0.2410 O   0  0  0  0  0  0  0  0  0  0  0  0
   -1.0859    0.9054    0.2572 N   0  0  0  0  0  0  0  0  0  0  0  0
   -0.9895   -0.4902    0.0106 C   0  0  0  0  0  0  0  0  0  0  0  0
   -2.0124   -1.0852   -0.8511 C   0  0  0  0  0  0  0  0  0  0  0  0
   -2.6338   -2.3108   -0.5759 C   0  0  0  0  0  0  0  0  0  0  0  0
   -3.5942   -2.8156   -1.4370 C   0  0  0  0  0  0  0  0  0  0  0  0
   -3.9478   -2.1175   -2.5725 C   0  0  0  0  0  0  0  0  0  0  0  0
   -3.3438   -0.9596   -2.8090 N   0  0  0  0  0  0  0  0  0  0  0  0
   -2.4011   -0.4265   -1.9985 C   0  0  0  0  0  0  0  0  0  0  0  0
   -2.2468    1.7129    0.5023 C   0  0  0  0  0  0  0  0  0  0  0  0
   -3.5112    1.1772    0.6266 C   0  0  0  0  0  0  0  0  0  0  0  0
   -4.6381    1.9462    0.8591 C   0  0  0  0  0  0  0  0  0  0  0  0
   -4.5185    3.3153    0.9762 C   0  0  0  0  0  0  0  0  0  0  0  0
   -3.2695    3.8880    0.8578 C   0  0  0  0  0  0  0  0  0  0  0  0
   -2.1630    3.0966    0.6259 C   0  0  0  0  0  0  0  0  0  0  0  0
    3.9231    0.5121    2.4353 H   0  0  0  0  0  0  0  0  0  0  0  0
    6.2774   -0.1635    2.9896 H   0  0  0  0  0  0  0  0  0  0  0  0
    4.1615   -1.7310   -1.1716 H   0  0  0  0  0  0  0  0  0  0  0  0
    0.5085   -1.3037   -1.3891 H   0  0  0  0  0  0  0  0  0  0  0  0
    0.4988    1.1356   -1.8027 H   0  0  0  0  0  0  0  0  0  0  0  0
   -0.9873   -0.9911    1.0238 H   0  0  0  0  0  0  0  0  0  0  0  0
   -2.3324   -2.8451    0.3355 H   0  0  0  0  0  0  0  0  0  0  0  0
   -4.0587   -3.7573   -1.2078 H   0  0  0  0  0  0  0  0  0  0  0  0
   -4.6960   -2.5111   -3.2430 H   0  0  0  0  0  0  0  0  0  0  0  0
   -1.9378    0.5349   -2.2478 H   0  0  0  0  0  0  0  0  0  0  0  0
   -3.6690    0.1143    0.5474 H   0  0  0  0  0  0  0  0  0  0  0  0
   -5.6290    1.5263    0.9564 H   0  0  0  0  0  0  0  0  0  0  0  0
   -5.3603    3.9713    1.1579 H   0  0  0  0  0  0  0  0  0  0  0  0
   -3.1849    4.9654    0.9513 H   0  0  0  0  0  0  0  0  0  0  0  0
   -1.2171    3.5859    0.5417 H   0  0  0  0  0  0  0  0  0  0  0  0
  1  2  2  0
  2  3  1  0
  3  4  1  0
  4  5  2  0
  5  6  1  0
  6  7  2  0
  7  8  1  0
  8  9  2  0
  8 10  1  0
  7 11  1  0
  3 12  1  0
 12 13  2  0
 12 14  1  0
 14 15  1  0
 15 16  1  0
 16 17  1  0
 17 18  1  0
 18 19  1  0
 19 20  2  0
 20 21  1  0
 21 22  2  0
 22 23  1  0
 23 24  2  0
 17 25  1  0
 25 26  2  0
 26 27  1  0
 27 28  2  0
 28 29  1  0
 29 30  2  0
 15  2  1  0
 24 19  1  0
 30 25  1  0
  9  4  1  0
 18 14  1  0
  5 31  1  0
  6 32  1  0
  9 33  1  0
 14 34  1  0
 15 35  1  0
 18 36  1  0
 20 37  1  0
 21 38  1  0
 22 39  1  0
 24 40  1  0
 26 41  1  0
 27 42  1  0
 28 43  1  0
 29 44  1  0
 30 45  1  0
M  END
>  <Ligand ID>  (1) 
LIG0002715

>  <Ligand>  (1) 
SMR000043167

>  <SMILES>  (1) 
O=C1N(c2ccc(c(c2)Cl)Cl)C(=O)C2C1ON(C2c1cccnc1)c1ccccc1

>  <CID>  (1) 
662584.0

>  <ChEMBL ID>  (1) 
nan

>  <InChiKey>  (1) 
FYHTYUXWMHZIRA-UHFFFAOYSA-N

>  <InChi>  (1) 
InChI=1S/C22H15Cl2N3O3/c23-16-9-8-15(11-17(16)24)26-21(28)18-19(13-5-4-10-25-12-13)27(30-20(18)22(26)29)14-6-2-1-3-7-14/h1-12,18-20H

>  <IUPAC Name>  (1) 
5-(3,4-dichlorophenyl)-2-phenyl-3-pyridin-3-yl-3a,6a-dihydro-3H-pyrrolo[3,4-d][1,2]oxazole-4,6-dione

$$$$
