
     RDKit          3D

 42 43  0  0  0  0  0  0  0  0999 V2000
    1.2827   -1.3842   -0.6750 O   0  0  0  0  0  0  0  0  0  0  0  0
    1.6500   -0.6791    0.3136 C   0  0  0  0  0  0  0  0  0  0  0  0
    0.8075   -0.4111    1.4280 N   0  0  0  0  0  0  0  0  0  0  0  0
   -0.5527   -0.9007    1.5344 C   0  0  0  0  0  0  0  0  0  0  0  0
   -0.6606   -2.3008    2.0414 C   0  0  0  0  0  0  0  0  0  0  0  0
    0.2227   -3.4359    0.9504 Cl  0  0  0  0  0  0  0  0  0  0  0  0
    0.0673   -2.4847    3.6538 Cl  0  0  0  0  0  0  0  0  0  0  0  0
   -2.3121   -2.9216    2.1388 Cl  0  0  0  0  0  0  0  0  0  0  0  0
   -1.3419   -0.6167    0.3533 N   0  0  0  0  0  0  0  0  0  0  0  0
   -2.7371   -0.3733    0.3627 C   0  0  0  0  0  0  0  0  0  0  0  0
   -3.6261   -0.3247    1.7514 S   0  0  0  0  0  0  0  0  0  0  0  0
   -3.4711   -0.1027   -0.8617 N   0  0  0  0  0  0  0  0  0  0  0  0
   -4.8817    0.1320   -0.8146 C   0  0  0  0  0  0  0  0  0  0  0  0
   -5.3199    1.3368   -0.2512 C   0  0  0  0  0  0  0  0  0  0  0  0
   -4.1752    2.5137    0.3786 Cl  0  0  0  0  0  0  0  0  0  0  0  0
   -6.6572    1.6266   -0.1701 C   0  0  0  0  0  0  0  0  0  0  0  0
   -7.5951    0.7339   -0.6436 C   0  0  0  0  0  0  0  0  0  0  0  0
   -7.1683   -0.4589   -1.2023 C   0  0  0  0  0  0  0  0  0  0  0  0
   -5.8075   -0.7719   -1.2935 C   0  0  0  0  0  0  0  0  0  0  0  0
   -5.2676   -2.2901   -2.0107 Cl  0  0  0  0  0  0  0  0  0  0  0  0
    2.9201   -0.1689    0.2696 O   0  0  0  0  0  0  0  0  0  0  0  0
    3.8368   -0.3909   -0.7822 C   0  0  0  0  0  0  0  0  0  0  0  0
    5.1145    0.3554   -0.5160 C   0  0  0  0  0  0  0  0  0  0  0  0
    6.1294   -0.1678    0.2516 C   0  0  0  0  0  0  0  0  0  0  0  0
    7.2508    0.6275    0.4114 C   0  0  0  0  0  0  0  0  0  0  0  0
    7.3497    1.8885   -0.1706 C   0  0  0  0  0  0  0  0  0  0  0  0
    6.3213    2.4017   -0.9388 C   0  0  0  0  0  0  0  0  0  0  0  0
    5.2100    1.6026   -1.0915 C   0  0  0  0  0  0  0  0  0  0  0  0
    1.2472    0.1815    2.1937 H   0  0  0  0  0  0  0  0  0  0  0  0
   -1.0087   -0.2355    2.3594 H   0  0  0  0  0  0  0  0  0  0  0  0
   -0.8712   -0.5799   -0.5761 H   0  0  0  0  0  0  0  0  0  0  0  0
   -2.9707   -0.0811   -1.7909 H   0  0  0  0  0  0  0  0  0  0  0  0
   -7.0558    2.5472    0.2589 H   0  0  0  0  0  0  0  0  0  0  0  0
   -8.6591    0.9028   -0.6100 H   0  0  0  0  0  0  0  0  0  0  0  0
   -7.8920   -1.1566   -1.5732 H   0  0  0  0  0  0  0  0  0  0  0  0
    4.1151   -1.4868   -0.8051 H   0  0  0  0  0  0  0  0  0  0  0  0
    3.4486   -0.1605   -1.7725 H   0  0  0  0  0  0  0  0  0  0  0  0
    6.0200   -1.1455    0.6876 H   0  0  0  0  0  0  0  0  0  0  0  0
    8.0765    0.2820    1.0016 H   0  0  0  0  0  0  0  0  0  0  0  0
    8.2166    2.5146   -0.0496 H   0  0  0  0  0  0  0  0  0  0  0  0
    6.3534    3.3685   -1.4084 H   0  0  0  0  0  0  0  0  0  0  0  0
    4.3916    2.0150   -1.7081 H   0  0  0  0  0  0  0  0  0  0  0  0
  1  2  2  0
  2  3  1  0
  3  4  1  0
  4  5  1  0
  5  6  1  0
  5  7  1  0
  5  8  1  0
  4  9  1  0
  9 10  1  0
 10 11  2  0
 10 12  1  0
 12 13  1  0
 13 14  2  0
 14 15  1  0
 14 16  1  0
 16 17  2  0
 17 18  1  0
 18 19  2  0
 19 20  1  0
  2 21  1  0
 21 22  1  0
 22 23  1  0
 23 24  2  0
 24 25  1  0
 25 26  2  0
 26 27  1  0
 27 28  2  0
 19 13  1  0
 28 23  1  0
  3 29  1  0
  4 30  1  0
  9 31  1  0
 12 32  1  0
 16 33  1  0
 17 34  1  0
 18 35  1  0
 22 36  1  0
 22 37  1  0
 24 38  1  0
 25 39  1  0
 26 40  1  0
 27 41  1  0
 28 42  1  0
M  END
>  <Ligand ID>  (1) 
LIG0002696

>  <Ligand>  (1) 
MLS000561692

>  <SMILES>  (1) 
O=C(NC(C(Cl)(Cl)Cl)NC(=S)Nc1c(Cl)cccc1Cl)OCc1ccccc1

>  <CID>  (1) 
3091265.0

>  <ChEMBL ID>  (1) 
nan

>  <InChiKey>  (1) 
RETLJHJSLJBNPL-UHFFFAOYSA-N

>  <InChi>  (1) 
InChI=1S/C17H14Cl5N3O2S/c18-11-7-4-8-12(19)13(11)23-15(28)24-14(17(20,21)22)25-16(26)27-9-10-5-2-1-3-6-10/h1-8,14H,9H2,(H,25,26)(H2,23,24,28)

>  <IUPAC Name>  (1) 
benzyl N-[2,2,2-trichloro-1-[(2,6-dichlorophenyl)carbamothioylamino]ethyl]carbamate

$$$$
