
     RDKit          3D

 80 79  0  0  0  0  0  0  0  0999 V2000
  -10.2522   -1.1824   -0.1916 C   0  0  0  0  0  0  0  0  0  0  0  0
   -9.1991   -1.2578    0.8925 C   0  0  0  0  0  0  0  0  0  0  0  0
   -7.9986   -1.9613    0.3513 C   0  0  0  0  0  0  0  0  0  0  0  0
   -7.4566   -1.1940   -0.8415 C   0  0  0  0  0  0  0  0  0  0  0  0
   -6.2460   -1.9821   -1.3160 C   0  0  0  0  0  0  0  0  0  0  0  0
   -5.6338   -1.3281   -2.4992 C   0  0  0  0  0  0  0  0  0  0  0  0
   -5.1822    0.0578   -2.2595 C   0  0  0  0  0  0  0  0  0  0  0  0
   -4.1040    0.3273   -1.2844 C   0  0  0  0  0  0  0  0  0  0  0  0
   -4.2915   -0.0445    0.1043 C   0  0  0  0  0  0  0  0  0  0  0  0
   -3.5203   -0.8609    0.8225 C   0  0  0  0  0  0  0  0  0  0  0  0
   -2.3222   -1.5493    0.3440 C   0  0  0  0  0  0  0  0  0  0  0  0
   -1.1459   -1.0779    1.2091 C   0  0  0  0  0  0  0  0  0  0  0  0
   -1.0094    0.4019    1.0427 C   0  0  0  0  0  0  0  0  0  0  0  0
    0.1097    0.9604    1.8479 C   0  0  0  0  0  0  0  0  0  0  0  0
    1.4562    0.4032    1.5140 C   0  0  0  0  0  0  0  0  0  0  0  0
    1.9152    0.5992    0.1185 C   0  0  0  0  0  0  0  0  0  0  0  0
    2.0068    2.0419   -0.2444 C   0  0  0  0  0  0  0  0  0  0  0  0
    2.9428    2.8208    0.5727 C   0  0  0  0  0  0  0  0  0  0  0  0
    2.7366    2.9701    1.7807 O   0  0  0  0  0  0  0  0  0  0  0  0
    4.0416    3.3802   -0.0085 O   0  0  0  0  0  0  0  0  0  0  0  0
    5.0426    4.1506    0.5756 C   0  0  0  0  0  0  0  0  0  0  0  0
    5.8440    3.4958    1.6581 C   0  0  2  0  0  0  0  0  0  0  0  0
    6.5845    2.2646    1.2355 C   0  0  0  0  0  0  0  0  0  0  0  0
    7.5068    2.4561    0.2222 O   0  0  0  0  0  0  0  0  0  0  0  0
    8.6950    1.2870    0.1474 P   0  0  0  0  0  0  0  0  0  0  0  0
    9.9527    1.8456   -0.5286 O   0  0  0  0  0  0  0  0  0  0  0  0
    8.2788   -0.1122   -0.6482 O   0  0  0  0  0  0  0  0  0  0  0  0
    7.0060   -0.5768   -0.4350 C   0  0  0  0  0  0  0  0  0  0  0  0
    6.8972   -1.9525   -1.0899 C   0  0  1  0  0  0  0  0  0  0  0  0
    5.5326   -2.5228   -0.8331 C   0  0  0  0  0  0  0  0  0  0  0  0
    4.8068   -2.8925   -1.8197 O   0  0  0  0  0  0  0  0  0  0  0  0
    5.0277   -2.6635    0.4497 O   0  0  0  0  0  0  0  0  0  0  0  0
    7.1487   -1.9100   -2.5071 N   0  0  0  0  0  0  0  0  0  0  0  0
    9.2125    0.8461    1.7161 O   0  0  0  0  0  0  0  0  0  0  0  0
    5.0643    3.1401    2.7399 F   0  0  0  0  0  0  0  0  0  0  0  0
  -11.2702   -1.3200    0.2206 H   0  0  0  0  0  0  0  0  0  0  0  0
  -10.0831   -1.9405   -0.9825 H   0  0  0  0  0  0  0  0  0  0  0  0
  -10.2313   -0.1458   -0.6313 H   0  0  0  0  0  0  0  0  0  0  0  0
   -8.9380   -0.2444    1.2188 H   0  0  0  0  0  0  0  0  0  0  0  0
   -9.6535   -1.8563    1.7291 H   0  0  0  0  0  0  0  0  0  0  0  0
   -8.2572   -2.9710   -0.0229 H   0  0  0  0  0  0  0  0  0  0  0  0
   -7.2092   -1.9880    1.1109 H   0  0  0  0  0  0  0  0  0  0  0  0
   -7.1720   -0.1867   -0.5084 H   0  0  0  0  0  0  0  0  0  0  0  0
   -8.2194   -1.1729   -1.6451 H   0  0  0  0  0  0  0  0  0  0  0  0
   -6.5666   -3.0411   -1.5604 H   0  0  0  0  0  0  0  0  0  0  0  0
   -5.5269   -2.0914   -0.5067 H   0  0  0  0  0  0  0  0  0  0  0  0
   -4.7895   -1.9828   -2.8711 H   0  0  0  0  0  0  0  0  0  0  0  0
   -6.3633   -1.3645   -3.3734 H   0  0  0  0  0  0  0  0  0  0  0  0
   -6.0622    0.7222   -1.9437 H   0  0  0  0  0  0  0  0  0  0  0  0
   -4.9160    0.5057   -3.2788 H   0  0  0  0  0  0  0  0  0  0  0  0
   -3.9920    1.4730   -1.2782 H   0  0  0  0  0  0  0  0  0  0  0  0
   -3.0882    0.0187   -1.6798 H   0  0  0  0  0  0  0  0  0  0  0  0
   -5.1564    0.3817    0.6389 H   0  0  0  0  0  0  0  0  0  0  0  0
   -3.7989   -1.0407    1.8799 H   0  0  0  0  0  0  0  0  0  0  0  0
   -2.3612   -2.6553    0.5095 H   0  0  0  0  0  0  0  0  0  0  0  0
   -2.0204   -1.3577   -0.6847 H   0  0  0  0  0  0  0  0  0  0  0  0
   -1.4611   -1.2848    2.2652 H   0  0  0  0  0  0  0  0  0  0  0  0
   -0.2828   -1.6751    0.9126 H   0  0  0  0  0  0  0  0  0  0  0  0
   -0.9725    0.6676   -0.0283 H   0  0  0  0  0  0  0  0  0  0  0  0
   -1.9538    0.8668    1.4235 H   0  0  0  0  0  0  0  0  0  0  0  0
   -0.1025    0.7379    2.9305 H   0  0  0  0  0  0  0  0  0  0  0  0
    0.1566    2.0638    1.7926 H   0  0  0  0  0  0  0  0  0  0  0  0
    1.4166   -0.7151    1.7268 H   0  0  0  0  0  0  0  0  0  0  0  0
    2.2325    0.7618    2.2175 H   0  0  0  0  0  0  0  0  0  0  0  0
    1.3719   -0.0112   -0.6289 H   0  0  0  0  0  0  0  0  0  0  0  0
    2.9718    0.1964    0.0743 H   0  0  0  0  0  0  0  0  0  0  0  0
    1.0047    2.5627   -0.1291 H   0  0  0  0  0  0  0  0  0  0  0  0
    2.2905    2.1461   -1.3335 H   0  0  0  0  0  0  0  0  0  0  0  0
    5.7858    4.3522   -0.2595 H   0  0  0  0  0  0  0  0  0  0  0  0
    4.6331    5.1407    0.9227 H   0  0  0  0  0  0  0  0  0  0  0  0
    6.5803    4.2452    2.0987 H   0  0  0  0  0  0  0  0  0  0  0  0
    5.8049    1.5798    0.7887 H   0  0  0  0  0  0  0  0  0  0  0  0
    6.9627    1.7476    2.1168 H   0  0  0  0  0  0  0  0  0  0  0  0
    6.3072    0.0853   -1.0265 H   0  0  0  0  0  0  0  0  0  0  0  0
    6.6880   -0.6129    0.6094 H   0  0  0  0  0  0  0  0  0  0  0  0
    7.6776   -2.6025   -0.6175 H   0  0  0  0  0  0  0  0  0  0  0  0
    4.2635   -3.2881    0.6907 H   0  0  0  0  0  0  0  0  0  0  0  0
    6.9001   -0.9852   -2.9313 H   0  0  0  0  0  0  0  0  0  0  0  0
    8.0898   -2.2203   -2.7913 H   0  0  0  0  0  0  0  0  0  0  0  0
    9.8631    0.1188    1.6779 H   0  0  0  0  0  0  0  0  0  0  0  0
  1  2  1  0
  2  3  1  0
  3  4  1  0
  4  5  1  0
  5  6  1  0
  6  7  1  0
  7  8  1  0
  8  9  1  0
  9 10  2  0
 10 11  1  0
 11 12  1  0
 12 13  1  0
 13 14  1  0
 14 15  1  0
 15 16  1  0
 16 17  1  0
 17 18  1  0
 18 19  2  0
 18 20  1  0
 20 21  1  0
 21 22  1  0
 22 23  1  0
 23 24  1  0
 24 25  1  0
 25 26  2  0
 25 27  1  0
 27 28  1  0
 28 29  1  0
 29 30  1  0
 30 31  2  0
 30 32  1  0
 29 33  1  0
 25 34  1  0
 22 35  1  0
  1 36  1  0
  1 37  1  0
  1 38  1  0
  2 39  1  0
  2 40  1  0
  3 41  1  0
  3 42  1  0
  4 43  1  0
  4 44  1  0
  5 45  1  0
  5 46  1  0
  6 47  1  0
  6 48  1  0
  7 49  1  0
  7 50  1  0
  8 51  1  0
  8 52  1  0
  9 53  1  0
 10 54  1  0
 11 55  1  0
 11 56  1  0
 12 57  1  0
 12 58  1  0
 13 59  1  0
 13 60  1  0
 14 61  1  0
 14 62  1  0
 15 63  1  0
 15 64  1  0
 16 65  1  0
 16 66  1  0
 17 67  1  0
 17 68  1  0
 21 69  1  0
 21 70  1  0
 22 71  1  1
 23 72  1  0
 23 73  1  0
 28 74  1  0
 28 75  1  0
 29 76  1  1
 32 77  1  0
 33 78  1  0
 33 79  1  0
 34 80  1  0
M  END
>  <Ligand ID>  (1) 
LIG0004227

>  <Ligand>  (1) 
CHEMBL3577141

>  <SMILES>  (1) 
CCCCCCCC/C=C\CCCCCCCC(=O)OC[C@H](COP(=O)(OC[C@@H](C(=O)O)N)O)F

>  <CID>  (1) 
122177493.0

>  <ChEMBL ID>  (1) 
nan

>  <InChiKey>  (1) 
DXUUBZLPNHDDHL-YFKVPUFHSA-N

>  <InChi>  (1) 
InChI=1S/C24H45FNO8P/c1-2-3-4-5-6-7-8-9-10-11-12-13-14-15-16-17-23(27)32-18-21(25)19-33-35(30,31)34-20-22(26)24(28)29/h9-10,21-22H,2-8,11-20,26H2,1H3,(H,28,29)(H,30,31)/b10-9-/t21-,22+/m1/s1

>  <IUPAC Name>  (1) 
(2S)-2-amino-3-[[(2R)-2-fluoro-3-[(Z)-octadec-9-enoyl]oxypropoxy]-hydroxyphosphoryl]oxypropanoic acid

$$$$
