
     RDKit          3D

 38 39  0  0  0  0  0  0  0  0999 V2000
   -3.4745    2.1284    2.0604 O   0  0  0  0  0  0  0  0  0  0  0  0
   -2.6717    1.4863    1.3611 C   0  0  0  0  0  0  0  0  0  0  0  0
   -2.9524    0.0862    1.0458 C   0  0  0  0  0  0  0  0  0  0  0  0
   -1.8034   -0.6930    0.4962 C   0  0  1  0  0  0  0  0  0  0  0  0
   -2.4442   -1.8345   -0.2933 C   0  0  0  0  0  0  0  0  0  0  0  0
   -0.8196    0.0717   -0.3310 C   0  0  1  0  0  0  0  0  0  0  0  0
   -0.6283    1.4652    0.0897 C   0  0  0  0  0  0  0  0  0  0  0  0
   -1.4636    2.1383    0.8664 C   0  0  0  0  0  0  0  0  0  0  0  0
    0.6163    2.1578   -0.4117 C   0  0  0  0  0  0  0  0  0  0  0  0
    1.6922    1.3252    0.2631 C   0  0  0  0  0  0  0  0  0  0  0  0
    1.7002    0.0426   -0.5448 C   0  0  2  0  0  0  0  0  0  0  0  0
    0.4230   -0.7305   -0.4671 C   0  0  0  0  0  0  0  0  0  0  0  0
    2.8707   -0.7352   -0.0521 C   0  0  0  0  0  0  0  0  0  0  0  0
    3.8921   -0.9843   -0.8634 C   0  0  0  0  0  0  0  0  0  0  0  0
    2.9036   -1.2362    1.3459 C   0  0  0  0  0  0  0  0  0  0  0  0
   -1.4393    0.1630   -1.7291 C   0  0  0  0  0  0  0  0  0  0  0  0
   -3.2786   -0.4542    1.9787 H   0  0  0  0  0  0  0  0  0  0  0  0
   -3.8004    0.0731    0.3212 H   0  0  0  0  0  0  0  0  0  0  0  0
   -1.2167   -1.1950    1.3122 H   0  0  0  0  0  0  0  0  0  0  0  0
   -3.1700   -1.3846   -1.0055 H   0  0  0  0  0  0  0  0  0  0  0  0
   -3.0577   -2.4028    0.4412 H   0  0  0  0  0  0  0  0  0  0  0  0
   -1.7038   -2.4903   -0.7727 H   0  0  0  0  0  0  0  0  0  0  0  0
   -1.2553    3.1808    1.1409 H   0  0  0  0  0  0  0  0  0  0  0  0
    0.7019    2.0280   -1.5189 H   0  0  0  0  0  0  0  0  0  0  0  0
    0.6565    3.2026   -0.1172 H   0  0  0  0  0  0  0  0  0  0  0  0
    2.6767    1.7752    0.2203 H   0  0  0  0  0  0  0  0  0  0  0  0
    1.4041    1.1120    1.3318 H   0  0  0  0  0  0  0  0  0  0  0  0
    1.8806    0.3557   -1.5958 H   0  0  0  0  0  0  0  0  0  0  0  0
    0.5544   -1.4881    0.3358 H   0  0  0  0  0  0  0  0  0  0  0  0
    0.4121   -1.3611   -1.4040 H   0  0  0  0  0  0  0  0  0  0  0  0
    3.8285   -0.5971   -1.8866 H   0  0  0  0  0  0  0  0  0  0  0  0
    4.7470   -1.5480   -0.5160 H   0  0  0  0  0  0  0  0  0  0  0  0
    3.6373   -0.6451    1.9668 H   0  0  0  0  0  0  0  0  0  0  0  0
    1.9167   -1.2096    1.8284 H   0  0  0  0  0  0  0  0  0  0  0  0
    3.2714   -2.2839    1.3555 H   0  0  0  0  0  0  0  0  0  0  0  0
   -0.7256    0.6933   -2.4174 H   0  0  0  0  0  0  0  0  0  0  0  0
   -2.4052    0.6699   -1.7009 H   0  0  0  0  0  0  0  0  0  0  0  0
   -1.4749   -0.8819   -2.1340 H   0  0  0  0  0  0  0  0  0  0  0  0
  1  2  2  0
  2  3  1  0
  3  4  1  0
  4  5  1  0
  4  6  1  0
  6  7  1  0
  7  8  2  0
  7  9  1  0
  9 10  1  0
 10 11  1  0
 11 12  1  0
 11 13  1  0
 13 14  2  0
 13 15  1  0
  6 16  1  6
  8  2  1  0
 12  6  1  0
  3 17  1  0
  3 18  1  0
  4 19  1  1
  5 20  1  0
  5 21  1  0
  5 22  1  0
  8 23  1  0
  9 24  1  0
  9 25  1  0
 10 26  1  0
 10 27  1  0
 11 28  1  6
 12 29  1  0
 12 30  1  0
 14 31  1  0
 14 32  1  0
 15 33  1  0
 15 34  1  0
 15 35  1  0
 16 36  1  0
 16 37  1  0
 16 38  1  0
M  END
>  <Ligand ID>  (1) 
LIG0000121

>  <Ligand>  (1) 
Nootkatone

>  <SMILES>  (1) 
O=C1C[C@@H](C)[C@]2(C(=C1)CC[C@H](C2)C(=C)C)C

>  <CID>  (1) 
1268142.0

>  <ChEMBL ID>  (1) 
nan

>  <InChiKey>  (1) 
WTOYNNBCKUYIKC-JMSVASOKSA-N

>  <InChi>  (1) 
InChI=1S/C15H22O/c1-10(2)12-5-6-13-8-14(16)7-11(3)15(13,4)9-12/h8,11-12H,1,5-7,9H2,2-4H3/t11-,12-,15+/m1/s1

>  <IUPAC Name>  (1) 
(4R,4aS,6R)-4,4a-dimethyl-6-prop-1-en-2-yl-3,4,5,6,7,8-hexahydronaphthalen-2-one

$$$$
