
     RDKit          3D

 52 53  0  0  0  0  0  0  0  0999 V2000
   -0.0809    0.1846   -0.8969 O   0  0  0  0  0  0  0  0  0  0  0  0
   -0.4165    0.2971    0.3108 C   0  0  0  0  0  0  0  0  0  0  0  0
    0.5857    0.8400    1.1865 N   0  0  0  0  0  0  0  0  0  0  0  0
    1.8811    1.2207    0.6806 C   0  0  0  0  0  0  0  0  0  0  0  0
    2.1104    1.0589   -0.5764 N   0  0  0  0  0  0  0  0  0  0  0  0
    3.3754    1.4182   -1.1339 C   0  0  0  0  0  0  0  0  0  0  0  0
    4.4134    0.4296   -0.6236 C   0  0  0  0  0  0  0  0  0  0  0  0
    5.7351    0.8408   -1.2338 C   0  0  0  0  0  0  0  0  0  0  0  0
    6.8078   -0.0763   -0.7852 C   0  0  0  0  0  0  0  0  0  0  0  0
    7.2666   -1.2437   -1.3342 C   0  0  0  0  0  0  0  0  0  0  0  0
    8.2678   -1.7124   -0.5459 N   0  0  0  0  0  0  0  0  0  0  0  0
    8.4382   -0.8674    0.4715 C   0  0  0  0  0  0  0  0  0  0  0  0
    7.5440    0.1377    0.3277 N   0  0  0  0  0  0  0  0  0  0  0  0
    2.8386    1.7547    1.5916 N   0  0  0  0  0  0  0  0  0  0  0  0
   -1.7131   -0.0731    0.8711 C   0  0  0  0  0  0  0  0  0  0  0  0
   -2.6456   -0.5947   -0.1731 C   0  0  1  0  0  0  0  0  0  0  0  0
   -3.9930   -0.9905    0.3864 C   0  0  0  0  0  0  0  0  0  0  0  0
   -4.8057   -1.4961   -0.7781 C   0  0  0  0  0  0  0  0  0  0  0  0
   -6.1998   -1.8948   -0.3437 C   0  0  0  0  0  0  0  0  0  0  0  0
   -6.8406   -0.5774    0.1175 C   0  0  0  0  0  0  0  0  0  0  0  0
   -6.0992   -0.2370    1.4127 C   0  0  0  0  0  0  0  0  0  0  0  0
   -4.6739    0.1001    1.1482 C   0  0  0  0  0  0  0  0  0  0  0  0
   -2.7834    0.4985   -1.2213 C   0  0  0  0  0  0  0  0  0  0  0  0
    0.4041    0.9735    2.2124 H   0  0  0  0  0  0  0  0  0  0  0  0
    3.6556    2.4774   -0.9009 H   0  0  0  0  0  0  0  0  0  0  0  0
    3.2923    1.3813   -2.2320 H   0  0  0  0  0  0  0  0  0  0  0  0
    4.4707    0.4320    0.4766 H   0  0  0  0  0  0  0  0  0  0  0  0
    4.1130   -0.5635   -0.9595 H   0  0  0  0  0  0  0  0  0  0  0  0
    5.6307    0.7632   -2.3453 H   0  0  0  0  0  0  0  0  0  0  0  0
    5.9823    1.8866   -0.9581 H   0  0  0  0  0  0  0  0  0  0  0  0
    6.8596   -1.6680   -2.2416 H   0  0  0  0  0  0  0  0  0  0  0  0
    9.1316   -0.8962    1.2998 H   0  0  0  0  0  0  0  0  0  0  0  0
    7.4361    0.9636    0.9826 H   0  0  0  0  0  0  0  0  0  0  0  0
    3.3022    2.6842    1.3969 H   0  0  0  0  0  0  0  0  0  0  0  0
    3.0542    1.1896    2.4474 H   0  0  0  0  0  0  0  0  0  0  0  0
   -1.6154   -0.7740    1.7445 H   0  0  0  0  0  0  0  0  0  0  0  0
   -2.1786    0.8427    1.3305 H   0  0  0  0  0  0  0  0  0  0  0  0
   -2.2130   -1.5256   -0.5900 H   0  0  0  0  0  0  0  0  0  0  0  0
   -3.8029   -1.8292    1.0769 H   0  0  0  0  0  0  0  0  0  0  0  0
   -4.2447   -2.3651   -1.2076 H   0  0  0  0  0  0  0  0  0  0  0  0
   -4.8477   -0.6907   -1.5353 H   0  0  0  0  0  0  0  0  0  0  0  0
   -6.7085   -2.3342   -1.2069 H   0  0  0  0  0  0  0  0  0  0  0  0
   -6.0874   -2.5671    0.5313 H   0  0  0  0  0  0  0  0  0  0  0  0
   -6.5486    0.1782   -0.6316 H   0  0  0  0  0  0  0  0  0  0  0  0
   -7.9100   -0.6844    0.2888 H   0  0  0  0  0  0  0  0  0  0  0  0
   -6.1467   -1.1875    2.0106 H   0  0  0  0  0  0  0  0  0  0  0  0
   -6.6428    0.5451    1.9549 H   0  0  0  0  0  0  0  0  0  0  0  0
   -4.1705    0.1965    2.1373 H   0  0  0  0  0  0  0  0  0  0  0  0
   -4.6302    1.0957    0.6931 H   0  0  0  0  0  0  0  0  0  0  0  0
   -3.7949    1.0011   -1.1751 H   0  0  0  0  0  0  0  0  0  0  0  0
   -2.0807    1.3522   -1.0342 H   0  0  0  0  0  0  0  0  0  0  0  0
   -2.7221    0.1052   -2.2570 H   0  0  0  0  0  0  0  0  0  0  0  0
  1  2  2  0
  2  3  1  0
  3  4  1  0
  4  5  2  3
  5  6  1  0
  6  7  1  0
  7  8  1  0
  8  9  1  0
  9 10  2  0
 10 11  1  0
 11 12  2  0
 12 13  1  0
  4 14  1  0
  2 15  1  0
 15 16  1  0
 16 17  1  0
 17 18  1  0
 18 19  1  0
 19 20  1  0
 20 21  1  0
 21 22  1  0
 16 23  1  0
 13  9  1  0
 22 17  1  0
  3 24  1  0
  6 25  1  0
  6 26  1  0
  7 27  1  0
  7 28  1  0
  8 29  1  0
  8 30  1  0
 10 31  1  0
 12 32  1  0
 13 33  1  0
 14 34  1  0
 14 35  1  0
 15 36  1  0
 15 37  1  0
 16 38  1  6
 17 39  1  0
 18 40  1  0
 18 41  1  0
 19 42  1  0
 19 43  1  0
 20 44  1  0
 20 45  1  0
 21 46  1  0
 21 47  1  0
 22 48  1  0
 22 49  1  0
 23 50  1  0
 23 51  1  0
 23 52  1  0
M  END
>  <Ligand ID>  (1) 
LIG0000795

>  <Ligand>  (1) 
CHEMBL1096431

>  <SMILES>  (1) 
O=C(NC(=NCCCc1cnc[nH]1)N)C[C@@H](C1CCCCC1)C

>  <CID>  (1) 
46887043.0

>  <ChEMBL ID>  (1) 
nan

>  <InChiKey>  (1) 
GVGOZYJHWUIVHV-ZDUSSCGKSA-N

>  <InChi>  (1) 
InChI=1S/C17H29N5O/c1-13(14-6-3-2-4-7-14)10-16(23)22-17(18)20-9-5-8-15-11-19-12-21-15/h11-14H,2-10H2,1H3,(H,19,21)(H3,18,20,22,23)/t13-/m0/s1

>  <IUPAC Name>  (1) 
(3S)-3-cyclohexyl-N-[N'-[3-(1H-imidazol-5-yl)propyl]carbamimidoyl]butanamide

$$$$
