
     RDKit          3D

 92 95  0  0  0  0  0  0  0  0999 V2000
    0.3084    7.9191   -2.5052 N   0  0  0  0  0  0  0  0  0  0  0  0
    1.4428    7.2555   -1.9390 C   0  0  0  0  0  0  0  0  0  0  0  0
    1.6026    6.0201   -2.2078 N   0  0  0  0  0  0  0  0  0  0  0  0
    2.7251    5.2646   -1.6780 C   0  0  0  0  0  0  0  0  0  0  0  0
    2.4462    4.9628   -0.2116 C   0  0  0  0  0  0  0  0  0  0  0  0
    1.1775    4.1693   -0.0449 C   0  0  0  0  0  0  0  0  0  0  0  0
    1.1261    2.8670   -0.7034 C   0  0  1  0  0  0  0  0  0  0  0  0
    2.1767    1.9207   -0.2013 C   0  0  0  0  0  0  0  0  0  0  0  0
    3.1182    2.2998    0.5541 O   0  0  0  0  0  0  0  0  0  0  0  0
    2.1729    0.5512   -0.5550 N   0  0  0  0  0  0  0  0  0  0  0  0
    3.1955   -0.3958   -0.0432 C   0  0  2  0  0  0  0  0  0  0  0  0
    4.0984   -0.8021   -1.0994 C   0  0  0  0  0  0  0  0  0  0  0  0
    3.8251   -0.4025   -2.2919 O   0  0  0  0  0  0  0  0  0  0  0  0
    5.2612   -1.5910   -0.9788 N   0  0  0  0  0  0  0  0  0  0  0  0
    2.4978   -1.4370    0.7482 C   0  0  0  0  0  0  0  0  0  0  0  0
    3.2734   -2.5068    1.3456 C   0  0  0  0  0  0  0  0  0  0  0  0
    3.7108   -2.5094    2.6686 C   0  0  0  0  0  0  0  0  0  0  0  0
    4.4143   -3.6369    2.8946 N   0  0  0  0  0  0  0  0  0  0  0  0
    4.4677   -4.3891    1.7851 C   0  0  0  0  0  0  0  0  0  0  0  0
    3.7626   -3.6938    0.8229 C   0  0  0  0  0  0  0  0  0  0  0  0
    3.6656   -4.2828   -0.4197 C   0  0  0  0  0  0  0  0  0  0  0  0
    4.2208   -5.4935   -0.7407 C   0  0  0  0  0  0  0  0  0  0  0  0
    4.9357   -6.1962    0.2362 C   0  0  0  0  0  0  0  0  0  0  0  0
    5.0405   -5.6171    1.4872 C   0  0  0  0  0  0  0  0  0  0  0  0
   -0.1459    2.2836   -0.9642 N   0  0  0  0  0  0  0  0  0  0  0  0
   -0.7430    1.1772   -0.3583 C   0  0  0  0  0  0  0  0  0  0  0  0
   -0.2682    0.4693    0.5647 O   0  0  0  0  0  0  0  0  0  0  0  0
   -2.1095    0.7540   -0.8371 C   0  0  1  0  0  0  0  0  0  0  0  0
   -2.5440   -0.4450   -0.1739 N   0  0  0  0  0  0  0  0  0  0  0  0
   -2.9604   -1.6069   -0.8861 C   0  0  0  0  0  0  0  0  0  0  0  0
   -2.9572   -1.5945   -2.1515 O   0  0  0  0  0  0  0  0  0  0  0  0
   -3.3927   -2.8162   -0.1556 C   0  0  2  0  0  0  0  0  0  0  0  0
   -4.8428   -3.1586   -0.4415 C   0  0  0  0  0  0  0  0  0  0  0  0
   -5.1083   -3.4206   -1.8749 C   0  0  0  0  0  0  0  0  0  0  0  0
   -5.0310   -4.6203   -2.5043 N   0  0  0  0  0  0  0  0  0  0  0  0
   -5.3479   -4.4675   -3.8154 C   0  0  0  0  0  0  0  0  0  0  0  0
   -5.6226   -3.1636   -3.9952 N   0  0  0  0  0  0  0  0  0  0  0  0
   -5.4843   -2.4978   -2.8257 C   0  0  0  0  0  0  0  0  0  0  0  0
   -3.2642   -2.6541    1.2986 N   0  0  0  0  0  0  0  0  0  0  0  0
   -2.3930   -3.5884    1.9651 C   0  0  0  0  0  0  0  0  0  0  0  0
   -1.7940   -4.4801    1.2971 O   0  0  0  0  0  0  0  0  0  0  0  0
   -2.1948   -3.5076    3.4385 C   0  0  0  0  0  0  0  0  0  0  0  0
   -3.0325    1.9264   -0.5253 C   0  0  0  0  0  0  0  0  0  0  0  0
   -3.0784    2.2215    0.9220 C   0  0  0  0  0  0  0  0  0  0  0  0
   -4.0241    1.5656    1.6889 C   0  0  0  0  0  0  0  0  0  0  0  0
   -4.1367    1.7772    3.0407 C   0  0  0  0  0  0  0  0  0  0  0  0
   -3.2555    2.6834    3.6090 C   0  0  0  0  0  0  0  0  0  0  0  0
   -2.3224    3.3423    2.9014 N   0  0  0  0  0  0  0  0  0  0  0  0
   -2.2455    3.1036    1.5677 C   0  0  0  0  0  0  0  0  0  0  0  0
    2.3421    8.0000   -1.1030 N   0  0  0  0  0  0  0  0  0  0  0  0
   -0.3626    8.4853   -1.9369 H   0  0  0  0  0  0  0  0  0  0  0  0
    0.1630    7.8159   -3.5525 H   0  0  0  0  0  0  0  0  0  0  0  0
    3.6166    5.9571   -1.7146 H   0  0  0  0  0  0  0  0  0  0  0  0
    2.9938    4.3821   -2.2538 H   0  0  0  0  0  0  0  0  0  0  0  0
    2.3187    5.9725    0.2970 H   0  0  0  0  0  0  0  0  0  0  0  0
    3.3565    4.4965    0.1928 H   0  0  0  0  0  0  0  0  0  0  0  0
    0.9561    4.0813    1.0651 H   0  0  0  0  0  0  0  0  0  0  0  0
    0.3630    4.8167   -0.4618 H   0  0  0  0  0  0  0  0  0  0  0  0
    1.5774    3.0560   -1.7797 H   0  0  0  0  0  0  0  0  0  0  0  0
    1.4963    0.1088   -1.2163 H   0  0  0  0  0  0  0  0  0  0  0  0
    3.7798    0.2323    0.6967 H   0  0  0  0  0  0  0  0  0  0  0  0
    5.6467   -2.1996   -1.7264 H   0  0  0  0  0  0  0  0  0  0  0  0
    5.7787   -1.5639   -0.0670 H   0  0  0  0  0  0  0  0  0  0  0  0
    1.8847   -0.9390    1.5560 H   0  0  0  0  0  0  0  0  0  0  0  0
    1.6930   -1.8671    0.0761 H   0  0  0  0  0  0  0  0  0  0  0  0
    3.5281   -1.7426    3.4123 H   0  0  0  0  0  0  0  0  0  0  0  0
    4.8573   -3.8970    3.7999 H   0  0  0  0  0  0  0  0  0  0  0  0
    3.1037   -3.7117   -1.1650 H   0  0  0  0  0  0  0  0  0  0  0  0
    4.1354   -5.9405   -1.7206 H   0  0  0  0  0  0  0  0  0  0  0  0
    5.3701   -7.1493   -0.0232 H   0  0  0  0  0  0  0  0  0  0  0  0
    5.5900   -6.1653    2.2273 H   0  0  0  0  0  0  0  0  0  0  0  0
   -0.7246    2.7647   -1.7322 H   0  0  0  0  0  0  0  0  0  0  0  0
   -2.0427    0.6468   -1.9275 H   0  0  0  0  0  0  0  0  0  0  0  0
   -2.5476   -0.4462    0.8697 H   0  0  0  0  0  0  0  0  0  0  0  0
   -2.7829   -3.6728   -0.4971 H   0  0  0  0  0  0  0  0  0  0  0  0
   -5.2084   -3.9842    0.1762 H   0  0  0  0  0  0  0  0  0  0  0  0
   -5.4367   -2.2488   -0.1718 H   0  0  0  0  0  0  0  0  0  0  0  0
   -4.7664   -5.5189   -2.0342 H   0  0  0  0  0  0  0  0  0  0  0  0
   -5.3857   -5.2124   -4.5971 H   0  0  0  0  0  0  0  0  0  0  0  0
   -5.6463   -1.4330   -2.6882 H   0  0  0  0  0  0  0  0  0  0  0  0
   -3.7764   -1.9046    1.8059 H   0  0  0  0  0  0  0  0  0  0  0  0
   -1.9800   -4.5430    3.7772 H   0  0  0  0  0  0  0  0  0  0  0  0
   -3.1343   -3.2068    3.9533 H   0  0  0  0  0  0  0  0  0  0  0  0
   -1.3516   -2.8627    3.7378 H   0  0  0  0  0  0  0  0  0  0  0  0
   -4.0499    1.7664   -0.9529 H   0  0  0  0  0  0  0  0  0  0  0  0
   -2.6533    2.8590   -1.0088 H   0  0  0  0  0  0  0  0  0  0  0  0
   -4.6925    0.8669    1.2029 H   0  0  0  0  0  0  0  0  0  0  0  0
   -4.8369    1.3090    3.6892 H   0  0  0  0  0  0  0  0  0  0  0  0
   -3.3124    2.8757    4.6703 H   0  0  0  0  0  0  0  0  0  0  0  0
   -1.5054    3.6364    1.0280 H   0  0  0  0  0  0  0  0  0  0  0  0
    3.3597    8.0344   -1.3371 H   0  0  0  0  0  0  0  0  0  0  0  0
    1.9185    8.4872   -0.2734 H   0  0  0  0  0  0  0  0  0  0  0  0
  1  2  1  0
  2  3  2  3
  3  4  1  0
  4  5  1  0
  5  6  1  0
  6  7  1  0
  7  8  1  0
  8  9  2  0
  8 10  1  0
 10 11  1  0
 11 12  1  0
 12 13  2  0
 12 14  1  0
 11 15  1  0
 15 16  1  0
 16 17  2  0
 17 18  1  0
 18 19  1  0
 19 20  2  0
 20 21  1  0
 21 22  2  0
 22 23  1  0
 23 24  2  0
  7 25  1  0
 25 26  1  0
 26 27  2  0
 26 28  1  0
 28 29  1  0
 29 30  1  0
 30 31  2  0
 30 32  1  0
 32 33  1  0
 33 34  1  0
 34 35  1  0
 35 36  1  0
 36 37  2  0
 37 38  1  0
 32 39  1  0
 39 40  1  0
 40 41  2  0
 40 42  1  0
 28 43  1  0
 43 44  1  0
 44 45  2  0
 45 46  1  0
 46 47  2  0
 47 48  1  0
 48 49  2  0
  2 50  1  0
 20 16  1  0
 38 34  2  0
 49 44  1  0
 24 19  1  0
  1 51  1  0
  1 52  1  0
  4 53  1  0
  4 54  1  0
  5 55  1  0
  5 56  1  0
  6 57  1  0
  6 58  1  0
  7 59  1  6
 10 60  1  0
 11 61  1  1
 14 62  1  0
 14 63  1  0
 15 64  1  0
 15 65  1  0
 17 66  1  0
 18 67  1  0
 21 68  1  0
 22 69  1  0
 23 70  1  0
 24 71  1  0
 25 72  1  0
 28 73  1  6
 29 74  1  0
 32 75  1  6
 33 76  1  0
 33 77  1  0
 35 78  1  0
 36 79  1  0
 38 80  1  0
 39 81  1  0
 42 82  1  0
 42 83  1  0
 42 84  1  0
 43 85  1  0
 43 86  1  0
 45 87  1  0
 46 88  1  0
 47 89  1  0
 49 90  1  0
 50 91  1  0
 50 92  1  0
M  END
>  <Ligand ID>  (1) 
LIG0001421

>  <Ligand>  (1) 
CHEMBL104052

>  <SMILES>  (1) 
NC(=NCCC[C@@H](C(=O)N[C@H](C(=O)N)Cc1c[nH]c2c1cccc2)NC(=O)[C@@H](NC(=O)[C@H](Cc1[nH]cnc1)NC(=O)C)Cc1cccnc1)N

>  <CID>  (1) 
11061440.0

>  <ChEMBL ID>  (1) 
nan

>  <InChiKey>  (1) 
AWPSZBFASWADLU-LJWNLINESA-N

>  <InChi>  (1) 
InChI=1S/C33H42N12O5/c1-19(46)42-28(14-22-17-38-18-41-22)32(50)45-27(12-20-6-4-10-37-15-20)31(49)43-25(9-5-11-39-33(35)36)30(48)44-26(29(34)47)13-21-16-40-24-8-3-2-7-23(21)24/h2-4,6-8,10,15-18,25-28,40H,5,9,11-14H2,1H3,(H2,34,47)(H,38,41)(H,42,46)(H,43,49)(H,44,48)(H,45,50)(H4,35,36,39)/t25-,26-,27-,28-/m0/s1

>  <IUPAC Name>  (1) 
(2S)-2-[[(2S)-2-[[(2S)-2-acetamido-3-(1H-imidazol-5-yl)propanoyl]amino]-3-pyridin-3-ylpropanoyl]amino]-N-[(2S)-1-amino-3-(1H-indol-3-yl)-1-oxopropan-2-yl]-5-(diaminomethylideneamino)pentanamide

$$$$
