
     RDKit          3D

 62 65  0  0  0  0  0  0  0  0999 V2000
   -3.0730   -0.8601   -1.8314 C   0  0  0  0  0  0  0  0  0  0  0  0
   -2.4939   -1.8122   -0.8227 C   0  0  2  0  0  0  0  0  0  0  0  0
   -3.6255   -2.3402    0.0333 C   0  0  0  0  0  0  0  0  0  0  0  0
   -4.2567   -1.1543    0.6299 N   0  0  0  0  0  0  0  0  0  0  0  0
   -3.4281   -0.3947    1.5437 C   0  0  0  0  0  0  0  0  0  0  0  0
   -1.9692   -0.7463    1.4042 C   0  0  0  0  0  0  0  0  0  0  0  0
   -1.5994   -1.0340    0.0371 N   0  0  0  0  0  0  0  0  0  0  0  0
   -0.3661   -0.5670   -0.4894 C   0  0  0  0  0  0  0  0  0  0  0  0
    0.4488    0.1011    0.2982 N   0  0  0  0  0  0  0  0  0  0  0  0
    1.6182    0.5566   -0.1694 C   0  0  0  0  0  0  0  0  0  0  0  0
    2.0680    0.3810   -1.4633 C   0  0  0  0  0  0  0  0  0  0  0  0
    1.1439   -0.3506   -2.2746 C   0  0  0  0  0  0  0  0  0  0  0  0
   -0.0116   -0.7845   -1.7605 N   0  0  0  0  0  0  0  0  0  0  0  0
    3.1683    0.7648   -2.0404 O   0  0  0  0  0  0  0  0  0  0  0  0
    4.3238    1.3816   -1.9448 C   0  0  0  0  0  0  0  0  0  0  0  0
    5.2767    0.8051   -0.9783 C   0  0  0  0  0  0  0  0  0  0  0  0
    6.1774   -0.1392   -1.4905 C   0  0  0  0  0  0  0  0  0  0  0  0
    7.0904   -0.7856   -0.6895 C   0  0  0  0  0  0  0  0  0  0  0  0
    7.1595   -0.5303    0.6648 C   0  0  0  0  0  0  0  0  0  0  0  0
    6.2777    0.3967    1.1728 C   0  0  0  0  0  0  0  0  0  0  0  0
    5.3501    1.0539    0.3566 C   0  0  0  0  0  0  0  0  0  0  0  0
    4.5732    1.9633    0.9401 F   0  0  0  0  0  0  0  0  0  0  0  0
    8.0953   -1.2064    1.4346 O   0  0  0  0  0  0  0  0  0  0  0  0
    9.6600   -0.5667    1.6681 S   0  0  0  0  0  0  0  0  0  0  0  0
    9.8810   -0.4802    3.1578 O   0  0  0  0  0  0  0  0  0  0  0  0
   10.7190   -1.3857    0.9834 O   0  0  0  0  0  0  0  0  0  0  0  0
    9.7315    1.0899    1.0282 C   0  0  0  0  0  0  0  0  0  0  0  0
   -5.6003   -0.7889    0.3204 C   0  0  0  0  0  0  0  0  0  0  0  0
   -6.2145   -1.5309   -0.4791 O   0  0  0  0  0  0  0  0  0  0  0  0
   -6.1059    0.3360    0.9182 O   0  0  0  0  0  0  0  0  0  0  0  0
   -7.3777    0.8429    0.7374 C   0  0  0  0  0  0  0  0  0  0  0  0
   -8.5486   -0.0542    1.0953 C   0  0  0  0  0  0  0  0  0  0  0  0
   -9.2686    0.6649    0.1084 O   0  0  0  0  0  0  0  0  0  0  0  0
   -8.0415    0.7424   -0.5907 C   0  0  0  0  0  0  0  0  0  0  0  0
   -7.5499    2.2085    1.4031 C   0  0  0  0  0  0  0  0  0  0  0  0
   -6.6170    3.0315    0.8042 F   0  0  0  0  0  0  0  0  0  0  0  0
   -8.8465    2.6228    1.2015 F   0  0  0  0  0  0  0  0  0  0  0  0
   -7.2076    2.0800    2.7278 F   0  0  0  0  0  0  0  0  0  0  0  0
   -3.1565    0.1834   -1.4182 H   0  0  0  0  0  0  0  0  0  0  0  0
   -2.3426   -0.7400   -2.6774 H   0  0  0  0  0  0  0  0  0  0  0  0
   -4.0929   -1.1289   -2.1794 H   0  0  0  0  0  0  0  0  0  0  0  0
   -1.9169   -2.6345   -1.2900 H   0  0  0  0  0  0  0  0  0  0  0  0
   -4.3284   -2.9559   -0.5258 H   0  0  0  0  0  0  0  0  0  0  0  0
   -3.1918   -2.8804    0.9212 H   0  0  0  0  0  0  0  0  0  0  0  0
   -3.7927   -0.5064    2.5817 H   0  0  0  0  0  0  0  0  0  0  0  0
   -3.5368    0.6754    1.2723 H   0  0  0  0  0  0  0  0  0  0  0  0
   -1.8122   -1.6790    1.9751 H   0  0  0  0  0  0  0  0  0  0  0  0
   -1.2924    0.0158    1.7925 H   0  0  0  0  0  0  0  0  0  0  0  0
    2.2385    1.0935    0.5015 H   0  0  0  0  0  0  0  0  0  0  0  0
    1.3836   -0.5522   -3.3083 H   0  0  0  0  0  0  0  0  0  0  0  0
    4.2351    2.4815   -1.5895 H   0  0  0  0  0  0  0  0  0  0  0  0
    4.8514    1.5504   -2.9464 H   0  0  0  0  0  0  0  0  0  0  0  0
    6.1754   -0.3838   -2.5364 H   0  0  0  0  0  0  0  0  0  0  0  0
    7.7802   -1.5168   -1.1160 H   0  0  0  0  0  0  0  0  0  0  0  0
    6.3127    0.6155    2.2380 H   0  0  0  0  0  0  0  0  0  0  0  0
    9.4852    1.8477    1.8015 H   0  0  0  0  0  0  0  0  0  0  0  0
   10.7453    1.2953    0.6175 H   0  0  0  0  0  0  0  0  0  0  0  0
    9.0036    1.2542    0.2099 H   0  0  0  0  0  0  0  0  0  0  0  0
   -8.9845    0.0909    2.0987 H   0  0  0  0  0  0  0  0  0  0  0  0
   -8.4595   -1.0915    0.7420 H   0  0  0  0  0  0  0  0  0  0  0  0
   -7.8933   -0.1814   -1.1274 H   0  0  0  0  0  0  0  0  0  0  0  0
   -7.9717    1.6361   -1.2456 H   0  0  0  0  0  0  0  0  0  0  0  0
  1  2  1  0
  2  3  1  0
  3  4  1  0
  4  5  1  0
  5  6  1  0
  6  7  1  0
  7  8  1  0
  8  9  2  0
  9 10  1  0
 10 11  2  0
 11 12  1  0
 12 13  2  0
 11 14  1  0
 14 15  1  0
 15 16  1  0
 16 17  2  0
 17 18  1  0
 18 19  2  0
 19 20  1  0
 20 21  2  0
 21 22  1  0
 19 23  1  0
 23 24  1  0
 24 25  2  0
 24 26  2  0
 24 27  1  0
  4 28  1  0
 28 29  2  0
 28 30  1  0
 30 31  1  0
 31 32  1  0
 32 33  1  0
 33 34  1  0
 31 35  1  0
 35 36  1  0
 35 37  1  0
 35 38  1  0
  7  2  1  0
 13  8  1  0
 21 16  1  0
 34 31  1  0
  1 39  1  0
  1 40  1  0
  1 41  1  0
  2 42  1  6
  3 43  1  0
  3 44  1  0
  5 45  1  0
  5 46  1  0
  6 47  1  0
  6 48  1  0
 10 49  1  0
 12 50  1  0
 15 51  1  0
 15 52  1  0
 17 53  1  0
 18 54  1  0
 20 55  1  0
 27 56  1  0
 27 57  1  0
 27 58  1  0
 32 59  1  0
 32 60  1  0
 34 61  1  0
 34 62  1  0
M  END
>  <Ligand ID>  (1) 
LIG0005279

>  <Ligand>  (1) 
CHEMBL3358011

>  <SMILES>  (1) 
C[C@@H]1CN(CCN1c1ncc(cn1)OCc1ccc(cc1F)OS(=O)(=O)C)C(=O)OC1(COC1)C(F)(F)F

>  <CID>  (1) 
118722585.0

>  <ChEMBL ID>  (1) 
nan

>  <InChiKey>  (1) 
WEUUMZLPXYLJKY-CQSZACIVSA-N

>  <InChi>  (1) 
InChI=1S/C22H24F4N4O7S/c1-14-10-29(20(31)36-21(12-34-13-21)22(24,25)26)5-6-30(14)19-27-8-17(9-28-19)35-11-15-3-4-16(7-18(15)23)37-38(2,32)33/h3-4,7-9,14H,5-6,10-13H2,1-2H3/t14-/m1/s1

>  <IUPAC Name>  (1) 
[3-(trifluoromethyl)oxetan-3-yl] (3R)-4-[5-[(2-fluoro-4-methylsulfonyloxyphenyl)methoxy]pyrimidin-2-yl]-3-methylpiperazine-1-carboxylate

$$$$
