
     RDKit          3D

197204  0  0  0  0  0  0  0  0999 V2000
    9.3219   -6.0424   -0.4764 N   0  0  0  0  0  0  0  0  0  0  0  0
    8.0314   -6.4080   -0.9540 C   0  0  0  0  0  0  0  0  0  0  0  0
    7.2705   -5.6360   -1.6433 N   0  0  0  0  0  0  0  0  0  0  0  0
    7.6585   -4.2902   -2.0108 C   0  0  0  0  0  0  0  0  0  0  0  0
    6.6686   -3.7225   -3.0283 C   0  0  0  0  0  0  0  0  0  0  0  0
    5.3124   -3.6977   -2.4305 C   0  0  0  0  0  0  0  0  0  0  0  0
    5.2389   -2.8922   -1.1683 C   0  0  2  0  0  0  0  0  0  0  0  0
    3.8477   -2.9560   -0.6847 N   0  0  0  0  0  0  0  0  0  0  0  0
    3.4353   -3.9163    0.2904 C   0  0  0  0  0  0  0  0  0  0  0  0
    4.3789   -4.5965    0.7537 O   0  0  0  0  0  0  0  0  0  0  0  0
    2.0880   -4.1649    0.7722 C   0  0  1  0  0  0  0  0  0  0  0  0
    1.9626   -4.0955    2.2696 C   0  0  0  0  0  0  0  0  0  0  0  0
    2.7847   -5.0759    3.0050 C   0  0  0  0  0  0  0  0  0  0  0  0
    2.2454   -6.3286    3.2523 C   0  0  0  0  0  0  0  0  0  0  0  0
    2.9095   -7.3226    3.9412 C   0  0  0  0  0  0  0  0  0  0  0  0
    4.1821   -7.0787    4.4208 C   0  0  0  0  0  0  0  0  0  0  0  0
    4.7153   -5.8373    4.1766 C   0  0  0  0  0  0  0  0  0  0  0  0
    4.0503   -4.8421    3.4857 C   0  0  0  0  0  0  0  0  0  0  0  0
    0.9788   -3.4328    0.1870 N   0  0  0  0  0  0  0  0  0  0  0  0
    0.2398   -4.0458   -0.8857 C   0  0  0  0  0  0  0  0  0  0  0  0
    0.8447   -5.1148   -1.2829 O   0  0  0  0  0  0  0  0  0  0  0  0
   -0.9681   -3.6849   -1.5447 C   0  0  2  0  0  0  0  0  0  0  0  0
   -1.0467   -4.1290   -3.0009 C   0  0  0  0  0  0  0  0  0  0  0  0
   -1.0782   -5.5895   -3.1277 C   0  0  0  0  0  0  0  0  0  0  0  0
   -1.0780   -6.2108   -4.3466 N   0  0  0  0  0  0  0  0  0  0  0  0
   -1.1808   -7.5353   -4.1784 C   0  0  0  0  0  0  0  0  0  0  0  0
   -1.2503   -7.8131   -2.8674 N   0  0  0  0  0  0  0  0  0  0  0  0
   -1.1887   -6.6094   -2.2228 C   0  0  0  0  0  0  0  0  0  0  0  0
   -1.7363   -2.4998   -1.2977 N   0  0  0  0  0  0  0  0  0  0  0  0
   -3.1354   -2.6000   -1.1990 C   0  0  0  0  0  0  0  0  0  0  0  0
   -3.5286   -3.8502   -1.3295 O   0  0  0  0  0  0  0  0  0  0  0  0
   -4.2567   -1.7131   -0.9931 C   0  0  1  0  0  0  0  0  0  0  0  0
   -5.4357   -2.5897   -0.8284 N   0  0  0  0  0  0  0  0  0  0  0  0
   -5.5275   -3.6121    0.1479 C   0  0  0  0  0  0  0  0  0  0  0  0
   -4.6147   -3.8482    0.9769 O   0  0  0  0  0  0  0  0  0  0  0  0
   -6.8067   -4.4129    0.1362 C   0  0  2  0  0  0  0  0  0  0  0  0
   -7.9520   -3.4789    0.3245 C   0  0  0  0  0  0  0  0  0  0  0  0
   -9.2197   -4.2810    0.2964 C   0  0  0  0  0  0  0  0  0  0  0  0
   -9.9168   -4.5144   -0.8574 C   0  0  0  0  0  0  0  0  0  0  0  0
  -11.0807   -5.2212   -0.9631 C   0  0  0  0  0  0  0  0  0  0  0  0
  -11.5898   -5.7461    0.2303 C   0  0  0  0  0  0  0  0  0  0  0  0
  -10.9089   -5.5267    1.4087 C   0  0  0  0  0  0  0  0  0  0  0  0
   -9.7280   -4.8034    1.4759 C   0  0  0  0  0  0  0  0  0  0  0  0
  -12.7723   -6.4698    0.1560 O   0  0  0  0  0  0  0  0  0  0  0  0
   -6.7709   -5.4241    1.1732 N   0  0  0  0  0  0  0  0  0  0  0  0
   -4.1689   -0.5733   -0.1018 C   0  0  0  0  0  0  0  0  0  0  0  0
   -3.6500    0.6969   -0.5964 C   0  0  0  0  0  0  0  0  0  0  0  0
   -2.5082    0.8376   -0.9708 O   0  0  0  0  0  0  0  0  0  0  0  0
   -4.3906    1.9333   -0.7186 N   0  0  0  0  0  0  0  0  0  0  0  0
   -5.7375    1.8961   -0.3018 C   0  0  2  0  0  0  0  0  0  0  0  0
   -5.8910    1.8215    1.1864 C   0  0  0  0  0  0  0  0  0  0  0  0
   -6.9470    1.8126    1.8044 O   0  0  0  0  0  0  0  0  0  0  0  0
   -4.6914    1.7580    2.0280 N   0  0  0  0  0  0  0  0  0  0  0  0
   -6.6916    1.0508   -1.0748 C   0  0  0  0  0  0  0  0  0  0  0  0
   -8.0620    1.0993   -0.4654 C   0  0  0  0  0  0  0  0  0  0  0  0
   -8.4173    0.1269    0.4565 C   0  0  0  0  0  0  0  0  0  0  0  0
   -9.6717    0.1615    1.0478 C   0  0  0  0  0  0  0  0  0  0  0  0
  -10.5049    1.1835    0.6734 C   0  0  0  0  0  0  0  0  0  0  0  0
  -10.1447    2.1516   -0.2501 C   0  0  0  0  0  0  0  0  0  0  0  0
   -8.8849    2.1239   -0.8500 C   0  0  0  0  0  0  0  0  0  0  0  0
  -11.7638    1.2150    1.2727 O   0  0  0  0  0  0  0  0  0  0  0  0
   -3.8187    3.1971   -1.1272 C   0  0  2  0  0  0  0  0  0  0  0  0
   -2.8955    3.0318   -2.2935 C   0  0  0  0  0  0  0  0  0  0  0  0
   -3.4699    4.1109   -0.1173 N   0  0  0  0  0  0  0  0  0  0  0  0
   -2.2675    4.1804    0.6543 C   0  0  0  0  0  0  0  0  0  0  0  0
   -1.4009    3.3500    0.3971 O   0  0  0  0  0  0  0  0  0  0  0  0
   -2.1311    5.2450    1.7258 C   0  0  1  0  0  0  0  0  0  0  0  0
   -0.8675    5.1388    2.3971 N   0  0  0  0  0  0  0  0  0  0  0  0
    0.3984    5.0859    1.7429 C   0  0  0  0  0  0  0  0  0  0  0  0
    0.4000    5.2238    0.5218 O   0  0  0  0  0  0  0  0  0  0  0  0
    1.6706    4.8785    2.5398 C   0  0  1  0  0  0  0  0  0  0  0  0
    2.8202    5.0993    1.7111 N   0  0  0  0  0  0  0  0  0  0  0  0
    3.3921    4.0856    0.8552 C   0  0  0  0  0  0  0  0  0  0  0  0
    2.7736    3.0424    0.8109 O   0  0  0  0  0  0  0  0  0  0  0  0
    4.6658    4.4153    0.1143 C   0  0  1  0  0  0  0  0  0  0  0  0
    5.0910    3.2998   -0.6711 N   0  0  0  0  0  0  0  0  0  0  0  0
    5.3353    2.0160   -0.0408 C   0  0  0  0  0  0  0  0  0  0  0  0
    4.9607    1.9215    1.1224 O   0  0  0  0  0  0  0  0  0  0  0  0
    5.9596    0.8827   -0.7176 C   0  0  2  0  0  0  0  0  0  0  0  0
    5.3622   -0.4200   -0.4189 N   0  0  0  0  0  0  0  0  0  0  0  0
    5.7601   -1.5431   -1.2079 C   0  0  0  0  0  0  0  0  0  0  0  0
    6.6864   -1.2689   -2.0055 O   0  0  0  0  0  0  0  0  0  0  0  0
    7.3888    0.7075   -0.0728 C   0  0  0  0  0  0  0  0  0  0  0  0
    8.1676    1.9439   -0.2704 C   0  0  0  0  0  0  0  0  0  0  0  0
    8.9195    2.0664   -1.4286 C   0  0  0  0  0  0  0  0  0  0  0  0
    9.7000    3.1713   -1.6995 C   0  0  0  0  0  0  0  0  0  0  0  0
    9.7355    4.2131   -0.7626 C   0  0  0  0  0  0  0  0  0  0  0  0
    8.9972    4.1262    0.4063 C   0  0  0  0  0  0  0  0  0  0  0  0
    8.2181    2.9876    0.6412 C   0  0  0  0  0  0  0  0  0  0  0  0
    9.0314    5.1735    1.3391 C   0  0  0  0  0  0  0  0  0  0  0  0
    9.8104    6.2621    1.0492 C   0  0  0  0  0  0  0  0  0  0  0  0
   10.5300    6.3256   -0.1123 C   0  0  0  0  0  0  0  0  0  0  0  0
   10.5246    5.3255   -1.0492 C   0  0  0  0  0  0  0  0  0  0  0  0
    4.5868    5.7386   -0.5439 C   0  0  0  0  0  0  0  0  0  0  0  0
    5.8178    6.0071   -1.3212 C   0  0  0  0  0  0  0  0  0  0  0  0
    6.7229    5.1704   -1.4958 O   0  0  0  0  0  0  0  0  0  0  0  0
    6.0331    7.3037   -1.9385 N   0  0  0  0  0  0  0  0  0  0  0  0
    1.6627    5.6702    3.7829 C   0  0  0  0  0  0  0  0  0  0  0  0
   -2.6143    6.5825    1.3755 C   0  0  0  0  0  0  0  0  0  0  0  0
   -2.0273    7.2953    0.2550 C   0  0  0  0  0  0  0  0  0  0  0  0
   -0.9257    8.1306    0.4573 C   0  0  0  0  0  0  0  0  0  0  0  0
   -0.3295    8.8435   -0.5508 C   0  0  0  0  0  0  0  0  0  0  0  0
   -0.7998    8.7695   -1.8520 C   0  0  0  0  0  0  0  0  0  0  0  0
   -1.8869    7.9516   -2.0800 C   0  0  0  0  0  0  0  0  0  0  0  0
   -2.4794    7.2385   -1.0624 C   0  0  0  0  0  0  0  0  0  0  0  0
   -5.0164    3.9179   -1.8396 C   0  0  0  0  0  0  0  0  0  0  0  0
   -5.4551    3.4293   -2.8980 O   0  0  0  0  0  0  0  0  0  0  0  0
   -5.5563    5.0572   -1.2936 O   0  0  0  0  0  0  0  0  0  0  0  0
    7.5781   -7.7207   -0.6173 N   0  0  0  0  0  0  0  0  0  0  0  0
    9.5341   -5.9376    0.5470 H   0  0  0  0  0  0  0  0  0  0  0  0
   10.1032   -5.8731   -1.1748 H   0  0  0  0  0  0  0  0  0  0  0  0
    7.6309   -3.6629   -1.1201 H   0  0  0  0  0  0  0  0  0  0  0  0
    8.6963   -4.2798   -2.4331 H   0  0  0  0  0  0  0  0  0  0  0  0
    6.6537   -4.4572   -3.9243 H   0  0  0  0  0  0  0  0  0  0  0  0
    7.0329   -2.8003   -3.4853 H   0  0  0  0  0  0  0  0  0  0  0  0
    4.6039   -3.3238   -3.2090 H   0  0  0  0  0  0  0  0  0  0  0  0
    4.9329   -4.7220   -2.1683 H   0  0  0  0  0  0  0  0  0  0  0  0
    5.7994   -3.4549   -0.3494 H   0  0  0  0  0  0  0  0  0  0  0  0
    3.1064   -2.3276   -1.0001 H   0  0  0  0  0  0  0  0  0  0  0  0
    1.9257   -5.2919    0.5124 H   0  0  0  0  0  0  0  0  0  0  0  0
    0.8903   -4.3134    2.5826 H   0  0  0  0  0  0  0  0  0  0  0  0
    2.1277   -3.0724    2.6878 H   0  0  0  0  0  0  0  0  0  0  0  0
    1.2370   -6.5942    2.9037 H   0  0  0  0  0  0  0  0  0  0  0  0
    2.4366   -8.2749    4.0914 H   0  0  0  0  0  0  0  0  0  0  0  0
    4.7005   -7.8671    4.9688 H   0  0  0  0  0  0  0  0  0  0  0  0
    5.7216   -5.6112    4.5373 H   0  0  0  0  0  0  0  0  0  0  0  0
    4.5311   -3.8639    3.3311 H   0  0  0  0  0  0  0  0  0  0  0  0
    0.6565   -2.5080    0.4489 H   0  0  0  0  0  0  0  0  0  0  0  0
   -1.7268   -4.5245   -1.1010 H   0  0  0  0  0  0  0  0  0  0  0  0
   -1.9912   -3.7067   -3.4169 H   0  0  0  0  0  0  0  0  0  0  0  0
   -0.1497   -3.7487   -3.5502 H   0  0  0  0  0  0  0  0  0  0  0  0
   -1.2059   -8.2872   -4.9846 H   0  0  0  0  0  0  0  0  0  0  0  0
   -1.3305   -8.7692   -2.4365 H   0  0  0  0  0  0  0  0  0  0  0  0
   -1.2481   -6.5946   -1.1356 H   0  0  0  0  0  0  0  0  0  0  0  0
   -1.3264   -1.5823   -1.1771 H   0  0  0  0  0  0  0  0  0  0  0  0
   -4.4779   -1.2161   -2.0523 H   0  0  0  0  0  0  0  0  0  0  0  0
   -6.2628   -2.4557   -1.4776 H   0  0  0  0  0  0  0  0  0  0  0  0
   -6.8571   -4.9371   -0.8221 H   0  0  0  0  0  0  0  0  0  0  0  0
   -7.9755   -2.7548   -0.5154 H   0  0  0  0  0  0  0  0  0  0  0  0
   -7.8912   -2.8958    1.2682 H   0  0  0  0  0  0  0  0  0  0  0  0
   -9.5142   -4.1028   -1.7958 H   0  0  0  0  0  0  0  0  0  0  0  0
  -11.5968   -5.3739   -1.9053 H   0  0  0  0  0  0  0  0  0  0  0  0
  -11.2899   -5.9147    2.3357 H   0  0  0  0  0  0  0  0  0  0  0  0
   -9.1783   -4.6184    2.3810 H   0  0  0  0  0  0  0  0  0  0  0  0
  -12.7305   -7.3716   -0.2763 H   0  0  0  0  0  0  0  0  0  0  0  0
   -6.5904   -4.9416    2.0776 H   0  0  0  0  0  0  0  0  0  0  0  0
   -6.0118   -6.1139    1.0020 H   0  0  0  0  0  0  0  0  0  0  0  0
   -5.0421   -0.4498    0.5940 H   0  0  0  0  0  0  0  0  0  0  0  0
   -3.3577   -0.8778    0.6830 H   0  0  0  0  0  0  0  0  0  0  0  0
   -6.1771    2.9727   -0.4788 H   0  0  0  0  0  0  0  0  0  0  0  0
   -4.4948    0.8309    2.5022 H   0  0  0  0  0  0  0  0  0  0  0  0
   -4.0845    2.5857    2.1471 H   0  0  0  0  0  0  0  0  0  0  0  0
   -6.7750    1.3103   -2.1571 H   0  0  0  0  0  0  0  0  0  0  0  0
   -6.4209   -0.0134   -1.0743 H   0  0  0  0  0  0  0  0  0  0  0  0
   -7.6830   -0.6176    0.6709 H   0  0  0  0  0  0  0  0  0  0  0  0
   -9.9192   -0.6029    1.7607 H   0  0  0  0  0  0  0  0  0  0  0  0
  -10.8112    2.9421   -0.5352 H   0  0  0  0  0  0  0  0  0  0  0  0
   -8.6317    2.8852   -1.5618 H   0  0  0  0  0  0  0  0  0  0  0  0
  -12.4368    0.4961    1.0440 H   0  0  0  0  0  0  0  0  0  0  0  0
   -1.8515    2.7960   -1.9965 H   0  0  0  0  0  0  0  0  0  0  0  0
   -3.2800    2.2359   -2.9808 H   0  0  0  0  0  0  0  0  0  0  0  0
   -2.9255    3.9592   -2.9269 H   0  0  0  0  0  0  0  0  0  0  0  0
   -4.1498    4.8519    0.1474 H   0  0  0  0  0  0  0  0  0  0  0  0
   -2.8821    4.8192    2.4922 H   0  0  0  0  0  0  0  0  0  0  0  0
   -0.8247    5.0975    3.4173 H   0  0  0  0  0  0  0  0  0  0  0  0
    1.5716    3.7765    2.8048 H   0  0  0  0  0  0  0  0  0  0  0  0
    3.2806    6.0023    1.7027 H   0  0  0  0  0  0  0  0  0  0  0  0
    5.3854    4.5242    1.0162 H   0  0  0  0  0  0  0  0  0  0  0  0
    5.2486    3.2845   -1.6814 H   0  0  0  0  0  0  0  0  0  0  0  0
    6.1684    1.0707   -1.7614 H   0  0  0  0  0  0  0  0  0  0  0  0
    4.6778   -0.6108    0.3042 H   0  0  0  0  0  0  0  0  0  0  0  0
    7.2857    0.4693    0.9855 H   0  0  0  0  0  0  0  0  0  0  0  0
    7.9365   -0.1088   -0.5602 H   0  0  0  0  0  0  0  0  0  0  0  0
    8.9088    1.2582   -2.1774 H   0  0  0  0  0  0  0  0  0  0  0  0
   10.2879    3.2809   -2.6036 H   0  0  0  0  0  0  0  0  0  0  0  0
    7.6353    2.9052    1.5530 H   0  0  0  0  0  0  0  0  0  0  0  0
    8.4636    5.1079    2.2408 H   0  0  0  0  0  0  0  0  0  0  0  0
    9.8526    7.0830    1.7489 H   0  0  0  0  0  0  0  0  0  0  0  0
   11.1270    7.2050   -0.2907 H   0  0  0  0  0  0  0  0  0  0  0  0
   11.0880    5.3582   -1.9813 H   0  0  0  0  0  0  0  0  0  0  0  0
    3.6494    5.9566   -1.0907 H   0  0  0  0  0  0  0  0  0  0  0  0
    4.6223    6.4986    0.3204 H   0  0  0  0  0  0  0  0  0  0  0  0
    6.8377    7.8492   -1.5277 H   0  0  0  0  0  0  0  0  0  0  0  0
    5.4305    7.6433   -2.7154 H   0  0  0  0  0  0  0  0  0  0  0  0
    1.1571    5.1352    4.6232 H   0  0  0  0  0  0  0  0  0  0  0  0
    1.2108    6.6796    3.6794 H   0  0  0  0  0  0  0  0  0  0  0  0
    2.7199    5.8488    4.1284 H   0  0  0  0  0  0  0  0  0  0  0  0
   -3.7534    6.5382    1.3081 H   0  0  0  0  0  0  0  0  0  0  0  0
   -2.4815    7.2254    2.3050 H   0  0  0  0  0  0  0  0  0  0  0  0
   -0.5494    8.1961    1.4523 H   0  0  0  0  0  0  0  0  0  0  0  0
    0.5173    9.4839   -0.3552 H   0  0  0  0  0  0  0  0  0  0  0  0
   -0.3373    9.3342   -2.6610 H   0  0  0  0  0  0  0  0  0  0  0  0
   -2.2417    7.9113   -3.1058 H   0  0  0  0  0  0  0  0  0  0  0  0
   -3.3216    6.6195   -1.3100 H   0  0  0  0  0  0  0  0  0  0  0  0
   -6.4276    5.4780   -1.6421 H   0  0  0  0  0  0  0  0  0  0  0  0
    8.2516   -8.4945   -0.5918 H   0  0  0  0  0  0  0  0  0  0  0  0
    6.5536   -7.8803   -0.3957 H   0  0  0  0  0  0  0  0  0  0  0  0
  1  2  1  0
  2  3  2  3
  3  4  1  0
  4  5  1  0
  5  6  1  0
  6  7  1  0
  7  8  1  0
  8  9  1  0
  9 10  2  0
  9 11  1  0
 11 12  1  0
 12 13  1  0
 13 14  2  0
 14 15  1  0
 15 16  2  0
 16 17  1  0
 17 18  2  0
 11 19  1  0
 19 20  1  0
 20 21  2  0
 20 22  1  0
 22 23  1  0
 23 24  1  0
 24 25  1  0
 25 26  2  0
 26 27  1  0
 27 28  1  0
 22 29  1  0
 29 30  1  0
 30 31  2  0
 30 32  1  0
 32 33  1  0
 33 34  1  0
 34 35  2  0
 34 36  1  0
 36 37  1  0
 37 38  1  0
 38 39  2  0
 39 40  1  0
 40 41  2  0
 41 42  1  0
 42 43  2  0
 41 44  1  0
 36 45  1  0
 32 46  1  0
 46 47  1  0
 47 48  2  0
 47 49  1  0
 49 50  1  0
 50 51  1  0
 51 52  2  0
 51 53  1  0
 50 54  1  0
 54 55  1  0
 55 56  2  0
 56 57  1  0
 57 58  2  0
 58 59  1  0
 59 60  2  0
 58 61  1  0
 49 62  1  0
 62 63  1  6
 62 64  1  0
 64 65  1  0
 65 66  2  0
 65 67  1  0
 67 68  1  0
 68 69  1  0
 69 70  2  0
 69 71  1  0
 71 72  1  0
 72 73  1  0
 73 74  2  0
 73 75  1  0
 75 76  1  0
 76 77  1  0
 77 78  2  0
 77 79  1  0
 79 80  1  0
 80 81  1  0
 81 82  2  0
 79 83  1  0
 83 84  1  0
 84 85  2  0
 85 86  1  0
 86 87  2  0
 87 88  1  0
 88 89  2  0
 88 90  1  0
 90 91  2  0
 91 92  1  0
 92 93  2  0
 75 94  1  0
 94 95  1  0
 95 96  2  0
 95 97  1  0
 71 98  1  0
 67 99  1  0
 99100  1  0
100101  2  0
101102  1  0
102103  2  0
103104  1  0
104105  2  0
 62106  1  0
106107  2  0
106108  1  0
  2109  1  0
 81  7  1  0
 89 84  1  0
105100  1  0
 18 13  1  0
 28 24  2  0
 43 38  1  0
 60 55  1  0
 93 87  1  0
  1110  1  0
  1111  1  0
  4112  1  0
  4113  1  0
  5114  1  0
  5115  1  0
  6116  1  0
  6117  1  0
  7118  1  1
  8119  1  0
 11120  1  6
 12121  1  0
 12122  1  0
 14123  1  0
 15124  1  0
 16125  1  0
 17126  1  0
 18127  1  0
 19128  1  0
 22129  1  1
 23130  1  0
 23131  1  0
 26132  1  0
 27133  1  0
 28134  1  0
 29135  1  0
 32136  1  6
 33137  1  0
 36138  1  6
 37139  1  0
 37140  1  0
 39141  1  0
 40142  1  0
 42143  1  0
 43144  1  0
 44145  1  0
 45146  1  0
 45147  1  0
 46148  1  0
 46149  1  0
 50150  1  6
 53151  1  0
 53152  1  0
 54153  1  0
 54154  1  0
 56155  1  0
 57156  1  0
 59157  1  0
 60158  1  0
 61159  1  0
 63160  1  0
 63161  1  0
 63162  1  0
 64163  1  0
 67164  1  1
 68165  1  0
 71166  1  1
 72167  1  0
 75168  1  1
 76169  1  0
 79170  1  6
 80171  1  0
 83172  1  0
 83173  1  0
 85174  1  0
 86175  1  0
 89176  1  0
 90177  1  0
 91178  1  0
 92179  1  0
 93180  1  0
 94181  1  0
 94182  1  0
 97183  1  0
 97184  1  0
 98185  1  0
 98186  1  0
 98187  1  0
 99188  1  0
 99189  1  0
101190  1  0
102191  1  0
103192  1  0
104193  1  0
105194  1  0
108195  1  0
109196  1  0
109197  1  0
M  END
>  <Ligand ID>  (1) 
LIG0001124

>  <Ligand>  (1) 
CHEMBL2369964

>  <SMILES>  (1) 
NC(=NCCC[C@@H]1NC(=O)[C@@H](Cc2ccccc2)NC(=O)[C@H](Cc2nc[nH]c2)NC(=O)[C@@H](NC(=O)[C@H](Cc2ccc(cc2)O)N)CC(=O)N([C@H](C(=O)N)Cc2ccc(cc2)O)[C@](C)(NC(=O)[C@@H](NC(=O)[C@@H](NC(=O)[C@@H](NC(=O)[C@H](NC1=O)Cc1ccc2c(c1)cccc2)CC(=O)N)C)Cc1ccccc1)C(=O)O)N

>  <CID>  (1) 
73346955.0

>  <ChEMBL ID>  (1) 
nan

>  <InChiKey>  (1) 
VKIVIEKNSBJNLA-AQOKNKHISA-N

>  <InChi>  (1) 
InChI=1S/C75H88N18O16/c1-41-64(99)86-56(33-43-14-7-4-8-15-43)72(107)92-75(2,73(108)109)93(60(63(78)98)35-45-22-27-51(95)28-23-45)62(97)38-59(87-65(100)52(76)31-44-20-25-50(94)26-21-44)71(106)90-57(36-49-39-81-40-83-49)70(105)89-54(32-42-12-5-3-6-13-42)68(103)85-53(18-11-29-82-74(79)80)66(101)88-55(69(104)91-58(37-61(77)96)67(102)84-41)34-46-19-24-47-16-9-10-17-48(47)30-46/h3-10,12-17,19-28,30,39-41,52-60,94-95H,11,18,29,31-38,76H2,1-2H3,(H2,77,96)(H2,78,98)(H,81,83)(H,84,102)(H,85,103)(H,86,99)(H,87,100)(H,88,101)(H,89,105)(H,90,106)(H,91,104)(H,92,107)(H,108,109)(H4,79,80,82)/t41-,52-,53-,54+,55+,56-,57-,58-,59-,60-,75-/m0/s1

>  <IUPAC Name>  (1) 
(2S,5S,8S,11S,14R,17S,20R,23S,26S)-1-[(2S)-1-amino-3-(4-hydroxyphenyl)-1-oxopropan-2-yl]-26-[[(2S)-2-amino-3-(4-hydroxyphenyl)propanoyl]amino]-11-(2-amino-2-oxoethyl)-5,20-dibenzyl-17-[3-(diaminomethylideneamino)propyl]-23-(1H-imidazol-4-ylmethyl)-2,8-dimethyl-14-(naphthalen-2-ylmethyl)-4,7,10,13,16,19,22,25,28-nonaoxo-1,3,6,9,12,15,18,21,24-nonazacyclooctacosane-2-carboxylic acid

$$$$
