
     RDKit          3D

 55 55  0  0  0  0  0  0  0  0999 V2000
   -8.0215   -0.7927    0.5003 C   0  0  0  0  0  0  0  0  0  0  0  0
   -7.9667    0.3809   -0.4384 C   0  0  0  0  0  0  0  0  0  0  0  0
   -6.6428    1.1006   -0.3320 C   0  0  0  0  0  0  0  0  0  0  0  0
   -5.5502    0.0985   -0.6848 C   0  0  0  0  0  0  0  0  0  0  0  0
   -4.2465    0.8146   -0.5966 C   0  0  0  0  0  0  0  0  0  0  0  0
   -3.1204   -0.1594   -0.9403 C   0  0  1  0  0  0  0  0  0  0  0  0
   -1.8561    0.6260   -0.8460 C   0  0  0  0  0  0  0  0  0  0  0  0
   -0.6736    0.0688   -0.5550 C   0  0  0  0  0  0  0  0  0  0  0  0
    0.4921    0.9770   -0.4985 C   0  0  1  0  0  0  0  0  0  0  0  0
    0.2953    1.8690    0.7325 C   0  0  0  0  0  0  0  0  0  0  0  0
    0.6525    0.8558    1.8217 C   0  0  0  0  0  0  0  0  0  0  0  0
    1.9653    0.3752    1.2523 C   0  0  0  0  0  0  0  0  0  0  0  0
    3.0380    0.1469    1.8471 O   0  0  0  0  0  0  0  0  0  0  0  0
    1.6707    0.2413   -0.1593 N   0  0  0  0  0  0  0  0  0  0  0  0
    2.5472   -0.5637   -1.0039 C   0  0  0  0  0  0  0  0  0  0  0  0
    3.6158    0.4023   -1.5154 C   0  0  0  0  0  0  0  0  0  0  0  0
    4.7568   -0.5576   -2.5648 S   0  0  0  0  0  0  0  0  0  0  0  0
    5.6060   -1.7280   -1.4281 C   0  0  0  0  0  0  0  0  0  0  0  0
    6.4411   -0.8853   -0.5134 C   0  0  0  0  0  0  0  0  0  0  0  0
    7.2070   -1.6744    0.5275 C   0  0  0  0  0  0  0  0  0  0  0  0
    7.9679   -0.6401    1.3150 C   0  0  0  0  0  0  0  0  0  0  0  0
    8.6929    0.2179    0.7089 O   0  0  0  0  0  0  0  0  0  0  0  0
    7.8839   -0.6097    2.7281 O   0  0  0  0  0  0  0  0  0  0  0  0
   -3.1584   -1.1414    0.0769 O   0  0  0  0  0  0  0  0  0  0  0  0
   -7.4520   -0.5239    1.4234 H   0  0  0  0  0  0  0  0  0  0  0  0
   -9.0821   -1.0298    0.7303 H   0  0  0  0  0  0  0  0  0  0  0  0
   -7.5299   -1.6542    0.0054 H   0  0  0  0  0  0  0  0  0  0  0  0
   -8.7739    1.1006   -0.1376 H   0  0  0  0  0  0  0  0  0  0  0  0
   -8.1033    0.0502   -1.4929 H   0  0  0  0  0  0  0  0  0  0  0  0
   -6.5510    1.9298   -1.0471 H   0  0  0  0  0  0  0  0  0  0  0  0
   -6.4794    1.4721    0.6875 H   0  0  0  0  0  0  0  0  0  0  0  0
   -5.7151   -0.2911   -1.6999 H   0  0  0  0  0  0  0  0  0  0  0  0
   -5.5651   -0.7206    0.0879 H   0  0  0  0  0  0  0  0  0  0  0  0
   -4.2735    1.6893   -1.2771 H   0  0  0  0  0  0  0  0  0  0  0  0
   -4.0898    1.2133    0.4332 H   0  0  0  0  0  0  0  0  0  0  0  0
   -3.2720   -0.6387   -1.9050 H   0  0  0  0  0  0  0  0  0  0  0  0
   -1.8851    1.7184   -1.0209 H   0  0  0  0  0  0  0  0  0  0  0  0
   -0.6172   -0.9990   -0.3770 H   0  0  0  0  0  0  0  0  0  0  0  0
    0.6008    1.5875   -1.4233 H   0  0  0  0  0  0  0  0  0  0  0  0
   -0.7385    2.2469    0.8203 H   0  0  0  0  0  0  0  0  0  0  0  0
    1.0737    2.6463    0.7211 H   0  0  0  0  0  0  0  0  0  0  0  0
    0.7665    1.3180    2.8120 H   0  0  0  0  0  0  0  0  0  0  0  0
   -0.0546    0.0252    1.7607 H   0  0  0  0  0  0  0  0  0  0  0  0
    3.0649   -1.3517   -0.4574 H   0  0  0  0  0  0  0  0  0  0  0  0
    2.0245   -0.9538   -1.8876 H   0  0  0  0  0  0  0  0  0  0  0  0
    3.1659    1.2444   -2.0695 H   0  0  0  0  0  0  0  0  0  0  0  0
    4.0968    0.8121   -0.6121 H   0  0  0  0  0  0  0  0  0  0  0  0
    4.8483   -2.3478   -0.9472 H   0  0  0  0  0  0  0  0  0  0  0  0
    6.2200   -2.3897   -2.0779 H   0  0  0  0  0  0  0  0  0  0  0  0
    7.1700   -0.3166   -1.1254 H   0  0  0  0  0  0  0  0  0  0  0  0
    5.7817   -0.1849    0.0165 H   0  0  0  0  0  0  0  0  0  0  0  0
    6.5749   -2.2227    1.2235 H   0  0  0  0  0  0  0  0  0  0  0  0
    7.9355   -2.3822    0.0787 H   0  0  0  0  0  0  0  0  0  0  0  0
    7.9085    0.3155    3.1949 H   0  0  0  0  0  0  0  0  0  0  0  0
   -2.6457   -0.7852    0.8643 H   0  0  0  0  0  0  0  0  0  0  0  0
  1  2  1  0
  2  3  1  0
  3  4  1  0
  4  5  1  0
  5  6  1  0
  6  7  1  0
  7  8  2  0
  8  9  1  0
  9 10  1  0
 10 11  1  0
 11 12  1  0
 12 13  2  0
 12 14  1  0
 14 15  1  0
 15 16  1  0
 16 17  1  0
 17 18  1  0
 18 19  1  0
 19 20  1  0
 20 21  1  0
 21 22  2  0
 21 23  1  0
  6 24  1  0
 14  9  1  0
  1 25  1  0
  1 26  1  0
  1 27  1  0
  2 28  1  0
  2 29  1  0
  3 30  1  0
  3 31  1  0
  4 32  1  0
  4 33  1  0
  5 34  1  0
  5 35  1  0
  6 36  1  6
  7 37  1  0
  8 38  1  0
  9 39  1  6
 10 40  1  0
 10 41  1  0
 11 42  1  0
 11 43  1  0
 15 44  1  0
 15 45  1  0
 16 46  1  0
 16 47  1  0
 18 48  1  0
 18 49  1  0
 19 50  1  0
 19 51  1  0
 20 52  1  0
 20 53  1  0
 23 54  1  0
 24 55  1  0
M  END
>  <Ligand ID>  (1) 
LIG0004192

>  <Ligand>  (1) 
CHEMBL223151

>  <SMILES>  (1) 
CCCCC[C@@H](/C=C/[C@H]1CCC(=O)N1CCSCCCC(=O)O)O

>  <CID>  (1) 
9885106.0

>  <ChEMBL ID>  (1) 
nan

>  <InChiKey>  (1) 
LDTVAEAOOFGOEC-OZVGAOPWSA-N

>  <InChi>  (1) 
InChI=1S/C18H31NO4S/c1-2-3-4-6-16(20)10-8-15-9-11-17(21)19(15)12-14-24-13-5-7-18(22)23/h8,10,15-16,20H,2-7,9,11-14H2,1H3,(H,22,23)/b10-8+/t15-,16-/m0/s1

>  <IUPAC Name>  (1) 
4-[2-[(2R)-2-[(E,3S)-3-hydroxyoct-1-enyl]-5-oxopyrrolidin-1-yl]ethylsulfanyl]butanoic acid

$$$$
