
     RDKit          3D

 16 16  0  0  0  0  0  0  0  0999 V2000
    2.3286   -0.3413   -0.0865 C   0  0  0  0  0  0  0  0  0  0  0  0
    0.8820    0.0074   -0.0576 C   0  0  0  0  0  0  0  0  0  0  0  0
    0.4461    1.3096    0.0389 C   0  0  0  0  0  0  0  0  0  0  0  0
   -0.8880    1.6649    0.0680 C   0  0  0  0  0  0  0  0  0  0  0  0
   -1.8302    0.6363   -0.0052 C   0  0  0  0  0  0  0  0  0  0  0  0
   -1.4057   -0.6951   -0.1037 C   0  0  0  0  0  0  0  0  0  0  0  0
   -0.0674   -1.0064   -0.1296 C   0  0  0  0  0  0  0  0  0  0  0  0
   -2.3502   -1.7375   -0.1779 O   0  0  0  0  0  0  0  0  0  0  0  0
    2.5292   -1.2443   -0.7015 H   0  0  0  0  0  0  0  0  0  0  0  0
    2.8786    0.4957   -0.5360 H   0  0  0  0  0  0  0  0  0  0  0  0
    2.7461   -0.5110    0.9453 H   0  0  0  0  0  0  0  0  0  0  0  0
    1.1867    2.0967    0.0949 H   0  0  0  0  0  0  0  0  0  0  0  0
   -1.2182    2.7038    0.1450 H   0  0  0  0  0  0  0  0  0  0  0  0
   -2.9019    0.8477    0.0128 H   0  0  0  0  0  0  0  0  0  0  0  0
    0.2118   -2.0479   -0.2066 H   0  0  0  0  0  0  0  0  0  0  0  0
   -2.5475   -2.1784    0.6997 H   0  0  0  0  0  0  0  0  0  0  0  0
  1  2  1  0
  2  3  2  0
  3  4  1  0
  4  5  2  0
  5  6  1  0
  6  7  2  0
  6  8  1  0
  7  2  1  0
  1  9  1  0
  1 10  1  0
  1 11  1  0
  3 12  1  0
  4 13  1  0
  5 14  1  0
  7 15  1  0
  8 16  1  0
M  END
>  <Ligand ID>  (1) 
LIG0000537

>  <Ligand>  (1) 
M-Cresol

>  <SMILES>  (1) 
Cc1cccc(c1)O

>  <CID>  (1) 
342.0

>  <ChEMBL ID>  (1) 
nan

>  <InChiKey>  (1) 
RLSSMJSEOOYNOY-UHFFFAOYSA-N

>  <InChi>  (1) 
InChI=1S/C7H8O/c1-6-3-2-4-7(8)5-6/h2-5,8H,1H3

>  <IUPAC Name>  (1) 
3-methylphenol

$$$$
