
     RDKit          3D

 56 58  0  0  0  0  0  0  0  0999 V2000
    6.3745   -1.4772    2.9285 O   0  0  0  0  0  0  0  0  0  0  0  0
    5.1004   -1.1047    2.4709 C   0  0  0  0  0  0  0  0  0  0  0  0
    5.0686   -0.9557    0.9792 C   0  0  0  0  0  0  0  0  0  0  0  0
    6.0132    0.1339    0.5137 C   0  0  0  0  0  0  0  0  0  0  0  0
    5.9563    0.3099   -0.8546 O   0  0  0  0  0  0  0  0  0  0  0  0
    6.9845    1.5051   -1.4094 P   0  0  0  0  0  0  0  0  0  0  0  0
    6.1791    2.6242   -2.0392 O   0  0  0  0  0  0  0  0  0  0  0  0
    7.9768    0.8379   -2.6037 O   0  0  0  0  0  0  0  0  0  0  0  0
    7.9030    2.1847   -0.1596 O   0  0  0  0  0  0  0  0  0  0  0  0
    3.6490   -0.6733    0.5513 C   0  0  0  0  0  0  0  0  0  0  0  0
    3.1103    0.6057    1.1818 C   0  0  0  0  0  0  0  0  0  0  0  0
    1.7050    0.7247    0.6498 C   0  0  0  0  0  0  0  0  0  0  0  0
    0.6327    0.1565    1.3204 C   0  0  0  0  0  0  0  0  0  0  0  0
   -0.6553    0.2591    0.8433 C   0  0  0  0  0  0  0  0  0  0  0  0
   -0.8942    0.9431   -0.3314 C   0  0  0  0  0  0  0  0  0  0  0  0
    0.1563    1.5173   -1.0170 C   0  0  0  0  0  0  0  0  0  0  0  0
    1.4656    1.4169   -0.5383 C   0  0  0  0  0  0  0  0  0  0  0  0
   -2.2504    1.0646   -0.8556 C   0  0  0  0  0  0  0  0  0  0  0  0
   -2.6788    1.6848   -1.9718 N   0  0  0  0  0  0  0  0  0  0  0  0
   -4.0107    1.5472   -2.0668 N   0  0  0  0  0  0  0  0  0  0  0  0
   -4.4504    0.8493   -1.0324 N   0  0  0  0  0  0  0  0  0  0  0  0
   -3.3847    0.5404   -0.2718 C   0  0  0  0  0  0  0  0  0  0  0  0
   -5.7766    0.4530   -0.7036 C   0  0  0  0  0  0  0  0  0  0  0  0
   -5.9821   -0.9208   -0.5651 C   0  0  0  0  0  0  0  0  0  0  0  0
   -7.2395   -1.3921   -0.2470 C   0  0  0  0  0  0  0  0  0  0  0  0
   -8.2961   -0.5326   -0.0633 C   0  0  0  0  0  0  0  0  0  0  0  0
   -8.0567    0.8313   -0.2088 C   0  0  0  0  0  0  0  0  0  0  0  0
   -6.8127    1.3312   -0.5258 C   0  0  0  0  0  0  0  0  0  0  0  0
   -9.5593   -1.0290    0.2578 O   0  0  0  0  0  0  0  0  0  0  0  0
  -10.4930   -1.3682   -0.7785 C   0  0  0  0  0  0  0  0  0  0  0  0
  -11.6301   -1.8219   -0.1678 F   0  0  0  0  0  0  0  0  0  0  0  0
  -10.7144   -0.2271   -1.4997 F   0  0  0  0  0  0  0  0  0  0  0  0
   -9.9478   -2.3685   -1.5914 F   0  0  0  0  0  0  0  0  0  0  0  0
    5.4286   -2.2236    0.3387 N   0  0  0  0  0  0  0  0  0  0  0  0
    6.8664   -1.9739    2.2304 H   0  0  0  0  0  0  0  0  0  0  0  0
    4.3875   -1.8320    2.8594 H   0  0  0  0  0  0  0  0  0  0  0  0
    4.8220   -0.1031    2.9035 H   0  0  0  0  0  0  0  0  0  0  0  0
    5.7017    1.0824    0.9956 H   0  0  0  0  0  0  0  0  0  0  0  0
    7.0501   -0.0592    0.8681 H   0  0  0  0  0  0  0  0  0  0  0  0
    7.9494    1.3776   -3.4294 H   0  0  0  0  0  0  0  0  0  0  0  0
    8.4668    1.4424    0.2127 H   0  0  0  0  0  0  0  0  0  0  0  0
    3.5748   -0.5975   -0.5564 H   0  0  0  0  0  0  0  0  0  0  0  0
    3.0364   -1.5423    0.8329 H   0  0  0  0  0  0  0  0  0  0  0  0
    3.7088    1.4787    0.9061 H   0  0  0  0  0  0  0  0  0  0  0  0
    2.9758    0.4845    2.2754 H   0  0  0  0  0  0  0  0  0  0  0  0
    0.8770   -0.3703    2.2395 H   0  0  0  0  0  0  0  0  0  0  0  0
   -1.4654   -0.2018    1.4016 H   0  0  0  0  0  0  0  0  0  0  0  0
    0.0382    2.0676   -1.9442 H   0  0  0  0  0  0  0  0  0  0  0  0
    2.2783    1.8809   -1.1011 H   0  0  0  0  0  0  0  0  0  0  0  0
   -3.3973   -0.0200    0.6406 H   0  0  0  0  0  0  0  0  0  0  0  0
   -5.1619   -1.6315   -0.7048 H   0  0  0  0  0  0  0  0  0  0  0  0
   -7.3395   -2.4816   -0.1516 H   0  0  0  0  0  0  0  0  0  0  0  0
   -8.9078    1.4726   -0.0574 H   0  0  0  0  0  0  0  0  0  0  0  0
   -6.6327    2.3770   -0.6365 H   0  0  0  0  0  0  0  0  0  0  0  0
    4.5727   -2.8216    0.3355 H   0  0  0  0  0  0  0  0  0  0  0  0
    5.7274   -2.0863   -0.6525 H   0  0  0  0  0  0  0  0  0  0  0  0
  1  2  1  0
  2  3  1  0
  3  4  1  0
  4  5  1  0
  5  6  1  0
  6  7  2  0
  6  8  1  0
  6  9  1  0
  3 10  1  0
 10 11  1  0
 11 12  1  0
 12 13  2  0
 13 14  1  0
 14 15  2  0
 15 16  1  0
 16 17  2  0
 15 18  1  0
 18 19  1  0
 19 20  2  0
 20 21  1  0
 21 22  1  0
 21 23  1  0
 23 24  2  0
 24 25  1  0
 25 26  2  0
 26 27  1  0
 27 28  2  0
 26 29  1  0
 29 30  1  0
 30 31  1  0
 30 32  1  0
 30 33  1  0
  3 34  1  0
 17 12  1  0
 22 18  2  0
 28 23  1  0
  1 35  1  0
  2 36  1  0
  2 37  1  0
  4 38  1  0
  4 39  1  0
  8 40  1  0
  9 41  1  0
 10 42  1  0
 10 43  1  0
 11 44  1  0
 11 45  1  0
 13 46  1  0
 14 47  1  0
 16 48  1  0
 17 49  1  0
 22 50  1  0
 24 51  1  0
 25 52  1  0
 27 53  1  0
 28 54  1  0
 34 55  1  0
 34 56  1  0
M  END
>  <Ligand ID>  (1) 
LIG0005916

>  <Ligand>  (1) 
CHEMBL3342007

>  <SMILES>  (1) 
OCC(COP(=O)(O)O)(CCc1ccc(cc1)c1nnn(c1)c1ccc(cc1)OC(F)(F)F)N

>  <CID>  (1) 
118716182.0

>  <ChEMBL ID>  (1) 
nan

>  <InChiKey>  (1) 
MGNDDFZWNSKXTJ-UHFFFAOYSA-N

>  <InChi>  (1) 
InChI=1S/C20H22F3N4O6P/c21-20(22,23)33-17-7-5-16(6-8-17)27-11-18(25-26-27)15-3-1-14(2-4-15)9-10-19(24,12-28)13-32-34(29,30)31/h1-8,11,28H,9-10,12-13,24H2,(H2,29,30,31)

>  <IUPAC Name>  (1) 
[2-amino-2-(hydroxymethyl)-4-[4-[1-[4-(trifluoromethoxy)phenyl]triazol-4-yl]phenyl]butyl] dihydrogen phosphate

$$$$
