
     RDKit          3D

 67 74  0  0  0  0  0  0  0  0999 V2000
   -0.7194   -3.6475   -3.3312 O   0  0  0  0  0  0  0  0  0  0  0  0
   -1.5928   -2.8013   -2.6620 C   0  0  0  0  0  0  0  0  0  0  0  0
   -2.8381   -2.4543   -3.1932 C   0  0  0  0  0  0  0  0  0  0  0  0
   -3.7067   -1.6002   -2.5063 C   0  0  0  0  0  0  0  0  0  0  0  0
   -3.3202   -1.0933   -1.2791 C   0  0  0  0  0  0  0  0  0  0  0  0
   -2.1029   -1.4627   -0.8109 C   0  0  0  0  0  0  0  0  0  0  0  0
   -1.2071   -2.2880   -1.4249 C   0  0  0  0  0  0  0  0  0  0  0  0
   -0.0945   -2.3966   -0.6063 O   0  0  0  0  0  0  0  0  0  0  0  0
   -0.1128   -1.2837    0.3162 C   0  0  2  0  0  0  0  0  0  0  0  0
   -1.5657   -0.9905    0.5016 C   0  0  2  0  0  0  0  0  0  0  0  0
   -2.1975   -1.7960    1.5818 C   0  0  0  0  0  0  0  0  0  0  0  0
   -2.9920   -0.9710    2.5597 C   0  0  0  0  0  0  0  0  0  0  0  0
   -3.9110   -0.1358    1.8743 N   0  0  0  0  0  0  0  0  0  0  0  0
   -3.4564    0.4841    0.6657 C   0  0  0  0  0  0  0  0  0  0  0  0
   -4.1523   -0.1825   -0.4877 C   0  0  0  0  0  0  0  0  0  0  0  0
   -1.9426    0.4595    0.5850 C   0  0  1  0  0  0  0  0  0  0  0  0
   -1.4896    1.0890    1.7439 O   0  0  0  0  0  0  0  0  0  0  0  0
   -1.4270    1.2367   -0.5771 C   0  0  0  0  0  0  0  0  0  0  0  0
    0.0252    0.9643   -0.7180 C   0  0  0  0  0  0  0  0  0  0  0  0
    0.6380   -0.1936   -0.3096 C   0  0  0  0  0  0  0  0  0  0  0  0
    1.9610   -0.1171   -0.5865 N   0  0  0  0  0  0  0  0  0  0  0  0
    3.0096   -1.0767   -0.3493 C   0  0  0  0  0  0  0  0  0  0  0  0
    3.6835   -0.9549    0.9453 C   0  0  0  0  0  0  0  0  0  0  0  0
    3.3005   -1.6254    2.0874 C   0  0  0  0  0  0  0  0  0  0  0  0
    3.9471   -1.4976    3.2988 C   0  0  0  0  0  0  0  0  0  0  0  0
    5.0397   -0.6687    3.4284 C   0  0  0  0  0  0  0  0  0  0  0  0
    5.4481    0.0162    2.3040 C   0  0  0  0  0  0  0  0  0  0  0  0
    4.7906   -0.1159    1.0790 C   0  0  0  0  0  0  0  0  0  0  0  0
    2.1844    1.0976   -1.1736 C   0  0  0  0  0  0  0  0  0  0  0  0
    0.9963    1.7922   -1.2682 C   0  0  0  0  0  0  0  0  0  0  0  0
    0.8993    3.1560   -1.8644 C   0  0  0  0  0  0  0  0  0  0  0  0
    2.2700    3.7871   -1.9059 C   0  0  0  0  0  0  0  0  0  0  0  0
    3.1534    2.7915   -2.6701 C   0  0  0  0  0  0  0  0  0  0  0  0
    3.4675    1.7018   -1.6821 C   0  0  0  0  0  0  0  0  0  0  0  0
   -4.7328    0.6816    2.6953 C   0  0  0  0  0  0  0  0  0  0  0  0
    0.2892   -3.5363   -3.1592 H   0  0  0  0  0  0  0  0  0  0  0  0
   -3.1325   -2.8530   -4.1492 H   0  0  0  0  0  0  0  0  0  0  0  0
   -4.6671   -1.3363   -2.9228 H   0  0  0  0  0  0  0  0  0  0  0  0
    0.3054   -1.6680    1.2562 H   0  0  0  0  0  0  0  0  0  0  0  0
   -2.9092   -2.5682    1.1694 H   0  0  0  0  0  0  0  0  0  0  0  0
   -1.4478   -2.3966    2.1383 H   0  0  0  0  0  0  0  0  0  0  0  0
   -2.3401   -0.4636    3.3020 H   0  0  0  0  0  0  0  0  0  0  0  0
   -3.5874   -1.6905    3.1736 H   0  0  0  0  0  0  0  0  0  0  0  0
   -3.7260    1.5753    0.6322 H   0  0  0  0  0  0  0  0  0  0  0  0
   -4.6734    0.5745   -1.1468 H   0  0  0  0  0  0  0  0  0  0  0  0
   -5.0194   -0.8128   -0.1252 H   0  0  0  0  0  0  0  0  0  0  0  0
   -1.9651    1.9647    1.7844 H   0  0  0  0  0  0  0  0  0  0  0  0
   -1.8802    0.9480   -1.5471 H   0  0  0  0  0  0  0  0  0  0  0  0
   -1.6240    2.3224   -0.3890 H   0  0  0  0  0  0  0  0  0  0  0  0
    2.6211   -2.1337   -0.4077 H   0  0  0  0  0  0  0  0  0  0  0  0
    3.7857   -1.0511   -1.1651 H   0  0  0  0  0  0  0  0  0  0  0  0
    2.4573   -2.2913    2.0574 H   0  0  0  0  0  0  0  0  0  0  0  0
    3.6336   -2.0331    4.1924 H   0  0  0  0  0  0  0  0  0  0  0  0
    5.5782   -0.5343    4.3502 H   0  0  0  0  0  0  0  0  0  0  0  0
    6.3100    0.6699    2.4071 H   0  0  0  0  0  0  0  0  0  0  0  0
    5.1935    0.4609    0.2726 H   0  0  0  0  0  0  0  0  0  0  0  0
    0.5160    3.1285   -2.9020 H   0  0  0  0  0  0  0  0  0  0  0  0
    0.2088    3.7777   -1.2602 H   0  0  0  0  0  0  0  0  0  0  0  0
    2.7220    3.8775   -0.8984 H   0  0  0  0  0  0  0  0  0  0  0  0
    2.2698    4.7588   -2.3969 H   0  0  0  0  0  0  0  0  0  0  0  0
    2.5257    2.4214   -3.5071 H   0  0  0  0  0  0  0  0  0  0  0  0
    4.0982    3.2650   -2.9929 H   0  0  0  0  0  0  0  0  0  0  0  0
    3.9678    2.2153   -0.8090 H   0  0  0  0  0  0  0  0  0  0  0  0
    4.1432    0.9248   -2.0525 H   0  0  0  0  0  0  0  0  0  0  0  0
   -5.7929    0.3327    2.5760 H   0  0  0  0  0  0  0  0  0  0  0  0
   -4.6301    1.7710    2.4857 H   0  0  0  0  0  0  0  0  0  0  0  0
   -4.4831    0.4759    3.7735 H   0  0  0  0  0  0  0  0  0  0  0  0
  1  2  1  0
  2  3  2  0
  3  4  1  0
  4  5  2  0
  5  6  1  0
  6  7  2  0
  7  8  1  0
  8  9  1  0
  9 10  1  0
 10 11  1  1
 11 12  1  0
 12 13  1  0
 13 14  1  0
 14 15  1  0
 14 16  1  0
 16 17  1  1
 16 18  1  0
 18 19  1  0
 19 20  2  0
 20 21  1  0
 21 22  1  0
 22 23  1  0
 23 24  2  0
 24 25  1  0
 25 26  2  0
 26 27  1  0
 27 28  2  0
 21 29  1  0
 29 30  2  0
 30 31  1  0
 31 32  1  0
 32 33  1  0
 33 34  1  0
 13 35  1  0
  7  2  1  0
 20  9  1  0
 28 23  1  0
 34 29  1  0
 15  5  1  0
 30 19  1  0
 10  6  1  0
 16 10  1  0
  1 36  1  0
  3 37  1  0
  4 38  1  0
  9 39  1  1
 11 40  1  0
 11 41  1  0
 12 42  1  0
 12 43  1  0
 14 44  1  0
 15 45  1  0
 15 46  1  0
 17 47  1  0
 18 48  1  0
 18 49  1  0
 22 50  1  0
 22 51  1  0
 24 52  1  0
 25 53  1  0
 26 54  1  0
 27 55  1  0
 28 56  1  0
 31 57  1  0
 31 58  1  0
 32 59  1  0
 32 60  1  0
 33 61  1  0
 33 62  1  0
 34 63  1  0
 34 64  1  0
 35 65  1  0
 35 66  1  0
 35 67  1  0
M  END
>  <Ligand ID>  (1) 
LIG0004612

>  <Ligand>  (1) 
CHEMBL221421

>  <SMILES>  (1) 
Oc1ccc2c3c1O[C@@H]1[C@@]43CCN(C(C2)[C@]4(O)Cc2c1n(Cc1ccccc1)c1c2CCCC1)C

>  <CID>  (1) 
44421409.0

>  <ChEMBL ID>  (1) 
nan

>  <InChiKey>  (1) 
IEAHEBXTBRYCRM-JYBLDVITSA-N

>  <InChi>  (1) 
InChI=1S/C30H32N2O3/c1-31-14-13-29-25-19-11-12-23(33)27(25)35-28(29)26-21(16-30(29,34)24(31)15-19)20-9-5-6-10-22(20)32(26)17-18-7-3-2-4-8-18/h2-4,7-8,11-12,24,28,33-34H,5-6,9-10,13-17H2,1H3/t24?,28-,29-,30+/m0/s1

>  <IUPAC Name>  (1) 
(1S,2S,13R)-11-benzyl-22-methyl-14-oxa-11,22-diazaheptacyclo[13.9.1.01,13.02,21.04,12.05,10.019,25]pentacosa-4(12),5(10),15,17,19(25)-pentaene-2,16-diol

$$$$
