
     RDKit          3D

 55 59  0  0  0  0  0  0  0  0999 V2000
   -2.3997   -0.5024   -5.6259 Cl  0  0  0  0  0  0  0  0  0  0  0  0
   -2.1241   -0.8200   -3.8430 C   0  0  0  0  0  0  0  0  0  0  0  0
   -1.0545   -1.3715   -3.2125 C   0  0  0  0  0  0  0  0  0  0  0  0
   -1.1432   -1.4761   -1.8775 C   0  0  0  0  0  0  0  0  0  0  0  0
   -2.2678   -1.0352   -1.2574 C   0  0  0  0  0  0  0  0  0  0  0  0
   -3.3215   -0.4188   -2.5538 S   0  0  0  0  0  0  0  0  0  0  0  0
   -2.5787   -1.0530    0.2032 C   0  0  0  0  0  0  0  0  0  0  0  0
   -2.1820    0.2030    0.8255 C   0  0  0  0  0  0  0  0  0  0  0  0
   -3.0280    1.1037    1.4354 C   0  0  0  0  0  0  0  0  0  0  0  0
   -2.5865    2.2774    1.9930 C   0  0  0  0  0  0  0  0  0  0  0  0
   -1.2436    2.5794    1.9482 C   0  0  0  0  0  0  0  0  0  0  0  0
   -0.3495    1.7088    1.3475 C   0  0  0  0  0  0  0  0  0  0  0  0
   -0.8358    0.5491    0.8040 C   0  0  0  0  0  0  0  0  0  0  0  0
    1.0115    2.0284    1.3095 C   0  0  0  0  0  0  0  0  0  0  0  0
    1.9830    1.1367    0.6857 C   0  0  0  0  0  0  0  0  0  0  0  0
    3.2865    1.4149    0.6345 C   0  0  0  0  0  0  0  0  0  0  0  0
    4.2707    0.5403    0.0179 C   0  0  0  0  0  0  0  0  0  0  0  0
    5.6234    0.9001    0.0026 C   0  0  0  0  0  0  0  0  0  0  0  0
    6.5903    0.1126   -0.5649 C   0  0  0  0  0  0  0  0  0  0  0  0
    6.2786   -1.0880   -1.1570 C   0  0  0  0  0  0  0  0  0  0  0  0
    4.9582   -1.4691   -1.1581 C   0  0  0  0  0  0  0  0  0  0  0  0
    3.9725   -0.6624   -0.5774 C   0  0  0  0  0  0  0  0  0  0  0  0
    7.3741   -1.8802   -1.7468 C   0  0  0  0  0  0  0  0  0  0  0  0
    7.6815   -1.3343   -2.9994 F   0  0  0  0  0  0  0  0  0  0  0  0
    8.4854   -1.7937   -0.9229 F   0  0  0  0  0  0  0  0  0  0  0  0
    6.9844   -3.1701   -1.9683 F   0  0  0  0  0  0  0  0  0  0  0  0
    1.3567    3.2253    1.8944 C   0  0  0  0  0  0  0  0  0  0  0  0
    0.4303    4.0724    2.4875 C   0  0  0  0  0  0  0  0  0  0  0  0
    0.7659    5.1624    3.0169 O   0  0  0  0  0  0  0  0  0  0  0  0
   -0.8696    3.7433    2.5111 N   0  0  0  0  0  0  0  0  0  0  0  0
   -4.0177   -1.3877    0.3016 C   0  0  0  0  0  0  0  0  0  0  0  0
   -4.4324   -2.5846    0.8949 C   0  0  0  0  0  0  0  0  0  0  0  0
   -5.7529   -2.9406    0.9916 C   0  0  0  0  0  0  0  0  0  0  0  0
   -6.7410   -2.1190    0.4994 C   0  0  0  0  0  0  0  0  0  0  0  0
   -6.3696   -0.9298   -0.0929 C   0  0  0  0  0  0  0  0  0  0  0  0
   -5.0286   -0.5863   -0.1819 C   0  0  0  0  0  0  0  0  0  0  0  0
   -8.4194   -2.5971    0.6357 Cl  0  0  0  0  0  0  0  0  0  0  0  0
   -0.1688   -1.7090   -3.7900 H   0  0  0  0  0  0  0  0  0  0  0  0
   -0.3129   -1.9189   -1.2707 H   0  0  0  0  0  0  0  0  0  0  0  0
   -1.9968   -1.9195    0.6357 H   0  0  0  0  0  0  0  0  0  0  0  0
   -4.0861    0.9014    1.5018 H   0  0  0  0  0  0  0  0  0  0  0  0
   -3.2879    2.9558    2.4618 H   0  0  0  0  0  0  0  0  0  0  0  0
   -0.1771   -0.1518    0.3305 H   0  0  0  0  0  0  0  0  0  0  0  0
    1.6948    0.2103    0.2362 H   0  0  0  0  0  0  0  0  0  0  0  0
    3.6578    2.3328    1.0668 H   0  0  0  0  0  0  0  0  0  0  0  0
    5.9189    1.8390    0.4578 H   0  0  0  0  0  0  0  0  0  0  0  0
    7.6278    0.4460   -0.5460 H   0  0  0  0  0  0  0  0  0  0  0  0
    4.6900   -2.4181   -1.6228 H   0  0  0  0  0  0  0  0  0  0  0  0
    2.9795   -1.0345   -0.6238 H   0  0  0  0  0  0  0  0  0  0  0  0
    2.3803    3.5717    1.9223 H   0  0  0  0  0  0  0  0  0  0  0  0
   -1.5662    4.3738    2.9536 H   0  0  0  0  0  0  0  0  0  0  0  0
   -3.6601   -3.2464    1.2898 H   0  0  0  0  0  0  0  0  0  0  0  0
   -6.0652   -3.8751    1.4555 H   0  0  0  0  0  0  0  0  0  0  0  0
   -7.1260   -0.2511   -0.4955 H   0  0  0  0  0  0  0  0  0  0  0  0
   -4.8086    0.3558   -0.6632 H   0  0  0  0  0  0  0  0  0  0  0  0
  1  2  1  0
  2  3  2  0
  3  4  1  0
  4  5  2  0
  5  6  1  0
  5  7  1  0
  7  8  1  0
  8  9  2  0
  9 10  1  0
 10 11  2  0
 11 12  1  0
 12 13  2  0
 12 14  1  0
 14 15  1  0
 15 16  2  0
 16 17  1  0
 17 18  2  0
 18 19  1  0
 19 20  2  0
 20 21  1  0
 21 22  2  0
 20 23  1  0
 23 24  1  0
 23 25  1  0
 23 26  1  0
 14 27  2  0
 27 28  1  0
 28 29  2  0
 28 30  1  0
  7 31  1  0
 31 32  2  0
 32 33  1  0
 33 34  2  0
 34 35  1  0
 35 36  2  0
 34 37  1  0
  6  2  1  0
 13  8  1  0
 22 17  1  0
 36 31  1  0
 30 11  1  0
  3 38  1  0
  4 39  1  0
  7 40  1  0
  9 41  1  0
 10 42  1  0
 13 43  1  0
 15 44  1  0
 16 45  1  0
 18 46  1  0
 19 47  1  0
 21 48  1  0
 22 49  1  0
 27 50  1  0
 30 51  1  0
 32 52  1  0
 33 53  1  0
 35 54  1  0
 36 55  1  0
M  END
>  <Ligand ID>  (1) 
LIG0005877

>  <Ligand>  (1) 
CHEMBL3896898

>  <SMILES>  (1) 
Clc1ccc(s1)C(c1ccc2c(c1)c(/C=C/c1ccc(cc1)C(F)(F)F)cc(=O)[nH]2)c1ccc(cc1)Cl

>  <CID>  (1) 
118329955.0

>  <ChEMBL ID>  (1) 
nan

>  <InChiKey>  (1) 
WYNGERXNJPGMMZ-DAFODLJHSA-N

>  <InChi>  (1) 
InChI=1S/C29H18Cl2F3NOS/c30-22-10-5-18(6-11-22)28(25-13-14-26(31)37-25)20-7-12-24-23(15-20)19(16-27(36)35-24)4-1-17-2-8-21(9-3-17)29(32,33)34/h1-16,28H,(H,35,36)/b4-1+

>  <IUPAC Name>  (1) 
6-[(4-chlorophenyl)-(5-chlorothiophen-2-yl)methyl]-4-[(E)-2-[4-(trifluoromethyl)phenyl]ethenyl]-1H-quinolin-2-one

$$$$
