
     RDKit          3D

 50 51  0  0  0  0  0  0  0  0999 V2000
    1.1138   -0.5611   -0.3210 O   0  0  0  0  0  0  0  0  0  0  0  0
    1.6917    0.5540   -0.4447 C   0  0  0  0  0  0  0  0  0  0  0  0
    3.1637    0.7137   -0.3198 C   0  0  0  0  0  0  0  0  0  0  0  0
    3.7432   -0.6568   -0.0106 C   0  0  1  0  0  0  0  0  0  0  0  0
    5.2249   -0.5526    0.1213 C   0  0  0  0  0  0  0  0  0  0  0  0
    5.7086    0.3741    1.0371 C   0  0  0  0  0  0  0  0  0  0  0  0
    7.0626    0.5554    1.2456 C   0  0  0  0  0  0  0  0  0  0  0  0
    7.9440   -0.2267    0.5021 C   0  0  0  0  0  0  0  0  0  0  0  0
    7.4573   -1.1478   -0.4087 C   0  0  0  0  0  0  0  0  0  0  0  0
    6.0966   -1.3275   -0.6158 C   0  0  0  0  0  0  0  0  0  0  0  0
    3.2223   -1.1712    1.3185 C   0  0  0  0  0  0  0  0  0  0  0  0
    0.8690    1.6968   -0.7163 N   0  0  0  0  0  0  0  0  0  0  0  0
   -0.5613    1.5697   -0.8432 C   0  0  0  0  0  0  0  0  0  0  0  0
   -1.0338    0.3794   -0.7001 N   0  0  0  0  0  0  0  0  0  0  0  0
   -2.5020    0.2631   -0.8329 C   0  0  0  0  0  0  0  0  0  0  0  0
   -2.8281   -1.0982   -1.3464 C   0  0  0  0  0  0  0  0  0  0  0  0
   -4.2856   -1.3254   -1.5442 C   0  0  0  0  0  0  0  0  0  0  0  0
   -5.1387   -1.1947   -0.4101 C   0  0  0  0  0  0  0  0  0  0  0  0
   -5.7080   -2.6040    0.5299 S   0  0  0  0  0  0  0  0  0  0  0  0
   -6.6726   -1.5069    1.7468 C   0  0  0  0  0  0  0  0  0  0  0  0
   -6.4292   -0.4585    1.2962 N   0  0  0  0  0  0  0  0  0  0  0  0
   -5.7069   -0.1234    0.2599 C   0  0  0  0  0  0  0  0  0  0  0  0
   -5.5222    1.3075   -0.1883 C   0  0  0  0  0  0  0  0  0  0  0  0
   -7.3888   -2.1258    2.8060 N   0  0  0  0  0  0  0  0  0  0  0  0
   -1.3598    2.7142   -1.1077 N   0  0  0  0  0  0  0  0  0  0  0  0
    3.5756    1.0195   -1.3035 H   0  0  0  0  0  0  0  0  0  0  0  0
    3.3919    1.4449    0.4536 H   0  0  0  0  0  0  0  0  0  0  0  0
    3.4540   -1.4018   -0.7647 H   0  0  0  0  0  0  0  0  0  0  0  0
    5.0431    0.9932    1.6266 H   0  0  0  0  0  0  0  0  0  0  0  0
    7.4153    1.2883    1.9691 H   0  0  0  0  0  0  0  0  0  0  0  0
    9.0036   -0.1252    0.6251 H   0  0  0  0  0  0  0  0  0  0  0  0
    8.1247   -1.7809   -1.0096 H   0  0  0  0  0  0  0  0  0  0  0  0
    5.7063   -2.0493   -1.3306 H   0  0  0  0  0  0  0  0  0  0  0  0
    3.0764   -0.3114    1.9889 H   0  0  0  0  0  0  0  0  0  0  0  0
    4.0121   -1.8537    1.7176 H   0  0  0  0  0  0  0  0  0  0  0  0
    2.3209   -1.8059    1.2283 H   0  0  0  0  0  0  0  0  0  0  0  0
    1.3062    2.6563   -0.8280 H   0  0  0  0  0  0  0  0  0  0  0  0
   -2.9095    1.0581   -1.4820 H   0  0  0  0  0  0  0  0  0  0  0  0
   -2.8530    0.4221    0.2141 H   0  0  0  0  0  0  0  0  0  0  0  0
   -2.2445   -1.2134   -2.3061 H   0  0  0  0  0  0  0  0  0  0  0  0
   -2.4186   -1.8412   -0.6115 H   0  0  0  0  0  0  0  0  0  0  0  0
   -4.4101   -2.3531   -2.0014 H   0  0  0  0  0  0  0  0  0  0  0  0
   -4.6395   -0.6135   -2.3221 H   0  0  0  0  0  0  0  0  0  0  0  0
   -4.7734    1.8398    0.4119 H   0  0  0  0  0  0  0  0  0  0  0  0
   -5.2819    1.3467   -1.2670 H   0  0  0  0  0  0  0  0  0  0  0  0
   -6.4679    1.8907   -0.0857 H   0  0  0  0  0  0  0  0  0  0  0  0
   -8.1966   -2.7726    2.6604 H   0  0  0  0  0  0  0  0  0  0  0  0
   -7.0555   -1.8934    3.7815 H   0  0  0  0  0  0  0  0  0  0  0  0
   -2.3173    2.8350   -0.6823 H   0  0  0  0  0  0  0  0  0  0  0  0
   -1.0231    3.4805   -1.7366 H   0  0  0  0  0  0  0  0  0  0  0  0
  1  2  2  0
  2  3  1  0
  3  4  1  0
  4  5  1  0
  5  6  2  0
  6  7  1  0
  7  8  2  0
  8  9  1  0
  9 10  2  0
  4 11  1  0
  2 12  1  0
 12 13  1  0
 13 14  2  3
 14 15  1  0
 15 16  1  0
 16 17  1  0
 17 18  1  0
 18 19  1  0
 19 20  1  0
 20 21  2  0
 21 22  1  0
 22 23  1  0
 20 24  1  0
 13 25  1  0
 10  5  1  0
 22 18  2  0
  3 26  1  0
  3 27  1  0
  4 28  1  6
  6 29  1  0
  7 30  1  0
  8 31  1  0
  9 32  1  0
 10 33  1  0
 11 34  1  0
 11 35  1  0
 11 36  1  0
 12 37  1  0
 15 38  1  0
 15 39  1  0
 16 40  1  0
 16 41  1  0
 17 42  1  0
 17 43  1  0
 23 44  1  0
 23 45  1  0
 23 46  1  0
 24 47  1  0
 24 48  1  0
 25 49  1  0
 25 50  1  0
M  END
>  <Ligand ID>  (1) 
LIG0000948

>  <Ligand>  (1) 
CHEMBL1098442

>  <SMILES>  (1) 
O=C(C[C@@H](c1ccccc1)C)NC(=NCCCc1sc(nc1C)N)N

>  <CID>  (1) 
46887078.0

>  <ChEMBL ID>  (1) 
nan

>  <InChiKey>  (1) 
QFKNUCVKOWGNCX-LBPRGKRZSA-N

>  <InChi>  (1) 
InChI=1S/C18H25N5OS/c1-12(14-7-4-3-5-8-14)11-16(24)23-17(19)21-10-6-9-15-13(2)22-18(20)25-15/h3-5,7-8,12H,6,9-11H2,1-2H3,(H2,20,22)(H3,19,21,23,24)/t12-/m0/s1

>  <IUPAC Name>  (1) 
(3S)-N-[N'-[3-(2-amino-4-methyl-1,3-thiazol-5-yl)propyl]carbamimidoyl]-3-phenylbutanamide

$$$$
