
     RDKit          3D

131136  0  0  0  0  0  0  0  0999 V2000
   -2.1337   -2.8915   -3.7864 C   0  0  0  0  0  0  0  0  0  0  0  0
   -2.9120   -2.0886   -2.7067 C   0  0  0  0  0  0  0  0  0  0  0  0
   -2.4284   -0.6895   -2.6715 C   0  0  0  0  0  0  0  0  0  0  0  0
   -3.0003    0.2574   -1.6980 C   0  0  1  0  0  0  0  0  0  0  0  0
   -4.4375    0.4984   -1.8089 C   0  0  0  0  0  0  0  0  0  0  0  0
   -5.0342    0.8328   -2.8857 O   0  0  0  0  0  0  0  0  0  0  0  0
   -5.2424    0.3622   -0.6653 N   0  0  0  0  0  0  0  0  0  0  0  0
   -6.6645    0.5659   -0.5606 C   0  0  2  0  0  0  0  0  0  0  0  0
   -6.9447    1.8783    0.1459 C   0  0  0  0  0  0  0  0  0  0  0  0
   -5.9683    2.6499    0.4503 O   0  0  0  0  0  0  0  0  0  0  0  0
   -8.2305    2.2604    0.4731 O   0  0  0  0  0  0  0  0  0  0  0  0
   -8.5472    3.4749    1.1374 C   0  0  0  0  0  0  0  0  0  0  0  0
  -10.0155    3.5201    1.3440 C   0  0  0  0  0  0  0  0  0  0  0  0
  -10.4735    2.9778    2.5533 C   0  0  0  0  0  0  0  0  0  0  0  0
  -11.8243    2.9598    2.8624 C   0  0  0  0  0  0  0  0  0  0  0  0
  -12.6849    3.4889    1.9456 C   0  0  0  0  0  0  0  0  0  0  0  0
  -12.2642    4.0295    0.7477 C   0  0  0  0  0  0  0  0  0  0  0  0
  -10.9098    4.0436    0.4463 C   0  0  0  0  0  0  0  0  0  0  0  0
   -7.2562   -0.5316    0.2808 C   0  0  0  0  0  0  0  0  0  0  0  0
   -7.0166   -1.8382   -0.3438 C   0  0  0  0  0  0  0  0  0  0  0  0
   -6.1391   -2.8545   -0.0514 C   0  0  0  0  0  0  0  0  0  0  0  0
   -6.3296   -3.8705   -0.9388 N   0  0  0  0  0  0  0  0  0  0  0  0
   -7.3072   -3.5488   -1.8056 C   0  0  0  0  0  0  0  0  0  0  0  0
   -7.7471   -2.2834   -1.4487 C   0  0  0  0  0  0  0  0  0  0  0  0
   -8.7759   -1.7049   -2.1964 C   0  0  0  0  0  0  0  0  0  0  0  0
   -9.3486   -2.3661   -3.2658 C   0  0  0  0  0  0  0  0  0  0  0  0
   -8.8835   -3.6228   -3.5892 C   0  0  0  0  0  0  0  0  0  0  0  0
   -7.8676   -4.2414   -2.8825 C   0  0  0  0  0  0  0  0  0  0  0  0
   -2.6174    0.0082   -0.3088 N   0  0  0  0  0  0  0  0  0  0  0  0
   -1.6983    0.9161    0.3207 C   0  0  0  0  0  0  0  0  0  0  0  0
   -1.1952    1.8938   -0.2767 O   0  0  0  0  0  0  0  0  0  0  0  0
   -1.3047    0.7079    1.7804 C   0  0  2  0  0  0  0  0  0  0  0  0
   -2.5482    1.0479    2.5889 C   0  0  0  0  0  0  0  0  0  0  0  0
   -2.2734    2.4397    3.0674 C   0  0  0  0  0  0  0  0  0  0  0  0
   -1.0442    2.9150    2.3549 C   0  0  0  0  0  0  0  0  0  0  0  0
   -0.2843    1.6528    2.1455 N   0  0  0  0  0  0  0  0  0  0  0  0
    1.0992    1.6367    2.2824 C   0  0  0  0  0  0  0  0  0  0  0  0
    1.6231    2.8103    2.5280 O   0  0  0  0  0  0  0  0  0  0  0  0
    2.0690    0.5556    2.1985 C   0  0  2  0  0  0  0  0  0  0  0  0
    2.2321   -0.2004    3.5388 C   0  0  0  0  0  0  0  0  0  0  0  0
    0.9783   -0.7898    3.9532 C   0  0  0  0  0  0  0  0  0  0  0  0
    0.6570   -2.0639    3.4620 C   0  0  0  0  0  0  0  0  0  0  0  0
   -0.4749   -2.7037    3.8514 C   0  0  0  0  0  0  0  0  0  0  0  0
   -1.3214   -2.0810    4.7490 C   0  0  0  0  0  0  0  0  0  0  0  0
   -0.9942   -0.8238    5.2263 C   0  0  0  0  0  0  0  0  0  0  0  0
    0.1510   -0.1539    4.8441 C   0  0  0  0  0  0  0  0  0  0  0  0
    3.4462    1.1452    2.0429 N   0  0  0  0  0  0  0  0  0  0  0  0
    4.4494    0.4429    1.3322 C   0  0  0  0  0  0  0  0  0  0  0  0
    4.2300   -0.7022    0.7982 O   0  0  0  0  0  0  0  0  0  0  0  0
    5.7870    1.0973    1.2350 C   0  0  0  0  0  0  0  0  0  0  0  0
    6.6630    0.1845    0.5204 N   0  0  0  0  0  0  0  0  0  0  0  0
    8.0314    0.5850    0.3100 C   0  0  0  0  0  0  0  0  0  0  0  0
    8.4659    1.6955    0.7203 O   0  0  0  0  0  0  0  0  0  0  0  0
    8.8842   -0.3991   -0.4153 C   0  0  2  0  0  0  0  0  0  0  0  0
   10.2575    0.0660   -0.5440 N   0  0  0  0  0  0  0  0  0  0  0  0
   11.2312   -0.6137    0.2420 C   0  0  0  0  0  0  0  0  0  0  0  0
   10.9174   -1.5700    1.0164 O   0  0  0  0  0  0  0  0  0  0  0  0
   12.6801   -0.2589    0.2206 C   0  0  2  0  0  0  0  0  0  0  0  0
   13.3686   -0.8156   -0.9854 C   0  0  0  0  0  0  0  0  0  0  0  0
   12.8123   -0.3348   -2.2581 C   0  0  0  0  0  0  0  0  0  0  0  0
   13.3170    0.8266   -2.8232 C   0  0  0  0  0  0  0  0  0  0  0  0
   12.8489    1.3292   -4.0271 C   0  0  0  0  0  0  0  0  0  0  0  0
   11.8318    0.6248   -4.6771 C   0  0  0  0  0  0  0  0  0  0  0  0
   11.3140   -0.5413   -4.1246 C   0  0  0  0  0  0  0  0  0  0  0  0
   11.8002   -1.0197   -2.9220 C   0  0  0  0  0  0  0  0  0  0  0  0
   11.3908    1.1535   -5.8716 O   0  0  0  0  0  0  0  0  0  0  0  0
   13.3034   -0.9229    1.3834 N   0  0  0  0  0  0  0  0  0  0  0  0
    8.3748   -0.7344   -1.7864 C   0  0  0  0  0  0  0  0  0  0  0  0
   -4.3445   -2.1132   -3.2386 C   0  0  0  0  0  0  0  0  0  0  0  0
   -2.5317   -3.9352   -3.7738 H   0  0  0  0  0  0  0  0  0  0  0  0
   -1.0683   -2.9388   -3.5696 H   0  0  0  0  0  0  0  0  0  0  0  0
   -2.4197   -2.4651   -4.7569 H   0  0  0  0  0  0  0  0  0  0  0  0
   -2.8272   -2.6350   -1.7631 H   0  0  0  0  0  0  0  0  0  0  0  0
   -1.3004   -0.7555   -2.5624 H   0  0  0  0  0  0  0  0  0  0  0  0
   -2.5376   -0.2063   -3.6927 H   0  0  0  0  0  0  0  0  0  0  0  0
   -2.5104    1.2637   -1.9222 H   0  0  0  0  0  0  0  0  0  0  0  0
   -4.7685    0.0729    0.2418 H   0  0  0  0  0  0  0  0  0  0  0  0
   -7.1506    0.7031   -1.5447 H   0  0  0  0  0  0  0  0  0  0  0  0
   -8.0047    3.4774    2.1232 H   0  0  0  0  0  0  0  0  0  0  0  0
   -8.1741    4.3604    0.5580 H   0  0  0  0  0  0  0  0  0  0  0  0
   -9.7535    2.5576    3.2750 H   0  0  0  0  0  0  0  0  0  0  0  0
  -12.0992    2.5270    3.8078 H   0  0  0  0  0  0  0  0  0  0  0  0
  -13.7531    3.4638    2.2152 H   0  0  0  0  0  0  0  0  0  0  0  0
  -12.9836    4.4463    0.0351 H   0  0  0  0  0  0  0  0  0  0  0  0
  -10.5398    4.4607   -0.4855 H   0  0  0  0  0  0  0  0  0  0  0  0
   -6.8557   -0.5213    1.3193 H   0  0  0  0  0  0  0  0  0  0  0  0
   -8.3540   -0.3860    0.4029 H   0  0  0  0  0  0  0  0  0  0  0  0
   -5.4223   -2.8146    0.7658 H   0  0  0  0  0  0  0  0  0  0  0  0
   -5.7701   -4.7393   -0.8998 H   0  0  0  0  0  0  0  0  0  0  0  0
   -9.1139   -0.7191   -1.9129 H   0  0  0  0  0  0  0  0  0  0  0  0
  -10.1393   -1.9559   -3.8650 H   0  0  0  0  0  0  0  0  0  0  0  0
   -9.3060   -4.1878   -4.4272 H   0  0  0  0  0  0  0  0  0  0  0  0
   -7.4888   -5.2273   -3.1218 H   0  0  0  0  0  0  0  0  0  0  0  0
   -2.9747   -0.7999    0.2426 H   0  0  0  0  0  0  0  0  0  0  0  0
   -1.0550   -0.3289    1.9639 H   0  0  0  0  0  0  0  0  0  0  0  0
   -3.4372    1.0874    1.8846 H   0  0  0  0  0  0  0  0  0  0  0  0
   -2.7607    0.3295    3.3975 H   0  0  0  0  0  0  0  0  0  0  0  0
   -2.1396    2.4148    4.1670 H   0  0  0  0  0  0  0  0  0  0  0  0
   -3.1468    3.1385    2.9032 H   0  0  0  0  0  0  0  0  0  0  0  0
   -0.5100    3.5880    3.0539 H   0  0  0  0  0  0  0  0  0  0  0  0
   -1.2054    3.4552    1.4262 H   0  0  0  0  0  0  0  0  0  0  0  0
    1.9239   -0.2121    1.4419 H   0  0  0  0  0  0  0  0  0  0  0  0
    2.6858    0.4863    4.2893 H   0  0  0  0  0  0  0  0  0  0  0  0
    2.9765   -1.0342    3.3862 H   0  0  0  0  0  0  0  0  0  0  0  0
    1.3122   -2.5654    2.7557 H   0  0  0  0  0  0  0  0  0  0  0  0
   -0.7711   -3.6853    3.5036 H   0  0  0  0  0  0  0  0  0  0  0  0
   -2.2277   -2.5825    5.0659 H   0  0  0  0  0  0  0  0  0  0  0  0
   -1.6771   -0.3604    5.9297 H   0  0  0  0  0  0  0  0  0  0  0  0
    0.4196    0.8208    5.2034 H   0  0  0  0  0  0  0  0  0  0  0  0
    3.6283    2.0937    2.4805 H   0  0  0  0  0  0  0  0  0  0  0  0
    6.1243    1.2869    2.2783 H   0  0  0  0  0  0  0  0  0  0  0  0
    5.7140    2.0699    0.6966 H   0  0  0  0  0  0  0  0  0  0  0  0
    6.3187   -0.7518    0.1575 H   0  0  0  0  0  0  0  0  0  0  0  0
    8.9006   -1.3248    0.1949 H   0  0  0  0  0  0  0  0  0  0  0  0
   10.5253    0.8603   -1.1720 H   0  0  0  0  0  0  0  0  0  0  0  0
   12.8803    0.8066    0.3054 H   0  0  0  0  0  0  0  0  0  0  0  0
   14.4437   -0.5110   -0.9196 H   0  0  0  0  0  0  0  0  0  0  0  0
   13.3671   -1.9348   -0.9927 H   0  0  0  0  0  0  0  0  0  0  0  0
   14.1104    1.3950   -2.3362 H   0  0  0  0  0  0  0  0  0  0  0  0
   13.2600    2.2433   -4.4538 H   0  0  0  0  0  0  0  0  0  0  0  0
   10.5158   -1.0578   -4.6740 H   0  0  0  0  0  0  0  0  0  0  0  0
   11.4232   -1.9062   -2.4767 H   0  0  0  0  0  0  0  0  0  0  0  0
   12.0284    1.3361   -6.6555 H   0  0  0  0  0  0  0  0  0  0  0  0
   12.9808   -1.9190    1.3304 H   0  0  0  0  0  0  0  0  0  0  0  0
   12.8928   -0.4677    2.2320 H   0  0  0  0  0  0  0  0  0  0  0  0
    8.8991   -0.1246   -2.5607 H   0  0  0  0  0  0  0  0  0  0  0  0
    8.5609   -1.8153   -1.9792 H   0  0  0  0  0  0  0  0  0  0  0  0
    7.2722   -0.5722   -1.7932 H   0  0  0  0  0  0  0  0  0  0  0  0
   -4.4543   -1.4732   -4.1296 H   0  0  0  0  0  0  0  0  0  0  0  0
   -4.5666   -3.1547   -3.6350 H   0  0  0  0  0  0  0  0  0  0  0  0
   -5.0920   -1.8148   -2.4943 H   0  0  0  0  0  0  0  0  0  0  0  0
  1  2  1  0
  2  3  1  0
  3  4  1  0
  4  5  1  0
  5  6  2  0
  5  7  1  0
  7  8  1  0
  8  9  1  0
  9 10  2  0
  9 11  1  0
 11 12  1  0
 12 13  1  0
 13 14  2  0
 14 15  1  0
 15 16  2  0
 16 17  1  0
 17 18  2  0
  8 19  1  0
 19 20  1  0
 20 21  2  0
 21 22  1  0
 22 23  1  0
 23 24  2  0
 24 25  1  0
 25 26  2  0
 26 27  1  0
 27 28  2  0
  4 29  1  0
 29 30  1  0
 30 31  2  0
 30 32  1  0
 32 33  1  0
 33 34  1  0
 34 35  1  0
 35 36  1  0
 36 37  1  0
 37 38  2  0
 37 39  1  0
 39 40  1  0
 40 41  1  0
 41 42  2  0
 42 43  1  0
 43 44  2  0
 44 45  1  0
 45 46  2  0
 39 47  1  0
 47 48  1  0
 48 49  2  0
 48 50  1  0
 50 51  1  0
 51 52  1  0
 52 53  2  0
 52 54  1  0
 54 55  1  0
 55 56  1  0
 56 57  2  0
 56 58  1  0
 58 59  1  0
 59 60  1  0
 60 61  2  0
 61 62  1  0
 62 63  2  0
 63 64  1  0
 64 65  2  0
 63 66  1  0
 58 67  1  0
 54 68  1  0
  2 69  1  0
 18 13  1  0
 24 20  1  0
 36 32  1  0
 46 41  1  0
 65 60  1  0
 28 23  1  0
  1 70  1  0
  1 71  1  0
  1 72  1  0
  2 73  1  0
  3 74  1  0
  3 75  1  0
  4 76  1  6
  7 77  1  0
  8 78  1  6
 12 79  1  0
 12 80  1  0
 14 81  1  0
 15 82  1  0
 16 83  1  0
 17 84  1  0
 18 85  1  0
 19 86  1  0
 19 87  1  0
 21 88  1  0
 22 89  1  0
 25 90  1  0
 26 91  1  0
 27 92  1  0
 28 93  1  0
 29 94  1  0
 32 95  1  6
 33 96  1  0
 33 97  1  0
 34 98  1  0
 34 99  1  0
 35100  1  0
 35101  1  0
 39102  1  6
 40103  1  0
 40104  1  0
 42105  1  0
 43106  1  0
 44107  1  0
 45108  1  0
 46109  1  0
 47110  1  0
 50111  1  0
 50112  1  0
 51113  1  0
 54114  1  1
 55115  1  0
 58116  1  1
 59117  1  0
 59118  1  0
 61119  1  0
 62120  1  0
 64121  1  0
 65122  1  0
 66123  1  0
 67124  1  0
 67125  1  0
 68126  1  0
 68127  1  0
 68128  1  0
 69129  1  0
 69130  1  0
 69131  1  0
M  END
>  <Ligand ID>  (1) 
LIG0005389

>  <Ligand>  (1) 
H-Tyr-D-Ala-Gly-Phe-Pro-Leu-Trp-O-Bzl

>  <SMILES>  (1) 
CC(C[C@@H](C(=O)N[C@H](C(=O)OCc1ccccc1)Cc1c[nH]c2c1cccc2)NC(=O)[C@@H]1CCCN1C(=O)[C@H](Cc1ccccc1)NC(=O)CNC(=O)[C@H](NC(=O)[C@H](Cc1ccc(cc1)O)N)C)C

>  <CID>  (1) 
24768352.0

>  <ChEMBL ID>  (1) 
nan

>  <InChiKey>  (1) 
AWLKNBWKVMBAKT-FDXPNMITSA-N

>  <InChi>  (1) 
InChI=1S/C52H62N8O9/c1-32(2)25-42(49(65)59-44(52(68)69-31-36-15-8-5-9-16-36)28-37-29-54-41-18-11-10-17-39(37)41)58-50(66)45-19-12-24-60(45)51(67)43(27-34-13-6-4-7-14-34)57-46(62)30-55-47(63)33(3)56-48(64)40(53)26-35-20-22-38(61)23-21-35/h4-11,13-18,20-23,29,32-33,40,42-45,54,61H,12,19,24-28,30-31,53H2,1-3H3,(H,55,63)(H,56,64)(H,57,62)(H,58,66)(H,59,65)/t33-,40+,42+,43+,44+,45+/m1/s1

>  <IUPAC Name>  (1) 
benzyl (2S)-2-[[(2S)-2-[[(2S)-1-[(2S)-2-[[2-[[(2R)-2-[[(2S)-2-amino-3-(4-hydroxyphenyl)propanoyl]amino]propanoyl]amino]acetyl]amino]-3-phenylpropanoyl]pyrrolidine-2-carbonyl]amino]-4-methylpentanoyl]amino]-3-(1H-indol-3-yl)propanoate

$$$$
