
     RDKit          3D

 20 20  0  0  0  0  0  0  0  0999 V2000
   -2.1260   -1.4979   -2.2992 O   0  0  0  0  0  0  0  0  0  0  0  0
   -1.7084   -1.2393   -1.1786 C   0  0  0  0  0  0  0  0  0  0  0  0
   -1.3269    0.1303   -0.7736 C   0  0  0  0  0  0  0  0  0  0  0  0
    0.0992    0.1521   -0.3765 C   0  0  0  0  0  0  0  0  0  0  0  0
    0.5043   -0.6472    0.6909 C   0  0  0  0  0  0  0  0  0  0  0  0
    1.8060   -0.6927    1.1310 C   0  0  0  0  0  0  0  0  0  0  0  0
    2.7239    0.0972    0.4670 C   0  0  0  0  0  0  0  0  0  0  0  0
    2.3544    0.8922   -0.5848 C   0  0  0  0  0  0  0  0  0  0  0  0
    1.0457    0.9432   -1.0333 C   0  0  0  0  0  0  0  0  0  0  0  0
   -2.2356    0.5421    0.3648 C   0  0  0  0  0  0  0  0  0  0  0  0
   -1.6064   -2.0375   -0.4343 H   0  0  0  0  0  0  0  0  0  0  0  0
   -1.4685    0.8260   -1.6400 H   0  0  0  0  0  0  0  0  0  0  0  0
   -0.2312   -1.2674    1.2079 H   0  0  0  0  0  0  0  0  0  0  0  0
    2.0855   -1.3283    1.9672 H   0  0  0  0  0  0  0  0  0  0  0  0
    3.7790    0.0962    0.7811 H   0  0  0  0  0  0  0  0  0  0  0  0
    3.0642    1.5149   -1.1123 H   0  0  0  0  0  0  0  0  0  0  0  0
    0.7446    1.5671   -1.8621 H   0  0  0  0  0  0  0  0  0  0  0  0
   -3.2099    0.9041   -0.0343 H   0  0  0  0  0  0  0  0  0  0  0  0
   -2.4902   -0.3385    1.0167 H   0  0  0  0  0  0  0  0  0  0  0  0
   -1.8037    1.3836    0.9705 H   0  0  0  0  0  0  0  0  0  0  0  0
  1  2  2  0
  2  3  1  0
  3  4  1  0
  4  5  2  0
  5  6  1  0
  6  7  2  0
  7  8  1  0
  8  9  2  0
  3 10  1  0
  9  4  1  0
  2 11  1  0
  3 12  1  0
  5 13  1  0
  6 14  1  0
  7 15  1  0
  8 16  1  0
  9 17  1  0
 10 18  1  0
 10 19  1  0
 10 20  1  0
M  END
>  <Ligand ID>  (1) 
LIG0000566

>  <Ligand>  (1) 
2-phenylpropanal

>  <SMILES>  (1) 
O=CC(c1ccccc1)C

>  <CID>  (1) 
7146.0

>  <ChEMBL ID>  (1) 
nan

>  <InChiKey>  (1) 
IQVAERDLDAZARL-UHFFFAOYSA-N

>  <InChi>  (1) 
InChI=1S/C9H10O/c1-8(7-10)9-5-3-2-4-6-9/h2-8H,1H3

>  <IUPAC Name>  (1) 
2-phenylpropanal

$$$$
