
     RDKit          3D

 94 95  0  0  0  0  0  0  0  0999 V2000
   -0.9737   -0.0630    0.0577 C   0  0  0  0  0  0  0  0  0  0  0  0
    0.4560    0.2334   -0.1852 C   0  0  0  0  0  0  0  0  0  0  0  0
    0.7809    1.4221   -0.4490 O   0  0  0  0  0  0  0  0  0  0  0  0
    1.4596   -0.7038   -0.1428 O   0  0  0  0  0  0  0  0  0  0  0  0
   -5.8752    2.3284    1.7022 O   0  0  0  0  0  0  0  0  0  0  0  0
   -7.0885    2.8172    1.2599 C   0  0  0  0  0  0  0  0  0  0  0  0
   -7.8942    1.6855    0.7422 C   0  0  0  0  0  0  0  0  0  0  0  0
   -7.4320    0.3795    0.7434 C   0  0  0  0  0  0  0  0  0  0  0  0
   -8.1953   -0.6537    0.2604 C   0  0  0  0  0  0  0  0  0  0  0  0
   -9.4614   -0.3320   -0.2329 C   0  0  0  0  0  0  0  0  0  0  0  0
   -9.9206    0.9711   -0.2330 C   0  0  0  0  0  0  0  0  0  0  0  0
   -9.1628    2.0104    0.2481 C   0  0  0  0  0  0  0  0  0  0  0  0
   -9.6026    3.3234    0.2578 O   0  0  0  0  0  0  0  0  0  0  0  0
   -7.8000   -2.0656    0.2088 C   0  0  2  0  0  0  0  0  0  0  0  0
   -6.3126   -2.2789    0.2833 C   0  0  0  0  0  0  0  0  0  0  0  0
   -5.6738   -1.6619   -0.8199 N   0  0  0  0  0  0  0  0  0  0  0  0
   -4.2177   -1.8414   -0.8591 C   0  0  0  0  0  0  0  0  0  0  0  0
   -3.8283   -3.2334   -1.1366 C   0  0  0  0  0  0  0  0  0  0  0  0
   -2.3976   -3.6148   -1.1589 C   0  0  0  0  0  0  0  0  0  0  0  0
   -1.4512   -3.0228   -2.1104 C   0  0  0  0  0  0  0  0  0  0  0  0
   -1.1518   -1.5788   -2.0849 C   0  0  0  0  0  0  0  0  0  0  0  0
   -0.6047   -1.1164   -0.7376 C   0  0  0  0  0  0  0  0  0  0  0  0
   -0.3171    0.2087   -0.6821 O   0  0  0  0  0  0  0  0  0  0  0  0
    0.1307    0.6753    0.5361 C   0  0  0  0  0  0  0  0  0  0  0  0
    1.3687   -0.0285    0.9475 C   0  0  0  0  0  0  0  0  0  0  0  0
    1.9814    0.4297    2.2455 C   0  0  0  0  0  0  0  0  0  0  0  0
    2.4285    1.8453    2.2928 C   0  0  0  0  0  0  0  0  0  0  0  0
    3.4766    2.1505    1.2727 C   0  0  0  0  0  0  0  0  0  0  0  0
    3.1931    2.6801    0.0349 C   0  0  0  0  0  0  0  0  0  0  0  0
    4.1845    2.9321   -0.9147 C   0  0  0  0  0  0  0  0  0  0  0  0
    5.4736    2.6294   -0.5681 C   0  0  0  0  0  0  0  0  0  0  0  0
    5.7688    2.0964    0.6741 C   0  0  0  0  0  0  0  0  0  0  0  0
    4.7828    1.8503    1.6087 C   0  0  0  0  0  0  0  0  0  0  0  0
    7.4082    1.6808    1.1284 S   0  0  0  0  0  0  0  0  0  0  0  0
    7.5630    1.7502    2.6196 O   0  0  0  0  0  0  0  0  0  0  0  0
    8.3827    2.6117    0.5111 O   0  0  0  0  0  0  0  0  0  0  0  0
    7.6406   -0.0148    0.6296 C   0  0  0  0  0  0  0  0  0  0  0  0
    7.3968   -0.2229   -0.8341 C   0  0  0  0  0  0  0  0  0  0  0  0
    8.4253    0.4425   -1.6894 C   0  0  0  0  0  0  0  0  0  0  0  0
    9.8412    0.2052   -1.2938 C   0  0  0  0  0  0  0  0  0  0  0  0
   10.0663    0.1468    0.1947 C   0  0  0  0  0  0  0  0  0  0  0  0
    8.9949   -0.5456    0.9637 C   0  0  0  0  0  0  0  0  0  0  0  0
   -8.3078   -2.5913   -1.0075 O   0  0  0  0  0  0  0  0  0  0  0  0
   -1.5329   -0.2968   -0.8573 H   0  0  0  0  0  0  0  0  0  0  0  0
   -1.4283    0.8256    0.5557 H   0  0  0  0  0  0  0  0  0  0  0  0
   -1.1298   -0.9223    0.7471 H   0  0  0  0  0  0  0  0  0  0  0  0
    2.3683   -0.4953    0.2737 H   0  0  0  0  0  0  0  0  0  0  0  0
   -5.2777    3.0394    2.0584 H   0  0  0  0  0  0  0  0  0  0  0  0
   -7.6463    3.2658    2.1221 H   0  0  0  0  0  0  0  0  0  0  0  0
   -6.9327    3.5854    0.4606 H   0  0  0  0  0  0  0  0  0  0  0  0
   -6.4596    0.2026    1.1447 H   0  0  0  0  0  0  0  0  0  0  0  0
  -10.0985   -1.1092   -0.6226 H   0  0  0  0  0  0  0  0  0  0  0  0
  -10.9113    1.1465   -0.6298 H   0  0  0  0  0  0  0  0  0  0  0  0
  -10.4978    3.5131   -0.1800 H   0  0  0  0  0  0  0  0  0  0  0  0
   -8.2331   -2.6496    1.0576 H   0  0  0  0  0  0  0  0  0  0  0  0
   -5.9475   -1.7582    1.2208 H   0  0  0  0  0  0  0  0  0  0  0  0
   -6.0370   -3.3324    0.4472 H   0  0  0  0  0  0  0  0  0  0  0  0
   -5.8607   -0.6597   -0.9476 H   0  0  0  0  0  0  0  0  0  0  0  0
   -3.7419   -1.4561    0.0600 H   0  0  0  0  0  0  0  0  0  0  0  0
   -3.9332   -1.1990   -1.7361 H   0  0  0  0  0  0  0  0  0  0  0  0
   -4.2389   -3.5379   -2.1636 H   0  0  0  0  0  0  0  0  0  0  0  0
   -4.3407   -3.9804   -0.4697 H   0  0  0  0  0  0  0  0  0  0  0  0
   -2.2980   -4.7550   -1.3103 H   0  0  0  0  0  0  0  0  0  0  0  0
   -2.0307   -3.5365   -0.0834 H   0  0  0  0  0  0  0  0  0  0  0  0
   -1.8696   -3.2346   -3.1524 H   0  0  0  0  0  0  0  0  0  0  0  0
   -0.5110   -3.6500   -2.0664 H   0  0  0  0  0  0  0  0  0  0  0  0
   -0.2472   -1.4560   -2.7861 H   0  0  0  0  0  0  0  0  0  0  0  0
   -1.9010   -0.9579   -2.5298 H   0  0  0  0  0  0  0  0  0  0  0  0
   -1.3601   -1.3743    0.0229 H   0  0  0  0  0  0  0  0  0  0  0  0
    0.3192   -1.6953   -0.4990 H   0  0  0  0  0  0  0  0  0  0  0  0
   -0.7142    0.5383    1.2547 H   0  0  0  0  0  0  0  0  0  0  0  0
    0.2330    1.7763    0.4185 H   0  0  0  0  0  0  0  0  0  0  0  0
    1.0540   -1.0987    1.1735 H   0  0  0  0  0  0  0  0  0  0  0  0
    2.0699   -0.0853    0.1181 H   0  0  0  0  0  0  0  0  0  0  0  0
    1.2969    0.2449    3.0936 H   0  0  0  0  0  0  0  0  0  0  0  0
    2.8714   -0.2111    2.4228 H   0  0  0  0  0  0  0  0  0  0  0  0
    2.8897    2.0075    3.2874 H   0  0  0  0  0  0  0  0  0  0  0  0
    1.5907    2.5851    2.2436 H   0  0  0  0  0  0  0  0  0  0  0  0
    2.1991    2.9200   -0.2443 H   0  0  0  0  0  0  0  0  0  0  0  0
    3.9420    3.3421   -1.8655 H   0  0  0  0  0  0  0  0  0  0  0  0
    6.2477    2.8226   -1.2969 H   0  0  0  0  0  0  0  0  0  0  0  0
    5.0054    1.4317    2.5886 H   0  0  0  0  0  0  0  0  0  0  0  0
    6.8577   -0.5970    1.1921 H   0  0  0  0  0  0  0  0  0  0  0  0
    7.3706   -1.3126   -1.0060 H   0  0  0  0  0  0  0  0  0  0  0  0
    6.4059    0.1519   -1.1752 H   0  0  0  0  0  0  0  0  0  0  0  0
    8.2865    0.0125   -2.7250 H   0  0  0  0  0  0  0  0  0  0  0  0
    8.1930    1.5321   -1.8367 H   0  0  0  0  0  0  0  0  0  0  0  0
   10.4195    1.1129   -1.6394 H   0  0  0  0  0  0  0  0  0  0  0  0
   10.2114   -0.7128   -1.7898 H   0  0  0  0  0  0  0  0  0  0  0  0
   11.0111   -0.4457    0.3523 H   0  0  0  0  0  0  0  0  0  0  0  0
   10.2477    1.1381    0.6439 H   0  0  0  0  0  0  0  0  0  0  0  0
    9.1806   -0.3314    2.0464 H   0  0  0  0  0  0  0  0  0  0  0  0
    8.9675   -1.6424    0.8009 H   0  0  0  0  0  0  0  0  0  0  0  0
   -7.5950   -2.6370   -1.6943 H   0  0  0  0  0  0  0  0  0  0  0  0
  1  2  1  0
  2  3  2  0
  2  4  1  0
  5  6  1  0
  6  7  1  0
  7  8  2  0
  8  9  1  0
  9 10  2  0
 10 11  1  0
 11 12  2  0
 12 13  1  0
  9 14  1  0
 14 15  1  0
 15 16  1  0
 16 17  1  0
 17 18  1  0
 18 19  1  0
 19 20  1  0
 20 21  1  0
 21 22  1  0
 22 23  1  0
 23 24  1  0
 24 25  1  0
 25 26  1  0
 26 27  1  0
 27 28  1  0
 28 29  2  0
 29 30  1  0
 30 31  2  0
 31 32  1  0
 32 33  2  0
 32 34  1  0
 34 35  2  0
 34 36  2  0
 34 37  1  0
 37 38  1  0
 38 39  1  0
 39 40  1  0
 40 41  1  0
 41 42  1  0
 14 43  1  0
 12  7  1  0
 33 28  1  0
 42 37  1  0
  1 44  1  0
  1 45  1  0
  1 46  1  0
  4 47  1  0
  5 48  1  0
  6 49  1  0
  6 50  1  0
  8 51  1  0
 10 52  1  0
 11 53  1  0
 13 54  1  0
 14 55  1  1
 15 56  1  0
 15 57  1  0
 16 58  1  0
 17 59  1  0
 17 60  1  0
 18 61  1  0
 18 62  1  0
 19 63  1  0
 19 64  1  0
 20 65  1  0
 20 66  1  0
 21 67  1  0
 21 68  1  0
 22 69  1  0
 22 70  1  0
 24 71  1  0
 24 72  1  0
 25 73  1  0
 25 74  1  0
 26 75  1  0
 26 76  1  0
 27 77  1  0
 27 78  1  0
 29 79  1  0
 30 80  1  0
 31 81  1  0
 33 82  1  0
 37 83  1  0
 38 84  1  0
 38 85  1  0
 39 86  1  0
 39 87  1  0
 40 88  1  0
 40 89  1  0
 41 90  1  0
 41 91  1  0
 42 92  1  0
 42 93  1  0
 43 94  1  0
M  END
>  <Ligand ID>  (1) 
LIG0003356

>  <Ligand>  (1) 
SCHEMBL4628865

>  <SMILES>  (1) 
CC(=O)O.OCc1cc(ccc1O)[C@H](CNCCCCCCOCCCCc1cccc(c1)S(=O)(=O)C1CCCCC1)O

>  <CID>  (1) 
69119890.0

>  <ChEMBL ID>  (1) 
nan

>  <InChiKey>  (1) 
XGUUVCHIJQZJQA-YNMZEGNTSA-N

>  <InChi>  (1) 
InChI=1S/C31H47NO6S.C2H4O2/c33-24-27-22-26(16-17-30(27)34)31(35)23-32-18-7-1-2-8-19-38-20-9-6-11-25-12-10-15-29(21-25)39(36,37)28-13-4-3-5-14-28;1-2(3)4/h10,12,15-17,21-22,28,31-35H,1-9,11,13-14,18-20,23-24H2;1H3,(H,3,4)/t31-;/m0./s1

>  <IUPAC Name>  (1) 
acetic acid;4-[(1R)-2-[6-[4-(3-cyclohexylsulfonylphenyl)butoxy]hexylamino]-1-hydroxyethyl]-2-(hydroxymethyl)phenol

$$$$
