
     RDKit          3D

 56 59  0  0  0  0  0  0  0  0999 V2000
    9.1073    0.2830    1.1682 C   0  0  0  0  0  0  0  0  0  0  0  0
    8.5254    0.4152   -0.0693 O   0  0  0  0  0  0  0  0  0  0  0  0
    7.6641   -0.6263   -0.3977 C   0  0  1  0  0  0  0  0  0  0  0  0
    6.2998   -0.1068   -0.6757 C   0  0  0  0  0  0  0  0  0  0  0  0
    6.0337    0.9447   -1.4081 O   0  0  0  0  0  0  0  0  0  0  0  0
    4.7467    1.1435   -1.4626 N   0  0  0  0  0  0  0  0  0  0  0  0
    4.1121    0.1925   -0.7406 C   0  0  0  0  0  0  0  0  0  0  0  0
    5.1044   -0.5925   -0.2478 N   0  0  0  0  0  0  0  0  0  0  0  0
    2.6966    0.0400   -0.5350 N   0  0  0  0  0  0  0  0  0  0  0  0
    2.1333   -1.0204    0.2437 C   0  0  0  0  0  0  0  0  0  0  0  0
    0.9102   -0.6422    1.0220 C   0  0  0  0  0  0  0  0  0  0  0  0
    0.1881    0.4705    0.4284 N   0  0  0  0  0  0  0  0  0  0  0  0
    0.9756    1.5865   -0.0397 C   0  0  1  0  0  0  0  0  0  0  0  0
    1.8296    1.0225   -1.1585 C   0  0  0  0  0  0  0  0  0  0  0  0
    0.1932    2.7524   -0.5296 C   0  0  0  0  0  0  0  0  0  0  0  0
   -1.2293    0.4221    0.3328 C   0  0  0  0  0  0  0  0  0  0  0  0
   -1.8802   -0.6443    0.8287 N   0  0  0  0  0  0  0  0  0  0  0  0
   -3.2365   -0.7721    0.7772 C   0  0  0  0  0  0  0  0  0  0  0  0
   -3.9305    0.2614    0.1815 C   0  0  0  0  0  0  0  0  0  0  0  0
   -3.2734    1.3710   -0.3364 C   0  0  0  0  0  0  0  0  0  0  0  0
   -1.9334    1.4069   -0.2385 N   0  0  0  0  0  0  0  0  0  0  0  0
   -5.3190    0.2689    0.0573 O   0  0  0  0  0  0  0  0  0  0  0  0
   -6.0371   -0.8366    0.5686 C   0  0  0  0  0  0  0  0  0  0  0  0
   -7.5067   -0.6648    0.3508 C   0  0  0  0  0  0  0  0  0  0  0  0
   -8.3721   -0.3076    1.3613 C   0  0  0  0  0  0  0  0  0  0  0  0
   -9.7160   -0.1819    1.0217 C   0  0  0  0  0  0  0  0  0  0  0  0
  -10.1627   -0.3953   -0.2258 N   0  0  0  0  0  0  0  0  0  0  0  0
   -9.3268   -0.7486   -1.2386 C   0  0  0  0  0  0  0  0  0  0  0  0
   -7.9697   -0.8831   -0.9299 C   0  0  0  0  0  0  0  0  0  0  0  0
   -7.0981   -1.2584   -2.0197 C   0  0  0  0  0  0  0  0  0  0  0  0
   -6.3962   -1.5463   -2.8931 N   0  0  0  0  0  0  0  0  0  0  0  0
    8.1558   -1.4125   -1.5920 C   0  0  0  0  0  0  0  0  0  0  0  0
    9.7244   -0.6554    1.2656 H   0  0  0  0  0  0  0  0  0  0  0  0
    9.8214    1.1273    1.2834 H   0  0  0  0  0  0  0  0  0  0  0  0
    8.3863    0.3238    2.0013 H   0  0  0  0  0  0  0  0  0  0  0  0
    7.6774   -1.3172    0.4703 H   0  0  0  0  0  0  0  0  0  0  0  0
    1.8049   -1.7999   -0.5027 H   0  0  0  0  0  0  0  0  0  0  0  0
    2.8922   -1.5136    0.8780 H   0  0  0  0  0  0  0  0  0  0  0  0
    0.2445   -1.5198    1.1771 H   0  0  0  0  0  0  0  0  0  0  0  0
    1.2317   -0.3168    2.0336 H   0  0  0  0  0  0  0  0  0  0  0  0
    1.6556    1.9418    0.7796 H   0  0  0  0  0  0  0  0  0  0  0  0
    1.1153    0.5211   -1.8542 H   0  0  0  0  0  0  0  0  0  0  0  0
    2.4032    1.8139   -1.6785 H   0  0  0  0  0  0  0  0  0  0  0  0
   -0.3068    2.6000   -1.4987 H   0  0  0  0  0  0  0  0  0  0  0  0
    0.9561    3.5602   -0.7380 H   0  0  0  0  0  0  0  0  0  0  0  0
   -0.4414    3.1885    0.2620 H   0  0  0  0  0  0  0  0  0  0  0  0
   -3.7603   -1.6199    1.1711 H   0  0  0  0  0  0  0  0  0  0  0  0
   -3.8221    2.1912   -0.8089 H   0  0  0  0  0  0  0  0  0  0  0  0
   -5.8642   -0.8746    1.6813 H   0  0  0  0  0  0  0  0  0  0  0  0
   -5.6697   -1.7862    0.1349 H   0  0  0  0  0  0  0  0  0  0  0  0
   -8.0005   -0.1390    2.3584 H   0  0  0  0  0  0  0  0  0  0  0  0
  -10.4472    0.1017    1.7928 H   0  0  0  0  0  0  0  0  0  0  0  0
   -9.6648   -0.9237   -2.2434 H   0  0  0  0  0  0  0  0  0  0  0  0
    9.2452   -1.3378   -1.7495 H   0  0  0  0  0  0  0  0  0  0  0  0
    7.8643   -2.4893   -1.5389 H   0  0  0  0  0  0  0  0  0  0  0  0
    7.6663   -1.0176   -2.5251 H   0  0  0  0  0  0  0  0  0  0  0  0
  1  2  1  0
  2  3  1  0
  3  4  1  0
  4  5  1  0
  5  6  1  0
  6  7  2  0
  7  8  1  0
  7  9  1  0
  9 10  1  0
 10 11  1  0
 11 12  1  0
 12 13  1  0
 13 14  1  0
 13 15  1  0
 12 16  1  0
 16 17  2  0
 17 18  1  0
 18 19  2  0
 19 20  1  0
 20 21  2  0
 19 22  1  0
 22 23  1  0
 23 24  1  0
 24 25  2  0
 25 26  1  0
 26 27  2  0
 27 28  1  0
 28 29  2  0
 29 30  1  0
 30 31  3  0
  3 32  1  0
  8  4  2  0
 14  9  1  0
 21 16  1  0
 29 24  1  0
  1 33  1  0
  1 34  1  0
  1 35  1  0
  3 36  1  1
 10 37  1  0
 10 38  1  0
 11 39  1  0
 11 40  1  0
 13 41  1  1
 14 42  1  0
 14 43  1  0
 15 44  1  0
 15 45  1  0
 15 46  1  0
 18 47  1  0
 20 48  1  0
 23 49  1  0
 23 50  1  0
 25 51  1  0
 26 52  1  0
 28 53  1  0
 32 54  1  0
 32 55  1  0
 32 56  1  0
M  END
>  <Ligand ID>  (1) 
LIG0005309

>  <Ligand>  (1) 
SCHEMBL1448172

>  <SMILES>  (1) 
CO[C@@H](c1onc(n1)N1CCN([C@@H](C1)C)c1ncc(cn1)OCc1ccncc1C#N)C

>  <CID>  (1) 
51030900.0

>  <ChEMBL ID>  (1) 
nan

>  <InChiKey>  (1) 
ZEAUVGIZONYILM-HUUCEWRRSA-N

>  <InChi>  (1) 
InChI=1S/C21H24N8O3/c1-14-12-28(21-26-19(32-27-21)15(2)30-3)6-7-29(14)20-24-10-18(11-25-20)31-13-16-4-5-23-9-17(16)8-22/h4-5,9-11,14-15H,6-7,12-13H2,1-3H3/t14-,15-/m1/s1

>  <IUPAC Name>  (1) 
4-[[2-[(2R)-4-[5-[(1R)-1-methoxyethyl]-1,2,4-oxadiazol-3-yl]-2-methylpiperazin-1-yl]pyrimidin-5-yl]oxymethyl]pyridine-3-carbonitrile

$$$$
