
     RDKit          3D

 33 33  0  0  0  0  0  0  0  0999 V2000
   -4.1338   -2.9834    1.3787 F   0  0  0  0  0  0  0  0  0  0  0  0
   -3.2265   -1.9167    1.2629 C   0  0  0  0  0  0  0  0  0  0  0  0
   -2.2695   -2.1685    0.1458 C   0  0  0  0  0  0  0  0  0  0  0  0
   -1.3109   -1.2124   -0.0969 O   0  0  0  0  0  0  0  0  0  0  0  0
   -1.3701    0.0884   -0.4614 C   0  0  0  0  0  0  0  0  0  0  0  0
   -2.4870    0.8361   -0.7095 C   0  0  0  0  0  0  0  0  0  0  0  0
   -2.4471    2.1763   -1.0826 C   0  0  0  0  0  0  0  0  0  0  0  0
   -3.5982    2.8514   -1.3112 F   0  0  0  0  0  0  0  0  0  0  0  0
   -1.2501    2.8133   -1.2189 C   0  0  0  0  0  0  0  0  0  0  0  0
   -0.0970    2.0836   -0.9750 C   0  0  0  0  0  0  0  0  0  0  0  0
   -0.1439    0.7641   -0.6077 C   0  0  0  0  0  0  0  0  0  0  0  0
    1.1163    0.0260   -0.3590 C   0  0  0  0  0  0  0  0  0  0  0  0
    1.7043   -0.0269    0.9981 C   0  0  0  0  0  0  0  0  0  0  0  0
    2.3919    0.7049   -0.1511 C   0  0  0  0  0  0  0  0  0  0  0  0
    3.7083    0.0820   -0.5465 C   0  0  0  0  0  0  0  0  0  0  0  0
    3.9487   -1.1689    0.1359 N   0  0  0  0  0  0  0  0  0  0  0  0
   -1.2326    4.1127   -1.5813 F   0  0  0  0  0  0  0  0  0  0  0  0
    0.6896    0.0000    0.0000 Cl  0  0  0  0  0  0  0  0  0  0  0  0
   -2.6855   -1.9391    2.2515 H   0  0  0  0  0  0  0  0  0  0  0  0
   -3.8565   -1.0287    1.1690 H   0  0  0  0  0  0  0  0  0  0  0  0
   -1.7189   -3.1320    0.3828 H   0  0  0  0  0  0  0  0  0  0  0  0
   -2.8560   -2.4516   -0.7783 H   0  0  0  0  0  0  0  0  0  0  0  0
   -3.4477    0.3937   -0.6285 H   0  0  0  0  0  0  0  0  0  0  0  0
    0.8342    2.6410   -1.0993 H   0  0  0  0  0  0  0  0  0  0  0  0
    1.1517   -0.9330   -0.9519 H   0  0  0  0  0  0  0  0  0  0  0  0
    2.1151   -0.9845    1.3384 H   0  0  0  0  0  0  0  0  0  0  0  0
    1.3892    0.6284    1.8100 H   0  0  0  0  0  0  0  0  0  0  0  0
    2.4067    1.8055   -0.1272 H   0  0  0  0  0  0  0  0  0  0  0  0
    3.7971   -0.0954   -1.6258 H   0  0  0  0  0  0  0  0  0  0  0  0
    4.5258    0.7665   -0.2427 H   0  0  0  0  0  0  0  0  0  0  0  0
    4.3866   -1.0320    1.0882 H   0  0  0  0  0  0  0  0  0  0  0  0
    4.6554   -1.7012   -0.4147 H   0  0  0  0  0  0  0  0  0  0  0  0
   -0.6896    0.0000    0.0000 H   0  0  0  0  0  0  0  0  0  0  0  0
  1  2  1  0
  2  3  1  0
  3  4  1  0
  4  5  1  0
  5  6  2  0
  6  7  1  0
  7  8  1  0
  7  9  2  0
  9 10  1  0
 10 11  2  0
 11 12  1  0
 12 13  1  0
 13 14  1  0
 14 15  1  0
 15 16  1  0
  9 17  1  0
 11  5  1  0
 14 12  1  0
  2 19  1  0
  2 20  1  0
  3 21  1  0
  3 22  1  0
  6 23  1  0
 10 24  1  0
 12 25  1  0
 13 26  1  0
 13 27  1  0
 14 28  1  0
 15 29  1  0
 15 30  1  0
 16 31  1  0
 16 32  1  0
 18 33  1  0
M  END
>  <Ligand ID>  (1) 
LIG0002857

>  <Ligand>  (1) 
CHEMBL3769828

>  <SMILES>  (1) 
FCCOc1cc(F)c(cc1C1CC1CN)F.Cl

>  <CID>  (1) 
127028407.0

>  <ChEMBL ID>  (1) 
nan

>  <InChiKey>  (1) 
LLJLIQBITIQSJX-UHFFFAOYSA-N

>  <InChi>  (1) 
InChI=1S/C12H14F3NO.ClH/c13-1-2-17-12-5-11(15)10(14)4-9(12)8-3-7(8)6-16;/h4-5,7-8H,1-3,6,16H2;1H

>  <IUPAC Name>  (1) 
[2-[4,5-difluoro-2-(2-fluoroethoxy)phenyl]cyclopropyl]methanamine;hydrochloride

$$$$
