
     RDKit          3D

 54 56  0  0  0  0  0  0  0  0999 V2000
    9.0899   -1.4895   -1.2162 C   0  0  0  0  0  0  0  0  0  0  0  0
    7.7743   -2.1470   -2.2706 S   0  0  0  0  0  0  0  0  0  0  0  0
    6.1895   -1.6452   -1.6147 C   0  0  0  0  0  0  0  0  0  0  0  0
    6.1132   -0.8808   -0.4809 C   0  0  0  0  0  0  0  0  0  0  0  0
    4.8704   -0.5226   -0.0192 C   0  0  0  0  0  0  0  0  0  0  0  0
    4.7982    0.2487    1.1254 C   0  0  0  0  0  0  0  0  0  0  0  0
    3.5761    0.6165    1.6025 C   0  0  0  0  0  0  0  0  0  0  0  0
    2.4018    0.2619    1.0065 N   0  0  0  0  0  0  0  0  0  0  0  0
    2.4854   -0.4822   -0.0968 C   0  0  0  0  0  0  0  0  0  0  0  0
    1.4168   -0.8191   -0.6604 O   0  0  0  0  0  0  0  0  0  0  0  0
    3.6994   -0.8912   -0.6358 C   0  0  0  0  0  0  0  0  0  0  0  0
    3.7832   -1.6609   -1.7773 C   0  0  0  0  0  0  0  0  0  0  0  0
    5.0302   -2.0384   -2.2674 C   0  0  0  0  0  0  0  0  0  0  0  0
    5.1348   -2.7940   -3.3866 F   0  0  0  0  0  0  0  0  0  0  0  0
    1.1972    0.7207    1.6201 C   0  0  2  0  0  0  0  0  0  0  0  0
    0.0608    0.0007    1.3249 O   0  0  0  0  0  0  0  0  0  0  0  0
   -0.9804    0.9133    1.5758 C   0  0  1  0  0  0  0  0  0  0  0  0
   -0.5114    2.0746    0.7111 C   0  0  2  0  0  0  0  0  0  0  0  0
    0.9455    2.1434    1.1224 C   0  0  1  0  0  0  0  0  0  0  0  0
    1.0350    3.0592    2.1676 O   0  0  0  0  0  0  0  0  0  0  0  0
   -1.1474    3.2684    1.0364 O   0  0  0  0  0  0  0  0  0  0  0  0
   -2.3205    0.3922    1.1196 C   0  0  0  0  0  0  0  0  0  0  0  0
   -3.3425    1.2912    1.3674 O   0  0  0  0  0  0  0  0  0  0  0  0
   -4.8428    0.7490    0.8752 P   0  0  0  0  0  0  0  0  0  0  0  0
   -5.8216    1.9057    1.0710 O   0  0  0  0  0  0  0  0  0  0  0  0
   -4.9168    0.3495   -0.7643 O   0  0  0  0  0  0  0  0  0  0  0  0
   -6.4080    0.8100   -1.4014 P   0  0  0  0  0  0  0  0  0  0  0  0
   -7.4375    1.0127   -0.3340 O   0  0  0  0  0  0  0  0  0  0  0  0
   -6.9923   -0.3560   -2.5029 O   0  0  0  0  0  0  0  0  0  0  0  0
   -7.3784   -1.7384   -1.6345 P   0  0  0  0  0  0  0  0  0  0  0  0
   -7.7024   -1.3285   -0.2182 O   0  0  0  0  0  0  0  0  0  0  0  0
   -8.7696   -2.5096   -2.2596 O   0  0  0  0  0  0  0  0  0  0  0  0
   -6.0433   -2.7663   -1.6978 O   0  0  0  0  0  0  0  0  0  0  0  0
   -6.2601    2.2641   -2.2900 O   0  0  0  0  0  0  0  0  0  0  0  0
   -5.3989   -0.5763    1.7582 O   0  0  0  0  0  0  0  0  0  0  0  0
    9.1666   -2.0559   -0.2635 H   0  0  0  0  0  0  0  0  0  0  0  0
   10.0804   -1.5074   -1.7384 H   0  0  0  0  0  0  0  0  0  0  0  0
    8.9378   -0.3990   -0.9713 H   0  0  0  0  0  0  0  0  0  0  0  0
    7.0000   -0.5627    0.0442 H   0  0  0  0  0  0  0  0  0  0  0  0
    5.7044    0.5584    1.6390 H   0  0  0  0  0  0  0  0  0  0  0  0
    3.5574    1.2271    2.5109 H   0  0  0  0  0  0  0  0  0  0  0  0
    2.8783   -1.9569   -2.2705 H   0  0  0  0  0  0  0  0  0  0  0  0
    1.3001    0.6927    2.7315 H   0  0  0  0  0  0  0  0  0  0  0  0
   -0.9987    1.2724    2.6130 H   0  0  0  0  0  0  0  0  0  0  0  0
   -0.6477    1.7897   -0.3452 H   0  0  0  0  0  0  0  0  0  0  0  0
    1.6001    2.3944    0.2637 H   0  0  0  0  0  0  0  0  0  0  0  0
    1.0537    2.6204    3.0576 H   0  0  0  0  0  0  0  0  0  0  0  0
   -1.4968    3.2104    1.9760 H   0  0  0  0  0  0  0  0  0  0  0  0
   -2.2827    0.0931    0.0610 H   0  0  0  0  0  0  0  0  0  0  0  0
   -2.5270   -0.5302    1.7003 H   0  0  0  0  0  0  0  0  0  0  0  0
   -9.0397   -3.1446   -1.5483 H   0  0  0  0  0  0  0  0  0  0  0  0
   -5.7171   -2.8102   -2.6227 H   0  0  0  0  0  0  0  0  0  0  0  0
   -7.0460    2.3611   -2.8836 H   0  0  0  0  0  0  0  0  0  0  0  0
   -4.8510   -0.6885    2.5929 H   0  0  0  0  0  0  0  0  0  0  0  0
  1  2  1  0
  2  3  1  0
  3  4  2  0
  4  5  1  0
  5  6  1  0
  6  7  2  0
  7  8  1  0
  8  9  1  0
  9 10  2  0
  9 11  1  0
 11 12  1  0
 12 13  2  0
 13 14  1  0
  8 15  1  0
 15 16  1  0
 16 17  1  0
 17 18  1  0
 18 19  1  0
 19 20  1  0
 18 21  1  0
 17 22  1  0
 22 23  1  0
 23 24  1  0
 24 25  2  0
 24 26  1  0
 26 27  1  0
 27 28  2  0
 27 29  1  0
 29 30  1  0
 30 31  2  0
 30 32  1  0
 30 33  1  0
 27 34  1  0
 24 35  1  0
 13  3  1  0
 19 15  1  0
 11  5  2  0
  1 36  1  0
  1 37  1  0
  1 38  1  0
  4 39  1  0
  6 40  1  0
  7 41  1  0
 12 42  1  0
 15 43  1  1
 17 44  1  1
 18 45  1  6
 19 46  1  6
 20 47  1  0
 21 48  1  0
 22 49  1  0
 22 50  1  0
 32 51  1  0
 33 52  1  0
 34 53  1  0
 35 54  1  0
M  END
>  <Ligand ID>  (1) 
LIG0002033

>  <Ligand>  (1) 
CHEMBL427685

>  <SMILES>  (1) 
CSc1cc2ccn(c(=O)c2cc1F)[C@@H]1O[C@@H]([C@H]([C@H]1O)O)COP(=O)(OP(=O)(OP(=O)(O)O)O)O

>  <CID>  (1) 
16216480.0

>  <ChEMBL ID>  (1) 
nan

>  <InChiKey>  (1) 
PIOIJNXBHLURIU-BPGGGUHBSA-N

>  <InChi>  (1) 
InChI=1S/C15H19FNO14P3S/c1-35-11-4-7-2-3-17(14(20)8(7)5-9(11)16)15-13(19)12(18)10(29-15)6-28-33(24,25)31-34(26,27)30-32(21,22)23/h2-5,10,12-13,15,18-19H,6H2,1H3,(H,24,25)(H,26,27)(H2,21,22,23)/t10-,12-,13-,15-/m1/s1

>  <IUPAC Name>  (1) 
[[(2R,3S,4R,5R)-5-(7-fluoro-6-methylsulfanyl-1-oxoisoquinolin-2-yl)-3,4-dihydroxyoxolan-2-yl]methoxy-hydroxyphosphoryl] phosphono hydrogen phosphate

$$$$
