
     RDKit          3D

 55 59  0  0  0  0  0  0  0  0999 V2000
   -1.1851   -1.1347    5.1218 Cl  0  0  0  0  0  0  0  0  0  0  0  0
   -1.5440   -0.6267    3.4898 C   0  0  0  0  0  0  0  0  0  0  0  0
   -2.3412   -1.3432    2.6278 C   0  0  0  0  0  0  0  0  0  0  0  0
   -2.5830   -0.8819    1.3501 C   0  0  0  0  0  0  0  0  0  0  0  0
   -2.0601    0.2892    0.8649 C   0  0  0  0  0  0  0  0  0  0  0  0
   -1.2515    1.0087    1.7502 C   0  0  0  0  0  0  0  0  0  0  0  0
   -0.9939    0.5726    3.0289 C   0  0  0  0  0  0  0  0  0  0  0  0
   -2.2860    0.8310   -0.4836 C   0  0  0  0  0  0  0  0  0  0  0  0
   -1.3098    0.3768   -1.4721 C   0  0  0  0  0  0  0  0  0  0  0  0
   -1.6239    0.0723   -2.7795 C   0  0  0  0  0  0  0  0  0  0  0  0
   -0.6692   -0.3666   -3.6731 C   0  0  0  0  0  0  0  0  0  0  0  0
    0.6403   -0.5091   -3.2616 C   0  0  0  0  0  0  0  0  0  0  0  0
    0.9986   -0.2143   -1.9598 C   0  0  0  0  0  0  0  0  0  0  0  0
    0.0278    0.2194   -1.0950 C   0  0  0  0  0  0  0  0  0  0  0  0
    2.3262   -0.3618   -1.5544 C   0  0  0  0  0  0  0  0  0  0  0  0
    2.7486   -0.0622   -0.1909 C   0  0  0  0  0  0  0  0  0  0  0  0
    4.0026   -0.1916    0.2263 C   0  0  0  0  0  0  0  0  0  0  0  0
    4.4427    0.1022    1.5813 C   0  0  0  0  0  0  0  0  0  0  0  0
    5.7866   -0.0628    1.9346 C   0  0  0  0  0  0  0  0  0  0  0  0
    6.2514    0.2017    3.2027 C   0  0  0  0  0  0  0  0  0  0  0  0
    5.4086    0.6466    4.1975 C   0  0  0  0  0  0  0  0  0  0  0  0
    4.0821    0.8134    3.8631 C   0  0  0  0  0  0  0  0  0  0  0  0
    3.6149    0.5468    2.5859 C   0  0  0  0  0  0  0  0  0  0  0  0
    3.2111    1.2541    4.8239 F   0  0  0  0  0  0  0  0  0  0  0  0
    3.2030   -0.8039   -2.5148 C   0  0  0  0  0  0  0  0  0  0  0  0
    2.7980   -1.0917   -3.8244 C   0  0  0  0  0  0  0  0  0  0  0  0
    3.6301   -1.4965   -4.6832 O   0  0  0  0  0  0  0  0  0  0  0  0
    1.5147   -0.9413   -4.1884 N   0  0  0  0  0  0  0  0  0  0  0  0
   -3.6906    0.5481   -0.8726 C   0  0  0  0  0  0  0  0  0  0  0  0
   -4.1064   -0.6412   -1.4303 C   0  0  0  0  0  0  0  0  0  0  0  0
   -5.4244   -0.8865   -1.7841 C   0  0  0  0  0  0  0  0  0  0  0  0
   -6.3886    0.0802   -1.5832 C   0  0  0  0  0  0  0  0  0  0  0  0
   -5.9989    1.2876   -1.0233 C   0  0  0  0  0  0  0  0  0  0  0  0
   -4.6805    1.5080   -0.6794 C   0  0  0  0  0  0  0  0  0  0  0  0
   -8.0564   -0.1927   -2.0158 Cl  0  0  0  0  0  0  0  0  0  0  0  0
   -2.7612   -2.2712    2.9981 H   0  0  0  0  0  0  0  0  0  0  0  0
   -3.2178   -1.4917    0.7295 H   0  0  0  0  0  0  0  0  0  0  0  0
   -0.7888    1.9511    1.4633 H   0  0  0  0  0  0  0  0  0  0  0  0
   -0.3575    1.1620    3.6911 H   0  0  0  0  0  0  0  0  0  0  0  0
   -2.1874    1.9431   -0.4279 H   0  0  0  0  0  0  0  0  0  0  0  0
   -2.6256    0.1747   -3.1615 H   0  0  0  0  0  0  0  0  0  0  0  0
   -0.9563   -0.6008   -4.7090 H   0  0  0  0  0  0  0  0  0  0  0  0
    0.2594    0.4559   -0.0908 H   0  0  0  0  0  0  0  0  0  0  0  0
    2.0502    0.2843    0.5543 H   0  0  0  0  0  0  0  0  0  0  0  0
    4.7585   -0.5340   -0.4640 H   0  0  0  0  0  0  0  0  0  0  0  0
    6.5182   -0.4146    1.1933 H   0  0  0  0  0  0  0  0  0  0  0  0
    7.2915    0.0664    3.4487 H   0  0  0  0  0  0  0  0  0  0  0  0
    5.7130    0.8688    5.2027 H   0  0  0  0  0  0  0  0  0  0  0  0
    2.5710    0.7049    2.4184 H   0  0  0  0  0  0  0  0  0  0  0  0
    4.2492   -0.9563   -2.3242 H   0  0  0  0  0  0  0  0  0  0  0  0
    1.2582   -1.1672   -5.1732 H   0  0  0  0  0  0  0  0  0  0  0  0
   -3.4100   -1.4426   -1.6192 H   0  0  0  0  0  0  0  0  0  0  0  0
   -5.7337   -1.8237   -2.2200 H   0  0  0  0  0  0  0  0  0  0  0  0
   -6.7219    2.0825   -0.8446 H   0  0  0  0  0  0  0  0  0  0  0  0
   -4.4027    2.4584   -0.2443 H   0  0  0  0  0  0  0  0  0  0  0  0
  1  2  1  0
  2  3  2  0
  3  4  1  0
  4  5  2  0
  5  6  1  0
  6  7  2  0
  5  8  1  0
  8  9  1  0
  9 10  2  0
 10 11  1  0
 11 12  2  0
 12 13  1  0
 13 14  2  0
 13 15  1  0
 15 16  1  0
 16 17  2  0
 17 18  1  0
 18 19  2  0
 19 20  1  0
 20 21  2  0
 21 22  1  0
 22 23  2  0
 22 24  1  0
 15 25  2  0
 25 26  1  0
 26 27  2  0
 26 28  1  0
  8 29  1  0
 29 30  2  0
 30 31  1  0
 31 32  2  0
 32 33  1  0
 33 34  2  0
 32 35  1  0
  7  2  1  0
 14  9  1  0
 23 18  1  0
 34 29  1  0
 28 12  1  0
  3 36  1  0
  4 37  1  0
  6 38  1  0
  7 39  1  0
  8 40  1  0
 10 41  1  0
 11 42  1  0
 14 43  1  0
 16 44  1  0
 17 45  1  0
 19 46  1  0
 20 47  1  0
 21 48  1  0
 23 49  1  0
 25 50  1  0
 28 51  1  0
 30 52  1  0
 31 53  1  0
 33 54  1  0
 34 55  1  0
M  END
>  <Ligand ID>  (1) 
LIG0005855

>  <Ligand>  (1) 
CHEMBL3930614

>  <SMILES>  (1) 
Clc1ccc(cc1)C(c1ccc2c(c1)c(/C=C/c1cccc(c1)F)cc(=O)[nH]2)c1ccc(cc1)Cl

>  <CID>  (1) 
118329948.0

>  <ChEMBL ID>  (1) 
nan

>  <InChiKey>  (1) 
HIXZLZBXNJLPNM-SNAWJCMRSA-N

>  <InChi>  (1) 
InChI=1S/C30H20Cl2FNO/c31-24-11-6-20(7-12-24)30(21-8-13-25(32)14-9-21)23-10-15-28-27(17-23)22(18-29(35)34-28)5-4-19-2-1-3-26(33)16-19/h1-18,30H,(H,34,35)/b5-4+

>  <IUPAC Name>  (1) 
6-[bis(4-chlorophenyl)methyl]-4-[(E)-2-(3-fluorophenyl)ethenyl]-1H-quinolin-2-one

$$$$
