
     RDKit          3D

 96100  0  0  0  0  0  0  0  0999 V2000
   -0.4281   -4.3376   -3.2103 C   0  0  0  0  0  0  0  0  0  0  0  0
    0.6135   -3.4700   -3.1471 O   0  0  0  0  0  0  0  0  0  0  0  0
    0.3853   -2.1666   -2.8731 C   0  0  0  0  0  0  0  0  0  0  0  0
   -0.1852   -1.8847   -1.5106 C   0  0  0  0  0  0  0  0  0  0  0  0
   -0.3892   -2.8597   -0.7734 O   0  0  0  0  0  0  0  0  0  0  0  0
   -0.4377   -0.5316   -1.1920 N   0  0  0  0  0  0  0  0  0  0  0  0
   -0.9578    0.0503   -0.0325 C   0  0  1  0  0  0  0  0  0  0  0  0
   -1.3806   -0.8655    1.1256 C   0  0  0  0  0  0  0  0  0  0  0  0
   -2.7511   -1.3952    0.9857 C   0  0  0  0  0  0  0  0  0  0  0  0
   -3.1539   -2.6762    0.7795 C   0  0  0  0  0  0  0  0  0  0  0  0
   -4.4959   -3.0074    0.6645 C   0  0  0  0  0  0  0  0  0  0  0  0
   -5.5099   -2.0772    0.7518 C   0  0  0  0  0  0  0  0  0  0  0  0
   -5.1115   -0.7630    0.9653 C   0  0  0  0  0  0  0  0  0  0  0  0
   -3.7727   -0.4351    1.0783 C   0  0  0  0  0  0  0  0  0  0  0  0
   -6.1798    0.2801    1.0663 C   0  0  0  0  0  0  0  0  0  0  0  0
   -5.6378    1.6554    0.8829 C   0  0  0  0  0  0  0  0  0  0  0  0
   -5.8818    2.6814    1.7914 C   0  0  0  0  0  0  0  0  0  0  0  0
   -5.3686    3.9515    1.6238 C   0  0  0  0  0  0  0  0  0  0  0  0
   -4.5987    4.1809    0.5185 C   0  0  0  0  0  0  0  0  0  0  0  0
   -4.0142    5.4506    0.2448 O   0  0  0  0  0  0  0  0  0  0  0  0
   -2.6936    5.4532   -0.2341 C   0  0  0  0  0  0  0  0  0  0  0  0
   -1.8151    4.6235    0.4209 C   0  0  0  0  0  0  0  0  0  0  0  0
   -0.4762    4.4958    0.0801 C   0  0  0  0  0  0  0  0  0  0  0  0
    0.4515    3.5758    0.7804 C   0  0  0  0  0  0  0  0  0  0  0  0
    0.4666    2.2325    0.0914 N   0  0  0  0  0  0  0  0  0  0  0  0
   -0.5080    1.3199    0.4806 C   0  0  0  0  0  0  0  0  0  0  0  0
   -1.1665    1.6887    1.5640 O   0  0  0  0  0  0  0  0  0  0  0  0
    1.5808    2.0834   -0.7973 C   0  0  0  0  0  0  0  0  0  0  0  0
    2.8539    1.7264   -0.0659 C   0  0  0  0  0  0  0  0  0  0  0  0
    2.8404    0.4585    0.7093 C   0  0  0  0  0  0  0  0  0  0  0  0
    2.6471   -0.7418   -0.0937 N   0  0  0  0  0  0  0  0  0  0  0  0
    2.6103   -1.9141    0.7842 C   0  0  0  0  0  0  0  0  0  0  0  0
    3.9940   -2.2493    1.2996 C   0  0  0  0  0  0  0  0  0  0  0  0
    4.8899   -2.6124    0.2181 N   0  0  0  0  0  0  0  0  0  0  0  0
    4.3027   -2.3003   -1.0766 C   0  0  0  0  0  0  0  0  0  0  0  0
    3.7447   -0.8820   -1.0532 C   0  0  0  0  0  0  0  0  0  0  0  0
    6.1723   -1.9483    0.3490 C   0  0  0  0  0  0  0  0  0  0  0  0
    6.9055   -2.4807    1.5540 C   0  0  0  0  0  0  0  0  0  0  0  0
    8.2241   -1.7957    1.6991 C   0  0  0  0  0  0  0  0  0  0  0  0
    9.0569   -2.0084    0.5470 N   0  0  0  0  0  0  0  0  0  0  0  0
   -0.0669    5.2883   -1.0017 C   0  0  0  0  0  0  0  0  0  0  0  0
   -0.9527    6.1230   -1.6584 C   0  0  0  0  0  0  0  0  0  0  0  0
   -2.2889    6.2309   -1.2953 C   0  0  0  0  0  0  0  0  0  0  0  0
   -4.3221    3.2127   -0.4156 C   0  0  0  0  0  0  0  0  0  0  0  0
   -4.8414    1.9501   -0.2333 C   0  0  0  0  0  0  0  0  0  0  0  0
   -6.8486   -2.4158    0.6373 O   0  0  0  0  0  0  0  0  0  0  0  0
   -7.1636   -3.7983    0.4030 C   0  0  0  0  0  0  0  0  0  0  0  0
   -0.0376   -5.3764   -3.4611 H   0  0  0  0  0  0  0  0  0  0  0  0
   -1.1204   -4.1107   -4.0766 H   0  0  0  0  0  0  0  0  0  0  0  0
   -1.0100   -4.4299   -2.2978 H   0  0  0  0  0  0  0  0  0  0  0  0
    1.2580   -1.5023   -3.0749 H   0  0  0  0  0  0  0  0  0  0  0  0
   -0.4402   -1.8336   -3.5765 H   0  0  0  0  0  0  0  0  0  0  0  0
   -0.2276    0.1436   -2.0063 H   0  0  0  0  0  0  0  0  0  0  0  0
   -2.1054    0.2405   -0.4334 H   0  0  0  0  0  0  0  0  0  0  0  0
   -0.6631   -1.7023    1.2627 H   0  0  0  0  0  0  0  0  0  0  0  0
   -1.3655   -0.2845    2.0871 H   0  0  0  0  0  0  0  0  0  0  0  0
   -2.4523   -3.4773    0.7157 H   0  0  0  0  0  0  0  0  0  0  0  0
   -4.7722   -4.0519    0.4977 H   0  0  0  0  0  0  0  0  0  0  0  0
   -3.5599    0.6057    1.2582 H   0  0  0  0  0  0  0  0  0  0  0  0
   -6.6599    0.1513    2.0532 H   0  0  0  0  0  0  0  0  0  0  0  0
   -6.9601    0.1408    0.2915 H   0  0  0  0  0  0  0  0  0  0  0  0
   -6.5148    2.4230    2.6581 H   0  0  0  0  0  0  0  0  0  0  0  0
   -5.5433    4.7462    2.3027 H   0  0  0  0  0  0  0  0  0  0  0  0
   -2.1788    4.0583    1.2489 H   0  0  0  0  0  0  0  0  0  0  0  0
    1.4744    3.9778    0.8545 H   0  0  0  0  0  0  0  0  0  0  0  0
    0.1141    3.3761    1.7946 H   0  0  0  0  0  0  0  0  0  0  0  0
    1.4508    1.4054   -1.6166 H   0  0  0  0  0  0  0  0  0  0  0  0
    1.8095    3.0997   -1.2594 H   0  0  0  0  0  0  0  0  0  0  0  0
    3.2201    2.5966    0.5242 H   0  0  0  0  0  0  0  0  0  0  0  0
    3.6329    1.6176   -0.8732 H   0  0  0  0  0  0  0  0  0  0  0  0
    3.7627    0.3186    1.3074 H   0  0  0  0  0  0  0  0  0  0  0  0
    1.9700    0.4454    1.4295 H   0  0  0  0  0  0  0  0  0  0  0  0
    2.1499   -2.7662    0.2812 H   0  0  0  0  0  0  0  0  0  0  0  0
    1.9891   -1.6374    1.6555 H   0  0  0  0  0  0  0  0  0  0  0  0
    3.8835   -3.1434    1.9464 H   0  0  0  0  0  0  0  0  0  0  0  0
    4.4311   -1.4635    1.9341 H   0  0  0  0  0  0  0  0  0  0  0  0
    3.5790   -3.0482   -1.4132 H   0  0  0  0  0  0  0  0  0  0  0  0
    5.1386   -2.2849   -1.7913 H   0  0  0  0  0  0  0  0  0  0  0  0
    4.5615   -0.1810   -0.8846 H   0  0  0  0  0  0  0  0  0  0  0  0
    3.3142   -0.6942   -2.0539 H   0  0  0  0  0  0  0  0  0  0  0  0
    6.0460   -0.8414    0.4548 H   0  0  0  0  0  0  0  0  0  0  0  0
    6.7791   -2.2211   -0.5497 H   0  0  0  0  0  0  0  0  0  0  0  0
    7.0875   -3.5857    1.4233 H   0  0  0  0  0  0  0  0  0  0  0  0
    6.3213   -2.3125    2.4935 H   0  0  0  0  0  0  0  0  0  0  0  0
    8.1076   -0.7034    1.8592 H   0  0  0  0  0  0  0  0  0  0  0  0
    8.7486   -2.2665    2.5764 H   0  0  0  0  0  0  0  0  0  0  0  0
   10.0210   -2.2862    0.8345 H   0  0  0  0  0  0  0  0  0  0  0  0
    9.1171   -1.1136   -0.0128 H   0  0  0  0  0  0  0  0  0  0  0  0
    0.9484    5.2886   -1.3636 H   0  0  0  0  0  0  0  0  0  0  0  0
   -0.6464    6.7443   -2.5009 H   0  0  0  0  0  0  0  0  0  0  0  0
   -2.9938    6.8736   -1.7920 H   0  0  0  0  0  0  0  0  0  0  0  0
   -3.7154    3.3646   -1.2937 H   0  0  0  0  0  0  0  0  0  0  0  0
   -4.6616    1.1348   -0.9301 H   0  0  0  0  0  0  0  0  0  0  0  0
   -6.7253   -4.4336    1.1984 H   0  0  0  0  0  0  0  0  0  0  0  0
   -6.6635   -4.1058   -0.5714 H   0  0  0  0  0  0  0  0  0  0  0  0
   -8.2399   -3.9916    0.3634 H   0  0  0  0  0  0  0  0  0  0  0  0
  1  2  1  0
  2  3  1  0
  3  4  1  0
  4  5  2  0
  4  6  1  0
  6  7  1  0
  7  8  1  0
  8  9  1  0
  9 10  2  0
 10 11  1  0
 11 12  2  0
 12 13  1  0
 13 14  2  0
 13 15  1  0
 15 16  1  0
 16 17  2  0
 17 18  1  0
 18 19  2  0
 19 20  1  0
 20 21  1  0
 21 22  2  0
 22 23  1  0
 23 24  1  0
 24 25  1  0
 25 26  1  0
 26 27  2  0
 25 28  1  0
 28 29  1  0
 29 30  1  0
 30 31  1  0
 31 32  1  0
 32 33  1  0
 33 34  1  0
 34 35  1  0
 35 36  1  0
 34 37  1  0
 37 38  1  0
 38 39  1  0
 39 40  1  0
 23 41  2  0
 41 42  1  0
 42 43  2  0
 19 44  1  0
 44 45  2  0
 12 46  1  0
 46 47  1  0
 26  7  1  0
 36 31  1  0
 14  9  1  0
 45 16  1  0
 43 21  1  0
  1 48  1  0
  1 49  1  0
  1 50  1  0
  3 51  1  0
  3 52  1  0
  6 53  1  0
  7 54  1  6
  8 55  1  0
  8 56  1  0
 10 57  1  0
 11 58  1  0
 14 59  1  0
 15 60  1  0
 15 61  1  0
 17 62  1  0
 18 63  1  0
 22 64  1  0
 24 65  1  0
 24 66  1  0
 28 67  1  0
 28 68  1  0
 29 69  1  0
 29 70  1  0
 30 71  1  0
 30 72  1  0
 32 73  1  0
 32 74  1  0
 33 75  1  0
 33 76  1  0
 35 77  1  0
 35 78  1  0
 36 79  1  0
 36 80  1  0
 37 81  1  0
 37 82  1  0
 38 83  1  0
 38 84  1  0
 39 85  1  0
 39 86  1  0
 40 87  1  0
 40 88  1  0
 41 89  1  0
 42 90  1  0
 43 91  1  0
 44 92  1  0
 45 93  1  0
 47 94  1  0
 47 95  1  0
 47 96  1  0
M  END
>  <Ligand ID>  (1) 
LIG0002017

>  <Ligand>  (1) 
CHEMBL1682209

>  <SMILES>  (1) 
COCC(=O)N[C@H]1Cc2ccc(c(c2)Cc2ccc(Oc3cc(CN(C1=O)CCCN1CCN(CC1)CCCN)ccc3)cc2)OC

>  <CID>  (1) 
51346770.0

>  <ChEMBL ID>  (1) 
nan

>  <InChiKey>  (1) 
QXSMBSQHYONEJF-UMSFTDKQSA-N

>  <InChi>  (1) 
InChI=1S/C37H49N5O5/c1-45-27-36(43)39-34-25-29-10-13-35(46-2)31(23-29)22-28-8-11-32(12-9-28)47-33-7-3-6-30(24-33)26-42(37(34)44)17-5-16-41-20-18-40(19-21-41)15-4-14-38/h3,6-13,23-24,34H,4-5,14-22,25-27,38H2,1-2H3,(H,39,43)/t34-/m0/s1

>  <IUPAC Name>  (1) 
N-[(11S)-9-[3-[4-(3-aminopropyl)piperazin-1-yl]propyl]-16-methoxy-10-oxo-2-oxa-9-azatetracyclo[17.2.2.13,7.113,17]pentacosa-1(21),3,5,7(25),13(24),14,16,19,22-nonaen-11-yl]-2-methoxyacetamide

$$$$
