
     RDKit          3D

207215  0  0  0  0  0  0  0  0999 V2000
   -2.2461    0.0050    7.0894 N   0  0  0  0  0  0  0  0  0  0  0  0
   -3.1763    0.3243    6.0023 C   0  0  0  0  0  0  0  0  0  0  0  0
   -2.6424   -0.0866    4.6462 C   0  0  0  0  0  0  0  0  0  0  0  0
   -3.6712    0.2163    3.5395 C   0  0  0  0  0  0  0  0  0  0  0  0
   -3.1325   -0.1875    2.2145 C   0  0  0  0  0  0  0  0  0  0  0  0
   -4.0322    0.0019    1.0352 C   0  0  2  0  0  0  0  0  0  0  0  0
   -4.4598    1.3549    0.7728 N   0  0  0  0  0  0  0  0  0  0  0  0
   -4.1871    1.8904   -0.4998 C   0  0  0  0  0  0  0  0  0  0  0  0
   -3.5350    1.2754   -1.3722 O   0  0  0  0  0  0  0  0  0  0  0  0
   -4.6676    3.2307   -0.8047 C   0  0  1  0  0  0  0  0  0  0  0  0
   -5.5320    3.8527    0.2047 C   0  0  0  0  0  0  0  0  0  0  0  0
   -7.1528    3.1981    0.3668 S   0  0  0  0  0  0  0  0  0  0  0  0
   -7.6037    1.6816    1.0810 C   0  0  0  0  0  0  0  0  0  0  0  0
   -7.2808    0.4344    0.4220 C   0  0  0  0  0  0  0  0  0  0  0  0
   -8.1864    0.0799   -0.4359 O   0  0  0  0  0  0  0  0  0  0  0  0
   -6.3187   -0.5824    0.3533 N   0  0  0  0  0  0  0  0  0  0  0  0
   -5.2504   -0.8758    1.2618 C   0  0  0  0  0  0  0  0  0  0  0  0
   -6.4977   -1.7351   -0.6563 C   0  0  1  0  0  0  0  0  0  0  0  0
   -5.9944   -1.1475   -2.0399 C   0  0  0  0  0  0  0  0  0  0  0  0
   -6.2444   -2.2539   -3.0182 C   0  0  0  0  0  0  0  0  0  0  0  0
   -5.3866   -3.1087   -3.6458 C   0  0  0  0  0  0  0  0  0  0  0  0
   -6.0609   -3.9673   -4.4694 N   0  0  0  0  0  0  0  0  0  0  0  0
   -7.3649   -3.6764   -4.3780 C   0  0  0  0  0  0  0  0  0  0  0  0
   -7.5153   -2.6228   -3.4924 C   0  0  0  0  0  0  0  0  0  0  0  0
   -8.7962   -2.1488   -3.2464 C   0  0  0  0  0  0  0  0  0  0  0  0
   -9.9020   -2.7297   -3.8825 C   0  0  0  0  0  0  0  0  0  0  0  0
   -9.6766   -3.7856   -4.7582 C   0  0  0  0  0  0  0  0  0  0  0  0
   -8.4285   -4.2780   -5.0281 C   0  0  0  0  0  0  0  0  0  0  0  0
   -5.5810   -2.7913   -0.3692 C   0  0  0  0  0  0  0  0  0  0  0  0
   -4.4979   -2.7767   -1.1194 O   0  0  0  0  0  0  0  0  0  0  0  0
   -5.5645   -3.8575    0.5525 N   0  0  0  0  0  0  0  0  0  0  0  0
   -4.4508   -4.8536    0.6392 C   0  0  1  0  0  0  0  0  0  0  0  0
   -3.4608   -4.6921   -0.4977 C   0  0  0  0  0  0  0  0  0  0  0  0
   -2.4343   -5.8023   -0.3812 C   0  0  0  0  0  0  0  0  0  0  0  0
   -1.2026   -5.5420   -0.5500 O   0  0  0  0  0  0  0  0  0  0  0  0
   -2.8845   -7.1525   -0.0814 N   0  0  0  0  0  0  0  0  0  0  0  0
   -3.7759   -4.6377    1.9154 C   0  0  0  0  0  0  0  0  0  0  0  0
   -4.4755   -3.8657    2.7342 O   0  0  0  0  0  0  0  0  0  0  0  0
   -2.5642   -5.0759    2.4385 N   0  0  0  0  0  0  0  0  0  0  0  0
   -2.1320   -4.5325    3.7260 C   0  0  1  0  0  0  0  0  0  0  0  0
   -2.0631   -5.6088    4.7832 C   0  0  0  0  0  0  0  0  0  0  0  0
   -0.8113   -3.8674    3.6599 C   0  0  0  0  0  0  0  0  0  0  0  0
   -0.4620   -3.2386    4.7185 O   0  0  0  0  0  0  0  0  0  0  0  0
    0.0905   -3.8455    2.5971 N   0  0  0  0  0  0  0  0  0  0  0  0
    1.3360   -3.0637    2.6226 C   0  0  1  0  0  0  0  0  0  0  0  0
    2.4446   -4.0411    3.0937 C   0  0  0  0  0  0  0  0  0  0  0  0
    2.1846   -4.6308    4.3924 C   0  0  0  0  0  0  0  0  0  0  0  0
    2.5590   -4.0311    5.5992 C   0  0  0  0  0  0  0  0  0  0  0  0
    2.2932   -4.7123    6.7778 C   0  0  0  0  0  0  0  0  0  0  0  0
    1.6807   -5.9462    6.8243 C   0  0  0  0  0  0  0  0  0  0  0  0
    1.3131   -6.5331    5.6337 C   0  0  0  0  0  0  0  0  0  0  0  0
    1.5652   -5.8788    4.4412 C   0  0  0  0  0  0  0  0  0  0  0  0
    1.7382   -2.7734    1.1994 C   0  0  0  0  0  0  0  0  0  0  0  0
    1.0155   -3.2528    0.3257 O   0  0  0  0  0  0  0  0  0  0  0  0
    2.9092   -1.9781    0.9018 N   0  0  0  0  0  0  0  0  0  0  0  0
    3.2356   -1.9236   -0.4992 C   0  0  1  0  0  0  0  0  0  0  0  0
    3.5696   -0.5892   -1.0822 C   0  0  0  0  0  0  0  0  0  0  0  0
    2.3290    0.6152   -1.1768 S   0  0  0  0  0  0  0  0  0  0  0  0
    1.5708    1.5921    0.4604 S   0  0  0  0  0  0  0  0  0  0  0  0
    2.5375    3.0987    0.8533 C   0  0  0  0  0  0  0  0  0  0  0  0
    3.3184    3.6302   -0.2778 C   0  0  1  0  0  0  0  0  0  0  0  0
    2.6877    4.2081   -1.4559 C   0  0  0  0  0  0  0  0  0  0  0  0
    3.3909    5.2159   -1.9224 O   0  0  0  0  0  0  0  0  0  0  0  0
    1.5281    3.9302   -2.1640 N   0  0  0  0  0  0  0  0  0  0  0  0
    1.2659    4.7563   -3.3584 C   0  0  2  0  0  0  0  0  0  0  0  0
   -0.0953    5.2496   -3.4513 C   0  0  0  0  0  0  0  0  0  0  0  0
   -0.4190    5.8759   -4.5091 O   0  0  0  0  0  0  0  0  0  0  0  0
   -1.1283    5.0934   -2.4344 N   0  0  0  0  0  0  0  0  0  0  0  0
   -2.3802    5.7456   -2.7556 C   0  0  1  0  0  0  0  0  0  0  0  0
   -3.5978    4.9993   -2.3095 C   0  0  0  0  0  0  0  0  0  0  0  0
   -4.7124    5.2770   -2.8646 O   0  0  0  0  0  0  0  0  0  0  0  0
   -3.5660    4.0465   -1.3293 N   0  0  0  0  0  0  0  0  0  0  0  0
   -2.4198    7.0728   -1.9424 C   0  0  0  0  0  0  0  0  0  0  0  0
   -1.2882    7.9203   -2.3019 C   0  0  0  0  0  0  0  0  0  0  0  0
   -0.1067    7.7533   -1.5517 C   0  0  0  0  0  0  0  0  0  0  0  0
    1.0013    8.4937   -1.7572 C   0  0  0  0  0  0  0  0  0  0  0  0
    1.0267    9.4675   -2.7313 C   0  0  0  0  0  0  0  0  0  0  0  0
   -0.1341    9.6544   -3.4951 C   0  0  0  0  0  0  0  0  0  0  0  0
   -1.2681    8.8891   -3.2788 C   0  0  0  0  0  0  0  0  0  0  0  0
    1.7553    4.0868   -4.6251 C   0  0  0  0  0  0  0  0  0  0  0  0
    1.5380    4.8712   -5.8448 C   0  0  0  0  0  0  0  0  0  0  0  0
    2.4468    5.7958   -6.2805 N   0  0  0  0  0  0  0  0  0  0  0  0
    2.0566    6.3553   -7.4322 C   0  0  0  0  0  0  0  0  0  0  0  0
    0.8737    5.7966   -7.7757 N   0  0  0  0  0  0  0  0  0  0  0  0
    0.5545    4.8845   -6.8023 C   0  0  0  0  0  0  0  0  0  0  0  0
    4.4631    4.4926    0.1291 N   0  0  0  0  0  0  0  0  0  0  0  0
    5.5831    4.0291    0.8130 C   0  0  0  0  0  0  0  0  0  0  0  0
    5.6036    2.7881    1.1391 O   0  0  0  0  0  0  0  0  0  0  0  0
    6.6939    4.9633    1.1303 C   0  0  2  0  0  0  0  0  0  0  0  0
    6.2201    6.0047    2.1103 C   0  0  0  0  0  0  0  0  0  0  0  0
    5.7081    5.4871    3.3734 C   0  0  0  0  0  0  0  0  0  0  0  0
    6.5968    5.2331    4.4253 C   0  0  0  0  0  0  0  0  0  0  0  0
    6.2086    4.7969    5.6532 C   0  0  0  0  0  0  0  0  0  0  0  0
    4.8599    4.5914    5.8892 C   0  0  0  0  0  0  0  0  0  0  0  0
    3.9589    4.8258    4.8890 C   0  0  0  0  0  0  0  0  0  0  0  0
    4.3508    5.2644    3.6447 C   0  0  0  0  0  0  0  0  0  0  0  0
    4.5116    4.1525    7.1709 O   0  0  0  0  0  0  0  0  0  0  0  0
    6.9116    5.7286   -0.1290 N   0  0  0  0  0  0  0  0  0  0  0  0
    4.5561   -2.7415   -0.6429 C   0  0  0  0  0  0  0  0  0  0  0  0
    5.3411   -2.8448    0.2971 O   0  0  0  0  0  0  0  0  0  0  0  0
    4.7043   -3.2994   -1.9380 N   0  0  0  0  0  0  0  0  0  0  0  0
    5.8425   -4.0490   -2.4081 C   0  0  2  0  0  0  0  0  0  0  0  0
    5.6579   -4.7717   -3.6371 C   0  0  0  0  0  0  0  0  0  0  0  0
    6.6689   -5.3106   -4.2041 O   0  0  0  0  0  0  0  0  0  0  0  0
    4.4122   -4.9859   -4.3494 N   0  0  0  0  0  0  0  0  0  0  0  0
    6.4977   -4.9088   -1.2983 C   0  0  0  0  0  0  0  0  0  0  0  0
    7.6399   -5.6567   -1.8988 C   0  0  0  0  0  0  0  0  0  0  0  0
    8.8490   -4.9851   -2.0376 C   0  0  0  0  0  0  0  0  0  0  0  0
    9.9803   -5.5994   -2.5811 C   0  0  0  0  0  0  0  0  0  0  0  0
    9.8452   -6.9064   -2.9683 C   0  0  0  0  0  0  0  0  0  0  0  0
    8.6521   -7.6142   -2.8455 C   0  0  0  0  0  0  0  0  0  0  0  0
    7.5241   -6.9886   -2.3045 C   0  0  0  0  0  0  0  0  0  0  0  0
   10.9103   -7.5843   -3.5083 O   0  0  0  0  0  0  0  0  0  0  0  0
   -2.1114    0.8261    7.7243 H   0  0  0  0  0  0  0  0  0  0  0  0
   -2.5195   -0.8581    7.5970 H   0  0  0  0  0  0  0  0  0  0  0  0
   -4.1346   -0.1744    6.2754 H   0  0  0  0  0  0  0  0  0  0  0  0
   -3.3933    1.4072    6.0446 H   0  0  0  0  0  0  0  0  0  0  0  0
   -1.7030    0.4204    4.4208 H   0  0  0  0  0  0  0  0  0  0  0  0
   -2.5351   -1.1912    4.6659 H   0  0  0  0  0  0  0  0  0  0  0  0
   -4.5859   -0.2412    3.8950 H   0  0  0  0  0  0  0  0  0  0  0  0
   -3.8729    1.3340    3.5927 H   0  0  0  0  0  0  0  0  0  0  0  0
   -2.1868    0.4166    2.0696 H   0  0  0  0  0  0  0  0  0  0  0  0
   -2.8575   -1.2603    2.2796 H   0  0  0  0  0  0  0  0  0  0  0  0
   -3.4460   -0.3462    0.1493 H   0  0  0  0  0  0  0  0  0  0  0  0
   -4.9279    1.8693    1.5378 H   0  0  0  0  0  0  0  0  0  0  0  0
   -5.3367    3.1530   -1.7531 H   0  0  0  0  0  0  0  0  0  0  0  0
   -5.6409    4.9706   -0.0879 H   0  0  0  0  0  0  0  0  0  0  0  0
   -4.9877    3.9392    1.2134 H   0  0  0  0  0  0  0  0  0  0  0  0
   -7.4233    1.7059    2.2200 H   0  0  0  0  0  0  0  0  0  0  0  0
   -8.7718    1.6835    1.1284 H   0  0  0  0  0  0  0  0  0  0  0  0
   -5.5003   -0.9841    2.3265 H   0  0  0  0  0  0  0  0  0  0  0  0
   -4.7814   -1.8841    1.0460 H   0  0  0  0  0  0  0  0  0  0  0  0
   -7.5343   -1.7895   -0.8628 H   0  0  0  0  0  0  0  0  0  0  0  0
   -4.9492   -0.9215   -1.9656 H   0  0  0  0  0  0  0  0  0  0  0  0
   -6.6211   -0.2906   -2.2531 H   0  0  0  0  0  0  0  0  0  0  0  0
   -4.2949   -3.1860   -3.6068 H   0  0  0  0  0  0  0  0  0  0  0  0
   -5.6300   -4.7262   -5.0678 H   0  0  0  0  0  0  0  0  0  0  0  0
   -8.9996   -1.3372   -2.5870 H   0  0  0  0  0  0  0  0  0  0  0  0
  -10.9126   -2.3599   -3.6978 H   0  0  0  0  0  0  0  0  0  0  0  0
  -10.5308   -4.2178   -5.2422 H   0  0  0  0  0  0  0  0  0  0  0  0
   -8.3260   -5.1095   -5.7238 H   0  0  0  0  0  0  0  0  0  0  0  0
   -6.3187   -4.0255    1.2486 H   0  0  0  0  0  0  0  0  0  0  0  0
   -4.9020   -5.8192    0.4828 H   0  0  0  0  0  0  0  0  0  0  0  0
   -3.9295   -4.8493   -1.4695 H   0  0  0  0  0  0  0  0  0  0  0  0
   -2.8771   -3.7486   -0.3659 H   0  0  0  0  0  0  0  0  0  0  0  0
   -2.6769   -7.8989   -0.7876 H   0  0  0  0  0  0  0  0  0  0  0  0
   -3.3954   -7.3418    0.8270 H   0  0  0  0  0  0  0  0  0  0  0  0
   -1.9088   -5.7744    2.0182 H   0  0  0  0  0  0  0  0  0  0  0  0
   -2.8818   -3.8189    4.0848 H   0  0  0  0  0  0  0  0  0  0  0  0
   -3.0202   -5.6887    5.3280 H   0  0  0  0  0  0  0  0  0  0  0  0
   -1.7128   -6.5913    4.3775 H   0  0  0  0  0  0  0  0  0  0  0  0
   -1.2798   -5.2872    5.4991 H   0  0  0  0  0  0  0  0  0  0  0  0
   -0.1055   -4.3914    1.7329 H   0  0  0  0  0  0  0  0  0  0  0  0
    1.3604   -2.2387    3.2925 H   0  0  0  0  0  0  0  0  0  0  0  0
    3.4220   -3.5348    3.1196 H   0  0  0  0  0  0  0  0  0  0  0  0
    2.5651   -4.8665    2.3374 H   0  0  0  0  0  0  0  0  0  0  0  0
    3.0327   -3.0521    5.6171 H   0  0  0  0  0  0  0  0  0  0  0  0
    2.5845   -4.2565    7.7163 H   0  0  0  0  0  0  0  0  0  0  0  0
    1.4999   -6.4571    7.7658 H   0  0  0  0  0  0  0  0  0  0  0  0
    0.8301   -7.5086    5.6322 H   0  0  0  0  0  0  0  0  0  0  0  0
    1.2910   -6.3680    3.5053 H   0  0  0  0  0  0  0  0  0  0  0  0
    3.4068   -1.5193    1.6690 H   0  0  0  0  0  0  0  0  0  0  0  0
    2.4573   -2.4069   -1.1091 H   0  0  0  0  0  0  0  0  0  0  0  0
    4.0670   -0.7948   -2.1054 H   0  0  0  0  0  0  0  0  0  0  0  0
    4.5031   -0.2221   -0.5048 H   0  0  0  0  0  0  0  0  0  0  0  0
    3.1981    2.9276    1.7273 H   0  0  0  0  0  0  0  0  0  0  0  0
    1.7520    3.8277    1.2075 H   0  0  0  0  0  0  0  0  0  0  0  0
    3.8799    2.6662   -0.6648 H   0  0  0  0  0  0  0  0  0  0  0  0
    0.8191    3.1834   -1.9089 H   0  0  0  0  0  0  0  0  0  0  0  0
    1.9851    5.6477   -3.2793 H   0  0  0  0  0  0  0  0  0  0  0  0
   -0.9407    4.5407   -1.5689 H   0  0  0  0  0  0  0  0  0  0  0  0
   -2.4446    5.9855   -3.7928 H   0  0  0  0  0  0  0  0  0  0  0  0
   -2.6286    3.8151   -0.8502 H   0  0  0  0  0  0  0  0  0  0  0  0
   -3.3862    7.5566   -2.1535 H   0  0  0  0  0  0  0  0  0  0  0  0
   -2.3530    6.8457   -0.8483 H   0  0  0  0  0  0  0  0  0  0  0  0
   -0.1147    6.9860   -0.7695 H   0  0  0  0  0  0  0  0  0  0  0  0
    1.9487    8.3701   -1.1909 H   0  0  0  0  0  0  0  0  0  0  0  0
    1.9211   10.0865   -2.9102 H   0  0  0  0  0  0  0  0  0  0  0  0
   -0.1793   10.4077   -4.2998 H   0  0  0  0  0  0  0  0  0  0  0  0
   -2.1769    9.0239   -3.8618 H   0  0  0  0  0  0  0  0  0  0  0  0
    2.8639    3.8387   -4.5121 H   0  0  0  0  0  0  0  0  0  0  0  0
    1.2793    3.0879   -4.7725 H   0  0  0  0  0  0  0  0  0  0  0  0
    2.6358    7.1073   -7.9683 H   0  0  0  0  0  0  0  0  0  0  0  0
    0.2853    5.9877   -8.6286 H   0  0  0  0  0  0  0  0  0  0  0  0
   -0.3295    4.2594   -6.7586 H   0  0  0  0  0  0  0  0  0  0  0  0
    4.4186    5.5266   -0.1112 H   0  0  0  0  0  0  0  0  0  0  0  0
    7.6171    4.4504    1.4151 H   0  0  0  0  0  0  0  0  0  0  0  0
    7.0390    6.7666    2.3191 H   0  0  0  0  0  0  0  0  0  0  0  0
    5.4295    6.6503    1.6172 H   0  0  0  0  0  0  0  0  0  0  0  0
    7.6435    5.3966    4.2283 H   0  0  0  0  0  0  0  0  0  0  0  0
    6.9759    4.6126    6.4069 H   0  0  0  0  0  0  0  0  0  0  0  0
    2.9064    4.6744    5.1042 H   0  0  0  0  0  0  0  0  0  0  0  0
    3.6592    5.4415    2.8178 H   0  0  0  0  0  0  0  0  0  0  0  0
    4.6012    4.8253    7.9133 H   0  0  0  0  0  0  0  0  0  0  0  0
    6.2303    6.5408   -0.0936 H   0  0  0  0  0  0  0  0  0  0  0  0
    6.6203    5.1271   -0.9358 H   0  0  0  0  0  0  0  0  0  0  0  0
    3.9284   -3.1762   -2.6752 H   0  0  0  0  0  0  0  0  0  0  0  0
    6.6682   -3.2497   -2.5600 H   0  0  0  0  0  0  0  0  0  0  0  0
    3.9348   -5.8965   -4.2285 H   0  0  0  0  0  0  0  0  0  0  0  0
    3.9931   -4.2855   -4.9751 H   0  0  0  0  0  0  0  0  0  0  0  0
    5.7958   -5.5812   -0.8314 H   0  0  0  0  0  0  0  0  0  0  0  0
    6.9429   -4.2228   -0.5566 H   0  0  0  0  0  0  0  0  0  0  0  0
    8.9805   -3.9476   -1.7294 H   0  0  0  0  0  0  0  0  0  0  0  0
   10.8786   -5.0365   -2.6760 H   0  0  0  0  0  0  0  0  0  0  0  0
    8.6172   -8.6549   -3.1731 H   0  0  0  0  0  0  0  0  0  0  0  0
    6.5946   -7.5351   -2.2010 H   0  0  0  0  0  0  0  0  0  0  0  0
   10.8639   -8.3165   -4.1783 H   0  0  0  0  0  0  0  0  0  0  0  0
  1  2  1  0
  2  3  1  0
  3  4  1  0
  4  5  1  0
  5  6  1  0
  6  7  1  0
  7  8  1  0
  8  9  2  0
  8 10  1  0
 10 11  1  0
 11 12  1  0
 12 13  1  0
 13 14  1  0
 14 15  2  0
 14 16  1  0
 16 17  1  0
 16 18  1  0
 18 19  1  0
 19 20  1  0
 20 21  2  0
 21 22  1  0
 22 23  1  0
 23 24  2  0
 24 25  1  0
 25 26  2  0
 26 27  1  0
 27 28  2  0
 18 29  1  0
 29 30  2  0
 29 31  1  0
 31 32  1  0
 32 33  1  0
 33 34  1  0
 34 35  2  0
 34 36  1  0
 32 37  1  0
 37 38  2  0
 37 39  1  0
 39 40  1  0
 40 41  1  0
 40 42  1  0
 42 43  2  0
 42 44  1  0
 44 45  1  0
 45 46  1  0
 46 47  1  0
 47 48  2  0
 48 49  1  0
 49 50  2  0
 50 51  1  0
 51 52  2  0
 45 53  1  0
 53 54  2  0
 53 55  1  0
 55 56  1  0
 56 57  1  0
 57 58  1  0
 58 59  1  0
 59 60  1  0
 60 61  1  0
 61 62  1  0
 62 63  2  0
 62 64  1  0
 64 65  1  0
 65 66  1  0
 66 67  2  0
 66 68  1  0
 68 69  1  0
 69 70  1  0
 70 71  2  0
 70 72  1  0
 69 73  1  0
 73 74  1  0
 74 75  2  0
 75 76  1  0
 76 77  2  0
 77 78  1  0
 78 79  2  0
 65 80  1  0
 80 81  1  0
 81 82  1  0
 82 83  2  0
 83 84  1  0
 84 85  1  0
 61 86  1  0
 86 87  1  0
 87 88  2  0
 87 89  1  0
 89 90  1  0
 90 91  1  0
 91 92  2  0
 92 93  1  0
 93 94  2  0
 94 95  1  0
 95 96  2  0
 94 97  1  0
 89 98  1  0
 56 99  1  0
 99100  2  0
 99101  1  0
101102  1  0
102103  1  0
103104  2  0
103105  1  0
102106  1  0
106107  1  0
107108  2  0
108109  1  0
109110  2  0
110111  1  0
111112  2  0
110113  1  0
 17  6  1  0
 24 20  1  0
 52 47  1  0
 79 74  1  0
 85 81  2  0
 96 91  1  0
112107  1  0
 72 10  1  0
 28 23  1  0
  1114  1  0
  1115  1  0
  2116  1  0
  2117  1  0
  3118  1  0
  3119  1  0
  4120  1  0
  4121  1  0
  5122  1  0
  5123  1  0
  6124  1  6
  7125  1  0
 10126  1  6
 11127  1  0
 11128  1  0
 13129  1  0
 13130  1  0
 17131  1  0
 17132  1  0
 18133  1  6
 19134  1  0
 19135  1  0
 21136  1  0
 22137  1  0
 25138  1  0
 26139  1  0
 27140  1  0
 28141  1  0
 31142  1  0
 32143  1  1
 33144  1  0
 33145  1  0
 36146  1  0
 36147  1  0
 39148  1  0
 40149  1  1
 41150  1  0
 41151  1  0
 41152  1  0
 44153  1  0
 45154  1  1
 46155  1  0
 46156  1  0
 48157  1  0
 49158  1  0
 50159  1  0
 51160  1  0
 52161  1  0
 55162  1  0
 56163  1  6
 57164  1  0
 57165  1  0
 60166  1  0
 60167  1  0
 61168  1  6
 64169  1  0
 65170  1  1
 68171  1  0
 69172  1  6
 72173  1  0
 73174  1  0
 73175  1  0
 75176  1  0
 76177  1  0
 77178  1  0
 78179  1  0
 79180  1  0
 80181  1  0
 80182  1  0
 83183  1  0
 84184  1  0
 85185  1  0
 86186  1  0
 89187  1  1
 90188  1  0
 90189  1  0
 92190  1  0
 93191  1  0
 95192  1  0
 96193  1  0
 97194  1  0
 98195  1  0
 98196  1  0
101197  1  0
102198  1  6
105199  1  0
105200  1  0
106201  1  0
106202  1  0
108203  1  0
109204  1  0
111205  1  0
112206  1  0
113207  1  0
M  END
>  <Ligand ID>  (1) 
LIG0001137

>  <Ligand>  (1) 
CID 71606866

>  <SMILES>  (1) 
NCCCC[C@@H]1NC(=O)[C@H]2CSCC(=O)N(C1)[C@@H](Cc1c[nH]c3c1cccc3)C(=O)N[C@@H](CC(=O)N)C(=O)N[C@@H](C)C(=O)N[C@@H](Cc1ccccc1)C(=O)N[C@@H](CSSC[C@@H](C(=O)N[C@H](C(=O)N[C@@H](C(=O)N2)Cc1ccccc1)Cc1nc[nH]c1)NC(=O)[C@H](Cc1ccc(cc1)O)N)C(=O)N[C@H](C(=O)N)Cc1ccc(cc1)O

>  <CID>  (1) 
71606866.0

>  <ChEMBL ID>  (1) 
nan

>  <InChiKey>  (1) 
NWHFBPXVJZXMAY-UQNATJPTSA-N

>  <InChi>  (1) 
InChI=1S/C77H94N18O15S3/c1-43-68(101)88-57(30-44-12-4-2-5-13-44)71(104)94-63(75(108)87-56(67(81)100)29-47-21-25-52(97)26-22-47)40-113-112-39-62(92-69(102)54(79)28-46-19-23-51(96)24-20-46)76(109)90-59(33-50-36-82-42-84-50)73(106)89-58(31-45-14-6-3-7-15-45)72(105)93-61-38-111-41-66(99)95(37-49(86-74(61)107)16-10-11-27-78)64(32-48-35-83-55-18-9-8-17-53(48)55)77(110)91-60(34-65(80)98)70(103)85-43/h2-9,12-15,17-26,35-36,42-43,49,54,56-64,83,96-97H,10-11,16,27-34,37-41,78-79H2,1H3,(H2,80,98)(H2,81,100)(H,82,84)(H,85,103)(H,86,107)(H,87,108)(H,88,101)(H,89,106)(H,90,109)(H,91,110)(H,92,102)(H,93,105)(H,94,104)/t43-,49-,54-,56-,57-,58+,59-,60-,61+,62-,63-,64-/m0/s1

>  <IUPAC Name>  (1) 
(2S,5S,8S,11S,14R,19R,22S,25R,28S,34S)-34-(4-aminobutyl)-N-[(2S)-1-amino-3-(4-hydroxyphenyl)-1-oxopropan-2-yl]-19-[[(2S)-2-amino-3-(4-hydroxyphenyl)propanoyl]amino]-5-(2-amino-2-oxoethyl)-11,25-dibenzyl-22-(1H-imidazol-4-ylmethyl)-2-(1H-indol-3-ylmethyl)-8-methyl-3,6,9,12,20,23,26,32,36-nonaoxo-16,17,30-trithia-1,4,7,10,13,21,24,27,35-nonazabicyclo[26.4.4]hexatriacontane-14-carboxamide

$$$$
