
     RDKit          3D

 46 48  0  0  0  0  0  0  0  0999 V2000
    0.5351   -1.9427   -2.5991 O   0  0  0  0  0  0  0  0  0  0  0  0
    0.4454   -1.1727   -1.4294 C   0  0  2  0  0  0  0  0  0  0  0  0
    0.2430   -2.0392   -0.2310 C   0  0  1  0  0  0  0  0  0  0  0  0
    1.1539   -1.5365    0.8772 C   0  0  0  0  0  0  0  0  0  0  0  0
    0.9089   -0.2162    1.1868 O   0  0  0  0  0  0  0  0  0  0  0  0
    1.9134    0.3580    2.4181 P   0  0  0  0  0  0  0  0  0  0  0  0
    1.4036   -0.1862    3.7436 O   0  0  0  0  0  0  0  0  0  0  0  0
    3.5151   -0.0756    2.2320 O   0  0  0  0  0  0  0  0  0  0  0  0
    4.2242    0.7725    0.9801 P   0  0  0  0  0  0  0  0  0  0  0  0
    3.2576    1.8319    0.5002 O   0  0  0  0  0  0  0  0  0  0  0  0
    5.6598    1.5410    1.4292 O   0  0  0  0  0  0  0  0  0  0  0  0
    6.9787    0.9446    0.5572 P   0  0  0  0  0  0  0  0  0  0  0  0
    8.0211    2.0467    0.5047 O   0  0  0  0  0  0  0  0  0  0  0  0
    6.5635    0.5861   -1.0432 O   0  0  0  0  0  0  0  0  0  0  0  0
    7.7015   -0.3744    1.3038 O   0  0  0  0  0  0  0  0  0  0  0  0
    4.4861   -0.3280   -0.2820 O   0  0  0  0  0  0  0  0  0  0  0  0
    1.7428    2.0441    2.4829 O   0  0  0  0  0  0  0  0  0  0  0  0
   -1.0677   -1.9135    0.2010 O   0  0  0  0  0  0  0  0  0  0  0  0
   -1.8029   -1.4005   -0.8593 C   0  0  2  0  0  0  0  0  0  0  0  0
   -0.8605   -0.4084   -1.5078 C   0  0  2  0  0  0  0  0  0  0  0  0
   -1.2007   -0.1471   -2.8346 O   0  0  0  0  0  0  0  0  0  0  0  0
   -3.0536   -0.7676   -0.4720 C   0  0  0  0  0  0  0  0  0  0  0  0
   -4.6489   -1.1467   -1.4705 S   0  0  0  0  0  0  0  0  0  0  0  0
   -5.6562   -0.0139   -0.3736 C   0  0  0  0  0  0  0  0  0  0  0  0
   -4.6830    0.4636    0.5456 C   0  0  0  0  0  0  0  0  0  0  0  0
   -3.4958    0.0053    0.3565 N   0  0  0  0  0  0  0  0  0  0  0  0
   -5.2031    1.3455    1.4857 C   0  0  0  0  0  0  0  0  0  0  0  0
   -4.3966    1.8857    2.4293 F   0  0  0  0  0  0  0  0  0  0  0  0
   -6.5217    1.6689    1.4621 C   0  0  0  0  0  0  0  0  0  0  0  0
   -7.4422    1.1880    0.5559 C   0  0  0  0  0  0  0  0  0  0  0  0
   -6.9423    0.3012   -0.3971 C   0  0  0  0  0  0  0  0  0  0  0  0
   -9.1258    1.6206    0.5504 Cl  0  0  0  0  0  0  0  0  0  0  0  0
    0.7060   -1.3426   -3.3688 H   0  0  0  0  0  0  0  0  0  0  0  0
    1.3176   -0.4769   -1.3183 H   0  0  0  0  0  0  0  0  0  0  0  0
    0.5047   -3.1027   -0.4236 H   0  0  0  0  0  0  0  0  0  0  0  0
    1.0564   -2.1851    1.7901 H   0  0  0  0  0  0  0  0  0  0  0  0
    2.2253   -1.6268    0.5939 H   0  0  0  0  0  0  0  0  0  0  0  0
    6.6934    1.3396   -1.6658 H   0  0  0  0  0  0  0  0  0  0  0  0
    7.0763   -1.1155    1.5149 H   0  0  0  0  0  0  0  0  0  0  0  0
    3.7798   -0.2536   -0.9788 H   0  0  0  0  0  0  0  0  0  0  0  0
    2.5706    2.4830    2.8308 H   0  0  0  0  0  0  0  0  0  0  0  0
   -1.9613   -2.2220   -1.6174 H   0  0  0  0  0  0  0  0  0  0  0  0
   -0.7457    0.5054   -0.9119 H   0  0  0  0  0  0  0  0  0  0  0  0
   -1.3887    0.8228   -2.8994 H   0  0  0  0  0  0  0  0  0  0  0  0
   -6.8894    2.3732    2.2285 H   0  0  0  0  0  0  0  0  0  0  0  0
   -7.5979   -0.1334   -1.1584 H   0  0  0  0  0  0  0  0  0  0  0  0
  1  2  1  0
  2  3  1  0
  3  4  1  0
  4  5  1  0
  5  6  1  0
  6  7  2  0
  6  8  1  0
  8  9  1  0
  9 10  2  0
  9 11  1  0
 11 12  1  0
 12 13  2  0
 12 14  1  0
 12 15  1  0
  9 16  1  0
  6 17  1  0
  3 18  1  0
 18 19  1  0
 19 20  1  0
 20 21  1  0
 19 22  1  0
 22 23  1  0
 23 24  1  0
 24 25  2  0
 25 26  1  0
 25 27  1  0
 27 28  1  0
 27 29  2  0
 29 30  1  0
 30 31  2  0
 30 32  1  0
 20  2  1  0
 26 22  2  0
 31 24  1  0
  1 33  1  0
  2 34  1  1
  3 35  1  6
  4 36  1  0
  4 37  1  0
 14 38  1  0
 15 39  1  0
 16 40  1  0
 17 41  1  0
 19 42  1  6
 20 43  1  1
 21 44  1  0
 29 45  1  0
 31 46  1  0
M  END
>  <Ligand ID>  (1) 
LIG0002456

>  <Ligand>  (1) 
CHEMBL392989

>  <SMILES>  (1) 
O[C@@H]1[C@@H](COP(=O)(OP(=O)(OP(=O)(O)O)O)O)O[C@H]([C@@H]1O)c1sc2c(n1)c(F)cc(c2)Cl

>  <CID>  (1) 
10191162.0

>  <ChEMBL ID>  (1) 
nan

>  <InChiKey>  (1) 
NZDFJQYCJSIIQR-FOBYXSAKSA-N

>  <InChi>  (1) 
InChI=1S/C12H14ClFNO13P3S/c13-4-1-5(14)8-7(2-4)32-12(15-8)11-10(17)9(16)6(26-11)3-25-30(21,22)28-31(23,24)27-29(18,19)20/h1-2,6,9-11,16-17H,3H2,(H,21,22)(H,23,24)(H2,18,19,20)/t6-,9-,10-,11-/m1/s1

>  <IUPAC Name>  (1) 
[[(2R,3S,4R,5R)-5-(6-chloro-4-fluoro-1,3-benzothiazol-2-yl)-3,4-dihydroxyoxolan-2-yl]methoxy-hydroxyphosphoryl] phosphono hydrogen phosphate

$$$$
