
     RDKit          3D

 79 82  0  0  0  0  0  0  0  0999 V2000
    5.8062   -1.3238   -2.3182 C   0  0  0  0  0  0  0  0  0  0  0  0
    5.1651   -0.0219   -1.8149 C   0  0  0  0  0  0  0  0  0  0  0  0
    5.3244    0.1059   -0.3457 C   0  0  1  0  0  0  0  0  0  0  0  0
    4.7619    1.3063    0.2919 C   0  0  0  0  0  0  0  0  0  0  0  0
    5.5789    2.3108    0.8326 C   0  0  0  0  0  0  0  0  0  0  0  0
    5.0809    3.4197    1.4668 C   0  0  0  0  0  0  0  0  0  0  0  0
    6.1425    4.6398    2.1216 Cl  0  0  0  0  0  0  0  0  0  0  0  0
    3.7268    3.6070    1.6077 C   0  0  0  0  0  0  0  0  0  0  0  0
    2.8967    2.6428    1.0890 C   0  0  0  0  0  0  0  0  0  0  0  0
    3.4075    1.5087    0.4394 C   0  0  0  0  0  0  0  0  0  0  0  0
    2.3811    0.5900   -0.1121 C   0  0  0  0  0  0  0  0  0  0  0  0
    1.7996    1.3432   -1.3205 C   0  0  0  0  0  0  0  0  0  0  0  0
    0.8907    0.3628   -2.0175 C   0  0  0  0  0  0  0  0  0  0  0  0
   -0.2805    0.2294   -1.1162 N   0  0  0  0  0  0  0  0  0  0  0  0
   -0.1053    0.7168    0.2145 C   0  0  0  0  0  0  0  0  0  0  0  0
    1.2367    0.3724    0.8352 C   0  0  0  0  0  0  0  0  0  0  0  0
   -1.4161   -0.3563   -1.7078 C   0  0  0  0  0  0  0  0  0  0  0  0
   -1.2321   -0.6646   -2.9582 O   0  0  0  0  0  0  0  0  0  0  0  0
   -2.7119   -0.6564   -1.1576 C   0  0  1  0  0  0  0  0  0  0  0  0
   -2.8002   -1.6747   -0.0695 C   0  0  0  0  0  0  0  0  0  0  0  0
   -4.0333   -1.2879    0.5907 N   0  0  0  0  0  0  0  0  0  0  0  0
   -3.8691    0.1132    0.8040 C   0  0  0  0  0  0  0  0  0  0  0  0
   -3.3301    0.5830   -0.5460 C   0  0  2  0  0  0  0  0  0  0  0  0
   -4.4259    1.1646   -1.3493 C   0  0  0  0  0  0  0  0  0  0  0  0
   -5.3284    0.4723   -2.0870 C   0  0  0  0  0  0  0  0  0  0  0  0
   -6.3136    1.1406   -2.7863 C   0  0  0  0  0  0  0  0  0  0  0  0
   -6.4287    2.5025   -2.7720 C   0  0  0  0  0  0  0  0  0  0  0  0
   -5.5206    3.2243   -2.0274 C   0  0  0  0  0  0  0  0  0  0  0  0
   -4.5541    2.5583   -1.3423 C   0  0  0  0  0  0  0  0  0  0  0  0
   -3.6725    3.3223   -0.6149 F   0  0  0  0  0  0  0  0  0  0  0  0
   -7.8076    3.4068   -3.7526 Br  0  0  0  0  0  0  0  0  0  0  0  0
   -4.2798   -2.0328    1.8009 C   0  0  0  0  0  0  0  0  0  0  0  0
   -4.3904   -3.5113    1.5524 C   0  0  0  0  0  0  0  0  0  0  0  0
   -5.6114   -1.5583    2.3443 C   0  0  0  0  0  0  0  0  0  0  0  0
   -3.2468   -1.7919    2.8796 C   0  0  0  0  0  0  0  0  0  0  0  0
    5.2063   -1.1151    0.4191 N   0  0  0  0  0  0  0  0  0  0  0  0
    6.3706   -1.7020    1.0575 C   0  0  0  0  0  0  0  0  0  0  0  0
    7.5069   -1.1782    0.9704 O   0  0  0  0  0  0  0  0  0  0  0  0
    6.2271   -2.9768    1.8514 C   0  0  0  0  0  0  0  0  0  0  0  0
    6.9115   -1.2597   -2.2595 H   0  0  0  0  0  0  0  0  0  0  0  0
    5.3681   -2.1850   -1.8146 H   0  0  0  0  0  0  0  0  0  0  0  0
    5.5592   -1.3665   -3.4016 H   0  0  0  0  0  0  0  0  0  0  0  0
    5.7419    0.7776   -2.3688 H   0  0  0  0  0  0  0  0  0  0  0  0
    4.1759    0.0017   -2.2399 H   0  0  0  0  0  0  0  0  0  0  0  0
    6.4722    0.3036   -0.2595 H   0  0  0  0  0  0  0  0  0  0  0  0
    6.6612    2.2368    0.7626 H   0  0  0  0  0  0  0  0  0  0  0  0
    3.3084    4.4697    2.1025 H   0  0  0  0  0  0  0  0  0  0  0  0
    1.8336    2.8029    1.2059 H   0  0  0  0  0  0  0  0  0  0  0  0
    2.7409   -0.3918   -0.4108 H   0  0  0  0  0  0  0  0  0  0  0  0
    2.5810    1.7498   -1.9846 H   0  0  0  0  0  0  0  0  0  0  0  0
    1.2687    2.2202   -0.9069 H   0  0  0  0  0  0  0  0  0  0  0  0
    0.5795    0.7150   -3.0200 H   0  0  0  0  0  0  0  0  0  0  0  0
    1.3869   -0.6194   -2.1190 H   0  0  0  0  0  0  0  0  0  0  0  0
   -0.8521    0.2684    0.8777 H   0  0  0  0  0  0  0  0  0  0  0  0
   -0.2973    1.8167    0.2683 H   0  0  0  0  0  0  0  0  0  0  0  0
    1.3014    0.9248    1.7773 H   0  0  0  0  0  0  0  0  0  0  0  0
    1.1543   -0.7112    1.1473 H   0  0  0  0  0  0  0  0  0  0  0  0
   -3.3849   -1.0159   -2.0060 H   0  0  0  0  0  0  0  0  0  0  0  0
   -1.9396   -1.7335    0.5894 H   0  0  0  0  0  0  0  0  0  0  0  0
   -3.0143   -2.6571   -0.5694 H   0  0  0  0  0  0  0  0  0  0  0  0
   -3.1033    0.3721    1.5589 H   0  0  0  0  0  0  0  0  0  0  0  0
   -4.8323    0.6389    1.0106 H   0  0  0  0  0  0  0  0  0  0  0  0
   -2.5438    1.3697   -0.3641 H   0  0  0  0  0  0  0  0  0  0  0  0
   -5.3110   -0.5889   -2.1449 H   0  0  0  0  0  0  0  0  0  0  0  0
   -7.0361    0.5642   -3.3787 H   0  0  0  0  0  0  0  0  0  0  0  0
   -5.5748    4.3173   -1.9865 H   0  0  0  0  0  0  0  0  0  0  0  0
   -4.9748   -3.7411    0.6361 H   0  0  0  0  0  0  0  0  0  0  0  0
   -3.3929   -3.9705    1.5535 H   0  0  0  0  0  0  0  0  0  0  0  0
   -4.9421   -3.9433    2.4290 H   0  0  0  0  0  0  0  0  0  0  0  0
   -5.5105   -0.9419    3.2720 H   0  0  0  0  0  0  0  0  0  0  0  0
   -6.1607   -0.9103    1.6188 H   0  0  0  0  0  0  0  0  0  0  0  0
   -6.2956   -2.3883    2.6146 H   0  0  0  0  0  0  0  0  0  0  0  0
   -3.2624   -0.7594    3.2491 H   0  0  0  0  0  0  0  0  0  0  0  0
   -2.2600   -2.1515    2.5598 H   0  0  0  0  0  0  0  0  0  0  0  0
   -3.5534   -2.4242    3.7402 H   0  0  0  0  0  0  0  0  0  0  0  0
    4.3343   -1.6553    0.5733 H   0  0  0  0  0  0  0  0  0  0  0  0
    5.4460   -3.6123    1.3844 H   0  0  0  0  0  0  0  0  0  0  0  0
    7.1803   -3.5267    1.7104 H   0  0  0  0  0  0  0  0  0  0  0  0
    6.0854   -2.7865    2.9256 H   0  0  0  0  0  0  0  0  0  0  0  0
  1  2  1  0
  2  3  1  0
  3  4  1  0
  4  5  2  0
  5  6  1  0
  6  7  1  0
  6  8  2  0
  8  9  1  0
  9 10  2  0
 10 11  1  0
 11 12  1  0
 12 13  1  0
 13 14  1  0
 14 15  1  0
 15 16  1  0
 14 17  1  0
 17 18  2  0
 17 19  1  0
 19 20  1  0
 20 21  1  0
 21 22  1  0
 22 23  1  0
 23 24  1  0
 24 25  2  0
 25 26  1  0
 26 27  2  0
 27 28  1  0
 28 29  2  0
 29 30  1  0
 27 31  1  0
 21 32  1  0
 32 33  1  0
 32 34  1  0
 32 35  1  0
  3 36  1  0
 36 37  1  0
 37 38  2  0
 37 39  1  0
 10  4  1  0
 16 11  1  0
 23 19  1  0
 29 24  1  0
  1 40  1  0
  1 41  1  0
  1 42  1  0
  2 43  1  0
  2 44  1  0
  3 45  1  6
  5 46  1  0
  8 47  1  0
  9 48  1  0
 11 49  1  0
 12 50  1  0
 12 51  1  0
 13 52  1  0
 13 53  1  0
 15 54  1  0
 15 55  1  0
 16 56  1  0
 16 57  1  0
 19 58  1  6
 20 59  1  0
 20 60  1  0
 22 61  1  0
 22 62  1  0
 23 63  1  1
 25 64  1  0
 26 65  1  0
 28 66  1  0
 33 67  1  0
 33 68  1  0
 33 69  1  0
 34 70  1  0
 34 71  1  0
 34 72  1  0
 35 73  1  0
 35 74  1  0
 35 75  1  0
 36 76  1  0
 39 77  1  0
 39 78  1  0
 39 79  1  0
M  END
>  <Ligand ID>  (1) 
LIG0001553

>  <Ligand>  (1) 
CHEMBL255286

>  <SMILES>  (1) 
CC[C@@H](c1cc(Cl)ccc1C1CCN(CC1)C(=O)[C@H]1CN(C[C@@H]1c1ccc(cc1F)Br)C(C)(C)C)NC(=O)C

>  <CID>  (1) 
44448631.0

>  <ChEMBL ID>  (1) 
nan

>  <InChiKey>  (1) 
MIAUOPQGTJQSKK-XQFUHLNNSA-N

>  <InChi>  (1) 
InChI=1S/C31H40BrClFN3O2/c1-6-29(35-19(2)38)25-16-22(33)8-10-23(25)20-11-13-36(14-12-20)30(39)27-18-37(31(3,4)5)17-26(27)24-9-7-21(32)15-28(24)34/h7-10,15-16,20,26-27,29H,6,11-14,17-18H2,1-5H3,(H,35,38)/t26-,27+,29+/m1/s1

>  <IUPAC Name>  (1) 
N-[(1S)-1-[2-[1-[(3R,4S)-4-(4-bromo-2-fluorophenyl)-1-tert-butylpyrrolidine-3-carbonyl]piperidin-4-yl]-5-chlorophenyl]propyl]acetamide

$$$$
