
     RDKit          3D

 51 54  0  0  0  0  0  0  0  0999 V2000
   -1.6755   -1.8852   -2.5261 N   0  0  0  0  0  0  0  0  0  0  0  0
   -1.3165   -1.5876   -1.4465 C   0  0  0  0  0  0  0  0  0  0  0  0
   -0.8890   -1.2030   -0.1294 C   0  0  0  0  0  0  0  0  0  0  0  0
    0.4471   -1.3326    0.2695 C   0  0  0  0  0  0  0  0  0  0  0  0
    1.5565   -2.0026   -0.9717 S   0  0  0  0  0  0  0  0  0  0  0  0
    2.2093   -0.5948   -1.9166 C   0  0  0  0  0  0  0  0  0  0  0  0
    3.0672    0.1816   -0.9856 C   0  0  0  0  0  0  0  0  0  0  0  0
    2.6052    1.1969   -0.1844 C   0  0  0  0  0  0  0  0  0  0  0  0
    3.5372    1.8263    0.6258 C   0  0  0  0  0  0  0  0  0  0  0  0
    4.8472    1.4548    0.6262 N   0  0  0  0  0  0  0  0  0  0  0  0
    5.3237    0.4654   -0.1479 C   0  0  0  0  0  0  0  0  0  0  0  0
    4.4182   -0.1794   -0.9651 C   0  0  0  0  0  0  0  0  0  0  0  0
    6.7089    0.0449   -0.1771 C   0  0  0  0  0  0  0  0  0  0  0  0
    7.0882   -0.8939   -0.9292 O   0  0  0  0  0  0  0  0  0  0  0  0
    7.7230    0.6500    0.6255 N   0  0  0  0  0  0  0  0  0  0  0  0
    9.0701    0.0937    0.4631 C   0  0  0  0  0  0  0  0  0  0  0  0
    0.8613   -0.9775    1.4965 N   0  0  0  0  0  0  0  0  0  0  0  0
   -0.0382   -0.4751    2.3858 C   0  0  0  0  0  0  0  0  0  0  0  0
   -1.3839   -0.3248    2.0384 C   0  0  0  0  0  0  0  0  0  0  0  0
   -1.8197   -0.6882    0.7769 C   0  0  0  0  0  0  0  0  0  0  0  0
   -3.1874   -0.5701    0.3397 C   0  0  0  0  0  0  0  0  0  0  0  0
   -4.0206   -1.6759    0.5591 C   0  0  0  0  0  0  0  0  0  0  0  0
   -5.3430   -1.6170    0.1601 C   0  0  0  0  0  0  0  0  0  0  0  0
   -5.8989   -0.5138   -0.4519 C   0  0  0  0  0  0  0  0  0  0  0  0
   -5.0578    0.5842   -0.6659 C   0  0  0  0  0  0  0  0  0  0  0  0
   -3.7245    0.5435   -0.2713 C   0  0  0  0  0  0  0  0  0  0  0  0
   -5.6311    1.6765   -1.2781 O   0  0  0  0  0  0  0  0  0  0  0  0
   -6.8138    1.6514   -2.0528 C   0  0  0  0  0  0  0  0  0  0  0  0
   -7.7537    0.5410   -1.7057 C   0  0  0  0  0  0  0  0  0  0  0  0
   -7.2152   -0.4348   -0.8574 O   0  0  0  0  0  0  0  0  0  0  0  0
   -2.3444    0.2067    2.9699 C   0  0  0  0  0  0  0  0  0  0  0  0
   -3.0987    0.6312    3.7222 N   0  0  0  0  0  0  0  0  0  0  0  0
    0.4201   -0.1111    3.6627 N   0  0  0  0  0  0  0  0  0  0  0  0
    2.7821   -0.9952   -2.7723 H   0  0  0  0  0  0  0  0  0  0  0  0
    1.3944    0.0513   -2.3083 H   0  0  0  0  0  0  0  0  0  0  0  0
    1.5593    1.4657   -0.2096 H   0  0  0  0  0  0  0  0  0  0  0  0
    3.2211    2.6378    1.2796 H   0  0  0  0  0  0  0  0  0  0  0  0
    4.7844   -0.9843   -1.6007 H   0  0  0  0  0  0  0  0  0  0  0  0
    7.4952    1.4208    1.2638 H   0  0  0  0  0  0  0  0  0  0  0  0
    9.0027   -1.0086    0.5381 H   0  0  0  0  0  0  0  0  0  0  0  0
    9.4035    0.4059   -0.5695 H   0  0  0  0  0  0  0  0  0  0  0  0
    9.7226    0.4879    1.2464 H   0  0  0  0  0  0  0  0  0  0  0  0
   -3.6123   -2.5638    1.0404 H   0  0  0  0  0  0  0  0  0  0  0  0
   -5.9683   -2.4743    0.3361 H   0  0  0  0  0  0  0  0  0  0  0  0
   -3.0890    1.4018   -0.4447 H   0  0  0  0  0  0  0  0  0  0  0  0
   -6.4843    1.5899   -3.1302 H   0  0  0  0  0  0  0  0  0  0  0  0
   -7.2827    2.6493   -1.9231 H   0  0  0  0  0  0  0  0  0  0  0  0
   -8.6527    1.0121   -1.2086 H   0  0  0  0  0  0  0  0  0  0  0  0
   -8.1402    0.1178   -2.6701 H   0  0  0  0  0  0  0  0  0  0  0  0
    0.5484   -0.8010    4.4217 H   0  0  0  0  0  0  0  0  0  0  0  0
    0.6444    0.9060    3.8645 H   0  0  0  0  0  0  0  0  0  0  0  0
  1  2  3  0
  2  3  1  0
  3  4  2  0
  4  5  1  0
  5  6  1  0
  6  7  1  0
  7  8  2  0
  8  9  1  0
  9 10  2  0
 10 11  1  0
 11 12  2  0
 11 13  1  0
 13 14  2  0
 13 15  1  0
 15 16  1  0
  4 17  1  0
 17 18  2  0
 18 19  1  0
 19 20  2  0
 20 21  1  0
 21 22  2  0
 22 23  1  0
 23 24  2  0
 24 25  1  0
 25 26  2  0
 25 27  1  0
 27 28  1  0
 28 29  1  0
 29 30  1  0
 19 31  1  0
 31 32  3  0
 18 33  1  0
 20  3  1  0
 26 21  1  0
 12  7  1  0
 30 24  1  0
  6 34  1  0
  6 35  1  0
  8 36  1  0
  9 37  1  0
 12 38  1  0
 15 39  1  0
 16 40  1  0
 16 41  1  0
 16 42  1  0
 22 43  1  0
 23 44  1  0
 26 45  1  0
 28 46  1  0
 28 47  1  0
 29 48  1  0
 29 49  1  0
 33 50  1  0
 33 51  1  0
M  END
>  <Ligand ID>  (1) 
LIG0004667

>  <Ligand>  (1) 
SCHEMBL3327375

>  <SMILES>  (1) 
N#Cc1c(SCc2ccnc(c2)C(=O)NC)nc(c(c1c1ccc2c(c1)OCCO2)C#N)N

>  <CID>  (1) 
68597393.0

>  <ChEMBL ID>  (1) 
nan

>  <InChiKey>  (1) 
SUNDMAKIAUTEHN-UHFFFAOYSA-N

>  <InChi>  (1) 
InChI=1S/C23H18N6O3S/c1-27-22(30)17-8-13(4-5-28-17)12-33-23-16(11-25)20(15(10-24)21(26)29-23)14-2-3-18-19(9-14)32-7-6-31-18/h2-5,8-9H,6-7,12H2,1H3,(H2,26,29)(H,27,30)

>  <IUPAC Name>  (1) 
4-[[6-amino-3,5-dicyano-4-(2,3-dihydro-1,4-benzodioxin-6-yl)pyridin-2-yl]sulfanylmethyl]-N-methylpyridine-2-carboxamide

$$$$
