
     RDKit          3D

 21 17  0  0  0  0  0  0  0  0999 V2000
   -2.8778    0.3439    0.0033 N   0  0  0  0  0  0  0  0  0  0  0  0
   -1.4296    0.5582    0.0209 C   0  0  0  0  0  0  0  0  0  0  0  0
   -0.6755   -0.7630    0.1523 C   0  0  0  0  0  0  0  0  0  0  0  0
    0.7821   -0.4711    0.1635 C   0  0  0  0  0  0  0  0  0  0  0  0
    1.4359    0.6887    0.0808 N   0  0  0  0  0  0  0  0  0  0  0  0
    2.7644    0.4929    0.1304 C   0  0  0  0  0  0  0  0  0  0  0  0
    2.9277   -0.8419    0.2483 N   0  0  0  0  0  0  0  0  0  0  0  0
    1.7461   -1.4789    0.2733 C   0  0  0  0  0  0  0  0  0  0  0  0
    0.0000    0.0000    0.0000 Cl  0  0  0  0  0  0  0  0  0  0  0  0
    0.0000    0.0000    0.0000 Cl  0  0  0  0  0  0  0  0  0  0  0  0
    0.0000    0.0000    0.0000 H   0  0  0  0  0 15  0  0  0  0  0  0
    0.0000    0.0000    0.0000 H   0  0  0  0  0 15  0  0  0  0  0  0
   -3.1471    0.2399   -0.9957 H   0  0  0  0  0  0  0  0  0  0  0  0
   -3.3671    1.1915    0.4043 H   0  0  0  0  0  0  0  0  0  0  0  0
   -1.1976    1.2188    0.8819 H   0  0  0  0  0  0  0  0  0  0  0  0
   -1.1090    1.0962   -0.8920 H   0  0  0  0  0  0  0  0  0  0  0  0
   -1.0130   -1.2334    1.0739 H   0  0  0  0  0  0  0  0  0  0  0  0
   -0.9304   -1.3522   -0.7494 H   0  0  0  0  0  0  0  0  0  0  0  0
    0.9706    1.6346   -0.0114 H   0  0  0  0  0  0  0  0  0  0  0  0
    3.5773    1.2133    0.0891 H   0  0  0  0  0  0  0  0  0  0  0  0
    1.5430   -2.5374    0.3586 H   0  0  0  0  0  0  0  0  0  0  0  0
  1  2  1  0
  2  3  1  0
  3  4  1  0
  4  5  1  0
  5  6  1  0
  6  7  2  0
  7  8  1  0
  8  4  2  0
  1 13  1  0
  1 14  1  0
  2 15  1  0
  2 16  1  0
  3 17  1  0
  3 18  1  0
  5 19  1  0
  6 20  1  0
  8 21  1  0
M  CHG  4   9  -1  10  -1  11   1  12   1
M  END
>  <Ligand ID>  (1) 
LIG0005070

>  <Ligand>  (1) 
histamine dihcl

>  <SMILES>  (1) 
NCCc1[nH]cnc1.[Cl-].[Cl-].[H+].[H+]

>  <CID>  (1) 
57504843.0

>  <ChEMBL ID>  (1) 
nan

>  <InChiKey>  (1) 
PPZMYIBUHIPZOS-UHFFFAOYSA-N

>  <InChi>  (1) 
InChI=1S/C5H9N3.2ClH/c6-2-1-5-3-7-4-8-5;;/h3-4H,1-2,6H2,(H,7,8);2*1H

>  <IUPAC Name>  (1) 
hydron;2-(1H-imidazol-5-yl)ethanamine;dichloride

$$$$
