
     RDKit          3D

 38 40  0  0  0  0  0  0  0  0999 V2000
    3.8720   -1.7800    1.6523 C   0  0  0  0  0  0  0  0  0  0  0  0
    3.6207   -1.3747    0.2293 C   0  0  0  0  0  0  0  0  0  0  0  0
    2.4190   -0.4963    0.0793 C   0  0  0  0  0  0  0  0  0  0  0  0
    1.2079   -1.1167   -0.1416 C   0  0  0  0  0  0  0  0  0  0  0  0
    0.0935   -0.2912   -0.2808 C   0  0  0  0  0  0  0  0  0  0  0  0
   -1.1934   -0.9265   -0.5321 C   0  0  1  0  0  0  0  0  0  0  0  0
   -1.4946   -2.2057    0.1532 C   0  0  0  0  0  0  0  0  0  0  0  0
   -2.9504   -2.2954    0.1156 N   0  0  0  0  0  0  0  0  0  0  0  0
   -3.4517   -0.9815   -0.3221 C   0  0  0  0  0  0  0  0  0  0  0  0
   -2.3356   -0.0946    0.0783 C   0  0  2  0  0  0  0  0  0  0  0  0
   -2.2448    1.1820   -0.5820 N   0  0  0  0  0  0  0  0  0  0  0  0
   -1.0139    1.9117   -0.3555 C   0  0  0  0  0  0  0  0  0  0  0  0
   -1.0069    3.1535   -0.3016 O   0  0  0  0  0  0  0  0  0  0  0  0
    0.2148    1.0967   -0.1971 C   0  0  0  0  0  0  0  0  0  0  0  0
    1.4232    1.7224    0.0244 C   0  0  0  0  0  0  0  0  0  0  0  0
    2.5254    0.8745    0.1598 C   0  0  0  0  0  0  0  0  0  0  0  0
    1.5617    3.1751    0.1416 C   0  0  0  0  0  0  0  0  0  0  0  0
    0.8826    3.7486    1.1996 F   0  0  0  0  0  0  0  0  0  0  0  0
    1.3635    3.8408   -1.0524 F   0  0  0  0  0  0  0  0  0  0  0  0
    2.8891    3.4288    0.4384 F   0  0  0  0  0  0  0  0  0  0  0  0
   -3.2503    1.7637   -1.4149 C   0  0  0  0  0  0  0  0  0  0  0  0
    2.9870   -1.9378    2.2639 H   0  0  0  0  0  0  0  0  0  0  0  0
    4.4014   -2.7722    1.5981 H   0  0  0  0  0  0  0  0  0  0  0  0
    4.5616   -1.0995    2.1699 H   0  0  0  0  0  0  0  0  0  0  0  0
    3.4763   -2.2802   -0.4130 H   0  0  0  0  0  0  0  0  0  0  0  0
    4.4744   -0.7942   -0.1498 H   0  0  0  0  0  0  0  0  0  0  0  0
    1.1589   -2.1816   -0.1984 H   0  0  0  0  0  0  0  0  0  0  0  0
   -1.4267   -1.0150   -1.6137 H   0  0  0  0  0  0  0  0  0  0  0  0
   -1.1378   -2.1082    1.2175 H   0  0  0  0  0  0  0  0  0  0  0  0
   -0.9941   -3.1032   -0.2489 H   0  0  0  0  0  0  0  0  0  0  0  0
   -3.2937   -2.4027    1.1002 H   0  0  0  0  0  0  0  0  0  0  0  0
   -4.4183   -0.7637    0.1709 H   0  0  0  0  0  0  0  0  0  0  0  0
   -3.5633   -1.0231   -1.4295 H   0  0  0  0  0  0  0  0  0  0  0  0
   -2.2751   -0.0549    1.1641 H   0  0  0  0  0  0  0  0  0  0  0  0
    3.5009    1.3351    0.3357 H   0  0  0  0  0  0  0  0  0  0  0  0
   -3.3069    2.8800   -1.3062 H   0  0  0  0  0  0  0  0  0  0  0  0
   -4.2546    1.3693   -1.2488 H   0  0  0  0  0  0  0  0  0  0  0  0
   -3.0216    1.6167   -2.5036 H   0  0  0  0  0  0  0  0  0  0  0  0
  1  2  1  0
  2  3  1  0
  3  4  2  0
  4  5  1  0
  5  6  1  0
  6  7  1  0
  7  8  1  0
  8  9  1  0
  9 10  1  0
 10 11  1  0
 11 12  1  0
 12 13  2  0
 12 14  1  0
 14 15  1  0
 15 16  2  0
 15 17  1  0
 17 18  1  0
 17 19  1  0
 17 20  1  0
 11 21  1  0
 16  3  1  0
 14  5  2  0
 10  6  1  0
  1 22  1  0
  1 23  1  0
  1 24  1  0
  2 25  1  0
  2 26  1  0
  4 27  1  0
  6 28  1  6
  7 29  1  0
  7 30  1  0
  8 31  1  0
  9 32  1  0
  9 33  1  0
 10 34  1  1
 16 35  1  0
 21 36  1  0
 21 37  1  0
 21 38  1  0
M  END
>  <Ligand ID>  (1) 
LIG0004100

>  <Ligand>  (1) 
CHEMBL2337488

>  <SMILES>  (1) 
CCc1cc2[C@H]3CNC[C@@H]3N(C(=O)c2c(c1)C(F)(F)F)C

>  <CID>  (1) 
11595191.0

>  <ChEMBL ID>  (1) 
nan

>  <InChiKey>  (1) 
ZNGNYBWMSPSURG-PWSUYJOCSA-N

>  <InChi>  (1) 
InChI=1S/C15H17F3N2O/c1-3-8-4-9-10-6-19-7-12(10)20(2)14(21)13(9)11(5-8)15(16,17)18/h4-5,10,12,19H,3,6-7H2,1-2H3/t10-,12+/m1/s1

>  <IUPAC Name>  (1) 
(3aR,9bS)-8-ethyl-4-methyl-6-(trifluoromethyl)-2,3,3a,9b-tetrahydro-1H-pyrrolo[3,4-c]isoquinolin-5-one

$$$$
