
     RDKit          3D

 26 26  0  0  0  0  0  0  0  0999 V2000
   -3.4663   -1.3799   -0.2555 N   0  0  0  0  0  0  0  0  0  0  0  0
   -2.9687   -0.0206   -0.3260 C   0  0  0  0  0  0  0  0  0  0  0  0
   -1.4795    0.0253   -0.5821 C   0  0  1  0  0  0  0  0  0  0  0  0
   -0.9754    1.4671   -0.6528 C   0  0  0  0  0  0  0  0  0  0  0  0
   -0.5341    0.5286    0.4054 C   0  0  2  0  0  0  0  0  0  0  0  0
    0.8886    0.1459    0.3972 C   0  0  0  0  0  0  0  0  0  0  0  0
    1.7852    1.0193    0.9958 C   0  0  0  0  0  0  0  0  0  0  0  0
    3.1319    0.7673    1.0391 C   0  0  0  0  0  0  0  0  0  0  0  0
    3.6118   -0.3817    0.4750 C   0  0  0  0  0  0  0  0  0  0  0  0
    2.7729   -1.2781   -0.1281 C   0  0  0  0  0  0  0  0  0  0  0  0
    1.4078   -0.9937   -0.1561 C   0  0  0  0  0  0  0  0  0  0  0  0
    0.6183   -1.9020   -0.7497 F   0  0  0  0  0  0  0  0  0  0  0  0
    3.2487   -2.4248   -0.6915 F   0  0  0  0  0  0  0  0  0  0  0  0
    0.6921    0.0000    0.0000 Cl  0  0  0  0  0  0  0  0  0  0  0  0
   -2.8059   -2.0199    0.2352 H   0  0  0  0  0  0  0  0  0  0  0  0
   -4.4138   -1.3729    0.1508 H   0  0  0  0  0  0  0  0  0  0  0  0
   -3.2686    0.5625    0.5674 H   0  0  0  0  0  0  0  0  0  0  0  0
   -3.4591    0.4581   -1.1997 H   0  0  0  0  0  0  0  0  0  0  0  0
   -1.1520   -0.6793   -1.3420 H   0  0  0  0  0  0  0  0  0  0  0  0
   -1.6124    2.2983   -0.3633 H   0  0  0  0  0  0  0  0  0  0  0  0
   -0.3695    1.6664   -1.5507 H   0  0  0  0  0  0  0  0  0  0  0  0
   -0.9211    0.7492    1.4379 H   0  0  0  0  0  0  0  0  0  0  0  0
    1.4342    1.9359    1.4500 H   0  0  0  0  0  0  0  0  0  0  0  0
    3.8541    1.4312    1.4995 H   0  0  0  0  0  0  0  0  0  0  0  0
    4.6730   -0.6022    0.4971 H   0  0  0  0  0  0  0  0  0  0  0  0
   -0.6921    0.0000    0.0000 H   0  0  0  0  0  0  0  0  0  0  0  0
  1  2  1  0
  2  3  1  0
  3  4  1  0
  4  5  1  0
  5  6  1  0
  6  7  2  0
  7  8  1  0
  8  9  2  0
  9 10  1  0
 10 11  2  0
 11 12  1  0
 10 13  1  0
  5  3  1  0
 11  6  1  0
  1 15  1  0
  1 16  1  0
  2 17  1  0
  2 18  1  0
  3 19  1  6
  4 20  1  0
  4 21  1  0
  5 22  1  1
  7 23  1  0
  8 24  1  0
  9 25  1  0
 14 26  1  0
M  END
>  <Ligand ID>  (1) 
LIG0002355

>  <Ligand>  (1) 
CHEMBL492305

>  <SMILES>  (1) 
NC[C@H]1C[C@@H]1c1cccc(c1F)F.Cl

>  <CID>  (1) 
44573011.0

>  <ChEMBL ID>  (1) 
nan

>  <InChiKey>  (1) 
CYQYAFBTNDIJDT-HNJRQZNRSA-N

>  <InChi>  (1) 
InChI=1S/C10H11F2N.ClH/c11-9-3-1-2-7(10(9)12)8-4-6(8)5-13;/h1-3,6,8H,4-5,13H2;1H/t6-,8+;/m1./s1

>  <IUPAC Name>  (1) 
[(1S,2S)-2-(2,3-difluorophenyl)cyclopropyl]methanamine;hydrochloride

$$$$
