
     RDKit          3D

 53 57  0  0  0  0  0  0  0  0999 V2000
   -3.3940    1.2224    3.3589 O   0  0  0  0  0  0  0  0  0  0  0  0
   -3.2131    0.7060    2.2265 C   0  0  0  0  0  0  0  0  0  0  0  0
   -4.1925    0.4328    1.2047 N   0  0  0  0  0  0  0  0  0  0  0  0
   -3.5393   -0.1591    0.0530 C   0  0  0  0  0  0  0  0  0  0  0  0
   -2.1118   -0.2415    0.4497 C   0  0  0  0  0  0  0  0  0  0  0  0
   -1.9189    0.2686    1.7154 C   0  0  0  0  0  0  0  0  0  0  0  0
   -0.6669    0.3104    2.3188 C   0  0  0  0  0  0  0  0  0  0  0  0
    0.4029   -0.1837    1.6015 C   0  0  0  0  0  0  0  0  0  0  0  0
    0.2648   -0.7058    0.3312 C   0  0  0  0  0  0  0  0  0  0  0  0
   -1.0132   -0.7277   -0.2372 C   0  0  0  0  0  0  0  0  0  0  0  0
    1.4192   -1.2206   -0.3928 C   0  0  0  0  0  0  0  0  0  0  0  0
    1.2326   -2.2665   -1.2830 C   0  0  0  0  0  0  0  0  0  0  0  0
    2.2513   -2.8160   -2.0043 C   0  0  0  0  0  0  0  0  0  0  0  0
    3.5367   -2.3278   -1.8610 C   0  0  0  0  0  0  0  0  0  0  0  0
    3.7267   -1.2846   -0.9743 C   0  0  0  0  0  0  0  0  0  0  0  0
    2.6942   -0.7359   -0.2507 C   0  0  0  0  0  0  0  0  0  0  0  0
    5.1167   -0.8005   -0.8543 C   0  0  0  0  0  0  0  0  0  0  0  0
    6.1688   -1.6937   -1.0138 C   0  0  0  0  0  0  0  0  0  0  0  0
    7.4912   -1.3001   -0.9154 C   0  0  0  0  0  0  0  0  0  0  0  0
    7.7544    0.0430   -0.6465 C   0  0  0  0  0  0  0  0  0  0  0  0
    6.6974    0.9144   -0.4914 C   0  0  0  0  0  0  0  0  0  0  0  0
    5.3762    0.5253   -0.5889 C   0  0  0  0  0  0  0  0  0  0  0  0
    6.9908    2.3177   -0.2110 C   0  0  0  0  0  0  0  0  0  0  0  0
    8.1947    2.6735   -0.1082 O   0  0  0  0  0  0  0  0  0  0  0  0
    6.0016    3.2768   -0.0530 O   0  0  0  0  0  0  0  0  0  0  0  0
    9.4002    0.6189   -0.5082 Cl  0  0  0  0  0  0  0  0  0  0  0  0
   -5.6026    0.7318    1.3796 C   0  0  0  0  0  0  0  0  0  0  0  0
   -6.4643   -0.4852    1.2170 C   0  0  0  0  0  0  0  0  0  0  0  0
   -6.9595   -0.4841   -0.2087 C   0  0  0  0  0  0  0  0  0  0  0  0
   -6.7545    0.9119   -0.7499 C   0  0  0  0  0  0  0  0  0  0  0  0
   -6.1030    1.7010    0.3578 C   0  0  0  0  0  0  0  0  0  0  0  0
   -3.5798    0.5495   -0.8141 H   0  0  0  0  0  0  0  0  0  0  0  0
   -3.9559   -1.1510   -0.2082 H   0  0  0  0  0  0  0  0  0  0  0  0
   -0.5429    0.7203    3.3227 H   0  0  0  0  0  0  0  0  0  0  0  0
    1.4112   -0.1836    2.0084 H   0  0  0  0  0  0  0  0  0  0  0  0
   -1.1615   -1.1257   -1.2235 H   0  0  0  0  0  0  0  0  0  0  0  0
    0.2362   -2.6690   -1.4158 H   0  0  0  0  0  0  0  0  0  0  0  0
    2.0473   -3.6295   -2.6831 H   0  0  0  0  0  0  0  0  0  0  0  0
    4.3340   -2.7743   -2.4403 H   0  0  0  0  0  0  0  0  0  0  0  0
    2.8775    0.0802    0.4353 H   0  0  0  0  0  0  0  0  0  0  0  0
    5.9699   -2.7285   -1.2209 H   0  0  0  0  0  0  0  0  0  0  0  0
    8.3176   -1.9846   -1.0372 H   0  0  0  0  0  0  0  0  0  0  0  0
    4.5840    1.2544   -0.4579 H   0  0  0  0  0  0  0  0  0  0  0  0
    6.1633    4.2617    0.0472 H   0  0  0  0  0  0  0  0  0  0  0  0
   -5.7340    1.1735    2.3905 H   0  0  0  0  0  0  0  0  0  0  0  0
   -5.9494   -1.4322    1.4746 H   0  0  0  0  0  0  0  0  0  0  0  0
   -7.3366   -0.4042    1.8987 H   0  0  0  0  0  0  0  0  0  0  0  0
   -8.0480   -0.7822   -0.2465 H   0  0  0  0  0  0  0  0  0  0  0  0
   -6.4305   -1.2456   -0.8310 H   0  0  0  0  0  0  0  0  0  0  0  0
   -7.7325    1.3692   -1.0233 H   0  0  0  0  0  0  0  0  0  0  0  0
   -6.0818    0.9193   -1.6250 H   0  0  0  0  0  0  0  0  0  0  0  0
   -6.8419    2.3823    0.8634 H   0  0  0  0  0  0  0  0  0  0  0  0
   -5.3331    2.3672   -0.0754 H   0  0  0  0  0  0  0  0  0  0  0  0
  1  2  2  0
  2  3  1  0
  3  4  1  0
  4  5  1  0
  5  6  2  0
  6  7  1  0
  7  8  2  0
  8  9  1  0
  9 10  2  0
  9 11  1  0
 11 12  2  0
 12 13  1  0
 13 14  2  0
 14 15  1  0
 15 16  2  0
 15 17  1  0
 17 18  2  0
 18 19  1  0
 19 20  2  0
 20 21  1  0
 21 22  2  0
 21 23  1  0
 23 24  2  0
 23 25  1  0
 20 26  1  0
  3 27  1  0
 27 28  1  0
 28 29  1  0
 29 30  1  0
 30 31  1  0
  6  2  1  0
 16 11  1  0
 22 17  1  0
 31 27  1  0
 10  5  1  0
  4 32  1  0
  4 33  1  0
  7 34  1  0
  8 35  1  0
 10 36  1  0
 12 37  1  0
 13 38  1  0
 14 39  1  0
 16 40  1  0
 18 41  1  0
 19 42  1  0
 22 43  1  0
 25 44  1  0
 27 45  1  0
 28 46  1  0
 28 47  1  0
 29 48  1  0
 29 49  1  0
 30 50  1  0
 30 51  1  0
 31 52  1  0
 31 53  1  0
M  END
>  <Ligand ID>  (1) 
LIG0000500

>  <Ligand>  (1) 
CHEMBL2179646

>  <SMILES>  (1) 
O=C1N(Cc2c1ccc(c2)c1cccc(c1)c1ccc(c(c1)C(=O)O)Cl)C1CCCC1

>  <CID>  (1) 
66799514.0

>  <ChEMBL ID>  (1) 
nan

>  <InChiKey>  (1) 
PPCUNFCLHSRGJB-UHFFFAOYSA-N

>  <InChi>  (1) 
InChI=1S/C26H22ClNO3/c27-24-11-9-19(14-23(24)26(30)31)17-5-3-4-16(12-17)18-8-10-22-20(13-18)15-28(25(22)29)21-6-1-2-7-21/h3-5,8-14,21H,1-2,6-7,15H2,(H,30,31)

>  <IUPAC Name>  (1) 
2-chloro-5-[3-(2-cyclopentyl-1-oxo-3H-isoindol-5-yl)phenyl]benzoic acid

$$$$
