
     RDKit          3D

 43 44  0  0  0  0  0  0  0  0999 V2000
   -3.2547   -2.8611   -1.2603 C   0  0  0  0  0  0  0  0  0  0  0  0
   -2.2318   -2.3600   -0.2254 C   0  0  0  0  0  0  0  0  0  0  0  0
   -2.1998   -0.8598   -0.3836 C   0  0  0  0  0  0  0  0  0  0  0  0
   -1.3109   -0.1850    0.4945 N   0  0  0  0  0  0  0  0  0  0  0  0
    0.0683   -0.4938    0.1842 C   0  0  0  0  0  0  0  0  0  0  0  0
    0.4157    0.0814   -1.1343 C   0  0  0  0  0  0  0  0  0  0  0  0
    1.6836   -0.6252   -1.6350 C   0  0  0  0  0  0  0  0  0  0  0  0
    2.7110   -0.2552   -0.6267 C   0  0  0  0  0  0  0  0  0  0  0  0
    2.3976   -0.0081    0.6895 C   0  0  0  0  0  0  0  0  0  0  0  0
    1.0266   -0.0734    1.2491 C   0  0  0  0  0  0  0  0  0  0  0  0
    3.4147    0.3336    1.5765 C   0  0  0  0  0  0  0  0  0  0  0  0
    3.1203    0.5890    2.9207 O   0  0  0  0  0  0  0  0  0  0  0  0
    4.7299    0.4232    1.1330 C   0  0  0  0  0  0  0  0  0  0  0  0
    5.0302    0.1730   -0.1906 C   0  0  0  0  0  0  0  0  0  0  0  0
    4.0200   -0.1689   -1.0823 C   0  0  0  0  0  0  0  0  0  0  0  0
   -1.4800    1.2474    0.2773 C   0  0  0  0  0  0  0  0  0  0  0  0
   -2.8031    1.7883    0.7242 C   0  0  0  0  0  0  0  0  0  0  0  0
   -2.8587    3.3008    0.4525 C   0  0  0  0  0  0  0  0  0  0  0  0
   -3.0972   -3.9730   -1.3342 H   0  0  0  0  0  0  0  0  0  0  0  0
   -4.2851   -2.7043   -0.9235 H   0  0  0  0  0  0  0  0  0  0  0  0
   -3.0291   -2.4291   -2.2609 H   0  0  0  0  0  0  0  0  0  0  0  0
   -1.3011   -2.8736   -0.5189 H   0  0  0  0  0  0  0  0  0  0  0  0
   -2.6117   -2.6293    0.7645 H   0  0  0  0  0  0  0  0  0  0  0  0
   -2.1140   -0.6333   -1.4546 H   0  0  0  0  0  0  0  0  0  0  0  0
   -3.2465   -0.5406   -0.0771 H   0  0  0  0  0  0  0  0  0  0  0  0
    0.1224   -1.6278    0.1926 H   0  0  0  0  0  0  0  0  0  0  0  0
   -0.3481    0.1395   -1.8974 H   0  0  0  0  0  0  0  0  0  0  0  0
    0.7749    1.1390   -0.9371 H   0  0  0  0  0  0  0  0  0  0  0  0
    1.9403   -0.2650   -2.6503 H   0  0  0  0  0  0  0  0  0  0  0  0
    1.4811   -1.7115   -1.5949 H   0  0  0  0  0  0  0  0  0  0  0  0
    0.8264    0.9156    1.7107 H   0  0  0  0  0  0  0  0  0  0  0  0
    1.0497   -0.7777    2.1144 H   0  0  0  0  0  0  0  0  0  0  0  0
    2.7925   -0.1911    3.4844 H   0  0  0  0  0  0  0  0  0  0  0  0
    5.5113    0.6902    1.8416 H   0  0  0  0  0  0  0  0  0  0  0  0
    6.0576    0.2413   -0.5446 H   0  0  0  0  0  0  0  0  0  0  0  0
    4.2515   -0.3651   -2.1205 H   0  0  0  0  0  0  0  0  0  0  0  0
   -1.3735    1.5228   -0.8116 H   0  0  0  0  0  0  0  0  0  0  0  0
   -0.7065    1.8600    0.7808 H   0  0  0  0  0  0  0  0  0  0  0  0
   -3.6620    1.3903    0.1439 H   0  0  0  0  0  0  0  0  0  0  0  0
   -2.9419    1.6767    1.8230 H   0  0  0  0  0  0  0  0  0  0  0  0
   -3.7993    3.6087   -0.0364 H   0  0  0  0  0  0  0  0  0  0  0  0
   -2.7376    3.8891    1.3693 H   0  0  0  0  0  0  0  0  0  0  0  0
   -2.0330    3.6022   -0.2266 H   0  0  0  0  0  0  0  0  0  0  0  0
  1  2  1  0
  2  3  1  0
  3  4  1  0
  4  5  1  0
  5  6  1  0
  6  7  1  0
  7  8  1  0
  8  9  2  0
  9 10  1  0
  9 11  1  0
 11 12  1  0
 11 13  2  0
 13 14  1  0
 14 15  2  0
  4 16  1  0
 16 17  1  0
 17 18  1  0
 10  5  1  0
 15  8  1  0
  1 19  1  0
  1 20  1  0
  1 21  1  0
  2 22  1  0
  2 23  1  0
  3 24  1  0
  3 25  1  0
  5 26  1  0
  6 27  1  0
  6 28  1  0
  7 29  1  0
  7 30  1  0
 10 31  1  0
 10 32  1  0
 12 33  1  0
 13 34  1  0
 14 35  1  0
 15 36  1  0
 16 37  1  0
 16 38  1  0
 17 39  1  0
 17 40  1  0
 18 41  1  0
 18 42  1  0
 18 43  1  0
M  END
>  <Ligand ID>  (1) 
LIG0000979

>  <Ligand>  (1) 
8-OH-DPAT

>  <SMILES>  (1) 
CCCN(C1CCc2c(C1)c(O)ccc2)CCC

>  <CID>  (1) 
1220.0

>  <ChEMBL ID>  (1) 
nan

>  <InChiKey>  (1) 
ASXGJMSKWNBENU-UHFFFAOYSA-N

>  <InChi>  (1) 
InChI=1S/C16H25NO/c1-3-10-17(11-4-2)14-9-8-13-6-5-7-16(18)15(13)12-14/h5-7,14,18H,3-4,8-12H2,1-2H3

>  <IUPAC Name>  (1) 
7-(dipropylamino)-5,6,7,8-tetrahydronaphthalen-1-ol

$$$$
