
     RDKit          3D

197204  0  0  0  0  0  0  0  0999 V2000
    9.5247   -5.2632   -2.0011 N   0  0  0  0  0  0  0  0  0  0  0  0
    8.2810   -5.1496   -1.3143 C   0  0  0  0  0  0  0  0  0  0  0  0
    7.2136   -5.4306   -1.9410 N   0  0  0  0  0  0  0  0  0  0  0  0
    8.1815   -4.7475    0.0329 N   0  0  0  0  0  0  0  0  0  0  0  0
    7.0576   -4.8114    0.8887 C   0  0  0  0  0  0  0  0  0  0  0  0
    5.9287   -3.8599    0.5271 C   0  0  0  0  0  0  0  0  0  0  0  0
    6.4143   -2.4472    0.4724 C   0  0  0  0  0  0  0  0  0  0  0  0
    5.3185   -1.4658    0.2644 C   0  0  2  0  0  0  0  0  0  0  0  0
    4.5806   -1.6929   -0.9468 N   0  0  0  0  0  0  0  0  0  0  0  0
    3.2074   -2.1124   -0.7824 C   0  0  0  0  0  0  0  0  0  0  0  0
    2.9099   -2.4504    0.3743 O   0  0  0  0  0  0  0  0  0  0  0  0
    2.1894   -2.1725   -1.8308 C   0  0  1  0  0  0  0  0  0  0  0  0
    2.5445   -2.8630   -3.0863 C   0  0  0  0  0  0  0  0  0  0  0  0
    2.8252   -4.2940   -3.0283 C   0  0  0  0  0  0  0  0  0  0  0  0
    1.6903   -5.1252   -3.1892 C   0  0  0  0  0  0  0  0  0  0  0  0
    1.7610   -6.4819   -3.1859 C   0  0  0  0  0  0  0  0  0  0  0  0
    2.9769   -7.0884   -3.0180 C   0  0  0  0  0  0  0  0  0  0  0  0
    4.0865   -6.2762   -2.8599 C   0  0  0  0  0  0  0  0  0  0  0  0
    4.0349   -4.9021   -2.8621 C   0  0  0  0  0  0  0  0  0  0  0  0
    0.9948   -2.8997   -1.2461 N   0  0  0  0  0  0  0  0  0  0  0  0
   -0.2655   -2.3744   -1.1048 C   0  0  0  0  0  0  0  0  0  0  0  0
   -0.3387   -1.1328   -1.4913 O   0  0  0  0  0  0  0  0  0  0  0  0
   -1.5139   -2.9375   -0.6150 C   0  0  2  0  0  0  0  0  0  0  0  0
   -1.9456   -4.2518   -1.2077 C   0  0  0  0  0  0  0  0  0  0  0  0
   -1.1881   -5.4443   -0.9134 C   0  0  0  0  0  0  0  0  0  0  0  0
   -1.4815   -6.6530   -1.5154 N   0  0  0  0  0  0  0  0  0  0  0  0
   -0.7146   -7.6169   -1.0058 C   0  0  0  0  0  0  0  0  0  0  0  0
    0.0888   -7.0889   -0.0747 N   0  0  0  0  0  0  0  0  0  0  0  0
   -0.1965   -5.7761   -0.0196 C   0  0  0  0  0  0  0  0  0  0  0  0
   -2.6848   -2.0537   -0.7391 N   0  0  0  0  0  0  0  0  0  0  0  0
   -3.7524   -2.3033    0.1319 C   0  0  0  0  0  0  0  0  0  0  0  0
   -3.5058   -3.2744    0.9643 O   0  0  0  0  0  0  0  0  0  0  0  0
   -5.0668   -1.7247    0.3003 C   0  0  1  0  0  0  0  0  0  0  0  0
   -5.7848   -2.8112    1.1227 N   0  0  0  0  0  0  0  0  0  0  0  0
   -7.0913   -3.1783    0.7681 C   0  0  0  0  0  0  0  0  0  0  0  0
   -7.6868   -2.6239   -0.1943 O   0  0  0  0  0  0  0  0  0  0  0  0
   -7.7854   -4.2316    1.5375 C   0  0  2  0  0  0  0  0  0  0  0  0
   -8.7007   -3.5651    2.5696 C   0  0  0  0  0  0  0  0  0  0  0  0
   -9.4157   -4.6143    3.3438 C   0  0  0  0  0  0  0  0  0  0  0  0
   -8.8661   -5.1807    4.4738 C   0  0  0  0  0  0  0  0  0  0  0  0
   -9.4895   -6.1689    5.1984 C   0  0  0  0  0  0  0  0  0  0  0  0
  -10.7204   -6.5858    4.7429 C   0  0  0  0  0  0  0  0  0  0  0  0
  -11.3327   -6.0672    3.6247 C   0  0  0  0  0  0  0  0  0  0  0  0
  -10.6662   -5.0711    2.9222 C   0  0  0  0  0  0  0  0  0  0  0  0
  -11.3514   -7.5992    5.4905 O   0  0  0  0  0  0  0  0  0  0  0  0
   -6.7436   -4.9685    2.2766 N   0  0  0  0  0  0  0  0  0  0  0  0
   -5.3033   -0.5386    1.1205 C   0  0  0  0  0  0  0  0  0  0  0  0
   -4.9070    0.8076    0.9246 C   0  0  0  0  0  0  0  0  0  0  0  0
   -4.0241    1.3043    1.6746 O   0  0  0  0  0  0  0  0  0  0  0  0
   -5.2915    1.8294   -0.0059 N   0  0  0  0  0  0  0  0  0  0  0  0
   -5.9854    1.5367   -1.1937 C   0  0  2  0  0  0  0  0  0  0  0  0
   -7.2898    0.9178   -1.0991 C   0  0  0  0  0  0  0  0  0  0  0  0
   -7.8416    0.5783    0.0092 O   0  0  0  0  0  0  0  0  0  0  0  0
   -8.0756    0.6401   -2.2318 N   0  0  0  0  0  0  0  0  0  0  0  0
   -5.0913    0.8852   -2.2178 C   0  0  0  0  0  0  0  0  0  0  0  0
   -5.7103    0.5355   -3.4830 C   0  0  0  0  0  0  0  0  0  0  0  0
   -6.2571   -0.7250   -3.7677 C   0  0  0  0  0  0  0  0  0  0  0  0
   -6.8338   -1.0118   -4.9808 C   0  0  0  0  0  0  0  0  0  0  0  0
   -6.8562   -0.0029   -5.9254 C   0  0  0  0  0  0  0  0  0  0  0  0
   -6.3411    1.2528   -5.7161 C   0  0  0  0  0  0  0  0  0  0  0  0
   -5.7740    1.4920   -4.4802 C   0  0  0  0  0  0  0  0  0  0  0  0
   -7.4261   -0.2792   -7.1373 O   0  0  0  0  0  0  0  0  0  0  0  0
   -5.0299    3.2332    0.3307 C   0  0  0  0  0  0  0  0  0  0  0  0
   -5.4636    4.2018   -0.7133 C   0  0  0  0  0  0  0  0  0  0  0  0
   -3.6835    3.5165    0.7214 N   0  0  0  0  0  0  0  0  0  0  0  0
   -3.2857    4.7523    1.3628 C   0  0  0  0  0  0  0  0  0  0  0  0
   -4.2224    5.5401    1.5536 O   0  0  0  0  0  0  0  0  0  0  0  0
   -1.9470    5.1057    1.7638 C   0  0  1  0  0  0  0  0  0  0  0  0
   -0.9760    4.0489    1.6894 N   0  0  0  0  0  0  0  0  0  0  0  0
    0.3873    4.1407    2.1170 C   0  0  0  0  0  0  0  0  0  0  0  0
    0.7819    5.2045    2.5355 O   0  0  0  0  0  0  0  0  0  0  0  0
    1.1786    2.8643    1.9715 C   0  0  1  0  0  0  0  0  0  0  0  0
    2.5810    3.1178    1.7703 N   0  0  0  0  0  0  0  0  0  0  0  0
    2.9146    3.6459    0.4526 C   0  0  0  0  0  0  0  0  0  0  0  0
    1.9067    3.9740   -0.2018 O   0  0  0  0  0  0  0  0  0  0  0  0
    4.2901    3.7808   -0.0220 C   0  0  1  0  0  0  0  0  0  0  0  0
    5.1676    2.7670    0.5035 N   0  0  0  0  0  0  0  0  0  0  0  0
    6.5335    2.9172    0.8377 C   0  0  0  0  0  0  0  0  0  0  0  0
    6.9750    4.0742    0.7577 O   0  0  0  0  0  0  0  0  0  0  0  0
    7.3551    1.7624    1.2480 C   0  0  1  0  0  0  0  0  0  0  0  0
    6.6196    0.4993    1.2917 N   0  0  0  0  0  0  0  0  0  0  0  0
    6.0578   -0.1230    0.1459 C   0  0  0  0  0  0  0  0  0  0  0  0
    6.1857    0.4613   -0.9294 O   0  0  0  0  0  0  0  0  0  0  0  0
    8.6327    1.5924    0.4680 C   0  0  0  0  0  0  0  0  0  0  0  0
    9.5600    2.7256    0.5719 C   0  0  0  0  0  0  0  0  0  0  0  0
    9.6080    3.8012   -0.2797 C   0  0  0  0  0  0  0  0  0  0  0  0
   10.5346    4.8060   -0.0880 C   0  0  0  0  0  0  0  0  0  0  0  0
   11.4458    4.7766    0.9588 C   0  0  0  0  0  0  0  0  0  0  0  0
   11.3815    3.6907    1.8008 C   0  0  0  0  0  0  0  0  0  0  0  0
   10.4735    2.6702    1.6425 C   0  0  0  0  0  0  0  0  0  0  0  0
   12.2945    3.6253    2.8490 C   0  0  0  0  0  0  0  0  0  0  0  0
   13.2239    4.6352    3.0171 C   0  0  0  0  0  0  0  0  0  0  0  0
   13.2879    5.7360    2.1666 C   0  0  0  0  0  0  0  0  0  0  0  0
   12.3735    5.8031    1.1141 C   0  0  0  0  0  0  0  0  0  0  0  0
    4.3550    3.9045   -1.5478 C   0  0  0  0  0  0  0  0  0  0  0  0
    3.6230    5.1463   -1.9381 C   0  0  0  0  0  0  0  0  0  0  0  0
    3.1288    5.9562   -1.1246 O   0  0  0  0  0  0  0  0  0  0  0  0
    3.4553    5.4720   -3.3358 N   0  0  0  0  0  0  0  0  0  0  0  0
    0.8662    2.0652    3.1835 C   0  0  0  0  0  0  0  0  0  0  0  0
   -1.4476    6.2875    0.8654 C   0  0  0  0  0  0  0  0  0  0  0  0
   -2.3804    7.4300    1.0300 C   0  0  0  0  0  0  0  0  0  0  0  0
   -2.3169    8.3106    2.0908 C   0  0  0  0  0  0  0  0  0  0  0  0
   -3.1979    9.3567    2.2102 C   0  0  0  0  0  0  0  0  0  0  0  0
   -4.1948    9.5682    1.2599 C   0  0  0  0  0  0  0  0  0  0  0  0
   -4.2712    8.6942    0.1902 C   0  0  0  0  0  0  0  0  0  0  0  0
   -3.3746    7.6506    0.0897 C   0  0  0  0  0  0  0  0  0  0  0  0
   -5.9787    3.4287    1.5046 C   0  0  0  0  0  0  0  0  0  0  0  0
   -5.5769    3.7011    2.6525 O   0  0  0  0  0  0  0  0  0  0  0  0
   -7.3471    3.3053    1.3205 O   0  0  0  0  0  0  0  0  0  0  0  0
   10.0448   -4.4170   -2.3331 H   0  0  0  0  0  0  0  0  0  0  0  0
    9.8781   -6.2439   -2.1516 H   0  0  0  0  0  0  0  0  0  0  0  0
    7.1505   -5.7414   -2.9263 H   0  0  0  0  0  0  0  0  0  0  0  0
    9.0837   -4.3407    0.4448 H   0  0  0  0  0  0  0  0  0  0  0  0
    6.5994   -5.8265    0.8578 H   0  0  0  0  0  0  0  0  0  0  0  0
    7.3056   -4.6407    1.9589 H   0  0  0  0  0  0  0  0  0  0  0  0
    5.1610   -3.9221    1.3185 H   0  0  0  0  0  0  0  0  0  0  0  0
    5.5017   -4.1582   -0.4321 H   0  0  0  0  0  0  0  0  0  0  0  0
    7.0500   -2.1930    1.3627 H   0  0  0  0  0  0  0  0  0  0  0  0
    7.0652   -2.3890   -0.4610 H   0  0  0  0  0  0  0  0  0  0  0  0
    4.6755   -1.4561    1.1747 H   0  0  0  0  0  0  0  0  0  0  0  0
    4.8858   -1.6144   -1.9034 H   0  0  0  0  0  0  0  0  0  0  0  0
    1.7769   -1.1755   -2.0818 H   0  0  0  0  0  0  0  0  0  0  0  0
    1.7315   -2.6437   -3.8299 H   0  0  0  0  0  0  0  0  0  0  0  0
    3.4464   -2.3169   -3.5034 H   0  0  0  0  0  0  0  0  0  0  0  0
    0.7047   -4.6821   -3.3241 H   0  0  0  0  0  0  0  0  0  0  0  0
    0.8976   -7.1007   -3.3149 H   0  0  0  0  0  0  0  0  0  0  0  0
    3.0651   -8.1765   -3.0066 H   0  0  0  0  0  0  0  0  0  0  0  0
    5.0205   -6.8072   -2.7387 H   0  0  0  0  0  0  0  0  0  0  0  0
    4.8905   -4.2517   -2.7406 H   0  0  0  0  0  0  0  0  0  0  0  0
    1.2356   -3.8325   -0.9774 H   0  0  0  0  0  0  0  0  0  0  0  0
   -1.4296   -3.2030    0.4955 H   0  0  0  0  0  0  0  0  0  0  0  0
   -2.0531   -4.1243   -2.3483 H   0  0  0  0  0  0  0  0  0  0  0  0
   -3.0061   -4.4391   -0.9137 H   0  0  0  0  0  0  0  0  0  0  0  0
   -2.1929   -6.7976   -2.2655 H   0  0  0  0  0  0  0  0  0  0  0  0
   -0.7469   -8.6504   -1.3071 H   0  0  0  0  0  0  0  0  0  0  0  0
    0.2731   -5.1022    0.6530 H   0  0  0  0  0  0  0  0  0  0  0  0
   -2.7489   -1.2975   -1.3982 H   0  0  0  0  0  0  0  0  0  0  0  0
   -5.6995   -1.7542   -0.6294 H   0  0  0  0  0  0  0  0  0  0  0  0
   -5.2445   -3.2249    1.9165 H   0  0  0  0  0  0  0  0  0  0  0  0
   -8.3575   -4.9428    0.9389 H   0  0  0  0  0  0  0  0  0  0  0  0
   -9.3350   -2.8624    2.0552 H   0  0  0  0  0  0  0  0  0  0  0  0
   -8.0311   -3.0278    3.2750 H   0  0  0  0  0  0  0  0  0  0  0  0
   -7.8982   -4.8540    4.8419 H   0  0  0  0  0  0  0  0  0  0  0  0
   -9.0239   -6.5905    6.0790 H   0  0  0  0  0  0  0  0  0  0  0  0
  -12.3162   -6.4118    3.2777 H   0  0  0  0  0  0  0  0  0  0  0  0
  -11.0965   -4.6245    2.0304 H   0  0  0  0  0  0  0  0  0  0  0  0
  -10.7529   -8.3574    5.8491 H   0  0  0  0  0  0  0  0  0  0  0  0
   -7.1122   -5.9005    2.5093 H   0  0  0  0  0  0  0  0  0  0  0  0
   -6.3688   -4.4271    3.0645 H   0  0  0  0  0  0  0  0  0  0  0  0
   -6.3374   -0.6149    1.6511 H   0  0  0  0  0  0  0  0  0  0  0  0
   -4.6921   -0.8447    2.1169 H   0  0  0  0  0  0  0  0  0  0  0  0
   -6.2176    2.5740   -1.6718 H   0  0  0  0  0  0  0  0  0  0  0  0
   -8.2132    1.2588   -3.0570 H   0  0  0  0  0  0  0  0  0  0  0  0
   -8.6076   -0.2829   -2.2712 H   0  0  0  0  0  0  0  0  0  0  0  0
   -4.6303   -0.0095   -1.7810 H   0  0  0  0  0  0  0  0  0  0  0  0
   -4.2220    1.5626   -2.4779 H   0  0  0  0  0  0  0  0  0  0  0  0
   -6.2264   -1.4885   -3.0055 H   0  0  0  0  0  0  0  0  0  0  0  0
   -7.2610   -1.9743   -5.2248 H   0  0  0  0  0  0  0  0  0  0  0  0
   -6.3579    2.0500   -6.4583 H   0  0  0  0  0  0  0  0  0  0  0  0
   -5.3644    2.4774   -4.2962 H   0  0  0  0  0  0  0  0  0  0  0  0
   -8.3512   -0.0365   -7.4501 H   0  0  0  0  0  0  0  0  0  0  0  0
   -6.5789    4.3117   -0.7989 H   0  0  0  0  0  0  0  0  0  0  0  0
   -4.9684    4.0546   -1.7029 H   0  0  0  0  0  0  0  0  0  0  0  0
   -5.1315    5.2194   -0.4150 H   0  0  0  0  0  0  0  0  0  0  0  0
   -2.9304    2.8683    0.5497 H   0  0  0  0  0  0  0  0  0  0  0  0
   -1.9031    5.5665    2.7530 H   0  0  0  0  0  0  0  0  0  0  0  0
   -1.2373    3.1335    1.3092 H   0  0  0  0  0  0  0  0  0  0  0  0
    0.7974    2.4019    1.0596 H   0  0  0  0  0  0  0  0  0  0  0  0
    3.3635    3.0117    2.3844 H   0  0  0  0  0  0  0  0  0  0  0  0
    4.6583    4.8175    0.2953 H   0  0  0  0  0  0  0  0  0  0  0  0
    4.7487    1.8502    0.6911 H   0  0  0  0  0  0  0  0  0  0  0  0
    7.6741    1.9747    2.2986 H   0  0  0  0  0  0  0  0  0  0  0  0
    6.4702    0.0031    2.1770 H   0  0  0  0  0  0  0  0  0  0  0  0
    8.4249    1.4101   -0.6159 H   0  0  0  0  0  0  0  0  0  0  0  0
    9.1684    0.6711    0.8032 H   0  0  0  0  0  0  0  0  0  0  0  0
    8.9212    3.8595   -1.1044 H   0  0  0  0  0  0  0  0  0  0  0  0
   10.5405    5.6435   -0.7747 H   0  0  0  0  0  0  0  0  0  0  0  0
   10.4419    1.8166    2.3344 H   0  0  0  0  0  0  0  0  0  0  0  0
   12.2329    2.7639    3.5114 H   0  0  0  0  0  0  0  0  0  0  0  0
   13.9036    4.5081    3.8592 H   0  0  0  0  0  0  0  0  0  0  0  0
   14.0325    6.4725    2.3559 H   0  0  0  0  0  0  0  0  0  0  0  0
   12.4107    6.6448    0.4532 H   0  0  0  0  0  0  0  0  0  0  0  0
    3.9131    3.0248   -2.0549 H   0  0  0  0  0  0  0  0  0  0  0  0
    5.4082    4.0510   -1.8410 H   0  0  0  0  0  0  0  0  0  0  0  0
    4.3362    5.7874   -3.8044 H   0  0  0  0  0  0  0  0  0  0  0  0
    2.5279    5.4001   -3.8067 H   0  0  0  0  0  0  0  0  0  0  0  0
    0.9230    2.7788    4.0801 H   0  0  0  0  0  0  0  0  0  0  0  0
   -0.1602    1.6765    3.1337 H   0  0  0  0  0  0  0  0  0  0  0  0
    1.5720    1.2329    3.3626 H   0  0  0  0  0  0  0  0  0  0  0  0
   -1.5398    5.9058   -0.1671 H   0  0  0  0  0  0  0  0  0  0  0  0
   -0.4453    6.6005    1.1442 H   0  0  0  0  0  0  0  0  0  0  0  0
   -1.5362    8.1477    2.8302 H   0  0  0  0  0  0  0  0  0  0  0  0
   -3.1625   10.0678    3.0488 H   0  0  0  0  0  0  0  0  0  0  0  0
   -4.8926   10.3809    1.3577 H   0  0  0  0  0  0  0  0  0  0  0  0
   -5.0632    8.8733   -0.5468 H   0  0  0  0  0  0  0  0  0  0  0  0
   -3.4663    6.9800   -0.7841 H   0  0  0  0  0  0  0  0  0  0  0  0
   -7.9993    3.9246    1.8314 H   0  0  0  0  0  0  0  0  0  0  0  0
  1  2  1  0
  2  3  2  3
  2  4  1  0
  4  5  1  0
  5  6  1  0
  6  7  1  0
  7  8  1  0
  8  9  1  0
  9 10  1  0
 10 11  2  0
 10 12  1  0
 12 13  1  0
 13 14  1  0
 14 15  2  0
 15 16  1  0
 16 17  2  0
 17 18  1  0
 18 19  2  0
 12 20  1  0
 20 21  1  0
 21 22  2  0
 21 23  1  0
 23 24  1  0
 24 25  1  0
 25 26  1  0
 26 27  1  0
 27 28  2  0
 28 29  1  0
 23 30  1  0
 30 31  1  0
 31 32  2  0
 31 33  1  0
 33 34  1  0
 34 35  1  0
 35 36  2  0
 35 37  1  0
 37 38  1  0
 38 39  1  0
 39 40  2  0
 40 41  1  0
 41 42  2  0
 42 43  1  0
 43 44  2  0
 42 45  1  0
 37 46  1  0
 33 47  1  0
 47 48  1  0
 48 49  2  0
 48 50  1  0
 50 51  1  0
 51 52  1  0
 52 53  2  0
 52 54  1  0
 51 55  1  0
 55 56  1  0
 56 57  2  0
 57 58  1  0
 58 59  2  0
 59 60  1  0
 60 61  2  0
 59 62  1  0
 50 63  1  0
 63 64  1  0
 63 65  1  0
 65 66  1  0
 66 67  2  0
 66 68  1  0
 68 69  1  0
 69 70  1  0
 70 71  2  0
 70 72  1  0
 72 73  1  0
 73 74  1  0
 74 75  2  0
 74 76  1  0
 76 77  1  0
 77 78  1  0
 78 79  2  0
 78 80  1  0
 80 81  1  0
 81 82  1  0
 82 83  2  0
 80 84  1  0
 84 85  1  0
 85 86  2  0
 86 87  1  0
 87 88  2  0
 88 89  1  0
 89 90  2  0
 89 91  1  0
 91 92  2  0
 92 93  1  0
 93 94  2  0
 76 95  1  0
 95 96  1  0
 96 97  2  0
 96 98  1  0
 72 99  1  0
 68100  1  0
100101  1  0
101102  2  0
102103  1  0
103104  2  0
104105  1  0
105106  2  0
 63107  1  0
107108  2  0
107109  1  0
 82  8  1  0
 90 85  1  0
106101  1  0
 19 14  1  0
 29 25  2  0
 44 39  1  0
 61 56  1  0
 94 88  1  0
  1110  1  0
  1111  1  0
  3112  1  0
  4113  1  0
  5114  1  0
  5115  1  0
  6116  1  0
  6117  1  0
  7118  1  0
  7119  1  0
  8120  1  1
  9121  1  0
 12122  1  6
 13123  1  0
 13124  1  0
 15125  1  0
 16126  1  0
 17127  1  0
 18128  1  0
 19129  1  0
 20130  1  0
 23131  1  1
 24132  1  0
 24133  1  0
 26134  1  0
 27135  1  0
 29136  1  0
 30137  1  0
 33138  1  6
 34139  1  0
 37140  1  6
 38141  1  0
 38142  1  0
 40143  1  0
 41144  1  0
 43145  1  0
 44146  1  0
 45147  1  0
 46148  1  0
 46149  1  0
 47150  1  0
 47151  1  0
 51152  1  6
 54153  1  0
 54154  1  0
 55155  1  0
 55156  1  0
 57157  1  0
 58158  1  0
 60159  1  0
 61160  1  0
 62161  1  0
 64162  1  0
 64163  1  0
 64164  1  0
 65165  1  0
 68166  1  1
 69167  1  0
 72168  1  6
 73169  1  0
 76170  1  1
 77171  1  0
 80172  1  1
 81173  1  0
 84174  1  0
 84175  1  0
 86176  1  0
 87177  1  0
 90178  1  0
 91179  1  0
 92180  1  0
 93181  1  0
 94182  1  0
 95183  1  0
 95184  1  0
 98185  1  0
 98186  1  0
 99187  1  0
 99188  1  0
 99189  1  0
100190  1  0
100191  1  0
102192  1  0
103193  1  0
104194  1  0
105195  1  0
106196  1  0
109197  1  0
M  END
>  <Ligand ID>  (1) 
LIG0001162

>  <Ligand>  (1) 
CHEMBL2096717

>  <SMILES>  (1) 
NC(=N)NCCC[C@@H]1NC(=O)[C@@H](Cc2ccccc2)NC(=O)[C@H](Cc2[nH]cnc2)NC(=O)[C@@H](NC(=O)[C@H](Cc2ccc(cc2)O)N)CC(=O)N([C@H](C(=O)N)Cc2ccc(cc2)O)C(C)(NC(=O)[C@@H](NC(=O)[C@@H](NC(=O)[C@@H](NC(=O)[C@@H](NC1=O)Cc1ccc2c(c1)cccc2)CC(=O)N)C)Cc1ccccc1)C(=O)O

>  <CID>  (1) 
91900704.0

>  <ChEMBL ID>  (1) 
nan

>  <InChiKey>  (1) 
VKIVIEKNSBJNLA-KALNRBGGSA-N

>  <InChi>  (1) 
InChI=1S/C75H88N18O16/c1-41-64(99)86-56(33-43-14-7-4-8-15-43)72(107)92-75(2,73(108)109)93(60(63(78)98)35-45-22-27-51(95)28-23-45)62(97)38-59(87-65(100)52(76)31-44-20-25-50(94)26-21-44)71(106)90-57(36-49-39-81-40-83-49)70(105)89-54(32-42-12-5-3-6-13-42)68(103)85-53(18-11-29-82-74(79)80)66(101)88-55(69(104)91-58(37-61(77)96)67(102)84-41)34-46-19-24-47-16-9-10-17-48(47)30-46/h3-10,12-17,19-28,30,39-41,52-60,94-95H,11,18,29,31-38,76H2,1-2H3,(H2,77,96)(H2,78,98)(H,81,83)(H,84,102)(H,85,103)(H,86,99)(H,87,100)(H,88,101)(H,89,105)(H,90,106)(H,91,104)(H,92,107)(H,108,109)(H4,79,80,82)/t41-,52-,53-,54+,55-,56-,57-,58-,59-,60-,75?/m0/s1

>  <IUPAC Name>  (1) 
(5S,8S,11S,14S,17S,20R,23S,26S)-1-[(2S)-1-amino-3-(4-hydroxyphenyl)-1-oxopropan-2-yl]-26-[[(2S)-2-amino-3-(4-hydroxyphenyl)propanoyl]amino]-11-(2-amino-2-oxoethyl)-5,20-dibenzyl-17-(3-carbamimidamidopropyl)-23-(1H-imidazol-5-ylmethyl)-2,8-dimethyl-14-(naphthalen-2-ylmethyl)-4,7,10,13,16,19,22,25,28-nonaoxo-1,3,6,9,12,15,18,21,24-nonazacyclooctacosane-2-carboxylic acid

$$$$
