
     RDKit          3D

 65 67  0  0  0  0  0  0  0  0999 V2000
    2.7238   -0.0352   -2.2759 C   0  0  0  0  0  0  0  0  0  0  0  0
    2.8584   -0.0084   -0.7444 C   0  0  2  0  0  0  0  0  0  0  0  0
    1.6009    0.6288   -0.2352 C   0  0  1  0  0  0  0  0  0  0  0  0
    0.4716   -0.2556   -0.7215 C   0  0  0  0  0  0  0  0  0  0  0  0
   -0.5909   -0.5066    0.0092 C   0  0  0  0  0  0  0  0  0  0  0  0
   -1.6620   -1.3845   -0.5320 C   0  0  1  0  0  0  0  0  0  0  0  0
   -1.6426   -2.6856    0.1986 C   0  0  0  0  0  0  0  0  0  0  0  0
   -2.9813   -2.8593    0.8774 C   0  0  0  0  0  0  0  0  0  0  0  0
   -3.5113   -1.4934    0.8939 C   0  0  0  0  0  0  0  0  0  0  0  0
   -4.3513   -1.0383    1.7016 O   0  0  0  0  0  0  0  0  0  0  0  0
   -2.9249   -0.7453   -0.1572 N   0  0  0  0  0  0  0  0  0  0  0  0
   -3.4318    0.4663   -0.8085 C   0  0  0  0  0  0  0  0  0  0  0  0
   -4.2686    0.0149   -1.9540 C   0  0  0  0  0  0  0  0  0  0  0  0
   -5.4289   -0.8490   -1.5709 C   0  0  0  0  0  0  0  0  0  0  0  0
   -6.3690   -0.1439   -0.7228 C   0  0  0  0  0  0  0  0  0  0  0  0
   -7.5073   -0.6385   -0.1901 C   0  0  0  0  0  0  0  0  0  0  0  0
   -8.2693    0.1531    0.5774 C   0  0  0  0  0  0  0  0  0  0  0  0
   -7.8631    1.4336    0.7914 C   0  0  0  0  0  0  0  0  0  0  0  0
   -6.3125    1.5454   -0.1399 S   0  0  0  0  0  0  0  0  0  0  0  0
   -8.4520    2.5242    1.5598 C   0  0  0  0  0  0  0  0  0  0  0  0
   -9.5438    2.3889    2.1948 O   0  0  0  0  0  0  0  0  0  0  0  0
   -7.8176    3.7354    1.6054 O   0  0  0  0  0  0  0  0  0  0  0  0
   -2.8168   -3.2887    2.1895 F   0  0  0  0  0  0  0  0  0  0  0  0
   -3.7181   -3.7519    0.1565 F   0  0  0  0  0  0  0  0  0  0  0  0
    1.5159    0.5405    1.1693 O   0  0  0  0  0  0  0  0  0  0  0  0
    4.1223    0.7079   -0.4073 C   0  0  0  0  0  0  0  0  0  0  0  0
    4.3860    0.8096    1.0645 C   0  0  0  0  0  0  0  0  0  0  0  0
    5.6970    1.5416    1.3381 C   0  0  0  0  0  0  0  0  0  0  0  0
    6.8466    0.8349    0.7210 C   0  0  0  0  0  0  0  0  0  0  0  0
    7.2947    1.0810   -0.5516 C   0  0  0  0  0  0  0  0  0  0  0  0
    8.3622    0.4118   -1.0989 C   0  0  0  0  0  0  0  0  0  0  0  0
    9.0038   -0.5462   -0.3279 C   0  0  0  0  0  0  0  0  0  0  0  0
    8.5791   -0.8086    0.9358 C   0  0  0  0  0  0  0  0  0  0  0  0
    7.5146   -0.1310    1.4611 C   0  0  0  0  0  0  0  0  0  0  0  0
    2.3471   -1.0150   -2.5995 H   0  0  0  0  0  0  0  0  0  0  0  0
    2.0347    0.7541   -2.6404 H   0  0  0  0  0  0  0  0  0  0  0  0
    3.7163    0.1764   -2.7350 H   0  0  0  0  0  0  0  0  0  0  0  0
    2.8789   -1.0410   -0.3757 H   0  0  0  0  0  0  0  0  0  0  0  0
    1.4331    1.6578   -0.5878 H   0  0  0  0  0  0  0  0  0  0  0  0
    0.5296   -0.7113   -1.7210 H   0  0  0  0  0  0  0  0  0  0  0  0
   -0.6896   -0.0789    0.9992 H   0  0  0  0  0  0  0  0  0  0  0  0
   -1.5657   -1.5191   -1.6201 H   0  0  0  0  0  0  0  0  0  0  0  0
   -0.8605   -2.7213    0.9989 H   0  0  0  0  0  0  0  0  0  0  0  0
   -1.4289   -3.5622   -0.4415 H   0  0  0  0  0  0  0  0  0  0  0  0
   -3.8997    1.1603   -0.1266 H   0  0  0  0  0  0  0  0  0  0  0  0
   -2.5608    1.0268   -1.2571 H   0  0  0  0  0  0  0  0  0  0  0  0
   -4.7189    0.9031   -2.4874 H   0  0  0  0  0  0  0  0  0  0  0  0
   -3.6487   -0.4858   -2.7329 H   0  0  0  0  0  0  0  0  0  0  0  0
   -5.9540   -1.1079   -2.5157 H   0  0  0  0  0  0  0  0  0  0  0  0
   -5.0659   -1.8125   -1.1515 H   0  0  0  0  0  0  0  0  0  0  0  0
   -7.8046   -1.7041   -0.3937 H   0  0  0  0  0  0  0  0  0  0  0  0
   -9.2204   -0.2059    1.0423 H   0  0  0  0  0  0  0  0  0  0  0  0
   -8.1721    4.5696    2.0665 H   0  0  0  0  0  0  0  0  0  0  0  0
    1.0780    1.3681    1.4715 H   0  0  0  0  0  0  0  0  0  0  0  0
    4.1333    1.7136   -0.8924 H   0  0  0  0  0  0  0  0  0  0  0  0
    4.9499    0.1428   -0.9053 H   0  0  0  0  0  0  0  0  0  0  0  0
    4.3409   -0.1770    1.5370 H   0  0  0  0  0  0  0  0  0  0  0  0
    3.5989    1.4424    1.5545 H   0  0  0  0  0  0  0  0  0  0  0  0
    5.5680    2.5743    0.9792 H   0  0  0  0  0  0  0  0  0  0  0  0
    5.8774    1.5690    2.4320 H   0  0  0  0  0  0  0  0  0  0  0  0
    6.7780    1.8315   -1.1307 H   0  0  0  0  0  0  0  0  0  0  0  0
    8.7348    0.5868   -2.0984 H   0  0  0  0  0  0  0  0  0  0  0  0
    9.8556   -1.1059   -0.7138 H   0  0  0  0  0  0  0  0  0  0  0  0
    9.0540   -1.5499    1.5701 H   0  0  0  0  0  0  0  0  0  0  0  0
    7.1677   -0.3269    2.4570 H   0  0  0  0  0  0  0  0  0  0  0  0
  1  2  1  0
  2  3  1  0
  3  4  1  0
  4  5  2  0
  5  6  1  0
  6  7  1  0
  7  8  1  0
  8  9  1  0
  9 10  2  0
  9 11  1  0
 11 12  1  0
 12 13  1  0
 13 14  1  0
 14 15  1  0
 15 16  2  0
 16 17  1  0
 17 18  2  0
 18 19  1  0
 18 20  1  0
 20 21  2  0
 20 22  1  0
  8 23  1  0
  8 24  1  0
  3 25  1  0
  2 26  1  0
 26 27  1  0
 27 28  1  0
 28 29  1  0
 29 30  2  0
 30 31  1  0
 31 32  2  0
 32 33  1  0
 33 34  2  0
 11  6  1  0
 19 15  1  0
 34 29  1  0
  1 35  1  0
  1 36  1  0
  1 37  1  0
  2 38  1  1
  3 39  1  1
  4 40  1  0
  5 41  1  0
  6 42  1  6
  7 43  1  0
  7 44  1  0
 12 45  1  0
 12 46  1  0
 13 47  1  0
 13 48  1  0
 14 49  1  0
 14 50  1  0
 16 51  1  0
 17 52  1  0
 22 53  1  0
 25 54  1  0
 26 55  1  0
 26 56  1  0
 27 57  1  0
 27 58  1  0
 28 59  1  0
 28 60  1  0
 30 61  1  0
 31 62  1  0
 32 63  1  0
 33 64  1  0
 34 65  1  0
M  END
>  <Ligand ID>  (1) 
LIG0005219

>  <Ligand>  (1) 
CHEMBL3975743

>  <SMILES>  (1) 
C[C@H]([C@@H](/C=C/[C@H]1CC(C(=O)N1CCCc1ccc(s1)C(=O)O)(F)F)O)CCCc1ccccc1

>  <CID>  (1) 
72948479.0

>  <ChEMBL ID>  (1) 
nan

>  <InChiKey>  (1) 
UXQWNSWYEJSWBM-GJWBGHMGSA-N

>  <InChi>  (1) 
InChI=1S/C26H31F2NO4S/c1-18(7-5-10-19-8-3-2-4-9-19)22(30)14-12-20-17-26(27,28)25(33)29(20)16-6-11-21-13-15-23(34-21)24(31)32/h2-4,8-9,12-15,18,20,22,30H,5-7,10-11,16-17H2,1H3,(H,31,32)/b14-12+/t18-,20-,22+/m0/s1

>  <IUPAC Name>  (1) 
5-[3-[(5R)-3,3-difluoro-5-[(E,3S,4S)-3-hydroxy-4-methyl-7-phenylhept-1-enyl]-2-oxopyrrolidin-1-yl]propyl]thiophene-2-carboxylic acid

$$$$
