
     RDKit          3D

 50 51  0  0  0  0  0  0  0  0999 V2000
   -1.8822   -0.3005   -0.6000 O   0  0  0  0  0  0  0  0  0  0  0  0
   -2.0096   -1.2869    0.1680 C   0  0  0  0  0  0  0  0  0  0  0  0
   -3.2831   -2.0296    0.3455 C   0  0  0  0  0  0  0  0  0  0  0  0
   -4.3923   -1.4895   -0.4907 C   0  0  2  0  0  0  0  0  0  0  0  0
   -4.7256   -0.0742   -0.2075 C   0  0  0  0  0  0  0  0  0  0  0  0
   -5.0607    0.3064    1.0693 C   0  0  0  0  0  0  0  0  0  0  0  0
   -5.3734    1.6451    1.3264 C   0  0  0  0  0  0  0  0  0  0  0  0
   -5.3431    2.5805    0.2890 C   0  0  0  0  0  0  0  0  0  0  0  0
   -5.0034    2.1942   -1.0048 C   0  0  0  0  0  0  0  0  0  0  0  0
   -4.6926    0.8545   -1.2510 C   0  0  0  0  0  0  0  0  0  0  0  0
   -5.6469   -2.2889   -0.1354 C   0  0  0  0  0  0  0  0  0  0  0  0
   -0.8768   -1.7319    0.9195 N   0  0  0  0  0  0  0  0  0  0  0  0
    0.4037   -1.0282    0.7758 C   0  0  0  0  0  0  0  0  0  0  0  0
    0.4497   -0.0933    0.0263 N   0  0  0  0  0  0  0  0  0  0  0  0
    1.0467    0.9419   -0.6195 C   0  0  0  0  0  0  0  0  0  0  0  0
    2.5207    0.9974   -0.8363 C   0  0  0  0  0  0  0  0  0  0  0  0
    3.3858    1.0465    0.3684 C   0  0  0  0  0  0  0  0  0  0  0  0
    4.8482    1.1155   -0.0123 C   0  0  0  0  0  0  0  0  0  0  0  0
    5.9235    2.4668    0.0170 S   0  0  0  0  0  0  0  0  0  0  0  0
    7.3965    1.4570   -0.6237 C   0  0  0  0  0  0  0  0  0  0  0  0
    6.8655    0.3633   -0.7397 N   0  0  0  0  0  0  0  0  0  0  0  0
    5.6352    0.0533   -0.4790 C   0  0  0  0  0  0  0  0  0  0  0  0
    5.0437   -1.3212   -0.6457 C   0  0  0  0  0  0  0  0  0  0  0  0
    8.6456    2.0954   -0.8115 N   0  0  0  0  0  0  0  0  0  0  0  0
    1.4350   -1.6134    1.5997 N   0  0  0  0  0  0  0  0  0  0  0  0
   -3.5241   -2.0846    1.4175 H   0  0  0  0  0  0  0  0  0  0  0  0
   -3.0835   -3.0625    0.0042 H   0  0  0  0  0  0  0  0  0  0  0  0
   -4.1492   -1.6271   -1.5558 H   0  0  0  0  0  0  0  0  0  0  0  0
   -5.0893   -0.4045    1.8839 H   0  0  0  0  0  0  0  0  0  0  0  0
   -5.6397    1.9467    2.3411 H   0  0  0  0  0  0  0  0  0  0  0  0
   -5.5873    3.6349    0.4790 H   0  0  0  0  0  0  0  0  0  0  0  0
   -4.9793    2.9292   -1.8234 H   0  0  0  0  0  0  0  0  0  0  0  0
   -4.4322    0.5749   -2.2607 H   0  0  0  0  0  0  0  0  0  0  0  0
   -5.9212   -1.9935    0.9082 H   0  0  0  0  0  0  0  0  0  0  0  0
   -5.4734   -3.3740   -0.1348 H   0  0  0  0  0  0  0  0  0  0  0  0
   -6.5197   -1.9828   -0.7593 H   0  0  0  0  0  0  0  0  0  0  0  0
   -0.9669   -2.5463    1.5594 H   0  0  0  0  0  0  0  0  0  0  0  0
    0.7154    1.9616   -0.1973 H   0  0  0  0  0  0  0  0  0  0  0  0
    0.6138    0.9928   -1.6899 H   0  0  0  0  0  0  0  0  0  0  0  0
    2.8165    1.8824   -1.4757 H   0  0  0  0  0  0  0  0  0  0  0  0
    2.7845    0.1222   -1.4935 H   0  0  0  0  0  0  0  0  0  0  0  0
    3.2320    1.9750    0.9762 H   0  0  0  0  0  0  0  0  0  0  0  0
    3.3355    0.1704    1.0282 H   0  0  0  0  0  0  0  0  0  0  0  0
    5.8476   -2.0897   -0.4585 H   0  0  0  0  0  0  0  0  0  0  0  0
    4.5841   -1.4560   -1.6292 H   0  0  0  0  0  0  0  0  0  0  0  0
    4.2605   -1.4894    0.1182 H   0  0  0  0  0  0  0  0  0  0  0  0
    8.9095    2.4702   -1.7550 H   0  0  0  0  0  0  0  0  0  0  0  0
    9.3571    2.2311   -0.0616 H   0  0  0  0  0  0  0  0  0  0  0  0
    1.6951   -1.1649    2.5280 H   0  0  0  0  0  0  0  0  0  0  0  0
    1.9037   -2.4763    1.2519 H   0  0  0  0  0  0  0  0  0  0  0  0
  1  2  2  0
  2  3  1  0
  3  4  1  0
  4  5  1  0
  5  6  2  0
  6  7  1  0
  7  8  2  0
  8  9  1  0
  9 10  2  0
  4 11  1  0
  2 12  1  0
 12 13  1  0
 13 14  2  3
 14 15  1  0
 15 16  1  0
 16 17  1  0
 17 18  1  0
 18 19  1  0
 19 20  1  0
 20 21  2  0
 21 22  1  0
 22 23  1  0
 20 24  1  0
 13 25  1  0
 10  5  1  0
 22 18  2  0
  3 26  1  0
  3 27  1  0
  4 28  1  6
  6 29  1  0
  7 30  1  0
  8 31  1  0
  9 32  1  0
 10 33  1  0
 11 34  1  0
 11 35  1  0
 11 36  1  0
 12 37  1  0
 15 38  1  0
 15 39  1  0
 16 40  1  0
 16 41  1  0
 17 42  1  0
 17 43  1  0
 23 44  1  0
 23 45  1  0
 23 46  1  0
 24 47  1  0
 24 48  1  0
 25 49  1  0
 25 50  1  0
M  END
>  <Ligand ID>  (1) 
LIG0000946

>  <Ligand>  (1) 
CHEMBL1098441

>  <SMILES>  (1) 
O=C(C[C@H](c1ccccc1)C)NC(=NCCCc1sc(nc1C)N)N

>  <CID>  (1) 
46887077.0

>  <ChEMBL ID>  (1) 
nan

>  <InChiKey>  (1) 
QFKNUCVKOWGNCX-GFCCVEGCSA-N

>  <InChi>  (1) 
InChI=1S/C18H25N5OS/c1-12(14-7-4-3-5-8-14)11-16(24)23-17(19)21-10-6-9-15-13(2)22-18(20)25-15/h3-5,7-8,12H,6,9-11H2,1-2H3,(H2,20,22)(H3,19,21,23,24)/t12-/m1/s1

>  <IUPAC Name>  (1) 
(3R)-N-[N'-[3-(2-amino-4-methyl-1,3-thiazol-5-yl)propyl]carbamimidoyl]-3-phenylbutanamide

$$$$
