
     RDKit          3D

 65 68  0  0  0  0  0  0  0  0999 V2000
    6.5511   -1.7556    2.1079 Cl  0  0  0  0  0  0  0  0  0  0  0  0
    8.0117   -0.9915    1.5288 C   0  0  0  0  0  0  0  0  0  0  0  0
    8.7573   -1.6543    0.5726 C   0  0  0  0  0  0  0  0  0  0  0  0
    9.9291   -1.1205    0.0778 C   0  0  0  0  0  0  0  0  0  0  0  0
   10.3298    0.1206    0.5857 C   0  0  0  0  0  0  0  0  0  0  0  0
    9.5681    0.7686    1.5435 C   0  0  0  0  0  0  0  0  0  0  0  0
    8.3854    0.2229    2.0381 C   0  0  0  0  0  0  0  0  0  0  0  0
    7.6349    0.9909    3.0457 C   0  0  0  0  0  0  0  0  0  0  0  0
    6.5574    1.6391    2.4177 O   0  0  0  0  0  0  0  0  0  0  0  0
    5.6001    0.9124    1.7713 N   0  0  0  0  0  0  0  0  0  0  0  0
    5.1951    1.2637    0.6044 C   0  0  0  0  0  0  0  0  0  0  0  0
    4.1947    0.5699   -0.1593 C   0  0  0  0  0  0  0  0  0  0  0  0
    3.5603   -0.5611    0.2987 C   0  0  0  0  0  0  0  0  0  0  0  0
    2.5938   -1.2291   -0.4435 C   0  0  0  0  0  0  0  0  0  0  0  0
    2.2612   -0.7444   -1.6743 N   0  0  0  0  0  0  0  0  0  0  0  0
    2.8669    0.3604   -2.1460 C   0  0  0  0  0  0  0  0  0  0  0  0
    3.8266    1.0256   -1.4114 C   0  0  0  0  0  0  0  0  0  0  0  0
    1.2636   -1.4113   -2.4710 C   0  0  0  0  0  0  0  0  0  0  0  0
   -0.1248   -0.9110   -2.2318 C   0  0  0  0  0  0  0  0  0  0  0  0
   -0.6134   -1.0589   -0.8278 C   0  0  0  0  0  0  0  0  0  0  0  0
   -1.9578   -0.5305   -0.7712 N   0  0  0  0  0  0  0  0  0  0  0  0
   -2.2316    0.7595   -0.4903 C   0  0  0  0  0  0  0  0  0  0  0  0
   -3.5409    1.2385   -0.4434 C   0  0  0  0  0  0  0  0  0  0  0  0
   -4.5851    0.3804   -0.6884 C   0  0  0  0  0  0  0  0  0  0  0  0
   -4.2906   -0.9360   -0.9745 C   0  0  0  0  0  0  0  0  0  0  0  0
   -2.9888   -1.3920   -1.0165 C   0  0  0  0  0  0  0  0  0  0  0  0
   -5.9501    0.8889   -0.6364 C   0  0  0  0  0  0  0  0  0  0  0  0
   -6.1375    2.1266   -0.3616 N   0  0  0  0  0  0  0  0  0  0  0  0
   -7.3622    2.7445   -0.2779 O   0  0  0  0  0  0  0  0  0  0  0  0
   -8.1416    2.4840    0.8752 C   0  0  0  0  0  0  0  0  0  0  0  0
   -8.4830    1.0693    1.0596 C   0  0  0  0  0  0  0  0  0  0  0  0
   -9.4931    0.5504    0.2443 C   0  0  0  0  0  0  0  0  0  0  0  0
  -10.3044    1.5799   -0.9437 Cl  0  0  0  0  0  0  0  0  0  0  0  0
   -9.9002   -0.7607    0.3228 C   0  0  0  0  0  0  0  0  0  0  0  0
   -9.2791   -1.5964    1.2504 C   0  0  0  0  0  0  0  0  0  0  0  0
   -8.2725   -1.1003    2.0707 C   0  0  0  0  0  0  0  0  0  0  0  0
   -7.8745    0.2356    1.9740 C   0  0  0  0  0  0  0  0  0  0  0  0
   -6.6057    0.8909    2.9962 Cl  0  0  0  0  0  0  0  0  0  0  0  0
   10.1201    2.3366    2.1526 Cl  0  0  0  0  0  0  0  0  0  0  0  0
    8.4288   -2.6078    0.1976 H   0  0  0  0  0  0  0  0  0  0  0  0
   10.5000   -1.6493   -0.6681 H   0  0  0  0  0  0  0  0  0  0  0  0
   11.2502    0.5234    0.1865 H   0  0  0  0  0  0  0  0  0  0  0  0
    7.1943    0.2693    3.7791 H   0  0  0  0  0  0  0  0  0  0  0  0
    8.2875    1.6953    3.6035 H   0  0  0  0  0  0  0  0  0  0  0  0
    5.6628    2.1589    0.1868 H   0  0  0  0  0  0  0  0  0  0  0  0
    3.7866   -0.9810    1.2612 H   0  0  0  0  0  0  0  0  0  0  0  0
    2.0908   -2.1157   -0.0937 H   0  0  0  0  0  0  0  0  0  0  0  0
    2.5860    0.7284   -3.1286 H   0  0  0  0  0  0  0  0  0  0  0  0
    4.3316    1.9225   -1.7718 H   0  0  0  0  0  0  0  0  0  0  0  0
    1.3084   -2.5074   -2.3148 H   0  0  0  0  0  0  0  0  0  0  0  0
    1.4909   -1.1821   -3.5430 H   0  0  0  0  0  0  0  0  0  0  0  0
   -0.2377    0.1384   -2.5704 H   0  0  0  0  0  0  0  0  0  0  0  0
   -0.7962   -1.5128   -2.8983 H   0  0  0  0  0  0  0  0  0  0  0  0
    0.0372   -0.4810   -0.1422 H   0  0  0  0  0  0  0  0  0  0  0  0
   -0.6374   -2.1491   -0.5587 H   0  0  0  0  0  0  0  0  0  0  0  0
   -1.3806    1.4219   -0.2989 H   0  0  0  0  0  0  0  0  0  0  0  0
   -3.6699    2.2820   -0.2121 H   0  0  0  0  0  0  0  0  0  0  0  0
   -5.1156   -1.6143   -1.1679 H   0  0  0  0  0  0  0  0  0  0  0  0
   -2.7917   -2.4324   -1.2444 H   0  0  0  0  0  0  0  0  0  0  0  0
   -6.8142    0.2665   -0.8203 H   0  0  0  0  0  0  0  0  0  0  0  0
   -7.4951    2.7710    1.7547 H   0  0  0  0  0  0  0  0  0  0  0  0
   -9.0310    3.1532    0.8736 H   0  0  0  0  0  0  0  0  0  0  0  0
  -10.6815   -1.1344   -0.3180 H   0  0  0  0  0  0  0  0  0  0  0  0
   -9.5987   -2.6446    1.3188 H   0  0  0  0  0  0  0  0  0  0  0  0
   -7.7759   -1.7246    2.7964 H   0  0  0  0  0  0  0  0  0  0  0  0
  1  2  1  0
  2  3  2  0
  3  4  1  0
  4  5  2  0
  5  6  1  0
  6  7  2  0
  7  8  1  0
  8  9  1  0
  9 10  1  0
 10 11  2  0
 11 12  1  0
 12 13  2  0
 13 14  1  0
 14 15  2  0
 15 16  1  0
 16 17  2  0
 15 18  1  0
 18 19  1  0
 19 20  1  0
 20 21  1  0
 21 22  2  0
 22 23  1  0
 23 24  2  0
 24 25  1  0
 25 26  2  0
 24 27  1  0
 27 28  2  0
 28 29  1  0
 29 30  1  0
 30 31  1  0
 31 32  2  0
 32 33  1  0
 32 34  1  0
 34 35  2  0
 35 36  1  0
 36 37  2  0
 37 38  1  0
  6 39  1  0
  7  2  1  0
 17 12  1  0
 26 21  1  0
 37 31  1  0
  3 40  1  0
  4 41  1  0
  5 42  1  0
  8 43  1  0
  8 44  1  0
 11 45  1  0
 13 46  1  0
 14 47  1  0
 16 48  1  0
 17 49  1  0
 18 50  1  0
 18 51  1  0
 19 52  1  0
 19 53  1  0
 20 54  1  0
 20 55  1  0
 22 56  1  0
 23 57  1  0
 25 58  1  0
 26 59  1  0
 27 60  1  0
 30 61  1  0
 30 62  1  0
 34 63  1  0
 35 64  1  0
 36 65  1  0
M  CHG  2  15   1  21   1
M  END
>  <Ligand ID>  (1) 
LIG0005774

>  <Ligand>  (1) 
Duo3

>  <SMILES>  (1) 
Clc1cccc(c1CO/N=C/c1cc[n+](cc1)CCC[n+]1ccc(cc1)/C=N/OCc1c(Cl)cccc1Cl)Cl

>  <CID>  (1) 
10101670.0

>  <ChEMBL ID>  (1) 
nan

>  <InChiKey>  (1) 
RAHLDBGBLYIYDN-WKCPDWHCSA-N

>  <InChi>  (1) 
InChI=1S/C29H26Cl4N4O2/c30-26-4-1-5-27(31)24(26)20-38-34-18-22-8-14-36(15-9-22)12-3-13-37-16-10-23(11-17-37)19-35-39-21-25-28(32)6-2-7-29(25)33/h1-2,4-11,14-19H,3,12-13,20-21H2/q+2/b34-18+,35-19+

>  <IUPAC Name>  (1) 
(E)-N-[(2,6-dichlorophenyl)methoxy]-1-[1-[3-[4-[(E)-(2,6-dichlorophenyl)methoxyiminomethyl]pyridin-1-ium-1-yl]propyl]pyridin-1-ium-4-yl]methanimine

$$$$
