
     RDKit          3D

 48 51  0  0  0  0  0  0  0  0999 V2000
   -5.6244    3.0906   -1.9454 C   0  0  0  0  0  0  0  0  0  0  0  0
   -5.3259    2.0878   -0.9430 N   0  0  0  0  0  0  0  0  0  0  0  0
   -4.5757    0.9174   -1.2036 C   0  0  0  0  0  0  0  0  0  0  0  0
   -4.1526    0.7623   -2.3903 O   0  0  0  0  0  0  0  0  0  0  0  0
   -4.3189   -0.0525   -0.1203 C   0  0  1  0  0  0  0  0  0  0  0  0
   -3.5792   -1.0862   -0.6252 O   0  0  0  0  0  0  0  0  0  0  0  0
   -2.6155   -1.4702    0.2767 C   0  0  2  0  0  0  0  0  0  0  0  0
   -2.7681   -0.6642    1.5178 C   0  0  1  0  0  0  0  0  0  0  0  0
   -3.6157    0.5098    1.0543 C   0  0  2  0  0  0  0  0  0  0  0  0
   -4.5139    0.8737    2.0777 O   0  0  0  0  0  0  0  0  0  0  0  0
   -3.5960   -1.3709    2.4207 O   0  0  0  0  0  0  0  0  0  0  0  0
   -1.2845   -1.4487   -0.2983 N   0  0  0  0  0  0  0  0  0  0  0  0
   -1.0509   -1.3652   -1.6206 C   0  0  0  0  0  0  0  0  0  0  0  0
    0.2881   -1.3701   -1.7926 N   0  0  0  0  0  0  0  0  0  0  0  0
    0.8682   -1.4574   -0.5599 C   0  0  0  0  0  0  0  0  0  0  0  0
   -0.1305   -1.5075    0.3906 C   0  0  0  0  0  0  0  0  0  0  0  0
    0.1470   -1.5952    1.6858 N   0  0  0  0  0  0  0  0  0  0  0  0
    1.4414   -1.6345    2.0511 C   0  0  0  0  0  0  0  0  0  0  0  0
    2.4314   -1.5871    1.1417 N   0  0  0  0  0  0  0  0  0  0  0  0
    2.2241   -1.4977   -0.1904 C   0  0  0  0  0  0  0  0  0  0  0  0
    3.2356   -1.4487   -1.1557 N   0  0  0  0  0  0  0  0  0  0  0  0
    4.6546   -1.4808   -0.9095 C   0  0  0  0  0  0  0  0  0  0  0  0
    5.1622   -0.3612   -0.0926 C   0  0  0  0  0  0  0  0  0  0  0  0
    5.3223   -0.3987    1.2724 C   0  0  0  0  0  0  0  0  0  0  0  0
    5.7938    0.6867    1.9871 C   0  0  0  0  0  0  0  0  0  0  0  0
    6.1237    1.8644    1.3271 C   0  0  0  0  0  0  0  0  0  0  0  0
    5.9630    1.9018   -0.0452 C   0  0  0  0  0  0  0  0  0  0  0  0
    5.4889    0.8126   -0.7683 C   0  0  0  0  0  0  0  0  0  0  0  0
    6.4521    3.6692   -1.0841 I   0  0  0  0  0  0  0  0  0  0  0  0
   -5.3553    4.0916   -1.5529 H   0  0  0  0  0  0  0  0  0  0  0  0
   -6.6905    2.9896   -2.2217 H   0  0  0  0  0  0  0  0  0  0  0  0
   -5.0195    2.8764   -2.8560 H   0  0  0  0  0  0  0  0  0  0  0  0
   -5.6772    2.2226    0.0300 H   0  0  0  0  0  0  0  0  0  0  0  0
   -5.3332   -0.4095    0.2200 H   0  0  0  0  0  0  0  0  0  0  0  0
   -2.8126   -2.5557    0.5183 H   0  0  0  0  0  0  0  0  0  0  0  0
   -1.8558   -0.3535    2.0186 H   0  0  0  0  0  0  0  0  0  0  0  0
   -2.9821    1.3920    0.8514 H   0  0  0  0  0  0  0  0  0  0  0  0
   -4.4342    1.8354    2.3140 H   0  0  0  0  0  0  0  0  0  0  0  0
   -4.0951   -2.1085    1.9445 H   0  0  0  0  0  0  0  0  0  0  0  0
   -1.7445   -1.3031   -2.4455 H   0  0  0  0  0  0  0  0  0  0  0  0
    1.6631   -1.7060    3.1063 H   0  0  0  0  0  0  0  0  0  0  0  0
    2.9289   -1.3808   -2.1654 H   0  0  0  0  0  0  0  0  0  0  0  0
    4.8704   -2.4609   -0.3929 H   0  0  0  0  0  0  0  0  0  0  0  0
    5.2013   -1.5385   -1.8907 H   0  0  0  0  0  0  0  0  0  0  0  0
    5.0863   -1.2921    1.8208 H   0  0  0  0  0  0  0  0  0  0  0  0
    5.9300    0.6891    3.0561 H   0  0  0  0  0  0  0  0  0  0  0  0
    6.4911    2.7365    1.8118 H   0  0  0  0  0  0  0  0  0  0  0  0
    5.3842    0.8963   -1.8272 H   0  0  0  0  0  0  0  0  0  0  0  0
  1  2  1  0
  2  3  1  0
  3  4  2  0
  3  5  1  0
  5  6  1  0
  6  7  1  0
  7  8  1  0
  8  9  1  0
  9 10  1  0
  8 11  1  0
  7 12  1  0
 12 13  1  0
 13 14  2  0
 14 15  1  0
 15 16  2  0
 16 17  1  0
 17 18  2  0
 18 19  1  0
 19 20  2  0
 20 21  1  0
 21 22  1  0
 22 23  1  0
 23 24  2  0
 24 25  1  0
 25 26  2  0
 26 27  1  0
 27 28  2  0
 27 29  1  0
  9  5  1  0
 16 12  1  0
 28 23  1  0
 20 15  1  0
  1 30  1  0
  1 31  1  0
  1 32  1  0
  2 33  1  0
  5 34  1  1
  7 35  1  1
  8 36  1  1
  9 37  1  6
 10 38  1  0
 11 39  1  0
 13 40  1  0
 18 41  1  0
 21 42  1  0
 22 43  1  0
 22 44  1  0
 24 45  1  0
 25 46  1  0
 26 47  1  0
 28 48  1  0
M  END
>  <Ligand ID>  (1) 
LIG0001985

>  <Ligand>  (1) 
piclidenoson

>  <SMILES>  (1) 
CNC(=O)[C@H]1O[C@H]([C@@H]([C@@H]1O)O)n1cnc2c1ncnc2NCc1cccc(c1)I

>  <CID>  (1) 
123683.0

>  <ChEMBL ID>  (1) 
nan

>  <InChiKey>  (1) 
HUJXGQILHAUCCV-MOROJQBDSA-N

>  <InChi>  (1) 
InChI=1S/C18H19IN6O4/c1-20-17(28)14-12(26)13(27)18(29-14)25-8-24-11-15(22-7-23-16(11)25)21-6-9-3-2-4-10(19)5-9/h2-5,7-8,12-14,18,26-27H,6H2,1H3,(H,20,28)(H,21,22,23)/t12-,13+,14-,18+/m0/s1

>  <IUPAC Name>  (1) 
(2S,3S,4R,5R)-3,4-dihydroxy-5-[6-[(3-iodophenyl)methylamino]purin-9-yl]-N-methyloxolane-2-carboxamide

$$$$
