
     RDKit          3D

 67 72  0  0  0  0  0  0  0  0999 V2000
   -3.3771   -7.1068    2.4985 Cl  0  0  0  0  0  0  0  0  0  0  0  0
   -2.5636   -5.6039    2.1049 C   0  0  0  0  0  0  0  0  0  0  0  0
   -2.6157   -4.5142    2.9556 C   0  0  0  0  0  0  0  0  0  0  0  0
   -1.9781   -3.3147    2.6614 C   0  0  0  0  0  0  0  0  0  0  0  0
   -1.2649   -3.2132    1.4695 C   0  0  0  0  0  0  0  0  0  0  0  0
   -1.2362   -4.3391    0.6351 C   0  0  0  0  0  0  0  0  0  0  0  0
   -1.8634   -5.5068    0.9330 C   0  0  0  0  0  0  0  0  0  0  0  0
   -0.3140   -4.1478   -0.8635 Cl  0  0  0  0  0  0  0  0  0  0  0  0
   -0.5715   -2.0122    1.1097 N   0  0  0  0  0  0  0  0  0  0  0  0
    0.6103   -1.7311    1.6844 N   0  0  0  0  0  0  0  0  0  0  0  0
    1.0837   -0.5509    1.1875 C   0  0  0  0  0  0  0  0  0  0  0  0
    0.1571   -0.1149    0.2915 C   0  0  0  0  0  0  0  0  0  0  0  0
   -0.8727   -1.0479    0.2585 C   0  0  0  0  0  0  0  0  0  0  0  0
   -2.0381   -0.8977   -0.6125 C   0  0  0  0  0  0  0  0  0  0  0  0
   -3.1425   -1.5852   -0.4915 C   0  0  0  0  0  0  0  0  0  0  0  0
   -4.3102   -1.4526   -1.3506 C   0  0  0  0  0  0  0  0  0  0  0  0
   -5.5686   -1.4248   -0.7611 C   0  0  0  0  0  0  0  0  0  0  0  0
   -6.7246   -1.3185   -1.5399 C   0  0  0  0  0  0  0  0  0  0  0  0
   -6.6625   -1.2373   -2.9206 C   0  0  0  0  0  0  0  0  0  0  0  0
   -5.4106   -1.2656   -3.4987 C   0  0  0  0  0  0  0  0  0  0  0  0
   -4.2629   -1.3717   -2.7206 C   0  0  0  0  0  0  0  0  0  0  0  0
   -7.7589   -1.1322   -3.7056 F   0  0  0  0  0  0  0  0  0  0  0  0
   -1.9155    0.1462   -1.6844 C   0  0  0  0  0  0  0  0  0  0  0  0
   -1.1660    1.2708   -1.1213 N   0  0  0  0  0  0  0  0  0  0  0  0
    0.1495    1.1182   -0.5355 C   0  0  0  0  0  0  0  0  0  0  0  0
   -1.7782    2.5825   -1.1620 C   0  0  0  0  0  0  0  0  0  0  0  0
   -2.9152    2.7115   -1.6720 O   0  0  0  0  0  0  0  0  0  0  0  0
   -1.0488    3.7138   -0.6058 C   0  0  0  0  0  0  0  0  0  0  0  0
    0.1394    4.2330   -0.9623 N   0  0  0  0  0  0  0  0  0  0  0  0
    0.4102    5.2899   -0.1452 C   0  0  0  0  0  0  0  0  0  0  0  0
   -0.6142    5.4177    0.7131 N   0  0  0  0  0  0  0  0  0  0  0  0
   -1.4952    4.4643    0.4333 N   0  0  0  0  0  0  0  0  0  0  0  0
    2.3518   -0.0073    1.6395 C   0  0  0  0  0  0  0  0  0  0  0  0
    2.9390   -0.6222    2.5975 O   0  0  0  0  0  0  0  0  0  0  0  0
    2.9931    1.1212    1.1284 N   0  0  0  0  0  0  0  0  0  0  0  0
    4.2502    1.6005    1.6334 C   0  0  1  0  0  0  0  0  0  0  0  0
    5.3385    1.4900    0.6238 C   0  0  0  0  0  0  0  0  0  0  0  0
    6.2337    2.4931    0.3559 C   0  0  0  0  0  0  0  0  0  0  0  0
    7.2117    2.2548   -0.6172 C   0  0  0  0  0  0  0  0  0  0  0  0
    7.2605    1.0278   -1.2857 C   0  0  0  0  0  0  0  0  0  0  0  0
    6.3570    0.0149   -1.0154 C   0  0  0  0  0  0  0  0  0  0  0  0
    5.4074    0.2727   -0.0569 C   0  0  0  0  0  0  0  0  0  0  0  0
    4.1905    3.0441    2.0776 C   0  0  0  0  0  0  0  0  0  0  0  0
   -3.1655   -4.6176    3.8581 H   0  0  0  0  0  0  0  0  0  0  0  0
   -2.0258   -2.4671    3.3343 H   0  0  0  0  0  0  0  0  0  0  0  0
   -1.8044   -6.3344    0.2546 H   0  0  0  0  0  0  0  0  0  0  0  0
   -3.2257   -2.3132    0.3043 H   0  0  0  0  0  0  0  0  0  0  0  0
   -5.6352   -1.4863    0.3194 H   0  0  0  0  0  0  0  0  0  0  0  0
   -7.6996   -1.2983   -1.0652 H   0  0  0  0  0  0  0  0  0  0  0  0
   -5.3268   -1.2023   -4.5920 H   0  0  0  0  0  0  0  0  0  0  0  0
   -3.3317   -1.3960   -3.2429 H   0  0  0  0  0  0  0  0  0  0  0  0
   -2.9346    0.4956   -1.8984 H   0  0  0  0  0  0  0  0  0  0  0  0
   -1.3668   -0.2226   -2.5638 H   0  0  0  0  0  0  0  0  0  0  0  0
    0.2575    1.9959    0.1474 H   0  0  0  0  0  0  0  0  0  0  0  0
    0.9066    1.0938   -1.3374 H   0  0  0  0  0  0  0  0  0  0  0  0
    1.2747    5.9133   -0.1697 H   0  0  0  0  0  0  0  0  0  0  0  0
   -2.4105    4.3010    0.9349 H   0  0  0  0  0  0  0  0  0  0  0  0
    2.5600    1.6459    0.3452 H   0  0  0  0  0  0  0  0  0  0  0  0
    4.6126    1.0070    2.5095 H   0  0  0  0  0  0  0  0  0  0  0  0
    6.1670    3.4188    0.8876 H   0  0  0  0  0  0  0  0  0  0  0  0
    7.9377    3.0156   -0.8629 H   0  0  0  0  0  0  0  0  0  0  0  0
    8.0252    0.8496   -2.0430 H   0  0  0  0  0  0  0  0  0  0  0  0
    6.3660   -0.9376   -1.5096 H   0  0  0  0  0  0  0  0  0  0  0  0
    4.6928   -0.5269    0.1595 H   0  0  0  0  0  0  0  0  0  0  0  0
    3.2590    3.2342    2.6863 H   0  0  0  0  0  0  0  0  0  0  0  0
    4.1745    3.7555    1.2033 H   0  0  0  0  0  0  0  0  0  0  0  0
    5.0787    3.3278    2.6763 H   0  0  0  0  0  0  0  0  0  0  0  0
  1  2  1  0
  2  3  2  0
  3  4  1  0
  4  5  2  0
  5  6  1  0
  6  7  2  0
  6  8  1  0
  5  9  1  0
  9 10  1  0
 10 11  2  0
 11 12  1  0
 12 13  2  0
 13 14  1  0
 14 15  2  0
 15 16  1  0
 16 17  2  0
 17 18  1  0
 18 19  2  0
 19 20  1  0
 20 21  2  0
 19 22  1  0
 14 23  1  0
 23 24  1  0
 24 25  1  0
 24 26  1  0
 26 27  2  0
 26 28  1  0
 28 29  2  0
 29 30  1  0
 30 31  2  0
 31 32  1  0
 11 33  1  0
 33 34  2  0
 33 35  1  0
 35 36  1  0
 36 37  1  0
 37 38  2  0
 38 39  1  0
 39 40  2  0
 40 41  1  0
 41 42  2  0
 36 43  1  0
  7  2  1  0
 13  9  1  0
 21 16  1  0
 32 28  1  0
 42 37  1  0
 25 12  1  0
  3 44  1  0
  4 45  1  0
  7 46  1  0
 15 47  1  0
 17 48  1  0
 18 49  1  0
 20 50  1  0
 21 51  1  0
 23 52  1  0
 23 53  1  0
 25 54  1  0
 25 55  1  0
 30 56  1  0
 32 57  1  0
 35 58  1  0
 36 59  1  1
 38 60  1  0
 39 61  1  0
 40 62  1  0
 41 63  1  0
 42 64  1  0
 43 65  1  0
 43 66  1  0
 43 67  1  0
M  END
>  <Ligand ID>  (1) 
LIG0005407

>  <Ligand>  (1) 
CHEMBL3960011

>  <SMILES>  (1) 
Clc1ccc(c(c1)Cl)n1nc(c2c1/C(=C/c1ccc(cc1)F)/CN(C2)C(=O)c1ncn[nH]1)C(=O)N[C@@H](c1ccccc1)C

>  <CID>  (1) 
134156159.0

>  <ChEMBL ID>  (1) 
nan

>  <InChiKey>  (1) 
MBEMYKYSBQQXMT-KOMLCTQHSA-N

>  <InChi>  (1) 
InChI=1S/C31H24Cl2FN7O2/c1-18(20-5-3-2-4-6-20)37-30(42)27-24-16-40(31(43)29-35-17-36-38-29)15-21(13-19-7-10-23(34)11-8-19)28(24)41(39-27)26-12-9-22(32)14-25(26)33/h2-14,17-18H,15-16H2,1H3,(H,37,42)(H,35,36,38)/b21-13+/t18-/m1/s1

>  <IUPAC Name>  (1) 
(7E)-1-(2,4-dichlorophenyl)-7-[(4-fluorophenyl)methylidene]-N-[(1R)-1-phenylethyl]-5-(1H-1,2,4-triazole-5-carbonyl)-4,6-dihydropyrazolo[4,3-c]pyridine-3-carboxamide

$$$$
