
     RDKit          3D

 74 79  0  0  0  0  0  0  0  0999 V2000
    8.5192    0.3267    1.7772 C   0  0  0  0  0  0  0  0  0  0  0  0
    7.3194    1.0202    2.0866 O   0  0  0  0  0  0  0  0  0  0  0  0
    6.1090    0.5131    1.6337 C   0  0  0  0  0  0  0  0  0  0  0  0
    6.0458   -0.6572    0.8845 C   0  0  0  0  0  0  0  0  0  0  0  0
    4.8393   -1.1656    0.4309 C   0  0  0  0  0  0  0  0  0  0  0  0
    3.6593   -0.5024    0.7234 C   0  0  0  0  0  0  0  0  0  0  0  0
    3.7389    0.6502    1.4644 C   0  0  0  0  0  0  0  0  0  0  0  0
    4.9344    1.1781    1.9285 C   0  0  0  0  0  0  0  0  0  0  0  0
    2.4190   -1.0939    0.2511 C   0  0  0  0  0  0  0  0  0  0  0  0
    1.4562   -0.4990   -0.3855 C   0  0  0  0  0  0  0  0  0  0  0  0
    1.3820    0.9226   -0.7913 C   0  0  0  0  0  0  0  0  0  0  0  0
    0.0994    1.4671   -0.4073 N   0  0  0  0  0  0  0  0  0  0  0  0
   -1.1464    0.7252   -0.4556 C   0  0  0  0  0  0  0  0  0  0  0  0
   -0.9916   -0.6882   -0.7701 C   0  0  0  0  0  0  0  0  0  0  0  0
    0.2669   -1.3152   -0.7515 C   0  0  0  0  0  0  0  0  0  0  0  0
    0.1220   -2.6114   -1.0859 N   0  0  0  0  0  0  0  0  0  0  0  0
   -1.1607   -2.8063   -1.3069 N   0  0  0  0  0  0  0  0  0  0  0  0
   -1.8760   -1.6560   -1.1241 C   0  0  0  0  0  0  0  0  0  0  0  0
   -3.3225   -1.6442   -1.2969 C   0  0  0  0  0  0  0  0  0  0  0  0
   -3.9282   -2.6948   -1.7269 O   0  0  0  0  0  0  0  0  0  0  0  0
   -4.1547   -0.5453   -1.0248 N   0  0  0  0  0  0  0  0  0  0  0  0
   -5.5928   -0.5898   -1.2179 C   0  0  1  0  0  0  0  0  0  0  0  0
   -6.3094   -0.4130    0.0893 C   0  0  0  0  0  0  0  0  0  0  0  0
   -5.8485   -1.1256    1.1844 C   0  0  0  0  0  0  0  0  0  0  0  0
   -6.4474   -1.0259    2.4278 C   0  0  0  0  0  0  0  0  0  0  0  0
   -7.5382   -0.1843    2.5627 C   0  0  0  0  0  0  0  0  0  0  0  0
   -8.0009    0.5280    1.4736 C   0  0  0  0  0  0  0  0  0  0  0  0
   -7.3964    0.4258    0.2236 C   0  0  0  0  0  0  0  0  0  0  0  0
   -6.0786    0.4364   -2.1867 C   0  0  0  0  0  0  0  0  0  0  0  0
    1.1797   -3.5677   -1.1792 C   0  0  0  0  0  0  0  0  0  0  0  0
    1.2235   -4.6958   -0.3585 C   0  0  0  0  0  0  0  0  0  0  0  0
    2.2868   -5.5669   -0.5297 C   0  0  0  0  0  0  0  0  0  0  0  0
    3.2814   -5.3602   -1.4638 C   0  0  0  0  0  0  0  0  0  0  0  0
    3.2212   -4.2317   -2.2721 C   0  0  0  0  0  0  0  0  0  0  0  0
    2.1809   -3.3412   -2.1335 C   0  0  0  0  0  0  0  0  0  0  0  0
    2.1191   -1.9140   -3.1661 Cl  0  0  0  0  0  0  0  0  0  0  0  0
    4.6191   -6.5023   -1.6435 Cl  0  0  0  0  0  0  0  0  0  0  0  0
    0.0210    2.8158    0.0419 C   0  0  0  0  0  0  0  0  0  0  0  0
   -1.0534    3.3659    0.3987 O   0  0  0  0  0  0  0  0  0  0  0  0
    1.2480    3.6637    0.1110 C   0  0  0  0  0  0  0  0  0  0  0  0
    0.9183    4.9993    0.5829 N   0  0  0  0  0  0  0  0  0  0  0  0
    0.5806    6.0048   -0.2588 C   0  0  0  0  0  0  0  0  0  0  0  0
    0.3267    7.1417    0.4979 C   0  0  0  0  0  0  0  0  0  0  0  0
    0.5280    6.7539    1.7709 N   0  0  0  0  0  0  0  0  0  0  0  0
    0.8798    5.4765    1.8083 N   0  0  0  0  0  0  0  0  0  0  0  0
    9.3892    0.7584    2.2904 H   0  0  0  0  0  0  0  0  0  0  0  0
    8.4149   -0.7712    1.9802 H   0  0  0  0  0  0  0  0  0  0  0  0
    8.6574    0.4079    0.6781 H   0  0  0  0  0  0  0  0  0  0  0  0
    6.9420   -1.2054    0.6338 H   0  0  0  0  0  0  0  0  0  0  0  0
    4.8125   -2.0817   -0.1536 H   0  0  0  0  0  0  0  0  0  0  0  0
    2.8480    1.1917    1.7371 H   0  0  0  0  0  0  0  0  0  0  0  0
    4.9293    2.0980    2.5118 H   0  0  0  0  0  0  0  0  0  0  0  0
    2.3254   -2.1767    0.4883 H   0  0  0  0  0  0  0  0  0  0  0  0
    2.1869    1.5528   -0.4305 H   0  0  0  0  0  0  0  0  0  0  0  0
    1.3545    0.9162   -1.9337 H   0  0  0  0  0  0  0  0  0  0  0  0
   -1.6948    1.1885   -1.3327 H   0  0  0  0  0  0  0  0  0  0  0  0
   -1.7590    0.9606    0.4356 H   0  0  0  0  0  0  0  0  0  0  0  0
   -3.7641    0.3449   -0.6675 H   0  0  0  0  0  0  0  0  0  0  0  0
   -5.8353   -1.5941   -1.6199 H   0  0  0  0  0  0  0  0  0  0  0  0
   -4.9999   -1.7854    1.0958 H   0  0  0  0  0  0  0  0  0  0  0  0
   -6.1026   -1.5726    3.2901 H   0  0  0  0  0  0  0  0  0  0  0  0
   -8.0408   -0.0775    3.5321 H   0  0  0  0  0  0  0  0  0  0  0  0
   -8.8567    1.1739    1.6258 H   0  0  0  0  0  0  0  0  0  0  0  0
   -7.7627    0.9856   -0.6251 H   0  0  0  0  0  0  0  0  0  0  0  0
   -6.0986    1.4675   -1.7688 H   0  0  0  0  0  0  0  0  0  0  0  0
   -5.5240    0.3944   -3.1314 H   0  0  0  0  0  0  0  0  0  0  0  0
   -7.1356    0.2073   -2.4354 H   0  0  0  0  0  0  0  0  0  0  0  0
    0.4404   -4.8568    0.3761 H   0  0  0  0  0  0  0  0  0  0  0  0
    2.3585   -6.4577    0.0889 H   0  0  0  0  0  0  0  0  0  0  0  0
    4.0203   -4.1039   -2.9934 H   0  0  0  0  0  0  0  0  0  0  0  0
    1.6453    3.7181   -0.9266 H   0  0  0  0  0  0  0  0  0  0  0  0
    2.0265    3.2245    0.7838 H   0  0  0  0  0  0  0  0  0  0  0  0
    0.5122    5.9535   -1.3547 H   0  0  0  0  0  0  0  0  0  0  0  0
    0.0314    8.1225    0.1312 H   0  0  0  0  0  0  0  0  0  0  0  0
  1  2  1  0
  2  3  1  0
  3  4  2  0
  4  5  1  0
  5  6  2  0
  6  7  1  0
  7  8  2  0
  6  9  1  0
  9 10  2  0
 10 11  1  0
 11 12  1  0
 12 13  1  0
 13 14  1  0
 14 15  2  0
 15 16  1  0
 16 17  1  0
 17 18  2  0
 18 19  1  0
 19 20  2  0
 19 21  1  0
 21 22  1  0
 22 23  1  0
 23 24  2  0
 24 25  1  0
 25 26  2  0
 26 27  1  0
 27 28  2  0
 22 29  1  0
 16 30  1  0
 30 31  2  0
 31 32  1  0
 32 33  2  0
 33 34  1  0
 34 35  2  0
 35 36  1  0
 33 37  1  0
 12 38  1  0
 38 39  2  0
 38 40  1  0
 40 41  1  0
 41 42  1  0
 42 43  2  0
 43 44  1  0
 44 45  2  0
  8  3  1  0
 15 10  1  0
 28 23  1  0
 35 30  1  0
 45 41  1  0
 18 14  1  0
  1 46  1  0
  1 47  1  0
  1 48  1  0
  4 49  1  0
  5 50  1  0
  7 51  1  0
  8 52  1  0
  9 53  1  0
 11 54  1  0
 11 55  1  0
 13 56  1  0
 13 57  1  0
 21 58  1  0
 22 59  1  6
 24 60  1  0
 25 61  1  0
 26 62  1  0
 27 63  1  0
 28 64  1  0
 29 65  1  0
 29 66  1  0
 29 67  1  0
 31 68  1  0
 32 69  1  0
 34 70  1  0
 40 71  1  0
 40 72  1  0
 42 73  1  0
 43 74  1  0
M  END
>  <Ligand ID>  (1) 
LIG0005414

>  <Ligand>  (1) 
CHEMBL3950659

>  <SMILES>  (1) 
COc1ccc(cc1)/C=C/1\CN(Cc2c1n(nc2C(=O)N[C@@H](c1ccccc1)C)c1ccc(cc1Cl)Cl)C(=O)Cn1ccnn1

>  <CID>  (1) 
134148188.0

>  <ChEMBL ID>  (1) 
nan

>  <InChiKey>  (1) 
JBCOMBGDMIQAAK-KCOUNZPASA-N

>  <InChi>  (1) 
InChI=1S/C33H29Cl2N7O3/c1-21(23-6-4-3-5-7-23)37-33(44)31-27-19-40(30(43)20-41-15-14-36-39-41)18-24(16-22-8-11-26(45-2)12-9-22)32(27)42(38-31)29-13-10-25(34)17-28(29)35/h3-17,21H,18-20H2,1-2H3,(H,37,44)/b24-16+/t21-/m1/s1

>  <IUPAC Name>  (1) 
(7E)-1-(2,4-dichlorophenyl)-7-[(4-methoxyphenyl)methylidene]-N-[(1R)-1-phenylethyl]-5-[2-(triazol-1-yl)acetyl]-4,6-dihydropyrazolo[4,3-c]pyridine-3-carboxamide

$$$$
