
     RDKit          3D

131135  0  0  0  0  0  0  0  0999 V2000
    7.0931    3.1285    3.4199 C   0  0  0  0  0  0  0  0  0  0  0  0
    6.3132    3.0122    2.1467 C   0  0  0  0  0  0  0  0  0  0  0  0
    5.4292    1.7297    2.2543 C   0  0  0  0  0  0  0  0  0  0  0  0
    4.6661    1.6519    0.9812 C   0  0  0  0  0  0  0  0  0  0  0  0
    3.7015    0.5150    0.8126 C   0  0  2  0  0  0  0  0  0  0  0  0
    2.6967    0.5039    1.8195 N   0  0  0  0  0  0  0  0  0  0  0  0
    1.3301    0.7704    1.7358 C   0  0  0  0  0  0  0  0  0  0  0  0
    0.7141    0.6837    2.9178 O   0  0  0  0  0  0  0  0  0  0  0  0
    0.3966    1.1130    0.6924 C   0  0  2  0  0  0  0  0  0  0  0  0
    0.5097    2.3662   -0.0736 C   0  0  0  0  0  0  0  0  0  0  0  0
    0.4622    3.6624    0.5671 C   0  0  0  0  0  0  0  0  0  0  0  0
    1.6312    4.4440    0.7798 C   0  0  0  0  0  0  0  0  0  0  0  0
    1.2887    5.5916    1.3864 N   0  0  0  0  0  0  0  0  0  0  0  0
   -0.0180    5.6251    1.5890 C   0  0  0  0  0  0  0  0  0  0  0  0
   -0.5290    4.4476    1.0879 C   0  0  0  0  0  0  0  0  0  0  0  0
   -1.8779    4.2569    1.1653 C   0  0  0  0  0  0  0  0  0  0  0  0
   -2.6907    5.2292    1.7363 C   0  0  0  0  0  0  0  0  0  0  0  0
   -2.1657    6.4183    2.2428 C   0  0  0  0  0  0  0  0  0  0  0  0
   -0.7953    6.6159    2.1646 C   0  0  0  0  0  0  0  0  0  0  0  0
   -0.9786    1.0893    1.2476 N   0  0  0  0  0  0  0  0  0  0  0  0
   -2.0842    0.5149    0.5388 C   0  0  0  0  0  0  0  0  0  0  0  0
   -1.8994    0.0438   -0.5912 O   0  0  0  0  0  0  0  0  0  0  0  0
   -3.3680    0.5464    1.2624 C   0  0  0  0  0  0  0  0  0  0  0  0
   -4.5276    0.0531    0.5909 N   0  0  0  0  0  0  0  0  0  0  0  0
   -5.0524    0.6363   -0.5937 C   0  0  0  0  0  0  0  0  0  0  0  0
   -4.4808    1.6290   -1.1266 O   0  0  0  0  0  0  0  0  0  0  0  0
   -6.2907    0.1430   -1.2714 C   0  0  2  0  0  0  0  0  0  0  0  0
   -6.6541   -1.0998   -0.6387 N   0  0  0  0  0  0  0  0  0  0  0  0
   -7.5457   -1.1351    0.4980 C   0  0  0  0  0  0  0  0  0  0  0  0
   -8.0345   -0.0811    0.9859 O   0  0  0  0  0  0  0  0  0  0  0  0
   -7.8496   -2.4688    1.0586 C   0  0  2  0  0  0  0  0  0  0  0  0
   -8.9686   -3.1716    0.2586 C   0  0  0  0  0  0  0  0  0  0  0  0
  -10.1984   -2.3249    0.3296 C   0  0  0  0  0  0  0  0  0  0  0  0
  -11.0184   -2.5621    1.4234 C   0  0  0  0  0  0  0  0  0  0  0  0
  -12.1808   -1.8457    1.6004 C   0  0  0  0  0  0  0  0  0  0  0  0
  -12.4771   -0.8929    0.6431 C   0  0  0  0  0  0  0  0  0  0  0  0
  -11.6951   -0.6260   -0.4513 C   0  0  0  0  0  0  0  0  0  0  0  0
  -10.5260   -1.3758   -0.5922 C   0  0  0  0  0  0  0  0  0  0  0  0
  -13.6516   -0.1177    0.7544 O   0  0  0  0  0  0  0  0  0  0  0  0
   -8.3649   -2.2816    2.4195 N   0  0  0  0  0  0  0  0  0  0  0  0
   -6.1783    0.0221   -2.7374 C   0  0  0  0  0  0  0  0  0  0  0  0
   -7.4116   -0.4495   -3.4078 C   0  0  0  0  0  0  0  0  0  0  0  0
   -8.3350    0.5495   -3.7405 C   0  0  0  0  0  0  0  0  0  0  0  0
   -9.5225    0.2882   -4.3730 C   0  0  0  0  0  0  0  0  0  0  0  0
   -9.7910   -1.0332   -4.6848 C   0  0  0  0  0  0  0  0  0  0  0  0
   -8.8944   -2.0518   -4.3705 C   0  0  0  0  0  0  0  0  0  0  0  0
   -7.6866   -1.7555   -3.7220 C   0  0  0  0  0  0  0  0  0  0  0  0
    3.1504    0.0702    3.1763 C   0  0  0  0  0  0  0  0  0  0  0  0
    4.4234   -0.7557    0.6674 C   0  0  0  0  0  0  0  0  0  0  0  0
    4.1442   -1.6676    1.5182 O   0  0  0  0  0  0  0  0  0  0  0  0
    5.4045   -1.0087   -0.3705 N   0  0  0  0  0  0  0  0  0  0  0  0
    5.9846   -2.3475   -0.3246 C   0  0  2  0  0  0  0  0  0  0  0  0
    7.4577   -2.2074   -0.1652 C   0  0  0  0  0  0  0  0  0  0  0  0
    8.1182   -3.2574    0.1362 O   0  0  0  0  0  0  0  0  0  0  0  0
    8.1943   -1.0272   -0.3202 N   0  0  0  0  0  0  0  0  0  0  0  0
    9.6056   -0.9654   -0.1408 C   0  0  2  0  0  0  0  0  0  0  0  0
   10.0927    0.2513    0.4959 C   0  0  0  0  0  0  0  0  0  0  0  0
   11.3295    0.4117    0.7578 O   0  0  0  0  0  0  0  0  0  0  0  0
    9.2493    1.3557    0.8765 N   0  0  0  0  0  0  0  0  0  0  0  0
   10.3180   -1.0594   -1.4930 C   0  0  0  0  0  0  0  0  0  0  0  0
   10.0517   -2.3344   -2.1711 C   0  0  0  0  0  0  0  0  0  0  0  0
    9.0164   -2.5703   -3.0500 C   0  0  0  0  0  0  0  0  0  0  0  0
    8.8746   -3.8247   -3.6266 C   0  0  0  0  0  0  0  0  0  0  0  0
    9.7711   -4.8603   -3.3304 C   0  0  0  0  0  0  0  0  0  0  0  0
   10.7964   -4.6322   -2.4624 C   0  0  0  0  0  0  0  0  0  0  0  0
   10.9250   -3.3833   -1.8970 C   0  0  0  0  0  0  0  0  0  0  0  0
    5.7101   -3.0378   -1.6595 C   0  0  0  0  0  0  0  0  0  0  0  0
    4.2536   -3.1225   -1.8784 C   0  0  0  0  0  0  0  0  0  0  0  0
    3.3459   -2.7077   -1.1858 O   0  0  0  0  0  0  0  0  0  0  0  0
    3.8765   -3.7928   -3.0816 O   0  0  0  0  0  0  0  0  0  0  0  0
    6.3998    2.9448    4.2722 H   0  0  0  0  0  0  0  0  0  0  0  0
    7.9250    2.4280    3.4238 H   0  0  0  0  0  0  0  0  0  0  0  0
    7.3773    4.2096    3.5115 H   0  0  0  0  0  0  0  0  0  0  0  0
    6.9907    2.9746    1.3007 H   0  0  0  0  0  0  0  0  0  0  0  0
    5.6282    3.8908    2.0698 H   0  0  0  0  0  0  0  0  0  0  0  0
    4.7505    1.9633    3.0807 H   0  0  0  0  0  0  0  0  0  0  0  0
    6.0603    0.8713    2.4597 H   0  0  0  0  0  0  0  0  0  0  0  0
    5.4063    1.5494    0.1020 H   0  0  0  0  0  0  0  0  0  0  0  0
    4.1486    2.5910    0.7235 H   0  0  0  0  0  0  0  0  0  0  0  0
    3.1303    0.7581   -0.1590 H   0  0  0  0  0  0  0  0  0  0  0  0
    0.3492    0.2290   -0.0402 H   0  0  0  0  0  0  0  0  0  0  0  0
    1.4219    2.2789   -0.7453 H   0  0  0  0  0  0  0  0  0  0  0  0
   -0.3148    2.4142   -0.8833 H   0  0  0  0  0  0  0  0  0  0  0  0
    2.6364    4.2037    0.5048 H   0  0  0  0  0  0  0  0  0  0  0  0
    1.9928    6.3475    1.6484 H   0  0  0  0  0  0  0  0  0  0  0  0
   -2.3155    3.3726    0.7752 H   0  0  0  0  0  0  0  0  0  0  0  0
   -3.7527    5.0539    1.7857 H   0  0  0  0  0  0  0  0  0  0  0  0
   -2.8079    7.1772    2.6873 H   0  0  0  0  0  0  0  0  0  0  0  0
   -0.3375    7.5390    2.5495 H   0  0  0  0  0  0  0  0  0  0  0  0
   -1.0641    1.5283    2.1839 H   0  0  0  0  0  0  0  0  0  0  0  0
   -3.2636   -0.0515    2.2233 H   0  0  0  0  0  0  0  0  0  0  0  0
   -3.5934    1.5959    1.6334 H   0  0  0  0  0  0  0  0  0  0  0  0
   -5.0630   -0.7866    0.9491 H   0  0  0  0  0  0  0  0  0  0  0  0
   -7.0985    0.9003   -0.9856 H   0  0  0  0  0  0  0  0  0  0  0  0
   -6.2552   -1.9972   -1.0334 H   0  0  0  0  0  0  0  0  0  0  0  0
   -6.9956   -3.1505    1.1157 H   0  0  0  0  0  0  0  0  0  0  0  0
   -9.1083   -4.1697    0.6899 H   0  0  0  0  0  0  0  0  0  0  0  0
   -8.6751   -3.2765   -0.7974 H   0  0  0  0  0  0  0  0  0  0  0  0
  -10.7762   -3.3134    2.1701 H   0  0  0  0  0  0  0  0  0  0  0  0
  -12.8184   -2.0280    2.4591 H   0  0  0  0  0  0  0  0  0  0  0  0
  -11.9341    0.1192   -1.1948 H   0  0  0  0  0  0  0  0  0  0  0  0
   -9.8575   -1.2196   -1.4351 H   0  0  0  0  0  0  0  0  0  0  0  0
  -14.4614   -0.5531    0.3021 H   0  0  0  0  0  0  0  0  0  0  0  0
   -7.7236   -1.6276    2.9435 H   0  0  0  0  0  0  0  0  0  0  0  0
   -8.4405   -3.2146    2.8943 H   0  0  0  0  0  0  0  0  0  0  0  0
   -5.8720    1.0069   -3.2028 H   0  0  0  0  0  0  0  0  0  0  0  0
   -5.3505   -0.6996   -2.9731 H   0  0  0  0  0  0  0  0  0  0  0  0
   -8.1305    1.5869   -3.5021 H   0  0  0  0  0  0  0  0  0  0  0  0
  -10.2381    1.0570   -4.6242 H   0  0  0  0  0  0  0  0  0  0  0  0
  -10.7360   -1.2590   -5.1886 H   0  0  0  0  0  0  0  0  0  0  0  0
   -9.1594   -3.0649   -4.6459 H   0  0  0  0  0  0  0  0  0  0  0  0
   -6.9804   -2.5265   -3.4708 H   0  0  0  0  0  0  0  0  0  0  0  0
    2.9529    0.8516    3.9304 H   0  0  0  0  0  0  0  0  0  0  0  0
    2.4378   -0.7825    3.3875 H   0  0  0  0  0  0  0  0  0  0  0  0
    4.1821   -0.2401    3.2221 H   0  0  0  0  0  0  0  0  0  0  0  0
    5.6501   -0.2875   -1.0581 H   0  0  0  0  0  0  0  0  0  0  0  0
    5.5970   -2.9352    0.5093 H   0  0  0  0  0  0  0  0  0  0  0  0
    7.6827   -0.1540   -0.5757 H   0  0  0  0  0  0  0  0  0  0  0  0
    9.9604   -1.8546    0.4551 H   0  0  0  0  0  0  0  0  0  0  0  0
    8.4893    1.5706    0.1916 H   0  0  0  0  0  0  0  0  0  0  0  0
    9.4452    1.8439    1.7580 H   0  0  0  0  0  0  0  0  0  0  0  0
   11.3933   -0.8144   -1.4092 H   0  0  0  0  0  0  0  0  0  0  0  0
    9.8584   -0.2648   -2.1452 H   0  0  0  0  0  0  0  0  0  0  0  0
    8.3316   -1.7458   -3.2691 H   0  0  0  0  0  0  0  0  0  0  0  0
    8.0510   -3.9780   -4.3055 H   0  0  0  0  0  0  0  0  0  0  0  0
    9.6409   -5.8260   -3.7903 H   0  0  0  0  0  0  0  0  0  0  0  0
   11.5345   -5.3687   -2.1811 H   0  0  0  0  0  0  0  0  0  0  0  0
   11.7514   -3.2253   -1.2117 H   0  0  0  0  0  0  0  0  0  0  0  0
    6.1866   -2.4503   -2.4721 H   0  0  0  0  0  0  0  0  0  0  0  0
    6.1659   -4.0573   -1.5948 H   0  0  0  0  0  0  0  0  0  0  0  0
    3.0116   -3.4690   -3.5019 H   0  0  0  0  0  0  0  0  0  0  0  0
  1  2  1  0
  2  3  1  0
  3  4  1  0
  4  5  1  0
  5  6  1  0
  6  7  1  0
  7  8  2  0
  7  9  1  0
  9 10  1  0
 10 11  1  0
 11 12  2  0
 12 13  1  0
 13 14  1  0
 14 15  2  0
 15 16  1  0
 16 17  2  0
 17 18  1  0
 18 19  2  0
  9 20  1  0
 20 21  1  0
 21 22  2  0
 21 23  1  0
 23 24  1  0
 24 25  1  0
 25 26  2  0
 25 27  1  0
 27 28  1  0
 28 29  1  0
 29 30  2  0
 29 31  1  0
 31 32  1  0
 32 33  1  0
 33 34  2  0
 34 35  1  0
 35 36  2  0
 36 37  1  0
 37 38  2  0
 36 39  1  0
 31 40  1  0
 27 41  1  0
 41 42  1  0
 42 43  2  0
 43 44  1  0
 44 45  2  0
 45 46  1  0
 46 47  2  0
  6 48  1  0
  5 49  1  0
 49 50  2  0
 49 51  1  0
 51 52  1  0
 52 53  1  0
 53 54  2  0
 53 55  1  0
 55 56  1  0
 56 57  1  0
 57 58  2  0
 57 59  1  0
 56 60  1  0
 60 61  1  0
 61 62  2  0
 62 63  1  0
 63 64  2  0
 64 65  1  0
 65 66  2  0
 52 67  1  0
 67 68  1  0
 68 69  2  0
 68 70  1  0
 15 11  1  0
 38 33  1  0
 47 42  1  0
 66 61  1  0
 19 14  1  0
  1 71  1  0
  1 72  1  0
  1 73  1  0
  2 74  1  0
  2 75  1  0
  3 76  1  0
  3 77  1  0
  4 78  1  0
  4 79  1  0
  5 80  1  6
  9 81  1  6
 10 82  1  0
 10 83  1  0
 12 84  1  0
 13 85  1  0
 16 86  1  0
 17 87  1  0
 18 88  1  0
 19 89  1  0
 20 90  1  0
 23 91  1  0
 23 92  1  0
 24 93  1  0
 27 94  1  6
 28 95  1  0
 31 96  1  1
 32 97  1  0
 32 98  1  0
 34 99  1  0
 35100  1  0
 37101  1  0
 38102  1  0
 39103  1  0
 40104  1  0
 40105  1  0
 41106  1  0
 41107  1  0
 43108  1  0
 44109  1  0
 45110  1  0
 46111  1  0
 47112  1  0
 48113  1  0
 48114  1  0
 48115  1  0
 51116  1  0
 52117  1  1
 55118  1  0
 56119  1  1
 59120  1  0
 59121  1  0
 60122  1  0
 60123  1  0
 62124  1  0
 63125  1  0
 64126  1  0
 65127  1  0
 66128  1  0
 67129  1  0
 67130  1  0
 70131  1  0
M  END
>  <Ligand ID>  (1) 
LIG0004147

>  <Ligand>  (1) 
Tyr-D-Phe-Gly-Trp-NMeNle-Asp-Phe-NH2

>  <SMILES>  (1) 
CCCC[C@H](N(C(=O)[C@H](Cc1c[nH]c2c1cccc2)NC(=O)CNC(=O)[C@H](NC(=O)[C@H](Cc1ccc(cc1)O)N)Cc1ccccc1)C)C(=O)N[C@H](C(=O)N[C@H](C(=O)N)Cc1ccccc1)CC(=O)O

>  <CID>  (1) 
9811733.0

>  <ChEMBL ID>  (1) 
nan

>  <InChiKey>  (1) 
KKPFQTRKARZYLE-NOGCUKNYSA-N

>  <InChi>  (1) 
InChI=1S/C51H61N9O10/c1-3-4-19-43(50(69)59-41(28-45(63)64)49(68)57-39(46(53)65)25-31-13-7-5-8-14-31)60(2)51(70)42(27-34-29-54-38-18-12-11-17-36(34)38)56-44(62)30-55-48(67)40(26-32-15-9-6-10-16-32)58-47(66)37(52)24-33-20-22-35(61)23-21-33/h5-18,20-23,29,37,39-43,54,61H,3-4,19,24-28,30,52H2,1-2H3,(H2,53,65)(H,55,67)(H,56,62)(H,57,68)(H,58,66)(H,59,69)(H,63,64)/t37-,39-,40+,41-,42-,43-/m0/s1

>  <IUPAC Name>  (1) 
(3S)-3-[[(2S)-2-[[(2S)-2-[[2-[[(2R)-2-[[(2S)-2-amino-3-(4-hydroxyphenyl)propanoyl]amino]-3-phenylpropanoyl]amino]acetyl]amino]-3-(1H-indol-3-yl)propanoyl]-methylamino]hexanoyl]amino]-4-[[(2S)-1-amino-1-oxo-3-phenylpropan-2-yl]amino]-4-oxobutanoic acid

$$$$
