
     RDKit          3D

 22 21  0  0  0  0  0  0  0  0999 V2000
   -3.2363    0.3263   -0.0316 C   0  0  0  0  0  0  0  0  0  0  0  0
   -1.7238    0.4397    0.2284 C   0  0  0  0  0  0  0  0  0  0  0  0
   -1.0786   -0.8791   -0.0772 C   0  0  0  0  0  0  0  0  0  0  0  0
    0.4119   -0.8533    0.1456 C   0  0  0  0  0  0  0  0  0  0  0  0
    1.1260    0.1464   -0.7091 C   0  0  0  0  0  0  0  0  0  0  0  0
    2.6203    0.1790   -0.5036 C   0  0  0  0  0  0  0  0  0  0  0  0
    2.9891    0.5066    0.8874 C   0  0  0  0  0  0  0  0  0  0  0  0
    2.5620    1.5600    1.4861 O   0  0  0  0  0  0  0  0  0  0  0  0
    3.8288   -0.2931    1.6710 O   0  0  0  0  0  0  0  0  0  0  0  0
   -3.7130    0.0072    0.9034 H   0  0  0  0  0  0  0  0  0  0  0  0
   -3.4029   -0.5070   -0.7788 H   0  0  0  0  0  0  0  0  0  0  0  0
   -3.6773    1.2729   -0.3729 H   0  0  0  0  0  0  0  0  0  0  0  0
   -1.5951    0.6306    1.3341 H   0  0  0  0  0  0  0  0  0  0  0  0
   -1.3258    1.2735   -0.3485 H   0  0  0  0  0  0  0  0  0  0  0  0
   -1.4793   -1.5942    0.7015 H   0  0  0  0  0  0  0  0  0  0  0  0
   -1.3558   -1.2751   -1.0619 H   0  0  0  0  0  0  0  0  0  0  0  0
    0.5579   -0.5380    1.2209 H   0  0  0  0  0  0  0  0  0  0  0  0
    0.7786   -1.8814    0.0328 H   0  0  0  0  0  0  0  0  0  0  0  0
    0.8746   -0.0421   -1.7655 H   0  0  0  0  0  0  0  0  0  0  0  0
    0.7070    1.1551   -0.4472 H   0  0  0  0  0  0  0  0  0  0  0  0
    2.9753    1.0487   -1.1343 H   0  0  0  0  0  0  0  0  0  0  0  0
    3.1562   -0.6827   -0.8720 H   0  0  0  0  0  0  0  0  0  0  0  0
  1  2  1  0
  2  3  1  0
  3  4  1  0
  4  5  1  0
  5  6  1  0
  6  7  1  0
  7  8  2  0
  7  9  1  0
  1 10  1  0
  1 11  1  0
  1 12  1  0
  2 13  1  0
  2 14  1  0
  3 15  1  0
  3 16  1  0
  4 17  1  0
  4 18  1  0
  5 19  1  0
  5 20  1  0
  6 21  1  0
  6 22  1  0
M  CHG  1   9  -1
M  END
>  <Ligand ID>  (1) 
LIG0000751

>  <Ligand>  (1) 
heptanoate

>  <SMILES>  (1) 
CCCCCCC(=O)[O-]

>  <CID>  (1) 
93052.0

>  <ChEMBL ID>  (1) 
nan

>  <InChiKey>  (1) 
MNWFXJYAOYHMED-UHFFFAOYSA-M

>  <InChi>  (1) 
InChI=1S/C7H14O2/c1-2-3-4-5-6-7(8)9/h2-6H2,1H3,(H,8,9)/p-1

>  <IUPAC Name>  (1) 
heptanoate

$$$$
