
     RDKit          3D

 27 27  0  0  0  0  0  0  0  0999 V2000
    4.0189   -0.4663   -0.4276 O   0  0  0  0  0  0  0  0  0  0  0  0
    3.2388   -1.0960    0.5504 C   0  0  0  0  0  0  0  0  0  0  0  0
    1.8228   -0.6266    0.3394 C   0  0  0  0  0  0  0  0  0  0  0  0
    1.2145    0.0091    1.3090 C   0  0  0  0  0  0  0  0  0  0  0  0
   -0.1726    0.5318    1.2554 C   0  0  0  0  0  0  0  0  0  0  0  0
   -0.8730   -0.0997    0.0746 C   0  0  2  0  0  0  0  0  0  0  0  0
    0.0247    0.0326   -1.1333 C   0  0  0  0  0  0  0  0  0  0  0  0
    1.2073   -0.9255   -0.9779 C   0  0  0  0  0  0  0  0  0  0  0  0
   -2.1668    0.5213   -0.2208 C   0  0  0  0  0  0  0  0  0  0  0  0
   -2.5149    1.1203   -1.3487 C   0  0  0  0  0  0  0  0  0  0  0  0
   -3.2107    0.4737    0.8727 C   0  0  0  0  0  0  0  0  0  0  0  0
    3.8768    0.5105   -0.3319 H   0  0  0  0  0  0  0  0  0  0  0  0
    3.3307   -2.1781    0.4000 H   0  0  0  0  0  0  0  0  0  0  0  0
    3.6175   -0.8208    1.5479 H   0  0  0  0  0  0  0  0  0  0  0  0
    1.7585    0.1796    2.2473 H   0  0  0  0  0  0  0  0  0  0  0  0
   -0.1719    1.6284    1.1933 H   0  0  0  0  0  0  0  0  0  0  0  0
   -0.6617    0.1633    2.2024 H   0  0  0  0  0  0  0  0  0  0  0  0
   -1.0063   -1.1735    0.3111 H   0  0  0  0  0  0  0  0  0  0  0  0
    0.4524    1.0449   -1.2363 H   0  0  0  0  0  0  0  0  0  0  0  0
   -0.5866   -0.2790   -2.0311 H   0  0  0  0  0  0  0  0  0  0  0  0
    1.8944   -0.7583   -1.8270 H   0  0  0  0  0  0  0  0  0  0  0  0
    0.8117   -1.9789   -0.9980 H   0  0  0  0  0  0  0  0  0  0  0  0
   -3.5199    1.5625   -1.4818 H   0  0  0  0  0  0  0  0  0  0  0  0
   -1.8710    1.2328   -2.2132 H   0  0  0  0  0  0  0  0  0  0  0  0
   -3.2837   -0.5342    1.3207 H   0  0  0  0  0  0  0  0  0  0  0  0
   -4.2185    0.6983    0.4683 H   0  0  0  0  0  0  0  0  0  0  0  0
   -3.0112    1.2279    1.6548 H   0  0  0  0  0  0  0  0  0  0  0  0
  1  2  1  0
  2  3  1  0
  3  4  2  0
  4  5  1  0
  5  6  1  0
  6  7  1  0
  7  8  1  0
  6  9  1  0
  9 10  2  0
  9 11  1  0
  8  3  1  0
  1 12  1  0
  2 13  1  0
  2 14  1  0
  4 15  1  0
  5 16  1  0
  5 17  1  0
  6 18  1  1
  7 19  1  0
  7 20  1  0
  8 21  1  0
  8 22  1  0
 10 23  1  0
 10 24  1  0
 11 25  1  0
 11 26  1  0
 11 27  1  0
M  END
>  <Ligand ID>  (1) 
LIG0001072

>  <Ligand>  (1) 
Perilla alcohol

>  <SMILES>  (1) 
OCC1=CC[C@H](CC1)C(=C)C

>  <CID>  (1) 
369312.0

>  <ChEMBL ID>  (1) 
nan

>  <InChiKey>  (1) 
NDTYTMIUWGWIMO-SNVBAGLBSA-N

>  <InChi>  (1) 
InChI=1S/C10H16O/c1-8(2)10-5-3-9(7-11)4-6-10/h3,10-11H,1,4-7H2,2H3/t10-/m1/s1

>  <IUPAC Name>  (1) 
[(4S)-4-prop-1-en-2-ylcyclohexen-1-yl]methanol

$$$$
