
     RDKit          3D

 63 65  0  0  0  0  0  0  0  0999 V2000
    8.2767   -1.1525   -0.2452 C   0  0  0  0  0  0  0  0  0  0  0  0
    7.7336   -0.0008   -0.6698 C   0  0  0  0  0  0  0  0  0  0  0  0
    7.7872    1.1743    0.2072 C   0  0  0  0  0  0  0  0  0  0  0  0
    6.4537    1.7234    0.6100 C   0  0  0  0  0  0  0  0  0  0  0  0
    5.6049    0.7517    1.3533 C   0  0  0  0  0  0  0  0  0  0  0  0
    5.2450   -0.3870    0.6946 O   0  0  0  0  0  0  0  0  0  0  0  0
    4.4776   -0.2460   -0.4283 C   0  0  0  0  0  0  0  0  0  0  0  0
    3.1587    0.4273   -0.0828 C   0  0  2  0  0  0  0  0  0  0  0  0
    2.4547   -0.4333    0.9118 C   0  0  0  0  0  0  0  0  0  0  0  0
    1.4694   -1.4056    0.3010 C   0  0  0  0  0  0  0  0  0  0  0  0
    0.4047   -0.5427   -0.3297 C   0  0  0  0  0  0  0  0  0  0  0  0
    0.9051    0.4991   -1.1139 C   0  0  0  0  0  0  0  0  0  0  0  0
    2.3579    0.7204   -1.3057 C   0  0  0  0  0  0  0  0  0  0  0  0
   -0.0174    1.3362   -1.7241 C   0  0  0  0  0  0  0  0  0  0  0  0
   -1.3852    1.1094   -1.5345 C   0  0  0  0  0  0  0  0  0  0  0  0
   -1.8460    0.0695   -0.7525 C   0  0  0  0  0  0  0  0  0  0  0  0
   -0.9290   -0.7643   -0.1446 C   0  0  0  0  0  0  0  0  0  0  0  0
   -3.2963   -0.1770   -0.5491 C   0  0  1  0  0  0  0  0  0  0  0  0
   -3.7043   -1.5674   -0.9298 C   0  0  0  0  0  0  0  0  0  0  0  0
   -4.5118   -2.1336    0.2375 C   0  0  0  0  0  0  0  0  0  0  0  0
   -5.0010   -0.8433    0.9008 C   0  0  2  0  0  0  0  0  0  0  0  0
   -3.7195   -0.0378    0.8971 C   0  0  0  0  0  0  0  0  0  0  0  0
   -5.4517   -1.0671    2.2373 N   0  0  0  0  0  0  0  0  0  0  0  0
   -6.0604   -0.2906   -0.0082 C   0  0  0  0  0  0  0  0  0  0  0  0
   -6.5844    0.9218    0.3771 O   0  0  0  0  0  0  0  0  0  0  0  0
   -7.7448    1.3224   -0.8156 P   0  0  0  0  0  0  0  0  0  0  0  0
   -7.0508    1.4080   -2.1626 O   0  0  0  0  0  0  0  0  0  0  0  0
   -8.4967    2.7753   -0.4833 O   0  0  0  0  0  0  0  0  0  0  0  0
   -8.8852    0.0751   -0.9265 O   0  0  0  0  0  0  0  0  0  0  0  0
    8.7524   -1.2442    0.7208 H   0  0  0  0  0  0  0  0  0  0  0  0
    8.2652   -2.0585   -0.8570 H   0  0  0  0  0  0  0  0  0  0  0  0
    7.2844   -0.0017   -1.6497 H   0  0  0  0  0  0  0  0  0  0  0  0
    8.3867    1.9575   -0.3429 H   0  0  0  0  0  0  0  0  0  0  0  0
    8.4015    0.9632    1.1264 H   0  0  0  0  0  0  0  0  0  0  0  0
    5.9587    2.1457   -0.2913 H   0  0  0  0  0  0  0  0  0  0  0  0
    6.5945    2.6042    1.2844 H   0  0  0  0  0  0  0  0  0  0  0  0
    6.2332    0.4096    2.2347 H   0  0  0  0  0  0  0  0  0  0  0  0
    4.7604    1.2925    1.8586 H   0  0  0  0  0  0  0  0  0  0  0  0
    4.1806   -1.2926   -0.7345 H   0  0  0  0  0  0  0  0  0  0  0  0
    4.9427    0.1869   -1.3098 H   0  0  0  0  0  0  0  0  0  0  0  0
    3.3547    1.4233    0.4060 H   0  0  0  0  0  0  0  0  0  0  0  0
    3.2052   -1.0281    1.4738 H   0  0  0  0  0  0  0  0  0  0  0  0
    1.8548    0.2279    1.5926 H   0  0  0  0  0  0  0  0  0  0  0  0
    1.9061   -2.1209   -0.3936 H   0  0  0  0  0  0  0  0  0  0  0  0
    1.0213   -1.9628    1.1474 H   0  0  0  0  0  0  0  0  0  0  0  0
    2.5112    1.7579   -1.6805 H   0  0  0  0  0  0  0  0  0  0  0  0
    2.6744    0.0649   -2.1683 H   0  0  0  0  0  0  0  0  0  0  0  0
    0.2838    2.1650   -2.3463 H   0  0  0  0  0  0  0  0  0  0  0  0
   -2.1376    1.7389   -1.9924 H   0  0  0  0  0  0  0  0  0  0  0  0
   -1.2337   -1.5899    0.4754 H   0  0  0  0  0  0  0  0  0  0  0  0
   -3.8574    0.5790   -1.1108 H   0  0  0  0  0  0  0  0  0  0  0  0
   -4.3075   -1.5574   -1.8615 H   0  0  0  0  0  0  0  0  0  0  0  0
   -2.8424   -2.2388   -1.1149 H   0  0  0  0  0  0  0  0  0  0  0  0
   -3.8528   -2.6251    0.9869 H   0  0  0  0  0  0  0  0  0  0  0  0
   -5.3424   -2.7716   -0.0995 H   0  0  0  0  0  0  0  0  0  0  0  0
   -3.8726    1.0136    1.1973 H   0  0  0  0  0  0  0  0  0  0  0  0
   -3.0208   -0.5968    1.5692 H   0  0  0  0  0  0  0  0  0  0  0  0
   -5.9694   -0.2373    2.5633 H   0  0  0  0  0  0  0  0  0  0  0  0
   -5.9498   -1.9691    2.3969 H   0  0  0  0  0  0  0  0  0  0  0  0
   -5.6946   -0.3003   -1.0522 H   0  0  0  0  0  0  0  0  0  0  0  0
   -6.9040   -1.0197    0.0207 H   0  0  0  0  0  0  0  0  0  0  0  0
   -8.1863    3.2074    0.3324 H   0  0  0  0  0  0  0  0  0  0  0  0
   -9.0452   -0.3879   -0.0764 H   0  0  0  0  0  0  0  0  0  0  0  0
  1  2  2  0
  2  3  1  0
  3  4  1  0
  4  5  1  0
  5  6  1  0
  6  7  1  0
  7  8  1  0
  8  9  1  0
  9 10  1  0
 10 11  1  0
 11 12  2  0
 12 13  1  0
 12 14  1  0
 14 15  2  0
 15 16  1  0
 16 17  2  0
 16 18  1  0
 18 19  1  0
 19 20  1  0
 20 21  1  0
 21 22  1  0
 21 23  1  1
 21 24  1  0
 24 25  1  0
 25 26  1  0
 26 27  2  0
 26 28  1  0
 26 29  1  0
 13  8  1  0
 22 18  1  0
 17 11  1  0
  1 30  1  0
  1 31  1  0
  2 32  1  0
  3 33  1  0
  3 34  1  0
  4 35  1  0
  4 36  1  0
  5 37  1  0
  5 38  1  0
  7 39  1  0
  7 40  1  0
  8 41  1  1
  9 42  1  0
  9 43  1  0
 10 44  1  0
 10 45  1  0
 13 46  1  0
 13 47  1  0
 14 48  1  0
 15 49  1  0
 17 50  1  0
 18 51  1  6
 19 52  1  0
 19 53  1  0
 20 54  1  0
 20 55  1  0
 22 56  1  0
 22 57  1  0
 23 58  1  0
 23 59  1  0
 24 60  1  0
 24 61  1  0
 28 62  1  0
 29 63  1  0
M  END
>  <Ligand ID>  (1) 
LIG0005620

>  <Ligand>  (1) 
BDBM65088

>  <SMILES>  (1) 
C=CCCCOC[C@@H]1CCc2c(C1)ccc(c2)[C@H]1CC[C@](C1)(N)COP(=O)(O)O

>  <CID>  (1) 
131953601.0

>  <ChEMBL ID>  (1) 
nan

>  <InChiKey>  (1) 
SBULWFDFKOGBQF-VOQZNFBZSA-N

>  <InChi>  (1) 
InChI=1S/C22H34NO5P/c1-2-3-4-11-27-15-17-5-6-19-13-20(8-7-18(19)12-17)21-9-10-22(23,14-21)16-28-29(24,25)26/h2,7-8,13,17,21H,1,3-6,9-12,14-16,23H2,(H2,24,25,26)/t17-,21+,22-/m1/s1

>  <IUPAC Name>  (1) 
[(1R,3S)-1-amino-3-[(6R)-6-(pent-4-enoxymethyl)-5,6,7,8-tetrahydronaphthalen-2-yl]cyclopentyl]methyl dihydrogen phosphate

$$$$
