
     RDKit          3D

 34 35  0  0  0  0  0  0  0  0999 V2000
   -1.0259   -2.4183    1.6766 O   0  0  0  0  0  0  0  0  0  0  0  0
   -1.6403   -2.4074    0.4326 C   0  0  0  0  0  0  0  0  0  0  0  0
   -2.5811   -3.2424    0.2402 O   0  0  0  0  0  0  0  0  0  0  0  0
   -1.2244   -1.4568   -0.6514 C   0  0  1  0  0  0  0  0  0  0  0  0
   -2.3485   -0.5075   -1.0243 C   0  0  0  0  0  0  0  0  0  0  0  0
   -2.0478    0.6184   -0.0552 C   0  0  2  0  0  0  0  0  0  0  0  0
   -0.5362    0.7286   -0.2644 C   0  0  0  0  0  0  0  0  0  0  0  0
   -0.1542   -0.6569   -0.1302 N   0  0  0  0  0  0  0  0  0  0  0  0
    1.0780   -0.9935   -0.7694 C   0  0  0  0  0  0  0  0  0  0  0  0
    2.2194   -0.2159   -0.2298 C   0  0  0  0  0  0  0  0  0  0  0  0
    2.9900   -0.6326    0.8328 C   0  0  0  0  0  0  0  0  0  0  0  0
    4.0385    0.1596    1.2707 C   0  0  0  0  0  0  0  0  0  0  0  0
    4.3375    1.3746    0.6623 C   0  0  0  0  0  0  0  0  0  0  0  0
    3.5329    1.7378   -0.3940 C   0  0  0  0  0  0  0  0  0  0  0  0
    2.5152    0.9758   -0.8241 N   0  0  0  0  0  0  0  0  0  0  0  0
   -2.3709    0.1529    1.2615 N   0  0  0  0  0  0  0  0  0  0  0  0
   -2.7535    1.8707   -0.3698 C   0  0  0  0  0  0  0  0  0  0  0  0
   -3.5275    2.3741    0.5082 O   0  0  0  0  0  0  0  0  0  0  0  0
   -2.5873    2.4970   -1.5909 O   0  0  0  0  0  0  0  0  0  0  0  0
   -0.9022   -3.2844    2.2145 H   0  0  0  0  0  0  0  0  0  0  0  0
   -0.9139   -2.0737   -1.5229 H   0  0  0  0  0  0  0  0  0  0  0  0
   -2.2119   -0.2108   -2.0873 H   0  0  0  0  0  0  0  0  0  0  0  0
   -3.3458   -0.9539   -0.8425 H   0  0  0  0  0  0  0  0  0  0  0  0
   -0.3910    1.0210   -1.3315 H   0  0  0  0  0  0  0  0  0  0  0  0
   -0.0457    1.3864    0.4603 H   0  0  0  0  0  0  0  0  0  0  0  0
    1.0427   -0.8826   -1.8755 H   0  0  0  0  0  0  0  0  0  0  0  0
    1.2657   -2.0642   -0.5754 H   0  0  0  0  0  0  0  0  0  0  0  0
    2.7626   -1.5667    1.3030 H   0  0  0  0  0  0  0  0  0  0  0  0
    4.6361   -0.1808    2.1075 H   0  0  0  0  0  0  0  0  0  0  0  0
    5.1699    1.9991    1.0131 H   0  0  0  0  0  0  0  0  0  0  0  0
    3.7061    2.6730   -0.9179 H   0  0  0  0  0  0  0  0  0  0  0  0
   -3.4037    0.0010    1.2774 H   0  0  0  0  0  0  0  0  0  0  0  0
   -2.1580    0.8307    2.0142 H   0  0  0  0  0  0  0  0  0  0  0  0
   -3.1246    3.3476   -1.8181 H   0  0  0  0  0  0  0  0  0  0  0  0
  1  2  1  0
  2  3  2  0
  2  4  1  0
  4  5  1  0
  5  6  1  0
  6  7  1  0
  7  8  1  0
  8  9  1  0
  9 10  1  0
 10 11  2  0
 11 12  1  0
 12 13  2  0
 13 14  1  0
 14 15  2  0
  6 16  1  1
  6 17  1  0
 17 18  2  0
 17 19  1  0
  8  4  1  0
 15 10  1  0
  1 20  1  0
  4 21  1  6
  5 22  1  0
  5 23  1  0
  7 24  1  0
  7 25  1  0
  9 26  1  0
  9 27  1  0
 11 28  1  0
 12 29  1  0
 13 30  1  0
 14 31  1  0
 16 32  1  0
 16 33  1  0
 19 34  1  0
M  END
>  <Ligand ID>  (1) 
LIG0005691

>  <Ligand>  (1) 
CHEMBL543811

>  <SMILES>  (1) 
OC(=O)[C@H]1C[C@](CN1Cc1ccccn1)(N)C(=O)O

>  <CID>  (1) 
44300820.0

>  <ChEMBL ID>  (1) 
nan

>  <InChiKey>  (1) 
DBFCNSLCXUQJOU-BXKDBHETSA-N

>  <InChi>  (1) 
InChI=1S/C12H15N3O4/c13-12(11(18)19)5-9(10(16)17)15(7-12)6-8-3-1-2-4-14-8/h1-4,9H,5-7,13H2,(H,16,17)(H,18,19)/t9-,12-/m1/s1

>  <IUPAC Name>  (1) 
(2R,4R)-4-amino-1-(pyridin-2-ylmethyl)pyrrolidine-2,4-dicarboxylic acid

$$$$
