
     RDKit          3D

 89 90  0  0  0  0  0  0  0  0999 V2000
   -0.9780   -0.0361   -0.0089 C   0  0  0  0  0  0  0  0  0  0  0  0
    0.4664    0.2138   -0.0140 C   0  0  0  0  0  0  0  0  0  0  0  0
    0.8737    1.4037   -0.0200 O   0  0  0  0  0  0  0  0  0  0  0  0
    1.4207   -0.7845   -0.0127 O   0  0  0  0  0  0  0  0  0  0  0  0
   12.1948    1.3126   -0.9113 O   0  0  0  0  0  0  0  0  0  0  0  0
   11.2204    2.1907   -1.3904 C   0  0  0  0  0  0  0  0  0  0  0  0
   10.0125    2.0395   -0.5324 C   0  0  0  0  0  0  0  0  0  0  0  0
    8.8870    1.3525   -0.9335 C   0  0  0  0  0  0  0  0  0  0  0  0
    7.7652    1.2244   -0.1037 C   0  0  0  0  0  0  0  0  0  0  0  0
    7.8446    1.8180    1.1281 C   0  0  0  0  0  0  0  0  0  0  0  0
    8.9562    2.5034    1.5393 C   0  0  0  0  0  0  0  0  0  0  0  0
   10.0842    2.6409    0.7245 C   0  0  0  0  0  0  0  0  0  0  0  0
   11.2061    3.3365    1.1479 O   0  0  0  0  0  0  0  0  0  0  0  0
    6.6191    0.4742   -0.6208 C   0  0  2  0  0  0  0  0  0  0  0  0
    5.6758   -0.0380    0.4080 C   0  0  0  0  0  0  0  0  0  0  0  0
    4.6666   -0.8375   -0.1976 N   0  0  0  0  0  0  0  0  0  0  0  0
    3.7275   -0.1782   -1.0328 C   0  0  0  0  0  0  0  0  0  0  0  0
    2.7804    0.7490   -0.3353 C   0  0  0  0  0  0  0  0  0  0  0  0
    1.9495    0.0121    0.7056 C   0  0  0  0  0  0  0  0  0  0  0  0
    1.1158   -1.0950    0.1028 C   0  0  0  0  0  0  0  0  0  0  0  0
    0.2991   -1.8100    1.1730 C   0  0  0  0  0  0  0  0  0  0  0  0
   -0.5067   -2.8957    0.5407 C   0  0  0  0  0  0  0  0  0  0  0  0
   -1.4051   -2.5104   -0.4117 O   0  0  0  0  0  0  0  0  0  0  0  0
   -2.3909   -1.6348    0.0153 C   0  0  0  0  0  0  0  0  0  0  0  0
   -3.2246   -2.2292    1.1223 C   0  0  0  0  0  0  0  0  0  0  0  0
   -3.8811   -3.4811    0.6288 C   0  0  0  0  0  0  0  0  0  0  0  0
   -4.8326   -3.2110   -0.4897 C   0  0  0  0  0  0  0  0  0  0  0  0
   -5.9091   -2.3195    0.0086 C   0  0  0  0  0  0  0  0  0  0  0  0
   -7.0283   -2.9171    0.5868 C   0  0  0  0  0  0  0  0  0  0  0  0
   -8.0884   -2.1845    1.0753 C   0  0  0  0  0  0  0  0  0  0  0  0
   -8.0731   -0.8107    1.0055 C   0  0  0  0  0  0  0  0  0  0  0  0
   -6.9750   -0.2166    0.4377 C   0  0  0  0  0  0  0  0  0  0  0  0
   -5.9004   -0.9557   -0.0577 C   0  0  0  0  0  0  0  0  0  0  0  0
   -6.9498    1.5466    0.3384 S   0  0  0  0  0  0  0  0  0  0  0  0
   -5.5326    2.0577    0.4422 O   0  0  0  0  0  0  0  0  0  0  0  0
   -7.7606    2.1234    1.4404 O   0  0  0  0  0  0  0  0  0  0  0  0
   -7.6587    1.9809   -1.2349 C   0  0  0  0  0  0  0  0  0  0  0  0
   -7.8840    3.4591   -1.2918 C   0  0  0  0  0  0  0  0  0  0  0  0
   -9.0655    3.6207   -0.3903 C   0  0  0  0  0  0  0  0  0  0  0  0
   -9.7641    2.4715   -0.3561 C   0  0  0  0  0  0  0  0  0  0  0  0
   -9.0992    1.4665   -1.2296 C   0  0  0  0  0  0  0  0  0  0  0  0
    7.1743   -0.6802   -1.2298 O   0  0  0  0  0  0  0  0  0  0  0  0
   -1.3955   -0.2445    1.0049 H   0  0  0  0  0  0  0  0  0  0  0  0
   -1.5352    0.8602   -0.3513 H   0  0  0  0  0  0  0  0  0  0  0  0
   -1.2642   -0.8687   -0.6897 H   0  0  0  0  0  0  0  0  0  0  0  0
    2.4121   -0.5440    0.0917 H   0  0  0  0  0  0  0  0  0  0  0  0
   11.9115    0.3661   -1.0489 H   0  0  0  0  0  0  0  0  0  0  0  0
   10.9552    2.0021   -2.4465 H   0  0  0  0  0  0  0  0  0  0  0  0
   11.6224    3.2239   -1.3330 H   0  0  0  0  0  0  0  0  0  0  0  0
    8.8956    0.9041   -1.9322 H   0  0  0  0  0  0  0  0  0  0  0  0
    6.9875    1.7286    1.7814 H   0  0  0  0  0  0  0  0  0  0  0  0
    9.0398    2.9860    2.5222 H   0  0  0  0  0  0  0  0  0  0  0  0
   11.6615    2.9773    2.0012 H   0  0  0  0  0  0  0  0  0  0  0  0
    6.1634    1.0449   -1.4522 H   0  0  0  0  0  0  0  0  0  0  0  0
    5.1788    0.7089    1.0447 H   0  0  0  0  0  0  0  0  0  0  0  0
    6.2475   -0.6898    1.0986 H   0  0  0  0  0  0  0  0  0  0  0  0
    4.2913   -1.5710    0.4068 H   0  0  0  0  0  0  0  0  0  0  0  0
    4.2199    0.4227   -1.8505 H   0  0  0  0  0  0  0  0  0  0  0  0
    3.1325   -0.9335   -1.5830 H   0  0  0  0  0  0  0  0  0  0  0  0
    3.2101    1.6692    0.0480 H   0  0  0  0  0  0  0  0  0  0  0  0
    2.0367    1.0809   -1.1184 H   0  0  0  0  0  0  0  0  0  0  0  0
    2.6313   -0.4145    1.4918 H   0  0  0  0  0  0  0  0  0  0  0  0
    1.3105    0.7656    1.2128 H   0  0  0  0  0  0  0  0  0  0  0  0
    1.8447   -1.8466   -0.3223 H   0  0  0  0  0  0  0  0  0  0  0  0
    0.5020   -0.6987   -0.7121 H   0  0  0  0  0  0  0  0  0  0  0  0
    1.0477   -2.3127    1.8392 H   0  0  0  0  0  0  0  0  0  0  0  0
   -0.2580   -1.1286    1.8096 H   0  0  0  0  0  0  0  0  0  0  0  0
    0.2125   -3.6531    0.1105 H   0  0  0  0  0  0  0  0  0  0  0  0
   -1.0551   -3.4861    1.3195 H   0  0  0  0  0  0  0  0  0  0  0  0
   -1.9810   -0.6415    0.3000 H   0  0  0  0  0  0  0  0  0  0  0  0
   -3.0337   -1.4470   -0.8537 H   0  0  0  0  0  0  0  0  0  0  0  0
   -4.0033   -1.4886    1.4777 H   0  0  0  0  0  0  0  0  0  0  0  0
   -2.6188   -2.4066    2.0473 H   0  0  0  0  0  0  0  0  0  0  0  0
   -4.3776   -3.9770    1.4898 H   0  0  0  0  0  0  0  0  0  0  0  0
   -3.0822   -4.1491    0.2305 H   0  0  0  0  0  0  0  0  0  0  0  0
   -4.4166   -2.7498   -1.3827 H   0  0  0  0  0  0  0  0  0  0  0  0
   -5.3352   -4.1548   -0.8442 H   0  0  0  0  0  0  0  0  0  0  0  0
   -7.0923   -4.0067    0.6681 H   0  0  0  0  0  0  0  0  0  0  0  0
   -8.9563   -2.6769    1.5250 H   0  0  0  0  0  0  0  0  0  0  0  0
   -8.9256   -0.2814    1.4030 H   0  0  0  0  0  0  0  0  0  0  0  0
   -5.0957   -0.4187   -0.4814 H   0  0  0  0  0  0  0  0  0  0  0  0
   -7.0849    1.5557   -2.0698 H   0  0  0  0  0  0  0  0  0  0  0  0
   -8.0871    3.8150   -2.3249 H   0  0  0  0  0  0  0  0  0  0  0  0
   -6.9911    3.9618   -0.8471 H   0  0  0  0  0  0  0  0  0  0  0  0
   -9.3882    4.4800    0.1825 H   0  0  0  0  0  0  0  0  0  0  0  0
  -10.6726    2.2492    0.1981 H   0  0  0  0  0  0  0  0  0  0  0  0
   -9.5301    1.4977   -2.2559 H   0  0  0  0  0  0  0  0  0  0  0  0
   -9.1588    0.4361   -0.8667 H   0  0  0  0  0  0  0  0  0  0  0  0
    7.7923   -1.1181   -0.5764 H   0  0  0  0  0  0  0  0  0  0  0  0
  1  2  1  0
  2  3  2  0
  2  4  1  0
  5  6  1  0
  6  7  1  0
  7  8  2  0
  8  9  1  0
  9 10  2  0
 10 11  1  0
 11 12  2  0
 12 13  1  0
  9 14  1  0
 14 15  1  0
 15 16  1  0
 16 17  1  0
 17 18  1  0
 18 19  1  0
 19 20  1  0
 20 21  1  0
 21 22  1  0
 22 23  1  0
 23 24  1  0
 24 25  1  0
 25 26  1  0
 26 27  1  0
 27 28  1  0
 28 29  2  0
 29 30  1  0
 30 31  2  0
 31 32  1  0
 32 33  2  0
 32 34  1  0
 34 35  2  0
 34 36  2  0
 34 37  1  0
 37 38  1  0
 38 39  1  0
 39 40  2  0
 40 41  1  0
 14 42  1  0
 12  7  1  0
 33 28  1  0
 41 37  1  0
  1 43  1  0
  1 44  1  0
  1 45  1  0
  4 46  1  0
  5 47  1  0
  6 48  1  0
  6 49  1  0
  8 50  1  0
 10 51  1  0
 11 52  1  0
 13 53  1  0
 14 54  1  6
 15 55  1  0
 15 56  1  0
 16 57  1  0
 17 58  1  0
 17 59  1  0
 18 60  1  0
 18 61  1  0
 19 62  1  0
 19 63  1  0
 20 64  1  0
 20 65  1  0
 21 66  1  0
 21 67  1  0
 22 68  1  0
 22 69  1  0
 24 70  1  0
 24 71  1  0
 25 72  1  0
 25 73  1  0
 26 74  1  0
 26 75  1  0
 27 76  1  0
 27 77  1  0
 29 78  1  0
 30 79  1  0
 31 80  1  0
 33 81  1  0
 37 82  1  0
 38 83  1  0
 38 84  1  0
 39 85  1  0
 40 86  1  0
 41 87  1  0
 41 88  1  0
 42 89  1  0
M  END
>  <Ligand ID>  (1) 
LIG0003353

>  <Ligand>  (1) 
SCHEMBL4628342

>  <SMILES>  (1) 
CC(=O)O.OCc1cc(ccc1O)[C@H](CNCCCCCCOCCCCc1cccc(c1)S(=O)(=O)C1CC=CC1)O

>  <CID>  (1) 
69119729.0

>  <ChEMBL ID>  (1) 
nan

>  <InChiKey>  (1) 
QJLFVHRIPWPVGX-CZCBIWLKSA-N

>  <InChi>  (1) 
InChI=1S/C30H43NO6S.C2H4O2/c32-23-26-21-25(15-16-29(26)33)30(34)22-31-17-6-1-2-7-18-37-19-8-5-10-24-11-9-14-28(20-24)38(35,36)27-12-3-4-13-27;1-2(3)4/h3-4,9,11,14-16,20-21,27,30-34H,1-2,5-8,10,12-13,17-19,22-23H2;1H3,(H,3,4)/t30-;/m0./s1

>  <IUPAC Name>  (1) 
acetic acid;4-[(1R)-2-[6-[4-(3-cyclopent-3-en-1-ylsulfonylphenyl)butoxy]hexylamino]-1-hydroxyethyl]-2-(hydroxymethyl)phenol

$$$$
