
     RDKit          3D

 88 92  0  0  0  0  0  0  0  0999 V2000
    3.3896   -1.2601   -1.1535 O   0  0  0  0  0  0  0  0  0  0  0  0
    3.8059   -1.8435   -0.1518 C   0  0  0  0  0  0  0  0  0  0  0  0
    3.1048   -1.5464    1.0856 N   0  0  0  0  0  0  0  0  0  0  0  0
    1.9621   -0.5923    1.0517 C   0  0  1  0  0  0  0  0  0  0  0  0
    0.7969   -1.1834    1.7021 C   0  0  0  0  0  0  0  0  0  0  0  0
    1.0120   -2.2853    2.3421 O   0  0  0  0  0  0  0  0  0  0  0  0
   -0.5350   -0.7286    1.7392 N   0  0  0  0  0  0  0  0  0  0  0  0
   -1.5344   -1.4722    2.5573 C   0  0  0  0  0  0  0  0  0  0  0  0
   -2.7247   -1.5135    1.6574 C   0  0  1  0  0  0  0  0  0  0  0  0
   -2.6475   -0.2459    0.8820 C   0  0  0  0  0  0  0  0  0  0  0  0
   -1.2822    0.3153    1.1540 C   0  0  2  0  0  0  0  0  0  0  0  0
   -0.6956    0.9455   -0.0880 C   0  0  0  0  0  0  0  0  0  0  0  0
   -1.6179    2.0173   -0.5903 C   0  0  0  0  0  0  0  0  0  0  0  0
   -1.8670    3.1290    0.3671 C   0  0  0  0  0  0  0  0  0  0  0  0
   -2.7645    4.1079   -0.2814 N   0  0  0  0  0  0  0  0  0  0  0  0
   -2.1769    4.9180   -1.0982 C   0  0  0  0  0  0  0  0  0  0  0  0
   -2.9556    5.8940   -1.7702 N   0  0  0  0  0  0  0  0  0  0  0  0
   -0.7799    4.8894   -1.3665 N   0  0  0  0  0  0  0  0  0  0  0  0
   -2.9305   -2.6348    0.9652 O   0  0  0  0  0  0  0  0  0  0  0  0
   -3.9560   -3.4671    1.1250 C   0  0  0  0  0  0  0  0  0  0  0  0
   -5.2568   -2.7931    0.8924 C   0  0  0  0  0  0  0  0  0  0  0  0
   -6.0152   -2.2464    1.9111 C   0  0  0  0  0  0  0  0  0  0  0  0
   -7.2240   -1.6163    1.7010 C   0  0  0  0  0  0  0  0  0  0  0  0
   -7.7125   -1.5171    0.4313 C   0  0  0  0  0  0  0  0  0  0  0  0
   -6.9770   -2.0574   -0.6262 C   0  0  0  0  0  0  0  0  0  0  0  0
   -5.7811   -2.6784   -0.3989 C   0  0  0  0  0  0  0  0  0  0  0  0
   -7.4490   -1.9745   -1.9262 C   0  0  0  0  0  0  0  0  0  0  0  0
   -8.6814   -1.3335   -2.1244 C   0  0  0  0  0  0  0  0  0  0  0  0
   -9.3810   -0.8122   -1.0603 C   0  0  0  0  0  0  0  0  0  0  0  0
   -8.9225   -0.8864    0.2468 C   0  0  0  0  0  0  0  0  0  0  0  0
    2.4662    0.6417    1.7908 C   0  0  0  0  0  0  0  0  0  0  0  0
    3.6526    1.2549    1.1529 C   0  0  0  0  0  0  0  0  0  0  0  0
    3.4888    2.2428    0.1751 C   0  0  0  0  0  0  0  0  0  0  0  0
    4.5952    2.8142   -0.4192 C   0  0  0  0  0  0  0  0  0  0  0  0
    5.8652    2.4115   -0.0515 C   0  0  0  0  0  0  0  0  0  0  0  0
    6.0585    1.4400    0.9095 C   0  0  0  0  0  0  0  0  0  0  0  0
    4.9486    0.8727    1.5005 C   0  0  0  0  0  0  0  0  0  0  0  0
    4.9143   -2.7978   -0.0351 C   0  0  0  0  0  0  0  0  0  0  0  0
    5.7118   -2.8885   -1.2909 C   0  0  0  0  0  0  0  0  0  0  0  0
    6.3767   -1.6642   -1.7303 C   0  0  0  0  0  0  0  0  0  0  0  0
    5.9381   -0.7768   -2.6705 C   0  0  0  0  0  0  0  0  0  0  0  0
    6.6374    0.3857   -3.0052 C   0  0  0  0  0  0  0  0  0  0  0  0
    7.8332    0.6634   -2.3618 C   0  0  0  0  0  0  0  0  0  0  0  0
    8.3072   -0.2134   -1.4059 C   0  0  0  0  0  0  0  0  0  0  0  0
    7.5912   -1.3468   -1.1024 C   0  0  0  0  0  0  0  0  0  0  0  0
    3.3900   -1.9843    1.9895 H   0  0  0  0  0  0  0  0  0  0  0  0
    1.7567   -0.3791    0.0028 H   0  0  0  0  0  0  0  0  0  0  0  0
   -1.7032   -0.8028    3.4248 H   0  0  0  0  0  0  0  0  0  0  0  0
   -1.1315   -2.4060    2.9048 H   0  0  0  0  0  0  0  0  0  0  0  0
   -3.6061   -1.4062    2.3677 H   0  0  0  0  0  0  0  0  0  0  0  0
   -2.7711   -0.4496   -0.2333 H   0  0  0  0  0  0  0  0  0  0  0  0
   -3.4378    0.4822    1.1983 H   0  0  0  0  0  0  0  0  0  0  0  0
   -1.4188    1.1475    1.8996 H   0  0  0  0  0  0  0  0  0  0  0  0
   -0.4984    0.2147   -0.8710 H   0  0  0  0  0  0  0  0  0  0  0  0
    0.2582    1.4235    0.1990 H   0  0  0  0  0  0  0  0  0  0  0  0
   -2.5688    1.5157   -0.8561 H   0  0  0  0  0  0  0  0  0  0  0  0
   -1.1946    2.4097   -1.5549 H   0  0  0  0  0  0  0  0  0  0  0  0
   -0.9770    3.6365    0.7439 H   0  0  0  0  0  0  0  0  0  0  0  0
   -2.4240    2.7357    1.2593 H   0  0  0  0  0  0  0  0  0  0  0  0
   -2.8864    6.9270   -1.5848 H   0  0  0  0  0  0  0  0  0  0  0  0
   -3.6429    5.5600   -2.4960 H   0  0  0  0  0  0  0  0  0  0  0  0
   -0.4773    4.9461   -2.3581 H   0  0  0  0  0  0  0  0  0  0  0  0
   -0.0465    4.8119   -0.6401 H   0  0  0  0  0  0  0  0  0  0  0  0
   -3.9643   -4.0805    2.0536 H   0  0  0  0  0  0  0  0  0  0  0  0
   -3.8798   -4.2568    0.3150 H   0  0  0  0  0  0  0  0  0  0  0  0
   -5.6915   -2.2972    2.9598 H   0  0  0  0  0  0  0  0  0  0  0  0
   -7.7684   -1.2037    2.5405 H   0  0  0  0  0  0  0  0  0  0  0  0
   -5.1915   -3.1033   -1.2005 H   0  0  0  0  0  0  0  0  0  0  0  0
   -6.9340   -2.3744   -2.7805 H   0  0  0  0  0  0  0  0  0  0  0  0
   -9.0659   -1.2565   -3.1349 H   0  0  0  0  0  0  0  0  0  0  0  0
  -10.3264   -0.3201   -1.2274 H   0  0  0  0  0  0  0  0  0  0  0  0
   -9.5049   -0.4641    1.0380 H   0  0  0  0  0  0  0  0  0  0  0  0
    1.7045    1.3613    2.0602 H   0  0  0  0  0  0  0  0  0  0  0  0
    2.8413    0.2343    2.7799 H   0  0  0  0  0  0  0  0  0  0  0  0
    2.5178    2.5629   -0.1165 H   0  0  0  0  0  0  0  0  0  0  0  0
    4.4309    3.5848   -1.1784 H   0  0  0  0  0  0  0  0  0  0  0  0
    6.7044    2.8996   -0.5614 H   0  0  0  0  0  0  0  0  0  0  0  0
    7.0800    1.1466    1.1788 H   0  0  0  0  0  0  0  0  0  0  0  0
    5.1371    0.1185    2.2491 H   0  0  0  0  0  0  0  0  0  0  0  0
    4.5555   -3.8047    0.3053 H   0  0  0  0  0  0  0  0  0  0  0  0
    5.6119   -2.4242    0.7548 H   0  0  0  0  0  0  0  0  0  0  0  0
    5.0881   -3.2479   -2.1607 H   0  0  0  0  0  0  0  0  0  0  0  0
    6.4892   -3.6775   -1.1174 H   0  0  0  0  0  0  0  0  0  0  0  0
    5.0325   -0.9546   -3.2096 H   0  0  0  0  0  0  0  0  0  0  0  0
    6.2858    1.0816   -3.7458 H   0  0  0  0  0  0  0  0  0  0  0  0
    8.3960    1.5646   -2.6025 H   0  0  0  0  0  0  0  0  0  0  0  0
    9.2478   -0.0161   -0.8937 H   0  0  0  0  0  0  0  0  0  0  0  0
    7.9954   -2.0227   -0.3326 H   0  0  0  0  0  0  0  0  0  0  0  0
  1  2  2  0
  2  3  1  0
  3  4  1  0
  4  5  1  0
  5  6  2  0
  5  7  1  0
  7  8  1  0
  8  9  1  0
  9 10  1  0
 10 11  1  0
 11 12  1  0
 12 13  1  0
 13 14  1  0
 14 15  1  0
 15 16  2  3
 16 17  1  0
 16 18  1  0
  9 19  1  0
 19 20  1  0
 20 21  1  0
 21 22  2  0
 22 23  1  0
 23 24  2  0
 24 25  1  0
 25 26  2  0
 25 27  1  0
 27 28  2  0
 28 29  1  0
 29 30  2  0
  4 31  1  0
 31 32  1  0
 32 33  2  0
 33 34  1  0
 34 35  2  0
 35 36  1  0
 36 37  2  0
  2 38  1  0
 38 39  1  0
 39 40  1  0
 40 41  2  0
 41 42  1  0
 42 43  2  0
 43 44  1  0
 44 45  2  0
 11  7  1  0
 26 21  1  0
 37 32  1  0
 45 40  1  0
 30 24  1  0
  3 46  1  0
  4 47  1  6
  8 48  1  0
  8 49  1  0
  9 50  1  1
 10 51  1  0
 10 52  1  0
 11 53  1  1
 12 54  1  0
 12 55  1  0
 13 56  1  0
 13 57  1  0
 14 58  1  0
 14 59  1  0
 17 60  1  0
 17 61  1  0
 18 62  1  0
 18 63  1  0
 20 64  1  0
 20 65  1  0
 22 66  1  0
 23 67  1  0
 26 68  1  0
 27 69  1  0
 28 70  1  0
 29 71  1  0
 30 72  1  0
 31 73  1  0
 31 74  1  0
 33 75  1  0
 34 76  1  0
 35 77  1  0
 36 78  1  0
 37 79  1  0
 38 80  1  0
 38 81  1  0
 39 82  1  0
 39 83  1  0
 41 84  1  0
 42 85  1  0
 43 86  1  0
 44 87  1  0
 45 88  1  0
M  END
>  <Ligand ID>  (1) 
LIG0002426

>  <Ligand>  (1) 
CHEMBL212976

>  <SMILES>  (1) 
O=C(N[C@@H](C(=O)N1C[C@@H](C[C@@H]1CCCN=C(N)N)OCc1ccc2c(c1)cccc2)Cc1ccccc1)CCc1ccccc1

>  <CID>  (1) 
11845276.0

>  <ChEMBL ID>  (1) 
nan

>  <InChiKey>  (1) 
AEBQLEXRXNCRKU-LBFZIJHGSA-N

>  <InChi>  (1) 
InChI=1S/C37H43N5O3/c38-37(39)40-21-9-16-32-24-33(45-26-29-17-19-30-14-7-8-15-31(30)22-29)25-42(32)36(44)34(23-28-12-5-2-6-13-28)41-35(43)20-18-27-10-3-1-4-11-27/h1-8,10-15,17,19,22,32-34H,9,16,18,20-21,23-26H2,(H,41,43)(H4,38,39,40)/t32-,33+,34+/m0/s1

>  <IUPAC Name>  (1) 
N-[(2R)-1-[(2S,4R)-2-[3-(diaminomethylideneamino)propyl]-4-(naphthalen-2-ylmethoxy)pyrrolidin-1-yl]-1-oxo-3-phenylpropan-2-yl]-3-phenylpropanamide

$$$$
