
     RDKit          3D

 52 55  0  0  0  0  0  0  0  0999 V2000
    0.7702    1.4761   -1.9526 C   0  0  0  0  0  0  0  0  0  0  0  0
    0.6386    0.2148   -1.1458 C   0  0  2  0  0  0  0  0  0  0  0  0
   -0.7605    0.0968   -0.5513 C   0  0  0  0  0  0  0  0  0  0  0  0
   -1.0244    1.0462    0.4607 N   0  0  0  0  0  0  0  0  0  0  0  0
   -0.0320    1.9709    0.8383 C   0  0  0  0  0  0  0  0  0  0  0  0
    1.3758    1.4536    0.8842 C   0  0  0  0  0  0  0  0  0  0  0  0
    1.5593    0.2203    0.0299 C   0  0  2  0  0  0  0  0  0  0  0  0
    2.9562   -0.1106   -0.2482 C   0  0  0  0  0  0  0  0  0  0  0  0
    3.6781    0.2706   -1.3531 C   0  0  0  0  0  0  0  0  0  0  0  0
    5.0026   -0.0916   -1.5371 C   0  0  0  0  0  0  0  0  0  0  0  0
    5.6727   -0.8617   -0.6114 C   0  0  0  0  0  0  0  0  0  0  0  0
    4.9680   -1.2543    0.5026 C   0  0  0  0  0  0  0  0  0  0  0  0
    3.6532   -0.8934    0.6830 C   0  0  0  0  0  0  0  0  0  0  0  0
    2.9981   -1.3144    1.8159 F   0  0  0  0  0  0  0  0  0  0  0  0
    6.9979   -1.2425   -0.7634 O   0  0  0  0  0  0  0  0  0  0  0  0
    8.0767   -0.4649   -0.2784 C   0  0  0  0  0  0  0  0  0  0  0  0
    9.2542   -1.1047   -0.5822 F   0  0  0  0  0  0  0  0  0  0  0  0
    8.0166    0.7490   -0.9492 F   0  0  0  0  0  0  0  0  0  0  0  0
    7.9524   -0.3242    1.0877 F   0  0  0  0  0  0  0  0  0  0  0  0
   -2.2744    1.7045    0.1400 C   0  0  0  0  0  0  0  0  0  0  0  0
   -3.4038    0.7411    0.0705 C   0  0  0  0  0  0  0  0  0  0  0  0
   -3.8098    0.0818   -1.0221 N   0  0  0  0  0  0  0  0  0  0  0  0
   -4.8596   -0.7120   -0.7392 C   0  0  0  0  0  0  0  0  0  0  0  0
   -5.1187   -0.5380    0.5929 C   0  0  0  0  0  0  0  0  0  0  0  0
   -4.2249    0.3451    1.0591 N   0  0  0  0  0  0  0  0  0  0  0  0
   -4.1411    0.8167    2.4301 C   0  0  0  0  0  0  0  0  0  0  0  0
   -6.1590   -1.2372    1.1715 C   0  0  0  0  0  0  0  0  0  0  0  0
   -6.9071   -2.0958    0.3732 C   0  0  0  0  0  0  0  0  0  0  0  0
   -6.6093   -2.2401   -0.9678 C   0  0  0  0  0  0  0  0  0  0  0  0
   -5.5932   -1.5500   -1.5083 N   0  0  0  0  0  0  0  0  0  0  0  0
    1.0770    1.2477   -2.9906 H   0  0  0  0  0  0  0  0  0  0  0  0
    1.4249    2.2011   -1.4371 H   0  0  0  0  0  0  0  0  0  0  0  0
   -0.2106    2.0019   -2.0658 H   0  0  0  0  0  0  0  0  0  0  0  0
    0.8131   -0.7031   -1.7328 H   0  0  0  0  0  0  0  0  0  0  0  0
   -0.8422   -0.9359   -0.1545 H   0  0  0  0  0  0  0  0  0  0  0  0
   -1.4625    0.1693   -1.4109 H   0  0  0  0  0  0  0  0  0  0  0  0
   -0.2825    2.2898    1.8946 H   0  0  0  0  0  0  0  0  0  0  0  0
   -0.0930    2.9204    0.2678 H   0  0  0  0  0  0  0  0  0  0  0  0
    2.0421    2.2377    0.4837 H   0  0  0  0  0  0  0  0  0  0  0  0
    1.7017    1.2456    1.9227 H   0  0  0  0  0  0  0  0  0  0  0  0
    1.1786   -0.6325    0.6909 H   0  0  0  0  0  0  0  0  0  0  0  0
    3.2322    0.8633   -2.1116 H   0  0  0  0  0  0  0  0  0  0  0  0
    5.5504    0.2249   -2.4227 H   0  0  0  0  0  0  0  0  0  0  0  0
    5.4454   -1.8609    1.2628 H   0  0  0  0  0  0  0  0  0  0  0  0
   -2.4601    2.4707    0.9425 H   0  0  0  0  0  0  0  0  0  0  0  0
   -2.2297    2.2896   -0.8010 H   0  0  0  0  0  0  0  0  0  0  0  0
   -4.0931    1.9088    2.4359 H   0  0  0  0  0  0  0  0  0  0  0  0
   -3.1932    0.4173    2.8631 H   0  0  0  0  0  0  0  0  0  0  0  0
   -4.9626    0.4214    3.0417 H   0  0  0  0  0  0  0  0  0  0  0  0
   -6.3850   -1.1213    2.2110 H   0  0  0  0  0  0  0  0  0  0  0  0
   -7.7339   -2.6656    0.7852 H   0  0  0  0  0  0  0  0  0  0  0  0
   -7.1697   -2.8947   -1.6043 H   0  0  0  0  0  0  0  0  0  0  0  0
  1  2  1  0
  2  3  1  0
  3  4  1  0
  4  5  1  0
  5  6  1  0
  6  7  1  0
  7  8  1  0
  8  9  2  0
  9 10  1  0
 10 11  2  0
 11 12  1  0
 12 13  2  0
 13 14  1  0
 11 15  1  0
 15 16  1  0
 16 17  1  0
 16 18  1  0
 16 19  1  0
  4 20  1  0
 20 21  1  0
 21 22  2  0
 22 23  1  0
 23 24  2  0
 24 25  1  0
 25 26  1  0
 24 27  1  0
 27 28  2  0
 28 29  1  0
 29 30  2  0
  7  2  1  0
 13  8  1  0
 25 21  1  0
 30 23  1  0
  1 31  1  0
  1 32  1  0
  1 33  1  0
  2 34  1  6
  3 35  1  0
  3 36  1  0
  5 37  1  0
  5 38  1  0
  6 39  1  0
  6 40  1  0
  7 41  1  1
  9 42  1  0
 10 43  1  0
 12 44  1  0
 20 45  1  0
 20 46  1  0
 26 47  1  0
 26 48  1  0
 26 49  1  0
 27 50  1  0
 28 51  1  0
 29 52  1  0
M  END
>  <Ligand ID>  (1) 
LIG0005264

>  <Ligand>  (1) 
CHEMBL1774236

>  <SMILES>  (1) 
C[C@@H]1CN(CC[C@@H]1c1ccc(cc1F)OC(F)(F)F)Cc1nc2c(n1C)cccn2

>  <CID>  (1) 
51354020.0

>  <ChEMBL ID>  (1) 
nan

>  <InChiKey>  (1) 
CQTZXNPIJZSXKK-HIFRSBDPSA-N

>  <InChi>  (1) 
InChI=1S/C21H22F4N4O/c1-13-11-29(12-19-27-20-18(28(19)2)4-3-8-26-20)9-7-15(13)16-6-5-14(10-17(16)22)30-21(23,24)25/h3-6,8,10,13,15H,7,9,11-12H2,1-2H3/t13-,15+/m1/s1

>  <IUPAC Name>  (1) 
2-[[(3S,4S)-4-[2-fluoro-4-(trifluoromethoxy)phenyl]-3-methylpiperidin-1-yl]methyl]-1-methylimidazo[4,5-b]pyridine

$$$$
