
     RDKit          3D

 58 61  0  0  0  0  0  0  0  0999 V2000
   -2.5522   -1.1499    1.7284 O   0  0  0  0  0  0  0  0  0  0  0  0
   -1.5873   -1.5090    0.8032 C   0  0  0  0  0  0  0  0  0  0  0  0
   -1.3318   -0.5198   -0.2802 C   0  0  0  0  0  0  0  0  0  0  0  0
   -0.8998    0.7870    0.3687 C   0  0  0  0  0  0  0  0  0  0  0  0
    0.3586    0.6092    1.1421 C   0  0  0  0  0  0  0  0  0  0  0  0
    1.4411    0.1607    0.3269 N   0  0  0  0  0  0  0  0  0  0  0  0
    1.0828   -0.2418   -0.9798 C   0  0  0  0  0  0  0  0  0  0  0  0
   -0.1551   -1.0566   -1.1096 C   0  0  0  0  0  0  0  0  0  0  0  0
    2.3352   -0.6525    1.0634 C   0  0  0  0  0  0  0  0  0  0  0  0
    3.5030   -1.1772    0.3186 C   0  0  0  0  0  0  0  0  0  0  0  0
    3.5012   -2.5156   -0.0721 C   0  0  0  0  0  0  0  0  0  0  0  0
    4.5431   -3.0860   -0.7640 C   0  0  0  0  0  0  0  0  0  0  0  0
    5.6272   -2.2741   -1.0729 C   0  0  0  0  0  0  0  0  0  0  0  0
    5.6311   -0.9462   -0.6863 C   0  0  0  0  0  0  0  0  0  0  0  0
    4.5828   -0.3787    0.0079 C   0  0  0  0  0  0  0  0  0  0  0  0
    4.6291    1.0254    0.3939 C   0  0  0  0  0  0  0  0  0  0  0  0
    5.6689    1.8936    0.1247 C   0  0  0  0  0  0  0  0  0  0  0  0
    5.3582    3.1408    0.6442 C   0  0  0  0  0  0  0  0  0  0  0  0
    4.1017    2.9636    1.2235 C   0  0  0  0  0  0  0  0  0  0  0  0
    3.7459    1.7310    1.0431 O   0  0  0  0  0  0  0  0  0  0  0  0
   -2.4513   -0.2117   -1.2011 C   0  0  0  0  0  0  0  0  0  0  0  0
   -3.7001    0.3503   -0.6461 C   0  0  0  0  0  0  0  0  0  0  0  0
   -4.6372    0.5791   -1.8591 C   0  0  0  0  0  0  0  0  0  0  0  0
   -5.7559    1.4413   -1.3219 C   0  0  0  0  0  0  0  0  0  0  0  0
   -5.9629    1.2090    0.1596 C   0  0  0  0  0  0  0  0  0  0  0  0
   -5.6053   -0.1882    0.5754 C   0  0  0  0  0  0  0  0  0  0  0  0
   -4.4019   -0.6330    0.0893 O   0  0  0  0  0  0  0  0  0  0  0  0
   -2.2225   -1.1261    2.6484 H   0  0  0  0  0  0  0  0  0  0  0  0
   -1.8599   -2.5204    0.4099 H   0  0  0  0  0  0  0  0  0  0  0  0
   -0.6528   -1.6929    1.3803 H   0  0  0  0  0  0  0  0  0  0  0  0
   -1.6859    1.1363    1.0596 H   0  0  0  0  0  0  0  0  0  0  0  0
   -0.6928    1.5046   -0.4472 H   0  0  0  0  0  0  0  0  0  0  0  0
    0.6648    1.6385    1.5137 H   0  0  0  0  0  0  0  0  0  0  0  0
    0.2807   -0.0369    2.0349 H   0  0  0  0  0  0  0  0  0  0  0  0
    1.8860   -0.7544   -1.5120 H   0  0  0  0  0  0  0  0  0  0  0  0
    0.9006    0.7041   -1.5699 H   0  0  0  0  0  0  0  0  0  0  0  0
   -0.0064   -2.1333   -0.8859 H   0  0  0  0  0  0  0  0  0  0  0  0
   -0.4464   -1.0319   -2.1797 H   0  0  0  0  0  0  0  0  0  0  0  0
    2.6245   -0.0862    1.9806 H   0  0  0  0  0  0  0  0  0  0  0  0
    1.7351   -1.5173    1.4745 H   0  0  0  0  0  0  0  0  0  0  0  0
    2.6457   -3.1685    0.1681 H   0  0  0  0  0  0  0  0  0  0  0  0
    4.5679   -4.1218   -1.0798 H   0  0  0  0  0  0  0  0  0  0  0  0
    6.4949   -2.6693   -1.6260 H   0  0  0  0  0  0  0  0  0  0  0  0
    6.4751   -0.2810   -0.9170 H   0  0  0  0  0  0  0  0  0  0  0  0
    6.6036    1.7073   -0.3989 H   0  0  0  0  0  0  0  0  0  0  0  0
    5.9617    4.0385    0.6027 H   0  0  0  0  0  0  0  0  0  0  0  0
    3.5451    3.7384    1.7288 H   0  0  0  0  0  0  0  0  0  0  0  0
   -2.7308   -1.1657   -1.7442 H   0  0  0  0  0  0  0  0  0  0  0  0
   -2.0974    0.4493   -2.0439 H   0  0  0  0  0  0  0  0  0  0  0  0
   -3.6255    1.3071   -0.1351 H   0  0  0  0  0  0  0  0  0  0  0  0
   -4.0161    1.1072   -2.6294 H   0  0  0  0  0  0  0  0  0  0  0  0
   -4.9903   -0.4110   -2.2014 H   0  0  0  0  0  0  0  0  0  0  0  0
   -5.4139    2.5065   -1.4534 H   0  0  0  0  0  0  0  0  0  0  0  0
   -6.6640    1.2856   -1.9166 H   0  0  0  0  0  0  0  0  0  0  0  0
   -5.3472    1.9246    0.7633 H   0  0  0  0  0  0  0  0  0  0  0  0
   -7.0148    1.4005    0.4534 H   0  0  0  0  0  0  0  0  0  0  0  0
   -5.5952   -0.1763    1.7017 H   0  0  0  0  0  0  0  0  0  0  0  0
   -6.3932   -0.9062    0.2378 H   0  0  0  0  0  0  0  0  0  0  0  0
  1  2  1  0
  2  3  1  0
  3  4  1  0
  4  5  1  0
  5  6  1  0
  6  7  1  0
  7  8  1  0
  6  9  1  0
  9 10  1  0
 10 11  2  0
 11 12  1  0
 12 13  2  0
 13 14  1  0
 14 15  2  0
 15 16  1  0
 16 17  2  0
 17 18  1  0
 18 19  2  0
 19 20  1  0
  3 21  1  0
 21 22  1  0
 22 23  1  0
 23 24  1  0
 24 25  1  0
 25 26  1  0
 26 27  1  0
  8  3  1  0
 15 10  1  0
 20 16  1  0
 27 22  1  0
  1 28  1  0
  2 29  1  0
  2 30  1  0
  4 31  1  0
  4 32  1  0
  5 33  1  0
  5 34  1  0
  7 35  1  0
  7 36  1  0
  8 37  1  0
  8 38  1  0
  9 39  1  0
  9 40  1  0
 11 41  1  0
 12 42  1  0
 13 43  1  0
 14 44  1  0
 17 45  1  0
 18 46  1  0
 19 47  1  0
 21 48  1  0
 21 49  1  0
 22 50  1  0
 23 51  1  0
 23 52  1  0
 24 53  1  0
 24 54  1  0
 25 55  1  0
 25 56  1  0
 26 57  1  0
 26 58  1  0
M  END
>  <Ligand ID>  (1) 
LIG0003119

>  <Ligand>  (1) 
MLS000732278

>  <SMILES>  (1) 
OCC1(CCN(CC1)Cc1ccccc1c1ccco1)CC1CCCCO1

>  <CID>  (1) 
16190607.0

>  <ChEMBL ID>  (1) 
nan

>  <InChiKey>  (1) 
HIKUYHZMMMLRKM-UHFFFAOYSA-N

>  <InChi>  (1) 
InChI=1S/C23H31NO3/c25-18-23(16-20-7-3-4-14-26-20)10-12-24(13-11-23)17-19-6-1-2-8-21(19)22-9-5-15-27-22/h1-2,5-6,8-9,15,20,25H,3-4,7,10-14,16-18H2

>  <IUPAC Name>  (1) 
[1-[[2-(furan-2-yl)phenyl]methyl]-4-(oxan-2-ylmethyl)piperidin-4-yl]methanol

$$$$
