
     RDKit          3D

140142  0  0  0  0  0  0  0  0999 V2000
   -8.9622   -2.9064   -2.3893 C   0  0  0  0  0  0  0  0  0  0  0  0
   -8.4004   -1.8812   -1.4108 C   0  0  0  0  0  0  0  0  0  0  0  0
   -7.2340   -2.4537   -0.6354 C   0  0  1  0  0  0  0  0  0  0  0  0
   -6.6335   -1.4625    0.3489 C   0  0  2  0  0  0  0  0  0  0  0  0
   -6.1122   -0.2826   -0.2822 N   0  0  0  0  0  0  0  0  0  0  0  0
   -5.6124   -0.1431   -1.5978 C   0  0  0  0  0  0  0  0  0  0  0  0
   -5.5256   -1.1329   -2.3026 O   0  0  0  0  0  0  0  0  0  0  0  0
   -5.2144    1.2508   -2.0036 C   0  0  1  0  0  0  0  0  0  0  0  0
   -4.5262    1.3295   -3.2656 N   0  0  0  0  0  0  0  0  0  0  0  0
   -3.1082    1.2504   -3.2327 C   0  0  0  0  0  0  0  0  0  0  0  0
   -2.6233    0.9476   -2.1254 O   0  0  0  0  0  0  0  0  0  0  0  0
   -2.1587    1.4793   -4.3502 C   0  0  0  0  0  0  0  0  0  0  0  0
   -0.7678    1.3708   -3.6224 C   0  0  0  0  0  0  0  0  0  0  0  0
   -1.0043    2.4169   -2.1710 S   0  0  0  0  0  0  0  0  0  0  0  0
    0.3398    2.2592   -1.0133 C   0  0  0  0  0  0  0  0  0  0  0  0
    0.6033    0.7941   -0.6953 C   0  0  0  0  0  0  0  0  0  0  0  0
    1.2437    0.6209    0.6507 C   0  0  2  0  0  0  0  0  0  0  0  0
    0.0892    0.5272    1.5969 N   0  0  0  0  0  0  0  0  0  0  0  0
    0.2650    0.1381    2.9504 C   0  0  0  0  0  0  0  0  0  0  0  0
    1.4586    0.0620    3.3124 O   0  0  0  0  0  0  0  0  0  0  0  0
   -0.8866   -0.1327    3.8562 C   0  0  1  0  0  0  0  0  0  0  0  0
   -2.0257   -0.6177    3.1018 N   0  0  0  0  0  0  0  0  0  0  0  0
   -2.5149   -1.9809    3.2152 C   0  0  0  0  0  0  0  0  0  0  0  0
   -1.8422   -2.6726    3.9990 O   0  0  0  0  0  0  0  0  0  0  0  0
   -3.6418   -2.5607    2.5348 C   0  0  1  0  0  0  0  0  0  0  0  0
   -4.3686   -1.7769    1.5618 N   0  0  0  0  0  0  0  0  0  0  0  0
   -5.7494   -2.1238    1.2945 C   0  0  0  0  0  0  0  0  0  0  0  0
   -6.1554   -3.0887    1.9683 O   0  0  0  0  0  0  0  0  0  0  0  0
   -3.2565   -3.9100    1.9170 C   0  0  0  0  0  0  0  0  0  0  0  0
   -2.8151   -4.9480    2.8709 C   0  0  0  0  0  0  0  0  0  0  0  0
   -2.5326   -6.2571    2.1661 C   0  0  0  0  0  0  0  0  0  0  0  0
   -2.6849   -6.3778    0.9171 O   0  0  0  0  0  0  0  0  0  0  0  0
   -2.0868   -7.3736    2.9375 N   0  0  0  0  0  0  0  0  0  0  0  0
   -0.5035   -0.8602    5.0867 C   0  0  0  0  0  0  0  0  0  0  0  0
   -1.6130   -1.0630    6.0342 C   0  0  0  0  0  0  0  0  0  0  0  0
   -2.7711   -0.5954    5.9148 O   0  0  0  0  0  0  0  0  0  0  0  0
   -1.3557   -1.8586    7.1902 N   0  0  0  0  0  0  0  0  0  0  0  0
    1.9272    1.9344    0.9871 C   0  0  0  0  0  0  0  0  0  0  0  0
    1.3646    2.6393    1.8941 O   0  0  0  0  0  0  0  0  0  0  0  0
    3.0905    2.4348    0.4138 N   0  0  0  0  0  0  0  0  0  0  0  0
    3.5682    3.7296    0.9212 C   0  0  0  0  0  0  0  0  0  0  0  0
    4.5706    3.6243    1.9825 C   0  0  0  0  0  0  0  0  0  0  0  0
    4.2860    3.5474    3.3356 C   0  0  0  0  0  0  0  0  0  0  0  0
    5.3165    3.4523    4.2737 C   0  0  0  0  0  0  0  0  0  0  0  0
    6.6494    3.4340    3.8553 C   0  0  0  0  0  0  0  0  0  0  0  0
    6.9353    3.5109    2.5139 C   0  0  0  0  0  0  0  0  0  0  0  0
    5.9120    3.6053    1.5831 C   0  0  0  0  0  0  0  0  0  0  0  0
    3.8783    1.8467   -0.6337 C   0  0  0  0  0  0  0  0  0  0  0  0
    4.8756    0.8888   -0.1008 C   0  0  0  0  0  0  0  0  0  0  0  0
    5.0048    0.5982    1.1128 O   0  0  0  0  0  0  0  0  0  0  0  0
    5.7637    0.2382   -1.0082 N   0  0  0  0  0  0  0  0  0  0  0  0
    6.7719   -0.7140   -0.5495 C   0  0  2  0  0  0  0  0  0  0  0  0
    8.1049   -0.1493   -0.7243 C   0  0  0  0  0  0  0  0  0  0  0  0
    9.1183   -0.8455   -0.4143 O   0  0  0  0  0  0  0  0  0  0  0  0
    8.3252    1.1663   -1.2238 N   0  0  0  0  0  0  0  0  0  0  0  0
    9.5918    1.8002   -1.3895 C   0  0  0  0  0  0  0  0  0  0  0  0
   10.5237    1.1363   -2.2994 C   0  0  0  0  0  0  0  0  0  0  0  0
   11.6603    1.6846   -2.4640 O   0  0  0  0  0  0  0  0  0  0  0  0
   10.3090   -0.0525   -3.0254 N   0  0  0  0  0  0  0  0  0  0  0  0
    6.5116   -2.1060   -1.0073 C   0  0  0  0  0  0  0  0  0  0  0  0
    6.4253   -2.3295   -2.4745 C   0  0  0  0  0  0  0  0  0  0  0  0
    6.1556   -3.8130   -2.7404 C   0  0  0  0  0  0  0  0  0  0  0  0
    7.6522   -1.9036   -3.2190 C   0  0  0  0  0  0  0  0  0  0  0  0
   -6.3306    2.2412   -1.8492 C   0  0  0  0  0  0  0  0  0  0  0  0
   -5.9218    3.6153   -2.2465 C   0  0  0  0  0  0  0  0  0  0  0  0
   -5.3554    4.4116   -1.2785 C   0  0  0  0  0  0  0  0  0  0  0  0
   -4.9260    5.7193   -1.5419 C   0  0  0  0  0  0  0  0  0  0  0  0
   -5.0955    6.1996   -2.8439 C   0  0  0  0  0  0  0  0  0  0  0  0
   -5.6670    5.3920   -3.8113 C   0  0  0  0  0  0  0  0  0  0  0  0
   -6.0801    4.1078   -3.5264 C   0  0  0  0  0  0  0  0  0  0  0  0
   -7.8160   -3.6072    0.1962 C   0  0  0  0  0  0  0  0  0  0  0  0
   -8.2240   -3.6789   -2.6472 H   0  0  0  0  0  0  0  0  0  0  0  0
   -9.3007   -2.4022   -3.3297 H   0  0  0  0  0  0  0  0  0  0  0  0
   -9.8736   -3.4035   -1.9545 H   0  0  0  0  0  0  0  0  0  0  0  0
   -9.2030   -1.6087   -0.6733 H   0  0  0  0  0  0  0  0  0  0  0  0
   -8.0992   -0.9968   -1.9735 H   0  0  0  0  0  0  0  0  0  0  0  0
   -6.4887   -2.8943   -1.2709 H   0  0  0  0  0  0  0  0  0  0  0  0
   -7.5675   -1.1144    0.9246 H   0  0  0  0  0  0  0  0  0  0  0  0
   -6.0915    0.5806    0.2899 H   0  0  0  0  0  0  0  0  0  0  0  0
   -4.4471    1.5539   -1.2089 H   0  0  0  0  0  0  0  0  0  0  0  0
   -4.9394    1.4293   -4.1925 H   0  0  0  0  0  0  0  0  0  0  0  0
   -2.1903    2.5170   -4.7224 H   0  0  0  0  0  0  0  0  0  0  0  0
   -2.2124    0.7591   -5.1570 H   0  0  0  0  0  0  0  0  0  0  0  0
   -0.0553    1.8109   -4.3440 H   0  0  0  0  0  0  0  0  0  0  0  0
   -0.5452    0.3357   -3.3776 H   0  0  0  0  0  0  0  0  0  0  0  0
    0.1126    2.7683   -0.0287 H   0  0  0  0  0  0  0  0  0  0  0  0
    1.2514    2.7533   -1.4703 H   0  0  0  0  0  0  0  0  0  0  0  0
   -0.4074    0.3046   -0.7295 H   0  0  0  0  0  0  0  0  0  0  0  0
    1.2434    0.3887   -1.4945 H   0  0  0  0  0  0  0  0  0  0  0  0
    1.9301   -0.1866    0.7134 H   0  0  0  0  0  0  0  0  0  0  0  0
   -0.8661    0.7404    1.3157 H   0  0  0  0  0  0  0  0  0  0  0  0
   -1.2433    0.8763    4.2416 H   0  0  0  0  0  0  0  0  0  0  0  0
   -2.5702   -0.0557    2.4461 H   0  0  0  0  0  0  0  0  0  0  0  0
   -4.4655   -2.8660    3.2887 H   0  0  0  0  0  0  0  0  0  0  0  0
   -4.0299   -0.9872    1.0238 H   0  0  0  0  0  0  0  0  0  0  0  0
   -2.4453   -3.6575    1.1704 H   0  0  0  0  0  0  0  0  0  0  0  0
   -4.1184   -4.2898    1.3175 H   0  0  0  0  0  0  0  0  0  0  0  0
   -3.6144   -5.0897    3.6329 H   0  0  0  0  0  0  0  0  0  0  0  0
   -1.8394   -4.7322    3.3880 H   0  0  0  0  0  0  0  0  0  0  0  0
   -2.1402   -8.3163    2.5180 H   0  0  0  0  0  0  0  0  0  0  0  0
   -1.7080   -7.2934    3.9033 H   0  0  0  0  0  0  0  0  0  0  0  0
    0.2306   -0.1713    5.6288 H   0  0  0  0  0  0  0  0  0  0  0  0
    0.0267   -1.8194    4.9555 H   0  0  0  0  0  0  0  0  0  0  0  0
   -2.0981   -2.0952    7.8970 H   0  0  0  0  0  0  0  0  0  0  0  0
   -0.4090   -2.2587    7.4075 H   0  0  0  0  0  0  0  0  0  0  0  0
    4.0055    4.2666    0.0324 H   0  0  0  0  0  0  0  0  0  0  0  0
    2.6839    4.3130    1.1938 H   0  0  0  0  0  0  0  0  0  0  0  0
    3.2549    3.5671    3.6480 H   0  0  0  0  0  0  0  0  0  0  0  0
    5.1290    3.3912    5.3299 H   0  0  0  0  0  0  0  0  0  0  0  0
    7.4352    3.3624    4.5748 H   0  0  0  0  0  0  0  0  0  0  0  0
    7.9648    3.4962    2.1825 H   0  0  0  0  0  0  0  0  0  0  0  0
    6.1516    3.6653    0.5123 H   0  0  0  0  0  0  0  0  0  0  0  0
    3.3293    1.3266   -1.4170 H   0  0  0  0  0  0  0  0  0  0  0  0
    4.4637    2.6613   -1.1811 H   0  0  0  0  0  0  0  0  0  0  0  0
    5.6608    0.4745   -2.0064 H   0  0  0  0  0  0  0  0  0  0  0  0
    6.6568   -0.7877    0.5997 H   0  0  0  0  0  0  0  0  0  0  0  0
    7.4425    1.6910   -1.4838 H   0  0  0  0  0  0  0  0  0  0  0  0
   10.0500    1.9031   -0.3625 H   0  0  0  0  0  0  0  0  0  0  0  0
    9.4181    2.8474   -1.7909 H   0  0  0  0  0  0  0  0  0  0  0  0
    9.8000   -0.0062   -3.9524 H   0  0  0  0  0  0  0  0  0  0  0  0
   10.6273   -1.0073   -2.7030 H   0  0  0  0  0  0  0  0  0  0  0  0
    5.5536   -2.4202   -0.5195 H   0  0  0  0  0  0  0  0  0  0  0  0
    7.3245   -2.7622   -0.5819 H   0  0  0  0  0  0  0  0  0  0  0  0
    5.5218   -1.7982   -2.8596 H   0  0  0  0  0  0  0  0  0  0  0  0
    6.6612   -4.3826   -1.9158 H   0  0  0  0  0  0  0  0  0  0  0  0
    5.0806   -3.9962   -2.7095 H   0  0  0  0  0  0  0  0  0  0  0  0
    6.5845   -4.1296   -3.6990 H   0  0  0  0  0  0  0  0  0  0  0  0
    7.6763   -2.3340   -4.2448 H   0  0  0  0  0  0  0  0  0  0  0  0
    8.5493   -2.2419   -2.6873 H   0  0  0  0  0  0  0  0  0  0  0  0
    7.6543   -0.7897   -3.2484 H   0  0  0  0  0  0  0  0  0  0  0  0
   -7.2287    1.9728   -2.4400 H   0  0  0  0  0  0  0  0  0  0  0  0
   -6.6244    2.2755   -0.7851 H   0  0  0  0  0  0  0  0  0  0  0  0
   -5.2095    4.0684   -0.2630 H   0  0  0  0  0  0  0  0  0  0  0  0
   -4.4849    6.3165   -0.7548 H   0  0  0  0  0  0  0  0  0  0  0  0
   -4.7643    7.2176   -3.0579 H   0  0  0  0  0  0  0  0  0  0  0  0
   -5.7842    5.7928   -4.8061 H   0  0  0  0  0  0  0  0  0  0  0  0
   -6.5345    3.4567   -4.2711 H   0  0  0  0  0  0  0  0  0  0  0  0
   -8.6905   -4.0525   -0.3626 H   0  0  0  0  0  0  0  0  0  0  0  0
   -7.1138   -4.4148    0.3724 H   0  0  0  0  0  0  0  0  0  0  0  0
   -8.2586   -3.2676    1.1443 H   0  0  0  0  0  0  0  0  0  0  0  0
  1  2  1  0
  2  3  1  0
  3  4  1  0
  4  5  1  0
  5  6  1  0
  6  7  2  0
  6  8  1  0
  8  9  1  0
  9 10  1  0
 10 11  2  0
 10 12  1  0
 12 13  1  0
 13 14  1  0
 14 15  1  0
 15 16  1  0
 16 17  1  0
 17 18  1  0
 18 19  1  0
 19 20  2  0
 19 21  1  0
 21 22  1  0
 22 23  1  0
 23 24  2  0
 23 25  1  0
 25 26  1  0
 26 27  1  0
 27 28  2  0
 25 29  1  0
 29 30  1  0
 30 31  1  0
 31 32  2  0
 31 33  1  0
 21 34  1  0
 34 35  1  0
 35 36  2  0
 35 37  1  0
 17 38  1  0
 38 39  2  0
 38 40  1  0
 40 41  1  0
 41 42  1  0
 42 43  2  0
 43 44  1  0
 44 45  2  0
 45 46  1  0
 46 47  2  0
 40 48  1  0
 48 49  1  0
 49 50  2  0
 49 51  1  0
 51 52  1  0
 52 53  1  0
 53 54  2  0
 53 55  1  0
 55 56  1  0
 56 57  1  0
 57 58  2  0
 57 59  1  0
 52 60  1  0
 60 61  1  0
 61 62  1  0
 61 63  1  0
  8 64  1  0
 64 65  1  0
 65 66  2  0
 66 67  1  0
 67 68  2  0
 68 69  1  0
 69 70  2  0
  3 71  1  0
 27  4  1  0
 47 42  1  0
 70 65  1  0
  1 72  1  0
  1 73  1  0
  1 74  1  0
  2 75  1  0
  2 76  1  0
  3 77  1  6
  4 78  1  1
  5 79  1  0
  8 80  1  1
  9 81  1  0
 12 82  1  0
 12 83  1  0
 13 84  1  0
 13 85  1  0
 15 86  1  0
 15 87  1  0
 16 88  1  0
 16 89  1  0
 17 90  1  6
 18 91  1  0
 21 92  1  1
 22 93  1  0
 25 94  1  1
 26 95  1  0
 29 96  1  0
 29 97  1  0
 30 98  1  0
 30 99  1  0
 33100  1  0
 33101  1  0
 34102  1  0
 34103  1  0
 37104  1  0
 37105  1  0
 41106  1  0
 41107  1  0
 43108  1  0
 44109  1  0
 45110  1  0
 46111  1  0
 47112  1  0
 48113  1  0
 48114  1  0
 51115  1  0
 52116  1  1
 55117  1  0
 56118  1  0
 56119  1  0
 59120  1  0
 59121  1  0
 60122  1  0
 60123  1  0
 61124  1  0
 62125  1  0
 62126  1  0
 62127  1  0
 63128  1  0
 63129  1  0
 63130  1  0
 64131  1  0
 64132  1  0
 66133  1  0
 67134  1  0
 68135  1  0
 69136  1  0
 70137  1  0
 71138  1  0
 71139  1  0
 71140  1  0
M  END
>  <Ligand ID>  (1) 
LIG0001563

>  <Ligand>  (1) 
CHEMBL3354590

>  <SMILES>  (1) 
CC[C@@H]([C@@H]1NC(=O)[C@@H](NC(=O)CCSCC[C@H](NC(=O)[C@@H](NC(=O)[C@@H](NC1=O)CCC(=O)N)CC(=O)N)C(=O)N(Cc1ccccc1)CC(=O)N[C@H](C(=O)NCC(=O)N)CC(C)C)Cc1ccccc1)C

>  <CID>  (1) 
118720280.0

>  <ChEMBL ID>  (1) 
nan

>  <InChiKey>  (1) 
WSEXIWSMIGRXCV-MUXTUQPHSA-N

>  <InChi>  (1) 
InChI=1S/C48H69N11O11S/c1-5-29(4)42-47(69)55-32(16-17-37(49)60)44(66)57-36(24-38(50)61)45(67)56-33(18-20-71-21-19-40(63)53-35(46(68)58-42)23-30-12-8-6-9-13-30)48(70)59(26-31-14-10-7-11-15-31)27-41(64)54-34(22-28(2)3)43(65)52-25-39(51)62/h6-15,28-29,32-36,42H,5,16-27H2,1-4H3,(H2,49,60)(H2,50,61)(H2,51,62)(H,52,65)(H,53,63)(H,54,64)(H,55,69)(H,56,67)(H,57,66)(H,58,68)/t29-,32-,33-,34-,35-,36-,42-/m0/s1

>  <IUPAC Name>  (1) 
(4S,7S,10S,13S,16S)-7-(2-amino-2-oxoethyl)-N-[2-[[(2S)-1-[(2-amino-2-oxoethyl)amino]-4-methyl-1-oxopentan-2-yl]amino]-2-oxoethyl]-10-(3-amino-3-oxopropyl)-N,16-dibenzyl-13-[(2S)-butan-2-yl]-6,9,12,15,18-pentaoxo-1-thia-5,8,11,14,17-pentazacycloicosane-4-carboxamide

$$$$
