
     RDKit          3D

 30 33  0  0  0  0  0  0  0  0999 V2000
    5.3200   -0.6767    0.2717 C   0  0  0  0  0  0  0  0  0  0  0  0
    4.9847    0.4842    0.9209 C   0  0  0  0  0  0  0  0  0  0  0  0
    3.8697    1.1938    0.5336 C   0  0  0  0  0  0  0  0  0  0  0  0
    3.1106    0.7192   -0.5015 C   0  0  0  0  0  0  0  0  0  0  0  0
    3.4644   -0.4255   -1.1221 N   0  0  0  0  0  0  0  0  0  0  0  0
    4.5412   -1.1432   -0.7734 C   0  0  0  0  0  0  0  0  0  0  0  0
    1.9366    1.3610   -0.9981 N   0  0  0  0  0  0  0  0  0  0  0  0
    0.6875    0.9146   -0.5330 C   0  0  0  0  0  0  0  0  0  0  0  0
    0.4040    0.5180    1.2841 S   0  0  0  0  0  0  0  0  0  0  0  0
   -1.3538    0.0143    0.9573 C   0  0  0  0  0  0  0  0  0  0  0  0
   -1.4601    0.2107   -0.3982 C   0  0  0  0  0  0  0  0  0  0  0  0
   -0.3997    0.6483   -1.0019 N   0  0  0  0  0  0  0  0  0  0  0  0
   -2.8223   -0.0317   -0.9592 C   0  0  0  0  0  0  0  0  0  0  0  0
   -3.3200   -0.0320   -2.2572 C   0  0  0  0  0  0  0  0  0  0  0  0
   -4.5985   -0.3974   -2.1617 N   0  0  0  0  0  0  0  0  0  0  0  0
   -4.9217   -0.6229   -0.9062 N   0  0  0  0  0  0  0  0  0  0  0  0
   -3.8386   -0.4032   -0.1264 C   0  0  0  0  0  0  0  0  0  0  0  0
   -3.7427   -0.4674    1.3445 C   0  0  0  0  0  0  0  0  0  0  0  0
   -2.3452   -0.5183    1.8442 C   0  0  0  0  0  0  0  0  0  0  0  0
    6.1840   -1.2889    0.5256 H   0  0  0  0  0  0  0  0  0  0  0  0
    5.5806    0.8407    1.7425 H   0  0  0  0  0  0  0  0  0  0  0  0
    3.5493    2.1162    1.0023 H   0  0  0  0  0  0  0  0  0  0  0  0
    4.7882   -2.0624   -1.3079 H   0  0  0  0  0  0  0  0  0  0  0  0
    2.0002    2.1622   -1.6852 H   0  0  0  0  0  0  0  0  0  0  0  0
   -2.7396    0.2285   -3.1392 H   0  0  0  0  0  0  0  0  0  0  0  0
   -5.8763   -0.9182   -0.6169 H   0  0  0  0  0  0  0  0  0  0  0  0
   -4.2475    0.4910    1.6977 H   0  0  0  0  0  0  0  0  0  0  0  0
   -4.3463   -1.3173    1.7038 H   0  0  0  0  0  0  0  0  0  0  0  0
   -2.0986   -1.6036    2.0746 H   0  0  0  0  0  0  0  0  0  0  0  0
   -2.3103    0.0059    2.8139 H   0  0  0  0  0  0  0  0  0  0  0  0
  1  2  2  0
  2  3  1  0
  3  4  2  0
  4  5  1  0
  5  6  2  0
  4  7  1  0
  7  8  1  0
  8  9  1  0
  9 10  1  0
 10 11  2  0
 11 12  1  0
 11 13  1  0
 13 14  1  0
 14 15  2  0
 15 16  1  0
 16 17  1  0
 17 18  1  0
 18 19  1  0
  6  1  1  0
 12  8  2  0
 17 13  2  0
 19 10  1  0
  1 20  1  0
  2 21  1  0
  3 22  1  0
  6 23  1  0
  7 24  1  0
 14 25  1  0
 16 26  1  0
 18 27  1  0
 18 28  1  0
 19 29  1  0
 19 30  1  0
M  END
>  <Ligand ID>  (1) 
LIG0000669

>  <Ligand>  (1) 
CHEMBL1830698

>  <SMILES>  (1) 
c1ccc(nc1)Nc1sc2c(n1)c1cn[nH]c1CC2

>  <CID>  (1) 
46700737.0

>  <ChEMBL ID>  (1) 
nan

>  <InChiKey>  (1) 
MIOXQGMSPSEKCA-UHFFFAOYSA-N

>  <InChi>  (1) 
InChI=1S/C13H11N5S/c1-2-6-14-11(3-1)16-13-17-12-8-7-15-18-9(8)4-5-10(12)19-13/h1-3,6-7H,4-5H2,(H,15,18)(H,14,16,17)

>  <IUPAC Name>  (1) 
N-pyridin-2-yl-5,6-dihydro-4H-pyrazolo[4,3-e][1,3]benzothiazol-2-amine

$$$$
