
     RDKit          3D

 54 60  0  0  0  0  0  0  0  0999 V2000
   -4.3962   -2.9737    0.1910 C   0  0  0  0  0  0  0  0  0  0  0  0
   -3.9559   -1.6180    0.4652 N   0  0  0  0  0  0  0  0  0  0  0  0
   -3.4661   -1.5315    1.7888 C   0  0  0  0  0  0  0  0  0  0  0  0
   -2.2860   -0.6997    2.0424 C   0  0  0  0  0  0  0  0  0  0  0  0
   -1.3583   -0.4402    0.8952 C   0  0  0  0  0  0  0  0  0  0  0  0
   -1.6638   -1.3567   -0.2253 C   0  0  0  0  0  0  0  0  0  0  0  0
   -3.1161   -1.1221   -0.5821 C   0  0  0  0  0  0  0  0  0  0  0  0
   -3.4476    0.2535   -1.0400 C   0  0  0  0  0  0  0  0  0  0  0  0
   -2.5521    1.2918   -0.4962 C   0  0  0  0  0  0  0  0  0  0  0  0
   -1.5891    0.9440    0.3979 C   0  0  0  0  0  0  0  0  0  0  0  0
   -0.6983    1.8134    0.9692 C   0  0  0  0  0  0  0  0  0  0  0  0
    0.0930    1.0391    1.8076 O   0  0  0  0  0  0  0  0  0  0  0  0
    0.0566   -0.3242    1.3355 C   0  0  0  0  0  0  0  0  0  0  0  0
    1.0003   -0.3914    0.2045 C   0  0  0  0  0  0  0  0  0  0  0  0
    0.6195   -0.8111   -1.0416 C   0  0  0  0  0  0  0  0  0  0  0  0
   -0.7486   -1.2388   -1.4027 C   0  0  0  0  0  0  0  0  0  0  0  0
    1.5785   -0.8388   -2.0359 C   0  0  0  0  0  0  0  0  0  0  0  0
    2.8535   -0.4625   -1.7843 N   0  0  0  0  0  0  0  0  0  0  0  0
    3.2224   -0.0508   -0.5577 C   0  0  0  0  0  0  0  0  0  0  0  0
    2.2769   -0.0255    0.4154 N   0  0  0  0  0  0  0  0  0  0  0  0
    4.5996    0.3532   -0.2948 C   0  0  0  0  0  0  0  0  0  0  0  0
    4.9457    0.7704    0.9738 C   0  0  0  0  0  0  0  0  0  0  0  0
    6.2553    1.1566    1.2315 C   0  0  0  0  0  0  0  0  0  0  0  0
    7.1520    1.1005    0.1867 C   0  0  0  0  0  0  0  0  0  0  0  0
    6.7873    0.6772   -1.0880 C   0  0  0  0  0  0  0  0  0  0  0  0
    5.4926    0.2967   -1.3376 C   0  0  0  0  0  0  0  0  0  0  0  0
   -0.7858    3.1395    0.6105 C   0  0  0  0  0  0  0  0  0  0  0  0
   -1.7532    3.5277   -0.2958 C   0  0  0  0  0  0  0  0  0  0  0  0
   -2.6482    2.6156   -0.8618 C   0  0  0  0  0  0  0  0  0  0  0  0
    0.1124    4.0310    1.1836 O   0  0  0  0  0  0  0  0  0  0  0  0
   -1.5989   -2.6753    0.2528 O   0  0  0  0  0  0  0  0  0  0  0  0
   -3.9572   -3.3127   -0.7850 H   0  0  0  0  0  0  0  0  0  0  0  0
   -5.4834   -3.1100    0.2193 H   0  0  0  0  0  0  0  0  0  0  0  0
   -3.9141   -3.6605    0.9411 H   0  0  0  0  0  0  0  0  0  0  0  0
   -3.2925   -2.5502    2.1982 H   0  0  0  0  0  0  0  0  0  0  0  0
   -4.3239   -1.1486    2.4163 H   0  0  0  0  0  0  0  0  0  0  0  0
   -2.5782    0.2771    2.4881 H   0  0  0  0  0  0  0  0  0  0  0  0
   -1.6388   -1.1613    2.8466 H   0  0  0  0  0  0  0  0  0  0  0  0
   -3.2938   -1.7889   -1.4783 H   0  0  0  0  0  0  0  0  0  0  0  0
   -3.5025    0.3525   -2.1518 H   0  0  0  0  0  0  0  0  0  0  0  0
   -4.4778    0.4876   -0.6723 H   0  0  0  0  0  0  0  0  0  0  0  0
    0.3303   -1.0182    2.1564 H   0  0  0  0  0  0  0  0  0  0  0  0
   -0.6643   -2.2077   -1.9363 H   0  0  0  0  0  0  0  0  0  0  0  0
   -1.1906   -0.5174   -2.1461 H   0  0  0  0  0  0  0  0  0  0  0  0
    1.3036   -1.1694   -3.0408 H   0  0  0  0  0  0  0  0  0  0  0  0
    4.2267    0.8041    1.7687 H   0  0  0  0  0  0  0  0  0  0  0  0
    6.5771    1.4892    2.2007 H   0  0  0  0  0  0  0  0  0  0  0  0
    8.1732    1.3992    0.3784 H   0  0  0  0  0  0  0  0  0  0  0  0
    7.5755    0.6740   -1.8307 H   0  0  0  0  0  0  0  0  0  0  0  0
    5.2229   -0.0254   -2.3150 H   0  0  0  0  0  0  0  0  0  0  0  0
   -1.8154    4.5723   -0.5726 H   0  0  0  0  0  0  0  0  0  0  0  0
   -3.4094    2.9397   -1.5791 H   0  0  0  0  0  0  0  0  0  0  0  0
   -0.0193    5.0294    1.0761 H   0  0  0  0  0  0  0  0  0  0  0  0
   -0.8293   -2.8050    0.8598 H   0  0  0  0  0  0  0  0  0  0  0  0
  1  2  1  0
  2  3  1  0
  3  4  1  0
  4  5  1  0
  5  6  1  0
  6  7  1  0
  7  8  1  0
  8  9  1  0
  9 10  2  0
 10 11  1  0
 11 12  1  0
 12 13  1  0
 13 14  1  0
 14 15  2  0
 15 16  1  0
 15 17  1  0
 17 18  2  0
 18 19  1  0
 19 20  2  0
 19 21  1  0
 21 22  2  0
 22 23  1  0
 23 24  2  0
 24 25  1  0
 25 26  2  0
 11 27  2  0
 27 28  1  0
 28 29  2  0
 27 30  1  0
  6 31  1  0
  7  2  1  0
 29  9  1  0
 13  5  1  0
 20 14  1  0
 26 21  1  0
 10  5  1  0
 16  6  1  0
  1 32  1  0
  1 33  1  0
  1 34  1  0
  3 35  1  0
  3 36  1  0
  4 37  1  0
  4 38  1  0
  7 39  1  0
  8 40  1  0
  8 41  1  0
 13 42  1  0
 16 43  1  0
 16 44  1  0
 17 45  1  0
 22 46  1  0
 23 47  1  0
 24 48  1  0
 25 49  1  0
 26 50  1  0
 28 51  1  0
 29 52  1  0
 30 53  1  0
 31 54  1  0
M  END
>  <Ligand ID>  (1) 
LIG0004629

>  <Ligand>  (1) 
CHEMBL112656

>  <SMILES>  (1) 
CN1CCC23C4(C1Cc1c3c(OC2c2c(C4)cnc(n2)c2ccccc2)c(cc1)O)O

>  <CID>  (1) 
10387038.0

>  <ChEMBL ID>  (1) 
nan

>  <InChiKey>  (1) 
XUUWKSLSKQMXRE-UHFFFAOYSA-N

>  <InChi>  (1) 
InChI=1S/C25H23N3O3/c1-28-10-9-24-19-15-7-8-17(29)21(19)31-22(24)20-16(12-25(24,30)18(28)11-15)13-26-23(27-20)14-5-3-2-4-6-14/h2-8,13,18,22,29-30H,9-12H2,1H3

>  <IUPAC Name>  (1) 
19-methyl-7-phenyl-11-oxa-6,8,19-triazahexacyclo[10.9.1.01,10.02,18.04,9.016,22]docosa-4,6,8,12,14,16(22)-hexaene-2,13-diol

$$$$
