
     RDKit          3D

 67 71  0  0  0  0  0  0  0  0999 V2000
   -7.5996   -1.1925    1.9675 O   0  0  0  0  0  0  0  0  0  0  0  0
   -6.7428   -0.8681    0.8664 C   0  0  2  0  0  0  0  0  0  0  0  0
   -6.5222   -2.1951    0.2225 C   0  0  0  0  0  0  0  0  0  0  0  0
   -5.3100   -2.6927   -0.1598 C   0  0  0  0  0  0  0  0  0  0  0  0
   -5.2696   -3.9398   -0.7387 C   0  0  0  0  0  0  0  0  0  0  0  0
   -6.4349   -4.6597   -0.9210 C   0  0  0  0  0  0  0  0  0  0  0  0
   -7.6450   -4.1806   -0.5492 N   0  0  0  0  0  0  0  0  0  0  0  0
   -7.6764   -2.9598    0.0158 C   0  0  0  0  0  0  0  0  0  0  0  0
   -5.5217   -0.2280    1.4097 C   0  0  0  0  0  0  0  0  0  0  0  0
   -4.6255    0.1922    0.3368 N   0  0  0  0  0  0  0  0  0  0  0  0
   -5.2029    1.2600   -0.4181 C   0  0  0  0  0  0  0  0  0  0  0  0
   -4.2009    1.8169   -1.3979 C   0  0  0  0  0  0  0  0  0  0  0  0
   -3.0318    2.3199   -0.6076 C   0  0  0  0  0  0  0  0  0  0  0  0
   -1.8517    1.6678   -0.4720 C   0  0  0  0  0  0  0  0  0  0  0  0
   -0.8356    2.1973    0.3381 C   0  0  0  0  0  0  0  0  0  0  0  0
   -0.9814    3.3680    1.0180 C   0  0  0  0  0  0  0  0  0  0  0  0
   -2.2315    4.0089    0.8402 C   0  0  0  0  0  0  0  0  0  0  0  0
   -3.2179    3.5078    0.0599 C   0  0  0  0  0  0  0  0  0  0  0  0
   -0.1010    3.9905    1.8946 N   0  0  0  0  0  0  0  0  0  0  0  0
    0.9894    3.3433    3.0066 S   0  0  0  0  0  0  0  0  0  0  0  0
    0.3084    2.5388    4.0931 O   0  0  0  0  0  0  0  0  0  0  0  0
    1.6597    4.4824    3.7726 O   0  0  0  0  0  0  0  0  0  0  0  0
    2.2333    2.4291    2.2330 C   0  0  0  0  0  0  0  0  0  0  0  0
    3.3832    3.1483    1.8639 C   0  0  0  0  0  0  0  0  0  0  0  0
    4.4625    2.5679    1.2534 C   0  0  0  0  0  0  0  0  0  0  0  0
    4.4581    1.2242    0.9723 C   0  0  0  0  0  0  0  0  0  0  0  0
    3.3335    0.5193    1.3335 C   0  0  0  0  0  0  0  0  0  0  0  0
    2.2397    1.1050    1.9516 C   0  0  0  0  0  0  0  0  0  0  0  0
    5.5967    0.5449    0.3321 C   0  0  0  0  0  0  0  0  0  0  0  0
    7.1430    1.6576    0.1584 S   0  0  0  0  0  0  0  0  0  0  0  0
    8.0363    0.2874   -0.6671 C   0  0  0  0  0  0  0  0  0  0  0  0
    7.1180   -0.7527   -0.7010 C   0  0  0  0  0  0  0  0  0  0  0  0
    5.9634   -0.4429   -0.1607 N   0  0  0  0  0  0  0  0  0  0  0  0
    7.4876   -2.0384   -1.3384 C   0  0  0  0  0  0  0  0  0  0  0  0
    8.7441   -2.2309   -1.8570 C   0  0  0  0  0  0  0  0  0  0  0  0
    9.1494   -3.3977   -2.4852 C   0  0  0  0  0  0  0  0  0  0  0  0
    8.2157   -4.4132   -2.5839 C   0  0  0  0  0  0  0  0  0  0  0  0
    6.9557   -4.2458   -2.0753 C   0  0  0  0  0  0  0  0  0  0  0  0
    6.5721   -3.0688   -1.4498 C   0  0  0  0  0  0  0  0  0  0  0  0
    6.0793   -5.2680   -2.2072 F   0  0  0  0  0  0  0  0  0  0  0  0
    8.6145   -5.5576   -3.1999 F   0  0  0  0  0  0  0  0  0  0  0  0
   -7.3618   -2.0807    2.3086 H   0  0  0  0  0  0  0  0  0  0  0  0
   -7.3206   -0.2530    0.1867 H   0  0  0  0  0  0  0  0  0  0  0  0
   -4.4191   -2.1168   -0.0035 H   0  0  0  0  0  0  0  0  0  0  0  0
   -4.3455   -4.3803   -1.0484 H   0  0  0  0  0  0  0  0  0  0  0  0
   -6.4533   -5.6475   -1.3717 H   0  0  0  0  0  0  0  0  0  0  0  0
   -8.6515   -2.5934    0.3153 H   0  0  0  0  0  0  0  0  0  0  0  0
   -4.9358   -0.8595    2.0838 H   0  0  0  0  0  0  0  0  0  0  0  0
   -5.7972    0.6850    1.9976 H   0  0  0  0  0  0  0  0  0  0  0  0
   -3.6956    0.3780    0.7299 H   0  0  0  0  0  0  0  0  0  0  0  0
   -6.0643    0.7933   -0.9894 H   0  0  0  0  0  0  0  0  0  0  0  0
   -5.5684    2.1046    0.1952 H   0  0  0  0  0  0  0  0  0  0  0  0
   -3.8833    1.0605   -2.1503 H   0  0  0  0  0  0  0  0  0  0  0  0
   -4.6362    2.6742   -1.9462 H   0  0  0  0  0  0  0  0  0  0  0  0
   -1.7017    0.7388   -0.9942 H   0  0  0  0  0  0  0  0  0  0  0  0
    0.0671    1.6332    0.3862 H   0  0  0  0  0  0  0  0  0  0  0  0
   -2.4260    4.9582    1.3550 H   0  0  0  0  0  0  0  0  0  0  0  0
   -4.1479    4.0436   -0.0381 H   0  0  0  0  0  0  0  0  0  0  0  0
   -0.1220    5.0816    1.8422 H   0  0  0  0  0  0  0  0  0  0  0  0
    3.4342    4.2276    2.0656 H   0  0  0  0  0  0  0  0  0  0  0  0
    5.3039    3.2207    1.0038 H   0  0  0  0  0  0  0  0  0  0  0  0
    3.3438   -0.5424    1.1054 H   0  0  0  0  0  0  0  0  0  0  0  0
    1.3580    0.5295    2.2261 H   0  0  0  0  0  0  0  0  0  0  0  0
    9.0870    0.3717   -1.0244 H   0  0  0  0  0  0  0  0  0  0  0  0
    9.4697   -1.4585   -1.7908 H   0  0  0  0  0  0  0  0  0  0  0  0
   10.1597   -3.4830   -2.8733 H   0  0  0  0  0  0  0  0  0  0  0  0
    5.5654   -2.9305   -1.0415 H   0  0  0  0  0  0  0  0  0  0  0  0
  1  2  1  0
  2  3  1  0
  3  4  2  0
  4  5  1  0
  5  6  2  0
  6  7  1  0
  7  8  2  0
  2  9  1  0
  9 10  1  0
 10 11  1  0
 11 12  1  0
 12 13  1  0
 13 14  2  0
 14 15  1  0
 15 16  2  0
 16 17  1  0
 17 18  2  0
 16 19  1  0
 19 20  1  0
 20 21  2  0
 20 22  2  0
 20 23  1  0
 23 24  2  0
 24 25  1  0
 25 26  2  0
 26 27  1  0
 27 28  2  0
 26 29  1  0
 29 30  1  0
 30 31  1  0
 31 32  2  0
 32 33  1  0
 32 34  1  0
 34 35  2  0
 35 36  1  0
 36 37  2  0
 37 38  1  0
 38 39  2  0
 38 40  1  0
 37 41  1  0
  8  3  1  0
 18 13  1  0
 28 23  1  0
 33 29  2  0
 39 34  1  0
  1 42  1  0
  2 43  1  6
  4 44  1  0
  5 45  1  0
  6 46  1  0
  8 47  1  0
  9 48  1  0
  9 49  1  0
 10 50  1  0
 11 51  1  0
 11 52  1  0
 12 53  1  0
 12 54  1  0
 14 55  1  0
 15 56  1  0
 17 57  1  0
 18 58  1  0
 19 59  1  0
 24 60  1  0
 25 61  1  0
 27 62  1  0
 28 63  1  0
 31 64  1  0
 35 65  1  0
 36 66  1  0
 39 67  1  0
M  END
>  <Ligand ID>  (1) 
LIG0002566

>  <Ligand>  (1) 
CHEMBL293994

>  <SMILES>  (1) 
O[C@H](c1cccnc1)CNCCc1ccc(cc1)NS(=O)(=O)c1ccc(cc1)c1scc(n1)c1ccc(c(c1)F)F

>  <CID>  (1) 
11758172.0

>  <ChEMBL ID>  (1) 
nan

>  <InChiKey>  (1) 
PSNUXVHTFCBHQG-LJAQVGFWSA-N

>  <InChi>  (1) 
InChI=1S/C30H26F2N4O3S2/c31-26-12-7-22(16-27(26)32)28-19-40-30(35-28)21-5-10-25(11-6-21)41(38,39)36-24-8-3-20(4-9-24)13-15-34-18-29(37)23-2-1-14-33-17-23/h1-12,14,16-17,19,29,34,36-37H,13,15,18H2/t29-/m0/s1

>  <IUPAC Name>  (1) 
4-[4-(3,4-difluorophenyl)-1,3-thiazol-2-yl]-N-[4-[2-[[(2R)-2-hydroxy-2-pyridin-3-ylethyl]amino]ethyl]phenyl]benzenesulfonamide

$$$$
