
     RDKit          3D

183189  0  0  0  0  0  0  0  0999 V2000
    2.0751    8.0667   -4.9683 N   0  0  0  0  0  0  0  0  0  0  0  0
    2.2387    7.0197   -4.0350 N   0  0  0  0  0  0  0  0  0  0  0  0
    3.0864    5.9791   -4.4999 C   0  0  2  0  0  0  0  0  0  0  0  0
    3.2841    4.8734   -3.4369 C   0  0  0  0  0  0  0  0  0  0  0  0
    4.1942    4.0805   -3.7119 O   0  0  0  0  0  0  0  0  0  0  0  0
    2.4637    4.8437   -2.2847 N   0  0  0  0  0  0  0  0  0  0  0  0
    2.5599    3.9189   -1.1688 C   0  0  2  0  0  0  0  0  0  0  0  0
    2.8071    2.5152   -1.7545 C   0  0  0  0  0  0  0  0  0  0  0  0
    3.3839    1.6399   -0.6442 C   0  0  0  0  0  0  0  0  0  0  0  0
    3.6528    1.9986    0.4749 O   0  0  0  0  0  0  0  0  0  0  0  0
    3.6419    0.2428   -0.9538 N   0  0  0  0  0  0  0  0  0  0  0  0
    4.3591   -0.6576   -0.1037 C   0  0  0  0  0  0  0  0  0  0  0  0
    3.6369   -1.5589    0.7363 N   0  0  0  0  0  0  0  0  0  0  0  0
    3.0175   -2.7617    0.2037 C   0  0  0  0  0  0  0  0  0  0  0  0
    3.0418   -2.7907   -1.0363 O   0  0  0  0  0  0  0  0  0  0  0  0
    2.4356   -3.7789    1.0589 C   0  0  0  0  0  0  0  0  0  0  0  0
    2.6679   -3.7319    2.3108 O   0  0  0  0  0  0  0  0  0  0  0  0
    1.5703   -4.8866    0.4793 C   0  0  2  0  0  0  0  0  0  0  0  0
    2.4586   -6.0469    0.1916 C   0  0  0  0  0  0  0  0  0  0  0  0
    1.8062   -7.2311   -0.3777 C   0  0  0  0  0  0  0  0  0  0  0  0
    1.2934   -8.1988    0.4444 C   0  0  0  0  0  0  0  0  0  0  0  0
    0.6726   -9.2921   -0.1522 C   0  0  0  0  0  0  0  0  0  0  0  0
    0.5548   -9.4422   -1.5136 C   0  0  0  0  0  0  0  0  0  0  0  0
    1.0728   -8.4699   -2.3274 C   0  0  0  0  0  0  0  0  0  0  0  0
    1.6871   -7.3850   -1.7395 C   0  0  0  0  0  0  0  0  0  0  0  0
    1.0127   -4.4262   -0.7882 N   0  0  0  0  0  0  0  0  0  0  0  0
   -0.3851   -4.1376   -0.7804 C   0  0  0  0  0  0  0  0  0  0  0  0
   -0.9918   -4.4066    0.2605 O   0  0  0  0  0  0  0  0  0  0  0  0
   -1.1356   -3.5529   -1.9151 C   0  0  1  0  0  0  0  0  0  0  0  0
   -0.8286   -4.0878   -3.2553 C   0  0  0  0  0  0  0  0  0  0  0  0
   -2.5583   -3.4351   -1.5969 N   0  0  0  0  0  0  0  0  0  0  0  0
   -3.3614   -4.6187   -1.2985 C   0  0  0  0  0  0  0  0  0  0  0  0
   -2.6824   -5.6613   -1.4045 O   0  0  0  0  0  0  0  0  0  0  0  0
   -4.7825   -4.5230   -0.9371 C   0  0  1  0  0  0  0  0  0  0  0  0
   -5.0723   -3.1785   -0.5498 N   0  0  0  0  0  0  0  0  0  0  0  0
   -6.3092   -2.4662   -0.5968 C   0  0  0  0  0  0  0  0  0  0  0  0
   -7.2302   -3.0331   -1.1796 O   0  0  0  0  0  0  0  0  0  0  0  0
   -6.5060   -1.1396   -0.0138 C   0  0  2  0  0  0  0  0  0  0  0  0
   -5.3018   -0.8369    0.7918 N   0  0  0  0  0  0  0  0  0  0  0  0
   -4.5659    0.3935    0.6135 C   0  0  0  0  0  0  0  0  0  0  0  0
   -4.9499    1.0852   -0.3271 O   0  0  0  0  0  0  0  0  0  0  0  0
   -3.4332    0.7328    1.5406 C   0  0  1  0  0  0  0  0  0  0  0  0
   -2.7901    1.9783    1.2224 N   0  0  0  0  0  0  0  0  0  0  0  0
   -1.3596    2.1299    1.0618 C   0  0  0  0  0  0  0  0  0  0  0  0
   -0.7451    1.0541    1.1702 O   0  0  0  0  0  0  0  0  0  0  0  0
   -0.7585    3.4458    0.7921 C   0  0  2  0  0  0  0  0  0  0  0  0
    0.6411    3.3438    0.4988 N   0  0  0  0  0  0  0  0  0  0  0  0
    1.1770    3.9584   -0.6246 C   0  0  0  0  0  0  0  0  0  0  0  0
    0.3679    4.6680   -1.2893 O   0  0  0  0  0  0  0  0  0  0  0  0
   -1.1638    4.4718    1.7725 C   0  0  0  0  0  0  0  0  0  0  0  0
   -0.8623    4.3005    3.1800 C   0  0  0  0  0  0  0  0  0  0  0  0
    0.2993    4.7709    3.7372 C   0  0  0  0  0  0  0  0  0  0  0  0
    0.5351    4.6253    5.1089 C   0  0  0  0  0  0  0  0  0  0  0  0
   -0.3758    4.0136    5.9395 C   0  0  0  0  0  0  0  0  0  0  0  0
   -1.5561    3.5313    5.3930 C   0  0  0  0  0  0  0  0  0  0  0  0
   -1.7609    3.6857    4.0489 C   0  0  0  0  0  0  0  0  0  0  0  0
   -4.1689    0.8803    2.9021 C   0  0  0  0  0  0  0  0  0  0  0  0
   -5.1966    1.9643    2.8013 C   0  0  0  0  0  0  0  0  0  0  0  0
   -5.8914    2.1000    4.1333 C   0  0  0  0  0  0  0  0  0  0  0  0
   -6.8876    3.1264    4.0427 N   0  0  0  0  0  0  0  0  0  0  0  0
   -6.6253    4.5106    3.8861 C   0  0  0  0  0  0  0  0  0  0  0  0
   -5.4636    4.9965    4.0189 N   0  0  0  0  0  0  0  0  0  0  0  0
   -7.6826    5.4513    3.5756 N   0  0  0  0  0  0  0  0  0  0  0  0
   -7.7096   -1.0501    0.8621 C   0  0  0  0  0  0  0  0  0  0  0  0
   -9.0237   -1.3263    0.3257 C   0  0  0  0  0  0  0  0  0  0  0  0
   -9.8192   -0.3228   -0.2785 C   0  0  0  0  0  0  0  0  0  0  0  0
  -10.9519   -0.9088   -0.7277 N   0  0  0  0  0  0  0  0  0  0  0  0
  -10.9654   -2.2193   -0.4626 C   0  0  0  0  0  0  0  0  0  0  0  0
   -9.7722   -2.4921    0.1907 C   0  0  0  0  0  0  0  0  0  0  0  0
   -9.5514   -3.7828    0.6052 C   0  0  0  0  0  0  0  0  0  0  0  0
  -10.4345   -4.8043    0.4081 C   0  0  0  0  0  0  0  0  0  0  0  0
  -11.6166   -4.5404   -0.2411 C   0  0  0  0  0  0  0  0  0  0  0  0
  -11.8725   -3.2626   -0.6681 C   0  0  0  0  0  0  0  0  0  0  0  0
   -5.6376   -5.0449   -2.1100 C   0  0  0  0  0  0  0  0  0  0  0  0
   -5.2904   -6.4637   -2.3235 C   0  0  0  0  0  0  0  0  0  0  0  0
   -4.5885   -7.2026   -1.6252 O   0  0  0  0  0  0  0  0  0  0  0  0
   -5.8409   -7.0923   -3.5204 N   0  0  0  0  0  0  0  0  0  0  0  0
    5.5611   -0.0726    0.5539 C   0  0  0  0  0  0  0  0  0  0  0  0
    6.0218    1.0635    0.3135 O   0  0  0  0  0  0  0  0  0  0  0  0
    6.2647   -0.8390    1.5429 N   0  0  0  0  0  0  0  0  0  0  0  0
    7.4098   -0.2642    2.1537 N   0  0  0  0  0  0  0  0  0  0  0  0
    8.6136   -0.6077    1.4205 C   0  0  1  0  0  0  0  0  0  0  0  0
    9.7863    0.1672    1.9516 C   0  0  0  0  0  0  0  0  0  0  0  0
    9.6746    0.9385    2.9554 O   0  0  0  0  0  0  0  0  0  0  0  0
   11.0673   -0.0031    1.2638 C   0  0  0  0  0  0  0  0  0  0  0  0
   11.2546   -0.7278    0.2878 O   0  0  0  0  0  0  0  0  0  0  0  0
   12.1757    0.7147    1.7573 O   0  0  0  0  0  0  0  0  0  0  0  0
    8.8825   -2.0963    1.6533 C   0  0  0  0  0  0  0  0  0  0  0  0
    9.1015   -2.3546    3.0952 C   0  0  0  0  0  0  0  0  0  0  0  0
   10.3969   -2.3885    3.6370 C   0  0  0  0  0  0  0  0  0  0  0  0
   10.5603   -2.6218    4.9609 C   0  0  0  0  0  0  0  0  0  0  0  0
    9.5129   -2.8373    5.8516 C   0  0  0  0  0  0  0  0  0  0  0  0
    8.2488   -2.8066    5.3346 C   0  0  0  0  0  0  0  0  0  0  0  0
    8.0699   -2.5702    3.9947 C   0  0  0  0  0  0  0  0  0  0  0  0
    9.7898   -3.0669    7.2186 O   0  0  0  0  0  0  0  0  0  0  0  0
    4.4659    6.3455   -4.9249 C   0  0  0  0  0  0  0  0  0  0  0  0
    4.4525    7.3293   -6.0106 C   0  0  0  0  0  0  0  0  0  0  0  0
    4.6606    8.6503   -5.6909 C   0  0  0  0  0  0  0  0  0  0  0  0
    4.6495    9.6279   -6.6553 C   0  0  0  0  0  0  0  0  0  0  0  0
    4.4257    9.2643   -7.9643 C   0  0  0  0  0  0  0  0  0  0  0  0
    4.2088    7.9262   -8.3355 C   0  0  0  0  0  0  0  0  0  0  0  0
    4.2279    6.9645   -7.3187 C   0  0  0  0  0  0  0  0  0  0  0  0
    4.4113   10.2403   -8.9704 O   0  0  0  0  0  0  0  0  0  0  0  0
    1.1793    7.9351   -5.4681 H   0  0  0  0  0  0  0  0  0  0  0  0
    2.0582    8.9585   -4.4624 H   0  0  0  0  0  0  0  0  0  0  0  0
    1.2859    6.6825   -3.7383 H   0  0  0  0  0  0  0  0  0  0  0  0
    2.5819    5.4615   -5.3509 H   0  0  0  0  0  0  0  0  0  0  0  0
    1.7087    5.6059   -2.2384 H   0  0  0  0  0  0  0  0  0  0  0  0
    3.3820    4.1448   -0.4905 H   0  0  0  0  0  0  0  0  0  0  0  0
    3.5864    2.4758   -2.5183 H   0  0  0  0  0  0  0  0  0  0  0  0
    1.8696    2.0691   -2.1148 H   0  0  0  0  0  0  0  0  0  0  0  0
    3.2319   -0.0431   -1.8585 H   0  0  0  0  0  0  0  0  0  0  0  0
    4.9007   -1.3144   -0.9331 H   0  0  0  0  0  0  0  0  0  0  0  0
    3.4870   -1.4506    1.7478 H   0  0  0  0  0  0  0  0  0  0  0  0
    0.8206   -5.1487    1.2241 H   0  0  0  0  0  0  0  0  0  0  0  0
    3.1967   -5.6804   -0.5995 H   0  0  0  0  0  0  0  0  0  0  0  0
    3.0568   -6.3705    1.0584 H   0  0  0  0  0  0  0  0  0  0  0  0
    1.3272   -8.1824    1.5122 H   0  0  0  0  0  0  0  0  0  0  0  0
    0.2419  -10.0910    0.4639 H   0  0  0  0  0  0  0  0  0  0  0  0
    0.0505  -10.3225   -1.9221 H   0  0  0  0  0  0  0  0  0  0  0  0
    1.0170   -8.5209   -3.4244 H   0  0  0  0  0  0  0  0  0  0  0  0
    2.1044   -6.6056   -2.3638 H   0  0  0  0  0  0  0  0  0  0  0  0
    1.4802   -4.2965   -1.6664 H   0  0  0  0  0  0  0  0  0  0  0  0
   -0.7740   -2.4672   -1.9175 H   0  0  0  0  0  0  0  0  0  0  0  0
    0.0549   -3.5542   -3.6727 H   0  0  0  0  0  0  0  0  0  0  0  0
   -1.6786   -3.8189   -3.9246 H   0  0  0  0  0  0  0  0  0  0  0  0
   -0.5946   -5.1739   -3.2649 H   0  0  0  0  0  0  0  0  0  0  0  0
   -3.0743   -2.5652   -1.5735 H   0  0  0  0  0  0  0  0  0  0  0  0
   -5.1306   -5.1802   -0.0897 H   0  0  0  0  0  0  0  0  0  0  0  0
   -4.3004   -2.6144   -0.1392 H   0  0  0  0  0  0  0  0  0  0  0  0
   -6.6185   -0.3404   -0.7881 H   0  0  0  0  0  0  0  0  0  0  0  0
   -4.9201   -1.4606    1.4973 H   0  0  0  0  0  0  0  0  0  0  0  0
   -2.7816   -0.1373    1.6725 H   0  0  0  0  0  0  0  0  0  0  0  0
   -3.3237    2.8314    1.0870 H   0  0  0  0  0  0  0  0  0  0  0  0
   -1.2319    3.7841   -0.1878 H   0  0  0  0  0  0  0  0  0  0  0  0
    1.2465    2.8241    1.1271 H   0  0  0  0  0  0  0  0  0  0  0  0
   -2.3053    4.4787    1.7065 H   0  0  0  0  0  0  0  0  0  0  0  0
   -0.9406    5.5084    1.3903 H   0  0  0  0  0  0  0  0  0  0  0  0
    1.0443    5.2502    3.1281 H   0  0  0  0  0  0  0  0  0  0  0  0
    1.4442    4.9840    5.5777 H   0  0  0  0  0  0  0  0  0  0  0  0
   -0.2606    3.8712    7.0002 H   0  0  0  0  0  0  0  0  0  0  0  0
   -2.2985    3.0437    5.9994 H   0  0  0  0  0  0  0  0  0  0  0  0
   -2.6754    3.3134    3.6138 H   0  0  0  0  0  0  0  0  0  0  0  0
   -3.4685    1.0258    3.7022 H   0  0  0  0  0  0  0  0  0  0  0  0
   -4.6847   -0.0935    3.0157 H   0  0  0  0  0  0  0  0  0  0  0  0
   -5.9774    1.7559    2.0376 H   0  0  0  0  0  0  0  0  0  0  0  0
   -4.7622    2.9495    2.5288 H   0  0  0  0  0  0  0  0  0  0  0  0
   -6.3035    1.1455    4.5012 H   0  0  0  0  0  0  0  0  0  0  0  0
   -5.1218    2.4014    4.8938 H   0  0  0  0  0  0  0  0  0  0  0  0
   -7.8909    2.8063    4.1080 H   0  0  0  0  0  0  0  0  0  0  0  0
   -4.5683    4.5896    4.2356 H   0  0  0  0  0  0  0  0  0  0  0  0
   -7.4424    6.3473    3.0761 H   0  0  0  0  0  0  0  0  0  0  0  0
   -8.6632    5.2730    3.8353 H   0  0  0  0  0  0  0  0  0  0  0  0
   -7.5288   -1.8081    1.6913 H   0  0  0  0  0  0  0  0  0  0  0  0
   -7.6955   -0.0720    1.4542 H   0  0  0  0  0  0  0  0  0  0  0  0
   -9.5336    0.7462   -0.3519 H   0  0  0  0  0  0  0  0  0  0  0  0
  -11.7560   -0.4323   -1.2156 H   0  0  0  0  0  0  0  0  0  0  0  0
   -8.5967   -3.9653    1.1247 H   0  0  0  0  0  0  0  0  0  0  0  0
  -10.2566   -5.8233    0.7461 H   0  0  0  0  0  0  0  0  0  0  0  0
  -12.3523   -5.3030   -0.4330 H   0  0  0  0  0  0  0  0  0  0  0  0
  -12.7741   -2.9804   -1.1887 H   0  0  0  0  0  0  0  0  0  0  0  0
   -5.5523   -4.4078   -2.9964 H   0  0  0  0  0  0  0  0  0  0  0  0
   -6.7113   -5.0250   -1.7757 H   0  0  0  0  0  0  0  0  0  0  0  0
   -5.1191   -7.4089   -4.1967 H   0  0  0  0  0  0  0  0  0  0  0  0
   -6.8703   -7.1975   -3.6340 H   0  0  0  0  0  0  0  0  0  0  0  0
    5.8999   -1.7759    1.7676 H   0  0  0  0  0  0  0  0  0  0  0  0
    7.2950    0.7480    2.2910 H   0  0  0  0  0  0  0  0  0  0  0  0
    8.5022   -0.3759    0.3670 H   0  0  0  0  0  0  0  0  0  0  0  0
   13.1243    0.4075    1.5259 H   0  0  0  0  0  0  0  0  0  0  0  0
    7.9988   -2.6965    1.3357 H   0  0  0  0  0  0  0  0  0  0  0  0
    9.7385   -2.4243    1.0611 H   0  0  0  0  0  0  0  0  0  0  0  0
   11.2727   -2.2354    3.0265 H   0  0  0  0  0  0  0  0  0  0  0  0
   11.5536   -2.6552    5.4015 H   0  0  0  0  0  0  0  0  0  0  0  0
    7.4248   -2.9725    6.0175 H   0  0  0  0  0  0  0  0  0  0  0  0
    7.0466   -2.5606    3.6476 H   0  0  0  0  0  0  0  0  0  0  0  0
    9.7523   -2.2534    7.8407 H   0  0  0  0  0  0  0  0  0  0  0  0
    4.9307    5.3793   -5.2937 H   0  0  0  0  0  0  0  0  0  0  0  0
    5.0184    6.6987   -4.0241 H   0  0  0  0  0  0  0  0  0  0  0  0
    4.8417    8.9263   -4.6399 H   0  0  0  0  0  0  0  0  0  0  0  0
    4.8265   10.6734   -6.3598 H   0  0  0  0  0  0  0  0  0  0  0  0
    4.0168    7.6503   -9.3754 H   0  0  0  0  0  0  0  0  0  0  0  0
    4.0666    5.9319   -7.5727 H   0  0  0  0  0  0  0  0  0  0  0  0
    3.7387   11.0029   -8.9106 H   0  0  0  0  0  0  0  0  0  0  0  0
  1  2  1  0
  2  3  1  0
  3  4  1  0
  4  5  2  0
  4  6  1  0
  6  7  1  0
  7  8  1  0
  8  9  1  0
  9 10  2  0
  9 11  1  0
 11 12  1  0
 12 13  1  0
 13 14  1  0
 14 15  2  0
 14 16  1  0
 16 17  2  0
 16 18  1  0
 18 19  1  0
 19 20  1  0
 20 21  2  0
 21 22  1  0
 22 23  2  0
 23 24  1  0
 24 25  2  0
 18 26  1  0
 26 27  1  0
 27 28  2  0
 27 29  1  0
 29 30  1  0
 29 31  1  0
 31 32  1  0
 32 33  2  0
 32 34  1  0
 34 35  1  0
 35 36  1  0
 36 37  2  0
 36 38  1  0
 38 39  1  0
 39 40  1  0
 40 41  2  0
 40 42  1  0
 42 43  1  0
 43 44  1  0
 44 45  2  0
 44 46  1  0
 46 47  1  0
 47 48  1  0
 48 49  2  0
 46 50  1  0
 50 51  1  0
 51 52  2  0
 52 53  1  0
 53 54  2  0
 54 55  1  0
 55 56  2  0
 42 57  1  0
 57 58  1  0
 58 59  1  0
 59 60  1  0
 60 61  1  0
 61 62  2  3
 61 63  1  0
 38 64  1  0
 64 65  1  0
 65 66  2  0
 66 67  1  0
 67 68  1  0
 68 69  2  0
 69 70  1  0
 70 71  2  0
 71 72  1  0
 72 73  2  0
 34 74  1  0
 74 75  1  0
 75 76  2  0
 75 77  1  0
 12 78  1  0
 78 79  2  0
 78 80  1  0
 80 81  1  0
 81 82  1  0
 82 83  1  0
 83 84  2  0
 83 85  1  0
 85 86  2  0
 85 87  1  0
 82 88  1  0
 88 89  1  0
 89 90  2  0
 90 91  1  0
 91 92  2  0
 92 93  1  0
 93 94  2  0
 92 95  1  0
  3 96  1  0
 96 97  1  0
 97 98  2  0
 98 99  1  0
 99100  2  0
100101  1  0
101102  2  0
100103  1  0
 48  7  1  0
 56 51  1  0
 69 65  1  0
 94 89  1  0
102 97  1  0
 25 20  1  0
 73 68  1  0
  1104  1  0
  1105  1  0
  2106  1  0
  3107  1  6
  6108  1  0
  7109  1  1
  8110  1  0
  8111  1  0
 11112  1  0
 12113  1  0
 13114  1  0
 18115  1  1
 19116  1  0
 19117  1  0
 21118  1  0
 22119  1  0
 23120  1  0
 24121  1  0
 25122  1  0
 26123  1  0
 29124  1  6
 30125  1  0
 30126  1  0
 30127  1  0
 31128  1  0
 34129  1  1
 35130  1  0
 38131  1  6
 39132  1  0
 42133  1  1
 43134  1  0
 46135  1  6
 47136  1  0
 50137  1  0
 50138  1  0
 52139  1  0
 53140  1  0
 54141  1  0
 55142  1  0
 56143  1  0
 57144  1  0
 57145  1  0
 58146  1  0
 58147  1  0
 59148  1  0
 59149  1  0
 60150  1  0
 62151  1  0
 63152  1  0
 63153  1  0
 64154  1  0
 64155  1  0
 66156  1  0
 67157  1  0
 70158  1  0
 71159  1  0
 72160  1  0
 73161  1  0
 74162  1  0
 74163  1  0
 77164  1  0
 77165  1  0
 80166  1  0
 81167  1  0
 82168  1  6
 87169  1  0
 88170  1  0
 88171  1  0
 90172  1  0
 91173  1  0
 93174  1  0
 94175  1  0
 95176  1  0
 96177  1  0
 96178  1  0
 98179  1  0
 99180  1  0
101181  1  0
102182  1  0
103183  1  0
M  END
>  <Ligand ID>  (1) 
LIG0002166

>  <Ligand>  (1) 
BDBM50144874

>  <SMILES>  (1) 
NN[C@H](C(=O)N[C@@H]1CC(=O)NC(NC(=O)C(=O)[C@H](Cc2ccccc2)NC(=O)[C@@H](C)NC(=O)[C@@H](NC(=O)[C@H](NC(=O)[C@@H](NC(=O)[C@H](NC1=O)Cc1ccccc1)CCCNC(=N)N)Cc1c[nH]c2c1cccc2)CC(=O)N)C(=O)NN[C@@H](C(=O)C(=O)O)Cc1ccc(cc1)O)Cc1ccc(cc1)O

>  <CID>  (1) 
91932909.0

>  <ChEMBL ID>  (1) 
nan

>  <InChiKey>  (1) 
BXPSHOXUOUAVOO-XLFZXRFMSA-N

>  <InChi>  (1) 
InChI=1S/C68H80N18O17/c1-35-58(93)77-46(27-36-11-4-2-5-12-36)55(91)65(100)83-57(66(101)86-85-47(56(92)67(102)103)28-38-18-22-41(87)23-19-38)82-54(90)33-51(81-64(99)52(84-72)30-39-20-24-42(88)25-21-39)63(98)78-48(29-37-13-6-3-7-14-37)61(96)76-45(17-10-26-73-68(70)71)59(94)79-49(31-40-34-74-44-16-9-8-15-43(40)44)62(97)80-50(32-53(69)89)60(95)75-35/h2-9,11-16,18-25,34-35,45-52,57,74,84-85,87-88H,10,17,26-33,72H2,1H3,(H2,69,89)(H,75,95)(H,76,96)(H,77,93)(H,78,98)(H,79,94)(H,80,97)(H,81,99)(H,82,90)(H,83,100)(H,86,101)(H,102,103)(H4,70,71,73)/t35-,45+,46+,47-,48-,49-,50+,51-,52+,57?/m1/s1

>  <IUPAC Name>  (1) 
(3R)-3-[2-[(6S,9R,12S,15R,18S,21R,24R)-12-(2-amino-2-oxoethyl)-6,21-dibenzyl-18-(3-carbamimidamidopropyl)-24-[[(2S)-2-hydrazinyl-3-(4-hydroxyphenyl)propanoyl]amino]-15-(1H-indol-3-ylmethyl)-9-methyl-4,5,8,11,14,17,20,23,26-nonaoxo-1,3,7,10,13,16,19,22-octazacyclohexacosane-2-carbonyl]hydrazinyl]-4-(4-hydroxyphenyl)-2-oxobutanoic acid

$$$$
