
     RDKit          3D

 82 83  0  0  0  0  0  0  0  0999 V2000
   10.1309   -3.9987   -0.5860 C   0  0  0  0  0  0  0  0  0  0  0  0
    9.9137   -3.0253    0.5431 C   0  0  0  0  0  0  0  0  0  0  0  0
    8.5278   -2.7091    0.7660 N   0  0  0  0  0  0  0  0  0  0  0  0
    7.6989   -2.0961   -0.2308 C   0  0  0  0  0  0  0  0  0  0  0  0
    8.2463   -1.8431   -1.3273 O   0  0  0  0  0  0  0  0  0  0  0  0
    6.3475   -1.7971    0.0169 N   0  0  0  0  0  0  0  0  0  0  0  0
    5.4446   -1.1702   -0.9257 C   0  0  0  0  0  0  0  0  0  0  0  0
    5.7582    0.2813   -0.9534 C   0  0  0  0  0  0  0  0  0  0  0  0
    6.6293    0.8612   -1.8451 C   0  0  0  0  0  0  0  0  0  0  0  0
    6.9014    2.2329   -1.8279 C   0  0  0  0  0  0  0  0  0  0  0  0
    6.2734    3.0365   -0.8824 C   0  0  0  0  0  0  0  0  0  0  0  0
    5.3860    2.4533    0.0277 C   0  0  0  0  0  0  0  0  0  0  0  0
    5.1307    1.0937   -0.0065 C   0  0  0  0  0  0  0  0  0  0  0  0
    4.7632    3.3750    1.0060 C   0  0  0  0  0  0  0  0  0  0  0  0
    3.4829    3.9332    0.4378 C   0  0  0  0  0  0  0  0  0  0  0  0
    2.4971    2.8224    0.1239 C   0  0  0  0  0  0  0  0  0  0  0  0
    1.2020    3.3937   -0.4405 C   0  0  0  0  0  0  0  0  0  0  0  0
    0.2609    2.4467   -0.7520 O   0  0  0  0  0  0  0  0  0  0  0  0
   -0.1600    1.6481    0.2815 C   0  0  0  0  0  0  0  0  0  0  0  0
   -1.2270    0.6308   -0.1362 C   0  0  0  0  0  0  0  0  0  0  0  0
   -2.4609    1.3626   -0.6760 C   0  0  0  0  0  0  0  0  0  0  0  0
   -3.0650    2.2731    0.3438 C   0  0  0  0  0  0  0  0  0  0  0  0
   -3.5261    1.6765    1.5953 C   0  0  0  0  0  0  0  0  0  0  0  0
   -4.5601    0.6268    1.6258 C   0  0  0  0  0  0  0  0  0  0  0  0
   -5.8404    0.8909    1.1269 N   0  0  0  0  0  0  0  0  0  0  0  0
   -6.1111    1.0544   -0.2324 C   0  0  0  0  0  0  0  0  0  0  0  0
   -5.9712   -0.2072   -1.0644 C   0  0  1  0  0  0  0  0  0  0  0  0
   -7.0177   -1.2085   -0.6437 C   0  0  0  0  0  0  0  0  0  0  0  0
   -8.3131   -0.9052   -1.0063 C   0  0  0  0  0  0  0  0  0  0  0  0
   -9.3432   -1.7515   -0.6740 C   0  0  0  0  0  0  0  0  0  0  0  0
   -9.0224   -2.9045    0.0308 C   0  0  0  0  0  0  0  0  0  0  0  0
   -7.7186   -3.2065    0.3936 C   0  0  0  0  0  0  0  0  0  0  0  0
   -6.6908   -2.3510    0.0557 C   0  0  0  0  0  0  0  0  0  0  0  0
   -7.4493   -4.4656    1.1466 C   0  0  0  0  0  0  0  0  0  0  0  0
   -7.8398   -4.2679    2.4573 O   0  0  0  0  0  0  0  0  0  0  0  0
  -10.0409   -3.7873    0.3856 O   0  0  0  0  0  0  0  0  0  0  0  0
   -6.2593    0.0662   -2.3992 O   0  0  0  0  0  0  0  0  0  0  0  0
    9.5639   -4.9238   -0.4101 H   0  0  0  0  0  0  0  0  0  0  0  0
    9.8471   -3.5149   -1.5248 H   0  0  0  0  0  0  0  0  0  0  0  0
   11.2193   -4.2735   -0.6169 H   0  0  0  0  0  0  0  0  0  0  0  0
   10.5026   -2.0818    0.3332 H   0  0  0  0  0  0  0  0  0  0  0  0
   10.3317   -3.4826    1.4657 H   0  0  0  0  0  0  0  0  0  0  0  0
    8.0751   -2.9246    1.6881 H   0  0  0  0  0  0  0  0  0  0  0  0
    5.9791   -2.0623    0.9807 H   0  0  0  0  0  0  0  0  0  0  0  0
    5.5596   -1.6105   -1.9406 H   0  0  0  0  0  0  0  0  0  0  0  0
    4.4011   -1.2828   -0.5531 H   0  0  0  0  0  0  0  0  0  0  0  0
    7.1244    0.2851   -2.5853 H   0  0  0  0  0  0  0  0  0  0  0  0
    7.5792    2.6761   -2.5238 H   0  0  0  0  0  0  0  0  0  0  0  0
    6.4677    4.1004   -0.8504 H   0  0  0  0  0  0  0  0  0  0  0  0
    4.4424    0.6672    0.7037 H   0  0  0  0  0  0  0  0  0  0  0  0
    4.5628    2.8090    1.9449 H   0  0  0  0  0  0  0  0  0  0  0  0
    5.4398    4.2100    1.2750 H   0  0  0  0  0  0  0  0  0  0  0  0
    3.0452    4.7149    1.0736 H   0  0  0  0  0  0  0  0  0  0  0  0
    3.7809    4.4576   -0.5068 H   0  0  0  0  0  0  0  0  0  0  0  0
    2.3200    2.1685    0.9789 H   0  0  0  0  0  0  0  0  0  0  0  0
    2.9609    2.2177   -0.7029 H   0  0  0  0  0  0  0  0  0  0  0  0
    1.3999    3.9774   -1.3651 H   0  0  0  0  0  0  0  0  0  0  0  0
    0.8690    4.1425    0.3075 H   0  0  0  0  0  0  0  0  0  0  0  0
   -0.4206    2.1510    1.2134 H   0  0  0  0  0  0  0  0  0  0  0  0
    0.7318    0.9981    0.5414 H   0  0  0  0  0  0  0  0  0  0  0  0
   -1.4651    0.0295    0.7420 H   0  0  0  0  0  0  0  0  0  0  0  0
   -0.8209    0.0296   -0.9746 H   0  0  0  0  0  0  0  0  0  0  0  0
   -3.1323    0.7247   -1.2350 H   0  0  0  0  0  0  0  0  0  0  0  0
   -2.0155    2.0549   -1.4547 H   0  0  0  0  0  0  0  0  0  0  0  0
   -3.7336    2.9929   -0.1673 H   0  0  0  0  0  0  0  0  0  0  0  0
   -2.1879    2.9568    0.6388 H   0  0  0  0  0  0  0  0  0  0  0  0
   -3.9196    2.5315    2.2378 H   0  0  0  0  0  0  0  0  0  0  0  0
   -2.6270    1.3444    2.2121 H   0  0  0  0  0  0  0  0  0  0  0  0
   -4.1551   -0.3903    1.3137 H   0  0  0  0  0  0  0  0  0  0  0  0
   -4.7238    0.4221    2.7418 H   0  0  0  0  0  0  0  0  0  0  0  0
   -6.6379    0.4836    1.6285 H   0  0  0  0  0  0  0  0  0  0  0  0
   -5.6430    1.8524   -0.7952 H   0  0  0  0  0  0  0  0  0  0  0  0
   -7.2273    1.2862   -0.3024 H   0  0  0  0  0  0  0  0  0  0  0  0
   -5.0137   -0.7047   -0.9978 H   0  0  0  0  0  0  0  0  0  0  0  0
   -8.5633   -0.0021   -1.5578 H   0  0  0  0  0  0  0  0  0  0  0  0
  -10.3741   -1.5981   -0.9122 H   0  0  0  0  0  0  0  0  0  0  0  0
   -5.6476   -2.5564    0.3250 H   0  0  0  0  0  0  0  0  0  0  0  0
   -8.0941   -5.2404    0.6512 H   0  0  0  0  0  0  0  0  0  0  0  0
   -6.4009   -4.7710    1.0475 H   0  0  0  0  0  0  0  0  0  0  0  0
   -8.8273   -4.4404    2.5256 H   0  0  0  0  0  0  0  0  0  0  0  0
  -10.9943   -3.4339    0.4604 H   0  0  0  0  0  0  0  0  0  0  0  0
   -5.5562    0.6480   -2.8083 H   0  0  0  0  0  0  0  0  0  0  0  0
  1  2  1  0
  2  3  1  0
  3  4  1  0
  4  5  2  0
  4  6  1  0
  6  7  1  0
  7  8  1  0
  8  9  2  0
  9 10  1  0
 10 11  2  0
 11 12  1  0
 12 13  2  0
 12 14  1  0
 14 15  1  0
 15 16  1  0
 16 17  1  0
 17 18  1  0
 18 19  1  0
 19 20  1  0
 20 21  1  0
 21 22  1  0
 22 23  1  0
 23 24  1  0
 24 25  1  0
 25 26  1  0
 26 27  1  0
 27 28  1  0
 28 29  2  0
 29 30  1  0
 30 31  2  0
 31 32  1  0
 32 33  2  0
 32 34  1  0
 34 35  1  0
 31 36  1  0
 27 37  1  0
 13  8  1  0
 33 28  1  0
  1 38  1  0
  1 39  1  0
  1 40  1  0
  2 41  1  0
  2 42  1  0
  3 43  1  0
  6 44  1  0
  7 45  1  0
  7 46  1  0
  9 47  1  0
 10 48  1  0
 11 49  1  0
 13 50  1  0
 14 51  1  0
 14 52  1  0
 15 53  1  0
 15 54  1  0
 16 55  1  0
 16 56  1  0
 17 57  1  0
 17 58  1  0
 19 59  1  0
 19 60  1  0
 20 61  1  0
 20 62  1  0
 21 63  1  0
 21 64  1  0
 22 65  1  0
 22 66  1  0
 23 67  1  0
 23 68  1  0
 24 69  1  0
 24 70  1  0
 25 71  1  0
 26 72  1  0
 26 73  1  0
 27 74  1  6
 29 75  1  0
 30 76  1  0
 33 77  1  0
 34 78  1  0
 34 79  1  0
 35 80  1  0
 36 81  1  0
 37 82  1  0
M  END
>  <Ligand ID>  (1) 
LIG0004418

>  <Ligand>  (1) 
CHEMBL1835858

>  <SMILES>  (1) 
CCNC(=O)NCc1cccc(c1)CCCCOCCCCCCNC[C@@H](c1ccc(c(c1)CO)O)O

>  <CID>  (1) 
56672269.0

>  <ChEMBL ID>  (1) 
nan

>  <InChiKey>  (1) 
ULRQPZIGIQQYRL-NDEPHWFRSA-N

>  <InChi>  (1) 
InChI=1S/C29H45N3O5/c1-2-31-29(36)32-20-24-12-9-11-23(18-24)10-5-8-17-37-16-7-4-3-6-15-30-21-28(35)25-13-14-27(34)26(19-25)22-33/h9,11-14,18-19,28,30,33-35H,2-8,10,15-17,20-22H2,1H3,(H2,31,32,36)/t28-/m0/s1

>  <IUPAC Name>  (1) 
1-ethyl-3-[[3-[4-[6-[[(2R)-2-hydroxy-2-[4-hydroxy-3-(hydroxymethyl)phenyl]ethyl]amino]hexoxy]butyl]phenyl]methyl]urea

$$$$
