
     RDKit          3D

 83 87  0  0  0  0  0  0  0  0999 V2000
   11.0311   -2.8121    0.2061 O   0  0  0  0  0  0  0  0  0  0  0  0
    9.7173   -2.3841    0.4406 C   0  0  0  0  0  0  0  0  0  0  0  0
    8.7137   -3.3244    0.5101 C   0  0  0  0  0  0  0  0  0  0  0  0
    7.4031   -2.8981    0.7440 C   0  0  0  0  0  0  0  0  0  0  0  0
    7.1191   -1.5367    0.9046 C   0  0  0  0  0  0  0  0  0  0  0  0
    8.1344   -0.5840    0.8343 C   0  0  0  0  0  0  0  0  0  0  0  0
    9.4081   -1.0594    0.6016 C   0  0  0  0  0  0  0  0  0  0  0  0
    5.7024   -1.1752    1.1518 C   0  0  0  0  0  0  0  0  0  0  0  0
    4.9232   -0.9183   -0.1268 C   0  0  1  0  0  0  0  0  0  0  0  0
    3.5263   -0.5672    0.2132 C   0  0  0  0  0  0  0  0  0  0  0  0
    3.0712   -1.2598    1.2081 O   0  0  0  0  0  0  0  0  0  0  0  0
    2.7266    0.4055   -0.4344 N   0  0  0  0  0  0  0  0  0  0  0  0
    3.0999    1.2132   -1.6319 C   0  0  0  0  0  0  0  0  0  0  0  0
    1.8123    1.1255   -2.4448 C   0  0  0  0  0  0  0  0  0  0  0  0
    0.7290    0.6145   -1.4880 C   0  0  0  0  0  0  0  0  0  0  0  0
    1.4027    0.9062   -0.1540 C   0  0  1  0  0  0  0  0  0  0  0  0
    0.6845    0.4842    1.0136 C   0  0  0  0  0  0  0  0  0  0  0  0
    1.0718   -0.1607    2.0119 O   0  0  0  0  0  0  0  0  0  0  0  0
   -0.7263    0.8505    1.0756 N   0  0  0  0  0  0  0  0  0  0  0  0
   -1.5144    0.4745    2.1965 C   0  0  2  0  0  0  0  0  0  0  0  0
   -2.6903   -0.3603    1.8468 C   0  0  0  0  0  0  0  0  0  0  0  0
   -3.4708   -0.7279    2.7737 O   0  0  0  0  0  0  0  0  0  0  0  0
   -2.8869   -0.7103    0.4909 N   0  0  0  0  0  0  0  0  0  0  0  0
   -4.0308   -1.5324    0.1022 C   0  0  2  0  0  0  0  0  0  0  0  0
   -3.4928   -2.8358   -0.3119 C   0  0  0  0  0  0  0  0  0  0  0  0
   -4.2142   -3.8135   -0.6866 O   0  0  0  0  0  0  0  0  0  0  0  0
   -2.0769   -3.1079   -0.3242 N   0  0  0  0  0  0  0  0  0  0  0  0
   -4.8843   -0.8636   -0.9165 C   0  0  0  0  0  0  0  0  0  0  0  0
   -6.0311   -1.7197   -1.2939 C   0  0  0  0  0  0  0  0  0  0  0  0
   -7.1720   -1.6226   -0.5286 C   0  0  0  0  0  0  0  0  0  0  0  0
   -8.2741   -2.4019   -0.8566 C   0  0  0  0  0  0  0  0  0  0  0  0
   -8.2456   -3.2687   -1.9316 C   0  0  0  0  0  0  0  0  0  0  0  0
   -7.0966   -3.3687   -2.7058 C   0  0  0  0  0  0  0  0  0  0  0  0
   -6.0036   -2.5874   -2.3706 C   0  0  0  0  0  0  0  0  0  0  0  0
   -1.9735    1.6525    2.9975 C   0  0  0  0  0  0  0  0  0  0  0  0
   -2.7999    2.6362    2.2745 C   0  0  0  0  0  0  0  0  0  0  0  0
   -4.1989    2.6977    2.3225 C   0  0  0  0  0  0  0  0  0  0  0  0
   -4.6359    3.6970    1.5373 N   0  0  0  0  0  0  0  0  0  0  0  0
   -3.5763    4.3042    0.9685 C   0  0  0  0  0  0  0  0  0  0  0  0
   -2.4481    3.6563    1.4183 C   0  0  0  0  0  0  0  0  0  0  0  0
   -1.2371    4.1215    0.9656 C   0  0  0  0  0  0  0  0  0  0  0  0
   -1.1627    5.1886    0.0998 C   0  0  0  0  0  0  0  0  0  0  0  0
   -2.3116    5.8231   -0.3390 C   0  0  0  0  0  0  0  0  0  0  0  0
   -3.5483    5.3741    0.1026 C   0  0  0  0  0  0  0  0  0  0  0  0
    5.5808   -0.0517   -1.0201 N   0  0  0  0  0  0  0  0  0  0  0  0
   11.4368   -3.3562    0.9790 H   0  0  0  0  0  0  0  0  0  0  0  0
    8.8743   -4.3901    0.3946 H   0  0  0  0  0  0  0  0  0  0  0  0
    6.6090   -3.6359    0.7988 H   0  0  0  0  0  0  0  0  0  0  0  0
    7.9019    0.4614    0.9598 H   0  0  0  0  0  0  0  0  0  0  0  0
   10.2206   -0.3267    0.5439 H   0  0  0  0  0  0  0  0  0  0  0  0
    5.2483   -1.9842    1.7512 H   0  0  0  0  0  0  0  0  0  0  0  0
    5.6208   -0.2493    1.7714 H   0  0  0  0  0  0  0  0  0  0  0  0
    4.8618   -1.9372   -0.6164 H   0  0  0  0  0  0  0  0  0  0  0  0
    3.2681    2.2349   -1.2357 H   0  0  0  0  0  0  0  0  0  0  0  0
    3.9384    0.7961   -2.1810 H   0  0  0  0  0  0  0  0  0  0  0  0
    1.5960    2.1551   -2.8049 H   0  0  0  0  0  0  0  0  0  0  0  0
    1.9974    0.4423   -3.2790 H   0  0  0  0  0  0  0  0  0  0  0  0
    0.5599   -0.4548   -1.5873 H   0  0  0  0  0  0  0  0  0  0  0  0
   -0.1603    1.2426   -1.6531 H   0  0  0  0  0  0  0  0  0  0  0  0
    1.5020    2.0551   -0.1786 H   0  0  0  0  0  0  0  0  0  0  0  0
   -1.1639    1.3777    0.2939 H   0  0  0  0  0  0  0  0  0  0  0  0
   -0.9268   -0.1613    2.9258 H   0  0  0  0  0  0  0  0  0  0  0  0
   -2.2606   -0.4207   -0.2920 H   0  0  0  0  0  0  0  0  0  0  0  0
   -4.6773   -1.7415    1.0016 H   0  0  0  0  0  0  0  0  0  0  0  0
   -1.4889   -2.3998   -0.7843 H   0  0  0  0  0  0  0  0  0  0  0  0
   -1.7091   -3.9945    0.1253 H   0  0  0  0  0  0  0  0  0  0  0  0
   -4.3355   -0.6401   -1.8650 H   0  0  0  0  0  0  0  0  0  0  0  0
   -5.2616    0.1020   -0.5323 H   0  0  0  0  0  0  0  0  0  0  0  0
   -7.2684   -0.9710    0.3220 H   0  0  0  0  0  0  0  0  0  0  0  0
   -9.1768   -2.3552   -0.2890 H   0  0  0  0  0  0  0  0  0  0  0  0
   -9.1097   -3.8701   -2.1759 H   0  0  0  0  0  0  0  0  0  0  0  0
   -7.0491   -4.0482   -3.5624 H   0  0  0  0  0  0  0  0  0  0  0  0
   -5.1020   -2.6670   -2.9903 H   0  0  0  0  0  0  0  0  0  0  0  0
   -1.1016    2.1604    3.4829 H   0  0  0  0  0  0  0  0  0  0  0  0
   -2.5801    1.2889    3.8822 H   0  0  0  0  0  0  0  0  0  0  0  0
   -4.8009    2.0115    2.9252 H   0  0  0  0  0  0  0  0  0  0  0  0
   -5.6583    3.9165    1.4295 H   0  0  0  0  0  0  0  0  0  0  0  0
   -0.3468    3.6128    1.3208 H   0  0  0  0  0  0  0  0  0  0  0  0
   -0.1832    5.5193   -0.2310 H   0  0  0  0  0  0  0  0  0  0  0  0
   -2.2875    6.6623   -1.0161 H   0  0  0  0  0  0  0  0  0  0  0  0
   -4.4514    5.8477   -0.2216 H   0  0  0  0  0  0  0  0  0  0  0  0
    6.1298    0.7249   -0.6354 H   0  0  0  0  0  0  0  0  0  0  0  0
    6.1802   -0.5807   -1.7188 H   0  0  0  0  0  0  0  0  0  0  0  0
  1  2  1  0
  2  3  2  0
  3  4  1  0
  4  5  2  0
  5  6  1  0
  6  7  2  0
  5  8  1  0
  8  9  1  0
  9 10  1  0
 10 11  2  0
 10 12  1  0
 12 13  1  0
 13 14  1  0
 14 15  1  0
 15 16  1  0
 16 17  1  0
 17 18  2  0
 17 19  1  0
 19 20  1  0
 20 21  1  0
 21 22  2  0
 21 23  1  0
 23 24  1  0
 24 25  1  0
 25 26  2  0
 25 27  1  0
 24 28  1  0
 28 29  1  0
 29 30  2  0
 30 31  1  0
 31 32  2  0
 32 33  1  0
 33 34  2  0
 20 35  1  0
 35 36  1  0
 36 37  2  0
 37 38  1  0
 38 39  1  0
 39 40  2  0
 40 41  1  0
 41 42  2  0
 42 43  1  0
 43 44  2  0
  9 45  1  0
  7  2  1  0
 16 12  1  0
 34 29  1  0
 40 36  1  0
 44 39  1  0
  1 46  1  0
  3 47  1  0
  4 48  1  0
  6 49  1  0
  7 50  1  0
  8 51  1  0
  8 52  1  0
  9 53  1  6
 13 54  1  0
 13 55  1  0
 14 56  1  0
 14 57  1  0
 15 58  1  0
 15 59  1  0
 16 60  1  1
 19 61  1  0
 20 62  1  1
 23 63  1  0
 24 64  1  1
 27 65  1  0
 27 66  1  0
 28 67  1  0
 28 68  1  0
 30 69  1  0
 31 70  1  0
 32 71  1  0
 33 72  1  0
 34 73  1  0
 35 74  1  0
 35 75  1  0
 37 76  1  0
 38 77  1  0
 41 78  1  0
 42 79  1  0
 43 80  1  0
 44 81  1  0
 45 82  1  0
 45 83  1  0
M  END
>  <Ligand ID>  (1) 
LIG0002899

>  <Ligand>  (1) 
endomorphin-1

>  <SMILES>  (1) 
Oc1ccc(cc1)C[C@@H](C(=O)N1CCC[C@H]1C(=O)N[C@H](C(=O)N[C@H](C(=O)N)Cc1ccccc1)Cc1c[nH]c2c1cccc2)N

>  <CID>  (1) 
5311080.0

>  <ChEMBL ID>  (1) 
nan

>  <InChiKey>  (1) 
ZEXLJFNSKAHNFH-SYKYGTKKSA-N

>  <InChi>  (1) 
InChI=1S/C34H38N6O5/c35-26(17-22-12-14-24(41)15-13-22)34(45)40-16-6-11-30(40)33(44)39-29(19-23-20-37-27-10-5-4-9-25(23)27)32(43)38-28(31(36)42)18-21-7-2-1-3-8-21/h1-5,7-10,12-15,20,26,28-30,37,41H,6,11,16-19,35H2,(H2,36,42)(H,38,43)(H,39,44)/t26-,28-,29-,30-/m0/s1

>  <IUPAC Name>  (1) 
(2S)-1-[(2S)-2-amino-3-(4-hydroxyphenyl)propanoyl]-N-[(2S)-1-[[(2S)-1-amino-1-oxo-3-phenylpropan-2-yl]amino]-3-(1H-indol-3-yl)-1-oxopropan-2-yl]pyrrolidine-2-carboxamide

$$$$
