
     RDKit          3D

 45 46  0  0  0  0  0  0  0  0999 V2000
   -0.8964   -2.9056    0.5178 C   0  0  0  0  0  0  0  0  0  0  0  0
   -0.2887   -1.5801    0.1914 C   0  0  2  0  0  0  0  0  0  0  0  0
    1.2246   -1.5934    0.2723 C   0  0  0  0  0  0  0  0  0  0  0  0
    1.6563   -0.2424   -0.0692 N   0  0  0  0  0  0  0  0  0  0  0  0
    3.0277    0.1266   -0.1192 C   0  0  0  0  0  0  0  0  0  0  0  0
    3.4470    1.4149   -0.4400 C   0  0  0  0  0  0  0  0  0  0  0  0
    4.7635    1.7815   -0.4954 C   0  0  0  0  0  0  0  0  0  0  0  0
    5.7578    0.8646   -0.2285 C   0  0  0  0  0  0  0  0  0  0  0  0
    5.3779   -0.4099    0.0900 C   0  0  0  0  0  0  0  0  0  0  0  0
    4.0433   -0.7810    0.1461 C   0  0  0  0  0  0  0  0  0  0  0  0
    7.1429    1.3127   -0.3034 C   0  0  0  0  0  0  0  0  0  0  0  0
    7.3713    2.5054   -0.6026 O   0  0  0  0  0  0  0  0  0  0  0  0
    8.2149    0.4705   -0.0567 O   0  0  0  0  0  0  0  0  0  0  0  0
   -0.7291   -0.4937    1.0256 N   0  0  0  0  0  0  0  0  0  0  0  0
   -2.1287   -0.2145    0.9815 C   0  0  0  0  0  0  0  0  0  0  0  0
   -2.5373    0.3450   -0.3685 C   0  0  1  0  0  0  0  0  0  0  0  0
   -3.9924    0.5822   -0.4206 C   0  0  0  0  0  0  0  0  0  0  0  0
   -4.4707    1.6683    0.3182 C   0  0  0  0  0  0  0  0  0  0  0  0
   -5.8135    1.9863    0.3432 C   0  0  0  0  0  0  0  0  0  0  0  0
   -6.6586    1.1900   -0.3889 C   0  0  0  0  0  0  0  0  0  0  0  0
   -6.2130    0.1190   -1.1216 C   0  0  0  0  0  0  0  0  0  0  0  0
   -4.8680   -0.2052   -1.1507 C   0  0  0  0  0  0  0  0  0  0  0  0
   -7.3061   -0.8792   -2.0452 Cl  0  0  0  0  0  0  0  0  0  0  0  0
   -1.8024    1.5165   -0.5340 O   0  0  0  0  0  0  0  0  0  0  0  0
   -1.5314   -2.7826    1.4406 H   0  0  0  0  0  0  0  0  0  0  0  0
   -1.5675   -3.2436   -0.2707 H   0  0  0  0  0  0  0  0  0  0  0  0
   -0.1438   -3.7162    0.6838 H   0  0  0  0  0  0  0  0  0  0  0  0
   -0.4895   -1.3647   -0.9018 H   0  0  0  0  0  0  0  0  0  0  0  0
    1.6275   -2.2417   -0.5470 H   0  0  0  0  0  0  0  0  0  0  0  0
    1.5799   -1.9105    1.2750 H   0  0  0  0  0  0  0  0  0  0  0  0
    0.9708    0.5279   -0.2965 H   0  0  0  0  0  0  0  0  0  0  0  0
    2.6690    2.1359   -0.6498 H   0  0  0  0  0  0  0  0  0  0  0  0
    4.9717    2.8220   -0.7580 H   0  0  0  0  0  0  0  0  0  0  0  0
    6.1161   -1.1440    0.3020 H   0  0  0  0  0  0  0  0  0  0  0  0
    3.8121   -1.8086    0.4053 H   0  0  0  0  0  0  0  0  0  0  0  0
    9.0532    0.5650   -0.6477 H   0  0  0  0  0  0  0  0  0  0  0  0
   -0.3786   -0.6666    1.9818 H   0  0  0  0  0  0  0  0  0  0  0  0
   -2.7465   -1.0674    1.2941 H   0  0  0  0  0  0  0  0  0  0  0  0
   -2.3189    0.5945    1.7197 H   0  0  0  0  0  0  0  0  0  0  0  0
   -2.2762   -0.4204   -1.1272 H   0  0  0  0  0  0  0  0  0  0  0  0
   -3.8124    2.2896    0.8901 H   0  0  0  0  0  0  0  0  0  0  0  0
   -6.1634    2.8251    0.9172 H   0  0  0  0  0  0  0  0  0  0  0  0
   -7.7182    1.4073   -0.3942 H   0  0  0  0  0  0  0  0  0  0  0  0
   -4.4740   -1.0410   -1.7156 H   0  0  0  0  0  0  0  0  0  0  0  0
   -1.5022    1.6615   -1.4642 H   0  0  0  0  0  0  0  0  0  0  0  0
  1  2  1  0
  2  3  1  0
  3  4  1  0
  4  5  1  0
  5  6  2  0
  6  7  1  0
  7  8  2  0
  8  9  1  0
  9 10  2  0
  8 11  1  0
 11 12  2  0
 11 13  1  0
  2 14  1  0
 14 15  1  0
 15 16  1  0
 16 17  1  0
 17 18  2  0
 18 19  1  0
 19 20  2  0
 20 21  1  0
 21 22  2  0
 21 23  1  0
 16 24  1  0
 10  5  1  0
 22 17  1  0
  1 25  1  0
  1 26  1  0
  1 27  1  0
  2 28  1  6
  3 29  1  0
  3 30  1  0
  4 31  1  0
  6 32  1  0
  7 33  1  0
  9 34  1  0
 10 35  1  0
 13 36  1  0
 14 37  1  0
 15 38  1  0
 15 39  1  0
 16 40  1  6
 18 41  1  0
 19 42  1  0
 20 43  1  0
 22 44  1  0
 24 45  1  0
M  END
>  <Ligand ID>  (1) 
LIG0002235

>  <Ligand>  (1) 
CHEMBL155092

>  <SMILES>  (1) 
C[C@H](CNc1ccc(cc1)C(=O)O)NC[C@@H](c1cccc(c1)Cl)O

>  <CID>  (1) 
11002571.0

>  <ChEMBL ID>  (1) 
nan

>  <InChiKey>  (1) 
OZIAJCOMKLQAHB-PXAZEXFGSA-N

>  <InChi>  (1) 
InChI=1S/C18H21ClN2O3/c1-12(10-21-16-7-5-13(6-8-16)18(23)24)20-11-17(22)14-3-2-4-15(19)9-14/h2-9,12,17,20-22H,10-11H2,1H3,(H,23,24)/t12-,17+/m1/s1

>  <IUPAC Name>  (1) 
4-[[(2R)-2-[[(2R)-2-(3-chlorophenyl)-2-hydroxyethyl]amino]propyl]amino]benzoic acid

$$$$
