
     RDKit          3D

 69 76  0  0  0  0  0  0  0  0999 V2000
    5.9063   -1.5974   -2.4894 C   0  0  0  0  0  0  0  0  0  0  0  0
    4.7187   -0.9153   -2.1920 O   0  0  0  0  0  0  0  0  0  0  0  0
    3.9779   -1.0143   -1.0357 C   0  0  0  0  0  0  0  0  0  0  0  0
    4.3545   -1.8430   -0.0027 C   0  0  0  0  0  0  0  0  0  0  0  0
    3.5563   -1.8773    1.1104 C   0  0  0  0  0  0  0  0  0  0  0  0
    2.4112   -1.1123    1.2052 C   0  0  0  0  0  0  0  0  0  0  0  0
    2.0076   -0.2628    0.1697 C   0  0  0  0  0  0  0  0  0  0  0  0
    2.8340   -0.2469   -0.9472 C   0  0  0  0  0  0  0  0  0  0  0  0
    2.4698    0.5839   -2.0003 O   0  0  0  0  0  0  0  0  0  0  0  0
    0.8013    0.5203    0.3339 C   0  0  2  0  0  0  0  0  0  0  0  0
    1.0941    1.7942    1.0837 C   0  0  0  0  0  0  0  0  0  0  0  0
    1.1923    1.6311    2.5603 C   0  0  0  0  0  0  0  0  0  0  0  0
    0.2582    0.6906    3.1268 N   0  0  0  0  0  0  0  0  0  0  0  0
    0.3093   -0.5653    2.4461 C   0  0  0  0  0  0  0  0  0  0  0  0
    1.6260   -1.2335    2.4601 C   0  0  0  0  0  0  0  0  0  0  0  0
   -0.2224   -0.3361    1.0556 C   0  0  2  0  0  0  0  0  0  0  0  0
   -0.4866   -1.6198    0.3796 C   0  0  0  0  0  0  0  0  0  0  0  0
   -0.6872   -1.4259   -1.0595 C   0  0  0  0  0  0  0  0  0  0  0  0
   -0.4549   -0.2243   -1.6979 C   0  0  0  0  0  0  0  0  0  0  0  0
    0.0220    0.9024   -0.8748 C   0  0  1  0  0  0  0  0  0  0  0  0
   -1.1957    1.4632   -0.1706 C   0  0  0  0  0  0  0  0  0  0  0  0
   -1.9270    2.4522   -0.5942 C   0  0  0  0  0  0  0  0  0  0  0  0
   -3.0899    3.0031    0.0652 C   0  0  0  0  0  0  0  0  0  0  0  0
   -4.2311    3.2207   -0.7063 C   0  0  0  0  0  0  0  0  0  0  0  0
   -5.3699    3.7676   -0.1569 C   0  0  0  0  0  0  0  0  0  0  0  0
   -5.4461    4.1323    1.1922 C   0  0  0  0  0  0  0  0  0  0  0  0
   -4.3093    3.9144    1.9549 C   0  0  0  0  0  0  0  0  0  0  0  0
   -3.1687    3.3613    1.3824 C   0  0  0  0  0  0  0  0  0  0  0  0
   -1.3835    0.6394    1.0512 C   0  0  0  0  0  0  0  0  0  0  0  0
   -0.7443   -0.4178   -2.9980 N   0  0  0  0  0  0  0  0  0  0  0  0
   -1.1484   -1.6857   -3.2095 C   0  0  0  0  0  0  0  0  0  0  0  0
   -1.1276   -2.3657   -2.0011 C   0  0  0  0  0  0  0  0  0  0  0  0
   -1.4898   -3.6887   -1.8992 C   0  0  0  0  0  0  0  0  0  0  0  0
   -1.8929   -4.3905   -3.0235 C   0  0  0  0  0  0  0  0  0  0  0  0
   -1.9211   -3.7356   -4.2330 C   0  0  0  0  0  0  0  0  0  0  0  0
   -1.5549   -2.4052   -4.3238 C   0  0  0  0  0  0  0  0  0  0  0  0
    0.5554    0.4789    4.5222 C   0  0  0  0  0  0  0  0  0  0  0  0
    5.7295   -2.1773   -3.4448 H   0  0  0  0  0  0  0  0  0  0  0  0
    6.7279   -0.8893   -2.7377 H   0  0  0  0  0  0  0  0  0  0  0  0
    6.2693   -2.2877   -1.7319 H   0  0  0  0  0  0  0  0  0  0  0  0
    5.2372   -2.4637   -0.0174 H   0  0  0  0  0  0  0  0  0  0  0  0
    3.8446   -2.5315    1.9368 H   0  0  0  0  0  0  0  0  0  0  0  0
    2.7031    0.3311   -2.9631 H   0  0  0  0  0  0  0  0  0  0  0  0
    0.3375    2.5871    0.8212 H   0  0  0  0  0  0  0  0  0  0  0  0
    2.0646    2.1799    0.7094 H   0  0  0  0  0  0  0  0  0  0  0  0
    0.9710    2.6229    3.0211 H   0  0  0  0  0  0  0  0  0  0  0  0
    2.2269    1.3712    2.8633 H   0  0  0  0  0  0  0  0  0  0  0  0
   -0.4406   -1.2332    2.9580 H   0  0  0  0  0  0  0  0  0  0  0  0
    2.2472   -0.8538    3.3219 H   0  0  0  0  0  0  0  0  0  0  0  0
    1.5189   -2.3385    2.6381 H   0  0  0  0  0  0  0  0  0  0  0  0
   -1.3513   -2.1117    0.8720 H   0  0  0  0  0  0  0  0  0  0  0  0
    0.3647   -2.3022    0.5048 H   0  0  0  0  0  0  0  0  0  0  0  0
    0.4996    1.7194   -1.4674 H   0  0  0  0  0  0  0  0  0  0  0  0
   -1.6374    2.9141   -1.5397 H   0  0  0  0  0  0  0  0  0  0  0  0
   -4.2406    2.9621   -1.7548 H   0  0  0  0  0  0  0  0  0  0  0  0
   -6.2720    3.9445   -0.7436 H   0  0  0  0  0  0  0  0  0  0  0  0
   -6.3497    4.5555    1.5917 H   0  0  0  0  0  0  0  0  0  0  0  0
   -4.3241    4.1832    3.0072 H   0  0  0  0  0  0  0  0  0  0  0  0
   -2.3280    3.2407    2.0373 H   0  0  0  0  0  0  0  0  0  0  0  0
   -2.3757    0.1196    0.9707 H   0  0  0  0  0  0  0  0  0  0  0  0
   -1.2799    1.2033    1.9983 H   0  0  0  0  0  0  0  0  0  0  0  0
   -0.6659    0.3254   -3.7527 H   0  0  0  0  0  0  0  0  0  0  0  0
   -1.4663   -4.1997   -0.9444 H   0  0  0  0  0  0  0  0  0  0  0  0
   -2.1774   -5.4276   -2.9507 H   0  0  0  0  0  0  0  0  0  0  0  0
   -2.2344   -4.2828   -5.1162 H   0  0  0  0  0  0  0  0  0  0  0  0
   -1.5957   -1.9506   -5.2889 H   0  0  0  0  0  0  0  0  0  0  0  0
   -0.2882    0.9203    5.1059 H   0  0  0  0  0  0  0  0  0  0  0  0
    1.5125    0.9014    4.8508 H   0  0  0  0  0  0  0  0  0  0  0  0
    0.5292   -0.6242    4.7613 H   0  0  0  0  0  0  0  0  0  0  0  0
  1  2  1  0
  2  3  1  0
  3  4  2  0
  4  5  1  0
  5  6  2  0
  6  7  1  0
  7  8  2  0
  8  9  1  0
  7 10  1  0
 10 11  1  1
 11 12  1  0
 12 13  1  0
 13 14  1  0
 14 15  1  0
 14 16  1  0
 16 17  1  6
 17 18  1  0
 18 19  2  0
 19 20  1  0
 20 21  1  0
 21 22  2  0
 22 23  1  0
 23 24  2  0
 24 25  1  0
 25 26  2  0
 26 27  1  0
 27 28  2  0
 21 29  1  0
 19 30  1  0
 30 31  1  0
 31 32  2  0
 32 33  1  0
 33 34  2  0
 34 35  1  0
 35 36  2  0
 13 37  1  0
  8  3  1  0
 20 10  1  0
 28 23  1  0
 36 31  1  0
 15  6  1  0
 29 16  1  0
 16 10  1  0
 32 18  1  0
  1 38  1  0
  1 39  1  0
  1 40  1  0
  4 41  1  0
  5 42  1  0
  9 43  1  0
 11 44  1  0
 11 45  1  0
 12 46  1  0
 12 47  1  0
 14 48  1  0
 15 49  1  0
 15 50  1  0
 17 51  1  0
 17 52  1  0
 20 53  1  6
 22 54  1  0
 24 55  1  0
 25 56  1  0
 26 57  1  0
 27 58  1  0
 28 59  1  0
 29 60  1  0
 29 61  1  0
 30 62  1  0
 33 63  1  0
 34 64  1  0
 35 65  1  0
 36 66  1  0
 37 67  1  0
 37 68  1  0
 37 69  1  0
M  END
>  <Ligand ID>  (1) 
LIG0004596

>  <Ligand>  (1) 
CHEMBL108608

>  <SMILES>  (1) 
COc1ccc2c(c1O)[C@@]13CCN(C(C2)[C@@]23Cc3c([C@H]1/C(=C/c1ccccc1)/C2)[nH]c1c3cccc1)C

>  <CID>  (1) 
44337789.0

>  <ChEMBL ID>  (1) 
nan

>  <InChiKey>  (1) 
JLMRSZXETXDEJC-JAFNVPGYSA-N

>  <InChi>  (1) 
InChI=1S/C33H32N2O2/c1-35-15-14-33-28-22(16-20-8-4-3-5-9-20)18-32(33,19-24-23-10-6-7-11-25(23)34-30(24)28)27(35)17-21-12-13-26(37-2)31(36)29(21)33/h3-13,16,27-28,34,36H,14-15,17-19H2,1-2H3/b22-16+/t27?,28-,32+,33-/m1/s1

>  <IUPAC Name>  (1) 
(1S,2S,13R,26E)-26-benzylidene-19-methoxy-24-methyl-4,24-diazaheptacyclo[12.7.3.22,13.01,13.03,11.05,10.016,21]hexacosa-3(11),5,7,9,16(21),17,19-heptaen-20-ol

$$$$
