
     RDKit          3D

 76 78  0  0  0  0  0  0  0  0999 V2000
   -7.7896   -3.4596    0.3246 O   0  0  0  0  0  0  0  0  0  0  0  0
   -7.1203   -2.5010   -0.4653 C   0  0  0  0  0  0  0  0  0  0  0  0
   -6.6966   -1.4314    0.4878 C   0  0  0  0  0  0  0  0  0  0  0  0
   -5.3712   -1.3710    0.8624 C   0  0  0  0  0  0  0  0  0  0  0  0
   -4.9574   -0.3920    1.7414 C   0  0  0  0  0  0  0  0  0  0  0  0
   -5.8487    0.5279    2.2520 C   0  0  0  0  0  0  0  0  0  0  0  0
   -7.1742    0.4462    1.8604 C   0  0  0  0  0  0  0  0  0  0  0  0
   -7.6192   -0.5328    0.9737 C   0  0  0  0  0  0  0  0  0  0  0  0
   -8.9486   -0.5986    0.5936 O   0  0  0  0  0  0  0  0  0  0  0  0
   -3.4971   -0.3724    2.1123 C   0  0  2  0  0  0  0  0  0  0  0  0
   -2.7618    0.0722    0.8357 C   0  0  0  0  0  0  0  0  0  0  0  0
   -3.1832    1.3747    0.4292 N   0  0  0  0  0  0  0  0  0  0  0  0
   -2.5846    1.8880   -0.7644 C   0  0  0  0  0  0  0  0  0  0  0  0
   -3.0826    1.0679   -1.9517 C   0  0  0  0  0  0  0  0  0  0  0  0
   -2.4875    1.6025   -3.1977 C   0  0  0  0  0  0  0  0  0  0  0  0
   -1.0216    1.5854   -3.2679 C   0  0  0  0  0  0  0  0  0  0  0  0
   -0.2307    0.3452   -3.3101 C   0  0  0  0  0  0  0  0  0  0  0  0
   -0.2717   -0.6561   -2.2379 C   0  0  0  0  0  0  0  0  0  0  0  0
    0.0252   -0.2839   -0.9687 O   0  0  0  0  0  0  0  0  0  0  0  0
    1.2384    0.2491   -0.6958 C   0  0  0  0  0  0  0  0  0  0  0  0
    2.4358   -0.6213   -1.0114 C   0  0  0  0  0  0  0  0  0  0  0  0
    3.6464    0.2087   -0.6082 C   0  0  0  0  0  0  0  0  0  0  0  0
    4.9545   -0.4598   -0.8449 C   0  0  0  0  0  0  0  0  0  0  0  0
    6.0530    0.4416   -0.4125 C   0  0  0  0  0  0  0  0  0  0  0  0
    6.7649    1.2032   -1.3296 C   0  0  0  0  0  0  0  0  0  0  0  0
    7.7668    2.0623   -1.0011 C   0  0  0  0  0  0  0  0  0  0  0  0
    8.1185    2.2047    0.3264 C   0  0  0  0  0  0  0  0  0  0  0  0
    7.4398    1.4685    1.2748 C   0  0  0  0  0  0  0  0  0  0  0  0
    6.4142    0.5923    0.9102 C   0  0  0  0  0  0  0  0  0  0  0  0
    5.8015   -0.1247    1.9705 N   0  0  0  0  0  0  0  0  0  0  0  0
    6.0099   -1.4512    2.1915 C   0  0  0  0  0  0  0  0  0  0  0  0
    6.8103   -2.3304    1.4689 O   0  0  0  0  0  0  0  0  0  0  0  0
    5.2849   -1.8551    3.2942 C   0  0  0  0  0  0  0  0  0  0  0  0
    4.6459   -0.7540    3.7230 N   0  0  0  0  0  0  0  0  0  0  0  0
    4.9612    0.2665    2.9285 C   0  0  0  0  0  0  0  0  0  0  0  0
    4.5354    1.4296    3.0541 O   0  0  0  0  0  0  0  0  0  0  0  0
   -3.0183   -1.6365    2.4126 O   0  0  0  0  0  0  0  0  0  0  0  0
   -7.3620   -4.3296    0.2296 H   0  0  0  0  0  0  0  0  0  0  0  0
   -6.2194   -2.9932   -0.9060 H   0  0  0  0  0  0  0  0  0  0  0  0
   -7.7853   -2.0825   -1.2274 H   0  0  0  0  0  0  0  0  0  0  0  0
   -4.6553   -2.1016    0.4587 H   0  0  0  0  0  0  0  0  0  0  0  0
   -5.4785    1.2779    2.9388 H   0  0  0  0  0  0  0  0  0  0  0  0
   -7.9006    1.1592    2.2473 H   0  0  0  0  0  0  0  0  0  0  0  0
   -9.2860   -1.3751    0.0716 H   0  0  0  0  0  0  0  0  0  0  0  0
   -3.3066    0.3556    2.9078 H   0  0  0  0  0  0  0  0  0  0  0  0
   -2.8988   -0.7326    0.1091 H   0  0  0  0  0  0  0  0  0  0  0  0
   -1.6718    0.0890    1.1173 H   0  0  0  0  0  0  0  0  0  0  0  0
   -4.2181    1.3854    0.3176 H   0  0  0  0  0  0  0  0  0  0  0  0
   -1.5026    1.9604   -0.7347 H   0  0  0  0  0  0  0  0  0  0  0  0
   -3.0060    2.9223   -0.9034 H   0  0  0  0  0  0  0  0  0  0  0  0
   -4.2225    1.1447   -1.9771 H   0  0  0  0  0  0  0  0  0  0  0  0
   -2.8299    0.0270   -1.7877 H   0  0  0  0  0  0  0  0  0  0  0  0
   -2.8931    0.9512   -4.0539 H   0  0  0  0  0  0  0  0  0  0  0  0
   -2.9134    2.6269   -3.4536 H   0  0  0  0  0  0  0  0  0  0  0  0
   -0.7453    2.1635   -4.2377 H   0  0  0  0  0  0  0  0  0  0  0  0
   -0.5812    2.3200   -2.5064 H   0  0  0  0  0  0  0  0  0  0  0  0
    0.8381    0.5644   -3.6484 H   0  0  0  0  0  0  0  0  0  0  0  0
   -0.5995   -0.2155   -4.2517 H   0  0  0  0  0  0  0  0  0  0  0  0
   -1.1812   -1.2632   -2.2760 H   0  0  0  0  0  0  0  0  0  0  0  0
    0.5253   -1.4732   -2.5114 H   0  0  0  0  0  0  0  0  0  0  0  0
    1.3866    1.2839   -1.0736 H   0  0  0  0  0  0  0  0  0  0  0  0
    1.2810    0.3739    0.4280 H   0  0  0  0  0  0  0  0  0  0  0  0
    2.4072   -1.5215   -0.3645 H   0  0  0  0  0  0  0  0  0  0  0  0
    2.4903   -0.9736   -2.0396 H   0  0  0  0  0  0  0  0  0  0  0  0
    3.5190    0.4183    0.4676 H   0  0  0  0  0  0  0  0  0  0  0  0
    3.5792    1.1358   -1.2243 H   0  0  0  0  0  0  0  0  0  0  0  0
    5.0917   -0.6071   -1.9554 H   0  0  0  0  0  0  0  0  0  0  0  0
    5.0176   -1.4788   -0.4133 H   0  0  0  0  0  0  0  0  0  0  0  0
    6.4882    1.0929   -2.3741 H   0  0  0  0  0  0  0  0  0  0  0  0
    8.2986    2.6400   -1.7502 H   0  0  0  0  0  0  0  0  0  0  0  0
    8.9232    2.8984    0.5753 H   0  0  0  0  0  0  0  0  0  0  0  0
    7.7140    1.5800    2.3101 H   0  0  0  0  0  0  0  0  0  0  0  0
    7.8121   -2.1967    1.4118 H   0  0  0  0  0  0  0  0  0  0  0  0
    5.2508   -2.8612    3.7145 H   0  0  0  0  0  0  0  0  0  0  0  0
    4.0107   -0.7638    4.5620 H   0  0  0  0  0  0  0  0  0  0  0  0
   -2.6184   -1.6063    3.3229 H   0  0  0  0  0  0  0  0  0  0  0  0
  1  2  1  0
  2  3  1  0
  3  4  2  0
  4  5  1  0
  5  6  2  0
  6  7  1  0
  7  8  2  0
  8  9  1  0
  5 10  1  0
 10 11  1  0
 11 12  1  0
 12 13  1  0
 13 14  1  0
 14 15  1  0
 15 16  1  0
 16 17  1  0
 17 18  1  0
 18 19  1  0
 19 20  1  0
 20 21  1  0
 21 22  1  0
 22 23  1  0
 23 24  1  0
 24 25  2  0
 25 26  1  0
 26 27  2  0
 27 28  1  0
 28 29  2  0
 29 30  1  0
 30 31  1  0
 31 32  1  0
 31 33  2  0
 33 34  1  0
 34 35  1  0
 35 36  2  0
 10 37  1  0
  8  3  1  0
 29 24  1  0
 35 30  1  0
  1 38  1  0
  2 39  1  0
  2 40  1  0
  4 41  1  0
  6 42  1  0
  7 43  1  0
  9 44  1  0
 10 45  1  1
 11 46  1  0
 11 47  1  0
 12 48  1  0
 13 49  1  0
 13 50  1  0
 14 51  1  0
 14 52  1  0
 15 53  1  0
 15 54  1  0
 16 55  1  0
 16 56  1  0
 17 57  1  0
 17 58  1  0
 18 59  1  0
 18 60  1  0
 20 61  1  0
 20 62  1  0
 21 63  1  0
 21 64  1  0
 22 65  1  0
 22 66  1  0
 23 67  1  0
 23 68  1  0
 25 69  1  0
 26 70  1  0
 27 71  1  0
 28 72  1  0
 32 73  1  0
 33 74  1  0
 34 75  1  0
 37 76  1  0
M  END
>  <Ligand ID>  (1) 
LIG0002578

>  <Ligand>  (1) 
BDBM50419012

>  <SMILES>  (1) 
OCc1cc(ccc1O)[C@H](CNCCCCCCOCCCCc1ccccc1n1c(O)c[nH]c1=O)O

>  <CID>  (1) 
91495733.0

>  <ChEMBL ID>  (1) 
nan

>  <InChiKey>  (1) 
WNMWCKLZBODAFQ-SANMLTNESA-N

>  <InChi>  (1) 
InChI=1S/C28H39N3O6/c32-20-23-17-22(12-13-25(23)33)26(34)18-29-14-6-1-2-7-15-37-16-8-5-10-21-9-3-4-11-24(21)31-27(35)19-30-28(31)36/h3-4,9,11-13,17,19,26,29,32-35H,1-2,5-8,10,14-16,18,20H2,(H,30,36)/t26-/m0/s1

>  <IUPAC Name>  (1) 
4-hydroxy-3-[2-[4-[6-[[(2R)-2-hydroxy-2-[4-hydroxy-3-(hydroxymethyl)phenyl]ethyl]amino]hexoxy]butyl]phenyl]-1H-imidazol-2-one

$$$$
