
     RDKit          3D

 36 38  0  0  0  0  0  0  0  0999 V2000
   -3.4356    1.9176   -0.1298 C   0  0  0  0  0  0  0  0  0  0  0  0
   -2.9576    0.8744   -1.0777 C   0  0  2  0  0  0  0  0  0  0  0  0
   -4.0875    0.0931   -1.7036 C   0  0  0  0  0  0  0  0  0  0  0  0
   -4.1263   -1.0796   -1.0840 C   0  0  0  0  0  0  0  0  0  0  0  0
   -3.0753   -1.1800   -0.0389 C   0  0  1  0  0  0  0  0  0  0  0  0
   -2.1302   -0.1607   -0.4414 N   0  0  0  0  0  0  0  0  0  0  0  0
   -0.7183   -0.1468   -0.2686 C   0  0  0  0  0  0  0  0  0  0  0  0
   -0.1203   -1.2140    0.3551 C   0  0  0  0  0  0  0  0  0  0  0  0
    1.2707   -1.1365    0.4925 C   0  0  0  0  0  0  0  0  0  0  0  0
    1.9921   -0.0590    0.0316 C   0  0  0  0  0  0  0  0  0  0  0  0
    1.2888    0.9326   -0.5667 N   0  0  0  0  0  0  0  0  0  0  0  0
   -0.0034    0.9012   -0.7152 N   0  0  0  0  0  0  0  0  0  0  0  0
    3.4391    0.0393    0.1656 C   0  0  0  0  0  0  0  0  0  0  0  0
    4.2208   -0.9238    0.7594 C   0  0  0  0  0  0  0  0  0  0  0  0
    5.6002   -0.8081    0.8758 C   0  0  0  0  0  0  0  0  0  0  0  0
    6.2166    0.3240    0.3734 C   0  0  0  0  0  0  0  0  0  0  0  0
    5.4550    1.3169   -0.2332 C   0  0  0  0  0  0  0  0  0  0  0  0
    4.0842    1.1553   -0.3249 C   0  0  0  0  0  0  0  0  0  0  0  0
    3.1715    2.4552   -1.1083 Cl  0  0  0  0  0  0  0  0  0  0  0  0
    6.2542    2.7520   -0.8677 Cl  0  0  0  0  0  0  0  0  0  0  0  0
   -3.7190   -0.8834    1.2968 C   0  0  0  0  0  0  0  0  0  0  0  0
   -4.3760    1.7006    0.3739 H   0  0  0  0  0  0  0  0  0  0  0  0
   -2.6334    2.0967    0.6118 H   0  0  0  0  0  0  0  0  0  0  0  0
   -3.5808    2.8527   -0.6895 H   0  0  0  0  0  0  0  0  0  0  0  0
   -2.4391    1.3453   -1.9183 H   0  0  0  0  0  0  0  0  0  0  0  0
   -4.7175    0.4666   -2.5051 H   0  0  0  0  0  0  0  0  0  0  0  0
   -4.8399   -1.8842   -1.3055 H   0  0  0  0  0  0  0  0  0  0  0  0
   -2.6203   -2.1891   -0.0001 H   0  0  0  0  0  0  0  0  0  0  0  0
   -0.6503   -2.0611    0.7222 H   0  0  0  0  0  0  0  0  0  0  0  0
    1.7572   -1.9650    0.9796 H   0  0  0  0  0  0  0  0  0  0  0  0
    3.7722   -1.8116    1.1578 H   0  0  0  0  0  0  0  0  0  0  0  0
    6.1591   -1.6046    1.3557 H   0  0  0  0  0  0  0  0  0  0  0  0
    7.2874    0.4511    0.4446 H   0  0  0  0  0  0  0  0  0  0  0  0
   -3.1498   -0.1927    1.9273 H   0  0  0  0  0  0  0  0  0  0  0  0
   -3.8226   -1.8447    1.8758 H   0  0  0  0  0  0  0  0  0  0  0  0
   -4.7657   -0.5298    1.1795 H   0  0  0  0  0  0  0  0  0  0  0  0
  1  2  1  0
  2  3  1  0
  3  4  2  0
  4  5  1  0
  5  6  1  0
  6  7  1  0
  7  8  2  0
  8  9  1  0
  9 10  2  0
 10 11  1  0
 11 12  2  0
 10 13  1  0
 13 14  2  0
 14 15  1  0
 15 16  2  0
 16 17  1  0
 17 18  2  0
 18 19  1  0
 17 20  1  0
  5 21  1  0
  6  2  1  0
 12  7  1  0
 18 13  1  0
  1 22  1  0
  1 23  1  0
  1 24  1  0
  2 25  1  6
  3 26  1  0
  4 27  1  0
  5 28  1  1
  8 29  1  0
  9 30  1  0
 14 31  1  0
 15 32  1  0
 16 33  1  0
 21 34  1  0
 21 35  1  0
 21 36  1  0
M  END
>  <Ligand ID>  (1) 
LIG0005232

>  <Ligand>  (1) 
CHEMBL594530

>  <SMILES>  (1) 
C[C@@H]1C=C[C@@H](N1c1ccc(nn1)c1cccc(c1Cl)Cl)C

>  <CID>  (1) 
46226429.0

>  <ChEMBL ID>  (1) 
nan

>  <InChiKey>  (1) 
SWMZUZLACLTWNE-PHIMTYICSA-N

>  <InChi>  (1) 
InChI=1S/C16H15Cl2N3/c1-10-6-7-11(2)21(10)15-9-8-14(19-20-15)12-4-3-5-13(17)16(12)18/h3-11H,1-2H3/t10-,11+

>  <IUPAC Name>  (1) 
3-(2,3-dichlorophenyl)-6-[(2R,5S)-2,5-dimethyl-2,5-dihydropyrrol-1-yl]pyridazine

$$$$
