
     RDKit          3D

 21 20  0  0  0  0  0  0  0  0999 V2000
    3.6162   -1.5109    1.0449 O   0  0  0  0  0  0  0  0  0  0  0  0
    3.7227   -0.5722    0.1892 C   0  0  0  0  0  0  0  0  0  0  0  0
    2.5876    0.0420   -0.3212 O   0  0  0  0  0  0  0  0  0  0  0  0
    1.3222   -0.4359    0.1641 C   0  0  0  0  0  0  0  0  0  0  0  0
    0.3023    0.4125   -0.5634 C   0  0  0  0  0  0  0  0  0  0  0  0
   -1.1175    0.0684   -0.1931 C   0  0  0  0  0  0  0  0  0  0  0  0
   -1.4467   -1.6569   -0.6030 S   0  0  0  0  0  0  0  0  0  0  0  0
   -1.3825    0.3247    1.2707 C   0  0  0  0  0  0  0  0  0  0  0  0
   -2.0107    0.9814   -1.0186 C   0  0  0  0  0  0  0  0  0  0  0  0
    4.7298   -0.3087   -0.0911 H   0  0  0  0  0  0  0  0  0  0  0  0
    1.2508   -1.4972   -0.1077 H   0  0  0  0  0  0  0  0  0  0  0  0
    1.2172   -0.2504    1.2582 H   0  0  0  0  0  0  0  0  0  0  0  0
    0.5487    1.4713   -0.4669 H   0  0  0  0  0  0  0  0  0  0  0  0
    0.4088    0.1812   -1.6613 H   0  0  0  0  0  0  0  0  0  0  0  0
   -2.7578   -2.0011   -0.1687 H   0  0  0  0  0  0  0  0  0  0  0  0
   -2.4400    0.6555    1.3669 H   0  0  0  0  0  0  0  0  0  0  0  0
   -0.7102    1.0881    1.7114 H   0  0  0  0  0  0  0  0  0  0  0  0
   -1.2651   -0.6576    1.8127 H   0  0  0  0  0  0  0  0  0  0  0  0
   -1.9545    0.6102   -2.0647 H   0  0  0  0  0  0  0  0  0  0  0  0
   -1.5765    2.0134   -0.9382 H   0  0  0  0  0  0  0  0  0  0  0  0
   -3.0449    1.0421   -0.6202 H   0  0  0  0  0  0  0  0  0  0  0  0
  1  2  2  0
  2  3  1  0
  3  4  1  0
  4  5  1  0
  5  6  1  0
  6  7  1  0
  6  8  1  0
  6  9  1  0
  2 10  1  0
  4 11  1  0
  4 12  1  0
  5 13  1  0
  5 14  1  0
  7 15  1  0
  8 16  1  0
  8 17  1  0
  8 18  1  0
  9 19  1  0
  9 20  1  0
  9 21  1  0
M  END
>  <Ligand ID>  (1) 
LIG0000568

>  <Ligand>  (1) 
3-Mercapto-3-methylbutyl formate

>  <SMILES>  (1) 
O=COCCC(S)(C)C

>  <CID>  (1) 
526487.0

>  <ChEMBL ID>  (1) 
nan

>  <InChiKey>  (1) 
VTAPYUYITKYXJB-UHFFFAOYSA-N

>  <InChi>  (1) 
InChI=1S/C6H12O2S/c1-6(2,9)3-4-8-5-7/h5,9H,3-4H2,1-2H3

>  <IUPAC Name>  (1) 
(3-methyl-3-sulfanylbutyl) formate

$$$$
