
     RDKit          3D

107110  0  0  0  0  0  0  0  0999 V2000
   -3.1278    6.6664   -4.7359 N   0  0  0  0  0  0  0  0  0  0  0  0
   -2.9514    6.3710   -3.3382 C   0  0  0  0  0  0  0  0  0  0  0  0
   -2.0792    7.0517   -2.6958 N   0  0  0  0  0  0  0  0  0  0  0  0
   -1.7314    6.9364   -1.3125 C   0  0  0  0  0  0  0  0  0  0  0  0
   -1.3095    5.5268   -0.9347 C   0  0  0  0  0  0  0  0  0  0  0  0
   -0.9300    5.4411    0.5195 C   0  0  0  0  0  0  0  0  0  0  0  0
   -0.5111    4.0816    0.9823 C   0  0  2  0  0  0  0  0  0  0  0  0
    0.6262    3.5197    0.3083 N   0  0  0  0  0  0  0  0  0  0  0  0
    1.7375    2.8827    0.9271 C   0  0  0  0  0  0  0  0  0  0  0  0
    1.6548    2.7716    2.1618 O   0  0  0  0  0  0  0  0  0  0  0  0
    2.8771    2.4008    0.1059 C   0  0  1  0  0  0  0  0  0  0  0  0
    3.7609    3.5914   -0.3164 C   0  0  0  0  0  0  0  0  0  0  0  0
    3.7959    1.5606    0.8942 N   0  0  0  0  0  0  0  0  0  0  0  0
    4.2684    0.3793    0.3386 C   0  0  0  0  0  0  0  0  0  0  0  0
    3.9104    0.2464   -0.9061 O   0  0  0  0  0  0  0  0  0  0  0  0
    5.0763   -0.7325    0.8338 C   0  0  1  0  0  0  0  0  0  0  0  0
    5.4295   -1.5932   -0.3093 N   0  0  0  0  0  0  0  0  0  0  0  0
    4.4180   -2.4347   -0.9355 C   0  0  0  0  0  0  0  0  0  0  0  0
    3.2878   -2.2395   -0.4756 O   0  0  0  0  0  0  0  0  0  0  0  0
    4.8083   -3.3758   -2.0003 C   0  0  0  0  0  0  0  0  0  0  0  0
    3.7243   -3.8828   -2.8606 C   0  0  0  0  0  0  0  0  0  0  0  0
    2.6286   -4.5200   -2.1142 C   0  0  0  0  0  0  0  0  0  0  0  0
    2.4892   -4.5507   -0.8837 O   0  0  0  0  0  0  0  0  0  0  0  0
    1.5391   -5.2102   -2.8069 N   0  0  0  0  0  0  0  0  0  0  0  0
    0.4360   -5.7675   -2.0089 C   0  0  0  0  0  0  0  0  0  0  0  0
   -0.3169   -4.5523   -1.4240 C   0  0  0  0  0  0  0  0  0  0  0  0
   -0.9981   -3.8502   -2.5893 C   0  0  0  0  0  0  0  0  0  0  0  0
   -1.5875   -2.5567   -2.1479 C   0  0  0  0  0  0  0  0  0  0  0  0
   -2.5052   -2.7848   -0.9611 C   0  0  1  0  0  0  0  0  0  0  0  0
   -3.0241   -1.4798   -0.4998 N   0  0  0  0  0  0  0  0  0  0  0  0
   -2.1511   -0.5236    0.1266 C   0  0  0  0  0  0  0  0  0  0  0  0
   -0.9578   -0.8547    0.1419 O   0  0  0  0  0  0  0  0  0  0  0  0
   -2.5727    0.7468    0.6975 C   0  0  2  0  0  0  0  0  0  0  0  0
   -1.4153    1.6830    0.7493 N   0  0  0  0  0  0  0  0  0  0  0  0
   -1.6280    3.0788    0.9846 C   0  0  0  0  0  0  0  0  0  0  0  0
   -2.8154    3.3823    1.2011 O   0  0  0  0  0  0  0  0  0  0  0  0
   -3.0079    0.5529    2.1676 C   0  0  0  0  0  0  0  0  0  0  0  0
   -4.1082   -0.3899    2.3382 C   0  0  0  0  0  0  0  0  0  0  0  0
   -5.4468    0.0162    2.4037 C   0  0  0  0  0  0  0  0  0  0  0  0
   -6.2469   -1.0515    2.5289 N   0  0  0  0  0  0  0  0  0  0  0  0
   -5.4915   -2.1461    2.5494 C   0  0  0  0  0  0  0  0  0  0  0  0
   -4.1628   -1.7612    2.4332 C   0  0  0  0  0  0  0  0  0  0  0  0
   -3.1703   -2.7064    2.4407 C   0  0  0  0  0  0  0  0  0  0  0  0
   -3.4853   -4.0447    2.5625 C   0  0  0  0  0  0  0  0  0  0  0  0
   -4.8278   -4.4199    2.6781 C   0  0  0  0  0  0  0  0  0  0  0  0
   -5.8419   -3.4928    2.6739 C   0  0  0  0  0  0  0  0  0  0  0  0
   -3.6257   -3.6641   -1.1960 C   0  0  0  0  0  0  0  0  0  0  0  0
   -3.5759   -4.8677   -1.5920 O   0  0  0  0  0  0  0  0  0  0  0  0
   -4.9787   -3.1869   -0.9768 N   0  0  0  0  0  0  0  0  0  0  0  0
    6.2897   -0.4474    1.5997 C   0  0  0  0  0  0  0  0  0  0  0  0
    6.2177    0.1920    2.9058 C   0  0  0  0  0  0  0  0  0  0  0  0
    7.3669    0.5386    3.5893 N   0  0  0  0  0  0  0  0  0  0  0  0
    7.0392    1.0393    4.7789 C   0  0  0  0  0  0  0  0  0  0  0  0
    5.7015    1.0409    4.9198 N   0  0  0  0  0  0  0  0  0  0  0  0
    5.2128    0.5218    3.7723 C   0  0  0  0  0  0  0  0  0  0  0  0
   -3.7645    5.3516   -2.7805 N   0  0  0  0  0  0  0  0  0  0  0  0
   -2.3275    6.8716   -5.3706 H   0  0  0  0  0  0  0  0  0  0  0  0
   -4.0755    6.6895   -5.1809 H   0  0  0  0  0  0  0  0  0  0  0  0
   -2.5545    7.2951   -0.6254 H   0  0  0  0  0  0  0  0  0  0  0  0
   -0.8910    7.6575   -1.1271 H   0  0  0  0  0  0  0  0  0  0  0  0
   -0.5176    5.2176   -1.6244 H   0  0  0  0  0  0  0  0  0  0  0  0
   -2.1756    4.8589   -1.1136 H   0  0  0  0  0  0  0  0  0  0  0  0
   -0.0967    6.1418    0.7270 H   0  0  0  0  0  0  0  0  0  0  0  0
   -1.7793    5.7550    1.1464 H   0  0  0  0  0  0  0  0  0  0  0  0
   -0.2632    4.2225    2.0918 H   0  0  0  0  0  0  0  0  0  0  0  0
    0.6606    3.5682   -0.7144 H   0  0  0  0  0  0  0  0  0  0  0  0
    2.5128    1.9410   -0.7987 H   0  0  0  0  0  0  0  0  0  0  0  0
    3.1077    4.2710   -0.8984 H   0  0  0  0  0  0  0  0  0  0  0  0
    4.4980    3.1616   -1.0268 H   0  0  0  0  0  0  0  0  0  0  0  0
    4.2080    4.0475    0.5767 H   0  0  0  0  0  0  0  0  0  0  0  0
    4.0536    1.8868    1.7892 H   0  0  0  0  0  0  0  0  0  0  0  0
    4.3356   -1.3883    1.4552 H   0  0  0  0  0  0  0  0  0  0  0  0
    6.3463   -1.6594   -0.7269 H   0  0  0  0  0  0  0  0  0  0  0  0
    5.5352   -2.8348   -2.6943 H   0  0  0  0  0  0  0  0  0  0  0  0
    5.4491   -4.2067   -1.6006 H   0  0  0  0  0  0  0  0  0  0  0  0
    4.1565   -4.6661   -3.5306 H   0  0  0  0  0  0  0  0  0  0  0  0
    3.3170   -3.0441   -3.4845 H   0  0  0  0  0  0  0  0  0  0  0  0
    1.6377   -5.2480   -3.8030 H   0  0  0  0  0  0  0  0  0  0  0  0
    0.7685   -6.3697   -1.1665 H   0  0  0  0  0  0  0  0  0  0  0  0
   -0.2710   -6.3190   -2.6136 H   0  0  0  0  0  0  0  0  0  0  0  0
    0.4011   -3.8710   -1.0049 H   0  0  0  0  0  0  0  0  0  0  0  0
   -1.0360   -4.9421   -0.7142 H   0  0  0  0  0  0  0  0  0  0  0  0
   -0.2673   -3.7283   -3.4239 H   0  0  0  0  0  0  0  0  0  0  0  0
   -1.7662   -4.5672   -2.9909 H   0  0  0  0  0  0  0  0  0  0  0  0
   -0.8231   -1.8034   -1.9545 H   0  0  0  0  0  0  0  0  0  0  0  0
   -2.2703   -2.2244   -2.9938 H   0  0  0  0  0  0  0  0  0  0  0  0
   -1.8152   -3.1011   -0.1321 H   0  0  0  0  0  0  0  0  0  0  0  0
   -3.9880   -1.1791   -0.5893 H   0  0  0  0  0  0  0  0  0  0  0  0
   -3.4007    1.2932    0.2622 H   0  0  0  0  0  0  0  0  0  0  0  0
   -0.4543    1.3984    0.6275 H   0  0  0  0  0  0  0  0  0  0  0  0
   -2.1251    0.1825    2.7228 H   0  0  0  0  0  0  0  0  0  0  0  0
   -3.2708    1.5400    2.6046 H   0  0  0  0  0  0  0  0  0  0  0  0
   -5.8358    1.0313    2.3634 H   0  0  0  0  0  0  0  0  0  0  0  0
   -7.3012   -1.0268    2.5984 H   0  0  0  0  0  0  0  0  0  0  0  0
   -2.1586   -2.3706    2.3503 H   0  0  0  0  0  0  0  0  0  0  0  0
   -2.7143   -4.8006    2.5700 H   0  0  0  0  0  0  0  0  0  0  0  0
   -5.1178   -5.4570    2.7752 H   0  0  0  0  0  0  0  0  0  0  0  0
   -6.8913   -3.7299    2.7599 H   0  0  0  0  0  0  0  0  0  0  0  0
   -5.3322   -2.4476   -1.6345 H   0  0  0  0  0  0  0  0  0  0  0  0
   -5.5702   -3.5591   -0.2069 H   0  0  0  0  0  0  0  0  0  0  0  0
    6.9986    0.2179    0.9896 H   0  0  0  0  0  0  0  0  0  0  0  0
    6.9529   -1.3771    1.7096 H   0  0  0  0  0  0  0  0  0  0  0  0
    8.3530    0.4325    3.2432 H   0  0  0  0  0  0  0  0  0  0  0  0
    7.7389    1.3854    5.5046 H   0  0  0  0  0  0  0  0  0  0  0  0
    4.1744    0.3750    3.5690 H   0  0  0  0  0  0  0  0  0  0  0  0
   -3.6302    4.3863   -3.1657 H   0  0  0  0  0  0  0  0  0  0  0  0
   -4.4348    5.6091   -2.0381 H   0  0  0  0  0  0  0  0  0  0  0  0
  1  2  1  0
  2  3  2  3
  3  4  1  0
  4  5  1  0
  5  6  1  0
  6  7  1  0
  7  8  1  0
  8  9  1  0
  9 10  2  0
  9 11  1  0
 11 12  1  0
 11 13  1  0
 13 14  1  0
 14 15  2  0
 14 16  1  0
 16 17  1  0
 17 18  1  0
 18 19  2  0
 18 20  1  0
 20 21  1  0
 21 22  1  0
 22 23  2  0
 22 24  1  0
 24 25  1  0
 25 26  1  0
 26 27  1  0
 27 28  1  0
 28 29  1  0
 29 30  1  0
 30 31  1  0
 31 32  2  0
 31 33  1  0
 33 34  1  0
 34 35  1  0
 35 36  2  0
 33 37  1  0
 37 38  1  0
 38 39  2  0
 39 40  1  0
 40 41  1  0
 41 42  2  0
 42 43  1  0
 43 44  2  0
 44 45  1  0
 45 46  2  0
 29 47  1  0
 47 48  2  0
 47 49  1  0
 16 50  1  0
 50 51  1  0
 51 52  1  0
 52 53  1  0
 53 54  2  0
 54 55  1  0
  2 56  1  0
 35  7  1  0
 42 38  1  0
 55 51  2  0
 46 41  1  0
  1 57  1  0
  1 58  1  0
  4 59  1  0
  4 60  1  0
  5 61  1  0
  5 62  1  0
  6 63  1  0
  6 64  1  0
  7 65  1  1
  8 66  1  0
 11 67  1  6
 12 68  1  0
 12 69  1  0
 12 70  1  0
 13 71  1  0
 16 72  1  1
 17 73  1  0
 20 74  1  0
 20 75  1  0
 21 76  1  0
 21 77  1  0
 24 78  1  0
 25 79  1  0
 25 80  1  0
 26 81  1  0
 26 82  1  0
 27 83  1  0
 27 84  1  0
 28 85  1  0
 28 86  1  0
 29 87  1  1
 30 88  1  0
 33 89  1  6
 34 90  1  0
 37 91  1  0
 37 92  1  0
 39 93  1  0
 40 94  1  0
 43 95  1  0
 44 96  1  0
 45 97  1  0
 46 98  1  0
 49 99  1  0
 49100  1  0
 50101  1  0
 50102  1  0
 52103  1  0
 53104  1  0
 55105  1  0
 56106  1  0
 56107  1  0
M  END
>  <Ligand ID>  (1) 
LIG0002168

>  <Ligand>  (1) 
CHEMBL69175

>  <SMILES>  (1) 
NC(=NCCC[C@@H]1NC(=O)[C@@H](C)NC(=O)[C@@H](NC(=O)CCC(=O)NCCCC[C@@H](NC(=O)[C@H](NC1=O)Cc1c[nH]c2c1cccc2)C(=O)N)Cc1[nH]cnc1)N

>  <CID>  (1) 
44309284.0

>  <ChEMBL ID>  (1) 
nan

>  <InChiKey>  (1) 
CNDGMOLQAWUMCP-CDQXLJITSA-N

>  <InChi>  (1) 
InChI=1S/C36H51N13O7/c1-20-32(53)48-26(10-6-14-42-36(38)39)33(54)49-27(15-21-17-43-24-8-3-2-7-23(21)24)35(56)47-25(31(37)52)9-4-5-13-41-29(50)11-12-30(51)46-28(34(55)45-20)16-22-18-40-19-44-22/h2-3,7-8,17-20,25-28,43H,4-6,9-16H2,1H3,(H2,37,52)(H,40,44)(H,41,50)(H,45,55)(H,46,51)(H,47,56)(H,48,53)(H,49,54)(H4,38,39,42)/t20-,25-,26+,27-,28+/m1/s1

>  <IUPAC Name>  (1) 
(3R,6S,9R,12S,23R)-6-[3-(diaminomethylideneamino)propyl]-12-(1H-imidazol-5-ylmethyl)-3-(1H-indol-3-ylmethyl)-9-methyl-2,5,8,11,14,17-hexaoxo-1,4,7,10,13,18-hexazacyclotricosane-23-carboxamide

$$$$
