
     RDKit          3D

 63 65  0  0  0  0  0  0  0  0999 V2000
    1.5706   -3.0165   -4.0943 C   0  0  0  0  0  0  0  0  0  0  0  0
    1.1373   -2.5506   -2.8286 O   0  0  0  0  0  0  0  0  0  0  0  0
    2.0913   -2.4128   -1.8375 C   0  0  0  0  0  0  0  0  0  0  0  0
    3.4402   -2.7150   -2.0503 C   0  0  0  0  0  0  0  0  0  0  0  0
    4.3718   -2.5686   -1.0442 C   0  0  0  0  0  0  0  0  0  0  0  0
    3.9506   -2.1120    0.1985 C   0  0  0  0  0  0  0  0  0  0  0  0
    2.6207   -1.8008    0.4510 C   0  0  0  0  0  0  0  0  0  0  0  0
    1.7065   -1.9559   -0.5733 C   0  0  0  0  0  0  0  0  0  0  0  0
    0.3105   -1.6544   -0.3899 N   0  0  0  0  0  0  0  0  0  0  0  0
   -0.1546   -0.3411   -0.6620 C   0  0  0  0  0  0  0  0  0  0  0  0
    0.7372    0.4848   -1.0591 O   0  0  0  0  0  0  0  0  0  0  0  0
   -1.5477    0.0615   -0.5070 C   0  0  0  0  0  0  0  0  0  0  0  0
   -2.5215   -0.8143   -0.0798 C   0  0  0  0  0  0  0  0  0  0  0  0
   -3.8193   -0.3528    0.0406 C   0  0  0  0  0  0  0  0  0  0  0  0
   -4.2030    0.9326   -0.2399 C   0  0  0  0  0  0  0  0  0  0  0  0
   -3.1812    1.7938   -0.6724 C   0  0  0  0  0  0  0  0  0  0  0  0
   -1.8795    1.3662   -0.8032 C   0  0  0  0  0  0  0  0  0  0  0  0
   -3.4887    3.1230   -0.9800 O   0  0  0  0  0  0  0  0  0  0  0  0
   -2.4215    3.9457   -1.4106 C   0  0  0  0  0  0  0  0  0  0  0  0
   -5.4470    1.4619   -0.1461 O   0  0  0  0  0  0  0  0  0  0  0  0
   -6.6684    0.9879    0.2379 C   0  0  0  0  0  0  0  0  0  0  0  0
   -6.7908    0.5288    1.6485 C   0  0  0  0  0  0  0  0  0  0  0  0
   -8.2188    0.0392    1.8929 C   0  0  0  0  0  0  0  0  0  0  0  0
   -6.4878    1.7242    2.5428 C   0  0  0  0  0  0  0  0  0  0  0  0
    5.1772   -1.9472    1.4325 S   0  0  0  0  0  0  0  0  0  0  0  0
    4.5266   -2.2264    2.7356 O   0  0  0  0  0  0  0  0  0  0  0  0
    6.3013   -2.9126    1.1827 O   0  0  0  0  0  0  0  0  0  0  0  0
    5.8429   -0.3563    1.3573 N   0  0  0  0  0  0  0  0  0  0  0  0
    4.8442    0.6658    1.6087 C   0  0  0  0  0  0  0  0  0  0  0  0
    5.2191    1.9875    1.0187 C   0  0  0  0  0  0  0  0  0  0  0  0
    6.5762    2.1704    0.8540 O   0  0  0  0  0  0  0  0  0  0  0  0
    7.2237    1.1731    0.1634 C   0  0  0  0  0  0  0  0  0  0  0  0
    6.3976   -0.0883    0.0608 C   0  0  0  0  0  0  0  0  0  0  0  0
    0.7265   -3.1500   -4.7973 H   0  0  0  0  0  0  0  0  0  0  0  0
    2.0964   -3.9921   -4.0217 H   0  0  0  0  0  0  0  0  0  0  0  0
    2.3138   -2.2918   -4.5259 H   0  0  0  0  0  0  0  0  0  0  0  0
    3.7261   -3.0674   -3.0316 H   0  0  0  0  0  0  0  0  0  0  0  0
    5.3953   -2.8069   -1.2348 H   0  0  0  0  0  0  0  0  0  0  0  0
    2.3117   -1.4520    1.4073 H   0  0  0  0  0  0  0  0  0  0  0  0
   -0.3398   -2.3850   -0.0651 H   0  0  0  0  0  0  0  0  0  0  0  0
   -2.2852   -1.8394    0.1576 H   0  0  0  0  0  0  0  0  0  0  0  0
   -4.5503   -1.0737    0.3667 H   0  0  0  0  0  0  0  0  0  0  0  0
   -1.0898    2.0437   -1.1407 H   0  0  0  0  0  0  0  0  0  0  0  0
   -2.0304    3.4886   -2.3514 H   0  0  0  0  0  0  0  0  0  0  0  0
   -2.7511    4.9975   -1.5411 H   0  0  0  0  0  0  0  0  0  0  0  0
   -1.6525    3.9278   -0.5944 H   0  0  0  0  0  0  0  0  0  0  0  0
   -6.9082    0.1084   -0.4435 H   0  0  0  0  0  0  0  0  0  0  0  0
   -7.4894    1.7159   -0.0401 H   0  0  0  0  0  0  0  0  0  0  0  0
   -6.1376   -0.3207    1.8657 H   0  0  0  0  0  0  0  0  0  0  0  0
   -8.2487   -0.9652    2.3489 H   0  0  0  0  0  0  0  0  0  0  0  0
   -8.7841    0.7964    2.4571 H   0  0  0  0  0  0  0  0  0  0  0  0
   -8.7492   -0.0572    0.9025 H   0  0  0  0  0  0  0  0  0  0  0  0
   -5.6472    1.4316    3.2023 H   0  0  0  0  0  0  0  0  0  0  0  0
   -7.3787    2.0569    3.1194 H   0  0  0  0  0  0  0  0  0  0  0  0
   -6.1530    2.6053    1.9649 H   0  0  0  0  0  0  0  0  0  0  0  0
    3.9169    0.3152    1.0994 H   0  0  0  0  0  0  0  0  0  0  0  0
    4.7010    0.7718    2.6988 H   0  0  0  0  0  0  0  0  0  0  0  0
    4.8759    2.7879    1.7066 H   0  0  0  0  0  0  0  0  0  0  0  0
    4.6494    2.1874    0.0669 H   0  0  0  0  0  0  0  0  0  0  0  0
    7.5742    1.5265   -0.8469 H   0  0  0  0  0  0  0  0  0  0  0  0
    8.1318    0.8900    0.7690 H   0  0  0  0  0  0  0  0  0  0  0  0
    7.0139   -0.9082   -0.3359 H   0  0  0  0  0  0  0  0  0  0  0  0
    5.5459    0.0380   -0.6569 H   0  0  0  0  0  0  0  0  0  0  0  0
  1  2  1  0
  2  3  1  0
  3  4  2  0
  4  5  1  0
  5  6  2  0
  6  7  1  0
  7  8  2  0
  8  9  1  0
  9 10  1  0
 10 11  2  0
 10 12  1  0
 12 13  2  0
 13 14  1  0
 14 15  2  0
 15 16  1  0
 16 17  2  0
 16 18  1  0
 18 19  1  0
 15 20  1  0
 20 21  1  0
 21 22  1  0
 22 23  1  0
 22 24  1  0
  6 25  1  0
 25 26  2  0
 25 27  2  0
 25 28  1  0
 28 29  1  0
 29 30  1  0
 30 31  1  0
 31 32  1  0
 32 33  1  0
  8  3  1  0
 17 12  1  0
 33 28  1  0
  1 34  1  0
  1 35  1  0
  1 36  1  0
  4 37  1  0
  5 38  1  0
  7 39  1  0
  9 40  1  0
 13 41  1  0
 14 42  1  0
 17 43  1  0
 19 44  1  0
 19 45  1  0
 19 46  1  0
 21 47  1  0
 21 48  1  0
 22 49  1  0
 23 50  1  0
 23 51  1  0
 23 52  1  0
 24 53  1  0
 24 54  1  0
 24 55  1  0
 29 56  1  0
 29 57  1  0
 30 58  1  0
 30 59  1  0
 32 60  1  0
 32 61  1  0
 33 62  1  0
 33 63  1  0
M  END
>  <Ligand ID>  (1) 
LIG0001515

>  <Ligand>  (1) 
MLS-0413763.0001

>  <SMILES>  (1) 
COc1ccc(cc1NC(=O)c1ccc(c(c1)OC)OCC(C)C)S(=O)(=O)N1CCOCC1

>  <CID>  (1) 
16250706.0

>  <ChEMBL ID>  (1) 
nan

>  <InChiKey>  (1) 
CFTMQROCQNRZNW-UHFFFAOYSA-N

>  <InChi>  (1) 
InChI=1S/C23H30N2O7S/c1-16(2)15-32-21-7-5-17(13-22(21)30-4)23(26)24-19-14-18(6-8-20(19)29-3)33(27,28)25-9-11-31-12-10-25/h5-8,13-14,16H,9-12,15H2,1-4H3,(H,24,26)

>  <IUPAC Name>  (1) 
3-methoxy-N-(2-methoxy-5-morpholin-4-ylsulfonylphenyl)-4-(2-methylpropoxy)benzamide

$$$$
