
     RDKit          3D

 23 23  0  0  0  0  0  0  0  0999 V2000
   -2.3585   -0.7953   -1.0355 N   0  0  0  0  0  0  0  0  0  0  0  0
   -1.3190   -0.7514    0.0203 C   0  0  1  0  0  0  0  0  0  0  0  0
   -0.0365   -0.5809   -0.6766 C   0  0  0  0  0  0  0  0  0  0  0  0
    1.1751   -0.4791    0.2544 C   0  0  2  0  0  0  0  0  0  0  0  0
    0.8550    0.5375   -0.8158 C   0  0  2  0  0  0  0  0  0  0  0  0
    0.6104    1.9497   -0.5041 C   0  0  0  0  0  0  0  0  0  0  0  0
    1.2314    2.8052   -1.2324 O   0  0  0  0  0  0  0  0  0  0  0  0
   -0.2004    2.4699    0.4698 O   0  0  0  0  0  0  0  0  0  0  0  0
    2.2999   -1.4450    0.0008 C   0  0  0  0  0  0  0  0  0  0  0  0
    2.4324   -1.8795   -1.1838 O   0  0  0  0  0  0  0  0  0  0  0  0
    3.1407   -1.8265    1.0370 O   0  0  0  0  0  0  0  0  0  0  0  0
   -1.6673    0.1060    1.1335 C   0  0  0  0  0  0  0  0  0  0  0  0
   -1.0221    0.1821    2.2354 O   0  0  0  0  0  0  0  0  0  0  0  0
   -2.8079    0.9260    1.0031 O   0  0  0  0  0  0  0  0  0  0  0  0
   -1.9610   -1.1571   -1.9126 H   0  0  0  0  0  0  0  0  0  0  0  0
   -2.7504    0.1892   -1.1253 H   0  0  0  0  0  0  0  0  0  0  0  0
   -1.3188   -1.8344    0.4025 H   0  0  0  0  0  0  0  0  0  0  0  0
    0.1011   -1.4163   -1.4636 H   0  0  0  0  0  0  0  0  0  0  0  0
    1.0509   -0.0973    1.2735 H   0  0  0  0  0  0  0  0  0  0  0  0
    1.5902    0.4713   -1.6999 H   0  0  0  0  0  0  0  0  0  0  0  0
   -0.0053    3.3281    0.9841 H   0  0  0  0  0  0  0  0  0  0  0  0
    4.0089   -2.2879    0.8113 H   0  0  0  0  0  0  0  0  0  0  0  0
   -3.0488    1.5858    1.7463 H   0  0  0  0  0  0  0  0  0  0  0  0
  1  2  1  0
  2  3  1  0
  3  4  1  0
  4  5  1  0
  5  6  1  0
  6  7  2  0
  6  8  1  0
  4  9  1  0
  9 10  2  0
  9 11  1  0
  2 12  1  0
 12 13  2  0
 12 14  1  0
  5  3  1  0
  1 15  1  0
  1 16  1  0
  2 17  1  1
  3 18  1  0
  4 19  1  1
  5 20  1  6
  8 21  1  0
 11 22  1  0
 14 23  1  0
M  END
>  <Ligand ID>  (1) 
LIG0000485

>  <Ligand>  (1) 
DCG-IV

>  <SMILES>  (1) 
N[C@@H](C1[C@H]([C@@H]1C(=O)O)C(=O)O)C(=O)O

>  <CID>  (1) 
5310979.0

>  <ChEMBL ID>  (1) 
nan

>  <InChiKey>  (1) 
MATPZHBYOVDBLI-JJYYJPOSSA-N

>  <InChi>  (1) 
InChI=1S/C7H9NO6/c8-4(7(13)14)1-2(5(9)10)3(1)6(11)12/h1-4H,8H2,(H,9,10)(H,11,12)(H,13,14)/t2-,3-,4+/m1/s1

>  <IUPAC Name>  (1) 
(1R,2R)-3-[(S)-amino(carboxy)methyl]cyclopropane-1,2-dicarboxylic acid

$$$$
