
     RDKit          3D

 75 78  0  0  0  0  0  0  0  0999 V2000
   -6.7989   -3.0195   -1.6026 C   0  0  0  0  0  0  0  0  0  0  0  0
   -5.9049   -4.0744   -2.2226 C   0  0  0  0  0  0  0  0  0  0  0  0
   -4.6099   -3.5181   -2.4378 O   0  0  0  0  0  0  0  0  0  0  0  0
   -3.8106   -3.0174   -1.4215 C   0  0  0  0  0  0  0  0  0  0  0  0
   -4.2973   -3.0749   -0.2497 O   0  0  0  0  0  0  0  0  0  0  0  0
   -2.4734   -2.4567   -1.7151 C   0  0  0  0  0  0  0  0  0  0  0  0
   -1.7708   -2.0409   -0.5317 N   0  0  0  0  0  0  0  0  0  0  0  0
   -1.3355   -3.0997    0.3811 C   0  0  0  0  0  0  0  0  0  0  0  0
   -0.7841   -2.5267    1.6381 C   0  0  0  0  0  0  0  0  0  0  0  0
    0.2218   -1.4260    1.4072 C   0  0  2  0  0  0  0  0  0  0  0  0
   -0.5141   -0.3312    0.7300 C   0  0  0  0  0  0  0  0  0  0  0  0
   -1.4865   -0.6756   -0.2169 C   0  0  0  0  0  0  0  0  0  0  0  0
   -2.2022    0.3100   -0.8748 C   0  0  0  0  0  0  0  0  0  0  0  0
   -1.9904    1.6593   -0.6296 C   0  0  0  0  0  0  0  0  0  0  0  0
   -1.0265    2.0038    0.3091 C   0  0  0  0  0  0  0  0  0  0  0  0
   -0.3104    1.0016    0.9680 C   0  0  0  0  0  0  0  0  0  0  0  0
   -0.7579    3.4471    0.6114 C   0  0  0  0  0  0  0  0  0  0  0  0
   -1.6263    3.9757    1.6819 C   0  0  0  0  0  0  0  0  0  0  0  0
   -1.2833    3.9086    3.0311 C   0  0  0  0  0  0  0  0  0  0  0  0
   -2.1669    4.4341    3.9669 C   0  0  0  0  0  0  0  0  0  0  0  0
   -3.3570    5.0104    3.5626 C   0  0  0  0  0  0  0  0  0  0  0  0
   -3.7061    5.0811    2.2315 C   0  0  0  0  0  0  0  0  0  0  0  0
   -2.8254    4.5568    1.3113 C   0  0  0  0  0  0  0  0  0  0  0  0
    1.3651   -1.8429    0.6387 N   0  0  0  0  0  0  0  0  0  0  0  0
    2.6615   -1.8654    1.2323 C   0  0  0  0  0  0  0  0  0  0  0  0
    2.6985   -1.4985    2.4512 O   0  0  0  0  0  0  0  0  0  0  0  0
    3.8928   -2.2678    0.5549 C   0  0  2  0  0  0  0  0  0  0  0  0
    4.8749   -1.1196    0.4664 C   0  0  0  0  0  0  0  0  0  0  0  0
    4.4554    0.0614   -0.2651 C   0  0  0  0  0  0  0  0  0  0  0  0
    4.4665    0.1345   -1.6544 C   0  0  0  0  0  0  0  0  0  0  0  0
    4.9644   -0.9517   -2.5335 C   0  0  0  0  0  0  0  0  0  0  0  0
    4.0364    1.2839   -2.3309 C   0  0  0  0  0  0  0  0  0  0  0  0
    3.5813    2.4034   -1.6682 C   0  0  0  0  0  0  0  0  0  0  0  0
    3.5731    2.3330   -0.2926 C   0  0  0  0  0  0  0  0  0  0  0  0
    3.9967    1.1974    0.4042 C   0  0  0  0  0  0  0  0  0  0  0  0
    3.9405    1.3153    1.8798 C   0  0  0  0  0  0  0  0  0  0  0  0
    3.1498    3.5507   -2.3039 O   0  0  0  0  0  0  0  0  0  0  0  0
    3.6649   -2.8633   -0.7415 N   0  0  0  0  0  0  0  0  0  0  0  0
   -7.7925   -3.1457   -2.0969 H   0  0  0  0  0  0  0  0  0  0  0  0
   -6.3905   -1.9977   -1.8112 H   0  0  0  0  0  0  0  0  0  0  0  0
   -6.8234   -3.1707   -0.5128 H   0  0  0  0  0  0  0  0  0  0  0  0
   -6.2633   -4.4229   -3.2156 H   0  0  0  0  0  0  0  0  0  0  0  0
   -5.8371   -4.9837   -1.5799 H   0  0  0  0  0  0  0  0  0  0  0  0
   -2.5455   -1.7143   -2.5097 H   0  0  0  0  0  0  0  0  0  0  0  0
   -1.8826   -3.3146   -2.1388 H   0  0  0  0  0  0  0  0  0  0  0  0
   -2.2438   -3.6851    0.6296 H   0  0  0  0  0  0  0  0  0  0  0  0
   -0.6587   -3.7889   -0.1522 H   0  0  0  0  0  0  0  0  0  0  0  0
   -1.6144   -2.0431    2.1902 H   0  0  0  0  0  0  0  0  0  0  0  0
   -0.4390   -3.3370    2.3000 H   0  0  0  0  0  0  0  0  0  0  0  0
    0.5045   -1.0648    2.4171 H   0  0  0  0  0  0  0  0  0  0  0  0
   -2.9531    0.0491   -1.6062 H   0  0  0  0  0  0  0  0  0  0  0  0
   -2.5269    2.4390   -1.1213 H   0  0  0  0  0  0  0  0  0  0  0  0
    0.4414    1.2542    1.7000 H   0  0  0  0  0  0  0  0  0  0  0  0
   -0.9133    4.0760   -0.2951 H   0  0  0  0  0  0  0  0  0  0  0  0
    0.3069    3.6143    0.8968 H   0  0  0  0  0  0  0  0  0  0  0  0
   -0.3526    3.4595    3.3130 H   0  0  0  0  0  0  0  0  0  0  0  0
   -1.9416    4.4043    5.0332 H   0  0  0  0  0  0  0  0  0  0  0  0
   -4.0757    5.4338    4.2696 H   0  0  0  0  0  0  0  0  0  0  0  0
   -4.6450    5.5403    1.9433 H   0  0  0  0  0  0  0  0  0  0  0  0
   -3.1229    4.6243    0.2704 H   0  0  0  0  0  0  0  0  0  0  0  0
    1.2018   -2.1222   -0.3492 H   0  0  0  0  0  0  0  0  0  0  0  0
    4.3476   -3.1036    1.1695 H   0  0  0  0  0  0  0  0  0  0  0  0
    5.7741   -1.5743   -0.0640 H   0  0  0  0  0  0  0  0  0  0  0  0
    5.3038   -0.9100    1.4801 H   0  0  0  0  0  0  0  0  0  0  0  0
    4.1693   -1.5113   -3.0602 H   0  0  0  0  0  0  0  0  0  0  0  0
    5.7032   -1.5972   -2.0308 H   0  0  0  0  0  0  0  0  0  0  0  0
    5.6106   -0.4057   -3.3099 H   0  0  0  0  0  0  0  0  0  0  0  0
    4.0445    1.3390   -3.4118 H   0  0  0  0  0  0  0  0  0  0  0  0
    3.2119    3.2222    0.2431 H   0  0  0  0  0  0  0  0  0  0  0  0
    4.5693    0.6362    2.4441 H   0  0  0  0  0  0  0  0  0  0  0  0
    4.3333    2.3481    2.1309 H   0  0  0  0  0  0  0  0  0  0  0  0
    2.8856    1.3524    2.2460 H   0  0  0  0  0  0  0  0  0  0  0  0
    3.4778    4.4820   -2.0621 H   0  0  0  0  0  0  0  0  0  0  0  0
    3.7378   -3.8984   -0.7575 H   0  0  0  0  0  0  0  0  0  0  0  0
    2.8933   -2.4817   -1.2773 H   0  0  0  0  0  0  0  0  0  0  0  0
  1  2  1  0
  2  3  1  0
  3  4  1  0
  4  5  2  0
  4  6  1  0
  6  7  1  0
  7  8  1  0
  8  9  1  0
  9 10  1  0
 10 11  1  0
 11 12  2  0
 12 13  1  0
 13 14  2  0
 14 15  1  0
 15 16  2  0
 15 17  1  0
 17 18  1  0
 18 19  2  0
 19 20  1  0
 20 21  2  0
 21 22  1  0
 22 23  2  0
 10 24  1  0
 24 25  1  0
 25 26  2  0
 25 27  1  0
 27 28  1  0
 28 29  1  0
 29 30  2  0
 30 31  1  0
 30 32  1  0
 32 33  2  0
 33 34  1  0
 34 35  2  0
 35 36  1  0
 33 37  1  0
 27 38  1  0
 12  7  1  0
 23 18  1  0
 35 29  1  0
 16 11  1  0
  1 39  1  0
  1 40  1  0
  1 41  1  0
  2 42  1  0
  2 43  1  0
  6 44  1  0
  6 45  1  0
  8 46  1  0
  8 47  1  0
  9 48  1  0
  9 49  1  0
 10 50  1  1
 13 51  1  0
 14 52  1  0
 16 53  1  0
 17 54  1  0
 17 55  1  0
 19 56  1  0
 20 57  1  0
 21 58  1  0
 22 59  1  0
 23 60  1  0
 24 61  1  0
 27 62  1  1
 28 63  1  0
 28 64  1  0
 31 65  1  0
 31 66  1  0
 31 67  1  0
 32 68  1  0
 34 69  1  0
 36 70  1  0
 36 71  1  0
 36 72  1  0
 37 73  1  0
 38 74  1  0
 38 75  1  0
M  END
>  <Ligand ID>  (1) 
LIG0004455

>  <Ligand>  (1) 
CHEMBL3823815

>  <SMILES>  (1) 
CCOC(=O)CN1CC[C@H](c2c1ccc(c2)Cc1ccccc1)NC(=O)[C@H](Cc1c(C)cc(cc1C)O)N

>  <CID>  (1) 
127050831.0

>  <ChEMBL ID>  (1) 
nan

>  <InChiKey>  (1) 
XOSIMDZXJZLUIP-WUFINQPMSA-N

>  <InChi>  (1) 
InChI=1S/C31H37N3O4/c1-4-38-30(36)19-34-13-12-28(26-17-23(10-11-29(26)34)16-22-8-6-5-7-9-22)33-31(37)27(32)18-25-20(2)14-24(35)15-21(25)3/h5-11,14-15,17,27-28,35H,4,12-13,16,18-19,32H2,1-3H3,(H,33,37)/t27-,28+/m0/s1

>  <IUPAC Name>  (1) 
ethyl 2-[(4R)-4-[[(2S)-2-amino-3-(4-hydroxy-2,6-dimethylphenyl)propanoyl]amino]-6-benzyl-3,4-dihydro-2H-quinolin-1-yl]acetate

$$$$
