
     RDKit          3D

 17 18  0  0  0  0  0  0  0  0999 V2000
    3.9028    0.2912   -0.1753 O   0  0  0  0  0  0  0  0  0  0  0  0
    2.8886    0.8749    0.2872 C   0  0  0  0  0  0  0  0  0  0  0  0
    1.5601    0.3026    0.1093 C   0  0  0  0  0  0  0  0  0  0  0  0
    1.4144   -0.8761   -0.5645 C   0  0  0  0  0  0  0  0  0  0  0  0
    0.1554   -1.4488   -0.7508 C   0  0  0  0  0  0  0  0  0  0  0  0
   -0.9576   -0.7990   -0.2377 C   0  0  0  0  0  0  0  0  0  0  0  0
   -0.7855    0.3937    0.4411 C   0  0  0  0  0  0  0  0  0  0  0  0
    0.4624    0.9610    0.6256 C   0  0  0  0  0  0  0  0  0  0  0  0
   -2.0503    0.8084    0.8344 O   0  0  0  0  0  0  0  0  0  0  0  0
   -3.0151    0.0916    0.0981 C   0  0  0  0  0  0  0  0  0  0  0  0
   -2.3167   -1.0844   -0.2437 O   0  0  0  0  0  0  0  0  0  0  0  0
    3.0161    1.8192    0.8257 H   0  0  0  0  0  0  0  0  0  0  0  0
    2.2529   -1.3899   -0.9652 H   0  0  0  0  0  0  0  0  0  0  0  0
    0.0441   -2.3982   -1.2942 H   0  0  0  0  0  0  0  0  0  0  0  0
    0.5464    1.9087    1.1713 H   0  0  0  0  0  0  0  0  0  0  0  0
   -3.1813    0.6507   -0.8326 H   0  0  0  0  0  0  0  0  0  0  0  0
   -3.9367   -0.1056    0.6715 H   0  0  0  0  0  0  0  0  0  0  0  0
  1  2  2  0
  2  3  1  0
  3  4  2  0
  4  5  1  0
  5  6  2  0
  6  7  1  0
  7  8  2  0
  7  9  1  0
  9 10  1  0
 10 11  1  0
  8  3  1  0
 11  6  1  0
  2 12  1  0
  4 13  1  0
  5 14  1  0
  8 15  1  0
 10 16  1  0
 10 17  1  0
M  END
>  <Ligand ID>  (1) 
LIG0000160

>  <Ligand>  (1) 
Piperonal

>  <SMILES>  (1) 
O=Cc1ccc2c(c1)OCO2

>  <CID>  (1) 
8438.0

>  <ChEMBL ID>  (1) 
nan

>  <InChiKey>  (1) 
SATCULPHIDQDRE-UHFFFAOYSA-N

>  <InChi>  (1) 
InChI=1S/C8H6O3/c9-4-6-1-2-7-8(3-6)11-5-10-7/h1-4H,5H2

>  <IUPAC Name>  (1) 
1,3-benzodioxole-5-carbaldehyde

$$$$
