
     RDKit          3D

 48 52  0  0  0  0  0  0  0  0999 V2000
    5.6211   -0.5049   -0.1903 C   0  0  0  0  0  0  0  0  0  0  0  0
    4.4160    0.1093    0.1768 O   0  0  0  0  0  0  0  0  0  0  0  0
    3.1848   -0.5100    0.0028 C   0  0  0  0  0  0  0  0  0  0  0  0
    3.0548   -1.7778   -0.5450 C   0  0  0  0  0  0  0  0  0  0  0  0
    1.7988   -2.3766   -0.7080 C   0  0  0  0  0  0  0  0  0  0  0  0
    0.6870   -1.6808   -0.3125 C   0  0  0  0  0  0  0  0  0  0  0  0
    0.8484   -0.4427    0.2198 C   0  0  0  0  0  0  0  0  0  0  0  0
    2.0571    0.1769    0.3955 C   0  0  0  0  0  0  0  0  0  0  0  0
    1.7669    1.4099    0.9610 O   0  0  0  0  0  0  0  0  0  0  0  0
    0.4009    1.7503    0.6460 C   0  0  2  0  0  0  0  0  0  0  0  0
   -0.2596    0.4281    0.6948 C   0  0  2  0  0  0  0  0  0  0  0  0
   -0.6605   -0.0139    2.0629 C   0  0  0  0  0  0  0  0  0  0  0  0
   -2.0380   -0.5770    2.1329 C   0  0  0  0  0  0  0  0  0  0  0  0
   -2.3549   -1.5327    1.1292 N   0  0  0  0  0  0  0  0  0  0  0  0
   -1.7686   -1.2656   -0.1640 C   0  0  2  0  0  0  0  0  0  0  0  0
   -0.6818   -2.2338   -0.4497 C   0  0  0  0  0  0  0  0  0  0  0  0
   -1.4092    0.1885   -0.2254 C   0  0  2  0  0  0  0  0  0  0  0  0
   -1.2258    0.7426   -1.5954 C   0  0  0  0  0  0  0  0  0  0  0  0
   -0.8689    2.1980   -1.4447 C   0  0  2  0  0  0  0  0  0  0  0  0
    0.4480    2.3241   -0.7365 C   0  0  2  0  0  0  0  0  0  0  0  0
    1.5090    1.8247   -1.4881 O   0  0  0  0  0  0  0  0  0  0  0  0
   -1.8987    2.9190   -0.6279 C   0  0  0  0  0  0  0  0  0  0  0  0
   -3.7977   -1.5479    0.9655 C   0  0  0  0  0  0  0  0  0  0  0  0
    5.4947   -0.9755   -1.1888 H   0  0  0  0  0  0  0  0  0  0  0  0
    5.9368   -1.3069    0.5178 H   0  0  0  0  0  0  0  0  0  0  0  0
    6.3814    0.3005   -0.2861 H   0  0  0  0  0  0  0  0  0  0  0  0
    3.9578   -2.3041   -0.8490 H   0  0  0  0  0  0  0  0  0  0  0  0
    1.6944   -3.3685   -1.1365 H   0  0  0  0  0  0  0  0  0  0  0  0
    0.0939    2.4798    1.4111 H   0  0  0  0  0  0  0  0  0  0  0  0
    0.0435   -0.7546    2.4749 H   0  0  0  0  0  0  0  0  0  0  0  0
   -0.6394    0.8565    2.7690 H   0  0  0  0  0  0  0  0  0  0  0  0
   -2.1118   -1.1132    3.1196 H   0  0  0  0  0  0  0  0  0  0  0  0
   -2.7902    0.2518    2.2164 H   0  0  0  0  0  0  0  0  0  0  0  0
   -2.5341   -1.4097   -0.9838 H   0  0  0  0  0  0  0  0  0  0  0  0
   -0.7400   -3.0730    0.2738 H   0  0  0  0  0  0  0  0  0  0  0  0
   -0.7728   -2.7357   -1.4555 H   0  0  0  0  0  0  0  0  0  0  0  0
   -2.2989    0.7225    0.2213 H   0  0  0  0  0  0  0  0  0  0  0  0
   -2.2264    0.7109   -2.1086 H   0  0  0  0  0  0  0  0  0  0  0  0
   -0.5408    0.2061   -2.2474 H   0  0  0  0  0  0  0  0  0  0  0  0
   -0.8199    2.7029   -2.4258 H   0  0  0  0  0  0  0  0  0  0  0  0
    0.6587    3.4231   -0.6281 H   0  0  0  0  0  0  0  0  0  0  0  0
    1.3258    0.9932   -1.9628 H   0  0  0  0  0  0  0  0  0  0  0  0
   -1.8602    2.7004    0.4606 H   0  0  0  0  0  0  0  0  0  0  0  0
   -1.6277    4.0140   -0.6879 H   0  0  0  0  0  0  0  0  0  0  0  0
   -2.9341    2.8093   -0.9971 H   0  0  0  0  0  0  0  0  0  0  0  0
   -4.0088   -2.1543    0.0397 H   0  0  0  0  0  0  0  0  0  0  0  0
   -4.3080   -2.0488    1.8122 H   0  0  0  0  0  0  0  0  0  0  0  0
   -4.2033   -0.5348    0.7410 H   0  0  0  0  0  0  0  0  0  0  0  0
  1  2  1  0
  2  3  1  0
  3  4  2  0
  4  5  1  0
  5  6  2  0
  6  7  1  0
  7  8  2  0
  8  9  1  0
  9 10  1  0
 10 11  1  0
 11 12  1  1
 12 13  1  0
 13 14  1  0
 14 15  1  0
 15 16  1  0
 15 17  1  0
 17 18  1  0
 18 19  1  0
 19 20  1  0
 20 21  1  0
 19 22  1  0
 14 23  1  0
  8  3  1  0
 20 10  1  0
 16  6  1  0
 11  7  1  0
 17 11  1  0
  1 24  1  0
  1 25  1  0
  1 26  1  0
  4 27  1  0
  5 28  1  0
 10 29  1  1
 12 30  1  0
 12 31  1  0
 13 32  1  0
 13 33  1  0
 15 34  1  6
 16 35  1  0
 16 36  1  0
 17 37  1  1
 18 38  1  0
 18 39  1  0
 19 40  1  6
 20 41  1  1
 21 42  1  0
 22 43  1  0
 22 44  1  0
 22 45  1  0
 23 46  1  0
 23 47  1  0
 23 48  1  0
M  END
>  <Ligand ID>  (1) 
LIG0000798

>  <Ligand>  (1) 
CHEMBL2418738

>  <SMILES>  (1) 
COc1ccc2c3c1O[C@@H]1[C@@]43CCN([C@H](C2)[C@@H]4C[C@H]([C@@H]1O)C)C

>  <CID>  (1) 
71819400.0

>  <ChEMBL ID>  (1) 
nan

>  <InChiKey>  (1) 
HQHIVKNFSKYAOK-FGDXAMPGSA-N

>  <InChi>  (1) 
InChI=1S/C19H25NO3/c1-10-8-12-13-9-11-4-5-14(22-3)17-15(11)19(12,6-7-20(13)2)18(23-17)16(10)21/h4-5,10,12-13,16,18,21H,6-9H2,1-3H3/t10-,12+,13-,16+,18+,19+/m1/s1

>  <IUPAC Name>  (1) 
(4R,4aR,6R,7S,7aR,12bS)-9-methoxy-3,6-dimethyl-2,4,4a,5,6,7,7a,13-octahydro-1H-4,12-methanobenzofuro[3,2-e]isoquinolin-7-ol

$$$$
