
     RDKit          3D

 54 57  0  0  0  0  0  0  0  0999 V2000
    0.7307    0.3466   -2.2069 O   0  0  0  0  0  0  0  0  0  0  0  0
    0.4495    0.9741   -1.1279 C   0  0  0  0  0  0  0  0  0  0  0  0
   -0.8255    0.6283   -0.4816 N   0  0  0  0  0  0  0  0  0  0  0  0
   -1.5696   -0.3617   -1.1360 C   0  0  0  0  0  0  0  0  0  0  0  0
   -2.1302   -1.5346   -0.5030 C   0  0  0  0  0  0  0  0  0  0  0  0
   -3.2300   -2.2107   -1.3517 C   0  0  0  0  0  0  0  0  0  0  0  0
   -4.4206   -1.2968   -1.5047 C   0  0  0  0  0  0  0  0  0  0  0  0
   -4.0046    0.1679   -1.2799 C   0  0  0  0  0  0  0  0  0  0  0  0
   -2.6838    0.3027   -1.9618 C   0  0  0  0  0  0  0  0  0  0  0  0
   -1.0727    1.3196    0.7502 C   0  0  0  0  0  0  0  0  0  0  0  0
   -0.8745    0.4484    1.9678 C   0  0  0  0  0  0  0  0  0  0  0  0
   -1.8675    0.6320    3.0633 C   0  0  0  0  0  0  0  0  0  0  0  0
   -3.2432    0.9647    2.6278 C   0  0  0  0  0  0  0  0  0  0  0  0
   -3.2513    2.2068    1.7749 C   0  0  0  0  0  0  0  0  0  0  0  0
   -2.1340    2.3361    0.8034 C   0  0  0  0  0  0  0  0  0  0  0  0
    1.3641    1.9894   -0.5711 C   0  0  0  0  0  0  0  0  0  0  0  0
    2.7842    2.0989   -1.7386 S   0  0  0  0  0  0  0  0  0  0  0  0
    3.7111    0.5781   -1.7385 C   0  0  0  0  0  0  0  0  0  0  0  0
    3.5489   -0.5190   -2.4996 N   0  0  0  0  0  0  0  0  0  0  0  0
    4.4782   -1.3679   -2.1220 N   0  0  0  0  0  0  0  0  0  0  0  0
    5.2244   -0.8342   -1.1403 C   0  0  0  0  0  0  0  0  0  0  0  0
    4.7335    0.3547   -0.9263 O   0  0  0  0  0  0  0  0  0  0  0  0
    6.3569   -1.3950   -0.4159 C   0  0  0  0  0  0  0  0  0  0  0  0
    7.0347   -0.7305    0.5752 C   0  0  0  0  0  0  0  0  0  0  0  0
    8.0479   -1.5699    1.0351 C   0  0  0  0  0  0  0  0  0  0  0  0
    7.9215   -2.7270    0.2742 C   0  0  0  0  0  0  0  0  0  0  0  0
    6.9203   -2.5715   -0.5558 O   0  0  0  0  0  0  0  0  0  0  0  0
   -0.8774   -0.6958   -1.9979 H   0  0  0  0  0  0  0  0  0  0  0  0
   -1.3847   -2.3488   -0.3838 H   0  0  0  0  0  0  0  0  0  0  0  0
   -2.6227   -1.4101    0.4731 H   0  0  0  0  0  0  0  0  0  0  0  0
   -3.5830   -3.0777   -0.7506 H   0  0  0  0  0  0  0  0  0  0  0  0
   -2.8366   -2.6044   -2.2963 H   0  0  0  0  0  0  0  0  0  0  0  0
   -5.2938   -1.5739   -0.9084 H   0  0  0  0  0  0  0  0  0  0  0  0
   -4.7128   -1.3372   -2.5742 H   0  0  0  0  0  0  0  0  0  0  0  0
   -4.0103    0.2912   -0.1994 H   0  0  0  0  0  0  0  0  0  0  0  0
   -4.7457    0.8586   -1.6909 H   0  0  0  0  0  0  0  0  0  0  0  0
   -2.4693    1.3567   -2.1999 H   0  0  0  0  0  0  0  0  0  0  0  0
   -2.7754   -0.2950   -2.9247 H   0  0  0  0  0  0  0  0  0  0  0  0
   -0.1232    1.9796    0.8338 H   0  0  0  0  0  0  0  0  0  0  0  0
    0.1199    0.6181    2.4881 H   0  0  0  0  0  0  0  0  0  0  0  0
   -0.7687   -0.6432    1.7140 H   0  0  0  0  0  0  0  0  0  0  0  0
   -1.9317   -0.3513    3.6170 H   0  0  0  0  0  0  0  0  0  0  0  0
   -1.5003    1.3388    3.8649 H   0  0  0  0  0  0  0  0  0  0  0  0
   -3.7296    0.0886    2.1653 H   0  0  0  0  0  0  0  0  0  0  0  0
   -3.8384    1.1507    3.5632 H   0  0  0  0  0  0  0  0  0  0  0  0
   -4.2438    2.1932    1.2751 H   0  0  0  0  0  0  0  0  0  0  0  0
   -3.3196    3.0574    2.4846 H   0  0  0  0  0  0  0  0  0  0  0  0
   -2.5970    2.4290   -0.1978 H   0  0  0  0  0  0  0  0  0  0  0  0
   -1.7515    3.4054    0.9676 H   0  0  0  0  0  0  0  0  0  0  0  0
    0.9683    3.0059   -0.5216 H   0  0  0  0  0  0  0  0  0  0  0  0
    1.7816    1.5983    0.3853 H   0  0  0  0  0  0  0  0  0  0  0  0
    6.8778    0.2552    0.9812 H   0  0  0  0  0  0  0  0  0  0  0  0
    8.7814   -1.3898    1.8070 H   0  0  0  0  0  0  0  0  0  0  0  0
    8.5882   -3.5695    0.4151 H   0  0  0  0  0  0  0  0  0  0  0  0
  1  2  2  0
  2  3  1  0
  3  4  1  0
  4  5  1  0
  5  6  1  0
  6  7  1  0
  7  8  1  0
  8  9  1  0
  3 10  1  0
 10 11  1  0
 11 12  1  0
 12 13  1  0
 13 14  1  0
 14 15  1  0
  2 16  1  0
 16 17  1  0
 17 18  1  0
 18 19  2  0
 19 20  1  0
 20 21  2  0
 21 22  1  0
 21 23  1  0
 23 24  2  0
 24 25  1  0
 25 26  2  0
 26 27  1  0
  9  4  1  0
 15 10  1  0
 22 18  1  0
 27 23  1  0
  4 28  1  0
  5 29  1  0
  5 30  1  0
  6 31  1  0
  6 32  1  0
  7 33  1  0
  7 34  1  0
  8 35  1  0
  8 36  1  0
  9 37  1  0
  9 38  1  0
 10 39  1  0
 11 40  1  0
 11 41  1  0
 12 42  1  0
 12 43  1  0
 13 44  1  0
 13 45  1  0
 14 46  1  0
 14 47  1  0
 15 48  1  0
 15 49  1  0
 16 50  1  0
 16 51  1  0
 24 52  1  0
 25 53  1  0
 26 54  1  0
M  END
>  <Ligand ID>  (1) 
LIG0003056

>  <Ligand>  (1) 
BAS 03430808

>  <SMILES>  (1) 
O=C(N(C1CCCCC1)C1CCCCC1)CSc1nnc(o1)c1ccco1

>  <CID>  (1) 
1160618.0

>  <ChEMBL ID>  (1) 
nan

>  <InChiKey>  (1) 
RDOWZPRUCNSYJX-UHFFFAOYSA-N

>  <InChi>  (1) 
InChI=1S/C20H27N3O3S/c24-18(14-27-20-22-21-19(26-20)17-12-7-13-25-17)23(15-8-3-1-4-9-15)16-10-5-2-6-11-16/h7,12-13,15-16H,1-6,8-11,14H2

>  <IUPAC Name>  (1) 
N,N-dicyclohexyl-2-[[5-(furan-2-yl)-1,3,4-oxadiazol-2-yl]sulfanyl]acetamide

$$$$
