
     RDKit          3D

 33 33  0  0  0  0  0  0  0  0999 V2000
   -3.3654    2.1875    0.5470 F   0  0  0  0  0  0  0  0  0  0  0  0
   -3.6995    0.9591    1.1318 C   0  0  0  0  0  0  0  0  0  0  0  0
   -2.5406    0.3758    1.8774 C   0  0  0  0  0  0  0  0  0  0  0  0
   -1.4281    0.1371    1.1175 O   0  0  0  0  0  0  0  0  0  0  0  0
   -1.1529   -0.6465    0.0575 C   0  0  0  0  0  0  0  0  0  0  0  0
   -2.0003   -1.5060   -0.5986 C   0  0  0  0  0  0  0  0  0  0  0  0
   -1.6204   -2.2740   -1.6843 C   0  0  0  0  0  0  0  0  0  0  0  0
   -0.3280   -2.1933   -2.1546 C   0  0  0  0  0  0  0  0  0  0  0  0
    0.5407   -1.3515   -1.5284 C   0  0  0  0  0  0  0  0  0  0  0  0
    0.1569   -0.5962   -0.4566 C   0  0  0  0  0  0  0  0  0  0  0  0
    1.1586    0.2967    0.1723 C   0  0  2  0  0  0  0  0  0  0  0  0
    1.1640    1.7010   -0.4637 C   0  0  0  0  0  0  0  0  0  0  0  0
    2.3317    0.7834   -0.5804 C   0  0  1  0  0  0  0  0  0  0  0  0
    3.5458    1.1884    0.2292 C   0  0  0  0  0  0  0  0  0  0  0  0
    3.9747    0.0106    0.9757 N   0  0  0  0  0  0  0  0  0  0  0  0
    0.1831   -3.1518   -3.5257 Cl  0  0  0  0  0  0  0  0  0  0  0  0
    0.6885    0.0000    0.0000 Cl  0  0  0  0  0  0  0  0  0  0  0  0
   -4.4923    1.2220    1.8867 H   0  0  0  0  0  0  0  0  0  0  0  0
   -4.1702    0.2708    0.4435 H   0  0  0  0  0  0  0  0  0  0  0  0
   -2.2418    1.0982    2.7008 H   0  0  0  0  0  0  0  0  0  0  0  0
   -2.9169   -0.5318    2.4317 H   0  0  0  0  0  0  0  0  0  0  0  0
   -3.0189   -1.6163   -0.2689 H   0  0  0  0  0  0  0  0  0  0  0  0
   -2.3315   -2.9325   -2.1602 H   0  0  0  0  0  0  0  0  0  0  0  0
    1.5510   -1.2943   -1.9029 H   0  0  0  0  0  0  0  0  0  0  0  0
    1.2415    0.2124    1.2597 H   0  0  0  0  0  0  0  0  0  0  0  0
    1.1548    2.5387    0.2743 H   0  0  0  0  0  0  0  0  0  0  0  0
    0.5943    1.8741   -1.3824 H   0  0  0  0  0  0  0  0  0  0  0  0
    2.6076    0.4273   -1.5937 H   0  0  0  0  0  0  0  0  0  0  0  0
    4.3977    1.5025   -0.4073 H   0  0  0  0  0  0  0  0  0  0  0  0
    3.2983    2.0089    0.9526 H   0  0  0  0  0  0  0  0  0  0  0  0
    3.9014    0.1651    1.9924 H   0  0  0  0  0  0  0  0  0  0  0  0
    3.5046   -0.8654    0.6575 H   0  0  0  0  0  0  0  0  0  0  0  0
   -0.6885    0.0000    0.0000 H   0  0  0  0  0  0  0  0  0  0  0  0
  1  2  1  0
  2  3  1  0
  3  4  1  0
  4  5  1  0
  5  6  2  0
  6  7  1  0
  7  8  2  0
  8  9  1  0
  9 10  2  0
 10 11  1  0
 11 12  1  0
 12 13  1  0
 13 14  1  0
 14 15  1  0
  8 16  1  0
 10  5  1  0
 13 11  1  0
  2 18  1  0
  2 19  1  0
  3 20  1  0
  3 21  1  0
  6 22  1  0
  7 23  1  0
  9 24  1  0
 11 25  1  1
 12 26  1  0
 12 27  1  0
 13 28  1  6
 14 29  1  0
 14 30  1  0
 15 31  1  0
 15 32  1  0
 17 33  1  0
M  END
>  <Ligand ID>  (1) 
LIG0005715

>  <Ligand>  (1) 
CHEMBL3416054

>  <SMILES>  (1) 
FCCOc1ccc(cc1[C@@H]1C[C@H]1CN)Cl.Cl

>  <CID>  (1) 
118733803.0

>  <ChEMBL ID>  (1) 
nan

>  <InChiKey>  (1) 
XHNQQEONWOZBRI-KXNXZCPBSA-N

>  <InChi>  (1) 
InChI=1S/C12H15ClFNO.ClH/c13-9-1-2-12(16-4-3-14)11(6-9)10-5-8(10)7-15;/h1-2,6,8,10H,3-5,7,15H2;1H/t8-,10+;/m0./s1

>  <IUPAC Name>  (1) 
[(1R,2R)-2-[5-chloro-2-(2-fluoroethoxy)phenyl]cyclopropyl]methanamine;hydrochloride

$$$$
