
     RDKit          3D

130132  0  0  0  0  0  0  0  0999 V2000
    8.6502    4.4934   -2.9677 N   0  0  0  0  0  0  0  0  0  0  0  0
    9.4943    4.2526   -1.7916 C   0  0  0  0  0  0  0  0  0  0  0  0
    8.7131    3.5703   -0.7243 C   0  0  0  0  0  0  0  0  0  0  0  0
    8.1289    2.2278   -1.1112 C   0  0  1  0  0  0  0  0  0  0  0  0
    9.2248    1.2993   -1.5020 C   0  0  0  0  0  0  0  0  0  0  0  0
    9.9813    1.5185   -2.5061 O   0  0  0  0  0  0  0  0  0  0  0  0
    9.5153    0.0978   -0.7929 N   0  0  0  0  0  0  0  0  0  0  0  0
   10.6086   -0.7109   -1.2836 C   0  0  0  0  0  0  0  0  0  0  0  0
   10.7511   -1.9111   -0.4228 C   0  0  0  0  0  0  0  0  0  0  0  0
    9.9528   -2.0772    0.5531 O   0  0  0  0  0  0  0  0  0  0  0  0
   11.7857   -2.8350   -0.7271 N   0  0  0  0  0  0  0  0  0  0  0  0
    7.4679    1.6546    0.0769 N   0  0  0  0  0  0  0  0  0  0  0  0
    6.0944    1.2840    0.0724 C   0  0  0  0  0  0  0  0  0  0  0  0
    5.4691    1.4671   -1.0108 O   0  0  0  0  0  0  0  0  0  0  0  0
    5.5337    0.7357    1.2966 C   0  0  2  0  0  0  0  0  0  0  0  0
    6.2782   -0.4252    1.9005 C   0  0  0  0  0  0  0  0  0  0  0  0
    5.2153   -1.5404    2.0338 C   0  0  0  0  0  0  0  0  0  0  0  0
    4.3457   -1.1583    0.8505 C   0  0  0  0  0  0  0  0  0  0  0  0
    4.1392    0.2580    1.1634 N   0  0  0  0  0  0  0  0  0  0  0  0
    2.9798    1.0158    1.3821 C   0  0  0  0  0  0  0  0  0  0  0  0
    3.1959    2.3009    1.5017 O   0  0  0  0  0  0  0  0  0  0  0  0
    1.6092    0.6161    1.4977 C   0  0  2  0  0  0  0  0  0  0  0  0
    0.8960    1.4173    2.6078 C   0  0  0  0  0  0  0  0  0  0  0  0
    0.7582    3.1546    2.0936 S   0  0  0  0  0  0  0  0  0  0  0  0
   -0.6336    4.0433    3.4970 S   0  0  0  0  0  0  0  0  0  0  0  0
   -2.3027    3.7033    2.8011 C   0  0  0  0  0  0  0  0  0  0  0  0
   -2.4163    4.4435    1.4897 C   0  0  2  0  0  0  0  0  0  0  0  0
   -2.5131    5.8517    1.7081 N   0  0  0  0  0  0  0  0  0  0  0  0
   -3.5794    3.9483    0.7093 C   0  0  0  0  0  0  0  0  0  0  0  0
   -4.5794    4.5824    0.3899 O   0  0  0  0  0  0  0  0  0  0  0  0
   -3.5182    2.5903    0.2869 N   0  0  0  0  0  0  0  0  0  0  0  0
   -4.5567    1.8574   -0.3935 C   0  0  1  0  0  0  0  0  0  0  0  0
   -4.2618    1.3727   -1.7584 C   0  0  0  0  0  0  0  0  0  0  0  0
   -3.9611    2.5375   -2.6414 C   0  0  0  0  0  0  0  0  0  0  0  0
   -2.6950    2.9865   -2.9165 C   0  0  0  0  0  0  0  0  0  0  0  0
   -2.6082    4.1061   -3.7382 C   0  0  0  0  0  0  0  0  0  0  0  0
   -3.7155    4.7360   -4.2515 C   0  0  0  0  0  0  0  0  0  0  0  0
   -4.9923    4.2863   -3.9761 C   0  0  0  0  0  0  0  0  0  0  0  0
   -5.1030    3.1763   -3.1626 C   0  0  0  0  0  0  0  0  0  0  0  0
   -5.1222    0.8089    0.5024 C   0  0  0  0  0  0  0  0  0  0  0  0
   -4.7970    0.8619    1.7006 O   0  0  0  0  0  0  0  0  0  0  0  0
   -5.9863   -0.2468    0.1331 N   0  0  0  0  0  0  0  0  0  0  0  0
   -6.4903   -1.1084    1.1955 C   0  0  2  0  0  0  0  0  0  0  0  0
   -5.7791   -2.3436    1.4143 C   0  0  0  0  0  0  0  0  0  0  0  0
   -6.0962   -3.0851    2.3659 O   0  0  0  0  0  0  0  0  0  0  0  0
   -4.6838   -2.8717    0.6259 N   0  0  0  0  0  0  0  0  0  0  0  0
   -4.0301   -4.1078    1.0569 C   0  0  2  0  0  0  0  0  0  0  0  0
   -2.6015   -3.9636    1.2899 C   0  0  0  0  0  0  0  0  0  0  0  0
   -1.9627   -4.8093    1.8954 O   0  0  0  0  0  0  0  0  0  0  0  0
   -1.8077   -2.8358    0.8304 N   0  0  0  0  0  0  0  0  0  0  0  0
   -0.4496   -2.6333    1.1950 C   0  0  2  0  0  0  0  0  0  0  0  0
   -0.0471   -1.2174    1.1242 C   0  0  0  0  0  0  0  0  0  0  0  0
   -0.7133   -0.2937    0.6317 O   0  0  0  0  0  0  0  0  0  0  0  0
    1.2344   -0.7525    1.6655 N   0  0  0  0  0  0  0  0  0  0  0  0
    0.5635   -3.4481    0.3874 C   0  0  0  0  0  0  0  0  0  0  0  0
    0.5114   -3.1591   -1.0597 C   0  0  0  0  0  0  0  0  0  0  0  0
   -0.4709   -2.5408   -1.5646 O   0  0  0  0  0  0  0  0  0  0  0  0
    1.6209   -3.6035   -1.8447 N   0  0  0  0  0  0  0  0  0  0  0  0
   -4.3895   -5.1727    0.0427 C   0  0  0  0  0  0  0  0  0  0  0  0
   -3.9765   -4.8989   -1.3532 C   0  0  0  0  0  0  0  0  0  0  0  0
   -4.3734   -6.0046   -2.2669 C   0  0  0  0  0  0  0  0  0  0  0  0
   -4.9618   -7.0110   -1.8019 O   0  0  0  0  0  0  0  0  0  0  0  0
   -4.0711   -5.8897   -3.6485 N   0  0  0  0  0  0  0  0  0  0  0  0
   -7.9513   -1.3230    1.0108 C   0  0  2  0  0  0  0  0  0  0  0  0
   -8.7103    0.0148    1.0363 C   0  0  0  0  0  0  0  0  0  0  0  0
  -10.1799   -0.2715    0.8457 C   0  0  0  0  0  0  0  0  0  0  0  0
   -8.4869   -2.0646    2.2475 C   0  0  0  0  0  0  0  0  0  0  0  0
    8.9086    5.4098   -3.3662 H   0  0  0  0  0  0  0  0  0  0  0  0
    8.8406    3.7121   -3.6371 H   0  0  0  0  0  0  0  0  0  0  0  0
   10.3972    3.7444   -2.1358 H   0  0  0  0  0  0  0  0  0  0  0  0
    9.8354    5.2461   -1.4146 H   0  0  0  0  0  0  0  0  0  0  0  0
    7.8671    4.2425   -0.4001 H   0  0  0  0  0  0  0  0  0  0  0  0
    9.3523    3.3879    0.1622 H   0  0  0  0  0  0  0  0  0  0  0  0
    7.3740    2.3088   -1.9043 H   0  0  0  0  0  0  0  0  0  0  0  0
    8.9421   -0.1469    0.0335 H   0  0  0  0  0  0  0  0  0  0  0  0
   10.4262   -1.0449   -2.3152 H   0  0  0  0  0  0  0  0  0  0  0  0
   11.5358   -0.1049   -1.1894 H   0  0  0  0  0  0  0  0  0  0  0  0
   12.0410   -3.1600   -1.6713 H   0  0  0  0  0  0  0  0  0  0  0  0
   12.3198   -3.2013    0.1174 H   0  0  0  0  0  0  0  0  0  0  0  0
    8.0924    1.5472    0.9038 H   0  0  0  0  0  0  0  0  0  0  0  0
    5.5573    1.5601    2.0710 H   0  0  0  0  0  0  0  0  0  0  0  0
    7.1316   -0.7875    1.3384 H   0  0  0  0  0  0  0  0  0  0  0  0
    6.6231   -0.2461    2.9409 H   0  0  0  0  0  0  0  0  0  0  0  0
    4.6133   -1.3308    2.9459 H   0  0  0  0  0  0  0  0  0  0  0  0
    5.6460   -2.5344    1.9803 H   0  0  0  0  0  0  0  0  0  0  0  0
    3.4809   -1.7622    0.7430 H   0  0  0  0  0  0  0  0  0  0  0  0
    4.9487   -1.2528   -0.0857 H   0  0  0  0  0  0  0  0  0  0  0  0
    1.0500    1.0377    0.5738 H   0  0  0  0  0  0  0  0  0  0  0  0
   -0.1232    1.0044    2.6790 H   0  0  0  0  0  0  0  0  0  0  0  0
    1.3868    1.3391    3.5699 H   0  0  0  0  0  0  0  0  0  0  0  0
   -2.5234    2.6419    2.7581 H   0  0  0  0  0  0  0  0  0  0  0  0
   -3.0006    4.1570    3.5474 H   0  0  0  0  0  0  0  0  0  0  0  0
   -1.5245    4.2338    0.8369 H   0  0  0  0  0  0  0  0  0  0  0  0
   -3.3360    6.1254    2.2858 H   0  0  0  0  0  0  0  0  0  0  0  0
   -1.6198    6.2477    2.0793 H   0  0  0  0  0  0  0  0  0  0  0  0
   -2.6423    2.0990    0.4781 H   0  0  0  0  0  0  0  0  0  0  0  0
   -5.4264    2.6033   -0.5128 H   0  0  0  0  0  0  0  0  0  0  0  0
   -5.0947    0.7656   -2.1877 H   0  0  0  0  0  0  0  0  0  0  0  0
   -3.3646    0.7207   -1.7433 H   0  0  0  0  0  0  0  0  0  0  0  0
   -1.8458    2.4761   -2.5046 H   0  0  0  0  0  0  0  0  0  0  0  0
   -1.6298    4.4936   -3.9863 H   0  0  0  0  0  0  0  0  0  0  0  0
   -3.6574    5.6225   -4.8913 H   0  0  0  0  0  0  0  0  0  0  0  0
   -5.8900    4.7647   -4.3648 H   0  0  0  0  0  0  0  0  0  0  0  0
   -6.0980    2.8273   -2.9515 H   0  0  0  0  0  0  0  0  0  0  0  0
   -6.1957   -0.3289   -0.8593 H   0  0  0  0  0  0  0  0  0  0  0  0
   -6.3538   -0.5168    2.1677 H   0  0  0  0  0  0  0  0  0  0  0  0
   -4.4518   -2.3258   -0.1895 H   0  0  0  0  0  0  0  0  0  0  0  0
   -4.4627   -4.4914    2.0133 H   0  0  0  0  0  0  0  0  0  0  0  0
   -2.3424   -2.2126    0.2102 H   0  0  0  0  0  0  0  0  0  0  0  0
   -0.2950   -3.0111    2.2265 H   0  0  0  0  0  0  0  0  0  0  0  0
    1.7362   -1.4956    2.1478 H   0  0  0  0  0  0  0  0  0  0  0  0
    0.4918   -4.4954    0.6633 H   0  0  0  0  0  0  0  0  0  0  0  0
    1.5413   -3.0709    0.7492 H   0  0  0  0  0  0  0  0  0  0  0  0
    2.3911   -2.8645   -1.9654 H   0  0  0  0  0  0  0  0  0  0  0  0
    1.6937   -4.5501   -2.2696 H   0  0  0  0  0  0  0  0  0  0  0  0
   -3.9506   -6.1680    0.3250 H   0  0  0  0  0  0  0  0  0  0  0  0
   -5.4811   -5.3646    0.0370 H   0  0  0  0  0  0  0  0  0  0  0  0
   -2.9020   -4.7051   -1.5052 H   0  0  0  0  0  0  0  0  0  0  0  0
   -4.4863   -3.9689   -1.7600 H   0  0  0  0  0  0  0  0  0  0  0  0
   -3.2785   -5.2993   -4.0008 H   0  0  0  0  0  0  0  0  0  0  0  0
   -4.7067   -6.4392   -4.2983 H   0  0  0  0  0  0  0  0  0  0  0  0
   -8.2563   -1.9028    0.1440 H   0  0  0  0  0  0  0  0  0  0  0  0
   -8.5507    0.5288    1.9890 H   0  0  0  0  0  0  0  0  0  0  0  0
   -8.4111    0.6246    0.1440 H   0  0  0  0  0  0  0  0  0  0  0  0
  -10.7455   -0.1585    1.7999 H   0  0  0  0  0  0  0  0  0  0  0  0
  -10.6412    0.4775    0.1408 H   0  0  0  0  0  0  0  0  0  0  0  0
  -10.2938   -1.2773    0.3899 H   0  0  0  0  0  0  0  0  0  0  0  0
   -9.5182   -1.7507    2.4670 H   0  0  0  0  0  0  0  0  0  0  0  0
   -7.8702   -1.7903    3.1456 H   0  0  0  0  0  0  0  0  0  0  0  0
   -8.3984   -3.1465    2.0727 H   0  0  0  0  0  0  0  0  0  0  0  0
  1  2  1  0
  2  3  1  0
  3  4  1  0
  4  5  1  0
  5  6  2  0
  5  7  1  0
  7  8  1  0
  8  9  1  0
  9 10  2  0
  9 11  1  0
  4 12  1  0
 12 13  1  0
 13 14  2  0
 13 15  1  0
 15 16  1  0
 16 17  1  0
 17 18  1  0
 18 19  1  0
 19 20  1  0
 20 21  2  0
 20 22  1  0
 22 23  1  0
 23 24  1  0
 24 25  1  0
 25 26  1  0
 26 27  1  0
 27 28  1  0
 27 29  1  0
 29 30  2  0
 29 31  1  0
 31 32  1  0
 32 33  1  0
 33 34  1  0
 34 35  2  0
 35 36  1  0
 36 37  2  0
 37 38  1  0
 38 39  2  0
 32 40  1  0
 40 41  2  0
 40 42  1  0
 42 43  1  0
 43 44  1  0
 44 45  2  0
 44 46  1  0
 46 47  1  0
 47 48  1  0
 48 49  2  0
 48 50  1  0
 50 51  1  0
 51 52  1  0
 52 53  2  0
 52 54  1  0
 51 55  1  0
 55 56  1  0
 56 57  2  0
 56 58  1  0
 47 59  1  0
 59 60  1  0
 60 61  1  0
 61 62  2  0
 61 63  1  0
 43 64  1  0
 64 65  1  0
 65 66  1  0
 64 67  1  0
 19 15  1  0
 54 22  1  0
 39 34  1  0
  1 68  1  0
  1 69  1  0
  2 70  1  0
  2 71  1  0
  3 72  1  0
  3 73  1  0
  4 74  1  6
  7 75  1  0
  8 76  1  0
  8 77  1  0
 11 78  1  0
 11 79  1  0
 12 80  1  0
 15 81  1  1
 16 82  1  0
 16 83  1  0
 17 84  1  0
 17 85  1  0
 18 86  1  0
 18 87  1  0
 22 88  1  6
 23 89  1  0
 23 90  1  0
 26 91  1  0
 26 92  1  0
 27 93  1  6
 28 94  1  0
 28 95  1  0
 31 96  1  0
 32 97  1  6
 33 98  1  0
 33 99  1  0
 35100  1  0
 36101  1  0
 37102  1  0
 38103  1  0
 39104  1  0
 42105  1  0
 43106  1  1
 46107  1  0
 47108  1  1
 50109  1  0
 51110  1  1
 54111  1  0
 55112  1  0
 55113  1  0
 58114  1  0
 58115  1  0
 59116  1  0
 59117  1  0
 60118  1  0
 60119  1  0
 63120  1  0
 63121  1  0
 64122  1  6
 65123  1  0
 65124  1  0
 66125  1  0
 66126  1  0
 66127  1  0
 67128  1  0
 67129  1  0
 67130  1  0
M  END
>  <Ligand ID>  (1) 
LIG0001603

>  <Ligand>  (1) 
CHEMBL1819543

>  <SMILES>  (1) 
NCC[C@@H](C(=O)NCC(=O)N)NC(=O)[C@@H]1CCCN1C(=O)[C@@H]1CSSC[C@H](N)C(=O)N[C@@H](Cc2ccccc2)C(=O)N[C@H](C(=O)N[C@H](C(=O)N[C@H](C(=O)N1)CC(=O)N)CCC(=O)N)[C@H](CC)C

>  <CID>  (1) 
53362729.0

>  <ChEMBL ID>  (1) 
nan

>  <InChiKey>  (1) 
FKDJWZPMLPQQRV-VIZGXHJBSA-N

>  <InChi>  (1) 
InChI=1S/C41H63N13O11S2/c1-3-21(2)33-40(64)49-24(11-12-30(44)55)36(60)51-27(17-31(45)56)37(61)52-28(20-67-66-19-23(43)34(58)50-26(38(62)53-33)16-22-8-5-4-6-9-22)41(65)54-15-7-10-29(54)39(63)48-25(13-14-42)35(59)47-18-32(46)57/h4-6,8-9,21,23-29,33H,3,7,10-20,42-43H2,1-2H3,(H2,44,55)(H2,45,56)(H2,46,57)(H,47,59)(H,48,63)(H,49,64)(H,50,58)(H,51,60)(H,52,61)(H,53,62)/t21-,23-,24-,25-,26-,27-,28-,29-,33-/m0/s1

>  <IUPAC Name>  (1) 
(2S)-N-[(2S)-4-amino-1-[(2-amino-2-oxoethyl)amino]-1-oxobutan-2-yl]-1-[(4R,7S,10S,13S,16S,19R)-19-amino-7-(2-amino-2-oxoethyl)-10-(3-amino-3-oxopropyl)-16-benzyl-13-[(2S)-butan-2-yl]-6,9,12,15,18-pentaoxo-1,2-dithia-5,8,11,14,17-pentazacycloicosane-4-carbonyl]pyrrolidine-2-carboxamide

$$$$
