
     RDKit          3D

138140  0  0  0  0  0  0  0  0999 V2000
   -8.1041   -3.2637    4.1850 C   0  0  0  0  0  0  0  0  0  0  0  0
   -8.2831   -3.4292    2.7073 C   0  0  0  0  0  0  0  0  0  0  0  0
   -8.1499   -2.0873    2.0183 C   0  0  1  0  0  0  0  0  0  0  0  0
   -6.8527   -1.4289    2.2245 C   0  0  2  0  0  0  0  0  0  0  0  0
   -6.8580   -0.1309    1.5029 N   0  0  0  0  0  0  0  0  0  0  0  0
   -5.7857    0.7144    1.7653 C   0  0  0  0  0  0  0  0  0  0  0  0
   -4.9948    0.2240    2.6779 O   0  0  0  0  0  0  0  0  0  0  0  0
   -5.3571    2.0013    1.2473 C   0  0  1  0  0  0  0  0  0  0  0  0
   -3.9784    2.1426    1.7345 N   0  0  0  0  0  0  0  0  0  0  0  0
   -3.0985    3.2203    1.4925 C   0  0  0  0  0  0  0  0  0  0  0  0
   -3.5072    4.1543    0.8262 O   0  0  0  0  0  0  0  0  0  0  0  0
   -1.7198    3.0974    2.0810 C   0  0  0  0  0  0  0  0  0  0  0  0
   -0.6682    3.7262    1.1461 C   0  0  0  0  0  0  0  0  0  0  0  0
   -0.8282    2.8958   -0.1430 C   0  0  0  0  0  0  0  0  0  0  0  0
    0.3537    3.2646   -1.4048 S   0  0  0  0  0  0  0  0  0  0  0  0
    2.0256    2.7811   -1.1394 C   0  0  0  0  0  0  0  0  0  0  0  0
    2.3323    1.2804   -1.2106 C   0  0  2  0  0  0  0  0  0  0  0  0
    1.6029    0.5939   -0.2111 N   0  0  0  0  0  0  0  0  0  0  0  0
    0.6156   -0.4512   -0.4901 C   0  0  0  0  0  0  0  0  0  0  0  0
    0.4845   -0.6734   -1.6972 O   0  0  0  0  0  0  0  0  0  0  0  0
   -0.1095   -1.1226    0.6103 C   0  0  1  0  0  0  0  0  0  0  0  0
   -1.1137   -2.0779    0.2037 N   0  0  0  0  0  0  0  0  0  0  0  0
   -2.4720   -1.7340    0.4459 C   0  0  0  0  0  0  0  0  0  0  0  0
   -2.6457   -0.5925    0.9144 O   0  0  0  0  0  0  0  0  0  0  0  0
   -3.6690   -2.5524    0.2086 C   0  0  1  0  0  0  0  0  0  0  0  0
   -4.8737   -1.8073    0.6090 N   0  0  0  0  0  0  0  0  0  0  0  0
   -5.7129   -2.2626    1.6947 C   0  0  0  0  0  0  0  0  0  0  0  0
   -5.4073   -3.3761    2.1297 O   0  0  0  0  0  0  0  0  0  0  0  0
   -3.7660   -3.1152   -1.1390 C   0  0  0  0  0  0  0  0  0  0  0  0
   -3.7782   -2.0673   -2.1982 C   0  0  0  0  0  0  0  0  0  0  0  0
   -3.8825   -2.6749   -3.5594 C   0  0  0  0  0  0  0  0  0  0  0  0
   -3.8363   -3.9428   -3.6887 O   0  0  0  0  0  0  0  0  0  0  0  0
   -4.0318   -1.8652   -4.7159 N   0  0  0  0  0  0  0  0  0  0  0  0
    0.8932   -1.8292    1.4818 C   0  0  0  0  0  0  0  0  0  0  0  0
    0.2038   -2.5197    2.5839 C   0  0  0  0  0  0  0  0  0  0  0  0
    0.9514   -3.1379    3.4146 O   0  0  0  0  0  0  0  0  0  0  0  0
   -1.1775   -2.5746    2.8245 N   0  0  0  0  0  0  0  0  0  0  0  0
    3.8085    1.2167   -1.1788 C   0  0  0  0  0  0  0  0  0  0  0  0
    4.3802    1.9835   -2.0392 O   0  0  0  0  0  0  0  0  0  0  0  0
    4.6337    0.4471   -0.3470 N   0  0  0  0  0  0  0  0  0  0  0  0
    4.0492   -0.5115    0.6230 C   0  0  0  0  0  0  0  0  0  0  0  0
    5.1562   -1.4838    0.9900 C   0  0  0  0  0  0  0  0  0  0  0  0
    6.2312   -1.1757   -0.0060 C   0  0  0  0  0  0  0  0  0  0  0  0
    6.0304    0.3560   -0.1399 C   0  0  1  0  0  0  0  0  0  0  0  0
    6.9547    0.7536   -1.2048 C   0  0  0  0  0  0  0  0  0  0  0  0
    6.7189    1.1182   -2.3502 O   0  0  0  0  0  0  0  0  0  0  0  0
    8.3651    0.7046   -0.8332 N   0  0  0  0  0  0  0  0  0  0  0  0
    9.4147    1.0547   -1.7151 C   0  0  2  0  0  0  0  0  0  0  0  0
   10.4386   -0.0124   -1.8746 C   0  0  0  0  0  0  0  0  0  0  0  0
   11.4405    0.1614   -2.6469 O   0  0  0  0  0  0  0  0  0  0  0  0
   10.3814   -1.2579   -1.2054 N   0  0  0  0  0  0  0  0  0  0  0  0
   11.4612   -2.2085   -1.4611 C   0  0  0  0  0  0  0  0  0  0  0  0
   11.2849   -3.4526   -0.7099 C   0  0  0  0  0  0  0  0  0  0  0  0
   10.2683   -3.5606    0.0393 O   0  0  0  0  0  0  0  0  0  0  0  0
   12.2471   -4.4867   -0.8422 N   0  0  0  0  0  0  0  0  0  0  0  0
   10.0177    2.3758   -1.4007 C   0  0  0  0  0  0  0  0  0  0  0  0
   10.6328    2.5686   -0.0633 C   0  0  0  0  0  0  0  0  0  0  0  0
   11.2157    3.9982    0.0139 C   0  0  0  0  0  0  0  0  0  0  0  0
    9.6747    2.4846    1.1059 C   0  0  0  0  0  0  0  0  0  0  0  0
   -5.3065    2.1052   -0.2669 C   0  0  0  0  0  0  0  0  0  0  0  0
   -6.5559    1.9373   -0.9858 C   0  0  0  0  0  0  0  0  0  0  0  0
   -7.0430    0.8342   -1.6235 C   0  0  0  0  0  0  0  0  0  0  0  0
   -8.2513    0.7628   -2.2783 C   0  0  0  0  0  0  0  0  0  0  0  0
   -9.0742    1.8721   -2.3214 C   0  0  0  0  0  0  0  0  0  0  0  0
   -8.6150    3.0167   -1.6844 C   0  0  0  0  0  0  0  0  0  0  0  0
   -7.4000    3.0688   -1.0327 C   0  0  0  0  0  0  0  0  0  0  0  0
  -10.2891    1.8529   -2.9609 O   0  0  0  0  0  0  0  0  0  0  0  0
  -11.1463    2.9815   -3.0115 C   0  0  0  0  0  0  0  0  0  0  0  0
   -8.3363   -2.2643    0.5041 C   0  0  0  0  0  0  0  0  0  0  0  0
   -8.9824   -3.6804    4.7016 H   0  0  0  0  0  0  0  0  0  0  0  0
   -7.9685   -2.1831    4.4201 H   0  0  0  0  0  0  0  0  0  0  0  0
   -7.1709   -3.8080    4.4570 H   0  0  0  0  0  0  0  0  0  0  0  0
   -7.5868   -4.1405    2.2318 H   0  0  0  0  0  0  0  0  0  0  0  0
   -9.3115   -3.7892    2.4491 H   0  0  0  0  0  0  0  0  0  0  0  0
   -8.9568   -1.3854    2.3583 H   0  0  0  0  0  0  0  0  0  0  0  0
   -6.5246   -1.2472    3.2794 H   0  0  0  0  0  0  0  0  0  0  0  0
   -7.5999    0.1206    0.8959 H   0  0  0  0  0  0  0  0  0  0  0  0
   -5.8694    2.9170    1.6387 H   0  0  0  0  0  0  0  0  0  0  0  0
   -3.5854    1.4028    2.3408 H   0  0  0  0  0  0  0  0  0  0  0  0
   -1.7052    3.5625    3.0764 H   0  0  0  0  0  0  0  0  0  0  0  0
   -1.5121    2.0167    2.1983 H   0  0  0  0  0  0  0  0  0  0  0  0
   -0.8732    4.7898    0.9834 H   0  0  0  0  0  0  0  0  0  0  0  0
    0.3111    3.4790    1.5742 H   0  0  0  0  0  0  0  0  0  0  0  0
   -1.8537    3.1297   -0.5525 H   0  0  0  0  0  0  0  0  0  0  0  0
   -0.8845    1.8613    0.2019 H   0  0  0  0  0  0  0  0  0  0  0  0
    2.4204    3.0803   -0.1233 H   0  0  0  0  0  0  0  0  0  0  0  0
    2.6956    3.2606   -1.9000 H   0  0  0  0  0  0  0  0  0  0  0  0
    2.0663    0.9301   -2.2528 H   0  0  0  0  0  0  0  0  0  0  0  0
    1.7064    0.7832    0.7824 H   0  0  0  0  0  0  0  0  0  0  0  0
   -0.5529   -0.2826    1.2040 H   0  0  0  0  0  0  0  0  0  0  0  0
   -0.9610   -2.9783   -0.2426 H   0  0  0  0  0  0  0  0  0  0  0  0
   -3.5567   -3.4358    0.9200 H   0  0  0  0  0  0  0  0  0  0  0  0
   -5.1906   -0.9594    0.1606 H   0  0  0  0  0  0  0  0  0  0  0  0
   -4.7489   -3.6825   -1.1964 H   0  0  0  0  0  0  0  0  0  0  0  0
   -2.9487   -3.8683   -1.2914 H   0  0  0  0  0  0  0  0  0  0  0  0
   -2.7813   -1.5437   -2.1348 H   0  0  0  0  0  0  0  0  0  0  0  0
   -4.5825   -1.3347   -2.0822 H   0  0  0  0  0  0  0  0  0  0  0  0
   -3.3984   -1.8942   -5.5432 H   0  0  0  0  0  0  0  0  0  0  0  0
   -4.8267   -1.1633   -4.8001 H   0  0  0  0  0  0  0  0  0  0  0  0
    1.4934   -2.5612    0.8661 H   0  0  0  0  0  0  0  0  0  0  0  0
    1.5926   -1.0662    1.9205 H   0  0  0  0  0  0  0  0  0  0  0  0
   -1.6975   -3.4665    2.6203 H   0  0  0  0  0  0  0  0  0  0  0  0
   -1.6356   -1.7134    3.2051 H   0  0  0  0  0  0  0  0  0  0  0  0
    3.7675   -0.0168    1.5642 H   0  0  0  0  0  0  0  0  0  0  0  0
    3.2816   -1.1155    0.1323 H   0  0  0  0  0  0  0  0  0  0  0  0
    4.8293   -2.5376    0.9390 H   0  0  0  0  0  0  0  0  0  0  0  0
    5.5590   -1.3025    2.0213 H   0  0  0  0  0  0  0  0  0  0  0  0
    7.2421   -1.4241    0.3164 H   0  0  0  0  0  0  0  0  0  0  0  0
    5.9368   -1.5760   -0.9941 H   0  0  0  0  0  0  0  0  0  0  0  0
    6.3377    0.7983    0.8567 H   0  0  0  0  0  0  0  0  0  0  0  0
    8.6226    0.3712    0.1358 H   0  0  0  0  0  0  0  0  0  0  0  0
    8.9365    1.1730   -2.7424 H   0  0  0  0  0  0  0  0  0  0  0  0
    9.5901   -1.4603   -0.5635 H   0  0  0  0  0  0  0  0  0  0  0  0
   11.6042   -2.3377   -2.5492 H   0  0  0  0  0  0  0  0  0  0  0  0
   12.4020   -1.6889   -1.1135 H   0  0  0  0  0  0  0  0  0  0  0  0
   13.2081   -4.4001   -0.4606 H   0  0  0  0  0  0  0  0  0  0  0  0
   12.0273   -5.3830   -1.3321 H   0  0  0  0  0  0  0  0  0  0  0  0
    9.2815    3.1691   -1.6672 H   0  0  0  0  0  0  0  0  0  0  0  0
   10.8550    2.5202   -2.1527 H   0  0  0  0  0  0  0  0  0  0  0  0
   11.4689    1.8882    0.0994 H   0  0  0  0  0  0  0  0  0  0  0  0
   11.5103    4.2085    1.0768 H   0  0  0  0  0  0  0  0  0  0  0  0
   10.4958    4.7473   -0.3116 H   0  0  0  0  0  0  0  0  0  0  0  0
   12.1431    4.0836   -0.5820 H   0  0  0  0  0  0  0  0  0  0  0  0
    9.9003    3.3267    1.8363 H   0  0  0  0  0  0  0  0  0  0  0  0
    9.8117    1.5773    1.7261 H   0  0  0  0  0  0  0  0  0  0  0  0
    8.6465    2.6371    0.7260 H   0  0  0  0  0  0  0  0  0  0  0  0
   -4.6397    1.2428   -0.5783 H   0  0  0  0  0  0  0  0  0  0  0  0
   -4.8084    3.0609   -0.5194 H   0  0  0  0  0  0  0  0  0  0  0  0
   -6.4428   -0.0555   -1.6168 H   0  0  0  0  0  0  0  0  0  0  0  0
   -8.5937   -0.1353   -2.7688 H   0  0  0  0  0  0  0  0  0  0  0  0
   -9.2787    3.8907   -1.7270 H   0  0  0  0  0  0  0  0  0  0  0  0
   -7.1282    3.9868   -0.5715 H   0  0  0  0  0  0  0  0  0  0  0  0
  -10.6843    3.7246   -3.6852 H   0  0  0  0  0  0  0  0  0  0  0  0
  -12.1334    2.7306   -3.4118 H   0  0  0  0  0  0  0  0  0  0  0  0
  -11.2464    3.4543   -2.0018 H   0  0  0  0  0  0  0  0  0  0  0  0
   -7.4813   -1.8540   -0.0696 H   0  0  0  0  0  0  0  0  0  0  0  0
   -9.2358   -1.7170    0.1634 H   0  0  0  0  0  0  0  0  0  0  0  0
   -8.3945   -3.3564    0.2543 H   0  0  0  0  0  0  0  0  0  0  0  0
  1  2  1  0
  2  3  1  0
  3  4  1  0
  4  5  1  0
  5  6  1  0
  6  7  2  0
  6  8  1  0
  8  9  1  0
  9 10  1  0
 10 11  2  0
 10 12  1  0
 12 13  1  0
 13 14  1  0
 14 15  1  0
 15 16  1  0
 16 17  1  0
 17 18  1  0
 18 19  1  0
 19 20  2  0
 19 21  1  0
 21 22  1  0
 22 23  1  0
 23 24  2  0
 23 25  1  0
 25 26  1  0
 26 27  1  0
 27 28  2  0
 25 29  1  0
 29 30  1  0
 30 31  1  0
 31 32  2  0
 31 33  1  0
 21 34  1  0
 34 35  1  0
 35 36  2  0
 35 37  1  0
 17 38  1  0
 38 39  2  0
 38 40  1  0
 40 41  1  0
 41 42  1  0
 42 43  1  0
 43 44  1  0
 44 45  1  0
 45 46  2  0
 45 47  1  0
 47 48  1  0
 48 49  1  0
 49 50  2  0
 49 51  1  0
 51 52  1  0
 52 53  1  0
 53 54  2  0
 53 55  1  0
 48 56  1  0
 56 57  1  0
 57 58  1  0
 57 59  1  0
  8 60  1  0
 60 61  1  0
 61 62  2  0
 62 63  1  0
 63 64  2  0
 64 65  1  0
 65 66  2  0
 64 67  1  0
 67 68  1  0
  3 69  1  0
 27  4  1  0
 44 40  1  0
 66 61  1  0
  1 70  1  0
  1 71  1  0
  1 72  1  0
  2 73  1  0
  2 74  1  0
  3 75  1  1
  4 76  1  1
  5 77  1  0
  8 78  1  1
  9 79  1  0
 12 80  1  0
 12 81  1  0
 13 82  1  0
 13 83  1  0
 14 84  1  0
 14 85  1  0
 16 86  1  0
 16 87  1  0
 17 88  1  6
 18 89  1  0
 21 90  1  1
 22 91  1  0
 25 92  1  1
 26 93  1  0
 29 94  1  0
 29 95  1  0
 30 96  1  0
 30 97  1  0
 33 98  1  0
 33 99  1  0
 34100  1  0
 34101  1  0
 37102  1  0
 37103  1  0
 41104  1  0
 41105  1  0
 42106  1  0
 42107  1  0
 43108  1  0
 43109  1  0
 44110  1  1
 47111  1  0
 48112  1  6
 51113  1  0
 52114  1  0
 52115  1  0
 55116  1  0
 55117  1  0
 56118  1  0
 56119  1  0
 57120  1  0
 58121  1  0
 58122  1  0
 58123  1  0
 59124  1  0
 59125  1  0
 59126  1  0
 60127  1  0
 60128  1  0
 62129  1  0
 63130  1  0
 65131  1  0
 66132  1  0
 68133  1  0
 68134  1  0
 68135  1  0
 69136  1  0
 69137  1  0
 69138  1  0
M  END
>  <Ligand ID>  (1) 
LIG0001577

>  <Ligand>  (1) 
carbetocin

>  <SMILES>  (1) 
CC[C@@H]([C@@H]1NC(=O)[C@@H](NC(=O)CCCSC[C@H](NC(=O)[C@@H](NC(=O)[C@@H](NC1=O)CCC(=O)N)CC(=O)N)C(=O)N1CCC[C@H]1C(=O)N[C@H](C(=O)NCC(=O)N)CC(C)C)Cc1ccc(cc1)OC)C

>  <CID>  (1) 
16681432.0

>  <ChEMBL ID>  (1) 
nan

>  <InChiKey>  (1) 
NSTRIRCPWQHTIA-DTRKZRJBSA-N

>  <InChi>  (1) 
InChI=1S/C45H69N11O12S/c1-6-25(4)38-44(66)51-28(15-16-34(46)57)40(62)52-31(21-35(47)58)41(63)54-32(23-69-18-8-10-37(60)50-30(42(64)55-38)20-26-11-13-27(68-5)14-12-26)45(67)56-17-7-9-33(56)43(65)53-29(19-24(2)3)39(61)49-22-36(48)59/h11-14,24-25,28-33,38H,6-10,15-23H2,1-5H3,(H2,46,57)(H2,47,58)(H2,48,59)(H,49,61)(H,50,60)(H,51,66)(H,52,62)(H,53,65)(H,54,63)(H,55,64)/t25-,28-,29-,30-,31-,32-,33-,38-/m0/s1

>  <IUPAC Name>  (1) 
(2S)-N-[(2S)-1-[(2-amino-2-oxoethyl)amino]-4-methyl-1-oxopentan-2-yl]-1-[(3R,6S,9S,12S,15S)-6-(2-amino-2-oxoethyl)-9-(3-amino-3-oxopropyl)-12-[(2S)-butan-2-yl]-15-[(4-methoxyphenyl)methyl]-5,8,11,14,17-pentaoxo-1-thia-4,7,10,13,16-pentazacycloicosane-3-carbonyl]pyrrolidine-2-carboxamide

$$$$
