
     RDKit          3D

 28 29  0  0  0  0  0  0  0  0999 V2000
   -2.2349   -1.0939    0.4342 C   0  0  0  0  0  0  0  0  0  0  0  0
   -1.2561   -0.8683   -0.6848 C   0  0  0  0  0  0  0  0  0  0  0  0
   -1.6325    0.4166   -1.3972 C   0  0  0  0  0  0  0  0  0  0  0  0
   -2.0101    1.4345   -0.4317 N   0  0  0  0  0  0  0  0  0  0  0  0
   -0.8919    2.1773    0.0875 C   0  0  0  0  0  0  0  0  0  0  0  0
   -0.1067    1.4558    1.1457 C   0  0  0  0  0  0  0  0  0  0  0  0
    0.6639    0.3191    0.5753 C   0  0  0  0  0  0  0  0  0  0  0  0
    0.1372   -0.6799   -0.2195 C   0  0  0  0  0  0  0  0  0  0  0  0
    1.0039   -1.6807   -0.6757 C   0  0  0  0  0  0  0  0  0  0  0  0
    2.3460   -1.6585   -0.3337 C   0  0  0  0  0  0  0  0  0  0  0  0
    3.5617   -3.0068   -0.9366 Br  0  0  0  0  0  0  0  0  0  0  0  0
    2.8418   -0.6327    0.4714 C   0  0  0  0  0  0  0  0  0  0  0  0
    2.0027    0.3594    0.9286 C   0  0  0  0  0  0  0  0  0  0  0  0
    4.1722   -0.5619    0.8430 O   0  0  0  0  0  0  0  0  0  0  0  0
   -3.2017   -1.3705   -0.0767 H   0  0  0  0  0  0  0  0  0  0  0  0
   -2.4751   -0.1751    1.0028 H   0  0  0  0  0  0  0  0  0  0  0  0
   -1.9137   -1.8911    1.1291 H   0  0  0  0  0  0  0  0  0  0  0  0
   -1.3224   -1.7458   -1.3432 H   0  0  0  0  0  0  0  0  0  0  0  0
   -2.4973    0.1741   -2.0460 H   0  0  0  0  0  0  0  0  0  0  0  0
   -0.7504    0.7457   -2.0049 H   0  0  0  0  0  0  0  0  0  0  0  0
   -2.5546    2.1394   -1.0136 H   0  0  0  0  0  0  0  0  0  0  0  0
   -1.2940    3.1065    0.5437 H   0  0  0  0  0  0  0  0  0  0  0  0
   -0.1696    2.4743   -0.7049 H   0  0  0  0  0  0  0  0  0  0  0  0
    0.6311    2.1987    1.5322 H   0  0  0  0  0  0  0  0  0  0  0  0
   -0.6973    1.0971    1.9938 H   0  0  0  0  0  0  0  0  0  0  0  0
    0.6321   -2.4796   -1.2993 H   0  0  0  0  0  0  0  0  0  0  0  0
    2.3373    1.1815    1.5585 H   0  0  0  0  0  0  0  0  0  0  0  0
    4.6784   -1.4353    0.9221 H   0  0  0  0  0  0  0  0  0  0  0  0
  1  2  1  0
  2  3  1  0
  3  4  1  0
  4  5  1  0
  5  6  1  0
  6  7  1  0
  7  8  2  0
  8  9  1  0
  9 10  2  0
 10 11  1  0
 10 12  1  0
 12 13  2  0
 12 14  1  0
  8  2  1  0
 13  7  1  0
  1 15  1  0
  1 16  1  0
  1 17  1  0
  2 18  1  0
  3 19  1  0
  3 20  1  0
  4 21  1  0
  5 22  1  0
  5 23  1  0
  6 24  1  0
  6 25  1  0
  9 26  1  0
 13 27  1  0
 14 28  1  0
M  END
>  <Ligand ID>  (1) 
LIG0004023

>  <Ligand>  (1) 
CHEMBL178313

>  <SMILES>  (1) 
CC1CNCCc2c1cc(Br)c(c2)O

>  <CID>  (1) 
11777150.0

>  <ChEMBL ID>  (1) 
nan

>  <InChiKey>  (1) 
UWFSZQMKPCCKFT-UHFFFAOYSA-N

>  <InChi>  (1) 
InChI=1S/C11H14BrNO/c1-7-6-13-3-2-8-4-11(14)10(12)5-9(7)8/h4-5,7,13-14H,2-3,6H2,1H3

>  <IUPAC Name>  (1) 
7-bromo-5-methyl-2,3,4,5-tetrahydro-1H-3-benzazepin-8-ol

$$$$
