
     RDKit          3D

 46 48  0  0  0  0  0  0  0  0999 V2000
   -3.8251   -2.5340    1.1752 C   0  0  0  0  0  0  0  0  0  0  0  0
   -2.2933   -2.3579    1.2465 C   0  0  0  0  0  0  0  0  0  0  0  0
   -1.6584   -2.4812   -0.0989 C   0  0  0  0  0  0  0  0  0  0  0  0
   -2.0776   -1.4640   -1.0579 C   0  0  0  0  0  0  0  0  0  0  0  0
   -1.6908   -0.1119   -0.7643 N   0  0  0  0  0  0  0  0  0  0  0  0
   -2.4269    0.8254    0.0197 C   0  0  0  0  0  0  0  0  0  0  0  0
   -3.4728    0.5281    0.6684 O   0  0  0  0  0  0  0  0  0  0  0  0
   -2.0400    2.2327    0.1187 C   0  0  0  0  0  0  0  0  0  0  0  0
   -1.1426    2.8519    0.8820 C   0  0  0  0  0  0  0  0  0  0  0  0
   -0.9445    4.2406    0.7701 C   0  0  0  0  0  0  0  0  0  0  0  0
   -1.6625    5.0058   -0.1186 C   0  0  0  0  0  0  0  0  0  0  0  0
   -2.5898    4.3258   -0.8973 C   0  0  0  0  0  0  0  0  0  0  0  0
   -2.7517    3.0242   -0.7714 N   0  0  0  0  0  0  0  0  0  0  0  0
   -0.3871    0.3041   -1.2194 C   0  0  0  0  0  0  0  0  0  0  0  0
    0.7945   -0.0911   -0.5033 C   0  0  0  0  0  0  0  0  0  0  0  0
    1.9456   -0.3507   -1.3144 C   0  0  0  0  0  0  0  0  0  0  0  0
    3.1599   -0.6426   -0.7745 C   0  0  0  0  0  0  0  0  0  0  0  0
    4.2464   -0.8729   -1.6065 C   0  0  0  0  0  0  0  0  0  0  0  0
    5.4902   -1.1605   -1.0729 C   0  0  0  0  0  0  0  0  0  0  0  0
    5.7100   -1.2319    0.3008 C   0  0  0  0  0  0  0  0  0  0  0  0
    4.5981   -0.9964    1.0939 C   0  0  0  0  0  0  0  0  0  0  0  0
    3.3530   -0.7087    0.5814 C   0  0  0  0  0  0  0  0  0  0  0  0
    2.2766   -0.4682    1.3516 N   0  0  0  0  0  0  0  0  0  0  0  0
    1.0499   -0.1731    0.8223 C   0  0  0  0  0  0  0  0  0  0  0  0
    0.1474    0.0173    1.6363 O   0  0  0  0  0  0  0  0  0  0  0  0
   -4.2534   -2.1615    0.2487 H   0  0  0  0  0  0  0  0  0  0  0  0
   -4.0502   -3.6069    1.2857 H   0  0  0  0  0  0  0  0  0  0  0  0
   -4.2574   -2.0191    2.0640 H   0  0  0  0  0  0  0  0  0  0  0  0
   -2.0527   -1.4529    1.8078 H   0  0  0  0  0  0  0  0  0  0  0  0
   -1.9255   -3.2012    1.9072 H   0  0  0  0  0  0  0  0  0  0  0  0
   -1.9638   -3.4988   -0.5241 H   0  0  0  0  0  0  0  0  0  0  0  0
   -0.5412   -2.5374    0.0013 H   0  0  0  0  0  0  0  0  0  0  0  0
   -1.5599   -1.7064   -2.0539 H   0  0  0  0  0  0  0  0  0  0  0  0
   -3.1679   -1.5470   -1.3032 H   0  0  0  0  0  0  0  0  0  0  0  0
   -0.5477    2.3652    1.6055 H   0  0  0  0  0  0  0  0  0  0  0  0
   -0.1928    4.7094    1.4124 H   0  0  0  0  0  0  0  0  0  0  0  0
   -1.5364    6.0797   -0.2325 H   0  0  0  0  0  0  0  0  0  0  0  0
   -3.1932    4.8851   -1.6191 H   0  0  0  0  0  0  0  0  0  0  0  0
   -0.3819    1.4367   -1.2661 H   0  0  0  0  0  0  0  0  0  0  0  0
   -0.2695    0.0326   -2.3101 H   0  0  0  0  0  0  0  0  0  0  0  0
    1.8664   -0.3165   -2.3919 H   0  0  0  0  0  0  0  0  0  0  0  0
    4.0803   -0.8237   -2.6890 H   0  0  0  0  0  0  0  0  0  0  0  0
    6.3516   -1.3444   -1.6918 H   0  0  0  0  0  0  0  0  0  0  0  0
    6.6806   -1.4515    0.7018 H   0  0  0  0  0  0  0  0  0  0  0  0
    4.7143   -1.0402    2.1765 H   0  0  0  0  0  0  0  0  0  0  0  0
    2.3919   -0.5119    2.4032 H   0  0  0  0  0  0  0  0  0  0  0  0
  1  2  1  0
  2  3  1  0
  3  4  1  0
  4  5  1  0
  5  6  1  0
  6  7  2  0
  6  8  1  0
  8  9  2  0
  9 10  1  0
 10 11  2  0
 11 12  1  0
 12 13  2  0
  5 14  1  0
 14 15  1  0
 15 16  2  0
 16 17  1  0
 17 18  2  0
 18 19  1  0
 19 20  2  0
 20 21  1  0
 21 22  2  0
 22 23  1  0
 23 24  1  0
 24 25  2  0
 13  8  1  0
 24 15  1  0
 22 17  1  0
  1 26  1  0
  1 27  1  0
  1 28  1  0
  2 29  1  0
  2 30  1  0
  3 31  1  0
  3 32  1  0
  4 33  1  0
  4 34  1  0
  9 35  1  0
 10 36  1  0
 11 37  1  0
 12 38  1  0
 14 39  1  0
 14 40  1  0
 16 41  1  0
 18 42  1  0
 19 43  1  0
 20 44  1  0
 21 45  1  0
 23 46  1  0
M  END
>  <Ligand ID>  (1) 
LIG0004326

>  <Ligand>  (1) 
MLS000551700

>  <SMILES>  (1) 
CCCCN(C(=O)c1ccccn1)Cc1cc2ccccc2[nH]c1=O

>  <CID>  (1) 
4376926.0

>  <ChEMBL ID>  (1) 
nan

>  <InChiKey>  (1) 
HXEITUCGWRCNCS-UHFFFAOYSA-N

>  <InChi>  (1) 
InChI=1S/C20H21N3O2/c1-2-3-12-23(20(25)18-10-6-7-11-21-18)14-16-13-15-8-4-5-9-17(15)22-19(16)24/h4-11,13H,2-3,12,14H2,1H3,(H,22,24)

>  <IUPAC Name>  (1) 
N-butyl-N-[(2-oxo-1H-quinolin-3-yl)methyl]pyridine-2-carboxamide

$$$$
