
     RDKit          3D

 46 48  0  0  0  0  0  0  0  0999 V2000
   -0.1047    2.4965   -1.0622 O   0  0  0  0  0  0  0  0  0  0  0  0
   -0.8996    1.7381   -0.1864 C   0  0  2  0  0  0  0  0  0  0  0  0
    0.0488    0.7135    0.4523 C   0  0  2  0  0  0  0  0  0  0  0  0
    1.2804    1.2664    0.7487 O   0  0  0  0  0  0  0  0  0  0  0  0
    0.1188   -0.2597   -0.7092 C   0  0  2  0  0  0  0  0  0  0  0  0
   -1.2348   -0.4536   -0.9654 O   0  0  0  0  0  0  0  0  0  0  0  0
   -1.7952    0.8390   -0.9754 C   0  0  1  0  0  0  0  0  0  0  0  0
   -3.1799    0.8346   -0.5264 C   0  0  0  0  0  0  0  0  0  0  0  0
   -4.2776    1.4108   -0.9844 N   0  0  0  0  0  0  0  0  0  0  0  0
   -5.4395    1.2991   -0.4597 C   0  0  0  0  0  0  0  0  0  0  0  0
   -5.5465    0.4901    0.7061 C   0  0  0  0  0  0  0  0  0  0  0  0
   -3.7803   -0.0658    0.9237 S   0  0  0  0  0  0  0  0  0  0  0  0
   -6.6485    0.2370    1.4094 C   0  0  0  0  0  0  0  0  0  0  0  0
   -7.8518    0.8046    0.9968 C   0  0  0  0  0  0  0  0  0  0  0  0
   -7.7861    1.5940   -0.1285 C   0  0  0  0  0  0  0  0  0  0  0  0
   -6.6684    1.8543   -0.8468 C   0  0  0  0  0  0  0  0  0  0  0  0
    0.7830   -1.5465   -0.3455 C   0  0  0  0  0  0  0  0  0  0  0  0
    2.1354   -1.3401   -0.0918 O   0  0  0  0  0  0  0  0  0  0  0  0
    2.9747   -2.7210    0.3256 P   0  0  0  0  0  0  0  0  0  0  0  0
    3.6889   -2.5165    1.6540 O   0  0  0  0  0  0  0  0  0  0  0  0
    4.1374   -3.0750   -0.8255 O   0  0  0  0  0  0  0  0  0  0  0  0
    5.4505   -2.0445   -0.8295 P   0  0  0  0  0  0  0  0  0  0  0  0
    5.3324   -1.2017   -2.1011 O   0  0  0  0  0  0  0  0  0  0  0  0
    5.4824   -0.9569    0.4459 O   0  0  0  0  0  0  0  0  0  0  0  0
    6.0562    0.5669   -0.0188 P   0  0  0  0  0  0  0  0  0  0  0  0
    6.5626    0.5709   -1.4300 O   0  0  0  0  0  0  0  0  0  0  0  0
    4.8033    1.7083    0.1007 O   0  0  0  0  0  0  0  0  0  0  0  0
    7.2530    1.0377    1.0813 O   0  0  0  0  0  0  0  0  0  0  0  0
    6.9053   -2.9144   -0.9226 O   0  0  0  0  0  0  0  0  0  0  0  0
    1.9575   -4.0623    0.5227 O   0  0  0  0  0  0  0  0  0  0  0  0
   -0.5311    2.4981   -1.9755 H   0  0  0  0  0  0  0  0  0  0  0  0
   -1.4162    2.3500    0.5735 H   0  0  0  0  0  0  0  0  0  0  0  0
   -0.4565    0.2191    1.2866 H   0  0  0  0  0  0  0  0  0  0  0  0
    1.3419    1.5476    1.6921 H   0  0  0  0  0  0  0  0  0  0  0  0
    0.5452    0.2191   -1.6134 H   0  0  0  0  0  0  0  0  0  0  0  0
   -1.8124    1.1221   -2.0495 H   0  0  0  0  0  0  0  0  0  0  0  0
   -6.5960   -0.4007    2.2849 H   0  0  0  0  0  0  0  0  0  0  0  0
   -8.7454    0.6049    1.5595 H   0  0  0  0  0  0  0  0  0  0  0  0
   -8.7201    2.0502   -0.4705 H   0  0  0  0  0  0  0  0  0  0  0  0
   -6.7137    2.4928   -1.7257 H   0  0  0  0  0  0  0  0  0  0  0  0
    0.5708   -2.3181   -1.0852 H   0  0  0  0  0  0  0  0  0  0  0  0
    0.3416   -1.8799    0.6235 H   0  0  0  0  0  0  0  0  0  0  0  0
    5.2057    2.6206    0.1259 H   0  0  0  0  0  0  0  0  0  0  0  0
    8.0824    1.3315    0.6229 H   0  0  0  0  0  0  0  0  0  0  0  0
    6.6879   -3.8476   -0.6749 H   0  0  0  0  0  0  0  0  0  0  0  0
    2.4580   -4.9139    0.3517 H   0  0  0  0  0  0  0  0  0  0  0  0
  1  2  1  0
  2  3  1  0
  3  4  1  0
  3  5  1  0
  5  6  1  0
  6  7  1  0
  7  8  1  0
  8  9  2  0
  9 10  1  0
 10 11  2  0
 11 12  1  0
 11 13  1  0
 13 14  2  0
 14 15  1  0
 15 16  2  0
  5 17  1  0
 17 18  1  0
 18 19  1  0
 19 20  2  0
 19 21  1  0
 21 22  1  0
 22 23  2  0
 22 24  1  0
 24 25  1  0
 25 26  2  0
 25 27  1  0
 25 28  1  0
 22 29  1  0
 19 30  1  0
  7  2  1  0
 12  8  1  0
 16 10  1  0
  1 31  1  0
  2 32  1  1
  3 33  1  1
  4 34  1  0
  5 35  1  6
  7 36  1  6
 13 37  1  0
 14 38  1  0
 15 39  1  0
 16 40  1  0
 17 41  1  0
 17 42  1  0
 27 43  1  0
 28 44  1  0
 29 45  1  0
 30 46  1  0
M  END
>  <Ligand ID>  (1) 
LIG0002750

>  <Ligand>  (1) 
CHEMBL241481

>  <SMILES>  (1) 
O[C@@H]1[C@H](O)[C@H](O[C@H]1c1nc2c(s1)cccc2)COP(=O)(OP(=O)(OP(=O)(O)O)O)O

>  <CID>  (1) 
10303040.0

>  <ChEMBL ID>  (1) 
nan

>  <InChiKey>  (1) 
CIAGCYTVMPWBBD-QCNRFFRDSA-N

>  <InChi>  (1) 
InChI=1S/C12H16NO13P3S/c14-9-7(5-23-28(19,20)26-29(21,22)25-27(16,17)18)24-11(10(9)15)12-13-6-3-1-2-4-8(6)30-12/h1-4,7,9-11,14-15H,5H2,(H,19,20)(H,21,22)(H2,16,17,18)/t7-,9-,10-,11-/m1/s1

>  <IUPAC Name>  (1) 
[[(2R,3S,4R,5R)-5-(1,3-benzothiazol-2-yl)-3,4-dihydroxyoxolan-2-yl]methoxy-hydroxyphosphoryl] phosphono hydrogen phosphate

$$$$
