
     RDKit          3D

 51 56  0  0  0  0  0  0  0  0999 V2000
    9.4006    0.6042    1.5861 O   0  0  0  0  0  0  0  0  0  0  0  0
    8.1860    0.5802    1.2953 C   0  0  0  0  0  0  0  0  0  0  0  0
    7.5903    1.5281    0.4076 N   0  0  0  0  0  0  0  0  0  0  0  0
    6.2190    1.2105    0.3044 C   0  0  0  0  0  0  0  0  0  0  0  0
    5.9129    0.1089    1.0816 C   0  0  0  0  0  0  0  0  0  0  0  0
    7.1513   -0.3630    1.7640 C   0  0  0  0  0  0  0  0  0  0  0  0
    4.6075   -0.3764    1.1252 C   0  0  0  0  0  0  0  0  0  0  0  0
    3.5917    0.2299    0.3954 C   0  0  0  0  0  0  0  0  0  0  0  0
    3.9375    1.3159   -0.3595 C   0  0  0  0  0  0  0  0  0  0  0  0
    5.2233    1.8193   -0.4223 C   0  0  0  0  0  0  0  0  0  0  0  0
    2.3365   -0.3167    0.4993 O   0  0  0  0  0  0  0  0  0  0  0  0
    1.1932    0.1258   -0.1358 C   0  0  0  0  0  0  0  0  0  0  0  0
   -0.0524    0.2406    0.7413 C   0  0  0  0  0  0  0  0  0  0  0  0
   -0.8531   -0.4810   -0.1881 N   0  0  0  0  0  0  0  0  0  0  0  0
    0.4029   -0.9786   -0.7797 C   0  0  0  0  0  0  0  0  0  0  0  0
   -2.1926   -0.7629   -0.5685 C   0  0  0  0  0  0  0  0  0  0  0  0
   -3.2898   -0.2335    0.1223 C   0  0  0  0  0  0  0  0  0  0  0  0
   -2.8589    0.6144    1.2395 C   0  0  0  0  0  0  0  0  0  0  0  0
   -4.0974    0.9133    2.1052 C   0  0  0  0  0  0  0  0  0  0  0  0
   -4.8744    1.8541    1.3275 N   0  0  0  0  0  0  0  0  0  0  0  0
   -6.0234    1.2836    0.7118 C   0  0  0  0  0  0  0  0  0  0  0  0
   -5.9067   -0.1268    0.2573 C   0  0  0  0  0  0  0  0  0  0  0  0
   -4.5944   -0.5264   -0.2701 C   0  0  0  0  0  0  0  0  0  0  0  0
   -4.8029   -1.3435   -1.3468 N   0  0  0  0  0  0  0  0  0  0  0  0
   -3.7443   -1.8435   -1.9992 C   0  0  0  0  0  0  0  0  0  0  0  0
   -2.4802   -1.5724   -1.6356 N   0  0  0  0  0  0  0  0  0  0  0  0
   -1.6575   -2.1988   -2.4556 N   0  0  0  0  0  0  0  0  0  0  0  0
   -2.3775   -2.8798   -3.3559 C   0  0  0  0  0  0  0  0  0  0  0  0
   -3.7168   -2.6782   -3.0978 C   0  0  0  0  0  0  0  0  0  0  0  0
    8.0891    2.3162   -0.0770 H   0  0  0  0  0  0  0  0  0  0  0  0
    7.3463   -1.4048    1.4648 H   0  0  0  0  0  0  0  0  0  0  0  0
    6.9465   -0.2533    2.8486 H   0  0  0  0  0  0  0  0  0  0  0  0
    4.4254   -1.2382    1.7479 H   0  0  0  0  0  0  0  0  0  0  0  0
    3.1943    1.8296   -0.9480 H   0  0  0  0  0  0  0  0  0  0  0  0
    5.4414    2.6754   -1.0313 H   0  0  0  0  0  0  0  0  0  0  0  0
    1.3760    1.0103   -0.7730 H   0  0  0  0  0  0  0  0  0  0  0  0
    0.1738   -0.3140    1.6820 H   0  0  0  0  0  0  0  0  0  0  0  0
   -0.2362    1.3234    0.8772 H   0  0  0  0  0  0  0  0  0  0  0  0
    0.6599   -1.9876   -0.4026 H   0  0  0  0  0  0  0  0  0  0  0  0
    0.3700   -0.8674   -1.8831 H   0  0  0  0  0  0  0  0  0  0  0  0
   -2.5574    1.6408    0.9069 H   0  0  0  0  0  0  0  0  0  0  0  0
   -2.1596    0.1401    1.9406 H   0  0  0  0  0  0  0  0  0  0  0  0
   -4.6806   -0.0184    2.2295 H   0  0  0  0  0  0  0  0  0  0  0  0
   -3.7639    1.3460    3.0720 H   0  0  0  0  0  0  0  0  0  0  0  0
   -4.2857    2.3911    0.6460 H   0  0  0  0  0  0  0  0  0  0  0  0
   -6.8899    1.4453    1.3805 H   0  0  0  0  0  0  0  0  0  0  0  0
   -6.2264    1.8983   -0.2097 H   0  0  0  0  0  0  0  0  0  0  0  0
   -6.7219   -0.2949   -0.5090 H   0  0  0  0  0  0  0  0  0  0  0  0
   -6.1752   -0.8014    1.1024 H   0  0  0  0  0  0  0  0  0  0  0  0
   -2.0023   -3.4911   -4.1586 H   0  0  0  0  0  0  0  0  0  0  0  0
   -4.5541   -3.0925   -3.6476 H   0  0  0  0  0  0  0  0  0  0  0  0
  1  2  2  0
  2  3  1  0
  3  4  1  0
  4  5  2  0
  5  6  1  0
  5  7  1  0
  7  8  2  0
  8  9  1  0
  9 10  2  0
  8 11  1  0
 11 12  1  0
 12 13  1  0
 13 14  1  0
 14 15  1  0
 14 16  1  0
 16 17  2  0
 17 18  1  0
 18 19  1  0
 19 20  1  0
 20 21  1  0
 21 22  1  0
 22 23  1  0
 23 24  2  0
 24 25  1  0
 25 26  1  0
 26 27  1  0
 27 28  2  0
 28 29  1  0
  6  2  1  0
 15 12  1  0
 26 16  1  0
 10  4  1  0
 23 17  1  0
 29 25  2  0
  3 30  1  0
  6 31  1  0
  6 32  1  0
  7 33  1  0
  9 34  1  0
 10 35  1  0
 12 36  1  0
 13 37  1  0
 13 38  1  0
 15 39  1  0
 15 40  1  0
 18 41  1  0
 18 42  1  0
 19 43  1  0
 19 44  1  0
 20 45  1  0
 21 46  1  0
 21 47  1  0
 22 48  1  0
 22 49  1  0
 28 50  1  0
 29 51  1  0
M  END
>  <Ligand ID>  (1) 
LIG0003244

>  <Ligand>  (1) 
CHEMBL1643859

>  <SMILES>  (1) 
O=C1Nc2c(C1)cc(cc2)OC1CN(C1)c1c2CCNCCc2nc2n1ncc2

>  <CID>  (1) 
53317925.0

>  <ChEMBL ID>  (1) 
nan

>  <InChiKey>  (1) 
BLAATJSMNSTOKH-UHFFFAOYSA-N

>  <InChi>  (1) 
InChI=1S/C21H22N6O2/c28-20-10-13-9-14(1-2-17(13)25-20)29-15-11-26(12-15)21-16-3-6-22-7-4-18(16)24-19-5-8-23-27(19)21/h1-2,5,8-9,15,22H,3-4,6-7,10-12H2,(H,25,28)

>  <IUPAC Name>  (1) 
5-[1-(2,6,7,12-tetrazatricyclo[7.5.0.03,7]tetradeca-1,3,5,8-tetraen-8-yl)azetidin-3-yl]oxy-1,3-dihydroindol-2-one

$$$$
