
     RDKit          3D

 79 83  0  0  0  0  0  0  0  0999 V2000
   -1.8248    0.1126   -2.0928 O   0  0  0  0  0  0  0  0  0  0  0  0
   -1.8141   -0.3884   -0.7880 C   0  0  2  0  0  0  0  0  0  0  0  0
   -2.7630    0.3712    0.1033 C   0  0  0  0  0  0  0  0  0  0  0  0
   -4.0495    0.2976   -0.3610 O   0  0  0  0  0  0  0  0  0  0  0  0
   -4.9353   -0.6938   -0.5560 C   0  0  0  0  0  0  0  0  0  0  0  0
   -4.7657   -2.0334   -0.2972 C   0  0  0  0  0  0  0  0  0  0  0  0
   -5.7296   -2.9924   -0.5251 C   0  0  0  0  0  0  0  0  0  0  0  0
   -6.9397   -2.5957   -1.0428 C   0  0  0  0  0  0  0  0  0  0  0  0
   -7.1689   -1.2678   -1.3221 C   0  0  0  0  0  0  0  0  0  0  0  0
   -6.1906   -0.3309   -1.0855 C   0  0  0  0  0  0  0  0  0  0  0  0
   -6.7167    1.0178   -1.4761 C   0  0  0  0  0  0  0  0  0  0  0  0
   -6.7040    1.9600   -0.2939 C   0  0  0  0  0  0  0  0  0  0  0  0
   -7.5144    1.5260    0.8439 C   0  0  0  0  0  0  0  0  0  0  0  0
   -8.8440    1.9156    0.9014 C   0  0  0  0  0  0  0  0  0  0  0  0
   -9.6765    1.5429    1.9497 C   0  0  0  0  0  0  0  0  0  0  0  0
   -9.2046    0.7594    2.9881 C   0  0  0  0  0  0  0  0  0  0  0  0
   -7.8916    0.3737    2.9326 C   0  0  0  0  0  0  0  0  0  0  0  0
   -7.0613    0.7451    1.8881 C   0  0  0  0  0  0  0  0  0  0  0  0
   -8.0621    0.7231   -1.9611 C   0  0  0  0  0  0  0  0  0  0  0  0
   -8.8672    1.5854   -2.4081 O   0  0  0  0  0  0  0  0  0  0  0  0
   -8.3382   -0.6672   -1.8602 N   0  0  0  0  0  0  0  0  0  0  0  0
   -0.4128   -0.0963   -0.2320 C   0  0  0  0  0  0  0  0  0  0  0  0
    0.5218   -0.7605   -1.0683 N   0  0  0  0  0  0  0  0  0  0  0  0
    1.8988   -0.6147   -0.7181 C   0  0  0  0  0  0  0  0  0  0  0  0
    2.7072   -1.3849   -1.7373 C   0  0  0  0  0  0  0  0  0  0  0  0
    4.1573   -1.3331   -1.5138 C   0  0  0  0  0  0  0  0  0  0  0  0
    4.8931   -0.3118   -2.1072 C   0  0  0  0  0  0  0  0  0  0  0  0
    6.2506   -0.1847   -1.9551 C   0  0  0  0  0  0  0  0  0  0  0  0
    6.9222   -1.1085   -1.1796 C   0  0  0  0  0  0  0  0  0  0  0  0
    6.2290   -2.1358   -0.5744 C   0  0  0  0  0  0  0  0  0  0  0  0
    4.8538   -2.2524   -0.7371 C   0  0  0  0  0  0  0  0  0  0  0  0
    8.2838   -0.9691   -1.0356 O   0  0  0  0  0  0  0  0  0  0  0  0
    8.8290   -0.2242   -0.0134 C   0  0  0  0  0  0  0  0  0  0  0  0
   10.2065   -0.1408    0.0509 C   0  0  0  0  0  0  0  0  0  0  0  0
   10.8660    0.5746    1.0277 C   0  0  0  0  0  0  0  0  0  0  0  0
   10.1231    1.2265    1.9691 C   0  0  0  0  0  0  0  0  0  0  0  0
    8.7506    1.1373    1.8964 C   0  0  0  0  0  0  0  0  0  0  0  0
    8.1318    0.4244    0.9213 N   0  0  0  0  0  0  0  0  0  0  0  0
   10.8048    1.9881    3.0088 C   0  0  0  0  0  0  0  0  0  0  0  0
   12.0697    2.0017    2.9767 O   0  0  0  0  0  0  0  0  0  0  0  0
   10.1135    2.6949    4.0276 N   0  0  0  0  0  0  0  0  0  0  0  0
    2.0963   -1.1644    0.6802 C   0  0  0  0  0  0  0  0  0  0  0  0
    2.3798    0.8102   -0.7083 C   0  0  0  0  0  0  0  0  0  0  0  0
   -1.6064    1.0851   -2.1066 H   0  0  0  0  0  0  0  0  0  0  0  0
   -1.9697   -1.4587   -0.8451 H   0  0  0  0  0  0  0  0  0  0  0  0
   -2.4058    1.4142    0.2752 H   0  0  0  0  0  0  0  0  0  0  0  0
   -2.7205   -0.1730    1.0966 H   0  0  0  0  0  0  0  0  0  0  0  0
   -3.8362   -2.3840    0.1223 H   0  0  0  0  0  0  0  0  0  0  0  0
   -5.5335   -4.0291   -0.3002 H   0  0  0  0  0  0  0  0  0  0  0  0
   -7.6743   -3.3653   -1.2106 H   0  0  0  0  0  0  0  0  0  0  0  0
   -6.0594    1.4410   -2.2380 H   0  0  0  0  0  0  0  0  0  0  0  0
   -5.6321    1.9933    0.0563 H   0  0  0  0  0  0  0  0  0  0  0  0
   -6.9082    2.9753   -0.6586 H   0  0  0  0  0  0  0  0  0  0  0  0
   -9.3041    2.5281    0.1372 H   0  0  0  0  0  0  0  0  0  0  0  0
  -10.7175    1.8455    1.9994 H   0  0  0  0  0  0  0  0  0  0  0  0
   -9.8414    0.4724    3.7935 H   0  0  0  0  0  0  0  0  0  0  0  0
   -7.5138   -0.2394    3.7389 H   0  0  0  0  0  0  0  0  0  0  0  0
   -6.0296    0.4205    1.8818 H   0  0  0  0  0  0  0  0  0  0  0  0
   -9.2310   -1.1582   -2.1299 H   0  0  0  0  0  0  0  0  0  0  0  0
   -0.3198   -0.5146    0.7889 H   0  0  0  0  0  0  0  0  0  0  0  0
   -0.3048    0.9862   -0.1633 H   0  0  0  0  0  0  0  0  0  0  0  0
    0.3125   -0.8082   -2.0707 H   0  0  0  0  0  0  0  0  0  0  0  0
    2.4057   -1.0347   -2.7458 H   0  0  0  0  0  0  0  0  0  0  0  0
    2.4083   -2.4738   -1.7282 H   0  0  0  0  0  0  0  0  0  0  0  0
    4.4065    0.4423   -2.7298 H   0  0  0  0  0  0  0  0  0  0  0  0
    6.8083    0.6120   -2.4207 H   0  0  0  0  0  0  0  0  0  0  0  0
    6.7582   -2.8639    0.0361 H   0  0  0  0  0  0  0  0  0  0  0  0
    4.2766   -3.0370   -0.2830 H   0  0  0  0  0  0  0  0  0  0  0  0
   10.8187   -0.6488   -0.6838 H   0  0  0  0  0  0  0  0  0  0  0  0
   11.9355    0.6060    1.0319 H   0  0  0  0  0  0  0  0  0  0  0  0
    8.1713    1.6504    2.6373 H   0  0  0  0  0  0  0  0  0  0  0  0
    9.7584    3.6634    3.8863 H   0  0  0  0  0  0  0  0  0  0  0  0
    9.9671    2.2076    4.9439 H   0  0  0  0  0  0  0  0  0  0  0  0
    1.6302   -0.4067    1.3756 H   0  0  0  0  0  0  0  0  0  0  0  0
    3.1574   -1.3021    0.9325 H   0  0  0  0  0  0  0  0  0  0  0  0
    1.5095   -2.0945    0.8174 H   0  0  0  0  0  0  0  0  0  0  0  0
    2.3935    1.2703   -1.7219 H   0  0  0  0  0  0  0  0  0  0  0  0
    3.4341    0.8005   -0.3587 H   0  0  0  0  0  0  0  0  0  0  0  0
    1.8418    1.4406    0.0284 H   0  0  0  0  0  0  0  0  0  0  0  0
  1  2  1  0
  2  3  1  0
  3  4  1  0
  4  5  1  0
  5  6  2  0
  6  7  1  0
  7  8  2  0
  8  9  1  0
  9 10  2  0
 10 11  1  0
 11 12  1  0
 12 13  1  0
 13 14  2  0
 14 15  1  0
 15 16  2  0
 16 17  1  0
 17 18  2  0
 11 19  1  0
 19 20  2  0
 19 21  1  0
  2 22  1  0
 22 23  1  0
 23 24  1  0
 24 25  1  0
 25 26  1  0
 26 27  2  0
 27 28  1  0
 28 29  2  0
 29 30  1  0
 30 31  2  0
 29 32  1  0
 32 33  1  0
 33 34  2  0
 34 35  1  0
 35 36  2  0
 36 37  1  0
 37 38  2  0
 36 39  1  0
 39 40  2  0
 39 41  1  0
 24 42  1  0
 24 43  1  0
 10  5  1  0
 18 13  1  0
 31 26  1  0
 38 33  1  0
 21  9  1  0
  1 44  1  0
  2 45  1  6
  3 46  1  0
  3 47  1  0
  6 48  1  0
  7 49  1  0
  8 50  1  0
 11 51  1  0
 12 52  1  0
 12 53  1  0
 14 54  1  0
 15 55  1  0
 16 56  1  0
 17 57  1  0
 18 58  1  0
 21 59  1  0
 22 60  1  0
 22 61  1  0
 23 62  1  0
 25 63  1  0
 25 64  1  0
 27 65  1  0
 28 66  1  0
 30 67  1  0
 31 68  1  0
 34 69  1  0
 35 70  1  0
 37 71  1  0
 41 72  1  0
 41 73  1  0
 42 74  1  0
 42 75  1  0
 42 76  1  0
 43 77  1  0
 43 78  1  0
 43 79  1  0
M  END
>  <Ligand ID>  (1) 
LIG0003396

>  <Ligand>  (1) 
CHEMBL401335

>  <SMILES>  (1) 
O[C@H](COc1cccc2c1C(Cc1ccccc1)C(=O)N2)CNC(Cc1ccc(cc1)Oc1ccc(cn1)C(=O)N)(C)C

>  <CID>  (1) 
44444169.0

>  <ChEMBL ID>  (1) 
nan

>  <InChiKey>  (1) 
NNYKUVQEGQHDMX-PVCWFJFTSA-N

>  <InChi>  (1) 
InChI=1S/C34H36N4O5/c1-34(2,18-23-11-14-26(15-12-23)43-30-16-13-24(19-36-30)32(35)40)37-20-25(39)21-42-29-10-6-9-28-31(29)27(33(41)38-28)17-22-7-4-3-5-8-22/h3-16,19,25,27,37,39H,17-18,20-21H2,1-2H3,(H2,35,40)(H,38,41)/t25-,27?/m0/s1

>  <IUPAC Name>  (1) 
6-[4-[2-[[(2S)-3-[(3-benzyl-2-oxo-1,3-dihydroindol-4-yl)oxy]-2-hydroxypropyl]amino]-2-methylpropyl]phenoxy]pyridine-3-carboxamide

$$$$
