
     RDKit          3D

 52 53  0  0  0  0  0  0  0  0999 V2000
    2.0470   -1.5402   -2.4187 C   0  0  0  0  0  0  0  0  0  0  0  0
    1.2132   -0.8186   -1.3620 C   0  0  2  0  0  0  0  0  0  0  0  0
    0.3748    0.1872   -2.0591 C   0  0  0  0  0  0  0  0  0  0  0  0
   -0.4889    0.9840   -1.2614 N   0  0  0  0  0  0  0  0  0  0  0  0
   -1.6446    0.5689   -0.5666 C   0  0  0  0  0  0  0  0  0  0  0  0
   -2.1625   -0.7038   -0.5913 C   0  0  0  0  0  0  0  0  0  0  0  0
   -3.3017   -1.0657    0.1288 C   0  0  0  0  0  0  0  0  0  0  0  0
   -3.9699   -0.1365    0.9130 C   0  0  0  0  0  0  0  0  0  0  0  0
   -3.4625    1.1316    0.9432 C   0  0  0  0  0  0  0  0  0  0  0  0
   -2.3422    1.4832    0.2340 C   0  0  0  0  0  0  0  0  0  0  0  0
   -5.1604   -0.6007    1.6414 C   0  0  0  0  0  0  0  0  0  0  0  0
   -6.3826   -0.4671    0.8772 N   0  0  0  0  0  0  0  0  0  0  0  0
   -7.0602    0.7618    0.6753 C   0  0  0  0  0  0  0  0  0  0  0  0
   -6.6604    1.8542    1.1447 O   0  0  0  0  0  0  0  0  0  0  0  0
   -8.3014    0.7716   -0.1268 C   0  0  0  0  0  0  0  0  0  0  0  0
    2.0636   -0.2650   -0.3334 N   0  0  0  0  0  0  0  0  0  0  0  0
    2.8075   -1.2740    0.3402 C   0  0  0  0  0  0  0  0  0  0  0  0
    3.7117   -0.7698    1.4371 C   0  0  1  0  0  0  0  0  0  0  0  0
    4.8689    0.0039    0.9316 C   0  0  0  0  0  0  0  0  0  0  0  0
    4.8124    1.3488    0.6335 C   0  0  0  0  0  0  0  0  0  0  0  0
    5.9488    2.0018    0.1620 C   0  0  0  0  0  0  0  0  0  0  0  0
    7.1500    1.3233   -0.0168 C   0  0  0  0  0  0  0  0  0  0  0  0
    7.2015   -0.0059    0.2792 C   0  0  0  0  0  0  0  0  0  0  0  0
    6.0867   -0.6378    0.7396 C   0  0  0  0  0  0  0  0  0  0  0  0
    8.6789   -0.9321    0.0811 Cl  0  0  0  0  0  0  0  0  0  0  0  0
    3.0168   -0.1087    2.4423 O   0  0  0  0  0  0  0  0  0  0  0  0
    1.9362   -2.6233   -2.3217 H   0  0  0  0  0  0  0  0  0  0  0  0
    3.1237   -1.2739   -2.3038 H   0  0  0  0  0  0  0  0  0  0  0  0
    1.7352   -1.2302   -3.4588 H   0  0  0  0  0  0  0  0  0  0  0  0
    0.5820   -1.5739   -0.8700 H   0  0  0  0  0  0  0  0  0  0  0  0
    0.9579    0.8293   -2.7731 H   0  0  0  0  0  0  0  0  0  0  0  0
   -0.2950   -0.4056   -2.7563 H   0  0  0  0  0  0  0  0  0  0  0  0
   -0.2388    2.0182   -1.1734 H   0  0  0  0  0  0  0  0  0  0  0  0
   -1.7126   -1.4668   -1.1772 H   0  0  0  0  0  0  0  0  0  0  0  0
   -3.6694   -2.0899    0.0738 H   0  0  0  0  0  0  0  0  0  0  0  0
   -3.9543    1.8738    1.5411 H   0  0  0  0  0  0  0  0  0  0  0  0
   -1.9962    2.5038    0.3044 H   0  0  0  0  0  0  0  0  0  0  0  0
   -5.2417    0.0201    2.5822 H   0  0  0  0  0  0  0  0  0  0  0  0
   -5.0160   -1.6554    1.9570 H   0  0  0  0  0  0  0  0  0  0  0  0
   -6.7833   -1.3271    0.4528 H   0  0  0  0  0  0  0  0  0  0  0  0
   -8.5714   -0.2545   -0.4790 H   0  0  0  0  0  0  0  0  0  0  0  0
   -9.1163    1.1419    0.5082 H   0  0  0  0  0  0  0  0  0  0  0  0
   -8.1510    1.3723   -1.0518 H   0  0  0  0  0  0  0  0  0  0  0  0
    1.6252    0.4625    0.2295 H   0  0  0  0  0  0  0  0  0  0  0  0
    3.4256   -1.8281   -0.3678 H   0  0  0  0  0  0  0  0  0  0  0  0
    2.1153   -1.9997    0.8173 H   0  0  0  0  0  0  0  0  0  0  0  0
    4.1054   -1.7033    1.9351 H   0  0  0  0  0  0  0  0  0  0  0  0
    3.8866    1.8885    0.7678 H   0  0  0  0  0  0  0  0  0  0  0  0
    5.9301    3.0680   -0.0822 H   0  0  0  0  0  0  0  0  0  0  0  0
    8.0396    1.8229   -0.3834 H   0  0  0  0  0  0  0  0  0  0  0  0
    6.1364   -1.6929    0.9717 H   0  0  0  0  0  0  0  0  0  0  0  0
    2.1021    0.1699    2.1891 H   0  0  0  0  0  0  0  0  0  0  0  0
  1  2  1  0
  2  3  1  0
  3  4  1  0
  4  5  1  0
  5  6  2  0
  6  7  1  0
  7  8  2  0
  8  9  1  0
  9 10  2  0
  8 11  1  0
 11 12  1  0
 12 13  1  0
 13 14  2  0
 13 15  1  0
  2 16  1  0
 16 17  1  0
 17 18  1  0
 18 19  1  0
 19 20  2  0
 20 21  1  0
 21 22  2  0
 22 23  1  0
 23 24  2  0
 23 25  1  0
 18 26  1  0
 10  5  1  0
 24 19  1  0
  1 27  1  0
  1 28  1  0
  1 29  1  0
  2 30  1  1
  3 31  1  0
  3 32  1  0
  4 33  1  0
  6 34  1  0
  7 35  1  0
  9 36  1  0
 10 37  1  0
 11 38  1  0
 11 39  1  0
 12 40  1  0
 15 41  1  0
 15 42  1  0
 15 43  1  0
 16 44  1  0
 17 45  1  0
 17 46  1  0
 18 47  1  1
 20 48  1  0
 21 49  1  0
 22 50  1  0
 24 51  1  0
 26 52  1  0
M  END
>  <Ligand ID>  (1) 
LIG0002248

>  <Ligand>  (1) 
CHEMBL345304

>  <SMILES>  (1) 
C[C@H](CNc1ccc(cc1)CNC(=O)C)NC[C@@H](c1cccc(c1)Cl)O

>  <CID>  (1) 
11810896.0

>  <ChEMBL ID>  (1) 
nan

>  <InChiKey>  (1) 
PHCQHHUHBQVLPB-VLIAUNLRSA-N

>  <InChi>  (1) 
InChI=1S/C20H26ClN3O2/c1-14(22-13-20(26)17-4-3-5-18(21)10-17)11-24-19-8-6-16(7-9-19)12-23-15(2)25/h3-10,14,20,22,24,26H,11-13H2,1-2H3,(H,23,25)/t14-,20+/m1/s1

>  <IUPAC Name>  (1) 
N-[[4-[[(2R)-2-[[(2R)-2-(3-chlorophenyl)-2-hydroxyethyl]amino]propyl]amino]phenyl]methyl]acetamide

$$$$
