
     RDKit          3D

 44 47  0  0  0  0  0  0  0  0999 V2000
   -5.1717    1.1536    0.3541 C   0  0  0  0  0  0  0  0  0  0  0  0
   -3.8144    0.6981   -0.1926 C   0  0  2  0  0  0  0  0  0  0  0  0
   -2.8183    0.5195    0.9251 C   0  0  0  0  0  0  0  0  0  0  0  0
   -1.4832    0.0766    0.4579 C   0  0  0  0  0  0  0  0  0  0  0  0
   -0.5685    0.9024   -0.1492 C   0  0  0  0  0  0  0  0  0  0  0  0
   -0.6613    2.2425   -0.4462 O   0  0  0  0  0  0  0  0  0  0  0  0
    0.4690    2.7115   -1.1513 C   0  0  0  0  0  0  0  0  0  0  0  0
    1.4429    1.5651   -1.1907 C   0  0  0  0  0  0  0  0  0  0  0  0
    0.6774    0.4593   -0.5811 C   0  0  0  0  0  0  0  0  0  0  0  0
    1.0140   -0.8647   -0.3946 C   0  0  0  0  0  0  0  0  0  0  0  0
    0.0848   -1.7112    0.2243 C   0  0  0  0  0  0  0  0  0  0  0  0
   -1.1462   -1.2537    0.6463 C   0  0  0  0  0  0  0  0  0  0  0  0
   -1.9105   -2.3804    1.2659 C   0  0  0  0  0  0  0  0  0  0  0  0
   -1.1729   -3.5747    0.6992 C   0  0  0  0  0  0  0  0  0  0  0  0
    0.1358   -3.0607    0.5420 O   0  0  0  0  0  0  0  0  0  0  0  0
    2.2948   -1.4574   -0.8085 C   0  0  0  0  0  0  0  0  0  0  0  0
    3.4381   -1.1256    0.0773 C   0  0  0  0  0  0  0  0  0  0  0  0
    3.8173   -1.8088    1.1571 O   0  0  0  0  0  0  0  0  0  0  0  0
    4.8579   -1.2485    1.7058 N   0  0  0  0  0  0  0  0  0  0  0  0
    5.1694   -0.1663    0.9632 C   0  0  0  0  0  0  0  0  0  0  0  0
    4.2879   -0.0869   -0.0505 N   0  0  0  0  0  0  0  0  0  0  0  0
    6.2901    0.7949    1.1985 C   0  0  0  0  0  0  0  0  0  0  0  0
   -3.3685    1.7855   -1.0613 N   0  0  0  0  0  0  0  0  0  0  0  0
   -5.0156    1.9087    1.1673 H   0  0  0  0  0  0  0  0  0  0  0  0
   -5.7167    0.2897    0.7784 H   0  0  0  0  0  0  0  0  0  0  0  0
   -5.7918    1.6022   -0.4324 H   0  0  0  0  0  0  0  0  0  0  0  0
   -3.9373   -0.1945   -0.8019 H   0  0  0  0  0  0  0  0  0  0  0  0
   -3.2348   -0.1860    1.6411 H   0  0  0  0  0  0  0  0  0  0  0  0
   -2.7181    1.4959    1.4752 H   0  0  0  0  0  0  0  0  0  0  0  0
    0.9364    3.5730   -0.5944 H   0  0  0  0  0  0  0  0  0  0  0  0
    0.2104    3.0378   -2.1884 H   0  0  0  0  0  0  0  0  0  0  0  0
    2.3545    1.8405   -0.6407 H   0  0  0  0  0  0  0  0  0  0  0  0
    1.7177    1.3568   -2.2459 H   0  0  0  0  0  0  0  0  0  0  0  0
   -2.9743   -2.3728    0.9489 H   0  0  0  0  0  0  0  0  0  0  0  0
   -1.7731   -2.3218    2.3506 H   0  0  0  0  0  0  0  0  0  0  0  0
   -1.6254   -3.7863   -0.2841 H   0  0  0  0  0  0  0  0  0  0  0  0
   -1.1890   -4.4481    1.3788 H   0  0  0  0  0  0  0  0  0  0  0  0
    2.5214   -1.1753   -1.8781 H   0  0  0  0  0  0  0  0  0  0  0  0
    2.2332   -2.5668   -0.8383 H   0  0  0  0  0  0  0  0  0  0  0  0
    5.9506    1.7190    1.7092 H   0  0  0  0  0  0  0  0  0  0  0  0
    6.6345    1.1133    0.1812 H   0  0  0  0  0  0  0  0  0  0  0  0
    7.0977    0.3227    1.7812 H   0  0  0  0  0  0  0  0  0  0  0  0
   -3.3848    2.6472   -0.4402 H   0  0  0  0  0  0  0  0  0  0  0  0
   -4.1593    1.9748   -1.7396 H   0  0  0  0  0  0  0  0  0  0  0  0
  1  2  1  0
  2  3  1  0
  3  4  1  0
  4  5  2  0
  5  6  1  0
  6  7  1  0
  7  8  1  0
  8  9  1  0
  9 10  2  0
 10 11  1  0
 11 12  2  0
 12 13  1  0
 13 14  1  0
 14 15  1  0
 10 16  1  0
 16 17  1  0
 17 18  1  0
 18 19  1  0
 19 20  2  0
 20 21  1  0
 20 22  1  0
  2 23  1  0
 12  4  1  0
 21 17  2  0
  9  5  1  0
 15 11  1  0
  1 24  1  0
  1 25  1  0
  1 26  1  0
  2 27  1  6
  3 28  1  0
  3 29  1  0
  7 30  1  0
  7 31  1  0
  8 32  1  0
  8 33  1  0
 13 34  1  0
 13 35  1  0
 14 36  1  0
 14 37  1  0
 16 38  1  0
 16 39  1  0
 22 40  1  0
 22 41  1  0
 22 42  1  0
 23 43  1  0
 23 44  1  0
M  END
>  <Ligand ID>  (1) 
LIG0003989

>  <Ligand>  (1) 
CHEMBL234837

>  <SMILES>  (1) 
C[C@H](Cc1c2OCCc2c(c2c1CCO2)Cc1onc(n1)C)N

>  <CID>  (1) 
44431699.0

>  <ChEMBL ID>  (1) 
nan

>  <InChiKey>  (1) 
WBYWETHMETVDKR-SECBINFHSA-N

>  <InChi>  (1) 
InChI=1S/C17H21N3O3/c1-9(18)7-13-11-3-5-22-17(11)14(12-4-6-21-16(12)13)8-15-19-10(2)20-23-15/h9H,3-8,18H2,1-2H3/t9-/m1/s1

>  <IUPAC Name>  (1) 
(2R)-1-[8-[(3-methyl-1,2,4-oxadiazol-5-yl)methyl]-2,3,6,7-tetrahydrofuro[2,3-f][1]benzofuran-4-yl]propan-2-amine

$$$$
