
     RDKit          3D

 26 26  0  0  0  0  0  0  0  0999 V2000
   -1.9481    0.8737   -0.9733 N   0  0  0  0  0  0  0  0  0  0  0  0
   -1.6101   -0.2454   -0.1318 C   0  0  2  0  0  0  0  0  0  0  0  0
   -2.7391   -0.4508    0.8016 C   0  0  0  0  0  0  0  0  0  0  0  0
   -3.7789    0.2766    0.7905 O   0  0  0  0  0  0  0  0  0  0  0  0
   -2.7084   -1.4777    1.7573 O   0  0  0  0  0  0  0  0  0  0  0  0
   -0.3174    0.0648    0.6105 C   0  0  0  0  0  0  0  0  0  0  0  0
    0.8060    0.3090   -0.3351 C   0  0  2  0  0  0  0  0  0  0  0  0
    1.1382   -0.8583   -1.2656 C   0  0  0  0  0  0  0  0  0  0  0  0
    2.1202   -0.4243   -0.2896 C   0  0  2  0  0  0  0  0  0  0  0  0
    2.4457   -1.1192    0.9460 C   0  0  0  0  0  0  0  0  0  0  0  0
    1.6758   -1.9015    1.5833 O   0  0  0  0  0  0  0  0  0  0  0  0
    3.7155   -0.9692    1.5680 O   0  0  0  0  0  0  0  0  0  0  0  0
    0.9099    1.6787   -0.9551 C   0  0  0  0  0  0  0  0  0  0  0  0
    1.8396    1.9590   -1.7690 O   0  0  0  0  0  0  0  0  0  0  0  0
   -0.0000    2.6840   -0.6643 O   0  0  0  0  0  0  0  0  0  0  0  0
   -2.9784    1.0590   -1.0031 H   0  0  0  0  0  0  0  0  0  0  0  0
   -1.5511    0.7970   -1.9330 H   0  0  0  0  0  0  0  0  0  0  0  0
   -1.4516   -1.1202   -0.7871 H   0  0  0  0  0  0  0  0  0  0  0  0
   -3.5654   -1.6797    2.2912 H   0  0  0  0  0  0  0  0  0  0  0  0
   -0.4750    1.0540    1.1504 H   0  0  0  0  0  0  0  0  0  0  0  0
   -0.1497   -0.6694    1.4005 H   0  0  0  0  0  0  0  0  0  0  0  0
    0.5231   -1.7720   -1.1723 H   0  0  0  0  0  0  0  0  0  0  0  0
    1.2803   -0.5701   -2.3254 H   0  0  0  0  0  0  0  0  0  0  0  0
    3.0252    0.1511   -0.6867 H   0  0  0  0  0  0  0  0  0  0  0  0
    3.8410   -1.2081    2.5545 H   0  0  0  0  0  0  0  0  0  0  0  0
   -0.0475    3.5588   -1.1624 H   0  0  0  0  0  0  0  0  0  0  0  0
  1  2  1  0
  2  3  1  0
  3  4  2  0
  3  5  1  0
  2  6  1  0
  7  6  1  1
  7  8  1  0
  8  9  1  0
  9 10  1  0
 10 11  2  0
 10 12  1  0
  7 13  1  0
 13 14  2  0
 13 15  1  0
  9  7  1  0
  1 16  1  0
  1 17  1  0
  2 18  1  6
  5 19  1  0
  6 20  1  0
  6 21  1  0
  8 22  1  0
  8 23  1  0
  9 24  1  6
 12 25  1  0
 15 26  1  0
M  END
>  <Ligand ID>  (1) 
LIG0000429

>  <Ligand>  (1) 
CHEMBL3787264

>  <SMILES>  (1) 
N[C@H](C(=O)O)C[C@@]1(C[C@@H]1C(=O)O)C(=O)O

>  <CID>  (1) 
127030385.0

>  <ChEMBL ID>  (1) 
nan

>  <InChiKey>  (1) 
BHSHZTNHTMTQFY-PDJPSNROSA-N

>  <InChi>  (1) 
InChI=1S/C8H11NO6/c9-4(6(12)13)2-8(7(14)15)1-3(8)5(10)11/h3-4H,1-2,9H2,(H,10,11)(H,12,13)(H,14,15)/t3-,4+,8-/m1/s1

>  <IUPAC Name>  (1) 
(1R,2S)-1-[(2S)-2-amino-2-carboxyethyl]cyclopropane-1,2-dicarboxylic acid

$$$$
