
     RDKit          3D

 56 59  0  0  0  0  0  0  0  0999 V2000
    2.4402    0.7893   -1.2079 O   0  0  0  0  0  0  0  0  0  0  0  0
    2.8139   -0.5086   -0.8373 C   0  0  2  0  0  0  0  0  0  0  0  0
    4.2868   -0.6693   -1.0528 C   0  0  0  0  0  0  0  0  0  0  0  0
    4.8331   -1.7677   -1.6790 C   0  0  0  0  0  0  0  0  0  0  0  0
    6.1939   -1.9222   -1.8834 C   0  0  0  0  0  0  0  0  0  0  0  0
    7.0503   -0.9393   -1.4447 C   0  0  0  0  0  0  0  0  0  0  0  0
    6.5275    0.1821   -0.8084 C   0  0  0  0  0  0  0  0  0  0  0  0
    5.1653    0.3063   -0.6199 C   0  0  0  0  0  0  0  0  0  0  0  0
    7.4694    1.1547   -0.3821 N   0  0  0  0  0  0  0  0  0  0  0  0
    7.4094    1.8804    1.1899 S   0  0  0  0  0  0  0  0  0  0  0  0
    6.1578    2.6857    1.3894 O   0  0  0  0  0  0  0  0  0  0  0  0
    8.5586    2.8579    1.3236 O   0  0  0  0  0  0  0  0  0  0  0  0
    7.6040    0.6785    2.4802 C   0  0  0  0  0  0  0  0  0  0  0  0
    2.0227   -1.4824   -1.6502 C   0  0  0  0  0  0  0  0  0  0  0  0
    0.6110   -1.2853   -1.4218 N   0  0  0  0  0  0  0  0  0  0  0  0
    0.1579   -1.6353   -0.1057 C   0  0  0  0  0  0  0  0  0  0  0  0
   -1.3379   -1.4316    0.0539 C   0  0  0  0  0  0  0  0  0  0  0  0
   -1.7398   -0.0949   -0.1622 O   0  0  0  0  0  0  0  0  0  0  0  0
   -3.1194    0.1640   -0.0327 C   0  0  0  0  0  0  0  0  0  0  0  0
   -4.0123   -0.8368    0.2884 C   0  0  0  0  0  0  0  0  0  0  0  0
   -5.3620   -0.5328    0.4044 C   0  0  0  0  0  0  0  0  0  0  0  0
   -5.8269    0.7346    0.2081 C   0  0  0  0  0  0  0  0  0  0  0  0
   -4.9322    1.7465   -0.1159 C   0  0  0  0  0  0  0  0  0  0  0  0
   -3.5897    1.4417   -0.2305 C   0  0  0  0  0  0  0  0  0  0  0  0
   -5.6931    2.8454   -0.2472 N   0  0  0  0  0  0  0  0  0  0  0  0
   -6.9472    2.5687   -0.0301 N   0  0  0  0  0  0  0  0  0  0  0  0
   -7.1038    1.2382    0.2670 C   0  0  0  0  0  0  0  0  0  0  0  0
   -8.3975    0.6538    0.5820 C   0  0  0  0  0  0  0  0  0  0  0  0
   -9.1600    0.9172    1.8271 C   0  0  0  0  0  0  0  0  0  0  0  0
   -8.6502   -0.4191    1.5403 C   0  0  0  0  0  0  0  0  0  0  0  0
    2.1394    0.7796   -2.1475 H   0  0  0  0  0  0  0  0  0  0  0  0
    2.6362   -0.6249    0.2279 H   0  0  0  0  0  0  0  0  0  0  0  0
    4.2057   -2.5653   -2.0425 H   0  0  0  0  0  0  0  0  0  0  0  0
    6.5672   -2.8134   -2.3851 H   0  0  0  0  0  0  0  0  0  0  0  0
    8.1308   -1.0546   -1.6032 H   0  0  0  0  0  0  0  0  0  0  0  0
    4.8144    1.2032   -0.1174 H   0  0  0  0  0  0  0  0  0  0  0  0
    8.2154    1.4117   -1.0867 H   0  0  0  0  0  0  0  0  0  0  0  0
    7.8340   -0.3352    2.0502 H   0  0  0  0  0  0  0  0  0  0  0  0
    6.6875    0.5883    3.0845 H   0  0  0  0  0  0  0  0  0  0  0  0
    8.4359    0.9421    3.1847 H   0  0  0  0  0  0  0  0  0  0  0  0
    2.1943   -1.2770   -2.7319 H   0  0  0  0  0  0  0  0  0  0  0  0
    2.2878   -2.5440   -1.4223 H   0  0  0  0  0  0  0  0  0  0  0  0
    0.4163   -0.2714   -1.6066 H   0  0  0  0  0  0  0  0  0  0  0  0
    0.7328   -1.1396    0.6755 H   0  0  0  0  0  0  0  0  0  0  0  0
    0.3107   -2.7376    0.0110 H   0  0  0  0  0  0  0  0  0  0  0  0
   -1.6387   -1.7945    1.0513 H   0  0  0  0  0  0  0  0  0  0  0  0
   -1.8198   -2.1418   -0.6809 H   0  0  0  0  0  0  0  0  0  0  0  0
   -3.6735   -1.8448    0.4488 H   0  0  0  0  0  0  0  0  0  0  0  0
   -6.0172   -1.3332    0.6442 H   0  0  0  0  0  0  0  0  0  0  0  0
   -2.8935    2.2040   -0.4767 H   0  0  0  0  0  0  0  0  0  0  0  0
   -7.7184    3.2885   -0.0820 H   0  0  0  0  0  0  0  0  0  0  0  0
   -9.0651    0.5807   -0.3289 H   0  0  0  0  0  0  0  0  0  0  0  0
   -8.7057    1.6489    2.5133 H   0  0  0  0  0  0  0  0  0  0  0  0
  -10.2610    1.0937    1.7844 H   0  0  0  0  0  0  0  0  0  0  0  0
   -9.4374   -1.2038    1.3430 H   0  0  0  0  0  0  0  0  0  0  0  0
   -7.8081   -0.8879    2.0506 H   0  0  0  0  0  0  0  0  0  0  0  0
  1  2  1  0
  2  3  1  0
  3  4  2  0
  4  5  1  0
  5  6  2  0
  6  7  1  0
  7  8  2  0
  7  9  1  0
  9 10  1  0
 10 11  2  0
 10 12  2  0
 10 13  1  0
  2 14  1  0
 14 15  1  0
 15 16  1  0
 16 17  1  0
 17 18  1  0
 18 19  1  0
 19 20  1  0
 20 21  2  0
 21 22  1  0
 22 23  1  0
 23 24  1  0
 23 25  2  0
 25 26  1  0
 26 27  1  0
 27 28  1  0
 28 29  1  0
 29 30  1  0
  8  3  1  0
 24 19  2  0
 30 28  1  0
 27 22  2  0
  1 31  1  0
  2 32  1  1
  4 33  1  0
  5 34  1  0
  6 35  1  0
  8 36  1  0
  9 37  1  0
 13 38  1  0
 13 39  1  0
 13 40  1  0
 14 41  1  0
 14 42  1  0
 15 43  1  0
 16 44  1  0
 16 45  1  0
 17 46  1  0
 17 47  1  0
 20 48  1  0
 21 49  1  0
 24 50  1  0
 26 51  1  0
 28 52  1  0
 29 53  1  0
 29 54  1  0
 30 55  1  0
 30 56  1  0
M  END
>  <Ligand ID>  (1) 
LIG0002030

>  <Ligand>  (1) 
CHEMBL3600395

>  <SMILES>  (1) 
O[C@H](c1cccc(c1)NS(=O)(=O)C)CNCCOc1ccc2c(c1)n[nH]c2C1CC1

>  <CID>  (1) 
45280075.0

>  <ChEMBL ID>  (1) 
nan

>  <InChiKey>  (1) 
OXWUJGZFQZCUPU-FQEVSTJZSA-N

>  <InChi>  (1) 
InChI=1S/C21H26N4O4S/c1-30(27,28)25-16-4-2-3-15(11-16)20(26)13-22-9-10-29-17-7-8-18-19(12-17)23-24-21(18)14-5-6-14/h2-4,7-8,11-12,14,20,22,25-26H,5-6,9-10,13H2,1H3,(H,23,24)/t20-/m0/s1

>  <IUPAC Name>  (1) 
N-[3-[(1R)-2-[2-[(3-cyclopropyl-2H-indazol-6-yl)oxy]ethylamino]-1-hydroxyethyl]phenyl]methanesulfonamide

$$$$
