
     RDKit          3D

 57 61  0  0  0  0  0  0  0  0999 V2000
    3.0512   -1.0036    2.5896 O   0  0  0  0  0  0  0  0  0  0  0  0
    3.6981   -0.3482    1.7369 C   0  0  0  0  0  0  0  0  0  0  0  0
    4.9389    0.1348    2.0054 N   0  0  0  0  0  0  0  0  0  0  0  0
    5.3844    0.7890    0.9194 C   0  0  0  0  0  0  0  0  0  0  0  0
    4.3864    0.6961   -0.0236 C   0  0  0  0  0  0  0  0  0  0  0  0
    3.3355   -0.0118    0.4839 N   0  0  0  0  0  0  0  0  0  0  0  0
    2.1048   -0.3304   -0.1770 C   0  0  2  0  0  0  0  0  0  0  0  0
    1.1940    0.8627   -0.3435 C   0  0  0  0  0  0  0  0  0  0  0  0
   -0.0869    0.3866   -0.9998 C   0  0  0  0  0  0  0  0  0  0  0  0
   -0.7622   -0.6073   -0.1851 N   0  0  0  0  0  0  0  0  0  0  0  0
    0.1132   -1.7417   -0.1283 C   0  0  1  0  0  0  0  0  0  0  0  0
    1.3458   -1.3416    0.6502 C   0  0  0  0  0  0  0  0  0  0  0  0
   -0.5061   -2.9238    0.5721 C   0  0  0  0  0  0  0  0  0  0  0  0
   -1.6803   -3.3407   -0.2930 C   0  0  0  0  0  0  0  0  0  0  0  0
   -2.6552   -2.1764   -0.2360 C   0  0  0  0  0  0  0  0  0  0  0  0
   -2.0530   -0.8920   -0.7276 C   0  0  1  0  0  0  0  0  0  0  0  0
   -3.0201    0.2243   -0.4232 C   0  0  0  0  0  0  0  0  0  0  0  0
   -4.4091   -0.0731   -1.0023 C   0  0  0  0  0  0  0  0  0  0  0  0
   -5.3191    1.0697   -0.6674 C   0  0  0  0  0  0  0  0  0  0  0  0
   -4.6175    2.2510   -0.0491 C   0  0  0  0  0  0  0  0  0  0  0  0
   -3.7943    1.8873    1.1638 C   0  0  0  0  0  0  0  0  0  0  0  0
   -3.2046    0.4954    1.0381 C   0  0  0  0  0  0  0  0  0  0  0  0
    4.6068    1.3010   -1.2526 C   0  0  0  0  0  0  0  0  0  0  0  0
    5.8105    1.9654   -1.4738 C   0  0  0  0  0  0  0  0  0  0  0  0
    6.7967    2.0460   -0.5144 C   0  0  0  0  0  0  0  0  0  0  0  0
    6.5729    1.4435    0.7047 C   0  0  0  0  0  0  0  0  0  0  0  0
    5.4675    0.0187    2.9114 H   0  0  0  0  0  0  0  0  0  0  0  0
    2.2665   -0.7789   -1.1974 H   0  0  0  0  0  0  0  0  0  0  0  0
    1.6166    1.6421   -0.9950 H   0  0  0  0  0  0  0  0  0  0  0  0
    0.9880    1.3234    0.6222 H   0  0  0  0  0  0  0  0  0  0  0  0
    0.2284   -0.1703   -1.9259 H   0  0  0  0  0  0  0  0  0  0  0  0
   -0.7153    1.2087   -1.3369 H   0  0  0  0  0  0  0  0  0  0  0  0
    0.4024   -1.9840   -1.1773 H   0  0  0  0  0  0  0  0  0  0  0  0
    0.9717   -0.7903    1.5421 H   0  0  0  0  0  0  0  0  0  0  0  0
    1.9854   -2.2125    0.8962 H   0  0  0  0  0  0  0  0  0  0  0  0
   -0.8802   -2.5743    1.5482 H   0  0  0  0  0  0  0  0  0  0  0  0
    0.2626   -3.7158    0.6636 H   0  0  0  0  0  0  0  0  0  0  0  0
   -2.1641   -4.2050    0.1580 H   0  0  0  0  0  0  0  0  0  0  0  0
   -1.3025   -3.5225   -1.3195 H   0  0  0  0  0  0  0  0  0  0  0  0
   -2.9671   -2.1066    0.8243 H   0  0  0  0  0  0  0  0  0  0  0  0
   -3.4865   -2.4395   -0.9325 H   0  0  0  0  0  0  0  0  0  0  0  0
   -1.9739   -0.9391   -1.8347 H   0  0  0  0  0  0  0  0  0  0  0  0
   -2.7072    1.1774   -0.8975 H   0  0  0  0  0  0  0  0  0  0  0  0
   -4.8634   -0.9795   -0.5445 H   0  0  0  0  0  0  0  0  0  0  0  0
   -4.3616   -0.2684   -2.0963 H   0  0  0  0  0  0  0  0  0  0  0  0
   -5.7816    1.4384   -1.6064 H   0  0  0  0  0  0  0  0  0  0  0  0
   -6.2004    0.7644   -0.0317 H   0  0  0  0  0  0  0  0  0  0  0  0
   -4.0290    2.7668   -0.8358 H   0  0  0  0  0  0  0  0  0  0  0  0
   -5.4004    2.9618    0.2749 H   0  0  0  0  0  0  0  0  0  0  0  0
   -4.3495    2.0378    2.1142 H   0  0  0  0  0  0  0  0  0  0  0  0
   -2.9482    2.6189    1.1812 H   0  0  0  0  0  0  0  0  0  0  0  0
   -2.2287    0.4882    1.5895 H   0  0  0  0  0  0  0  0  0  0  0  0
   -3.9319   -0.2341    1.4586 H   0  0  0  0  0  0  0  0  0  0  0  0
    3.8309    1.2356   -2.0026 H   0  0  0  0  0  0  0  0  0  0  0  0
    5.9988    2.4422   -2.4253 H   0  0  0  0  0  0  0  0  0  0  0  0
    7.7409    2.5613   -0.6734 H   0  0  0  0  0  0  0  0  0  0  0  0
    7.3009    1.4730    1.4867 H   0  0  0  0  0  0  0  0  0  0  0  0
  1  2  2  0
  2  3  1  0
  3  4  1  0
  4  5  2  0
  5  6  1  0
  6  7  1  0
  7  8  1  0
  8  9  1  0
  9 10  1  0
 10 11  1  0
 11 12  1  0
 11 13  1  0
 13 14  1  0
 14 15  1  0
 15 16  1  0
 16 17  1  0
 17 18  1  0
 18 19  1  0
 19 20  1  0
 20 21  1  0
 21 22  1  0
  5 23  1  0
 23 24  2  0
 24 25  1  0
 25 26  2  0
  6  2  1  0
 12  7  1  0
 22 17  1  0
 26  4  1  0
 16 10  1  0
  3 27  1  0
  7 28  1  6
  8 29  1  0
  8 30  1  0
  9 31  1  0
  9 32  1  0
 11 33  1  6
 12 34  1  0
 12 35  1  0
 13 36  1  0
 13 37  1  0
 14 38  1  0
 14 39  1  0
 15 40  1  0
 15 41  1  0
 16 42  1  6
 17 43  1  0
 18 44  1  0
 18 45  1  0
 19 46  1  0
 19 47  1  0
 20 48  1  0
 20 49  1  0
 21 50  1  0
 21 51  1  0
 22 52  1  0
 22 53  1  0
 23 54  1  0
 24 55  1  0
 25 56  1  0
 26 57  1  0
M  END
>  <Ligand ID>  (1) 
LIG0003048

>  <Ligand>  (1) 
SR-14140

>  <SMILES>  (1) 
O=c1[nH]c2c(n1[C@@H]1CCN3[C@@H](C1)CCC[C@H]3C1CCCCC1)cccc2

>  <CID>  (1) 
44297435.0

>  <ChEMBL ID>  (1) 
nan

>  <InChiKey>  (1) 
YREGMDIGXZOSIF-GGPKGHCWSA-N

>  <InChi>  (1) 
InChI=1S/C22H31N3O/c26-22-23-19-10-4-5-11-21(19)25(22)18-13-14-24-17(15-18)9-6-12-20(24)16-7-2-1-3-8-16/h4-5,10-11,16-18,20H,1-3,6-9,12-15H2,(H,23,26)/t17-,18-,20+/m1/s1

>  <IUPAC Name>  (1) 
3-[(2R,6S,9aR)-6-cyclohexyl-2,3,4,6,7,8,9,9a-octahydro-1H-quinolizin-2-yl]-1H-benzimidazol-2-one

$$$$
