
     RDKit          3D

 60 59  0  0  0  0  0  0  0  0999 V2000
   -8.9664    0.4348    0.3597 C   0  0  0  0  0  0  0  0  0  0  0  0
   -8.3139    0.6814   -0.9809 C   0  0  0  0  0  0  0  0  0  0  0  0
   -7.5103   -0.5016   -1.4728 C   0  0  0  0  0  0  0  0  0  0  0  0
   -6.3968   -0.8956   -0.5590 C   0  0  0  0  0  0  0  0  0  0  0  0
   -5.4282    0.2329   -0.3825 C   0  0  0  0  0  0  0  0  0  0  0  0
   -4.2837   -0.1528    0.5478 C   0  0  0  0  0  0  0  0  0  0  0  0
   -3.3552    1.0512    0.6657 C   0  0  0  0  0  0  0  0  0  0  0  0
   -2.1882    0.7632    1.5695 C   0  0  0  0  0  0  0  0  0  0  0  0
   -1.3563   -0.3728    1.0875 C   0  0  0  0  0  0  0  0  0  0  0  0
   -0.0772   -0.1432    0.8111 C   0  0  0  0  0  0  0  0  0  0  0  0
    0.8061   -1.2399    0.3251 C   0  0  0  0  0  0  0  0  0  0  0  0
    1.9554   -1.4242    1.3011 C   0  0  0  0  0  0  0  0  0  0  0  0
    2.7879   -0.1668    1.4398 C   0  0  0  0  0  0  0  0  0  0  0  0
    3.3438    0.1638    0.0670 C   0  0  0  0  0  0  0  0  0  0  0  0
    4.1922    1.4062    0.0955 C   0  0  0  0  0  0  0  0  0  0  0  0
    4.6990    1.6893   -1.2900 C   0  0  0  0  0  0  0  0  0  0  0  0
    5.5168    0.5506   -1.7990 C   0  0  0  0  0  0  0  0  0  0  0  0
    6.6902    0.3248   -0.8791 C   0  0  0  0  0  0  0  0  0  0  0  0
    7.4763   -0.7359   -1.3472 O   0  0  0  0  0  0  0  0  0  0  0  0
    8.7952   -1.0071   -0.3327 P   0  0  0  0  0  0  0  0  0  0  0  0
    8.7924   -2.6378    0.2423 S   0  0  0  0  0  0  0  0  0  0  0  0
    8.6192    0.0055    1.0330 O   0  0  0  0  0  0  0  0  0  0  0  0
   10.2727   -0.6819   -1.0987 O   0  0  0  0  0  0  0  0  0  0  0  0
  -10.0243    0.0881    0.2591 H   0  0  0  0  0  0  0  0  0  0  0  0
   -8.3642   -0.1867    1.0279 H   0  0  0  0  0  0  0  0  0  0  0  0
   -9.0445    1.4437    0.8554 H   0  0  0  0  0  0  0  0  0  0  0  0
   -9.1365    0.8178   -1.7209 H   0  0  0  0  0  0  0  0  0  0  0  0
   -7.6396    1.5565   -0.9482 H   0  0  0  0  0  0  0  0  0  0  0  0
   -8.1595   -1.3668   -1.7187 H   0  0  0  0  0  0  0  0  0  0  0  0
   -7.0463   -0.1778   -2.4284 H   0  0  0  0  0  0  0  0  0  0  0  0
   -6.7455   -1.2706    0.4248 H   0  0  0  0  0  0  0  0  0  0  0  0
   -5.8400   -1.7225   -1.0373 H   0  0  0  0  0  0  0  0  0  0  0  0
   -5.9474    1.1127    0.0956 H   0  0  0  0  0  0  0  0  0  0  0  0
   -5.0006    0.5480   -1.3383 H   0  0  0  0  0  0  0  0  0  0  0  0
   -4.7387   -0.4102    1.5158 H   0  0  0  0  0  0  0  0  0  0  0  0
   -3.7243   -1.0127    0.1709 H   0  0  0  0  0  0  0  0  0  0  0  0
   -3.9095    1.8961    1.1265 H   0  0  0  0  0  0  0  0  0  0  0  0
   -3.0347    1.3691   -0.3371 H   0  0  0  0  0  0  0  0  0  0  0  0
   -2.5535    0.4910    2.5722 H   0  0  0  0  0  0  0  0  0  0  0  0
   -1.6043    1.6984    1.6527 H   0  0  0  0  0  0  0  0  0  0  0  0
   -1.8105   -1.3361    0.9784 H   0  0  0  0  0  0  0  0  0  0  0  0
    0.3752    0.8427    0.9260 H   0  0  0  0  0  0  0  0  0  0  0  0
    1.1207   -1.1335   -0.7197 H   0  0  0  0  0  0  0  0  0  0  0  0
    0.2315   -2.2000    0.3666 H   0  0  0  0  0  0  0  0  0  0  0  0
    2.5582   -2.2907    0.9872 H   0  0  0  0  0  0  0  0  0  0  0  0
    1.5138   -1.6681    2.2736 H   0  0  0  0  0  0  0  0  0  0  0  0
    3.6519   -0.4354    2.0711 H   0  0  0  0  0  0  0  0  0  0  0  0
    2.1699    0.6283    1.8726 H   0  0  0  0  0  0  0  0  0  0  0  0
    2.5802    0.2917   -0.7077 H   0  0  0  0  0  0  0  0  0  0  0  0
    3.9557   -0.7297   -0.2157 H   0  0  0  0  0  0  0  0  0  0  0  0
    3.5329    2.2922    0.3726 H   0  0  0  0  0  0  0  0  0  0  0  0
    4.9797    1.4007    0.8771 H   0  0  0  0  0  0  0  0  0  0  0  0
    5.2614    2.6478   -1.2516 H   0  0  0  0  0  0  0  0  0  0  0  0
    3.8112    1.7801   -1.9691 H   0  0  0  0  0  0  0  0  0  0  0  0
    4.8902   -0.3448   -1.9295 H   0  0  0  0  0  0  0  0  0  0  0  0
    5.9032    0.8926   -2.8165 H   0  0  0  0  0  0  0  0  0  0  0  0
    6.2912    0.0832    0.1304 H   0  0  0  0  0  0  0  0  0  0  0  0
    7.2926    1.2405   -0.8272 H   0  0  0  0  0  0  0  0  0  0  0  0
    8.0201   -0.4366    1.6692 H   0  0  0  0  0  0  0  0  0  0  0  0
   10.1134    0.1307   -1.6633 H   0  0  0  0  0  0  0  0  0  0  0  0
  1  2  1  0
  2  3  1  0
  3  4  1  0
  4  5  1  0
  5  6  1  0
  6  7  1  0
  7  8  1  0
  8  9  1  0
  9 10  2  0
 10 11  1  0
 11 12  1  0
 12 13  1  0
 13 14  1  0
 14 15  1  0
 15 16  1  0
 16 17  1  0
 17 18  1  0
 18 19  1  0
 19 20  1  0
 20 21  2  0
 20 22  1  0
 20 23  1  0
  1 24  1  0
  1 25  1  0
  1 26  1  0
  2 27  1  0
  2 28  1  0
  3 29  1  0
  3 30  1  0
  4 31  1  0
  4 32  1  0
  5 33  1  0
  5 34  1  0
  6 35  1  0
  6 36  1  0
  7 37  1  0
  7 38  1  0
  8 39  1  0
  8 40  1  0
  9 41  1  0
 10 42  1  0
 11 43  1  0
 11 44  1  0
 12 45  1  0
 12 46  1  0
 13 47  1  0
 13 48  1  0
 14 49  1  0
 14 50  1  0
 15 51  1  0
 15 52  1  0
 16 53  1  0
 16 54  1  0
 17 55  1  0
 17 56  1  0
 18 57  1  0
 18 58  1  0
 22 59  1  0
 23 60  1  0
M  END
>  <Ligand ID>  (1) 
LIG0004213

>  <Ligand>  (1) 
CHEMBL187459

>  <SMILES>  (1) 
CCCCCCCC/C=C/CCCCCCCCOP(=S)(O)O

>  <CID>  (1) 
11473989.0

>  <ChEMBL ID>  (1) 
nan

>  <InChiKey>  (1) 
DSGBMMNDXFQXBM-MDZDMXLPSA-N

>  <InChi>  (1) 
InChI=1S/C18H37O3PS/c1-2-3-4-5-6-7-8-9-10-11-12-13-14-15-16-17-18-21-22(19,20)23/h9-10H,2-8,11-18H2,1H3,(H2,19,20,23)/b10-9+

>  <IUPAC Name>  (1) 
dihydroxy-[(E)-octadec-9-enoxy]-sulfanylidene-lambda5-phosphane

$$$$
