
     RDKit          3D

 63 66  0  0  0  0  0  0  0  0999 V2000
   -2.0406   -1.7188    0.0870 O   0  0  0  0  0  0  0  0  0  0  0  0
   -2.9739   -0.7930    0.2684 C   0  0  0  0  0  0  0  0  0  0  0  0
   -4.2430   -1.2984   -0.0913 N   0  0  0  0  0  0  0  0  0  0  0  0
   -4.4185   -2.7120   -0.6397 C   0  0  0  0  0  0  0  0  0  0  0  0
   -5.8405   -2.6698   -0.2108 C   0  0  0  0  0  0  0  0  0  0  0  0
   -5.6224   -1.1705   -0.2195 C   0  0  0  0  0  0  0  0  0  0  0  0
   -6.2477   -0.4578   -1.3771 C   0  0  0  0  0  0  0  0  0  0  0  0
   -7.0931    0.1846   -0.4499 O   0  0  0  0  0  0  0  0  0  0  0  0
   -6.4832   -0.3933    0.6841 C   0  0  0  0  0  0  0  0  0  0  0  0
   -2.4695    0.4489    0.7720 C   0  0  0  0  0  0  0  0  0  0  0  0
   -2.7667    1.7429    0.1202 C   0  0  0  0  0  0  0  0  0  0  0  0
   -1.9784    2.8131    0.9440 C   0  0  0  0  0  0  0  0  0  0  0  0
   -2.4329    1.8807   -1.3162 C   0  0  0  0  0  0  0  0  0  0  0  0
   -4.2115    2.2225    0.3187 C   0  0  0  0  0  0  0  0  0  0  0  0
   -1.0177    0.3654    1.0812 N   0  0  0  0  0  0  0  0  0  0  0  0
   -0.0611    0.0249    0.0963 C   0  0  0  0  0  0  0  0  0  0  0  0
   -0.3312   -0.2294   -1.1020 O   0  0  0  0  0  0  0  0  0  0  0  0
    1.3667   -0.0466    0.4665 C   0  0  0  0  0  0  0  0  0  0  0  0
    1.7287    0.2106    1.7183 N   0  0  0  0  0  0  0  0  0  0  0  0
    3.0128    0.1621    2.1152 C   0  0  0  0  0  0  0  0  0  0  0  0
    3.9921   -0.1635    1.2017 C   0  0  0  0  0  0  0  0  0  0  0  0
    3.7026   -0.4451   -0.1169 C   0  0  0  0  0  0  0  0  0  0  0  0
    2.3318   -0.3704   -0.4442 C   0  0  0  0  0  0  0  0  0  0  0  0
    4.5348   -0.7719   -1.0998 O   0  0  0  0  0  0  0  0  0  0  0  0
    5.8341   -0.9917   -1.3772 C   0  0  2  0  0  0  0  0  0  0  0  0
    6.3002    0.1236   -2.3399 C   0  0  0  0  0  0  0  0  0  0  0  0
    7.6142   -0.1176   -2.6067 F   0  0  0  0  0  0  0  0  0  0  0  0
    5.5830   -0.0510   -3.4958 F   0  0  0  0  0  0  0  0  0  0  0  0
    6.0241    1.3496   -1.8073 F   0  0  0  0  0  0  0  0  0  0  0  0
    6.0945   -2.2806   -2.1613 C   0  0  0  0  0  0  0  0  0  0  0  0
    5.3942   -0.2048    1.6740 C   0  0  0  0  0  0  0  0  0  0  0  0
    6.2695    1.0245    1.5199 C   0  0  0  0  0  0  0  0  0  0  0  0
    5.7818    0.6986    2.8707 C   0  0  0  0  0  0  0  0  0  0  0  0
   -3.7834   -3.3798   -0.0400 H   0  0  0  0  0  0  0  0  0  0  0  0
   -4.2087   -2.6403   -1.7068 H   0  0  0  0  0  0  0  0  0  0  0  0
   -5.9882   -3.0907    0.8097 H   0  0  0  0  0  0  0  0  0  0  0  0
   -6.5183   -3.0607   -0.9904 H   0  0  0  0  0  0  0  0  0  0  0  0
   -6.9019   -1.1760   -1.9491 H   0  0  0  0  0  0  0  0  0  0  0  0
   -5.6264    0.1858   -1.9970 H   0  0  0  0  0  0  0  0  0  0  0  0
   -6.0434    0.2805    1.4076 H   0  0  0  0  0  0  0  0  0  0  0  0
   -7.2842   -1.0668    1.1322 H   0  0  0  0  0  0  0  0  0  0  0  0
   -2.9088    0.5455    1.8276 H   0  0  0  0  0  0  0  0  0  0  0  0
   -2.3715    2.7637    1.9601 H   0  0  0  0  0  0  0  0  0  0  0  0
   -0.9054    2.6592    0.8490 H   0  0  0  0  0  0  0  0  0  0  0  0
   -2.3208    3.7763    0.5146 H   0  0  0  0  0  0  0  0  0  0  0  0
   -3.0492    2.7076   -1.7823 H   0  0  0  0  0  0  0  0  0  0  0  0
   -1.3830    2.2849   -1.4017 H   0  0  0  0  0  0  0  0  0  0  0  0
   -2.6254    1.0063   -1.9327 H   0  0  0  0  0  0  0  0  0  0  0  0
   -4.4719    1.9896    1.3602 H   0  0  0  0  0  0  0  0  0  0  0  0
   -4.9181    1.7989   -0.3750 H   0  0  0  0  0  0  0  0  0  0  0  0
   -4.2568    3.3350    0.1921 H   0  0  0  0  0  0  0  0  0  0  0  0
   -0.6541    0.5577    2.0401 H   0  0  0  0  0  0  0  0  0  0  0  0
    3.1958    0.3832    3.1553 H   0  0  0  0  0  0  0  0  0  0  0  0
    2.0017   -0.5758   -1.4629 H   0  0  0  0  0  0  0  0  0  0  0  0
    6.5067   -0.9145   -0.5169 H   0  0  0  0  0  0  0  0  0  0  0  0
    7.2089   -2.3996   -2.2011 H   0  0  0  0  0  0  0  0  0  0  0  0
    5.7120   -3.1730   -1.6659 H   0  0  0  0  0  0  0  0  0  0  0  0
    5.7318   -2.1570   -3.2026 H   0  0  0  0  0  0  0  0  0  0  0  0
    5.8910   -1.2191    1.7176 H   0  0  0  0  0  0  0  0  0  0  0  0
    7.3566    0.8640    1.3215 H   0  0  0  0  0  0  0  0  0  0  0  0
    5.8156    1.8337    0.9163 H   0  0  0  0  0  0  0  0  0  0  0  0
    4.9672    1.2607    3.3410 H   0  0  0  0  0  0  0  0  0  0  0  0
    6.4984    0.2553    3.5968 H   0  0  0  0  0  0  0  0  0  0  0  0
  1  2  2  0
  2  3  1  0
  3  4  1  0
  4  5  1  0
  5  6  1  0
  6  7  1  0
  7  8  1  0
  8  9  1  0
  2 10  1  0
 10 11  1  0
 11 12  1  0
 11 13  1  0
 11 14  1  0
 10 15  1  0
 15 16  1  0
 16 17  2  0
 16 18  1  0
 18 19  2  0
 19 20  1  0
 20 21  2  0
 21 22  1  0
 22 23  2  0
 22 24  1  0
 24 25  1  0
 25 26  1  0
 26 27  1  0
 26 28  1  0
 26 29  1  0
 25 30  1  0
 21 31  1  0
 31 32  1  0
 32 33  1  0
  6  3  1  0
 23 18  1  0
 33 31  1  0
  9  6  1  0
  4 34  1  0
  4 35  1  0
  5 36  1  0
  5 37  1  0
  7 38  1  0
  7 39  1  0
  9 40  1  0
  9 41  1  0
 10 42  1  0
 12 43  1  0
 12 44  1  0
 12 45  1  0
 13 46  1  0
 13 47  1  0
 13 48  1  0
 14 49  1  0
 14 50  1  0
 14 51  1  0
 15 52  1  0
 20 53  1  0
 23 54  1  0
 25 55  1  1
 30 56  1  0
 30 57  1  0
 30 58  1  0
 31 59  1  0
 32 60  1  0
 32 61  1  0
 33 62  1  0
 33 63  1  0
M  END
>  <Ligand ID>  (1) 
LIG0005184

>  <Ligand>  (1) 
CHEMBL3913128

>  <SMILES>  (1) 
O=C(N1CCC21COC2)C(C(C)(C)C)NC(=O)c1ncc(c(c1)O[C@H](C(F)(F)F)C)C1CC1

>  <CID>  (1) 
90204920.0

>  <ChEMBL ID>  (1) 
nan

>  <InChiKey>  (1) 
UDSRIIFBWPGGCF-FVRDMJKUSA-N

>  <InChi>  (1) 
InChI=1S/C23H30F3N3O4/c1-13(23(24,25)26)33-17-9-16(27-10-15(17)14-5-6-14)19(30)28-18(21(2,3)4)20(31)29-8-7-22(29)11-32-12-22/h9-10,13-14,18H,5-8,11-12H2,1-4H3,(H,28,30)/t13-,18?/m0/s1

>  <IUPAC Name>  (1) 
5-cyclopropyl-N-[3,3-dimethyl-1-(6-oxa-1-azaspiro[3.3]heptan-1-yl)-1-oxobutan-2-yl]-4-[(2S)-1,1,1-trifluoropropan-2-yl]oxypyridine-2-carboxamide

$$$$
