
     RDKit          3D

 81 84  0  0  0  0  0  0  0  0999 V2000
   -2.9635   -0.7748    2.7548 O   0  0  0  0  0  0  0  0  0  0  0  0
   -2.2877   -0.8990    1.7010 C   0  0  0  0  0  0  0  0  0  0  0  0
   -1.2309   -1.9740    1.6051 C   0  0  1  0  0  0  0  0  0  0  0  0
   -1.7885   -3.3071    1.9598 C   0  0  0  0  0  0  0  0  0  0  0  0
   -0.8392   -4.4370    1.8989 C   0  0  0  0  0  0  0  0  0  0  0  0
   -0.0646   -4.8307    2.9932 C   0  0  0  0  0  0  0  0  0  0  0  0
    0.7947   -5.9066    2.8780 C   0  0  0  0  0  0  0  0  0  0  0  0
    0.8974   -6.6080    1.6723 C   0  0  0  0  0  0  0  0  0  0  0  0
    0.1212   -6.2120    0.5781 C   0  0  0  0  0  0  0  0  0  0  0  0
   -0.7456   -5.1276    0.6923 C   0  0  0  0  0  0  0  0  0  0  0  0
   -0.5853   -1.9111    0.3103 N   0  0  0  0  0  0  0  0  0  0  0  0
    0.6864   -1.2527    0.1232 C   0  0  0  0  0  0  0  0  0  0  0  0
    1.2305   -0.7293    1.1259 O   0  0  0  0  0  0  0  0  0  0  0  0
    1.3272   -1.1970   -1.2310 C   0  0  2  0  0  0  0  0  0  0  0  0
    1.8794   -2.5748   -1.5770 C   0  0  0  0  0  0  0  0  0  0  0  0
    2.8977   -2.9493   -0.5729 C   0  0  0  0  0  0  0  0  0  0  0  0
    2.7961   -3.6014    0.6266 C   0  0  0  0  0  0  0  0  0  0  0  0
    3.9945   -3.7252    1.2209 N   0  0  0  0  0  0  0  0  0  0  0  0
    4.8837   -3.1427    0.3906 C   0  0  0  0  0  0  0  0  0  0  0  0
    4.2289   -2.6696   -0.6990 N   0  0  0  0  0  0  0  0  0  0  0  0
    2.5134   -0.3569   -1.0452 N   0  0  0  0  0  0  0  0  0  0  0  0
    2.6522    0.7774   -1.8628 C   0  0  0  0  0  0  0  0  0  0  0  0
    1.8154    1.1143   -2.7479 O   0  0  0  0  0  0  0  0  0  0  0  0
    3.8269    1.6585   -1.7172 C   0  0  0  0  0  0  0  0  0  0  0  0
    4.0977    2.7966   -2.4406 C   0  0  0  0  0  0  0  0  0  0  0  0
    5.3022    3.3299   -1.9900 C   0  0  0  0  0  0  0  0  0  0  0  0
    5.7463    2.4803   -0.9764 C   0  0  0  0  0  0  0  0  0  0  0  0
    4.8428    1.4923   -0.8383 N   0  0  0  0  0  0  0  0  0  0  0  0
    6.9450    2.7354   -0.3046 C   0  0  0  0  0  0  0  0  0  0  0  0
    7.6640    3.8546   -0.6842 C   0  0  0  0  0  0  0  0  0  0  0  0
    7.2171    4.7047   -1.7002 C   0  0  0  0  0  0  0  0  0  0  0  0
    6.0334    4.4479   -2.3597 C   0  0  0  0  0  0  0  0  0  0  0  0
    8.0156    5.8193   -2.0179 O   0  0  0  0  0  0  0  0  0  0  0  0
   -2.4790   -0.0484    0.5631 N   0  0  0  0  0  0  0  0  0  0  0  0
   -3.5498    1.0361    0.6710 C   0  0  1  0  0  0  0  0  0  0  0  0
   -2.8041    2.2850    0.4285 C   0  0  0  0  0  0  0  0  0  0  0  0
   -3.2325    3.4478    0.5461 O   0  0  0  0  0  0  0  0  0  0  0  0
   -1.4161    2.2169    0.0042 N   0  0  0  0  0  0  0  0  0  0  0  0
   -4.5540    0.7635   -0.3656 C   0  0  0  0  0  0  0  0  0  0  0  0
   -5.7783    1.5054   -0.5837 C   0  0  0  0  0  0  0  0  0  0  0  0
   -5.8473    2.9368   -0.9043 C   0  0  0  0  0  0  0  0  0  0  0  0
   -7.3008    3.2166   -1.1271 N   0  0  0  0  0  0  0  0  0  0  0  0
   -7.9391    4.0838   -0.4308 C   0  0  0  0  0  0  0  0  0  0  0  0
   -9.3220    4.3488   -0.6443 N   0  0  0  0  0  0  0  0  0  0  0  0
   -7.2028    4.7804    0.5769 N   0  0  0  0  0  0  0  0  0  0  0  0
   -0.4743   -1.6763    2.3631 H   0  0  0  0  0  0  0  0  0  0  0  0
   -2.6895   -3.5651    1.3440 H   0  0  0  0  0  0  0  0  0  0  0  0
   -2.1989   -3.3230    3.0138 H   0  0  0  0  0  0  0  0  0  0  0  0
   -0.1647   -4.2674    3.9171 H   0  0  0  0  0  0  0  0  0  0  0  0
    1.4026   -6.2254    3.7174 H   0  0  0  0  0  0  0  0  0  0  0  0
    1.5662   -7.4554    1.5608 H   0  0  0  0  0  0  0  0  0  0  0  0
    0.1564   -6.7096   -0.3717 H   0  0  0  0  0  0  0  0  0  0  0  0
   -1.3549   -4.8095   -0.1516 H   0  0  0  0  0  0  0  0  0  0  0  0
   -0.9984   -2.3353   -0.5583 H   0  0  0  0  0  0  0  0  0  0  0  0
    0.6775   -0.7758   -1.9965 H   0  0  0  0  0  0  0  0  0  0  0  0
    2.3630   -2.5018   -2.5794 H   0  0  0  0  0  0  0  0  0  0  0  0
    1.0486   -3.3184   -1.6341 H   0  0  0  0  0  0  0  0  0  0  0  0
    1.8786   -3.9621    1.0346 H   0  0  0  0  0  0  0  0  0  0  0  0
    5.9381   -3.0868    0.6027 H   0  0  0  0  0  0  0  0  0  0  0  0
    4.7121   -2.1789   -1.4781 H   0  0  0  0  0  0  0  0  0  0  0  0
    3.2467   -0.5609   -0.3391 H   0  0  0  0  0  0  0  0  0  0  0  0
    3.4976    3.2420   -3.2415 H   0  0  0  0  0  0  0  0  0  0  0  0
    4.9286    0.7156   -0.1464 H   0  0  0  0  0  0  0  0  0  0  0  0
    7.2935    2.0778    0.4837 H   0  0  0  0  0  0  0  0  0  0  0  0
    8.6074    4.1076   -0.1970 H   0  0  0  0  0  0  0  0  0  0  0  0
    5.6883    5.1012   -3.1420 H   0  0  0  0  0  0  0  0  0  0  0  0
    8.3379    6.3466   -1.1926 H   0  0  0  0  0  0  0  0  0  0  0  0
   -1.9462   -0.1228   -0.3113 H   0  0  0  0  0  0  0  0  0  0  0  0
   -3.9308    0.8995    1.6914 H   0  0  0  0  0  0  0  0  0  0  0  0
   -0.6435    2.5284    0.6136 H   0  0  0  0  0  0  0  0  0  0  0  0
   -1.2708    1.8267   -0.9684 H   0  0  0  0  0  0  0  0  0  0  0  0
   -4.0166    0.6405   -1.3833 H   0  0  0  0  0  0  0  0  0  0  0  0
   -4.8822   -0.3379   -0.2112 H   0  0  0  0  0  0  0  0  0  0  0  0
   -6.3220    0.9760   -1.4545 H   0  0  0  0  0  0  0  0  0  0  0  0
   -6.5239    1.2575    0.2599 H   0  0  0  0  0  0  0  0  0  0  0  0
   -5.3543    3.2604   -1.8247 H   0  0  0  0  0  0  0  0  0  0  0  0
   -5.6176    3.6523   -0.0868 H   0  0  0  0  0  0  0  0  0  0  0  0
   -9.7803    5.0949   -0.0772 H   0  0  0  0  0  0  0  0  0  0  0  0
   -9.8231    3.7844   -1.3619 H   0  0  0  0  0  0  0  0  0  0  0  0
   -6.8368    4.2994    1.4368 H   0  0  0  0  0  0  0  0  0  0  0  0
   -6.9928    5.8049    0.5066 H   0  0  0  0  0  0  0  0  0  0  0  0
  1  2  2  0
  2  3  1  0
  3  4  1  0
  4  5  1  0
  5  6  2  0
  6  7  1  0
  7  8  2  0
  8  9  1  0
  9 10  2  0
  3 11  1  0
 11 12  1  0
 12 13  2  0
 12 14  1  0
 14 15  1  0
 15 16  1  0
 16 17  2  0
 17 18  1  0
 18 19  2  0
 19 20  1  0
 14 21  1  0
 21 22  1  0
 22 23  2  0
 22 24  1  0
 24 25  2  0
 25 26  1  0
 26 27  2  0
 27 28  1  0
 27 29  1  0
 29 30  2  0
 30 31  1  0
 31 32  2  0
 31 33  1  0
  2 34  1  0
 34 35  1  0
 35 36  1  0
 36 37  2  0
 36 38  1  0
 35 39  1  0
 39 40  1  0
 40 41  1  0
 41 42  1  0
 42 43  2  3
 43 44  1  0
 43 45  1  0
 10  5  1  0
 20 16  1  0
 28 24  1  0
 32 26  1  0
  3 46  1  1
  4 47  1  0
  4 48  1  0
  6 49  1  0
  7 50  1  0
  8 51  1  0
  9 52  1  0
 10 53  1  0
 11 54  1  0
 14 55  1  6
 15 56  1  0
 15 57  1  0
 17 58  1  0
 19 59  1  0
 20 60  1  0
 21 61  1  0
 25 62  1  0
 28 63  1  0
 29 64  1  0
 30 65  1  0
 32 66  1  0
 33 67  1  0
 34 68  1  0
 35 69  1  1
 38 70  1  0
 38 71  1  0
 39 72  1  0
 39 73  1  0
 40 74  1  0
 40 75  1  0
 41 76  1  0
 41 77  1  0
 44 78  1  0
 44 79  1  0
 45 80  1  0
 45 81  1  0
M  END
>  <Ligand ID>  (1) 
LIG0001257

>  <Ligand>  (1) 
CHEMBL568409

>  <SMILES>  (1) 
O=C([C@@H](Cc1ccccc1)NC(=O)[C@H](Cc1cnc[nH]1)NC(=O)c1cc2c([nH]1)ccc(c2)O)N[C@@H](C(=O)N)CCCN=C(N)N

>  <CID>  (1) 
45487413.0

>  <ChEMBL ID>  (1) 
nan

>  <InChiKey>  (1) 
IIIAOCIDACPBMN-OYRHQHFDSA-N

>  <InChi>  (1) 
InChI=1S/C30H36N10O5/c31-26(42)22(7-4-10-35-30(32)33)38-27(43)23(11-17-5-2-1-3-6-17)39-29(45)25(14-19-15-34-16-36-19)40-28(44)24-13-18-12-20(41)8-9-21(18)37-24/h1-3,5-6,8-9,12-13,15-16,22-23,25,37,41H,4,7,10-11,14H2,(H2,31,42)(H,34,36)(H,38,43)(H,39,45)(H,40,44)(H4,32,33,35)/t22-,23-,25+/m1/s1

>  <IUPAC Name>  (1) 
N-[(2S)-1-[[(2R)-1-[[(2R)-1-amino-5-(diaminomethylideneamino)-1-oxopentan-2-yl]amino]-1-oxo-3-phenylpropan-2-yl]amino]-3-(1H-imidazol-5-yl)-1-oxopropan-2-yl]-5-hydroxy-1H-indole-2-carboxamide

$$$$
