
     RDKit          3D

 75 80  0  0  0  0  0  0  0  0999 V2000
    8.7945    3.5969    3.0209 O   0  0  0  0  0  0  0  0  0  0  0  0
    8.0661    2.6003    2.3678 C   0  0  0  0  0  0  0  0  0  0  0  0
    6.7113    2.6552    2.1837 C   0  0  0  0  0  0  0  0  0  0  0  0
    5.9841    1.6741    1.5392 C   0  0  0  0  0  0  0  0  0  0  0  0
    6.6602    0.5560    1.0424 C   0  0  0  0  0  0  0  0  0  0  0  0
    8.0095    0.4812    1.2148 C   0  0  0  0  0  0  0  0  0  0  0  0
    8.7116    1.4685    1.8585 C   0  0  0  0  0  0  0  0  0  0  0  0
    5.9020   -0.4790    0.3633 C   0  0  0  0  0  0  0  0  0  0  0  0
    6.4840   -1.2195   -0.6531 C   0  0  0  0  0  0  0  0  0  0  0  0
    5.8128   -2.2024   -1.3241 C   0  0  0  0  0  0  0  0  0  0  0  0
    4.4980   -2.5119   -1.0176 C   0  0  0  0  0  0  0  0  0  0  0  0
    3.9077   -1.7897   -0.0156 C   0  0  0  0  0  0  0  0  0  0  0  0
    4.5912   -0.7885    0.6679 C   0  0  0  0  0  0  0  0  0  0  0  0
    3.8188   -3.5914   -1.7787 C   0  0  0  0  0  0  0  0  0  0  0  0
    3.1975   -2.9367   -2.9880 C   0  0  0  0  0  0  0  0  0  0  0  0
    2.2391   -1.9195   -2.6884 N   0  0  0  0  0  0  0  0  0  0  0  0
    1.0463   -2.1712   -1.9445 C   0  0  0  0  0  0  0  0  0  0  0  0
    0.8963   -3.3819   -1.5651 O   0  0  0  0  0  0  0  0  0  0  0  0
    0.0701   -1.1345   -1.6369 C   0  0  0  0  0  0  0  0  0  0  0  0
    0.1774    0.1711   -1.9937 C   0  0  0  0  0  0  0  0  0  0  0  0
   -0.7585    1.1476   -1.6960 C   0  0  0  0  0  0  0  0  0  0  0  0
   -1.8759    0.7603   -0.9870 C   0  0  0  0  0  0  0  0  0  0  0  0
   -1.9982   -0.5641   -0.6181 C   0  0  0  0  0  0  0  0  0  0  0  0
   -1.0559   -1.5227   -0.9232 C   0  0  0  0  0  0  0  0  0  0  0  0
   -3.2545   -0.9031    0.1500 C   0  0  2  0  0  0  0  0  0  0  0  0
   -3.1082   -2.2900    0.7751 C   0  0  0  0  0  0  0  0  0  0  0  0
   -4.4451   -0.9158   -0.7356 C   0  0  0  0  0  0  0  0  0  0  0  0
   -5.5718   -0.0161   -0.1997 C   0  0  0  0  0  0  0  0  0  0  0  0
   -5.1382    1.2534    0.1986 N   0  0  0  0  0  0  0  0  0  0  0  0
   -3.7630    1.4378    0.5028 C   0  0  2  0  0  0  0  0  0  0  0  0
   -2.8963    1.7880   -0.6529 C   0  0  0  0  0  0  0  0  0  0  0  0
   -3.3316    0.1602    1.2222 C   0  0  2  0  0  0  0  0  0  0  0  0
   -2.0263    0.3130    1.9513 C   0  0  0  0  0  0  0  0  0  0  0  0
   -5.9537    2.3764    0.1530 C   0  0  0  0  0  0  0  0  0  0  0  0
   -7.0601    2.3558    1.1578 C   0  0  0  0  0  0  0  0  0  0  0  0
   -8.1289    1.2678    1.1570 C   0  0  0  0  0  0  0  0  0  0  0  0
   -8.4744    2.6328    0.6654 C   0  0  0  0  0  0  0  0  0  0  0  0
    9.4665    4.0846    2.4331 H   0  0  0  0  0  0  0  0  0  0  0  0
    6.1707    3.5025    2.5558 H   0  0  0  0  0  0  0  0  0  0  0  0
    4.9107    1.7253    1.3979 H   0  0  0  0  0  0  0  0  0  0  0  0
    8.5257   -0.3890    0.8267 H   0  0  0  0  0  0  0  0  0  0  0  0
    9.7968    1.3977    1.9907 H   0  0  0  0  0  0  0  0  0  0  0  0
    7.4966   -1.0169   -0.9247 H   0  0  0  0  0  0  0  0  0  0  0  0
    6.2882   -2.7652   -2.1115 H   0  0  0  0  0  0  0  0  0  0  0  0
    2.8852   -1.9923    0.2663 H   0  0  0  0  0  0  0  0  0  0  0  0
    4.0973   -0.2205    1.4690 H   0  0  0  0  0  0  0  0  0  0  0  0
    4.6071   -4.2743   -2.1829 H   0  0  0  0  0  0  0  0  0  0  0  0
    3.1169   -4.1835   -1.1795 H   0  0  0  0  0  0  0  0  0  0  0  0
    2.7906   -3.7522   -3.6222 H   0  0  0  0  0  0  0  0  0  0  0  0
    4.0220   -2.4902   -3.5793 H   0  0  0  0  0  0  0  0  0  0  0  0
    2.3910   -0.9328   -3.0170 H   0  0  0  0  0  0  0  0  0  0  0  0
    1.0416    0.4969   -2.5478 H   0  0  0  0  0  0  0  0  0  0  0  0
   -0.6145    2.1706   -2.0080 H   0  0  0  0  0  0  0  0  0  0  0  0
   -1.2128   -2.5524   -0.6003 H   0  0  0  0  0  0  0  0  0  0  0  0
   -3.9429   -2.3982    1.4973 H   0  0  0  0  0  0  0  0  0  0  0  0
   -3.2739   -3.0182   -0.0347 H   0  0  0  0  0  0  0  0  0  0  0  0
   -2.1557   -2.4197    1.3119 H   0  0  0  0  0  0  0  0  0  0  0  0
   -4.9122   -1.9421   -0.8047 H   0  0  0  0  0  0  0  0  0  0  0  0
   -4.2266   -0.6594   -1.7985 H   0  0  0  0  0  0  0  0  0  0  0  0
   -6.3564    0.0203   -0.9911 H   0  0  0  0  0  0  0  0  0  0  0  0
   -5.9970   -0.5963    0.6429 H   0  0  0  0  0  0  0  0  0  0  0  0
   -3.6987    2.2341    1.3007 H   0  0  0  0  0  0  0  0  0  0  0  0
   -3.4491    1.9752   -1.5946 H   0  0  0  0  0  0  0  0  0  0  0  0
   -2.3703    2.7554   -0.4417 H   0  0  0  0  0  0  0  0  0  0  0  0
   -4.1075   -0.1093    1.9461 H   0  0  0  0  0  0  0  0  0  0  0  0
   -2.1748    0.2413    3.0486 H   0  0  0  0  0  0  0  0  0  0  0  0
   -1.4980    1.2550    1.7645 H   0  0  0  0  0  0  0  0  0  0  0  0
   -1.3432   -0.5468    1.6872 H   0  0  0  0  0  0  0  0  0  0  0  0
   -5.3374    3.3152    0.3387 H   0  0  0  0  0  0  0  0  0  0  0  0
   -6.4286    2.5929   -0.8335 H   0  0  0  0  0  0  0  0  0  0  0  0
   -6.8556    2.8359    2.1564 H   0  0  0  0  0  0  0  0  0  0  0  0
   -8.4824    0.9647    2.1886 H   0  0  0  0  0  0  0  0  0  0  0  0
   -8.1150    0.4336    0.4568 H   0  0  0  0  0  0  0  0  0  0  0  0
   -8.6271    2.6898   -0.4497 H   0  0  0  0  0  0  0  0  0  0  0  0
   -9.1651    3.2095    1.2967 H   0  0  0  0  0  0  0  0  0  0  0  0
  1  2  1  0
  2  3  2  0
  3  4  1  0
  4  5  2  0
  5  6  1  0
  6  7  2  0
  5  8  1  0
  8  9  2  0
  9 10  1  0
 10 11  2  0
 11 12  1  0
 12 13  2  0
 11 14  1  0
 14 15  1  0
 15 16  1  0
 16 17  1  0
 17 18  2  0
 17 19  1  0
 19 20  2  0
 20 21  1  0
 21 22  2  0
 22 23  1  0
 23 24  2  0
 23 25  1  0
 25 26  1  1
 25 27  1  0
 27 28  1  0
 28 29  1  0
 29 30  1  0
 30 31  1  0
 30 32  1  0
 32 33  1  0
 29 34  1  0
 34 35  1  0
 35 36  1  0
 36 37  1  0
  7  2  1  0
 13  8  1  0
 24 19  1  0
 32 25  1  0
 37 35  1  0
 31 22  1  0
  1 38  1  0
  3 39  1  0
  4 40  1  0
  6 41  1  0
  7 42  1  0
  9 43  1  0
 10 44  1  0
 12 45  1  0
 13 46  1  0
 14 47  1  0
 14 48  1  0
 15 49  1  0
 15 50  1  0
 16 51  1  0
 20 52  1  0
 21 53  1  0
 24 54  1  0
 26 55  1  0
 26 56  1  0
 26 57  1  0
 27 58  1  0
 27 59  1  0
 28 60  1  0
 28 61  1  0
 30 62  1  1
 31 63  1  0
 31 64  1  0
 32 65  1  1
 33 66  1  0
 33 67  1  0
 33 68  1  0
 34 69  1  0
 34 70  1  0
 35 71  1  0
 36 72  1  0
 36 73  1  0
 37 74  1  0
 37 75  1  0
M  END
>  <Ligand ID>  (1) 
LIG0002271

>  <Ligand>  (1) 
CHEMBL2208347

>  <SMILES>  (1) 
Oc1ccc(cc1)c1ccc(cc1)CCNC(=O)c1ccc2c(c1)[C@]1(C)CCN([C@H](C2)[C@@H]1C)CC1CC1

>  <CID>  (1) 
71454361.0

>  <ChEMBL ID>  (1) 
nan

>  <InChiKey>  (1) 
FTRDSYLIWZRYMR-OAXZOYPSSA-N

>  <InChi>  (1) 
InChI=1S/C33H38N2O2/c1-22-31-20-27-9-10-28(19-30(27)33(22,2)16-18-35(31)21-24-3-4-24)32(37)34-17-15-23-5-7-25(8-6-23)26-11-13-29(36)14-12-26/h5-14,19,22,24,31,36H,3-4,15-18,20-21H2,1-2H3,(H,34,37)/t22-,31+,33+/m0/s1

>  <IUPAC Name>  (1) 
(1R,9R,13R)-10-(cyclopropylmethyl)-N-[2-[4-(4-hydroxyphenyl)phenyl]ethyl]-1,13-dimethyl-10-azatricyclo[7.3.1.02,7]trideca-2(7),3,5-triene-4-carboxamide

$$$$
