
     RDKit          3D

 58 61  0  0  0  0  0  0  0  0999 V2000
   -8.6012    1.5365    2.6674 O   0  0  0  0  0  0  0  0  0  0  0  0
   -8.6024    0.6808    1.5488 C   0  0  0  0  0  0  0  0  0  0  0  0
   -9.2023   -0.4011    1.6890 O   0  0  0  0  0  0  0  0  0  0  0  0
   -7.9005    1.1577    0.3512 C   0  0  0  0  0  0  0  0  0  0  0  0
   -7.9252    0.1365   -0.7284 C   0  0  0  0  0  0  0  0  0  0  0  0
   -7.2378   -1.1209   -0.3465 C   0  0  0  0  0  0  0  0  0  0  0  0
   -5.7960   -0.9097   -0.0073 C   0  0  0  0  0  0  0  0  0  0  0  0
   -5.3597   -0.6374    1.2674 C   0  0  0  0  0  0  0  0  0  0  0  0
   -3.9987   -0.4460    1.5320 C   0  0  0  0  0  0  0  0  0  0  0  0
   -3.0651   -0.5273    0.5146 C   0  0  0  0  0  0  0  0  0  0  0  0
   -3.4913   -0.8000   -0.7682 C   0  0  0  0  0  0  0  0  0  0  0  0
   -4.8345   -0.9829   -0.9955 C   0  0  0  0  0  0  0  0  0  0  0  0
   -2.4842   -0.8864   -1.8567 C   0  0  0  0  0  0  0  0  0  0  0  0
   -1.6775   -0.3214    0.8453 C   0  0  0  0  0  0  0  0  0  0  0  0
   -1.2444   -0.0523    2.1027 N   0  0  0  0  0  0  0  0  0  0  0  0
    0.0665    0.0803    2.0679 O   0  0  0  0  0  0  0  0  0  0  0  0
    0.4977   -0.0921    0.8402 C   0  0  0  0  0  0  0  0  0  0  0  0
   -0.5829   -0.3452    0.0588 N   0  0  0  0  0  0  0  0  0  0  0  0
    1.8730   -0.0325    0.3560 C   0  0  0  0  0  0  0  0  0  0  0  0
    2.2216   -0.2291   -0.9615 C   0  0  0  0  0  0  0  0  0  0  0  0
    3.5434   -0.1599   -1.3575 C   0  0  0  0  0  0  0  0  0  0  0  0
    4.5395    0.1082   -0.4374 C   0  0  0  0  0  0  0  0  0  0  0  0
    4.2071    0.3112    0.9063 C   0  0  0  0  0  0  0  0  0  0  0  0
    2.8820    0.2370    1.2765 C   0  0  0  0  0  0  0  0  0  0  0  0
    5.9609    0.1899   -0.8226 C   0  0  0  0  0  0  0  0  0  0  0  0
    6.5326    1.5587   -0.5246 C   0  0  0  0  0  0  0  0  0  0  0  0
    7.8370    1.6785   -1.2730 C   0  0  0  0  0  0  0  0  0  0  0  0
    8.5092    0.3675   -1.5170 C   0  0  0  0  0  0  0  0  0  0  0  0
    8.2375   -0.6840   -0.4829 C   0  0  0  0  0  0  0  0  0  0  0  0
    6.8049   -0.8246   -0.0871 C   0  0  0  0  0  0  0  0  0  0  0  0
   -9.1376    1.3080    3.4931 H   0  0  0  0  0  0  0  0  0  0  0  0
   -8.4217    2.0939    0.0221 H   0  0  0  0  0  0  0  0  0  0  0  0
   -6.8513    1.4042    0.6365 H   0  0  0  0  0  0  0  0  0  0  0  0
   -7.6143    0.5325   -1.7216 H   0  0  0  0  0  0  0  0  0  0  0  0
   -9.0133   -0.1296   -0.8840 H   0  0  0  0  0  0  0  0  0  0  0  0
   -7.2250   -1.8244   -1.2229 H   0  0  0  0  0  0  0  0  0  0  0  0
   -7.7960   -1.6491    0.4352 H   0  0  0  0  0  0  0  0  0  0  0  0
   -6.0546   -0.5689    2.0785 H   0  0  0  0  0  0  0  0  0  0  0  0
   -3.7288   -0.2348    2.5619 H   0  0  0  0  0  0  0  0  0  0  0  0
   -5.1528   -1.1930   -1.9894 H   0  0  0  0  0  0  0  0  0  0  0  0
   -3.0168   -1.3245   -2.7480 H   0  0  0  0  0  0  0  0  0  0  0  0
   -1.6675   -1.5933   -1.6515 H   0  0  0  0  0  0  0  0  0  0  0  0
   -2.1314    0.1155   -2.1860 H   0  0  0  0  0  0  0  0  0  0  0  0
    1.4383   -0.4421   -1.6970 H   0  0  0  0  0  0  0  0  0  0  0  0
    3.8322   -0.3152   -2.4061 H   0  0  0  0  0  0  0  0  0  0  0  0
    4.9305    0.5218    1.6630 H   0  0  0  0  0  0  0  0  0  0  0  0
    2.6199    0.3962    2.3311 H   0  0  0  0  0  0  0  0  0  0  0  0
    6.0484    0.0047   -1.9174 H   0  0  0  0  0  0  0  0  0  0  0  0
    6.7511    1.5678    0.5783 H   0  0  0  0  0  0  0  0  0  0  0  0
    5.8383    2.3902   -0.7402 H   0  0  0  0  0  0  0  0  0  0  0  0
    7.5905    2.1209   -2.2809 H   0  0  0  0  0  0  0  0  0  0  0  0
    8.5233    2.4211   -0.7756 H   0  0  0  0  0  0  0  0  0  0  0  0
    9.6204    0.5604   -1.4751 H   0  0  0  0  0  0  0  0  0  0  0  0
    8.3010   -0.0600   -2.5255 H   0  0  0  0  0  0  0  0  0  0  0  0
    8.9177   -0.5944    0.4127 H   0  0  0  0  0  0  0  0  0  0  0  0
    8.5545   -1.6603   -0.9517 H   0  0  0  0  0  0  0  0  0  0  0  0
    6.4088   -1.8633   -0.2710 H   0  0  0  0  0  0  0  0  0  0  0  0
    6.7268   -0.5745    1.0039 H   0  0  0  0  0  0  0  0  0  0  0  0
  1  2  1  0
  2  3  2  0
  2  4  1  0
  4  5  1  0
  5  6  1  0
  6  7  1  0
  7  8  2  0
  8  9  1  0
  9 10  2  0
 10 11  1  0
 11 12  2  0
 11 13  1  0
 10 14  1  0
 14 15  2  0
 15 16  1  0
 16 17  1  0
 17 18  2  0
 17 19  1  0
 19 20  2  0
 20 21  1  0
 21 22  2  0
 22 23  1  0
 23 24  2  0
 22 25  1  0
 25 26  1  0
 26 27  1  0
 27 28  1  0
 28 29  1  0
 29 30  1  0
 12  7  1  0
 18 14  1  0
 24 19  1  0
 30 25  1  0
  1 31  1  0
  4 32  1  0
  4 33  1  0
  5 34  1  0
  5 35  1  0
  6 36  1  0
  6 37  1  0
  8 38  1  0
  9 39  1  0
 12 40  1  0
 13 41  1  0
 13 42  1  0
 13 43  1  0
 20 44  1  0
 21 45  1  0
 23 46  1  0
 24 47  1  0
 25 48  1  0
 26 49  1  0
 26 50  1  0
 27 51  1  0
 27 52  1  0
 28 53  1  0
 28 54  1  0
 29 55  1  0
 29 56  1  0
 30 57  1  0
 30 58  1  0
M  END
>  <Ligand ID>  (1) 
LIG0001695

>  <Ligand>  (1) 
CHEMBL208224

>  <SMILES>  (1) 
OC(=O)CCCc1ccc(c(c1)C)c1noc(n1)c1ccc(cc1)C1CCCCC1

>  <CID>  (1) 
44412883.0

>  <ChEMBL ID>  (1) 
nan

>  <InChiKey>  (1) 
ZSPIRWTWXYOJOE-UHFFFAOYSA-N

>  <InChi>  (1) 
InChI=1S/C25H28N2O3/c1-17-16-18(6-5-9-23(28)29)10-15-22(17)24-26-25(30-27-24)21-13-11-20(12-14-21)19-7-3-2-4-8-19/h10-16,19H,2-9H2,1H3,(H,28,29)

>  <IUPAC Name>  (1) 
4-[4-[5-(4-cyclohexylphenyl)-1,2,4-oxadiazol-3-yl]-3-methylphenyl]butanoic acid

$$$$
