
     RDKit          3D

 15 15  0  0  0  0  0  0  0  0999 V2000
   -2.4439    0.5538    0.0387 C   0  0  0  0  0  0  0  0  0  0  0  0
   -1.5118   -0.6098    0.0474 C   0  0  0  0  0  0  0  0  0  0  0  0
   -1.9716   -1.7602    0.0874 O   0  0  0  0  0  0  0  0  0  0  0  0
   -0.0585   -0.3302    0.0073 C   0  0  0  0  0  0  0  0  0  0  0  0
    0.8131   -1.4091    0.0152 C   0  0  0  0  0  0  0  0  0  0  0  0
    2.1579   -1.1728   -0.0214 N   0  0  0  0  0  0  0  0  0  0  0  0
    2.6298    0.1092   -0.0651 C   0  0  0  0  0  0  0  0  0  0  0  0
    1.7483    1.1908   -0.0729 C   0  0  0  0  0  0  0  0  0  0  0  0
    0.4069    0.9398   -0.0359 N   0  0  0  0  0  0  0  0  0  0  0  0
   -3.2455    0.3086   -0.6931 H   0  0  0  0  0  0  0  0  0  0  0  0
   -2.9225    0.5930    1.0513 H   0  0  0  0  0  0  0  0  0  0  0  0
   -1.8945    1.4903   -0.2058 H   0  0  0  0  0  0  0  0  0  0  0  0
    0.4850   -2.4363    0.0490 H   0  0  0  0  0  0  0  0  0  0  0  0
    3.6934    0.3111   -0.0945 H   0  0  0  0  0  0  0  0  0  0  0  0
    2.1138    2.2219   -0.1077 H   0  0  0  0  0  0  0  0  0  0  0  0
  1  2  1  0
  2  3  2  0
  2  4  1  0
  4  5  2  0
  5  6  1  0
  6  7  2  0
  7  8  1  0
  8  9  2  0
  9  4  1  0
  1 10  1  0
  1 11  1  0
  1 12  1  0
  5 13  1  0
  7 14  1  0
  8 15  1  0
M  END
>  <Ligand ID>  (1) 
LIG0000235

>  <Ligand>  (1) 
2-Acetylpyrazine

>  <SMILES>  (1) 
CC(=O)c1cnccn1

>  <CID>  (1) 
30914.0

>  <ChEMBL ID>  (1) 
nan

>  <InChiKey>  (1) 
DBZAKQWXICEWNW-UHFFFAOYSA-N

>  <InChi>  (1) 
InChI=1S/C6H6N2O/c1-5(9)6-4-7-2-3-8-6/h2-4H,1H3

>  <IUPAC Name>  (1) 
1-pyrazin-2-ylethanone

$$$$
