
     RDKit          3D

 94 94  0  0  0  0  0  0  0  0999 V2000
  -11.8047   -3.4464    0.8943 C   0  0  0  0  0  0  0  0  0  0  0  0
  -10.5471   -2.8686    1.4933 C   0  0  0  0  0  0  0  0  0  0  0  0
   -9.5753   -2.4439    0.4419 C   0  0  0  0  0  0  0  0  0  0  0  0
  -10.1305   -1.3830   -0.4854 C   0  0  0  0  0  0  0  0  0  0  0  0
  -10.5267   -0.1407    0.2110 C   0  0  0  0  0  0  0  0  0  0  0  0
   -9.5476    0.6087    1.0000 C   0  0  0  0  0  0  0  0  0  0  0  0
   -8.3383    1.2032    0.4063 C   0  0  0  0  0  0  0  0  0  0  0  0
   -7.3283    0.3609   -0.2387 C   0  0  0  0  0  0  0  0  0  0  0  0
   -6.1729    1.2447   -0.7720 C   0  0  0  0  0  0  0  0  0  0  0  0
   -5.4607    2.0153    0.2544 C   0  0  0  0  0  0  0  0  0  0  0  0
   -4.3399    2.8984   -0.0967 C   0  0  0  0  0  0  0  0  0  0  0  0
   -3.0796    2.4075   -0.6832 C   0  0  0  0  0  0  0  0  0  0  0  0
   -3.0650    1.7197   -1.9766 C   0  0  0  0  0  0  0  0  0  0  0  0
   -1.6226    1.4171   -2.4223 C   0  0  0  0  0  0  0  0  0  0  0  0
   -0.9679    0.5202   -1.4429 C   0  0  0  0  0  0  0  0  0  0  0  0
    0.3264    0.1197   -1.7172 O   0  0  0  0  0  0  0  0  0  0  0  0
    1.4201    0.9118   -1.7999 C   0  0  0  0  0  0  0  0  0  0  0  0
    1.5147    2.2586   -1.6124 C   0  0  0  0  0  0  0  0  0  0  0  0
    2.7016    2.9730   -1.7215 C   0  0  0  0  0  0  0  0  0  0  0  0
    3.8577    2.3214   -2.0319 C   0  0  0  0  0  0  0  0  0  0  0  0
    3.8121    0.9690   -2.2285 C   0  0  0  0  0  0  0  0  0  0  0  0
    2.6336    0.2617   -2.1203 C   0  0  0  0  0  0  0  0  0  0  0  0
    2.6667   -1.1835   -2.3447 C   0  0  0  0  0  0  0  0  0  0  0  0
    2.6107   -1.9801   -1.0477 C   0  0  0  0  0  0  0  0  0  0  0  0
    3.8261   -1.5374   -0.2739 C   0  0  0  0  0  0  0  0  0  0  0  0
    3.6656   -0.5530    0.4806 O   0  0  0  0  0  0  0  0  0  0  0  0
    5.0103   -2.2267   -0.4416 O   0  0  0  0  0  0  0  0  0  0  0  0
    6.1624   -1.8695    0.2417 C   0  0  0  0  0  0  0  0  0  0  0  0
    5.9483   -2.0068    1.7239 C   0  0  2  0  0  0  0  0  0  0  0  0
    7.2142   -1.5417    2.4189 C   0  0  0  0  0  0  0  0  0  0  0  0
    7.4152   -0.2137    2.0226 O   0  0  0  0  0  0  0  0  0  0  0  0
    8.8035    0.4660    2.7022 P   0  0  0  0  0  0  0  0  0  0  0  0
    8.7790    1.9423    2.2952 O   0  0  0  0  0  0  0  0  0  0  0  0
   10.1638   -0.2569    2.0468 O   0  0  0  0  0  0  0  0  0  0  0  0
   10.6392    0.5482    1.0133 C   0  0  0  0  0  0  0  0  0  0  0  0
   11.8216   -0.1573    0.3979 C   0  0  1  0  0  0  0  0  0  0  0  0
   12.3655    0.5958   -0.7715 C   0  0  0  0  0  0  0  0  0  0  0  0
   11.6662    0.8479   -1.7863 O   0  0  0  0  0  0  0  0  0  0  0  0
   13.6844    1.0644   -0.8035 O   0  0  0  0  0  0  0  0  0  0  0  0
   12.8115   -0.3239    1.4421 N   0  0  0  0  0  0  0  0  0  0  0  0
    8.7913    0.4450    4.3787 O   0  0  0  0  0  0  0  0  0  0  0  0
    5.6334   -3.3220    2.0382 O   0  0  0  0  0  0  0  0  0  0  0  0
  -12.4053   -3.9968    1.6603 H   0  0  0  0  0  0  0  0  0  0  0  0
  -11.5244   -4.2032    0.1375 H   0  0  0  0  0  0  0  0  0  0  0  0
  -12.4590   -2.7101    0.4163 H   0  0  0  0  0  0  0  0  0  0  0  0
  -10.8011   -2.0486    2.1979 H   0  0  0  0  0  0  0  0  0  0  0  0
  -10.0728   -3.6791    2.0761 H   0  0  0  0  0  0  0  0  0  0  0  0
   -9.3395   -3.3333   -0.1842 H   0  0  0  0  0  0  0  0  0  0  0  0
   -8.6275   -2.1268    0.9146 H   0  0  0  0  0  0  0  0  0  0  0  0
  -11.1267   -1.8416   -0.8570 H   0  0  0  0  0  0  0  0  0  0  0  0
   -9.5388   -1.3354   -1.3807 H   0  0  0  0  0  0  0  0  0  0  0  0
  -11.3687   -0.4469    0.9212 H   0  0  0  0  0  0  0  0  0  0  0  0
  -11.0869    0.4900   -0.5333 H   0  0  0  0  0  0  0  0  0  0  0  0
   -9.2136   -0.0243    1.8911 H   0  0  0  0  0  0  0  0  0  0  0  0
  -10.0702    1.4684    1.5475 H   0  0  0  0  0  0  0  0  0  0  0  0
   -7.8041    1.7496    1.2591 H   0  0  0  0  0  0  0  0  0  0  0  0
   -8.5893    2.0442   -0.2856 H   0  0  0  0  0  0  0  0  0  0  0  0
   -6.8001   -0.3413    0.4576 H   0  0  0  0  0  0  0  0  0  0  0  0
   -7.6469   -0.1772   -1.1644 H   0  0  0  0  0  0  0  0  0  0  0  0
   -6.7140    1.9292   -1.5023 H   0  0  0  0  0  0  0  0  0  0  0  0
   -5.5616    0.5138   -1.3370 H   0  0  0  0  0  0  0  0  0  0  0  0
   -6.2347    2.6660    0.7844 H   0  0  0  0  0  0  0  0  0  0  0  0
   -5.0942    1.2929    1.0565 H   0  0  0  0  0  0  0  0  0  0  0  0
   -4.0333    3.4247    0.8756 H   0  0  0  0  0  0  0  0  0  0  0  0
   -4.6826    3.7916   -0.7165 H   0  0  0  0  0  0  0  0  0  0  0  0
   -2.5238    1.8107    0.1011 H   0  0  0  0  0  0  0  0  0  0  0  0
   -2.4105    3.3213   -0.7918 H   0  0  0  0  0  0  0  0  0  0  0  0
   -3.6200    2.2069   -2.7772 H   0  0  0  0  0  0  0  0  0  0  0  0
   -3.4839    0.6771   -1.8833 H   0  0  0  0  0  0  0  0  0  0  0  0
   -1.7809    0.8277   -3.3826 H   0  0  0  0  0  0  0  0  0  0  0  0
   -1.1729    2.3810   -2.6214 H   0  0  0  0  0  0  0  0  0  0  0  0
   -1.6165   -0.3834   -1.2376 H   0  0  0  0  0  0  0  0  0  0  0  0
   -0.9077    0.9985   -0.4118 H   0  0  0  0  0  0  0  0  0  0  0  0
    0.6500    2.8178   -1.3506 H   0  0  0  0  0  0  0  0  0  0  0  0
    2.6974    4.0560   -1.5564 H   0  0  0  0  0  0  0  0  0  0  0  0
    4.7754    2.8829   -2.1142 H   0  0  0  0  0  0  0  0  0  0  0  0
    4.7474    0.4608   -2.4766 H   0  0  0  0  0  0  0  0  0  0  0  0
    3.5799   -1.4479   -2.9141 H   0  0  0  0  0  0  0  0  0  0  0  0
    1.8156   -1.5560   -2.9540 H   0  0  0  0  0  0  0  0  0  0  0  0
    1.6725   -1.7219   -0.5444 H   0  0  0  0  0  0  0  0  0  0  0  0
    2.6314   -3.0587   -1.2313 H   0  0  0  0  0  0  0  0  0  0  0  0
    6.9740   -2.5578   -0.1112 H   0  0  0  0  0  0  0  0  0  0  0  0
    6.4650   -0.8377   -0.0433 H   0  0  0  0  0  0  0  0  0  0  0  0
    5.1359   -1.3536    2.0610 H   0  0  0  0  0  0  0  0  0  0  0  0
    8.0648   -2.1362    2.0216 H   0  0  0  0  0  0  0  0  0  0  0  0
    7.1123   -1.6684    3.5083 H   0  0  0  0  0  0  0  0  0  0  0  0
    9.8254    0.7290    0.3098 H   0  0  0  0  0  0  0  0  0  0  0  0
   10.9709    1.5242    1.4078 H   0  0  0  0  0  0  0  0  0  0  0  0
   11.5241   -1.1693    0.0802 H   0  0  0  0  0  0  0  0  0  0  0  0
   13.8684    2.0307   -1.0938 H   0  0  0  0  0  0  0  0  0  0  0  0
   13.2965    0.5780    1.6314 H   0  0  0  0  0  0  0  0  0  0  0  0
   13.5402   -1.0257    1.2059 H   0  0  0  0  0  0  0  0  0  0  0  0
    9.4553   -0.2134    4.6943 H   0  0  0  0  0  0  0  0  0  0  0  0
    6.0715   -3.9441    1.3976 H   0  0  0  0  0  0  0  0  0  0  0  0
  1  2  1  0
  2  3  1  0
  3  4  1  0
  4  5  1  0
  5  6  1  0
  6  7  1  0
  7  8  1  0
  8  9  1  0
  9 10  1  0
 10 11  1  0
 11 12  1  0
 12 13  1  0
 13 14  1  0
 14 15  1  0
 15 16  1  0
 16 17  1  0
 17 18  2  0
 18 19  1  0
 19 20  2  0
 20 21  1  0
 21 22  2  0
 22 23  1  0
 23 24  1  0
 24 25  1  0
 25 26  2  0
 25 27  1  0
 27 28  1  0
 28 29  1  0
 29 30  1  0
 30 31  1  0
 31 32  1  0
 32 33  2  0
 32 34  1  0
 34 35  1  0
 35 36  1  0
 36 37  1  0
 37 38  2  0
 37 39  1  0
 36 40  1  0
 32 41  1  0
 29 42  1  0
 22 17  1  0
  1 43  1  0
  1 44  1  0
  1 45  1  0
  2 46  1  0
  2 47  1  0
  3 48  1  0
  3 49  1  0
  4 50  1  0
  4 51  1  0
  5 52  1  0
  5 53  1  0
  6 54  1  0
  6 55  1  0
  7 56  1  0
  7 57  1  0
  8 58  1  0
  8 59  1  0
  9 60  1  0
  9 61  1  0
 10 62  1  0
 10 63  1  0
 11 64  1  0
 11 65  1  0
 12 66  1  0
 12 67  1  0
 13 68  1  0
 13 69  1  0
 14 70  1  0
 14 71  1  0
 15 72  1  0
 15 73  1  0
 18 74  1  0
 19 75  1  0
 20 76  1  0
 21 77  1  0
 23 78  1  0
 23 79  1  0
 24 80  1  0
 24 81  1  0
 28 82  1  0
 28 83  1  0
 29 84  1  1
 30 85  1  0
 30 86  1  0
 35 87  1  0
 35 88  1  0
 36 89  1  6
 39 90  1  0
 40 91  1  0
 40 92  1  0
 41 93  1  0
 42 94  1  0
M  END
>  <Ligand ID>  (1) 
LIG0004271

>  <Ligand>  (1) 
CHEMBL3577174

>  <SMILES>  (1) 
CCCCCCCCCCCCCCCOc1ccccc1CCC(=O)OC[C@H](COP(=O)(OC[C@@H](C(=O)O)N)O)O

>  <CID>  (1) 
122177520.0

>  <ChEMBL ID>  (1) 
nan

>  <InChiKey>  (1) 
QFYAJDRMEAIBSH-SXOMAYOGSA-N

>  <InChi>  (1) 
InChI=1S/C30H52NO10P/c1-2-3-4-5-6-7-8-9-10-11-12-13-16-21-38-28-18-15-14-17-25(28)19-20-29(33)39-22-26(32)23-40-42(36,37)41-24-27(31)30(34)35/h14-15,17-18,26-27,32H,2-13,16,19-24,31H2,1H3,(H,34,35)(H,36,37)/t26-,27+/m1/s1

>  <IUPAC Name>  (1) 
(2S)-2-amino-3-[hydroxy-[(2R)-2-hydroxy-3-[3-(2-pentadecoxyphenyl)propanoyloxy]propoxy]phosphoryl]oxypropanoic acid

$$$$
