
     RDKit          3D

 68 72  0  0  0  0  0  0  0  0999 V2000
   -1.8020    3.6144    1.5278 O   0  0  0  0  0  0  0  0  0  0  0  0
   -0.8622    3.8692    0.5146 C   0  0  0  0  0  0  0  0  0  0  0  0
   -1.6271    3.9700   -0.8126 C   0  0  1  0  0  0  0  0  0  0  0  0
   -2.3405    2.7149   -1.1091 C   0  0  0  0  0  0  0  0  0  0  0  0
   -3.6098    2.7374   -0.9615 O   0  0  0  0  0  0  0  0  0  0  0  0
   -1.7759    1.5074   -1.5342 N   0  0  0  0  0  0  0  0  0  0  0  0
   -2.6734    0.3514   -1.7382 C   0  0  0  0  0  0  0  0  0  0  0  0
   -2.2386   -0.6532   -0.6984 C   0  0  0  0  0  0  0  0  0  0  0  0
   -3.0912   -1.3894   -0.0280 C   0  0  0  0  0  0  0  0  0  0  0  0
   -4.5585   -1.3093   -0.2304 C   0  0  0  0  0  0  0  0  0  0  0  0
   -5.3646   -1.2505    0.8872 C   0  0  0  0  0  0  0  0  0  0  0  0
   -6.7495   -1.1959    0.8136 C   0  0  0  0  0  0  0  0  0  0  0  0
   -7.3152   -1.2029   -0.4666 C   0  0  0  0  0  0  0  0  0  0  0  0
   -6.5066   -1.2624   -1.5896 C   0  0  0  0  0  0  0  0  0  0  0  0
   -5.1213   -1.3165   -1.4840 C   0  0  0  0  0  0  0  0  0  0  0  0
   -9.0569   -1.1345   -0.5682 Cl  0  0  0  0  0  0  0  0  0  0  0  0
   -0.7856   -0.7823   -0.4750 C   0  0  0  0  0  0  0  0  0  0  0  0
    0.1167    0.1303   -1.0019 C   0  0  0  0  0  0  0  0  0  0  0  0
   -0.3837    1.2625   -1.8164 C   0  0  0  0  0  0  0  0  0  0  0  0
    1.3993   -0.2527   -0.6257 C   0  0  0  0  0  0  0  0  0  0  0  0
    1.2369   -1.3549    0.0968 N   0  0  0  0  0  0  0  0  0  0  0  0
   -0.0687   -1.6769    0.1902 N   0  0  0  0  0  0  0  0  0  0  0  0
   -0.4581   -2.8393    0.9225 C   0  0  0  0  0  0  0  0  0  0  0  0
   -0.7314   -3.9933    0.1720 C   0  0  0  0  0  0  0  0  0  0  0  0
   -1.1032   -5.1726    0.8069 C   0  0  0  0  0  0  0  0  0  0  0  0
   -1.1997   -5.1915    2.1927 C   0  0  0  0  0  0  0  0  0  0  0  0
   -0.9217   -4.0282    2.9148 C   0  0  0  0  0  0  0  0  0  0  0  0
   -0.5530   -2.8541    2.3016 C   0  0  0  0  0  0  0  0  0  0  0  0
   -0.2106   -1.4095    3.2124 Cl  0  0  0  0  0  0  0  0  0  0  0  0
   -1.6672   -6.6746    2.9746 Cl  0  0  0  0  0  0  0  0  0  0  0  0
    2.6067    0.4770   -1.0012 C   0  0  0  0  0  0  0  0  0  0  0  0
    2.5018    1.5091   -1.6995 O   0  0  0  0  0  0  0  0  0  0  0  0
    3.8882    0.0353   -0.5893 N   0  0  0  0  0  0  0  0  0  0  0  0
    5.0898    0.7403   -0.9497 C   0  0  1  0  0  0  0  0  0  0  0  0
    5.8875    1.2053    0.2093 C   0  0  0  0  0  0  0  0  0  0  0  0
    6.1268    0.3843    1.2889 C   0  0  0  0  0  0  0  0  0  0  0  0
    6.8755    0.7970    2.3912 C   0  0  0  0  0  0  0  0  0  0  0  0
    7.4053    2.0848    2.4114 C   0  0  0  0  0  0  0  0  0  0  0  0
    7.1475    2.8838    1.3139 C   0  0  0  0  0  0  0  0  0  0  0  0
    6.4209    2.4606    0.2613 N   0  0  0  0  0  0  0  0  0  0  0  0
    5.9203   -0.1545   -1.8527 C   0  0  0  0  0  0  0  0  0  0  0  0
   -2.5247    5.0332   -0.6195 O   0  0  0  0  0  0  0  0  0  0  0  0
   -2.2073    4.4680    1.7897 H   0  0  0  0  0  0  0  0  0  0  0  0
   -0.4093    4.8490    0.7310 H   0  0  0  0  0  0  0  0  0  0  0  0
   -0.1443    3.0634    0.4236 H   0  0  0  0  0  0  0  0  0  0  0  0
   -0.9555    4.2118   -1.6283 H   0  0  0  0  0  0  0  0  0  0  0  0
   -3.7041    0.6722   -1.5963 H   0  0  0  0  0  0  0  0  0  0  0  0
   -2.4780   -0.0278   -2.7569 H   0  0  0  0  0  0  0  0  0  0  0  0
   -2.7807   -2.0884    0.7107 H   0  0  0  0  0  0  0  0  0  0  0  0
   -4.8891   -1.2463    1.8587 H   0  0  0  0  0  0  0  0  0  0  0  0
   -7.3569   -1.1495    1.7093 H   0  0  0  0  0  0  0  0  0  0  0  0
   -7.0106   -1.2647   -2.5384 H   0  0  0  0  0  0  0  0  0  0  0  0
   -4.5310   -1.3717   -2.3845 H   0  0  0  0  0  0  0  0  0  0  0  0
   -0.3063    0.9847   -2.9150 H   0  0  0  0  0  0  0  0  0  0  0  0
    0.1811    2.1899   -1.7172 H   0  0  0  0  0  0  0  0  0  0  0  0
   -0.6497   -3.9647   -0.9237 H   0  0  0  0  0  0  0  0  0  0  0  0
   -1.3044   -6.0330    0.1915 H   0  0  0  0  0  0  0  0  0  0  0  0
   -1.0053   -4.0762    3.9795 H   0  0  0  0  0  0  0  0  0  0  0  0
    3.9995   -0.8230   -0.0061 H   0  0  0  0  0  0  0  0  0  0  0  0
    4.8713    1.6508   -1.5726 H   0  0  0  0  0  0  0  0  0  0  0  0
    5.7295   -0.6216    1.3058 H   0  0  0  0  0  0  0  0  0  0  0  0
    7.0620    0.1478    3.2367 H   0  0  0  0  0  0  0  0  0  0  0  0
    7.9872    2.4287    3.2521 H   0  0  0  0  0  0  0  0  0  0  0  0
    7.5424    3.9038    1.2843 H   0  0  0  0  0  0  0  0  0  0  0  0
    5.9231   -1.2127   -1.4792 H   0  0  0  0  0  0  0  0  0  0  0  0
    5.5508   -0.1866   -2.8876 H   0  0  0  0  0  0  0  0  0  0  0  0
    6.9898    0.1584   -1.8497 H   0  0  0  0  0  0  0  0  0  0  0  0
   -3.4263    4.6683   -0.7224 H   0  0  0  0  0  0  0  0  0  0  0  0
  1  2  1  0
  2  3  1  0
  3  4  1  0
  4  5  2  0
  4  6  1  0
  6  7  1  0
  7  8  1  0
  8  9  2  0
  9 10  1  0
 10 11  2  0
 11 12  1  0
 12 13  2  0
 13 14  1  0
 14 15  2  0
 13 16  1  0
  8 17  1  0
 17 18  2  0
 18 19  1  0
 18 20  1  0
 20 21  2  0
 21 22  1  0
 22 23  1  0
 23 24  2  0
 24 25  1  0
 25 26  2  0
 26 27  1  0
 27 28  2  0
 28 29  1  0
 26 30  1  0
 20 31  1  0
 31 32  2  0
 31 33  1  0
 33 34  1  0
 34 35  1  0
 35 36  2  0
 36 37  1  0
 37 38  2  0
 38 39  1  0
 39 40  2  0
 34 41  1  0
  3 42  1  0
 19  6  1  0
 28 23  1  0
 40 35  1  0
 15 10  1  0
 22 17  1  0
  1 43  1  0
  2 44  1  0
  2 45  1  0
  3 46  1  6
  7 47  1  0
  7 48  1  0
  9 49  1  0
 11 50  1  0
 12 51  1  0
 14 52  1  0
 15 53  1  0
 19 54  1  0
 19 55  1  0
 24 56  1  0
 25 57  1  0
 27 58  1  0
 33 59  1  0
 34 60  1  6
 36 61  1  0
 37 62  1  0
 38 63  1  0
 39 64  1  0
 41 65  1  0
 41 66  1  0
 41 67  1  0
 42 68  1  0
M  END
>  <Ligand ID>  (1) 
LIG0005431

>  <Ligand>  (1) 
CHEMBL3985361

>  <SMILES>  (1) 
OC[C@@H](C(=O)N1C/C(=C\c2ccc(cc2)Cl)/c2c(C1)c(nn2c1ccc(cc1Cl)Cl)C(=O)N[C@@H](c1ccccn1)C)O

>  <CID>  (1) 
134157399.0

>  <ChEMBL ID>  (1) 
nan

>  <InChiKey>  (1) 
CJQXVQQIWACPJS-NGMZNZPNSA-N

>  <InChi>  (1) 
InChI=1S/C30H26Cl3N5O4/c1-17(24-4-2-3-11-34-24)35-29(41)27-22-15-37(30(42)26(40)16-39)14-19(12-18-5-7-20(31)8-6-18)28(22)38(36-27)25-10-9-21(32)13-23(25)33/h2-13,17,26,39-40H,14-16H2,1H3,(H,35,41)/b19-12+/t17-,26+/m1/s1

>  <IUPAC Name>  (1) 
(7E)-7-[(4-chlorophenyl)methylidene]-1-(2,4-dichlorophenyl)-5-[(2S)-2,3-dihydroxypropanoyl]-N-[(1R)-1-pyridin-2-ylethyl]-4,6-dihydropyrazolo[4,3-c]pyridine-3-carboxamide

$$$$
