
     RDKit          3D

 27 26  0  0  0  0  0  0  0  0999 V2000
    3.2855   -1.5152    0.0870 C   0  0  0  0  0  0  0  0  0  0  0  0
    2.3962   -0.5687    0.8061 C   0  0  0  0  0  0  0  0  0  0  0  0
    1.4038    0.1757   -0.0593 C   0  0  0  0  0  0  0  0  0  0  0  0
    0.6433    1.0574    0.9389 C   0  0  0  0  0  0  0  0  0  0  0  0
   -0.4043    1.8874    0.2607 C   0  0  0  0  0  0  0  0  0  0  0  0
   -1.4351    1.0338   -0.4493 C   0  0  0  0  0  0  0  0  0  0  0  0
   -2.1478    0.1226    0.4996 C   0  0  0  0  0  0  0  0  0  0  0  0
   -3.1821   -0.7341   -0.2138 C   0  0  0  0  0  0  0  0  0  0  0  0
   -2.5836   -1.5336   -1.1954 O   0  0  0  0  0  0  0  0  0  0  0  0
    4.3255   -1.0998   -0.0027 H   0  0  0  0  0  0  0  0  0  0  0  0
    3.3839   -2.4321    0.7079 H   0  0  0  0  0  0  0  0  0  0  0  0
    2.8971   -1.8447   -0.8970 H   0  0  0  0  0  0  0  0  0  0  0  0
    1.7821   -1.0978    1.5670 H   0  0  0  0  0  0  0  0  0  0  0  0
    3.0264    0.1456    1.3744 H   0  0  0  0  0  0  0  0  0  0  0  0
    1.9148    0.7470   -0.8326 H   0  0  0  0  0  0  0  0  0  0  0  0
    0.6343   -0.5041   -0.4795 H   0  0  0  0  0  0  0  0  0  0  0  0
    0.2398    0.3747    1.7032 H   0  0  0  0  0  0  0  0  0  0  0  0
    1.4055    1.7175    1.3978 H   0  0  0  0  0  0  0  0  0  0  0  0
    0.0571    2.6273   -0.3906 H   0  0  0  0  0  0  0  0  0  0  0  0
   -0.9520    2.4146    1.0667 H   0  0  0  0  0  0  0  0  0  0  0  0
   -2.1968    1.7816   -0.8198 H   0  0  0  0  0  0  0  0  0  0  0  0
   -1.0564    0.5251   -1.3372 H   0  0  0  0  0  0  0  0  0  0  0  0
   -2.6955    0.6864    1.2674 H   0  0  0  0  0  0  0  0  0  0  0  0
   -1.4191   -0.5545    0.9647 H   0  0  0  0  0  0  0  0  0  0  0  0
   -3.9924   -0.1168   -0.6377 H   0  0  0  0  0  0  0  0  0  0  0  0
   -3.6073   -1.4328    0.5300 H   0  0  0  0  0  0  0  0  0  0  0  0
   -1.7229   -1.8627   -0.8739 H   0  0  0  0  0  0  0  0  0  0  0  0
  1  2  1  0
  2  3  1  0
  3  4  1  0
  4  5  1  0
  5  6  1  0
  6  7  1  0
  7  8  1  0
  8  9  1  0
  1 10  1  0
  1 11  1  0
  1 12  1  0
  2 13  1  0
  2 14  1  0
  3 15  1  0
  3 16  1  0
  4 17  1  0
  4 18  1  0
  5 19  1  0
  5 20  1  0
  6 21  1  0
  6 22  1  0
  7 23  1  0
  7 24  1  0
  8 25  1  0
  8 26  1  0
  9 27  1  0
M  END
>  <Ligand ID>  (1) 
LIG0000066

>  <Ligand>  (1) 
octan-1-ol

>  <SMILES>  (1) 
CCCCCCCCO

>  <CID>  (1) 
957.0

>  <ChEMBL ID>  (1) 
nan

>  <InChiKey>  (1) 
KBPLFHHGFOOTCA-UHFFFAOYSA-N

>  <InChi>  (1) 
InChI=1S/C8H18O/c1-2-3-4-5-6-7-8-9/h9H,2-8H2,1H3

>  <IUPAC Name>  (1) 
octan-1-ol

$$$$
