
     RDKit          3D

 71 75  0  0  0  0  0  0  0  0999 V2000
   -8.7325   -0.8120    1.8629 O   0  0  0  0  0  0  0  0  0  0  0  0
   -8.3400   -0.2527    0.6480 C   0  0  2  0  0  0  0  0  0  0  0  0
   -8.5065   -1.1014   -0.5203 C   0  0  0  0  0  0  0  0  0  0  0  0
   -8.3363   -2.4683   -0.5667 C   0  0  0  0  0  0  0  0  0  0  0  0
   -8.5052   -3.2123   -1.7112 C   0  0  0  0  0  0  0  0  0  0  0  0
   -8.8651   -2.5569   -2.8792 C   0  0  0  0  0  0  0  0  0  0  0  0
   -9.0373   -1.2220   -2.8591 N   0  0  0  0  0  0  0  0  0  0  0  0
   -8.8689   -0.5073   -1.7346 C   0  0  0  0  0  0  0  0  0  0  0  0
   -7.0726    0.5427    0.7007 C   0  0  0  0  0  0  0  0  0  0  0  0
   -5.8977   -0.0578    1.1277 N   0  0  0  0  0  0  0  0  0  0  0  0
   -5.2092   -1.0343    0.4183 C   0  0  0  0  0  0  0  0  0  0  0  0
   -4.5573   -0.6197   -0.8833 C   0  0  0  0  0  0  0  0  0  0  0  0
   -3.5439    0.4578   -0.7070 C   0  0  0  0  0  0  0  0  0  0  0  0
   -2.2103    0.1860   -0.4227 C   0  0  0  0  0  0  0  0  0  0  0  0
   -1.3391    1.2527   -0.2776 C   0  0  0  0  0  0  0  0  0  0  0  0
   -1.7156    2.5606   -0.3979 C   0  0  0  0  0  0  0  0  0  0  0  0
   -3.0664    2.7989   -0.6851 C   0  0  0  0  0  0  0  0  0  0  0  0
   -3.9643    1.7627   -0.8366 C   0  0  0  0  0  0  0  0  0  0  0  0
   -0.8946    3.6921   -0.2804 N   0  0  0  0  0  0  0  0  0  0  0  0
    0.1798    4.0643    0.9852 S   0  0  0  0  0  0  0  0  0  0  0  0
    0.8742    5.3973    0.7371 O   0  0  0  0  0  0  0  0  0  0  0  0
   -0.5485    4.1268    2.3218 O   0  0  0  0  0  0  0  0  0  0  0  0
    1.4218    2.8578    1.1220 C   0  0  0  0  0  0  0  0  0  0  0  0
    1.3977    1.8236    2.0355 C   0  0  0  0  0  0  0  0  0  0  0  0
    2.4189    0.8917    2.1101 C   0  0  0  0  0  0  0  0  0  0  0  0
    3.4936    0.9708    1.2701 C   0  0  0  0  0  0  0  0  0  0  0  0
    3.5525    1.9869    0.3465 C   0  0  0  0  0  0  0  0  0  0  0  0
    2.5186    2.9158    0.2838 C   0  0  0  0  0  0  0  0  0  0  0  0
    4.5529    0.0295    1.3430 C   0  0  0  0  0  0  0  0  0  0  0  0
    4.5019   -1.3482    2.6101 S   0  0  0  0  0  0  0  0  0  0  0  0
    6.0939   -2.0450    2.0886 C   0  0  0  0  0  0  0  0  0  0  0  0
    6.4818   -1.1704    1.0288 C   0  0  0  0  0  0  0  0  0  0  0  0
    5.6794   -0.2205    0.7568 N   0  0  0  0  0  0  0  0  0  0  0  0
    7.7676   -1.4147    0.3241 C   0  0  0  0  0  0  0  0  0  0  0  0
    8.5810   -2.4632    0.6794 C   0  0  0  0  0  0  0  0  0  0  0  0
    9.7609   -2.6335   -0.0162 C   0  0  0  0  0  0  0  0  0  0  0  0
   10.1659   -1.8116   -1.0439 C   0  0  0  0  0  0  0  0  0  0  0  0
    9.3491   -0.7606   -1.3989 C   0  0  0  0  0  0  0  0  0  0  0  0
    8.1757   -0.5982   -0.7012 C   0  0  0  0  0  0  0  0  0  0  0  0
   11.3444   -1.9722   -1.7462 O   0  0  0  0  0  0  0  0  0  0  0  0
   12.5722   -1.3715   -1.3761 C   0  0  0  0  0  0  0  0  0  0  0  0
   13.5457   -1.7334   -2.2880 F   0  0  0  0  0  0  0  0  0  0  0  0
   12.4780   -0.0058   -1.2244 F   0  0  0  0  0  0  0  0  0  0  0  0
   12.9364   -1.8928   -0.1305 F   0  0  0  0  0  0  0  0  0  0  0  0
   -8.7131   -0.1591    2.5800 H   0  0  0  0  0  0  0  0  0  0  0  0
   -9.1487    0.5784    0.5033 H   0  0  0  0  0  0  0  0  0  0  0  0
   -8.0553   -2.9746    0.3474 H   0  0  0  0  0  0  0  0  0  0  0  0
   -8.3717   -4.2858   -1.7470 H   0  0  0  0  0  0  0  0  0  0  0  0
   -9.0152   -3.0776   -3.8132 H   0  0  0  0  0  0  0  0  0  0  0  0
   -9.0205    0.5723   -1.7719 H   0  0  0  0  0  0  0  0  0  0  0  0
   -7.0118    1.0499   -0.3023 H   0  0  0  0  0  0  0  0  0  0  0  0
   -7.2907    1.4076    1.4148 H   0  0  0  0  0  0  0  0  0  0  0  0
   -5.4422    0.3227    1.9824 H   0  0  0  0  0  0  0  0  0  0  0  0
   -4.3082   -1.3250    1.0720 H   0  0  0  0  0  0  0  0  0  0  0  0
   -5.7064   -2.0067    0.2667 H   0  0  0  0  0  0  0  0  0  0  0  0
   -5.2841   -0.3375   -1.6729 H   0  0  0  0  0  0  0  0  0  0  0  0
   -4.0254   -1.5141   -1.2704 H   0  0  0  0  0  0  0  0  0  0  0  0
   -1.8885   -0.8391   -0.3230 H   0  0  0  0  0  0  0  0  0  0  0  0
   -0.3097    1.0254   -0.0680 H   0  0  0  0  0  0  0  0  0  0  0  0
   -3.4179    3.8326   -0.7917 H   0  0  0  0  0  0  0  0  0  0  0  0
   -4.9871    2.0471   -1.0589 H   0  0  0  0  0  0  0  0  0  0  0  0
   -0.9580    4.3917   -1.0783 H   0  0  0  0  0  0  0  0  0  0  0  0
    0.5465    1.7591    2.7024 H   0  0  0  0  0  0  0  0  0  0  0  0
    2.3101    0.1226    2.8550 H   0  0  0  0  0  0  0  0  0  0  0  0
    4.4129    2.0273   -0.3075 H   0  0  0  0  0  0  0  0  0  0  0  0
    2.6242    3.7040   -0.4738 H   0  0  0  0  0  0  0  0  0  0  0  0
    6.5846   -2.8896    2.4921 H   0  0  0  0  0  0  0  0  0  0  0  0
    8.3241   -3.1402    1.4711 H   0  0  0  0  0  0  0  0  0  0  0  0
   10.3828   -3.4650    0.2831 H   0  0  0  0  0  0  0  0  0  0  0  0
    9.6424   -0.0853   -2.2155 H   0  0  0  0  0  0  0  0  0  0  0  0
    7.4946    0.2275   -0.9527 H   0  0  0  0  0  0  0  0  0  0  0  0
  1  2  1  0
  2  3  1  0
  3  4  2  0
  4  5  1  0
  5  6  2  0
  6  7  1  0
  7  8  2  0
  2  9  1  0
  9 10  1  0
 10 11  1  0
 11 12  1  0
 12 13  1  0
 13 14  2  0
 14 15  1  0
 15 16  2  0
 16 17  1  0
 17 18  2  0
 16 19  1  0
 19 20  1  0
 20 21  2  0
 20 22  2  0
 20 23  1  0
 23 24  2  0
 24 25  1  0
 25 26  2  0
 26 27  1  0
 27 28  2  0
 26 29  1  0
 29 30  1  0
 30 31  1  0
 31 32  2  0
 32 33  1  0
 32 34  1  0
 34 35  2  0
 35 36  1  0
 36 37  2  0
 37 38  1  0
 38 39  2  0
 37 40  1  0
 40 41  1  0
 41 42  1  0
 41 43  1  0
 41 44  1  0
  8  3  1  0
 18 13  1  0
 28 23  1  0
 33 29  2  0
 39 34  1  0
  1 45  1  0
  2 46  1  6
  4 47  1  0
  5 48  1  0
  6 49  1  0
  8 50  1  0
  9 51  1  0
  9 52  1  0
 10 53  1  0
 11 54  1  0
 11 55  1  0
 12 56  1  0
 12 57  1  0
 14 58  1  0
 15 59  1  0
 17 60  1  0
 18 61  1  0
 19 62  1  0
 24 63  1  0
 25 64  1  0
 27 65  1  0
 28 66  1  0
 31 67  1  0
 35 68  1  0
 36 69  1  0
 38 70  1  0
 39 71  1  0
M  END
>  <Ligand ID>  (1) 
LIG0002567

>  <Ligand>  (1) 
CHEMBL331744

>  <SMILES>  (1) 
O[C@H](c1cccnc1)CNCCc1ccc(cc1)NS(=O)(=O)c1ccc(cc1)c1scc(n1)c1ccc(cc1)OC(F)(F)F

>  <CID>  (1) 
10722793.0

>  <ChEMBL ID>  (1) 
nan

>  <InChiKey>  (1) 
YRGWQUSTRJHRQE-LJAQVGFWSA-N

>  <InChi>  (1) 
InChI=1S/C31H27F3N4O4S2/c32-31(33,34)42-26-11-5-22(6-12-26)28-20-43-30(37-28)23-7-13-27(14-8-23)44(40,41)38-25-9-3-21(4-10-25)15-17-36-19-29(39)24-2-1-16-35-18-24/h1-14,16,18,20,29,36,38-39H,15,17,19H2/t29-/m0/s1

>  <IUPAC Name>  (1) 
N-[4-[2-[[(2R)-2-hydroxy-2-pyridin-3-ylethyl]amino]ethyl]phenyl]-4-[4-[4-(trifluoromethoxy)phenyl]-1,3-thiazol-2-yl]benzenesulfonamide

$$$$
