
     RDKit          3D

110113  0  0  0  0  0  0  0  0999 V2000
    4.1138   -0.1518   -0.1275 O   0  0  0  0  0  0  0  0  0  0  0  0
    3.9590    1.0810   -0.3101 C   0  0  0  0  0  0  0  0  0  0  0  0
    4.6670    2.1167    0.5139 C   0  0  0  0  0  0  0  0  0  0  0  0
    5.5504    1.5370    1.4928 N   0  0  0  0  0  0  0  0  0  0  0  0
    5.2919    1.0838    2.7741 C   0  0  0  0  0  0  0  0  0  0  0  0
    6.3579    0.5586    3.3774 O   0  0  0  0  0  0  0  0  0  0  0  0
    4.1372    1.0217    3.6536 C   0  0  0  0  0  0  0  0  0  0  0  0
    2.8879    1.5797    3.3642 N   0  0  0  0  0  0  0  0  0  0  0  0
    2.5751    2.9719    3.2445 C   0  0  0  0  0  0  0  0  0  0  0  0
    3.4960    3.8315    3.4149 O   0  0  0  0  0  0  0  0  0  0  0  0
    1.1838    3.4244    2.9228 C   0  0  0  0  0  0  0  0  0  0  0  0
    6.9664    1.4857    1.0357 C   0  0  0  0  0  0  0  0  0  0  0  0
    7.3662    0.2709    0.3654 C   0  0  0  0  0  0  0  0  0  0  0  0
    7.9667   -0.8308    0.9873 C   0  0  0  0  0  0  0  0  0  0  0  0
    8.3326   -1.9612    0.2931 C   0  0  0  0  0  0  0  0  0  0  0  0
    8.1321   -2.0815   -1.0600 C   0  0  0  0  0  0  0  0  0  0  0  0
    7.5398   -1.0023   -1.6981 C   0  0  0  0  0  0  0  0  0  0  0  0
    7.1754    0.1213   -1.0073 C   0  0  0  0  0  0  0  0  0  0  0  0
    3.0846    1.6102   -1.3224 N   0  0  0  0  0  0  0  0  0  0  0  0
    2.3085    0.7043   -2.1871 C   0  0  1  0  0  0  0  0  0  0  0  0
    0.8615    0.8602   -1.8683 C   0  0  0  0  0  0  0  0  0  0  0  0
    0.5722    1.8352   -1.1135 O   0  0  0  0  0  0  0  0  0  0  0  0
   -0.1686    0.0162   -2.3392 N   0  0  0  0  0  0  0  0  0  0  0  0
   -1.5244    0.3431   -1.9273 C   0  0  2  0  0  0  0  0  0  0  0  0
   -1.8237   -0.1231   -0.5399 C   0  0  0  0  0  0  0  0  0  0  0  0
   -1.0019   -0.8467    0.1133 O   0  0  0  0  0  0  0  0  0  0  0  0
   -3.0461    0.2710    0.0332 N   0  0  0  0  0  0  0  0  0  0  0  0
   -3.4284   -0.1113    1.4151 C   0  0  2  0  0  0  0  0  0  0  0  0
   -4.6773   -0.8390    1.3532 C   0  0  0  0  0  0  0  0  0  0  0  0
   -5.1666   -1.4380    2.3798 O   0  0  0  0  0  0  0  0  0  0  0  0
   -5.4971   -0.9788    0.1744 N   0  0  0  0  0  0  0  0  0  0  0  0
   -6.7018   -1.7574    0.3360 C   0  0  0  0  0  0  0  0  0  0  0  0
   -7.4584   -1.8320   -0.9384 C   0  0  0  0  0  0  0  0  0  0  0  0
   -7.0498   -1.2641   -1.9941 O   0  0  0  0  0  0  0  0  0  0  0  0
   -8.6804   -2.5849   -0.9069 N   0  0  0  0  0  0  0  0  0  0  0  0
   -3.5381    1.1566    2.2014 C   0  0  0  0  0  0  0  0  0  0  0  0
   -3.9433    1.0424    3.6001 C   0  0  0  0  0  0  0  0  0  0  0  0
   -3.0393    0.9213    4.6514 C   0  0  0  0  0  0  0  0  0  0  0  0
   -3.7280    0.8044    5.8088 N   0  0  0  0  0  0  0  0  0  0  0  0
   -5.0620    0.8449    5.5608 C   0  0  0  0  0  0  0  0  0  0  0  0
   -5.1865    0.9917    4.1972 C   0  0  0  0  0  0  0  0  0  0  0  0
   -6.4609    1.0834    3.6626 C   0  0  0  0  0  0  0  0  0  0  0  0
   -7.6087    1.0352    4.4158 C   0  0  0  0  0  0  0  0  0  0  0  0
   -7.4698    0.8875    5.7722 C   0  0  0  0  0  0  0  0  0  0  0  0
   -6.2006    0.7928    6.3408 C   0  0  0  0  0  0  0  0  0  0  0  0
   -2.5672    0.1553   -2.9325 C   0  0  0  0  0  0  0  0  0  0  0  0
   -2.7550   -1.2090   -3.5023 C   0  0  0  0  0  0  0  0  0  0  0  0
   -3.1005   -2.2877   -2.5338 C   0  0  0  0  0  0  0  0  0  0  0  0
   -3.2509   -3.5618   -3.2394 N   0  0  0  0  0  0  0  0  0  0  0  0
   -3.8833   -4.5564   -2.7254 C   0  0  0  0  0  0  0  0  0  0  0  0
   -4.4669   -4.4509   -1.4331 N   0  0  0  0  0  0  0  0  0  0  0  0
   -3.9900   -5.7566   -3.4793 N   0  0  0  0  0  0  0  0  0  0  0  0
    2.6286    1.0397   -3.5814 C   0  0  0  0  0  0  0  0  0  0  0  0
    4.0363    0.9135   -4.0039 C   0  0  0  0  0  0  0  0  0  0  0  0
    4.8826    2.0094   -3.8215 C   0  0  0  0  0  0  0  0  0  0  0  0
    6.2067    1.9800   -4.2204 C   0  0  0  0  0  0  0  0  0  0  0  0
    6.6660    0.8116   -4.8133 C   0  0  0  0  0  0  0  0  0  0  0  0
    5.8228   -0.2811   -4.9953 C   0  0  0  0  0  0  0  0  0  0  0  0
    4.5033   -0.2508   -4.5969 C   0  0  0  0  0  0  0  0  0  0  0  0
    3.8862    2.7068    0.9805 H   0  0  0  0  0  0  0  0  0  0  0  0
    5.2270    2.8180   -0.1720 H   0  0  0  0  0  0  0  0  0  0  0  0
    3.9721   -0.0796    3.9681 H   0  0  0  0  0  0  0  0  0  0  0  0
    4.4531    1.4460    4.6957 H   0  0  0  0  0  0  0  0  0  0  0  0
    2.0465    0.9408    3.2081 H   0  0  0  0  0  0  0  0  0  0  0  0
    0.5702    3.1997    3.8410 H   0  0  0  0  0  0  0  0  0  0  0  0
    1.1788    4.5106    2.6890 H   0  0  0  0  0  0  0  0  0  0  0  0
    0.7850    2.8123    2.0767 H   0  0  0  0  0  0  0  0  0  0  0  0
    7.1808    2.4083    0.4232 H   0  0  0  0  0  0  0  0  0  0  0  0
    7.5708    1.6260    1.9733 H   0  0  0  0  0  0  0  0  0  0  0  0
    8.1818   -0.8358    2.0485 H   0  0  0  0  0  0  0  0  0  0  0  0
    8.8046   -2.8108    0.8183 H   0  0  0  0  0  0  0  0  0  0  0  0
    8.4327   -2.9841   -1.5629 H   0  0  0  0  0  0  0  0  0  0  0  0
    7.3897   -1.1025   -2.7561 H   0  0  0  0  0  0  0  0  0  0  0  0
    6.7155    0.9307   -1.5661 H   0  0  0  0  0  0  0  0  0  0  0  0
    2.9590    2.6133   -1.4912 H   0  0  0  0  0  0  0  0  0  0  0  0
    2.6080   -0.3094   -1.9292 H   0  0  0  0  0  0  0  0  0  0  0  0
    0.0751   -0.7921   -2.9516 H   0  0  0  0  0  0  0  0  0  0  0  0
   -1.4783    1.4758   -1.7628 H   0  0  0  0  0  0  0  0  0  0  0  0
   -3.7370    0.8541   -0.4888 H   0  0  0  0  0  0  0  0  0  0  0  0
   -2.6451   -0.7919    1.8301 H   0  0  0  0  0  0  0  0  0  0  0  0
   -5.1995   -0.5254   -0.7143 H   0  0  0  0  0  0  0  0  0  0  0  0
   -6.4352   -2.8078    0.6435 H   0  0  0  0  0  0  0  0  0  0  0  0
   -7.3519   -1.3461    1.1482 H   0  0  0  0  0  0  0  0  0  0  0  0
   -8.6118   -3.6460   -0.9522 H   0  0  0  0  0  0  0  0  0  0  0  0
   -9.6053   -2.0926   -0.8427 H   0  0  0  0  0  0  0  0  0  0  0  0
   -4.2971    1.8610    1.7282 H   0  0  0  0  0  0  0  0  0  0  0  0
   -2.5883    1.7798    2.0985 H   0  0  0  0  0  0  0  0  0  0  0  0
   -1.9484    0.9208    4.5481 H   0  0  0  0  0  0  0  0  0  0  0  0
   -3.2922    0.6978    6.7633 H   0  0  0  0  0  0  0  0  0  0  0  0
   -6.5264    1.2010    2.5704 H   0  0  0  0  0  0  0  0  0  0  0  0
   -8.5549    1.1186    3.8988 H   0  0  0  0  0  0  0  0  0  0  0  0
   -8.3612    0.8494    6.3696 H   0  0  0  0  0  0  0  0  0  0  0  0
   -6.0679    0.6744    7.4193 H   0  0  0  0  0  0  0  0  0  0  0  0
   -2.4215    0.8636   -3.7503 H   0  0  0  0  0  0  0  0  0  0  0  0
   -3.5537    0.4361   -2.4727 H   0  0  0  0  0  0  0  0  0  0  0  0
   -1.9185   -1.5112   -4.2006 H   0  0  0  0  0  0  0  0  0  0  0  0
   -3.6274   -1.1399   -4.1941 H   0  0  0  0  0  0  0  0  0  0  0  0
   -4.1054   -2.0702   -2.1433 H   0  0  0  0  0  0  0  0  0  0  0  0
   -2.3499   -2.4614   -1.7436 H   0  0  0  0  0  0  0  0  0  0  0  0
   -3.9019   -4.2744   -0.5877 H   0  0  0  0  0  0  0  0  0  0  0  0
   -5.5213   -4.5615   -1.3522 H   0  0  0  0  0  0  0  0  0  0  0  0
   -4.7944   -6.4126   -3.2751 H   0  0  0  0  0  0  0  0  0  0  0  0
   -3.3109   -6.0215   -4.2258 H   0  0  0  0  0  0  0  0  0  0  0  0
    2.2943    2.1128   -3.7465 H   0  0  0  0  0  0  0  0  0  0  0  0
    2.0552    0.4771   -4.3483 H   0  0  0  0  0  0  0  0  0  0  0  0
    4.4657    2.9067   -3.3466 H   0  0  0  0  0  0  0  0  0  0  0  0
    6.8506    2.8282   -4.0747 H   0  0  0  0  0  0  0  0  0  0  0  0
    7.6896    0.7158   -5.1500 H   0  0  0  0  0  0  0  0  0  0  0  0
    6.2020   -1.1695   -5.4557 H   0  0  0  0  0  0  0  0  0  0  0  0
    3.8148   -1.0760   -4.7204 H   0  0  0  0  0  0  0  0  0  0  0  0
  1  2  2  0
  2  3  1  0
  3  4  1  0
  4  5  1  0
  5  6  2  0
  5  7  1  0
  7  8  1  0
  8  9  1  0
  9 10  2  0
  9 11  1  0
  4 12  1  0
 12 13  1  0
 13 14  2  0
 14 15  1  0
 15 16  2  0
 16 17  1  0
 17 18  2  0
  2 19  1  0
 19 20  1  0
 20 21  1  0
 21 22  2  0
 21 23  1  0
 23 24  1  0
 24 25  1  0
 25 26  2  0
 25 27  1  0
 27 28  1  0
 28 29  1  0
 29 30  2  0
 29 31  1  0
 31 32  1  0
 32 33  1  0
 33 34  2  0
 33 35  1  0
 28 36  1  0
 36 37  1  0
 37 38  2  0
 38 39  1  0
 39 40  1  0
 40 41  2  0
 41 42  1  0
 42 43  2  0
 43 44  1  0
 44 45  2  0
 24 46  1  0
 46 47  1  0
 47 48  1  0
 48 49  1  0
 49 50  2  3
 50 51  1  0
 50 52  1  0
 20 53  1  0
 53 54  1  0
 54 55  2  0
 55 56  1  0
 56 57  2  0
 57 58  1  0
 58 59  2  0
 18 13  1  0
 41 37  1  0
 59 54  1  0
 45 40  1  0
  3 60  1  0
  3 61  1  0
  7 62  1  0
  7 63  1  0
  8 64  1  0
 11 65  1  0
 11 66  1  0
 11 67  1  0
 12 68  1  0
 12 69  1  0
 14 70  1  0
 15 71  1  0
 16 72  1  0
 17 73  1  0
 18 74  1  0
 19 75  1  0
 20 76  1  1
 23 77  1  0
 24 78  1  1
 27 79  1  0
 28 80  1  1
 31 81  1  0
 32 82  1  0
 32 83  1  0
 35 84  1  0
 35 85  1  0
 36 86  1  0
 36 87  1  0
 38 88  1  0
 39 89  1  0
 42 90  1  0
 43 91  1  0
 44 92  1  0
 45 93  1  0
 46 94  1  0
 46 95  1  0
 47 96  1  0
 47 97  1  0
 48 98  1  0
 48 99  1  0
 51100  1  0
 51101  1  0
 52102  1  0
 52103  1  0
 53104  1  0
 53105  1  0
 55106  1  0
 56107  1  0
 57108  1  0
 58109  1  0
 59110  1  0
M  END
>  <Ligand ID>  (1) 
LIG0001463

>  <Ligand>  (1) 
CHEMBL602650

>  <SMILES>  (1) 
O=C(CN(C(=O)CNC(=O)C)Cc1ccccc1)N[C@@H](C(=O)N[C@H](C(=O)N[C@H](C(=O)NCC(=O)N)Cc1c[nH]c2c1cccc2)CCCN=C(N)N)Cc1ccccc1

>  <CID>  (1) 
46232217.0

>  <ChEMBL ID>  (1) 
nan

>  <InChiKey>  (1) 
YBYMKNFNNNSTAX-GMTSZFNJSA-N

>  <InChi>  (1) 
InChI=1S/C41H51N11O7/c1-26(53)46-23-37(56)52(24-28-13-6-3-7-14-28)25-36(55)49-33(19-27-11-4-2-5-12-27)40(59)50-32(17-10-18-45-41(43)44)39(58)51-34(38(57)48-22-35(42)54)20-29-21-47-31-16-9-8-15-30(29)31/h2-9,11-16,21,32-34,47H,10,17-20,22-25H2,1H3,(H2,42,54)(H,46,53)(H,48,57)(H,49,55)(H,50,59)(H,51,58)(H4,43,44,45)/t32-,33+,34-/m0/s1

>  <IUPAC Name>  (1) 
(2S)-2-[[(2R)-2-[[2-[(2-acetamidoacetyl)-benzylamino]acetyl]amino]-3-phenylpropanoyl]amino]-N-[(2S)-1-[(2-amino-2-oxoethyl)amino]-3-(1H-indol-3-yl)-1-oxopropan-2-yl]-5-(diaminomethylideneamino)pentanamide

$$$$
