
     RDKit          3D

144146  0  0  0  0  0  0  0  0999 V2000
   -9.1412   -1.8431   -0.6711 C   0  0  0  0  0  0  0  0  0  0  0  0
   -8.4422   -0.8066   -1.5612 C   0  0  0  0  0  0  0  0  0  0  0  0
   -6.9678   -1.0947   -1.6560 C   0  0  1  0  0  0  0  0  0  0  0  0
   -6.2296   -1.0626   -0.3747 C   0  0  2  0  0  0  0  0  0  0  0  0
   -6.1121    0.1699    0.3426 N   0  0  0  0  0  0  0  0  0  0  0  0
   -6.5063    1.4688   -0.0590 C   0  0  0  0  0  0  0  0  0  0  0  0
   -6.9550    1.5845   -1.2036 O   0  0  0  0  0  0  0  0  0  0  0  0
   -6.4328    2.6969    0.7605 C   0  0  1  0  0  0  0  0  0  0  0  0
   -5.4411    2.6408    1.8034 N   0  0  0  0  0  0  0  0  0  0  0  0
   -4.0904    2.1818    1.5685 C   0  0  0  0  0  0  0  0  0  0  0  0
   -3.8766    1.8426    0.3912 O   0  0  0  0  0  0  0  0  0  0  0  0
   -3.0527    2.1192    2.6299 C   0  0  0  0  0  0  0  0  0  0  0  0
   -1.9830    1.1966    2.0871 C   0  0  0  0  0  0  0  0  0  0  0  0
   -1.2652    1.6832    0.5313 S   0  0  0  0  0  0  0  0  0  0  0  0
   -0.0341    2.9766    0.6301 C   0  0  0  0  0  0  0  0  0  0  0  0
    1.1913    2.3920    1.4052 C   0  0  0  0  0  0  0  0  0  0  0  0
    1.7776    1.2608    0.6673 C   0  0  2  0  0  0  0  0  0  0  0  0
    0.7855    0.2319    0.2397 N   0  0  0  0  0  0  0  0  0  0  0  0
    0.7062   -0.2167   -1.1075 C   0  0  0  0  0  0  0  0  0  0  0  0
    1.5796    0.2564   -1.8624 O   0  0  0  0  0  0  0  0  0  0  0  0
   -0.2956   -1.1788   -1.6394 C   0  0  1  0  0  0  0  0  0  0  0  0
   -1.4660   -1.3584   -0.8245 N   0  0  0  0  0  0  0  0  0  0  0  0
   -1.6881   -2.4662    0.0737 C   0  0  0  0  0  0  0  0  0  0  0  0
   -0.7411   -3.2744    0.0993 O   0  0  0  0  0  0  0  0  0  0  0  0
   -2.8860   -2.6397    0.8817 C   0  0  1  0  0  0  0  0  0  0  0  0
   -3.9537   -1.6885    0.6401 N   0  0  0  0  0  0  0  0  0  0  0  0
   -5.0903   -1.9798   -0.2193 C   0  0  0  0  0  0  0  0  0  0  0  0
   -4.9754   -3.0766   -0.7974 O   0  0  0  0  0  0  0  0  0  0  0  0
   -3.4028   -4.0651    0.9347 C   0  0  0  0  0  0  0  0  0  0  0  0
   -4.5859   -4.1582    1.8365 C   0  0  0  0  0  0  0  0  0  0  0  0
   -5.0969   -5.5818    1.8351 C   0  0  0  0  0  0  0  0  0  0  0  0
   -4.5455   -6.4481    1.1486 O   0  0  0  0  0  0  0  0  0  0  0  0
   -6.2353   -5.8086    2.6723 N   0  0  0  0  0  0  0  0  0  0  0  0
   -0.7311   -0.7075   -3.0093 C   0  0  0  0  0  0  0  0  0  0  0  0
   -1.7480   -1.6810   -3.5440 C   0  0  0  0  0  0  0  0  0  0  0  0
   -2.9362   -1.6438   -3.1305 O   0  0  0  0  0  0  0  0  0  0  0  0
   -1.3209   -2.6427   -4.5323 N   0  0  0  0  0  0  0  0  0  0  0  0
    2.8267    0.5216    1.4272 C   0  0  0  0  0  0  0  0  0  0  0  0
    2.6926   -0.7694    1.2761 O   0  0  0  0  0  0  0  0  0  0  0  0
    3.8706    0.9565    2.2298 N   0  0  0  0  0  0  0  0  0  0  0  0
    4.2337    2.2724    2.6403 C   0  0  0  0  0  0  0  0  0  0  0  0
    5.2312    2.9809    1.8243 C   0  0  0  0  0  0  0  0  0  0  0  0
    6.5552    3.0982    2.2688 C   0  0  0  0  0  0  0  0  0  0  0  0
    7.5199    3.7490    1.5187 C   0  0  0  0  0  0  0  0  0  0  0  0
    7.1998    4.3042    0.3008 C   0  0  0  0  0  0  0  0  0  0  0  0
    5.9107    4.2040   -0.1617 C   0  0  0  0  0  0  0  0  0  0  0  0
    4.9602    3.5531    0.5977 C   0  0  0  0  0  0  0  0  0  0  0  0
    5.6106    4.8019   -1.4902 C   0  0  0  0  0  0  0  0  0  0  0  0
    4.7677   -0.1294    2.7369 C   0  0  0  0  0  0  0  0  0  0  0  0
    5.8810   -0.3150    1.7602 C   0  0  0  0  0  0  0  0  0  0  0  0
    6.0139    0.3951    0.7244 O   0  0  0  0  0  0  0  0  0  0  0  0
    6.8714   -1.3222    1.9446 N   0  0  0  0  0  0  0  0  0  0  0  0
    7.9911   -1.4678    0.9624 C   0  0  2  0  0  0  0  0  0  0  0  0
    7.4887   -2.2176   -0.2049 C   0  0  0  0  0  0  0  0  0  0  0  0
    6.3409   -2.7764   -0.1195 O   0  0  0  0  0  0  0  0  0  0  0  0
    8.1762   -2.3662   -1.4350 N   0  0  0  0  0  0  0  0  0  0  0  0
    7.6118   -3.1037   -2.5358 C   0  0  0  0  0  0  0  0  0  0  0  0
    8.5879   -3.0999   -3.6580 C   0  0  0  0  0  0  0  0  0  0  0  0
    8.2517   -3.6884   -4.7054 O   0  0  0  0  0  0  0  0  0  0  0  0
    9.8470   -2.4489   -3.5289 N   0  0  0  0  0  0  0  0  0  0  0  0
    9.1181   -2.0132    1.7188 C   0  0  0  0  0  0  0  0  0  0  0  0
   10.4155   -2.3026    1.0750 C   0  0  0  0  0  0  0  0  0  0  0  0
   11.1262   -1.1678    0.4227 C   0  0  0  0  0  0  0  0  0  0  0  0
   10.3883   -3.5841    0.2881 C   0  0  0  0  0  0  0  0  0  0  0  0
   -6.3668    3.9790    0.0249 C   0  0  0  0  0  0  0  0  0  0  0  0
   -7.5122    4.2749   -0.8582 C   0  0  0  0  0  0  0  0  0  0  0  0
   -8.6639    4.7854   -0.2296 C   0  0  0  0  0  0  0  0  0  0  0  0
   -9.7796    5.1146   -0.9738 C   0  0  0  0  0  0  0  0  0  0  0  0
   -9.7555    4.9368   -2.3327 C   0  0  0  0  0  0  0  0  0  0  0  0
   -8.6435    4.4389   -2.9776 C   0  0  0  0  0  0  0  0  0  0  0  0
   -7.5301    4.1144   -2.2194 C   0  0  0  0  0  0  0  0  0  0  0  0
  -10.8933    5.2740   -3.0690 O   0  0  0  0  0  0  0  0  0  0  0  0
   -6.8002   -2.4388   -2.3747 C   0  0  0  0  0  0  0  0  0  0  0  0
  -10.1502   -2.0351   -1.0771 H   0  0  0  0  0  0  0  0  0  0  0  0
   -8.5584   -2.7623   -0.5466 H   0  0  0  0  0  0  0  0  0  0  0  0
   -9.3055   -1.4037    0.3476 H   0  0  0  0  0  0  0  0  0  0  0  0
   -8.9247   -0.8979   -2.5805 H   0  0  0  0  0  0  0  0  0  0  0  0
   -8.7664    0.1496   -1.1784 H   0  0  0  0  0  0  0  0  0  0  0  0
   -6.5453   -0.3295   -2.3735 H   0  0  0  0  0  0  0  0  0  0  0  0
   -7.0751   -1.6350    0.3020 H   0  0  0  0  0  0  0  0  0  0  0  0
   -5.7126    0.1383    1.2983 H   0  0  0  0  0  0  0  0  0  0  0  0
   -7.4377    2.7390    1.3597 H   0  0  0  0  0  0  0  0  0  0  0  0
   -5.6055    2.9086    2.7795 H   0  0  0  0  0  0  0  0  0  0  0  0
   -3.4898    1.7135    3.5573 H   0  0  0  0  0  0  0  0  0  0  0  0
   -2.6647    3.1388    2.8216 H   0  0  0  0  0  0  0  0  0  0  0  0
   -2.2521    0.1361    2.0717 H   0  0  0  0  0  0  0  0  0  0  0  0
   -1.1753    1.2158    2.9199 H   0  0  0  0  0  0  0  0  0  0  0  0
   -0.3678    3.9226    1.0809 H   0  0  0  0  0  0  0  0  0  0  0  0
    0.3234    3.1980   -0.3953 H   0  0  0  0  0  0  0  0  0  0  0  0
    1.8992    3.2887    1.2943 H   0  0  0  0  0  0  0  0  0  0  0  0
    0.9947    2.2796    2.4597 H   0  0  0  0  0  0  0  0  0  0  0  0
    2.2363    1.6132   -0.2887 H   0  0  0  0  0  0  0  0  0  0  0  0
    0.1472   -0.2254    0.8888 H   0  0  0  0  0  0  0  0  0  0  0  0
    0.2301   -2.1856   -1.7758 H   0  0  0  0  0  0  0  0  0  0  0  0
   -2.2423   -0.6919   -0.8460 H   0  0  0  0  0  0  0  0  0  0  0  0
   -2.6068   -2.4502    1.9720 H   0  0  0  0  0  0  0  0  0  0  0  0
   -3.9919   -0.7626    1.0442 H   0  0  0  0  0  0  0  0  0  0  0  0
   -2.5712   -4.6199    1.4838 H   0  0  0  0  0  0  0  0  0  0  0  0
   -3.4781   -4.5785   -0.0140 H   0  0  0  0  0  0  0  0  0  0  0  0
   -5.4260   -3.5100    1.6859 H   0  0  0  0  0  0  0  0  0  0  0  0
   -4.2330   -4.0193    2.9055 H   0  0  0  0  0  0  0  0  0  0  0  0
   -7.1415   -5.9743    2.1871 H   0  0  0  0  0  0  0  0  0  0  0  0
   -6.2251   -5.8211    3.6957 H   0  0  0  0  0  0  0  0  0  0  0  0
   -1.1758    0.2887   -2.9951 H   0  0  0  0  0  0  0  0  0  0  0  0
    0.1370   -0.6903   -3.7111 H   0  0  0  0  0  0  0  0  0  0  0  0
   -0.3710   -3.0832   -4.5003 H   0  0  0  0  0  0  0  0  0  0  0  0
   -1.9693   -2.9174   -5.3073 H   0  0  0  0  0  0  0  0  0  0  0  0
    3.3763    2.9356    2.8278 H   0  0  0  0  0  0  0  0  0  0  0  0
    4.7578    2.1775    3.6799 H   0  0  0  0  0  0  0  0  0  0  0  0
    6.8547    2.6714    3.2316 H   0  0  0  0  0  0  0  0  0  0  0  0
    8.5466    3.8239    1.9003 H   0  0  0  0  0  0  0  0  0  0  0  0
    7.9569    4.8202   -0.2919 H   0  0  0  0  0  0  0  0  0  0  0  0
    3.9665    3.5035    0.1767 H   0  0  0  0  0  0  0  0  0  0  0  0
    5.4020    5.8800   -1.3975 H   0  0  0  0  0  0  0  0  0  0  0  0
    4.7683    4.2536   -1.9900 H   0  0  0  0  0  0  0  0  0  0  0  0
    6.5166    4.7061   -2.1500 H   0  0  0  0  0  0  0  0  0  0  0  0
    4.2018   -1.0614    2.8320 H   0  0  0  0  0  0  0  0  0  0  0  0
    5.1709    0.1369    3.7234 H   0  0  0  0  0  0  0  0  0  0  0  0
    6.8153   -1.9609    2.7701 H   0  0  0  0  0  0  0  0  0  0  0  0
    8.1467   -0.4206    0.5906 H   0  0  0  0  0  0  0  0  0  0  0  0
    9.1041   -1.9088   -1.5529 H   0  0  0  0  0  0  0  0  0  0  0  0
    6.7321   -2.5162   -2.9253 H   0  0  0  0  0  0  0  0  0  0  0  0
    7.2038   -4.0856   -2.2851 H   0  0  0  0  0  0  0  0  0  0  0  0
    9.8849   -1.3910   -3.5316 H   0  0  0  0  0  0  0  0  0  0  0  0
   10.7313   -2.9962   -3.4324 H   0  0  0  0  0  0  0  0  0  0  0  0
    9.2796   -1.3142    2.6066 H   0  0  0  0  0  0  0  0  0  0  0  0
    8.8009   -2.9657    2.2634 H   0  0  0  0  0  0  0  0  0  0  0  0
   11.1079   -2.5723    1.9742 H   0  0  0  0  0  0  0  0  0  0  0  0
   11.2713   -1.4163   -0.6653 H   0  0  0  0  0  0  0  0  0  0  0  0
   12.1838   -1.0387    0.7956 H   0  0  0  0  0  0  0  0  0  0  0  0
   10.6508   -0.1791    0.5416 H   0  0  0  0  0  0  0  0  0  0  0  0
   11.1064   -4.3656    0.6786 H   0  0  0  0  0  0  0  0  0  0  0  0
   10.7065   -3.4641   -0.7776 H   0  0  0  0  0  0  0  0  0  0  0  0
    9.3911   -4.0851    0.3843 H   0  0  0  0  0  0  0  0  0  0  0  0
   -5.4564    4.0283   -0.6149 H   0  0  0  0  0  0  0  0  0  0  0  0
   -6.3485    4.7982    0.7949 H   0  0  0  0  0  0  0  0  0  0  0  0
   -8.7049    4.9285    0.8404 H   0  0  0  0  0  0  0  0  0  0  0  0
  -10.6732    5.5059   -0.5283 H   0  0  0  0  0  0  0  0  0  0  0  0
   -8.6402    4.3024   -4.0748 H   0  0  0  0  0  0  0  0  0  0  0  0
   -6.6542    3.7375   -2.7441 H   0  0  0  0  0  0  0  0  0  0  0  0
  -11.6577    5.7913   -2.6409 H   0  0  0  0  0  0  0  0  0  0  0  0
   -5.8114   -2.5206   -2.8266 H   0  0  0  0  0  0  0  0  0  0  0  0
   -7.0103   -3.2931   -1.7192 H   0  0  0  0  0  0  0  0  0  0  0  0
   -7.5371   -2.4048   -3.2327 H   0  0  0  0  0  0  0  0  0  0  0  0
  1  2  1  0
  2  3  1  0
  3  4  1  0
  4  5  1  0
  5  6  1  0
  6  7  2  0
  6  8  1  0
  8  9  1  0
  9 10  1  0
 10 11  2  0
 10 12  1  0
 12 13  1  0
 13 14  1  0
 14 15  1  0
 15 16  1  0
 16 17  1  0
 17 18  1  0
 18 19  1  0
 19 20  2  0
 19 21  1  0
 21 22  1  0
 22 23  1  0
 23 24  2  0
 23 25  1  0
 25 26  1  0
 26 27  1  0
 27 28  2  0
 25 29  1  0
 29 30  1  0
 30 31  1  0
 31 32  2  0
 31 33  1  0
 21 34  1  0
 34 35  1  0
 35 36  2  0
 35 37  1  0
 17 38  1  0
 38 39  2  0
 38 40  1  0
 40 41  1  0
 41 42  1  0
 42 43  2  0
 43 44  1  0
 44 45  2  0
 45 46  1  0
 46 47  2  0
 46 48  1  0
 40 49  1  0
 49 50  1  0
 50 51  2  0
 50 52  1  0
 52 53  1  0
 53 54  1  0
 54 55  2  0
 54 56  1  0
 56 57  1  0
 57 58  1  0
 58 59  2  0
 58 60  1  0
 53 61  1  0
 61 62  1  0
 62 63  1  0
 62 64  1  0
  8 65  1  0
 65 66  1  0
 66 67  2  0
 67 68  1  0
 68 69  2  0
 69 70  1  0
 70 71  2  0
 69 72  1  0
  3 73  1  0
 27  4  1  0
 47 42  1  0
 71 66  1  0
  1 74  1  0
  1 75  1  0
  1 76  1  0
  2 77  1  0
  2 78  1  0
  3 79  1  6
  4 80  1  1
  5 81  1  0
  8 82  1  1
  9 83  1  0
 12 84  1  0
 12 85  1  0
 13 86  1  0
 13 87  1  0
 15 88  1  0
 15 89  1  0
 16 90  1  0
 16 91  1  0
 17 92  1  6
 18 93  1  0
 21 94  1  6
 22 95  1  0
 25 96  1  1
 26 97  1  0
 29 98  1  0
 29 99  1  0
 30100  1  0
 30101  1  0
 33102  1  0
 33103  1  0
 34104  1  0
 34105  1  0
 37106  1  0
 37107  1  0
 41108  1  0
 41109  1  0
 43110  1  0
 44111  1  0
 45112  1  0
 47113  1  0
 48114  1  0
 48115  1  0
 48116  1  0
 49117  1  0
 49118  1  0
 52119  1  0
 53120  1  6
 56121  1  0
 57122  1  0
 57123  1  0
 60124  1  0
 60125  1  0
 61126  1  0
 61127  1  0
 62128  1  0
 63129  1  0
 63130  1  0
 63131  1  0
 64132  1  0
 64133  1  0
 64134  1  0
 65135  1  0
 65136  1  0
 67137  1  0
 68138  1  0
 70139  1  0
 71140  1  0
 72141  1  0
 73142  1  0
 73143  1  0
 73144  1  0
M  END
>  <Ligand ID>  (1) 
LIG0001555

>  <Ligand>  (1) 
CHEMBL3354592

>  <SMILES>  (1) 
CC[C@@H]([C@@H]1NC(=O)[C@@H](NC(=O)CCSCC[C@H](NC(=O)[C@@H](NC(=O)[C@@H](NC1=O)CCC(=O)N)CC(=O)N)C(=O)N(Cc1cccc(c1)C)CC(=O)N[C@H](C(=O)NCC(=O)N)CC(C)C)Cc1ccc(cc1)O)C

>  <CID>  (1) 
118720282.0

>  <ChEMBL ID>  (1) 
nan

>  <InChiKey>  (1) 
DUCUNDNFCKYUKE-ASIWTYMMSA-N

>  <InChi>  (1) 
InChI=1S/C49H71N11O12S/c1-6-29(5)43-48(71)56-33(14-15-38(50)62)45(68)58-37(23-39(51)63)46(69)57-34(16-18-73-19-17-41(65)54-36(47(70)59-43)22-30-10-12-32(61)13-11-30)49(72)60(25-31-9-7-8-28(4)21-31)26-42(66)55-35(20-27(2)3)44(67)53-24-40(52)64/h7-13,21,27,29,33-37,43,61H,6,14-20,22-26H2,1-5H3,(H2,50,62)(H2,51,63)(H2,52,64)(H,53,67)(H,54,65)(H,55,66)(H,56,71)(H,57,69)(H,58,68)(H,59,70)/t29-,33-,34-,35-,36-,37-,43-/m0/s1

>  <IUPAC Name>  (1) 
(4S,7S,10S,13S,16S)-7-(2-amino-2-oxoethyl)-N-[2-[[(2S)-1-[(2-amino-2-oxoethyl)amino]-4-methyl-1-oxopentan-2-yl]amino]-2-oxoethyl]-10-(3-amino-3-oxopropyl)-13-[(2S)-butan-2-yl]-16-[(4-hydroxyphenyl)methyl]-N-[(3-methylphenyl)methyl]-6,9,12,15,18-pentaoxo-1-thia-5,8,11,14,17-pentazacycloicosane-4-carboxamide

$$$$
