
     RDKit          3D

195202  0  0  0  0  0  0  0  0999 V2000
   10.7573   -5.2574   -0.7726 N   0  0  0  0  0  0  0  0  0  0  0  0
    9.4451   -5.0522   -1.2556 C   0  0  0  0  0  0  0  0  0  0  0  0
    8.3943   -4.9473   -0.5520 N   0  0  0  0  0  0  0  0  0  0  0  0
    8.3592   -5.0214    0.8865 C   0  0  0  0  0  0  0  0  0  0  0  0
    7.1307   -4.2379    1.3639 C   0  0  0  0  0  0  0  0  0  0  0  0
    7.2524   -2.8190    0.9266 C   0  0  0  0  0  0  0  0  0  0  0  0
    6.0092   -2.0632    1.3776 C   0  0  2  0  0  0  0  0  0  0  0  0
    4.7769   -2.5028    0.8008 N   0  0  0  0  0  0  0  0  0  0  0  0
    4.5966   -3.2114   -0.4192 C   0  0  0  0  0  0  0  0  0  0  0  0
    5.6263   -3.4433   -1.0704 O   0  0  0  0  0  0  0  0  0  0  0  0
    3.3084   -3.6703   -0.9529 C   0  0  1  0  0  0  0  0  0  0  0  0
    3.2809   -5.0849   -1.4665 C   0  0  0  0  0  0  0  0  0  0  0  0
    3.6253   -6.1385   -0.5250 C   0  0  0  0  0  0  0  0  0  0  0  0
    2.7711   -6.7517    0.3600 C   0  0  0  0  0  0  0  0  0  0  0  0
    3.1511   -7.7514    1.1975 C   0  0  0  0  0  0  0  0  0  0  0  0
    4.4561   -8.2127    1.1987 C   0  0  0  0  0  0  0  0  0  0  0  0
    5.3396   -7.6196    0.3228 C   0  0  0  0  0  0  0  0  0  0  0  0
    4.9425   -6.6014   -0.5264 C   0  0  0  0  0  0  0  0  0  0  0  0
    2.2613   -3.4476    0.0215 N   0  0  0  0  0  0  0  0  0  0  0  0
    1.0160   -2.8021   -0.3538 C   0  0  0  0  0  0  0  0  0  0  0  0
    1.0012   -2.4066   -1.5302 O   0  0  0  0  0  0  0  0  0  0  0  0
   -0.1218   -2.6251    0.5391 C   0  0  2  0  0  0  0  0  0  0  0  0
   -0.4161   -3.9801    1.1972 C   0  0  0  0  0  0  0  0  0  0  0  0
   -0.7742   -5.0512    0.2722 C   0  0  0  0  0  0  0  0  0  0  0  0
   -1.0459   -6.3242    0.7094 N   0  0  0  0  0  0  0  0  0  0  0  0
   -1.3536   -7.0758   -0.3569 C   0  0  0  0  0  0  0  0  0  0  0  0
   -1.2967   -6.3500   -1.4843 N   0  0  0  0  0  0  0  0  0  0  0  0
   -0.9408   -5.1126   -1.0857 C   0  0  0  0  0  0  0  0  0  0  0  0
   -1.2952   -2.1688   -0.1744 N   0  0  0  0  0  0  0  0  0  0  0  0
   -2.5551   -1.8757    0.4135 C   0  0  0  0  0  0  0  0  0  0  0  0
   -2.6458   -1.9821    1.6260 O   0  0  0  0  0  0  0  0  0  0  0  0
   -3.6916   -1.4683   -0.5082 C   0  0  1  0  0  0  0  0  0  0  0  0
   -4.9461   -1.7794    0.1763 N   0  0  0  0  0  0  0  0  0  0  0  0
   -5.6237   -2.9315   -0.2231 C   0  0  0  0  0  0  0  0  0  0  0  0
   -5.0777   -3.6120   -1.1787 O   0  0  0  0  0  0  0  0  0  0  0  0
   -6.8725   -3.4900    0.2883 C   0  0  2  0  0  0  0  0  0  0  0  0
   -6.8183   -3.9160    1.7442 C   0  0  0  0  0  0  0  0  0  0  0  0
   -8.1437   -4.5069    2.0681 C   0  0  0  0  0  0  0  0  0  0  0  0
   -8.2341   -5.8935    1.8399 C   0  0  0  0  0  0  0  0  0  0  0  0
   -9.3907   -6.5935    2.0875 C   0  0  0  0  0  0  0  0  0  0  0  0
  -10.4649   -5.8807    2.5698 C   0  0  0  0  0  0  0  0  0  0  0  0
  -10.3952   -4.5075    2.8011 C   0  0  0  0  0  0  0  0  0  0  0  0
   -9.2154   -3.7979    2.5487 C   0  0  0  0  0  0  0  0  0  0  0  0
  -11.6529   -6.5883    2.8259 O   0  0  0  0  0  0  0  0  0  0  0  0
   -7.2239   -4.6819   -0.4696 N   0  0  0  0  0  0  0  0  0  0  0  0
   -3.5875   -0.0726   -0.9937 C   0  0  0  0  0  0  0  0  0  0  0  0
   -3.8321    1.0145   -0.0552 C   0  0  0  0  0  0  0  0  0  0  0  0
   -3.1195    1.2389    0.8718 O   0  0  0  0  0  0  0  0  0  0  0  0
   -4.9699    1.9421   -0.1249 N   0  0  0  0  0  0  0  0  0  0  0  0
   -5.9135    1.4696   -1.0669 C   0  0  2  0  0  0  0  0  0  0  0  0
   -5.8644    2.2117   -2.3189 C   0  0  0  0  0  0  0  0  0  0  0  0
   -6.6048    1.8687   -3.2613 O   0  0  0  0  0  0  0  0  0  0  0  0
   -5.0135    3.3376   -2.5896 N   0  0  0  0  0  0  0  0  0  0  0  0
   -7.2395    1.0738   -0.6127 C   0  0  0  0  0  0  0  0  0  0  0  0
   -8.1247    0.6160   -1.7195 C   0  0  0  0  0  0  0  0  0  0  0  0
   -8.9800    1.6003   -2.2360 C   0  0  0  0  0  0  0  0  0  0  0  0
   -9.7941    1.2606   -3.2595 C   0  0  0  0  0  0  0  0  0  0  0  0
   -9.7698   -0.0052   -3.7593 C   0  0  0  0  0  0  0  0  0  0  0  0
   -8.9511   -1.0099   -3.2897 C   0  0  0  0  0  0  0  0  0  0  0  0
   -8.1108   -0.6533   -2.2319 C   0  0  0  0  0  0  0  0  0  0  0  0
  -10.6249   -0.3064   -4.8108 O   0  0  0  0  0  0  0  0  0  0  0  0
   -5.0451    3.1669    0.6584 C   0  0  2  0  0  0  0  0  0  0  0  0
   -6.4980    3.7280    0.3932 C   0  0  0  0  0  0  0  0  0  0  0  0
   -4.2342    4.2536    0.1888 N   0  0  0  0  0  0  0  0  0  0  0  0
   -2.9000    4.6018    0.4003 C   0  0  0  0  0  0  0  0  0  0  0  0
   -2.1993    3.9303    1.1497 O   0  0  0  0  0  0  0  0  0  0  0  0
   -2.2122    5.7880   -0.2403 C   0  0  2  0  0  0  0  0  0  0  0  0
   -1.0787    6.1810    0.5522 N   0  0  0  0  0  0  0  0  0  0  0  0
    0.2377    5.6590    0.4817 C   0  0  0  0  0  0  0  0  0  0  0  0
    0.4166    4.7493   -0.3263 O   0  0  0  0  0  0  0  0  0  0  0  0
    1.2513    6.2506    1.3882 C   0  0  1  0  0  0  0  0  0  0  0  0
    2.4738    5.4910    1.4942 N   0  0  0  0  0  0  0  0  0  0  0  0
    2.9671    5.2308    2.8243 C   0  0  0  0  0  0  0  0  0  0  0  0
    2.2898    5.7257    3.7377 O   0  0  0  0  0  0  0  0  0  0  0  0
    4.1574    4.4592    3.1522 C   0  0  1  0  0  0  0  0  0  0  0  0
    4.8833    3.9016    2.0311 N   0  0  0  0  0  0  0  0  0  0  0  0
    4.8716    2.4879    1.8633 C   0  0  0  0  0  0  0  0  0  0  0  0
    4.1979    1.8455    2.6713 O   0  0  0  0  0  0  0  0  0  0  0  0
    5.6024    1.7690    0.7993 C   0  0  1  0  0  0  0  0  0  0  0  0
    5.3291    0.3489    0.8309 N   0  0  0  0  0  0  0  0  0  0  0  0
    6.2504   -0.6176    1.3519 C   0  0  0  0  0  0  0  0  0  0  0  0
    7.3037   -0.1452    1.7972 O   0  0  0  0  0  0  0  0  0  0  0  0
    5.5142    2.3791   -0.5667 C   0  0  0  0  0  0  0  0  0  0  0  0
    6.3316    1.4618   -1.4530 C   0  0  0  0  0  0  0  0  0  0  0  0
    5.7798    0.5528   -2.3502 C   0  0  0  0  0  0  0  0  0  0  0  0
    6.8258   -0.0644   -2.9266 N   0  0  0  0  0  0  0  0  0  0  0  0
    7.9913    0.4150   -2.4334 C   0  0  0  0  0  0  0  0  0  0  0  0
    7.7159    1.3861   -1.4957 C   0  0  0  0  0  0  0  0  0  0  0  0
    8.7307    2.0548   -0.8228 C   0  0  0  0  0  0  0  0  0  0  0  0
   10.0284    1.7353   -1.1018 C   0  0  0  0  0  0  0  0  0  0  0  0
   10.2960    0.7600   -2.0410 C   0  0  0  0  0  0  0  0  0  0  0  0
    9.3121    0.0825   -2.7231 C   0  0  0  0  0  0  0  0  0  0  0  0
    5.1428    5.3129    3.9399 C   0  0  0  0  0  0  0  0  0  0  0  0
    5.5817    6.5032    3.1879 C   0  0  0  0  0  0  0  0  0  0  0  0
    5.1825    6.7528    2.0257 O   0  0  0  0  0  0  0  0  0  0  0  0
    6.4921    7.3907    3.8206 N   0  0  0  0  0  0  0  0  0  0  0  0
    1.6711    7.5650    0.6972 C   0  0  0  0  0  0  0  0  0  0  0  0
   -3.1798    6.9021   -0.3668 C   0  0  0  0  0  0  0  0  0  0  0  0
   -2.6076    8.1354   -1.0103 C   0  0  0  0  0  0  0  0  0  0  0  0
   -2.0278    9.1577   -0.3079 C   0  0  0  0  0  0  0  0  0  0  0  0
   -1.5215   10.2651   -0.9916 C   0  0  0  0  0  0  0  0  0  0  0  0
   -1.6121   10.3180   -2.3784 C   0  0  0  0  0  0  0  0  0  0  0  0
   -2.1937    9.2976   -3.1014 C   0  0  0  0  0  0  0  0  0  0  0  0
   -2.6872    8.2128   -2.4119 C   0  0  0  0  0  0  0  0  0  0  0  0
   -4.8534    2.9853    2.0912 C   0  0  0  0  0  0  0  0  0  0  0  0
   -4.1072    3.7042    2.8315 O   0  0  0  0  0  0  0  0  0  0  0  0
   -5.5143    1.9509    2.7867 O   0  0  0  0  0  0  0  0  0  0  0  0
    9.2936   -4.9572   -2.6863 N   0  0  0  0  0  0  0  0  0  0  0  0
   11.3148   -4.3728   -0.5719 H   0  0  0  0  0  0  0  0  0  0  0  0
   11.1875   -6.1894   -0.6139 H   0  0  0  0  0  0  0  0  0  0  0  0
    9.2556   -4.5475    1.3549 H   0  0  0  0  0  0  0  0  0  0  0  0
    8.3060   -6.0807    1.1742 H   0  0  0  0  0  0  0  0  0  0  0  0
    7.2786   -4.1959    2.5060 H   0  0  0  0  0  0  0  0  0  0  0  0
    6.1975   -4.7264    1.1465 H   0  0  0  0  0  0  0  0  0  0  0  0
    8.0752   -2.3534    1.5379 H   0  0  0  0  0  0  0  0  0  0  0  0
    7.5388   -2.6429   -0.1090 H   0  0  0  0  0  0  0  0  0  0  0  0
    5.9419   -2.4224    2.4649 H   0  0  0  0  0  0  0  0  0  0  0  0
    3.8993   -2.2961    1.2981 H   0  0  0  0  0  0  0  0  0  0  0  0
    3.0491   -3.0636   -1.8864 H   0  0  0  0  0  0  0  0  0  0  0  0
    3.8585   -5.1742   -2.4342 H   0  0  0  0  0  0  0  0  0  0  0  0
    2.2125   -5.2575   -1.8129 H   0  0  0  0  0  0  0  0  0  0  0  0
    1.7465   -6.4149    0.3899 H   0  0  0  0  0  0  0  0  0  0  0  0
    2.4697   -8.2379    1.9067 H   0  0  0  0  0  0  0  0  0  0  0  0
    4.7654   -9.0086    1.8637 H   0  0  0  0  0  0  0  0  0  0  0  0
    6.3537   -7.9664    0.3156 H   0  0  0  0  0  0  0  0  0  0  0  0
    5.6703   -6.1846   -1.1801 H   0  0  0  0  0  0  0  0  0  0  0  0
    2.3017   -3.7011    1.0066 H   0  0  0  0  0  0  0  0  0  0  0  0
    0.1079   -1.9811    1.3965 H   0  0  0  0  0  0  0  0  0  0  0  0
   -1.1500   -3.8402    2.0311 H   0  0  0  0  0  0  0  0  0  0  0  0
    0.5188   -4.2663    1.7130 H   0  0  0  0  0  0  0  0  0  0  0  0
   -1.6091   -8.1217   -0.3026 H   0  0  0  0  0  0  0  0  0  0  0  0
   -1.4945   -6.7055   -2.4602 H   0  0  0  0  0  0  0  0  0  0  0  0
   -0.8217   -4.3052   -1.7850 H   0  0  0  0  0  0  0  0  0  0  0  0
   -1.2268   -2.0382   -1.1825 H   0  0  0  0  0  0  0  0  0  0  0  0
   -3.5850   -2.1543   -1.3611 H   0  0  0  0  0  0  0  0  0  0  0  0
   -5.3478   -1.1975    0.9341 H   0  0  0  0  0  0  0  0  0  0  0  0
   -7.6958   -2.7648    0.1589 H   0  0  0  0  0  0  0  0  0  0  0  0
   -6.0105   -4.6432    1.8849 H   0  0  0  0  0  0  0  0  0  0  0  0
   -6.7349   -3.0010    2.3769 H   0  0  0  0  0  0  0  0  0  0  0  0
   -7.3958   -6.4577    1.4609 H   0  0  0  0  0  0  0  0  0  0  0  0
   -9.4307   -7.6562    1.9015 H   0  0  0  0  0  0  0  0  0  0  0  0
  -11.2554   -3.9948    3.1773 H   0  0  0  0  0  0  0  0  0  0  0  0
   -9.1233   -2.7415    2.7158 H   0  0  0  0  0  0  0  0  0  0  0  0
  -12.0805   -7.0568    2.0113 H   0  0  0  0  0  0  0  0  0  0  0  0
   -7.4137   -4.4821   -1.4764 H   0  0  0  0  0  0  0  0  0  0  0  0
   -6.4262   -5.3536   -0.4606 H   0  0  0  0  0  0  0  0  0  0  0  0
   -3.8789    0.0249   -2.0318 H   0  0  0  0  0  0  0  0  0  0  0  0
   -2.4051    0.0261   -1.1412 H   0  0  0  0  0  0  0  0  0  0  0  0
   -5.4906    0.4080   -1.4503 H   0  0  0  0  0  0  0  0  0  0  0  0
   -4.0020    3.1630   -2.7531 H   0  0  0  0  0  0  0  0  0  0  0  0
   -5.4575    4.2765   -2.6106 H   0  0  0  0  0  0  0  0  0  0  0  0
   -7.8588    1.6792    0.0219 H   0  0  0  0  0  0  0  0  0  0  0  0
   -7.1451    0.0967    0.0171 H   0  0  0  0  0  0  0  0  0  0  0  0
   -9.0002    2.6043   -1.8388 H   0  0  0  0  0  0  0  0  0  0  0  0
  -10.4613    2.0481   -3.6507 H   0  0  0  0  0  0  0  0  0  0  0  0
   -8.9238   -2.0090   -3.6769 H   0  0  0  0  0  0  0  0  0  0  0  0
   -7.4399   -1.3821   -1.8108 H   0  0  0  0  0  0  0  0  0  0  0  0
  -11.3800   -0.9586   -4.6300 H   0  0  0  0  0  0  0  0  0  0  0  0
   -6.8278    3.5876   -0.6186 H   0  0  0  0  0  0  0  0  0  0  0  0
   -7.1568    3.4716    1.2275 H   0  0  0  0  0  0  0  0  0  0  0  0
   -6.4406    4.8733    0.4918 H   0  0  0  0  0  0  0  0  0  0  0  0
   -4.7270    4.9538   -0.4458 H   0  0  0  0  0  0  0  0  0  0  0  0
   -1.8891    5.3716   -1.2339 H   0  0  0  0  0  0  0  0  0  0  0  0
   -1.2250    6.9193    1.2536 H   0  0  0  0  0  0  0  0  0  0  0  0
    0.7917    6.4995    2.3643 H   0  0  0  0  0  0  0  0  0  0  0  0
    3.0430    5.1126    0.7528 H   0  0  0  0  0  0  0  0  0  0  0  0
    3.8068    3.6479    3.8431 H   0  0  0  0  0  0  0  0  0  0  0  0
    5.4145    4.4170    1.3318 H   0  0  0  0  0  0  0  0  0  0  0  0
    6.6945    1.8355    1.1380 H   0  0  0  0  0  0  0  0  0  0  0  0
    4.4545   -0.0543    0.4806 H   0  0  0  0  0  0  0  0  0  0  0  0
    5.9588    3.3699   -0.6136 H   0  0  0  0  0  0  0  0  0  0  0  0
    4.4805    2.4219   -0.9576 H   0  0  0  0  0  0  0  0  0  0  0  0
    4.7269    0.4284   -2.4952 H   0  0  0  0  0  0  0  0  0  0  0  0
    6.6769   -0.8105   -3.6570 H   0  0  0  0  0  0  0  0  0  0  0  0
    8.5079    2.8137   -0.0910 H   0  0  0  0  0  0  0  0  0  0  0  0
   10.8267    2.2551   -0.5764 H   0  0  0  0  0  0  0  0  0  0  0  0
   11.3612    0.5575   -2.2085 H   0  0  0  0  0  0  0  0  0  0  0  0
    9.5515   -0.6691   -3.4478 H   0  0  0  0  0  0  0  0  0  0  0  0
    4.6323    5.6433    4.8583 H   0  0  0  0  0  0  0  0  0  0  0  0
    6.0172    4.7098    4.2725 H   0  0  0  0  0  0  0  0  0  0  0  0
    7.4569    7.5449    3.4294 H   0  0  0  0  0  0  0  0  0  0  0  0
    6.2651    7.9328    4.6924 H   0  0  0  0  0  0  0  0  0  0  0  0
    1.7499    7.4001   -0.4008 H   0  0  0  0  0  0  0  0  0  0  0  0
    2.6649    7.9015    1.0357 H   0  0  0  0  0  0  0  0  0  0  0  0
    0.9470    8.3616    0.9585 H   0  0  0  0  0  0  0  0  0  0  0  0
   -3.6550    7.1805    0.6187 H   0  0  0  0  0  0  0  0  0  0  0  0
   -4.0847    6.6690   -1.0065 H   0  0  0  0  0  0  0  0  0  0  0  0
   -1.9605    9.1205    0.7685 H   0  0  0  0  0  0  0  0  0  0  0  0
   -1.0596   11.0886   -0.5015 H   0  0  0  0  0  0  0  0  0  0  0  0
   -1.2254   11.1749   -2.9418 H   0  0  0  0  0  0  0  0  0  0  0  0
   -2.2794    9.3138   -4.1817 H   0  0  0  0  0  0  0  0  0  0  0  0
   -3.1442    7.4054   -2.9870 H   0  0  0  0  0  0  0  0  0  0  0  0
   -5.0669    1.5656    3.6254 H   0  0  0  0  0  0  0  0  0  0  0  0
    8.6941   -4.1651   -3.0074 H   0  0  0  0  0  0  0  0  0  0  0  0
    9.7592   -5.6432   -3.3184 H   0  0  0  0  0  0  0  0  0  0  0  0
  1  2  1  0
  2  3  2  3
  3  4  1  0
  4  5  1  0
  5  6  1  0
  6  7  1  0
  7  8  1  0
  8  9  1  0
  9 10  2  0
  9 11  1  0
 11 12  1  0
 12 13  1  0
 13 14  2  0
 14 15  1  0
 15 16  2  0
 16 17  1  0
 17 18  2  0
 11 19  1  0
 19 20  1  0
 20 21  2  0
 20 22  1  0
 22 23  1  0
 23 24  1  0
 24 25  1  0
 25 26  2  0
 26 27  1  0
 27 28  1  0
 22 29  1  0
 29 30  1  0
 30 31  2  0
 30 32  1  0
 32 33  1  0
 33 34  1  0
 34 35  2  0
 34 36  1  0
 36 37  1  0
 37 38  1  0
 38 39  2  0
 39 40  1  0
 40 41  2  0
 41 42  1  0
 42 43  2  0
 41 44  1  0
 36 45  1  0
 32 46  1  0
 46 47  1  0
 47 48  2  0
 47 49  1  0
 49 50  1  0
 50 51  1  0
 51 52  2  0
 51 53  1  0
 50 54  1  0
 54 55  1  0
 55 56  2  0
 56 57  1  0
 57 58  2  0
 58 59  1  0
 59 60  2  0
 58 61  1  0
 49 62  1  0
 62 63  1  1
 62 64  1  0
 64 65  1  0
 65 66  2  0
 65 67  1  0
 67 68  1  0
 68 69  1  0
 69 70  2  0
 69 71  1  0
 71 72  1  0
 72 73  1  0
 73 74  2  0
 73 75  1  0
 75 76  1  0
 76 77  1  0
 77 78  2  0
 77 79  1  0
 79 80  1  0
 80 81  1  0
 81 82  2  0
 79 83  1  0
 83 84  1  0
 84 85  2  0
 85 86  1  0
 86 87  1  0
 87 88  2  0
 88 89  1  0
 89 90  2  0
 90 91  1  0
 91 92  2  0
 75 93  1  0
 93 94  1  0
 94 95  2  0
 94 96  1  0
 71 97  1  0
 67 98  1  0
 98 99  1  0
 99100  2  0
100101  1  0
101102  2  0
102103  1  0
103104  2  0
 62105  1  0
105106  2  0
105107  1  0
  2108  1  0
 81  7  1  0
 88 84  1  0
104 99  1  0
 18 13  1  0
 28 24  2  0
 43 38  1  0
 60 55  1  0
 92 87  1  0
  1109  1  0
  1110  1  0
  4111  1  0
  4112  1  0
  5113  1  0
  5114  1  0
  6115  1  0
  6116  1  0
  7117  1  1
  8118  1  0
 11119  1  6
 12120  1  0
 12121  1  0
 14122  1  0
 15123  1  0
 16124  1  0
 17125  1  0
 18126  1  0
 19127  1  0
 22128  1  1
 23129  1  0
 23130  1  0
 26131  1  0
 27132  1  0
 28133  1  0
 29134  1  0
 32135  1  6
 33136  1  0
 36137  1  1
 37138  1  0
 37139  1  0
 39140  1  0
 40141  1  0
 42142  1  0
 43143  1  0
 44144  1  0
 45145  1  0
 45146  1  0
 46147  1  0
 46148  1  0
 50149  1  6
 53150  1  0
 53151  1  0
 54152  1  0
 54153  1  0
 56154  1  0
 57155  1  0
 59156  1  0
 60157  1  0
 61158  1  0
 63159  1  0
 63160  1  0
 63161  1  0
 64162  1  0
 67163  1  6
 68164  1  0
 71165  1  1
 72166  1  0
 75167  1  1
 76168  1  0
 79169  1  1
 80170  1  0
 83171  1  0
 83172  1  0
 85173  1  0
 86174  1  0
 89175  1  0
 90176  1  0
 91177  1  0
 92178  1  0
 93179  1  0
 93180  1  0
 96181  1  0
 96182  1  0
 97183  1  0
 97184  1  0
 97185  1  0
 98186  1  0
 98187  1  0
100188  1  0
101189  1  0
102190  1  0
103191  1  0
104192  1  0
107193  1  0
108194  1  0
108195  1  0
M  END
>  <Ligand ID>  (1) 
LIG0001117

>  <Ligand>  (1) 
CHEMBL2369983

>  <SMILES>  (1) 
NC(=NCCC[C@@H]1NC(=O)[C@@H](Cc2ccccc2)NC(=O)[C@H](Cc2nc[nH]c2)NC(=O)[C@@H](NC(=O)[C@H](Cc2ccc(cc2)O)N)CC(=O)N([C@H](C(=O)N)Cc2ccc(cc2)O)[C@](C)(NC(=O)[C@H](NC(=O)[C@@H](NC(=O)[C@@H](NC(=O)[C@@H](NC1=O)Cc1c[nH]c2c1cccc2)CC(=O)N)C)Cc1ccccc1)C(=O)O)N

>  <CID>  (1) 
73348448.0

>  <ChEMBL ID>  (1) 
nan

>  <InChiKey>  (1) 
VQYHLIUSSLKEAO-ABZQIPNSSA-N

>  <InChi>  (1) 
InChI=1S/C73H87N19O16/c1-39-62(98)85-53(30-41-14-7-4-8-15-41)70(106)91-73(2,71(107)108)92(58(61(76)97)31-43-21-25-47(94)26-22-43)60(96)35-57(86-63(99)49(74)28-42-19-23-46(93)24-20-42)69(105)89-55(33-45-37-79-38-82-45)68(104)87-52(29-40-12-5-3-6-13-40)66(102)84-51(18-11-27-80-72(77)78)64(100)88-54(32-44-36-81-50-17-10-9-16-48(44)50)67(103)90-56(34-59(75)95)65(101)83-39/h3-10,12-17,19-26,36-39,49,51-58,81,93-94H,11,18,27-35,74H2,1-2H3,(H2,75,95)(H2,76,97)(H,79,82)(H,83,101)(H,84,102)(H,85,98)(H,86,99)(H,87,104)(H,88,100)(H,89,105)(H,90,103)(H,91,106)(H,107,108)(H4,77,78,80)/t39-,49-,51-,52+,53+,54-,55-,56-,57-,58-,73-/m0/s1

>  <IUPAC Name>  (1) 
(2S,5R,8S,11S,14S,17S,20R,23S,26S)-1-[(2S)-1-amino-3-(4-hydroxyphenyl)-1-oxopropan-2-yl]-26-[[(2S)-2-amino-3-(4-hydroxyphenyl)propanoyl]amino]-11-(2-amino-2-oxoethyl)-5,20-dibenzyl-17-[3-(diaminomethylideneamino)propyl]-23-(1H-imidazol-4-ylmethyl)-14-(1H-indol-3-ylmethyl)-2,8-dimethyl-4,7,10,13,16,19,22,25,28-nonaoxo-1,3,6,9,12,15,18,21,24-nonazacyclooctacosane-2-carboxylic acid

$$$$
