
     RDKit          3D

100104  0  0  0  0  0  0  0  0999 V2000
    2.9858    5.2848   -4.0368 N   0  0  0  0  0  0  0  0  0  0  0  0
    1.5925    5.1649   -4.1589 C   0  0  0  0  0  0  0  0  0  0  0  0
    0.8621    4.3018   -3.5350 N   0  0  0  0  0  0  0  0  0  0  0  0
   -0.5681    4.2189   -3.6957 C   0  0  0  0  0  0  0  0  0  0  0  0
   -1.2055    3.9040   -2.3179 C   0  0  0  0  0  0  0  0  0  0  0  0
   -0.6869    2.5974   -1.8075 C   0  0  0  0  0  0  0  0  0  0  0  0
   -1.2230    2.2419   -0.4788 C   0  0  1  0  0  0  0  0  0  0  0  0
   -2.6924    2.1088   -0.4872 C   0  0  0  0  0  0  0  0  0  0  0  0
   -3.4826    2.9864   -0.9557 O   0  0  0  0  0  0  0  0  0  0  0  0
   -3.3761    0.9477    0.0478 N   0  0  0  0  0  0  0  0  0  0  0  0
   -4.8008    0.9205   -0.0244 C   0  0  2  0  0  0  0  0  0  0  0  0
   -5.3218    1.1443    1.3851 C   0  0  0  0  0  0  0  0  0  0  0  0
   -6.5894    1.1638    1.5666 O   0  0  0  0  0  0  0  0  0  0  0  0
   -4.4373    1.3271    2.4775 N   0  0  0  0  0  0  0  0  0  0  0  0
   -5.4286   -0.2896   -0.6264 C   0  0  0  0  0  0  0  0  0  0  0  0
   -5.1663   -1.5599    0.0450 C   0  0  0  0  0  0  0  0  0  0  0  0
   -6.0914   -2.1660    0.9050 C   0  0  0  0  0  0  0  0  0  0  0  0
   -5.5886   -3.3108    1.3896 N   0  0  0  0  0  0  0  0  0  0  0  0
   -4.3629   -3.4731    0.8736 C   0  0  0  0  0  0  0  0  0  0  0  0
   -4.0856   -2.4066    0.0447 C   0  0  0  0  0  0  0  0  0  0  0  0
   -2.8854   -2.3547   -0.5983 C   0  0  0  0  0  0  0  0  0  0  0  0
   -1.9645   -3.3759   -0.4050 C   0  0  0  0  0  0  0  0  0  0  0  0
   -2.2206   -4.4501    0.4195 C   0  0  0  0  0  0  0  0  0  0  0  0
   -3.4443   -4.4947    1.0683 C   0  0  0  0  0  0  0  0  0  0  0  0
   -0.5568    1.0679    0.0828 N   0  0  0  0  0  0  0  0  0  0  0  0
   -0.0087    1.0263    1.3902 C   0  0  0  0  0  0  0  0  0  0  0  0
   -0.1473    2.0974    2.0749 O   0  0  0  0  0  0  0  0  0  0  0  0
    0.6657   -0.1033    1.9709 C   0  0  2  0  0  0  0  0  0  0  0  0
    1.0085   -1.1690    1.0534 N   0  0  0  0  0  0  0  0  0  0  0  0
    2.1296   -1.9630    1.3997 C   0  0  0  0  0  0  0  0  0  0  0  0
    2.6955   -1.6567    2.4997 O   0  0  0  0  0  0  0  0  0  0  0  0
    2.6989   -3.0829    0.6473 C   0  0  2  0  0  0  0  0  0  0  0  0
    4.2097   -3.0049    0.6744 C   0  0  0  0  0  0  0  0  0  0  0  0
    4.7967   -1.7962    0.0975 C   0  0  0  0  0  0  0  0  0  0  0  0
    5.2172   -0.7149    0.8798 C   0  0  0  0  0  0  0  0  0  0  0  0
    5.7109    0.2622    0.1141 N   0  0  0  0  0  0  0  0  0  0  0  0
    5.6243   -0.1570   -1.1721 C   0  0  0  0  0  0  0  0  0  0  0  0
    5.0650   -1.4181   -1.1956 C   0  0  0  0  0  0  0  0  0  0  0  0
    4.8967   -2.0416   -2.4089 C   0  0  0  0  0  0  0  0  0  0  0  0
    5.2743   -1.4328   -3.5757 C   0  0  0  0  0  0  0  0  0  0  0  0
    5.8367   -0.1588   -3.5220 C   0  0  0  0  0  0  0  0  0  0  0  0
    6.0273    0.5117   -2.3310 C   0  0  0  0  0  0  0  0  0  0  0  0
    2.2261   -3.1506   -0.6879 N   0  0  0  0  0  0  0  0  0  0  0  0
    1.6471   -4.2904   -1.3153 C   0  0  0  0  0  0  0  0  0  0  0  0
    1.4778   -5.3940   -0.7274 O   0  0  0  0  0  0  0  0  0  0  0  0
    1.2113   -4.1976   -2.7499 C   0  0  0  0  0  0  0  0  0  0  0  0
   -0.0494   -0.6843    3.1977 C   0  0  0  0  0  0  0  0  0  0  0  0
   -0.1577    0.3073    4.2902 C   0  0  0  0  0  0  0  0  0  0  0  0
   -1.2112    1.1607    4.4778 C   0  0  0  0  0  0  0  0  0  0  0  0
   -1.3076    2.0868    5.4921 C   0  0  0  0  0  0  0  0  0  0  0  0
   -0.2435    2.1521    6.3937 C   0  0  0  0  0  0  0  0  0  0  0  0
    0.8354    1.3151    6.2456 C   0  0  0  0  0  0  0  0  0  0  0  0
    0.8853    0.4128    5.2233 C   0  0  0  0  0  0  0  0  0  0  0  0
    0.9030    6.0666   -5.0514 N   0  0  0  0  0  0  0  0  0  0  0  0
    3.3672    6.2060   -3.6989 H   0  0  0  0  0  0  0  0  0  0  0  0
    3.6342    4.4786   -4.2752 H   0  0  0  0  0  0  0  0  0  0  0  0
   -0.7745    3.3500   -4.3766 H   0  0  0  0  0  0  0  0  0  0  0  0
   -1.0362    5.0847   -4.1735 H   0  0  0  0  0  0  0  0  0  0  0  0
   -0.9354    4.7909   -1.6957 H   0  0  0  0  0  0  0  0  0  0  0  0
   -2.2948    3.9775   -2.4503 H   0  0  0  0  0  0  0  0  0  0  0  0
    0.4410    2.7256   -1.7457 H   0  0  0  0  0  0  0  0  0  0  0  0
   -0.9253    1.8430   -2.6012 H   0  0  0  0  0  0  0  0  0  0  0  0
   -0.9185    3.0678    0.2466 H   0  0  0  0  0  0  0  0  0  0  0  0
   -2.7535    0.2302    0.4542 H   0  0  0  0  0  0  0  0  0  0  0  0
   -5.2281    1.7959   -0.6003 H   0  0  0  0  0  0  0  0  0  0  0  0
   -4.2380    0.4484    3.0487 H   0  0  0  0  0  0  0  0  0  0  0  0
   -4.0345    2.2457    2.6782 H   0  0  0  0  0  0  0  0  0  0  0  0
   -6.5374   -0.0789   -0.6597 H   0  0  0  0  0  0  0  0  0  0  0  0
   -5.1361   -0.2984   -1.7007 H   0  0  0  0  0  0  0  0  0  0  0  0
   -7.0909   -1.7664    1.1572 H   0  0  0  0  0  0  0  0  0  0  0  0
   -6.0404   -3.9895    2.0571 H   0  0  0  0  0  0  0  0  0  0  0  0
   -2.6997   -1.5048   -1.2405 H   0  0  0  0  0  0  0  0  0  0  0  0
   -1.0328   -3.2673   -0.9405 H   0  0  0  0  0  0  0  0  0  0  0  0
   -1.4651   -5.2384    0.5467 H   0  0  0  0  0  0  0  0  0  0  0  0
   -3.6621   -5.3358    1.7257 H   0  0  0  0  0  0  0  0  0  0  0  0
   -0.5034    0.2374   -0.5463 H   0  0  0  0  0  0  0  0  0  0  0  0
    1.6433    0.2386    2.4316 H   0  0  0  0  0  0  0  0  0  0  0  0
    0.5011   -1.3865    0.1720 H   0  0  0  0  0  0  0  0  0  0  0  0
    2.3932   -4.0695    1.1451 H   0  0  0  0  0  0  0  0  0  0  0  0
    4.6517   -3.8844    0.1210 H   0  0  0  0  0  0  0  0  0  0  0  0
    4.5889   -3.1304    1.7282 H   0  0  0  0  0  0  0  0  0  0  0  0
    5.1734   -0.6312    1.9641 H   0  0  0  0  0  0  0  0  0  0  0  0
    6.0953    1.1818    0.4455 H   0  0  0  0  0  0  0  0  0  0  0  0
    4.4560   -3.0310   -2.3874 H   0  0  0  0  0  0  0  0  0  0  0  0
    5.1474   -1.9177   -4.5475 H   0  0  0  0  0  0  0  0  0  0  0  0
    6.1570    0.3696   -4.4195 H   0  0  0  0  0  0  0  0  0  0  0  0
    6.4670    1.5068   -2.2713 H   0  0  0  0  0  0  0  0  0  0  0  0
    2.2957   -2.2786   -1.2809 H   0  0  0  0  0  0  0  0  0  0  0  0
    0.1265   -4.0525   -2.8356 H   0  0  0  0  0  0  0  0  0  0  0  0
    1.5032   -5.1323   -3.3104 H   0  0  0  0  0  0  0  0  0  0  0  0
    1.7371   -3.3087   -3.2012 H   0  0  0  0  0  0  0  0  0  0  0  0
    0.6108   -1.5030    3.5521 H   0  0  0  0  0  0  0  0  0  0  0  0
   -0.9997   -1.1474    2.9300 H   0  0  0  0  0  0  0  0  0  0  0  0
   -2.0298    1.0972    3.7761 H   0  0  0  0  0  0  0  0  0  0  0  0
   -2.1787    2.7451    5.5896 H   0  0  0  0  0  0  0  0  0  0  0  0
   -0.3312    2.8925    7.1912 H   0  0  0  0  0  0  0  0  0  0  0  0
    1.6316    1.4211    6.9875 H   0  0  0  0  0  0  0  0  0  0  0  0
    1.7551   -0.2585    5.1080 H   0  0  0  0  0  0  0  0  0  0  0  0
    0.2781    6.7822   -4.5767 H   0  0  0  0  0  0  0  0  0  0  0  0
    1.0122    6.0130   -6.0843 H   0  0  0  0  0  0  0  0  0  0  0  0
  1  2  1  0
  2  3  2  3
  3  4  1  0
  4  5  1  0
  5  6  1  0
  6  7  1  0
  7  8  1  0
  8  9  2  0
  8 10  1  0
 10 11  1  0
 11 12  1  0
 12 13  2  0
 12 14  1  0
 11 15  1  0
 15 16  1  0
 16 17  2  0
 17 18  1  0
 18 19  1  0
 19 20  2  0
 20 21  1  0
 21 22  2  0
 22 23  1  0
 23 24  2  0
  7 25  1  0
 25 26  1  0
 26 27  2  0
 26 28  1  0
 28 29  1  0
 29 30  1  0
 30 31  2  0
 30 32  1  0
 32 33  1  0
 33 34  1  0
 34 35  2  0
 35 36  1  0
 36 37  1  0
 37 38  2  0
 38 39  1  0
 39 40  2  0
 40 41  1  0
 41 42  2  0
 32 43  1  0
 43 44  1  0
 44 45  2  0
 44 46  1  0
 28 47  1  0
 47 48  1  0
 48 49  2  0
 49 50  1  0
 50 51  2  0
 51 52  1  0
 52 53  2  0
  2 54  1  0
 20 16  1  0
 38 34  1  0
 53 48  1  0
 24 19  1  0
 42 37  1  0
  1 55  1  0
  1 56  1  0
  4 57  1  0
  4 58  1  0
  5 59  1  0
  5 60  1  0
  6 61  1  0
  6 62  1  0
  7 63  1  1
 10 64  1  0
 11 65  1  6
 14 66  1  0
 14 67  1  0
 15 68  1  0
 15 69  1  0
 17 70  1  0
 18 71  1  0
 21 72  1  0
 22 73  1  0
 23 74  1  0
 24 75  1  0
 25 76  1  0
 28 77  1  1
 29 78  1  0
 32 79  1  1
 33 80  1  0
 33 81  1  0
 35 82  1  0
 36 83  1  0
 39 84  1  0
 40 85  1  0
 41 86  1  0
 42 87  1  0
 43 88  1  0
 46 89  1  0
 46 90  1  0
 46 91  1  0
 47 92  1  0
 47 93  1  0
 49 94  1  0
 50 95  1  0
 51 96  1  0
 52 97  1  0
 53 98  1  0
 54 99  1  0
 54100  1  0
M  END
>  <Ligand ID>  (1) 
LIG0000888

>  <Ligand>  (1) 
CHEMBL432201

>  <SMILES>  (1) 
NC(=NCCC[C@@H](C(=O)N[C@H](C(=O)N)Cc1c[nH]c2c1cccc2)NC(=O)[C@H](NC(=O)[C@H](Cc1c[nH]c2c1cccc2)NC(=O)C)Cc1ccccc1)N

>  <CID>  (1) 
10996232.0

>  <ChEMBL ID>  (1) 
nan

>  <InChiKey>  (1) 
YSBBQLMGIDMSEJ-HVRNLMOBSA-N

>  <InChi>  (1) 
InChI=1S/C39H46N10O5/c1-23(50)46-34(20-26-22-45-30-15-8-6-13-28(26)30)38(54)49-33(18-24-10-3-2-4-11-24)37(53)47-31(16-9-17-43-39(41)42)36(52)48-32(35(40)51)19-25-21-44-29-14-7-5-12-27(25)29/h2-8,10-15,21-22,31-34,44-45H,9,16-20H2,1H3,(H2,40,51)(H,46,50)(H,47,53)(H,48,52)(H,49,54)(H4,41,42,43)/t31-,32-,33+,34-/m0/s1

>  <IUPAC Name>  (1) 
(2S)-2-[[(2R)-2-[[(2S)-2-acetamido-3-(1H-indol-3-yl)propanoyl]amino]-3-phenylpropanoyl]amino]-N-[(2S)-1-amino-3-(1H-indol-3-yl)-1-oxopropan-2-yl]-5-(diaminomethylideneamino)pentanamide

$$$$
