
     RDKit          3D

 52 55  0  0  0  0  0  0  0  0999 V2000
   -2.9649   -1.9073   -0.6662 C   0  0  0  0  0  0  0  0  0  0  0  0
   -1.7223   -2.1746    0.0979 C   0  0  0  0  0  0  0  0  0  0  0  0
   -1.9945   -3.4165    0.9506 C   0  0  0  0  0  0  0  0  0  0  0  0
   -2.7180   -3.1551    2.2052 C   0  0  0  0  0  0  0  0  0  0  0  0
   -3.2610   -1.7948    2.4477 C   0  0  0  0  0  0  0  0  0  0  0  0
   -2.3811   -0.6659    1.9870 C   0  0  0  0  0  0  0  0  0  0  0  0
   -1.2939   -1.1113    1.0714 C   0  0  0  0  0  0  0  0  0  0  0  0
   -0.5104   -0.0398    0.4790 N   0  0  0  0  0  0  0  0  0  0  0  0
    0.8527    0.0121    0.8408 C   0  0  0  0  0  0  0  0  0  0  0  0
    1.2292   -0.8966    1.6721 O   0  0  0  0  0  0  0  0  0  0  0  0
    1.8644    0.9289    0.4099 C   0  0  0  0  0  0  0  0  0  0  0  0
    1.9649    2.2617    0.3713 N   0  0  0  0  0  0  0  0  0  0  0  0
    3.1118    2.6349   -0.1088 O   0  0  0  0  0  0  0  0  0  0  0  0
    3.8473    1.6016   -0.4196 C   0  0  0  0  0  0  0  0  0  0  0  0
    3.0981    0.4859   -0.1084 C   0  0  0  0  0  0  0  0  0  0  0  0
    5.2333    1.5770   -1.0009 C   0  0  0  0  0  0  0  0  0  0  0  0
    5.7642    0.3513   -1.5897 C   0  0  0  0  0  0  0  0  0  0  0  0
    6.2272    0.7039   -0.1918 C   0  0  0  0  0  0  0  0  0  0  0  0
   -1.1993    0.8696   -0.3930 C   0  0  0  0  0  0  0  0  0  0  0  0
   -0.5854    0.8930   -1.7728 C   0  0  0  0  0  0  0  0  0  0  0  0
   -1.3052    1.8722   -2.6725 C   0  0  0  0  0  0  0  0  0  0  0  0
   -1.8817    2.9194   -1.9594 O   0  0  0  0  0  0  0  0  0  0  0  0
   -1.0918    3.3062   -0.8716 C   0  0  0  0  0  0  0  0  0  0  0  0
   -1.3098    2.2823    0.2059 C   0  0  0  0  0  0  0  0  0  0  0  0
   -3.4895   -2.8796   -0.9202 H   0  0  0  0  0  0  0  0  0  0  0  0
   -2.6915   -1.4826   -1.6586 H   0  0  0  0  0  0  0  0  0  0  0  0
   -3.7143   -1.2729   -0.2116 H   0  0  0  0  0  0  0  0  0  0  0  0
   -0.8606   -2.3975   -0.5630 H   0  0  0  0  0  0  0  0  0  0  0  0
   -0.9898   -3.8722    1.1332 H   0  0  0  0  0  0  0  0  0  0  0  0
   -2.5106   -4.1540    0.2722 H   0  0  0  0  0  0  0  0  0  0  0  0
   -2.0731   -3.4848    3.0737 H   0  0  0  0  0  0  0  0  0  0  0  0
   -3.5826   -3.8756    2.2501 H   0  0  0  0  0  0  0  0  0  0  0  0
   -3.3729   -1.6894    3.5571 H   0  0  0  0  0  0  0  0  0  0  0  0
   -4.3026   -1.7000    2.0723 H   0  0  0  0  0  0  0  0  0  0  0  0
   -1.9086   -0.1486    2.8529 H   0  0  0  0  0  0  0  0  0  0  0  0
   -3.0522    0.0991    1.5469 H   0  0  0  0  0  0  0  0  0  0  0  0
   -0.5495   -1.6632    1.7290 H   0  0  0  0  0  0  0  0  0  0  0  0
    3.4348   -0.5164   -0.2543 H   0  0  0  0  0  0  0  0  0  0  0  0
    5.6875    2.5534   -1.2746 H   0  0  0  0  0  0  0  0  0  0  0  0
    5.1172   -0.5292   -1.7329 H   0  0  0  0  0  0  0  0  0  0  0  0
    6.5993    0.4559   -2.3325 H   0  0  0  0  0  0  0  0  0  0  0  0
    7.2295    1.0893   -0.0029 H   0  0  0  0  0  0  0  0  0  0  0  0
    5.7851    0.0865    0.6160 H   0  0  0  0  0  0  0  0  0  0  0  0
   -2.2697    0.5885   -0.5453 H   0  0  0  0  0  0  0  0  0  0  0  0
    0.4593    1.1843   -1.7249 H   0  0  0  0  0  0  0  0  0  0  0  0
   -0.6969   -0.1259   -2.1902 H   0  0  0  0  0  0  0  0  0  0  0  0
   -0.5825    2.2805   -3.4000 H   0  0  0  0  0  0  0  0  0  0  0  0
   -2.0741    1.3093   -3.2459 H   0  0  0  0  0  0  0  0  0  0  0  0
   -0.0312    3.4090   -1.1672 H   0  0  0  0  0  0  0  0  0  0  0  0
   -1.5164    4.2714   -0.5111 H   0  0  0  0  0  0  0  0  0  0  0  0
   -2.3539    2.4745    0.5882 H   0  0  0  0  0  0  0  0  0  0  0  0
   -0.6637    2.4520    1.0594 H   0  0  0  0  0  0  0  0  0  0  0  0
  1  2  1  0
  2  3  1  0
  3  4  1  0
  4  5  1  0
  5  6  1  0
  6  7  1  0
  7  8  1  0
  8  9  1  0
  9 10  2  0
  9 11  1  0
 11 12  2  0
 12 13  1  0
 13 14  1  0
 14 15  2  0
 14 16  1  0
 16 17  1  0
 17 18  1  0
  8 19  1  0
 19 20  1  0
 20 21  1  0
 21 22  1  0
 22 23  1  0
 23 24  1  0
  7  2  1  0
 15 11  1  0
 18 16  1  0
 24 19  1  0
  1 25  1  0
  1 26  1  0
  1 27  1  0
  2 28  1  0
  3 29  1  0
  3 30  1  0
  4 31  1  0
  4 32  1  0
  5 33  1  0
  5 34  1  0
  6 35  1  0
  6 36  1  0
  7 37  1  0
 15 38  1  0
 16 39  1  0
 17 40  1  0
 17 41  1  0
 18 42  1  0
 18 43  1  0
 19 44  1  0
 20 45  1  0
 20 46  1  0
 21 47  1  0
 21 48  1  0
 23 49  1  0
 23 50  1  0
 24 51  1  0
 24 52  1  0
M  END
>  <Ligand ID>  (1) 
LIG0001746

>  <Ligand>  (1) 
CHEMBL1979798

>  <SMILES>  (1) 
CC1CCCCC1N(C(=O)c1noc(c1)C1CC1)C1CCOCC1

>  <CID>  (1) 
25110501.0

>  <ChEMBL ID>  (1) 
nan

>  <InChiKey>  (1) 
GRIJGLMNIRAJPK-UHFFFAOYSA-N

>  <InChi>  (1) 
InChI=1S/C19H28N2O3/c1-13-4-2-3-5-17(13)21(15-8-10-23-11-9-15)19(22)16-12-18(24-20-16)14-6-7-14/h12-15,17H,2-11H2,1H3

>  <IUPAC Name>  (1) 
5-cyclopropyl-N-(2-methylcyclohexyl)-N-(oxan-4-yl)-1,2-oxazole-3-carboxamide

$$$$
