
     RDKit          3D

 94 97  0  0  0  0  0  0  0  0999 V2000
    4.9007   -1.3116   -4.4581 C   0  0  0  0  0  0  0  0  0  0  0  0
    4.3370   -1.7228   -3.1034 C   0  0  0  0  0  0  0  0  0  0  0  0
    5.3448   -1.5188   -2.0035 C   0  0  1  0  0  0  0  0  0  0  0  0
    5.7229   -0.0895   -1.9352 C   0  0  0  0  0  0  0  0  0  0  0  0
    5.0597    0.7697   -1.0467 N   0  0  0  0  0  0  0  0  0  0  0  0
    4.1905    0.0699   -0.1592 C   0  0  1  0  0  0  0  0  0  0  0  0
    4.8710   -1.1660    0.3186 C   0  0  0  0  0  0  0  0  0  0  0  0
    4.9462   -2.1111   -0.7711 N   0  0  0  0  0  0  0  0  0  0  0  0
    3.7951   -2.9659   -0.8636 C   0  0  0  0  0  0  0  0  0  0  0  0
    3.6629    0.9394    0.9295 C   0  0  0  0  0  0  0  0  0  0  0  0
    4.0046    2.1486    0.8982 O   0  0  0  0  0  0  0  0  0  0  0  0
    2.8062    0.4078    1.9576 N   0  0  0  0  0  0  0  0  0  0  0  0
    2.3378    1.3101    2.9606 C   0  0  1  0  0  0  0  0  0  0  0  0
    0.9734    1.7768    2.7642 C   0  0  0  0  0  0  0  0  0  0  0  0
    0.5810    2.6591    3.6369 O   0  0  0  0  0  0  0  0  0  0  0  0
    0.0242    1.4355    1.7957 N   0  0  0  0  0  0  0  0  0  0  0  0
    0.1503    0.4494    0.7499 C   0  0  0  0  0  0  0  0  0  0  0  0
   -1.2844    0.0886    0.3137 C   0  0  0  0  0  0  0  0  0  0  0  0
   -1.9973    1.1755   -0.3900 C   0  0  0  0  0  0  0  0  0  0  0  0
   -1.5622    2.4785    0.3095 C   0  0  0  0  0  0  0  0  0  0  0  0
   -1.2631    2.1729    1.7829 C   0  0  0  0  0  0  0  0  0  0  0  0
   -1.7640    1.2953   -1.8766 C   0  0  0  0  0  0  0  0  0  0  0  0
   -2.5108    2.4553   -2.4685 C   0  0  0  0  0  0  0  0  0  0  0  0
   -3.2669    2.2447   -3.7087 C   0  0  0  0  0  0  0  0  0  0  0  0
   -2.9288    1.0368   -4.5202 C   0  0  0  0  0  0  0  0  0  0  0  0
   -3.0648   -0.1238   -3.5231 C   0  0  0  0  0  0  0  0  0  0  0  0
   -1.8624    0.0304   -2.6155 C   0  0  0  0  0  0  0  0  0  0  0  0
   -3.4546    1.0606   -0.0408 C   0  0  0  0  0  0  0  0  0  0  0  0
   -4.1019    2.0347    0.4538 O   0  0  0  0  0  0  0  0  0  0  0  0
   -4.1971   -0.1350   -0.2364 N   0  0  0  0  0  0  0  0  0  0  0  0
   -5.5940   -0.1114    0.1495 C   0  0  0  0  0  0  0  0  0  0  0  0
   -5.7310    0.2084    1.6407 C   0  0  0  0  0  0  0  0  0  0  0  0
   -6.4297    0.8636   -0.6097 C   0  0  0  0  0  0  0  0  0  0  0  0
   -6.1988   -1.5002   -0.0282 C   0  0  0  0  0  0  0  0  0  0  0  0
    2.5703    0.7819    4.3648 C   0  0  0  0  0  0  0  0  0  0  0  0
    1.8674   -0.5178    4.5650 C   0  0  0  0  0  0  0  0  0  0  0  0
    0.5706   -0.5973    5.0179 C   0  0  0  0  0  0  0  0  0  0  0  0
   -0.0963   -1.7966    5.2118 C   0  0  0  0  0  0  0  0  0  0  0  0
    0.5919   -2.9512    4.9311 C   0  0  0  0  0  0  0  0  0  0  0  0
    1.9126   -2.9136    4.4683 C   0  0  0  0  0  0  0  0  0  0  0  0
    2.5561   -1.6892    4.2835 C   0  0  0  0  0  0  0  0  0  0  0  0
   -0.0344   -4.1487    5.1103 F   0  0  0  0  0  0  0  0  0  0  0  0
    4.6179   -0.2774   -4.6386 H   0  0  0  0  0  0  0  0  0  0  0  0
    4.5278   -1.9682   -5.2623 H   0  0  0  0  0  0  0  0  0  0  0  0
    6.0251   -1.3417   -4.3975 H   0  0  0  0  0  0  0  0  0  0  0  0
    4.0060   -2.7782   -3.1879 H   0  0  0  0  0  0  0  0  0  0  0  0
    3.3990   -1.1450   -2.9778 H   0  0  0  0  0  0  0  0  0  0  0  0
    6.2592   -2.0987   -2.3296 H   0  0  0  0  0  0  0  0  0  0  0  0
    6.8423    0.0059   -1.7398 H   0  0  0  0  0  0  0  0  0  0  0  0
    5.6471    0.3646   -2.9746 H   0  0  0  0  0  0  0  0  0  0  0  0
    4.6723    1.5923   -1.5136 H   0  0  0  0  0  0  0  0  0  0  0  0
    3.3118   -0.2737   -0.7722 H   0  0  0  0  0  0  0  0  0  0  0  0
    5.9098   -0.9101    0.6032 H   0  0  0  0  0  0  0  0  0  0  0  0
    4.3950   -1.6441    1.1906 H   0  0  0  0  0  0  0  0  0  0  0  0
    3.4274   -3.1367    0.1877 H   0  0  0  0  0  0  0  0  0  0  0  0
    2.9451   -2.5000   -1.3973 H   0  0  0  0  0  0  0  0  0  0  0  0
    4.0854   -3.9550   -1.2489 H   0  0  0  0  0  0  0  0  0  0  0  0
    2.6203   -0.6083    1.8934 H   0  0  0  0  0  0  0  0  0  0  0  0
    2.9773    2.2517    2.8479 H   0  0  0  0  0  0  0  0  0  0  0  0
    0.5099   -0.5374    1.1796 H   0  0  0  0  0  0  0  0  0  0  0  0
    0.7855    0.7279   -0.0873 H   0  0  0  0  0  0  0  0  0  0  0  0
   -1.8249   -0.0754    1.2978 H   0  0  0  0  0  0  0  0  0  0  0  0
   -1.2141   -0.8828   -0.1651 H   0  0  0  0  0  0  0  0  0  0  0  0
   -0.6160    2.8569   -0.1170 H   0  0  0  0  0  0  0  0  0  0  0  0
   -2.3996    3.1923    0.2966 H   0  0  0  0  0  0  0  0  0  0  0  0
   -1.0339    3.1635    2.2273 H   0  0  0  0  0  0  0  0  0  0  0  0
   -2.0589    1.6553    2.2995 H   0  0  0  0  0  0  0  0  0  0  0  0
   -0.6702    1.6074   -1.9420 H   0  0  0  0  0  0  0  0  0  0  0  0
   -1.8655    3.3744   -2.5784 H   0  0  0  0  0  0  0  0  0  0  0  0
   -3.2562    2.7791   -1.6807 H   0  0  0  0  0  0  0  0  0  0  0  0
   -3.1403    3.1277   -4.4019 H   0  0  0  0  0  0  0  0  0  0  0  0
   -4.3854    2.2105   -3.5610 H   0  0  0  0  0  0  0  0  0  0  0  0
   -1.9084    1.0084   -4.9225 H   0  0  0  0  0  0  0  0  0  0  0  0
   -3.7071    0.9228   -5.3022 H   0  0  0  0  0  0  0  0  0  0  0  0
   -3.0006   -1.0930   -4.0163 H   0  0  0  0  0  0  0  0  0  0  0  0
   -4.0167    0.0676   -3.0049 H   0  0  0  0  0  0  0  0  0  0  0  0
   -0.9752   -0.0932   -3.3210 H   0  0  0  0  0  0  0  0  0  0  0  0
   -1.8326   -0.8730   -2.0036 H   0  0  0  0  0  0  0  0  0  0  0  0
   -3.7515   -0.9823   -0.6350 H   0  0  0  0  0  0  0  0  0  0  0  0
   -4.8445   -0.1663    2.2014 H   0  0  0  0  0  0  0  0  0  0  0  0
   -6.6441   -0.2928    1.9896 H   0  0  0  0  0  0  0  0  0  0  0  0
   -5.8950    1.2849    1.7390 H   0  0  0  0  0  0  0  0  0  0  0  0
   -7.1537    1.3491    0.0772 H   0  0  0  0  0  0  0  0  0  0  0  0
   -5.7925    1.6041   -1.1380 H   0  0  0  0  0  0  0  0  0  0  0  0
   -7.0448    0.3294   -1.3838 H   0  0  0  0  0  0  0  0  0  0  0  0
   -6.1142   -1.8496   -1.0761 H   0  0  0  0  0  0  0  0  0  0  0  0
   -7.2872   -1.3653    0.1588 H   0  0  0  0  0  0  0  0  0  0  0  0
   -5.7802   -2.2282    0.7051 H   0  0  0  0  0  0  0  0  0  0  0  0
    2.2294    1.5531    5.0844 H   0  0  0  0  0  0  0  0  0  0  0  0
    3.6433    0.6080    4.5649 H   0  0  0  0  0  0  0  0  0  0  0  0
    0.0332    0.3314    5.2364 H   0  0  0  0  0  0  0  0  0  0  0  0
   -1.1161   -1.8569    5.5676 H   0  0  0  0  0  0  0  0  0  0  0  0
    2.4292   -3.8626    4.2551 H   0  0  0  0  0  0  0  0  0  0  0  0
    3.5954   -1.6745    3.9180 H   0  0  0  0  0  0  0  0  0  0  0  0
  1  2  1  0
  2  3  1  0
  3  4  1  0
  4  5  1  0
  5  6  1  0
  6  7  1  0
  7  8  1  0
  8  9  1  0
  6 10  1  0
 10 11  2  0
 10 12  1  0
 12 13  1  0
 13 14  1  0
 14 15  2  0
 14 16  1  0
 16 17  1  0
 17 18  1  0
 18 19  1  0
 19 20  1  0
 20 21  1  0
 19 22  1  0
 22 23  1  0
 23 24  1  0
 24 25  1  0
 25 26  1  0
 26 27  1  0
 19 28  1  0
 28 29  2  0
 28 30  1  0
 30 31  1  0
 31 32  1  0
 31 33  1  0
 31 34  1  0
 13 35  1  0
 35 36  1  0
 36 37  2  0
 37 38  1  0
 38 39  2  0
 39 40  1  0
 40 41  2  0
 39 42  1  0
  8  3  1  0
 21 16  1  0
 27 22  1  0
 41 36  1  0
  1 43  1  0
  1 44  1  0
  1 45  1  0
  2 46  1  0
  2 47  1  0
  3 48  1  6
  4 49  1  0
  4 50  1  0
  5 51  1  0
  6 52  1  6
  7 53  1  0
  7 54  1  0
  9 55  1  0
  9 56  1  0
  9 57  1  0
 12 58  1  0
 13 59  1  1
 17 60  1  0
 17 61  1  0
 18 62  1  0
 18 63  1  0
 20 64  1  0
 20 65  1  0
 21 66  1  0
 21 67  1  0
 22 68  1  0
 23 69  1  0
 23 70  1  0
 24 71  1  0
 24 72  1  0
 25 73  1  0
 25 74  1  0
 26 75  1  0
 26 76  1  0
 27 77  1  0
 27 78  1  0
 30 79  1  0
 32 80  1  0
 32 81  1  0
 32 82  1  0
 33 83  1  0
 33 84  1  0
 33 85  1  0
 34 86  1  0
 34 87  1  0
 34 88  1  0
 35 89  1  0
 35 90  1  0
 37 91  1  0
 38 92  1  0
 40 93  1  0
 41 94  1  0
M  END
>  <Ligand ID>  (1) 
LIG0003544

>  <Ligand>  (1) 
CHEMBL538567

>  <SMILES>  (1) 
CC[C@H]1CN[C@@H](CN1C)C(=O)N[C@@H](C(=O)N1CCC(CC1)(C1CCCCC1)C(=O)NC(C)(C)C)Cc1ccc(cc1)F

>  <CID>  (1) 
11273288.0

>  <ChEMBL ID>  (1) 
nan

>  <InChiKey>  (1) 
UTVJDBAFZSBXLX-IARZGTGTSA-N

>  <InChi>  (1) 
InChI=1S/C33H52FN5O3/c1-6-26-21-35-28(22-38(26)5)29(40)36-27(20-23-12-14-25(34)15-13-23)30(41)39-18-16-33(17-19-39,24-10-8-7-9-11-24)31(42)37-32(2,3)4/h12-15,24,26-28,35H,6-11,16-22H2,1-5H3,(H,36,40)(H,37,42)/t26-,27+,28-/m0/s1

>  <IUPAC Name>  (1) 
(2S,5S)-N-[(2R)-1-[4-(tert-butylcarbamoyl)-4-cyclohexylpiperidin-1-yl]-3-(4-fluorophenyl)-1-oxopropan-2-yl]-5-ethyl-4-methylpiperazine-2-carboxamide

$$$$
