
     RDKit          3D

 33 35  0  0  0  0  0  0  0  0999 V2000
   -3.9318   -0.9973    0.8353 C   0  0  0  0  0  0  0  0  0  0  0  0
   -2.9383   -0.0773    1.2323 O   0  0  0  0  0  0  0  0  0  0  0  0
   -1.9046    0.3109    0.3902 C   0  0  0  0  0  0  0  0  0  0  0  0
   -1.9917    1.3921   -0.4616 C   0  0  0  0  0  0  0  0  0  0  0  0
   -3.2396    2.1992   -0.5019 C   0  0  0  0  0  0  0  0  0  0  0  0
   -0.9344    1.7456   -1.2868 C   0  0  0  0  0  0  0  0  0  0  0  0
    0.2049    0.9681   -1.2164 C   0  0  0  0  0  0  0  0  0  0  0  0
    0.3382   -0.1133   -0.3876 C   0  0  0  0  0  0  0  0  0  0  0  0
   -0.7434   -0.4484    0.4345 C   0  0  0  0  0  0  0  0  0  0  0  0
   -0.3573   -1.6376    1.2253 C   0  0  0  0  0  0  0  0  0  0  0  0
    1.1648   -1.4875    1.2704 C   0  0  0  0  0  0  0  0  0  0  0  0
    1.4388   -1.0602   -0.1573 C   0  0  0  0  0  0  0  0  0  0  0  0
    2.7810   -0.5002   -0.3589 C   0  0  0  0  0  0  0  0  0  0  0  0
    3.4478   -0.5071   -1.5295 N   0  0  0  0  0  0  0  0  0  0  0  0
    4.6354    0.0870   -1.3377 C   0  0  0  0  0  0  0  0  0  0  0  0
    4.6885    0.4651   -0.0089 C   0  0  0  0  0  0  0  0  0  0  0  0
    3.5395    0.0959    0.5777 N   0  0  0  0  0  0  0  0  0  0  0  0
   -4.5775   -0.6222    0.0195 H   0  0  0  0  0  0  0  0  0  0  0  0
   -3.4833   -1.9854    0.5328 H   0  0  0  0  0  0  0  0  0  0  0  0
   -4.6089   -1.1407    1.7223 H   0  0  0  0  0  0  0  0  0  0  0  0
   -3.5894    2.3564   -1.5427 H   0  0  0  0  0  0  0  0  0  0  0  0
   -4.0380    1.7156    0.0782 H   0  0  0  0  0  0  0  0  0  0  0  0
   -3.0443    3.1716    0.0117 H   0  0  0  0  0  0  0  0  0  0  0  0
   -0.9920    2.5981   -1.9640 H   0  0  0  0  0  0  0  0  0  0  0  0
    1.0651    1.2187   -1.8570 H   0  0  0  0  0  0  0  0  0  0  0  0
   -0.6645   -2.5220    0.6334 H   0  0  0  0  0  0  0  0  0  0  0  0
   -0.7886   -1.6362    2.2457 H   0  0  0  0  0  0  0  0  0  0  0  0
    1.6503   -2.4377    1.5338 H   0  0  0  0  0  0  0  0  0  0  0  0
    1.3671   -0.6682    1.9819 H   0  0  0  0  0  0  0  0  0  0  0  0
    1.2848   -1.9484   -0.8093 H   0  0  0  0  0  0  0  0  0  0  0  0
    5.3839    0.2256   -2.1022 H   0  0  0  0  0  0  0  0  0  0  0  0
    5.5176    0.9770    0.4902 H   0  0  0  0  0  0  0  0  0  0  0  0
    3.3200    0.2627    1.5809 H   0  0  0  0  0  0  0  0  0  0  0  0
  1  2  1  0
  2  3  1  0
  3  4  2  0
  4  5  1  0
  4  6  1  0
  6  7  2  0
  7  8  1  0
  8  9  2  0
  9 10  1  0
 10 11  1  0
 11 12  1  0
 12 13  1  0
 13 14  2  0
 14 15  1  0
 15 16  2  0
 16 17  1  0
  9  3  1  0
 17 13  1  0
 12  8  1  0
  1 18  1  0
  1 19  1  0
  1 20  1  0
  5 21  1  0
  5 22  1  0
  5 23  1  0
  6 24  1  0
  7 25  1  0
 10 26  1  0
 10 27  1  0
 11 28  1  0
 11 29  1  0
 12 30  1  0
 15 31  1  0
 16 32  1  0
 17 33  1  0
M  END
>  <Ligand ID>  (1) 
LIG0001706

>  <Ligand>  (1) 
CHEMBL256984

>  <SMILES>  (1) 
COc1c(C)ccc2c1CCC2c1ncc[nH]1

>  <CID>  (1) 
44449247.0

>  <ChEMBL ID>  (1) 
nan

>  <InChiKey>  (1) 
DHMOWBLMIPAURS-UHFFFAOYSA-N

>  <InChi>  (1) 
InChI=1S/C14H16N2O/c1-9-3-4-10-11(13(9)17-2)5-6-12(10)14-15-7-8-16-14/h3-4,7-8,12H,5-6H2,1-2H3,(H,15,16)

>  <IUPAC Name>  (1) 
2-(4-methoxy-5-methyl-2,3-dihydro-1H-inden-1-yl)-1H-imidazole

$$$$
