
     RDKit          3D

193200  0  0  0  0  0  0  0  0999 V2000
   -6.5275   -5.7373   -2.1009 N   0  0  0  0  0  0  0  0  0  0  0  0
   -7.1727   -5.5223   -0.8425 C   0  0  0  0  0  0  0  0  0  0  0  0
   -7.4528   -4.0862   -0.5375 C   0  0  0  0  0  0  0  0  0  0  0  0
   -6.2258   -3.2513   -0.4269 C   0  0  0  0  0  0  0  0  0  0  0  0
   -5.3912   -3.2300   -1.6529 C   0  0  0  0  0  0  0  0  0  0  0  0
   -4.1823   -2.2849   -1.4759 C   0  0  2  0  0  0  0  0  0  0  0  0
   -3.3853   -2.7845   -0.3853 N   0  0  0  0  0  0  0  0  0  0  0  0
   -2.0197   -3.2388   -0.5622 C   0  0  0  0  0  0  0  0  0  0  0  0
   -1.6205   -3.1652   -1.7224 O   0  0  0  0  0  0  0  0  0  0  0  0
   -1.2133   -3.7380    0.6072 C   0  0  1  0  0  0  0  0  0  0  0  0
   -1.8657   -4.7425    1.4513 C   0  0  0  0  0  0  0  0  0  0  0  0
   -2.2730   -6.0143    0.8784 C   0  0  0  0  0  0  0  0  0  0  0  0
   -1.4025   -7.1139    0.9236 C   0  0  0  0  0  0  0  0  0  0  0  0
   -1.8035   -8.3266    0.3890 C   0  0  0  0  0  0  0  0  0  0  0  0
   -3.0244   -8.5315   -0.1973 C   0  0  0  0  0  0  0  0  0  0  0  0
   -3.8857   -7.4477   -0.2431 C   0  0  0  0  0  0  0  0  0  0  0  0
   -3.4975   -6.2392    0.2847 C   0  0  0  0  0  0  0  0  0  0  0  0
    0.1373   -3.9658    0.1868 N   0  0  0  0  0  0  0  0  0  0  0  0
    0.6158   -4.6351   -0.9733 C   0  0  0  0  0  0  0  0  0  0  0  0
   -0.2061   -5.2469   -1.6382 O   0  0  0  0  0  0  0  0  0  0  0  0
    2.1098   -4.5610   -1.3234 C   0  0  2  0  0  0  0  0  0  0  0  0
    2.7396   -5.8903   -1.2198 C   0  0  0  0  0  0  0  0  0  0  0  0
    2.1302   -6.8904   -2.1409 C   0  0  0  0  0  0  0  0  0  0  0  0
    1.1108   -7.7335   -1.9165 N   0  0  0  0  0  0  0  0  0  0  0  0
    0.8977   -8.4365   -3.0419 C   0  0  0  0  0  0  0  0  0  0  0  0
    1.7828   -8.0390   -3.9849 N   0  0  0  0  0  0  0  0  0  0  0  0
    2.5445   -7.0905   -3.4435 C   0  0  0  0  0  0  0  0  0  0  0  0
    2.6706   -3.6640   -0.3144 N   0  0  0  0  0  0  0  0  0  0  0  0
    2.3826   -2.2726   -0.5233 C   0  0  0  0  0  0  0  0  0  0  0  0
    1.7627   -2.0289   -1.5694 O   0  0  0  0  0  0  0  0  0  0  0  0
    2.7409   -1.1753    0.3629 C   0  0  1  0  0  0  0  0  0  0  0  0
    3.6896   -1.7205    1.3406 N   0  0  0  0  0  0  0  0  0  0  0  0
    4.9126   -2.2053    0.7641 C   0  0  0  0  0  0  0  0  0  0  0  0
    5.1241   -2.1639   -0.4840 O   0  0  0  0  0  0  0  0  0  0  0  0
    6.0138   -2.7859    1.5751 C   0  0  2  0  0  0  0  0  0  0  0  0
    6.3194   -4.1600    1.0169 C   0  0  0  0  0  0  0  0  0  0  0  0
    7.4267   -4.8133    1.7510 C   0  0  0  0  0  0  0  0  0  0  0  0
    7.2490   -5.6213    2.8505 C   0  0  0  0  0  0  0  0  0  0  0  0
    8.3916   -6.1799    3.4363 C   0  0  0  0  0  0  0  0  0  0  0  0
    9.6615   -5.9158    2.9117 C   0  0  0  0  0  0  0  0  0  0  0  0
    9.8244   -5.1076    1.8152 C   0  0  0  0  0  0  0  0  0  0  0  0
    8.7094   -4.5591    1.2376 C   0  0  0  0  0  0  0  0  0  0  0  0
   10.7678   -6.4999    3.5380 O   0  0  0  0  0  0  0  0  0  0  0  0
    5.6169   -2.8331    2.9691 N   0  0  0  0  0  0  0  0  0  0  0  0
    3.3210    0.0307   -0.3563 C   0  0  0  0  0  0  0  0  0  0  0  0
    3.1748    1.2383    0.4568 C   0  0  0  0  0  0  0  0  0  0  0  0
    2.1231    1.3675    1.0830 O   0  0  0  0  0  0  0  0  0  0  0  0
    4.0668    2.3477    0.6884 N   0  0  0  0  0  0  0  0  0  0  0  0
    5.3514    2.1225    0.2058 C   0  0  2  0  0  0  0  0  0  0  0  0
    6.4217    2.0595    1.1980 C   0  0  0  0  0  0  0  0  0  0  0  0
    6.3310    2.4152    2.4100 O   0  0  0  0  0  0  0  0  0  0  0  0
    7.6834    1.5532    0.7933 N   0  0  0  0  0  0  0  0  0  0  0  0
    5.5678    3.0085   -1.0017 C   0  0  0  0  0  0  0  0  0  0  0  0
    6.8936    2.7940   -1.5782 C   0  0  0  0  0  0  0  0  0  0  0  0
    7.0315    1.8243   -2.5749 C   0  0  0  0  0  0  0  0  0  0  0  0
    8.2704    1.5674   -3.1309 C   0  0  0  0  0  0  0  0  0  0  0  0
    9.3333    2.3073   -2.6543 C   0  0  0  0  0  0  0  0  0  0  0  0
    9.1928    3.2677   -1.6666 C   0  0  0  0  0  0  0  0  0  0  0  0
    7.9731    3.5169   -1.1236 C   0  0  0  0  0  0  0  0  0  0  0  0
   10.5751    2.0194   -3.2442 O   0  0  0  0  0  0  0  0  0  0  0  0
    3.4423    3.5026    1.3100 C   0  0  0  0  0  0  0  0  0  0  0  0
    4.2541    4.6990    1.5537 C   0  0  0  0  0  0  0  0  0  0  0  0
    2.3046    3.7890    0.4345 N   0  0  0  0  0  0  0  0  0  0  0  0
    1.2298    4.6787    0.7081 C   0  0  0  0  0  0  0  0  0  0  0  0
    1.2682    5.2797    1.7598 O   0  0  0  0  0  0  0  0  0  0  0  0
    0.1711    4.7371   -0.3574 C   0  0  1  0  0  0  0  0  0  0  0  0
   -1.0461    5.3482   -0.0451 N   0  0  0  0  0  0  0  0  0  0  0  0
   -1.4060    6.3952    0.8323 C   0  0  0  0  0  0  0  0  0  0  0  0
   -0.5034    6.9941    1.4052 O   0  0  0  0  0  0  0  0  0  0  0  0
   -2.8832    6.7502    1.0257 C   0  0  1  0  0  0  0  0  0  0  0  0
   -3.6801    5.6572    0.4781 N   0  0  0  0  0  0  0  0  0  0  0  0
   -4.1809    5.6810   -0.8714 C   0  0  0  0  0  0  0  0  0  0  0  0
   -3.8869    6.7138   -1.4932 O   0  0  0  0  0  0  0  0  0  0  0  0
   -4.9625    4.6116   -1.5029 C   0  0  1  0  0  0  0  0  0  0  0  0
   -5.4123    3.5289   -0.6631 N   0  0  0  0  0  0  0  0  0  0  0  0
   -4.8520    2.2388   -0.5936 C   0  0  0  0  0  0  0  0  0  0  0  0
   -3.7917    2.1171   -1.2924 O   0  0  0  0  0  0  0  0  0  0  0  0
   -5.2996    1.0733    0.1406 C   0  0  1  0  0  0  0  0  0  0  0  0
   -4.4562   -0.1001   -0.1200 N   0  0  0  0  0  0  0  0  0  0  0  0
   -4.8060   -0.9601   -1.1997 C   0  0  0  0  0  0  0  0  0  0  0  0
   -5.6904   -0.5517   -1.9594 O   0  0  0  0  0  0  0  0  0  0  0  0
   -5.6320    1.1654    1.5858 C   0  0  0  0  0  0  0  0  0  0  0  0
   -6.7563    2.0130    1.9906 C   0  0  0  0  0  0  0  0  0  0  0  0
   -6.8476    3.2416    2.5863 C   0  0  0  0  0  0  0  0  0  0  0  0
   -8.1425    3.5987    2.7927 N   0  0  0  0  0  0  0  0  0  0  0  0
   -8.9157    2.5726    2.3193 C   0  0  0  0  0  0  0  0  0  0  0  0
   -8.0929    1.5869    1.8195 C   0  0  0  0  0  0  0  0  0  0  0  0
   -8.6222    0.4369    1.2852 C   0  0  0  0  0  0  0  0  0  0  0  0
  -10.0003    0.1978    1.2154 C   0  0  0  0  0  0  0  0  0  0  0  0
  -10.8072    1.1980    1.7214 C   0  0  0  0  0  0  0  0  0  0  0  0
  -10.2896    2.3636    2.2639 C   0  0  0  0  0  0  0  0  0  0  0  0
   -6.1594    5.2213   -2.2502 C   0  0  0  0  0  0  0  0  0  0  0  0
   -6.9564    5.9399   -1.2056 C   0  0  0  0  0  0  0  0  0  0  0  0
   -6.6036    5.9804   -0.0033 O   0  0  0  0  0  0  0  0  0  0  0  0
   -8.1487    6.5976   -1.5768 N   0  0  0  0  0  0  0  0  0  0  0  0
   -3.2509    7.0140    2.4197 C   0  0  0  0  0  0  0  0  0  0  0  0
    0.7180    5.0399   -1.7204 C   0  0  0  0  0  0  0  0  0  0  0  0
    1.4197    6.3194   -1.8101 C   0  0  0  0  0  0  0  0  0  0  0  0
    2.7910    6.4774   -1.6404 C   0  0  0  0  0  0  0  0  0  0  0  0
    3.3923    7.7199   -1.7127 C   0  0  0  0  0  0  0  0  0  0  0  0
    2.6589    8.8753   -1.9610 C   0  0  0  0  0  0  0  0  0  0  0  0
    1.3034    8.7169   -2.1312 C   0  0  0  0  0  0  0  0  0  0  0  0
    0.6933    7.4604   -2.0565 C   0  0  0  0  0  0  0  0  0  0  0  0
    2.8389    3.0240    2.6351 C   0  0  0  0  0  0  0  0  0  0  0  0
    3.5664    2.6498    3.5782 O   0  0  0  0  0  0  0  0  0  0  0  0
    1.4727    2.9865    2.8432 O   0  0  0  0  0  0  0  0  0  0  0  0
   -6.9392   -5.0981   -2.8386 H   0  0  0  0  0  0  0  0  0  0  0  0
   -6.6243   -6.7421   -2.3955 H   0  0  0  0  0  0  0  0  0  0  0  0
   -6.4875   -5.9838   -0.0630 H   0  0  0  0  0  0  0  0  0  0  0  0
   -8.0945   -6.1523   -0.7749 H   0  0  0  0  0  0  0  0  0  0  0  0
   -7.9694   -4.0505    0.4694 H   0  0  0  0  0  0  0  0  0  0  0  0
   -8.1563   -3.6696   -1.3066 H   0  0  0  0  0  0  0  0  0  0  0  0
   -5.6659   -3.6192    0.4733 H   0  0  0  0  0  0  0  0  0  0  0  0
   -6.5720   -2.2228   -0.1323 H   0  0  0  0  0  0  0  0  0  0  0  0
   -5.9557   -2.8694   -2.5257 H   0  0  0  0  0  0  0  0  0  0  0  0
   -4.9243   -4.2225   -1.8218 H   0  0  0  0  0  0  0  0  0  0  0  0
   -3.6332   -2.2685   -2.4280 H   0  0  0  0  0  0  0  0  0  0  0  0
   -3.7234   -2.8599    0.5725 H   0  0  0  0  0  0  0  0  0  0  0  0
   -1.2079   -2.7598    1.2725 H   0  0  0  0  0  0  0  0  0  0  0  0
   -1.1645   -4.9567    2.3044 H   0  0  0  0  0  0  0  0  0  0  0  0
   -2.7409   -4.2290    1.9707 H   0  0  0  0  0  0  0  0  0  0  0  0
   -0.4133   -7.0050    1.3883 H   0  0  0  0  0  0  0  0  0  0  0  0
   -1.1345   -9.1767    0.4273 H   0  0  0  0  0  0  0  0  0  0  0  0
   -3.2841   -9.4983   -0.5986 H   0  0  0  0  0  0  0  0  0  0  0  0
   -4.8660   -7.5979   -0.7083 H   0  0  0  0  0  0  0  0  0  0  0  0
   -4.1918   -5.4292    0.2255 H   0  0  0  0  0  0  0  0  0  0  0  0
    0.8900   -3.6176    0.8057 H   0  0  0  0  0  0  0  0  0  0  0  0
    2.1186   -4.0744   -2.3255 H   0  0  0  0  0  0  0  0  0  0  0  0
    2.6834   -6.2475   -0.1547 H   0  0  0  0  0  0  0  0  0  0  0  0
    3.8458   -5.8686   -1.4312 H   0  0  0  0  0  0  0  0  0  0  0  0
    0.6169   -7.7840   -1.0093 H   0  0  0  0  0  0  0  0  0  0  0  0
    0.1571   -9.2025   -3.2198 H   0  0  0  0  0  0  0  0  0  0  0  0
    3.3447   -6.5670   -3.9231 H   0  0  0  0  0  0  0  0  0  0  0  0
    3.2109   -3.9090    0.4907 H   0  0  0  0  0  0  0  0  0  0  0  0
    1.8578   -0.7673    0.9224 H   0  0  0  0  0  0  0  0  0  0  0  0
    3.5242   -1.7626    2.3465 H   0  0  0  0  0  0  0  0  0  0  0  0
    6.9202   -2.1334    1.5222 H   0  0  0  0  0  0  0  0  0  0  0  0
    5.4178   -4.7968    1.1526 H   0  0  0  0  0  0  0  0  0  0  0  0
    6.5524   -4.0265   -0.0570 H   0  0  0  0  0  0  0  0  0  0  0  0
    6.2667   -5.7966    3.2199 H   0  0  0  0  0  0  0  0  0  0  0  0
    8.2860   -6.8183    4.3035 H   0  0  0  0  0  0  0  0  0  0  0  0
   10.7883   -4.8917    1.4026 H   0  0  0  0  0  0  0  0  0  0  0  0
    8.8644   -3.9253    0.3740 H   0  0  0  0  0  0  0  0  0  0  0  0
   11.6349   -6.5678    2.9808 H   0  0  0  0  0  0  0  0  0  0  0  0
    6.3129   -3.3905    3.5318 H   0  0  0  0  0  0  0  0  0  0  0  0
    5.5602   -1.9073    3.4044 H   0  0  0  0  0  0  0  0  0  0  0  0
    2.5640    0.1958   -1.2198 H   0  0  0  0  0  0  0  0  0  0  0  0
    4.2447   -0.1338   -0.8742 H   0  0  0  0  0  0  0  0  0  0  0  0
    5.4479    1.0694   -0.2862 H   0  0  0  0  0  0  0  0  0  0  0  0
    7.7539    0.8207    0.0541 H   0  0  0  0  0  0  0  0  0  0  0  0
    8.5222    1.9402    1.2671 H   0  0  0  0  0  0  0  0  0  0  0  0
    4.8136    2.7186   -1.8032 H   0  0  0  0  0  0  0  0  0  0  0  0
    5.3524    4.0698   -0.8357 H   0  0  0  0  0  0  0  0  0  0  0  0
    6.1752    1.2655   -2.9132 H   0  0  0  0  0  0  0  0  0  0  0  0
    8.3633    0.8184   -3.8952 H   0  0  0  0  0  0  0  0  0  0  0  0
   10.0646    3.8001   -1.3416 H   0  0  0  0  0  0  0  0  0  0  0  0
    7.8842    4.2741   -0.3504 H   0  0  0  0  0  0  0  0  0  0  0  0
   11.3528    2.5526   -2.8961 H   0  0  0  0  0  0  0  0  0  0  0  0
    3.8948    5.4957    0.8345 H   0  0  0  0  0  0  0  0  0  0  0  0
    5.3232    4.6342    1.3735 H   0  0  0  0  0  0  0  0  0  0  0  0
    4.0298    5.1926    2.5489 H   0  0  0  0  0  0  0  0  0  0  0  0
    2.2596    3.3123   -0.4779 H   0  0  0  0  0  0  0  0  0  0  0  0
   -0.1006    3.6017   -0.4026 H   0  0  0  0  0  0  0  0  0  0  0  0
   -1.9081    4.9716   -0.5660 H   0  0  0  0  0  0  0  0  0  0  0  0
   -3.0194    7.6725    0.3885 H   0  0  0  0  0  0  0  0  0  0  0  0
   -3.9369    4.8086    0.9960 H   0  0  0  0  0  0  0  0  0  0  0  0
   -4.2623    4.1617   -2.2943 H   0  0  0  0  0  0  0  0  0  0  0  0
   -6.2250    3.6966   -0.0679 H   0  0  0  0  0  0  0  0  0  0  0  0
   -6.3495    0.7767   -0.3333 H   0  0  0  0  0  0  0  0  0  0  0  0
   -3.6268   -0.3579    0.4014 H   0  0  0  0  0  0  0  0  0  0  0  0
   -5.7569    0.1083    1.9747 H   0  0  0  0  0  0  0  0  0  0  0  0
   -4.7241    1.5052    2.1953 H   0  0  0  0  0  0  0  0  0  0  0  0
   -5.9592    3.8283    2.8437 H   0  0  0  0  0  0  0  0  0  0  0  0
   -8.5070    4.4802    3.2254 H   0  0  0  0  0  0  0  0  0  0  0  0
   -8.0106   -0.3674    0.8848 H   0  0  0  0  0  0  0  0  0  0  0  0
  -10.3749   -0.7122    0.7902 H   0  0  0  0  0  0  0  0  0  0  0  0
  -11.8800    1.0051    1.6647 H   0  0  0  0  0  0  0  0  0  0  0  0
  -10.9613    3.1043    2.6376 H   0  0  0  0  0  0  0  0  0  0  0  0
   -6.7402    4.4479   -2.7514 H   0  0  0  0  0  0  0  0  0  0  0  0
   -5.7805    5.9361   -2.9915 H   0  0  0  0  0  0  0  0  0  0  0  0
   -8.1803    7.5162   -2.1056 H   0  0  0  0  0  0  0  0  0  0  0  0
   -9.0521    6.1197   -1.2907 H   0  0  0  0  0  0  0  0  0  0  0  0
   -2.4549    7.5059    3.0261 H   0  0  0  0  0  0  0  0  0  0  0  0
   -3.6324    6.1220    2.9802 H   0  0  0  0  0  0  0  0  0  0  0  0
   -4.0922    7.7719    2.4370 H   0  0  0  0  0  0  0  0  0  0  0  0
   -0.1811    5.0164   -2.4113 H   0  0  0  0  0  0  0  0  0  0  0  0
    1.3285    4.1697   -2.0308 H   0  0  0  0  0  0  0  0  0  0  0  0
    3.3638    5.5781   -1.4564 H   0  0  0  0  0  0  0  0  0  0  0  0
    4.4581    7.8120   -1.5712 H   0  0  0  0  0  0  0  0  0  0  0  0
    3.1510    9.8354   -2.0092 H   0  0  0  0  0  0  0  0  0  0  0  0
    0.6992    9.5901   -2.3301 H   0  0  0  0  0  0  0  0  0  0  0  0
   -0.3892    7.4256   -2.2017 H   0  0  0  0  0  0  0  0  0  0  0  0
    1.0188    2.9377    3.7251 H   0  0  0  0  0  0  0  0  0  0  0  0
  1  2  1  0
  2  3  1  0
  3  4  1  0
  4  5  1  0
  5  6  1  0
  6  7  1  0
  7  8  1  0
  8  9  2  0
  8 10  1  0
 10 11  1  0
 11 12  1  0
 12 13  2  0
 13 14  1  0
 14 15  2  0
 15 16  1  0
 16 17  2  0
 10 18  1  0
 18 19  1  0
 19 20  2  0
 19 21  1  0
 21 22  1  0
 22 23  1  0
 23 24  1  0
 24 25  1  0
 25 26  2  0
 26 27  1  0
 21 28  1  0
 28 29  1  0
 29 30  2  0
 29 31  1  0
 31 32  1  0
 32 33  1  0
 33 34  2  0
 33 35  1  0
 35 36  1  0
 36 37  1  0
 37 38  2  0
 38 39  1  0
 39 40  2  0
 40 41  1  0
 41 42  2  0
 40 43  1  0
 35 44  1  0
 31 45  1  0
 45 46  1  0
 46 47  2  0
 46 48  1  0
 48 49  1  0
 49 50  1  0
 50 51  2  0
 50 52  1  0
 49 53  1  0
 53 54  1  0
 54 55  2  0
 55 56  1  0
 56 57  2  0
 57 58  1  0
 58 59  2  0
 57 60  1  0
 48 61  1  0
 61 62  1  0
 61 63  1  0
 63 64  1  0
 64 65  2  0
 64 66  1  0
 66 67  1  0
 67 68  1  0
 68 69  2  0
 68 70  1  0
 70 71  1  0
 71 72  1  0
 72 73  2  0
 72 74  1  0
 74 75  1  0
 75 76  1  0
 76 77  2  0
 76 78  1  0
 78 79  1  0
 79 80  1  0
 80 81  2  0
 78 82  1  0
 82 83  1  0
 83 84  2  0
 84 85  1  0
 85 86  1  0
 86 87  2  0
 87 88  1  0
 88 89  2  0
 89 90  1  0
 90 91  2  0
 74 92  1  0
 92 93  1  0
 93 94  2  0
 93 95  1  0
 70 96  1  0
 66 97  1  0
 97 98  1  0
 98 99  2  0
 99100  1  0
100101  2  0
101102  1  0
102103  2  0
 61104  1  0
104105  2  0
104106  1  0
 80  6  1  0
 87 83  1  0
103 98  1  0
 17 12  1  0
 27 23  2  0
 42 37  1  0
 59 54  1  0
 91 86  1  0
  1107  1  0
  1108  1  0
  2109  1  0
  2110  1  0
  3111  1  0
  3112  1  0
  4113  1  0
  4114  1  0
  5115  1  0
  5116  1  0
  6117  1  6
  7118  1  0
 10119  1  1
 11120  1  0
 11121  1  0
 13122  1  0
 14123  1  0
 15124  1  0
 16125  1  0
 17126  1  0
 18127  1  0
 21128  1  6
 22129  1  0
 22130  1  0
 24131  1  0
 25132  1  0
 27133  1  0
 28134  1  0
 31135  1  1
 32136  1  0
 35137  1  1
 36138  1  0
 36139  1  0
 38140  1  0
 39141  1  0
 41142  1  0
 42143  1  0
 43144  1  0
 44145  1  0
 44146  1  0
 45147  1  0
 45148  1  0
 49149  1  6
 52150  1  0
 52151  1  0
 53152  1  0
 53153  1  0
 55154  1  0
 56155  1  0
 58156  1  0
 59157  1  0
 60158  1  0
 62159  1  0
 62160  1  0
 62161  1  0
 63162  1  0
 66163  1  6
 67164  1  0
 70165  1  6
 71166  1  0
 74167  1  6
 75168  1  0
 78169  1  6
 79170  1  0
 82171  1  0
 82172  1  0
 84173  1  0
 85174  1  0
 88175  1  0
 89176  1  0
 90177  1  0
 91178  1  0
 92179  1  0
 92180  1  0
 95181  1  0
 95182  1  0
 96183  1  0
 96184  1  0
 96185  1  0
 97186  1  0
 97187  1  0
 99188  1  0
100189  1  0
101190  1  0
102191  1  0
103192  1  0
106193  1  0
M  END
>  <Ligand ID>  (1) 
LIG0001163

>  <Ligand>  (1) 
CHEMBL2096731

>  <SMILES>  (1) 
NCCCC[C@@H]1NC(=O)[C@@H](Cc2ccccc2)NC(=O)[C@H](Cc2[nH]cnc2)NC(=O)[C@@H](NC(=O)[C@H](Cc2ccc(cc2)O)N)CC(=O)N([C@H](C(=O)N)Cc2ccc(cc2)O)C(C)(NC(=O)[C@@H](NC(=O)[C@@H](NC(=O)[C@@H](NC(=O)[C@@H](NC1=O)Cc1c[nH]c2c1cccc2)CC(=O)N)C)Cc1ccccc1)C(=O)O

>  <CID>  (1) 
91900697.0

>  <ChEMBL ID>  (1) 
nan

>  <InChiKey>  (1) 
YBPUPHOEVCKWNW-HNSJQOHDSA-N

>  <InChi>  (1) 
InChI=1S/C73H87N17O16/c1-40-63(96)83-54(31-42-15-7-4-8-16-42)71(104)89-73(2,72(105)106)90(59(62(77)95)32-44-22-26-48(92)27-23-44)61(94)36-58(84-64(97)50(75)29-43-20-24-47(91)25-21-43)70(103)87-56(34-46-38-78-39-80-46)69(102)85-53(30-41-13-5-3-6-14-41)67(100)82-52(19-11-12-28-74)65(98)86-55(33-45-37-79-51-18-10-9-17-49(45)51)68(101)88-57(35-60(76)93)66(99)81-40/h3-10,13-18,20-27,37-40,50,52-59,79,91-92H,11-12,19,28-36,74-75H2,1-2H3,(H2,76,93)(H2,77,95)(H,78,80)(H,81,99)(H,82,100)(H,83,96)(H,84,97)(H,85,102)(H,86,98)(H,87,103)(H,88,101)(H,89,104)(H,105,106)/t40-,50-,52-,53+,54-,55-,56-,57-,58-,59-,73?/m0/s1

>  <IUPAC Name>  (1) 
(5S,8S,11S,14S,17S,20R,23S,26S)-17-(4-aminobutyl)-1-[(2S)-1-amino-3-(4-hydroxyphenyl)-1-oxopropan-2-yl]-26-[[(2S)-2-amino-3-(4-hydroxyphenyl)propanoyl]amino]-11-(2-amino-2-oxoethyl)-5,20-dibenzyl-23-(1H-imidazol-5-ylmethyl)-14-(1H-indol-3-ylmethyl)-2,8-dimethyl-4,7,10,13,16,19,22,25,28-nonaoxo-1,3,6,9,12,15,18,21,24-nonazacyclooctacosane-2-carboxylic acid

$$$$
