
     RDKit          3D

 38 40  0  0  0  0  0  0  0  0999 V2000
   -1.0075    1.7895   -2.9725 O   0  0  0  0  0  0  0  0  0  0  0  0
   -1.2454    1.0863   -1.9846 C   0  0  0  0  0  0  0  0  0  0  0  0
   -2.5924    0.7804   -1.5361 N   0  0  0  0  0  0  0  0  0  0  0  0
   -2.7752    0.6706   -0.1318 C   0  0  1  0  0  0  0  0  0  0  0  0
   -4.0913    0.3010    0.4073 C   0  0  0  0  0  0  0  0  0  0  0  0
   -3.7365   -0.1205    1.7763 N   0  0  0  0  0  0  0  0  0  0  0  0
   -2.3831   -0.6850    1.6877 C   0  0  0  0  0  0  0  0  0  0  0  0
   -1.9785   -0.5863    0.2715 C   0  0  2  0  0  0  0  0  0  0  0  0
   -0.5903   -0.3095   -0.0489 C   0  0  0  0  0  0  0  0  0  0  0  0
   -0.1897    0.4731   -1.1433 C   0  0  0  0  0  0  0  0  0  0  0  0
    1.1241    0.7028   -1.4412 C   0  0  0  0  0  0  0  0  0  0  0  0
    1.4612    1.5364   -2.6103 C   0  0  0  0  0  0  0  0  0  0  0  0
    2.0866    0.1329   -0.6182 C   0  0  0  0  0  0  0  0  0  0  0  0
    1.7375   -0.6508    0.4802 C   0  0  0  0  0  0  0  0  0  0  0  0
    0.4029   -0.8541    0.7397 C   0  0  0  0  0  0  0  0  0  0  0  0
    2.8116   -1.2399    1.3334 C   0  0  0  0  0  0  0  0  0  0  0  0
    3.9945   -0.3194    1.5698 C   0  0  0  0  0  0  0  0  0  0  0  0
    4.1320   -1.5633    0.7425 C   0  0  0  0  0  0  0  0  0  0  0  0
    0.6837    0.0000    0.0000 Cl  0  0  0  0  0  0  0  0  0  0  0  0
   -3.3282    0.6659   -2.2729 H   0  0  0  0  0  0  0  0  0  0  0  0
   -2.3754    1.5228    0.4487 H   0  0  0  0  0  0  0  0  0  0  0  0
   -4.7380    1.2146    0.4632 H   0  0  0  0  0  0  0  0  0  0  0  0
   -4.5770   -0.5498   -0.0868 H   0  0  0  0  0  0  0  0  0  0  0  0
   -3.5800    0.8028    2.2758 H   0  0  0  0  0  0  0  0  0  0  0  0
   -1.6929   -0.2884    2.4315 H   0  0  0  0  0  0  0  0  0  0  0  0
   -2.5309   -1.7753    1.9260 H   0  0  0  0  0  0  0  0  0  0  0  0
   -2.3067   -1.4494   -0.3462 H   0  0  0  0  0  0  0  0  0  0  0  0
    2.5856    1.5873   -2.6605 H   0  0  0  0  0  0  0  0  0  0  0  0
    1.1366    2.5934   -2.4884 H   0  0  0  0  0  0  0  0  0  0  0  0
    1.1438    1.0808   -3.5719 H   0  0  0  0  0  0  0  0  0  0  0  0
    3.1338    0.3141   -0.8531 H   0  0  0  0  0  0  0  0  0  0  0  0
    0.1324   -1.4575    1.5854 H   0  0  0  0  0  0  0  0  0  0  0  0
    2.4311   -1.8384    2.1697 H   0  0  0  0  0  0  0  0  0  0  0  0
    4.4029   -0.2825    2.5965 H   0  0  0  0  0  0  0  0  0  0  0  0
    4.0751    0.6230    1.0056 H   0  0  0  0  0  0  0  0  0  0  0  0
    4.2887   -1.4570   -0.3403 H   0  0  0  0  0  0  0  0  0  0  0  0
    4.6388   -2.4507    1.1962 H   0  0  0  0  0  0  0  0  0  0  0  0
   -0.6837    0.0000    0.0000 H   0  0  0  0  0  0  0  0  0  0  0  0
  1  2  2  0
  2  3  1  0
  3  4  1  0
  4  5  1  0
  5  6  1  0
  6  7  1  0
  7  8  1  0
  8  9  1  0
  9 10  2  0
 10 11  1  0
 11 12  1  0
 11 13  2  0
 13 14  1  0
 14 15  2  0
 14 16  1  0
 16 17  1  0
 17 18  1  0
 10  2  1  0
 18 16  1  0
  8  4  1  0
 15  9  1  0
  3 20  1  0
  4 21  1  1
  5 22  1  0
  5 23  1  0
  6 24  1  0
  7 25  1  0
  7 26  1  0
  8 27  1  6
 12 28  1  0
 12 29  1  0
 12 30  1  0
 13 31  1  0
 15 32  1  0
 16 33  1  0
 17 34  1  0
 17 35  1  0
 18 36  1  0
 18 37  1  0
 19 38  1  0
M  END
>  <Ligand ID>  (1) 
LIG0003780

>  <Ligand>  (1) 
CHEMBL2337104

>  <SMILES>  (1) 
O=C1N[C@H]2CNC[C@@H]2c2c1c(C)cc(c2)C1CC1.Cl

>  <CID>  (1) 
69056262.0

>  <ChEMBL ID>  (1) 
nan

>  <InChiKey>  (1) 
ACAMYMCETUSQBH-KZCZEQIWSA-N

>  <InChi>  (1) 
InChI=1S/C15H18N2O.ClH/c1-8-4-10(9-2-3-9)5-11-12-6-16-7-13(12)17-15(18)14(8)11;/h4-5,9,12-13,16H,2-3,6-7H2,1H3,(H,17,18);1H/t12-,13+;/m1./s1

>  <IUPAC Name>  (1) 
(3aR,9bS)-8-cyclopropyl-6-methyl-1,2,3,3a,4,9b-hexahydropyrrolo[3,4-c]isoquinolin-5-one;hydrochloride

$$$$
