
     RDKit          3D

 69 75  0  0  0  0  0  0  0  0999 V2000
   -5.6503    3.7575    1.4341 C   0  0  0  0  0  0  0  0  0  0  0  0
   -4.5292    3.0839    1.5936 C   0  0  0  0  0  0  0  0  0  0  0  0
   -4.2374    1.8497    0.8835 C   0  0  0  0  0  0  0  0  0  0  0  0
   -5.1253    1.2784   -0.0270 C   0  0  0  0  0  0  0  0  0  0  0  0
   -4.8372    0.0886   -0.7086 C   0  0  0  0  0  0  0  0  0  0  0  0
   -3.6313   -0.5334   -0.4639 C   0  0  0  0  0  0  0  0  0  0  0  0
   -2.8128    0.0724    0.4342 C   0  0  0  0  0  0  0  0  0  0  0  0
   -3.0117    1.2169    1.1314 C   0  0  0  0  0  0  0  0  0  0  0  0
   -1.8974    1.4196    1.9018 O   0  0  0  0  0  0  0  0  0  0  0  0
   -0.8173    0.5644    1.5818 C   0  0  1  0  0  0  0  0  0  0  0  0
   -1.4995   -0.5269    0.7759 C   0  0  1  0  0  0  0  0  0  0  0  0
   -1.6728   -1.7753    1.5432 C   0  0  0  0  0  0  0  0  0  0  0  0
   -1.5380   -3.0663    0.8515 C   0  0  0  0  0  0  0  0  0  0  0  0
   -1.1389   -3.0265   -0.5251 N   0  0  0  0  0  0  0  0  0  0  0  0
   -1.6420   -1.8499   -1.2258 C   0  0  1  0  0  0  0  0  0  0  0  0
   -3.1499   -1.7696   -1.1169 C   0  0  0  0  0  0  0  0  0  0  0  0
   -0.8792   -0.7330   -0.6028 C   0  0  1  0  0  0  0  0  0  0  0  0
   -0.8989    0.5402   -1.3908 C   0  0  0  0  0  0  0  0  0  0  0  0
   -0.3322    1.6396   -0.5338 C   0  0  0  0  0  0  0  0  0  0  0  0
    0.2650    1.1068    0.7527 C   0  0  1  0  0  0  0  0  0  0  0  0
    1.0941    2.0285    1.2711 O   0  0  0  0  0  0  0  0  0  0  0  0
    0.6574    3.1991    1.7198 C   0  0  0  0  0  0  0  0  0  0  0  0
    1.1981   -0.0784    0.4417 C   0  0  1  0  0  0  0  0  0  0  0  0
    0.5433   -1.1406   -0.3980 C   0  0  0  0  0  0  0  0  0  0  0  0
    2.4299    0.4147   -0.2879 C   0  0  0  0  0  0  0  0  0  0  0  0
    3.1445    1.3384    0.4659 O   0  0  0  0  0  0  0  0  0  0  0  0
    4.2825    1.7799   -0.2343 C   0  0  0  0  0  0  0  0  0  0  0  0
    5.1980    0.6713   -0.5589 C   0  0  0  0  0  0  0  0  0  0  0  0
    6.1936    0.3338    0.3375 C   0  0  0  0  0  0  0  0  0  0  0  0
    7.0799   -0.7017    0.0773 C   0  0  0  0  0  0  0  0  0  0  0  0
    6.9880   -1.4315   -1.1011 C   0  0  0  0  0  0  0  0  0  0  0  0
    6.0101   -1.1091   -1.9947 C   0  0  0  0  0  0  0  0  0  0  0  0
    5.1275   -0.0690   -1.7226 C   0  0  0  0  0  0  0  0  0  0  0  0
   -1.3759   -4.2414   -1.2117 C   0  0  0  0  0  0  0  0  0  0  0  0
   -6.4526    3.4623    0.7682 H   0  0  0  0  0  0  0  0  0  0  0  0
   -5.8328    4.6807    1.9856 H   0  0  0  0  0  0  0  0  0  0  0  0
   -3.8036    3.4819    2.2889 H   0  0  0  0  0  0  0  0  0  0  0  0
   -6.0881    1.7515   -0.2383 H   0  0  0  0  0  0  0  0  0  0  0  0
   -5.5103   -0.3596   -1.4105 H   0  0  0  0  0  0  0  0  0  0  0  0
   -0.4611    0.1144    2.5346 H   0  0  0  0  0  0  0  0  0  0  0  0
   -0.9983   -1.7056    2.4457 H   0  0  0  0  0  0  0  0  0  0  0  0
   -2.7032   -1.7490    2.0058 H   0  0  0  0  0  0  0  0  0  0  0  0
   -2.4589   -3.7135    0.9251 H   0  0  0  0  0  0  0  0  0  0  0  0
   -0.7614   -3.6800    1.3820 H   0  0  0  0  0  0  0  0  0  0  0  0
   -1.3957   -2.0135   -2.2945 H   0  0  0  0  0  0  0  0  0  0  0  0
   -3.6481   -1.9131   -2.0940 H   0  0  0  0  0  0  0  0  0  0  0  0
   -3.5145   -2.6159   -0.4789 H   0  0  0  0  0  0  0  0  0  0  0  0
   -0.1527    0.3948   -2.2238 H   0  0  0  0  0  0  0  0  0  0  0  0
   -1.8413    0.7925   -1.8747 H   0  0  0  0  0  0  0  0  0  0  0  0
    0.3988    2.2795   -1.0797 H   0  0  0  0  0  0  0  0  0  0  0  0
   -1.1737    2.3161   -0.2336 H   0  0  0  0  0  0  0  0  0  0  0  0
   -0.0806    3.0125    2.5541 H   0  0  0  0  0  0  0  0  0  0  0  0
    0.1883    3.9073    1.0519 H   0  0  0  0  0  0  0  0  0  0  0  0
    1.4953    3.7249    2.2272 H   0  0  0  0  0  0  0  0  0  0  0  0
    1.5266   -0.4814    1.4174 H   0  0  0  0  0  0  0  0  0  0  0  0
    1.0752   -1.2848   -1.3536 H   0  0  0  0  0  0  0  0  0  0  0  0
    0.6289   -2.1196    0.1555 H   0  0  0  0  0  0  0  0  0  0  0  0
    2.2116    0.7540   -1.3096 H   0  0  0  0  0  0  0  0  0  0  0  0
    3.0942   -0.4810   -0.3913 H   0  0  0  0  0  0  0  0  0  0  0  0
    3.9371    2.2076   -1.2108 H   0  0  0  0  0  0  0  0  0  0  0  0
    4.7895    2.5756    0.3466 H   0  0  0  0  0  0  0  0  0  0  0  0
    6.3422    0.8467    1.2823 H   0  0  0  0  0  0  0  0  0  0  0  0
    7.8712   -0.9828    0.7712 H   0  0  0  0  0  0  0  0  0  0  0  0
    7.6662   -2.2442   -1.3296 H   0  0  0  0  0  0  0  0  0  0  0  0
    5.9261   -1.6696   -2.9183 H   0  0  0  0  0  0  0  0  0  0  0  0
    4.3595    0.1717   -2.4425 H   0  0  0  0  0  0  0  0  0  0  0  0
   -0.4145   -4.5476   -1.7156 H   0  0  0  0  0  0  0  0  0  0  0  0
   -1.6489   -5.1120   -0.5750 H   0  0  0  0  0  0  0  0  0  0  0  0
   -2.1054   -4.1317   -2.0610 H   0  0  0  0  0  0  0  0  0  0  0  0
  1  2  2  0
  2  3  1  0
  3  4  2  0
  4  5  1  0
  5  6  2  0
  6  7  1  0
  7  8  2  0
  8  9  1  0
  9 10  1  0
 10 11  1  0
 11 12  1  1
 12 13  1  0
 13 14  1  0
 14 15  1  0
 15 16  1  0
 15 17  1  0
 17 18  1  6
 18 19  1  0
 19 20  1  0
 20 21  1  1
 21 22  1  0
 20 23  1  0
 23 24  1  0
 23 25  1  0
 25 26  1  0
 26 27  1  0
 27 28  1  0
 28 29  2  0
 29 30  1  0
 30 31  2  0
 31 32  1  0
 32 33  2  0
 14 34  1  0
  8  3  1  0
 20 10  1  0
 33 28  1  0
 16  6  1  0
 24 17  1  0
 11  7  1  0
 17 11  1  0
  1 35  1  0
  1 36  1  0
  2 37  1  0
  4 38  1  0
  5 39  1  0
 10 40  1  1
 12 41  1  0
 12 42  1  0
 13 43  1  0
 13 44  1  0
 15 45  1  6
 16 46  1  0
 16 47  1  0
 18 48  1  0
 18 49  1  0
 19 50  1  0
 19 51  1  0
 22 52  1  0
 22 53  1  0
 22 54  1  0
 23 55  1  1
 24 56  1  0
 24 57  1  0
 25 58  1  0
 25 59  1  0
 27 60  1  0
 27 61  1  0
 29 62  1  0
 30 63  1  0
 31 64  1  0
 32 65  1  0
 33 66  1  0
 34 67  1  0
 34 68  1  0
 34 69  1  0
M  END
>  <Ligand ID>  (1) 
LIG0004621

>  <Ligand>  (1) 
CHEMBL3907607

>  <SMILES>  (1) 
C=Cc1ccc2c3c1O[C@H]1[C@]43CCN([C@@H](C2)[C@]24CC[C@]1(OC)[C@@H](C2)COCc1ccccc1)C

>  <CID>  (1) 
134131741.0

>  <ChEMBL ID>  (1) 
nan

>  <InChiKey>  (1) 
SXOUMZNAELVZJJ-KBKMXRMXSA-N

>  <InChi>  (1) 
InChI=1S/C30H35NO3/c1-4-21-10-11-22-16-24-28-12-13-30(32-3,23(17-28)19-33-18-20-8-6-5-7-9-20)27-29(28,14-15-31(24)2)25(22)26(21)34-27/h4-11,23-24,27H,1,12-19H2,2-3H3/t23-,24-,27-,28-,29+,30-/m0/s1

>  <IUPAC Name>  (1) 
(1R,2R,6S,14S,15S,16S)-11-ethenyl-15-methoxy-5-methyl-16-(phenylmethoxymethyl)-13-oxa-5-azahexacyclo[13.2.2.12,8.01,6.02,14.012,20]icosa-8(20),9,11-triene

$$$$
