
     RDKit          3D

 26 26  0  0  0  0  0  0  0  0999 V2000
   -3.1025   -0.3009    1.2942 N   0  0  0  0  0  0  0  0  0  0  0  0
   -2.7086    1.0078    0.8703 C   0  0  0  0  0  0  0  0  0  0  0  0
   -2.4050    1.0678   -0.6158 C   0  0  0  0  0  0  0  0  0  0  0  0
   -1.2975    0.1471   -1.0030 C   0  0  0  0  0  0  0  0  0  0  0  0
    0.0067    0.4398   -0.3075 C   0  0  0  0  0  0  0  0  0  0  0  0
    0.9950   -0.6063   -0.8407 C   0  0  0  0  0  0  0  0  0  0  0  0
    2.3457   -0.4400   -0.2349 C   0  0  0  0  0  0  0  0  0  0  0  0
    3.3450    0.3649   -0.7792 C   0  0  0  0  0  0  0  0  0  0  0  0
    4.3950    0.2454    0.0538 N   0  0  0  0  0  0  0  0  0  0  0  0
    4.1184   -0.5717    1.0696 C   0  0  0  0  0  0  0  0  0  0  0  0
    2.8501   -0.9874    0.8785 N   0  0  0  0  0  0  0  0  0  0  0  0
   -3.4258   -0.9404    0.5411 H   0  0  0  0  0  0  0  0  0  0  0  0
   -3.8576   -0.2200    2.0114 H   0  0  0  0  0  0  0  0  0  0  0  0
   -1.8522    1.3252    1.4966 H   0  0  0  0  0  0  0  0  0  0  0  0
   -3.5613    1.6984    1.0399 H   0  0  0  0  0  0  0  0  0  0  0  0
   -2.3036    2.1078   -0.9730 H   0  0  0  0  0  0  0  0  0  0  0  0
   -3.3289    0.6804   -1.1100 H   0  0  0  0  0  0  0  0  0  0  0  0
   -1.5956   -0.8743   -0.6731 H   0  0  0  0  0  0  0  0  0  0  0  0
   -1.1257    0.1958   -2.0769 H   0  0  0  0  0  0  0  0  0  0  0  0
   -0.0338    0.3670    0.7839 H   0  0  0  0  0  0  0  0  0  0  0  0
    0.4271    1.4285   -0.5897 H   0  0  0  0  0  0  0  0  0  0  0  0
    0.5616   -1.5976   -0.5890 H   0  0  0  0  0  0  0  0  0  0  0  0
    1.0852   -0.4917   -1.9440 H   0  0  0  0  0  0  0  0  0  0  0  0
    3.3144    0.9679   -1.6761 H   0  0  0  0  0  0  0  0  0  0  0  0
    4.8067   -0.8198    1.8628 H   0  0  0  0  0  0  0  0  0  0  0  0
    2.3473   -1.6386    1.5108 H   0  0  0  0  0  0  0  0  0  0  0  0
  1  2  1  0
  2  3  1  0
  3  4  1  0
  4  5  1  0
  5  6  1  0
  6  7  1  0
  7  8  2  0
  8  9  1  0
  9 10  2  0
 10 11  1  0
 11  7  1  0
  1 12  1  0
  1 13  1  0
  2 14  1  0
  2 15  1  0
  3 16  1  0
  3 17  1  0
  4 18  1  0
  4 19  1  0
  5 20  1  0
  5 21  1  0
  6 22  1  0
  6 23  1  0
  8 24  1  0
 10 25  1  0
 11 26  1  0
M  END
>  <Ligand ID>  (1) 
LIG0005758

>  <Ligand>  (1) 
impentamine

>  <SMILES>  (1) 
NCCCCCc1cnc[nH]1

>  <CID>  (1) 
9793868.0

>  <ChEMBL ID>  (1) 
nan

>  <InChiKey>  (1) 
MZCJWLAXZRFUPI-UHFFFAOYSA-N

>  <InChi>  (1) 
InChI=1S/C8H15N3/c9-5-3-1-2-4-8-6-10-7-11-8/h6-7H,1-5,9H2,(H,10,11)

>  <IUPAC Name>  (1) 
5-(1H-imidazol-5-yl)pentan-1-amine

$$$$
