
     RDKit          3D

 13 12  0  0  0  0  0  0  0  0999 V2000
   -1.8414   -0.0948   -0.3620 C   0  0  0  0  0  0  0  0  0  0  0  0
   -0.5896    0.3292    0.3971 C   0  0  0  0  0  0  0  0  0  0  0  0
    0.5975   -0.3290   -0.1878 C   0  0  0  0  0  0  0  0  0  0  0  0
    0.4440   -1.1508   -1.0892 O   0  0  0  0  0  0  0  0  0  0  0  0
    1.9734    0.0180    0.2228 C   0  0  0  0  0  0  0  0  0  0  0  0
   -2.3745    0.7565   -0.8078 H   0  0  0  0  0  0  0  0  0  0  0  0
   -2.5482   -0.6586    0.2619 H   0  0  0  0  0  0  0  0  0  0  0  0
   -1.5485   -0.7657   -1.2083 H   0  0  0  0  0  0  0  0  0  0  0  0
   -0.6814    0.0705    1.4824 H   0  0  0  0  0  0  0  0  0  0  0  0
   -0.4944    1.4451    0.3892 H   0  0  0  0  0  0  0  0  0  0  0  0
    2.2246    1.0276   -0.1740 H   0  0  0  0  0  0  0  0  0  0  0  0
    2.7071   -0.6709   -0.2365 H   0  0  0  0  0  0  0  0  0  0  0  0
    2.1314    0.0230    1.3121 H   0  0  0  0  0  0  0  0  0  0  0  0
  1  2  1  0
  2  3  1  0
  3  4  2  0
  3  5  1  0
  1  6  1  0
  1  7  1  0
  1  8  1  0
  2  9  1  0
  2 10  1  0
  5 11  1  0
  5 12  1  0
  5 13  1  0
M  END
>  <Ligand ID>  (1) 
LIG0000030

>  <Ligand>  (1) 
2-butanone

>  <SMILES>  (1) 
CCC(=O)C

>  <CID>  (1) 
6569.0

>  <ChEMBL ID>  (1) 
nan

>  <InChiKey>  (1) 
ZWEHNKRNPOVVGH-UHFFFAOYSA-N

>  <InChi>  (1) 
InChI=1S/C4H8O/c1-3-4(2)5/h3H2,1-2H3

>  <IUPAC Name>  (1) 
butan-2-one

$$$$
