
     RDKit          3D

 14 13  0  0  0  0  0  0  0  0999 V2000
    2.5430    0.8199   -0.1476 O   0  0  0  0  0  0  0  0  0  0  0  0
    1.2549    0.4741   -0.5086 C   0  0  0  0  0  0  0  0  0  0  0  0
    0.6179    1.1938   -1.3203 O   0  0  0  0  0  0  0  0  0  0  0  0
    0.6814   -0.7593    0.0982 C   0  0  0  0  0  0  0  0  0  0  0  0
   -0.7041   -1.0146   -0.3994 C   0  0  0  0  0  0  0  0  0  0  0  0
   -1.6344    0.0961   -0.0788 C   0  0  0  0  0  0  0  0  0  0  0  0
   -2.0953    0.1427    1.1066 O   0  0  0  0  0  0  0  0  0  0  0  0
   -2.0122    1.0769   -1.0114 O   0  0  0  0  0  0  0  0  0  0  0  0
    3.0544    1.4821   -0.7330 H   0  0  0  0  0  0  0  0  0  0  0  0
    0.8209   -0.7862    1.1950 H   0  0  0  0  0  0  0  0  0  0  0  0
    1.3171   -1.6196   -0.2699 H   0  0  0  0  0  0  0  0  0  0  0  0
   -1.0729   -1.9439    0.0978 H   0  0  0  0  0  0  0  0  0  0  0  0
   -0.6916   -1.1754   -1.4595 H   0  0  0  0  0  0  0  0  0  0  0  0
   -2.0790    2.0134   -0.6201 H   0  0  0  0  0  0  0  0  0  0  0  0
  1  2  1  0
  2  3  2  0
  2  4  1  0
  4  5  1  0
  5  6  1  0
  6  7  2  0
  6  8  1  0
  1  9  1  0
  4 10  1  0
  4 11  1  0
  5 12  1  0
  5 13  1  0
  8 14  1  0
M  END
>  <Ligand ID>  (1) 
LIG0000342

>  <Ligand>  (1) 
succinic acid

>  <SMILES>  (1) 
OC(=O)CCC(=O)O

>  <CID>  (1) 
1110.0

>  <ChEMBL ID>  (1) 
nan

>  <InChiKey>  (1) 
KDYFGRWQOYBRFD-UHFFFAOYSA-N

>  <InChi>  (1) 
InChI=1S/C4H6O4/c5-3(6)1-2-4(7)8/h1-2H2,(H,5,6)(H,7,8)

>  <IUPAC Name>  (1) 
butanedioic acid

$$$$
