
     RDKit          3D

 41 41  0  0  0  0  0  0  0  0999 V2000
    3.2899   -1.9058   -0.7387 C   0  0  0  0  0  0  0  0  0  0  0  0
    3.3187   -0.8412    0.3580 C   0  0  0  0  0  0  0  0  0  0  0  0
    2.8064    0.4530   -0.1760 C   0  0  0  0  0  0  0  0  0  0  0  0
    1.3976    0.4065   -0.6883 C   0  0  0  0  0  0  0  0  0  0  0  0
    0.3964    0.0044    0.3678 C   0  0  0  0  0  0  0  0  0  0  0  0
   -0.9954   -0.0033   -0.2779 C   0  0  0  0  0  0  0  0  0  0  0  0
   -1.3679    1.3344   -0.8143 C   0  0  0  0  0  0  0  0  0  0  0  0
   -2.7718    1.5836   -0.3879 C   0  0  0  0  0  0  0  0  0  0  0  0
   -3.1477    0.6327    0.4561 C   0  0  0  0  0  0  0  0  0  0  0  0
   -2.0634   -0.3500    0.6928 C   0  0  0  0  0  0  0  0  0  0  0  0
   -1.5925   -0.3226    2.1317 C   0  0  0  0  0  0  0  0  0  0  0  0
   -2.6616   -1.7182    0.4153 C   0  0  0  0  0  0  0  0  0  0  0  0
   -4.4937    0.5215    1.1165 C   0  0  0  0  0  0  0  0  0  0  0  0
    3.0447    1.5751    0.7946 C   0  0  0  0  0  0  0  0  0  0  0  0
    4.6599   -0.6640    0.6967 O   0  0  0  0  0  0  0  0  0  0  0  0
    2.2204   -2.0941   -0.9594 H   0  0  0  0  0  0  0  0  0  0  0  0
    3.8408   -2.8038   -0.4321 H   0  0  0  0  0  0  0  0  0  0  0  0
    3.7093   -1.4295   -1.6727 H   0  0  0  0  0  0  0  0  0  0  0  0
    2.7594   -1.2075    1.2454 H   0  0  0  0  0  0  0  0  0  0  0  0
    3.4425    0.6836   -1.0812 H   0  0  0  0  0  0  0  0  0  0  0  0
    1.3496   -0.2408   -1.5830 H   0  0  0  0  0  0  0  0  0  0  0  0
    1.1326    1.4379   -1.0163 H   0  0  0  0  0  0  0  0  0  0  0  0
    0.6170   -1.0525    0.6220 H   0  0  0  0  0  0  0  0  0  0  0  0
    0.4454    0.7060    1.2071 H   0  0  0  0  0  0  0  0  0  0  0  0
   -0.9098   -0.7327   -1.1319 H   0  0  0  0  0  0  0  0  0  0  0  0
   -1.3430    1.3694   -1.9359 H   0  0  0  0  0  0  0  0  0  0  0  0
   -0.7227    2.1505   -0.3906 H   0  0  0  0  0  0  0  0  0  0  0  0
   -3.3464    2.4359   -0.7511 H   0  0  0  0  0  0  0  0  0  0  0  0
   -1.2565    0.6827    2.4255 H   0  0  0  0  0  0  0  0  0  0  0  0
   -0.7165   -0.9996    2.2070 H   0  0  0  0  0  0  0  0  0  0  0  0
   -2.4326   -0.6312    2.7709 H   0  0  0  0  0  0  0  0  0  0  0  0
   -1.8706   -2.4332    0.1126 H   0  0  0  0  0  0  0  0  0  0  0  0
   -3.4145   -1.5963   -0.4176 H   0  0  0  0  0  0  0  0  0  0  0  0
   -3.2119   -2.0412    1.3248 H   0  0  0  0  0  0  0  0  0  0  0  0
   -4.3880    0.6950    2.2116 H   0  0  0  0  0  0  0  0  0  0  0  0
   -5.1966    1.2648    0.6977 H   0  0  0  0  0  0  0  0  0  0  0  0
   -4.9512   -0.4742    0.9881 H   0  0  0  0  0  0  0  0  0  0  0  0
    3.1585    1.1946    1.8323 H   0  0  0  0  0  0  0  0  0  0  0  0
    2.2236    2.3049    0.7920 H   0  0  0  0  0  0  0  0  0  0  0  0
    3.9778    2.1526    0.5456 H   0  0  0  0  0  0  0  0  0  0  0  0
    5.0635   -0.0476    0.0116 H   0  0  0  0  0  0  0  0  0  0  0  0
  1  2  1  0
  2  3  1  0
  3  4  1  0
  4  5  1  0
  5  6  1  0
  6  7  1  0
  7  8  1  0
  8  9  2  0
  9 10  1  0
 10 11  1  0
 10 12  1  0
  9 13  1  0
  3 14  1  0
  2 15  1  0
 10  6  1  0
  1 16  1  0
  1 17  1  0
  1 18  1  0
  2 19  1  0
  3 20  1  0
  4 21  1  0
  4 22  1  0
  5 23  1  0
  5 24  1  0
  6 25  1  0
  7 26  1  0
  7 27  1  0
  8 28  1  0
 11 29  1  0
 11 30  1  0
 11 31  1  0
 12 32  1  0
 12 33  1  0
 12 34  1  0
 13 35  1  0
 13 36  1  0
 13 37  1  0
 14 38  1  0
 14 39  1  0
 14 40  1  0
 15 41  1  0
M  END
>  <Ligand ID>  (1) 
LIG0004994

>  <Ligand>  (1) 
Sandalore

>  <SMILES>  (1) 
CC(C(CCC1CC=C(C1(C)C)C)C)O

>  <CID>  (1) 
103212.0

>  <ChEMBL ID>  (1) 
nan

>  <InChiKey>  (1) 
NGYMOTOXXHCHOC-UHFFFAOYSA-N

>  <InChi>  (1) 
InChI=1S/C14H26O/c1-10(12(3)15)6-8-13-9-7-11(2)14(13,4)5/h7,10,12-13,15H,6,8-9H2,1-5H3

>  <IUPAC Name>  (1) 
3-methyl-5-(2,2,3-trimethylcyclopent-3-en-1-yl)pentan-2-ol

$$$$
