
     RDKit          3D

 65 67  0  0  0  0  0  0  0  0999 V2000
   -5.6266   -0.3695    1.7280 C   0  0  0  0  0  0  0  0  0  0  0  0
   -5.1389   -0.2535    0.3887 N   0  0  0  0  0  0  0  0  0  0  0  0
   -5.3121   -1.4084   -0.4219 C   0  0  0  0  0  0  0  0  0  0  0  0
   -6.6846   -1.8608   -0.6345 C   0  0  0  0  0  0  0  0  0  0  0  0
   -7.3532   -2.7650    0.1742 C   0  0  0  0  0  0  0  0  0  0  0  0
   -8.6559   -3.1274   -0.1166 C   0  0  0  0  0  0  0  0  0  0  0  0
   -9.2934   -2.5892   -1.2133 C   0  0  0  0  0  0  0  0  0  0  0  0
   -8.6556   -1.6837   -2.0423 C   0  0  0  0  0  0  0  0  0  0  0  0
   -7.3720   -1.3409   -1.7365 C   0  0  0  0  0  0  0  0  0  0  0  0
   -5.4344    0.9920   -0.2462 C   0  0  0  0  0  0  0  0  0  0  0  0
   -4.6413    2.0819    0.4433 C   0  0  0  0  0  0  0  0  0  0  0  0
   -3.2286    1.7507    0.3044 N   0  0  0  0  0  0  0  0  0  0  0  0
   -2.3063    2.6618    0.8914 C   0  0  0  0  0  0  0  0  0  0  0  0
   -2.8306    3.6688    1.4748 O   0  0  0  0  0  0  0  0  0  0  0  0
   -0.8632    2.4659    0.8347 C   0  0  0  0  0  0  0  0  0  0  0  0
   -0.2640    1.3932    0.2110 C   0  0  0  0  0  0  0  0  0  0  0  0
    1.1285    1.2839    0.2033 C   0  0  0  0  0  0  0  0  0  0  0  0
    1.8783    2.2569    0.8234 C   0  0  0  0  0  0  0  0  0  0  0  0
    1.3082    3.3459    1.4582 C   0  0  0  0  0  0  0  0  0  0  0  0
   -0.0677    3.4217    1.4463 C   0  0  0  0  0  0  0  0  0  0  0  0
    3.3828    2.2034    0.8518 C   0  0  0  0  0  0  0  0  0  0  0  0
    3.8895    2.9065   -0.3263 N   0  0  0  0  0  0  0  0  0  0  0  0
    5.6032    2.8419   -0.2881 S   0  0  0  0  0  0  0  0  0  0  0  0
    6.1122    3.6292   -1.4840 O   0  0  0  0  0  0  0  0  0  0  0  0
    6.1376    3.5272    0.9372 O   0  0  0  0  0  0  0  0  0  0  0  0
    6.0948    1.1690   -0.3565 C   0  0  0  0  0  0  0  0  0  0  0  0
    6.3110    0.5231   -1.5787 C   0  0  0  0  0  0  0  0  0  0  0  0
    6.7034   -0.8101   -1.5732 C   0  0  0  0  0  0  0  0  0  0  0  0
    6.8844   -1.5097   -0.3954 C   0  0  0  0  0  0  0  0  0  0  0  0
    6.6673   -0.8595    0.8091 C   0  0  0  0  0  0  0  0  0  0  0  0
    6.2717    0.4827    0.8264 C   0  0  0  0  0  0  0  0  0  0  0  0
    7.2859   -2.8753   -0.3620 N   0  0  0  0  0  0  0  0  0  0  0  0
    8.6989   -3.1579   -0.3231 C   0  0  0  0  0  0  0  0  0  0  0  0
    9.5567   -2.2369   -0.3189 O   0  0  0  0  0  0  0  0  0  0  0  0
    9.2103   -4.5564   -0.2859 C   0  0  0  0  0  0  0  0  0  0  0  0
   -6.6051    0.1125    1.9093 H   0  0  0  0  0  0  0  0  0  0  0  0
   -4.9098    0.1929    2.3833 H   0  0  0  0  0  0  0  0  0  0  0  0
   -5.6085   -1.4034    2.0888 H   0  0  0  0  0  0  0  0  0  0  0  0
   -4.8154   -1.2517   -1.3900 H   0  0  0  0  0  0  0  0  0  0  0  0
   -4.7606   -2.2469    0.0894 H   0  0  0  0  0  0  0  0  0  0  0  0
   -6.8338   -3.1763    1.0316 H   0  0  0  0  0  0  0  0  0  0  0  0
   -9.1909   -3.8261    0.4970 H   0  0  0  0  0  0  0  0  0  0  0  0
  -10.3284   -2.8485   -1.4818 H   0  0  0  0  0  0  0  0  0  0  0  0
   -9.1281   -1.2444   -2.9089 H   0  0  0  0  0  0  0  0  0  0  0  0
   -6.8671   -0.6239   -2.3936 H   0  0  0  0  0  0  0  0  0  0  0  0
   -6.4904    1.3003   -0.1973 H   0  0  0  0  0  0  0  0  0  0  0  0
   -5.1012    0.9500   -1.2886 H   0  0  0  0  0  0  0  0  0  0  0  0
   -4.8649    3.0957    0.0537 H   0  0  0  0  0  0  0  0  0  0  0  0
   -4.8695    2.0598    1.5364 H   0  0  0  0  0  0  0  0  0  0  0  0
   -2.8897    0.9002   -0.1923 H   0  0  0  0  0  0  0  0  0  0  0  0
   -0.8671    0.6534   -0.2620 H   0  0  0  0  0  0  0  0  0  0  0  0
    1.6236    0.4509   -0.2795 H   0  0  0  0  0  0  0  0  0  0  0  0
    1.8939    4.1171    1.9496 H   0  0  0  0  0  0  0  0  0  0  0  0
   -0.5191    4.2814    1.9475 H   0  0  0  0  0  0  0  0  0  0  0  0
    3.7747    2.6858    1.7618 H   0  0  0  0  0  0  0  0  0  0  0  0
    3.6968    1.1378    0.8678 H   0  0  0  0  0  0  0  0  0  0  0  0
    3.5504    2.3535   -1.1452 H   0  0  0  0  0  0  0  0  0  0  0  0
    6.1655    1.0827   -2.4884 H   0  0  0  0  0  0  0  0  0  0  0  0
    6.8667   -1.2974   -2.5160 H   0  0  0  0  0  0  0  0  0  0  0  0
    6.7975   -1.3675    1.7416 H   0  0  0  0  0  0  0  0  0  0  0  0
    6.0997    0.9952    1.7842 H   0  0  0  0  0  0  0  0  0  0  0  0
    6.6172   -3.6765   -0.3642 H   0  0  0  0  0  0  0  0  0  0  0  0
   10.0181   -4.6416   -1.0276 H   0  0  0  0  0  0  0  0  0  0  0  0
    9.7111   -4.6497    0.7172 H   0  0  0  0  0  0  0  0  0  0  0  0
    8.4379   -5.3167   -0.4111 H   0  0  0  0  0  0  0  0  0  0  0  0
  1  2  1  0
  2  3  1  0
  3  4  1  0
  4  5  2  0
  5  6  1  0
  6  7  2  0
  7  8  1  0
  8  9  2  0
  2 10  1  0
 10 11  1  0
 11 12  1  0
 12 13  1  0
 13 14  2  0
 13 15  1  0
 15 16  2  0
 16 17  1  0
 17 18  2  0
 18 19  1  0
 19 20  2  0
 18 21  1  0
 21 22  1  0
 22 23  1  0
 23 24  2  0
 23 25  2  0
 23 26  1  0
 26 27  2  0
 27 28  1  0
 28 29  2  0
 29 30  1  0
 30 31  2  0
 29 32  1  0
 32 33  1  0
 33 34  2  0
 33 35  1  0
  9  4  1  0
 20 15  1  0
 31 26  1  0
  1 36  1  0
  1 37  1  0
  1 38  1  0
  3 39  1  0
  3 40  1  0
  5 41  1  0
  6 42  1  0
  7 43  1  0
  8 44  1  0
  9 45  1  0
 10 46  1  0
 10 47  1  0
 11 48  1  0
 11 49  1  0
 12 50  1  0
 16 51  1  0
 17 52  1  0
 19 53  1  0
 20 54  1  0
 21 55  1  0
 21 56  1  0
 22 57  1  0
 27 58  1  0
 28 59  1  0
 30 60  1  0
 31 61  1  0
 32 62  1  0
 35 63  1  0
 35 64  1  0
 35 65  1  0
M  END
>  <Ligand ID>  (1) 
LIG0003330

>  <Ligand>  (1) 
MLS002703297

>  <SMILES>  (1) 
CN(Cc1ccccc1)CCNC(=O)c1ccc(cc1)CNS(=O)(=O)c1ccc(cc1)NC(=O)C

>  <CID>  (1) 
20854254.0

>  <ChEMBL ID>  (1) 
nan

>  <InChiKey>  (1) 
PXCSFYDKFROWTD-UHFFFAOYSA-N

>  <InChi>  (1) 
InChI=1S/C26H30N4O4S/c1-20(31)29-24-12-14-25(15-13-24)35(33,34)28-18-21-8-10-23(11-9-21)26(32)27-16-17-30(2)19-22-6-4-3-5-7-22/h3-15,28H,16-19H2,1-2H3,(H,27,32)(H,29,31)

>  <IUPAC Name>  (1) 
4-[[(4-acetamidophenyl)sulfonylamino]methyl]-N-[2-[benzyl(methyl)amino]ethyl]benzamide

$$$$
