
     RDKit          3D

 37 38  0  0  0  0  0  0  0  0999 V2000
   -3.3658   -3.1242    0.1410 N   0  0  0  0  0  0  0  0  0  0  0  0
   -3.5389   -2.1878    0.7811 C   0  0  0  0  0  0  0  0  0  0  0  0
   -3.7844   -0.9901    1.6146 C   0  0  0  0  0  0  0  0  0  0  0  0
   -4.3213    0.1380    0.8322 C   0  0  0  0  0  0  0  0  0  0  0  0
   -5.6741    0.4759    0.9160 C   0  0  0  0  0  0  0  0  0  0  0  0
   -6.1444    1.5348    0.1740 C   0  0  0  0  0  0  0  0  0  0  0  0
   -5.3259    2.2861   -0.6589 C   0  0  0  0  0  0  0  0  0  0  0  0
   -3.9804    1.9492   -0.7414 C   0  0  0  0  0  0  0  0  0  0  0  0
   -3.4900    0.8797    0.0040 C   0  0  0  0  0  0  0  0  0  0  0  0
   -2.0940    0.4972   -0.0639 C   0  0  0  0  0  0  0  0  0  0  0  0
   -0.9279    0.1732   -0.1169 C   0  0  0  0  0  0  0  0  0  0  0  0
    0.4567   -0.2127   -0.1545 C   0  0  0  0  0  0  0  0  0  0  0  0
    1.1223   -0.4859   -1.3334 C   0  0  0  0  0  0  0  0  0  0  0  0
    2.4654   -0.8610   -1.3311 C   0  0  0  0  0  0  0  0  0  0  0  0
    3.1797   -0.9731   -0.1618 C   0  0  0  0  0  0  0  0  0  0  0  0
    2.5215   -0.7010    1.0216 C   0  0  0  0  0  0  0  0  0  0  0  0
    1.1791   -0.3266    1.0183 C   0  0  0  0  0  0  0  0  0  0  0  0
    3.1190   -0.7788    2.2354 F   0  0  0  0  0  0  0  0  0  0  0  0
    4.6021   -1.3647   -0.0893 C   0  0  0  0  0  0  0  0  0  0  0  0
    5.5074   -0.1992    0.1642 C   0  0  0  0  0  0  0  0  0  0  0  0
    5.4049    0.8176   -0.9038 C   0  0  0  0  0  0  0  0  0  0  0  0
    4.4353    1.6079   -1.0350 O   0  0  0  0  0  0  0  0  0  0  0  0
    6.4766    0.8808   -1.8167 O   0  0  0  0  0  0  0  0  0  0  0  0
   -2.8286   -0.7139    2.0906 H   0  0  0  0  0  0  0  0  0  0  0  0
   -4.5418   -1.2813    2.3675 H   0  0  0  0  0  0  0  0  0  0  0  0
   -6.3273   -0.1011    1.5613 H   0  0  0  0  0  0  0  0  0  0  0  0
   -7.2123    1.7605    0.2724 H   0  0  0  0  0  0  0  0  0  0  0  0
   -5.7454    3.1081   -1.2208 H   0  0  0  0  0  0  0  0  0  0  0  0
   -3.3067    2.5246   -1.3921 H   0  0  0  0  0  0  0  0  0  0  0  0
    0.5755   -0.4007   -2.2627 H   0  0  0  0  0  0  0  0  0  0  0  0
    2.9792   -1.0743   -2.2533 H   0  0  0  0  0  0  0  0  0  0  0  0
    0.6440   -0.1083    1.9527 H   0  0  0  0  0  0  0  0  0  0  0  0
    4.9347   -1.8266   -1.0358 H   0  0  0  0  0  0  0  0  0  0  0  0
    4.7838   -2.1392    0.6925 H   0  0  0  0  0  0  0  0  0  0  0  0
    5.2071    0.2204    1.1526 H   0  0  0  0  0  0  0  0  0  0  0  0
    6.5533   -0.5463    0.2995 H   0  0  0  0  0  0  0  0  0  0  0  0
    6.4620    1.5430   -2.5803 H   0  0  0  0  0  0  0  0  0  0  0  0
  1  2  3  0
  2  3  1  0
  3  4  1  0
  4  5  2  0
  5  6  1  0
  6  7  2  0
  7  8  1  0
  8  9  2  0
  9 10  1  0
 10 11  3  0
 11 12  1  0
 12 13  2  0
 13 14  1  0
 14 15  2  0
 15 16  1  0
 16 17  2  0
 16 18  1  0
 15 19  1  0
 19 20  1  0
 20 21  1  0
 21 22  2  0
 21 23  1  0
  9  4  1  0
 17 12  1  0
  3 24  1  0
  3 25  1  0
  5 26  1  0
  6 27  1  0
  7 28  1  0
  8 29  1  0
 13 30  1  0
 14 31  1  0
 17 32  1  0
 19 33  1  0
 19 34  1  0
 20 35  1  0
 20 36  1  0
 23 37  1  0
M  END
>  <Ligand ID>  (1) 
LIG0001241

>  <Ligand>  (1) 
TUG-770

>  <SMILES>  (1) 
N#CCc1ccccc1C#Cc1ccc(c(c1)F)CCC(=O)O

>  <CID>  (1) 
66553168.0

>  <ChEMBL ID>  (1) 
nan

>  <InChiKey>  (1) 
KIZUBVPJNPVIIN-UHFFFAOYSA-N

>  <InChi>  (1) 
InChI=1S/C19H14FNO2/c20-18-13-14(6-8-17(18)9-10-19(22)23)5-7-15-3-1-2-4-16(15)11-12-21/h1-4,6,8,13H,9-11H2,(H,22,23)

>  <IUPAC Name>  (1) 
3-[4-[2-[2-(cyanomethyl)phenyl]ethynyl]-2-fluorophenyl]propanoic acid

$$$$
