
     RDKit          3D

 39 40  0  0  0  0  0  0  0  0999 V2000
    7.3076    1.0899    0.2644 O   0  0  0  0  0  0  0  0  0  0  0  0
    6.9192   -0.1907   -0.1338 C   0  0  0  0  0  0  0  0  0  0  0  0
    7.7994   -1.0495   -0.4796 O   0  0  0  0  0  0  0  0  0  0  0  0
    5.4807   -0.6039   -0.1715 C   0  0  0  0  0  0  0  0  0  0  0  0
    4.6622    0.5682    0.2739 C   0  0  0  0  0  0  0  0  0  0  0  0
    3.2133    0.3218    0.2923 C   0  0  0  0  0  0  0  0  0  0  0  0
    2.3944    0.5629   -0.8053 C   0  0  0  0  0  0  0  0  0  0  0  0
    1.0299    0.3170   -0.7475 C   0  0  0  0  0  0  0  0  0  0  0  0
    0.4421   -0.1748    0.4016 C   0  0  0  0  0  0  0  0  0  0  0  0
    1.2451   -0.4189    1.5005 C   0  0  0  0  0  0  0  0  0  0  0  0
    2.5860   -0.1687    1.4187 C   0  0  0  0  0  0  0  0  0  0  0  0
   -0.9610   -0.4177    0.4320 N   0  0  0  0  0  0  0  0  0  0  0  0
   -1.7201   -0.1351   -0.7580 C   0  0  0  0  0  0  0  0  0  0  0  0
   -3.1636   -0.4174   -0.6325 C   0  0  0  0  0  0  0  0  0  0  0  0
   -3.7339   -1.6422   -0.9374 C   0  0  0  0  0  0  0  0  0  0  0  0
   -5.0953   -1.7756   -0.7767 C   0  0  0  0  0  0  0  0  0  0  0  0
   -5.9086   -0.7522   -0.3292 C   0  0  0  0  0  0  0  0  0  0  0  0
   -5.3317    0.4624   -0.0285 C   0  0  0  0  0  0  0  0  0  0  0  0
   -3.9726    0.6154   -0.1827 C   0  0  0  0  0  0  0  0  0  0  0  0
   -6.1946    1.5551    0.4484 C   0  0  0  0  0  0  0  0  0  0  0  0
   -7.1492    1.7676   -0.5544 F   0  0  0  0  0  0  0  0  0  0  0  0
   -5.5254    2.7404    0.5885 F   0  0  0  0  0  0  0  0  0  0  0  0
   -6.8500    1.1571    1.5805 F   0  0  0  0  0  0  0  0  0  0  0  0
    8.2772    1.3604    0.2918 H   0  0  0  0  0  0  0  0  0  0  0  0
    5.3586   -1.4614    0.4897 H   0  0  0  0  0  0  0  0  0  0  0  0
    5.2521   -0.8218   -1.2345 H   0  0  0  0  0  0  0  0  0  0  0  0
    4.8826    1.4500   -0.3387 H   0  0  0  0  0  0  0  0  0  0  0  0
    5.0021    0.8363    1.3165 H   0  0  0  0  0  0  0  0  0  0  0  0
    2.8773    0.9495   -1.6986 H   0  0  0  0  0  0  0  0  0  0  0  0
    0.4102    0.5171   -1.6296 H   0  0  0  0  0  0  0  0  0  0  0  0
    0.7694   -0.8052    2.3963 H   0  0  0  0  0  0  0  0  0  0  0  0
    3.1917   -0.3697    2.2966 H   0  0  0  0  0  0  0  0  0  0  0  0
   -1.3788   -0.7901    1.3153 H   0  0  0  0  0  0  0  0  0  0  0  0
   -1.6195    0.9138   -1.1192 H   0  0  0  0  0  0  0  0  0  0  0  0
   -1.2666   -0.7738   -1.5635 H   0  0  0  0  0  0  0  0  0  0  0  0
   -3.0941   -2.4410   -1.2874 H   0  0  0  0  0  0  0  0  0  0  0  0
   -5.5756   -2.7099   -1.0026 H   0  0  0  0  0  0  0  0  0  0  0  0
   -6.9875   -0.8658   -0.2043 H   0  0  0  0  0  0  0  0  0  0  0  0
   -3.5729    1.6005    0.0715 H   0  0  0  0  0  0  0  0  0  0  0  0
  1  2  1  0
  2  3  2  0
  2  4  1  0
  4  5  1  0
  5  6  1  0
  6  7  2  0
  7  8  1  0
  8  9  2  0
  9 10  1  0
 10 11  2  0
  9 12  1  0
 12 13  1  0
 13 14  1  0
 14 15  2  0
 15 16  1  0
 16 17  2  0
 17 18  1  0
 18 19  2  0
 18 20  1  0
 20 21  1  0
 20 22  1  0
 20 23  1  0
 11  6  1  0
 19 14  1  0
  1 24  1  0
  4 25  1  0
  4 26  1  0
  5 27  1  0
  5 28  1  0
  7 29  1  0
  8 30  1  0
 10 31  1  0
 11 32  1  0
 12 33  1  0
 13 34  1  0
 13 35  1  0
 15 36  1  0
 16 37  1  0
 17 38  1  0
 19 39  1  0
M  END
>  <Ligand ID>  (1) 
LIG0005803

>  <Ligand>  (1) 
CHEMBL1773256

>  <SMILES>  (1) 
OC(=O)CCc1ccc(cc1)NCc1cccc(c1)C(F)(F)F

>  <CID>  (1) 
54586984.0

>  <ChEMBL ID>  (1) 
nan

>  <InChiKey>  (1) 
XCCATJLYGSTPJJ-UHFFFAOYSA-N

>  <InChi>  (1) 
InChI=1S/C17H16F3NO2/c18-17(19,20)14-3-1-2-13(10-14)11-21-15-7-4-12(5-8-15)6-9-16(22)23/h1-5,7-8,10,21H,6,9,11H2,(H,22,23)

>  <IUPAC Name>  (1) 
3-[4-[[3-(trifluoromethyl)phenyl]methylamino]phenyl]propanoic acid

$$$$
