
     RDKit          3D

 29 31  0  0  0  0  0  0  0  0999 V2000
    0.6123    2.3891    1.2279 O   0  0  0  0  0  0  0  0  0  0  0  0
    0.3044    1.3270    0.6460 C   0  0  0  0  0  0  0  0  0  0  0  0
   -1.0183    0.9362    0.3098 N   0  0  0  0  0  0  0  0  0  0  0  0
   -2.2805    1.5714    0.5598 C   0  0  0  0  0  0  0  0  0  0  0  0
   -3.3799    0.5814    0.2606 C   0  0  0  0  0  0  0  0  0  0  0  0
   -3.0532   -0.6705    0.9237 N   0  0  0  0  0  0  0  0  0  0  0  0
   -1.9361   -1.3313    0.2672 C   0  0  0  0  0  0  0  0  0  0  0  0
   -1.0273   -0.3302   -0.3939 C   0  0  2  0  0  0  0  0  0  0  0  0
    0.3977   -0.7057   -0.4015 C   0  0  0  0  0  0  0  0  0  0  0  0
    1.1847    0.2620    0.1825 C   0  0  0  0  0  0  0  0  0  0  0  0
    2.5553    0.1687    0.2917 C   0  0  0  0  0  0  0  0  0  0  0  0
    3.1378   -0.9774   -0.2258 C   0  0  0  0  0  0  0  0  0  0  0  0
    2.3671   -1.9686   -0.8192 C   0  0  0  0  0  0  0  0  0  0  0  0
    0.9956   -1.8417   -0.9117 C   0  0  0  0  0  0  0  0  0  0  0  0
    3.3450    1.2516    0.9340 C   0  0  0  0  0  0  0  0  0  0  0  0
    3.1953    2.4631    0.2820 F   0  0  0  0  0  0  0  0  0  0  0  0
    3.0430    1.3941    2.2711 F   0  0  0  0  0  0  0  0  0  0  0  0
    4.6876    0.9083    0.7773 F   0  0  0  0  0  0  0  0  0  0  0  0
   -2.4051    2.5244    0.0242 H   0  0  0  0  0  0  0  0  0  0  0  0
   -2.4143    1.8353    1.6473 H   0  0  0  0  0  0  0  0  0  0  0  0
   -4.3031    0.9623    0.7316 H   0  0  0  0  0  0  0  0  0  0  0  0
   -3.4932    0.4031   -0.8261 H   0  0  0  0  0  0  0  0  0  0  0  0
   -2.8798   -0.5146    1.9291 H   0  0  0  0  0  0  0  0  0  0  0  0
   -2.3570   -2.0001   -0.5064 H   0  0  0  0  0  0  0  0  0  0  0  0
   -1.4131   -1.9524    1.0188 H   0  0  0  0  0  0  0  0  0  0  0  0
   -1.3288   -0.1299   -1.4430 H   0  0  0  0  0  0  0  0  0  0  0  0
    4.2278   -1.0885   -0.1578 H   0  0  0  0  0  0  0  0  0  0  0  0
    2.8294   -2.8437   -1.2120 H   0  0  0  0  0  0  0  0  0  0  0  0
    0.4068   -2.6231   -1.3773 H   0  0  0  0  0  0  0  0  0  0  0  0
  1  2  2  0
  2  3  1  0
  3  4  1  0
  4  5  1  0
  5  6  1  0
  6  7  1  0
  7  8  1  0
  8  9  1  0
  9 10  2  0
 10 11  1  0
 11 12  2  0
 12 13  1  0
 13 14  2  0
 11 15  1  0
 15 16  1  0
 15 17  1  0
 15 18  1  0
 10  2  1  0
  8  3  1  0
 14  9  1  0
  4 19  1  0
  4 20  1  0
  5 21  1  0
  5 22  1  0
  6 23  1  0
  7 24  1  0
  7 25  1  0
  8 26  1  6
 12 27  1  0
 13 28  1  0
 14 29  1  0
M  END
>  <Ligand ID>  (1) 
LIG0003220

>  <Ligand>  (1) 
CHEMBL223584

>  <SMILES>  (1) 
O=C1N2CCNC[C@@H]2c2c1c(ccc2)C(F)(F)F

>  <CID>  (1) 
11150514.0

>  <ChEMBL ID>  (1) 
nan

>  <InChiKey>  (1) 
MYJCTHLPBPJBRB-SECBINFHSA-N

>  <InChi>  (1) 
InChI=1S/C12H11F3N2O/c13-12(14,15)8-3-1-2-7-9-6-16-4-5-17(9)11(18)10(7)8/h1-3,9,16H,4-6H2/t9-/m1/s1

>  <IUPAC Name>  (1) 
(10bS)-7-(trifluoromethyl)-2,3,4,10b-tetrahydro-1H-pyrazino[1,2-b]isoindol-6-one

$$$$
