
     RDKit          3D

 26 26  0  0  0  0  0  0  0  0999 V2000
    3.8370    0.2464    0.5358 N   0  0  0  0  0  0  0  0  0  0  0  0
    2.8281   -0.8103    0.4691 C   0  0  0  0  0  0  0  0  0  0  0  0
    1.4793   -0.0937    0.5061 C   0  0  1  0  0  0  0  0  0  0  0  0
    1.2999    0.8651   -0.6492 C   0  0  0  0  0  0  0  0  0  0  0  0
    0.5419   -0.4497   -0.5721 C   0  0  2  0  0  0  0  0  0  0  0  0
   -0.9310   -0.2460   -0.4069 C   0  0  0  0  0  0  0  0  0  0  0  0
   -1.4447    0.7403    0.4182 C   0  0  0  0  0  0  0  0  0  0  0  0
   -2.8014    0.9448    0.5844 C   0  0  0  0  0  0  0  0  0  0  0  0
   -3.6863    0.1365   -0.0969 C   0  0  0  0  0  0  0  0  0  0  0  0
   -3.2203   -0.8616   -0.9321 C   0  0  0  0  0  0  0  0  0  0  0  0
   -1.8588   -1.0372   -1.0741 C   0  0  0  0  0  0  0  0  0  0  0  0
   -5.0366    0.2778    0.0165 F   0  0  0  0  0  0  0  0  0  0  0  0
    0.6845    0.0000    0.0000 Cl  0  0  0  0  0  0  0  0  0  0  0  0
    3.6180    0.9550    1.2692 H   0  0  0  0  0  0  0  0  0  0  0  0
    3.9448    0.7435   -0.3721 H   0  0  0  0  0  0  0  0  0  0  0  0
    2.9905   -1.3397   -0.4867 H   0  0  0  0  0  0  0  0  0  0  0  0
    2.9927   -1.4586    1.3488 H   0  0  0  0  0  0  0  0  0  0  0  0
    1.1294    0.1615    1.5063 H   0  0  0  0  0  0  0  0  0  0  0  0
    0.7909    1.7985   -0.3682 H   0  0  0  0  0  0  0  0  0  0  0  0
    2.0520    0.9017   -1.4539 H   0  0  0  0  0  0  0  0  0  0  0  0
    0.7951   -1.2637   -1.2540 H   0  0  0  0  0  0  0  0  0  0  0  0
   -0.7586    1.3931    0.9684 H   0  0  0  0  0  0  0  0  0  0  0  0
   -3.1896    1.7329    1.2439 H   0  0  0  0  0  0  0  0  0  0  0  0
   -3.8823   -1.5206   -1.4873 H   0  0  0  0  0  0  0  0  0  0  0  0
   -1.4901   -1.8161   -1.7258 H   0  0  0  0  0  0  0  0  0  0  0  0
   -0.6845    0.0000    0.0000 H   0  0  0  0  0  0  0  0  0  0  0  0
  1  2  1  0
  2  3  1  0
  3  4  1  0
  4  5  1  0
  5  6  1  0
  6  7  2  0
  7  8  1  0
  8  9  2  0
  9 10  1  0
 10 11  2  0
  9 12  1  0
  5  3  1  0
 11  6  1  0
  1 14  1  0
  1 15  1  0
  2 16  1  0
  2 17  1  0
  3 18  1  1
  4 19  1  0
  4 20  1  0
  5 21  1  6
  7 22  1  0
  8 23  1  0
 10 24  1  0
 11 25  1  0
 13 26  1  0
M  END
>  <Ligand ID>  (1) 
LIG0002385

>  <Ligand>  (1) 
CHEMBL493130

>  <SMILES>  (1) 
NC[C@H]1C[C@@H]1c1ccc(cc1)F.Cl

>  <CID>  (1) 
44572809.0

>  <ChEMBL ID>  (1) 
nan

>  <InChiKey>  (1) 
LPQAVKPTKBXDEY-GHXDPTCOSA-N

>  <InChi>  (1) 
InChI=1S/C10H12FN.ClH/c11-9-3-1-7(2-4-9)10-5-8(10)6-12;/h1-4,8,10H,5-6,12H2;1H/t8-,10-;/m1./s1

>  <IUPAC Name>  (1) 
[(1S,2S)-2-(4-fluorophenyl)cyclopropyl]methanamine;hydrochloride

$$$$
