
     RDKit          3D

 69 72  0  0  0  0  0  0  0  0999 V2000
    5.1853   -2.4669    1.8050 C   0  0  0  0  0  0  0  0  0  0  0  0
    3.9306   -1.8464    1.2302 C   0  0  2  0  0  0  0  0  0  0  0  0
    3.4498   -2.6561    0.0395 C   0  0  0  0  0  0  0  0  0  0  0  0
    2.2369   -2.0285   -0.4902 C   0  0  0  0  0  0  0  0  0  0  0  0
    1.0125   -2.4428    0.0242 C   0  0  0  0  0  0  0  0  0  0  0  0
   -0.1768   -1.8834   -0.4394 C   0  0  0  0  0  0  0  0  0  0  0  0
   -0.1595   -0.9070   -1.4187 C   0  0  0  0  0  0  0  0  0  0  0  0
    1.0463   -0.4851   -1.9393 C   0  0  0  0  0  0  0  0  0  0  0  0
    2.2207   -1.0530   -1.4659 C   0  0  0  0  0  0  0  0  0  0  0  0
   -1.4456   -0.3716   -1.8506 C   0  0  0  0  0  0  0  0  0  0  0  0
   -1.5708    0.0535   -3.1561 C   0  0  0  0  0  0  0  0  0  0  0  0
   -2.7927    0.5535   -3.5374 C   0  0  0  0  0  0  0  0  0  0  0  0
   -3.8642    0.6332   -2.6564 C   0  0  0  0  0  0  0  0  0  0  0  0
   -3.7447    0.2037   -1.3301 C   0  0  0  0  0  0  0  0  0  0  0  0
   -2.5203   -0.2917   -0.9672 C   0  0  0  0  0  0  0  0  0  0  0  0
   -4.8499    0.3210   -0.5402 O   0  0  0  0  0  0  0  0  0  0  0  0
   -4.9152   -0.0402    0.7848 C   0  0  0  0  0  0  0  0  0  0  0  0
   -5.8762   -1.1991    0.9428 C   0  0  0  0  0  0  0  0  0  0  0  0
   -7.2613   -0.7062    0.5928 C   0  0  0  0  0  0  0  0  0  0  0  0
   -7.6437    0.3299    1.6260 C   0  0  0  0  0  0  0  0  0  0  0  0
   -6.7150    1.5011    1.6634 C   0  0  0  0  0  0  0  0  0  0  0  0
   -5.2617    1.1038    1.7130 C   0  0  0  0  0  0  0  0  0  0  0  0
   -5.1067    1.1857   -3.1807 C   0  0  0  0  0  0  0  0  0  0  0  0
   -5.2173    1.5766   -4.3926 O   0  0  0  0  0  0  0  0  0  0  0  0
   -6.2279    1.3092   -2.3737 O   0  0  0  0  0  0  0  0  0  0  0  0
    4.1317   -0.4702    0.8516 N   0  0  0  0  0  0  0  0  0  0  0  0
    4.5240    0.2591    2.0438 C   0  0  0  0  0  0  0  0  0  0  0  0
    4.7364    1.7227    1.6373 C   0  0  1  0  0  0  0  0  0  0  0  0
    5.8180    1.7569    0.6059 C   0  0  0  0  0  0  0  0  0  0  0  0
    7.1015    2.2060    0.9084 C   0  0  0  0  0  0  0  0  0  0  0  0
    8.1058    2.2396   -0.0432 C   0  0  0  0  0  0  0  0  0  0  0  0
    7.7755    1.8011   -1.3288 C   0  0  0  0  0  0  0  0  0  0  0  0
    6.5487    1.3703   -1.6237 N   0  0  0  0  0  0  0  0  0  0  0  0
    5.5870    1.3443   -0.6892 C   0  0  0  0  0  0  0  0  0  0  0  0
    3.5425    2.2318    1.1190 O   0  0  0  0  0  0  0  0  0  0  0  0
    5.1061   -3.5652    1.7013 H   0  0  0  0  0  0  0  0  0  0  0  0
    5.2671   -2.1818    2.8899 H   0  0  0  0  0  0  0  0  0  0  0  0
    6.0481   -2.0543    1.2564 H   0  0  0  0  0  0  0  0  0  0  0  0
    3.1393   -1.8785    2.0105 H   0  0  0  0  0  0  0  0  0  0  0  0
    4.2291   -2.8130   -0.7096 H   0  0  0  0  0  0  0  0  0  0  0  0
    3.2110   -3.6653    0.4523 H   0  0  0  0  0  0  0  0  0  0  0  0
    0.9940   -3.2123    0.7963 H   0  0  0  0  0  0  0  0  0  0  0  0
   -1.0762   -2.2610    0.0117 H   0  0  0  0  0  0  0  0  0  0  0  0
    1.0615    0.2749   -2.7017 H   0  0  0  0  0  0  0  0  0  0  0  0
    3.1896   -0.7304   -1.8677 H   0  0  0  0  0  0  0  0  0  0  0  0
   -0.7308   -0.0149   -3.8266 H   0  0  0  0  0  0  0  0  0  0  0  0
   -2.8908    0.8919   -4.5789 H   0  0  0  0  0  0  0  0  0  0  0  0
   -2.3320   -0.6453    0.0267 H   0  0  0  0  0  0  0  0  0  0  0  0
   -3.9361   -0.4194    1.1309 H   0  0  0  0  0  0  0  0  0  0  0  0
   -5.9337   -1.5294    2.0149 H   0  0  0  0  0  0  0  0  0  0  0  0
   -5.5154   -2.0134    0.2949 H   0  0  0  0  0  0  0  0  0  0  0  0
   -7.9505   -1.5669    0.7336 H   0  0  0  0  0  0  0  0  0  0  0  0
   -7.2755   -0.3209   -0.4380 H   0  0  0  0  0  0  0  0  0  0  0  0
   -7.7610   -0.1937    2.5892 H   0  0  0  0  0  0  0  0  0  0  0  0
   -8.6549    0.7071    1.3142 H   0  0  0  0  0  0  0  0  0  0  0  0
   -6.9373    2.0580    2.6028 H   0  0  0  0  0  0  0  0  0  0  0  0
   -6.9405    2.1899    0.8278 H   0  0  0  0  0  0  0  0  0  0  0  0
   -4.9113    0.9278    2.7516 H   0  0  0  0  0  0  0  0  0  0  0  0
   -4.6738    1.9878    1.3641 H   0  0  0  0  0  0  0  0  0  0  0  0
   -7.0448    1.7682   -2.7526 H   0  0  0  0  0  0  0  0  0  0  0  0
    3.1706   -0.0966    0.5973 H   0  0  0  0  0  0  0  0  0  0  0  0
    5.4758   -0.1192    2.4671 H   0  0  0  0  0  0  0  0  0  0  0  0
    3.7111    0.2403    2.7889 H   0  0  0  0  0  0  0  0  0  0  0  0
    5.0682    2.3041    2.5111 H   0  0  0  0  0  0  0  0  0  0  0  0
    7.2810    2.5287    1.9228 H   0  0  0  0  0  0  0  0  0  0  0  0
    9.0974    2.5866    0.1903 H   0  0  0  0  0  0  0  0  0  0  0  0
    8.5700    1.8291   -2.0767 H   0  0  0  0  0  0  0  0  0  0  0  0
    4.6186    0.9878   -0.9827 H   0  0  0  0  0  0  0  0  0  0  0  0
    3.7227    2.9955    0.5237 H   0  0  0  0  0  0  0  0  0  0  0  0
  1  2  1  0
  2  3  1  0
  3  4  1  0
  4  5  2  0
  5  6  1  0
  6  7  2  0
  7  8  1  0
  8  9  2  0
  7 10  1  0
 10 11  2  0
 11 12  1  0
 12 13  2  0
 13 14  1  0
 14 15  2  0
 14 16  1  0
 16 17  1  0
 17 18  1  0
 18 19  1  0
 19 20  1  0
 20 21  1  0
 21 22  1  0
 13 23  1  0
 23 24  2  0
 23 25  1  0
  2 26  1  0
 26 27  1  0
 27 28  1  0
 28 29  1  0
 29 30  2  0
 30 31  1  0
 31 32  2  0
 32 33  1  0
 33 34  2  0
 28 35  1  0
  9  4  1  0
 15 10  1  0
 22 17  1  0
 34 29  1  0
  1 36  1  0
  1 37  1  0
  1 38  1  0
  2 39  1  1
  3 40  1  0
  3 41  1  0
  5 42  1  0
  6 43  1  0
  8 44  1  0
  9 45  1  0
 11 46  1  0
 12 47  1  0
 15 48  1  0
 17 49  1  0
 18 50  1  0
 18 51  1  0
 19 52  1  0
 19 53  1  0
 20 54  1  0
 20 55  1  0
 21 56  1  0
 21 57  1  0
 22 58  1  0
 22 59  1  0
 25 60  1  0
 26 61  1  0
 27 62  1  0
 27 63  1  0
 28 64  1  1
 30 65  1  0
 31 66  1  0
 32 67  1  0
 34 68  1  0
 35 69  1  0
M  END
>  <Ligand ID>  (1) 
LIG0005455

>  <Ligand>  (1) 
CHEMBL453056

>  <SMILES>  (1) 
C[C@H](Cc1ccc(cc1)c1ccc(c(c1)OC1CCCCC1)C(=O)O)NC[C@@H](c1cccnc1)O

>  <CID>  (1) 
44560794.0

>  <ChEMBL ID>  (1) 
nan

>  <InChiKey>  (1) 
KMEMWHYMNSWFJN-HRFSGMKKSA-N

>  <InChi>  (1) 
InChI=1S/C29H34N2O4/c1-20(31-19-27(32)24-6-5-15-30-18-24)16-21-9-11-22(12-10-21)23-13-14-26(29(33)34)28(17-23)35-25-7-3-2-4-8-25/h5-6,9-15,17-18,20,25,27,31-32H,2-4,7-8,16,19H2,1H3,(H,33,34)/t20-,27+/m1/s1

>  <IUPAC Name>  (1) 
2-cyclohexyloxy-4-[4-[(2R)-2-[[(2R)-2-hydroxy-2-pyridin-3-ylethyl]amino]propyl]phenyl]benzoic acid

$$$$
