
     RDKit          3D

 18 17  0  0  0  0  0  0  0  0999 V2000
   -1.7967    0.5577   -0.1145 C   0  0  0  0  0  0  0  0  0  0  0  0
   -1.2269   -0.8263   -0.1934 C   0  0  0  0  0  0  0  0  0  0  0  0
    0.0392   -1.0787    0.5249 C   0  0  0  0  0  0  0  0  0  0  0  0
    1.2333   -0.2973    0.1241 C   0  0  0  0  0  0  0  0  0  0  0  0
    1.5737   -0.4760   -1.2141 O   0  0  0  0  0  0  0  0  0  0  0  0
    1.1628    1.1512    0.5222 C   0  0  0  0  0  0  0  0  0  0  0  0
   -1.5735    1.1499   -1.0519 H   0  0  0  0  0  0  0  0  0  0  0  0
   -2.9368    0.5224   -0.1418 H   0  0  0  0  0  0  0  0  0  0  0  0
   -1.5216    1.1463    0.7585 H   0  0  0  0  0  0  0  0  0  0  0  0
   -1.1389   -1.1042   -1.2802 H   0  0  0  0  0  0  0  0  0  0  0  0
   -2.0260   -1.5081    0.2318 H   0  0  0  0  0  0  0  0  0  0  0  0
   -0.1559   -0.9256    1.6287 H   0  0  0  0  0  0  0  0  0  0  0  0
    0.3405   -2.1696    0.4865 H   0  0  0  0  0  0  0  0  0  0  0  0
    2.1553   -0.6839    0.6756 H   0  0  0  0  0  0  0  0  0  0  0  0
    2.4069    0.0379   -1.3647 H   0  0  0  0  0  0  0  0  0  0  0  0
    0.5713    1.7030   -0.2337 H   0  0  0  0  0  0  0  0  0  0  0  0
    0.7029    1.2080    1.5375 H   0  0  0  0  0  0  0  0  0  0  0  0
    2.1905    1.5933    0.6107 H   0  0  0  0  0  0  0  0  0  0  0  0
  1  2  1  0
  2  3  1  0
  3  4  1  0
  4  5  1  0
  4  6  1  0
  1  7  1  0
  1  8  1  0
  1  9  1  0
  2 10  1  0
  2 11  1  0
  3 12  1  0
  3 13  1  0
  4 14  1  0
  5 15  1  0
  6 16  1  0
  6 17  1  0
  6 18  1  0
M  END
>  <Ligand ID>  (1) 
LIG0000284

>  <Ligand>  (1) 
2-Pentanol

>  <SMILES>  (1) 
CCCC(O)C

>  <CID>  (1) 
22386.0

>  <ChEMBL ID>  (1) 
nan

>  <InChiKey>  (1) 
JYVLIDXNZAXMDK-UHFFFAOYSA-N

>  <InChi>  (1) 
InChI=1S/C5H12O/c1-3-4-5(2)6/h5-6H,3-4H2,1-2H3

>  <IUPAC Name>  (1) 
pentan-2-ol

$$$$
