
     RDKit          3D

 50 53  0  0  0  0  0  0  0  0999 V2000
    4.8679    1.3560   -0.2054 O   0  0  0  0  0  0  0  0  0  0  0  0
    4.1673    0.1613   -0.3135 C   0  0  2  0  0  0  0  0  0  0  0  0
    3.2412    0.2163   -1.5029 C   0  0  0  0  0  0  0  0  0  0  0  0
    2.1751   -0.8599   -1.3698 C   0  0  0  0  0  0  0  0  0  0  0  0
    1.2858   -0.6219   -0.1876 C   0  0  1  0  0  0  0  0  0  0  0  0
    2.0056    0.3394    0.7691 C   0  0  2  0  0  0  0  0  0  0  0  0
    3.4114   -0.1058    0.9831 C   0  0  0  0  0  0  0  0  0  0  0  0
    1.2560    0.5112    2.0607 C   0  0  0  0  0  0  0  0  0  0  0  0
   -0.2048    0.6385    1.9243 C   0  0  0  0  0  0  0  0  0  0  0  0
   -0.8636   -0.0232    0.7720 C   0  0  2  0  0  0  0  0  0  0  0  0
    0.0057    0.0782   -0.4918 C   0  0  2  0  0  0  0  0  0  0  0  0
   -0.6489   -0.4201   -1.7088 C   0  0  0  0  0  0  0  0  0  0  0  0
   -2.0841   -0.1031   -1.8899 C   0  0  0  0  0  0  0  0  0  0  0  0
   -2.9097    0.0267   -0.6725 C   0  0  1  0  0  0  0  0  0  0  0  0
   -2.0665    0.7241    0.3799 C   0  0  1  0  0  0  0  0  0  0  0  0
   -3.1268    0.9859    1.3826 C   0  0  0  0  0  0  0  0  0  0  0  0
   -4.1477    1.6265    0.4667 C   0  0  0  0  0  0  0  0  0  0  0  0
   -4.0056    1.0471   -0.7462 C   0  0  0  0  0  0  0  0  0  0  0  0
   -3.5291   -1.2446   -0.1926 C   0  0  0  0  0  0  0  0  0  0  0  0
    1.0943   -1.9123    0.5849 C   0  0  0  0  0  0  0  0  0  0  0  0
    4.5609    2.0362   -0.8650 H   0  0  0  0  0  0  0  0  0  0  0  0
    4.9030   -0.6426   -0.4803 H   0  0  0  0  0  0  0  0  0  0  0  0
    3.8398   -0.0466   -2.4067 H   0  0  0  0  0  0  0  0  0  0  0  0
    2.7937    1.2089   -1.6650 H   0  0  0  0  0  0  0  0  0  0  0  0
    1.6426   -0.9674   -2.3281 H   0  0  0  0  0  0  0  0  0  0  0  0
    2.7103   -1.8209   -1.2166 H   0  0  0  0  0  0  0  0  0  0  0  0
    2.0345    1.3187    0.2426 H   0  0  0  0  0  0  0  0  0  0  0  0
    3.8460    0.5337    1.7958 H   0  0  0  0  0  0  0  0  0  0  0  0
    3.4982   -1.1626    1.2664 H   0  0  0  0  0  0  0  0  0  0  0  0
    1.6553    1.4648    2.5131 H   0  0  0  0  0  0  0  0  0  0  0  0
    1.5582   -0.2665    2.7953 H   0  0  0  0  0  0  0  0  0  0  0  0
   -0.5097    1.7237    1.9396 H   0  0  0  0  0  0  0  0  0  0  0  0
   -0.6782    0.2276    2.8536 H   0  0  0  0  0  0  0  0  0  0  0  0
   -1.0335   -1.1186    0.9095 H   0  0  0  0  0  0  0  0  0  0  0  0
    0.1974    1.1846   -0.6061 H   0  0  0  0  0  0  0  0  0  0  0  0
   -0.1191    0.0325   -2.5848 H   0  0  0  0  0  0  0  0  0  0  0  0
   -0.4274   -1.5237   -1.8019 H   0  0  0  0  0  0  0  0  0  0  0  0
   -2.2462    0.8098   -2.5221 H   0  0  0  0  0  0  0  0  0  0  0  0
   -2.5301   -0.9454   -2.4979 H   0  0  0  0  0  0  0  0  0  0  0  0
   -1.7564    1.6965   -0.0668 H   0  0  0  0  0  0  0  0  0  0  0  0
   -2.7912    1.6627    2.1762 H   0  0  0  0  0  0  0  0  0  0  0  0
   -3.5862    0.0575    1.7505 H   0  0  0  0  0  0  0  0  0  0  0  0
   -4.8631    2.4069    0.7311 H   0  0  0  0  0  0  0  0  0  0  0  0
   -4.5686    1.2544   -1.6505 H   0  0  0  0  0  0  0  0  0  0  0  0
   -4.5054   -1.0584    0.3113 H   0  0  0  0  0  0  0  0  0  0  0  0
   -2.9040   -1.8882    0.4257 H   0  0  0  0  0  0  0  0  0  0  0  0
   -3.8106   -1.8368   -1.1087 H   0  0  0  0  0  0  0  0  0  0  0  0
    2.0502   -2.4427    0.6003 H   0  0  0  0  0  0  0  0  0  0  0  0
    0.3195   -2.5601    0.1215 H   0  0  0  0  0  0  0  0  0  0  0  0
    0.7968   -1.7582    1.6292 H   0  0  0  0  0  0  0  0  0  0  0  0
  1  2  1  0
  2  3  1  0
  3  4  1  0
  4  5  1  0
  5  6  1  0
  6  7  1  0
  6  8  1  0
  8  9  1  0
  9 10  1  0
 10 11  1  0
 11 12  1  0
 12 13  1  0
 13 14  1  0
 14 15  1  0
 15 16  1  0
 16 17  1  0
 17 18  2  0
 14 19  1  1
  5 20  1  1
  7  2  1  0
 15 10  1  0
 11  5  1  0
 18 14  1  0
  1 21  1  0
  2 22  1  6
  3 23  1  0
  3 24  1  0
  4 25  1  0
  4 26  1  0
  6 27  1  6
  7 28  1  0
  7 29  1  0
  8 30  1  0
  8 31  1  0
  9 32  1  0
  9 33  1  0
 10 34  1  1
 11 35  1  6
 12 36  1  0
 12 37  1  0
 13 38  1  0
 13 39  1  0
 15 40  1  6
 16 41  1  0
 16 42  1  0
 17 43  1  0
 18 44  1  0
 19 45  1  0
 19 46  1  0
 19 47  1  0
 20 48  1  0
 20 49  1  0
 20 50  1  0
M  END
>  <Ligand ID>  (1) 
LIG0000416

>  <Ligand>  (1) 
Androstenol

>  <SMILES>  (1) 
O[C@@H]1CC[C@]2([C@H](C1)CC[C@@H]1[C@@H]2CC[C@]2([C@H]1CC=C2)C)C

>  <CID>  (1) 
101989.0

>  <ChEMBL ID>  (1) 
nan

>  <InChiKey>  (1) 
KRVXMNNRSSQZJP-PHFHYRSDSA-N

>  <InChi>  (1) 
InChI=1S/C19H30O/c1-18-9-3-4-16(18)15-6-5-13-12-14(20)7-11-19(13,2)17(15)8-10-18/h3,9,13-17,20H,4-8,10-12H2,1-2H3/t13-,14+,15-,16-,17-,18-,19-/m0/s1

>  <IUPAC Name>  (1) 
(3R,5S,8R,9S,10S,13R,14S)-10,13-dimethyl-2,3,4,5,6,7,8,9,11,12,14,15-dodecahydro-1H-cyclopenta[a]phenanthren-3-ol

$$$$
