
     RDKit          3D

 59 61  0  0  0  0  0  0  0  0999 V2000
   -0.7244    3.6755   -0.4621 O   0  0  0  0  0  0  0  0  0  0  0  0
   -0.2250    2.6348    0.3247 C   0  0  2  0  0  0  0  0  0  0  0  0
    1.2613    2.4651    0.0952 C   0  0  2  0  0  0  0  0  0  0  0  0
    1.7193    3.6124   -0.5396 O   0  0  0  0  0  0  0  0  0  0  0  0
    1.2922    1.2376   -0.7897 C   0  0  2  0  0  0  0  0  0  0  0  0
    0.3227    0.4306   -0.2009 O   0  0  0  0  0  0  0  0  0  0  0  0
   -0.7607    1.2998   -0.1343 C   0  0  1  0  0  0  0  0  0  0  0  0
   -1.7751    0.8806    0.8139 N   0  0  0  0  0  0  0  0  0  0  0  0
   -1.5344   -0.0229    1.7883 C   0  0  0  0  0  0  0  0  0  0  0  0
   -2.5814   -0.3567    2.6486 C   0  0  0  0  0  0  0  0  0  0  0  0
   -3.8376    0.2174    2.5153 C   0  0  0  0  0  0  0  0  0  0  0  0
   -4.7776   -0.0904    3.2973 O   0  0  0  0  0  0  0  0  0  0  0  0
   -4.0165    1.1259    1.5076 N   0  0  0  0  0  0  0  0  0  0  0  0
   -3.0012    1.4518    0.6708 C   0  0  0  0  0  0  0  0  0  0  0  0
   -3.2056    2.3001   -0.2535 O   0  0  0  0  0  0  0  0  0  0  0  0
   -5.2648    1.7867    1.3283 C   0  0  0  0  0  0  0  0  0  0  0  0
   -6.2912    1.2280    0.4828 C   0  0  0  0  0  0  0  0  0  0  0  0
   -7.3768    1.9765    0.4485 O   0  0  0  0  0  0  0  0  0  0  0  0
   -6.3694    0.0453   -0.3137 C   0  0  0  0  0  0  0  0  0  0  0  0
   -5.3951   -0.9105   -0.4719 C   0  0  0  0  0  0  0  0  0  0  0  0
   -5.5439   -2.0414   -1.2665 C   0  0  0  0  0  0  0  0  0  0  0  0
   -6.7142   -2.2660   -1.9566 C   0  0  0  0  0  0  0  0  0  0  0  0
   -7.7056   -1.3289   -1.8184 C   0  0  0  0  0  0  0  0  0  0  0  0
   -7.5519   -0.2141   -1.0318 C   0  0  0  0  0  0  0  0  0  0  0  0
    2.6582    0.5733   -0.7563 C   0  0  0  0  0  0  0  0  0  0  0  0
    2.6315   -0.6338   -1.4415 O   0  0  0  0  0  0  0  0  0  0  0  0
    4.1301   -1.4043   -1.4265 P   0  0  0  0  0  0  0  0  0  0  0  0
    4.5526   -1.7111   -2.8660 O   0  0  0  0  0  0  0  0  0  0  0  0
    5.2603   -0.3242   -0.7898 O   0  0  0  0  0  0  0  0  0  0  0  0
    6.8045   -1.0069   -0.7237 P   0  0  0  0  0  0  0  0  0  0  0  0
    7.1866   -1.5936   -2.0570 O   0  0  0  0  0  0  0  0  0  0  0  0
    6.7700   -2.1618    0.5120 O   0  0  0  0  0  0  0  0  0  0  0  0
    8.3289   -2.6715    0.8879 P   0  0  0  0  0  0  0  0  0  0  0  0
    8.5172   -2.4129    2.3726 O   0  0  0  0  0  0  0  0  0  0  0  0
    9.4215   -1.7673    0.0006 O   0  0  0  0  0  0  0  0  0  0  0  0
    8.5438   -4.3145    0.5260 O   0  0  0  0  0  0  0  0  0  0  0  0
    7.8946    0.1961   -0.2487 O   0  0  0  0  0  0  0  0  0  0  0  0
    4.1406   -2.8328   -0.5610 O   0  0  0  0  0  0  0  0  0  0  0  0
   -0.2755    3.7293   -1.3369 H   0  0  0  0  0  0  0  0  0  0  0  0
   -0.4124    2.8313    1.3987 H   0  0  0  0  0  0  0  0  0  0  0  0
    1.8021    2.2355    1.0373 H   0  0  0  0  0  0  0  0  0  0  0  0
    2.6602    3.7422   -0.2350 H   0  0  0  0  0  0  0  0  0  0  0  0
    1.0247    1.5523   -1.8061 H   0  0  0  0  0  0  0  0  0  0  0  0
   -1.2358    1.3826   -1.1385 H   0  0  0  0  0  0  0  0  0  0  0  0
   -0.5504   -0.4626    1.8808 H   0  0  0  0  0  0  0  0  0  0  0  0
   -2.4311   -1.0750    3.4415 H   0  0  0  0  0  0  0  0  0  0  0  0
   -5.6859    1.8848    2.3950 H   0  0  0  0  0  0  0  0  0  0  0  0
   -5.0695    2.8857    1.0973 H   0  0  0  0  0  0  0  0  0  0  0  0
   -4.4568   -0.8160    0.0254 H   0  0  0  0  0  0  0  0  0  0  0  0
   -4.7333   -2.7640   -1.3516 H   0  0  0  0  0  0  0  0  0  0  0  0
   -6.7774   -3.1542   -2.5556 H   0  0  0  0  0  0  0  0  0  0  0  0
   -8.6260   -1.5009   -2.3581 H   0  0  0  0  0  0  0  0  0  0  0  0
   -8.3980    0.4614   -0.9935 H   0  0  0  0  0  0  0  0  0  0  0  0
    2.9112    0.3618    0.2940 H   0  0  0  0  0  0  0  0  0  0  0  0
    3.4152    1.2744   -1.1541 H   0  0  0  0  0  0  0  0  0  0  0  0
    9.7753   -2.2999   -0.7302 H   0  0  0  0  0  0  0  0  0  0  0  0
    7.9475   -4.8880    1.0630 H   0  0  0  0  0  0  0  0  0  0  0  0
    7.6178    1.0901   -0.5481 H   0  0  0  0  0  0  0  0  0  0  0  0
    4.7149   -3.5429   -0.9344 H   0  0  0  0  0  0  0  0  0  0  0  0
  1  2  1  0
  2  3  1  0
  3  4  1  0
  3  5  1  0
  5  6  1  0
  6  7  1  0
  7  8  1  0
  8  9  1  0
  9 10  2  0
 10 11  1  0
 11 12  2  0
 11 13  1  0
 13 14  1  0
 14 15  2  0
 13 16  1  0
 16 17  1  0
 17 18  2  0
 17 19  1  0
 19 20  2  0
 20 21  1  0
 21 22  2  0
 22 23  1  0
 23 24  2  0
  5 25  1  0
 25 26  1  0
 26 27  1  0
 27 28  2  0
 27 29  1  0
 29 30  1  0
 30 31  2  0
 30 32  1  0
 32 33  1  0
 33 34  2  0
 33 35  1  0
 33 36  1  0
 30 37  1  0
 27 38  1  0
  7  2  1  0
 14  8  1  0
 24 19  1  0
  1 39  1  0
  2 40  1  1
  3 41  1  1
  4 42  1  0
  5 43  1  6
  7 44  1  6
  9 45  1  0
 10 46  1  0
 16 47  1  0
 16 48  1  0
 20 49  1  0
 21 50  1  0
 22 51  1  0
 23 52  1  0
 24 53  1  0
 25 54  1  0
 25 55  1  0
 35 56  1  0
 36 57  1  0
 37 58  1  0
 38 59  1  0
M  END
>  <Ligand ID>  (1) 
LIG0002601

>  <Ligand>  (1) 
CHEMBL385488

>  <SMILES>  (1) 
O[C@@H]1[C@H](O)[C@H](O[C@H]1n1ccc(=O)n(c1=O)CC(=O)c1ccccc1)COP(=O)(OP(=O)(OP(=O)(O)O)O)O

>  <CID>  (1) 
11994007.0

>  <ChEMBL ID>  (1) 
nan

>  <InChiKey>  (1) 
BTNPGBJHKRUBLX-DTZQCDIJSA-N

>  <InChi>  (1) 
InChI=1S/C17H21N2O16P3/c20-11(10-4-2-1-3-5-10)8-19-13(21)6-7-18(17(19)24)16-15(23)14(22)12(33-16)9-32-37(28,29)35-38(30,31)34-36(25,26)27/h1-7,12,14-16,22-23H,8-9H2,(H,28,29)(H,30,31)(H2,25,26,27)/t12-,14-,15-,16-/m1/s1

>  <IUPAC Name>  (1) 
[[(2R,3S,4R,5R)-5-(2,4-dioxo-3-phenacylpyrimidin-1-yl)-3,4-dihydroxyoxolan-2-yl]methoxy-hydroxyphosphoryl] phosphono hydrogen phosphate

$$$$
