
     RDKit          3D

 31 30  0  0  0  0  0  0  0  0999 V2000
   -4.1070    1.2351    1.7664 O   0  0  0  0  0  0  0  0  0  0  0  0
   -3.3007    0.2396    1.1928 C   0  0  0  0  0  0  0  0  0  0  0  0
   -3.1957    0.3816   -0.2880 C   0  0  0  0  0  0  0  0  0  0  0  0
   -2.3352   -0.7192   -0.8486 C   0  0  0  0  0  0  0  0  0  0  0  0
   -0.9248   -0.7323   -0.3144 C   0  0  0  0  0  0  0  0  0  0  0  0
   -0.2766    0.5849   -0.6454 C   0  0  0  0  0  0  0  0  0  0  0  0
    1.1590    0.6904   -0.1538 C   0  0  0  0  0  0  0  0  0  0  0  0
    2.0427   -0.3495   -0.7369 C   0  0  0  0  0  0  0  0  0  0  0  0
    3.4809   -0.3057   -0.3213 C   0  0  0  0  0  0  0  0  0  0  0  0
    3.7369   -0.4701    1.1362 C   0  0  0  0  0  0  0  0  0  0  0  0
    3.1788    0.4898    1.9563 O   0  0  0  0  0  0  0  0  0  0  0  0
   -5.0427    0.9509    1.7897 H   0  0  0  0  0  0  0  0  0  0  0  0
   -2.2661    0.2900    1.6291 H   0  0  0  0  0  0  0  0  0  0  0  0
   -3.6910   -0.7673    1.4300 H   0  0  0  0  0  0  0  0  0  0  0  0
   -2.8526    1.3851   -0.6125 H   0  0  0  0  0  0  0  0  0  0  0  0
   -4.2183    0.2875   -0.7528 H   0  0  0  0  0  0  0  0  0  0  0  0
   -2.2771   -0.6465   -1.9755 H   0  0  0  0  0  0  0  0  0  0  0  0
   -2.8268   -1.7236   -0.6832 H   0  0  0  0  0  0  0  0  0  0  0  0
   -0.3700   -1.5940   -0.7585 H   0  0  0  0  0  0  0  0  0  0  0  0
   -0.9738   -0.9434    0.7670 H   0  0  0  0  0  0  0  0  0  0  0  0
   -0.8592    1.3805   -0.1378 H   0  0  0  0  0  0  0  0  0  0  0  0
   -0.3337    0.7743   -1.7302 H   0  0  0  0  0  0  0  0  0  0  0  0
    1.5224    1.6782   -0.5050 H   0  0  0  0  0  0  0  0  0  0  0  0
    1.1776    0.6990    0.9539 H   0  0  0  0  0  0  0  0  0  0  0  0
    1.6856   -1.3881   -0.4517 H   0  0  0  0  0  0  0  0  0  0  0  0
    2.0149   -0.3522   -1.8540 H   0  0  0  0  0  0  0  0  0  0  0  0
    3.9446    0.6274   -0.7365 H   0  0  0  0  0  0  0  0  0  0  0  0
    4.0357   -1.1390   -0.8379 H   0  0  0  0  0  0  0  0  0  0  0  0
    3.4010   -1.4680    1.4987 H   0  0  0  0  0  0  0  0  0  0  0  0
    4.8458   -0.4593    1.3462 H   0  0  0  0  0  0  0  0  0  0  0  0
    3.6253    1.3635    1.9067 H   0  0  0  0  0  0  0  0  0  0  0  0
  1  2  1  0
  2  3  1  0
  3  4  1  0
  4  5  1  0
  5  6  1  0
  6  7  1  0
  7  8  1  0
  8  9  1  0
  9 10  1  0
 10 11  1  0
  1 12  1  0
  2 13  1  0
  2 14  1  0
  3 15  1  0
  3 16  1  0
  4 17  1  0
  4 18  1  0
  5 19  1  0
  5 20  1  0
  6 21  1  0
  6 22  1  0
  7 23  1  0
  7 24  1  0
  8 25  1  0
  8 26  1  0
  9 27  1  0
  9 28  1  0
 10 29  1  0
 10 30  1  0
 11 31  1  0
M  END
>  <Ligand ID>  (1) 
LIG0000219

>  <Ligand>  (1) 
1,9-nonanediol

>  <SMILES>  (1) 
OCCCCCCCCCO

>  <CID>  (1) 
19835.0

>  <ChEMBL ID>  (1) 
nan

>  <InChiKey>  (1) 
ALVZNPYWJMLXKV-UHFFFAOYSA-N

>  <InChi>  (1) 
InChI=1S/C9H20O2/c10-8-6-4-2-1-3-5-7-9-11/h10-11H,1-9H2

>  <IUPAC Name>  (1) 
nonane-1,9-diol

$$$$
