
     RDKit          3D

 69 71  0  0  0  0  0  0  0  0999 V2000
   -4.9921    1.6747   -2.5138 C   0  0  0  0  0  0  0  0  0  0  0  0
   -5.8169    1.8810   -1.2607 C   0  0  0  0  0  0  0  0  0  0  0  0
   -5.0083    2.0089   -0.0329 C   0  0  0  0  0  0  0  0  0  0  0  0
   -4.1266    0.9205    0.3527 C   0  0  0  0  0  0  0  0  0  0  0  0
   -2.7736    1.0562   -0.0337 C   0  0  0  0  0  0  0  0  0  0  0  0
   -1.8413    0.0861    0.2621 C   0  0  0  0  0  0  0  0  0  0  0  0
   -2.1804   -1.0697    0.9504 C   0  0  0  0  0  0  0  0  0  0  0  0
   -3.5073   -1.1783    1.3155 C   0  0  0  0  0  0  0  0  0  0  0  0
   -4.4514   -0.2169    1.0282 C   0  0  0  0  0  0  0  0  0  0  0  0
   -5.8054   -0.4604    1.5034 C   0  0  0  0  0  0  0  0  0  0  0  0
   -6.2938    0.3443    2.3080 O   0  0  0  0  0  0  0  0  0  0  0  0
   -6.4688   -1.6123    1.0023 N   0  0  0  0  0  0  0  0  0  0  0  0
   -8.0679   -2.0724    1.4386 S   0  0  0  0  0  0  0  0  0  0  0  0
   -8.0498   -3.4719    1.9752 O   0  0  0  0  0  0  0  0  0  0  0  0
   -8.9046   -1.9987    0.1735 O   0  0  0  0  0  0  0  0  0  0  0  0
   -8.6735   -0.9082    2.6422 C   0  0  0  0  0  0  0  0  0  0  0  0
   -0.4602    0.3291   -0.2004 C   0  0  0  0  0  0  0  0  0  0  0  0
    0.0590    1.6050   -0.3046 C   0  0  0  0  0  0  0  0  0  0  0  0
    1.3611    1.7864   -0.7496 C   0  0  0  0  0  0  0  0  0  0  0  0
    2.1227    0.6721   -1.0836 C   0  0  0  0  0  0  0  0  0  0  0  0
    1.5929   -0.6196   -0.9754 C   0  0  0  0  0  0  0  0  0  0  0  0
    0.2781   -0.7914   -0.5257 C   0  0  0  0  0  0  0  0  0  0  0  0
    3.5137    0.8155   -1.5833 C   0  0  0  0  0  0  0  0  0  0  0  0
    4.4380    0.8612   -0.3865 C   0  0  0  0  0  0  0  0  0  0  0  0
    5.8127    0.9880   -0.7637 N   0  0  0  0  0  0  0  0  0  0  0  0
    6.3821   -0.1615   -1.4099 C   0  0  0  0  0  0  0  0  0  0  0  0
    6.5901   -1.3524   -0.5375 C   0  0  1  0  0  0  0  0  0  0  0  0
    7.7005   -1.1281    0.4464 C   0  0  0  0  0  0  0  0  0  0  0  0
    8.3984    0.0834    0.4752 C   0  0  0  0  0  0  0  0  0  0  0  0
    9.4380    0.3070    1.3660 C   0  0  0  0  0  0  0  0  0  0  0  0
    9.8122   -0.6750    2.2573 C   0  0  0  0  0  0  0  0  0  0  0  0
    9.1265   -1.8851    2.2403 C   0  0  0  0  0  0  0  0  0  0  0  0
    8.0890   -2.1017    1.3470 C   0  0  0  0  0  0  0  0  0  0  0  0
    5.4826   -1.8819    0.0632 O   0  0  0  0  0  0  0  0  0  0  0  0
   -6.8911    0.8395   -1.1602 C   0  0  0  0  0  0  0  0  0  0  0  0
   -5.6640    1.5763   -3.3966 H   0  0  0  0  0  0  0  0  0  0  0  0
   -4.3257    2.5300   -2.7240 H   0  0  0  0  0  0  0  0  0  0  0  0
   -4.3372    0.7864   -2.3776 H   0  0  0  0  0  0  0  0  0  0  0  0
   -6.3831    2.8561   -1.4724 H   0  0  0  0  0  0  0  0  0  0  0  0
   -4.4384    2.9857   -0.1155 H   0  0  0  0  0  0  0  0  0  0  0  0
   -5.6699    2.2026    0.8711 H   0  0  0  0  0  0  0  0  0  0  0  0
   -2.4581    1.9570   -0.5834 H   0  0  0  0  0  0  0  0  0  0  0  0
   -1.4433   -1.8068    1.1692 H   0  0  0  0  0  0  0  0  0  0  0  0
   -3.7685   -2.0956    1.8609 H   0  0  0  0  0  0  0  0  0  0  0  0
   -5.9638   -2.2419    0.3139 H   0  0  0  0  0  0  0  0  0  0  0  0
   -8.7580    0.0922    2.1586 H   0  0  0  0  0  0  0  0  0  0  0  0
   -9.6579   -1.2738    3.0309 H   0  0  0  0  0  0  0  0  0  0  0  0
   -7.9159   -0.8799    3.4525 H   0  0  0  0  0  0  0  0  0  0  0  0
   -0.5661    2.4358   -0.0348 H   0  0  0  0  0  0  0  0  0  0  0  0
    1.7840    2.8012   -0.8369 H   0  0  0  0  0  0  0  0  0  0  0  0
    2.1819   -1.4982   -1.2322 H   0  0  0  0  0  0  0  0  0  0  0  0
   -0.1549   -1.7783   -0.4336 H   0  0  0  0  0  0  0  0  0  0  0  0
    3.7467    0.0102   -2.3008 H   0  0  0  0  0  0  0  0  0  0  0  0
    3.5545    1.7711   -2.1480 H   0  0  0  0  0  0  0  0  0  0  0  0
    4.2833    0.0593    0.3287 H   0  0  0  0  0  0  0  0  0  0  0  0
    4.1767    1.8173    0.1472 H   0  0  0  0  0  0  0  0  0  0  0  0
    5.9771    1.8570   -1.3114 H   0  0  0  0  0  0  0  0  0  0  0  0
    7.3610    0.1336   -1.8466 H   0  0  0  0  0  0  0  0  0  0  0  0
    5.7702   -0.4538   -2.2990 H   0  0  0  0  0  0  0  0  0  0  0  0
    6.9619   -2.1699   -1.2407 H   0  0  0  0  0  0  0  0  0  0  0  0
    8.1650    0.9034   -0.1865 H   0  0  0  0  0  0  0  0  0  0  0  0
    9.9860    1.2596    1.3871 H   0  0  0  0  0  0  0  0  0  0  0  0
   10.6320   -0.4752    2.9415 H   0  0  0  0  0  0  0  0  0  0  0  0
    9.4556   -2.6263    2.9588 H   0  0  0  0  0  0  0  0  0  0  0  0
    7.5620   -3.0343    1.3354 H   0  0  0  0  0  0  0  0  0  0  0  0
    5.6992   -2.1786    0.9806 H   0  0  0  0  0  0  0  0  0  0  0  0
   -6.5265   -0.1819   -1.3382 H   0  0  0  0  0  0  0  0  0  0  0  0
   -7.4821    0.9827   -0.2414 H   0  0  0  0  0  0  0  0  0  0  0  0
   -7.6684    1.0036   -1.9866 H   0  0  0  0  0  0  0  0  0  0  0  0
  1  2  1  0
  2  3  1  0
  3  4  1  0
  4  5  2  0
  5  6  1  0
  6  7  2  0
  7  8  1  0
  8  9  2  0
  9 10  1  0
 10 11  2  0
 10 12  1  0
 12 13  1  0
 13 14  2  0
 13 15  2  0
 13 16  1  0
  6 17  1  0
 17 18  2  0
 18 19  1  0
 19 20  2  0
 20 21  1  0
 21 22  2  0
 20 23  1  0
 23 24  1  0
 24 25  1  0
 25 26  1  0
 26 27  1  0
 27 28  1  0
 28 29  2  0
 29 30  1  0
 30 31  2  0
 31 32  1  0
 32 33  2  0
 27 34  1  0
  2 35  1  0
  9  4  1  0
 22 17  1  0
 33 28  1  0
  1 36  1  0
  1 37  1  0
  1 38  1  0
  2 39  1  0
  3 40  1  0
  3 41  1  0
  5 42  1  0
  7 43  1  0
  8 44  1  0
 12 45  1  0
 16 46  1  0
 16 47  1  0
 16 48  1  0
 18 49  1  0
 19 50  1  0
 21 51  1  0
 22 52  1  0
 23 53  1  0
 23 54  1  0
 24 55  1  0
 24 56  1  0
 25 57  1  0
 26 58  1  0
 26 59  1  0
 27 60  1  6
 29 61  1  0
 30 62  1  0
 31 63  1  0
 32 64  1  0
 33 65  1  0
 34 66  1  0
 35 67  1  0
 35 68  1  0
 35 69  1  0
M  END
>  <Ligand ID>  (1) 
LIG0001510

>  <Ligand>  (1) 
CHEMBL469821

>  <SMILES>  (1) 
CC(Cc1cc(ccc1C(=O)NS(=O)(=O)C)c1ccc(cc1)CCNC[C@@H](c1ccccc1)O)C

>  <CID>  (1) 
11340895.0

>  <ChEMBL ID>  (1) 
nan

>  <InChiKey>  (1) 
FKGYWDPSUXSSQK-MHZLTWQESA-N

>  <InChi>  (1) 
InChI=1S/C28H34N2O4S/c1-20(2)17-25-18-24(13-14-26(25)28(32)30-35(3,33)34)22-11-9-21(10-12-22)15-16-29-19-27(31)23-7-5-4-6-8-23/h4-14,18,20,27,29,31H,15-17,19H2,1-3H3,(H,30,32)/t27-/m0/s1

>  <IUPAC Name>  (1) 
4-[4-[2-[[(2R)-2-hydroxy-2-phenylethyl]amino]ethyl]phenyl]-2-(2-methylpropyl)-N-methylsulfonylbenzamide

$$$$
