
     RDKit          3D

139140  0  0  0  0  0  0  0  0999 V2000
    4.6343    3.8419    4.8711 C   0  0  0  0  0  0  0  0  0  0  0  0
    4.1634    2.4265    5.1253 C   0  0  0  0  0  0  0  0  0  0  0  0
    3.9058    1.7610    3.7678 C   0  0  0  0  0  0  0  0  0  0  0  0
    2.8558    2.5273    3.0350 C   0  0  0  0  0  0  0  0  0  0  0  0
    2.5025    1.9704    1.7406 N   0  0  0  0  0  0  0  0  0  0  0  0
    1.4554    1.0402    1.6965 C   0  0  0  0  0  0  0  0  0  0  0  0
    0.9546    0.7134    2.8368 O   0  0  0  0  0  0  0  0  0  0  0  0
    0.8570    0.3821    0.5304 C   0  0  2  0  0  0  0  0  0  0  0  0
   -0.3786    1.1676    0.0594 C   0  0  0  0  0  0  0  0  0  0  0  0
   -0.1563    2.7295   -0.5376 S   0  0  0  0  0  0  0  0  0  0  0  0
    0.4758    3.3235   -2.0072 C   0  0  0  0  0  0  0  0  0  0  0  0
   -0.2640    3.2314   -3.3253 C   0  0  0  0  0  0  0  0  0  0  0  0
   -1.6679    3.8966   -3.2414 C   0  0  0  0  0  0  0  0  0  0  0  0
   -2.4447    2.9536   -2.4094 C   0  0  0  0  0  0  0  0  0  0  0  0
   -2.0175    1.7755   -2.4414 O   0  0  0  0  0  0  0  0  0  0  0  0
   -3.5852    3.1685   -1.5957 N   0  0  0  0  0  0  0  0  0  0  0  0
   -3.9531    2.0844   -0.7387 C   0  0  1  0  0  0  0  0  0  0  0  0
   -3.8440    2.5773    0.7417 C   0  0  0  0  0  0  0  0  0  0  0  0
   -4.7684    3.7184    0.9345 C   0  0  0  0  0  0  0  0  0  0  0  0
   -4.4042    5.0386    0.7614 C   0  0  0  0  0  0  0  0  0  0  0  0
   -5.3220    6.0716    0.9398 C   0  0  0  0  0  0  0  0  0  0  0  0
   -6.6333    5.7853    1.2999 C   0  0  0  0  0  0  0  0  0  0  0  0
   -7.0156    4.4670    1.4782 C   0  0  0  0  0  0  0  0  0  0  0  0
   -6.0901    3.4451    1.2967 C   0  0  0  0  0  0  0  0  0  0  0  0
   -5.2680    1.4542   -0.8283 C   0  0  0  0  0  0  0  0  0  0  0  0
   -6.3130    1.8625   -1.2858 O   0  0  0  0  0  0  0  0  0  0  0  0
   -5.3069    0.1080   -0.2849 N   0  0  0  0  0  0  0  0  0  0  0  0
   -6.3509   -0.7649   -0.0350 C   0  0  2  0  0  0  0  0  0  0  0  0
   -5.7709   -1.9576    0.6600 C   0  0  0  0  0  0  0  0  0  0  0  0
   -6.3557   -2.6384    1.5015 O   0  0  0  0  0  0  0  0  0  0  0  0
   -4.4524   -2.3701    0.3314 N   0  0  0  0  0  0  0  0  0  0  0  0
   -3.6098   -3.3286    0.9952 C   0  0  2  0  0  0  0  0  0  0  0  0
   -2.1841   -3.0461    0.6420 C   0  0  0  0  0  0  0  0  0  0  0  0
   -1.9611   -2.1242   -0.1431 O   0  0  0  0  0  0  0  0  0  0  0  0
   -1.0623   -3.7573    1.1378 N   0  0  0  0  0  0  0  0  0  0  0  0
    0.3038   -3.5281    0.7545 C   0  0  2  0  0  0  0  0  0  0  0  0
    0.7553   -2.1478    0.5514 C   0  0  0  0  0  0  0  0  0  0  0  0
    1.8143   -2.0167   -0.1654 O   0  0  0  0  0  0  0  0  0  0  0  0
    0.2465   -0.9317    1.0094 N   0  0  0  0  0  0  0  0  0  0  0  0
    0.7676   -4.4410   -0.3626 C   0  0  0  0  0  0  0  0  0  0  0  0
    0.6821   -5.8690    0.0157 C   0  0  0  0  0  0  0  0  0  0  0  0
    0.2331   -6.1144    1.1820 O   0  0  0  0  0  0  0  0  0  0  0  0
    1.0836   -6.8798   -0.8863 N   0  0  0  0  0  0  0  0  0  0  0  0
   -3.8112   -4.7671    0.5247 C   0  0  0  0  0  0  0  0  0  0  0  0
   -5.1584   -5.3345    0.7187 C   0  0  0  0  0  0  0  0  0  0  0  0
   -5.1007   -6.7595    0.2097 C   0  0  0  0  0  0  0  0  0  0  0  0
   -4.0653   -7.2411   -0.3020 O   0  0  0  0  0  0  0  0  0  0  0  0
   -6.2850   -7.5341    0.3383 N   0  0  0  0  0  0  0  0  0  0  0  0
   -7.4065   -1.0512   -1.0337 C   0  0  2  0  0  0  0  0  0  0  0  0
   -7.0682   -1.5886   -2.3608 C   0  0  0  0  0  0  0  0  0  0  0  0
   -6.3809   -2.9272   -2.4101 C   0  0  0  0  0  0  0  0  0  0  0  0
   -8.4994    0.0022   -1.0643 C   0  0  0  0  0  0  0  0  0  0  0  0
    3.2728    2.4233    0.6069 C   0  0  0  0  0  0  0  0  0  0  0  0
    4.3866    1.4197    0.3781 C   0  0  0  0  0  0  0  0  0  0  0  0
    4.4913    0.3900    1.0934 O   0  0  0  0  0  0  0  0  0  0  0  0
    5.3451    1.5980   -0.6412 N   0  0  0  0  0  0  0  0  0  0  0  0
    6.3822    0.5344   -0.7704 C   0  0  2  0  0  0  0  0  0  0  0  0
    7.6796    1.1705   -0.5017 C   0  0  0  0  0  0  0  0  0  0  0  0
    7.6921    2.4491   -0.5065 O   0  0  0  0  0  0  0  0  0  0  0  0
    8.8955    0.5322   -0.2363 N   0  0  0  0  0  0  0  0  0  0  0  0
   10.0699    1.3500   -0.0021 C   0  0  0  0  0  0  0  0  0  0  0  0
   10.3435    2.1799   -1.2044 C   0  0  0  0  0  0  0  0  0  0  0  0
    9.6283    2.1349   -2.2488 O   0  0  0  0  0  0  0  0  0  0  0  0
   11.4704    3.0533   -1.1385 N   0  0  0  0  0  0  0  0  0  0  0  0
    6.3309    0.0360   -2.1910 C   0  0  0  0  0  0  0  0  0  0  0  0
    7.3201   -1.0467   -2.4442 C   0  0  0  0  0  0  0  0  0  0  0  0
    7.0948   -2.2299   -1.5587 C   0  0  0  0  0  0  0  0  0  0  0  0
    7.2159   -1.5259   -3.9113 C   0  0  0  0  0  0  0  0  0  0  0  0
    5.5045    4.1169    5.5197 H   0  0  0  0  0  0  0  0  0  0  0  0
    3.7679    4.5109    5.0182 H   0  0  0  0  0  0  0  0  0  0  0  0
    5.0465    3.9238    3.8245 H   0  0  0  0  0  0  0  0  0  0  0  0
    5.0212    1.8817    5.5816 H   0  0  0  0  0  0  0  0  0  0  0  0
    3.2899    2.3692    5.7960 H   0  0  0  0  0  0  0  0  0  0  0  0
    4.9067    1.7916    3.2758 H   0  0  0  0  0  0  0  0  0  0  0  0
    3.6150    0.7271    3.9161 H   0  0  0  0  0  0  0  0  0  0  0  0
    1.9352    2.5305    3.6611 H   0  0  0  0  0  0  0  0  0  0  0  0
    3.1190    3.6071    2.9272 H   0  0  0  0  0  0  0  0  0  0  0  0
    1.5294    0.2502   -0.2731 H   0  0  0  0  0  0  0  0  0  0  0  0
   -1.0846    1.2114    0.9858 H   0  0  0  0  0  0  0  0  0  0  0  0
   -0.9462    0.4095   -0.5752 H   0  0  0  0  0  0  0  0  0  0  0  0
    0.7110    4.4504   -1.8993 H   0  0  0  0  0  0  0  0  0  0  0  0
    1.5206    2.8922   -2.2463 H   0  0  0  0  0  0  0  0  0  0  0  0
    0.2923    3.8482   -4.0557 H   0  0  0  0  0  0  0  0  0  0  0  0
   -0.3715    2.2254   -3.7186 H   0  0  0  0  0  0  0  0  0  0  0  0
   -2.0371    4.0016   -4.2635 H   0  0  0  0  0  0  0  0  0  0  0  0
   -1.6155    4.8643   -2.7414 H   0  0  0  0  0  0  0  0  0  0  0  0
   -4.0398    4.0733   -1.7016 H   0  0  0  0  0  0  0  0  0  0  0  0
   -3.1430    1.3131   -0.7735 H   0  0  0  0  0  0  0  0  0  0  0  0
   -4.1904    1.7350    1.3492 H   0  0  0  0  0  0  0  0  0  0  0  0
   -2.7991    2.8243    0.8877 H   0  0  0  0  0  0  0  0  0  0  0  0
   -3.3659    5.2704    0.4779 H   0  0  0  0  0  0  0  0  0  0  0  0
   -5.0146    7.1194    0.7954 H   0  0  0  0  0  0  0  0  0  0  0  0
   -7.3818    6.5420    1.4485 H   0  0  0  0  0  0  0  0  0  0  0  0
   -8.0443    4.2165    1.7608 H   0  0  0  0  0  0  0  0  0  0  0  0
   -6.3699    2.4097    1.4305 H   0  0  0  0  0  0  0  0  0  0  0  0
   -4.3134   -0.1939   -0.0385 H   0  0  0  0  0  0  0  0  0  0  0  0
   -6.9764   -0.2417    0.7831 H   0  0  0  0  0  0  0  0  0  0  0  0
   -4.0627   -1.9418   -0.5259 H   0  0  0  0  0  0  0  0  0  0  0  0
   -3.7245   -3.3785    2.0728 H   0  0  0  0  0  0  0  0  0  0  0  0
   -1.3137   -4.4891    1.8269 H   0  0  0  0  0  0  0  0  0  0  0  0
    0.8884   -3.9395    1.6747 H   0  0  0  0  0  0  0  0  0  0  0  0
   -0.5090   -0.9266    1.6766 H   0  0  0  0  0  0  0  0  0  0  0  0
    0.1723   -4.3120   -1.2902 H   0  0  0  0  0  0  0  0  0  0  0  0
    1.8066   -4.2310   -0.6164 H   0  0  0  0  0  0  0  0  0  0  0  0
    1.7925   -6.6368   -1.6196 H   0  0  0  0  0  0  0  0  0  0  0  0
    0.7294   -7.8597   -0.8826 H   0  0  0  0  0  0  0  0  0  0  0  0
   -3.5604   -4.8666   -0.5632 H   0  0  0  0  0  0  0  0  0  0  0  0
   -3.0764   -5.4164    1.0371 H   0  0  0  0  0  0  0  0  0  0  0  0
   -5.4954   -5.4197    1.7650 H   0  0  0  0  0  0  0  0  0  0  0  0
   -5.8990   -4.8603    0.0571 H   0  0  0  0  0  0  0  0  0  0  0  0
   -7.1761   -7.1429    0.7086 H   0  0  0  0  0  0  0  0  0  0  0  0
   -6.3114   -8.5409    0.0636 H   0  0  0  0  0  0  0  0  0  0  0  0
   -7.9539   -1.9392   -0.5249 H   0  0  0  0  0  0  0  0  0  0  0  0
   -8.0512   -1.7976   -2.8917 H   0  0  0  0  0  0  0  0  0  0  0  0
   -6.4400   -0.9106   -2.9854 H   0  0  0  0  0  0  0  0  0  0  0  0
   -6.8436   -3.5465   -1.6009 H   0  0  0  0  0  0  0  0  0  0  0  0
   -6.6360   -3.4822   -3.3518 H   0  0  0  0  0  0  0  0  0  0  0  0
   -5.3061   -2.9144   -2.2616 H   0  0  0  0  0  0  0  0  0  0  0  0
   -8.5535    0.5409   -2.0425 H   0  0  0  0  0  0  0  0  0  0  0  0
   -9.5368   -0.4608   -1.0002 H   0  0  0  0  0  0  0  0  0  0  0  0
   -8.4828    0.6721   -0.1819 H   0  0  0  0  0  0  0  0  0  0  0  0
    2.7392    2.4451   -0.3457 H   0  0  0  0  0  0  0  0  0  0  0  0
    3.7568    3.4029    0.8184 H   0  0  0  0  0  0  0  0  0  0  0  0
    5.3418    2.4173   -1.2755 H   0  0  0  0  0  0  0  0  0  0  0  0
    6.2143   -0.2785   -0.0805 H   0  0  0  0  0  0  0  0  0  0  0  0
    8.9672   -0.5005   -0.1844 H   0  0  0  0  0  0  0  0  0  0  0  0
    9.8103    2.0013    0.8775 H   0  0  0  0  0  0  0  0  0  0  0  0
   10.9199    0.6754    0.2513 H   0  0  0  0  0  0  0  0  0  0  0  0
   12.1968    2.9263   -1.8849 H   0  0  0  0  0  0  0  0  0  0  0  0
   11.5823    3.7820   -0.3969 H   0  0  0  0  0  0  0  0  0  0  0  0
    5.2918   -0.2555   -2.4830 H   0  0  0  0  0  0  0  0  0  0  0  0
    6.6291    0.9333   -2.8178 H   0  0  0  0  0  0  0  0  0  0  0  0
    8.3444   -0.6451   -2.3526 H   0  0  0  0  0  0  0  0  0  0  0  0
    7.1556   -1.9909   -0.4933 H   0  0  0  0  0  0  0  0  0  0  0  0
    7.8420   -3.0244   -1.7901 H   0  0  0  0  0  0  0  0  0  0  0  0
    6.1028   -2.6986   -1.7823 H   0  0  0  0  0  0  0  0  0  0  0  0
    8.1206   -2.1447   -4.0804 H   0  0  0  0  0  0  0  0  0  0  0  0
    6.3255   -2.1476   -4.0111 H   0  0  0  0  0  0  0  0  0  0  0  0
    7.2828   -0.6515   -4.5684 H   0  0  0  0  0  0  0  0  0  0  0  0
  1  2  1  0
  2  3  1  0
  3  4  1  0
  4  5  1  0
  5  6  1  0
  6  7  2  0
  6  8  1  0
  8  9  1  0
  9 10  1  0
 10 11  1  0
 11 12  1  0
 12 13  1  0
 13 14  1  0
 14 15  2  0
 14 16  1  0
 16 17  1  0
 17 18  1  0
 18 19  1  0
 19 20  2  0
 20 21  1  0
 21 22  2  0
 22 23  1  0
 23 24  2  0
 17 25  1  0
 25 26  2  0
 25 27  1  0
 27 28  1  0
 28 29  1  0
 29 30  2  0
 29 31  1  0
 31 32  1  0
 32 33  1  0
 33 34  2  0
 33 35  1  0
 35 36  1  0
 36 37  1  0
 37 38  2  0
 37 39  1  0
 36 40  1  0
 40 41  1  0
 41 42  2  0
 41 43  1  0
 32 44  1  0
 44 45  1  0
 45 46  1  0
 46 47  2  0
 46 48  1  0
 28 49  1  0
 49 50  1  0
 50 51  1  0
 49 52  1  0
  5 53  1  0
 53 54  1  0
 54 55  2  0
 54 56  1  0
 56 57  1  0
 57 58  1  0
 58 59  2  0
 58 60  1  0
 60 61  1  0
 61 62  1  0
 62 63  2  0
 62 64  1  0
 57 65  1  0
 65 66  1  0
 66 67  1  0
 66 68  1  0
 39  8  1  0
 24 19  1  0
  1 69  1  0
  1 70  1  0
  1 71  1  0
  2 72  1  0
  2 73  1  0
  3 74  1  0
  3 75  1  0
  4 76  1  0
  4 77  1  0
  8 78  1  6
  9 79  1  0
  9 80  1  0
 11 81  1  0
 11 82  1  0
 12 83  1  0
 12 84  1  0
 13 85  1  0
 13 86  1  0
 16 87  1  0
 17 88  1  1
 18 89  1  0
 18 90  1  0
 20 91  1  0
 21 92  1  0
 22 93  1  0
 23 94  1  0
 24 95  1  0
 27 96  1  0
 28 97  1  1
 31 98  1  0
 32 99  1  1
 35100  1  0
 36101  1  1
 39102  1  0
 40103  1  0
 40104  1  0
 43105  1  0
 43106  1  0
 44107  1  0
 44108  1  0
 45109  1  0
 45110  1  0
 48111  1  0
 48112  1  0
 49113  1  1
 50114  1  0
 50115  1  0
 51116  1  0
 51117  1  0
 51118  1  0
 52119  1  0
 52120  1  0
 52121  1  0
 53122  1  0
 53123  1  0
 56124  1  0
 57125  1  1
 60126  1  0
 61127  1  0
 61128  1  0
 64129  1  0
 64130  1  0
 65131  1  0
 65132  1  0
 66133  1  0
 67134  1  0
 67135  1  0
 67136  1  0
 68137  1  0
 68138  1  0
 68139  1  0
M  END
>  <Ligand ID>  (1) 
LIG0001902

>  <Ligand>  (1) 
CHEMBL3354583

>  <SMILES>  (1) 
CCCCN(C(=O)[C@@H]1CSCCCC(=O)N[C@@H](Cc2ccccc2)C(=O)N[C@H](C(=O)N[C@H](C(=O)N[C@H](C(=O)N1)CC(=O)N)CCC(=O)N)[C@H](CC)C)CC(=O)N[C@H](C(=O)NCC(=O)N)CC(C)C

>  <CID>  (1) 
118720273.0

>  <ChEMBL ID>  (1) 
nan

>  <InChiKey>  (1) 
RQQQXQVWMJKXNQ-UNGLXHEOSA-N

>  <InChi>  (1) 
InChI=1S/C45H71N11O11S/c1-6-8-18-56(24-38(61)51-30(20-26(3)4)40(62)49-23-36(48)59)45(67)33-25-68-19-12-15-37(60)50-31(21-28-13-10-9-11-14-28)43(65)55-39(27(5)7-2)44(66)52-29(16-17-34(46)57)41(63)53-32(22-35(47)58)42(64)54-33/h9-11,13-14,26-27,29-33,39H,6-8,12,15-25H2,1-5H3,(H2,46,57)(H2,47,58)(H2,48,59)(H,49,62)(H,50,60)(H,51,61)(H,52,66)(H,53,63)(H,54,64)(H,55,65)/t27-,29-,30-,31-,32-,33-,39-/m0/s1

>  <IUPAC Name>  (1) 
(3R,6S,9S,12S,15S)-6-(2-amino-2-oxoethyl)-N-[2-[[(2S)-1-[(2-amino-2-oxoethyl)amino]-4-methyl-1-oxopentan-2-yl]amino]-2-oxoethyl]-9-(3-amino-3-oxopropyl)-15-benzyl-12-[(2S)-butan-2-yl]-N-butyl-5,8,11,14,17-pentaoxo-1-thia-4,7,10,13,16-pentazacycloicosane-3-carboxamide

$$$$
