
     RDKit          3D

 45 49  0  0  0  0  0  0  0  0999 V2000
   -3.1286   -2.3568    1.4677 N   0  0  0  0  0  0  0  0  0  0  0  0
   -2.1186   -2.4217    0.4226 C   0  0  0  0  0  0  0  0  0  0  0  0
   -1.3450   -1.1458    0.5079 C   0  0  0  0  0  0  0  0  0  0  0  0
   -2.1120    0.0750    0.2197 C   0  0  0  0  0  0  0  0  0  0  0  0
   -3.4483    0.3720    0.3469 C   0  0  0  0  0  0  0  0  0  0  0  0
   -4.5497   -0.4486    0.8329 C   0  0  0  0  0  0  0  0  0  0  0  0
   -4.3314   -1.9265    0.8194 C   0  0  0  0  0  0  0  0  0  0  0  0
   -3.8948    1.5932    0.0000 N   0  0  0  0  0  0  0  0  0  0  0  0
   -3.0690    2.5554   -0.4756 C   0  0  0  0  0  0  0  0  0  0  0  0
   -1.7479    2.2923   -0.6109 N   0  0  0  0  0  0  0  0  0  0  0  0
   -1.2756    1.0600   -0.2651 C   0  0  0  0  0  0  0  0  0  0  0  0
    0.1175    0.8515   -0.4235 N   0  0  0  0  0  0  0  0  0  0  0  0
    1.1077    0.4928   -1.4074 C   0  0  0  0  0  0  0  0  0  0  0  0
    2.2385    0.5489   -0.4342 C   0  0  0  0  0  0  0  0  0  0  0  0
    1.1864    0.9477    0.5801 C   0  0  0  0  0  0  0  0  0  0  0  0
    2.8149   -0.7058   -0.2229 O   0  0  0  0  0  0  0  0  0  0  0  0
    4.1411   -1.0137   -0.1067 C   0  0  0  0  0  0  0  0  0  0  0  0
    5.1781   -0.1091   -0.1613 C   0  0  0  0  0  0  0  0  0  0  0  0
    6.4939   -0.5001   -0.0340 C   0  0  0  0  0  0  0  0  0  0  0  0
    6.7666   -1.8311    0.1517 C   0  0  0  0  0  0  0  0  0  0  0  0
    5.7507   -2.7279    0.2062 N   0  0  0  0  0  0  0  0  0  0  0  0
    4.4590   -2.3612    0.0838 C   0  0  0  0  0  0  0  0  0  0  0  0
   -1.1330    3.3729   -1.0908 N   0  0  0  0  0  0  0  0  0  0  0  0
   -2.0359    4.3380   -1.2703 C   0  0  0  0  0  0  0  0  0  0  0  0
   -3.2844    3.8740   -0.8954 C   0  0  0  0  0  0  0  0  0  0  0  0
   -2.8892   -1.6596    2.2088 H   0  0  0  0  0  0  0  0  0  0  0  0
   -1.4119   -3.2524    0.5843 H   0  0  0  0  0  0  0  0  0  0  0  0
   -2.5777   -2.4771   -0.6014 H   0  0  0  0  0  0  0  0  0  0  0  0
   -0.5140   -1.2170   -0.2148 H   0  0  0  0  0  0  0  0  0  0  0  0
   -0.9500   -1.0794    1.5464 H   0  0  0  0  0  0  0  0  0  0  0  0
   -5.4790   -0.2395    0.2650 H   0  0  0  0  0  0  0  0  0  0  0  0
   -4.8167   -0.1822    1.8998 H   0  0  0  0  0  0  0  0  0  0  0  0
   -4.3513   -2.2702   -0.2565 H   0  0  0  0  0  0  0  0  0  0  0  0
   -5.1956   -2.4032    1.3217 H   0  0  0  0  0  0  0  0  0  0  0  0
    0.9640   -0.4786   -1.9333 H   0  0  0  0  0  0  0  0  0  0  0  0
    1.2743    1.2835   -2.1916 H   0  0  0  0  0  0  0  0  0  0  0  0
    3.0065    1.3386   -0.6065 H   0  0  0  0  0  0  0  0  0  0  0  0
    1.1124    0.1658    1.3685 H   0  0  0  0  0  0  0  0  0  0  0  0
    1.3629    1.9835    0.9336 H   0  0  0  0  0  0  0  0  0  0  0  0
    4.9680    0.9279   -0.3055 H   0  0  0  0  0  0  0  0  0  0  0  0
    7.3093    0.2376   -0.0801 H   0  0  0  0  0  0  0  0  0  0  0  0
    7.8068   -2.1097    0.2494 H   0  0  0  0  0  0  0  0  0  0  0  0
    3.6803   -3.1199    0.1351 H   0  0  0  0  0  0  0  0  0  0  0  0
   -1.8367    5.3480   -1.6556 H   0  0  0  0  0  0  0  0  0  0  0  0
   -4.2427    4.3786   -0.9080 H   0  0  0  0  0  0  0  0  0  0  0  0
  1  2  1  0
  2  3  1  0
  3  4  1  0
  4  5  1  0
  5  6  1  0
  6  7  1  0
  5  8  2  0
  8  9  1  0
  9 10  1  0
 10 11  1  0
 11 12  1  0
 12 13  1  0
 13 14  1  0
 14 15  1  0
 14 16  1  0
 16 17  1  0
 17 18  2  0
 18 19  1  0
 19 20  2  0
 20 21  1  0
 21 22  2  0
 10 23  1  0
 23 24  2  0
 24 25  1  0
  7  1  1  0
 25  9  2  0
 11  4  2  0
 15 12  1  0
 22 17  1  0
  1 26  1  0
  2 27  1  0
  2 28  1  0
  3 29  1  0
  3 30  1  0
  6 31  1  0
  6 32  1  0
  7 33  1  0
  7 34  1  0
 13 35  1  0
 13 36  1  0
 14 37  1  0
 15 38  1  0
 15 39  1  0
 18 40  1  0
 19 41  1  0
 20 42  1  0
 22 43  1  0
 24 44  1  0
 25 45  1  0
M  END
>  <Ligand ID>  (1) 
LIG0003245

>  <Ligand>  (1) 
CHEMBL1643856

>  <SMILES>  (1) 
N1CCc2c(CC1)nc1n(c2N2CC(C2)Oc2cccnc2)ncc1

>  <CID>  (1) 
53323196.0

>  <ChEMBL ID>  (1) 
nan

>  <InChiKey>  (1) 
GAFJBHLQANNUBA-UHFFFAOYSA-N

>  <InChi>  (1) 
InChI=1S/C18H20N6O/c1-2-13(10-20-6-1)25-14-11-23(12-14)18-15-3-7-19-8-4-16(15)22-17-5-9-21-24(17)18/h1-2,5-6,9-10,14,19H,3-4,7-8,11-12H2

>  <IUPAC Name>  (1) 
8-(3-pyridin-3-yloxyazetidin-1-yl)-2,6,7,12-tetrazatricyclo[7.5.0.03,7]tetradeca-1,3,5,8-tetraene

$$$$
