
     RDKit          3D

 20 19  0  0  0  0  0  0  0  0999 V2000
   -3.2060    1.0535   -0.2404 C   0  0  0  0  0  0  0  0  0  0  0  0
   -1.9687    0.2338   -0.5807 C   0  0  0  0  0  0  0  0  0  0  0  0
   -1.2405   -0.1089    0.6885 C   0  0  0  0  0  0  0  0  0  0  0  0
   -0.0143   -0.9139    0.4406 C   0  0  0  0  0  0  0  0  0  0  0  0
   -0.0371   -2.1546    0.2224 O   0  0  0  0  0  0  0  0  0  0  0  0
    1.1961   -0.2338    0.4572 O   0  0  0  0  0  0  0  0  0  0  0  0
    2.4524   -0.8201    0.2427 C   0  0  0  0  0  0  0  0  0  0  0  0
    3.4852    0.3011    0.3598 C   0  0  0  0  0  0  0  0  0  0  0  0
   -2.9012    2.1178   -0.1725 H   0  0  0  0  0  0  0  0  0  0  0  0
   -3.9812    0.8562   -1.0045 H   0  0  0  0  0  0  0  0  0  0  0  0
   -3.5624    0.6439    0.7500 H   0  0  0  0  0  0  0  0  0  0  0  0
   -1.3285    0.7917   -1.2946 H   0  0  0  0  0  0  0  0  0  0  0  0
   -2.3478   -0.6855   -1.1018 H   0  0  0  0  0  0  0  0  0  0  0  0
   -1.0268    0.8221    1.2308 H   0  0  0  0  0  0  0  0  0  0  0  0
   -1.9479   -0.6794    1.3161 H   0  0  0  0  0  0  0  0  0  0  0  0
    2.5525   -1.3156   -0.7411 H   0  0  0  0  0  0  0  0  0  0  0  0
    2.7329   -1.5698    1.0311 H   0  0  0  0  0  0  0  0  0  0  0  0
    4.4405   -0.1641    0.6166 H   0  0  0  0  0  0  0  0  0  0  0  0
    3.5114    0.8351   -0.6175 H   0  0  0  0  0  0  0  0  0  0  0  0
    3.1914    0.9906    1.1780 H   0  0  0  0  0  0  0  0  0  0  0  0
  1  2  1  0
  2  3  1  0
  3  4  1  0
  4  5  2  0
  4  6  1  0
  6  7  1  0
  7  8  1  0
  1  9  1  0
  1 10  1  0
  1 11  1  0
  2 12  1  0
  2 13  1  0
  3 14  1  0
  3 15  1  0
  7 16  1  0
  7 17  1  0
  8 18  1  0
  8 19  1  0
  8 20  1  0
M  END
>  <Ligand ID>  (1) 
LIG0000233

>  <Ligand>  (1) 
ethyl butanoate

>  <SMILES>  (1) 
CCCC(=O)OCC

>  <CID>  (1) 
7762.0

>  <ChEMBL ID>  (1) 
nan

>  <InChiKey>  (1) 
OBNCKNCVKJNDBV-UHFFFAOYSA-N

>  <InChi>  (1) 
InChI=1S/C6H12O2/c1-3-5-6(7)8-4-2/h3-5H2,1-2H3

>  <IUPAC Name>  (1) 
ethyl butanoate

$$$$
