
     RDKit          3D

 23 24  0  0  0  0  0  0  0  0999 V2000
   -3.6991   -0.1749   -1.6781 O   0  0  0  0  0  0  0  0  0  0  0  0
   -2.9853   -0.2097   -0.6593 C   0  0  0  0  0  0  0  0  0  0  0  0
   -2.3759   -1.5113   -0.3241 C   0  0  0  0  0  0  0  0  0  0  0  0
   -0.9813   -1.5012   -0.2518 O   0  0  0  0  0  0  0  0  0  0  0  0
   -0.0497   -0.5064   -0.0059 C   0  0  0  0  0  0  0  0  0  0  0  0
   -0.3199    0.8021    0.2997 C   0  0  0  0  0  0  0  0  0  0  0  0
   -1.5390    1.4168    0.4303 O   0  0  0  0  0  0  0  0  0  0  0  0
   -2.8314    1.0562    0.0959 C   0  0  0  0  0  0  0  0  0  0  0  0
    0.7144    1.7092    0.5262 C   0  0  0  0  0  0  0  0  0  0  0  0
    2.0166    1.2437    0.4318 C   0  0  0  0  0  0  0  0  0  0  0  0
    2.3090   -0.0718    0.1248 C   0  0  0  0  0  0  0  0  0  0  0  0
    1.2681   -0.9608   -0.0974 C   0  0  0  0  0  0  0  0  0  0  0  0
    3.7046   -0.5843    0.0205 C   0  0  0  0  0  0  0  0  0  0  0  0
   -2.7786   -1.8295    0.6553 H   0  0  0  0  0  0  0  0  0  0  0  0
   -2.6772   -2.2390   -1.0963 H   0  0  0  0  0  0  0  0  0  0  0  0
   -3.3394    1.8495   -0.4884 H   0  0  0  0  0  0  0  0  0  0  0  0
   -3.4248    1.0073    1.0560 H   0  0  0  0  0  0  0  0  0  0  0  0
    0.5018    2.7361    0.7660 H   0  0  0  0  0  0  0  0  0  0  0  0
    2.8605    1.9230    0.6022 H   0  0  0  0  0  0  0  0  0  0  0  0
    1.4588   -1.9983   -0.3400 H   0  0  0  0  0  0  0  0  0  0  0  0
    4.3818    0.1906    0.4372 H   0  0  0  0  0  0  0  0  0  0  0  0
    3.9616   -0.7872   -1.0431 H   0  0  0  0  0  0  0  0  0  0  0  0
    3.8243   -1.5603    0.5385 H   0  0  0  0  0  0  0  0  0  0  0  0
  1  2  2  0
  2  3  1  0
  3  4  1  0
  4  5  1  0
  5  6  2  0
  6  7  1  0
  7  8  1  0
  6  9  1  0
  9 10  2  0
 10 11  1  0
 11 12  2  0
 11 13  1  0
  8  2  1  0
 12  5  1  0
  3 14  1  0
  3 15  1  0
  8 16  1  0
  8 17  1  0
  9 18  1  0
 10 19  1  0
 12 20  1  0
 13 21  1  0
 13 22  1  0
 13 23  1  0
M  END
>  <Ligand ID>  (1) 
LIG0000214

>  <Ligand>  (1) 
calone

>  <SMILES>  (1) 
O=C1COc2c(OC1)ccc(c2)C

>  <CID>  (1) 
120101.0

>  <ChEMBL ID>  (1) 
nan

>  <InChiKey>  (1) 
SWUIQEBPZIHZQS-UHFFFAOYSA-N

>  <InChi>  (1) 
InChI=1S/C10H10O3/c1-7-2-3-9-10(4-7)13-6-8(11)5-12-9/h2-4H,5-6H2,1H3

>  <IUPAC Name>  (1) 
7-methyl-1,5-benzodioxepin-3-one

$$$$
