
     RDKit          3D

 45 46  0  0  0  0  0  0  0  0999 V2000
   -1.0411    2.3988    0.4738 O   0  0  0  0  0  0  0  0  0  0  0  0
   -0.8174    1.2565   -0.0369 C   0  0  0  0  0  0  0  0  0  0  0  0
    0.4310    0.6171    0.3584 C   0  0  0  0  0  0  0  0  0  0  0  0
    1.2638    1.2664    1.2309 C   0  0  0  0  0  0  0  0  0  0  0  0
    2.4726    0.7063    1.6471 C   0  0  0  0  0  0  0  0  0  0  0  0
    2.8271   -0.5428    1.1555 C   0  0  0  0  0  0  0  0  0  0  0  0
    2.0114   -1.2253    0.2746 C   0  0  0  0  0  0  0  0  0  0  0  0
    0.8306   -0.6204   -0.0993 C   0  0  0  0  0  0  0  0  0  0  0  0
    4.0105   -1.1411    1.5347 O   0  0  0  0  0  0  0  0  0  0  0  0
    5.1600   -0.9003    0.7775 C   0  0  0  0  0  0  0  0  0  0  0  0
    6.3703   -1.4724    1.1111 C   0  0  0  0  0  0  0  0  0  0  0  0
    7.5200   -1.2396    0.3648 C   0  0  0  0  0  0  0  0  0  0  0  0
    7.4550   -0.4137   -0.7422 C   0  0  0  0  0  0  0  0  0  0  0  0
    6.2503    0.1743   -1.0997 C   0  0  0  0  0  0  0  0  0  0  0  0
    5.1329   -0.0823   -0.3328 C   0  0  0  0  0  0  0  0  0  0  0  0
   -1.7506    0.6727   -0.9334 N   0  0  0  0  0  0  0  0  0  0  0  0
   -2.9729    1.3317   -1.3015 C   0  0  0  0  0  0  0  0  0  0  0  0
   -3.8747    1.6215   -0.1554 C   0  0  0  0  0  0  0  0  0  0  0  0
   -4.3520    0.4632    0.6350 C   0  0  0  0  0  0  0  0  0  0  0  0
   -5.1186   -0.5240   -0.0551 N   0  0  0  0  0  0  0  0  0  0  0  0
   -6.0785    0.0148   -0.9715 C   0  0  0  0  0  0  0  0  0  0  0  0
   -4.3208   -1.5316   -0.7220 C   0  0  0  0  0  0  0  0  0  0  0  0
    1.0466    2.2442    1.6523 H   0  0  0  0  0  0  0  0  0  0  0  0
    3.1280    1.2409    2.3471 H   0  0  0  0  0  0  0  0  0  0  0  0
    2.2765   -2.1984   -0.1151 H   0  0  0  0  0  0  0  0  0  0  0  0
    0.2058   -1.1695   -0.7889 H   0  0  0  0  0  0  0  0  0  0  0  0
    6.4603   -2.1177    1.9614 H   0  0  0  0  0  0  0  0  0  0  0  0
    8.4667   -1.6935    0.6344 H   0  0  0  0  0  0  0  0  0  0  0  0
    8.3280   -0.2007   -1.3586 H   0  0  0  0  0  0  0  0  0  0  0  0
    6.1655    0.8202   -1.9528 H   0  0  0  0  0  0  0  0  0  0  0  0
    4.1811    0.3588   -0.5830 H   0  0  0  0  0  0  0  0  0  0  0  0
   -1.5300   -0.2666   -1.3318 H   0  0  0  0  0  0  0  0  0  0  0  0
   -3.4889    0.7576   -2.0929 H   0  0  0  0  0  0  0  0  0  0  0  0
   -2.7719    2.3313   -1.7956 H   0  0  0  0  0  0  0  0  0  0  0  0
   -4.7864    2.1891   -0.4874 H   0  0  0  0  0  0  0  0  0  0  0  0
   -3.3716    2.3375    0.5501 H   0  0  0  0  0  0  0  0  0  0  0  0
   -3.4730   -0.0017    1.1402 H   0  0  0  0  0  0  0  0  0  0  0  0
   -5.0139    0.8586    1.4530 H   0  0  0  0  0  0  0  0  0  0  0  0
   -5.6854   -1.0670    0.6745 H   0  0  0  0  0  0  0  0  0  0  0  0
   -6.4321    0.9995   -0.6274 H   0  0  0  0  0  0  0  0  0  0  0  0
   -6.9868   -0.6371   -0.9616 H   0  0  0  0  0  0  0  0  0  0  0  0
   -5.7458   -0.0031   -2.0373 H   0  0  0  0  0  0  0  0  0  0  0  0
   -4.7371   -2.5669   -0.5382 H   0  0  0  0  0  0  0  0  0  0  0  0
   -4.3653   -1.4500   -1.8451 H   0  0  0  0  0  0  0  0  0  0  0  0
   -3.2793   -1.5952   -0.3684 H   0  0  0  0  0  0  0  0  0  0  0  0
  1  2  2  0
  2  3  1  0
  3  4  2  0
  4  5  1  0
  5  6  2  0
  6  7  1  0
  7  8  2  0
  6  9  1  0
  9 10  1  0
 10 11  2  0
 11 12  1  0
 12 13  2  0
 13 14  1  0
 14 15  2  0
  2 16  1  0
 16 17  1  0
 17 18  1  0
 18 19  1  0
 19 20  1  0
 20 21  1  0
 20 22  1  0
  8  3  1  0
 15 10  1  0
  4 23  1  0
  5 24  1  0
  7 25  1  0
  8 26  1  0
 11 27  1  0
 12 28  1  0
 13 29  1  0
 14 30  1  0
 15 31  1  0
 16 32  1  0
 17 33  1  0
 17 34  1  0
 18 35  1  0
 18 36  1  0
 19 37  1  0
 19 38  1  0
 20 39  1  0
 21 40  1  0
 21 41  1  0
 21 42  1  0
 22 43  1  0
 22 44  1  0
 22 45  1  0
M  CHG  1  20   1
M  END
>  <Ligand ID>  (1) 
LIG0005552

>  <Ligand>  (1) 
CHEMBL229185

>  <SMILES>  (1) 
O=C(c1ccc(cc1)Oc1ccccc1)NCCC[NH+](C)C

>  <CID>  (1) 
2355080.0

>  <ChEMBL ID>  (1) 
nan

>  <InChiKey>  (1) 
JJOCTOOFUKJZEG-UHFFFAOYSA-O

>  <InChi>  (1) 
InChI=1S/C18H22N2O2/c1-20(2)14-6-13-19-18(21)15-9-11-17(12-10-15)22-16-7-4-3-5-8-16/h3-5,7-12H,6,13-14H2,1-2H3,(H,19,21)/p+1

>  <IUPAC Name>  (1) 
dimethyl-[3-[(4-phenoxybenzoyl)amino]propyl]azanium

$$$$
