
     RDKit          3D

 70 68  0  0  0  0  0  0  0  0999 V2000
    1.4040   -0.4699    0.5859 O   0  0  0  0  0  0  0  0  0  0  0  0
    0.5054    0.2470   -0.1945 C   0  0  0  0  0  0  0  0  0  0  0  0
    0.8959    1.0884   -1.0529 O   0  0  0  0  0  0  0  0  0  0  0  0
   -0.9622   -0.0183    0.0228 C   0  0  0  0  0  0  0  0  0  0  0  0
   -1.2564   -1.3297   -0.2241 F   0  0  0  0  0  0  0  0  0  0  0  0
   -1.7387    0.8546   -0.6858 F   0  0  0  0  0  0  0  0  0  0  0  0
   -1.1758    0.3038    1.3689 F   0  0  0  0  0  0  0  0  0  0  0  0
   -6.2497   -2.2406   -1.3891 C   0  0  0  0  0  0  0  0  0  0  0  0
   -5.3801   -1.1428   -0.7727 C   0  0  0  0  0  0  0  0  0  0  0  0
   -5.5280    0.1452   -1.5264 C   0  0  0  0  0  0  0  0  0  0  0  0
   -4.7204    1.2889   -1.0529 C   0  0  0  0  0  0  0  0  0  0  0  0
   -4.9155    1.8635    0.2744 C   0  0  0  0  0  0  0  0  0  0  0  0
   -4.7968    1.1684    1.5262 C   0  0  0  0  0  0  0  0  0  0  0  0
   -3.6463    0.4309    2.0402 C   0  0  0  0  0  0  0  0  0  0  0  0
   -2.3811    1.1734    2.2262 C   0  0  0  0  0  0  0  0  0  0  0  0
   -1.7404    1.5997    0.9550 C   0  0  0  0  0  0  0  0  0  0  0  0
   -1.3470    0.4181    0.1259 C   0  0  0  0  0  0  0  0  0  0  0  0
   -0.3662   -0.4454    0.8729 C   0  0  0  0  0  0  0  0  0  0  0  0
    0.8626    0.3385    1.2246 C   0  0  0  0  0  0  0  0  0  0  0  0
    1.8842   -0.5040    1.9645 C   0  0  0  0  0  0  0  0  0  0  0  0
    2.3458   -1.6776    1.1673 C   0  0  0  0  0  0  0  0  0  0  0  0
    2.9598   -1.2627   -0.0651 N   0  0  0  0  0  0  0  0  0  0  0  0
    4.1095   -0.4309   -0.1457 C   0  0  0  0  0  0  0  0  0  0  0  0
    4.6882    0.0136    0.8763 O   0  0  0  0  0  0  0  0  0  0  0  0
    4.7086   -0.0285   -1.4623 C   0  0  1  0  0  0  0  0  0  0  0  0
    6.1548   -0.4031   -1.4704 C   0  0  0  0  0  0  0  0  0  0  0  0
    6.7900    0.1855   -0.3648 O   0  0  0  0  0  0  0  0  0  0  0  0
    8.4407   -0.2185   -0.3388 P   0  0  0  0  0  0  0  0  0  0  0  0
    8.5631   -1.5866    0.2822 O   0  0  0  0  0  0  0  0  0  0  0  0
    9.2919    0.8994    0.6077 O   0  0  0  0  0  0  0  0  0  0  0  0
    9.0068   -0.1922   -1.9304 O   0  0  0  0  0  0  0  0  0  0  0  0
    3.9766   -0.5861   -2.5587 N   0  0  0  0  0  0  0  0  0  0  0  0
    2.3278   -0.6760    0.1798 H   0  0  0  0  0  0  0  0  0  0  0  0
   -5.7900   -2.4774   -2.3654 H   0  0  0  0  0  0  0  0  0  0  0  0
   -7.2622   -1.8374   -1.4768 H   0  0  0  0  0  0  0  0  0  0  0  0
   -6.2028   -3.1342   -0.7456 H   0  0  0  0  0  0  0  0  0  0  0  0
   -5.7380   -1.0231    0.2583 H   0  0  0  0  0  0  0  0  0  0  0  0
   -4.3313   -1.4749   -0.7001 H   0  0  0  0  0  0  0  0  0  0  0  0
   -5.3076   -0.1025   -2.6155 H   0  0  0  0  0  0  0  0  0  0  0  0
   -6.6215    0.4415   -1.5840 H   0  0  0  0  0  0  0  0  0  0  0  0
   -5.0030    2.1515   -1.7887 H   0  0  0  0  0  0  0  0  0  0  0  0
   -3.6635    1.0947   -1.3535 H   0  0  0  0  0  0  0  0  0  0  0  0
   -6.0575    2.2029    0.2466 H   0  0  0  0  0  0  0  0  0  0  0  0
   -4.4885    2.9286    0.3526 H   0  0  0  0  0  0  0  0  0  0  0  0
   -5.7805    0.6111    1.7512 H   0  0  0  0  0  0  0  0  0  0  0  0
   -4.9865    2.0397    2.3314 H   0  0  0  0  0  0  0  0  0  0  0  0
   -3.9335    0.0717    3.0965 H   0  0  0  0  0  0  0  0  0  0  0  0
   -3.3906   -0.4893    1.4433 H   0  0  0  0  0  0  0  0  0  0  0  0
   -2.5310    2.0715    2.9176 H   0  0  0  0  0  0  0  0  0  0  0  0
   -1.6964    0.5050    2.8327 H   0  0  0  0  0  0  0  0  0  0  0  0
   -2.3579    2.2449    0.3045 H   0  0  0  0  0  0  0  0  0  0  0  0
   -0.8529    2.2521    1.1857 H   0  0  0  0  0  0  0  0  0  0  0  0
   -0.9037    0.7685   -0.8455 H   0  0  0  0  0  0  0  0  0  0  0  0
   -2.2098   -0.2425   -0.1256 H   0  0  0  0  0  0  0  0  0  0  0  0
   -0.0179   -1.2744    0.1764 H   0  0  0  0  0  0  0  0  0  0  0  0
   -0.8920   -0.8911    1.7377 H   0  0  0  0  0  0  0  0  0  0  0  0
    1.3403    0.7759    0.3285 H   0  0  0  0  0  0  0  0  0  0  0  0
    0.6487    1.1882    1.9184 H   0  0  0  0  0  0  0  0  0  0  0  0
    1.5231   -0.8604    2.9293 H   0  0  0  0  0  0  0  0  0  0  0  0
    2.7557    0.1471    2.1776 H   0  0  0  0  0  0  0  0  0  0  0  0
    3.1075   -2.2061    1.8078 H   0  0  0  0  0  0  0  0  0  0  0  0
    1.5789   -2.4228    0.9615 H   0  0  0  0  0  0  0  0  0  0  0  0
    2.5603   -1.5751   -0.9913 H   0  0  0  0  0  0  0  0  0  0  0  0
    4.6282    1.0857   -1.5476 H   0  0  0  0  0  0  0  0  0  0  0  0
    6.6403   -0.1241   -2.4158 H   0  0  0  0  0  0  0  0  0  0  0  0
    6.2802   -1.5005   -1.3533 H   0  0  0  0  0  0  0  0  0  0  0  0
    8.6790    1.6409    0.8754 H   0  0  0  0  0  0  0  0  0  0  0  0
    9.8743   -0.6764   -1.9451 H   0  0  0  0  0  0  0  0  0  0  0  0
    3.0823   -0.0963   -2.7331 H   0  0  0  0  0  0  0  0  0  0  0  0
    4.6088   -0.6190   -3.3940 H   0  0  0  0  0  0  0  0  0  0  0  0
  1  2  1  0
  2  3  2  0
  2  4  1  0
  4  5  1  0
  4  6  1  0
  4  7  1  0
  8  9  1  0
  9 10  1  0
 10 11  1  0
 11 12  1  0
 12 13  1  0
 13 14  1  0
 14 15  1  0
 15 16  1  0
 16 17  1  0
 17 18  1  0
 18 19  1  0
 19 20  1  0
 20 21  1  0
 21 22  1  0
 22 23  1  0
 23 24  2  0
 23 25  1  0
 25 26  1  0
 26 27  1  0
 27 28  1  0
 28 29  2  0
 28 30  1  0
 28 31  1  0
 25 32  1  0
  1 33  1  0
  8 34  1  0
  8 35  1  0
  8 36  1  0
  9 37  1  0
  9 38  1  0
 10 39  1  0
 10 40  1  0
 11 41  1  0
 11 42  1  0
 12 43  1  0
 12 44  1  0
 13 45  1  0
 13 46  1  0
 14 47  1  0
 14 48  1  0
 15 49  1  0
 15 50  1  0
 16 51  1  0
 16 52  1  0
 17 53  1  0
 17 54  1  0
 18 55  1  0
 18 56  1  0
 19 57  1  0
 19 58  1  0
 20 59  1  0
 20 60  1  0
 21 61  1  0
 21 62  1  0
 22 63  1  0
 25 64  1  6
 26 65  1  0
 26 66  1  0
 30 67  1  0
 31 68  1  0
 32 69  1  0
 32 70  1  0
M  END
>  <Ligand ID>  (1) 
LIG0004273

>  <Ligand>  (1) 
CHEMBL332472

>  <SMILES>  (1) 
OC(=O)C(F)(F)F.CCCCCCCCCCCCCCNC(=O)[C@@H](COP(=O)(O)O)N

>  <CID>  (1) 
44342374.0

>  <ChEMBL ID>  (1) 
nan

>  <InChiKey>  (1) 
BVDDKKFUHSGVTL-PKLMIRHRSA-N

>  <InChi>  (1) 
InChI=1S/C17H37N2O5P.C2HF3O2/c1-2-3-4-5-6-7-8-9-10-11-12-13-14-19-17(20)16(18)15-24-25(21,22)23;3-2(4,5)1(6)7/h16H,2-15,18H2,1H3,(H,19,20)(H2,21,22,23);(H,6,7)/t16-;/m1./s1

>  <IUPAC Name>  (1) 
[(2R)-2-amino-3-oxo-3-(tetradecylamino)propyl] dihydrogen phosphate;2,2,2-trifluoroacetic acid

$$$$
