
     RDKit          3D

 51 54  0  0  0  0  0  0  0  0999 V2000
   -2.3891   -0.8710   -1.9522 C   0  0  0  0  0  0  0  0  0  0  0  0
   -2.8563   -0.8097   -0.5000 C   0  0  0  0  0  0  0  0  0  0  0  0
   -3.2976   -2.1606   -0.0882 C   0  0  0  0  0  0  0  0  0  0  0  0
   -3.5745   -2.3435    1.3593 C   0  0  0  0  0  0  0  0  0  0  0  0
   -3.4760   -1.0148    2.0732 C   0  0  0  0  0  0  0  0  0  0  0  0
   -2.0805   -0.4162    1.8154 C   0  0  0  0  0  0  0  0  0  0  0  0
   -1.9687   -0.0119    0.3744 C   0  0  0  0  0  0  0  0  0  0  0  0
   -0.5999    0.1274   -0.0772 N   0  0  0  0  0  0  0  0  0  0  0  0
    0.2057   -1.0245   -0.1442 C   0  0  0  0  0  0  0  0  0  0  0  0
   -0.3299   -2.1377    0.2102 O   0  0  0  0  0  0  0  0  0  0  0  0
    1.5800   -1.1106   -0.5718 C   0  0  0  0  0  0  0  0  0  0  0  0
    1.9590   -1.7740   -1.7061 N   0  0  0  0  0  0  0  0  0  0  0  0
    3.2444   -1.7169   -1.8507 O   0  0  0  0  0  0  0  0  0  0  0  0
    3.7947   -1.0337   -0.8554 C   0  0  0  0  0  0  0  0  0  0  0  0
    2.7485   -0.6419   -0.0365 C   0  0  0  0  0  0  0  0  0  0  0  0
    5.2389   -0.7994   -0.7456 C   0  0  0  0  0  0  0  0  0  0  0  0
    5.8637   -0.0062    0.3116 C   0  0  0  0  0  0  0  0  0  0  0  0
    5.9057   -1.5232    0.4163 C   0  0  0  0  0  0  0  0  0  0  0  0
   -0.0006    1.3868   -0.4549 C   0  0  0  0  0  0  0  0  0  0  0  0
   -0.6818    2.2391   -1.4193 C   0  0  0  0  0  0  0  0  0  0  0  0
   -1.0472    3.5064   -0.7440 C   0  0  0  0  0  0  0  0  0  0  0  0
    0.0284    3.6587    0.3033 C   0  0  0  0  0  0  0  0  0  0  0  0
    0.1067    2.2277    0.8222 C   0  0  0  0  0  0  0  0  0  0  0  0
   -2.8464   -0.0789   -2.5745 H   0  0  0  0  0  0  0  0  0  0  0  0
   -2.7415   -1.8436   -2.3619 H   0  0  0  0  0  0  0  0  0  0  0  0
   -1.3020   -0.8441   -2.0503 H   0  0  0  0  0  0  0  0  0  0  0  0
   -3.8332   -0.2012   -0.5838 H   0  0  0  0  0  0  0  0  0  0  0  0
   -4.3226   -2.3000   -0.5920 H   0  0  0  0  0  0  0  0  0  0  0  0
   -2.7288   -3.0121   -0.5362 H   0  0  0  0  0  0  0  0  0  0  0  0
   -2.8106   -3.0243    1.7978 H   0  0  0  0  0  0  0  0  0  0  0  0
   -4.5598   -2.7722    1.6020 H   0  0  0  0  0  0  0  0  0  0  0  0
   -4.2475   -0.3022    1.7740 H   0  0  0  0  0  0  0  0  0  0  0  0
   -3.5572   -1.1975    3.1509 H   0  0  0  0  0  0  0  0  0  0  0  0
   -2.0201    0.4210    2.5354 H   0  0  0  0  0  0  0  0  0  0  0  0
   -1.3284   -1.1519    2.1276 H   0  0  0  0  0  0  0  0  0  0  0  0
   -2.4117    1.0514    0.3673 H   0  0  0  0  0  0  0  0  0  0  0  0
    2.8185   -0.0764    0.8582 H   0  0  0  0  0  0  0  0  0  0  0  0
    5.8027   -1.0119   -1.7024 H   0  0  0  0  0  0  0  0  0  0  0  0
    5.2604    0.5527    1.0394 H   0  0  0  0  0  0  0  0  0  0  0  0
    6.8376    0.4904    0.0577 H   0  0  0  0  0  0  0  0  0  0  0  0
    5.2560   -2.0102    1.1555 H   0  0  0  0  0  0  0  0  0  0  0  0
    6.8653   -2.0475    0.2654 H   0  0  0  0  0  0  0  0  0  0  0  0
    1.0700    1.1738   -0.7595 H   0  0  0  0  0  0  0  0  0  0  0  0
    0.0903    2.5342   -2.2085 H   0  0  0  0  0  0  0  0  0  0  0  0
   -1.4974    1.8088   -2.0344 H   0  0  0  0  0  0  0  0  0  0  0  0
   -1.0800    4.3837   -1.4307 H   0  0  0  0  0  0  0  0  0  0  0  0
   -2.0117    3.3641   -0.2159 H   0  0  0  0  0  0  0  0  0  0  0  0
    0.9713    3.8754   -0.2045 H   0  0  0  0  0  0  0  0  0  0  0  0
   -0.2368    4.3572    1.1235 H   0  0  0  0  0  0  0  0  0  0  0  0
   -0.7938    2.1126    1.4514 H   0  0  0  0  0  0  0  0  0  0  0  0
    0.9836    1.9983    1.4087 H   0  0  0  0  0  0  0  0  0  0  0  0
  1  2  1  0
  2  3  1  0
  3  4  1  0
  4  5  1  0
  5  6  1  0
  6  7  1  0
  7  8  1  0
  8  9  1  0
  9 10  2  0
  9 11  1  0
 11 12  2  0
 12 13  1  0
 13 14  1  0
 14 15  2  0
 14 16  1  0
 16 17  1  0
 17 18  1  0
  8 19  1  0
 19 20  1  0
 20 21  1  0
 21 22  1  0
 22 23  1  0
  7  2  1  0
 15 11  1  0
 18 16  1  0
 23 19  1  0
  1 24  1  0
  1 25  1  0
  1 26  1  0
  2 27  1  0
  3 28  1  0
  3 29  1  0
  4 30  1  0
  4 31  1  0
  5 32  1  0
  5 33  1  0
  6 34  1  0
  6 35  1  0
  7 36  1  0
 15 37  1  0
 16 38  1  0
 17 39  1  0
 17 40  1  0
 18 41  1  0
 18 42  1  0
 19 43  1  0
 20 44  1  0
 20 45  1  0
 21 46  1  0
 21 47  1  0
 22 48  1  0
 22 49  1  0
 23 50  1  0
 23 51  1  0
M  END
>  <Ligand ID>  (1) 
LIG0001742

>  <Ligand>  (1) 
CHEMBL1995815

>  <SMILES>  (1) 
CC1CCCCC1N(C(=O)c1noc(c1)C1CC1)C1CCCC1

>  <CID>  (1) 
25110510.0

>  <ChEMBL ID>  (1) 
nan

>  <InChiKey>  (1) 
HMRCUYGASMXTND-UHFFFAOYSA-N

>  <InChi>  (1) 
InChI=1S/C19H28N2O2/c1-13-6-2-5-9-17(13)21(15-7-3-4-8-15)19(22)16-12-18(23-20-16)14-10-11-14/h12-15,17H,2-11H2,1H3

>  <IUPAC Name>  (1) 
N-cyclopentyl-5-cyclopropyl-N-(2-methylcyclohexyl)-1,2-oxazole-3-carboxamide

$$$$
