
     RDKit          3D

 36 38  0  0  0  0  0  0  0  0999 V2000
    7.2202   -1.7428   -1.0425 Cl  0  0  0  0  0  0  0  0  0  0  0  0
    5.8205   -0.8248   -0.5024 C   0  0  0  0  0  0  0  0  0  0  0  0
    5.8585    0.5377   -0.3294 C   0  0  0  0  0  0  0  0  0  0  0  0
    4.7369    1.2538    0.0979 C   0  0  0  0  0  0  0  0  0  0  0  0
    3.5479    0.5653    0.3548 C   0  0  0  0  0  0  0  0  0  0  0  0
    3.5410   -0.8009    0.1723 C   0  0  0  0  0  0  0  0  0  0  0  0
    4.6537   -1.5132   -0.2518 C   0  0  0  0  0  0  0  0  0  0  0  0
    2.3768    1.2546    0.8147 C   0  0  0  0  0  0  0  0  0  0  0  0
    2.5702    2.3116    1.5170 O   0  0  0  0  0  0  0  0  0  0  0  0
    0.9984    0.8911    0.5770 C   0  0  0  0  0  0  0  0  0  0  0  0
    0.5647    0.1348   -0.4833 C   0  0  0  0  0  0  0  0  0  0  0  0
   -0.7563   -0.2133   -0.6887 C   0  0  0  0  0  0  0  0  0  0  0  0
   -1.1590   -0.9756   -1.7671 O   0  0  0  0  0  0  0  0  0  0  0  0
   -1.7313    0.2004    0.1972 C   0  0  0  0  0  0  0  0  0  0  0  0
   -1.3239    0.9730    1.2904 C   0  0  0  0  0  0  0  0  0  0  0  0
    0.0014    1.3053    1.4695 C   0  0  0  0  0  0  0  0  0  0  0  0
   -2.2249    1.4375    2.2383 O   0  0  0  0  0  0  0  0  0  0  0  0
   -3.1344   -0.0983    0.0758 C   0  0  0  0  0  0  0  0  0  0  0  0
   -4.0386    0.7383   -0.5941 C   0  0  0  0  0  0  0  0  0  0  0  0
   -5.3708    0.3491   -0.6575 C   0  0  0  0  0  0  0  0  0  0  0  0
   -6.5610    1.3621   -1.4891 Cl  0  0  0  0  0  0  0  0  0  0  0  0
   -5.7849   -0.8469   -0.0649 C   0  0  0  0  0  0  0  0  0  0  0  0
   -4.9014   -1.6736    0.5947 C   0  0  0  0  0  0  0  0  0  0  0  0
   -3.5847   -1.2823    0.6537 C   0  0  0  0  0  0  0  0  0  0  0  0
   -5.4059   -3.1861    1.3474 Cl  0  0  0  0  0  0  0  0  0  0  0  0
    6.7582    1.0863   -0.5205 H   0  0  0  0  0  0  0  0  0  0  0  0
    4.7864    2.3486    0.2299 H   0  0  0  0  0  0  0  0  0  0  0  0
    2.6347   -1.3532    0.3706 H   0  0  0  0  0  0  0  0  0  0  0  0
    4.5704   -2.5928   -0.3715 H   0  0  0  0  0  0  0  0  0  0  0  0
    1.2802   -0.2185   -1.2152 H   0  0  0  0  0  0  0  0  0  0  0  0
   -0.6163   -0.9602   -2.6225 H   0  0  0  0  0  0  0  0  0  0  0  0
    0.2906    1.9150    2.3408 H   0  0  0  0  0  0  0  0  0  0  0  0
   -2.2362    1.0661    3.1806 H   0  0  0  0  0  0  0  0  0  0  0  0
   -3.6868    1.6545   -1.0382 H   0  0  0  0  0  0  0  0  0  0  0  0
   -6.8209   -1.1743   -0.0973 H   0  0  0  0  0  0  0  0  0  0  0  0
   -2.8734   -1.9281    1.1739 H   0  0  0  0  0  0  0  0  0  0  0  0
  1  2  1  0
  2  3  2  0
  3  4  1  0
  4  5  2  0
  5  6  1  0
  6  7  2  0
  5  8  1  0
  8  9  2  0
  8 10  1  0
 10 11  2  0
 11 12  1  0
 12 13  1  0
 12 14  2  0
 14 15  1  0
 15 16  2  0
 15 17  1  0
 14 18  1  0
 18 19  2  0
 19 20  1  0
 20 21  1  0
 20 22  2  0
 22 23  1  0
 23 24  2  0
 23 25  1  0
  7  2  1  0
 16 10  1  0
 24 18  1  0
  3 26  1  0
  4 27  1  0
  6 28  1  0
  7 29  1  0
 11 30  1  0
 13 31  1  0
 16 32  1  0
 17 33  1  0
 19 34  1  0
 22 35  1  0
 24 36  1  0
M  END
>  <Ligand ID>  (1) 
LIG0005881

>  <Ligand>  (1) 
CHEMBL3605047

>  <SMILES>  (1) 
Clc1ccc(cc1)C(=O)c1cc(O)c(c(c1)O)c1cc(Cl)cc(c1)Cl

>  <CID>  (1) 
122186220.0

>  <ChEMBL ID>  (1) 
nan

>  <InChiKey>  (1) 
PGMWLKMBZCWBDW-UHFFFAOYSA-N

>  <InChi>  (1) 
InChI=1S/C19H11Cl3O3/c20-13-3-1-10(2-4-13)19(25)12-7-16(23)18(17(24)8-12)11-5-14(21)9-15(22)6-11/h1-9,23-24H

>  <IUPAC Name>  (1) 
(4-chlorophenyl)-[4-(3,5-dichlorophenyl)-3,5-dihydroxyphenyl]methanone

$$$$
