
     RDKit          3D

221227  0  0  0  0  0  0  0  0999 V2000
    6.8425   -3.8284    1.5967 C   0  0  0  0  0  0  0  0  0  0  0  0
    6.8599   -4.3399    0.1730 C   0  0  0  0  0  0  0  0  0  0  0  0
    6.6909   -3.2096   -0.8496 C   0  0  0  0  0  0  0  0  0  0  0  0
    5.3928   -2.5235   -0.6230 C   0  0  0  0  0  0  0  0  0  0  0  0
    5.2221   -1.3724   -1.6299 C   0  0  1  0  0  0  0  0  0  0  0  0
    3.9310   -0.6999   -1.4048 C   0  0  0  0  0  0  0  0  0  0  0  0
    2.9186   -1.2147   -2.0089 O   0  0  0  0  0  0  0  0  0  0  0  0
    3.6870    0.4234   -0.6071 N   0  0  0  0  0  0  0  0  0  0  0  0
    2.4316    1.0898   -0.3971 C   0  0  2  0  0  0  0  0  0  0  0  0
    2.5869    2.4987    0.0122 C   0  0  0  0  0  0  0  0  0  0  0  0
    1.0258    3.4315    0.1434 S   0  0  0  0  0  0  0  0  0  0  0  0
    0.1705    3.7330   -1.7610 S   0  0  0  0  0  0  0  0  0  0  0  0
   -0.9542    2.4167   -2.1622 C   0  0  0  0  0  0  0  0  0  0  0  0
   -2.2711    2.3869   -1.5585 C   0  0  1  0  0  0  0  0  0  0  0  0
   -2.9306    1.1246   -1.8424 N   0  0  0  0  0  0  0  0  0  0  0  0
   -2.8216   -0.0438   -1.0183 C   0  0  0  0  0  0  0  0  0  0  0  0
   -1.9281   -0.0550   -0.1864 O   0  0  0  0  0  0  0  0  0  0  0  0
   -3.8042   -1.1889   -1.2315 C   0  0  1  0  0  0  0  0  0  0  0  0
   -3.5526   -2.2362   -0.3050 N   0  0  0  0  0  0  0  0  0  0  0  0
   -4.2073   -3.4904   -0.1912 C   0  0  0  0  0  0  0  0  0  0  0  0
   -5.1790   -3.6773   -0.9062 O   0  0  0  0  0  0  0  0  0  0  0  0
   -3.7377   -4.5519    0.7895 C   0  0  1  0  0  0  0  0  0  0  0  0
   -2.2858   -4.7038    0.6622 N   0  0  0  0  0  0  0  0  0  0  0  0
   -1.8454   -5.8871    0.0007 C   0  0  0  0  0  0  0  0  0  0  0  0
   -2.7490   -6.6598   -0.3667 O   0  0  0  0  0  0  0  0  0  0  0  0
   -0.4531   -6.2671   -0.2838 C   0  0  2  0  0  0  0  0  0  0  0  0
    0.5320   -5.4273    0.3759 N   0  0  0  0  0  0  0  0  0  0  0  0
    1.6527   -6.0426    1.0966 C   0  0  0  0  0  0  0  0  0  0  0  0
    1.6524   -7.2711    0.9908 O   0  0  0  0  0  0  0  0  0  0  0  0
    2.6290   -5.2219    1.8394 C   0  0  1  0  0  0  0  0  0  0  0  0
    2.3255   -3.8262    1.6138 N   0  0  0  0  0  0  0  0  0  0  0  0
    1.4135   -3.0245    2.3310 C   0  0  0  0  0  0  0  0  0  0  0  0
    0.7941   -3.5853    3.2464 O   0  0  0  0  0  0  0  0  0  0  0  0
    1.1339   -1.5981    2.0746 C   0  0  0  0  0  0  0  0  0  0  0  0
    1.9641   -0.9924    1.0501 N   0  0  0  0  0  0  0  0  0  0  0  0
    1.6404    0.3348    0.6563 C   0  0  0  0  0  0  0  0  0  0  0  0
    0.6667    0.8416    1.2219 O   0  0  0  0  0  0  0  0  0  0  0  0
    2.6856   -5.6003    3.3166 C   0  0  0  0  0  0  0  0  0  0  0  0
    3.0826   -7.0448    3.3762 C   0  0  0  0  0  0  0  0  0  0  0  0
    2.2412   -8.1560    3.4547 C   0  0  0  0  0  0  0  0  0  0  0  0
    2.9714   -9.2697    3.5148 N   0  0  0  0  0  0  0  0  0  0  0  0
    4.2644   -8.9290    3.4773 C   0  0  0  0  0  0  0  0  0  0  0  0
    4.3290   -7.5676    3.3948 N   0  0  0  0  0  0  0  0  0  0  0  0
   -0.2345   -6.2401   -1.8032 C   0  0  0  0  0  0  0  0  0  0  0  0
   -1.1644   -7.1632   -2.5117 C   0  0  0  0  0  0  0  0  0  0  0  0
   -0.8275   -8.4871   -2.6836 C   0  0  0  0  0  0  0  0  0  0  0  0
   -1.7001   -9.3526   -3.3553 C   0  0  0  0  0  0  0  0  0  0  0  0
   -2.9134   -8.9066   -3.8596 C   0  0  0  0  0  0  0  0  0  0  0  0
   -3.2320   -7.5644   -3.6729 C   0  0  0  0  0  0  0  0  0  0  0  0
   -2.3877   -6.7051   -3.0188 C   0  0  0  0  0  0  0  0  0  0  0  0
   -4.0719   -4.0596    2.1854 C   0  0  0  0  0  0  0  0  0  0  0  0
   -3.6138   -5.0262    3.2159 C   0  0  0  0  0  0  0  0  0  0  0  0
   -4.2121   -6.3872    3.1704 C   0  0  0  0  0  0  0  0  0  0  0  0
   -5.6134   -6.4211    3.3997 N   0  0  0  0  0  0  0  0  0  0  0  0
   -6.4135   -7.0146    2.5893 C   0  0  0  0  0  0  0  0  0  0  0  0
   -7.8031   -6.9583    2.9713 N   0  0  0  0  0  0  0  0  0  0  0  0
   -5.9792   -7.6850    1.4130 N   0  0  0  0  0  0  0  0  0  0  0  0
   -5.1245   -0.4503   -1.0117 C   0  0  0  0  0  0  0  0  0  0  0  0
   -6.3771   -1.1239   -1.1526 C   0  0  0  0  0  0  0  0  0  0  0  0
   -7.3253   -1.4852   -0.1762 C   0  0  0  0  0  0  0  0  0  0  0  0
   -8.3690   -2.0085   -0.8260 N   0  0  0  0  0  0  0  0  0  0  0  0
   -8.1843   -2.0191   -2.1556 C   0  0  0  0  0  0  0  0  0  0  0  0
   -6.9502   -1.4755   -2.3717 C   0  0  0  0  0  0  0  0  0  0  0  0
   -6.4870   -1.3635   -3.6892 C   0  0  0  0  0  0  0  0  0  0  0  0
   -7.2359   -1.7812   -4.7599 C   0  0  0  0  0  0  0  0  0  0  0  0
   -8.4795   -2.3268   -4.5490 C   0  0  0  0  0  0  0  0  0  0  0  0
   -8.9390   -2.4389   -3.2336 C   0  0  0  0  0  0  0  0  0  0  0  0
   -2.5258    2.8363   -0.1836 C   0  0  0  0  0  0  0  0  0  0  0  0
   -2.9330    2.0692    0.7456 O   0  0  0  0  0  0  0  0  0  0  0  0
   -2.3501    4.2112    0.2421 N   0  0  0  0  0  0  0  0  0  0  0  0
   -2.6190    4.6239    1.6055 C   0  0  2  0  0  0  0  0  0  0  0  0
   -3.9942    4.8619    1.9969 C   0  0  0  0  0  0  0  0  0  0  0  0
   -4.2019    4.8925    3.2810 O   0  0  0  0  0  0  0  0  0  0  0  0
   -5.1533    5.0586    1.2256 N   0  0  0  0  0  0  0  0  0  0  0  0
   -6.4746    5.1995    1.7629 C   0  0  2  0  0  0  0  0  0  0  0  0
   -7.5693    4.8365    0.8393 C   0  0  0  0  0  0  0  0  0  0  0  0
   -8.7558    5.0281    1.2832 O   0  0  0  0  0  0  0  0  0  0  0  0
   -7.4533    4.3201   -0.4442 N   0  0  0  0  0  0  0  0  0  0  0  0
   -8.5799    3.9780   -1.3160 C   0  0  0  0  0  0  0  0  0  0  0  0
   -9.4260    5.1497   -1.6284 C   0  0  0  0  0  0  0  0  0  0  0  0
  -10.4458    5.0115   -2.3720 O   0  0  0  0  0  0  0  0  0  0  0  0
   -9.1799    6.4603   -1.1492 N   0  0  0  0  0  0  0  0  0  0  0  0
   -6.7935    6.3599    2.6225 C   0  0  0  0  0  0  0  0  0  0  0  0
   -6.6780    7.7161    2.1266 C   0  0  0  0  0  0  0  0  0  0  0  0
   -7.6566    8.3695    1.4068 C   0  0  0  0  0  0  0  0  0  0  0  0
   -7.5054    9.6912    1.0187 C   0  0  0  0  0  0  0  0  0  0  0  0
   -6.3913   10.4225    1.3184 C   0  0  0  0  0  0  0  0  0  0  0  0
   -5.4035    9.7695    2.0424 C   0  0  0  0  0  0  0  0  0  0  0  0
   -5.5408    8.4688    2.4301 C   0  0  0  0  0  0  0  0  0  0  0  0
   -1.5551    5.5492    2.1069 C   0  0  0  0  0  0  0  0  0  0  0  0
   -1.3299    6.7643    1.2748 C   0  0  0  0  0  0  0  0  0  0  0  0
   -2.5192    7.6468    1.1496 C   0  0  0  0  0  0  0  0  0  0  0  0
   -2.2328    8.7877    0.2747 N   0  0  0  0  0  0  0  0  0  0  0  0
   -3.0118    9.0390   -0.7445 C   0  0  0  0  0  0  0  0  0  0  0  0
   -4.1501    8.2418   -1.0540 N   0  0  0  0  0  0  0  0  0  0  0  0
   -2.7357   10.1459   -1.5952 N   0  0  0  0  0  0  0  0  0  0  0  0
    6.3533   -0.4656   -1.5001 N   0  0  0  0  0  0  0  0  0  0  0  0
    6.9391   -0.0212   -2.6993 C   0  0  0  0  0  0  0  0  0  0  0  0
    6.3697   -0.4716   -3.7791 O   0  0  0  0  0  0  0  0  0  0  0  0
    8.0722    0.8542   -2.9457 C   0  0  2  0  0  0  0  0  0  0  0  0
    9.0221    0.0742   -3.9058 C   0  0  0  0  0  0  0  0  0  0  0  0
   10.1932    0.9808   -4.1715 C   0  0  0  0  0  0  0  0  0  0  0  0
    9.4056   -1.1900   -3.1848 C   0  0  0  0  0  0  0  0  0  0  0  0
    8.8944    1.2446   -1.8527 N   0  0  0  0  0  0  0  0  0  0  0  0
    9.2815    2.6320   -1.7765 C   0  0  0  0  0  0  0  0  0  0  0  0
    8.8493    3.4566   -2.6629 O   0  0  0  0  0  0  0  0  0  0  0  0
   10.1596    3.1975   -0.7577 C   0  0  2  0  0  0  0  0  0  0  0  0
    9.6868    3.0836    0.6716 C   0  0  0  0  0  0  0  0  0  0  0  0
   10.7673    3.7353    1.5187 C   0  0  0  0  0  0  0  0  0  0  0  0
   11.8247    2.9321    1.9489 C   0  0  0  0  0  0  0  0  0  0  0  0
   12.8262    3.5074    2.6999 C   0  0  0  0  0  0  0  0  0  0  0  0
   12.8013    4.8662    3.0371 C   0  0  0  0  0  0  0  0  0  0  0  0
   11.7501    5.6290    2.6015 C   0  0  0  0  0  0  0  0  0  0  0  0
   10.7105    5.0761    1.8322 C   0  0  0  0  0  0  0  0  0  0  0  0
   13.8439    5.3736    3.7956 O   0  0  0  0  0  0  0  0  0  0  0  0
   10.3344    4.6094   -1.0623 N   0  0  0  0  0  0  0  0  0  0  0  0
    5.8025   -3.8908    1.9791 H   0  0  0  0  0  0  0  0  0  0  0  0
    7.2856   -2.8096    1.6855 H   0  0  0  0  0  0  0  0  0  0  0  0
    7.4548   -4.5525    2.2145 H   0  0  0  0  0  0  0  0  0  0  0  0
    6.0621   -5.0714    0.0435 H   0  0  0  0  0  0  0  0  0  0  0  0
    7.8771   -4.7962    0.0094 H   0  0  0  0  0  0  0  0  0  0  0  0
    6.7381   -3.7351   -1.8337 H   0  0  0  0  0  0  0  0  0  0  0  0
    7.5736   -2.5456   -0.7871 H   0  0  0  0  0  0  0  0  0  0  0  0
    4.5769   -3.2590   -0.8341 H   0  0  0  0  0  0  0  0  0  0  0  0
    5.2820   -2.0966    0.3801 H   0  0  0  0  0  0  0  0  0  0  0  0
    5.2137   -1.8131   -2.6240 H   0  0  0  0  0  0  0  0  0  0  0  0
    4.5401    0.8201   -0.0985 H   0  0  0  0  0  0  0  0  0  0  0  0
    1.8400    0.9948   -1.3607 H   0  0  0  0  0  0  0  0  0  0  0  0
    3.2390    3.0597   -0.7178 H   0  0  0  0  0  0  0  0  0  0  0  0
    3.0624    2.5040    1.0249 H   0  0  0  0  0  0  0  0  0  0  0  0
   -1.1146    2.4336   -3.2971 H   0  0  0  0  0  0  0  0  0  0  0  0
   -0.4408    1.4277   -1.9828 H   0  0  0  0  0  0  0  0  0  0  0  0
   -2.9272    3.1295   -2.1930 H   0  0  0  0  0  0  0  0  0  0  0  0
   -3.5035    1.0039   -2.6842 H   0  0  0  0  0  0  0  0  0  0  0  0
   -3.8532   -1.5435   -2.2410 H   0  0  0  0  0  0  0  0  0  0  0  0
   -2.7996   -2.0916    0.4077 H   0  0  0  0  0  0  0  0  0  0  0  0
   -4.3167   -5.4319    0.5725 H   0  0  0  0  0  0  0  0  0  0  0  0
   -1.5748   -4.0765    0.9873 H   0  0  0  0  0  0  0  0  0  0  0  0
   -0.2668   -7.3336    0.0027 H   0  0  0  0  0  0  0  0  0  0  0  0
    0.5492   -4.4130    0.4081 H   0  0  0  0  0  0  0  0  0  0  0  0
    3.6808   -5.4487    1.4924 H   0  0  0  0  0  0  0  0  0  0  0  0
    2.8229   -3.3522    0.8522 H   0  0  0  0  0  0  0  0  0  0  0  0
    0.0776   -1.5466    1.6766 H   0  0  0  0  0  0  0  0  0  0  0  0
    1.1897   -1.0579    3.0435 H   0  0  0  0  0  0  0  0  0  0  0  0
    2.7720   -1.4048    0.6029 H   0  0  0  0  0  0  0  0  0  0  0  0
    3.4380   -4.9979    3.8195 H   0  0  0  0  0  0  0  0  0  0  0  0
    1.7034   -5.5450    3.8189 H   0  0  0  0  0  0  0  0  0  0  0  0
    1.1580   -8.1556    3.4768 H   0  0  0  0  0  0  0  0  0  0  0  0
    2.6349  -10.2709    3.5833 H   0  0  0  0  0  0  0  0  0  0  0  0
    5.1265   -9.6062    3.5069 H   0  0  0  0  0  0  0  0  0  0  0  0
    0.7958   -6.3937   -2.0876 H   0  0  0  0  0  0  0  0  0  0  0  0
   -0.5170   -5.2154   -2.1566 H   0  0  0  0  0  0  0  0  0  0  0  0
    0.1224   -8.8367   -2.2903 H   0  0  0  0  0  0  0  0  0  0  0  0
   -1.3971  -10.3727   -3.4495 H   0  0  0  0  0  0  0  0  0  0  0  0
   -3.6106   -9.5274   -4.3875 H   0  0  0  0  0  0  0  0  0  0  0  0
   -4.1840   -7.2259   -4.0704 H   0  0  0  0  0  0  0  0  0  0  0  0
   -2.6806   -5.6696   -2.9112 H   0  0  0  0  0  0  0  0  0  0  0  0
   -5.1782   -3.9711    2.2299 H   0  0  0  0  0  0  0  0  0  0  0  0
   -3.6146   -3.0782    2.4128 H   0  0  0  0  0  0  0  0  0  0  0  0
   -2.4958   -5.1688    3.1656 H   0  0  0  0  0  0  0  0  0  0  0  0
   -3.8559   -4.6203    4.2454 H   0  0  0  0  0  0  0  0  0  0  0  0
   -3.9618   -6.9701    2.2597 H   0  0  0  0  0  0  0  0  0  0  0  0
   -3.7280   -6.9649    4.0106 H   0  0  0  0  0  0  0  0  0  0  0  0
   -8.5546   -6.5953    2.3643 H   0  0  0  0  0  0  0  0  0  0  0  0
   -7.9939   -7.3247    3.9357 H   0  0  0  0  0  0  0  0  0  0  0  0
   -6.2100   -7.2727    0.4800 H   0  0  0  0  0  0  0  0  0  0  0  0
   -5.4481   -8.5807    1.4331 H   0  0  0  0  0  0  0  0  0  0  0  0
   -5.1023    0.3723   -1.7877 H   0  0  0  0  0  0  0  0  0  0  0  0
   -5.0294    0.1491   -0.0455 H   0  0  0  0  0  0  0  0  0  0  0  0
   -7.1763   -1.3500    0.9089 H   0  0  0  0  0  0  0  0  0  0  0  0
   -9.2220   -2.3652   -0.3459 H   0  0  0  0  0  0  0  0  0  0  0  0
   -5.5101   -0.9386   -3.9112 H   0  0  0  0  0  0  0  0  0  0  0  0
   -6.8612   -1.6945   -5.7864 H   0  0  0  0  0  0  0  0  0  0  0  0
   -9.1123   -2.6667   -5.3511 H   0  0  0  0  0  0  0  0  0  0  0  0
   -9.9346   -2.8601   -3.0670 H   0  0  0  0  0  0  0  0  0  0  0  0
   -2.0233    4.9489   -0.4199 H   0  0  0  0  0  0  0  0  0  0  0  0
   -2.3765    3.6117    2.1797 H   0  0  0  0  0  0  0  0  0  0  0  0
   -5.0133    5.1047    0.1862 H   0  0  0  0  0  0  0  0  0  0  0  0
   -6.4869    4.3111    2.5550 H   0  0  0  0  0  0  0  0  0  0  0  0
   -6.4862    4.1602   -0.8299 H   0  0  0  0  0  0  0  0  0  0  0  0
   -8.2124    3.5049   -2.2612 H   0  0  0  0  0  0  0  0  0  0  0  0
   -9.2442    3.2379   -0.8152 H   0  0  0  0  0  0  0  0  0  0  0  0
   -9.9686    7.0229   -0.7267 H   0  0  0  0  0  0  0  0  0  0  0  0
   -8.2008    6.8149   -1.2330 H   0  0  0  0  0  0  0  0  0  0  0  0
   -7.8598    6.1981    3.0350 H   0  0  0  0  0  0  0  0  0  0  0  0
   -6.1699    6.2240    3.5729 H   0  0  0  0  0  0  0  0  0  0  0  0
   -8.5359    7.8064    1.1603 H   0  0  0  0  0  0  0  0  0  0  0  0
   -8.3417   10.1259    0.4513 H   0  0  0  0  0  0  0  0  0  0  0  0
   -6.2836   11.4672    1.0072 H   0  0  0  0  0  0  0  0  0  0  0  0
   -4.5277   10.3517    2.2867 H   0  0  0  0  0  0  0  0  0  0  0  0
   -4.7915    7.9331    3.0070 H   0  0  0  0  0  0  0  0  0  0  0  0
   -1.8187    5.8110    3.1595 H   0  0  0  0  0  0  0  0  0  0  0  0
   -0.5924    4.9570    2.1884 H   0  0  0  0  0  0  0  0  0  0  0  0
   -0.9046    6.4823    0.2636 H   0  0  0  0  0  0  0  0  0  0  0  0
   -0.4703    7.3478    1.7344 H   0  0  0  0  0  0  0  0  0  0  0  0
   -3.4517    7.1568    0.8580 H   0  0  0  0  0  0  0  0  0  0  0  0
   -2.6761    8.1261    2.1591 H   0  0  0  0  0  0  0  0  0  0  0  0
   -4.1330    7.1897   -1.0617 H   0  0  0  0  0  0  0  0  0  0  0  0
   -5.0673    8.6666   -1.2835 H   0  0  0  0  0  0  0  0  0  0  0  0
   -3.3861   10.9535   -1.6620 H   0  0  0  0  0  0  0  0  0  0  0  0
   -1.8453   10.1016   -2.1504 H   0  0  0  0  0  0  0  0  0  0  0  0
    6.7579   -0.1316   -0.6120 H   0  0  0  0  0  0  0  0  0  0  0  0
    7.7566    1.7892   -3.5067 H   0  0  0  0  0  0  0  0  0  0  0  0
    8.4505   -0.1167   -4.8278 H   0  0  0  0  0  0  0  0  0  0  0  0
   10.6645    1.2131   -3.2069 H   0  0  0  0  0  0  0  0  0  0  0  0
   10.9383    0.4730   -4.8456 H   0  0  0  0  0  0  0  0  0  0  0  0
    9.8154    1.8739   -4.6912 H   0  0  0  0  0  0  0  0  0  0  0  0
    9.9114   -1.8924   -3.8999 H   0  0  0  0  0  0  0  0  0  0  0  0
   10.0632   -0.9241   -2.3331 H   0  0  0  0  0  0  0  0  0  0  0  0
    8.4498   -1.6309   -2.8232 H   0  0  0  0  0  0  0  0  0  0  0  0
    9.2464    0.6245   -1.0958 H   0  0  0  0  0  0  0  0  0  0  0  0
   11.1751    2.7291   -0.7891 H   0  0  0  0  0  0  0  0  0  0  0  0
    8.7736    3.6742    0.8632 H   0  0  0  0  0  0  0  0  0  0  0  0
    9.5573    2.0252    0.9603 H   0  0  0  0  0  0  0  0  0  0  0  0
   11.8749    1.8895    1.7041 H   0  0  0  0  0  0  0  0  0  0  0  0
   13.6673    2.9216    3.0490 H   0  0  0  0  0  0  0  0  0  0  0  0
   11.7458    6.6778    2.8567 H   0  0  0  0  0  0  0  0  0  0  0  0
    9.8898    5.7147    1.5084 H   0  0  0  0  0  0  0  0  0  0  0  0
   14.7725    5.5085    3.3634 H   0  0  0  0  0  0  0  0  0  0  0  0
   11.1474    4.6825   -1.7200 H   0  0  0  0  0  0  0  0  0  0  0  0
    9.4668    4.9530   -1.5390 H   0  0  0  0  0  0  0  0  0  0  0  0
  1  2  1  0
  2  3  1  0
  3  4  1  0
  4  5  1  0
  5  6  1  0
  6  7  2  0
  6  8  1  0
  8  9  1  0
  9 10  1  0
 10 11  1  0
 11 12  1  0
 12 13  1  0
 13 14  1  0
 14 15  1  0
 15 16  1  0
 16 17  2  0
 16 18  1  0
 18 19  1  0
 19 20  1  0
 20 21  2  0
 20 22  1  0
 22 23  1  0
 23 24  1  0
 24 25  2  0
 24 26  1  0
 26 27  1  0
 27 28  1  0
 28 29  2  0
 28 30  1  0
 30 31  1  0
 31 32  1  0
 32 33  2  0
 32 34  1  0
 34 35  1  0
 35 36  1  0
 36 37  2  0
 30 38  1  0
 38 39  1  0
 39 40  2  0
 40 41  1  0
 41 42  1  0
 42 43  2  0
 26 44  1  0
 44 45  1  0
 45 46  2  0
 46 47  1  0
 47 48  2  0
 48 49  1  0
 49 50  2  0
 22 51  1  0
 51 52  1  0
 52 53  1  0
 53 54  1  0
 54 55  2  3
 55 56  1  0
 55 57  1  0
 18 58  1  0
 58 59  1  0
 59 60  2  0
 60 61  1  0
 61 62  1  0
 62 63  2  0
 63 64  1  0
 64 65  2  0
 65 66  1  0
 66 67  2  0
 14 68  1  0
 68 69  2  0
 68 70  1  0
 70 71  1  0
 71 72  1  0
 72 73  2  0
 72 74  1  0
 74 75  1  0
 75 76  1  0
 76 77  2  0
 76 78  1  0
 78 79  1  0
 79 80  1  0
 80 81  2  0
 80 82  1  0
 75 83  1  0
 83 84  1  0
 84 85  2  0
 85 86  1  0
 86 87  2  0
 87 88  1  0
 88 89  2  0
 71 90  1  0
 90 91  1  0
 91 92  1  0
 92 93  1  0
 93 94  2  3
 94 95  1  0
 94 96  1  0
  5 97  1  0
 97 98  1  0
 98 99  2  0
 98100  1  0
100101  1  0
101102  1  0
101103  1  0
100104  1  0
104105  1  0
105106  2  0
105107  1  0
107108  1  0
108109  1  0
109110  2  0
110111  1  0
111112  2  0
112113  1  0
113114  2  0
112115  1  0
107116  1  0
 36  9  1  0
 43 39  1  0
 50 45  1  0
 63 59  1  0
 89 84  1  0
114109  1  0
 67 62  1  0
  1117  1  0
  1118  1  0
  1119  1  0
  2120  1  0
  2121  1  0
  3122  1  0
  3123  1  0
  4124  1  0
  4125  1  0
  5126  1  6
  8127  1  0
  9128  1  6
 10129  1  0
 10130  1  0
 13131  1  0
 13132  1  0
 14133  1  6
 15134  1  0
 18135  1  6
 19136  1  0
 22137  1  6
 23138  1  0
 26139  1  1
 27140  1  0
 30141  1  6
 31142  1  0
 34143  1  0
 34144  1  0
 35145  1  0
 38146  1  0
 38147  1  0
 40148  1  0
 41149  1  0
 42150  1  0
 44151  1  0
 44152  1  0
 46153  1  0
 47154  1  0
 48155  1  0
 49156  1  0
 50157  1  0
 51158  1  0
 51159  1  0
 52160  1  0
 52161  1  0
 53162  1  0
 53163  1  0
 56164  1  0
 56165  1  0
 57166  1  0
 57167  1  0
 58168  1  0
 58169  1  0
 60170  1  0
 61171  1  0
 64172  1  0
 65173  1  0
 66174  1  0
 67175  1  0
 70176  1  0
 71177  1  1
 74178  1  0
 75179  1  1
 78180  1  0
 79181  1  0
 79182  1  0
 82183  1  0
 82184  1  0
 83185  1  0
 83186  1  0
 85187  1  0
 86188  1  0
 87189  1  0
 88190  1  0
 89191  1  0
 90192  1  0
 90193  1  0
 91194  1  0
 91195  1  0
 92196  1  0
 92197  1  0
 95198  1  0
 95199  1  0
 96200  1  0
 96201  1  0
 97202  1  0
100203  1  6
101204  1  0
102205  1  0
102206  1  0
102207  1  0
103208  1  0
103209  1  0
103210  1  0
104211  1  0
107212  1  1
108213  1  0
108214  1  0
110215  1  0
111216  1  0
113217  1  0
114218  1  0
115219  1  0
116220  1  0
116221  1  0
M  END
>  <Ligand ID>  (1) 
LIG0004153

>  <Ligand>  (1) 
CID 44363771

>  <SMILES>  (1) 
CCCC[C@@H](C(=O)N[C@@H]1CSSC[C@@H](NC(=O)[C@@H](NC(=O)[C@@H](NC(=O)[C@H](NC(=O)[C@@H](NC(=O)CNC1=O)Cc1c[nH]cn1)Cc1ccccc1)CCCN=C(N)N)Cc1c[nH]c2c1cccc2)C(=O)N[C@H](C(=O)N[C@H](C(=O)NCC(=O)N)Cc1ccccc1)CCCN=C(N)N)NC(=O)[C@H](C(C)C)NC(=O)[C@H](Cc1ccc(cc1)O)N

>  <CID>  (1) 
44363771.0

>  <ChEMBL ID>  (1) 
nan

>  <InChiKey>  (1) 
UKCAJRRGLXHDRO-JAKOWJIMSA-N

>  <InChi>  (1) 
InChI=1S/C77H105N23O14S2/c1-4-5-21-53(94-75(114)64(43(2)3)100-65(104)51(78)31-46-25-27-49(101)28-26-46)70(109)98-60-40-115-116-41-61(74(113)93-55(24-15-30-86-77(82)83)68(107)95-56(66(105)88-38-62(79)102)32-44-16-8-6-9-17-44)99-72(111)58(34-47-36-87-52-22-13-12-20-50(47)52)97-69(108)54(23-14-29-85-76(80)81)92-71(110)57(33-45-18-10-7-11-19-45)96-73(112)59(35-48-37-84-42-90-48)91-63(103)39-89-67(60)106/h6-13,16-20,22,25-28,36-37,42-43,51,53-61,64,87,101H,4-5,14-15,21,23-24,29-35,38-41,78H2,1-3H3,(H2,79,102)(H,84,90)(H,88,105)(H,89,106)(H,91,103)(H,92,110)(H,93,113)(H,94,114)(H,95,107)(H,96,112)(H,97,108)(H,98,109)(H,99,111)(H,100,104)(H4,80,81,85)(H4,82,83,86)/t51-,53-,54-,55-,56-,57+,58-,59-,60+,61+,64-/m0/s1

>  <IUPAC Name>  (1) 
(4S,7S,10S,13R,16S,22S)-22-[[(2S)-2-[[(2S)-2-[[(2S)-2-amino-3-(4-hydroxyphenyl)propanoyl]amino]-3-methylbutanoyl]amino]hexanoyl]amino]-N-[(2S)-1-[[(2S)-1-[(2-amino-2-oxoethyl)amino]-1-oxo-3-phenylpropan-2-yl]amino]-5-(diaminomethylideneamino)-1-oxopentan-2-yl]-13-benzyl-10-[3-(diaminomethylideneamino)propyl]-16-(1H-imidazol-4-ylmethyl)-7-(1H-indol-3-ylmethyl)-6,9,12,15,18,21-hexaoxo-1,2-dithia-5,8,11,14,17,20-hexazacyclotricosane-4-carboxamide

$$$$
