
     RDKit          3D

 28 27  0  0  0  0  0  0  0  0999 V2000
   -3.9000   -0.0955   -0.1247 C   0  0  0  0  0  0  0  0  0  0  0  0
   -2.8015    0.9404   -0.0358 C   0  0  0  0  0  0  0  0  0  0  0  0
   -1.4706    0.3603   -0.5232 C   0  0  0  0  0  0  0  0  0  0  0  0
   -1.0857   -0.8092    0.3109 C   0  0  0  0  0  0  0  0  0  0  0  0
    0.1717   -1.4470   -0.0798 C   0  0  0  0  0  0  0  0  0  0  0  0
    1.4846   -0.8277    0.0239 C   0  0  0  0  0  0  0  0  0  0  0  0
    1.8547    0.4270   -0.6392 C   0  0  0  0  0  0  0  0  0  0  0  0
    3.3625    0.7506   -0.4180 C   0  0  0  0  0  0  0  0  0  0  0  0
    3.6718    0.8925    1.0188 C   0  0  0  0  0  0  0  0  0  0  0  0
    4.8282    1.1405    1.3260 O   0  0  0  0  0  0  0  0  0  0  0  0
   -4.2051   -0.4218    0.9042 H   0  0  0  0  0  0  0  0  0  0  0  0
   -4.8295    0.3354   -0.5798 H   0  0  0  0  0  0  0  0  0  0  0  0
   -3.6406   -0.9456   -0.7876 H   0  0  0  0  0  0  0  0  0  0  0  0
   -2.7185    1.3594    0.9868 H   0  0  0  0  0  0  0  0  0  0  0  0
   -3.0563    1.7744   -0.7346 H   0  0  0  0  0  0  0  0  0  0  0  0
   -0.7099    1.1005   -0.6067 H   0  0  0  0  0  0  0  0  0  0  0  0
   -1.7103   -0.0438   -1.5596 H   0  0  0  0  0  0  0  0  0  0  0  0
   -1.1277   -0.5353    1.4033 H   0  0  0  0  0  0  0  0  0  0  0  0
   -1.9737   -1.5286    0.2329 H   0  0  0  0  0  0  0  0  0  0  0  0
    0.0944   -1.8929   -1.1304 H   0  0  0  0  0  0  0  0  0  0  0  0
    0.2309   -2.4165    0.5426 H   0  0  0  0  0  0  0  0  0  0  0  0
    1.8420   -0.7499    1.1065 H   0  0  0  0  0  0  0  0  0  0  0  0
    2.2301   -1.6118   -0.3795 H   0  0  0  0  0  0  0  0  0  0  0  0
    1.3285    1.2694   -0.0800 H   0  0  0  0  0  0  0  0  0  0  0  0
    1.6353    0.5556   -1.6933 H   0  0  0  0  0  0  0  0  0  0  0  0
    3.9758   -0.0726   -0.8363 H   0  0  0  0  0  0  0  0  0  0  0  0
    3.5631    1.6974   -0.9657 H   0  0  0  0  0  0  0  0  0  0  0  0
    2.9558    0.7945    1.8237 H   0  0  0  0  0  0  0  0  0  0  0  0
  1  2  1  0
  2  3  1  0
  3  4  1  0
  4  5  1  0
  5  6  1  0
  6  7  1  0
  7  8  1  0
  8  9  1  0
  9 10  2  0
  1 11  1  0
  1 12  1  0
  1 13  1  0
  2 14  1  0
  2 15  1  0
  3 16  1  0
  3 17  1  0
  4 18  1  0
  4 19  1  0
  5 20  1  0
  5 21  1  0
  6 22  1  0
  6 23  1  0
  7 24  1  0
  7 25  1  0
  8 26  1  0
  8 27  1  0
  9 28  1  0
M  END
>  <Ligand ID>  (1) 
LIG0000068

>  <Ligand>  (1) 
nonanal

>  <SMILES>  (1) 
CCCCCCCCC=O

>  <CID>  (1) 
31289.0

>  <ChEMBL ID>  (1) 
nan

>  <InChiKey>  (1) 
GYHFUZHODSMOHU-UHFFFAOYSA-N

>  <InChi>  (1) 
InChI=1S/C9H18O/c1-2-3-4-5-6-7-8-9-10/h9H,2-8H2,1H3

>  <IUPAC Name>  (1) 
nonanal

$$$$
