
     RDKit          3D

 77 81  0  0  0  0  0  0  0  0999 V2000
   -7.6565   -0.0140   -2.5948 O   0  0  0  0  0  0  0  0  0  0  0  0
   -6.8838   -0.4017   -1.4731 C   0  0  2  0  0  0  0  0  0  0  0  0
   -7.4741    0.0107   -0.1945 C   0  0  0  0  0  0  0  0  0  0  0  0
   -7.6839   -0.8913    0.8581 C   0  0  0  0  0  0  0  0  0  0  0  0
   -8.2470   -0.5035    2.0556 C   0  0  0  0  0  0  0  0  0  0  0  0
   -8.6330    0.7957    2.2777 C   0  0  0  0  0  0  0  0  0  0  0  0
   -8.4393    1.7001    1.2631 C   0  0  0  0  0  0  0  0  0  0  0  0
   -7.8756    1.3123    0.0643 C   0  0  0  0  0  0  0  0  0  0  0  0
   -7.7285    2.3017   -0.8910 C   0  0  0  0  0  0  0  0  0  0  0  0
   -8.1333    3.5904   -0.6239 C   0  0  0  0  0  0  0  0  0  0  0  0
   -8.6990    3.9571    0.5934 C   0  0  0  0  0  0  0  0  0  0  0  0
   -9.0619    5.1422    0.8176 O   0  0  0  0  0  0  0  0  0  0  0  0
   -8.8289    2.9744    1.5001 N   0  0  0  0  0  0  0  0  0  0  0  0
   -9.1928    1.1146    3.5071 O   0  0  0  0  0  0  0  0  0  0  0  0
   -5.4248   -0.1701   -1.6473 C   0  0  0  0  0  0  0  0  0  0  0  0
   -4.5520   -0.5325   -0.6169 N   0  0  0  0  0  0  0  0  0  0  0  0
   -4.3130   -1.8639   -0.2993 C   0  0  0  0  0  0  0  0  0  0  0  0
   -3.5630   -2.7249   -1.2729 C   0  0  0  0  0  0  0  0  0  0  0  0
   -2.1894   -2.2490   -1.5592 C   0  0  0  0  0  0  0  0  0  0  0  0
   -1.1491   -2.7044   -0.7794 C   0  0  0  0  0  0  0  0  0  0  0  0
    0.1636   -2.3291   -0.9649 C   0  0  0  0  0  0  0  0  0  0  0  0
    0.4872   -1.4425   -1.9878 C   0  0  0  0  0  0  0  0  0  0  0  0
   -0.5621   -0.9962   -2.7578 C   0  0  0  0  0  0  0  0  0  0  0  0
   -1.8736   -1.3711   -2.5728 C   0  0  0  0  0  0  0  0  0  0  0  0
    1.8119   -1.0090   -2.2353 N   0  0  0  0  0  0  0  0  0  0  0  0
    2.8842   -1.0608   -1.3376 C   0  0  0  0  0  0  0  0  0  0  0  0
    4.1569   -1.2500   -1.8542 C   0  0  0  0  0  0  0  0  0  0  0  0
    5.2781   -1.2968   -1.0138 C   0  0  0  0  0  0  0  0  0  0  0  0
    5.1951   -1.1608    0.3419 C   0  0  0  0  0  0  0  0  0  0  0  0
    3.8930   -0.9690    0.8523 C   0  0  0  0  0  0  0  0  0  0  0  0
    2.7937   -0.9234    0.0279 C   0  0  0  0  0  0  0  0  0  0  0  0
    6.1922   -1.1839    1.2534 O   0  0  0  0  0  0  0  0  0  0  0  0
    7.5453   -1.3187    1.0226 C   0  0  0  0  0  0  0  0  0  0  0  0
    8.0978   -0.1426    0.2783 C   0  0  0  0  0  0  0  0  0  0  0  0
    7.8778    1.0518    1.0979 N   0  0  0  0  0  0  0  0  0  0  0  0
    8.6879    1.0184    2.2807 C   0  0  0  0  0  0  0  0  0  0  0  0
   10.1532    0.8687    1.9464 C   0  0  0  0  0  0  0  0  0  0  0  0
   10.4786    1.8264    0.9308 N   0  0  0  0  0  0  0  0  0  0  0  0
    9.4627    2.8052    0.6855 C   0  0  0  0  0  0  0  0  0  0  0  0
    8.1237    2.2530    0.3095 C   0  0  0  0  0  0  0  0  0  0  0  0
   -8.5498   -0.4225   -2.4644 H   0  0  0  0  0  0  0  0  0  0  0  0
   -7.0107   -1.5310   -1.4991 H   0  0  0  0  0  0  0  0  0  0  0  0
   -7.4199   -1.9301    0.7661 H   0  0  0  0  0  0  0  0  0  0  0  0
   -8.3901   -1.2481    2.8496 H   0  0  0  0  0  0  0  0  0  0  0  0
   -7.3094    2.0941   -1.8397 H   0  0  0  0  0  0  0  0  0  0  0  0
   -8.0244    4.3747   -1.3649 H   0  0  0  0  0  0  0  0  0  0  0  0
   -9.2572    3.2289    2.4357 H   0  0  0  0  0  0  0  0  0  0  0  0
   -8.6759    1.5856    4.2158 H   0  0  0  0  0  0  0  0  0  0  0  0
   -5.1203   -0.5676   -2.6684 H   0  0  0  0  0  0  0  0  0  0  0  0
   -5.2754    0.9310   -1.8162 H   0  0  0  0  0  0  0  0  0  0  0  0
   -4.1498    0.2148   -0.0416 H   0  0  0  0  0  0  0  0  0  0  0  0
   -5.2379   -2.3682    0.0312 H   0  0  0  0  0  0  0  0  0  0  0  0
   -3.6680   -1.8740    0.6323 H   0  0  0  0  0  0  0  0  0  0  0  0
   -4.1363   -2.9366   -2.2006 H   0  0  0  0  0  0  0  0  0  0  0  0
   -3.4706   -3.7244   -0.7974 H   0  0  0  0  0  0  0  0  0  0  0  0
   -1.3927   -3.4034    0.0319 H   0  0  0  0  0  0  0  0  0  0  0  0
    0.8939   -2.7473   -0.3125 H   0  0  0  0  0  0  0  0  0  0  0  0
   -0.3603   -0.2940   -3.5787 H   0  0  0  0  0  0  0  0  0  0  0  0
   -2.6831   -0.9903   -3.2130 H   0  0  0  0  0  0  0  0  0  0  0  0
    1.9977   -0.6060   -3.2039 H   0  0  0  0  0  0  0  0  0  0  0  0
    4.2759   -1.3626   -2.9180 H   0  0  0  0  0  0  0  0  0  0  0  0
    6.2046   -1.4754   -1.5085 H   0  0  0  0  0  0  0  0  0  0  0  0
    3.7446   -0.8525    1.9182 H   0  0  0  0  0  0  0  0  0  0  0  0
    1.8330   -0.7620    0.4894 H   0  0  0  0  0  0  0  0  0  0  0  0
    8.1301   -1.5440    1.9483 H   0  0  0  0  0  0  0  0  0  0  0  0
    7.7736   -2.2221    0.3709 H   0  0  0  0  0  0  0  0  0  0  0  0
    9.1838   -0.2628    0.0474 H   0  0  0  0  0  0  0  0  0  0  0  0
    7.5792    0.0216   -0.6570 H   0  0  0  0  0  0  0  0  0  0  0  0
    8.5353    1.9811    2.8272 H   0  0  0  0  0  0  0  0  0  0  0  0
    8.3706    0.2033    2.9294 H   0  0  0  0  0  0  0  0  0  0  0  0
   10.7003    1.0800    2.9082 H   0  0  0  0  0  0  0  0  0  0  0  0
   10.4106   -0.1592    1.6599 H   0  0  0  0  0  0  0  0  0  0  0  0
   10.8813    1.4169    0.0842 H   0  0  0  0  0  0  0  0  0  0  0  0
    9.3369    3.4573    1.5781 H   0  0  0  0  0  0  0  0  0  0  0  0
    9.8300    3.4418   -0.1684 H   0  0  0  0  0  0  0  0  0  0  0  0
    8.0002    2.0484   -0.7723 H   0  0  0  0  0  0  0  0  0  0  0  0
    7.3316    2.9909    0.5831 H   0  0  0  0  0  0  0  0  0  0  0  0
  1  2  1  0
  2  3  1  0
  3  4  2  0
  4  5  1  0
  5  6  2  0
  6  7  1  0
  7  8  2  0
  8  9  1  0
  9 10  2  0
 10 11  1  0
 11 12  2  0
 11 13  1  0
  6 14  1  0
  2 15  1  0
 15 16  1  0
 16 17  1  0
 17 18  1  0
 18 19  1  0
 19 20  2  0
 20 21  1  0
 21 22  2  0
 22 23  1  0
 23 24  2  0
 22 25  1  0
 25 26  1  0
 26 27  2  0
 27 28  1  0
 28 29  2  0
 29 30  1  0
 30 31  2  0
 29 32  1  0
 32 33  1  0
 33 34  1  0
 34 35  1  0
 35 36  1  0
 36 37  1  0
 37 38  1  0
 38 39  1  0
 39 40  1  0
  8  3  1  0
 24 19  1  0
 31 26  1  0
 40 35  1  0
 13  7  1  0
  1 41  1  0
  2 42  1  1
  4 43  1  0
  5 44  1  0
  9 45  1  0
 10 46  1  0
 13 47  1  0
 14 48  1  0
 15 49  1  0
 15 50  1  0
 16 51  1  0
 17 52  1  0
 17 53  1  0
 18 54  1  0
 18 55  1  0
 20 56  1  0
 21 57  1  0
 23 58  1  0
 24 59  1  0
 25 60  1  0
 27 61  1  0
 28 62  1  0
 30 63  1  0
 31 64  1  0
 33 65  1  0
 33 66  1  0
 34 67  1  0
 34 68  1  0
 36 69  1  0
 36 70  1  0
 37 71  1  0
 37 72  1  0
 38 73  1  0
 39 74  1  0
 39 75  1  0
 40 76  1  0
 40 77  1  0
M  END
>  <Ligand ID>  (1) 
LIG0003154

>  <Ligand>  (1) 
CHEMBL3298897

>  <SMILES>  (1) 
O[C@H](c1ccc(c2c1ccc(=O)[nH]2)O)CNCCc1ccc(cc1)Nc1ccc(cc1)OCCN1CCNCC1

>  <CID>  (1) 
11180293.0

>  <ChEMBL ID>  (1) 
nan

>  <InChiKey>  (1) 
RWBDYOUHRBKWMC-LJAQVGFWSA-N

>  <InChi>  (1) 
InChI=1S/C31H37N5O4/c37-28-11-9-26(27-10-12-30(39)35-31(27)28)29(38)21-33-14-13-22-1-3-23(4-2-22)34-24-5-7-25(8-6-24)40-20-19-36-17-15-32-16-18-36/h1-12,29,32-34,37-38H,13-21H2,(H,35,39)/t29-/m0/s1

>  <IUPAC Name>  (1) 
8-hydroxy-5-[(1R)-1-hydroxy-2-[2-[4-[4-(2-piperazin-1-ylethoxy)anilino]phenyl]ethylamino]ethyl]-1H-quinolin-2-one

$$$$
