
     RDKit          3D

 57 58  0  0  0  0  0  0  0  0999 V2000
   10.7503    0.5778    2.0007 C   0  0  0  0  0  0  0  0  0  0  0  0
    9.8822    0.8209    1.1909 C   0  0  0  0  0  0  0  0  0  0  0  0
    8.8318    1.1209    0.2307 C   0  0  0  0  0  0  0  0  0  0  0  0
    7.8750    2.1095    0.8687 C   0  0  0  0  0  0  0  0  0  0  0  0
    6.7582    2.4406   -0.1274 C   0  0  0  0  0  0  0  0  0  0  0  0
    6.1230    1.2360   -0.4119 O   0  0  0  0  0  0  0  0  0  0  0  0
    5.1197    1.3275   -1.2797 N   0  0  0  0  0  0  0  0  0  0  0  0
    3.8985    0.6176   -1.0979 C   0  0  0  0  0  0  0  0  0  0  0  0
    3.7078   -0.2001   -0.0000 C   0  0  0  0  0  0  0  0  0  0  0  0
    2.5001   -0.8625    0.1195 C   0  0  0  0  0  0  0  0  0  0  0  0
    1.5055   -0.7496   -0.7782 N   0  0  0  0  0  0  0  0  0  0  0  0
    1.7288    0.0679   -1.8518 C   0  0  0  0  0  0  0  0  0  0  0  0
    0.8322    0.2176   -2.7336 O   0  0  0  0  0  0  0  0  0  0  0  0
    2.8959    0.7247   -1.9925 N   0  0  0  0  0  0  0  0  0  0  0  0
    0.2439   -1.4030   -0.7112 C   0  0  2  0  0  0  0  0  0  0  0  0
   -0.8203   -0.6162   -1.1448 O   0  0  0  0  0  0  0  0  0  0  0  0
   -1.8846   -1.5195   -0.9638 C   0  0  1  0  0  0  0  0  0  0  0  0
   -1.6653   -2.1783    0.3597 C   0  0  2  0  0  0  0  0  0  0  0  0
   -0.2219   -1.7632    0.6815 C   0  0  1  0  0  0  0  0  0  0  0  0
    0.4812   -2.8325    1.2286 O   0  0  0  0  0  0  0  0  0  0  0  0
   -1.6313   -3.5760    0.2323 O   0  0  0  0  0  0  0  0  0  0  0  0
   -3.2260   -0.8720   -1.0736 C   0  0  0  0  0  0  0  0  0  0  0  0
   -4.2794   -1.7433   -0.8976 O   0  0  0  0  0  0  0  0  0  0  0  0
   -5.7776   -0.9762   -1.0528 P   0  0  0  0  0  0  0  0  0  0  0  0
   -5.7955   -0.0554   -2.2759 O   0  0  0  0  0  0  0  0  0  0  0  0
   -6.0860    0.0072    0.2882 O   0  0  0  0  0  0  0  0  0  0  0  0
   -6.8274    1.4552   -0.1753 P   0  0  0  0  0  0  0  0  0  0  0  0
   -5.8629    2.4212   -0.7831 O   0  0  0  0  0  0  0  0  0  0  0  0
   -7.6174    2.0885    1.1786 O   0  0  0  0  0  0  0  0  0  0  0  0
   -8.1787    0.8187    2.1206 P   0  0  0  0  0  0  0  0  0  0  0  0
   -8.1407   -0.4740    1.3299 O   0  0  0  0  0  0  0  0  0  0  0  0
   -7.1782    0.7272    3.4940 O   0  0  0  0  0  0  0  0  0  0  0  0
   -9.7826    1.0837    2.6537 O   0  0  0  0  0  0  0  0  0  0  0  0
   -8.0490    1.0164   -1.2875 O   0  0  0  0  0  0  0  0  0  0  0  0
   -7.0361   -2.0983   -1.1547 O   0  0  0  0  0  0  0  0  0  0  0  0
   11.5035    0.3784    2.7205 H   0  0  0  0  0  0  0  0  0  0  0  0
    8.2519    0.1813    0.0813 H   0  0  0  0  0  0  0  0  0  0  0  0
    9.2181    1.5250   -0.7132 H   0  0  0  0  0  0  0  0  0  0  0  0
    7.4616    1.5907    1.7577 H   0  0  0  0  0  0  0  0  0  0  0  0
    8.3442    3.0500    1.1641 H   0  0  0  0  0  0  0  0  0  0  0  0
    6.0563    3.1672    0.2778 H   0  0  0  0  0  0  0  0  0  0  0  0
    7.2049    2.7707   -1.0878 H   0  0  0  0  0  0  0  0  0  0  0  0
    5.2242    1.9364   -2.1217 H   0  0  0  0  0  0  0  0  0  0  0  0
    4.4845   -0.3160    0.7424 H   0  0  0  0  0  0  0  0  0  0  0  0
    2.3601   -1.4939    0.9727 H   0  0  0  0  0  0  0  0  0  0  0  0
    0.1849   -2.3421   -1.2965 H   0  0  0  0  0  0  0  0  0  0  0  0
   -1.8018   -2.2377   -1.8177 H   0  0  0  0  0  0  0  0  0  0  0  0
   -2.3482   -1.8503    1.1593 H   0  0  0  0  0  0  0  0  0  0  0  0
   -0.3004   -0.8965    1.3355 H   0  0  0  0  0  0  0  0  0  0  0  0
    0.7845   -3.4470    0.5362 H   0  0  0  0  0  0  0  0  0  0  0  0
   -1.5557   -3.8164   -0.7241 H   0  0  0  0  0  0  0  0  0  0  0  0
   -3.3021   -0.4720   -2.1239 H   0  0  0  0  0  0  0  0  0  0  0  0
   -3.2716    0.0243   -0.4189 H   0  0  0  0  0  0  0  0  0  0  0  0
   -6.9224    1.6665    3.7213 H   0  0  0  0  0  0  0  0  0  0  0  0
  -10.1454    0.1677    2.8377 H   0  0  0  0  0  0  0  0  0  0  0  0
   -7.7585    1.2163   -2.2046 H   0  0  0  0  0  0  0  0  0  0  0  0
   -6.7459   -3.0284   -0.9822 H   0  0  0  0  0  0  0  0  0  0  0  0
  1  2  3  0
  2  3  1  0
  3  4  1  0
  4  5  1  0
  5  6  1  0
  6  7  1  0
  7  8  1  0
  8  9  1  0
  9 10  2  0
 10 11  1  0
 11 12  1  0
 12 13  2  0
 12 14  1  0
 11 15  1  0
 15 16  1  0
 16 17  1  0
 17 18  1  0
 18 19  1  0
 19 20  1  0
 18 21  1  0
 17 22  1  0
 22 23  1  0
 23 24  1  0
 24 25  2  0
 24 26  1  0
 26 27  1  0
 27 28  2  0
 27 29  1  0
 29 30  1  0
 30 31  2  0
 30 32  1  0
 30 33  1  0
 27 34  1  0
 24 35  1  0
 14  8  2  0
 19 15  1  0
  1 36  1  0
  3 37  1  0
  3 38  1  0
  4 39  1  0
  4 40  1  0
  5 41  1  0
  5 42  1  0
  7 43  1  0
  9 44  1  0
 10 45  1  0
 15 46  1  6
 17 47  1  6
 18 48  1  1
 19 49  1  1
 20 50  1  0
 21 51  1  0
 22 52  1  0
 22 53  1  0
 32 54  1  0
 33 55  1  0
 34 56  1  0
 35 57  1  0
M  END
>  <Ligand ID>  (1) 
LIG0002330

>  <Ligand>  (1) 
CHEMBL3261373

>  <SMILES>  (1) 
C#CCCCONc1ccn(c(=O)n1)[C@@H]1O[C@@H]([C@H]([C@H]1O)O)COP(=O)(OP(=O)(OP(=O)(O)O)O)O

>  <CID>  (1) 
90656224.0

>  <ChEMBL ID>  (1) 
nan

>  <InChiKey>  (1) 
CYLHTYSEZSCXEN-OJAKKHQRSA-N

>  <InChi>  (1) 
InChI=1S/C14H22N3O15P3/c1-2-3-4-7-28-16-10-5-6-17(14(20)15-10)13-12(19)11(18)9(30-13)8-29-34(24,25)32-35(26,27)31-33(21,22)23/h1,5-6,9,11-13,18-19H,3-4,7-8H2,(H,24,25)(H,26,27)(H,15,16,20)(H2,21,22,23)/t9-,11-,12-,13-/m1/s1

>  <IUPAC Name>  (1) 
[[(2R,3S,4R,5R)-3,4-dihydroxy-5-[2-oxo-4-(pent-4-ynoxyamino)pyrimidin-1-yl]oxolan-2-yl]methoxy-hydroxyphosphoryl] phosphono hydrogen phosphate

$$$$
