
     RDKit          3D

 30 31  0  0  0  0  0  0  0  0999 V2000
   -3.7405    1.6842    0.8104 O   0  0  0  0  0  0  0  0  0  0  0  0
   -2.8963    0.9562   -0.0166 C   0  0  0  0  0  0  0  0  0  0  0  0
   -2.6248    1.4282   -1.1582 O   0  0  0  0  0  0  0  0  0  0  0  0
   -2.2960   -0.3475    0.3696 C   0  0  1  0  0  0  0  0  0  0  0  0
   -0.8149   -0.3177    0.4474 C   0  0  2  0  0  0  0  0  0  0  0  0
    0.0461    0.0194   -0.7046 C   0  0  2  0  0  0  0  0  0  0  0  0
   -0.1057   -1.4248   -0.2340 C   0  0  2  0  0  0  0  0  0  0  0  0
   -0.6946   -2.2918   -1.2524 C   0  0  0  0  0  0  0  0  0  0  0  0
   -1.5925   -1.9496   -2.0725 O   0  0  0  0  0  0  0  0  0  0  0  0
   -0.2679   -3.6314   -1.3809 O   0  0  0  0  0  0  0  0  0  0  0  0
    1.4126    0.5330   -0.5260 C   0  0  0  0  0  0  0  0  0  0  0  0
    2.1411    0.2135    0.6265 C   0  0  0  0  0  0  0  0  0  0  0  0
    3.4223    0.6774    0.8254 C   0  0  0  0  0  0  0  0  0  0  0  0
    4.0395    1.4803   -0.1110 C   0  0  0  0  0  0  0  0  0  0  0  0
    3.3255    1.8059   -1.2626 C   0  0  0  0  0  0  0  0  0  0  0  0
    2.0427    1.3325   -1.4460 C   0  0  0  0  0  0  0  0  0  0  0  0
   -2.7938   -0.6224    1.7314 N   0  0  0  0  0  0  0  0  0  0  0  0
   -4.3662    2.3930    0.5003 H   0  0  0  0  0  0  0  0  0  0  0  0
   -2.7215   -1.1703   -0.2381 H   0  0  0  0  0  0  0  0  0  0  0  0
   -0.4248    0.0231    1.4425 H   0  0  0  0  0  0  0  0  0  0  0  0
   -0.4242    0.3310   -1.6361 H   0  0  0  0  0  0  0  0  0  0  0  0
    0.6970   -1.8911    0.3803 H   0  0  0  0  0  0  0  0  0  0  0  0
   -0.8951   -4.3635   -1.7036 H   0  0  0  0  0  0  0  0  0  0  0  0
    1.7209   -0.4135    1.4072 H   0  0  0  0  0  0  0  0  0  0  0  0
    3.9613    0.4055    1.7414 H   0  0  0  0  0  0  0  0  0  0  0  0
    5.0438    1.8358    0.0596 H   0  0  0  0  0  0  0  0  0  0  0  0
    3.7641    2.4319   -2.0268 H   0  0  0  0  0  0  0  0  0  0  0  0
    1.5102    1.5988   -2.3467 H   0  0  0  0  0  0  0  0  0  0  0  0
   -3.7689   -0.9874    1.7056 H   0  0  0  0  0  0  0  0  0  0  0  0
   -2.6993    0.2611    2.2720 H   0  0  0  0  0  0  0  0  0  0  0  0
  1  2  1  0
  2  3  2  0
  2  4  1  0
  4  5  1  0
  5  6  1  0
  6  7  1  0
  7  8  1  0
  8  9  2  0
  8 10  1  0
  6 11  1  0
 11 12  2  0
 12 13  1  0
 13 14  2  0
 14 15  1  0
 15 16  2  0
  4 17  1  0
  7  5  1  0
 16 11  1  0
  1 18  1  0
  4 19  1  6
  5 20  1  1
  6 21  1  6
  7 22  1  1
 10 23  1  0
 12 24  1  0
 13 25  1  0
 14 26  1  0
 15 27  1  0
 16 28  1  0
 17 29  1  0
 17 30  1  0
M  END
>  <Ligand ID>  (1) 
LIG0002586

>  <Ligand>  (1) 
CHEMBL2115156

>  <SMILES>  (1) 
OC(=O)[C@@H]([C@@H]1[C@H]([C@@H]1C(=O)O)c1ccccc1)N

>  <CID>  (1) 
10704895.0

>  <ChEMBL ID>  (1) 
nan

>  <InChiKey>  (1) 
IFLWVSHRWAIVQF-DOLQZWNJSA-N

>  <InChi>  (1) 
InChI=1S/C12H13NO4/c13-10(12(16)17)8-7(9(8)11(14)15)6-4-2-1-3-5-6/h1-5,7-10H,13H2,(H,14,15)(H,16,17)/t7-,8-,9+,10-/m1/s1

>  <IUPAC Name>  (1) 
(1S,2R,3R)-2-[(R)-amino(carboxy)methyl]-3-phenylcyclopropane-1-carboxylic acid

$$$$
