
     RDKit          3D

 24 25  0  0  0  0  0  0  0  0999 V2000
    3.5011   -1.1871   -0.6782 N   0  0  0  0  0  0  0  0  0  0  0  0
    3.0172    0.1544   -0.4202 C   0  0  0  0  0  0  0  0  0  0  0  0
    1.6671    0.0521    0.3118 C   0  0  1  0  0  0  0  0  0  0  0  0
    1.0227    1.4226    0.6567 C   0  0  0  0  0  0  0  0  0  0  0  0
    0.4916    0.4496   -0.4297 C   0  0  2  0  0  0  0  0  0  0  0  0
   -0.8938    0.0779   -0.1935 C   0  0  0  0  0  0  0  0  0  0  0  0
   -1.8864    0.9426   -0.6741 C   0  0  0  0  0  0  0  0  0  0  0  0
   -3.2211    0.6786   -0.4935 C   0  0  0  0  0  0  0  0  0  0  0  0
   -3.6257   -0.4462    0.1668 C   0  0  0  0  0  0  0  0  0  0  0  0
   -2.6841   -1.3141    0.6502 C   0  0  0  0  0  0  0  0  0  0  0  0
   -1.3449   -1.0389    0.4628 C   0  0  0  0  0  0  0  0  0  0  0  0
   -0.1827   -2.1826    1.0913 Cl  0  0  0  0  0  0  0  0  0  0  0  0
   -5.3410   -0.7422    0.3741 Cl  0  0  0  0  0  0  0  0  0  0  0  0
    4.2365   -1.4906    0.0009 H   0  0  0  0  0  0  0  0  0  0  0  0
    2.7246   -1.8815   -0.7581 H   0  0  0  0  0  0  0  0  0  0  0  0
    2.8923    0.7450   -1.3493 H   0  0  0  0  0  0  0  0  0  0  0  0
    3.7215    0.6642    0.2415 H   0  0  0  0  0  0  0  0  0  0  0  0
    1.7375   -0.5729    1.1991 H   0  0  0  0  0  0  0  0  0  0  0  0
    1.5941    2.3025    0.3328 H   0  0  0  0  0  0  0  0  0  0  0  0
    0.4663    1.5165    1.5929 H   0  0  0  0  0  0  0  0  0  0  0  0
    0.6653    0.8597   -1.4537 H   0  0  0  0  0  0  0  0  0  0  0  0
   -1.6105    1.8399   -1.1999 H   0  0  0  0  0  0  0  0  0  0  0  0
   -3.9708    1.3572   -0.8713 H   0  0  0  0  0  0  0  0  0  0  0  0
   -2.9767   -2.2066    1.1735 H   0  0  0  0  0  0  0  0  0  0  0  0
  1  2  1  0
  2  3  1  0
  3  4  1  0
  4  5  1  0
  5  6  1  0
  6  7  2  0
  7  8  1  0
  8  9  2  0
  9 10  1  0
 10 11  2  0
 11 12  1  0
  9 13  1  0
  5  3  1  0
 11  6  1  0
  1 14  1  0
  1 15  1  0
  2 16  1  0
  2 17  1  0
  3 18  1  1
  4 19  1  0
  4 20  1  0
  5 21  1  6
  7 22  1  0
  8 23  1  0
 10 24  1  0
M  END
>  <Ligand ID>  (1) 
LIG0002356

>  <Ligand>  (1) 
CHEMBL452458

>  <SMILES>  (1) 
NC[C@H]1C[C@@H]1c1ccc(cc1Cl)Cl

>  <CID>  (1) 
44572170.0

>  <ChEMBL ID>  (1) 
nan

>  <InChiKey>  (1) 
QQFQGKPYXWBPBJ-MUWHJKNJSA-N

>  <InChi>  (1) 
InChI=1S/C10H11Cl2N/c11-7-1-2-8(10(12)4-7)9-3-6(9)5-13/h1-2,4,6,9H,3,5,13H2/t6-,9+/m1/s1

>  <IUPAC Name>  (1) 
[(1S,2S)-2-(2,4-dichlorophenyl)cyclopropyl]methanamine

$$$$
