
     RDKit          3D

 91 94  0  0  0  0  0  0  0  0999 V2000
   -0.1706    6.2334    3.1599 N   0  0  0  0  0  0  0  0  0  0  0  0
   -0.8460    5.0993    2.5909 C   0  0  0  0  0  0  0  0  0  0  0  0
   -0.1684    4.0104    2.5383 N   0  0  0  0  0  0  0  0  0  0  0  0
   -0.8057    2.8350    1.9722 C   0  0  0  0  0  0  0  0  0  0  0  0
   -0.8926    3.0323    0.4723 C   0  0  0  0  0  0  0  0  0  0  0  0
   -1.5519    1.8384   -0.1334 C   0  0  0  0  0  0  0  0  0  0  0  0
   -0.8360    0.5346    0.0563 C   0  0  1  0  0  0  0  0  0  0  0  0
   -1.6850   -0.5354   -0.5950 C   0  0  0  0  0  0  0  0  0  0  0  0
   -1.2546   -1.1415   -1.6266 O   0  0  0  0  0  0  0  0  0  0  0  0
   -2.9476   -0.8185   -0.0133 N   0  0  0  0  0  0  0  0  0  0  0  0
   -3.8591   -1.8263   -0.5488 C   0  0  2  0  0  0  0  0  0  0  0  0
   -5.0355   -1.1469   -1.0800 C   0  0  0  0  0  0  0  0  0  0  0  0
   -5.9481   -1.6896   -1.7659 O   0  0  0  0  0  0  0  0  0  0  0  0
   -5.2351    0.2643   -0.8379 N   0  0  0  0  0  0  0  0  0  0  0  0
   -4.1347   -2.9107    0.3892 C   0  0  0  0  0  0  0  0  0  0  0  0
   -5.0723   -3.9140   -0.1152 C   0  0  0  0  0  0  0  0  0  0  0  0
   -4.7191   -5.0721   -0.8187 C   0  0  0  0  0  0  0  0  0  0  0  0
   -5.8334   -5.7488   -1.1642 N   0  0  0  0  0  0  0  0  0  0  0  0
   -6.9155   -5.0910   -0.7206 C   0  0  0  0  0  0  0  0  0  0  0  0
   -6.4596   -3.9644   -0.0755 C   0  0  0  0  0  0  0  0  0  0  0  0
   -7.4286   -3.1427    0.4851 C   0  0  0  0  0  0  0  0  0  0  0  0
   -8.7713   -3.4227    0.4077 C   0  0  0  0  0  0  0  0  0  0  0  0
   -9.1987   -4.5533   -0.2432 C   0  0  0  0  0  0  0  0  0  0  0  0
   -8.2612   -5.4116   -0.8228 C   0  0  0  0  0  0  0  0  0  0  0  0
    0.3499    0.5571   -0.8213 N   0  0  0  0  0  0  0  0  0  0  0  0
    1.6657    0.5908   -0.3572 C   0  0  0  0  0  0  0  0  0  0  0  0
    1.8357    0.6259    0.9026 O   0  0  0  0  0  0  0  0  0  0  0  0
    2.8841    0.5870   -1.1791 C   0  0  2  0  0  0  0  0  0  0  0  0
    4.0804    0.7459   -0.3759 N   0  0  0  0  0  0  0  0  0  0  0  0
    5.0305   -0.2856   -0.1558 C   0  0  0  0  0  0  0  0  0  0  0  0
    4.8037   -1.3947   -0.6948 O   0  0  0  0  0  0  0  0  0  0  0  0
    6.2010    0.0286    0.6830 C   0  0  2  0  0  0  0  0  0  0  0  0
    6.1903   -0.8057    1.9175 C   0  0  0  0  0  0  0  0  0  0  0  0
    6.2314   -2.2383    1.5689 C   0  0  0  0  0  0  0  0  0  0  0  0
    5.1554   -3.0578    1.4401 C   0  0  0  0  0  0  0  0  0  0  0  0
    5.3375   -4.3929    1.0948 C   0  0  0  0  0  0  0  0  0  0  0  0
    6.5899   -4.9261    0.8754 C   0  0  0  0  0  0  0  0  0  0  0  0
    7.6730   -4.1118    1.0029 C   0  0  0  0  0  0  0  0  0  0  0  0
    7.4949   -2.7879    1.3445 C   0  0  0  0  0  0  0  0  0  0  0  0
    6.2588    1.4466    1.0184 N   0  0  0  0  0  0  0  0  0  0  0  0
    2.8322    1.3646   -2.4226 C   0  0  0  0  0  0  0  0  0  0  0  0
    2.5829    2.7939   -2.3762 C   0  0  0  0  0  0  0  0  0  0  0  0
    1.3554    3.4102   -2.4939 C   0  0  0  0  0  0  0  0  0  0  0  0
    1.1663    4.7584   -2.4439 C   0  0  0  0  0  0  0  0  0  0  0  0
    2.2410    5.5899   -2.2663 C   0  0  0  0  0  0  0  0  0  0  0  0
    3.5042    5.0259   -2.1414 C   0  0  0  0  0  0  0  0  0  0  0  0
    3.6706    3.6466   -2.1957 C   0  0  0  0  0  0  0  0  0  0  0  0
   -2.1772    5.2446    2.1349 N   0  0  0  0  0  0  0  0  0  0  0  0
    0.8510    6.3665    2.9657 H   0  0  0  0  0  0  0  0  0  0  0  0
   -0.6888    6.9243    3.7646 H   0  0  0  0  0  0  0  0  0  0  0  0
   -1.8487    2.7071    2.3346 H   0  0  0  0  0  0  0  0  0  0  0  0
   -0.2153    1.9251    2.1599 H   0  0  0  0  0  0  0  0  0  0  0  0
   -1.4608    3.9581    0.2678 H   0  0  0  0  0  0  0  0  0  0  0  0
    0.1182    3.1377    0.0244 H   0  0  0  0  0  0  0  0  0  0  0  0
   -1.6972    2.0829   -1.2221 H   0  0  0  0  0  0  0  0  0  0  0  0
   -2.6139    1.7528    0.2432 H   0  0  0  0  0  0  0  0  0  0  0  0
   -0.6039    0.3032    1.0855 H   0  0  0  0  0  0  0  0  0  0  0  0
   -3.2790   -0.3066    0.8374 H   0  0  0  0  0  0  0  0  0  0  0  0
   -3.2999   -2.2555   -1.4287 H   0  0  0  0  0  0  0  0  0  0  0  0
   -5.1798    0.5662    0.1591 H   0  0  0  0  0  0  0  0  0  0  0  0
   -5.4149    0.8716   -1.6451 H   0  0  0  0  0  0  0  0  0  0  0  0
   -3.1838   -3.4522    0.6238 H   0  0  0  0  0  0  0  0  0  0  0  0
   -4.5993   -2.5350    1.3522 H   0  0  0  0  0  0  0  0  0  0  0  0
   -3.7338   -5.4250   -1.0766 H   0  0  0  0  0  0  0  0  0  0  0  0
   -5.8790   -6.6542   -1.6989 H   0  0  0  0  0  0  0  0  0  0  0  0
   -7.0480   -2.2503    0.9956 H   0  0  0  0  0  0  0  0  0  0  0  0
   -9.4534   -2.7251    0.8737 H   0  0  0  0  0  0  0  0  0  0  0  0
  -10.2628   -4.7501   -0.2893 H   0  0  0  0  0  0  0  0  0  0  0  0
   -8.6261   -6.2873   -1.3270 H   0  0  0  0  0  0  0  0  0  0  0  0
    0.1921    0.5460   -1.8565 H   0  0  0  0  0  0  0  0  0  0  0  0
    2.9661   -0.5084   -1.5275 H   0  0  0  0  0  0  0  0  0  0  0  0
    4.2330    1.6981    0.0637 H   0  0  0  0  0  0  0  0  0  0  0  0
    7.1169   -0.1614    0.0579 H   0  0  0  0  0  0  0  0  0  0  0  0
    6.9917   -0.5250    2.6382 H   0  0  0  0  0  0  0  0  0  0  0  0
    5.1771   -0.6430    2.3939 H   0  0  0  0  0  0  0  0  0  0  0  0
    4.1564   -2.6447    1.6206 H   0  0  0  0  0  0  0  0  0  0  0  0
    4.4820   -5.0576    0.9881 H   0  0  0  0  0  0  0  0  0  0  0  0
    6.7605   -5.9638    0.6044 H   0  0  0  0  0  0  0  0  0  0  0  0
    8.6970   -4.4645    0.8444 H   0  0  0  0  0  0  0  0  0  0  0  0
    8.3924   -2.1582    1.4393 H   0  0  0  0  0  0  0  0  0  0  0  0
    5.5657    1.7308    1.7379 H   0  0  0  0  0  0  0  0  0  0  0  0
    6.2571    1.9857    0.1500 H   0  0  0  0  0  0  0  0  0  0  0  0
    3.7803    1.2243   -3.0158 H   0  0  0  0  0  0  0  0  0  0  0  0
    2.0682    0.8442   -3.0880 H   0  0  0  0  0  0  0  0  0  0  0  0
    0.4842    2.7847   -2.6368 H   0  0  0  0  0  0  0  0  0  0  0  0
    0.1818    5.1978   -2.5403 H   0  0  0  0  0  0  0  0  0  0  0  0
    2.0696    6.6592   -2.2305 H   0  0  0  0  0  0  0  0  0  0  0  0
    4.3182    5.7076   -2.0043 H   0  0  0  0  0  0  0  0  0  0  0  0
    4.6845    3.2856   -2.0909 H   0  0  0  0  0  0  0  0  0  0  0  0
   -2.3876    5.9256    1.3697 H   0  0  0  0  0  0  0  0  0  0  0  0
   -2.9946    4.7094    2.5132 H   0  0  0  0  0  0  0  0  0  0  0  0
  1  2  1  0
  2  3  2  3
  3  4  1  0
  4  5  1  0
  5  6  1  0
  6  7  1  0
  7  8  1  0
  8  9  2  0
  8 10  1  0
 10 11  1  0
 11 12  1  0
 12 13  2  0
 12 14  1  0
 11 15  1  0
 15 16  1  0
 16 17  2  0
 17 18  1  0
 18 19  1  0
 19 20  2  0
 20 21  1  0
 21 22  2  0
 22 23  1  0
 23 24  2  0
  7 25  1  0
 25 26  1  0
 26 27  2  0
 26 28  1  0
 28 29  1  0
 29 30  1  0
 30 31  2  0
 30 32  1  0
 32 33  1  0
 33 34  1  0
 34 35  2  0
 35 36  1  0
 36 37  2  0
 37 38  1  0
 38 39  2  0
 32 40  1  0
 28 41  1  0
 41 42  1  0
 42 43  2  0
 43 44  1  0
 44 45  2  0
 45 46  1  0
 46 47  2  0
  2 48  1  0
 20 16  1  0
 39 34  1  0
 47 42  1  0
 24 19  1  0
  1 49  1  0
  1 50  1  0
  4 51  1  0
  4 52  1  0
  5 53  1  0
  5 54  1  0
  6 55  1  0
  6 56  1  0
  7 57  1  1
 10 58  1  0
 11 59  1  6
 14 60  1  0
 14 61  1  0
 15 62  1  0
 15 63  1  0
 17 64  1  0
 18 65  1  0
 21 66  1  0
 22 67  1  0
 23 68  1  0
 24 69  1  0
 25 70  1  0
 28 71  1  6
 29 72  1  0
 32 73  1  6
 33 74  1  0
 33 75  1  0
 35 76  1  0
 36 77  1  0
 37 78  1  0
 38 79  1  0
 39 80  1  0
 40 81  1  0
 40 82  1  0
 41 83  1  0
 41 84  1  0
 43 85  1  0
 44 86  1  0
 45 87  1  0
 46 88  1  0
 47 89  1  0
 48 90  1  0
 48 91  1  0
M  END
>  <Ligand ID>  (1) 
LIG0001247

>  <Ligand>  (1) 
CHEMBL589515

>  <SMILES>  (1) 
NC(=NCCC[C@@H](C(=O)N[C@H](C(=O)N)Cc1c[nH]c2c1cccc2)NC(=O)[C@H](NC(=O)[C@H](Cc1ccccc1)N)Cc1ccccc1)N

>  <CID>  (1) 
11411207.0

>  <ChEMBL ID>  (1) 
nan

>  <InChiKey>  (1) 
NYOUWNQJCVZGBR-ZVVXMFRTSA-N

>  <InChi>  (1) 
InChI=1S/C35H43N9O4/c36-26(18-22-10-3-1-4-11-22)32(46)44-30(19-23-12-5-2-6-13-23)34(48)42-28(16-9-17-40-35(38)39)33(47)43-29(31(37)45)20-24-21-41-27-15-8-7-14-25(24)27/h1-8,10-15,21,26,28-30,41H,9,16-20,36H2,(H2,37,45)(H,42,48)(H,43,47)(H,44,46)(H4,38,39,40)/t26-,28-,29-,30+/m0/s1

>  <IUPAC Name>  (1) 
(2S)-N-[(2S)-1-amino-3-(1H-indol-3-yl)-1-oxopropan-2-yl]-2-[[(2R)-2-[[(2S)-2-amino-3-phenylpropanoyl]amino]-3-phenylpropanoyl]amino]-5-(diaminomethylideneamino)pentanamide

$$$$
