
     RDKit          3D

 20 20  0  0  0  0  0  0  0  0999 V2000
    3.6264    0.2750    0.5253 C   0  0  0  0  0  0  0  0  0  0  0  0
    2.3907    0.9621    0.5845 O   0  0  0  0  0  0  0  0  0  0  0  0
    1.1965    0.3239    0.2860 C   0  0  0  0  0  0  0  0  0  0  0  0
    1.1835   -1.0097   -0.0797 C   0  0  0  0  0  0  0  0  0  0  0  0
   -0.0279   -1.6166   -0.3715 C   0  0  0  0  0  0  0  0  0  0  0  0
   -1.1974   -0.8834   -0.2929 C   0  0  0  0  0  0  0  0  0  0  0  0
   -1.1771    0.4442    0.0719 C   0  0  0  0  0  0  0  0  0  0  0  0
    0.0280    1.0779    0.3704 C   0  0  0  0  0  0  0  0  0  0  0  0
   -2.3397    1.1906    0.1549 O   0  0  0  0  0  0  0  0  0  0  0  0
   -3.6082    0.6820   -0.1160 C   0  0  0  0  0  0  0  0  0  0  0  0
    3.5108   -0.7248    0.9875 H   0  0  0  0  0  0  0  0  0  0  0  0
    4.4012    0.8748    1.0812 H   0  0  0  0  0  0  0  0  0  0  0  0
    3.9382    0.1506   -0.5326 H   0  0  0  0  0  0  0  0  0  0  0  0
    2.0614   -1.6013   -0.1500 H   0  0  0  0  0  0  0  0  0  0  0  0
   -0.0586   -2.6563   -0.6587 H   0  0  0  0  0  0  0  0  0  0  0  0
   -2.1102   -1.3982   -0.5284 H   0  0  0  0  0  0  0  0  0  0  0  0
    0.0533    2.1164    0.6567 H   0  0  0  0  0  0  0  0  0  0  0  0
   -4.2498    1.5302   -0.4739 H   0  0  0  0  0  0  0  0  0  0  0  0
   -4.0462    0.3050    0.8141 H   0  0  0  0  0  0  0  0  0  0  0  0
   -3.5750   -0.0423   -0.9499 H   0  0  0  0  0  0  0  0  0  0  0  0
  1  2  1  0
  2  3  1  0
  3  4  2  0
  4  5  1  0
  5  6  2  0
  6  7  1  0
  7  8  2  0
  7  9  1  0
  9 10  1  0
  8  3  1  0
  1 11  1  0
  1 12  1  0
  1 13  1  0
  4 14  1  0
  5 15  1  0
  6 16  1  0
  8 17  1  0
 10 18  1  0
 10 19  1  0
 10 20  1  0
M  END
>  <Ligand ID>  (1) 
LIG0000760

>  <Ligand>  (1) 
1,3-dimethoxybenzene

>  <SMILES>  (1) 
COc1cccc(c1)OC

>  <CID>  (1) 
9025.0

>  <ChEMBL ID>  (1) 
nan

>  <InChiKey>  (1) 
DPZNOMCNRMUKPS-UHFFFAOYSA-N

>  <InChi>  (1) 
InChI=1S/C8H10O2/c1-9-7-4-3-5-8(6-7)10-2/h3-6H,1-2H3

>  <IUPAC Name>  (1) 
1,3-dimethoxybenzene

$$$$
