
     RDKit          3D

 34 34  0  0  0  0  0  0  0  0999 V2000
    3.8706    0.5963   -0.8242 C   0  0  0  0  0  0  0  0  0  0  0  0
    3.5844   -0.1787    0.4057 C   0  0  0  0  0  0  0  0  0  0  0  0
    4.5654   -0.5226    1.1158 O   0  0  0  0  0  0  0  0  0  0  0  0
    2.2154   -0.5243    0.7698 C   0  0  0  0  0  0  0  0  0  0  0  0
    1.1758   -0.1682    0.0311 C   0  0  0  0  0  0  0  0  0  0  0  0
   -0.2071   -0.5212    0.4053 C   0  0  0  0  0  0  0  0  0  0  0  0
   -0.9108   -1.2901   -0.6584 C   0  0  0  0  0  0  0  0  0  0  0  0
   -2.2226   -1.4799   -0.4817 C   0  0  0  0  0  0  0  0  0  0  0  0
   -2.8684   -0.9214    0.7373 C   0  0  0  0  0  0  0  0  0  0  0  0
   -2.4033    0.4604    1.0914 C   0  0  0  0  0  0  0  0  0  0  0  0
   -1.0094    0.7558    0.5892 C   0  0  0  0  0  0  0  0  0  0  0  0
   -1.1143    1.4050   -0.7928 C   0  0  0  0  0  0  0  0  0  0  0  0
   -0.3303    1.6979    1.5326 C   0  0  0  0  0  0  0  0  0  0  0  0
   -0.2151   -1.8190   -1.8455 C   0  0  0  0  0  0  0  0  0  0  0  0
    3.1920    0.2519   -1.6588 H   0  0  0  0  0  0  0  0  0  0  0  0
    4.9210    0.4139   -1.1833 H   0  0  0  0  0  0  0  0  0  0  0  0
    3.6593    1.6823   -0.7076 H   0  0  0  0  0  0  0  0  0  0  0  0
    2.0371   -1.0917    1.6748 H   0  0  0  0  0  0  0  0  0  0  0  0
    1.3124    0.3990   -0.8797 H   0  0  0  0  0  0  0  0  0  0  0  0
   -0.2693   -1.1037    1.3405 H   0  0  0  0  0  0  0  0  0  0  0  0
   -2.7532   -2.0367   -1.2439 H   0  0  0  0  0  0  0  0  0  0  0  0
   -2.7517   -1.6295    1.6104 H   0  0  0  0  0  0  0  0  0  0  0  0
   -3.9590   -0.8831    0.5326 H   0  0  0  0  0  0  0  0  0  0  0  0
   -3.0697    1.2670    0.7218 H   0  0  0  0  0  0  0  0  0  0  0  0
   -2.3821    0.5117    2.2169 H   0  0  0  0  0  0  0  0  0  0  0  0
   -1.8492    2.2283   -0.7797 H   0  0  0  0  0  0  0  0  0  0  0  0
   -1.3272    0.6285   -1.5570 H   0  0  0  0  0  0  0  0  0  0  0  0
   -0.1275    1.8496   -1.0306 H   0  0  0  0  0  0  0  0  0  0  0  0
   -1.0933    2.2647    2.1300 H   0  0  0  0  0  0  0  0  0  0  0  0
    0.2592    2.4765    0.9751 H   0  0  0  0  0  0  0  0  0  0  0  0
    0.3330    1.1808    2.2491 H   0  0  0  0  0  0  0  0  0  0  0  0
   -0.9919   -2.0014   -2.6332 H   0  0  0  0  0  0  0  0  0  0  0  0
    0.2259   -2.7878   -1.5553 H   0  0  0  0  0  0  0  0  0  0  0  0
    0.5039   -1.1103   -2.2978 H   0  0  0  0  0  0  0  0  0  0  0  0
  1  2  1  0
  2  3  2  0
  2  4  1  0
  4  5  2  0
  5  6  1  0
  6  7  1  0
  7  8  2  0
  8  9  1  0
  9 10  1  0
 10 11  1  0
 11 12  1  0
 11 13  1  0
  7 14  1  0
 11  6  1  0
  1 15  1  0
  1 16  1  0
  1 17  1  0
  4 18  1  0
  5 19  1  0
  6 20  1  0
  8 21  1  0
  9 22  1  0
  9 23  1  0
 10 24  1  0
 10 25  1  0
 12 26  1  0
 12 27  1  0
 12 28  1  0
 13 29  1  0
 13 30  1  0
 13 31  1  0
 14 32  1  0
 14 33  1  0
 14 34  1  0
M  END
>  <Ligand ID>  (1) 
LIG0000230

>  <Ligand>  (1) 
alpha-IONONE

>  <SMILES>  (1) 
CC(=O)/C=C/C1C(=CCCC1(C)C)C

>  <CID>  (1) 
5282108.0

>  <ChEMBL ID>  (1) 
nan

>  <InChiKey>  (1) 
UZFLPKAIBPNNCA-BQYQJAHWSA-N

>  <InChi>  (1) 
InChI=1S/C13H20O/c1-10-6-5-9-13(3,4)12(10)8-7-11(2)14/h6-8,12H,5,9H2,1-4H3/b8-7+

>  <IUPAC Name>  (1) 
(E)-4-(2,6,6-trimethylcyclohex-2-en-1-yl)but-3-en-2-one

$$$$
