
     RDKit          3D

 65 67  0  0  0  0  0  0  0  0999 V2000
    2.8372   -2.2573   -1.8717 C   0  0  0  0  0  0  0  0  0  0  0  0
    3.1769   -0.9349   -1.2079 C   0  0  1  0  0  0  0  0  0  0  0  0
    4.6099   -0.7638   -1.0461 N   0  0  0  0  0  0  0  0  0  0  0  0
    5.2396   -1.7706   -0.2563 C   0  0  0  0  0  0  0  0  0  0  0  0
    6.7038   -1.6389   -0.0548 C   0  0  1  0  0  0  0  0  0  0  0  0
    7.1641   -0.3639    0.5268 C   0  0  0  0  0  0  0  0  0  0  0  0
    6.3738    0.7204    0.7997 C   0  0  0  0  0  0  0  0  0  0  0  0
    6.8955    1.8789    1.3405 C   0  0  0  0  0  0  0  0  0  0  0  0
    8.2380    1.9953    1.6307 C   0  0  0  0  0  0  0  0  0  0  0  0
    9.0354    0.9109    1.3594 C   0  0  0  0  0  0  0  0  0  0  0  0
    8.5133   -0.2529    0.8163 C   0  0  0  0  0  0  0  0  0  0  0  0
   10.7410    1.0257    1.7147 Cl  0  0  0  0  0  0  0  0  0  0  0  0
    7.2098   -2.7081    0.7183 O   0  0  0  0  0  0  0  0  0  0  0  0
    2.6811    0.1556   -2.1147 C   0  0  0  0  0  0  0  0  0  0  0  0
    1.2734    0.1294   -2.3554 N   0  0  0  0  0  0  0  0  0  0  0  0
    0.2557    0.4386   -1.4260 C   0  0  0  0  0  0  0  0  0  0  0  0
   -1.0892    0.3210   -1.7946 C   0  0  0  0  0  0  0  0  0  0  0  0
   -2.1163    0.6301   -0.9320 C   0  0  0  0  0  0  0  0  0  0  0  0
   -1.8872    1.0762    0.3539 C   0  0  0  0  0  0  0  0  0  0  0  0
   -0.5562    1.1951    0.7271 C   0  0  0  0  0  0  0  0  0  0  0  0
    0.4823    0.8838   -0.1432 C   0  0  0  0  0  0  0  0  0  0  0  0
   -2.9103    1.4249    1.3258 C   0  0  0  0  0  0  0  0  0  0  0  0
   -3.3921    0.3615    2.2349 C   0  0  0  0  0  0  0  0  0  0  0  0
   -4.1095   -0.9600    1.2927 S   0  0  0  0  0  0  0  0  0  0  0  0
   -4.6920   -2.0021    2.2306 O   0  0  0  0  0  0  0  0  0  0  0  0
   -3.1135   -1.6444    0.4024 O   0  0  0  0  0  0  0  0  0  0  0  0
   -5.4451   -0.3454    0.3776 N   0  0  0  0  0  0  0  0  0  0  0  0
   -6.7432   -0.3328    0.9477 C   0  0  0  0  0  0  0  0  0  0  0  0
   -6.9167   -0.7756    2.1351 O   0  0  0  0  0  0  0  0  0  0  0  0
   -7.9272    0.1568    0.2731 C   0  0  0  0  0  0  0  0  0  0  0  0
   -9.1303    0.1380    0.9475 C   0  0  0  0  0  0  0  0  0  0  0  0
  -10.2990    0.6015    0.3339 C   0  0  0  0  0  0  0  0  0  0  0  0
  -10.2741    1.0872   -0.9585 C   0  0  0  0  0  0  0  0  0  0  0  0
   -9.0771    1.1105   -1.6419 C   0  0  0  0  0  0  0  0  0  0  0  0
   -7.9359    0.6455   -1.0098 C   0  0  0  0  0  0  0  0  0  0  0  0
    1.7332   -2.2513   -2.0251 H   0  0  0  0  0  0  0  0  0  0  0  0
    3.0875   -3.1056   -1.2323 H   0  0  0  0  0  0  0  0  0  0  0  0
    3.3862   -2.3188   -2.8449 H   0  0  0  0  0  0  0  0  0  0  0  0
    2.6676   -0.9200   -0.2521 H   0  0  0  0  0  0  0  0  0  0  0  0
    5.0135   -0.6362   -1.9962 H   0  0  0  0  0  0  0  0  0  0  0  0
    4.7657   -1.7152    0.7639 H   0  0  0  0  0  0  0  0  0  0  0  0
    5.0169   -2.8046   -0.6002 H   0  0  0  0  0  0  0  0  0  0  0  0
    7.2218   -1.7232   -1.0455 H   0  0  0  0  0  0  0  0  0  0  0  0
    5.3280    0.6994    0.6047 H   0  0  0  0  0  0  0  0  0  0  0  0
    6.2345    2.7166    1.5419 H   0  0  0  0  0  0  0  0  0  0  0  0
    8.5755    2.9184    2.0470 H   0  0  0  0  0  0  0  0  0  0  0  0
    9.2206   -1.0556    0.6370 H   0  0  0  0  0  0  0  0  0  0  0  0
    6.4074   -3.1031    1.1832 H   0  0  0  0  0  0  0  0  0  0  0  0
    2.9117    1.1543   -1.6635 H   0  0  0  0  0  0  0  0  0  0  0  0
    3.2375    0.1659   -3.0904 H   0  0  0  0  0  0  0  0  0  0  0  0
    0.9610   -0.1516   -3.3324 H   0  0  0  0  0  0  0  0  0  0  0  0
   -1.3170   -0.0251   -2.7919 H   0  0  0  0  0  0  0  0  0  0  0  0
   -3.1340    0.5227   -1.2740 H   0  0  0  0  0  0  0  0  0  0  0  0
   -0.3195    1.5417    1.7300 H   0  0  0  0  0  0  0  0  0  0  0  0
    1.4679    1.0141    0.2206 H   0  0  0  0  0  0  0  0  0  0  0  0
   -2.5095    2.2733    1.9573 H   0  0  0  0  0  0  0  0  0  0  0  0
   -3.7580    1.9122    0.7694 H   0  0  0  0  0  0  0  0  0  0  0  0
   -4.2461    0.7602    2.8594 H   0  0  0  0  0  0  0  0  0  0  0  0
   -2.6626    0.0084    2.9712 H   0  0  0  0  0  0  0  0  0  0  0  0
   -5.3560    0.0248   -0.5899 H   0  0  0  0  0  0  0  0  0  0  0  0
   -9.2517   -0.2227    1.9590 H   0  0  0  0  0  0  0  0  0  0  0  0
  -11.2477    0.5848    0.8716 H   0  0  0  0  0  0  0  0  0  0  0  0
  -11.2011    1.4325   -1.3843 H   0  0  0  0  0  0  0  0  0  0  0  0
   -9.0315    1.4894   -2.6642 H   0  0  0  0  0  0  0  0  0  0  0  0
   -7.0173    0.6784   -1.5744 H   0  0  0  0  0  0  0  0  0  0  0  0
  1  2  1  0
  2  3  1  0
  3  4  1  0
  4  5  1  0
  5  6  1  0
  6  7  2  0
  7  8  1  0
  8  9  2  0
  9 10  1  0
 10 11  2  0
 10 12  1  0
  5 13  1  0
  2 14  1  0
 14 15  1  0
 15 16  1  0
 16 17  2  0
 17 18  1  0
 18 19  2  0
 19 20  1  0
 20 21  2  0
 19 22  1  0
 22 23  1  0
 23 24  1  0
 24 25  2  0
 24 26  2  0
 24 27  1  0
 27 28  1  0
 28 29  2  0
 28 30  1  0
 30 31  2  0
 31 32  1  0
 32 33  2  0
 33 34  1  0
 34 35  2  0
 11  6  1  0
 21 16  1  0
 35 30  1  0
  1 36  1  0
  1 37  1  0
  1 38  1  0
  2 39  1  1
  3 40  1  0
  4 41  1  0
  4 42  1  0
  5 43  1  6
  7 44  1  0
  8 45  1  0
  9 46  1  0
 11 47  1  0
 13 48  1  0
 14 49  1  0
 14 50  1  0
 15 51  1  0
 17 52  1  0
 18 53  1  0
 20 54  1  0
 21 55  1  0
 22 56  1  0
 22 57  1  0
 23 58  1  0
 23 59  1  0
 27 60  1  0
 31 61  1  0
 32 62  1  0
 33 63  1  0
 34 64  1  0
 35 65  1  0
M  END
>  <Ligand ID>  (1) 
LIG0002247

>  <Ligand>  (1) 
CHEMBL422876

>  <SMILES>  (1) 
C[C@@H](NC[C@@H](c1cccc(c1)Cl)O)CNc1ccc(cc1)CCS(=O)(=O)NC(=O)c1ccccc1

>  <CID>  (1) 
10940242.0

>  <ChEMBL ID>  (1) 
nan

>  <InChiKey>  (1) 
FCPALNDUDOQUGN-CLOONOSVSA-N

>  <InChi>  (1) 
InChI=1S/C26H30ClN3O4S/c1-19(28-18-25(31)22-8-5-9-23(27)16-22)17-29-24-12-10-20(11-13-24)14-15-35(33,34)30-26(32)21-6-3-2-4-7-21/h2-13,16,19,25,28-29,31H,14-15,17-18H2,1H3,(H,30,32)/t19-,25+/m1/s1

>  <IUPAC Name>  (1) 
N-[2-[4-[[(2R)-2-[[(2R)-2-(3-chlorophenyl)-2-hydroxyethyl]amino]propyl]amino]phenyl]ethylsulfonyl]benzamide

$$$$
