
     RDKit          3D

 99102  0  0  0  0  0  0  0  0999 V2000
    0.1673    6.4256    2.5718 N   0  0  0  0  0  0  0  0  0  0  0  0
   -0.8734    5.5420    3.0611 C   0  0  0  0  0  0  0  0  0  0  0  0
   -0.4998    4.2970    3.1270 N   0  0  0  0  0  0  0  0  0  0  0  0
    0.7961    3.8495    2.7602 C   0  0  0  0  0  0  0  0  0  0  0  0
    0.9334    3.3008    1.3559 C   0  0  0  0  0  0  0  0  0  0  0  0
    0.0495    2.1279    1.0985 C   0  0  0  0  0  0  0  0  0  0  0  0
    0.2837    1.6555   -0.3737 C   0  0  1  0  0  0  0  0  0  0  0  0
    1.6950    1.2807   -0.5391 C   0  0  0  0  0  0  0  0  0  0  0  0
    2.4417    2.1319   -1.1483 O   0  0  0  0  0  0  0  0  0  0  0  0
    2.1618    0.0557   -0.0393 N   0  0  0  0  0  0  0  0  0  0  0  0
    3.4405   -0.5500   -0.0883 C   0  0  2  0  0  0  0  0  0  0  0  0
    3.9670   -0.9764    1.1950 C   0  0  0  0  0  0  0  0  0  0  0  0
    3.2578   -0.7174    2.2392 O   0  0  0  0  0  0  0  0  0  0  0  0
    5.1823   -1.6542    1.4442 N   0  0  0  0  0  0  0  0  0  0  0  0
    4.4093    0.3804   -0.8658 C   0  0  0  0  0  0  0  0  0  0  0  0
    5.7661   -0.2742   -0.8987 C   0  0  0  0  0  0  0  0  0  0  0  0
    5.9299   -1.2477   -1.8653 C   0  0  0  0  0  0  0  0  0  0  0  0
    7.1675   -1.9053   -1.9833 C   0  0  0  0  0  0  0  0  0  0  0  0
    8.1605   -1.5262   -1.1029 C   0  0  0  0  0  0  0  0  0  0  0  0
    7.9909   -0.5476   -0.1357 C   0  0  0  0  0  0  0  0  0  0  0  0
    6.7615    0.1059   -0.0178 C   0  0  0  0  0  0  0  0  0  0  0  0
    9.4416   -2.2558   -1.2236 C   0  0  0  0  0  0  0  0  0  0  0  0
    9.8595   -2.7454   -2.4782 C   0  0  0  0  0  0  0  0  0  0  0  0
   11.0569   -3.4320   -2.5397 C   0  0  0  0  0  0  0  0  0  0  0  0
   11.8391   -3.6432   -1.4126 C   0  0  0  0  0  0  0  0  0  0  0  0
   11.4122   -3.1536   -0.2030 C   0  0  0  0  0  0  0  0  0  0  0  0
   10.2013   -2.4503   -0.0906 C   0  0  0  0  0  0  0  0  0  0  0  0
   -0.5407    0.4524   -0.5509 N   0  0  0  0  0  0  0  0  0  0  0  0
   -1.9806    0.5362   -0.6150 C   0  0  0  0  0  0  0  0  0  0  0  0
   -2.5330    1.6407   -0.4828 O   0  0  0  0  0  0  0  0  0  0  0  0
   -2.6740   -0.7546   -0.8442 C   0  0  1  0  0  0  0  0  0  0  0  0
   -4.1152   -0.5882   -0.6363 N   0  0  0  0  0  0  0  0  0  0  0  0
   -4.8087   -1.6287   -0.0062 C   0  0  0  0  0  0  0  0  0  0  0  0
   -4.1201   -2.6463    0.3403 O   0  0  0  0  0  0  0  0  0  0  0  0
   -6.2458   -1.6784    0.3011 C   0  0  2  0  0  0  0  0  0  0  0  0
   -6.5116   -0.5291    1.3116 C   0  0  0  0  0  0  0  0  0  0  0  0
   -7.9348   -0.4035    1.6394 C   0  0  0  0  0  0  0  0  0  0  0  0
   -8.3802    0.5289    2.5541 N   0  0  0  0  0  0  0  0  0  0  0  0
   -9.7422    0.4048    2.6146 C   0  0  0  0  0  0  0  0  0  0  0  0
  -10.1522   -0.5435    1.7906 N   0  0  0  0  0  0  0  0  0  0  0  0
   -9.0636   -1.0576    1.1777 C   0  0  0  0  0  0  0  0  0  0  0  0
   -6.5591   -2.9532    0.9210 N   0  0  0  0  0  0  0  0  0  0  0  0
   -7.0160   -3.2547    2.1991 C   0  0  0  0  0  0  0  0  0  0  0  0
   -7.2571   -2.5021    3.1572 O   0  0  0  0  0  0  0  0  0  0  0  0
   -7.2605   -4.7311    2.4819 C   0  0  0  0  0  0  0  0  0  0  0  0
   -2.5067   -1.1234   -2.3444 C   0  0  0  0  0  0  0  0  0  0  0  0
   -3.1723    0.0188   -3.0788 C   0  0  0  0  0  0  0  0  0  0  0  0
   -4.5185   -0.1063   -3.3177 C   0  0  0  0  0  0  0  0  0  0  0  0
   -5.2435    0.8547   -3.9826 C   0  0  0  0  0  0  0  0  0  0  0  0
   -4.5478    1.9751   -4.4075 C   0  0  0  0  0  0  0  0  0  0  0  0
   -3.1752    2.1267   -4.1768 C   0  0  0  0  0  0  0  0  0  0  0  0
   -2.4688    1.1200   -3.4930 C   0  0  0  0  0  0  0  0  0  0  0  0
   -2.1468    6.0221    3.4293 N   0  0  0  0  0  0  0  0  0  0  0  0
    0.5563    6.3356    1.6167 H   0  0  0  0  0  0  0  0  0  0  0  0
    0.5083    7.1519    3.2223 H   0  0  0  0  0  0  0  0  0  0  0  0
    1.5474    4.6878    2.8422 H   0  0  0  0  0  0  0  0  0  0  0  0
    1.1331    3.0898    3.5113 H   0  0  0  0  0  0  0  0  0  0  0  0
    1.9967    2.8969    1.3259 H   0  0  0  0  0  0  0  0  0  0  0  0
    0.8965    4.1054    0.6139 H   0  0  0  0  0  0  0  0  0  0  0  0
    0.3084    1.3149    1.7714 H   0  0  0  0  0  0  0  0  0  0  0  0
   -1.0184    2.4399    1.1088 H   0  0  0  0  0  0  0  0  0  0  0  0
   -0.0396    2.5128   -0.9546 H   0  0  0  0  0  0  0  0  0  0  0  0
    1.4161   -0.5258    0.4937 H   0  0  0  0  0  0  0  0  0  0  0  0
    3.3554   -1.3974   -0.8605 H   0  0  0  0  0  0  0  0  0  0  0  0
    5.7460   -1.3580    2.2733 H   0  0  0  0  0  0  0  0  0  0  0  0
    5.5575   -2.4323    0.8551 H   0  0  0  0  0  0  0  0  0  0  0  0
    3.9877    0.4752   -1.8814 H   0  0  0  0  0  0  0  0  0  0  0  0
    4.4733    1.3535   -0.3861 H   0  0  0  0  0  0  0  0  0  0  0  0
    5.1622   -1.5595   -2.5555 H   0  0  0  0  0  0  0  0  0  0  0  0
    7.3019   -2.6722   -2.7394 H   0  0  0  0  0  0  0  0  0  0  0  0
    8.7880   -0.2585    0.5541 H   0  0  0  0  0  0  0  0  0  0  0  0
    6.5805    0.8751    0.7228 H   0  0  0  0  0  0  0  0  0  0  0  0
    9.2388   -2.5741   -3.3416 H   0  0  0  0  0  0  0  0  0  0  0  0
   11.3848   -3.8060   -3.5029 H   0  0  0  0  0  0  0  0  0  0  0  0
   12.7991   -4.1966   -1.4825 H   0  0  0  0  0  0  0  0  0  0  0  0
   12.0463   -3.3319    0.6607 H   0  0  0  0  0  0  0  0  0  0  0  0
    9.8696   -2.0674    0.8743 H   0  0  0  0  0  0  0  0  0  0  0  0
   -0.1224   -0.4991   -0.6493 H   0  0  0  0  0  0  0  0  0  0  0  0
   -2.2524   -1.5393   -0.2268 H   0  0  0  0  0  0  0  0  0  0  0  0
   -4.6400    0.2609   -0.9223 H   0  0  0  0  0  0  0  0  0  0  0  0
   -6.9184   -1.4707   -0.5316 H   0  0  0  0  0  0  0  0  0  0  0  0
   -6.1047    0.4111    0.8670 H   0  0  0  0  0  0  0  0  0  0  0  0
   -5.9161   -0.7733    2.2328 H   0  0  0  0  0  0  0  0  0  0  0  0
   -7.8086    1.2001    3.1032 H   0  0  0  0  0  0  0  0  0  0  0  0
  -10.3467    1.0428    3.2823 H   0  0  0  0  0  0  0  0  0  0  0  0
   -9.0066   -1.8436    0.4400 H   0  0  0  0  0  0  0  0  0  0  0  0
   -6.4006   -3.7861    0.2651 H   0  0  0  0  0  0  0  0  0  0  0  0
   -7.9228   -4.8466    3.3490 H   0  0  0  0  0  0  0  0  0  0  0  0
   -6.3116   -5.2765    2.6212 H   0  0  0  0  0  0  0  0  0  0  0  0
   -7.7941   -5.1200    1.5596 H   0  0  0  0  0  0  0  0  0  0  0  0
   -1.4662   -1.1448   -2.6440 H   0  0  0  0  0  0  0  0  0  0  0  0
   -3.0528   -2.0425   -2.5333 H   0  0  0  0  0  0  0  0  0  0  0  0
   -5.0829   -0.9927   -2.9789 H   0  0  0  0  0  0  0  0  0  0  0  0
   -6.2993    0.7097   -4.1453 H   0  0  0  0  0  0  0  0  0  0  0  0
   -5.1357    2.7236   -4.9200 H   0  0  0  0  0  0  0  0  0  0  0  0
   -2.6960    3.0122   -4.5426 H   0  0  0  0  0  0  0  0  0  0  0  0
   -1.4084    1.2591   -3.3293 H   0  0  0  0  0  0  0  0  0  0  0  0
   -2.5646    6.8430    2.9001 H   0  0  0  0  0  0  0  0  0  0  0  0
   -2.6688    5.5598    4.2321 H   0  0  0  0  0  0  0  0  0  0  0  0
  1  2  1  0
  2  3  2  3
  3  4  1  0
  4  5  1  0
  5  6  1  0
  6  7  1  0
  7  8  1  0
  8  9  2  0
  8 10  1  0
 10 11  1  0
 11 12  1  0
 12 13  2  0
 12 14  1  0
 11 15  1  0
 15 16  1  0
 16 17  2  0
 17 18  1  0
 18 19  2  0
 19 20  1  0
 20 21  2  0
 19 22  1  0
 22 23  2  0
 23 24  1  0
 24 25  2  0
 25 26  1  0
 26 27  2  0
  7 28  1  0
 28 29  1  0
 29 30  2  0
 29 31  1  0
 31 32  1  0
 32 33  1  0
 33 34  2  0
 33 35  1  0
 35 36  1  0
 36 37  1  0
 37 38  1  0
 38 39  1  0
 39 40  2  0
 40 41  1  0
 35 42  1  0
 42 43  1  0
 43 44  2  0
 43 45  1  0
 31 46  1  0
 46 47  1  0
 47 48  2  0
 48 49  1  0
 49 50  2  0
 50 51  1  0
 51 52  2  0
  2 53  1  0
 21 16  1  0
 27 22  1  0
 41 37  2  0
 52 47  1  0
  1 54  1  0
  1 55  1  0
  4 56  1  0
  4 57  1  0
  5 58  1  0
  5 59  1  0
  6 60  1  0
  6 61  1  0
  7 62  1  6
 10 63  1  0
 11 64  1  6
 14 65  1  0
 14 66  1  0
 15 67  1  0
 15 68  1  0
 17 69  1  0
 18 70  1  0
 20 71  1  0
 21 72  1  0
 23 73  1  0
 24 74  1  0
 25 75  1  0
 26 76  1  0
 27 77  1  0
 28 78  1  0
 31 79  1  1
 32 80  1  0
 35 81  1  6
 36 82  1  0
 36 83  1  0
 38 84  1  0
 39 85  1  0
 41 86  1  0
 42 87  1  0
 45 88  1  0
 45 89  1  0
 45 90  1  0
 46 91  1  0
 46 92  1  0
 48 93  1  0
 49 94  1  0
 50 95  1  0
 51 96  1  0
 52 97  1  0
 53 98  1  0
 53 99  1  0
M  END
>  <Ligand ID>  (1) 
LIG0001405

>  <Ligand>  (1) 
CHEMBL348901

>  <SMILES>  (1) 
NC(=NCCC[C@@H](C(=O)N[C@H](C(=O)N)Cc1ccc(cc1)c1ccccc1)NC(=O)[C@@H](NC(=O)[C@H](Cc1[nH]cnc1)NC(=O)C)Cc1ccccc1)N

>  <CID>  (1) 
44369167.0

>  <ChEMBL ID>  (1) 
nan

>  <InChiKey>  (1) 
RERCBFQKZPDEAT-YRCZKMHPSA-N

>  <InChi>  (1) 
InChI=1S/C38H46N10O5/c1-24(49)45-33(21-29-22-42-23-44-29)37(53)48-32(20-25-9-4-2-5-10-25)36(52)46-30(13-8-18-43-38(40)41)35(51)47-31(34(39)50)19-26-14-16-28(17-15-26)27-11-6-3-7-12-27/h2-7,9-12,14-17,22-23,30-33H,8,13,18-21H2,1H3,(H2,39,50)(H,42,44)(H,45,49)(H,46,52)(H,47,51)(H,48,53)(H4,40,41,43)/t30-,31-,32-,33-/m0/s1

>  <IUPAC Name>  (1) 
(2S)-2-[[(2S)-2-[[(2S)-2-acetamido-3-(1H-imidazol-5-yl)propanoyl]amino]-3-phenylpropanoyl]amino]-N-[(2S)-1-amino-1-oxo-3-(4-phenylphenyl)propan-2-yl]-5-(diaminomethylideneamino)pentanamide

$$$$
