
     RDKit          3D

103107  0  0  0  0  0  0  0  0999 V2000
   -3.3305   -7.5116    2.1241 N   0  0  0  0  0  0  0  0  0  0  0  0
   -2.1742   -6.6576    2.0079 C   0  0  0  0  0  0  0  0  0  0  0  0
   -2.0699   -5.9805    0.9358 N   0  0  0  0  0  0  0  0  0  0  0  0
   -0.9615   -5.0951    0.7108 C   0  0  0  0  0  0  0  0  0  0  0  0
   -0.9029   -4.0073    1.7882 C   0  0  0  0  0  0  0  0  0  0  0  0
   -2.1977   -3.2445    1.7707 C   0  0  0  0  0  0  0  0  0  0  0  0
   -2.4815   -2.5462    0.4840 C   0  0  1  0  0  0  0  0  0  0  0  0
   -3.8009   -1.8639    0.6226 C   0  0  0  0  0  0  0  0  0  0  0  0
   -4.7624   -2.6352    0.9725 O   0  0  0  0  0  0  0  0  0  0  0  0
   -4.0379   -0.4584    0.3888 N   0  0  0  0  0  0  0  0  0  0  0  0
   -5.4043   -0.0597    0.5607 C   0  0  2  0  0  0  0  0  0  0  0  0
   -5.9615   -0.0373   -0.8690 C   0  0  0  0  0  0  0  0  0  0  0  0
   -7.1544    0.2824   -1.0847 O   0  0  0  0  0  0  0  0  0  0  0  0
   -5.1095   -0.3868   -1.9759 N   0  0  0  0  0  0  0  0  0  0  0  0
   -5.7727    1.1729    1.2431 C   0  0  0  0  0  0  0  0  0  0  0  0
   -5.3066    2.4238    0.6355 C   0  0  0  0  0  0  0  0  0  0  0  0
   -6.1519    3.1769   -0.2058 C   0  0  0  0  0  0  0  0  0  0  0  0
   -5.5113    4.2641   -0.6467 N   0  0  0  0  0  0  0  0  0  0  0  0
   -4.2836    4.2352   -0.1169 C   0  0  0  0  0  0  0  0  0  0  0  0
   -4.1326    3.1170    0.6725 C   0  0  0  0  0  0  0  0  0  0  0  0
   -2.9623    2.8760    1.3431 C   0  0  0  0  0  0  0  0  0  0  0  0
   -1.9530    3.8169    1.1787 C   0  0  0  0  0  0  0  0  0  0  0  0
   -2.0685    4.9368    0.4026 C   0  0  0  0  0  0  0  0  0  0  0  0
   -3.2674    5.1684   -0.2742 C   0  0  0  0  0  0  0  0  0  0  0  0
   -1.4035   -1.6636    0.1292 N   0  0  0  0  0  0  0  0  0  0  0  0
   -1.2785   -1.2791   -1.2266 C   0  0  0  0  0  0  0  0  0  0  0  0
   -2.1304   -1.7302   -2.0312 O   0  0  0  0  0  0  0  0  0  0  0  0
   -0.1678   -0.3518   -1.7001 C   0  0  1  0  0  0  0  0  0  0  0  0
    0.8601   -0.1741   -0.7579 N   0  0  0  0  0  0  0  0  0  0  0  0
    0.8086    0.6146    0.4318 C   0  0  0  0  0  0  0  0  0  0  0  0
   -0.2498    1.2152    0.7156 O   0  0  0  0  0  0  0  0  0  0  0  0
    2.0084    0.6790    1.2713 C   0  0  1  0  0  0  0  0  0  0  0  0
    3.1911    0.2603    0.5494 N   0  0  0  0  0  0  0  0  0  0  0  0
    3.6642    1.2317   -0.4149 C   0  0  0  0  0  0  0  0  0  0  0  0
    2.9396    2.2885   -0.4596 O   0  0  0  0  0  0  0  0  0  0  0  0
    4.8298    1.0381   -1.2404 C   0  0  0  0  0  0  0  0  0  0  0  0
    5.6373   -0.0717   -1.2275 C   0  0  0  0  0  0  0  0  0  0  0  0
    6.7379   -0.1103   -2.0934 C   0  0  0  0  0  0  0  0  0  0  0  0
    7.0184    0.9322   -2.9446 C   0  0  0  0  0  0  0  0  0  0  0  0
    6.2130    2.0573   -2.9678 C   0  0  0  0  0  0  0  0  0  0  0  0
    5.1386    2.0876   -2.1179 C   0  0  0  0  0  0  0  0  0  0  0  0
    2.1302    1.8925    2.1153 C   0  0  0  0  0  0  0  0  0  0  0  0
    3.3728    1.8829    2.9307 C   0  0  0  0  0  0  0  0  0  0  0  0
    3.4335    1.2303    4.1650 C   0  0  0  0  0  0  0  0  0  0  0  0
    4.6118    1.2494    4.9031 C   0  0  0  0  0  0  0  0  0  0  0  0
    5.7460    1.8809    4.4898 C   0  0  0  0  0  0  0  0  0  0  0  0
    5.6909    2.5315    3.2632 C   0  0  0  0  0  0  0  0  0  0  0  0
    4.5227    2.5348    2.4917 C   0  0  0  0  0  0  0  0  0  0  0  0
    7.1937    1.8624    5.4723 Cl  0  0  0  0  0  0  0  0  0  0  0  0
    0.1189   -0.7288   -3.0786 C   0  0  0  0  0  0  0  0  0  0  0  0
    1.1835    0.0328   -3.7825 C   0  0  0  0  0  0  0  0  0  0  0  0
    2.4706   -0.4780   -3.6753 C   0  0  0  0  0  0  0  0  0  0  0  0
    3.4562    0.2212   -4.3316 C   0  0  0  0  0  0  0  0  0  0  0  0
    3.2417    1.3649   -5.0639 C   0  0  0  0  0  0  0  0  0  0  0  0
    1.9578    1.8704   -5.1668 C   0  0  0  0  0  0  0  0  0  0  0  0
    0.9287    1.1826   -4.5119 C   0  0  0  0  0  0  0  0  0  0  0  0
   -1.2781   -6.6689    3.0973 N   0  0  0  0  0  0  0  0  0  0  0  0
   -4.2477   -7.1084    2.4187 H   0  0  0  0  0  0  0  0  0  0  0  0
   -3.2962   -8.5290    1.9245 H   0  0  0  0  0  0  0  0  0  0  0  0
   -1.0512   -4.6384   -0.2776 H   0  0  0  0  0  0  0  0  0  0  0  0
   -0.0362   -5.7394    0.8099 H   0  0  0  0  0  0  0  0  0  0  0  0
   -0.7430   -4.4022    2.7977 H   0  0  0  0  0  0  0  0  0  0  0  0
   -0.0821   -3.3008    1.5534 H   0  0  0  0  0  0  0  0  0  0  0  0
   -2.3010   -2.5713    2.6550 H   0  0  0  0  0  0  0  0  0  0  0  0
   -3.0061   -4.0274    1.9094 H   0  0  0  0  0  0  0  0  0  0  0  0
   -2.6122   -3.3457   -0.3270 H   0  0  0  0  0  0  0  0  0  0  0  0
   -3.2445    0.1218    0.1309 H   0  0  0  0  0  0  0  0  0  0  0  0
   -6.0128   -0.8988    1.0167 H   0  0  0  0  0  0  0  0  0  0  0  0
   -4.2706    0.2200   -2.2293 H   0  0  0  0  0  0  0  0  0  0  0  0
   -5.3383   -1.2600   -2.5246 H   0  0  0  0  0  0  0  0  0  0  0  0
   -5.3151    1.1059    2.2998 H   0  0  0  0  0  0  0  0  0  0  0  0
   -6.8927    1.2552    1.4185 H   0  0  0  0  0  0  0  0  0  0  0  0
   -7.1795    2.9420   -0.4771 H   0  0  0  0  0  0  0  0  0  0  0  0
   -5.9479    4.9788   -1.2960 H   0  0  0  0  0  0  0  0  0  0  0  0
   -2.8904    1.9986    1.9380 H   0  0  0  0  0  0  0  0  0  0  0  0
   -1.0109    3.6651    1.6916 H   0  0  0  0  0  0  0  0  0  0  0  0
   -1.2756    5.6726    0.2729 H   0  0  0  0  0  0  0  0  0  0  0  0
   -3.4208    6.0351   -0.9039 H   0  0  0  0  0  0  0  0  0  0  0  0
   -0.7623   -1.3609    0.8834 H   0  0  0  0  0  0  0  0  0  0  0  0
   -0.7456    0.6418   -1.6981 H   0  0  0  0  0  0  0  0  0  0  0  0
    1.7832   -0.6828   -0.9420 H   0  0  0  0  0  0  0  0  0  0  0  0
    1.8628   -0.1691    2.0348 H   0  0  0  0  0  0  0  0  0  0  0  0
    3.6898   -0.6397    0.6717 H   0  0  0  0  0  0  0  0  0  0  0  0
    5.4002   -0.8822   -0.5532 H   0  0  0  0  0  0  0  0  0  0  0  0
    7.3455   -0.9950   -2.0514 H   0  0  0  0  0  0  0  0  0  0  0  0
    7.8715    0.9148   -3.6223 H   0  0  0  0  0  0  0  0  0  0  0  0
    6.3951    2.9040   -3.6254 H   0  0  0  0  0  0  0  0  0  0  0  0
    4.5138    2.9740   -2.1512 H   0  0  0  0  0  0  0  0  0  0  0  0
    1.9331    2.8617    1.6187 H   0  0  0  0  0  0  0  0  0  0  0  0
    1.3081    1.8004    2.8972 H   0  0  0  0  0  0  0  0  0  0  0  0
    2.5731    0.7066    4.5623 H   0  0  0  0  0  0  0  0  0  0  0  0
    4.6790    0.7369    5.8828 H   0  0  0  0  0  0  0  0  0  0  0  0
    6.5606    3.0512    2.8890 H   0  0  0  0  0  0  0  0  0  0  0  0
    4.5782    3.0744    1.5626 H   0  0  0  0  0  0  0  0  0  0  0  0
    0.2113   -1.8256   -3.2636 H   0  0  0  0  0  0  0  0  0  0  0  0
   -0.8136   -0.4765   -3.6744 H   0  0  0  0  0  0  0  0  0  0  0  0
    2.6763   -1.3733   -3.1064 H   0  0  0  0  0  0  0  0  0  0  0  0
    4.4723   -0.2054   -4.2297 H   0  0  0  0  0  0  0  0  0  0  0  0
    4.0605    1.8768   -5.5575 H   0  0  0  0  0  0  0  0  0  0  0  0
    1.7722    2.7668   -5.7365 H   0  0  0  0  0  0  0  0  0  0  0  0
   -0.0829    1.5636   -4.5851 H   0  0  0  0  0  0  0  0  0  0  0  0
   -0.2936   -6.9900    3.0676 H   0  0  0  0  0  0  0  0  0  0  0  0
   -1.6532   -6.3170    4.0235 H   0  0  0  0  0  0  0  0  0  0  0  0
  1  2  1  0
  2  3  2  3
  3  4  1  0
  4  5  1  0
  5  6  1  0
  6  7  1  0
  7  8  1  0
  8  9  2  0
  8 10  1  0
 10 11  1  0
 11 12  1  0
 12 13  2  0
 12 14  1  0
 11 15  1  0
 15 16  1  0
 16 17  2  0
 17 18  1  0
 18 19  1  0
 19 20  2  0
 20 21  1  0
 21 22  2  0
 22 23  1  0
 23 24  2  0
  7 25  1  0
 25 26  1  0
 26 27  2  0
 26 28  1  0
 28 29  1  0
 29 30  1  0
 30 31  2  0
 30 32  1  0
 32 33  1  0
 33 34  1  0
 34 35  2  0
 34 36  1  0
 36 37  2  0
 37 38  1  0
 38 39  2  0
 39 40  1  0
 40 41  2  0
 32 42  1  0
 42 43  1  0
 43 44  2  0
 44 45  1  0
 45 46  2  0
 46 47  1  0
 47 48  2  0
 46 49  1  0
 28 50  1  0
 50 51  1  0
 51 52  2  0
 52 53  1  0
 53 54  2  0
 54 55  1  0
 55 56  2  0
  2 57  1  0
 20 16  1  0
 41 36  1  0
 48 43  1  0
 56 51  1  0
 24 19  1  0
  1 58  1  0
  1 59  1  0
  4 60  1  0
  4 61  1  0
  5 62  1  0
  5 63  1  0
  6 64  1  0
  6 65  1  0
  7 66  1  6
 10 67  1  0
 11 68  1  1
 14 69  1  0
 14 70  1  0
 15 71  1  0
 15 72  1  0
 17 73  1  0
 18 74  1  0
 21 75  1  0
 22 76  1  0
 23 77  1  0
 24 78  1  0
 25 79  1  0
 28 80  1  6
 29 81  1  0
 32 82  1  1
 33 83  1  0
 37 84  1  0
 38 85  1  0
 39 86  1  0
 40 87  1  0
 41 88  1  0
 42 89  1  0
 42 90  1  0
 44 91  1  0
 45 92  1  0
 47 93  1  0
 48 94  1  0
 50 95  1  0
 50 96  1  0
 52 97  1  0
 53 98  1  0
 54 99  1  0
 55100  1  0
 56101  1  0
 57102  1  0
 57103  1  0
M  END
>  <Ligand ID>  (1) 
LIG0002619

>  <Ligand>  (1) 
CHEMBL181494

>  <SMILES>  (1) 
NC(=NCCC[C@@H](C(=O)N[C@H](C(=O)N)Cc1c[nH]c2c1cccc2)NC(=O)[C@@H](NC(=O)[C@@H](NC(=O)c1ccccc1)Cc1ccc(cc1)Cl)Cc1ccccc1)N

>  <CID>  (1) 
44394734.0

>  <ChEMBL ID>  (1) 
nan

>  <InChiKey>  (1) 
HWAZMIAWRKMLMG-ZYADHFCISA-N

>  <InChi>  (1) 
InChI=1S/C42H46ClN9O5/c43-30-19-17-27(18-20-30)23-35(51-38(54)28-12-5-2-6-13-28)41(57)52-36(22-26-10-3-1-4-11-26)40(56)49-33(16-9-21-47-42(45)46)39(55)50-34(37(44)53)24-29-25-48-32-15-8-7-14-31(29)32/h1-8,10-15,17-20,25,33-36,48H,9,16,21-24H2,(H2,44,53)(H,49,56)(H,50,55)(H,51,54)(H,52,57)(H4,45,46,47)/t33-,34-,35-,36-/m0/s1

>  <IUPAC Name>  (1) 
N-[(2S)-1-[[(2S)-1-[[(2S)-1-[[(2S)-1-amino-3-(1H-indol-3-yl)-1-oxopropan-2-yl]amino]-5-(diaminomethylideneamino)-1-oxopentan-2-yl]amino]-1-oxo-3-phenylpropan-2-yl]amino]-3-(4-chlorophenyl)-1-oxopropan-2-yl]benzamide

$$$$
