
     RDKit          3D

 54 55  0  0  0  0  0  0  0  0999 V2000
   -7.0843   -1.8034   -2.3992 C   0  0  0  0  0  0  0  0  0  0  0  0
   -7.3513   -1.2405   -1.0179 C   0  0  0  0  0  0  0  0  0  0  0  0
   -6.4450   -0.0879   -0.7163 C   0  0  0  0  0  0  0  0  0  0  0  0
   -6.9741    1.0454   -0.4757 O   0  0  0  0  0  0  0  0  0  0  0  0
   -4.9966   -0.2125   -0.6876 C   0  0  0  0  0  0  0  0  0  0  0  0
   -4.4063   -1.4273   -0.9419 C   0  0  0  0  0  0  0  0  0  0  0  0
   -3.0405   -1.4921   -0.9018 C   0  0  0  0  0  0  0  0  0  0  0  0
   -2.2311   -0.3829   -0.6152 C   0  0  0  0  0  0  0  0  0  0  0  0
   -2.9078    0.8228   -0.3663 C   0  0  0  0  0  0  0  0  0  0  0  0
   -4.2748    0.9245   -0.3982 C   0  0  0  0  0  0  0  0  0  0  0  0
   -4.8570    2.1575   -0.1394 O   0  0  0  0  0  0  0  0  0  0  0  0
   -2.0833    2.0008   -0.0618 C   0  0  0  0  0  0  0  0  0  0  0  0
   -0.9616   -0.4621   -0.5823 O   0  0  0  0  0  0  0  0  0  0  0  0
    0.3282   -0.5791   -0.5572 C   0  0  0  0  0  0  0  0  0  0  0  0
    1.1306    0.6895   -0.2328 C   0  0  0  0  0  0  0  0  0  0  0  0
    2.6201    0.3687   -0.2469 C   0  0  0  0  0  0  0  0  0  0  0  0
    3.3619    1.6316    0.0747 C   0  0  0  0  0  0  0  0  0  0  0  0
    4.7287    1.5364    0.1063 O   0  0  0  0  0  0  0  0  0  0  0  0
    5.6091    0.8390    0.8533 C   0  0  0  0  0  0  0  0  0  0  0  0
    5.3344   -0.0293    1.8811 C   0  0  0  0  0  0  0  0  0  0  0  0
    6.3098   -0.7054    2.5938 C   0  0  0  0  0  0  0  0  0  0  0  0
    7.6486   -0.5022    2.2599 C   0  0  0  0  0  0  0  0  0  0  0  0
    7.9597    0.3598    1.2372 C   0  0  0  0  0  0  0  0  0  0  0  0
    6.9733    1.0058    0.5600 C   0  0  0  0  0  0  0  0  0  0  0  0
    9.3649    0.5815    0.8781 C   0  0  0  0  0  0  0  0  0  0  0  0
   10.2916    0.0107    1.4730 O   0  0  0  0  0  0  0  0  0  0  0  0
    9.6870    1.4548   -0.1582 O   0  0  0  0  0  0  0  0  0  0  0  0
    8.6514   -1.1339    2.9188 F   0  0  0  0  0  0  0  0  0  0  0  0
   -7.1531   -2.2685    0.0613 C   0  0  0  0  0  0  0  0  0  0  0  0
   -6.2466   -1.2512   -2.8706 H   0  0  0  0  0  0  0  0  0  0  0  0
   -7.9544   -1.6276   -3.0984 H   0  0  0  0  0  0  0  0  0  0  0  0
   -6.9409   -2.8999   -2.3559 H   0  0  0  0  0  0  0  0  0  0  0  0
   -8.3951   -0.9181   -1.0132 H   0  0  0  0  0  0  0  0  0  0  0  0
   -4.9457   -2.3275   -1.1689 H   0  0  0  0  0  0  0  0  0  0  0  0
   -2.5241   -2.4360   -1.0969 H   0  0  0  0  0  0  0  0  0  0  0  0
   -4.5737    2.9356   -0.7336 H   0  0  0  0  0  0  0  0  0  0  0  0
   -2.6993    2.8805    0.2290 H   0  0  0  0  0  0  0  0  0  0  0  0
   -1.4562    1.7355    0.8327 H   0  0  0  0  0  0  0  0  0  0  0  0
   -1.4155    2.2248   -0.8904 H   0  0  0  0  0  0  0  0  0  0  0  0
    0.8072   -0.9861   -1.5224 H   0  0  0  0  0  0  0  0  0  0  0  0
    0.6839   -1.3453    0.2097 H   0  0  0  0  0  0  0  0  0  0  0  0
    0.8621    1.1385    0.7205 H   0  0  0  0  0  0  0  0  0  0  0  0
    0.9046    1.4052   -1.0469 H   0  0  0  0  0  0  0  0  0  0  0  0
    2.7733   -0.4327    0.4580 H   0  0  0  0  0  0  0  0  0  0  0  0
    2.9361    0.0706   -1.2905 H   0  0  0  0  0  0  0  0  0  0  0  0
    3.1054    2.3456   -0.7708 H   0  0  0  0  0  0  0  0  0  0  0  0
    2.9541    2.1339    0.9873 H   0  0  0  0  0  0  0  0  0  0  0  0
    4.3163   -0.2094    2.1798 H   0  0  0  0  0  0  0  0  0  0  0  0
    6.0800   -1.3856    3.4001 H   0  0  0  0  0  0  0  0  0  0  0  0
    7.2668    1.6757   -0.2393 H   0  0  0  0  0  0  0  0  0  0  0  0
   10.6326    1.7367   -0.3711 H   0  0  0  0  0  0  0  0  0  0  0  0
   -6.3275   -1.9873    0.7602 H   0  0  0  0  0  0  0  0  0  0  0  0
   -8.0572   -2.2961    0.7014 H   0  0  0  0  0  0  0  0  0  0  0  0
   -7.0188   -3.2814   -0.3546 H   0  0  0  0  0  0  0  0  0  0  0  0
  1  2  1  0
  2  3  1  0
  3  4  2  0
  3  5  1  0
  5  6  2  0
  6  7  1  0
  7  8  2  0
  8  9  1  0
  9 10  2  0
 10 11  1  0
  9 12  1  0
  8 13  1  0
 13 14  1  0
 14 15  1  0
 15 16  1  0
 16 17  1  0
 17 18  1  0
 18 19  1  0
 19 20  2  0
 20 21  1  0
 21 22  2  0
 22 23  1  0
 23 24  2  0
 23 25  1  0
 25 26  2  0
 25 27  1  0
 22 28  1  0
  2 29  1  0
 10  5  1  0
 24 19  1  0
  1 30  1  0
  1 31  1  0
  1 32  1  0
  2 33  1  0
  6 34  1  0
  7 35  1  0
 11 36  1  0
 12 37  1  0
 12 38  1  0
 12 39  1  0
 14 40  1  0
 14 41  1  0
 15 42  1  0
 15 43  1  0
 16 44  1  0
 16 45  1  0
 17 46  1  0
 17 47  1  0
 20 48  1  0
 21 49  1  0
 24 50  1  0
 27 51  1  0
 29 52  1  0
 29 53  1  0
 29 54  1  0
M  END
>  <Ligand ID>  (1) 
LIG0003635

>  <Ligand>  (1) 
CHEMBL3287716

>  <SMILES>  (1) 
CC(C(=O)c1ccc(c(c1O)C)OCCCCOc1ccc(c(c1)C(=O)O)F)C

>  <CID>  (1) 
90643882.0

>  <ChEMBL ID>  (1) 
nan

>  <InChiKey>  (1) 
MRRXLHMXKIDHKD-UHFFFAOYSA-N

>  <InChi>  (1) 
InChI=1S/C22H25FO6/c1-13(2)20(24)16-7-9-19(14(3)21(16)25)29-11-5-4-10-28-15-6-8-18(23)17(12-15)22(26)27/h6-9,12-13,25H,4-5,10-11H2,1-3H3,(H,26,27)

>  <IUPAC Name>  (1) 
2-fluoro-5-[4-[3-hydroxy-2-methyl-4-(2-methylpropanoyl)phenoxy]butoxy]benzoic acid

$$$$
