
     RDKit          3D

 62 66  0  0  0  0  0  0  0  0999 V2000
    0.0919   -3.2556   -0.1664 N   0  0  0  0  0  0  0  0  0  0  0  0
   -0.2828   -2.1793    0.0199 C   0  0  0  0  0  0  0  0  0  0  0  0
   -0.7325   -0.8360    0.2540 C   0  0  0  0  0  0  0  0  0  0  0  0
    0.1519    0.1507    0.6389 C   0  0  0  0  0  0  0  0  0  0  0  0
    1.8678   -0.3362    0.8251 S   0  0  0  0  0  0  0  0  0  0  0  0
    2.6664   -0.0987   -0.8034 C   0  0  0  0  0  0  0  0  0  0  0  0
    4.0798   -0.4810   -0.7257 C   0  0  0  0  0  0  0  0  0  0  0  0
    4.4185   -1.8034   -1.0020 C   0  0  0  0  0  0  0  0  0  0  0  0
    5.7013   -2.2739   -0.9615 C   0  0  0  0  0  0  0  0  0  0  0  0
    6.6806   -1.4318   -0.6429 N   0  0  0  0  0  0  0  0  0  0  0  0
    6.4023   -0.1456   -0.3681 C   0  0  0  0  0  0  0  0  0  0  0  0
    5.1127    0.3632   -0.4002 C   0  0  0  0  0  0  0  0  0  0  0  0
    7.4782    0.7749   -0.0195 C   0  0  0  0  0  0  0  0  0  0  0  0
    7.2827    1.9883    0.2481 O   0  0  0  0  0  0  0  0  0  0  0  0
    8.8355    0.2958    0.0273 N   0  0  0  0  0  0  0  0  0  0  0  0
    9.9427    1.1733    0.3694 C   0  0  0  0  0  0  0  0  0  0  0  0
   -0.2496    1.4126    0.8632 N   0  0  0  0  0  0  0  0  0  0  0  0
   -1.5359    1.8352    0.7369 C   0  0  0  0  0  0  0  0  0  0  0  0
   -2.4342    0.8655    0.3523 C   0  0  0  0  0  0  0  0  0  0  0  0
   -2.0521   -0.4568    0.1112 C   0  0  0  0  0  0  0  0  0  0  0  0
   -2.9994   -1.4794   -0.2928 C   0  0  0  0  0  0  0  0  0  0  0  0
   -3.2661   -1.7192   -1.6329 C   0  0  0  0  0  0  0  0  0  0  0  0
   -4.1856   -2.7134   -1.9828 C   0  0  0  0  0  0  0  0  0  0  0  0
   -4.8190   -3.4472   -0.9774 C   0  0  0  0  0  0  0  0  0  0  0  0
   -4.5258   -3.1784    0.3634 C   0  0  0  0  0  0  0  0  0  0  0  0
   -3.6184   -2.1979    0.7209 C   0  0  0  0  0  0  0  0  0  0  0  0
   -5.1977   -3.9515    1.2932 O   0  0  0  0  0  0  0  0  0  0  0  0
   -5.8106   -5.1835    1.0093 C   0  0  0  0  0  0  0  0  0  0  0  0
   -6.3581   -5.2711   -0.3850 C   0  0  0  0  0  0  0  0  0  0  0  0
   -5.7329   -4.4358   -1.3157 O   0  0  0  0  0  0  0  0  0  0  0  0
   -3.8121    1.1700    0.1466 C   0  0  0  0  0  0  0  0  0  0  0  0
   -4.9074    1.3986   -0.0316 N   0  0  0  0  0  0  0  0  0  0  0  0
   -1.8305    3.1601    1.0314 N   0  0  0  0  0  0  0  0  0  0  0  0
   -0.7761    4.2120    1.0586 C   0  0  0  0  0  0  0  0  0  0  0  0
   -1.4243    5.2027    0.1001 C   0  0  0  0  0  0  0  0  0  0  0  0
   -2.8807    5.1350    0.4647 C   0  0  2  0  0  0  0  0  0  0  0  0
   -3.0081    3.9115    1.3928 C   0  0  0  0  0  0  0  0  0  0  0  0
   -3.6550    4.9154   -0.6546 O   0  0  0  0  0  0  0  0  0  0  0  0
    2.1562   -0.7529   -1.5306 H   0  0  0  0  0  0  0  0  0  0  0  0
    2.5161    0.9653   -1.0914 H   0  0  0  0  0  0  0  0  0  0  0  0
    3.6287   -2.5040   -1.2641 H   0  0  0  0  0  0  0  0  0  0  0  0
    5.8953   -3.2973   -1.1835 H   0  0  0  0  0  0  0  0  0  0  0  0
    4.8797    1.3975   -0.1803 H   0  0  0  0  0  0  0  0  0  0  0  0
    9.0574   -0.7056   -0.1864 H   0  0  0  0  0  0  0  0  0  0  0  0
   10.7521    0.9137   -0.3629 H   0  0  0  0  0  0  0  0  0  0  0  0
   10.3030    0.9587    1.3900 H   0  0  0  0  0  0  0  0  0  0  0  0
    9.6910    2.2386    0.1997 H   0  0  0  0  0  0  0  0  0  0  0  0
   -2.7723   -1.1470   -2.4179 H   0  0  0  0  0  0  0  0  0  0  0  0
   -4.3967   -2.9041   -3.0258 H   0  0  0  0  0  0  0  0  0  0  0  0
   -3.4163   -2.0175    1.7700 H   0  0  0  0  0  0  0  0  0  0  0  0
   -5.0627   -5.9810    1.1935 H   0  0  0  0  0  0  0  0  0  0  0  0
   -6.6217   -5.3262    1.7505 H   0  0  0  0  0  0  0  0  0  0  0  0
   -7.4568   -5.0289   -0.3722 H   0  0  0  0  0  0  0  0  0  0  0  0
   -6.2803   -6.3416   -0.7116 H   0  0  0  0  0  0  0  0  0  0  0  0
    0.1822    3.8488    0.7006 H   0  0  0  0  0  0  0  0  0  0  0  0
   -0.8176    4.6395    2.0590 H   0  0  0  0  0  0  0  0  0  0  0  0
   -0.9805    6.2084    0.1543 H   0  0  0  0  0  0  0  0  0  0  0  0
   -1.3000    4.7852   -0.9368 H   0  0  0  0  0  0  0  0  0  0  0  0
   -3.2161    6.0549    1.0048 H   0  0  0  0  0  0  0  0  0  0  0  0
   -2.8037    4.3373    2.4351 H   0  0  0  0  0  0  0  0  0  0  0  0
   -3.9575    3.4219    1.3426 H   0  0  0  0  0  0  0  0  0  0  0  0
   -4.5964    5.1472   -0.4012 H   0  0  0  0  0  0  0  0  0  0  0  0
  1  2  3  0
  2  3  1  0
  3  4  2  0
  4  5  1  0
  5  6  1  0
  6  7  1  0
  7  8  2  0
  8  9  1  0
  9 10  2  0
 10 11  1  0
 11 12  2  0
 11 13  1  0
 13 14  2  0
 13 15  1  0
 15 16  1  0
  4 17  1  0
 17 18  2  0
 18 19  1  0
 19 20  2  0
 20 21  1  0
 21 22  2  0
 22 23  1  0
 23 24  2  0
 24 25  1  0
 25 26  2  0
 25 27  1  0
 27 28  1  0
 28 29  1  0
 29 30  1  0
 19 31  1  0
 31 32  3  0
 18 33  1  0
 33 34  1  0
 34 35  1  0
 35 36  1  0
 36 37  1  0
 36 38  1  0
 20  3  1  0
 26 21  1  0
 37 33  1  0
 12  7  1  0
 30 24  1  0
  6 39  1  0
  6 40  1  0
  8 41  1  0
  9 42  1  0
 12 43  1  0
 15 44  1  0
 16 45  1  0
 16 46  1  0
 16 47  1  0
 22 48  1  0
 23 49  1  0
 26 50  1  0
 28 51  1  0
 28 52  1  0
 29 53  1  0
 29 54  1  0
 34 55  1  0
 34 56  1  0
 35 57  1  0
 35 58  1  0
 36 59  1  1
 37 60  1  0
 37 61  1  0
 38 62  1  0
M  END
>  <Ligand ID>  (1) 
LIG0004671

>  <Ligand>  (1) 
SCHEMBL3344545

>  <SMILES>  (1) 
N#Cc1c(SCc2ccnc(c2)C(=O)NC)nc(c(c1c1ccc2c(c1)OCCO2)C#N)N1CC[C@H](C1)O

>  <CID>  (1) 
68605677.0

>  <ChEMBL ID>  (1) 
nan

>  <InChiKey>  (1) 
IJSYWXYIWQUFBT-GOSISDBHSA-N

>  <InChi>  (1) 
InChI=1S/C27H24N6O4S/c1-30-26(35)21-10-16(4-6-31-21)15-38-27-20(13-29)24(17-2-3-22-23(11-17)37-9-8-36-22)19(12-28)25(32-27)33-7-5-18(34)14-33/h2-4,6,10-11,18,34H,5,7-9,14-15H2,1H3,(H,30,35)/t18-/m1/s1

>  <IUPAC Name>  (1) 
4-[[3,5-dicyano-4-(2,3-dihydro-1,4-benzodioxin-6-yl)-6-[(3R)-3-hydroxypyrrolidin-1-yl]pyridin-2-yl]sulfanylmethyl]-N-methylpyridine-2-carboxamide

$$$$
