
     RDKit          3D

 61 66  0  0  0  0  0  0  0  0999 V2000
    0.9219    0.9020   -2.2564 O   0  0  0  0  0  0  0  0  0  0  0  0
    1.2991    0.6681   -1.0874 C   0  0  0  0  0  0  0  0  0  0  0  0
    0.3194    0.5420   -0.0871 N   0  0  0  0  0  0  0  0  0  0  0  0
   -1.1099    0.6437   -0.2669 C   0  0  1  0  0  0  0  0  0  0  0  0
   -1.6395    1.8450   -0.9132 C   0  0  0  0  0  0  0  0  0  0  0  0
   -2.4019    1.6614   -2.1983 C   0  0  0  0  0  0  0  0  0  0  0  0
   -2.1001    0.4327   -2.9522 C   0  0  0  0  0  0  0  0  0  0  0  0
   -2.2474    0.4126   -4.1629 O   0  0  0  0  0  0  0  0  0  0  0  0
   -1.6127   -0.8131   -2.2898 C   0  0  1  0  0  0  0  0  0  0  0  0
   -1.6550   -0.6174   -0.8024 C   0  0  1  0  0  0  0  0  0  0  0  0
   -1.1229   -1.8505   -0.1055 C   0  0  0  0  0  0  0  0  0  0  0  0
   -1.2937   -1.7320    1.3978 C   0  0  0  0  0  0  0  0  0  0  0  0
   -1.0052   -0.4291    1.8919 N   0  0  0  0  0  0  0  0  0  0  0  0
   -1.6078    0.6702    1.2127 C   0  0  0  0  0  0  0  0  0  0  0  0
   -3.0623    0.8180    1.3599 C   0  0  0  0  0  0  0  0  0  0  0  0
   -3.8284    0.0639    0.3297 C   0  0  0  0  0  0  0  0  0  0  0  0
   -3.1503   -0.5651   -0.6420 C   0  0  0  0  0  0  0  0  0  0  0  0
   -3.7586   -1.2826   -1.6498 C   0  0  0  0  0  0  0  0  0  0  0  0
   -2.7074   -1.7586   -2.4310 O   0  0  0  0  0  0  0  0  0  0  0  0
   -5.1327   -1.3663   -1.6700 C   0  0  0  0  0  0  0  0  0  0  0  0
   -5.8452   -0.7175   -0.6655 C   0  0  0  0  0  0  0  0  0  0  0  0
   -5.2060    0.0001    0.3386 C   0  0  0  0  0  0  0  0  0  0  0  0
   -5.7468   -2.0852   -2.6780 O   0  0  0  0  0  0  0  0  0  0  0  0
   -1.1484   -0.3909    3.3117 C   0  0  0  0  0  0  0  0  0  0  0  0
    2.7440    0.5471   -0.8737 C   0  0  0  0  0  0  0  0  0  0  0  0
    3.3192    0.3080    0.2653 C   0  0  0  0  0  0  0  0  0  0  0  0
    4.7070    0.1710    0.6102 C   0  0  0  0  0  0  0  0  0  0  0  0
    4.9858   -0.3442    1.8851 C   0  0  0  0  0  0  0  0  0  0  0  0
    6.2422   -0.5148    2.3794 C   0  0  0  0  0  0  0  0  0  0  0  0
    7.3201   -0.1774    1.6227 C   0  0  0  0  0  0  0  0  0  0  0  0
    7.0802    0.3312    0.3698 C   0  0  0  0  0  0  0  0  0  0  0  0
    5.7947    0.5096   -0.1426 C   0  0  0  0  0  0  0  0  0  0  0  0
    5.7093    1.1177   -1.4804 C   0  0  0  0  0  0  0  0  0  0  0  0
    0.7042    0.3479    0.8938 H   0  0  0  0  0  0  0  0  0  0  0  0
   -0.8273    2.6247   -1.0256 H   0  0  0  0  0  0  0  0  0  0  0  0
   -2.3524    2.3518   -0.2323 H   0  0  0  0  0  0  0  0  0  0  0  0
   -3.5172    1.6769   -2.0588 H   0  0  0  0  0  0  0  0  0  0  0  0
   -2.2422    2.5322   -2.9006 H   0  0  0  0  0  0  0  0  0  0  0  0
   -0.7000   -1.1713   -2.7124 H   0  0  0  0  0  0  0  0  0  0  0  0
   -1.7408   -2.7055   -0.4453 H   0  0  0  0  0  0  0  0  0  0  0  0
   -0.0855   -2.0227   -0.4193 H   0  0  0  0  0  0  0  0  0  0  0  0
   -0.6055   -2.4400    1.8946 H   0  0  0  0  0  0  0  0  0  0  0  0
   -2.3185   -2.0352    1.6899 H   0  0  0  0  0  0  0  0  0  0  0  0
   -1.1083    1.5945    1.6184 H   0  0  0  0  0  0  0  0  0  0  0  0
   -3.3482    0.3187    2.3328 H   0  0  0  0  0  0  0  0  0  0  0  0
   -3.4401    1.8585    1.4519 H   0  0  0  0  0  0  0  0  0  0  0  0
   -6.9231   -0.7659   -0.6558 H   0  0  0  0  0  0  0  0  0  0  0  0
   -5.7466    0.5023    1.1146 H   0  0  0  0  0  0  0  0  0  0  0  0
   -5.4090   -2.1061   -3.6317 H   0  0  0  0  0  0  0  0  0  0  0  0
   -0.1287   -0.6157    3.7354 H   0  0  0  0  0  0  0  0  0  0  0  0
   -1.4569    0.6308    3.5980 H   0  0  0  0  0  0  0  0  0  0  0  0
   -1.8741   -1.1240    3.7212 H   0  0  0  0  0  0  0  0  0  0  0  0
    3.3551    0.6321   -1.7450 H   0  0  0  0  0  0  0  0  0  0  0  0
    2.6083    0.2104    1.1036 H   0  0  0  0  0  0  0  0  0  0  0  0
    4.1688   -0.6404    2.5515 H   0  0  0  0  0  0  0  0  0  0  0  0
    6.3947   -0.9141    3.3618 H   0  0  0  0  0  0  0  0  0  0  0  0
    8.3245   -0.3015    1.9856 H   0  0  0  0  0  0  0  0  0  0  0  0
    7.9691    0.5921   -0.2138 H   0  0  0  0  0  0  0  0  0  0  0  0
    5.4955    0.3873   -2.2668 H   0  0  0  0  0  0  0  0  0  0  0  0
    5.0192    1.9797   -1.4765 H   0  0  0  0  0  0  0  0  0  0  0  0
    6.7243    1.6028   -1.6861 H   0  0  0  0  0  0  0  0  0  0  0  0
  1  2  2  0
  2  3  1  0
  4  3  1  1
  4  5  1  0
  5  6  1  0
  6  7  1  0
  7  8  2  0
  7  9  1  0
  9 10  1  0
 10 11  1  1
 11 12  1  0
 12 13  1  0
 13 14  1  0
 14 15  1  0
 15 16  1  0
 16 17  2  0
 17 18  1  0
 18 19  1  0
 18 20  2  0
 20 21  1  0
 21 22  2  0
 20 23  1  0
 13 24  1  0
  2 25  1  0
 25 26  2  0
 26 27  1  0
 27 28  2  0
 28 29  1  0
 29 30  2  0
 30 31  1  0
 31 32  2  0
 32 33  1  0
 14  4  1  0
 22 16  1  0
 32 27  1  0
 10  4  1  0
 19  9  1  0
 17 10  1  0
  3 34  1  0
  5 35  1  0
  5 36  1  0
  6 37  1  0
  6 38  1  0
  9 39  1  6
 11 40  1  0
 11 41  1  0
 12 42  1  0
 12 43  1  0
 14 44  1  0
 15 45  1  0
 15 46  1  0
 21 47  1  0
 22 48  1  0
 23 49  1  0
 24 50  1  0
 24 51  1  0
 24 52  1  0
 25 53  1  0
 26 54  1  0
 28 55  1  0
 29 56  1  0
 30 57  1  0
 31 58  1  0
 33 59  1  0
 33 60  1  0
 33 61  1  0
M  END
>  <Ligand ID>  (1) 
LIG0003859

>  <Ligand>  (1) 
BDBM50193546

>  <SMILES>  (1) 
O=C(N[C@]12CCC(=O)[C@H]3[C@]42CCN(C1Cc1c4c(O3)c(cc1)O)C)/C=C/c1ccccc1C

>  <CID>  (1) 
44415239.0

>  <ChEMBL ID>  (1) 
nan

>  <InChiKey>  (1) 
HZDFHSBNWGNVNS-LPCDZLESSA-N

>  <InChi>  (1) 
InChI=1S/C27H28N2O4/c1-16-5-3-4-6-17(16)8-10-22(32)28-27-12-11-20(31)25-26(27)13-14-29(2)21(27)15-18-7-9-19(30)24(33-25)23(18)26/h3-10,21,25,30H,11-15H2,1-2H3,(H,28,32)/b10-8+/t21?,25-,26-,27+/m0/s1

>  <IUPAC Name>  (1) 
(E)-N-[(4aS,7aR,12bR)-9-hydroxy-3-methyl-7-oxo-2,4,5,6,7a,13-hexahydro-1H-4,12-methanobenzofuro[3,2-e]isoquinolin-4a-yl]-3-(2-methylphenyl)prop-2-enamide

$$$$
