
     RDKit          3D

 69 71  0  0  0  0  0  0  0  0999 V2000
    5.3981    1.0800   -4.0415 N   0  0  0  0  0  0  0  0  0  0  0  0
    4.9331    0.4247   -2.8534 C   0  0  0  0  0  0  0  0  0  0  0  0
    4.3280   -0.6876   -2.9311 O   0  0  0  0  0  0  0  0  0  0  0  0
    5.1947    1.1069   -1.5596 C   0  0  0  0  0  0  0  0  0  0  0  0
    4.6778    0.3441   -0.4522 N   0  0  0  0  0  0  0  0  0  0  0  0
    5.5250   -0.6392    0.1923 C   0  0  0  0  0  0  0  0  0  0  0  0
    4.8005   -1.9068    0.4256 C   0  0  0  0  0  0  0  0  0  0  0  0
    5.6402   -2.9827    0.1278 C   0  0  0  0  0  0  0  0  0  0  0  0
    5.1969   -4.2714    0.2645 C   0  0  0  0  0  0  0  0  0  0  0  0
    3.9058   -4.4725    0.7020 C   0  0  0  0  0  0  0  0  0  0  0  0
    3.0902   -3.4126    0.9914 C   0  0  0  0  0  0  0  0  0  0  0  0
    3.5083   -2.0823    0.8637 C   0  0  0  0  0  0  0  0  0  0  0  0
    2.4089   -1.2033    1.2480 C   0  0  0  0  0  0  0  0  0  0  0  0
    2.6662    0.2599    1.1720 C   0  0  1  0  0  0  0  0  0  0  0  0
    3.3220    0.6649   -0.1042 C   0  0  0  0  0  0  0  0  0  0  0  0
    2.6607    1.3295   -0.9391 O   0  0  0  0  0  0  0  0  0  0  0  0
    1.3948    0.9568    1.2145 N   0  0  0  0  0  0  0  0  0  0  0  0
    1.2071    1.9006    2.2720 C   0  0  0  0  0  0  0  0  0  0  0  0
    2.1034    2.1165    3.1263 O   0  0  0  0  0  0  0  0  0  0  0  0
   -0.0515    2.6480    2.3852 C   0  0  2  0  0  0  0  0  0  0  0  0
   -0.9957    2.2818    1.3189 N   0  0  0  0  0  0  0  0  0  0  0  0
   -2.3089    1.8211    1.6041 C   0  0  0  0  0  0  0  0  0  0  0  0
   -2.6395    1.7373    2.8216 O   0  0  0  0  0  0  0  0  0  0  0  0
   -3.2527    1.4534    0.5004 C   0  0  2  0  0  0  0  0  0  0  0  0
   -3.7588    0.0662    0.7180 C   0  0  0  0  0  0  0  0  0  0  0  0
   -4.7047   -0.4162   -0.3118 C   0  0  0  0  0  0  0  0  0  0  0  0
   -6.0166    0.0449   -0.3042 C   0  0  0  0  0  0  0  0  0  0  0  0
   -6.5145    1.0143    0.7073 C   0  0  0  0  0  0  0  0  0  0  0  0
   -6.9219   -0.4030   -1.2715 C   0  0  0  0  0  0  0  0  0  0  0  0
   -6.5710   -1.2942   -2.2482 C   0  0  0  0  0  0  0  0  0  0  0  0
   -5.2642   -1.7497   -2.2509 C   0  0  0  0  0  0  0  0  0  0  0  0
   -4.3461   -1.3220   -1.3038 C   0  0  0  0  0  0  0  0  0  0  0  0
   -2.9398   -1.8405   -1.3414 C   0  0  0  0  0  0  0  0  0  0  0  0
   -7.4864   -1.7259   -3.1992 O   0  0  0  0  0  0  0  0  0  0  0  0
   -2.5882    1.6427   -0.7549 N   0  0  0  0  0  0  0  0  0  0  0  0
    0.2439    4.1308    2.2425 C   0  0  0  0  0  0  0  0  0  0  0  0
    5.3819    2.1320   -4.1037 H   0  0  0  0  0  0  0  0  0  0  0  0
    5.7587    0.5439   -4.8622 H   0  0  0  0  0  0  0  0  0  0  0  0
    4.7272    2.1310   -1.5475 H   0  0  0  0  0  0  0  0  0  0  0  0
    6.2666    1.2723   -1.4071 H   0  0  0  0  0  0  0  0  0  0  0  0
    5.8338   -0.2529    1.1989 H   0  0  0  0  0  0  0  0  0  0  0  0
    6.4039   -0.8138   -0.4563 H   0  0  0  0  0  0  0  0  0  0  0  0
    6.6620   -2.8077   -0.2179 H   0  0  0  0  0  0  0  0  0  0  0  0
    5.8206   -5.1179    0.0425 H   0  0  0  0  0  0  0  0  0  0  0  0
    3.5668   -5.4900    0.8062 H   0  0  0  0  0  0  0  0  0  0  0  0
    2.0859   -3.6240    1.3310 H   0  0  0  0  0  0  0  0  0  0  0  0
    1.4549   -1.4248    0.7250 H   0  0  0  0  0  0  0  0  0  0  0  0
    2.1811   -1.4246    2.3317 H   0  0  0  0  0  0  0  0  0  0  0  0
    3.3045    0.6118    2.0326 H   0  0  0  0  0  0  0  0  0  0  0  0
    0.6787    0.7541    0.4944 H   0  0  0  0  0  0  0  0  0  0  0  0
   -0.4875    2.5095    3.3803 H   0  0  0  0  0  0  0  0  0  0  0  0
   -0.6474    2.3789    0.3399 H   0  0  0  0  0  0  0  0  0  0  0  0
   -4.0945    2.1952    0.5509 H   0  0  0  0  0  0  0  0  0  0  0  0
   -2.8669   -0.6086    0.7537 H   0  0  0  0  0  0  0  0  0  0  0  0
   -4.1856    0.0102    1.7498 H   0  0  0  0  0  0  0  0  0  0  0  0
   -6.4792    2.0586    0.3241 H   0  0  0  0  0  0  0  0  0  0  0  0
   -6.0366    0.8659    1.6841 H   0  0  0  0  0  0  0  0  0  0  0  0
   -7.6138    0.8392    0.8998 H   0  0  0  0  0  0  0  0  0  0  0  0
   -7.9502   -0.0168   -1.2337 H   0  0  0  0  0  0  0  0  0  0  0  0
   -4.9177   -2.4678   -3.0096 H   0  0  0  0  0  0  0  0  0  0  0  0
   -2.8807   -2.6435   -2.1075 H   0  0  0  0  0  0  0  0  0  0  0  0
   -2.1938   -1.0572   -1.5388 H   0  0  0  0  0  0  0  0  0  0  0  0
   -2.7544   -2.3255   -0.3400 H   0  0  0  0  0  0  0  0  0  0  0  0
   -8.3785   -2.1206   -2.9075 H   0  0  0  0  0  0  0  0  0  0  0  0
   -3.0914    1.1819   -1.5481 H   0  0  0  0  0  0  0  0  0  0  0  0
   -2.3884    2.6365   -0.9134 H   0  0  0  0  0  0  0  0  0  0  0  0
    0.7513    4.4128    3.2044 H   0  0  0  0  0  0  0  0  0  0  0  0
    0.9372    4.3405    1.4256 H   0  0  0  0  0  0  0  0  0  0  0  0
   -0.6938    4.7071    2.1536 H   0  0  0  0  0  0  0  0  0  0  0  0
  1  2  1  0
  2  3  2  0
  2  4  1  0
  4  5  1  0
  5  6  1  0
  6  7  1  0
  7  8  2  0
  8  9  1  0
  9 10  2  0
 10 11  1  0
 11 12  2  0
 12 13  1  0
 13 14  1  0
 14 15  1  0
 15 16  2  0
 14 17  1  0
 17 18  1  0
 18 19  2  0
 18 20  1  0
 20 21  1  0
 21 22  1  0
 22 23  2  0
 22 24  1  0
 24 25  1  0
 25 26  1  0
 26 27  2  0
 27 28  1  0
 27 29  1  0
 29 30  2  0
 30 31  1  0
 31 32  2  0
 32 33  1  0
 30 34  1  0
 24 35  1  0
 20 36  1  0
 15  5  1  0
 32 26  1  0
 12  7  1  0
  1 37  1  0
  1 38  1  0
  4 39  1  0
  4 40  1  0
  6 41  1  0
  6 42  1  0
  8 43  1  0
  9 44  1  0
 10 45  1  0
 11 46  1  0
 13 47  1  0
 13 48  1  0
 14 49  1  1
 17 50  1  0
 20 51  1  1
 21 52  1  0
 24 53  1  6
 25 54  1  0
 25 55  1  0
 28 56  1  0
 28 57  1  0
 28 58  1  0
 29 59  1  0
 31 60  1  0
 33 61  1  0
 33 62  1  0
 33 63  1  0
 34 64  1  0
 35 65  1  0
 35 66  1  0
 36 67  1  0
 36 68  1  0
 36 69  1  0
M  END
>  <Ligand ID>  (1) 
LIG0003762

>  <Ligand>  (1) 
CHEMBL1834247

>  <SMILES>  (1) 
NC(=O)CN1Cc2ccccc2C[C@@H](C1=O)NC(=O)[C@H](NC(=O)[C@H](Cc1c(C)cc(cc1C)O)N)C

>  <CID>  (1) 
54757387.0

>  <ChEMBL ID>  (1) 
nan

>  <InChiKey>  (1) 
NTLGBVODVYUHJV-XGRCMKMKSA-N

>  <InChi>  (1) 
InChI=1S/C26H33N5O5/c1-14-8-19(32)9-15(2)20(14)11-21(27)25(35)29-16(3)24(34)30-22-10-17-6-4-5-7-18(17)12-31(26(22)36)13-23(28)33/h4-9,16,21-22,32H,10-13,27H2,1-3H3,(H2,28,33)(H,29,35)(H,30,34)/t16-,21+,22+/m1/s1

>  <IUPAC Name>  (1) 
(2S)-2-amino-N-[(2R)-1-[[(4S)-2-(2-amino-2-oxoethyl)-3-oxo-4,5-dihydro-1H-2-benzazepin-4-yl]amino]-1-oxopropan-2-yl]-3-(4-hydroxy-2,6-dimethylphenyl)propanamide

$$$$
