
     RDKit          3D

166169  0  0  0  0  0  0  0  0999 V2000
  -12.7600    3.9984    0.5337 C   0  0  0  0  0  0  0  0  0  0  0  0
  -11.4571    4.5099    0.8010 N   0  0  0  0  0  0  0  0  0  0  0  0
  -10.7230    4.7878   -0.2789 C   0  0  0  0  0  0  0  0  0  0  0  0
   -9.4309    5.2740   -0.0502 N   0  0  0  0  0  0  0  0  0  0  0  0
   -8.3962    4.4224    0.6184 C   0  0  0  0  0  0  0  0  0  0  0  0
   -8.0789    3.3851   -0.3959 C   0  0  0  0  0  0  0  0  0  0  0  0
   -7.1098    2.3214   -0.1858 C   0  0  0  0  0  0  0  0  0  0  0  0
   -7.3440    1.3777    0.9818 C   0  0  1  0  0  0  0  0  0  0  0  0
   -8.6346    0.7296    0.9427 C   0  0  0  0  0  0  0  0  0  0  0  0
   -9.6650    1.5195    0.8821 O   0  0  0  0  0  0  0  0  0  0  0  0
   -8.9600   -0.6398    0.9640 N   0  0  0  0  0  0  0  0  0  0  0  0
  -10.3461   -1.0392    0.9073 C   0  0  2  0  0  0  0  0  0  0  0  0
  -10.5802   -2.0845    1.9325 C   0  0  0  0  0  0  0  0  0  0  0  0
  -11.7600   -2.5595    1.9776 O   0  0  0  0  0  0  0  0  0  0  0  0
   -9.5363   -2.5123    2.7970 N   0  0  0  0  0  0  0  0  0  0  0  0
  -10.5940   -1.6403   -0.4741 C   0  0  0  0  0  0  0  0  0  0  0  0
  -12.0194   -2.0715   -0.5945 C   0  0  0  0  0  0  0  0  0  0  0  0
  -12.5507   -3.3366   -0.5921 C   0  0  0  0  0  0  0  0  0  0  0  0
  -13.8897   -3.2960   -0.7420 N   0  0  0  0  0  0  0  0  0  0  0  0
  -14.2074   -2.0006   -0.8399 C   0  0  0  0  0  0  0  0  0  0  0  0
  -13.0859   -1.1911   -0.7549 C   0  0  0  0  0  0  0  0  0  0  0  0
  -13.1808    0.1742   -0.8344 C   0  0  0  0  0  0  0  0  0  0  0  0
  -14.3918    0.8455   -1.0022 C   0  0  0  0  0  0  0  0  0  0  0  0
  -15.5126    0.0152   -1.0849 C   0  0  0  0  0  0  0  0  0  0  0  0
  -15.4384   -1.3488   -1.0083 C   0  0  0  0  0  0  0  0  0  0  0  0
   -6.1872    0.4587    0.9099 N   0  0  0  0  0  0  0  0  0  0  0  0
   -6.0094   -0.4377   -0.2110 C   0  0  0  0  0  0  0  0  0  0  0  0
   -6.8807   -0.4769   -1.1520 O   0  0  0  0  0  0  0  0  0  0  0  0
   -4.8547   -1.3139   -0.3444 C   0  0  1  0  0  0  0  0  0  0  0  0
   -3.8471   -1.1321    0.7332 N   0  0  0  0  0  0  0  0  0  0  0  0
   -2.4855   -0.8701    0.4366 C   0  0  0  0  0  0  0  0  0  0  0  0
   -2.1397   -0.8528   -0.7759 O   0  0  0  0  0  0  0  0  0  0  0  0
   -1.4717   -0.6193    1.3862 N   0  0  0  0  0  0  0  0  0  0  0  0
   -0.1178   -0.3880    1.0196 N   0  0  0  0  0  0  0  0  0  0  0  0
    0.1233    0.7579    0.2354 C   0  0  0  0  0  0  0  0  0  0  0  0
   -0.9439    1.4286   -0.0600 O   0  0  0  0  0  0  0  0  0  0  0  0
    1.3604    1.2783   -0.2706 C   0  0  1  0  0  0  0  0  0  0  0  0
    2.6222    0.7146    0.1578 N   0  0  0  0  0  0  0  0  0  0  0  0
    3.4217    1.5095    1.0307 C   0  0  0  0  0  0  0  0  0  0  0  0
    2.9474    2.6192    1.4143 O   0  0  0  0  0  0  0  0  0  0  0  0
    4.7577    1.1714    1.5272 C   0  0  2  0  0  0  0  0  0  0  0  0
    5.6793    2.4011    1.2813 C   0  0  2  0  0  0  0  0  0  0  0  0
    5.7440    2.6113   -0.0899 O   0  0  0  0  0  0  0  0  0  0  0  0
    7.0266    2.2728    1.9001 C   0  0  0  0  0  0  0  0  0  0  0  0
    5.3380    0.0719    0.8193 N   0  0  0  0  0  0  0  0  0  0  0  0
    6.3572   -0.7856    1.2629 C   0  0  0  0  0  0  0  0  0  0  0  0
    6.9102   -0.7285    2.3828 O   0  0  0  0  0  0  0  0  0  0  0  0
    6.8513   -1.8655    0.3256 C   0  0  1  0  0  0  0  0  0  0  0  0
    8.1776   -2.2879    0.7814 N   0  0  0  0  0  0  0  0  0  0  0  0
    9.2673   -1.6726    0.1937 C   0  0  0  0  0  0  0  0  0  0  0  0
    8.9819   -0.7624   -0.7047 O   0  0  0  0  0  0  0  0  0  0  0  0
   10.7143   -1.8407    0.3905 C   0  0  0  0  0  0  0  0  0  0  0  0
   11.3105   -0.7063   -0.3926 N   0  0  0  0  0  0  0  0  0  0  0  0
   10.9570    0.5580    0.0959 C   0  0  0  0  0  0  0  0  0  0  0  0
   10.2180    0.5459    1.1592 O   0  0  0  0  0  0  0  0  0  0  0  0
   11.3009    1.8689   -0.4249 C   0  0  1  0  0  0  0  0  0  0  0  0
   12.0296    2.7491    0.5599 C   0  0  0  0  0  0  0  0  0  0  0  0
   13.3258    2.2398    1.0040 C   0  0  0  0  0  0  0  0  0  0  0  0
   14.4426    2.6707    0.2726 C   0  0  0  0  0  0  0  0  0  0  0  0
   15.7218    2.3042    0.5667 C   0  0  0  0  0  0  0  0  0  0  0  0
   15.9107    1.4578    1.6537 C   0  0  0  0  0  0  0  0  0  0  0  0
   14.8209    1.0358    2.3658 C   0  0  0  0  0  0  0  0  0  0  0  0
   13.5186    1.4013    2.0754 C   0  0  0  0  0  0  0  0  0  0  0  0
   17.2242    1.1073    1.9242 O   0  0  0  0  0  0  0  0  0  0  0  0
   12.0192    1.8422   -1.6918 N   0  0  0  0  0  0  0  0  0  0  0  0
   11.4024    2.4708   -2.7998 C   0  0  0  0  0  0  0  0  0  0  0  0
   10.2547    3.0431   -2.7069 O   0  0  0  0  0  0  0  0  0  0  0  0
   12.0127    2.5285   -4.1600 C   0  0  0  0  0  0  0  0  0  0  0  0
   11.1478   -3.1317   -0.2573 C   0  0  0  0  0  0  0  0  0  0  0  0
   11.1666   -1.8227    1.8122 C   0  0  0  0  0  0  0  0  0  0  0  0
    5.9055   -3.0035    0.2190 C   0  0  0  0  0  0  0  0  0  0  0  0
    5.6476   -3.6891    1.5011 C   0  0  0  0  0  0  0  0  0  0  0  0
    6.1490   -3.2397    2.5969 O   0  0  0  0  0  0  0  0  0  0  0  0
    4.8564   -4.8627    1.6177 N   0  0  0  0  0  0  0  0  0  0  0  0
    1.4036    1.4535   -1.7909 C   0  0  0  0  0  0  0  0  0  0  0  0
    1.2165    0.2312   -2.5568 C   0  0  0  0  0  0  0  0  0  0  0  0
   -0.0219   -0.1228   -3.0230 C   0  0  0  0  0  0  0  0  0  0  0  0
   -0.2554   -1.2949   -3.7444 C   0  0  0  0  0  0  0  0  0  0  0  0
    0.8318   -2.1430   -3.9992 C   0  0  0  0  0  0  0  0  0  0  0  0
    2.0877   -1.8015   -3.5362 C   0  0  0  0  0  0  0  0  0  0  0  0
    2.2725   -0.6365   -2.8293 C   0  0  0  0  0  0  0  0  0  0  0  0
   -4.9478   -2.6847   -0.8166 C   0  0  0  0  0  0  0  0  0  0  0  0
   -5.6944   -3.7624   -0.1785 C   0  0  0  0  0  0  0  0  0  0  0  0
   -7.1623   -3.6760   -0.0103 C   0  0  0  0  0  0  0  0  0  0  0  0
   -5.0371   -4.2601    1.1206 C   0  0  0  0  0  0  0  0  0  0  0  0
  -11.3325    4.6618   -1.5862 N   0  0  0  0  0  0  0  0  0  0  0  0
  -12.6436    3.0104    0.0283 H   0  0  0  0  0  0  0  0  0  0  0  0
  -13.3301    4.7337   -0.0595 H   0  0  0  0  0  0  0  0  0  0  0  0
  -13.3103    3.8284    1.4972 H   0  0  0  0  0  0  0  0  0  0  0  0
   -9.2001    6.2345   -0.3816 H   0  0  0  0  0  0  0  0  0  0  0  0
   -8.7235    4.0895    1.5989 H   0  0  0  0  0  0  0  0  0  0  0  0
   -7.5498    5.1361    0.8114 H   0  0  0  0  0  0  0  0  0  0  0  0
   -9.0560    2.9968   -0.8526 H   0  0  0  0  0  0  0  0  0  0  0  0
   -7.6831    3.9876   -1.2958 H   0  0  0  0  0  0  0  0  0  0  0  0
   -6.0958    2.8210   -0.0187 H   0  0  0  0  0  0  0  0  0  0  0  0
   -6.9519    1.7824   -1.1469 H   0  0  0  0  0  0  0  0  0  0  0  0
   -7.2261    1.9613    1.9084 H   0  0  0  0  0  0  0  0  0  0  0  0
   -8.1926   -1.3054    1.0362 H   0  0  0  0  0  0  0  0  0  0  0  0
  -11.0017   -0.1521    1.0563 H   0  0  0  0  0  0  0  0  0  0  0  0
   -9.6689   -3.4344    3.2723 H   0  0  0  0  0  0  0  0  0  0  0  0
   -8.6994   -1.9061    2.9219 H   0  0  0  0  0  0  0  0  0  0  0  0
   -9.9966   -2.5831   -0.5679 H   0  0  0  0  0  0  0  0  0  0  0  0
  -10.3411   -0.9480   -1.2791 H   0  0  0  0  0  0  0  0  0  0  0  0
  -12.0081   -4.2577   -0.4899 H   0  0  0  0  0  0  0  0  0  0  0  0
  -14.5689   -4.0751   -0.7793 H   0  0  0  0  0  0  0  0  0  0  0  0
  -12.2693    0.7597   -0.7645 H   0  0  0  0  0  0  0  0  0  0  0  0
  -14.4750    1.9031   -1.0656 H   0  0  0  0  0  0  0  0  0  0  0  0
  -16.4507    0.4959   -1.2123 H   0  0  0  0  0  0  0  0  0  0  0  0
  -16.3703   -1.9190   -1.0826 H   0  0  0  0  0  0  0  0  0  0  0  0
   -5.4655    0.4230    1.6665 H   0  0  0  0  0  0  0  0  0  0  0  0
   -4.2610   -0.7910   -1.2230 H   0  0  0  0  0  0  0  0  0  0  0  0
   -4.1276   -1.1935    1.7403 H   0  0  0  0  0  0  0  0  0  0  0  0
   -1.7676   -0.6059    2.3992 H   0  0  0  0  0  0  0  0  0  0  0  0
    0.6686   -0.9828    1.2810 H   0  0  0  0  0  0  0  0  0  0  0  0
    1.3730    2.3637    0.0643 H   0  0  0  0  0  0  0  0  0  0  0  0
    2.9657   -0.2266   -0.1299 H   0  0  0  0  0  0  0  0  0  0  0  0
    4.8060    1.0444    2.6230 H   0  0  0  0  0  0  0  0  0  0  0  0
    5.1915    3.3259    1.6801 H   0  0  0  0  0  0  0  0  0  0  0  0
    5.7485    1.7074   -0.5390 H   0  0  0  0  0  0  0  0  0  0  0  0
    7.5188    3.3026    1.9772 H   0  0  0  0  0  0  0  0  0  0  0  0
    7.7082    1.6674    1.2962 H   0  0  0  0  0  0  0  0  0  0  0  0
    7.0265    1.9138    2.9341 H   0  0  0  0  0  0  0  0  0  0  0  0
    4.9511   -0.1242   -0.1576 H   0  0  0  0  0  0  0  0  0  0  0  0
    6.9274   -1.3557   -0.6508 H   0  0  0  0  0  0  0  0  0  0  0  0
    8.3376   -3.0087    1.5066 H   0  0  0  0  0  0  0  0  0  0  0  0
   11.9124   -0.8585   -1.2061 H   0  0  0  0  0  0  0  0  0  0  0  0
   10.3261    2.4110   -0.6214 H   0  0  0  0  0  0  0  0  0  0  0  0
   11.3616    2.8974    1.4578 H   0  0  0  0  0  0  0  0  0  0  0  0
   12.1510    3.7880    0.1238 H   0  0  0  0  0  0  0  0  0  0  0  0
   14.3042    3.3373   -0.5920 H   0  0  0  0  0  0  0  0  0  0  0  0
   16.5567    2.6653   -0.0263 H   0  0  0  0  0  0  0  0  0  0  0  0
   15.0424    0.3685    3.2169 H   0  0  0  0  0  0  0  0  0  0  0  0
   12.6610    1.0479    2.6509 H   0  0  0  0  0  0  0  0  0  0  0  0
   17.8062    1.8506    2.3211 H   0  0  0  0  0  0  0  0  0  0  0  0
   12.9522    1.3872   -1.8131 H   0  0  0  0  0  0  0  0  0  0  0  0
   11.7422    3.4920   -4.6406 H   0  0  0  0  0  0  0  0  0  0  0  0
   11.6376    1.6573   -4.7116 H   0  0  0  0  0  0  0  0  0  0  0  0
   13.1182    2.5508   -4.0638 H   0  0  0  0  0  0  0  0  0  0  0  0
   12.2481   -3.2803   -0.1749 H   0  0  0  0  0  0  0  0  0  0  0  0
   10.6413   -3.9499    0.3290 H   0  0  0  0  0  0  0  0  0  0  0  0
   10.7515   -3.1955   -1.2673 H   0  0  0  0  0  0  0  0  0  0  0  0
   12.0975   -1.2442    1.8849 H   0  0  0  0  0  0  0  0  0  0  0  0
   11.3979   -2.8687    2.1261 H   0  0  0  0  0  0  0  0  0  0  0  0
   10.4124   -1.3868    2.5052 H   0  0  0  0  0  0  0  0  0  0  0  0
    4.9689   -2.6434   -0.2608 H   0  0  0  0  0  0  0  0  0  0  0  0
    6.3416   -3.7560   -0.4681 H   0  0  0  0  0  0  0  0  0  0  0  0
    5.1951   -5.7494    1.1487 H   0  0  0  0  0  0  0  0  0  0  0  0
    3.9650   -4.9364    2.1263 H   0  0  0  0  0  0  0  0  0  0  0  0
    0.6300    2.2060   -2.0287 H   0  0  0  0  0  0  0  0  0  0  0  0
    2.3811    1.8949   -2.0161 H   0  0  0  0  0  0  0  0  0  0  0  0
   -0.8783    0.5214   -2.8343 H   0  0  0  0  0  0  0  0  0  0  0  0
   -1.2455   -1.5365   -4.0867 H   0  0  0  0  0  0  0  0  0  0  0  0
    0.6970   -3.0733   -4.5505 H   0  0  0  0  0  0  0  0  0  0  0  0
    2.8868   -2.4774   -3.7542 H   0  0  0  0  0  0  0  0  0  0  0  0
    3.2867   -0.4345   -2.5004 H   0  0  0  0  0  0  0  0  0  0  0  0
   -3.8871   -3.0667   -0.9504 H   0  0  0  0  0  0  0  0  0  0  0  0
   -5.3297   -2.6260   -1.8958 H   0  0  0  0  0  0  0  0  0  0  0  0
   -5.5348   -4.6746   -0.8684 H   0  0  0  0  0  0  0  0  0  0  0  0
   -7.6592   -2.9903   -0.6918 H   0  0  0  0  0  0  0  0  0  0  0  0
   -7.6617   -4.6830   -0.2452 H   0  0  0  0  0  0  0  0  0  0  0  0
   -7.4755   -3.5435    1.0752 H   0  0  0  0  0  0  0  0  0  0  0  0
   -5.6105   -3.8187    1.9740 H   0  0  0  0  0  0  0  0  0  0  0  0
   -3.9746   -4.0544    1.1196 H   0  0  0  0  0  0  0  0  0  0  0  0
   -5.1851   -5.3560    1.2186 H   0  0  0  0  0  0  0  0  0  0  0  0
  -10.9068    4.2078   -2.3909 H   0  0  0  0  0  0  0  0  0  0  0  0
  -12.3054    5.0678   -1.7575 H   0  0  0  0  0  0  0  0  0  0  0  0
  1  2  1  0
  2  3  2  3
  3  4  1  0
  4  5  1  0
  5  6  1  0
  6  7  1  0
  7  8  1  0
  8  9  1  0
  9 10  2  0
  9 11  1  0
 11 12  1  0
 12 13  1  0
 13 14  2  0
 13 15  1  0
 12 16  1  0
 16 17  1  0
 17 18  2  0
 18 19  1  0
 19 20  1  0
 20 21  2  0
 21 22  1  0
 22 23  2  0
 23 24  1  0
 24 25  2  0
  8 26  1  0
 26 27  1  0
 27 28  2  0
 27 29  1  0
 29 30  1  0
 30 31  1  0
 31 32  2  0
 31 33  1  0
 33 34  1  0
 34 35  1  0
 35 36  2  0
 35 37  1  0
 37 38  1  0
 38 39  1  0
 39 40  2  0
 39 41  1  0
 41 42  1  0
 42 43  1  0
 42 44  1  0
 41 45  1  0
 45 46  1  0
 46 47  2  0
 46 48  1  0
 48 49  1  0
 49 50  1  0
 50 51  2  0
 50 52  1  0
 52 53  1  0
 53 54  1  0
 54 55  2  0
 54 56  1  0
 56 57  1  0
 57 58  1  0
 58 59  2  0
 59 60  1  0
 60 61  2  0
 61 62  1  0
 62 63  2  0
 61 64  1  0
 56 65  1  0
 65 66  1  0
 66 67  2  0
 66 68  1  0
 52 69  1  0
 52 70  1  0
 48 71  1  0
 71 72  1  0
 72 73  2  0
 72 74  1  0
 37 75  1  0
 75 76  1  0
 76 77  2  0
 77 78  1  0
 78 79  2  0
 79 80  1  0
 80 81  2  0
 29 82  1  0
 82 83  1  0
 83 84  1  0
 83 85  1  0
  3 86  1  0
 21 17  1  0
 63 58  1  0
 81 76  1  0
 25 20  1  0
  1 87  1  0
  1 88  1  0
  1 89  1  0
  4 90  1  0
  5 91  1  0
  5 92  1  0
  6 93  1  0
  6 94  1  0
  7 95  1  0
  7 96  1  0
  8 97  1  1
 11 98  1  0
 12 99  1  1
 15100  1  0
 15101  1  0
 16102  1  0
 16103  1  0
 18104  1  0
 19105  1  0
 22106  1  0
 23107  1  0
 24108  1  0
 25109  1  0
 26110  1  0
 29111  1  6
 30112  1  0
 33113  1  0
 34114  1  0
 37115  1  1
 38116  1  0
 41117  1  1
 42118  1  1
 43119  1  0
 44120  1  0
 44121  1  0
 44122  1  0
 45123  1  0
 48124  1  6
 49125  1  0
 53126  1  0
 56127  1  6
 57128  1  0
 57129  1  0
 59130  1  0
 60131  1  0
 62132  1  0
 63133  1  0
 64134  1  0
 65135  1  0
 68136  1  0
 68137  1  0
 68138  1  0
 69139  1  0
 69140  1  0
 69141  1  0
 70142  1  0
 70143  1  0
 70144  1  0
 71145  1  0
 71146  1  0
 74147  1  0
 74148  1  0
 75149  1  0
 75150  1  0
 77151  1  0
 78152  1  0
 79153  1  0
 80154  1  0
 81155  1  0
 82156  1  0
 82157  1  0
 83158  1  0
 84159  1  0
 84160  1  0
 84161  1  0
 85162  1  0
 85163  1  0
 85164  1  0
 86165  1  0
 86166  1  0
M  END
>  <Ligand ID>  (1) 
LIG0005352

>  <Ligand>  (1) 
CHEMBL3964945

>  <SMILES>  (1) 
CN=C(NCCC[C@@H](C(=O)N[C@H](C(=O)N)Cc1c[nH]c2c1cccc2)NC(=O)[C@@H](NC(=O)NNC(=O)[C@@H](NC(=O)[C@H]([C@H](O)C)NC(=O)[C@@H](NC(=O)C(NC(=O)[C@@H](Cc1ccc(cc1)O)NC(=O)C)(C)C)CC(=O)N)Cc1ccccc1)CC(C)C)N

>  <CID>  (1) 
24996810.0

>  <ChEMBL ID>  (1) 
nan

>  <InChiKey>  (1) 
KBARDLAXPIYZOH-LMMXIFMVSA-N

>  <InChi>  (1) 
InChI=1S/C57H80N16O13/c1-30(2)24-41(49(80)65-39(18-13-23-62-55(60)61-7)48(79)66-40(47(59)78)27-35-29-63-38-17-12-11-16-37(35)38)69-56(86)73-72-52(83)43(25-33-14-9-8-10-15-33)67-53(84)46(31(3)74)70-50(81)44(28-45(58)77)68-54(85)57(5,6)71-51(82)42(64-32(4)75)26-34-19-21-36(76)22-20-34/h8-12,14-17,19-22,29-31,39-44,46,63,74,76H,13,18,23-28H2,1-7H3,(H2,58,77)(H2,59,78)(H,64,75)(H,65,80)(H,66,79)(H,67,84)(H,68,85)(H,70,81)(H,71,82)(H,72,83)(H3,60,61,62)(H2,69,73,86)/t31-,39+,40+,41+,42-,43+,44+,46+/m1/s1

>  <IUPAC Name>  (1) 
(2S)-2-[[2-[[(2R)-2-acetamido-3-(4-hydroxyphenyl)propanoyl]amino]-2-methylpropanoyl]amino]-N-[(2S,3R)-1-[[(2S)-1-[2-[[(2S)-1-[[(2S)-1-[[(2S)-1-amino-3-(1H-indol-3-yl)-1-oxopropan-2-yl]amino]-5-[(N'-methylcarbamimidoyl)amino]-1-oxopentan-2-yl]amino]-4-methyl-1-oxopentan-2-yl]carbamoyl]hydrazinyl]-1-oxo-3-phenylpropan-2-yl]amino]-3-hydroxy-1-oxobutan-2-yl]butanediamide

$$$$
