
     RDKit          3D

158163  0  0  0  0  0  0  0  0999 V2000
   11.1088    0.8968   -0.6344 C   0  0  0  0  0  0  0  0  0  0  0  0
   10.4530   -0.2358    0.0967 C   0  0  0  0  0  0  0  0  0  0  0  0
    9.1510   -0.7035   -0.5297 C   0  0  0  0  0  0  0  0  0  0  0  0
    9.2875   -1.1912   -1.9341 C   0  0  0  0  0  0  0  0  0  0  0  0
    7.9436   -1.6392   -2.4957 C   0  0  2  0  0  0  0  0  0  0  0  0
    6.9792   -0.4795   -2.4874 C   0  0  0  0  0  0  0  0  0  0  0  0
    7.3006    0.5029   -3.1958 O   0  0  0  0  0  0  0  0  0  0  0  0
    5.7759   -0.5317   -1.7096 N   0  0  0  0  0  0  0  0  0  0  0  0
    4.8187    0.4913   -1.6371 C   0  0  1  0  0  0  0  0  0  0  0  0
    3.4319    0.1092   -2.1623 C   0  0  0  0  0  0  0  0  0  0  0  0
    2.8587   -1.0376   -1.4137 C   0  0  0  0  0  0  0  0  0  0  0  0
    3.4687   -2.0625   -1.0801 O   0  0  0  0  0  0  0  0  0  0  0  0
    1.4725   -1.0342   -0.9818 N   0  0  0  0  0  0  0  0  0  0  0  0
    0.8642   -2.0893   -0.2516 C   0  0  0  0  0  0  0  0  0  0  0  0
    0.7444   -3.4280   -1.0063 C   0  0  0  0  0  0  0  0  0  0  0  0
    0.0834   -4.4512   -0.0687 C   0  0  0  0  0  0  0  0  0  0  0  0
   -1.2693   -4.7699   -0.5702 C   0  0  0  0  0  0  0  0  0  0  0  0
   -2.0716   -5.6086    0.3265 C   0  0  1  0  0  0  0  0  0  0  0  0
   -1.7192   -5.3691    1.7767 C   0  0  0  0  0  0  0  0  0  0  0  0
   -0.5663   -5.6394    2.1280 O   0  0  0  0  0  0  0  0  0  0  0  0
   -2.6345   -4.8664    2.7207 N   0  0  0  0  0  0  0  0  0  0  0  0
   -3.5079   -5.0504    0.3232 N   0  0  0  0  0  0  0  0  0  0  0  0
   -4.5020   -6.0036    0.0604 C   0  0  0  0  0  0  0  0  0  0  0  0
   -3.6930   -3.7014    0.5726 C   0  0  0  0  0  0  0  0  0  0  0  0
   -2.4712   -3.1968    0.7528 O   0  0  0  0  0  0  0  0  0  0  0  0
   -4.6795   -2.6980    0.7063 C   0  0  1  0  0  0  0  0  0  0  0  0
   -3.8226   -1.4280    0.8204 N   0  0  0  0  0  0  0  0  0  0  0  0
   -3.6904   -0.7344    2.0296 C   0  0  0  0  0  0  0  0  0  0  0  0
   -4.2900   -1.3461    2.9613 O   0  0  0  0  0  0  0  0  0  0  0  0
   -3.0220    0.4888    2.3746 C   0  0  1  0  0  0  0  0  0  0  0  0
   -2.5193    1.4335    1.4268 N   0  0  0  0  0  0  0  0  0  0  0  0
   -1.0878    1.6850    1.2581 C   0  0  0  0  0  0  0  0  0  0  0  0
   -0.4019    0.9660    1.9528 O   0  0  0  0  0  0  0  0  0  0  0  0
   -0.4756    2.6660    0.3586 C   0  0  2  0  0  0  0  0  0  0  0  0
    0.9581    2.4651    0.3748 N   0  0  0  0  0  0  0  0  0  0  0  0
    1.8491    2.7915    1.4769 C   0  0  0  0  0  0  0  0  0  0  0  0
    1.2611    3.2025    2.4577 O   0  0  0  0  0  0  0  0  0  0  0  0
    3.3406    2.5986    1.3172 C   0  0  1  0  0  0  0  0  0  0  0  0
    3.6983    2.1001    0.0127 N   0  0  0  0  0  0  0  0  0  0  0  0
    4.5982    1.0024   -0.2148 C   0  0  0  0  0  0  0  0  0  0  0  0
    5.1467    0.5341    0.7757 O   0  0  0  0  0  0  0  0  0  0  0  0
    4.0031    3.9191    1.5931 C   0  0  0  0  0  0  0  0  0  0  0  0
    3.8286    4.3881    2.9745 C   0  0  0  0  0  0  0  0  0  0  0  0
    4.2558    5.6181    3.3684 N   0  0  0  0  0  0  0  0  0  0  0  0
    4.0549    5.8257    4.6628 C   0  0  0  0  0  0  0  0  0  0  0  0
    3.4868    4.7080    5.1416 N   0  0  0  0  0  0  0  0  0  0  0  0
    3.3403    3.8097    4.1143 C   0  0  0  0  0  0  0  0  0  0  0  0
   -0.8072    4.0617    0.7364 C   0  0  0  0  0  0  0  0  0  0  0  0
   -0.1682    5.0841   -0.1764 C   0  0  0  0  0  0  0  0  0  0  0  0
    0.9875    5.7456    0.1602 C   0  0  0  0  0  0  0  0  0  0  0  0
    1.5825    6.6544   -0.7154 C   0  0  0  0  0  0  0  0  0  0  0  0
    1.0070    6.9016   -1.9454 C   0  0  0  0  0  0  0  0  0  0  0  0
   -0.1486    6.2503   -2.2979 C   0  0  0  0  0  0  0  0  0  0  0  0
   -0.7428    5.3441   -1.4265 C   0  0  0  0  0  0  0  0  0  0  0  0
   -0.7817    6.4542   -3.5261 C   0  0  0  0  0  0  0  0  0  0  0  0
   -0.2066    7.3618   -4.4337 C   0  0  0  0  0  0  0  0  0  0  0  0
    0.9693    8.0392   -4.0974 C   0  0  0  0  0  0  0  0  0  0  0  0
    1.5358    7.7842   -2.8641 C   0  0  0  0  0  0  0  0  0  0  0  0
   -3.3115    2.1737    0.4974 C   0  0  0  0  0  0  0  0  0  0  0  0
   -3.4995    1.0039    3.7023 C   0  0  0  0  0  0  0  0  0  0  0  0
   -4.8694    1.2778    4.0406 C   0  0  0  0  0  0  0  0  0  0  0  0
   -5.7818    2.2214    3.3746 C   0  0  0  0  0  0  0  0  0  0  0  0
   -6.0917    1.9464    2.0181 N   0  0  0  0  0  0  0  0  0  0  0  0
   -6.9235    2.5168    1.2334 C   0  0  0  0  0  0  0  0  0  0  0  0
   -6.9815    1.9581   -0.1072 N   0  0  0  0  0  0  0  0  0  0  0  0
   -7.7406    3.6215    1.5971 N   0  0  0  0  0  0  0  0  0  0  0  0
   -3.1820   -1.0174   -0.3383 C   0  0  0  0  0  0  0  0  0  0  0  0
   -5.8159   -2.3705   -0.1340 C   0  0  0  0  0  0  0  0  0  0  0  0
   -6.8893   -3.3158   -0.3817 C   0  0  0  0  0  0  0  0  0  0  0  0
   -8.0191   -3.4215    0.4423 C   0  0  0  0  0  0  0  0  0  0  0  0
   -8.8298   -4.3924   -0.0067 N   0  0  0  0  0  0  0  0  0  0  0  0
   -8.2857   -4.9320   -1.0926 C   0  0  0  0  0  0  0  0  0  0  0  0
   -7.0965   -4.2879   -1.3360 C   0  0  0  0  0  0  0  0  0  0  0  0
   -6.3552   -4.6664   -2.4338 C   0  0  0  0  0  0  0  0  0  0  0  0
   -6.8053   -5.6716   -3.2698 C   0  0  0  0  0  0  0  0  0  0  0  0
   -8.0256   -6.2977   -2.9775 C   0  0  0  0  0  0  0  0  0  0  0  0
   -8.7728   -5.9501   -1.9071 C   0  0  0  0  0  0  0  0  0  0  0  0
    7.4215   -2.6773   -1.6389 N   0  0  0  0  0  0  0  0  0  0  0  0
    7.1121   -3.9225   -2.2649 C   0  0  0  0  0  0  0  0  0  0  0  0
    7.2730   -4.1288   -3.4773 O   0  0  0  0  0  0  0  0  0  0  0  0
    6.5781   -5.0114   -1.3942 C   0  0  0  0  0  0  0  0  0  0  0  0
   11.8810    0.5526   -1.3800 H   0  0  0  0  0  0  0  0  0  0  0  0
   10.3912    1.5884   -1.1096 H   0  0  0  0  0  0  0  0  0  0  0  0
   11.6788    1.4822    0.1149 H   0  0  0  0  0  0  0  0  0  0  0  0
   11.1994   -1.0570    0.1750 H   0  0  0  0  0  0  0  0  0  0  0  0
   10.2469    0.1245    1.1447 H   0  0  0  0  0  0  0  0  0  0  0  0
    8.7239   -1.4609    0.1657 H   0  0  0  0  0  0  0  0  0  0  0  0
    8.4425    0.1778   -0.4774 H   0  0  0  0  0  0  0  0  0  0  0  0
    9.7598   -0.4532   -2.6085 H   0  0  0  0  0  0  0  0  0  0  0  0
    9.9851   -2.0576   -1.9317 H   0  0  0  0  0  0  0  0  0  0  0  0
    8.0538   -2.0079   -3.5228 H   0  0  0  0  0  0  0  0  0  0  0  0
    5.6357   -1.4315   -1.1582 H   0  0  0  0  0  0  0  0  0  0  0  0
    5.1386    1.3741   -2.2109 H   0  0  0  0  0  0  0  0  0  0  0  0
    3.5334   -0.0895   -3.2388 H   0  0  0  0  0  0  0  0  0  0  0  0
    2.7710    0.9707   -2.0118 H   0  0  0  0  0  0  0  0  0  0  0  0
    0.9557   -0.2041   -1.2466 H   0  0  0  0  0  0  0  0  0  0  0  0
   -0.1532   -1.7769    0.0617 H   0  0  0  0  0  0  0  0  0  0  0  0
    1.4461   -2.2988    0.7162 H   0  0  0  0  0  0  0  0  0  0  0  0
    1.6600   -3.7780   -1.4363 H   0  0  0  0  0  0  0  0  0  0  0  0
   -0.0107   -3.2037   -1.7934 H   0  0  0  0  0  0  0  0  0  0  0  0
    0.7008   -5.3647   -0.0596 H   0  0  0  0  0  0  0  0  0  0  0  0
    0.0861   -3.9557    0.9311 H   0  0  0  0  0  0  0  0  0  0  0  0
   -1.7363   -3.9567   -1.0973 H   0  0  0  0  0  0  0  0  0  0  0  0
   -1.0348   -5.4888   -1.5296 H   0  0  0  0  0  0  0  0  0  0  0  0
   -2.0993   -6.6507    0.0884 H   0  0  0  0  0  0  0  0  0  0  0  0
   -3.5325   -5.4071    2.8871 H   0  0  0  0  0  0  0  0  0  0  0  0
   -2.5342   -4.0024    3.3033 H   0  0  0  0  0  0  0  0  0  0  0  0
   -4.5368   -6.2924   -1.0409 H   0  0  0  0  0  0  0  0  0  0  0  0
   -4.2428   -7.0148    0.5298 H   0  0  0  0  0  0  0  0  0  0  0  0
   -5.4976   -5.7864    0.4827 H   0  0  0  0  0  0  0  0  0  0  0  0
   -5.1225   -2.8357    1.7592 H   0  0  0  0  0  0  0  0  0  0  0  0
   -1.9761    0.0253    2.8225 H   0  0  0  0  0  0  0  0  0  0  0  0
   -0.8353    2.4434   -0.7076 H   0  0  0  0  0  0  0  0  0  0  0  0
    1.4144    2.0472   -0.4284 H   0  0  0  0  0  0  0  0  0  0  0  0
    3.6445    1.9191    2.1366 H   0  0  0  0  0  0  0  0  0  0  0  0
    3.3175    2.5260   -0.8219 H   0  0  0  0  0  0  0  0  0  0  0  0
    5.0970    3.8788    1.3263 H   0  0  0  0  0  0  0  0  0  0  0  0
    3.6028    4.6720    0.8534 H   0  0  0  0  0  0  0  0  0  0  0  0
    4.7035    6.3469    2.7314 H   0  0  0  0  0  0  0  0  0  0  0  0
    4.2662    6.6725    5.3063 H   0  0  0  0  0  0  0  0  0  0  0  0
    2.9277    2.8325    4.2920 H   0  0  0  0  0  0  0  0  0  0  0  0
   -1.8929    4.2520    0.5891 H   0  0  0  0  0  0  0  0  0  0  0  0
   -0.5709    4.2394    1.7819 H   0  0  0  0  0  0  0  0  0  0  0  0
    1.4763    5.5895    1.1165 H   0  0  0  0  0  0  0  0  0  0  0  0
    2.5190    7.1702   -0.4376 H   0  0  0  0  0  0  0  0  0  0  0  0
   -1.6583    4.8226   -1.6915 H   0  0  0  0  0  0  0  0  0  0  0  0
   -1.6771    5.9273   -3.7658 H   0  0  0  0  0  0  0  0  0  0  0  0
   -0.6384    7.5543   -5.4056 H   0  0  0  0  0  0  0  0  0  0  0  0
    1.4326    8.7579   -4.8002 H   0  0  0  0  0  0  0  0  0  0  0  0
    2.4602    8.2957   -2.5661 H   0  0  0  0  0  0  0  0  0  0  0  0
   -3.7413    3.0276    1.0444 H   0  0  0  0  0  0  0  0  0  0  0  0
   -4.1815    1.5612    0.1576 H   0  0  0  0  0  0  0  0  0  0  0  0
   -2.8195    2.4729   -0.4289 H   0  0  0  0  0  0  0  0  0  0  0  0
   -2.9855    0.3980    4.5208 H   0  0  0  0  0  0  0  0  0  0  0  0
   -2.9168    2.0063    3.8169 H   0  0  0  0  0  0  0  0  0  0  0  0
   -4.8272    1.6875    5.1272 H   0  0  0  0  0  0  0  0  0  0  0  0
   -5.4617    0.3184    4.2645 H   0  0  0  0  0  0  0  0  0  0  0  0
   -5.5003    3.3047    3.5434 H   0  0  0  0  0  0  0  0  0  0  0  0
   -6.8150    2.2046    3.8988 H   0  0  0  0  0  0  0  0  0  0  0  0
   -6.2734    2.3874   -0.7557 H   0  0  0  0  0  0  0  0  0  0  0  0
   -7.6649    1.2244   -0.3551 H   0  0  0  0  0  0  0  0  0  0  0  0
   -8.3155    4.1740    0.9342 H   0  0  0  0  0  0  0  0  0  0  0  0
   -7.7432    3.8976    2.5972 H   0  0  0  0  0  0  0  0  0  0  0  0
   -2.8212   -1.8530   -0.9939 H   0  0  0  0  0  0  0  0  0  0  0  0
   -3.8209   -0.4248   -1.0361 H   0  0  0  0  0  0  0  0  0  0  0  0
   -2.2250   -0.4396   -0.1749 H   0  0  0  0  0  0  0  0  0  0  0  0
   -5.5053   -1.8526   -1.1149 H   0  0  0  0  0  0  0  0  0  0  0  0
   -6.3220   -1.4680    0.3885 H   0  0  0  0  0  0  0  0  0  0  0  0
   -8.2132   -2.7982    1.3235 H   0  0  0  0  0  0  0  0  0  0  0  0
   -9.7242   -4.6381    0.4524 H   0  0  0  0  0  0  0  0  0  0  0  0
   -5.4219   -4.1241   -2.5924 H   0  0  0  0  0  0  0  0  0  0  0  0
   -6.2238   -5.9638   -4.1223 H   0  0  0  0  0  0  0  0  0  0  0  0
   -8.3225   -7.0914   -3.6714 H   0  0  0  0  0  0  0  0  0  0  0  0
   -9.7180   -6.4630   -1.7241 H   0  0  0  0  0  0  0  0  0  0  0  0
    7.2468   -2.5959   -0.6257 H   0  0  0  0  0  0  0  0  0  0  0  0
    5.4782   -5.0498   -1.3686 H   0  0  0  0  0  0  0  0  0  0  0  0
    7.0020   -6.0146   -1.6688 H   0  0  0  0  0  0  0  0  0  0  0  0
    6.9600   -4.8005   -0.3771 H   0  0  0  0  0  0  0  0  0  0  0  0
  1  2  1  0
  2  3  1  0
  3  4  1  0
  4  5  1  0
  5  6  1  0
  6  7  2  0
  6  8  1  0
  8  9  1  0
  9 10  1  0
 10 11  1  0
 11 12  2  0
 11 13  1  0
 13 14  1  0
 14 15  1  0
 15 16  1  0
 16 17  1  0
 17 18  1  0
 18 19  1  0
 19 20  2  0
 19 21  1  0
 18 22  1  0
 22 23  1  0
 22 24  1  0
 24 25  2  0
 24 26  1  0
 26 27  1  0
 27 28  1  0
 28 29  2  0
 28 30  1  0
 30 31  1  0
 31 32  1  0
 32 33  2  0
 32 34  1  0
 34 35  1  0
 35 36  1  0
 36 37  2  0
 36 38  1  0
 38 39  1  0
 39 40  1  0
 40 41  2  0
 38 42  1  0
 42 43  1  0
 43 44  1  0
 44 45  1  0
 45 46  2  0
 46 47  1  0
 34 48  1  0
 48 49  1  0
 49 50  2  0
 50 51  1  0
 51 52  2  0
 52 53  1  0
 53 54  2  0
 53 55  1  0
 55 56  2  0
 56 57  1  0
 57 58  2  0
 31 59  1  0
 30 60  1  0
 60 61  1  0
 61 62  1  0
 62 63  1  0
 63 64  2  3
 64 65  1  0
 64 66  1  0
 27 67  1  0
 26 68  1  0
 68 69  1  0
 69 70  2  0
 70 71  1  0
 71 72  1  0
 72 73  2  0
 73 74  1  0
 74 75  2  0
 75 76  1  0
 76 77  2  0
  5 78  1  0
 78 79  1  0
 79 80  2  0
 79 81  1  0
 40  9  1  0
 47 43  2  0
 54 49  1  0
 73 69  1  0
 58 52  1  0
 77 72  1  0
  1 82  1  0
  1 83  1  0
  1 84  1  0
  2 85  1  0
  2 86  1  0
  3 87  1  0
  3 88  1  0
  4 89  1  0
  4 90  1  0
  5 91  1  6
  8 92  1  0
  9 93  1  6
 10 94  1  0
 10 95  1  0
 13 96  1  0
 14 97  1  0
 14 98  1  0
 15 99  1  0
 15100  1  0
 16101  1  0
 16102  1  0
 17103  1  0
 17104  1  0
 18105  1  6
 21106  1  0
 21107  1  0
 23108  1  0
 23109  1  0
 23110  1  0
 26111  1  1
 30112  1  1
 34113  1  6
 35114  1  0
 38115  1  1
 39116  1  0
 42117  1  0
 42118  1  0
 44119  1  0
 45120  1  0
 47121  1  0
 48122  1  0
 48123  1  0
 50124  1  0
 51125  1  0
 54126  1  0
 55127  1  0
 56128  1  0
 57129  1  0
 58130  1  0
 59131  1  0
 59132  1  0
 59133  1  0
 60134  1  0
 60135  1  0
 61136  1  0
 61137  1  0
 62138  1  0
 62139  1  0
 65140  1  0
 65141  1  0
 66142  1  0
 66143  1  0
 67144  1  0
 67145  1  0
 67146  1  0
 68147  1  0
 68148  1  0
 70149  1  0
 71150  1  0
 74151  1  0
 75152  1  0
 76153  1  0
 77154  1  0
 78155  1  0
 81156  1  0
 81157  1  0
 81158  1  0
M  END
>  <Ligand ID>  (1) 
LIG0001803

>  <Ligand>  (1) 
CHEMBL3600914

>  <SMILES>  (1) 
CCCC[C@H](C(=O)N[C@H]1CC(=O)NCCCC[C@@H](C(=O)N)N(C)C(=O)[C@@H](N(C(=O)[C@@H](N(C(=O)[C@H](NC(=O)[C@@H](NC1=O)Cc1[nH]cnc1)Cc1ccc2c(c1)cccc2)C)CCCN=C(N)N)C)Cc1c[nH]c2c1cccc2)NC(=O)C

>  <CID>  (1) 
122184633.0

>  <ChEMBL ID>  (1) 
nan

>  <InChiKey>  (1) 
UAISFSHHKXHKOI-JGNQAYRUSA-N

>  <InChi>  (1) 
InChI=1S/C57H77N15O9/c1-6-7-18-42(66-34(2)73)51(76)68-44-30-49(74)62-24-13-12-20-46(50(58)75)70(3)56(81)48(28-38-31-64-41-19-11-10-17-40(38)41)72(5)55(80)47(21-14-25-63-57(59)60)71(4)54(79)45(27-35-22-23-36-15-8-9-16-37(36)26-35)69-52(77)43(67-53(44)78)29-39-32-61-33-65-39/h8-11,15-17,19,22-23,26,31-33,42-48,64H,6-7,12-14,18,20-21,24-25,27-30H2,1-5H3,(H2,58,75)(H,61,65)(H,62,74)(H,66,73)(H,67,78)(H,68,76)(H,69,77)(H4,59,60,63)/t42-,43+,44+,45-,46+,47+,48+/m1/s1

>  <IUPAC Name>  (1) 
(3S,6S,9R,12S,15S,23S)-15-[[(2R)-2-acetamidohexanoyl]amino]-6-[3-(diaminomethylideneamino)propyl]-12-(1H-imidazol-5-ylmethyl)-3-(1H-indol-3-ylmethyl)-1,4,7-trimethyl-9-(naphthalen-2-ylmethyl)-2,5,8,11,14,17-hexaoxo-1,4,7,10,13,18-hexazacyclotricosane-23-carboxamide

$$$$
