
     RDKit          3D

 67 69  0  0  0  0  0  0  0  0999 V2000
   -2.1515   -2.5494    2.6582 O   0  0  0  0  0  0  0  0  0  0  0  0
   -2.4127   -1.8404    1.4810 C   0  0  2  0  0  0  0  0  0  0  0  0
   -3.8784   -1.6937    1.2209 C   0  0  2  0  0  0  0  0  0  0  0  0
   -4.6296   -2.3101    2.2277 O   0  0  0  0  0  0  0  0  0  0  0  0
   -4.0731   -2.3921   -0.1136 C   0  0  2  0  0  0  0  0  0  0  0  0
   -2.8252   -2.2912   -0.7536 O   0  0  0  0  0  0  0  0  0  0  0  0
   -1.9399   -2.6337    0.2596 C   0  0  1  0  0  0  0  0  0  0  0  0
   -0.6255   -2.1144   -0.0917 N   0  0  0  0  0  0  0  0  0  0  0  0
    0.4265   -2.8606    0.3651 C   0  0  0  0  0  0  0  0  0  0  0  0
    1.7407   -2.4600    0.1049 C   0  0  0  0  0  0  0  0  0  0  0  0
    1.8874   -1.2764   -0.6330 C   0  0  0  0  0  0  0  0  0  0  0  0
    0.8326   -0.5770   -1.0618 N   0  0  0  0  0  0  0  0  0  0  0  0
   -0.4419   -0.9852   -0.7978 C   0  0  0  0  0  0  0  0  0  0  0  0
   -1.4492   -0.3502   -1.1878 O   0  0  0  0  0  0  0  0  0  0  0  0
    3.2505   -0.8641   -0.8775 N   0  0  0  0  0  0  0  0  0  0  0  0
    3.8913   -0.3759    0.2107 O   0  0  0  0  0  0  0  0  0  0  0  0
    5.2559   -0.4908    0.0092 C   0  0  0  0  0  0  0  0  0  0  0  0
    5.9212   -0.4009    1.3660 C   0  0  0  0  0  0  0  0  0  0  0  0
    7.4113   -0.4929    1.3018 C   0  0  0  0  0  0  0  0  0  0  0  0
    7.9346    0.6353    0.4876 C   0  0  0  0  0  0  0  0  0  0  0  0
    8.2146    1.8093    1.1984 C   0  0  0  0  0  0  0  0  0  0  0  0
    8.7020    2.8981    0.5103 C   0  0  0  0  0  0  0  0  0  0  0  0
    8.9194    2.8626   -0.8489 C   0  0  0  0  0  0  0  0  0  0  0  0
    8.6353    1.6900   -1.5285 C   0  0  0  0  0  0  0  0  0  0  0  0
    8.1409    0.5668   -0.8688 C   0  0  0  0  0  0  0  0  0  0  0  0
    9.4213    4.0248   -1.4767 N   0  0  0  0  0  0  0  0  0  0  0  0
    9.6285    4.0204   -2.7161 O   0  0  0  0  0  0  0  0  0  0  0  0
    9.7049    5.1923   -0.8176 O   0  0  0  0  0  0  0  0  0  0  0  0
   -5.0767   -1.6639   -0.9611 C   0  0  0  0  0  0  0  0  0  0  0  0
   -4.6621   -0.3300   -1.0595 O   0  0  0  0  0  0  0  0  0  0  0  0
   -5.7461    0.5618   -2.0389 P   0  0  0  0  0  0  0  0  0  0  0  0
   -5.3294    0.3047   -3.4756 O   0  0  0  0  0  0  0  0  0  0  0  0
   -7.2515   -0.1343   -1.8270 O   0  0  0  0  0  0  0  0  0  0  0  0
   -8.1804    0.5783   -0.6246 P   0  0  0  0  0  0  0  0  0  0  0  0
   -9.2366   -0.4472   -0.2312 O   0  0  0  0  0  0  0  0  0  0  0  0
   -9.0401    1.9324   -1.1906 O   0  0  0  0  0  0  0  0  0  0  0  0
   -9.2498    3.1041   -0.0192 P   0  0  0  0  0  0  0  0  0  0  0  0
  -10.6646    3.6344   -0.1461 O   0  0  0  0  0  0  0  0  0  0  0  0
   -8.2093    4.3910   -0.3978 O   0  0  0  0  0  0  0  0  0  0  0  0
   -9.0214    2.5458    1.5369 O   0  0  0  0  0  0  0  0  0  0  0  0
   -7.3046    0.9126    0.7658 O   0  0  0  0  0  0  0  0  0  0  0  0
   -5.7082    2.1973   -1.7102 O   0  0  0  0  0  0  0  0  0  0  0  0
   -2.0166   -3.5194    2.4706 H   0  0  0  0  0  0  0  0  0  0  0  0
   -1.8821   -0.8707    1.5038 H   0  0  0  0  0  0  0  0  0  0  0  0
   -4.1151   -0.6218    1.1927 H   0  0  0  0  0  0  0  0  0  0  0  0
   -4.3261   -1.8952    3.0810 H   0  0  0  0  0  0  0  0  0  0  0  0
   -4.3149   -3.4580    0.0582 H   0  0  0  0  0  0  0  0  0  0  0  0
   -1.9351   -3.7040    0.4619 H   0  0  0  0  0  0  0  0  0  0  0  0
    0.2787   -3.7695    0.9382 H   0  0  0  0  0  0  0  0  0  0  0  0
    2.5904   -3.0304    0.4516 H   0  0  0  0  0  0  0  0  0  0  0  0
    3.6912   -0.9356   -1.8116 H   0  0  0  0  0  0  0  0  0  0  0  0
    5.5751    0.2684   -0.7036 H   0  0  0  0  0  0  0  0  0  0  0  0
    5.4220   -1.5364   -0.3732 H   0  0  0  0  0  0  0  0  0  0  0  0
    5.6524    0.5446    1.8930 H   0  0  0  0  0  0  0  0  0  0  0  0
    5.5523   -1.2435    2.0018 H   0  0  0  0  0  0  0  0  0  0  0  0
    7.8238   -0.4528    2.3173 H   0  0  0  0  0  0  0  0  0  0  0  0
    7.7354   -1.4734    0.8528 H   0  0  0  0  0  0  0  0  0  0  0  0
    8.0488    1.8577    2.2817 H   0  0  0  0  0  0  0  0  0  0  0  0
    8.9019    3.7879    1.1195 H   0  0  0  0  0  0  0  0  0  0  0  0
    8.8005    1.6411   -2.5921 H   0  0  0  0  0  0  0  0  0  0  0  0
    7.9177   -0.3627   -1.4184 H   0  0  0  0  0  0  0  0  0  0  0  0
   -5.1651   -2.1641   -1.9280 H   0  0  0  0  0  0  0  0  0  0  0  0
   -6.0451   -1.6306   -0.3879 H   0  0  0  0  0  0  0  0  0  0  0  0
   -7.8314    4.7258    0.4406 H   0  0  0  0  0  0  0  0  0  0  0  0
   -8.1485    2.7790    1.9423 H   0  0  0  0  0  0  0  0  0  0  0  0
   -7.6118    0.4186    1.5558 H   0  0  0  0  0  0  0  0  0  0  0  0
   -5.4094    2.3175   -0.7798 H   0  0  0  0  0  0  0  0  0  0  0  0
  1  2  1  0
  2  3  1  0
  3  4  1  0
  3  5  1  0
  5  6  1  0
  6  7  1  0
  7  8  1  0
  8  9  1  0
  9 10  2  0
 10 11  1  0
 11 12  2  0
 12 13  1  0
 13 14  2  0
 11 15  1  0
 15 16  1  0
 16 17  1  0
 17 18  1  0
 18 19  1  0
 19 20  1  0
 20 21  2  0
 21 22  1  0
 22 23  2  0
 23 24  1  0
 24 25  2  0
 23 26  1  0
 26 27  2  0
 26 28  1  0
  5 29  1  0
 29 30  1  0
 30 31  1  0
 31 32  2  0
 31 33  1  0
 33 34  1  0
 34 35  2  0
 34 36  1  0
 36 37  1  0
 37 38  2  0
 37 39  1  0
 37 40  1  0
 34 41  1  0
 31 42  1  0
  7  2  1  0
 13  8  1  0
 25 20  1  0
  1 43  1  0
  2 44  1  1
  3 45  1  6
  4 46  1  0
  5 47  1  1
  7 48  1  1
  9 49  1  0
 10 50  1  0
 15 51  1  0
 17 52  1  0
 17 53  1  0
 18 54  1  0
 18 55  1  0
 19 56  1  0
 19 57  1  0
 21 58  1  0
 22 59  1  0
 24 60  1  0
 25 61  1  0
 29 62  1  0
 29 63  1  0
 39 64  1  0
 40 65  1  0
 41 66  1  0
 42 67  1  0
M  CHG  2  26   1  28  -1
M  END
>  <Ligand ID>  (1) 
LIG0002548

>  <Ligand>  (1) 
CHEMBL3261368

>  <SMILES>  (1) 
O[C@@H]1[C@H](O)[C@H](O[C@H]1n1ccc(nc1=O)NOCCCc1ccc(cc1)[N+](=O)[O-])COP(=O)(OP(=O)(OP(=O)(O)O)O)O

>  <CID>  (1) 
90656219.0

>  <ChEMBL ID>  (1) 
nan

>  <InChiKey>  (1) 
FDWSSYHSADJRQV-MWQQHZPXSA-N

>  <InChi>  (1) 
InChI=1S/C18H25N4O17P3/c23-15-13(10-36-41(31,32)39-42(33,34)38-40(28,29)30)37-17(16(15)24)21-8-7-14(19-18(21)25)20-35-9-1-2-11-3-5-12(6-4-11)22(26)27/h3-8,13,15-17,23-24H,1-2,9-10H2,(H,31,32)(H,33,34)(H,19,20,25)(H2,28,29,30)/t13-,15-,16-,17-/m1/s1

>  <IUPAC Name>  (1) 
[[(2R,3S,4R,5R)-3,4-dihydroxy-5-[4-[3-(4-nitrophenyl)propoxyamino]-2-oxopyrimidin-1-yl]oxolan-2-yl]methoxy-hydroxyphosphoryl] phosphono hydrogen phosphate

$$$$
