
     RDKit          3D

 45 49  0  0  0  0  0  0  0  0999 V2000
    1.0912    1.8900    0.2262 O   0  0  0  0  0  0  0  0  0  0  0  0
    0.6490    0.6897    0.0734 C   0  0  0  0  0  0  0  0  0  0  0  0
   -0.7932    0.4897    0.0161 C   0  0  0  0  0  0  0  0  0  0  0  0
   -1.0918   -0.1969   -1.3183 C   0  0  0  0  0  0  0  0  0  0  0  0
   -2.5630   -0.2655   -1.5903 C   0  0  0  0  0  0  0  0  0  0  0  0
   -3.0534    1.1687   -1.6870 C   0  0  0  0  0  0  0  0  0  0  0  0
   -2.8923    1.8352   -0.3582 C   0  0  0  0  0  0  0  0  0  0  0  0
   -1.4360    1.8979   -0.0185 C   0  0  0  0  0  0  0  0  0  0  0  0
   -3.5770    1.0624    0.7461 C   0  0  0  0  0  0  0  0  0  0  0  0
   -2.9517   -0.2942    0.8203 C   0  0  0  0  0  0  0  0  0  0  0  0
   -1.4505   -0.2146    1.1326 C   0  0  0  0  0  0  0  0  0  0  0  0
   -3.2139   -1.0263   -0.4638 C   0  0  0  0  0  0  0  0  0  0  0  0
   -3.6077   -0.9984    1.8337 O   0  0  0  0  0  0  0  0  0  0  0  0
    1.6452   -0.3182   -0.0242 N   0  0  0  0  0  0  0  0  0  0  0  0
    1.5618   -1.7341   -0.1935 C   0  0  0  0  0  0  0  0  0  0  0  0
    2.8284   -2.3244    0.4196 C   0  0  0  0  0  0  0  0  0  0  0  0
    3.7662   -1.1880    0.2984 C   0  0  0  0  0  0  0  0  0  0  0  0
    3.0511   -0.0202    0.0363 C   0  0  0  0  0  0  0  0  0  0  0  0
    3.8127    1.1224   -0.1036 C   0  0  0  0  0  0  0  0  0  0  0  0
    5.1882    1.1344    0.0042 C   0  0  0  0  0  0  0  0  0  0  0  0
    5.8686   -0.0347    0.2640 C   0  0  0  0  0  0  0  0  0  0  0  0
    5.1447   -1.1943    0.4097 C   0  0  0  0  0  0  0  0  0  0  0  0
   -0.5559    0.3954   -2.0995 H   0  0  0  0  0  0  0  0  0  0  0  0
   -0.6299   -1.1916   -1.2796 H   0  0  0  0  0  0  0  0  0  0  0  0
   -2.7209   -0.7488   -2.5572 H   0  0  0  0  0  0  0  0  0  0  0  0
   -4.1047    1.2325   -2.0218 H   0  0  0  0  0  0  0  0  0  0  0  0
   -2.3773    1.6841   -2.4026 H   0  0  0  0  0  0  0  0  0  0  0  0
   -3.2627    2.8663   -0.4215 H   0  0  0  0  0  0  0  0  0  0  0  0
   -0.8262    2.4543   -0.7622 H   0  0  0  0  0  0  0  0  0  0  0  0
   -1.2347    2.3600    0.9499 H   0  0  0  0  0  0  0  0  0  0  0  0
   -4.6279    0.9224    0.4704 H   0  0  0  0  0  0  0  0  0  0  0  0
   -3.4316    1.6446    1.6859 H   0  0  0  0  0  0  0  0  0  0  0  0
   -1.1485   -1.2469    1.2783 H   0  0  0  0  0  0  0  0  0  0  0  0
   -1.4148    0.4033    2.0554 H   0  0  0  0  0  0  0  0  0  0  0  0
   -4.2975   -1.1073   -0.5751 H   0  0  0  0  0  0  0  0  0  0  0  0
   -2.7244   -2.0149   -0.4262 H   0  0  0  0  0  0  0  0  0  0  0  0
   -4.5542   -1.0895    1.5135 H   0  0  0  0  0  0  0  0  0  0  0  0
    0.7436   -2.2439    0.3381 H   0  0  0  0  0  0  0  0  0  0  0  0
    1.5995   -2.0575   -1.2566 H   0  0  0  0  0  0  0  0  0  0  0  0
    2.6688   -2.4923    1.5090 H   0  0  0  0  0  0  0  0  0  0  0  0
    3.1760   -3.2315   -0.1053 H   0  0  0  0  0  0  0  0  0  0  0  0
    3.3405    2.0725   -0.3094 H   0  0  0  0  0  0  0  0  0  0  0  0
    5.7761    2.0367   -0.1073 H   0  0  0  0  0  0  0  0  0  0  0  0
    6.9468   -0.0326    0.3498 H   0  0  0  0  0  0  0  0  0  0  0  0
    5.6834   -2.0961    0.6112 H   0  0  0  0  0  0  0  0  0  0  0  0
  1  2  2  0
  2  3  1  0
  3  4  1  0
  4  5  1  0
  5  6  1  0
  6  7  1  0
  7  8  1  0
  7  9  1  0
  9 10  1  0
 10 11  1  0
 10 12  1  0
 10 13  1  0
  2 14  1  0
 14 15  1  0
 15 16  1  0
 16 17  1  0
 17 18  2  0
 18 19  1  0
 19 20  2  0
 20 21  1  0
 21 22  2  0
  8  3  1  0
 18 14  1  0
 11  3  1  0
 22 17  1  0
 12  5  1  0
  4 23  1  0
  4 24  1  0
  5 25  1  0
  6 26  1  0
  6 27  1  0
  7 28  1  0
  8 29  1  0
  8 30  1  0
  9 31  1  0
  9 32  1  0
 11 33  1  0
 11 34  1  0
 12 35  1  0
 12 36  1  0
 13 37  1  0
 15 38  1  0
 15 39  1  0
 16 40  1  0
 16 41  1  0
 19 42  1  0
 20 43  1  0
 21 44  1  0
 22 45  1  0
M  END
>  <Ligand ID>  (1) 
LIG0003127

>  <Ligand>  (1) 
CHEMBL2338189

>  <SMILES>  (1) 
O=C(C12CC3CC(C1)CC(C2)(C3)O)N1CCc2c1cccc2

>  <CID>  (1) 
71719542.0

>  <ChEMBL ID>  (1) 
nan

>  <InChiKey>  (1) 
ZYYJHMAXCTYOMG-UHFFFAOYSA-N

>  <InChi>  (1) 
InChI=1S/C19H23NO2/c21-17(20-6-5-15-3-1-2-4-16(15)20)18-8-13-7-14(9-18)11-19(22,10-13)12-18/h1-4,13-14,22H,5-12H2

>  <IUPAC Name>  (1) 
2,3-dihydroindol-1-yl-(3-hydroxy-1-adamantyl)methanone

$$$$
