
     RDKit          3D

 26 25  0  0  0  0  0  0  0  0999 V2000
    4.4557    1.3218    0.8620 O   0  0  0  0  0  0  0  0  0  0  0  0
    4.0651    0.2088    0.1075 C   0  0  0  0  0  0  0  0  0  0  0  0
    4.9000   -0.7525    0.0209 O   0  0  0  0  0  0  0  0  0  0  0  0
    2.7566    0.1173   -0.5699 C   0  0  0  0  0  0  0  0  0  0  0  0
    1.4614   -0.6151    0.4486 P   0  0  0  0  0  0  0  0  0  0  0  0
    1.7661   -0.4554    1.9352 O   0  0  0  0  0  0  0  0  0  0  0  0
   -0.0792    0.3340    0.1116 C   0  0  0  0  0  0  0  0  0  0  0  0
   -1.2827   -0.4287    0.5388 C   0  0  0  0  0  0  0  0  0  0  0  0
   -2.5222    0.3870    0.2614 C   0  0  1  0  0  0  0  0  0  0  0  0
   -2.7058    0.7234   -1.1639 C   0  0  0  0  0  0  0  0  0  0  0  0
   -1.9475    1.4581   -1.8355 O   0  0  0  0  0  0  0  0  0  0  0  0
   -3.8104    0.1975   -1.8658 O   0  0  0  0  0  0  0  0  0  0  0  0
   -3.6560   -0.4118    0.7121 N   0  0  0  0  0  0  0  0  0  0  0  0
    1.1365   -2.2151    0.0396 O   0  0  0  0  0  0  0  0  0  0  0  0
    5.4191    1.6223    0.9169 H   0  0  0  0  0  0  0  0  0  0  0  0
    2.4748    1.1558   -0.8969 H   0  0  0  0  0  0  0  0  0  0  0  0
    2.8239   -0.4547   -1.5323 H   0  0  0  0  0  0  0  0  0  0  0  0
    0.0242    1.2790    0.6833 H   0  0  0  0  0  0  0  0  0  0  0  0
   -0.0515    0.5092   -0.9881 H   0  0  0  0  0  0  0  0  0  0  0  0
   -1.3361   -1.3671   -0.0841 H   0  0  0  0  0  0  0  0  0  0  0  0
   -1.2076   -0.6717    1.6120 H   0  0  0  0  0  0  0  0  0  0  0  0
   -2.4696    1.3140    0.8822 H   0  0  0  0  0  0  0  0  0  0  0  0
   -3.8506    0.2763   -2.8797 H   0  0  0  0  0  0  0  0  0  0  0  0
   -3.9439   -1.0084   -0.0883 H   0  0  0  0  0  0  0  0  0  0  0  0
   -4.3963    0.2403    1.0296 H   0  0  0  0  0  0  0  0  0  0  0  0
    1.9760   -2.7645    0.0151 H   0  0  0  0  0  0  0  0  0  0  0  0
  1  2  1  0
  2  3  2  0
  2  4  1  0
  4  5  1  0
  5  6  2  0
  5  7  1  0
  7  8  1  0
  8  9  1  0
  9 10  1  0
 10 11  2  0
 10 12  1  0
  9 13  1  0
  5 14  1  0
  1 15  1  0
  4 16  1  0
  4 17  1  0
  7 18  1  0
  7 19  1  0
  8 20  1  0
  8 21  1  0
  9 22  1  1
 12 23  1  0
 13 24  1  0
 13 25  1  0
 14 26  1  0
M  END
>  <Ligand ID>  (1) 
LIG0000789

>  <Ligand>  (1) 
CHEMBL1089852

>  <SMILES>  (1) 
OC(=O)CP(=O)(CC[C@@H](C(=O)O)N)O

>  <CID>  (1) 
24779944.0

>  <ChEMBL ID>  (1) 
nan

>  <InChiKey>  (1) 
QNZCMPXFRMGKRU-BYPYZUCNSA-N

>  <InChi>  (1) 
InChI=1S/C6H12NO6P/c7-4(6(10)11)1-2-14(12,13)3-5(8)9/h4H,1-3,7H2,(H,8,9)(H,10,11)(H,12,13)/t4-/m0/s1

>  <IUPAC Name>  (1) 
(2S)-2-amino-4-[carboxymethyl(hydroxy)phosphoryl]butanoic acid

$$$$
