
     RDKit          3D

 54 56  0  0  0  0  0  0  0  0999 V2000
   -3.4230    0.1679    2.9206 O   0  0  0  0  0  0  0  0  0  0  0  0
   -2.9221   -0.2034    1.6986 C   0  0  0  0  0  0  0  0  0  0  0  0
   -2.5649    0.9753    0.8224 C   0  0  0  0  0  0  0  0  0  0  0  0
   -3.6994    1.8541    0.5238 C   0  0  0  0  0  0  0  0  0  0  0  0
   -4.0530    2.9406    1.3097 C   0  0  0  0  0  0  0  0  0  0  0  0
   -5.1489    3.7010    0.9256 C   0  0  0  0  0  0  0  0  0  0  0  0
   -5.8855    3.4068   -0.2036 C   0  0  0  0  0  0  0  0  0  0  0  0
   -5.5382    2.3262   -0.9901 C   0  0  0  0  0  0  0  0  0  0  0  0
   -4.4489    1.5629   -0.6164 C   0  0  0  0  0  0  0  0  0  0  0  0
   -6.4260    1.8896   -2.4396 Cl  0  0  0  0  0  0  0  0  0  0  0  0
   -1.7143   -1.0712    1.8091 C   0  0  0  0  0  0  0  0  0  0  0  0
   -1.2222   -1.5858    0.6859 C   0  0  0  0  0  0  0  0  0  0  0  0
   -0.0232   -2.4675    0.6478 C   0  0  1  0  0  0  0  0  0  0  0  0
   -0.4052   -3.6456   -0.2137 C   0  0  0  0  0  0  0  0  0  0  0  0
   -0.4897   -3.0081   -1.5805 C   0  0  0  0  0  0  0  0  0  0  0  0
    0.1866   -1.6875   -1.4934 C   0  0  0  0  0  0  0  0  0  0  0  0
    0.0822   -0.7729   -2.2834 O   0  0  0  0  0  0  0  0  0  0  0  0
    1.0031   -1.7646   -0.2272 C   0  0  2  0  0  0  0  0  0  0  0  0
    2.2570   -2.5436   -0.4389 C   0  0  0  0  0  0  0  0  0  0  0  0
    3.2611   -1.8206   -1.2987 C   0  0  0  0  0  0  0  0  0  0  0  0
    3.6922   -0.5341   -0.7049 C   0  0  0  0  0  0  0  0  0  0  0  0
    4.7924   -0.5849    0.1483 C   0  0  0  0  0  0  0  0  0  0  0  0
    5.3001    0.5339    0.7660 C   0  0  0  0  0  0  0  0  0  0  0  0
    4.7023    1.7333    0.5322 C   0  0  0  0  0  0  0  0  0  0  0  0
    3.6174    1.7901   -0.3079 C   0  0  0  0  0  0  0  0  0  0  0  0
    3.0957    0.6738   -0.9361 C   0  0  0  0  0  0  0  0  0  0  0  0
    5.2131    2.9540    1.1724 C   0  0  0  0  0  0  0  0  0  0  0  0
    4.6859    4.0764    0.9788 O   0  0  0  0  0  0  0  0  0  0  0  0
    6.2989    2.8862    2.0110 O   0  0  0  0  0  0  0  0  0  0  0  0
   -4.3396   -0.1377    3.0989 H   0  0  0  0  0  0  0  0  0  0  0  0
   -3.6558   -0.8028    1.1110 H   0  0  0  0  0  0  0  0  0  0  0  0
   -2.1374    0.5986   -0.1291 H   0  0  0  0  0  0  0  0  0  0  0  0
   -1.7168    1.5234    1.3189 H   0  0  0  0  0  0  0  0  0  0  0  0
   -3.4795    3.1723    2.1916 H   0  0  0  0  0  0  0  0  0  0  0  0
   -5.4674    4.5620    1.5061 H   0  0  0  0  0  0  0  0  0  0  0  0
   -6.7440    3.9813   -0.5274 H   0  0  0  0  0  0  0  0  0  0  0  0
   -4.1881    0.7110   -1.2505 H   0  0  0  0  0  0  0  0  0  0  0  0
   -1.2223   -1.3041    2.7287 H   0  0  0  0  0  0  0  0  0  0  0  0
   -1.6847   -1.3833   -0.2979 H   0  0  0  0  0  0  0  0  0  0  0  0
    0.3451   -2.7438    1.6349 H   0  0  0  0  0  0  0  0  0  0  0  0
   -1.4054   -4.0497    0.0955 H   0  0  0  0  0  0  0  0  0  0  0  0
    0.3600   -4.4565   -0.2179 H   0  0  0  0  0  0  0  0  0  0  0  0
   -1.5814   -2.8317   -1.7973 H   0  0  0  0  0  0  0  0  0  0  0  0
   -0.0567   -3.6506   -2.3729 H   0  0  0  0  0  0  0  0  0  0  0  0
    1.1618   -0.7793    0.2216 H   0  0  0  0  0  0  0  0  0  0  0  0
    2.1002   -3.5799   -0.7514 H   0  0  0  0  0  0  0  0  0  0  0  0
    2.7449   -2.6221    0.5780 H   0  0  0  0  0  0  0  0  0  0  0  0
    4.1270   -2.4791   -1.5091 H   0  0  0  0  0  0  0  0  0  0  0  0
    2.8476   -1.5690   -2.3053 H   0  0  0  0  0  0  0  0  0  0  0  0
    5.2851   -1.5268    0.3501 H   0  0  0  0  0  0  0  0  0  0  0  0
    6.1717    0.4263    1.4287 H   0  0  0  0  0  0  0  0  0  0  0  0
    3.1489    2.7635   -0.4846 H   0  0  0  0  0  0  0  0  0  0  0  0
    2.2498    0.7301   -1.5909 H   0  0  0  0  0  0  0  0  0  0  0  0
    6.9140    3.6657    2.2053 H   0  0  0  0  0  0  0  0  0  0  0  0
  1  2  1  0
  2  3  1  0
  3  4  1  0
  4  5  2  0
  5  6  1  0
  6  7  2  0
  7  8  1  0
  8  9  2  0
  8 10  1  0
  2 11  1  0
 11 12  2  0
 12 13  1  0
 13 14  1  0
 14 15  1  0
 15 16  1  0
 16 17  2  0
 16 18  1  0
 18 19  1  0
 19 20  1  0
 20 21  1  0
 21 22  2  0
 22 23  1  0
 23 24  2  0
 24 25  1  0
 25 26  2  0
 24 27  1  0
 27 28  2  0
 27 29  1  0
  9  4  1  0
 18 13  1  0
 26 21  1  0
  1 30  1  0
  2 31  1  0
  3 32  1  0
  3 33  1  0
  5 34  1  0
  6 35  1  0
  7 36  1  0
  9 37  1  0
 11 38  1  0
 12 39  1  0
 13 40  1  1
 14 41  1  0
 14 42  1  0
 15 43  1  0
 15 44  1  0
 18 45  1  1
 19 46  1  0
 19 47  1  0
 20 48  1  0
 20 49  1  0
 22 50  1  0
 23 51  1  0
 25 52  1  0
 26 53  1  0
 29 54  1  0
M  END
>  <Ligand ID>  (1) 
LIG0002919

>  <Ligand>  (1) 
CHEMBL3902700

>  <SMILES>  (1) 
OC(Cc1cccc(c1)Cl)/C=C/[C@H]1CCC(=O)[C@@H]1CCc1ccc(cc1)C(=O)O

>  <CID>  (1) 
118517360.0

>  <ChEMBL ID>  (1) 
nan

>  <InChiKey>  (1) 
YQAHEMJLXLEJPE-FSKZSRKQSA-N

>  <InChi>  (1) 
InChI=1S/C24H25ClO4/c25-20-3-1-2-17(14-20)15-21(26)11-9-18-10-13-23(27)22(18)12-6-16-4-7-19(8-5-16)24(28)29/h1-5,7-9,11,14,18,21-22,26H,6,10,12-13,15H2,(H,28,29)/b11-9+/t18-,21?,22+/m0/s1

>  <IUPAC Name>  (1) 
4-[2-[(1R,2R)-2-[(E)-4-(3-chlorophenyl)-3-hydroxybut-1-enyl]-5-oxocyclopentyl]ethyl]benzoic acid

$$$$
