
     RDKit          3D

143145  0  0  0  0  0  0  0  0999 V2000
   -6.0640   -2.4189    4.2065 C   0  0  0  0  0  0  0  0  0  0  0  0
   -5.4378   -1.8534    2.9501 C   0  0  0  0  0  0  0  0  0  0  0  0
   -6.2765   -0.7496    2.3499 C   0  0  1  0  0  0  0  0  0  0  0  0
   -5.6310   -0.2311    1.1257 C   0  0  2  0  0  0  0  0  0  0  0  0
   -6.4131    0.8651    0.5014 N   0  0  0  0  0  0  0  0  0  0  0  0
   -5.6588    1.8197   -0.1768 C   0  0  0  0  0  0  0  0  0  0  0  0
   -4.3968    1.4916   -0.2590 O   0  0  0  0  0  0  0  0  0  0  0  0
   -5.9233    3.1081   -0.8316 C   0  0  1  0  0  0  0  0  0  0  0  0
   -4.5841    3.5322   -1.3723 N   0  0  0  0  0  0  0  0  0  0  0  0
   -3.6512    4.0067   -0.4292 C   0  0  0  0  0  0  0  0  0  0  0  0
   -4.0422    4.0825    0.7467 O   0  0  0  0  0  0  0  0  0  0  0  0
   -2.2510    4.4178   -0.7124 C   0  0  0  0  0  0  0  0  0  0  0  0
   -1.4981    4.5884    0.5910 C   0  0  0  0  0  0  0  0  0  0  0  0
    0.2026    4.9936    0.3301 S   0  0  0  0  0  0  0  0  0  0  0  0
    1.1802    3.7075   -0.4895 C   0  0  0  0  0  0  0  0  0  0  0  0
    1.1844    2.4781    0.3404 C   0  0  0  0  0  0  0  0  0  0  0  0
    2.0952    1.3514   -0.2623 C   0  0  2  0  0  0  0  0  0  0  0  0
    1.7829    0.2258    0.5659 N   0  0  0  0  0  0  0  0  0  0  0  0
    0.5653   -0.4855    0.2147 C   0  0  0  0  0  0  0  0  0  0  0  0
   -0.0650   -0.0358   -0.7339 O   0  0  0  0  0  0  0  0  0  0  0  0
    0.0568   -1.6820    0.9221 C   0  0  1  0  0  0  0  0  0  0  0  0
   -1.2690   -1.9445    0.3637 N   0  0  0  0  0  0  0  0  0  0  0  0
   -1.9100   -3.0473   -0.1487 C   0  0  0  0  0  0  0  0  0  0  0  0
   -1.3353   -4.0959   -0.3337 O   0  0  0  0  0  0  0  0  0  0  0  0
   -3.3677   -2.9185   -0.5051 C   0  0  1  0  0  0  0  0  0  0  0  0
   -3.9842   -1.8832    0.2892 N   0  0  0  0  0  0  0  0  0  0  0  0
   -5.2449   -1.2678    0.1172 C   0  0  0  0  0  0  0  0  0  0  0  0
   -5.9164   -1.6152   -0.8460 O   0  0  0  0  0  0  0  0  0  0  0  0
   -3.3234   -2.3991   -1.9806 C   0  0  0  0  0  0  0  0  0  0  0  0
   -2.5926   -3.3909   -2.8285 C   0  0  0  0  0  0  0  0  0  0  0  0
   -3.2430   -4.7013   -2.8801 C   0  0  0  0  0  0  0  0  0  0  0  0
   -4.3922   -4.9695   -2.4589 O   0  0  0  0  0  0  0  0  0  0  0  0
   -2.4963   -5.7803   -3.4696 N   0  0  0  0  0  0  0  0  0  0  0  0
    1.0328   -2.8239    0.5560 C   0  0  0  0  0  0  0  0  0  0  0  0
    0.6779   -4.0217    1.3344 C   0  0  0  0  0  0  0  0  0  0  0  0
   -0.1385   -4.0187    2.3101 O   0  0  0  0  0  0  0  0  0  0  0  0
    1.2439   -5.3116    1.0401 N   0  0  0  0  0  0  0  0  0  0  0  0
    3.4352    1.8209   -0.4221 C   0  0  0  0  0  0  0  0  0  0  0  0
    3.6193    2.6163   -1.4524 O   0  0  0  0  0  0  0  0  0  0  0  0
    4.6238    1.6040    0.3203 N   0  0  0  0  0  0  0  0  0  0  0  0
    4.7549    0.7956    1.4998 C   0  0  0  0  0  0  0  0  0  0  0  0
    5.1492   -0.5902    1.3351 C   0  0  0  0  0  0  0  0  0  0  0  0
    5.2215   -1.3268    2.3746 O   0  0  0  0  0  0  0  0  0  0  0  0
    5.4808   -1.2291    0.1072 N   0  0  0  0  0  0  0  0  0  0  0  0
    5.8860   -2.6685    0.0965 C   0  0  2  0  0  0  0  0  0  0  0  0
    7.3670   -2.7382    0.1753 C   0  0  0  0  0  0  0  0  0  0  0  0
    8.0193   -3.8003    0.3268 O   0  0  0  0  0  0  0  0  0  0  0  0
    8.1486   -1.5415    0.0777 N   0  0  0  0  0  0  0  0  0  0  0  0
    9.6057   -1.6873    0.1713 C   0  0  0  0  0  0  0  0  0  0  0  0
   10.2595   -0.3759    0.0540 C   0  0  0  0  0  0  0  0  0  0  0  0
   11.5251   -0.2773    0.1076 O   0  0  0  0  0  0  0  0  0  0  0  0
    9.5577    0.8547   -0.1224 N   0  0  0  0  0  0  0  0  0  0  0  0
    5.2528   -3.2497   -1.0974 C   0  0  0  0  0  0  0  0  0  0  0  0
    5.4739   -4.6829   -1.4240 C   0  0  0  0  0  0  0  0  0  0  0  0
    5.0301   -5.5772   -0.2910 C   0  0  0  0  0  0  0  0  0  0  0  0
    6.8127   -5.0693   -1.9384 C   0  0  0  0  0  0  0  0  0  0  0  0
    5.8323    2.2559   -0.1460 C   0  0  0  0  0  0  0  0  0  0  0  0
    6.1903    3.5672    0.3590 C   0  0  0  0  0  0  0  0  0  0  0  0
    5.2823    4.6973    0.1620 C   0  0  0  0  0  0  0  0  0  0  0  0
    5.2855    5.5106   -0.9457 C   0  0  0  0  0  0  0  0  0  0  0  0
    4.3999    6.5666   -0.9966 C   0  0  0  0  0  0  0  0  0  0  0  0
    3.5029    6.8615    0.0039 C   0  0  0  0  0  0  0  0  0  0  0  0
    3.4998    6.0427    1.1183 C   0  0  0  0  0  0  0  0  0  0  0  0
    4.3765    4.9917    1.1745 C   0  0  0  0  0  0  0  0  0  0  0  0
   -6.9325    3.1560   -1.8920 C   0  0  0  0  0  0  0  0  0  0  0  0
   -8.3013    2.7969   -1.5297 C   0  0  0  0  0  0  0  0  0  0  0  0
   -9.0848    3.8285   -0.9738 C   0  0  0  0  0  0  0  0  0  0  0  0
  -10.4021    3.6024   -0.6330 C   0  0  0  0  0  0  0  0  0  0  0  0
  -11.0109    2.3869   -0.8121 C   0  0  0  0  0  0  0  0  0  0  0  0
  -10.2476    1.3480   -1.3639 C   0  0  0  0  0  0  0  0  0  0  0  0
   -8.9104    1.5879   -1.7065 C   0  0  0  0  0  0  0  0  0  0  0  0
   -7.6876   -1.2456    2.1324 C   0  0  0  0  0  0  0  0  0  0  0  0
   -5.2357   -2.8514    4.8127 H   0  0  0  0  0  0  0  0  0  0  0  0
   -6.7134   -3.3031    3.9713 H   0  0  0  0  0  0  0  0  0  0  0  0
   -6.5518   -1.6538    4.8156 H   0  0  0  0  0  0  0  0  0  0  0  0
   -4.4223   -1.4958    3.2294 H   0  0  0  0  0  0  0  0  0  0  0  0
   -5.3527   -2.6632    2.2017 H   0  0  0  0  0  0  0  0  0  0  0  0
   -6.2701    0.0766    3.1014 H   0  0  0  0  0  0  0  0  0  0  0  0
   -4.6693    0.2433    1.4024 H   0  0  0  0  0  0  0  0  0  0  0  0
   -7.4091    0.9466    0.5526 H   0  0  0  0  0  0  0  0  0  0  0  0
   -6.1765    3.8482   -0.0153 H   0  0  0  0  0  0  0  0  0  0  0  0
   -4.3308    3.5003   -2.3363 H   0  0  0  0  0  0  0  0  0  0  0  0
   -2.2632    5.4119   -1.1998 H   0  0  0  0  0  0  0  0  0  0  0  0
   -1.7786    3.6522   -1.3621 H   0  0  0  0  0  0  0  0  0  0  0  0
   -1.6866    3.7498    1.2893 H   0  0  0  0  0  0  0  0  0  0  0  0
   -1.9775    5.4744    1.0968 H   0  0  0  0  0  0  0  0  0  0  0  0
    0.7839    3.4785   -1.5048 H   0  0  0  0  0  0  0  0  0  0  0  0
    2.2132    4.1147   -0.5396 H   0  0  0  0  0  0  0  0  0  0  0  0
    0.1703    2.0297    0.3159 H   0  0  0  0  0  0  0  0  0  0  0  0
    1.4354    2.6583    1.3914 H   0  0  0  0  0  0  0  0  0  0  0  0
    1.5893    1.2107   -1.2527 H   0  0  0  0  0  0  0  0  0  0  0  0
    2.2522   -0.1817    1.3555 H   0  0  0  0  0  0  0  0  0  0  0  0
    0.0908   -1.6822    1.9999 H   0  0  0  0  0  0  0  0  0  0  0  0
   -1.8484   -1.0377    0.3310 H   0  0  0  0  0  0  0  0  0  0  0  0
   -3.9085   -3.8187   -0.5673 H   0  0  0  0  0  0  0  0  0  0  0  0
   -3.4517   -1.5463    1.1083 H   0  0  0  0  0  0  0  0  0  0  0  0
   -2.9093   -1.3966   -2.0359 H   0  0  0  0  0  0  0  0  0  0  0  0
   -4.3730   -2.4056   -2.3162 H   0  0  0  0  0  0  0  0  0  0  0  0
   -1.5234   -3.4993   -2.5339 H   0  0  0  0  0  0  0  0  0  0  0  0
   -2.5484   -3.0263   -3.8955 H   0  0  0  0  0  0  0  0  0  0  0  0
   -2.8102   -6.7862   -3.3637 H   0  0  0  0  0  0  0  0  0  0  0  0
   -1.6356   -5.6360   -4.0153 H   0  0  0  0  0  0  0  0  0  0  0  0
    2.0307   -2.4876    0.8877 H   0  0  0  0  0  0  0  0  0  0  0  0
    1.0570   -2.9674   -0.5257 H   0  0  0  0  0  0  0  0  0  0  0  0
    2.2700   -5.3978    1.2821 H   0  0  0  0  0  0  0  0  0  0  0  0
    0.6838   -6.0890    0.6272 H   0  0  0  0  0  0  0  0  0  0  0  0
    5.5789    1.3556    2.1059 H   0  0  0  0  0  0  0  0  0  0  0  0
    3.9117    0.8965    2.1903 H   0  0  0  0  0  0  0  0  0  0  0  0
    5.4319   -0.6822   -0.7596 H   0  0  0  0  0  0  0  0  0  0  0  0
    5.5237   -3.1105    1.0503 H   0  0  0  0  0  0  0  0  0  0  0  0
    7.6843   -0.6235   -0.0549 H   0  0  0  0  0  0  0  0  0  0  0  0
    9.8842   -2.1126    1.1616 H   0  0  0  0  0  0  0  0  0  0  0  0
   10.0126   -2.3181   -0.6601 H   0  0  0  0  0  0  0  0  0  0  0  0
    9.7874    1.6639    0.5234 H   0  0  0  0  0  0  0  0  0  0  0  0
    8.8379    0.9443   -0.8719 H   0  0  0  0  0  0  0  0  0  0  0  0
    5.5150   -2.6774   -2.0447 H   0  0  0  0  0  0  0  0  0  0  0  0
    4.1234   -3.0866   -1.0579 H   0  0  0  0  0  0  0  0  0  0  0  0
    4.7392   -4.9433   -2.2824 H   0  0  0  0  0  0  0  0  0  0  0  0
    5.2437   -5.0766    0.6703 H   0  0  0  0  0  0  0  0  0  0  0  0
    3.9384   -5.7335   -0.3768 H   0  0  0  0  0  0  0  0  0  0  0  0
    5.5904   -6.5383   -0.3910 H   0  0  0  0  0  0  0  0  0  0  0  0
    7.4634   -4.2382   -2.2455 H   0  0  0  0  0  0  0  0  0  0  0  0
    6.6830   -5.6650   -2.9016 H   0  0  0  0  0  0  0  0  0  0  0  0
    7.2996   -5.8106   -1.2647 H   0  0  0  0  0  0  0  0  0  0  0  0
    6.6787    1.5559    0.0759 H   0  0  0  0  0  0  0  0  0  0  0  0
    5.7829    2.2657   -1.2550 H   0  0  0  0  0  0  0  0  0  0  0  0
    6.6020    3.5639    1.4205 H   0  0  0  0  0  0  0  0  0  0  0  0
    7.1269    3.8692   -0.2115 H   0  0  0  0  0  0  0  0  0  0  0  0
    5.9635    5.3212   -1.7481 H   0  0  0  0  0  0  0  0  0  0  0  0
    4.3730    7.2412   -1.8644 H   0  0  0  0  0  0  0  0  0  0  0  0
    2.8302    7.7003   -0.0808 H   0  0  0  0  0  0  0  0  0  0  0  0
    2.8159    6.2280    1.9345 H   0  0  0  0  0  0  0  0  0  0  0  0
    4.3303    4.3715    2.0854 H   0  0  0  0  0  0  0  0  0  0  0  0
   -6.9496    4.1636   -2.4142 H   0  0  0  0  0  0  0  0  0  0  0  0
   -6.6050    2.4787   -2.7612 H   0  0  0  0  0  0  0  0  0  0  0  0
   -8.6487    4.8194   -0.8056 H   0  0  0  0  0  0  0  0  0  0  0  0
  -10.9456    4.4546   -0.2057 H   0  0  0  0  0  0  0  0  0  0  0  0
  -12.0450    2.2437   -0.5352 H   0  0  0  0  0  0  0  0  0  0  0  0
  -10.7274    0.4073   -1.4982 H   0  0  0  0  0  0  0  0  0  0  0  0
   -8.3167    0.7838   -2.1326 H   0  0  0  0  0  0  0  0  0  0  0  0
   -8.0740   -1.7546    3.0381 H   0  0  0  0  0  0  0  0  0  0  0  0
   -7.7700   -1.9531    1.3041 H   0  0  0  0  0  0  0  0  0  0  0  0
   -8.3320   -0.3286    2.0111 H   0  0  0  0  0  0  0  0  0  0  0  0
  1  2  1  0
  2  3  1  0
  3  4  1  0
  4  5  1  0
  5  6  1  0
  6  7  2  0
  6  8  1  0
  8  9  1  0
  9 10  1  0
 10 11  2  0
 10 12  1  0
 12 13  1  0
 13 14  1  0
 14 15  1  0
 15 16  1  0
 16 17  1  0
 17 18  1  0
 18 19  1  0
 19 20  2  0
 19 21  1  0
 21 22  1  0
 22 23  1  0
 23 24  2  0
 23 25  1  0
 25 26  1  0
 26 27  1  0
 27 28  2  0
 25 29  1  0
 29 30  1  0
 30 31  1  0
 31 32  2  0
 31 33  1  0
 21 34  1  0
 34 35  1  0
 35 36  2  0
 35 37  1  0
 17 38  1  0
 38 39  2  0
 38 40  1  0
 40 41  1  0
 41 42  1  0
 42 43  2  0
 42 44  1  0
 44 45  1  0
 45 46  1  0
 46 47  2  0
 46 48  1  0
 48 49  1  0
 49 50  1  0
 50 51  2  0
 50 52  1  0
 45 53  1  0
 53 54  1  0
 54 55  1  0
 54 56  1  0
 40 57  1  0
 57 58  1  0
 58 59  1  0
 59 60  2  0
 60 61  1  0
 61 62  2  0
 62 63  1  0
 63 64  2  0
  8 65  1  0
 65 66  1  0
 66 67  2  0
 67 68  1  0
 68 69  2  0
 69 70  1  0
 70 71  2  0
  3 72  1  0
 27  4  1  0
 64 59  1  0
 71 66  1  0
  1 73  1  0
  1 74  1  0
  1 75  1  0
  2 76  1  0
  2 77  1  0
  3 78  1  1
  4 79  1  1
  5 80  1  0
  8 81  1  1
  9 82  1  0
 12 83  1  0
 12 84  1  0
 13 85  1  0
 13 86  1  0
 15 87  1  0
 15 88  1  0
 16 89  1  0
 16 90  1  0
 17 91  1  6
 18 92  1  0
 21 93  1  1
 22 94  1  0
 25 95  1  6
 26 96  1  0
 29 97  1  0
 29 98  1  0
 30 99  1  0
 30100  1  0
 33101  1  0
 33102  1  0
 34103  1  0
 34104  1  0
 37105  1  0
 37106  1  0
 41107  1  0
 41108  1  0
 44109  1  0
 45110  1  1
 48111  1  0
 49112  1  0
 49113  1  0
 52114  1  0
 52115  1  0
 53116  1  0
 53117  1  0
 54118  1  0
 55119  1  0
 55120  1  0
 55121  1  0
 56122  1  0
 56123  1  0
 56124  1  0
 57125  1  0
 57126  1  0
 58127  1  0
 58128  1  0
 60129  1  0
 61130  1  0
 62131  1  0
 63132  1  0
 64133  1  0
 65134  1  0
 65135  1  0
 67136  1  0
 68137  1  0
 69138  1  0
 70139  1  0
 71140  1  0
 72141  1  0
 72142  1  0
 72143  1  0
M  END
>  <Ligand ID>  (1) 
LIG0001565

>  <Ligand>  (1) 
CHEMBL3354599

>  <SMILES>  (1) 
CC[C@@H]([C@@H]1NC(=O)[C@@H](NC(=O)CCSCC[C@H](NC(=O)[C@@H](NC(=O)[C@@H](NC1=O)CCC(=O)N)CC(=O)N)C(=O)N(CC(=O)N[C@H](C(=O)NCC(=O)N)CC(C)C)CCc1ccccc1)Cc1ccccc1)C

>  <CID>  (1) 
118720287.0

>  <ChEMBL ID>  (1) 
nan

>  <InChiKey>  (1) 
CDKBANBBMSNGHU-YKEMCRMISA-N

>  <InChi>  (1) 
InChI=1S/C49H71N11O11S/c1-5-30(4)43-48(70)56-33(16-17-38(50)61)45(67)58-37(26-39(51)62)46(68)57-34(19-22-72-23-20-41(64)54-36(47(69)59-43)25-32-14-10-7-11-15-32)49(71)60(21-18-31-12-8-6-9-13-31)28-42(65)55-35(24-29(2)3)44(66)53-27-40(52)63/h6-15,29-30,33-37,43H,5,16-28H2,1-4H3,(H2,50,61)(H2,51,62)(H2,52,63)(H,53,66)(H,54,64)(H,55,65)(H,56,70)(H,57,68)(H,58,67)(H,59,69)/t30-,33-,34-,35-,36-,37-,43-/m0/s1

>  <IUPAC Name>  (1) 
(4S,7S,10S,13S,16S)-7-(2-amino-2-oxoethyl)-N-[2-[[(2S)-1-[(2-amino-2-oxoethyl)amino]-4-methyl-1-oxopentan-2-yl]amino]-2-oxoethyl]-10-(3-amino-3-oxopropyl)-16-benzyl-13-[(2S)-butan-2-yl]-6,9,12,15,18-pentaoxo-N-(2-phenylethyl)-1-thia-5,8,11,14,17-pentazacycloicosane-4-carboxamide

$$$$
