
     RDKit          3D

 51 53  0  0  0  0  0  0  0  0999 V2000
   -1.3764    1.4637    1.9421 C   0  0  0  0  0  0  0  0  0  0  0  0
   -1.2916    0.0747    1.4209 C   0  0  2  0  0  0  0  0  0  0  0  0
    0.1659   -0.3049    1.1593 C   0  0  0  0  0  0  0  0  0  0  0  0
    0.7994    0.5638    0.1909 N   0  0  0  0  0  0  0  0  0  0  0  0
    2.1718    0.2878   -0.1068 C   0  0  0  0  0  0  0  0  0  0  0  0
    2.8148   -0.7686    0.5231 C   0  0  0  0  0  0  0  0  0  0  0  0
    4.1410   -1.0561    0.2583 C   0  0  0  0  0  0  0  0  0  0  0  0
    4.8449   -0.2917   -0.6403 C   0  0  0  0  0  0  0  0  0  0  0  0
    4.2104    0.7557   -1.2661 C   0  0  0  0  0  0  0  0  0  0  0  0
    2.8764    1.0670   -1.0180 C   0  0  0  0  0  0  0  0  0  0  0  0
    6.2388   -0.5652   -0.9393 C   0  0  0  0  0  0  0  0  0  0  0  0
    6.9665   -1.6952   -0.2734 C   0  0  0  0  0  0  0  0  0  0  0  0
    8.5914   -1.6225   -0.9439 S   0  0  0  0  0  0  0  0  0  0  0  0
    8.1842   -0.1205   -2.0394 C   0  0  0  0  0  0  0  0  0  0  0  0
    7.0309    0.0511   -1.7490 N   0  0  0  0  0  0  0  0  0  0  0  0
    9.2604    0.3942   -2.8715 C   0  0  0  0  0  0  0  0  0  0  0  0
   10.4052   -0.0921   -2.8968 O   0  0  0  0  0  0  0  0  0  0  0  0
    8.9832    1.4799   -3.6706 O   0  0  0  0  0  0  0  0  0  0  0  0
   -2.0407   -0.3198    0.3271 N   0  0  0  0  0  0  0  0  0  0  0  0
   -3.3980   -0.5972    0.3095 C   0  0  0  0  0  0  0  0  0  0  0  0
   -4.2832    0.5905    0.5172 C   0  0  1  0  0  0  0  0  0  0  0  0
   -5.7118    0.1940    0.2807 C   0  0  0  0  0  0  0  0  0  0  0  0
   -6.3543    0.3569   -0.9054 C   0  0  0  0  0  0  0  0  0  0  0  0
   -7.6857   -0.0530   -1.0000 C   0  0  0  0  0  0  0  0  0  0  0  0
   -8.3480   -0.6140    0.0819 C   0  0  0  0  0  0  0  0  0  0  0  0
   -7.6858   -0.7792    1.2965 C   0  0  0  0  0  0  0  0  0  0  0  0
   -6.3647   -0.3650    1.3664 C   0  0  0  0  0  0  0  0  0  0  0  0
   -8.4510   -1.4764    2.6996 Cl  0  0  0  0  0  0  0  0  0  0  0  0
   -4.1806    1.2386    1.7104 O   0  0  0  0  0  0  0  0  0  0  0  0
   -1.8441    1.5573    2.9218 H   0  0  0  0  0  0  0  0  0  0  0  0
   -0.2920    1.7755    2.1526 H   0  0  0  0  0  0  0  0  0  0  0  0
   -1.7549    2.2039    1.2124 H   0  0  0  0  0  0  0  0  0  0  0  0
   -1.6034   -0.5996    2.2964 H   0  0  0  0  0  0  0  0  0  0  0  0
    0.6672   -0.2078    2.1566 H   0  0  0  0  0  0  0  0  0  0  0  0
    0.2625   -1.3765    0.8936 H   0  0  0  0  0  0  0  0  0  0  0  0
    0.3246    1.3562   -0.2880 H   0  0  0  0  0  0  0  0  0  0  0  0
    2.2749   -1.3848    1.2367 H   0  0  0  0  0  0  0  0  0  0  0  0
    4.5697   -1.8885    0.7841 H   0  0  0  0  0  0  0  0  0  0  0  0
    4.7941    1.3545   -1.9824 H   0  0  0  0  0  0  0  0  0  0  0  0
    2.4076    1.8829   -1.5160 H   0  0  0  0  0  0  0  0  0  0  0  0
    6.5089   -2.3419    0.4354 H   0  0  0  0  0  0  0  0  0  0  0  0
    9.6888    2.0805   -4.0944 H   0  0  0  0  0  0  0  0  0  0  0  0
   -1.5153   -1.0375   -0.2505 H   0  0  0  0  0  0  0  0  0  0  0  0
   -3.7021   -1.4489    0.9929 H   0  0  0  0  0  0  0  0  0  0  0  0
   -3.7204   -1.0213   -0.7067 H   0  0  0  0  0  0  0  0  0  0  0  0
   -4.0730    1.3183   -0.3234 H   0  0  0  0  0  0  0  0  0  0  0  0
   -5.8269    0.7972   -1.7465 H   0  0  0  0  0  0  0  0  0  0  0  0
   -8.2306    0.0642   -1.9406 H   0  0  0  0  0  0  0  0  0  0  0  0
   -9.3942   -0.9384    0.0146 H   0  0  0  0  0  0  0  0  0  0  0  0
   -5.8514   -0.4977    2.3193 H   0  0  0  0  0  0  0  0  0  0  0  0
   -4.2031    2.2339    1.6691 H   0  0  0  0  0  0  0  0  0  0  0  0
  1  2  1  0
  2  3  1  0
  3  4  1  0
  4  5  1  0
  5  6  2  0
  6  7  1  0
  7  8  2  0
  8  9  1  0
  9 10  2  0
  8 11  1  0
 11 12  2  0
 12 13  1  0
 13 14  1  0
 14 15  2  0
 14 16  1  0
 16 17  2  0
 16 18  1  0
  2 19  1  0
 19 20  1  0
 20 21  1  0
 21 22  1  0
 22 23  2  0
 23 24  1  0
 24 25  2  0
 25 26  1  0
 26 27  2  0
 26 28  1  0
 21 29  1  0
 10  5  1  0
 15 11  1  0
 27 22  1  0
  1 30  1  0
  1 31  1  0
  1 32  1  0
  2 33  1  1
  3 34  1  0
  3 35  1  0
  4 36  1  0
  6 37  1  0
  7 38  1  0
  9 39  1  0
 10 40  1  0
 12 41  1  0
 18 42  1  0
 19 43  1  0
 20 44  1  0
 20 45  1  0
 21 46  1  6
 23 47  1  0
 24 48  1  0
 25 49  1  0
 27 50  1  0
 29 51  1  0
M  END
>  <Ligand ID>  (1) 
LIG0002239

>  <Ligand>  (1) 
CHEMBL247518

>  <SMILES>  (1) 
C[C@H](CNc1ccc(cc1)c1csc(n1)C(=O)O)NC[C@@H](c1cccc(c1)Cl)O

>  <CID>  (1) 
44441230.0

>  <ChEMBL ID>  (1) 
nan

>  <InChiKey>  (1) 
UYRYOCHWTZIQOM-YJYMSZOUSA-N

>  <InChi>  (1) 
InChI=1S/C21H22ClN3O3S/c1-13(23-11-19(26)15-3-2-4-16(22)9-15)10-24-17-7-5-14(6-8-17)18-12-29-20(25-18)21(27)28/h2-9,12-13,19,23-24,26H,10-11H2,1H3,(H,27,28)/t13-,19+/m1/s1

>  <IUPAC Name>  (1) 
4-[4-[[(2R)-2-[[(2R)-2-(3-chlorophenyl)-2-hydroxyethyl]amino]propyl]amino]phenyl]-1,3-thiazole-2-carboxylic acid

$$$$
