
     RDKit          3D

 82 85  0  0  0  0  0  0  0  0999 V2000
   -8.6650    0.6123   -5.2540 C   0  0  0  0  0  0  0  0  0  0  0  0
   -9.4548    0.3448   -4.2546 C   0  0  0  0  0  0  0  0  0  0  0  0
   -9.1699   -0.2237   -2.9372 C   0  0  0  0  0  0  0  0  0  0  0  0
   -7.7653   -0.5235   -2.7224 C   0  0  0  0  0  0  0  0  0  0  0  0
   -6.7950   -0.3462   -3.4796 O   0  0  0  0  0  0  0  0  0  0  0  0
   -7.4252   -1.1195   -1.4382 N   0  0  0  0  0  0  0  0  0  0  0  0
   -6.0263   -1.4530   -1.1402 C   0  0  0  0  0  0  0  0  0  0  0  0
   -5.9397   -2.0521    0.2313 C   0  0  0  0  0  0  0  0  0  0  0  0
   -6.4158   -1.1570    1.3144 C   0  0  0  0  0  0  0  0  0  0  0  0
   -7.6922   -1.3452    1.8457 C   0  0  0  0  0  0  0  0  0  0  0  0
   -8.2090   -0.5428    2.8369 C   0  0  0  0  0  0  0  0  0  0  0  0
   -7.4462    0.4733    3.3178 C   0  0  0  0  0  0  0  0  0  0  0  0
   -6.1943    0.6635    2.8025 C   0  0  0  0  0  0  0  0  0  0  0  0
   -5.6467   -0.1154    1.8156 C   0  0  0  0  0  0  0  0  0  0  0  0
   -4.3735    0.1255    1.3439 C   0  0  0  0  0  0  0  0  0  0  0  0
   -3.5985    1.1395    1.8263 C   0  0  0  0  0  0  0  0  0  0  0  0
   -2.3393    1.4800    1.4539 O   0  0  0  0  0  0  0  0  0  0  0  0
   -1.4313    0.9950    0.5596 C   0  0  0  0  0  0  0  0  0  0  0  0
   -0.9664   -0.3989    0.8098 C   0  0  0  0  0  0  0  0  0  0  0  0
   -0.3294   -0.4440    2.1711 C   0  0  0  0  0  0  0  0  0  0  0  0
    0.8475    0.4824    2.3017 C   0  0  0  0  0  0  0  0  0  0  0  0
    1.8127    0.0766    1.3205 O   0  0  0  0  0  0  0  0  0  0  0  0
    3.0264    0.7779    1.2180 C   0  0  0  0  0  0  0  0  0  0  0  0
    3.2274    1.8314    2.0754 C   0  0  0  0  0  0  0  0  0  0  0  0
    4.3952    2.5682    2.0344 C   0  0  0  0  0  0  0  0  0  0  0  0
    5.3415    2.1801    1.0823 C   0  0  0  0  0  0  0  0  0  0  0  0
    5.1277    1.1215    0.2286 C   0  0  0  0  0  0  0  0  0  0  0  0
    3.9575    0.3929    0.2782 C   0  0  0  0  0  0  0  0  0  0  0  0
    6.0849    0.7758   -0.6995 C   0  0  0  0  0  0  0  0  0  0  0  0
    5.9844   -0.3374   -1.6441 C   0  0  0  0  0  0  0  0  0  0  0  0
    6.2753   -1.6940   -1.0532 C   0  0  0  0  0  0  0  0  0  0  0  0
    7.5942   -1.8239   -0.4968 N   0  0  0  0  0  0  0  0  0  0  0  0
    8.7918   -1.6488   -1.2983 C   0  0  0  0  0  0  0  0  0  0  0  0
    8.5886   -1.3809   -2.4958 O   0  0  0  0  0  0  0  0  0  0  0  0
   10.0651   -1.8073   -0.6055 C   0  0  0  0  0  0  0  0  0  0  0  0
   11.2543   -1.5903   -1.4346 C   0  0  0  0  0  0  0  0  0  0  0  0
   11.3611   -1.2739   -2.6938 C   0  0  0  0  0  0  0  0  0  0  0  0
    7.2428    1.5459   -0.7139 C   0  0  0  0  0  0  0  0  0  0  0  0
    7.4609    2.5985    0.1310 C   0  0  0  0  0  0  0  0  0  0  0  0
    6.5001    2.9433    1.0615 C   0  0  0  0  0  0  0  0  0  0  0  0
   -4.1836    1.9246    2.8374 C   0  0  0  0  0  0  0  0  0  0  0  0
   -5.4409    1.6940    3.3102 C   0  0  0  0  0  0  0  0  0  0  0  0
   -7.6043    0.4687   -5.3274 H   0  0  0  0  0  0  0  0  0  0  0  0
   -9.1165    1.0451   -6.1615 H   0  0  0  0  0  0  0  0  0  0  0  0
  -10.5380    0.5884   -4.4232 H   0  0  0  0  0  0  0  0  0  0  0  0
   -9.7646   -1.1702   -2.7533 H   0  0  0  0  0  0  0  0  0  0  0  0
   -9.5525    0.4976   -2.1601 H   0  0  0  0  0  0  0  0  0  0  0  0
   -8.1716   -1.3079   -0.7352 H   0  0  0  0  0  0  0  0  0  0  0  0
   -5.7020   -2.2500   -1.8662 H   0  0  0  0  0  0  0  0  0  0  0  0
   -5.3719   -0.6030   -1.3384 H   0  0  0  0  0  0  0  0  0  0  0  0
   -6.6128   -2.9522    0.2139 H   0  0  0  0  0  0  0  0  0  0  0  0
   -4.9095   -2.4231    0.4227 H   0  0  0  0  0  0  0  0  0  0  0  0
   -8.3456   -2.1474    1.4963 H   0  0  0  0  0  0  0  0  0  0  0  0
   -9.2176   -0.7187    3.2331 H   0  0  0  0  0  0  0  0  0  0  0  0
   -7.8482    1.1044    4.0938 H   0  0  0  0  0  0  0  0  0  0  0  0
   -3.9986   -0.5069    0.5752 H   0  0  0  0  0  0  0  0  0  0  0  0
   -0.5500    1.7116    0.5538 H   0  0  0  0  0  0  0  0  0  0  0  0
   -1.8232    1.0980   -0.4968 H   0  0  0  0  0  0  0  0  0  0  0  0
   -0.2463   -0.6706    0.0033 H   0  0  0  0  0  0  0  0  0  0  0  0
   -1.7782   -1.1117    0.7898 H   0  0  0  0  0  0  0  0  0  0  0  0
    0.0462   -1.4639    2.3640 H   0  0  0  0  0  0  0  0  0  0  0  0
   -1.0837   -0.1168    2.9094 H   0  0  0  0  0  0  0  0  0  0  0  0
    0.6145    1.5492    2.2147 H   0  0  0  0  0  0  0  0  0  0  0  0
    1.3509    0.3577    3.3048 H   0  0  0  0  0  0  0  0  0  0  0  0
    2.4964    2.1280    2.8074 H   0  0  0  0  0  0  0  0  0  0  0  0
    4.5817    3.4023    2.6961 H   0  0  0  0  0  0  0  0  0  0  0  0
    3.7876   -0.4333   -0.3961 H   0  0  0  0  0  0  0  0  0  0  0  0
    4.9484   -0.4157   -2.0944 H   0  0  0  0  0  0  0  0  0  0  0  0
    6.6355   -0.1371   -2.5177 H   0  0  0  0  0  0  0  0  0  0  0  0
    5.5447   -1.9959   -0.2831 H   0  0  0  0  0  0  0  0  0  0  0  0
    6.1140   -2.4393   -1.8886 H   0  0  0  0  0  0  0  0  0  0  0  0
    7.7121   -2.0558    0.5359 H   0  0  0  0  0  0  0  0  0  0  0  0
   10.1271   -2.7836   -0.0470 H   0  0  0  0  0  0  0  0  0  0  0  0
   10.0796   -1.0329    0.2178 H   0  0  0  0  0  0  0  0  0  0  0  0
   12.2259   -1.7189   -0.8896 H   0  0  0  0  0  0  0  0  0  0  0  0
   12.3721   -1.1550   -3.1371 H   0  0  0  0  0  0  0  0  0  0  0  0
   10.5686   -1.1012   -3.4055 H   0  0  0  0  0  0  0  0  0  0  0  0
    8.0241    1.3014   -1.4370 H   0  0  0  0  0  0  0  0  0  0  0  0
    8.4082    3.1500    0.0464 H   0  0  0  0  0  0  0  0  0  0  0  0
    6.6561    3.7597    1.7252 H   0  0  0  0  0  0  0  0  0  0  0  0
   -3.6306    2.7485    3.2697 H   0  0  0  0  0  0  0  0  0  0  0  0
   -5.8588    2.3312    4.1006 H   0  0  0  0  0  0  0  0  0  0  0  0
  1  2  2  0
  2  3  1  0
  3  4  1  0
  4  5  2  0
  4  6  1  0
  6  7  1  0
  7  8  1  0
  8  9  1  0
  9 10  2  0
 10 11  1  0
 11 12  2  0
 12 13  1  0
 13 14  2  0
 14 15  1  0
 15 16  2  0
 16 17  1  0
 17 18  1  0
 18 19  1  0
 19 20  1  0
 20 21  1  0
 21 22  1  0
 22 23  1  0
 23 24  2  0
 24 25  1  0
 25 26  2  0
 26 27  1  0
 27 28  2  0
 27 29  1  0
 29 30  1  0
 30 31  1  0
 31 32  1  0
 32 33  1  0
 33 34  2  0
 33 35  1  0
 35 36  1  0
 36 37  2  0
 29 38  2  0
 38 39  1  0
 39 40  2  0
 16 41  1  0
 41 42  2  0
 14  9  1  0
 28 23  1  0
 42 13  1  0
 40 26  1  0
  1 43  1  0
  1 44  1  0
  2 45  1  0
  3 46  1  0
  3 47  1  0
  6 48  1  0
  7 49  1  0
  7 50  1  0
  8 51  1  0
  8 52  1  0
 10 53  1  0
 11 54  1  0
 12 55  1  0
 15 56  1  0
 18 57  1  0
 18 58  1  0
 19 59  1  0
 19 60  1  0
 20 61  1  0
 20 62  1  0
 21 63  1  0
 21 64  1  0
 24 65  1  0
 25 66  1  0
 28 67  1  0
 30 68  1  0
 30 69  1  0
 31 70  1  0
 31 71  1  0
 32 72  1  0
 35 73  1  0
 35 74  1  0
 36 75  1  0
 37 76  1  0
 37 77  1  0
 38 78  1  0
 39 79  1  0
 40 80  1  0
 41 81  1  0
 42 82  1  0
M  END
>  <Ligand ID>  (1) 
LIG0005613

>  <Ligand>  (1) 
CHEMBL1097315

>  <SMILES>  (1) 
C=CCC(=O)NCCc1cccc2c1cc(OCCCCOc1ccc3c(c1)c(CCNC(=O)CC=C)ccc3)cc2

>  <CID>  (1) 
9937825.0

>  <ChEMBL ID>  (1) 
nan

>  <InChiKey>  (1) 
OLKIGINISJLZQG-UHFFFAOYSA-N

>  <InChi>  (1) 
InChI=1S/C36H40N2O4/c1-3-9-35(39)37-21-19-29-13-7-11-27-15-17-31(25-33(27)29)41-23-5-6-24-42-32-18-16-28-12-8-14-30(34(28)26-32)20-22-38-36(40)10-4-2/h3-4,7-8,11-18,25-26H,1-2,5-6,9-10,19-24H2,(H,37,39)(H,38,40)

>  <IUPAC Name>  (1) 
N-[2-[7-[4-[8-[2-(but-3-enoylamino)ethyl]naphthalen-2-yl]oxybutoxy]naphthalen-1-yl]ethyl]but-3-enamide

$$$$
