
     RDKit          3D

 36 37  0  0  0  0  0  0  0  0999 V2000
   -4.5218    0.4540   -2.1060 N   0  0  0  0  0  0  0  0  0  0  0  0
   -5.0521    0.5776   -0.7777 C   0  0  0  0  0  0  0  0  0  0  0  0
   -4.0465    1.2483    0.1338 C   0  0  0  0  0  0  0  0  0  0  0  0
   -2.8154    0.4207    0.1687 C   0  0  0  0  0  0  0  0  0  0  0  0
   -1.7638    0.5779   -0.7033 C   0  0  0  0  0  0  0  0  0  0  0  0
   -0.6515   -0.2373   -0.6014 C   0  0  0  0  0  0  0  0  0  0  0  0
   -0.5069   -1.2270    0.3349 C   0  0  0  0  0  0  0  0  0  0  0  0
   -1.6072   -1.3638    1.2179 C   0  0  0  0  0  0  0  0  0  0  0  0
   -2.7140   -0.5617    1.1255 C   0  0  0  0  0  0  0  0  0  0  0  0
    0.5108   -2.0686    0.5318 O   0  0  0  0  0  0  0  0  0  0  0  0
    1.7144   -2.2586   -0.0535 C   0  0  0  0  0  0  0  0  0  0  0  0
    2.6389   -1.1222    0.0359 C   0  0  0  0  0  0  0  0  0  0  0  0
    3.3565   -0.9865    1.2321 C   0  0  0  0  0  0  0  0  0  0  0  0
    4.2756    0.0289    1.4103 C   0  0  0  0  0  0  0  0  0  0  0  0
    4.5197    0.9492    0.4103 C   0  0  0  0  0  0  0  0  0  0  0  0
    3.8216    0.8292   -0.7735 C   0  0  0  0  0  0  0  0  0  0  0  0
    2.9053   -0.1957   -0.9310 C   0  0  0  0  0  0  0  0  0  0  0  0
    5.4635    2.0005    0.5795 N   0  0  0  0  0  0  0  0  0  0  0  0
    6.0880    2.0966    1.6568 O   0  0  0  0  0  0  0  0  0  0  0  0
    5.6492    2.8774   -0.4655 O   0  0  0  0  0  0  0  0  0  0  0  0
   -4.2459    1.3497   -2.5315 H   0  0  0  0  0  0  0  0  0  0  0  0
   -5.0181   -0.2156   -2.7022 H   0  0  0  0  0  0  0  0  0  0  0  0
   -5.9717    1.2051   -0.8522 H   0  0  0  0  0  0  0  0  0  0  0  0
   -5.2922   -0.4146   -0.3818 H   0  0  0  0  0  0  0  0  0  0  0  0
   -3.7379    2.2378   -0.2753 H   0  0  0  0  0  0  0  0  0  0  0  0
   -4.4291    1.4237    1.1377 H   0  0  0  0  0  0  0  0  0  0  0  0
   -1.8241    1.3394   -1.4574 H   0  0  0  0  0  0  0  0  0  0  0  0
    0.1259   -0.0756   -1.3128 H   0  0  0  0  0  0  0  0  0  0  0  0
   -1.5999   -2.1128    1.9945 H   0  0  0  0  0  0  0  0  0  0  0  0
   -3.5337   -0.6988    1.8201 H   0  0  0  0  0  0  0  0  0  0  0  0
    1.6278   -2.6172   -1.1259 H   0  0  0  0  0  0  0  0  0  0  0  0
    2.2460   -3.1335    0.4544 H   0  0  0  0  0  0  0  0  0  0  0  0
    3.1941   -1.6868    2.0391 H   0  0  0  0  0  0  0  0  0  0  0  0
    4.8032    0.0818    2.3651 H   0  0  0  0  0  0  0  0  0  0  0  0
    3.9944    1.5379   -1.5734 H   0  0  0  0  0  0  0  0  0  0  0  0
    2.3967   -0.2596   -1.8588 H   0  0  0  0  0  0  0  0  0  0  0  0
  1  2  1  0
  2  3  1  0
  3  4  1  0
  4  5  2  0
  5  6  1  0
  6  7  2  0
  7  8  1  0
  8  9  2  0
  7 10  1  0
 10 11  1  0
 11 12  1  0
 12 13  2  0
 13 14  1  0
 14 15  2  0
 15 16  1  0
 16 17  2  0
 15 18  1  0
 18 19  2  0
 18 20  1  0
  9  4  1  0
 17 12  1  0
  1 21  1  0
  1 22  1  0
  2 23  1  0
  2 24  1  0
  3 25  1  0
  3 26  1  0
  5 27  1  0
  6 28  1  0
  8 29  1  0
  9 30  1  0
 11 31  1  0
 11 32  1  0
 13 33  1  0
 14 34  1  0
 16 35  1  0
 17 36  1  0
M  CHG  2  18   1  20  -1
M  END
>  <Ligand ID>  (1) 
LIG0005933

>  <Ligand>  (1) 
CHEMBL201993

>  <SMILES>  (1) 
NCCc1ccc(cc1)OCc1ccc(cc1)[N+](=O)[O-]

>  <CID>  (1) 
11579920.0

>  <ChEMBL ID>  (1) 
nan

>  <InChiKey>  (1) 
NSJVDMNNZOQWPO-UHFFFAOYSA-N

>  <InChi>  (1) 
InChI=1S/C15H16N2O3/c16-10-9-12-3-7-15(8-4-12)20-11-13-1-5-14(6-2-13)17(18)19/h1-8H,9-11,16H2

>  <IUPAC Name>  (1) 
2-[4-[(4-nitrophenyl)methoxy]phenyl]ethanamine

$$$$
