
     RDKit          3D

 22 22  0  0  0  0  0  0  0  0999 V2000
    1.3668    1.8611    1.3354 O   0  0  0  0  0  0  0  0  0  0  0  0
    2.0088    0.6931    1.0177 C   0  0  0  0  0  0  0  0  0  0  0  0
    2.8193    0.2320    1.8926 O   0  0  0  0  0  0  0  0  0  0  0  0
    1.8101   -0.0382   -0.2604 C   0  0  2  0  0  0  0  0  0  0  0  0
    0.3858   -0.4288   -0.5272 C   0  0  1  0  0  0  0  0  0  0  0  0
   -0.3521   -1.3130    0.4016 C   0  0  0  0  0  0  0  0  0  0  0  0
   -0.7682    0.1378    0.1768 C   0  0  2  0  0  0  0  0  0  0  0  0
   -2.3536    0.2791   -0.7348 P   0  0  0  0  0  0  0  0  0  0  0  0
   -2.3471   -0.6981   -1.8814 O   0  0  0  0  0  0  0  0  0  0  0  0
   -3.6267   -0.1538    0.3200 O   0  0  0  0  0  0  0  0  0  0  0  0
   -2.5219    1.8760   -1.2384 O   0  0  0  0  0  0  0  0  0  0  0  0
    2.6588   -1.2286   -0.2963 N   0  0  0  0  0  0  0  0  0  0  0  0
    1.7570    2.5964    1.9097 H   0  0  0  0  0  0  0  0  0  0  0  0
    2.2014    0.6231   -1.0600 H   0  0  0  0  0  0  0  0  0  0  0  0
    0.1997   -0.6722   -1.6127 H   0  0  0  0  0  0  0  0  0  0  0  0
    0.0143   -1.5326    1.4182 H   0  0  0  0  0  0  0  0  0  0  0  0
   -0.9950   -2.1301    0.0089 H   0  0  0  0  0  0  0  0  0  0  0  0
   -0.6941    0.8192    1.0479 H   0  0  0  0  0  0  0  0  0  0  0  0
   -4.4347   -0.3823   -0.1999 H   0  0  0  0  0  0  0  0  0  0  0  0
   -3.1052    2.3793   -0.5974 H   0  0  0  0  0  0  0  0  0  0  0  0
    3.6378   -0.9358   -0.0760 H   0  0  0  0  0  0  0  0  0  0  0  0
    2.3388   -1.9838    0.3191 H   0  0  0  0  0  0  0  0  0  0  0  0
  1  2  1  0
  2  3  2  0
  2  4  1  0
  4  5  1  0
  5  6  1  0
  6  7  1  0
  7  8  1  0
  8  9  2  0
  8 10  1  0
  8 11  1  0
  4 12  1  0
  7  5  1  0
  1 13  1  0
  4 14  1  6
  5 15  1  6
  6 16  1  0
  6 17  1  0
  7 18  1  1
 10 19  1  0
 11 20  1  0
 12 21  1  0
 12 22  1  0
M  END
>  <Ligand ID>  (1) 
LIG0000652

>  <Ligand>  (1) 
CHEMBL197976

>  <SMILES>  (1) 
OC(=O)[C@H]([C@H]1C[C@@H]1P(=O)(O)O)N

>  <CID>  (1) 
44406220.0

>  <ChEMBL ID>  (1) 
nan

>  <InChiKey>  (1) 
KZOMBNQLBSHMFV-HZLVTQRSSA-N

>  <InChi>  (1) 
InChI=1S/C5H10NO5P/c6-4(5(7)8)2-1-3(2)12(9,10)11/h2-4H,1,6H2,(H,7,8)(H2,9,10,11)/t2-,3-,4-/m0/s1

>  <IUPAC Name>  (1) 
(2S)-2-amino-2-[(1R,2S)-2-phosphonocyclopropyl]acetic acid

$$$$
