
     RDKit          3D

 58 59  0  0  0  0  0  0  0  0999 V2000
    9.1225   -0.4041   -0.5968 O   0  0  0  0  0  0  0  0  0  0  0  0
    9.4644    0.6597    0.2160 C   0  0  0  0  0  0  0  0  0  0  0  0
   10.5292    1.3192   -0.0311 O   0  0  0  0  0  0  0  0  0  0  0  0
    8.6493    1.0907    1.3920 C   0  0  0  0  0  0  0  0  0  0  0  0
    7.4807    0.3143    1.5090 O   0  0  0  0  0  0  0  0  0  0  0  0
    6.4948    0.2517    0.5466 C   0  0  0  0  0  0  0  0  0  0  0  0
    6.4969    0.9314   -0.6429 C   0  0  0  0  0  0  0  0  0  0  0  0
    5.4528    0.8142   -1.5682 C   0  0  0  0  0  0  0  0  0  0  0  0
    4.3823   -0.0146   -1.2786 C   0  0  0  0  0  0  0  0  0  0  0  0
    4.3603   -0.7165   -0.0691 C   0  0  0  0  0  0  0  0  0  0  0  0
    5.4074   -0.5809    0.8269 C   0  0  0  0  0  0  0  0  0  0  0  0
    3.2981   -0.2326   -2.1657 N   0  0  0  0  0  0  0  0  0  0  0  0
    1.9730   -0.4172   -1.6784 C   0  0  0  0  0  0  0  0  0  0  0  0
    1.0209   -1.1743   -2.3237 C   0  0  0  0  0  0  0  0  0  0  0  0
   -0.2659   -1.2653   -1.7851 C   0  0  0  0  0  0  0  0  0  0  0  0
   -0.5477   -0.5891   -0.6104 C   0  0  0  0  0  0  0  0  0  0  0  0
    0.3910    0.1778    0.0559 C   0  0  0  0  0  0  0  0  0  0  0  0
    1.6471    0.2448   -0.5046 C   0  0  0  0  0  0  0  0  0  0  0  0
   -1.9535   -0.7398   -0.0679 C   0  0  0  0  0  0  0  0  0  0  0  0
   -2.7616    0.2795   -0.8182 C   0  0  0  0  0  0  0  0  0  0  0  0
   -4.1676    0.3187   -0.4399 N   0  0  0  0  0  0  0  0  0  0  0  0
   -4.8681   -0.8669   -0.7964 C   0  0  0  0  0  0  0  0  0  0  0  0
   -6.3426   -0.7115   -0.5941 C   0  0  1  0  0  0  0  0  0  0  0  0
   -6.6731   -0.2600    0.7714 C   0  0  0  0  0  0  0  0  0  0  0  0
   -6.5425    1.0430    1.1995 C   0  0  0  0  0  0  0  0  0  0  0  0
   -6.8758    1.4518    2.4911 C   0  0  0  0  0  0  0  0  0  0  0  0
   -7.3643    0.5127    3.3950 C   0  0  0  0  0  0  0  0  0  0  0  0
   -7.5037   -0.8012    2.9879 C   0  0  0  0  0  0  0  0  0  0  0  0
   -7.1647   -1.1882    1.6946 C   0  0  0  0  0  0  0  0  0  0  0  0
   -8.1272   -1.9353    4.1669 Cl  0  0  0  0  0  0  0  0  0  0  0  0
   -6.7910    0.3153   -1.4562 O   0  0  0  0  0  0  0  0  0  0  0  0
    0.6832    0.0000    0.0000 Cl  0  0  0  0  0  0  0  0  0  0  0  0
    9.7591   -0.8527   -1.2284 H   0  0  0  0  0  0  0  0  0  0  0  0
    9.2917    0.9061    2.2869 H   0  0  0  0  0  0  0  0  0  0  0  0
    8.4100    2.1747    1.3202 H   0  0  0  0  0  0  0  0  0  0  0  0
    7.3295    1.5909   -0.8689 H   0  0  0  0  0  0  0  0  0  0  0  0
    5.4739    1.3557   -2.5028 H   0  0  0  0  0  0  0  0  0  0  0  0
    3.5273   -1.3798    0.1865 H   0  0  0  0  0  0  0  0  0  0  0  0
    5.3714   -1.1475    1.7722 H   0  0  0  0  0  0  0  0  0  0  0  0
    3.4547   -0.2620   -3.1980 H   0  0  0  0  0  0  0  0  0  0  0  0
    1.2676   -1.6945   -3.2477 H   0  0  0  0  0  0  0  0  0  0  0  0
   -1.0131   -1.8693   -2.3077 H   0  0  0  0  0  0  0  0  0  0  0  0
    0.1427    0.6950    0.9683 H   0  0  0  0  0  0  0  0  0  0  0  0
    2.3693    0.8586    0.0454 H   0  0  0  0  0  0  0  0  0  0  0  0
   -1.8858   -0.4656    1.0085 H   0  0  0  0  0  0  0  0  0  0  0  0
   -2.3406   -1.7519   -0.2632 H   0  0  0  0  0  0  0  0  0  0  0  0
   -2.7515   -0.0031   -1.9129 H   0  0  0  0  0  0  0  0  0  0  0  0
   -2.3822    1.3018   -0.7673 H   0  0  0  0  0  0  0  0  0  0  0  0
   -4.2437    0.5372    0.5952 H   0  0  0  0  0  0  0  0  0  0  0  0
   -4.6568   -1.0557   -1.8824 H   0  0  0  0  0  0  0  0  0  0  0  0
   -4.5484   -1.7602   -0.2059 H   0  0  0  0  0  0  0  0  0  0  0  0
   -6.8950   -1.6635   -0.8281 H   0  0  0  0  0  0  0  0  0  0  0  0
   -6.1859    1.8238    0.5476 H   0  0  0  0  0  0  0  0  0  0  0  0
   -6.7718    2.4812    2.8140 H   0  0  0  0  0  0  0  0  0  0  0  0
   -7.6201    0.8563    4.3931 H   0  0  0  0  0  0  0  0  0  0  0  0
   -7.2942   -2.2174    1.4273 H   0  0  0  0  0  0  0  0  0  0  0  0
   -6.0293    0.6985   -1.9778 H   0  0  0  0  0  0  0  0  0  0  0  0
   -0.6832    0.0000    0.0000 H   0  0  0  0  0  0  0  0  0  0  0  0
  1  2  1  0
  2  3  2  0
  2  4  1  0
  4  5  1  0
  5  6  1  0
  6  7  2  0
  7  8  1  0
  8  9  2  0
  9 10  1  0
 10 11  2  0
  9 12  1  0
 12 13  1  0
 13 14  2  0
 14 15  1  0
 15 16  2  0
 16 17  1  0
 17 18  2  0
 16 19  1  0
 19 20  1  0
 20 21  1  0
 21 22  1  0
 22 23  1  0
 23 24  1  0
 24 25  2  0
 25 26  1  0
 26 27  2  0
 27 28  1  0
 28 29  2  0
 28 30  1  0
 23 31  1  0
 11  6  1  0
 18 13  1  0
 29 24  1  0
  1 33  1  0
  4 34  1  0
  4 35  1  0
  7 36  1  0
  8 37  1  0
 10 38  1  0
 11 39  1  0
 12 40  1  0
 14 41  1  0
 15 42  1  0
 17 43  1  0
 18 44  1  0
 19 45  1  0
 19 46  1  0
 20 47  1  0
 20 48  1  0
 21 49  1  0
 22 50  1  0
 22 51  1  0
 23 52  1  6
 25 53  1  0
 26 54  1  0
 27 55  1  0
 29 56  1  0
 31 57  1  0
 32 58  1  0
M  END
>  <Ligand ID>  (1) 
LIG0005829

>  <Ligand>  (1) 
CHEMBL536330

>  <SMILES>  (1) 
OC(=O)COc1ccc(cc1)Nc1ccc(cc1)CCNC[C@@H](c1cccc(c1)Cl)O.Cl

>  <CID>  (1) 
24823465.0

>  <ChEMBL ID>  (1) 
nan

>  <InChiKey>  (1) 
XCYBZELKWUXYJX-BQAIUKQQSA-N

>  <InChi>  (1) 
InChI=1S/C24H25ClN2O4.ClH/c25-19-3-1-2-18(14-19)23(28)15-26-13-12-17-4-6-20(7-5-17)27-21-8-10-22(11-9-21)31-16-24(29)30;/h1-11,14,23,26-28H,12-13,15-16H2,(H,29,30);1H/t23-;/m0./s1

>  <IUPAC Name>  (1) 
2-[4-[4-[2-[[(2R)-2-(3-chlorophenyl)-2-hydroxyethyl]amino]ethyl]anilino]phenoxy]acetic acid;hydrochloride

$$$$
