
     RDKit          3D

 78 81  0  0  0  0  0  0  0  0999 V2000
   -9.2352   -0.0625    1.9559 O   0  0  0  0  0  0  0  0  0  0  0  0
   -8.0388   -0.2344    1.3084 C   0  0  0  0  0  0  0  0  0  0  0  0
   -7.3543   -1.2678    1.5941 O   0  0  0  0  0  0  0  0  0  0  0  0
   -7.4627    0.6788    0.3018 C   0  0  1  0  0  0  0  0  0  0  0  0
   -6.1452    0.1351   -0.0287 N   0  0  0  0  0  0  0  0  0  0  0  0
   -4.9401    0.8249    0.2140 C   0  0  0  0  0  0  0  0  0  0  0  0
   -5.0158    1.9758    0.7476 O   0  0  0  0  0  0  0  0  0  0  0  0
   -3.6464    0.2509   -0.1300 C   0  0  0  0  0  0  0  0  0  0  0  0
   -3.4862   -0.9837   -0.7135 C   0  0  0  0  0  0  0  0  0  0  0  0
   -2.2138   -1.4638   -1.0134 C   0  0  0  0  0  0  0  0  0  0  0  0
   -1.0679   -0.7480   -0.7499 C   0  0  0  0  0  0  0  0  0  0  0  0
   -1.2308    0.4909   -0.1640 C   0  0  0  0  0  0  0  0  0  0  0  0
   -2.4949    0.9691    0.1344 C   0  0  0  0  0  0  0  0  0  0  0  0
    0.2247   -1.2253   -1.0471 N   0  0  0  0  0  0  0  0  0  0  0  0
    0.5197   -2.5304   -1.5912 C   0  0  0  0  0  0  0  0  0  0  0  0
    1.6977   -3.0791   -0.7842 C   0  0  0  0  0  0  0  0  0  0  0  0
    2.9411   -2.2564   -1.1304 C   0  0  0  0  0  0  0  0  0  0  0  0
    2.5335   -0.9030   -1.6454 C   0  0  0  0  0  0  0  0  0  0  0  0
    1.3887   -0.3612   -0.8023 C   0  0  0  0  0  0  0  0  0  0  0  0
    3.8194   -2.1532   -0.0223 N   0  0  0  0  0  0  0  0  0  0  0  0
    5.0783   -1.5710   -0.3318 C   0  0  0  0  0  0  0  0  0  0  0  0
    5.9332   -1.5750    0.9326 C   0  0  1  0  0  0  0  0  0  0  0  0
    7.2815   -1.0693    0.6306 C   0  0  0  0  0  0  0  0  0  0  0  0
    8.3145   -1.9770    0.4753 C   0  0  0  0  0  0  0  0  0  0  0  0
    9.6083   -1.6162    0.1913 C   0  0  0  0  0  0  0  0  0  0  0  0
    9.8876   -0.2785    0.0545 C   0  0  0  0  0  0  0  0  0  0  0  0
    8.8761    0.6540    0.2039 C   0  0  0  0  0  0  0  0  0  0  0  0
    7.5832    0.2670    0.4893 C   0  0  0  0  0  0  0  0  0  0  0  0
    9.2037    2.0251    0.0536 N   0  0  0  0  0  0  0  0  0  0  0  0
    7.9764    3.2321    0.3131 S   0  0  0  0  0  0  0  0  0  0  0  0
    8.5361    4.5996    0.0763 O   0  0  0  0  0  0  0  0  0  0  0  0
    6.8312    2.9820   -0.6073 O   0  0  0  0  0  0  0  0  0  0  0  0
    7.4217    3.1143    1.9830 C   0  0  0  0  0  0  0  0  0  0  0  0
   11.2021    0.0684   -0.2330 O   0  0  0  0  0  0  0  0  0  0  0  0
    5.3307   -0.8415    1.9327 O   0  0  0  0  0  0  0  0  0  0  0  0
   -8.3390    0.7494   -0.8977 C   0  0  0  0  0  0  0  0  0  0  0  0
   -9.6800    1.2403   -0.5387 C   0  0  0  0  0  0  0  0  0  0  0  0
  -10.7529    0.3981   -0.2477 C   0  0  0  0  0  0  0  0  0  0  0  0
  -11.9977    0.8875    0.0930 C   0  0  0  0  0  0  0  0  0  0  0  0
  -12.2370    2.2449    0.1609 C   0  0  0  0  0  0  0  0  0  0  0  0
  -11.1909    3.0969   -0.1235 C   0  0  0  0  0  0  0  0  0  0  0  0
   -9.9456    2.5985   -0.4641 C   0  0  0  0  0  0  0  0  0  0  0  0
   -9.2916   -0.4032    2.9265 H   0  0  0  0  0  0  0  0  0  0  0  0
   -7.3945    1.6801    0.7591 H   0  0  0  0  0  0  0  0  0  0  0  0
   -6.1699   -0.8272   -0.4686 H   0  0  0  0  0  0  0  0  0  0  0  0
   -4.3409   -1.5770   -0.9375 H   0  0  0  0  0  0  0  0  0  0  0  0
   -2.1731   -2.4382   -1.4692 H   0  0  0  0  0  0  0  0  0  0  0  0
   -0.4076    1.1469    0.0929 H   0  0  0  0  0  0  0  0  0  0  0  0
   -2.6224    1.9566    0.6015 H   0  0  0  0  0  0  0  0  0  0  0  0
    0.8554   -2.4330   -2.6400 H   0  0  0  0  0  0  0  0  0  0  0  0
   -0.3302   -3.2423   -1.5362 H   0  0  0  0  0  0  0  0  0  0  0  0
    1.8248   -4.1293   -1.0885 H   0  0  0  0  0  0  0  0  0  0  0  0
    1.4944   -2.9411    0.2956 H   0  0  0  0  0  0  0  0  0  0  0  0
    3.4256   -2.8153   -1.9741 H   0  0  0  0  0  0  0  0  0  0  0  0
    2.2420   -0.9572   -2.7201 H   0  0  0  0  0  0  0  0  0  0  0  0
    3.3856   -0.2158   -1.5992 H   0  0  0  0  0  0  0  0  0  0  0  0
    1.1545    0.6773   -1.1127 H   0  0  0  0  0  0  0  0  0  0  0  0
    1.6814   -0.4553    0.2605 H   0  0  0  0  0  0  0  0  0  0  0  0
    3.8472   -2.9316    0.6429 H   0  0  0  0  0  0  0  0  0  0  0  0
    5.5513   -2.2160   -1.1201 H   0  0  0  0  0  0  0  0  0  0  0  0
    5.0751   -0.5549   -0.7421 H   0  0  0  0  0  0  0  0  0  0  0  0
    5.9845   -2.6425    1.2361 H   0  0  0  0  0  0  0  0  0  0  0  0
    8.0845   -3.0380    0.5855 H   0  0  0  0  0  0  0  0  0  0  0  0
   10.3609   -2.3707    0.0840 H   0  0  0  0  0  0  0  0  0  0  0  0
    6.7680    0.9906    0.6109 H   0  0  0  0  0  0  0  0  0  0  0  0
   10.1511    2.3394   -0.2064 H   0  0  0  0  0  0  0  0  0  0  0  0
    6.3048    3.1003    2.0166 H   0  0  0  0  0  0  0  0  0  0  0  0
    7.7605    4.0052    2.5880 H   0  0  0  0  0  0  0  0  0  0  0  0
    7.8165    2.1862    2.4602 H   0  0  0  0  0  0  0  0  0  0  0  0
   11.8353    0.0287    0.5728 H   0  0  0  0  0  0  0  0  0  0  0  0
    4.9900    0.0333    1.6174 H   0  0  0  0  0  0  0  0  0  0  0  0
   -7.8926    1.4241   -1.6872 H   0  0  0  0  0  0  0  0  0  0  0  0
   -8.4441   -0.2542   -1.3768 H   0  0  0  0  0  0  0  0  0  0  0  0
  -10.6127   -0.6875   -0.2959 H   0  0  0  0  0  0  0  0  0  0  0  0
  -12.8251    0.2032    0.3168 H   0  0  0  0  0  0  0  0  0  0  0  0
  -13.2208    2.5912    0.4304 H   0  0  0  0  0  0  0  0  0  0  0  0
  -11.4033    4.1573   -0.0647 H   0  0  0  0  0  0  0  0  0  0  0  0
   -9.1787    3.3234   -0.6718 H   0  0  0  0  0  0  0  0  0  0  0  0
  1  2  1  0
  2  3  2  0
  2  4  1  0
  4  5  1  0
  5  6  1  0
  6  7  2  0
  6  8  1  0
  8  9  2  0
  9 10  1  0
 10 11  2  0
 11 12  1  0
 12 13  2  0
 11 14  1  0
 14 15  1  0
 15 16  1  0
 16 17  1  0
 17 18  1  0
 18 19  1  0
 17 20  1  0
 20 21  1  0
 21 22  1  0
 22 23  1  0
 23 24  2  0
 24 25  1  0
 25 26  2  0
 26 27  1  0
 27 28  2  0
 27 29  1  0
 29 30  1  0
 30 31  2  0
 30 32  2  0
 30 33  1  0
 26 34  1  0
 22 35  1  0
  4 36  1  0
 36 37  1  0
 37 38  2  0
 38 39  1  0
 39 40  2  0
 40 41  1  0
 41 42  2  0
 13  8  1  0
 19 14  1  0
 28 23  1  0
 42 37  1  0
  1 43  1  0
  4 44  1  1
  5 45  1  0
  9 46  1  0
 10 47  1  0
 12 48  1  0
 13 49  1  0
 15 50  1  0
 15 51  1  0
 16 52  1  0
 16 53  1  0
 17 54  1  0
 18 55  1  0
 18 56  1  0
 19 57  1  0
 19 58  1  0
 20 59  1  0
 21 60  1  0
 21 61  1  0
 22 62  1  1
 24 63  1  0
 25 64  1  0
 28 65  1  0
 29 66  1  0
 33 67  1  0
 33 68  1  0
 33 69  1  0
 34 70  1  0
 35 71  1  0
 36 72  1  0
 36 73  1  0
 38 74  1  0
 39 75  1  0
 40 76  1  0
 41 77  1  0
 42 78  1  0
M  END
>  <Ligand ID>  (1) 
LIG0004933

>  <Ligand>  (1) 
CHEMBL32599

>  <SMILES>  (1) 
OC(=O)[C@@H](NC(=O)c1ccc(cc1)N1CCC(CC1)NC[C@@H](c1ccc(c(c1)NS(=O)(=O)C)O)O)Cc1ccccc1

>  <CID>  (1) 
10651147.0

>  <ChEMBL ID>  (1) 
nan

>  <InChiKey>  (1) 
WJZRAVQJGGLRCV-XCZPVHLTSA-N

>  <InChi>  (1) 
InChI=1S/C30H36N4O7S/c1-42(40,41)33-25-18-22(9-12-27(25)35)28(36)19-31-23-13-15-34(16-14-23)24-10-7-21(8-11-24)29(37)32-26(30(38)39)17-20-5-3-2-4-6-20/h2-12,18,23,26,28,31,33,35-36H,13-17,19H2,1H3,(H,32,37)(H,38,39)/t26-,28-/m0/s1

>  <IUPAC Name>  (1) 
(2S)-2-[[4-[4-[[(2R)-2-hydroxy-2-[4-hydroxy-3-(methanesulfonamido)phenyl]ethyl]amino]piperidin-1-yl]benzoyl]amino]-3-phenylpropanoic acid

$$$$
