
     RDKit          3D

167171  0  0  0  0  0  0  0  0999 V2000
  -11.6528    2.4986   -5.5321 C   0  0  0  0  0  0  0  0  0  0  0  0
  -11.2011    1.5372   -4.5411 N   0  0  0  0  0  0  0  0  0  0  0  0
  -11.4088    1.8484   -3.2966 C   0  0  0  0  0  0  0  0  0  0  0  0
  -10.9587    0.8946   -2.3334 N   0  0  0  0  0  0  0  0  0  0  0  0
   -9.9087   -0.0110   -2.6274 C   0  0  0  0  0  0  0  0  0  0  0  0
   -8.5378    0.5029   -2.7680 C   0  0  0  0  0  0  0  0  0  0  0  0
   -7.8385    1.2195   -1.7179 C   0  0  0  0  0  0  0  0  0  0  0  0
   -7.6121    0.5715   -0.3662 C   0  0  1  0  0  0  0  0  0  0  0  0
   -8.9030    0.3066    0.3467 C   0  0  0  0  0  0  0  0  0  0  0  0
   -9.4244   -0.7800    0.4022 O   0  0  0  0  0  0  0  0  0  0  0  0
   -9.5057    1.4194    0.9703 N   0  0  0  0  0  0  0  0  0  0  0  0
  -10.6475    1.6885    1.6690 C   0  0  2  0  0  0  0  0  0  0  0  0
  -10.5925    3.1345    2.1253 C   0  0  0  0  0  0  0  0  0  0  0  0
  -11.5829    3.5314    2.7717 O   0  0  0  0  0  0  0  0  0  0  0  0
   -9.4975    3.9770    1.8432 N   0  0  0  0  0  0  0  0  0  0  0  0
  -11.4891    0.9697    2.5912 C   0  0  0  0  0  0  0  0  0  0  0  0
  -12.1964   -0.2169    2.1230 C   0  0  0  0  0  0  0  0  0  0  0  0
  -13.4511   -0.0686    1.4592 C   0  0  0  0  0  0  0  0  0  0  0  0
  -13.8905   -1.2652    1.0645 N   0  0  0  0  0  0  0  0  0  0  0  0
  -13.0081   -2.2027    1.4245 C   0  0  0  0  0  0  0  0  0  0  0  0
  -11.9655   -1.5522    2.0766 C   0  0  0  0  0  0  0  0  0  0  0  0
  -10.9494   -2.3185    2.5625 C   0  0  0  0  0  0  0  0  0  0  0  0
  -10.9902   -3.6808    2.3927 C   0  0  0  0  0  0  0  0  0  0  0  0
  -12.0085   -4.3514    1.7512 C   0  0  0  0  0  0  0  0  0  0  0  0
  -13.0394   -3.5726    1.2588 C   0  0  0  0  0  0  0  0  0  0  0  0
   -6.9479   -0.7281   -0.5883 N   0  0  0  0  0  0  0  0  0  0  0  0
   -5.5147   -0.6984   -0.4507 C   0  0  0  0  0  0  0  0  0  0  0  0
   -5.0330    0.4395   -0.1762 O   0  0  0  0  0  0  0  0  0  0  0  0
   -4.6244   -1.8202   -0.6089 C   0  0  1  0  0  0  0  0  0  0  0  0
   -3.2584   -1.4010   -0.9691 N   0  0  0  0  0  0  0  0  0  0  0  0
   -2.3998   -0.6385   -0.1644 C   0  0  0  0  0  0  0  0  0  0  0  0
   -2.7882   -0.2404    0.9621 O   0  0  0  0  0  0  0  0  0  0  0  0
   -1.1196   -0.3298   -0.6066 N   0  0  0  0  0  0  0  0  0  0  0  0
   -0.1180    0.3941    0.0027 N   0  0  0  0  0  0  0  0  0  0  0  0
   -0.2087    1.3454    1.0386 C   0  0  0  0  0  0  0  0  0  0  0  0
   -1.2898    1.6983    1.5565 O   0  0  0  0  0  0  0  0  0  0  0  0
    1.0780    1.9531    1.5448 C   0  0  1  0  0  0  0  0  0  0  0  0
    2.1982    1.3068    0.8573 N   0  0  0  0  0  0  0  0  0  0  0  0
    2.6035    0.0688    1.3942 C   0  0  0  0  0  0  0  0  0  0  0  0
    1.9547   -0.3336    2.4222 O   0  0  0  0  0  0  0  0  0  0  0  0
    3.6702   -0.8116    0.9103 C   0  0  2  0  0  0  0  0  0  0  0  0
    4.3152   -1.4623    2.0981 C   0  0  2  0  0  0  0  0  0  0  0  0
    5.1173   -0.4948    2.7302 O   0  0  0  0  0  0  0  0  0  0  0  0
    5.1998   -2.6388    1.7430 C   0  0  0  0  0  0  0  0  0  0  0  0
    4.5806   -0.3162   -0.0548 N   0  0  0  0  0  0  0  0  0  0  0  0
    4.3407   -0.1042   -1.4359 C   0  0  0  0  0  0  0  0  0  0  0  0
    3.1809   -0.3130   -1.8539 O   0  0  0  0  0  0  0  0  0  0  0  0
    5.4681    0.3376   -2.2882 C   0  0  1  0  0  0  0  0  0  0  0  0
    6.7236   -0.0306   -1.6736 N   0  0  0  0  0  0  0  0  0  0  0  0
    7.9918    0.5117   -1.8741 C   0  0  0  0  0  0  0  0  0  0  0  0
    8.1194    1.4396   -2.7073 O   0  0  0  0  0  0  0  0  0  0  0  0
    9.1670   -0.0369   -1.0960 C   0  0  2  0  0  0  0  0  0  0  0  0
   10.4198    0.2171   -1.7316 N   0  0  0  0  0  0  0  0  0  0  0  0
   11.3387    1.2532   -1.4293 C   0  0  0  0  0  0  0  0  0  0  0  0
   11.0343    2.0477   -0.5062 O   0  0  0  0  0  0  0  0  0  0  0  0
   12.5808    1.3228   -2.2187 C   0  0  1  0  0  0  0  0  0  0  0  0
   13.7768    1.5464   -1.3544 C   0  0  0  0  0  0  0  0  0  0  0  0
   14.0470    0.5218   -0.3323 C   0  0  0  0  0  0  0  0  0  0  0  0
   14.7664   -0.6234   -0.5786 C   0  0  0  0  0  0  0  0  0  0  0  0
   15.0514   -1.5587    0.3957 C   0  0  0  0  0  0  0  0  0  0  0  0
   14.6001   -1.3627    1.7128 C   0  0  0  0  0  0  0  0  0  0  0  0
   13.8738   -0.2107    1.9593 C   0  0  0  0  0  0  0  0  0  0  0  0
   13.5920    0.7264    0.9689 C   0  0  0  0  0  0  0  0  0  0  0  0
   14.8964   -2.3086    2.6709 O   0  0  0  0  0  0  0  0  0  0  0  0
   12.7233    0.1585   -3.0615 N   0  0  0  0  0  0  0  0  0  0  0  0
    8.9590   -1.4429   -0.6987 C   0  0  0  0  0  0  0  0  0  0  0  0
   10.0757   -2.0819    0.0316 C   0  0  0  0  0  0  0  0  0  0  0  0
   11.0129   -2.8312   -0.7013 C   0  0  0  0  0  0  0  0  0  0  0  0
   11.9903   -3.4432    0.0517 C   0  0  0  0  0  0  0  0  0  0  0  0
   12.0830   -3.3582    1.3875 N   0  0  0  0  0  0  0  0  0  0  0  0
   11.1982   -2.6470    2.0946 C   0  0  0  0  0  0  0  0  0  0  0  0
   10.1827   -2.0034    1.3847 C   0  0  0  0  0  0  0  0  0  0  0  0
    5.3854   -0.2932   -3.6818 C   0  0  0  0  0  0  0  0  0  0  0  0
    4.1668    0.0848   -4.4113 C   0  0  0  0  0  0  0  0  0  0  0  0
    3.8872   -0.5523   -5.4644 O   0  0  0  0  0  0  0  0  0  0  0  0
    3.2774    1.1271   -4.0148 N   0  0  0  0  0  0  0  0  0  0  0  0
    1.0517    3.4265    1.3815 C   0  0  0  0  0  0  0  0  0  0  0  0
    2.3495    3.9802    1.8924 C   0  0  0  0  0  0  0  0  0  0  0  0
    3.4467    4.1322    1.0496 C   0  0  0  0  0  0  0  0  0  0  0  0
    4.5955    4.6168    1.6188 C   0  0  0  0  0  0  0  0  0  0  0  0
    4.6801    4.9470    2.9685 C   0  0  0  0  0  0  0  0  0  0  0  0
    3.5810    4.7982    3.8147 C   0  0  0  0  0  0  0  0  0  0  0  0
    2.4234    4.3104    3.2486 C   0  0  0  0  0  0  0  0  0  0  0  0
   -4.4204   -2.7575    0.5262 C   0  0  0  0  0  0  0  0  0  0  0  0
   -5.5396   -3.5153    1.1091 C   0  0  0  0  0  0  0  0  0  0  0  0
   -6.6004   -2.6363    1.7142 C   0  0  0  0  0  0  0  0  0  0  0  0
   -5.0346   -4.4517    2.2191 C   0  0  0  0  0  0  0  0  0  0  0  0
  -12.0466    3.0574   -2.8987 N   0  0  0  0  0  0  0  0  0  0  0  0
  -10.9697    2.5277   -6.3987 H   0  0  0  0  0  0  0  0  0  0  0  0
  -11.9005    3.4786   -5.1206 H   0  0  0  0  0  0  0  0  0  0  0  0
  -12.6287    2.0710   -5.9147 H   0  0  0  0  0  0  0  0  0  0  0  0
  -11.4077    0.8568   -1.3967 H   0  0  0  0  0  0  0  0  0  0  0  0
   -9.9163   -0.9610   -2.0581 H   0  0  0  0  0  0  0  0  0  0  0  0
  -10.2136   -0.4138   -3.6823 H   0  0  0  0  0  0  0  0  0  0  0  0
   -8.5526    1.1865   -3.6873 H   0  0  0  0  0  0  0  0  0  0  0  0
   -7.8271   -0.3137   -3.1503 H   0  0  0  0  0  0  0  0  0  0  0  0
   -6.7878    1.4457   -2.0921 H   0  0  0  0  0  0  0  0  0  0  0  0
   -8.2339    2.2383   -1.4773 H   0  0  0  0  0  0  0  0  0  0  0  0
   -7.0053    1.2744    0.2068 H   0  0  0  0  0  0  0  0  0  0  0  0
   -8.8404    2.3210    0.8342 H   0  0  0  0  0  0  0  0  0  0  0  0
  -11.4472    1.7942    0.7493 H   0  0  0  0  0  0  0  0  0  0  0  0
   -9.6717    4.8192    1.2577 H   0  0  0  0  0  0  0  0  0  0  0  0
   -8.5173    3.7938    2.1900 H   0  0  0  0  0  0  0  0  0  0  0  0
  -12.2962    1.7151    2.9270 H   0  0  0  0  0  0  0  0  0  0  0  0
  -11.0049    0.7794    3.6089 H   0  0  0  0  0  0  0  0  0  0  0  0
  -13.9778    0.8606    1.2904 H   0  0  0  0  0  0  0  0  0  0  0  0
  -14.8089   -1.4034    0.5426 H   0  0  0  0  0  0  0  0  0  0  0  0
  -10.1390   -1.7913    3.0740 H   0  0  0  0  0  0  0  0  0  0  0  0
  -10.1783   -4.3022    2.7860 H   0  0  0  0  0  0  0  0  0  0  0  0
  -12.0644   -5.4061    1.6026 H   0  0  0  0  0  0  0  0  0  0  0  0
  -13.8671   -4.0051    0.7451 H   0  0  0  0  0  0  0  0  0  0  0  0
   -7.4372   -1.5858   -0.8352 H   0  0  0  0  0  0  0  0  0  0  0  0
   -4.9605   -2.4637   -1.4789 H   0  0  0  0  0  0  0  0  0  0  0  0
   -2.9006   -1.7057   -1.9268 H   0  0  0  0  0  0  0  0  0  0  0  0
   -0.8619   -0.7014   -1.5834 H   0  0  0  0  0  0  0  0  0  0  0  0
    0.8663    0.2040   -0.3626 H   0  0  0  0  0  0  0  0  0  0  0  0
    1.0608    1.6776    2.6222 H   0  0  0  0  0  0  0  0  0  0  0  0
    2.6832    1.6841    0.0356 H   0  0  0  0  0  0  0  0  0  0  0  0
    3.0723   -1.6257    0.3432 H   0  0  0  0  0  0  0  0  0  0  0  0
    3.5274   -1.7795    2.8332 H   0  0  0  0  0  0  0  0  0  0  0  0
    4.5611    0.2581    3.0944 H   0  0  0  0  0  0  0  0  0  0  0  0
    5.0300   -3.0175    0.7325 H   0  0  0  0  0  0  0  0  0  0  0  0
    4.9699   -3.4740    2.4448 H   0  0  0  0  0  0  0  0  0  0  0  0
    6.2816   -2.4079    1.8607 H   0  0  0  0  0  0  0  0  0  0  0  0
    5.5527   -0.0561    0.3170 H   0  0  0  0  0  0  0  0  0  0  0  0
    5.4640    1.4245   -2.4536 H   0  0  0  0  0  0  0  0  0  0  0  0
    6.6505   -0.8454   -1.0013 H   0  0  0  0  0  0  0  0  0  0  0  0
    9.0961    0.5792   -0.1337 H   0  0  0  0  0  0  0  0  0  0  0  0
   10.6858   -0.4589   -2.5206 H   0  0  0  0  0  0  0  0  0  0  0  0
   12.5067    2.2129   -2.9489 H   0  0  0  0  0  0  0  0  0  0  0  0
   13.7669    2.5594   -0.8778 H   0  0  0  0  0  0  0  0  0  0  0  0
   14.6946    1.5562   -2.0203 H   0  0  0  0  0  0  0  0  0  0  0  0
   15.1472   -0.8238   -1.5807 H   0  0  0  0  0  0  0  0  0  0  0  0
   15.6194   -2.4439    0.1653 H   0  0  0  0  0  0  0  0  0  0  0  0
   13.5066   -0.0374    2.9758 H   0  0  0  0  0  0  0  0  0  0  0  0
   13.0296    1.5794    1.2826 H   0  0  0  0  0  0  0  0  0  0  0  0
   14.9110   -2.1175    3.6638 H   0  0  0  0  0  0  0  0  0  0  0  0
   12.1064    0.1959   -3.9153 H   0  0  0  0  0  0  0  0  0  0  0  0
   13.7248   -0.0058   -3.3352 H   0  0  0  0  0  0  0  0  0  0  0  0
    8.7651   -2.0728   -1.5972 H   0  0  0  0  0  0  0  0  0  0  0  0
    8.0165   -1.5873   -0.0796 H   0  0  0  0  0  0  0  0  0  0  0  0
   10.9217   -2.8905   -1.7634 H   0  0  0  0  0  0  0  0  0  0  0  0
   12.7280   -4.0257   -0.4637 H   0  0  0  0  0  0  0  0  0  0  0  0
   11.2824   -2.5898    3.1537 H   0  0  0  0  0  0  0  0  0  0  0  0
    9.4622   -1.4238    1.9343 H   0  0  0  0  0  0  0  0  0  0  0  0
    5.4372   -1.3823   -3.5526 H   0  0  0  0  0  0  0  0  0  0  0  0
    6.2861    0.0694   -4.2456 H   0  0  0  0  0  0  0  0  0  0  0  0
    2.2760    1.1430   -4.2844 H   0  0  0  0  0  0  0  0  0  0  0  0
    3.6812    1.9108   -3.4086 H   0  0  0  0  0  0  0  0  0  0  0  0
    0.2435    3.8733    1.9609 H   0  0  0  0  0  0  0  0  0  0  0  0
    1.0036    3.7098    0.3002 H   0  0  0  0  0  0  0  0  0  0  0  0
    3.3904    3.9011    0.0106 H   0  0  0  0  0  0  0  0  0  0  0  0
    5.4485    4.7287    0.9348 H   0  0  0  0  0  0  0  0  0  0  0  0
    5.5957    5.3149    3.3861 H   0  0  0  0  0  0  0  0  0  0  0  0
    3.6135    5.0409    4.8516 H   0  0  0  0  0  0  0  0  0  0  0  0
    1.5767    4.1919    3.9138 H   0  0  0  0  0  0  0  0  0  0  0  0
   -3.8675   -2.2063    1.3599 H   0  0  0  0  0  0  0  0  0  0  0  0
   -3.6400   -3.5346    0.2325 H   0  0  0  0  0  0  0  0  0  0  0  0
   -5.9990   -4.2498    0.3740 H   0  0  0  0  0  0  0  0  0  0  0  0
   -6.2644   -1.6022    1.9333 H   0  0  0  0  0  0  0  0  0  0  0  0
   -7.5687   -2.7148    1.1882 H   0  0  0  0  0  0  0  0  0  0  0  0
   -6.8750   -3.0198    2.7600 H   0  0  0  0  0  0  0  0  0  0  0  0
   -4.0135   -4.0542    2.5183 H   0  0  0  0  0  0  0  0  0  0  0  0
   -5.6795   -4.3072    3.1053 H   0  0  0  0  0  0  0  0  0  0  0  0
   -4.9479   -5.4944    1.8899 H   0  0  0  0  0  0  0  0  0  0  0  0
  -12.9961    3.2681   -3.2701 H   0  0  0  0  0  0  0  0  0  0  0  0
  -11.5277    3.6834   -2.2378 H   0  0  0  0  0  0  0  0  0  0  0  0
  1  2  1  0
  2  3  2  3
  3  4  1  0
  4  5  1  0
  5  6  1  0
  6  7  1  0
  7  8  1  0
  8  9  1  0
  9 10  2  0
  9 11  1  0
 11 12  1  0
 12 13  1  0
 13 14  2  0
 13 15  1  0
 12 16  1  0
 16 17  1  0
 17 18  2  0
 18 19  1  0
 19 20  1  0
 20 21  2  0
 21 22  1  0
 22 23  2  0
 23 24  1  0
 24 25  2  0
  8 26  1  0
 26 27  1  0
 27 28  2  0
 27 29  1  0
 29 30  1  0
 30 31  1  0
 31 32  2  0
 31 33  1  0
 33 34  1  0
 34 35  1  0
 35 36  2  0
 35 37  1  0
 37 38  1  0
 38 39  1  0
 39 40  2  0
 39 41  1  0
 41 42  1  0
 42 43  1  0
 42 44  1  0
 41 45  1  0
 45 46  1  0
 46 47  2  0
 46 48  1  0
 48 49  1  0
 49 50  1  0
 50 51  2  0
 50 52  1  0
 52 53  1  0
 53 54  1  0
 54 55  2  0
 54 56  1  0
 56 57  1  0
 57 58  1  0
 58 59  2  0
 59 60  1  0
 60 61  2  0
 61 62  1  0
 62 63  2  0
 61 64  1  0
 56 65  1  0
 52 66  1  0
 66 67  1  0
 67 68  2  0
 68 69  1  0
 69 70  2  0
 70 71  1  0
 71 72  2  0
 48 73  1  0
 73 74  1  0
 74 75  2  0
 74 76  1  0
 37 77  1  0
 77 78  1  0
 78 79  2  0
 79 80  1  0
 80 81  2  0
 81 82  1  0
 82 83  2  0
 29 84  1  0
 84 85  1  0
 85 86  1  0
 85 87  1  0
  3 88  1  0
 21 17  1  0
 63 58  1  0
 72 67  1  0
 83 78  1  0
 25 20  1  0
  1 89  1  0
  1 90  1  0
  1 91  1  0
  4 92  1  0
  5 93  1  0
  5 94  1  0
  6 95  1  0
  6 96  1  0
  7 97  1  0
  7 98  1  0
  8 99  1  1
 11100  1  0
 12101  1  6
 15102  1  0
 15103  1  0
 16104  1  0
 16105  1  0
 18106  1  0
 19107  1  0
 22108  1  0
 23109  1  0
 24110  1  0
 25111  1  0
 26112  1  0
 29113  1  6
 30114  1  0
 33115  1  0
 34116  1  0
 37117  1  1
 38118  1  0
 41119  1  6
 42120  1  1
 43121  1  0
 44122  1  0
 44123  1  0
 44124  1  0
 45125  1  0
 48126  1  6
 49127  1  0
 52128  1  1
 53129  1  0
 56130  1  6
 57131  1  0
 57132  1  0
 59133  1  0
 60134  1  0
 62135  1  0
 63136  1  0
 64137  1  0
 65138  1  0
 65139  1  0
 66140  1  0
 66141  1  0
 68142  1  0
 69143  1  0
 71144  1  0
 72145  1  0
 73146  1  0
 73147  1  0
 76148  1  0
 76149  1  0
 77150  1  0
 77151  1  0
 79152  1  0
 80153  1  0
 81154  1  0
 82155  1  0
 83156  1  0
 84157  1  0
 84158  1  0
 85159  1  0
 86160  1  0
 86161  1  0
 86162  1  0
 87163  1  0
 87164  1  0
 87165  1  0
 88166  1  0
 88167  1  0
M  END
>  <Ligand ID>  (1) 
LIG0005341

>  <Ligand>  (1) 
CHEMBL3314208

>  <SMILES>  (1) 
CN=C(NCCC[C@@H](C(=O)N[C@H](C(=O)N)Cc1c[nH]c2c1cccc2)NC(=O)[C@@H](NC(=O)NNC(=O)[C@@H](NC(=O)[C@H]([C@H](O)C)NC(=O)[C@@H](NC(=O)[C@H](NC(=O)[C@@H](Cc1ccc(cc1)O)N)Cc1ccncc1)CC(=O)N)Cc1ccccc1)CC(C)C)N

>  <CID>  (1) 
118707477.0

>  <ChEMBL ID>  (1) 
nan

>  <InChiKey>  (1) 
VCMVZXSKFKFAOO-ANLMXIBWSA-N

>  <InChi>  (1) 
InChI=1S/C59H79N17O12/c1-32(2)25-44(53(83)68-42(15-10-22-66-58(63)64-4)52(82)69-43(50(62)80)29-37-31-67-41-14-9-8-13-39(37)41)73-59(88)76-75-56(86)46(27-34-11-6-5-7-12-34)72-57(87)49(33(3)77)74-55(85)47(30-48(61)79)71-54(84)45(28-36-20-23-65-24-21-36)70-51(81)40(60)26-35-16-18-38(78)19-17-35/h5-9,11-14,16-21,23-24,31-33,40,42-47,49,67,77-78H,10,15,22,25-30,60H2,1-4H3,(H2,61,79)(H2,62,80)(H,68,83)(H,69,82)(H,70,81)(H,71,84)(H,72,87)(H,74,85)(H,75,86)(H3,63,64,66)(H2,73,76,88)/t33-,40-,42+,43+,44+,45-,46+,47+,49+/m1/s1

>  <IUPAC Name>  (1) 
(2S)-2-[[(2R)-2-[[(2R)-2-amino-3-(4-hydroxyphenyl)propanoyl]amino]-3-pyridin-4-ylpropanoyl]amino]-N-[(2S,3R)-1-[[(2S)-1-[2-[[(2S)-1-[[(2S)-1-[[(2S)-1-amino-3-(1H-indol-3-yl)-1-oxopropan-2-yl]amino]-5-[(N'-methylcarbamimidoyl)amino]-1-oxopentan-2-yl]amino]-4-methyl-1-oxopentan-2-yl]carbamoyl]hydrazinyl]-1-oxo-3-phenylpropan-2-yl]amino]-3-hydroxy-1-oxobutan-2-yl]butanediamide

$$$$
