
     RDKit          3D

 58 59  0  0  0  0  0  0  0  0999 V2000
   -7.7405    0.3532    0.7602 C   0  0  0  0  0  0  0  0  0  0  0  0
   -6.3268   -0.2663    0.6491 C   0  0  0  0  0  0  0  0  0  0  0  0
   -5.3916    0.5193    1.5129 C   0  0  0  0  0  0  0  0  0  0  0  0
   -3.9991    0.0567    1.5741 C   0  0  0  0  0  0  0  0  0  0  0  0
   -3.1734   -0.0038    0.3468 C   0  0  0  0  0  0  0  0  0  0  0  0
   -1.7741   -0.4898    0.8279 C   0  0  1  0  0  0  0  0  0  0  0  0
   -0.8296   -0.6010   -0.3093 C   0  0  0  0  0  0  0  0  0  0  0  0
   -0.1108    0.4339   -0.7666 C   0  0  0  0  0  0  0  0  0  0  0  0
    0.7893    0.1964   -1.8985 C   0  0  1  0  0  0  0  0  0  0  0  0
    0.8411    1.3824   -2.8386 C   0  0  0  0  0  0  0  0  0  0  0  0
    1.9801    0.9390   -3.7649 C   0  0  0  0  0  0  0  0  0  0  0  0
    2.8848    0.2641   -2.7964 C   0  0  0  0  0  0  0  0  0  0  0  0
    4.0890   -0.0901   -3.0199 O   0  0  0  0  0  0  0  0  0  0  0  0
    2.1880    0.0664   -1.5470 N   0  0  0  0  0  0  0  0  0  0  0  0
    2.8331   -0.1949   -0.2995 C   0  0  0  0  0  0  0  0  0  0  0  0
    2.9935   -1.6695   -0.1025 C   0  0  0  0  0  0  0  0  0  0  0  0
    3.8181   -2.0844    1.4747 S   0  0  0  0  0  0  0  0  0  0  0  0
    5.5602   -1.4760    1.3776 C   0  0  0  0  0  0  0  0  0  0  0  0
    6.8343   -2.7299    0.6619 S   0  0  0  0  0  0  0  0  0  0  0  0
    8.1561   -1.4813    0.8857 C   0  0  0  0  0  0  0  0  0  0  0  0
    7.5111   -0.3828    1.4238 C   0  0  0  0  0  0  0  0  0  0  0  0
    6.2184   -0.5846    1.5912 N   0  0  0  0  0  0  0  0  0  0  0  0
    8.2518    0.8455    1.7498 C   0  0  0  0  0  0  0  0  0  0  0  0
    9.4868    0.8535    1.5197 O   0  0  0  0  0  0  0  0  0  0  0  0
    7.6530    1.9681    2.2886 O   0  0  0  0  0  0  0  0  0  0  0  0
   -1.3168    0.3247    1.8490 O   0  0  0  0  0  0  0  0  0  0  0  0
   -3.6332   -1.0271   -0.6776 C   0  0  0  0  0  0  0  0  0  0  0  0
   -2.9765    1.3055   -0.3375 C   0  0  0  0  0  0  0  0  0  0  0  0
   -7.8434    0.6801    1.8074 H   0  0  0  0  0  0  0  0  0  0  0  0
   -8.4707   -0.4311    0.5712 H   0  0  0  0  0  0  0  0  0  0  0  0
   -7.7756    1.2269    0.1081 H   0  0  0  0  0  0  0  0  0  0  0  0
   -6.4214   -1.2889    1.0531 H   0  0  0  0  0  0  0  0  0  0  0  0
   -6.0656   -0.2775   -0.4305 H   0  0  0  0  0  0  0  0  0  0  0  0
   -5.8114    0.4130    2.5676 H   0  0  0  0  0  0  0  0  0  0  0  0
   -5.4918    1.6244    1.3376 H   0  0  0  0  0  0  0  0  0  0  0  0
   -3.4453    0.6178    2.3929 H   0  0  0  0  0  0  0  0  0  0  0  0
   -4.0184   -1.0116    1.9792 H   0  0  0  0  0  0  0  0  0  0  0  0
   -1.9470   -1.5041    1.2514 H   0  0  0  0  0  0  0  0  0  0  0  0
   -0.7037   -1.5805   -0.8069 H   0  0  0  0  0  0  0  0  0  0  0  0
   -0.2030    1.4069   -0.3022 H   0  0  0  0  0  0  0  0  0  0  0  0
    0.5221   -0.6954   -2.4993 H   0  0  0  0  0  0  0  0  0  0  0  0
    1.1784    2.3085   -2.3312 H   0  0  0  0  0  0  0  0  0  0  0  0
   -0.1130    1.5074   -3.3921 H   0  0  0  0  0  0  0  0  0  0  0  0
    2.4484    1.7859   -4.2906 H   0  0  0  0  0  0  0  0  0  0  0  0
    1.5287    0.1850   -4.4433 H   0  0  0  0  0  0  0  0  0  0  0  0
    3.8674    0.2540   -0.3013 H   0  0  0  0  0  0  0  0  0  0  0  0
    2.2939    0.3101    0.5331 H   0  0  0  0  0  0  0  0  0  0  0  0
    3.6845   -2.0420   -0.8865 H   0  0  0  0  0  0  0  0  0  0  0  0
    2.0184   -2.1683   -0.1116 H   0  0  0  0  0  0  0  0  0  0  0  0
    9.1952   -1.6595    0.6214 H   0  0  0  0  0  0  0  0  0  0  0  0
    8.1230    2.8797    2.2568 H   0  0  0  0  0  0  0  0  0  0  0  0
   -1.4881   -0.0670    2.7423 H   0  0  0  0  0  0  0  0  0  0  0  0
   -4.3170   -1.7816   -0.2527 H   0  0  0  0  0  0  0  0  0  0  0  0
   -2.7031   -1.5517   -1.0859 H   0  0  0  0  0  0  0  0  0  0  0  0
   -4.0507   -0.4745   -1.5413 H   0  0  0  0  0  0  0  0  0  0  0  0
   -2.4288    2.0474    0.2757 H   0  0  0  0  0  0  0  0  0  0  0  0
   -2.4142    1.1333   -1.2762 H   0  0  0  0  0  0  0  0  0  0  0  0
   -3.9643    1.7259   -0.6861 H   0  0  0  0  0  0  0  0  0  0  0  0
  1  2  1  0
  2  3  1  0
  3  4  1  0
  4  5  1  0
  5  6  1  0
  6  7  1  0
  7  8  2  0
  8  9  1  0
  9 10  1  0
 10 11  1  0
 11 12  1  0
 12 13  2  0
 12 14  1  0
 14 15  1  0
 15 16  1  0
 16 17  1  0
 17 18  1  0
 18 19  1  0
 19 20  1  0
 20 21  2  0
 21 22  1  0
 21 23  1  0
 23 24  2  0
 23 25  1  0
  6 26  1  0
  5 27  1  0
  5 28  1  0
 14  9  1  0
 22 18  2  0
  1 29  1  0
  1 30  1  0
  1 31  1  0
  2 32  1  0
  2 33  1  0
  3 34  1  0
  3 35  1  0
  4 36  1  0
  4 37  1  0
  6 38  1  1
  7 39  1  0
  8 40  1  0
  9 41  1  6
 10 42  1  0
 10 43  1  0
 11 44  1  0
 11 45  1  0
 15 46  1  0
 15 47  1  0
 16 48  1  0
 16 49  1  0
 20 50  1  0
 25 51  1  0
 26 52  1  0
 27 53  1  0
 27 54  1  0
 27 55  1  0
 28 56  1  0
 28 57  1  0
 28 58  1  0
M  END
>  <Ligand ID>  (1) 
LIG0004188

>  <Ligand>  (1) 
CHEMBL3752377

>  <SMILES>  (1) 
CCCCC([C@@H](/C=C/[C@H]1CCC(=O)N1CCSc1scc(n1)C(=O)O)O)(C)C

>  <CID>  (1) 
59554827.0

>  <ChEMBL ID>  (1) 
nan

>  <InChiKey>  (1) 
NZYBIQJYXRPCLZ-AFDQWNBZSA-N

>  <InChi>  (1) 
InChI=1S/C20H30N2O4S2/c1-4-5-10-20(2,3)16(23)8-6-14-7-9-17(24)22(14)11-12-27-19-21-15(13-28-19)18(25)26/h6,8,13-14,16,23H,4-5,7,9-12H2,1-3H3,(H,25,26)/b8-6+/t14-,16+/m0/s1

>  <IUPAC Name>  (1) 
2-[2-[(2R)-2-[(E,3R)-3-hydroxy-4,4-dimethyloct-1-enyl]-5-oxopyrrolidin-1-yl]ethylsulfanyl]-1,3-thiazole-4-carboxylic acid

$$$$
