
     RDKit          3D

 31 31  0  0  0  0  0  0  0  0999 V2000
   -4.5384   -0.1011   -0.3637 C   0  0  0  0  0  0  0  0  0  0  0  0
   -3.2945   -0.0552    0.3420 N   0  0  0  0  0  0  0  0  0  0  0  0
   -2.3497    0.7814   -0.3768 C   0  0  0  0  0  0  0  0  0  0  0  0
   -0.9824    0.2418   -0.3265 C   0  0  0  0  0  0  0  0  0  0  0  0
    0.1367   -0.2080   -0.2769 C   0  0  0  0  0  0  0  0  0  0  0  0
    1.5202   -0.7417   -0.2314 C   0  0  0  0  0  0  0  0  0  0  0  0
    2.3521    0.3017   -0.6676 O   0  0  0  0  0  0  0  0  0  0  0  0
    3.7379    0.1816   -0.7624 C   0  0  0  0  0  0  0  0  0  0  0  0
    4.2785   -0.9415   -1.1689 N   0  0  0  0  0  0  0  0  0  0  0  0
    5.6416   -0.8159   -1.1785 O   0  0  0  0  0  0  0  0  0  0  0  0
    6.0178    0.2650   -0.3528 C   0  0  0  0  0  0  0  0  0  0  0  0
    4.7987    1.1609   -0.4670 C   0  0  0  0  0  0  0  0  0  0  0  0
   -3.4358    0.5266    1.6743 C   0  0  0  0  0  0  0  0  0  0  0  0
   -2.6833   -1.3556    0.5134 C   0  0  0  0  0  0  0  0  0  0  0  0
   -5.2747   -0.6726    0.2463 H   0  0  0  0  0  0  0  0  0  0  0  0
   -4.8569    0.9251   -0.5752 H   0  0  0  0  0  0  0  0  0  0  0  0
   -4.3806   -0.6488   -1.3036 H   0  0  0  0  0  0  0  0  0  0  0  0
   -2.6881    0.8416   -1.4173 H   0  0  0  0  0  0  0  0  0  0  0  0
   -2.3106    1.7948    0.0727 H   0  0  0  0  0  0  0  0  0  0  0  0
    1.6234   -1.6904   -0.7653 H   0  0  0  0  0  0  0  0  0  0  0  0
    1.8020   -0.9446    0.8440 H   0  0  0  0  0  0  0  0  0  0  0  0
    6.0754   -0.0977    0.7065 H   0  0  0  0  0  0  0  0  0  0  0  0
    6.9427    0.7784   -0.6680 H   0  0  0  0  0  0  0  0  0  0  0  0
    4.6798    1.6630    0.5133 H   0  0  0  0  0  0  0  0  0  0  0  0
    4.8984    1.9493   -1.2249 H   0  0  0  0  0  0  0  0  0  0  0  0
   -4.0862    1.4136    1.6753 H   0  0  0  0  0  0  0  0  0  0  0  0
   -2.4156    0.8403    1.9822 H   0  0  0  0  0  0  0  0  0  0  0  0
   -3.7375   -0.2497    2.4130 H   0  0  0  0  0  0  0  0  0  0  0  0
   -2.0202   -1.6413   -0.3212 H   0  0  0  0  0  0  0  0  0  0  0  0
   -2.0212   -1.3580    1.4273 H   0  0  0  0  0  0  0  0  0  0  0  0
   -3.4297   -2.1427    0.7049 H   0  0  0  0  0  0  0  0  0  0  0  0
  1  2  1  0
  2  3  1  0
  3  4  1  0
  4  5  3  0
  5  6  1  0
  6  7  1  0
  7  8  1  0
  8  9  2  0
  9 10  1  0
 10 11  1  0
 11 12  1  0
  2 13  1  0
  2 14  1  0
 12  8  1  0
  1 15  1  0
  1 16  1  0
  1 17  1  0
  3 18  1  0
  3 19  1  0
  6 20  1  0
  6 21  1  0
 11 22  1  0
 11 23  1  0
 12 24  1  0
 12 25  1  0
 13 26  1  0
 13 27  1  0
 13 28  1  0
 14 29  1  0
 14 30  1  0
 14 31  1  0
M  CHG  1   2   1
M  END
>  <Ligand ID>  (1) 
LIG0002318

>  <Ligand>  (1) 
iperoxo

>  <SMILES>  (1) 
C[N+](CC#CCOC1=NOCC1)(C)C

>  <CID>  (1) 
10104167.0

>  <ChEMBL ID>  (1) 
nan

>  <InChiKey>  (1) 
WXXOCGISBCTWPW-UHFFFAOYSA-N

>  <InChi>  (1) 
InChI=1S/C10H17N2O2/c1-12(2,3)7-4-5-8-13-10-6-9-14-11-10/h6-9H2,1-3H3/q+1

>  <IUPAC Name>  (1) 
4-(4,5-dihydro-1,2-oxazol-3-yloxy)but-2-ynyl-trimethylazanium

$$$$
