
     RDKit          3D

 69 69  0  0  0  0  0  0  0  0999 V2000
    0.2585    1.7978    0.8571 O   0  0  0  0  0  0  0  0  0  0  0  0
   -0.8973    1.0781    0.8982 C   0  0  0  0  0  0  0  0  0  0  0  0
   -1.8703    1.6597    1.4951 O   0  0  0  0  0  0  0  0  0  0  0  0
   -1.1862   -0.2290    0.3745 C   0  0  0  0  0  0  0  0  0  0  0  0
   -0.3763   -1.0182   -0.2676 C   0  0  0  0  0  0  0  0  0  0  0  0
    0.9831   -0.7231   -0.5778 C   0  0  0  0  0  0  0  0  0  0  0  0
    1.6479    0.2973   -0.3098 O   0  0  0  0  0  0  0  0  0  0  0  0
    1.7019   -1.7078   -1.2888 O   0  0  0  0  0  0  0  0  0  0  0  0
   -3.4800    1.7155    1.2182 C   0  0  0  0  0  0  0  0  0  0  0  0
   -2.4582    1.5339    0.1590 C   0  0  0  0  0  0  0  0  0  0  0  0
   -2.6816    0.2314   -0.6294 C   0  0  0  0  0  0  0  0  0  0  0  0
   -2.5803   -0.9008    0.3234 C   0  0  0  0  0  0  0  0  0  0  0  0
   -2.9245   -2.2008    0.0234 C   0  0  0  0  0  0  0  0  0  0  0  0
   -2.8097   -3.2457    0.9524 C   0  0  0  0  0  0  0  0  0  0  0  0
   -2.3424   -3.0242    2.2220 C   0  0  0  0  0  0  0  0  0  0  0  0
   -1.9920   -1.7352    2.5411 C   0  0  0  0  0  0  0  0  0  0  0  0
   -2.1027   -0.6945    1.6261 C   0  0  0  0  0  0  0  0  0  0  0  0
   -3.9399    0.3783   -1.2695 N   0  0  0  0  0  0  0  0  0  0  0  0
   -4.4396   -0.6879   -2.0692 C   0  0  0  0  0  0  0  0  0  0  0  0
   -4.1411    1.6346   -1.9243 C   0  0  0  0  0  0  0  0  0  0  0  0
   -1.5884    0.2337   -1.6765 C   0  0  0  0  0  0  0  0  0  0  0  0
   -0.2848    0.1396   -1.2579 O   0  0  0  0  0  0  0  0  0  0  0  0
    0.5096   -0.7315   -0.6558 C   0  0  0  0  0  0  0  0  0  0  0  0
    0.1647   -1.8649   -0.2844 O   0  0  0  0  0  0  0  0  0  0  0  0
    1.9192   -0.3607   -0.3895 C   0  0  0  0  0  0  0  0  0  0  0  0
    2.4237    0.8716   -0.7545 C   0  0  0  0  0  0  0  0  0  0  0  0
    3.7156    1.2625   -0.5319 C   0  0  0  0  0  0  0  0  0  0  0  0
    4.2480    2.4771   -0.8811 O   0  0  0  0  0  0  0  0  0  0  0  0
    3.4440    3.4352   -1.5226 C   0  0  0  0  0  0  0  0  0  0  0  0
    4.5738    0.3605    0.1023 C   0  0  0  0  0  0  0  0  0  0  0  0
    4.1057   -0.8927    0.4869 C   0  0  0  0  0  0  0  0  0  0  0  0
    2.7914   -1.2266    0.2337 C   0  0  0  0  0  0  0  0  0  0  0  0
    4.9727   -1.7595    1.1090 O   0  0  0  0  0  0  0  0  0  0  0  0
    4.5403   -3.0294    1.5113 C   0  0  0  0  0  0  0  0  0  0  0  0
    5.9078    0.7088    0.3553 O   0  0  0  0  0  0  0  0  0  0  0  0
    6.2132    1.3398    1.5859 C   0  0  0  0  0  0  0  0  0  0  0  0
    0.2579    2.8213    0.7283 H   0  0  0  0  0  0  0  0  0  0  0  0
   -2.2140   -0.6219    0.5287 H   0  0  0  0  0  0  0  0  0  0  0  0
   -0.8044   -1.9910   -0.5858 H   0  0  0  0  0  0  0  0  0  0  0  0
    2.4991   -1.3631   -1.8523 H   0  0  0  0  0  0  0  0  0  0  0  0
   -4.2845    2.4709    0.9577 H   0  0  0  0  0  0  0  0  0  0  0  0
   -4.0419    0.7846    1.4140 H   0  0  0  0  0  0  0  0  0  0  0  0
   -3.1002    2.1132    2.1909 H   0  0  0  0  0  0  0  0  0  0  0  0
   -2.5703    2.3565   -0.5648 H   0  0  0  0  0  0  0  0  0  0  0  0
   -1.4117    1.5972    0.5131 H   0  0  0  0  0  0  0  0  0  0  0  0
   -3.2738   -2.4963   -0.9301 H   0  0  0  0  0  0  0  0  0  0  0  0
   -3.0884   -4.2582    0.6896 H   0  0  0  0  0  0  0  0  0  0  0  0
   -2.2409   -3.7931    2.9579 H   0  0  0  0  0  0  0  0  0  0  0  0
   -1.6185   -1.5523    3.5507 H   0  0  0  0  0  0  0  0  0  0  0  0
   -1.7729    0.2577    1.9826 H   0  0  0  0  0  0  0  0  0  0  0  0
   -5.1394   -1.3496   -1.5253 H   0  0  0  0  0  0  0  0  0  0  0  0
   -3.7226   -1.1761   -2.7405 H   0  0  0  0  0  0  0  0  0  0  0  0
   -5.1546   -0.1795   -2.8156 H   0  0  0  0  0  0  0  0  0  0  0  0
   -3.2837    2.1402   -2.3542 H   0  0  0  0  0  0  0  0  0  0  0  0
   -4.8013    1.4430   -2.8552 H   0  0  0  0  0  0  0  0  0  0  0  0
   -4.7253    2.3003   -1.2624 H   0  0  0  0  0  0  0  0  0  0  0  0
   -1.7814   -0.6634   -2.3566 H   0  0  0  0  0  0  0  0  0  0  0  0
   -1.6347    1.1496   -2.3150 H   0  0  0  0  0  0  0  0  0  0  0  0
    1.7503    1.5552   -1.2420 H   0  0  0  0  0  0  0  0  0  0  0  0
    3.8961    4.4448   -1.4343 H   0  0  0  0  0  0  0  0  0  0  0  0
    3.3741    3.1413   -2.6050 H   0  0  0  0  0  0  0  0  0  0  0  0
    2.4061    3.4853   -1.1469 H   0  0  0  0  0  0  0  0  0  0  0  0
    2.3915   -2.1944    0.5193 H   0  0  0  0  0  0  0  0  0  0  0  0
    3.7003   -2.8725    2.2450 H   0  0  0  0  0  0  0  0  0  0  0  0
    5.3390   -3.5800    2.0554 H   0  0  0  0  0  0  0  0  0  0  0  0
    4.1492   -3.6300    0.6582 H   0  0  0  0  0  0  0  0  0  0  0  0
    6.6603    0.5883    2.2815 H   0  0  0  0  0  0  0  0  0  0  0  0
    5.3068    1.7543    2.0887 H   0  0  0  0  0  0  0  0  0  0  0  0
    6.9079    2.1949    1.4400 H   0  0  0  0  0  0  0  0  0  0  0  0
  1  2  1  0
  2  3  2  0
  2  4  1  0
  4  5  2  0
  5  6  1  0
  6  7  2  0
  6  8  1  0
  9 10  1  0
 10 11  1  0
 11 12  1  0
 12 13  2  0
 13 14  1  0
 14 15  2  0
 15 16  1  0
 16 17  2  0
 11 18  1  0
 18 19  1  0
 18 20  1  0
 11 21  1  0
 21 22  1  0
 22 23  1  0
 23 24  2  0
 23 25  1  0
 25 26  2  0
 26 27  1  0
 27 28  1  0
 28 29  1  0
 27 30  2  0
 30 31  1  0
 31 32  2  0
 31 33  1  0
 33 34  1  0
 30 35  1  0
 35 36  1  0
 17 12  1  0
 32 25  1  0
  1 37  1  0
  4 38  1  0
  5 39  1  0
  8 40  1  0
  9 41  1  0
  9 42  1  0
  9 43  1  0
 10 44  1  0
 10 45  1  0
 13 46  1  0
 14 47  1  0
 15 48  1  0
 16 49  1  0
 17 50  1  0
 19 51  1  0
 19 52  1  0
 19 53  1  0
 20 54  1  0
 20 55  1  0
 20 56  1  0
 21 57  1  0
 21 58  1  0
 26 59  1  0
 29 60  1  0
 29 61  1  0
 29 62  1  0
 32 63  1  0
 34 64  1  0
 34 65  1  0
 34 66  1  0
 36 67  1  0
 36 68  1  0
 36 69  1  0
M  END
>  <Ligand ID>  (1) 
LIG0004064

>  <Ligand>  (1) 
Trimebutine maleate

>  <SMILES>  (1) 
OC(=O)/C=C\C(=O)O.CCC(c1ccccc1)(N(C)C)COC(=O)c1cc(OC)c(c(c1)OC)OC

>  <CID>  (1) 
5388977.0

>  <ChEMBL ID>  (1) 
nan

>  <InChiKey>  (1) 
FSRLGULMGJGKGI-BTJKTKAUSA-N

>  <InChi>  (1) 
InChI=1S/C22H29NO5.C4H4O4/c1-7-22(23(2)3,17-11-9-8-10-12-17)15-28-21(24)16-13-18(25-4)20(27-6)19(14-16)26-5;5-3(6)1-2-4(7)8/h8-14H,7,15H2,1-6H3;1-2H,(H,5,6)(H,7,8)/b;2-1-

>  <IUPAC Name>  (1) 
(Z)-but-2-enedioic acid;[2-(dimethylamino)-2-phenylbutyl] 3,4,5-trimethoxybenzoate

$$$$
