
     RDKit          3D

 54 54  0  0  0  0  0  0  0  0999 V2000
    6.8867    1.0252    1.2747 C   0  0  0  0  0  0  0  0  0  0  0  0
    6.8327    1.0055   -0.2229 C   0  0  0  0  0  0  0  0  0  0  0  0
    5.6273    0.4265   -0.8093 C   0  0  0  0  0  0  0  0  0  0  0  0
    5.2316   -0.9646   -0.6218 C   0  0  0  0  0  0  0  0  0  0  0  0
    4.9183   -1.5551    0.6689 C   0  0  0  0  0  0  0  0  0  0  0  0
    3.8727   -1.0177    1.5566 C   0  0  0  0  0  0  0  0  0  0  0  0
    2.4633   -0.9310    1.1316 C   0  0  0  0  0  0  0  0  0  0  0  0
    2.1166   -0.0413   -0.0177 C   0  0  0  0  0  0  0  0  0  0  0  0
    0.6127   -0.0724   -0.2644 C   0  0  0  0  0  0  0  0  0  0  0  0
    0.0856   -1.0153   -1.1372 C   0  0  0  0  0  0  0  0  0  0  0  0
   -1.2548   -1.0857   -1.3931 C   0  0  0  0  0  0  0  0  0  0  0  0
   -2.0982   -0.1817   -0.7540 C   0  0  0  0  0  0  0  0  0  0  0  0
   -1.5937    0.7761    0.1281 C   0  0  0  0  0  0  0  0  0  0  0  0
   -0.2186    0.8155    0.3630 C   0  0  0  0  0  0  0  0  0  0  0  0
   -3.5008   -0.2325   -1.0025 N   0  0  0  0  0  0  0  0  0  0  0  0
   -4.3449   -1.0415   -0.1994 C   0  0  0  0  0  0  0  0  0  0  0  0
   -3.9012   -1.7480    0.7635 O   0  0  0  0  0  0  0  0  0  0  0  0
   -5.8109   -1.1143   -0.4351 C   0  0  2  0  0  0  0  0  0  0  0  0
   -6.3857    0.2758   -0.3307 C   0  0  0  0  0  0  0  0  0  0  0  0
   -6.1341    0.7458    0.9554 O   0  0  0  0  0  0  0  0  0  0  0  0
   -6.7411    2.3070    1.1804 P   0  0  0  0  0  0  0  0  0  0  0  0
   -6.8321    2.5731    2.6543 O   0  0  0  0  0  0  0  0  0  0  0  0
   -5.6813    3.4227    0.5092 O   0  0  0  0  0  0  0  0  0  0  0  0
   -8.2609    2.4777    0.4562 O   0  0  0  0  0  0  0  0  0  0  0  0
   -6.4107   -2.0067    0.5245 N   0  0  0  0  0  0  0  0  0  0  0  0
    5.9167    1.4905    1.6055 H   0  0  0  0  0  0  0  0  0  0  0  0
    7.6986    1.7415    1.6176 H   0  0  0  0  0  0  0  0  0  0  0  0
    6.9868    0.0757    1.7804 H   0  0  0  0  0  0  0  0  0  0  0  0
    6.8471    2.1080   -0.5135 H   0  0  0  0  0  0  0  0  0  0  0  0
    7.7936    0.6440   -0.6718 H   0  0  0  0  0  0  0  0  0  0  0  0
    5.6276    0.6111   -1.9396 H   0  0  0  0  0  0  0  0  0  0  0  0
    4.7550    1.1066   -0.5057 H   0  0  0  0  0  0  0  0  0  0  0  0
    4.4772   -1.2560   -1.3881 H   0  0  0  0  0  0  0  0  0  0  0  0
    6.1451   -1.5931   -1.0613 H   0  0  0  0  0  0  0  0  0  0  0  0
    5.7969   -1.8235    1.3072 H   0  0  0  0  0  0  0  0  0  0  0  0
    4.5354   -2.6323    0.4178 H   0  0  0  0  0  0  0  0  0  0  0  0
    3.9253   -1.6821    2.5032 H   0  0  0  0  0  0  0  0  0  0  0  0
    4.1843   -0.0200    2.0257 H   0  0  0  0  0  0  0  0  0  0  0  0
    1.8894   -0.5131    2.0270 H   0  0  0  0  0  0  0  0  0  0  0  0
    1.9803   -1.9481    1.0213 H   0  0  0  0  0  0  0  0  0  0  0  0
    2.3283    1.0337    0.2121 H   0  0  0  0  0  0  0  0  0  0  0  0
    2.5381   -0.3319   -0.9864 H   0  0  0  0  0  0  0  0  0  0  0  0
    0.7244   -1.7397   -1.6547 H   0  0  0  0  0  0  0  0  0  0  0  0
   -1.6572   -1.8226   -2.0738 H   0  0  0  0  0  0  0  0  0  0  0  0
   -2.2507    1.4833    0.6285 H   0  0  0  0  0  0  0  0  0  0  0  0
    0.1726    1.5586    1.0472 H   0  0  0  0  0  0  0  0  0  0  0  0
   -3.8809    0.3401   -1.7875 H   0  0  0  0  0  0  0  0  0  0  0  0
   -5.9185   -1.5002   -1.4818 H   0  0  0  0  0  0  0  0  0  0  0  0
   -5.8686    0.9059   -1.0998 H   0  0  0  0  0  0  0  0  0  0  0  0
   -7.4424    0.2508   -0.5980 H   0  0  0  0  0  0  0  0  0  0  0  0
   -5.7448    3.3978   -0.4928 H   0  0  0  0  0  0  0  0  0  0  0  0
   -8.8136    1.6472    0.5549 H   0  0  0  0  0  0  0  0  0  0  0  0
   -5.8171   -2.8547    0.5821 H   0  0  0  0  0  0  0  0  0  0  0  0
   -6.4074   -1.5204    1.4471 H   0  0  0  0  0  0  0  0  0  0  0  0
  1  2  1  0
  2  3  1  0
  3  4  1  0
  4  5  1  0
  5  6  1  0
  6  7  1  0
  7  8  1  0
  8  9  1  0
  9 10  2  0
 10 11  1  0
 11 12  2  0
 12 13  1  0
 13 14  2  0
 12 15  1  0
 15 16  1  0
 16 17  2  0
 16 18  1  0
 18 19  1  0
 19 20  1  0
 20 21  1  0
 21 22  2  0
 21 23  1  0
 21 24  1  0
 18 25  1  0
 14  9  1  0
  1 26  1  0
  1 27  1  0
  1 28  1  0
  2 29  1  0
  2 30  1  0
  3 31  1  0
  3 32  1  0
  4 33  1  0
  4 34  1  0
  5 35  1  0
  5 36  1  0
  6 37  1  0
  6 38  1  0
  7 39  1  0
  7 40  1  0
  8 41  1  0
  8 42  1  0
 10 43  1  0
 11 44  1  0
 13 45  1  0
 14 46  1  0
 15 47  1  0
 18 48  1  6
 19 49  1  0
 19 50  1  0
 23 51  1  0
 24 52  1  0
 25 53  1  0
 25 54  1  0
M  END
>  <Ligand ID>  (1) 
LIG0004252

>  <Ligand>  (1) 
CHEMBL332050

>  <SMILES>  (1) 
CCCCCCCCc1ccc(cc1)NC(=O)[C@H](COP(=O)(O)O)N

>  <CID>  (1) 
44342468.0

>  <ChEMBL ID>  (1) 
nan

>  <InChiKey>  (1) 
MYSPJHRAIVKWQS-INIZCTEOSA-N

>  <InChi>  (1) 
InChI=1S/C17H29N2O5P/c1-2-3-4-5-6-7-8-14-9-11-15(12-10-14)19-17(20)16(18)13-24-25(21,22)23/h9-12,16H,2-8,13,18H2,1H3,(H,19,20)(H2,21,22,23)/t16-/m0/s1

>  <IUPAC Name>  (1) 
[(2S)-2-amino-3-(4-octylanilino)-3-oxopropyl] dihydrogen phosphate

$$$$
