
     RDKit          3D

 32 32  0  0  0  0  0  0  0  0999 V2000
    1.6746   -1.5907   -0.5143 C   0  0  0  0  0  0  0  0  0  0  0  0
    1.4456   -0.2089   -0.0249 C   0  0  0  0  0  0  0  0  0  0  0  0
    0.1763    0.2843    0.1492 C   0  0  0  0  0  0  0  0  0  0  0  0
   -0.9769   -0.5547   -0.1484 C   0  0  1  0  0  0  0  0  0  0  0  0
   -1.6700   -1.4477    0.7656 C   0  0  0  0  0  0  0  0  0  0  0  0
   -2.2444   -0.1065    0.6372 C   0  0  2  0  0  0  0  0  0  0  0  0
   -3.4403    0.2213   -0.2177 C   0  0  0  0  0  0  0  0  0  0  0  0
   -3.9056   -0.8696   -1.0261 N   0  0  0  0  0  0  0  0  0  0  0  0
    0.0513    1.5894    0.6115 C   0  0  0  0  0  0  0  0  0  0  0  0
    1.1474    2.3828    0.8929 C   0  0  0  0  0  0  0  0  0  0  0  0
    2.4130    1.8875    0.7180 C   0  0  0  0  0  0  0  0  0  0  0  0
    2.5398    0.5922    0.2592 C   0  0  0  0  0  0  0  0  0  0  0  0
    3.9036    0.0247    0.0587 C   0  0  0  0  0  0  0  0  0  0  0  0
    0.6842    0.0000    0.0000 Cl  0  0  0  0  0  0  0  0  0  0  0  0
    2.6178   -1.5703   -1.1093 H   0  0  0  0  0  0  0  0  0  0  0  0
    0.8880   -1.9766   -1.1665 H   0  0  0  0  0  0  0  0  0  0  0  0
    1.8829   -2.2325    0.3777 H   0  0  0  0  0  0  0  0  0  0  0  0
   -1.1368   -0.6978   -1.2555 H   0  0  0  0  0  0  0  0  0  0  0  0
   -2.2536   -2.2740    0.3101 H   0  0  0  0  0  0  0  0  0  0  0  0
   -1.2367   -1.7665    1.7449 H   0  0  0  0  0  0  0  0  0  0  0  0
   -2.1179    0.5500    1.5037 H   0  0  0  0  0  0  0  0  0  0  0  0
   -4.2085    0.6900    0.3939 H   0  0  0  0  0  0  0  0  0  0  0  0
   -3.0985    1.0277   -0.9307 H   0  0  0  0  0  0  0  0  0  0  0  0
   -4.9572   -0.8128   -1.0497 H   0  0  0  0  0  0  0  0  0  0  0  0
   -3.6231   -0.7662   -2.0340 H   0  0  0  0  0  0  0  0  0  0  0  0
   -0.9269    2.0336    0.7683 H   0  0  0  0  0  0  0  0  0  0  0  0
    0.9923    3.3953    1.2515 H   0  0  0  0  0  0  0  0  0  0  0  0
    3.2892    2.5017    0.9359 H   0  0  0  0  0  0  0  0  0  0  0  0
    4.6699    0.7338    0.4168 H   0  0  0  0  0  0  0  0  0  0  0  0
    4.0458   -0.9224    0.6246 H   0  0  0  0  0  0  0  0  0  0  0  0
    4.0590   -0.1173   -1.0372 H   0  0  0  0  0  0  0  0  0  0  0  0
   -0.6842    0.0000    0.0000 H   0  0  0  0  0  0  0  0  0  0  0  0
  1  2  1  0
  2  3  2  0
  3  4  1  0
  4  5  1  0
  5  6  1  0
  6  7  1  0
  7  8  1  0
  3  9  1  0
  9 10  2  0
 10 11  1  0
 11 12  2  0
 12 13  1  0
 12  2  1  0
  6  4  1  0
  1 15  1  0
  1 16  1  0
  1 17  1  0
  4 18  1  6
  5 19  1  0
  5 20  1  0
  6 21  1  1
  7 22  1  0
  7 23  1  0
  8 24  1  0
  8 25  1  0
  9 26  1  0
 10 27  1  0
 11 28  1  0
 13 29  1  0
 13 30  1  0
 13 31  1  0
 14 32  1  0
M  END
>  <Ligand ID>  (1) 
LIG0003851

>  <Ligand>  (1) 
CHEMBL475642

>  <SMILES>  (1) 
Cc1c([C@H]2C[C@@H]2CN)cccc1C.Cl

>  <CID>  (1) 
44572177.0

>  <ChEMBL ID>  (1) 
nan

>  <InChiKey>  (1) 
MBQPQFSLQHVEHH-IYJPBCIQSA-N

>  <InChi>  (1) 
InChI=1S/C12H17N.ClH/c1-8-4-3-5-11(9(8)2)12-6-10(12)7-13;/h3-5,10,12H,6-7,13H2,1-2H3;1H/t10-,12+;/m1./s1

>  <IUPAC Name>  (1) 
[(1S,2S)-2-(2,3-dimethylphenyl)cyclopropyl]methanamine;hydrochloride

$$$$
