
     RDKit          3D

 62 65  0  0  0  0  0  0  0  0999 V2000
    5.9668    3.5575   -0.0969 C   0  0  0  0  0  0  0  0  0  0  0  0
    6.1187    2.0621   -0.2702 C   0  0  0  0  0  0  0  0  0  0  0  0
    4.8374    1.5010   -0.1814 O   0  0  0  0  0  0  0  0  0  0  0  0
    4.7050    0.1308   -0.3093 C   0  0  0  0  0  0  0  0  0  0  0  0
    5.6880   -0.6445   -0.5036 O   0  0  0  0  0  0  0  0  0  0  0  0
    3.3275   -0.4274   -0.2088 C   0  0  0  0  0  0  0  0  0  0  0  0
    2.4223    0.1504   -1.2903 C   0  0  0  0  0  0  0  0  0  0  0  0
    1.0025    0.2013   -0.7735 C   0  0  0  0  0  0  0  0  0  0  0  0
    0.6872   -0.9844    0.0205 N   0  0  0  0  0  0  0  0  0  0  0  0
    1.4293   -0.9447    1.2305 C   0  0  0  0  0  0  0  0  0  0  0  0
    2.6890   -0.0857    1.1230 C   0  0  0  0  0  0  0  0  0  0  0  0
   -0.7542   -0.9313    0.2421 C   0  0  0  0  0  0  0  0  0  0  0  0
   -1.4736   -0.9481   -1.0706 C   0  0  0  0  0  0  0  0  0  0  0  0
   -2.3391    0.1431   -1.3751 C   0  0  0  0  0  0  0  0  0  0  0  0
   -2.6791    1.2666   -0.6537 N   0  0  0  0  0  0  0  0  0  0  0  0
   -3.8035    1.4275    0.2005 C   0  0  0  0  0  0  0  0  0  0  0  0
   -4.5804    0.4233    0.3058 O   0  0  0  0  0  0  0  0  0  0  0  0
   -4.0447    2.6762    0.9117 C   0  0  0  0  0  0  0  0  0  0  0  0
   -3.3290    3.8464    0.9216 C   0  0  0  0  0  0  0  0  0  0  0  0
   -3.9824    4.7442    1.7676 C   0  0  0  0  0  0  0  0  0  0  0  0
   -5.0762    4.0548    2.2305 C   0  0  0  0  0  0  0  0  0  0  0  0
   -5.0854    2.8551    1.7151 O   0  0  0  0  0  0  0  0  0  0  0  0
   -3.0034   -0.2247   -3.0316 S   0  0  0  0  0  0  0  0  0  0  0  0
   -2.1097   -1.7365   -3.1704 C   0  0  0  0  0  0  0  0  0  0  0  0
   -1.3791   -1.8833   -1.9998 C   0  0  0  0  0  0  0  0  0  0  0  0
   -0.5089   -3.1252   -1.8659 C   0  0  0  0  0  0  0  0  0  0  0  0
   -2.1669   -2.6522   -4.3549 C   0  0  0  0  0  0  0  0  0  0  0  0
   -1.2614   -1.8285    1.2651 C   0  0  0  0  0  0  0  0  0  0  0  0
   -2.2701   -1.4105    2.1474 C   0  0  0  0  0  0  0  0  0  0  0  0
   -2.7607   -2.2353    3.1369 C   0  0  0  0  0  0  0  0  0  0  0  0
   -2.2767   -3.5073    3.2981 C   0  0  0  0  0  0  0  0  0  0  0  0
   -1.3126   -3.9130    2.4590 N   0  0  0  0  0  0  0  0  0  0  0  0
   -0.8172   -3.1279    1.4862 C   0  0  0  0  0  0  0  0  0  0  0  0
    5.7420    3.7897    0.9630 H   0  0  0  0  0  0  0  0  0  0  0  0
    6.9243    4.0336   -0.4231 H   0  0  0  0  0  0  0  0  0  0  0  0
    5.1322    3.9233   -0.7393 H   0  0  0  0  0  0  0  0  0  0  0  0
    6.7653    1.6784    0.5493 H   0  0  0  0  0  0  0  0  0  0  0  0
    6.6483    1.8507   -1.2175 H   0  0  0  0  0  0  0  0  0  0  0  0
    3.3686   -1.5297   -0.2913 H   0  0  0  0  0  0  0  0  0  0  0  0
    2.4533   -0.4638   -2.2158 H   0  0  0  0  0  0  0  0  0  0  0  0
    2.7015    1.1882   -1.5685 H   0  0  0  0  0  0  0  0  0  0  0  0
    0.3415    0.2875   -1.6612 H   0  0  0  0  0  0  0  0  0  0  0  0
    0.8597    1.1429   -0.1828 H   0  0  0  0  0  0  0  0  0  0  0  0
    0.8601   -0.5116    2.0914 H   0  0  0  0  0  0  0  0  0  0  0  0
    1.7865   -1.9697    1.4606 H   0  0  0  0  0  0  0  0  0  0  0  0
    2.4782    0.9763    1.2273 H   0  0  0  0  0  0  0  0  0  0  0  0
    3.3585   -0.4282    1.9481 H   0  0  0  0  0  0  0  0  0  0  0  0
   -0.8737    0.1168    0.6904 H   0  0  0  0  0  0  0  0  0  0  0  0
   -2.0481    2.1217   -0.7259 H   0  0  0  0  0  0  0  0  0  0  0  0
   -2.4328    4.0319    0.3774 H   0  0  0  0  0  0  0  0  0  0  0  0
   -3.7233    5.7505    2.0245 H   0  0  0  0  0  0  0  0  0  0  0  0
   -5.8617    4.3849    2.9216 H   0  0  0  0  0  0  0  0  0  0  0  0
   -0.2904   -3.5655   -2.8599 H   0  0  0  0  0  0  0  0  0  0  0  0
    0.3996   -2.8047   -1.3544 H   0  0  0  0  0  0  0  0  0  0  0  0
   -1.0027   -3.9101   -1.2869 H   0  0  0  0  0  0  0  0  0  0  0  0
   -1.1358   -2.9053   -4.5946 H   0  0  0  0  0  0  0  0  0  0  0  0
   -2.5861   -2.0641   -5.2019 H   0  0  0  0  0  0  0  0  0  0  0  0
   -2.7681   -3.5396   -4.1057 H   0  0  0  0  0  0  0  0  0  0  0  0
   -2.7008   -0.4213    2.0932 H   0  0  0  0  0  0  0  0  0  0  0  0
   -3.5479   -1.8967    3.8185 H   0  0  0  0  0  0  0  0  0  0  0  0
   -2.6661   -4.1535    4.0781 H   0  0  0  0  0  0  0  0  0  0  0  0
   -0.0415   -3.5425    0.8797 H   0  0  0  0  0  0  0  0  0  0  0  0
  1  2  1  0
  2  3  1  0
  3  4  1  0
  4  5  2  0
  4  6  1  0
  6  7  1  0
  7  8  1  0
  8  9  1  0
  9 10  1  0
 10 11  1  0
  9 12  1  0
 12 13  1  0
 13 14  2  0
 14 15  1  0
 15 16  1  0
 16 17  2  0
 16 18  1  0
 18 19  2  0
 19 20  1  0
 20 21  2  0
 21 22  1  0
 14 23  1  0
 23 24  1  0
 24 25  2  0
 25 26  1  0
 24 27  1  0
 12 28  1  0
 28 29  2  0
 29 30  1  0
 30 31  2  0
 31 32  1  0
 32 33  2  0
 11  6  1  0
 25 13  1  0
 33 28  1  0
 22 18  1  0
  1 34  1  0
  1 35  1  0
  1 36  1  0
  2 37  1  0
  2 38  1  0
  6 39  1  0
  7 40  1  0
  7 41  1  0
  8 42  1  0
  8 43  1  0
 10 44  1  0
 10 45  1  0
 11 46  1  0
 11 47  1  0
 12 48  1  0
 15 49  1  0
 19 50  1  0
 20 51  1  0
 21 52  1  0
 26 53  1  0
 26 54  1  0
 26 55  1  0
 27 56  1  0
 27 57  1  0
 27 58  1  0
 29 59  1  0
 30 60  1  0
 31 61  1  0
 33 62  1  0
M  END
>  <Ligand ID>  (1) 
LIG0004453

>  <Ligand>  (1) 
SMR000019649

>  <SMILES>  (1) 
CCOC(=O)C1CCN(CC1)C(c1c(NC(=O)c2ccco2)sc(c1C)C)c1cccnc1

>  <CID>  (1) 
3245442.0

>  <ChEMBL ID>  (1) 
nan

>  <InChiKey>  (1) 
FYETUTFFCYTDPF-UHFFFAOYSA-N

>  <InChi>  (1) 
InChI=1S/C25H29N3O4S/c1-4-31-25(30)18-9-12-28(13-10-18)22(19-7-5-11-26-15-19)21-16(2)17(3)33-24(21)27-23(29)20-8-6-14-32-20/h5-8,11,14-15,18,22H,4,9-10,12-13H2,1-3H3,(H,27,29)

>  <IUPAC Name>  (1) 
ethyl 1-[[2-(furan-2-carbonylamino)-4,5-dimethylthiophen-3-yl]-pyridin-3-ylmethyl]piperidine-4-carboxylate

$$$$
