
     RDKit          3D

 57 60  0  0  0  0  0  0  0  0999 V2000
    7.8547    3.4724    2.5257 O   0  0  0  0  0  0  0  0  0  0  0  0
    7.0295    3.9007    1.5149 C   0  0  0  0  0  0  0  0  0  0  0  0
    6.9549    2.8431    0.4141 C   0  0  0  0  0  0  0  0  0  0  0  0
    6.4442    1.5863    0.8868 N   0  0  0  0  0  0  0  0  0  0  0  0
    5.0697    1.6759    1.2046 C   0  0  0  0  0  0  0  0  0  0  0  0
    4.6190    0.4798    2.0868 C   0  0  0  0  0  0  0  0  0  0  0  0
    3.1055    0.7840    2.0487 C   0  0  0  0  0  0  0  0  0  0  0  0
    2.9310    0.9077    0.5620 C   0  0  0  0  0  0  0  0  0  0  0  0
    4.1345    1.4261    0.0601 C   0  0  0  0  0  0  0  0  0  0  0  0
    4.1774    1.5893   -1.3058 C   0  0  0  0  0  0  0  0  0  0  0  0
    3.1107    1.2685   -2.1367 C   0  0  0  0  0  0  0  0  0  0  0  0
    1.9430    0.7633   -1.6145 C   0  0  0  0  0  0  0  0  0  0  0  0
    1.8699    0.5878   -0.2517 C   0  0  0  0  0  0  0  0  0  0  0  0
    0.6410    0.0614    0.3390 C   0  0  0  0  0  0  0  0  0  0  0  0
    0.3408   -0.2053    1.6150 N   0  0  0  0  0  0  0  0  0  0  0  0
   -0.8948   -0.6626    1.6831 O   0  0  0  0  0  0  0  0  0  0  0  0
   -1.4305   -0.7098    0.4887 C   0  0  0  0  0  0  0  0  0  0  0  0
   -0.4875   -0.2634   -0.3529 N   0  0  0  0  0  0  0  0  0  0  0  0
   -2.7873   -1.1688    0.2241 C   0  0  0  0  0  0  0  0  0  0  0  0
   -3.6007   -1.5755    1.2551 C   0  0  0  0  0  0  0  0  0  0  0  0
   -4.8805   -2.0081    0.9827 C   0  0  0  0  0  0  0  0  0  0  0  0
   -5.4194   -2.0643   -0.2834 C   0  0  0  0  0  0  0  0  0  0  0  0
   -4.5931   -1.6512   -1.3299 C   0  0  0  0  0  0  0  0  0  0  0  0
   -3.3044   -1.2147   -1.0637 C   0  0  0  0  0  0  0  0  0  0  0  0
   -5.1257   -1.7044   -2.6069 O   0  0  0  0  0  0  0  0  0  0  0  0
   -4.4780   -1.3504   -3.7897 C   0  0  0  0  0  0  0  0  0  0  0  0
   -3.2647   -2.2294   -3.9691 C   0  0  0  0  0  0  0  0  0  0  0  0
   -6.6986   -2.4961   -0.5674 O   0  0  0  0  0  0  0  0  0  0  0  0
   -7.6071   -2.9301    0.4177 C   0  0  0  0  0  0  0  0  0  0  0  0
   -7.9472   -1.8956    1.4346 C   0  0  0  0  0  0  0  0  0  0  0  0
    7.6554    3.9792    3.3650 H   0  0  0  0  0  0  0  0  0  0  0  0
    6.0265    4.0797    1.9097 H   0  0  0  0  0  0  0  0  0  0  0  0
    7.4459    4.8438    1.0700 H   0  0  0  0  0  0  0  0  0  0  0  0
    7.9698    2.7434   -0.0408 H   0  0  0  0  0  0  0  0  0  0  0  0
    6.3000    3.2570   -0.3738 H   0  0  0  0  0  0  0  0  0  0  0  0
    7.0579    1.2284    1.6250 H   0  0  0  0  0  0  0  0  0  0  0  0
    4.7166    2.5851    1.7013 H   0  0  0  0  0  0  0  0  0  0  0  0
    5.0339    0.5549    3.0897 H   0  0  0  0  0  0  0  0  0  0  0  0
    4.8652   -0.4370    1.5211 H   0  0  0  0  0  0  0  0  0  0  0  0
    2.5372   -0.0331    2.4897 H   0  0  0  0  0  0  0  0  0  0  0  0
    2.9891    1.7524    2.5722 H   0  0  0  0  0  0  0  0  0  0  0  0
    5.0516    1.9718   -1.8153 H   0  0  0  0  0  0  0  0  0  0  0  0
    3.1746    1.4095   -3.2225 H   0  0  0  0  0  0  0  0  0  0  0  0
    1.0767    0.4950   -2.2022 H   0  0  0  0  0  0  0  0  0  0  0  0
   -3.2165   -1.5474    2.2777 H   0  0  0  0  0  0  0  0  0  0  0  0
   -5.4731   -2.3206    1.8228 H   0  0  0  0  0  0  0  0  0  0  0  0
   -2.6650   -0.8948   -1.8495 H   0  0  0  0  0  0  0  0  0  0  0  0
   -4.1830   -0.2730   -3.6680 H   0  0  0  0  0  0  0  0  0  0  0  0
   -5.1563   -1.3855   -4.6719 H   0  0  0  0  0  0  0  0  0  0  0  0
   -2.3889   -1.5633   -4.1244 H   0  0  0  0  0  0  0  0  0  0  0  0
   -3.1407   -2.8779   -3.0886 H   0  0  0  0  0  0  0  0  0  0  0  0
   -3.4287   -2.8695   -4.8775 H   0  0  0  0  0  0  0  0  0  0  0  0
   -8.5828   -3.2229   -0.0733 H   0  0  0  0  0  0  0  0  0  0  0  0
   -7.2340   -3.8476    0.9455 H   0  0  0  0  0  0  0  0  0  0  0  0
   -7.7685   -2.3033    2.4486 H   0  0  0  0  0  0  0  0  0  0  0  0
   -9.0226   -1.5868    1.3932 H   0  0  0  0  0  0  0  0  0  0  0  0
   -7.3466   -0.9545    1.3040 H   0  0  0  0  0  0  0  0  0  0  0  0
  1  2  1  0
  2  3  1  0
  3  4  1  0
  4  5  1  0
  5  6  1  0
  6  7  1  0
  7  8  1  0
  8  9  2  0
  9 10  1  0
 10 11  2  0
 11 12  1  0
 12 13  2  0
 13 14  1  0
 14 15  2  0
 15 16  1  0
 16 17  1  0
 17 18  2  0
 17 19  1  0
 19 20  2  0
 20 21  1  0
 21 22  2  0
 22 23  1  0
 23 24  2  0
 23 25  1  0
 25 26  1  0
 26 27  1  0
 22 28  1  0
 28 29  1  0
 29 30  1  0
  9  5  1  0
 18 14  1  0
 24 19  1  0
 13  8  1  0
  1 31  1  0
  2 32  1  0
  2 33  1  0
  3 34  1  0
  3 35  1  0
  4 36  1  0
  5 37  1  0
  6 38  1  0
  6 39  1  0
  7 40  1  0
  7 41  1  0
 10 42  1  0
 11 43  1  0
 12 44  1  0
 20 45  1  0
 21 46  1  0
 24 47  1  0
 26 48  1  0
 26 49  1  0
 27 50  1  0
 27 51  1  0
 27 52  1  0
 29 53  1  0
 29 54  1  0
 30 55  1  0
 30 56  1  0
 30 57  1  0
M  END
>  <Ligand ID>  (1) 
LIG0001954

>  <Ligand>  (1) 
CYM5442

>  <SMILES>  (1) 
OCCNC1CCc2c1cccc2c1noc(n1)c1ccc(c(c1)OCC)OCC

>  <CID>  (1) 
25110406.0

>  <ChEMBL ID>  (1) 
nan

>  <InChiKey>  (1) 
NUIKTBLZSPQGCP-UHFFFAOYSA-N

>  <InChi>  (1) 
InChI=1S/C23H27N3O4/c1-3-28-20-11-8-15(14-21(20)29-4-2)23-25-22(26-30-23)18-7-5-6-17-16(18)9-10-19(17)24-12-13-27/h5-8,11,14,19,24,27H,3-4,9-10,12-13H2,1-2H3

>  <IUPAC Name>  (1) 
2-[[4-[5-(3,4-diethoxyphenyl)-1,2,4-oxadiazol-3-yl]-2,3-dihydro-1H-inden-1-yl]amino]ethanol

$$$$
