
     RDKit          3D

 35 37  0  0  0  0  0  0  0  0999 V2000
   -3.7165    2.8859   -0.5945 C   0  0  0  0  0  0  0  0  0  0  0  0
   -2.4294    2.8124   -0.0943 C   0  0  0  0  0  0  0  0  0  0  0  0
   -1.8075    1.5548    0.0187 C   0  0  0  0  0  0  0  0  0  0  0  0
   -2.4027    0.3912   -0.3418 C   0  0  0  0  0  0  0  0  0  0  0  0
   -3.6782    0.5295   -0.8287 N   0  0  0  0  0  0  0  0  0  0  0  0
   -4.2937    1.6950   -0.9476 C   0  0  0  0  0  0  0  0  0  0  0  0
   -1.9215   -0.9544   -0.1961 C   0  0  0  0  0  0  0  0  0  0  0  0
   -2.8819   -1.9863   -0.2633 C   0  0  0  0  0  0  0  0  0  0  0  0
   -2.5865   -3.2901    0.0496 C   0  0  0  0  0  0  0  0  0  0  0  0
   -1.3305   -3.6804    0.4509 C   0  0  0  0  0  0  0  0  0  0  0  0
   -0.3731   -2.6862    0.5199 C   0  0  0  0  0  0  0  0  0  0  0  0
   -0.6784   -1.3582    0.1964 C   0  0  0  0  0  0  0  0  0  0  0  0
    0.4221   -0.4760    0.0973 N   0  0  0  0  0  0  0  0  0  0  0  0
    1.7253   -0.9215    0.5811 C   0  0  0  0  0  0  0  0  0  0  0  0
    2.7732    0.1260    0.4709 C   0  0  0  0  0  0  0  0  0  0  0  0
    2.6331    1.3218    0.0104 N   0  0  0  0  0  0  0  0  0  0  0  0
    3.8874    2.0401    0.0690 C   0  0  0  0  0  0  0  0  0  0  0  0
    4.9336    0.9849    0.3486 C   0  0  0  0  0  0  0  0  0  0  0  0
    4.1179   -0.0890    0.8841 N   0  0  0  0  0  0  0  0  0  0  0  0
   -4.2576    3.8108   -0.7107 H   0  0  0  0  0  0  0  0  0  0  0  0
   -1.9164    3.7139    0.2032 H   0  0  0  0  0  0  0  0  0  0  0  0
   -0.8574    1.5845    0.4674 H   0  0  0  0  0  0  0  0  0  0  0  0
   -5.2914    1.7092   -1.3397 H   0  0  0  0  0  0  0  0  0  0  0  0
   -3.9020   -1.7861   -0.5688 H   0  0  0  0  0  0  0  0  0  0  0  0
   -3.3472   -4.0473   -0.0138 H   0  0  0  0  0  0  0  0  0  0  0  0
   -1.0783   -4.6956    0.7033 H   0  0  0  0  0  0  0  0  0  0  0  0
    0.6096   -2.9950    0.8385 H   0  0  0  0  0  0  0  0  0  0  0  0
    0.4361    0.4509   -0.3443 H   0  0  0  0  0  0  0  0  0  0  0  0
    1.9870   -1.8223   -0.0184 H   0  0  0  0  0  0  0  0  0  0  0  0
    1.6070   -1.2453    1.6185 H   0  0  0  0  0  0  0  0  0  0  0  0
    3.9206    2.7560    0.9137 H   0  0  0  0  0  0  0  0  0  0  0  0
    4.1320    2.5777   -0.8651 H   0  0  0  0  0  0  0  0  0  0  0  0
    5.3833    0.6121   -0.5914 H   0  0  0  0  0  0  0  0  0  0  0  0
    5.6918    1.3365    1.0764 H   0  0  0  0  0  0  0  0  0  0  0  0
    4.4899   -0.8596    1.4626 H   0  0  0  0  0  0  0  0  0  0  0  0
  1  2  2  0
  2  3  1  0
  3  4  2  0
  4  5  1  0
  5  6  2  0
  4  7  1  0
  7  8  2  0
  8  9  1  0
  9 10  2  0
 10 11  1  0
 11 12  2  0
 12 13  1  0
 13 14  1  0
 14 15  1  0
 15 16  2  0
 16 17  1  0
 17 18  1  0
 18 19  1  0
  6  1  1  0
 12  7  1  0
 19 15  1  0
  1 20  1  0
  2 21  1  0
  3 22  1  0
  6 23  1  0
  8 24  1  0
  9 25  1  0
 10 26  1  0
 11 27  1  0
 13 28  1  0
 14 29  1  0
 14 30  1  0
 17 31  1  0
 17 32  1  0
 18 33  1  0
 18 34  1  0
 19 35  1  0
M  END
>  <Ligand ID>  (1) 
LIG0003172

>  <Ligand>  (1) 
CHEMBL154298

>  <SMILES>  (1) 
c1ccc(nc1)c1ccccc1NCC1=NCCN1

>  <CID>  (1) 
22493392.0

>  <ChEMBL ID>  (1) 
nan

>  <InChiKey>  (1) 
GXGVZZFPDOETFM-UHFFFAOYSA-N

>  <InChi>  (1) 
InChI=1S/C15H16N4/c1-2-6-14(19-11-15-17-9-10-18-15)12(5-1)13-7-3-4-8-16-13/h1-8,19H,9-11H2,(H,17,18)

>  <IUPAC Name>  (1) 
N-(4,5-dihydro-1H-imidazol-2-ylmethyl)-2-pyridin-2-ylaniline

$$$$
