
     RDKit          3D

 39 40  0  0  0  0  0  0  0  0999 V2000
   -2.7793    3.2668   -1.4442 C   0  0  0  0  0  0  0  0  0  0  0  0
   -2.9367    1.8594   -1.4101 O   0  0  0  0  0  0  0  0  0  0  0  0
   -1.9476    1.0105   -1.0306 N   0  0  0  0  0  0  0  0  0  0  0  0
   -2.1511    0.0175   -0.2475 C   0  0  0  0  0  0  0  0  0  0  0  0
   -1.1722   -0.9389    0.2139 C   0  0  0  0  0  0  0  0  0  0  0  0
   -1.5871   -1.9539    1.0797 C   0  0  0  0  0  0  0  0  0  0  0  0
   -0.7385   -2.9192    1.5682 C   0  0  0  0  0  0  0  0  0  0  0  0
    0.5886   -2.9168    1.2094 C   0  0  0  0  0  0  0  0  0  0  0  0
    0.9978   -1.9143    0.3547 C   0  0  0  0  0  0  0  0  0  0  0  0
    0.1473   -0.9418   -0.1390 C   0  0  0  0  0  0  0  0  0  0  0  0
    0.6987   -0.0006   -1.0387 N   0  0  0  0  0  0  0  0  0  0  0  0
    2.0999    0.0181   -1.3968 C   0  0  0  0  0  0  0  0  0  0  0  0
    2.9923    0.6462   -0.4028 C   0  0  0  0  0  0  0  0  0  0  0  0
    3.8399    1.5926   -0.7529 N   0  0  0  0  0  0  0  0  0  0  0  0
    4.6095    2.0616    0.3677 C   0  0  0  0  0  0  0  0  0  0  0  0
    4.5596    0.8112    1.2570 C   0  0  0  0  0  0  0  0  0  0  0  0
    3.1604    0.4360    0.9843 N   0  0  0  0  0  0  0  0  0  0  0  0
   -3.5858   -0.1517    0.1858 C   0  0  0  0  0  0  0  0  0  0  0  0
   -4.1961   -1.4244   -0.3339 C   0  0  0  0  0  0  0  0  0  0  0  0
   -2.3389    3.5276   -2.4229 H   0  0  0  0  0  0  0  0  0  0  0  0
   -3.7106    3.8193   -1.2755 H   0  0  0  0  0  0  0  0  0  0  0  0
   -2.0882    3.5051   -0.6011 H   0  0  0  0  0  0  0  0  0  0  0  0
   -2.6212   -2.0242    1.4246 H   0  0  0  0  0  0  0  0  0  0  0  0
   -1.1014   -3.6977    2.2440 H   0  0  0  0  0  0  0  0  0  0  0  0
    1.2563   -3.6742    1.5923 H   0  0  0  0  0  0  0  0  0  0  0  0
    2.0654   -1.9483    0.0897 H   0  0  0  0  0  0  0  0  0  0  0  0
    0.1268    0.7575   -1.5155 H   0  0  0  0  0  0  0  0  0  0  0  0
    2.2170    0.5435   -2.3857 H   0  0  0  0  0  0  0  0  0  0  0  0
    2.4529   -1.0301   -1.6526 H   0  0  0  0  0  0  0  0  0  0  0  0
    5.6312    2.3413    0.1017 H   0  0  0  0  0  0  0  0  0  0  0  0
    4.0490    2.8348    0.9386 H   0  0  0  0  0  0  0  0  0  0  0  0
    5.2115    0.0734    0.7818 H   0  0  0  0  0  0  0  0  0  0  0  0
    4.7463    1.0228    2.3085 H   0  0  0  0  0  0  0  0  0  0  0  0
    2.4459    0.0995    1.6509 H   0  0  0  0  0  0  0  0  0  0  0  0
   -3.5686   -0.1384    1.3153 H   0  0  0  0  0  0  0  0  0  0  0  0
   -4.2203    0.6937   -0.0944 H   0  0  0  0  0  0  0  0  0  0  0  0
   -4.9481   -1.2136   -1.1511 H   0  0  0  0  0  0  0  0  0  0  0  0
   -4.7770   -1.9705    0.4341 H   0  0  0  0  0  0  0  0  0  0  0  0
   -3.4275   -2.0800   -0.8073 H   0  0  0  0  0  0  0  0  0  0  0  0
  1  2  1  0
  2  3  1  0
  3  4  2  0
  4  5  1  0
  5  6  2  0
  6  7  1  0
  7  8  2  0
  8  9  1  0
  9 10  2  0
 10 11  1  0
 11 12  1  0
 12 13  1  0
 13 14  2  0
 14 15  1  0
 15 16  1  0
 16 17  1  0
  4 18  1  0
 18 19  1  0
 10  5  1  0
 17 13  1  0
  1 20  1  0
  1 21  1  0
  1 22  1  0
  6 23  1  0
  7 24  1  0
  8 25  1  0
  9 26  1  0
 11 27  1  0
 12 28  1  0
 12 29  1  0
 15 30  1  0
 15 31  1  0
 16 32  1  0
 16 33  1  0
 17 34  1  0
 18 35  1  0
 18 36  1  0
 19 37  1  0
 19 38  1  0
 19 39  1  0
M  END
>  <Ligand ID>  (1) 
LIG0003548

>  <Ligand>  (1) 
CHEMBL156950

>  <SMILES>  (1) 
CO/N=C(/c1ccccc1NCC1=NCCN1)\CC

>  <CID>  (1) 
10244367.0

>  <ChEMBL ID>  (1) 
nan

>  <InChiKey>  (1) 
VNALJYKFTZMOJJ-LDADJPATSA-N

>  <InChi>  (1) 
InChI=1S/C14H20N4O/c1-3-12(18-19-2)11-6-4-5-7-13(11)17-10-14-15-8-9-16-14/h4-7,17H,3,8-10H2,1-2H3,(H,15,16)/b18-12+

>  <IUPAC Name>  (1) 
N-(4,5-dihydro-1H-imidazol-2-ylmethyl)-2-[(E)-C-ethyl-N-methoxycarbonimidoyl]aniline

$$$$
