
     RDKit          3D

 35 35  0  0  0  0  0  0  0  0999 V2000
   -0.9146    2.7974    0.6639 C   0  0  0  0  0  0  0  0  0  0  0  0
   -0.6460    1.5711    1.3113 O   0  0  0  0  0  0  0  0  0  0  0  0
    0.1166    0.6248    0.6511 C   0  0  0  0  0  0  0  0  0  0  0  0
    1.4874    0.6812    0.8070 C   0  0  0  0  0  0  0  0  0  0  0  0
    2.0652    1.7008    1.6300 N   0  0  0  0  0  0  0  0  0  0  0  0
    2.1353    2.8835    1.2751 O   0  0  0  0  0  0  0  0  0  0  0  0
    2.5484    1.3025    2.8526 O   0  0  0  0  0  0  0  0  0  0  0  0
    2.3497   -0.2022    0.2053 C   0  0  0  0  0  0  0  0  0  0  0  0
    3.8299   -0.1340    0.3805 C   0  0  0  0  0  0  0  0  0  0  0  0
    1.7950   -1.1831   -0.5877 C   0  0  0  0  0  0  0  0  0  0  0  0
    0.4141   -1.2469   -0.7502 C   0  0  0  0  0  0  0  0  0  0  0  0
   -0.4440   -0.3500   -0.1373 C   0  0  0  0  0  0  0  0  0  0  0  0
   -1.8823   -0.4980   -0.3536 C   0  0  0  0  0  0  0  0  0  0  0  0
   -2.5924    0.6426   -0.9736 C   0  0  0  0  0  0  0  0  0  0  0  0
   -2.5462   -0.7381    1.0154 C   0  0  0  0  0  0  0  0  0  0  0  0
   -2.1962   -1.7632   -1.1621 C   0  0  0  0  0  0  0  0  0  0  0  0
    2.6309   -2.1329   -1.2375 N   0  0  0  0  0  0  0  0  0  0  0  0
    3.7099   -2.5394   -0.7746 O   0  0  0  0  0  0  0  0  0  0  0  0
    2.1942   -2.6160   -2.4526 O   0  0  0  0  0  0  0  0  0  0  0  0
   -0.4971    2.8265   -0.3677 H   0  0  0  0  0  0  0  0  0  0  0  0
   -0.5162    3.6339    1.2948 H   0  0  0  0  0  0  0  0  0  0  0  0
   -1.9998    3.0151    0.5789 H   0  0  0  0  0  0  0  0  0  0  0  0
    4.1309    0.7979    0.9074 H   0  0  0  0  0  0  0  0  0  0  0  0
    4.1784   -1.0275    0.9462 H   0  0  0  0  0  0  0  0  0  0  0  0
    4.3137   -0.0909   -0.6201 H   0  0  0  0  0  0  0  0  0  0  0  0
    0.0638   -2.0529   -1.3948 H   0  0  0  0  0  0  0  0  0  0  0  0
   -3.3340    0.2312   -1.7214 H   0  0  0  0  0  0  0  0  0  0  0  0
   -3.2670    1.1877   -0.2523 H   0  0  0  0  0  0  0  0  0  0  0  0
   -1.9674    1.3216   -1.5810 H   0  0  0  0  0  0  0  0  0  0  0  0
   -3.6421   -0.8321    0.7532 H   0  0  0  0  0  0  0  0  0  0  0  0
   -2.1821   -1.6462    1.4968 H   0  0  0  0  0  0  0  0  0  0  0  0
   -2.4785    0.1793    1.6241 H   0  0  0  0  0  0  0  0  0  0  0  0
   -3.2812   -1.9748   -1.1589 H   0  0  0  0  0  0  0  0  0  0  0  0
   -1.8472   -1.7108   -2.1914 H   0  0  0  0  0  0  0  0  0  0  0  0
   -1.7292   -2.6580   -0.6768 H   0  0  0  0  0  0  0  0  0  0  0  0
  1  2  1  0
  2  3  1  0
  3  4  2  0
  4  5  1  0
  5  6  2  0
  5  7  1  0
  4  8  1  0
  8  9  1  0
  8 10  2  0
 10 11  1  0
 11 12  2  0
 12 13  1  0
 13 14  1  0
 13 15  1  0
 13 16  1  0
 10 17  1  0
 17 18  2  0
 17 19  1  0
 12  3  1  0
  1 20  1  0
  1 21  1  0
  1 22  1  0
  9 23  1  0
  9 24  1  0
  9 25  1  0
 11 26  1  0
 14 27  1  0
 14 28  1  0
 14 29  1  0
 15 30  1  0
 15 31  1  0
 15 32  1  0
 16 33  1  0
 16 34  1  0
 16 35  1  0
M  CHG  4   5   1   7  -1  17   1  19  -1
M  END
>  <Ligand ID>  (1) 
LIG0001061

>  <Ligand>  (1) 
Musk ambrette

>  <SMILES>  (1) 
COc1c([N+](=O)[O-])c(C)c(cc1C(C)(C)C)[N+](=O)[O-]

>  <CID>  (1) 
6753.0

>  <ChEMBL ID>  (1) 
nan

>  <InChiKey>  (1) 
SUAUILGSCPYJCS-UHFFFAOYSA-N

>  <InChi>  (1) 
InChI=1S/C12H16N2O5/c1-7-9(13(15)16)6-8(12(2,3)4)11(19-5)10(7)14(17)18/h6H,1-5H3

>  <IUPAC Name>  (1) 
1-tert-butyl-2-methoxy-4-methyl-3,5-dinitrobenzene

$$$$
