
     RDKit          3D

 57 61  0  0  0  0  0  0  0  0999 V2000
    2.3410    0.3326    1.7183 O   0  0  0  0  0  0  0  0  0  0  0  0
    1.9860   -0.0171    0.5255 C   0  0  0  0  0  0  0  0  0  0  0  0
    0.5271    0.1414    0.3238 C   0  0  0  0  0  0  0  0  0  0  0  0
    0.0036    1.4333    0.2864 C   0  0  0  0  0  0  0  0  0  0  0  0
   -1.3655    1.5798    0.1391 C   0  0  0  0  0  0  0  0  0  0  0  0
   -2.1505    0.4471    0.0326 C   0  0  0  0  0  0  0  0  0  0  0  0
   -1.6415   -0.8120    0.0644 N   0  0  0  0  0  0  0  0  0  0  0  0
   -0.2907   -0.9812    0.2113 C   0  0  0  0  0  0  0  0  0  0  0  0
    0.2216   -2.1644    0.2241 N   0  0  0  0  0  0  0  0  0  0  0  0
   -2.4311   -1.9805   -0.0375 C   0  0  0  0  0  0  0  0  0  0  0  0
   -2.3040   -2.8993    1.1774 C   0  0  0  0  0  0  0  0  0  0  0  0
   -3.6252   -3.5951    1.3131 C   0  0  0  0  0  0  0  0  0  0  0  0
   -4.3496   -3.2557    0.0281 C   0  0  0  0  0  0  0  0  0  0  0  0
   -3.9203   -1.7876   -0.0824 C   0  0  0  0  0  0  0  0  0  0  0  0
   -3.4706    0.6401   -0.0911 N   0  0  0  0  0  0  0  0  0  0  0  0
   -4.0139    1.8940   -0.1104 C   0  0  0  0  0  0  0  0  0  0  0  0
   -3.2390    2.9816   -0.0090 N   0  0  0  0  0  0  0  0  0  0  0  0
   -1.9044    2.8462    0.1182 C   0  0  0  0  0  0  0  0  0  0  0  0
   -1.1144    3.8195    0.2227 O   0  0  0  0  0  0  0  0  0  0  0  0
   -3.7381    4.2291   -0.0129 C   0  0  0  0  0  0  0  0  0  0  0  0
   -5.1211    4.4004   -0.1247 C   0  0  0  0  0  0  0  0  0  0  0  0
   -5.9629    3.3110   -0.2318 C   0  0  0  0  0  0  0  0  0  0  0  0
   -5.3826    2.0591   -0.2247 C   0  0  0  0  0  0  0  0  0  0  0  0
    2.8584   -0.4944   -0.4536 N   0  0  0  0  0  0  0  0  0  0  0  0
    4.2627   -0.7479   -0.3879 C   0  0  0  0  0  0  0  0  0  0  0  0
    5.0899   -0.1258   -1.4568 C   0  0  0  0  0  0  0  0  0  0  0  0
    6.5352   -0.1242   -1.0754 C   0  0  0  0  0  0  0  0  0  0  0  0
    6.8601    0.6416    0.1957 C   0  0  0  0  0  0  0  0  0  0  0  0
    5.5640    0.8419    0.9871 C   0  0  0  0  0  0  0  0  0  0  0  0
    4.8704   -0.4981    0.9942 C   0  0  0  0  0  0  0  0  0  0  0  0
    0.6351    2.3259    0.3687 H   0  0  0  0  0  0  0  0  0  0  0  0
    1.2059   -2.4003    0.3092 H   0  0  0  0  0  0  0  0  0  0  0  0
   -2.1320   -2.5946   -0.8952 H   0  0  0  0  0  0  0  0  0  0  0  0
   -1.5155   -3.6650    1.0214 H   0  0  0  0  0  0  0  0  0  0  0  0
   -2.1048   -2.2482    2.0818 H   0  0  0  0  0  0  0  0  0  0  0  0
   -4.1994   -3.0960    2.1422 H   0  0  0  0  0  0  0  0  0  0  0  0
   -3.5287   -4.6809    1.5022 H   0  0  0  0  0  0  0  0  0  0  0  0
   -5.4528   -3.3546    0.1628 H   0  0  0  0  0  0  0  0  0  0  0  0
   -4.0026   -3.8660   -0.8154 H   0  0  0  0  0  0  0  0  0  0  0  0
   -4.3223   -1.4199   -1.0074 H   0  0  0  0  0  0  0  0  0  0  0  0
   -4.3323   -1.3387    0.8505 H   0  0  0  0  0  0  0  0  0  0  0  0
   -3.0579    5.0689    0.0705 H   0  0  0  0  0  0  0  0  0  0  0  0
   -5.4754    5.4290   -0.1234 H   0  0  0  0  0  0  0  0  0  0  0  0
   -7.0190    3.4674   -0.3122 H   0  0  0  0  0  0  0  0  0  0  0  0
   -5.9909    1.1489   -0.2930 H   0  0  0  0  0  0  0  0  0  0  0  0
    2.3961   -0.7182   -1.4049 H   0  0  0  0  0  0  0  0  0  0  0  0
    4.3626   -1.8836   -0.4615 H   0  0  0  0  0  0  0  0  0  0  0  0
    4.7169    0.8940   -1.7465 H   0  0  0  0  0  0  0  0  0  0  0  0
    5.0103   -0.7348   -2.3879 H   0  0  0  0  0  0  0  0  0  0  0  0
    6.8154   -1.2088   -0.9307 H   0  0  0  0  0  0  0  0  0  0  0  0
    7.2130    0.2030   -1.8963 H   0  0  0  0  0  0  0  0  0  0  0  0
    7.6068    0.0550    0.7745 H   0  0  0  0  0  0  0  0  0  0  0  0
    7.2738    1.6348   -0.0402 H   0  0  0  0  0  0  0  0  0  0  0  0
    4.9955    1.6331    0.4597 H   0  0  0  0  0  0  0  0  0  0  0  0
    5.8244    1.1638    1.9954 H   0  0  0  0  0  0  0  0  0  0  0  0
    4.2349   -0.6994    1.8207 H   0  0  0  0  0  0  0  0  0  0  0  0
    5.7482   -1.2303    1.1315 H   0  0  0  0  0  0  0  0  0  0  0  0
  1  2  2  0
  2  3  1  0
  3  4  2  0
  4  5  1  0
  5  6  2  0
  6  7  1  0
  7  8  1  0
  8  9  2  3
  7 10  1  0
 10 11  1  0
 11 12  1  0
 12 13  1  0
 13 14  1  0
  6 15  1  0
 15 16  2  0
 16 17  1  0
 17 18  1  0
 18 19  2  0
 17 20  1  0
 20 21  2  0
 21 22  1  0
 22 23  2  0
  2 24  1  0
 24 25  1  0
 25 26  1  0
 26 27  1  0
 27 28  1  0
 28 29  1  0
 29 30  1  0
  8  3  1  0
 14 10  1  0
 23 16  1  0
 30 25  1  0
 18  5  1  0
  4 31  1  0
  9 32  1  0
 10 33  1  0
 11 34  1  0
 11 35  1  0
 12 36  1  0
 12 37  1  0
 13 38  1  0
 13 39  1  0
 14 40  1  0
 14 41  1  0
 20 42  1  0
 21 43  1  0
 22 44  1  0
 23 45  1  0
 24 46  1  0
 25 47  1  0
 26 48  1  0
 26 49  1  0
 27 50  1  0
 27 51  1  0
 28 52  1  0
 28 53  1  0
 29 54  1  0
 29 55  1  0
 30 56  1  0
 30 57  1  0
M  END
>  <Ligand ID>  (1) 
LIG0003062

>  <Ligand>  (1) 
MLS-0437147.0001

>  <SMILES>  (1) 
O=C(c1cc2c(n(c1=N)C1CCCC1)nc1n(c2=O)cccc1)NC1CCCCC1

>  <CID>  (1) 
1050207.0

>  <ChEMBL ID>  (1) 
nan

>  <InChiKey>  (1) 
QKLASGDQCHUAJT-UHFFFAOYSA-N

>  <InChi>  (1) 
InChI=1S/C23H27N5O2/c24-20-17(22(29)25-15-8-2-1-3-9-15)14-18-21(28(20)16-10-4-5-11-16)26-19-12-6-7-13-27(19)23(18)30/h6-7,12-16,24H,1-5,8-11H2,(H,25,29)

>  <IUPAC Name>  (1) 
N-cyclohexyl-7-cyclopentyl-6-imino-2-oxo-1,7,9-triazatricyclo[8.4.0.03,8]tetradeca-3(8),4,9,11,13-pentaene-5-carboxamide

$$$$
