
     RDKit          3D

 19 19  0  0  0  0  0  0  0  0999 V2000
   -3.5034   -0.1398   -0.1170 N   0  0  0  0  0  0  0  0  0  0  0  0
   -2.2166    0.5404   -0.0158 C   0  0  0  0  0  0  0  0  0  0  0  0
   -1.1778   -0.5252   -0.0511 C   0  0  0  0  0  0  0  0  0  0  0  0
   -1.5924   -1.7294   -0.1551 O   0  0  0  0  0  0  0  0  0  0  0  0
    0.2360   -0.2152    0.0283 C   0  0  0  0  0  0  0  0  0  0  0  0
    0.7281    1.0758    0.1417 C   0  0  0  0  0  0  0  0  0  0  0  0
    2.0948    1.3011    0.2131 C   0  0  0  0  0  0  0  0  0  0  0  0
    2.9698    0.2331    0.1711 C   0  0  0  0  0  0  0  0  0  0  0  0
    2.5103   -1.0650    0.0585 C   0  0  0  0  0  0  0  0  0  0  0  0
    1.1423   -1.2566   -0.0106 C   0  0  0  0  0  0  0  0  0  0  0  0
   -4.0605    0.2242   -0.9122 H   0  0  0  0  0  0  0  0  0  0  0  0
   -3.4304   -1.1541   -0.2052 H   0  0  0  0  0  0  0  0  0  0  0  0
   -2.0702    1.3093   -0.7861 H   0  0  0  0  0  0  0  0  0  0  0  0
   -2.2467    1.0079    1.0116 H   0  0  0  0  0  0  0  0  0  0  0  0
    0.0479    1.9005    0.1740 H   0  0  0  0  0  0  0  0  0  0  0  0
    2.5102    2.2979    0.3021 H   0  0  0  0  0  0  0  0  0  0  0  0
    4.0518    0.3712    0.2247 H   0  0  0  0  0  0  0  0  0  0  0  0
    3.2102   -1.9019    0.0261 H   0  0  0  0  0  0  0  0  0  0  0  0
    0.7965   -2.2739   -0.0982 H   0  0  0  0  0  0  0  0  0  0  0  0
  1  2  1  0
  2  3  1  0
  3  4  2  0
  3  5  1  0
  5  6  2  0
  6  7  1  0
  7  8  2  0
  8  9  1  0
  9 10  2  0
 10  5  1  0
  1 11  1  0
  1 12  1  0
  2 13  1  0
  2 14  1  0
  6 15  1  0
  7 16  1  0
  8 17  1  0
  9 18  1  0
 10 19  1  0
M  END
>  <Ligand ID>  (1) 
LIG0000446

>  <Ligand>  (1) 
2-Aminoacetophenone

>  <SMILES>  (1) 
NCC(=O)c1ccccc1

>  <CID>  (1) 
11952.0

>  <ChEMBL ID>  (1) 
nan

>  <InChiKey>  (1) 
HEQOJEGTZCTHCF-UHFFFAOYSA-N

>  <InChi>  (1) 
InChI=1S/C8H9NO/c9-6-8(10)7-4-2-1-3-5-7/h1-5H,6,9H2

>  <IUPAC Name>  (1) 
2-amino-1-phenylethanone

$$$$
