
     RDKit          3D

 61 64  0  0  0  0  0  0  0  0999 V2000
   -0.9989   -1.6776    1.9921 O   0  0  0  0  0  0  0  0  0  0  0  0
   -0.6416   -0.8935    1.0756 C   0  0  0  0  0  0  0  0  0  0  0  0
   -1.5720   -0.2448    0.1592 C   0  0  0  0  0  0  0  0  0  0  0  0
   -1.9888    1.0333    0.5651 C   0  0  0  0  0  0  0  0  0  0  0  0
   -2.8417    1.7513   -0.2314 C   0  0  0  0  0  0  0  0  0  0  0  0
   -3.2876    1.2281   -1.4186 C   0  0  0  0  0  0  0  0  0  0  0  0
   -2.8638   -0.0239   -1.7896 C   0  0  0  0  0  0  0  0  0  0  0  0
   -1.9976   -0.8017   -1.0208 C   0  0  0  0  0  0  0  0  0  0  0  0
   -1.6244   -2.1072   -1.4571 N   0  0  0  0  0  0  0  0  0  0  0  0
   -2.0080   -2.5762   -2.7972 C   0  0  0  0  0  0  0  0  0  0  0  0
   -1.8184   -4.0685   -2.7913 C   0  0  0  0  0  0  0  0  0  0  0  0
   -0.8415   -4.3546   -1.7003 C   0  0  0  0  0  0  0  0  0  0  0  0
   -0.9017   -3.1465   -0.7793 C   0  0  0  0  0  0  0  0  0  0  0  0
   -3.3494    3.3406    0.2922 S   0  0  0  0  0  0  0  0  0  0  0  0
   -2.2498    3.9300    1.1129 O   0  0  0  0  0  0  0  0  0  0  0  0
   -3.5918    4.2337   -0.8693 O   0  0  0  0  0  0  0  0  0  0  0  0
   -4.7858    3.1030    1.2153 N   0  0  0  0  0  0  0  0  0  0  0  0
   -4.5852    2.2996    2.3710 C   0  0  0  0  0  0  0  0  0  0  0  0
   -5.9162    2.7754    0.4184 C   0  0  0  0  0  0  0  0  0  0  0  0
    0.7592   -0.5834    0.8826 N   0  0  0  0  0  0  0  0  0  0  0  0
    1.2195    0.3038   -0.1466 C   0  0  0  0  0  0  0  0  0  0  0  0
    2.3774    1.1181    0.4478 C   0  0  0  0  0  0  0  0  0  0  0  0
    3.4691    0.2131    0.7410 N   0  0  0  0  0  0  0  0  0  0  0  0
    3.0990   -1.1384    1.1446 C   0  0  0  0  0  0  0  0  0  0  0  0
    1.7181   -1.1901    1.7577 C   0  0  0  0  0  0  0  0  0  0  0  0
    4.8174    0.6195    0.6431 C   0  0  0  0  0  0  0  0  0  0  0  0
    5.1423    1.9119    0.3156 C   0  0  0  0  0  0  0  0  0  0  0  0
    6.4761    2.3083    0.2177 C   0  0  0  0  0  0  0  0  0  0  0  0
    7.5199    1.4335    0.4419 C   0  0  0  0  0  0  0  0  0  0  0  0
    7.1889    0.1383    0.7701 C   0  0  0  0  0  0  0  0  0  0  0  0
    5.8565   -0.2564    0.8675 C   0  0  0  0  0  0  0  0  0  0  0  0
   -1.6559    1.4727    1.4931 H   0  0  0  0  0  0  0  0  0  0  0  0
   -3.9711    1.7996   -2.0611 H   0  0  0  0  0  0  0  0  0  0  0  0
   -3.2538   -0.3861   -2.7490 H   0  0  0  0  0  0  0  0  0  0  0  0
   -1.3367   -2.1167   -3.5376 H   0  0  0  0  0  0  0  0  0  0  0  0
   -3.0822   -2.3777   -3.0158 H   0  0  0  0  0  0  0  0  0  0  0  0
   -2.7879   -4.6031   -2.6179 H   0  0  0  0  0  0  0  0  0  0  0  0
   -1.3920   -4.4013   -3.7789 H   0  0  0  0  0  0  0  0  0  0  0  0
   -1.0931   -5.2850   -1.1834 H   0  0  0  0  0  0  0  0  0  0  0  0
    0.1879   -4.3587   -2.1206 H   0  0  0  0  0  0  0  0  0  0  0  0
   -1.5398   -3.4888    0.0781 H   0  0  0  0  0  0  0  0  0  0  0  0
    0.0888   -2.7963   -0.5013 H   0  0  0  0  0  0  0  0  0  0  0  0
   -5.2932    2.4620    3.1830 H   0  0  0  0  0  0  0  0  0  0  0  0
   -3.5622    2.5584    2.7675 H   0  0  0  0  0  0  0  0  0  0  0  0
   -4.5554    1.2256    2.0767 H   0  0  0  0  0  0  0  0  0  0  0  0
   -5.8295    3.0383   -0.6420 H   0  0  0  0  0  0  0  0  0  0  0  0
   -6.8411    3.1337    0.9099 H   0  0  0  0  0  0  0  0  0  0  0  0
   -5.9971    1.6481    0.4234 H   0  0  0  0  0  0  0  0  0  0  0  0
    1.6188   -0.3167   -0.9793 H   0  0  0  0  0  0  0  0  0  0  0  0
    0.4283    1.0161   -0.4571 H   0  0  0  0  0  0  0  0  0  0  0  0
    2.6075    1.8726   -0.3212 H   0  0  0  0  0  0  0  0  0  0  0  0
    1.9861    1.6497    1.3346 H   0  0  0  0  0  0  0  0  0  0  0  0
    3.8328   -1.5447    1.8822 H   0  0  0  0  0  0  0  0  0  0  0  0
    3.1173   -1.7672    0.2514 H   0  0  0  0  0  0  0  0  0  0  0  0
    1.6575   -0.7529    2.7578 H   0  0  0  0  0  0  0  0  0  0  0  0
    1.4900   -2.2890    1.8620 H   0  0  0  0  0  0  0  0  0  0  0  0
    4.4138    2.6832    0.1192 H   0  0  0  0  0  0  0  0  0  0  0  0
    6.7500    3.3252   -0.0399 H   0  0  0  0  0  0  0  0  0  0  0  0
    8.5477    1.7608    0.3609 H   0  0  0  0  0  0  0  0  0  0  0  0
    7.9862   -0.5485    0.9460 H   0  0  0  0  0  0  0  0  0  0  0  0
    5.6993   -1.2920    1.1293 H   0  0  0  0  0  0  0  0  0  0  0  0
  1  2  2  0
  2  3  1  0
  3  4  2  0
  4  5  1  0
  5  6  2  0
  6  7  1  0
  7  8  2  0
  8  9  1  0
  9 10  1  0
 10 11  1  0
 11 12  1  0
 12 13  1  0
  5 14  1  0
 14 15  2  0
 14 16  2  0
 14 17  1  0
 17 18  1  0
 17 19  1  0
  2 20  1  0
 20 21  1  0
 21 22  1  0
 22 23  1  0
 23 24  1  0
 24 25  1  0
 23 26  1  0
 26 27  2  0
 27 28  1  0
 28 29  2  0
 29 30  1  0
 30 31  2  0
  8  3  1  0
 13  9  1  0
 25 20  1  0
 31 26  1  0
  4 32  1  0
  6 33  1  0
  7 34  1  0
 10 35  1  0
 10 36  1  0
 11 37  1  0
 11 38  1  0
 12 39  1  0
 12 40  1  0
 13 41  1  0
 13 42  1  0
 18 43  1  0
 18 44  1  0
 18 45  1  0
 19 46  1  0
 19 47  1  0
 19 48  1  0
 21 49  1  0
 21 50  1  0
 22 51  1  0
 22 52  1  0
 24 53  1  0
 24 54  1  0
 25 55  1  0
 25 56  1  0
 27 57  1  0
 28 58  1  0
 29 59  1  0
 30 60  1  0
 31 61  1  0
M  END
>  <Ligand ID>  (1) 
LIG0001966

>  <Ligand>  (1) 
MLS-0435528.0001

>  <SMILES>  (1) 
O=C(c1cc(ccc1N1CCCC1)S(=O)(=O)N(C)C)N1CCN(CC1)c1ccccc1

>  <CID>  (1) 
2466259.0

>  <ChEMBL ID>  (1) 
nan

>  <InChiKey>  (1) 
HEKAKRIKHWYOMJ-UHFFFAOYSA-N

>  <InChi>  (1) 
InChI=1S/C23H30N4O3S/c1-24(2)31(29,30)20-10-11-22(26-12-6-7-13-26)21(18-20)23(28)27-16-14-25(15-17-27)19-8-4-3-5-9-19/h3-5,8-11,18H,6-7,12-17H2,1-2H3

>  <IUPAC Name>  (1) 
N,N-dimethyl-3-(4-phenylpiperazine-1-carbonyl)-4-pyrrolidin-1-ylbenzenesulfonamide

$$$$
