
     RDKit          3D

 42 45  0  0  0  0  0  0  0  0999 V2000
    8.2004    3.0132    0.7174 N   0  0  0  0  0  0  0  0  0  0  0  0
    7.2564    2.3798    0.5040 C   0  0  0  0  0  0  0  0  0  0  0  0
    6.0958    1.5880    0.2191 C   0  0  0  0  0  0  0  0  0  0  0  0
    5.9275    1.0957   -1.0602 C   0  0  0  0  0  0  0  0  0  0  0  0
    4.8163    0.3289   -1.3619 C   0  0  0  0  0  0  0  0  0  0  0  0
    3.8744    0.0517   -0.3950 C   0  0  0  0  0  0  0  0  0  0  0  0
    4.0402    0.5427    0.8852 C   0  0  0  0  0  0  0  0  0  0  0  0
    5.1504    1.3111    1.1938 C   0  0  0  0  0  0  0  0  0  0  0  0
    2.6605   -0.7647   -0.6550 C   0  0  0  0  0  0  0  0  0  0  0  0
    1.3547    0.3622   -1.1833 S   0  0  0  0  0  0  0  0  0  0  0  0
   -0.1796   -0.5152   -1.5308 C   0  0  0  0  0  0  0  0  0  0  0  0
   -0.5585   -1.0465   -2.7288 N   0  0  0  0  0  0  0  0  0  0  0  0
   -1.7533   -1.6087   -2.5701 N   0  0  0  0  0  0  0  0  0  0  0  0
   -2.1301   -1.4376   -1.2882 C   0  0  0  0  0  0  0  0  0  0  0  0
   -1.1709   -0.7628   -0.6251 N   0  0  0  0  0  0  0  0  0  0  0  0
   -1.1055   -0.3446    0.7371 C   0  0  0  0  0  0  0  0  0  0  0  0
   -1.6487    0.9679    1.0337 C   0  0  0  0  0  0  0  0  0  0  0  0
   -1.0533    2.1977    1.0386 C   0  0  0  0  0  0  0  0  0  0  0  0
   -1.7352    3.2943    1.3429 C   0  0  0  0  0  0  0  0  0  0  0  0
   -3.1167    3.0907    1.6594 C   0  0  0  0  0  0  0  0  0  0  0  0
   -3.3736    1.2914    1.5003 S   0  0  0  0  0  0  0  0  0  0  0  0
   -3.3814   -1.9087   -0.7069 C   0  0  0  0  0  0  0  0  0  0  0  0
   -4.4922   -1.9771   -1.5267 C   0  0  0  0  0  0  0  0  0  0  0  0
   -5.6998   -2.4230   -0.9997 C   0  0  0  0  0  0  0  0  0  0  0  0
   -5.7736   -2.7895    0.3280 C   0  0  0  0  0  0  0  0  0  0  0  0
   -4.6438   -2.7141    1.1396 C   0  0  0  0  0  0  0  0  0  0  0  0
   -3.5141   -2.2783    0.5749 N   0  0  0  0  0  0  0  0  0  0  0  0
    6.6495    1.2921   -1.8547 H   0  0  0  0  0  0  0  0  0  0  0  0
    4.6766   -0.0647   -2.3743 H   0  0  0  0  0  0  0  0  0  0  0  0
    3.3331    0.3567    1.6839 H   0  0  0  0  0  0  0  0  0  0  0  0
    5.3234    1.7181    2.1840 H   0  0  0  0  0  0  0  0  0  0  0  0
    2.8465   -1.5250   -1.4437 H   0  0  0  0  0  0  0  0  0  0  0  0
    2.3709   -1.3466    0.2602 H   0  0  0  0  0  0  0  0  0  0  0  0
   -0.0299   -0.3588    1.0795 H   0  0  0  0  0  0  0  0  0  0  0  0
   -1.6019   -1.1088    1.3703 H   0  0  0  0  0  0  0  0  0  0  0  0
    0.0418    2.2532    0.7747 H   0  0  0  0  0  0  0  0  0  0  0  0
   -1.3637    4.3097    1.3766 H   0  0  0  0  0  0  0  0  0  0  0  0
   -3.8934    3.8418    1.9443 H   0  0  0  0  0  0  0  0  0  0  0  0
   -4.4526   -1.6910   -2.5807 H   0  0  0  0  0  0  0  0  0  0  0  0
   -6.5713   -2.4774   -1.6403 H   0  0  0  0  0  0  0  0  0  0  0  0
   -6.7022   -3.1461    0.7859 H   0  0  0  0  0  0  0  0  0  0  0  0
   -4.6733   -2.9975    2.1922 H   0  0  0  0  0  0  0  0  0  0  0  0
  1  2  3  0
  2  3  1  0
  3  4  2  0
  4  5  1  0
  5  6  2  0
  6  7  1  0
  7  8  2  0
  6  9  1  0
  9 10  1  0
 10 11  1  0
 11 12  2  0
 12 13  1  0
 13 14  2  0
 14 15  1  0
 15 16  1  0
 16 17  1  0
 17 18  2  0
 18 19  1  0
 19 20  2  0
 20 21  1  0
 14 22  1  0
 22 23  2  0
 23 24  1  0
 24 25  2  0
 25 26  1  0
 26 27  2  0
  8  3  1  0
 15 11  1  0
 21 17  1  0
 27 22  1  0
  4 28  1  0
  5 29  1  0
  7 30  1  0
  8 31  1  0
  9 32  1  0
  9 33  1  0
 16 34  1  0
 16 35  1  0
 18 36  1  0
 19 37  1  0
 20 38  1  0
 23 39  1  0
 24 40  1  0
 25 41  1  0
 26 42  1  0
M  END
>  <Ligand ID>  (1) 
LIG0002781

>  <Ligand>  (1) 
KUC104193N

>  <SMILES>  (1) 
N#Cc1ccc(cc1)CSc1nnc(n1Cc1cccs1)c1ccccn1

>  <CID>  (1) 
44620938.0

>  <ChEMBL ID>  (1) 
nan

>  <InChiKey>  (1) 
NHFYEVHIPLHTOS-UHFFFAOYSA-N

>  <InChi>  (1) 
InChI=1S/C20H15N5S2/c21-12-15-6-8-16(9-7-15)14-27-20-24-23-19(18-5-1-2-10-22-18)25(20)13-17-4-3-11-26-17/h1-11H,13-14H2

>  <IUPAC Name>  (1) 
4-[[5-pyridin-2-yl-4-(thiophen-2-ylmethyl)-1,2,4-triazol-3-yl]sulfanylmethyl]benzonitrile

$$$$
