
     RDKit          3D

 18 17  0  0  0  0  0  0  0  0999 V2000
   -1.5905    0.0300    1.4258 C   0  0  0  0  0  0  0  0  0  0  0  0
   -1.6353    0.6371    0.0606 C   0  0  0  0  0  0  0  0  0  0  0  0
   -1.0088   -0.1665   -1.0169 C   0  0  0  0  0  0  0  0  0  0  0  0
    0.4152   -0.4535   -0.8900 C   0  0  0  0  0  0  0  0  0  0  0  0
    0.8902   -1.3556   -1.6680 O   0  0  0  0  0  0  0  0  0  0  0  0
    1.3344    0.1907    0.0337 C   0  0  0  0  0  0  0  0  0  0  0  0
    1.0147    1.0987    0.8378 O   0  0  0  0  0  0  0  0  0  0  0  0
    2.7793   -0.2238    0.0660 C   0  0  0  0  0  0  0  0  0  0  0  0
   -2.5951   -0.4423    1.6609 H   0  0  0  0  0  0  0  0  0  0  0  0
   -0.8237   -0.7797    1.5438 H   0  0  0  0  0  0  0  0  0  0  0  0
   -1.3615    0.8345    2.1513 H   0  0  0  0  0  0  0  0  0  0  0  0
   -1.2613    1.6870    0.0998 H   0  0  0  0  0  0  0  0  0  0  0  0
   -2.7237    0.7613   -0.2139 H   0  0  0  0  0  0  0  0  0  0  0  0
   -1.5751   -1.1102   -1.1334 H   0  0  0  0  0  0  0  0  0  0  0  0
   -1.1313    0.4210   -1.9735 H   0  0  0  0  0  0  0  0  0  0  0  0
    3.4302    0.5267    0.5079 H   0  0  0  0  0  0  0  0  0  0  0  0
    3.0352   -0.4333   -1.0131 H   0  0  0  0  0  0  0  0  0  0  0  0
    2.8070   -1.2221    0.5685 H   0  0  0  0  0  0  0  0  0  0  0  0
  1  2  1  0
  2  3  1  0
  3  4  1  0
  4  5  2  0
  4  6  1  0
  6  7  2  0
  6  8  1  0
  1  9  1  0
  1 10  1  0
  1 11  1  0
  2 12  1  0
  2 13  1  0
  3 14  1  0
  3 15  1  0
  8 16  1  0
  8 17  1  0
  8 18  1  0
M  END
>  <Ligand ID>  (1) 
LIG0000108

>  <Ligand>  (1) 
2,3-Hexanedione

>  <SMILES>  (1) 
CCCC(=O)C(=O)C

>  <CID>  (1) 
19707.0

>  <ChEMBL ID>  (1) 
nan

>  <InChiKey>  (1) 
MWVFCEVNXHTDNF-UHFFFAOYSA-N

>  <InChi>  (1) 
InChI=1S/C6H10O2/c1-3-4-6(8)5(2)7/h3-4H2,1-2H3

>  <IUPAC Name>  (1) 
hexane-2,3-dione

$$$$
