
     RDKit          3D

 50 53  0  0  0  0  0  0  0  0999 V2000
   -7.8005    2.8876    0.6583 O   0  0  0  0  0  0  0  0  0  0  0  0
   -7.8256    1.6286    0.0420 C   0  0  0  0  0  0  0  0  0  0  0  0
   -8.6424    0.8067    0.5121 O   0  0  0  0  0  0  0  0  0  0  0  0
   -6.9050    1.4108   -1.0734 C   0  0  0  0  0  0  0  0  0  0  0  0
   -5.5270    0.9355   -0.6950 C   0  0  0  0  0  0  0  0  0  0  0  0
   -5.5729   -0.3525   -0.0188 C   0  0  0  0  0  0  0  0  0  0  0  0
   -6.7103   -0.8447    0.2505 O   0  0  0  0  0  0  0  0  0  0  0  0
   -4.4472   -1.1321    0.3810 N   0  0  0  0  0  0  0  0  0  0  0  0
   -4.5520   -2.4013    1.1237 C   0  0  0  0  0  0  0  0  0  0  0  0
   -3.2459   -3.1079    0.9128 C   0  0  0  0  0  0  0  0  0  0  0  0
   -2.3187   -2.0249    0.5002 C   0  0  0  0  0  0  0  0  0  0  0  0
   -3.0655   -0.8986    0.1948 C   0  0  0  0  0  0  0  0  0  0  0  0
   -2.3523    0.2060   -0.2172 C   0  0  0  0  0  0  0  0  0  0  0  0
   -0.9740    0.2095   -0.3246 C   0  0  0  0  0  0  0  0  0  0  0  0
   -0.2486   -0.9225   -0.0148 C   0  0  0  0  0  0  0  0  0  0  0  0
   -0.9446   -2.0392    0.3990 C   0  0  0  0  0  0  0  0  0  0  0  0
    1.1936   -1.0116   -0.0941 C   0  0  0  0  0  0  0  0  0  0  0  0
    1.8931   -2.1315   -0.3893 N   0  0  0  0  0  0  0  0  0  0  0  0
    3.1676   -1.8752   -0.3776 O   0  0  0  0  0  0  0  0  0  0  0  0
    3.3433   -0.5976   -0.0788 C   0  0  0  0  0  0  0  0  0  0  0  0
    2.1370   -0.0652    0.0956 N   0  0  0  0  0  0  0  0  0  0  0  0
    4.6444    0.0312    0.0209 C   0  0  0  0  0  0  0  0  0  0  0  0
    5.7985   -0.6817   -0.1972 C   0  0  0  0  0  0  0  0  0  0  0  0
    7.0594   -0.1384   -0.1169 C   0  0  0  0  0  0  0  0  0  0  0  0
    7.1800    1.2010    0.2008 C   0  0  0  0  0  0  0  0  0  0  0  0
    6.0220    1.9532    0.4284 C   0  0  0  0  0  0  0  0  0  0  0  0
    4.7742    1.3657    0.3370 C   0  0  0  0  0  0  0  0  0  0  0  0
    6.0721    3.3893    0.7721 C   0  0  0  0  0  0  0  0  0  0  0  0
    5.3945    3.5559    1.9819 F   0  0  0  0  0  0  0  0  0  0  0  0
    5.4288    4.0786   -0.2399 F   0  0  0  0  0  0  0  0  0  0  0  0
    7.3645    3.8161    0.9427 F   0  0  0  0  0  0  0  0  0  0  0  0
    8.3052   -0.9115   -0.3537 C   0  0  0  0  0  0  0  0  0  0  0  0
    8.0186   -2.2597   -0.4727 F   0  0  0  0  0  0  0  0  0  0  0  0
    9.1782   -0.7930    0.7251 F   0  0  0  0  0  0  0  0  0  0  0  0
    8.9692   -0.4969   -1.4941 F   0  0  0  0  0  0  0  0  0  0  0  0
   -8.3065    3.0382    1.5152 H   0  0  0  0  0  0  0  0  0  0  0  0
   -6.8675    2.3513   -1.6768 H   0  0  0  0  0  0  0  0  0  0  0  0
   -7.3805    0.6597   -1.7692 H   0  0  0  0  0  0  0  0  0  0  0  0
   -4.9437    0.8848   -1.6337 H   0  0  0  0  0  0  0  0  0  0  0  0
   -5.0491    1.7356   -0.0663 H   0  0  0  0  0  0  0  0  0  0  0  0
   -5.4146   -2.9951    0.7992 H   0  0  0  0  0  0  0  0  0  0  0  0
   -4.6463   -2.1796    2.2189 H   0  0  0  0  0  0  0  0  0  0  0  0
   -3.3391   -3.7991    0.0460 H   0  0  0  0  0  0  0  0  0  0  0  0
   -2.9285   -3.6052    1.8414 H   0  0  0  0  0  0  0  0  0  0  0  0
   -2.8665    1.0993   -0.4696 H   0  0  0  0  0  0  0  0  0  0  0  0
   -0.4463    1.0917   -0.6513 H   0  0  0  0  0  0  0  0  0  0  0  0
   -0.4065   -2.9340    0.6465 H   0  0  0  0  0  0  0  0  0  0  0  0
    5.7616   -1.7496   -0.4532 H   0  0  0  0  0  0  0  0  0  0  0  0
    8.1547    1.6948    0.2809 H   0  0  0  0  0  0  0  0  0  0  0  0
    3.8672    1.9175    0.5065 H   0  0  0  0  0  0  0  0  0  0  0  0
  1  2  1  0
  2  3  2  0
  2  4  1  0
  4  5  1  0
  5  6  1  0
  6  7  2  0
  6  8  1  0
  8  9  1  0
  9 10  1  0
 10 11  1  0
 11 12  2  0
 12 13  1  0
 13 14  2  0
 14 15  1  0
 15 16  2  0
 15 17  1  0
 17 18  2  0
 18 19  1  0
 19 20  1  0
 20 21  2  0
 20 22  1  0
 22 23  2  0
 23 24  1  0
 24 25  2  0
 25 26  1  0
 26 27  2  0
 26 28  1  0
 28 29  1  0
 28 30  1  0
 28 31  1  0
 24 32  1  0
 32 33  1  0
 32 34  1  0
 32 35  1  0
 12  8  1  0
 21 17  1  0
 27 22  1  0
 16 11  1  0
  1 36  1  0
  4 37  1  0
  4 38  1  0
  5 39  1  0
  5 40  1  0
  9 41  1  0
  9 42  1  0
 10 43  1  0
 10 44  1  0
 13 45  1  0
 14 46  1  0
 16 47  1  0
 23 48  1  0
 25 49  1  0
 27 50  1  0
M  END
>  <Ligand ID>  (1) 
LIG0000675

>  <Ligand>  (1) 
CHEMBL1916559

>  <SMILES>  (1) 
OC(=O)CCC(=O)N1CCc2c1ccc(c2)c1noc(n1)c1cc(cc(c1)C(F)(F)F)C(F)(F)F

>  <CID>  (1) 
44547414.0

>  <ChEMBL ID>  (1) 
nan

>  <InChiKey>  (1) 
YGAMOUONCVBLTE-UHFFFAOYSA-N

>  <InChi>  (1) 
InChI=1S/C22H15F6N3O4/c23-21(24,25)14-8-13(9-15(10-14)22(26,27)28)20-29-19(30-35-20)12-1-2-16-11(7-12)5-6-31(16)17(32)3-4-18(33)34/h1-2,7-10H,3-6H2,(H,33,34)

>  <IUPAC Name>  (1) 
4-[5-[5-[3,5-bis(trifluoromethyl)phenyl]-1,2,4-oxadiazol-3-yl]-2,3-dihydroindol-1-yl]-4-oxobutanoic acid

$$$$
