
     RDKit          3D

215224  0  0  0  0  0  0  0  0999 V2000
   -7.6000    8.4920    7.7837 O   0  0  0  0  0  0  0  0  0  0  0  0
   -7.1456    7.6613    6.7849 C   0  0  0  0  0  0  0  0  0  0  0  0
   -7.5927    6.3426    6.8182 C   0  0  0  0  0  0  0  0  0  0  0  0
   -7.1366    5.5122    5.8238 C   0  0  0  0  0  0  0  0  0  0  0  0
   -6.2843    5.9530    4.8437 C   0  0  0  0  0  0  0  0  0  0  0  0
   -5.8546    7.2583    4.8259 C   0  0  0  0  0  0  0  0  0  0  0  0
   -6.3027    8.0879    5.8098 C   0  0  0  0  0  0  0  0  0  0  0  0
   -5.8636    4.9634    3.7721 C   0  0  0  0  0  0  0  0  0  0  0  0
   -6.8049    5.0897    2.6298 C   0  0  1  0  0  0  0  0  0  0  0  0
   -6.5854    4.1826    1.4734 C   0  0  0  0  0  0  0  0  0  0  0  0
   -7.6079    3.6630    0.9875 O   0  0  0  0  0  0  0  0  0  0  0  0
   -5.2526    3.9643    0.9931 N   0  0  0  0  0  0  0  0  0  0  0  0
   -4.7834    3.1696   -0.0627 C   0  0  1  0  0  0  0  0  0  0  0  0
   -5.7970    2.4451   -0.9339 C   0  0  0  0  0  0  0  0  0  0  0  0
   -6.7474    1.3726    0.1953 S   0  0  0  0  0  0  0  0  0  0  0  0
   -5.5039    0.3169    1.4450 S   0  0  0  0  0  0  0  0  0  0  0  0
   -4.9391   -1.3013    1.0253 C   0  0  0  0  0  0  0  0  0  0  0  0
   -6.0165   -2.3781    1.1628 C   0  0  2  0  0  0  0  0  0  0  0  0
   -5.4295   -3.6981    1.0300 N   0  0  0  0  0  0  0  0  0  0  0  0
   -4.0730   -4.0396    1.0840 C   0  0  0  0  0  0  0  0  0  0  0  0
   -3.1295   -3.2579    1.0574 O   0  0  0  0  0  0  0  0  0  0  0  0
   -3.7982   -5.5624    1.1855 C   0  0  2  0  0  0  0  0  0  0  0  0
   -4.3750   -5.7971    2.6041 C   0  0  0  0  0  0  0  0  0  0  0  0
   -4.3212   -7.1830    3.0718 C   0  0  0  0  0  0  0  0  0  0  0  0
   -3.2179   -7.7409    3.6748 C   0  0  0  0  0  0  0  0  0  0  0  0
   -3.3174   -9.0432    4.1124 C   0  0  0  0  0  0  0  0  0  0  0  0
   -4.4855   -9.7965    3.9629 C   0  0  0  0  0  0  0  0  0  0  0  0
   -5.6081   -9.2353    3.3495 C   0  0  0  0  0  0  0  0  0  0  0  0
   -5.4884   -7.9352    2.9199 C   0  0  0  0  0  0  0  0  0  0  0  0
   -2.3614   -5.6565    1.2836 N   0  0  0  0  0  0  0  0  0  0  0  0
   -1.4130   -6.0528    0.3319 C   0  0  0  0  0  0  0  0  0  0  0  0
   -1.8693   -6.3172   -0.8388 O   0  0  0  0  0  0  0  0  0  0  0  0
   -0.0107   -6.1275    0.6997 C   0  0  2  0  0  0  0  0  0  0  0  0
    0.4551   -5.1774    1.7590 C   0  0  0  0  0  0  0  0  0  0  0  0
    0.9301   -6.0684   -0.4331 N   0  0  0  0  0  0  0  0  0  0  0  0
    2.2432   -5.8022   -0.2592 C   0  0  0  0  0  0  0  0  0  0  0  0
    2.6274   -5.6030    0.9808 O   0  0  0  0  0  0  0  0  0  0  0  0
    3.4238   -5.6514   -1.1792 C   0  0  2  0  0  0  0  0  0  0  0  0
    3.8860   -7.0837   -1.5007 C   0  0  0  0  0  0  0  0  0  0  0  0
    5.0328   -7.0598   -2.4318 C   0  0  0  0  0  0  0  0  0  0  0  0
    6.2454   -7.1293   -2.0654 O   0  0  0  0  0  0  0  0  0  0  0  0
    4.7884   -6.9556   -3.8554 N   0  0  0  0  0  0  0  0  0  0  0  0
    4.3490   -4.8933   -0.3813 N   0  0  0  0  0  0  0  0  0  0  0  0
    5.4682   -4.0649   -0.7284 C   0  0  0  0  0  0  0  0  0  0  0  0
    5.8001   -4.1720   -1.9435 O   0  0  0  0  0  0  0  0  0  0  0  0
    6.0445   -3.2546    0.2904 C   0  0  1  0  0  0  0  0  0  0  0  0
    6.2797   -1.7838    0.0497 N   0  0  0  0  0  0  0  0  0  0  0  0
    7.2502   -1.1302    0.8046 C   0  0  0  0  0  0  0  0  0  0  0  0
    8.3517   -1.7983    0.7956 O   0  0  0  0  0  0  0  0  0  0  0  0
    7.2142    0.1587    1.5701 C   0  0  0  0  0  0  0  0  0  0  0  0
    6.2070    1.4085    1.3057 S   0  0  0  0  0  0  0  0  0  0  0  0
    5.2002    2.6530    1.0432 C   0  0  0  0  0  0  0  0  0  0  0  0
    4.1109    2.6469   -0.0643 C   0  0  1  0  0  0  0  0  0  0  0  0
    3.6134    3.9649   -0.2351 N   0  0  0  0  0  0  0  0  0  0  0  0
    2.2450    4.2202   -0.3941 C   0  0  0  0  0  0  0  0  0  0  0  0
    1.5061    3.1567   -0.4255 O   0  0  0  0  0  0  0  0  0  0  0  0
    1.5348    5.4792   -0.5225 C   0  0  2  0  0  0  0  0  0  0  0  0
    0.0328    5.1875   -0.4862 N   0  0  0  0  0  0  0  0  0  0  0  0
   -0.9075    6.0618   -1.0883 C   0  0  0  0  0  0  0  0  0  0  0  0
   -0.4645    7.0463   -1.7776 O   0  0  0  0  0  0  0  0  0  0  0  0
   -2.3536    6.0224   -1.0704 C   0  0  1  0  0  0  0  0  0  0  0  0
   -3.0731    5.0593   -0.3135 N   0  0  0  0  0  0  0  0  0  0  0  0
   -3.8112    3.9567   -0.8617 C   0  0  0  0  0  0  0  0  0  0  0  0
   -3.5825    3.6717   -2.0626 O   0  0  0  0  0  0  0  0  0  0  0  0
   -2.9987    7.3873   -0.8084 C   0  0  0  0  0  0  0  0  0  0  0  0
   -2.5862    8.3889   -1.8027 C   0  0  0  0  0  0  0  0  0  0  0  0
   -3.1590    8.5109   -3.0394 C   0  0  0  0  0  0  0  0  0  0  0  0
   -2.4693    9.4999   -3.6515 N   0  0  0  0  0  0  0  0  0  0  0  0
   -1.5332    9.9394   -2.8171 C   0  0  0  0  0  0  0  0  0  0  0  0
   -1.5752    9.2578   -1.6300 N   0  0  0  0  0  0  0  0  0  0  0  0
    1.7311    6.1829   -1.8191 C   0  0  0  0  0  0  0  0  0  0  0  0
    3.0345    6.6283   -2.2992 C   0  0  0  0  0  0  0  0  0  0  0  0
    3.8753    5.9167   -3.1247 C   0  0  0  0  0  0  0  0  0  0  0  0
    4.9763    6.5701   -3.6263 C   0  0  0  0  0  0  0  0  0  0  0  0
    5.2998    7.8702   -3.3652 C   0  0  0  0  0  0  0  0  0  0  0  0
    4.4729    8.6076   -2.5359 C   0  0  0  0  0  0  0  0  0  0  0  0
    3.3760    7.9739   -2.0269 C   0  0  0  0  0  0  0  0  0  0  0  0
    4.7220    9.9432   -2.2569 C   0  0  0  0  0  0  0  0  0  0  0  0
    5.8150   10.6174   -2.7968 C   0  0  0  0  0  0  0  0  0  0  0  0
    6.6242    9.8647   -3.6228 C   0  0  0  0  0  0  0  0  0  0  0  0
    6.3899    8.5342   -3.9076 C   0  0  0  0  0  0  0  0  0  0  0  0
    4.6673    1.9835   -1.2781 C   0  0  0  0  0  0  0  0  0  0  0  0
    4.7918    2.4824   -2.4015 O   0  0  0  0  0  0  0  0  0  0  0  0
    5.0752    0.6120   -0.9943 N   0  0  0  0  0  0  0  0  0  0  0  0
    5.7886   -0.2024   -1.9072 C   0  0  1  0  0  0  0  0  0  0  0  0
    7.1804    0.5233   -2.0457 C   0  0  0  0  0  0  0  0  0  0  0  0
    8.1312   -0.2151   -2.9630 C   0  0  0  0  0  0  0  0  0  0  0  0
    9.4293    0.6836   -2.9340 C   0  0  0  0  0  0  0  0  0  0  0  0
    9.8469    0.8149   -1.6514 N   0  0  0  0  0  0  0  0  0  0  0  0
   10.1341    1.0406   -0.5168 C   0  0  0  0  0  0  0  0  0  0  0  0
    9.5479    2.1906    0.1613 N   0  0  0  0  0  0  0  0  0  0  0  0
   11.0383    0.2595    0.3068 N   0  0  0  0  0  0  0  0  0  0  0  0
    6.0293   -1.5292   -1.4033 C   0  0  0  0  0  0  0  0  0  0  0  0
    5.5345   -3.6257    1.6836 C   0  0  0  0  0  0  0  0  0  0  0  0
    6.1241   -4.9307    2.0680 C   0  0  0  0  0  0  0  0  0  0  0  0
    5.8764   -6.2588    1.9795 C   0  0  0  0  0  0  0  0  0  0  0  0
    6.8780   -7.0176    2.4688 N   0  0  0  0  0  0  0  0  0  0  0  0
    7.8364   -6.2020    2.9101 C   0  0  0  0  0  0  0  0  0  0  0  0
    7.4123   -4.9323    2.6869 C   0  0  0  0  0  0  0  0  0  0  0  0
    8.2617   -3.9170    3.1018 C   0  0  0  0  0  0  0  0  0  0  0  0
    9.4733   -4.1373    3.7001 C   0  0  0  0  0  0  0  0  0  0  0  0
    9.8482   -5.4747    3.8963 C   0  0  0  0  0  0  0  0  0  0  0  0
    9.0385   -6.5098    3.5070 C   0  0  0  0  0  0  0  0  0  0  0  0
   -7.1905   -2.1665    0.2936 C   0  0  0  0  0  0  0  0  0  0  0  0
   -7.9825   -1.2157    0.4665 O   0  0  0  0  0  0  0  0  0  0  0  0
   -7.3728   -3.0920   -0.7500 N   0  0  0  0  0  0  0  0  0  0  0  0
   -8.4135   -3.2066   -1.7656 C   0  0  2  0  0  0  0  0  0  0  0  0
   -9.2993   -4.2724   -1.2940 C   0  0  0  0  0  0  0  0  0  0  0  0
  -10.3251   -4.7035   -1.8786 O   0  0  0  0  0  0  0  0  0  0  0  0
   -9.0064   -4.9321   -0.0405 N   0  0  0  0  0  0  0  0  0  0  0  0
   -7.8151   -3.5652   -3.0746 C   0  0  0  0  0  0  0  0  0  0  0  0
   -8.7678   -3.7539   -4.1446 C   0  0  0  0  0  0  0  0  0  0  0  0
   -9.0536   -5.0739   -4.5304 C   0  0  0  0  0  0  0  0  0  0  0  0
   -9.9408   -5.3660   -5.5646 C   0  0  0  0  0  0  0  0  0  0  0  0
  -10.5739   -4.3858   -6.2526 C   0  0  0  0  0  0  0  0  0  0  0  0
  -10.3054   -3.0653   -5.8935 C   0  0  0  0  0  0  0  0  0  0  0  0
   -9.4164   -2.7567   -4.8593 C   0  0  0  0  0  0  0  0  0  0  0  0
  -11.4648   -4.6546   -7.2893 O   0  0  0  0  0  0  0  0  0  0  0  0
   -8.1850    4.9409    3.0805 N   0  0  0  0  0  0  0  0  0  0  0  0
   -7.1910    8.4249    8.7067 H   0  0  0  0  0  0  0  0  0  0  0  0
   -8.2749    5.9985    7.6091 H   0  0  0  0  0  0  0  0  0  0  0  0
   -7.4561    4.4518    5.8009 H   0  0  0  0  0  0  0  0  0  0  0  0
   -5.1698    7.6247    4.0427 H   0  0  0  0  0  0  0  0  0  0  0  0
   -6.0055    9.1550    5.8666 H   0  0  0  0  0  0  0  0  0  0  0  0
   -5.8584    3.9734    4.2399 H   0  0  0  0  0  0  0  0  0  0  0  0
   -4.8281    5.2917    3.4723 H   0  0  0  0  0  0  0  0  0  0  0  0
   -6.7751    6.1341    2.1905 H   0  0  0  0  0  0  0  0  0  0  0  0
   -4.5244    4.4940    1.5728 H   0  0  0  0  0  0  0  0  0  0  0  0
   -4.2376    2.2829    0.4200 H   0  0  0  0  0  0  0  0  0  0  0  0
   -5.2413    1.7998   -1.6211 H   0  0  0  0  0  0  0  0  0  0  0  0
   -6.4353    3.1223   -1.5102 H   0  0  0  0  0  0  0  0  0  0  0  0
   -4.1892   -1.5917    1.8198 H   0  0  0  0  0  0  0  0  0  0  0  0
   -4.5241   -1.2936    0.0039 H   0  0  0  0  0  0  0  0  0  0  0  0
   -6.3145   -2.2562    2.2369 H   0  0  0  0  0  0  0  0  0  0  0  0
   -6.1069   -4.4925    0.9059 H   0  0  0  0  0  0  0  0  0  0  0  0
   -4.3028   -6.1086    0.4313 H   0  0  0  0  0  0  0  0  0  0  0  0
   -5.3927   -5.4089    2.7049 H   0  0  0  0  0  0  0  0  0  0  0  0
   -3.7670   -5.1297    3.3093 H   0  0  0  0  0  0  0  0  0  0  0  0
   -2.3215   -7.1496    3.7905 H   0  0  0  0  0  0  0  0  0  0  0  0
   -2.4280   -9.4564    4.5909 H   0  0  0  0  0  0  0  0  0  0  0  0
   -4.5372  -10.8212    4.3213 H   0  0  0  0  0  0  0  0  0  0  0  0
   -6.5313   -9.7582    3.2058 H   0  0  0  0  0  0  0  0  0  0  0  0
   -6.3597   -7.4653    2.4332 H   0  0  0  0  0  0  0  0  0  0  0  0
   -2.0166   -5.3589    2.2672 H   0  0  0  0  0  0  0  0  0  0  0  0
    0.2265   -7.1474    1.1504 H   0  0  0  0  0  0  0  0  0  0  0  0
   -0.3415   -4.7922    2.4442 H   0  0  0  0  0  0  0  0  0  0  0  0
    1.1878   -5.6936    2.4633 H   0  0  0  0  0  0  0  0  0  0  0  0
    0.9526   -4.2788    1.3680 H   0  0  0  0  0  0  0  0  0  0  0  0
    0.5168   -6.2535   -1.3683 H   0  0  0  0  0  0  0  0  0  0  0  0
    3.1750   -5.1472   -2.1243 H   0  0  0  0  0  0  0  0  0  0  0  0
    3.0671   -7.5927   -2.0958 H   0  0  0  0  0  0  0  0  0  0  0  0
    4.0146   -7.7054   -0.6245 H   0  0  0  0  0  0  0  0  0  0  0  0
    4.0239   -7.4938   -4.3208 H   0  0  0  0  0  0  0  0  0  0  0  0
    5.3488   -6.3400   -4.4767 H   0  0  0  0  0  0  0  0  0  0  0  0
    4.1478   -4.9173    0.6481 H   0  0  0  0  0  0  0  0  0  0  0  0
    7.1890   -3.5239    0.5529 H   0  0  0  0  0  0  0  0  0  0  0  0
    8.3511    0.3510    1.7952 H   0  0  0  0  0  0  0  0  0  0  0  0
    6.9514   -0.2756    2.6974 H   0  0  0  0  0  0  0  0  0  0  0  0
    4.5431    3.0272    1.9274 H   0  0  0  0  0  0  0  0  0  0  0  0
    5.7334    3.6381    0.8012 H   0  0  0  0  0  0  0  0  0  0  0  0
    3.3020    1.9625    0.3211 H   0  0  0  0  0  0  0  0  0  0  0  0
    4.3325    4.7523   -0.2127 H   0  0  0  0  0  0  0  0  0  0  0  0
    1.6943    6.2322    0.3106 H   0  0  0  0  0  0  0  0  0  0  0  0
   -0.2666    4.3145    0.0090 H   0  0  0  0  0  0  0  0  0  0  0  0
   -2.6481    5.7905   -2.1613 H   0  0  0  0  0  0  0  0  0  0  0  0
   -3.0162    5.1948    0.7484 H   0  0  0  0  0  0  0  0  0  0  0  0
   -2.8250    7.7567    0.1990 H   0  0  0  0  0  0  0  0  0  0  0  0
   -4.1164    7.2459   -0.8789 H   0  0  0  0  0  0  0  0  0  0  0  0
   -3.9875    7.9272   -3.4176 H   0  0  0  0  0  0  0  0  0  0  0  0
   -0.7838   10.7198   -2.9554 H   0  0  0  0  0  0  0  0  0  0  0  0
   -0.9544    9.4192   -0.7885 H   0  0  0  0  0  0  0  0  0  0  0  0
    1.1650    5.6848   -2.6653 H   0  0  0  0  0  0  0  0  0  0  0  0
    1.1802    7.2101   -1.7001 H   0  0  0  0  0  0  0  0  0  0  0  0
    3.6090    4.8998   -3.3331 H   0  0  0  0  0  0  0  0  0  0  0  0
    5.6484    6.0187   -4.2845 H   0  0  0  0  0  0  0  0  0  0  0  0
    2.7468    8.5779   -1.3609 H   0  0  0  0  0  0  0  0  0  0  0  0
    4.0296   10.4595   -1.5878 H   0  0  0  0  0  0  0  0  0  0  0  0
    6.0187   11.6705   -2.5870 H   0  0  0  0  0  0  0  0  0  0  0  0
    7.4885   10.3938   -4.0609 H   0  0  0  0  0  0  0  0  0  0  0  0
    7.0441    7.9614   -4.5641 H   0  0  0  0  0  0  0  0  0  0  0  0
    4.8054    0.1604   -0.0811 H   0  0  0  0  0  0  0  0  0  0  0  0
    5.4119   -0.0672   -2.9421 H   0  0  0  0  0  0  0  0  0  0  0  0
    7.6302    0.6632   -1.0602 H   0  0  0  0  0  0  0  0  0  0  0  0
    6.9778    1.5316   -2.4418 H   0  0  0  0  0  0  0  0  0  0  0  0
    7.8141   -0.2200   -3.9936 H   0  0  0  0  0  0  0  0  0  0  0  0
    8.4084   -1.2086   -2.6267 H   0  0  0  0  0  0  0  0  0  0  0  0
   10.1765    0.2532   -3.6191 H   0  0  0  0  0  0  0  0  0  0  0  0
    9.1387    1.6667   -3.3752 H   0  0  0  0  0  0  0  0  0  0  0  0
    8.6954    2.6707   -0.2691 H   0  0  0  0  0  0  0  0  0  0  0  0
    9.9169    2.5705    1.0379 H   0  0  0  0  0  0  0  0  0  0  0  0
   10.6022   -0.0909    1.1840 H   0  0  0  0  0  0  0  0  0  0  0  0
   12.0291    0.0923    0.0298 H   0  0  0  0  0  0  0  0  0  0  0  0
    6.8080   -2.1339   -1.9538 H   0  0  0  0  0  0  0  0  0  0  0  0
    5.0843   -2.1142   -1.6574 H   0  0  0  0  0  0  0  0  0  0  0  0
    5.9012   -2.8369    2.4147 H   0  0  0  0  0  0  0  0  0  0  0  0
    4.4656   -3.6375    1.8137 H   0  0  0  0  0  0  0  0  0  0  0  0
    4.9915   -6.7243    1.5758 H   0  0  0  0  0  0  0  0  0  0  0  0
    6.9229   -8.0563    2.5177 H   0  0  0  0  0  0  0  0  0  0  0  0
    7.9644   -2.8663    3.0139 H   0  0  0  0  0  0  0  0  0  0  0  0
   10.1126   -3.3284    4.0052 H   0  0  0  0  0  0  0  0  0  0  0  0
   10.7955   -5.7437    4.3568 H   0  0  0  0  0  0  0  0  0  0  0  0
    9.3252   -7.5283    3.6640 H   0  0  0  0  0  0  0  0  0  0  0  0
   -6.6240   -3.8296   -0.8538 H   0  0  0  0  0  0  0  0  0  0  0  0
   -8.9636   -2.2440   -1.8129 H   0  0  0  0  0  0  0  0  0  0  0  0
   -8.2409   -4.5815    0.5505 H   0  0  0  0  0  0  0  0  0  0  0  0
   -9.5343   -5.7485    0.3174 H   0  0  0  0  0  0  0  0  0  0  0  0
   -7.2397   -4.5274   -2.9509 H   0  0  0  0  0  0  0  0  0  0  0  0
   -7.0854   -2.7650   -3.4387 H   0  0  0  0  0  0  0  0  0  0  0  0
   -8.5801   -5.9271   -4.0392 H   0  0  0  0  0  0  0  0  0  0  0  0
  -10.1097   -6.4120   -5.7986 H   0  0  0  0  0  0  0  0  0  0  0  0
  -10.7550   -2.2146   -6.3780 H   0  0  0  0  0  0  0  0  0  0  0  0
   -9.2020   -1.7267   -4.5770 H   0  0  0  0  0  0  0  0  0  0  0  0
  -11.1576   -5.2316   -8.0718 H   0  0  0  0  0  0  0  0  0  0  0  0
   -8.8589    5.2422    2.3067 H   0  0  0  0  0  0  0  0  0  0  0  0
   -8.3443    3.9246    3.3012 H   0  0  0  0  0  0  0  0  0  0  0  0
  1  2  1  0
  2  3  2  0
  3  4  1  0
  4  5  2  0
  5  6  1  0
  6  7  2  0
  5  8  1  0
  8  9  1  0
  9 10  1  0
 10 11  2  0
 10 12  1  0
 12 13  1  0
 13 14  1  0
 14 15  1  0
 15 16  1  0
 16 17  1  0
 17 18  1  0
 18 19  1  0
 19 20  1  0
 20 21  2  0
 20 22  1  0
 22 23  1  0
 23 24  1  0
 24 25  2  0
 25 26  1  0
 26 27  2  0
 27 28  1  0
 28 29  2  0
 22 30  1  0
 30 31  1  0
 31 32  2  0
 31 33  1  0
 33 34  1  0
 33 35  1  0
 35 36  1  0
 36 37  2  0
 36 38  1  0
 38 39  1  0
 39 40  1  0
 40 41  2  0
 40 42  1  0
 38 43  1  0
 43 44  1  0
 44 45  2  0
 44 46  1  0
 46 47  1  0
 47 48  1  0
 48 49  2  0
 48 50  1  0
 50 51  1  0
 51 52  1  0
 52 53  1  0
 53 54  1  0
 54 55  1  0
 55 56  2  0
 55 57  1  0
 57 58  1  0
 58 59  1  0
 59 60  2  0
 59 61  1  0
 61 62  1  0
 62 63  1  0
 63 64  2  0
 61 65  1  0
 65 66  1  0
 66 67  2  0
 67 68  1  0
 68 69  2  0
 69 70  1  0
 57 71  1  0
 71 72  1  0
 72 73  2  0
 73 74  1  0
 74 75  2  0
 75 76  1  0
 76 77  2  0
 76 78  1  0
 78 79  2  0
 79 80  1  0
 80 81  2  0
 53 82  1  0
 82 83  2  0
 82 84  1  0
 84 85  1  0
 85 86  1  0
 86 87  1  0
 87 88  1  0
 88 89  1  0
 89 90  2  3
 90 91  1  0
 90 92  1  0
 85 93  1  0
 46 94  1  0
 94 95  1  0
 95 96  2  0
 96 97  1  0
 97 98  1  0
 98 99  2  0
 99100  1  0
100101  2  0
101102  1  0
102103  2  0
 18104  1  0
104105  2  0
104106  1  0
106107  1  0
107108  1  0
108109  2  0
108110  1  0
107111  1  0
111112  1  0
112113  2  0
113114  1  0
114115  2  0
115116  1  0
116117  2  0
115118  1  0
  9119  1  0
  7  2  1  0
 63 13  1  0
 70 66  1  0
 77 72  1  0
 99 95  1  0
117112  1  0
 29 24  1  0
 93 47  1  0
103 98  1  0
 81 75  1  0
  1120  1  0
  3121  1  0
  4122  1  0
  6123  1  0
  7124  1  0
  8125  1  0
  8126  1  0
  9127  1  6
 12128  1  0
 13129  1  1
 14130  1  0
 14131  1  0
 17132  1  0
 17133  1  0
 18134  1  1
 19135  1  0
 22136  1  6
 23137  1  0
 23138  1  0
 25139  1  0
 26140  1  0
 27141  1  0
 28142  1  0
 29143  1  0
 30144  1  0
 33145  1  1
 34146  1  0
 34147  1  0
 34148  1  0
 35149  1  0
 38150  1  6
 39151  1  0
 39152  1  0
 42153  1  0
 42154  1  0
 43155  1  0
 46156  1  1
 50157  1  0
 50158  1  0
 52159  1  0
 52160  1  0
 53161  1  1
 54162  1  0
 57163  1  1
 58164  1  0
 61165  1  6
 62166  1  0
 65167  1  0
 65168  1  0
 67169  1  0
 69170  1  0
 70171  1  0
 71172  1  0
 71173  1  0
 73174  1  0
 74175  1  0
 77176  1  0
 78177  1  0
 79178  1  0
 80179  1  0
 81180  1  0
 84181  1  0
 85182  1  6
 86183  1  0
 86184  1  0
 87185  1  0
 87186  1  0
 88187  1  0
 88188  1  0
 91189  1  0
 91190  1  0
 92191  1  0
 92192  1  0
 93193  1  0
 93194  1  0
 94195  1  0
 94196  1  0
 96197  1  0
 97198  1  0
100199  1  0
101200  1  0
102201  1  0
103202  1  0
106203  1  0
107204  1  6
110205  1  0
110206  1  0
111207  1  0
111208  1  0
113209  1  0
114210  1  0
116211  1  0
117212  1  0
118213  1  0
119214  1  0
119215  1  0
M  END
>  <Ligand ID>  (1) 
LIG0002284

>  <Ligand>  (1) 
BDBM50427694

>  <SMILES>  (1) 
Oc1ccc(cc1)C[C@@H](C(=O)N[C@H]1CSSC[C@H](NC(=O)[C@H](Cc2ccccc2)NC(=O)[C@H](C)NC(=O)[C@H](CC(=O)N)NC(=O)[C@@H](N2C(=O)CSC[C@@H](NC(=O)[C@H](NC(=O)[C@@H](NC1=O)Cc1cnc[nH]1)Cc1ccc3c(c1)cccc3)C(=O)N[C@@H](CCCN=C(N)N)C2)Cc1c[nH]c2c1cccc2)C(=O)N[C@H](C(=O)N)Cc1ccc(cc1)O)N

>  <CID>  (1) 
91899991.0

>  <ChEMBL ID>  (1) 
nan

>  <InChiKey>  (1) 
JSYBMOUNBDELGQ-OBCYGROVSA-N

>  <InChi>  (1) 
InChI=1S/C81H96N20O15S3/c1-44-71(107)94-60(31-45-10-3-2-4-11-45)74(110)100-66(78(114)93-59(70(84)106)30-47-20-25-55(103)26-21-47)41-119-118-40-65(98-72(108)57(82)29-46-18-23-54(102)24-19-46)79(115)96-62(34-53-37-87-43-90-53)76(112)95-61(32-48-17-22-49-12-5-6-13-50(49)28-48)75(111)99-64-39-117-42-69(105)101(38-52(92-77(64)113)14-9-27-88-81(85)86)67(33-51-36-89-58-16-8-7-15-56(51)58)80(116)97-63(35-68(83)104)73(109)91-44/h2-8,10-13,15-26,28,36-37,43-44,52,57,59-67,89,102-103H,9,14,27,29-35,38-42,82H2,1H3,(H2,83,104)(H2,84,106)(H,87,90)(H,91,109)(H,92,113)(H,93,114)(H,94,107)(H,95,112)(H,96,115)(H,97,116)(H,98,108)(H,99,111)(H,100,110)(H4,85,86,88)/t44-,52-,57-,59-,60-,61+,62-,63-,64+,65-,66-,67-/m0/s1

>  <IUPAC Name>  (1) 
(2S,5S,8S,11S,14R,19R,22S,25R,28S,34S)-N-[(2S)-1-amino-3-(4-hydroxyphenyl)-1-oxopropan-2-yl]-19-[[(2S)-2-amino-3-(4-hydroxyphenyl)propanoyl]amino]-5-(2-amino-2-oxoethyl)-11-benzyl-34-[3-(diaminomethylideneamino)propyl]-22-(1H-imidazol-5-ylmethyl)-2-(1H-indol-3-ylmethyl)-8-methyl-25-(naphthalen-2-ylmethyl)-3,6,9,12,20,23,26,32,36-nonaoxo-16,17,30-trithia-1,4,7,10,13,21,24,27,35-nonazabicyclo[26.4.4]hexatriacontane-14-carboxamide

$$$$
