
     RDKit          3D

 20 19  0  0  0  0  0  0  0  0999 V2000
   -2.6572    0.9143    0.7540 C   0  0  0  0  0  0  0  0  0  0  0  0
   -1.9997   -0.3132    0.1537 C   0  0  0  0  0  0  0  0  0  0  0  0
   -1.0951    0.0069   -0.9483 C   0  0  0  0  0  0  0  0  0  0  0  0
    0.1992   -0.2520   -1.0094 C   0  0  0  0  0  0  0  0  0  0  0  0
    0.9816   -0.9286    0.0532 C   0  0  0  0  0  0  0  0  0  0  0  0
    2.1002   -0.0723    0.5888 C   0  0  0  0  0  0  0  0  0  0  0  0
    3.0500    0.2760   -0.5310 C   0  0  0  0  0  0  0  0  0  0  0  0
    4.0207    0.9674   -0.2827 O   0  0  0  0  0  0  0  0  0  0  0  0
   -2.8238    0.7708    1.8520 H   0  0  0  0  0  0  0  0  0  0  0  0
   -3.6555    1.1086    0.3097 H   0  0  0  0  0  0  0  0  0  0  0  0
   -2.0810    1.8444    0.5973 H   0  0  0  0  0  0  0  0  0  0  0  0
   -2.8532   -0.9243   -0.2593 H   0  0  0  0  0  0  0  0  0  0  0  0
   -1.5932   -0.9319    0.9640 H   0  0  0  0  0  0  0  0  0  0  0  0
   -1.5352    0.5186   -1.8238 H   0  0  0  0  0  0  0  0  0  0  0  0
    0.7625    0.0457   -1.9036 H   0  0  0  0  0  0  0  0  0  0  0  0
    1.4801   -1.8030   -0.4598 H   0  0  0  0  0  0  0  0  0  0  0  0
    0.3841   -1.3219    0.8680 H   0  0  0  0  0  0  0  0  0  0  0  0
    2.6817   -0.6866    1.3066 H   0  0  0  0  0  0  0  0  0  0  0  0
    1.7574    0.8635    1.0437 H   0  0  0  0  0  0  0  0  0  0  0  0
    2.8762   -0.0826   -1.5498 H   0  0  0  0  0  0  0  0  0  0  0  0
  1  2  1  0
  2  3  1  0
  3  4  2  0
  4  5  1  0
  5  6  1  0
  6  7  1  0
  7  8  2  0
  1  9  1  0
  1 10  1  0
  1 11  1  0
  2 12  1  0
  2 13  1  0
  3 14  1  0
  4 15  1  0
  5 16  1  0
  5 17  1  0
  6 18  1  0
  6 19  1  0
  7 20  1  0
M  END
>  <Ligand ID>  (1) 
LIG0000530

>  <Ligand>  (1) 
(Z)-4-Heptenal

>  <SMILES>  (1) 
CC/C=C\CCC=O

>  <CID>  (1) 
5362814.0

>  <ChEMBL ID>  (1) 
nan

>  <InChiKey>  (1) 
VVGOCOMZRGWHPI-ARJAWSKDSA-N

>  <InChi>  (1) 
InChI=1S/C7H12O/c1-2-3-4-5-6-7-8/h3-4,7H,2,5-6H2,1H3/b4-3-

>  <IUPAC Name>  (1) 
(Z)-hept-4-enal

$$$$
