
     RDKit          3D

 32 34  0  0  0  0  0  0  0  0999 V2000
    4.2967   -1.3828    0.0204 C   0  0  0  0  0  0  0  0  0  0  0  0
    4.3310   -0.7252   -1.3409 C   0  0  0  0  0  0  0  0  0  0  0  0
    3.3526    0.3278   -1.1858 N   0  0  0  0  0  0  0  0  0  0  0  0
    2.5284    0.0344   -0.2448 C   0  0  0  0  0  0  0  0  0  0  0  0
    2.8640   -1.2240    0.3188 N   0  0  0  0  0  0  0  0  0  0  0  0
    1.3961    0.9101    0.1668 C   0  0  0  0  0  0  0  0  0  0  0  0
    0.1088    0.2523    0.0133 N   0  0  0  0  0  0  0  0  0  0  0  0
   -1.0751    0.9465    0.3599 C   0  0  0  0  0  0  0  0  0  0  0  0
   -1.0151    2.2339    0.8252 C   0  0  0  0  0  0  0  0  0  0  0  0
   -2.1297    2.9525    1.1641 C   0  0  0  0  0  0  0  0  0  0  0  0
   -3.3530    2.3391    1.0247 C   0  0  0  0  0  0  0  0  0  0  0  0
   -3.4298    1.0438    0.5579 C   0  0  0  0  0  0  0  0  0  0  0  0
   -2.2857    0.3134    0.2130 C   0  0  0  0  0  0  0  0  0  0  0  0
   -2.4807   -1.0268   -0.2502 C   0  0  0  0  0  0  0  0  0  0  0  0
   -1.8965   -2.2219    0.0769 C   0  0  0  0  0  0  0  0  0  0  0  0
   -2.4299   -3.1918   -0.6493 O   0  0  0  0  0  0  0  0  0  0  0  0
   -3.3191   -2.6888   -1.4198 N   0  0  0  0  0  0  0  0  0  0  0  0
   -3.4180   -1.3569   -1.2407 C   0  0  0  0  0  0  0  0  0  0  0  0
    4.9271   -0.8844    0.7545 H   0  0  0  0  0  0  0  0  0  0  0  0
    4.4843   -2.4718   -0.0805 H   0  0  0  0  0  0  0  0  0  0  0  0
    5.3143   -0.2413   -1.4943 H   0  0  0  0  0  0  0  0  0  0  0  0
    4.0697   -1.4330   -2.1477 H   0  0  0  0  0  0  0  0  0  0  0  0
    2.2358   -1.8836    0.8279 H   0  0  0  0  0  0  0  0  0  0  0  0
    1.4801    1.1765    1.2397 H   0  0  0  0  0  0  0  0  0  0  0  0
    1.3989    1.8647   -0.3802 H   0  0  0  0  0  0  0  0  0  0  0  0
    0.1339   -0.7207   -0.3573 H   0  0  0  0  0  0  0  0  0  0  0  0
   -0.0411    2.7143    0.9332 H   0  0  0  0  0  0  0  0  0  0  0  0
   -2.1063    3.9566    1.5286 H   0  0  0  0  0  0  0  0  0  0  0  0
   -4.2965    2.8363    1.2709 H   0  0  0  0  0  0  0  0  0  0  0  0
   -4.4203    0.5767    0.4559 H   0  0  0  0  0  0  0  0  0  0  0  0
   -1.1368   -2.3587    0.7967 H   0  0  0  0  0  0  0  0  0  0  0  0
   -4.0881   -0.6672   -1.7569 H   0  0  0  0  0  0  0  0  0  0  0  0
  1  2  1  0
  2  3  1  0
  3  4  2  0
  4  5  1  0
  4  6  1  0
  6  7  1  0
  7  8  1  0
  8  9  2  0
  9 10  1  0
 10 11  2  0
 11 12  1  0
 12 13  2  0
 13 14  1  0
 14 15  2  0
 15 16  1  0
 16 17  1  0
 17 18  2  0
  5  1  1  0
 13  8  1  0
 18 14  1  0
  1 19  1  0
  1 20  1  0
  2 21  1  0
  2 22  1  0
  5 23  1  0
  6 24  1  0
  6 25  1  0
  7 26  1  0
  9 27  1  0
 10 28  1  0
 11 29  1  0
 12 30  1  0
 15 31  1  0
 18 32  1  0
M  END
>  <Ligand ID>  (1) 
LIG0003180

>  <Ligand>  (1) 
CHEMBL154346

>  <SMILES>  (1) 
C1CN=C(N1)CNc1ccccc1c1conc1

>  <CID>  (1) 
44369647.0

>  <ChEMBL ID>  (1) 
nan

>  <InChiKey>  (1) 
CDXFPRMENPXJMR-UHFFFAOYSA-N

>  <InChi>  (1) 
InChI=1S/C13H14N4O/c1-2-4-12(16-8-13-14-5-6-15-13)11(3-1)10-7-17-18-9-10/h1-4,7,9,16H,5-6,8H2,(H,14,15)

>  <IUPAC Name>  (1) 
N-(4,5-dihydro-1H-imidazol-2-ylmethyl)-2-(1,2-oxazol-4-yl)aniline

$$$$
