
     RDKit          3D

152157  0  0  0  0  0  0  0  0999 V2000
   12.0216   -0.7135    0.6394 C   0  0  0  0  0  0  0  0  0  0  0  0
   10.8514   -1.0520   -0.2925 C   0  0  0  0  0  0  0  0  0  0  0  0
    9.5913   -1.0465    0.5225 C   0  0  0  0  0  0  0  0  0  0  0  0
    8.3378   -1.3658   -0.2020 C   0  0  0  0  0  0  0  0  0  0  0  0
    7.9296   -0.4472   -1.3090 C   0  0  2  0  0  0  0  0  0  0  0  0
    6.6223   -1.0342   -1.8396 C   0  0  0  0  0  0  0  0  0  0  0  0
    6.5075   -1.3493   -3.0477 O   0  0  0  0  0  0  0  0  0  0  0  0
    5.5494   -1.2078   -0.8909 N   0  0  0  0  0  0  0  0  0  0  0  0
    4.2913   -1.7623   -1.3365 C   0  0  1  0  0  0  0  0  0  0  0  0
    4.4199   -3.3128   -1.2616 C   0  0  0  0  0  0  0  0  0  0  0  0
    3.1699   -3.9096   -1.8012 C   0  0  0  0  0  0  0  0  0  0  0  0
    2.4219   -3.2203   -2.5163 O   0  0  0  0  0  0  0  0  0  0  0  0
    2.7193   -5.2358   -1.5666 N   0  0  0  0  0  0  0  0  0  0  0  0
    1.4260   -5.5889   -2.1587 C   0  0  0  0  0  0  0  0  0  0  0  0
    0.3125   -4.7501   -1.5409 C   0  0  0  0  0  0  0  0  0  0  0  0
    0.2386   -5.1863   -0.1001 C   0  0  0  0  0  0  0  0  0  0  0  0
   -0.7047   -4.3819    0.6983 C   0  0  0  0  0  0  0  0  0  0  0  0
   -2.1092   -4.4338    0.0461 C   0  0  1  0  0  0  0  0  0  0  0  0
   -2.6345   -5.7866   -0.0072 C   0  0  0  0  0  0  0  0  0  0  0  0
   -3.5809   -6.0792    0.7953 O   0  0  0  0  0  0  0  0  0  0  0  0
   -2.2290   -6.8466   -0.8533 N   0  0  0  0  0  0  0  0  0  0  0  0
   -2.9014   -3.5787    0.9538 N   0  0  0  0  0  0  0  0  0  0  0  0
   -3.3251   -3.9934    2.2497 C   0  0  0  0  0  0  0  0  0  0  0  0
   -3.2531   -2.2226    0.6167 C   0  0  0  0  0  0  0  0  0  0  0  0
   -2.6492   -1.8237   -0.3770 O   0  0  0  0  0  0  0  0  0  0  0  0
   -4.1909   -1.3769    1.3514 C   0  0  1  0  0  0  0  0  0  0  0  0
   -3.6916    0.0184    1.1287 N   0  0  0  0  0  0  0  0  0  0  0  0
   -3.8784    1.0067    2.1595 C   0  0  0  0  0  0  0  0  0  0  0  0
   -4.5362    0.6126    3.1296 O   0  0  0  0  0  0  0  0  0  0  0  0
   -3.3158    2.4014    2.0450 C   0  0  1  0  0  0  0  0  0  0  0  0
   -2.4707    2.5228    0.8910 N   0  0  0  0  0  0  0  0  0  0  0  0
   -1.0279    2.4194    1.0416 C   0  0  0  0  0  0  0  0  0  0  0  0
   -0.6193    2.2957    2.1723 O   0  0  0  0  0  0  0  0  0  0  0  0
   -0.1569    2.4655   -0.2187 C   0  0  2  0  0  0  0  0  0  0  0  0
    1.1045    1.8589    0.3245 N   0  0  0  0  0  0  0  0  0  0  0  0
    1.0197    0.5982    0.9288 C   0  0  0  0  0  0  0  0  0  0  0  0
   -0.1808    0.1613    1.0566 O   0  0  0  0  0  0  0  0  0  0  0  0
    2.0624   -0.2894    1.4490 C   0  0  1  0  0  0  0  0  0  0  0  0
    3.2702   -0.3190    0.5794 N   0  0  0  0  0  0  0  0  0  0  0  0
    3.2354   -1.3295   -0.4188 C   0  0  0  0  0  0  0  0  0  0  0  0
    2.1177   -1.9062   -0.5011 O   0  0  0  0  0  0  0  0  0  0  0  0
    2.5035    0.0849    2.8453 C   0  0  0  0  0  0  0  0  0  0  0  0
    3.1084    1.4162    2.9780 C   0  0  0  0  0  0  0  0  0  0  0  0
    2.6121    2.6238    3.2537 N   0  0  0  0  0  0  0  0  0  0  0  0
    3.6032    3.5602    3.2559 C   0  0  0  0  0  0  0  0  0  0  0  0
    4.7685    2.9346    2.9730 N   0  0  0  0  0  0  0  0  0  0  0  0
    4.4815    1.6291    2.8024 C   0  0  0  0  0  0  0  0  0  0  0  0
    0.1886    3.8676   -0.5508 C   0  0  0  0  0  0  0  0  0  0  0  0
   -0.9158    4.8017   -0.7690 C   0  0  0  0  0  0  0  0  0  0  0  0
   -1.3917    5.4601    0.3803 C   0  0  0  0  0  0  0  0  0  0  0  0
   -2.3881    6.3922    0.3469 C   0  0  0  0  0  0  0  0  0  0  0  0
   -2.9695    6.7198   -0.8527 C   0  0  0  0  0  0  0  0  0  0  0  0
   -2.5245    6.0890   -2.0014 C   0  0  0  0  0  0  0  0  0  0  0  0
   -1.5008    5.1343   -1.9477 C   0  0  0  0  0  0  0  0  0  0  0  0
   -3.1289    6.4548   -3.1782 C   0  0  0  0  0  0  0  0  0  0  0  0
   -4.1370    7.4158   -3.1802 C   0  0  0  0  0  0  0  0  0  0  0  0
   -4.5544    8.0223   -2.0173 C   0  0  0  0  0  0  0  0  0  0  0  0
   -3.9598    7.6681   -0.8382 C   0  0  0  0  0  0  0  0  0  0  0  0
   -4.3269    3.4673    2.2465 C   0  0  0  0  0  0  0  0  0  0  0  0
   -5.4771    3.4592    1.2718 C   0  0  0  0  0  0  0  0  0  0  0  0
   -6.3597    4.6417    1.6897 C   0  0  0  0  0  0  0  0  0  0  0  0
   -7.5169    4.7752    0.8371 N   0  0  0  0  0  0  0  0  0  0  0  0
   -7.8976    5.9623    0.4682 C   0  0  0  0  0  0  0  0  0  0  0  0
   -9.0362    6.1517   -0.3758 N   0  0  0  0  0  0  0  0  0  0  0  0
   -7.1737    7.1152    0.9044 N   0  0  0  0  0  0  0  0  0  0  0  0
   -5.6122   -1.4043    0.7773 C   0  0  0  0  0  0  0  0  0  0  0  0
   -6.1305   -2.7737    0.7856 C   0  0  0  0  0  0  0  0  0  0  0  0
   -6.9395   -3.3882    1.7604 C   0  0  0  0  0  0  0  0  0  0  0  0
   -7.1708   -4.6631    1.4003 N   0  0  0  0  0  0  0  0  0  0  0  0
   -6.5613   -4.9398    0.2354 C   0  0  0  0  0  0  0  0  0  0  0  0
   -5.9067   -3.7739   -0.1653 C   0  0  0  0  0  0  0  0  0  0  0  0
   -5.2218   -3.8450   -1.3468 C   0  0  0  0  0  0  0  0  0  0  0  0
   -5.1445   -4.9720   -2.1378 C   0  0  0  0  0  0  0  0  0  0  0  0
   -5.8101   -6.0988   -1.6929 C   0  0  0  0  0  0  0  0  0  0  0  0
   -6.5181   -6.1002   -0.5178 C   0  0  0  0  0  0  0  0  0  0  0  0
    8.8217   -0.5376   -2.4465 N   0  0  0  0  0  0  0  0  0  0  0  0
    9.2128    0.6195   -3.2054 C   0  0  0  0  0  0  0  0  0  0  0  0
    8.7801    1.7543   -2.8987 O   0  0  0  0  0  0  0  0  0  0  0  0
   10.1442    0.4244   -4.3614 C   0  0  0  0  0  0  0  0  0  0  0  0
   12.1983    0.3644    0.5703 H   0  0  0  0  0  0  0  0  0  0  0  0
   12.9306   -1.2743    0.3485 H   0  0  0  0  0  0  0  0  0  0  0  0
   11.7586   -1.0347    1.6802 H   0  0  0  0  0  0  0  0  0  0  0  0
   10.8787   -0.3204   -1.1053 H   0  0  0  0  0  0  0  0  0  0  0  0
   11.0256   -2.0918   -0.6688 H   0  0  0  0  0  0  0  0  0  0  0  0
    9.7361   -1.8636    1.2913 H   0  0  0  0  0  0  0  0  0  0  0  0
    9.5214   -0.1155    1.1269 H   0  0  0  0  0  0  0  0  0  0  0  0
    8.4498   -2.3890   -0.6921 H   0  0  0  0  0  0  0  0  0  0  0  0
    7.5004   -1.5309    0.5122 H   0  0  0  0  0  0  0  0  0  0  0  0
    7.7373    0.6027   -1.0140 H   0  0  0  0  0  0  0  0  0  0  0  0
    5.6333   -0.9514    0.1086 H   0  0  0  0  0  0  0  0  0  0  0  0
    4.1088   -1.5737   -2.4033 H   0  0  0  0  0  0  0  0  0  0  0  0
    4.6778   -3.6212   -0.2450 H   0  0  0  0  0  0  0  0  0  0  0  0
    5.2293   -3.5920   -1.9648 H   0  0  0  0  0  0  0  0  0  0  0  0
    3.3132   -5.8336   -1.0187 H   0  0  0  0  0  0  0  0  0  0  0  0
    1.4547   -5.5165   -3.2613 H   0  0  0  0  0  0  0  0  0  0  0  0
    1.2571   -6.6662   -1.9106 H   0  0  0  0  0  0  0  0  0  0  0  0
   -0.6099   -5.1012   -2.0730 H   0  0  0  0  0  0  0  0  0  0  0  0
    0.4636   -3.6853   -1.6587 H   0  0  0  0  0  0  0  0  0  0  0  0
    1.2789   -5.1096    0.3079 H   0  0  0  0  0  0  0  0  0  0  0  0
   -0.0070   -6.2687   -0.0522 H   0  0  0  0  0  0  0  0  0  0  0  0
   -0.7609   -4.7298    1.7460 H   0  0  0  0  0  0  0  0  0  0  0  0
   -0.4122   -3.2901    0.6540 H   0  0  0  0  0  0  0  0  0  0  0  0
   -1.9260   -3.9728   -0.9246 H   0  0  0  0  0  0  0  0  0  0  0  0
   -1.8039   -7.7349   -0.5436 H   0  0  0  0  0  0  0  0  0  0  0  0
   -2.3872   -6.6939   -1.8890 H   0  0  0  0  0  0  0  0  0  0  0  0
   -4.3184   -4.4634    2.1938 H   0  0  0  0  0  0  0  0  0  0  0  0
   -3.3360   -3.1576    2.9934 H   0  0  0  0  0  0  0  0  0  0  0  0
   -2.6070   -4.7864    2.5810 H   0  0  0  0  0  0  0  0  0  0  0  0
   -4.2995   -1.5166    2.4268 H   0  0  0  0  0  0  0  0  0  0  0  0
   -3.2288    0.3299    0.2954 H   0  0  0  0  0  0  0  0  0  0  0  0
   -2.6220    2.4534    2.9386 H   0  0  0  0  0  0  0  0  0  0  0  0
   -2.7709    2.6812   -0.0665 H   0  0  0  0  0  0  0  0  0  0  0  0
   -0.6600    1.8264   -0.9168 H   0  0  0  0  0  0  0  0  0  0  0  0
    2.0019    2.3121    0.2787 H   0  0  0  0  0  0  0  0  0  0  0  0
    1.6642   -1.3581    1.5128 H   0  0  0  0  0  0  0  0  0  0  0  0
    4.0577    0.2815    0.6255 H   0  0  0  0  0  0  0  0  0  0  0  0
    1.6483    0.0072    3.5682 H   0  0  0  0  0  0  0  0  0  0  0  0
    3.2000   -0.7337    3.2003 H   0  0  0  0  0  0  0  0  0  0  0  0
    1.6275    2.8741    3.4527 H   0  0  0  0  0  0  0  0  0  0  0  0
    3.5410    4.6195    3.4425 H   0  0  0  0  0  0  0  0  0  0  0  0
    5.2516    0.9071    2.5699 H   0  0  0  0  0  0  0  0  0  0  0  0
    0.8440    3.9024   -1.4582 H   0  0  0  0  0  0  0  0  0  0  0  0
    0.8333    4.2826    0.2829 H   0  0  0  0  0  0  0  0  0  0  0  0
   -0.9669    5.2282    1.3499 H   0  0  0  0  0  0  0  0  0  0  0  0
   -2.7275    6.8742    1.2727 H   0  0  0  0  0  0  0  0  0  0  0  0
   -1.1601    4.6505   -2.8418 H   0  0  0  0  0  0  0  0  0  0  0  0
   -2.8187    5.9930   -4.0930 H   0  0  0  0  0  0  0  0  0  0  0  0
   -4.6297    7.7257   -4.0895 H   0  0  0  0  0  0  0  0  0  0  0  0
   -5.3336    8.7759   -1.9700 H   0  0  0  0  0  0  0  0  0  0  0  0
   -4.2738    8.1305    0.0984 H   0  0  0  0  0  0  0  0  0  0  0  0
   -4.8232    3.3431    3.2584 H   0  0  0  0  0  0  0  0  0  0  0  0
   -3.8748    4.4872    2.3365 H   0  0  0  0  0  0  0  0  0  0  0  0
   -6.0662    2.5335    1.4457 H   0  0  0  0  0  0  0  0  0  0  0  0
   -5.2182    3.6449    0.2330 H   0  0  0  0  0  0  0  0  0  0  0  0
   -5.7075    5.5513    1.6027 H   0  0  0  0  0  0  0  0  0  0  0  0
   -6.6751    4.5595    2.7392 H   0  0  0  0  0  0  0  0  0  0  0  0
   -9.4422    5.3839   -0.9419 H   0  0  0  0  0  0  0  0  0  0  0  0
   -9.4869    7.0872   -0.4332 H   0  0  0  0  0  0  0  0  0  0  0  0
   -6.7822    7.7448    0.1615 H   0  0  0  0  0  0  0  0  0  0  0  0
   -7.0608    7.2880    1.9284 H   0  0  0  0  0  0  0  0  0  0  0  0
   -5.6662   -0.9754   -0.2289 H   0  0  0  0  0  0  0  0  0  0  0  0
   -6.2431   -0.8331    1.5265 H   0  0  0  0  0  0  0  0  0  0  0  0
   -7.3251   -2.9281    2.6648 H   0  0  0  0  0  0  0  0  0  0  0  0
   -7.7421   -5.3947    1.9211 H   0  0  0  0  0  0  0  0  0  0  0  0
   -4.7118   -2.9684   -1.7091 H   0  0  0  0  0  0  0  0  0  0  0  0
   -4.5766   -4.9377   -3.0583 H   0  0  0  0  0  0  0  0  0  0  0  0
   -5.7303   -6.9738   -2.3358 H   0  0  0  0  0  0  0  0  0  0  0  0
   -7.0089   -7.0122   -0.2313 H   0  0  0  0  0  0  0  0  0  0  0  0
    9.1773   -1.4998   -2.6872 H   0  0  0  0  0  0  0  0  0  0  0  0
    9.6345    0.8030   -5.2775 H   0  0  0  0  0  0  0  0  0  0  0  0
   10.3419   -0.6496   -4.5328 H   0  0  0  0  0  0  0  0  0  0  0  0
   11.1091    0.9414   -4.2184 H   0  0  0  0  0  0  0  0  0  0  0  0
  1  2  1  0
  2  3  1  0
  3  4  1  0
  4  5  1  0
  5  6  1  0
  6  7  2  0
  6  8  1  0
  8  9  1  0
  9 10  1  0
 10 11  1  0
 11 12  2  0
 11 13  1  0
 13 14  1  0
 14 15  1  0
 15 16  1  0
 16 17  1  0
 17 18  1  0
 18 19  1  0
 19 20  2  0
 19 21  1  0
 18 22  1  0
 22 23  1  0
 22 24  1  0
 24 25  2  0
 24 26  1  0
 26 27  1  0
 27 28  1  0
 28 29  2  0
 28 30  1  0
 30 31  1  0
 31 32  1  0
 32 33  2  0
 32 34  1  0
 34 35  1  0
 35 36  1  0
 36 37  2  0
 36 38  1  0
 38 39  1  0
 39 40  1  0
 40 41  2  0
 38 42  1  0
 42 43  1  0
 43 44  1  0
 44 45  1  0
 45 46  2  0
 46 47  1  0
 34 48  1  0
 48 49  1  0
 49 50  2  0
 50 51  1  0
 51 52  2  0
 52 53  1  0
 53 54  2  0
 53 55  1  0
 55 56  2  0
 56 57  1  0
 57 58  2  0
 30 59  1  0
 59 60  1  0
 60 61  1  0
 61 62  1  0
 62 63  2  3
 63 64  1  0
 63 65  1  0
 26 66  1  0
 66 67  1  0
 67 68  2  0
 68 69  1  0
 69 70  1  0
 70 71  2  0
 71 72  1  0
 72 73  2  0
 73 74  1  0
 74 75  2  0
  5 76  1  0
 76 77  1  0
 77 78  2  0
 77 79  1  0
 40  9  1  0
 47 43  2  0
 54 49  1  0
 71 67  1  0
 58 52  1  0
 75 70  1  0
  1 80  1  0
  1 81  1  0
  1 82  1  0
  2 83  1  0
  2 84  1  0
  3 85  1  0
  3 86  1  0
  4 87  1  0
  4 88  1  0
  5 89  1  1
  8 90  1  0
  9 91  1  6
 10 92  1  0
 10 93  1  0
 13 94  1  0
 14 95  1  0
 14 96  1  0
 15 97  1  0
 15 98  1  0
 16 99  1  0
 16100  1  0
 17101  1  0
 17102  1  0
 18103  1  6
 21104  1  0
 21105  1  0
 23106  1  0
 23107  1  0
 23108  1  0
 26109  1  1
 27110  1  0
 30111  1  1
 31112  1  0
 34113  1  6
 35114  1  0
 38115  1  1
 39116  1  0
 42117  1  0
 42118  1  0
 44119  1  0
 45120  1  0
 47121  1  0
 48122  1  0
 48123  1  0
 50124  1  0
 51125  1  0
 54126  1  0
 55127  1  0
 56128  1  0
 57129  1  0
 58130  1  0
 59131  1  0
 59132  1  0
 60133  1  0
 60134  1  0
 61135  1  0
 61136  1  0
 64137  1  0
 64138  1  0
 65139  1  0
 65140  1  0
 66141  1  0
 66142  1  0
 68143  1  0
 69144  1  0
 72145  1  0
 73146  1  0
 74147  1  0
 75148  1  0
 76149  1  0
 79150  1  0
 79151  1  0
 79152  1  0
M  END
>  <Ligand ID>  (1) 
LIG0001815

>  <Ligand>  (1) 
CHEMBL3600737

>  <SMILES>  (1) 
CCCC[C@H](C(=O)N[C@H]1CC(=O)NCCCC[C@@H](C(=O)N)N(C)C(=O)[C@@H](NC(=O)[C@@H](NC(=O)[C@H](NC(=O)[C@@H](NC1=O)Cc1[nH]cnc1)Cc1ccc2c(c1)cccc2)CCCN=C(N)N)Cc1c[nH]c2c1cccc2)NC(=O)C

>  <CID>  (1) 
122184499.0

>  <ChEMBL ID>  (1) 
nan

>  <InChiKey>  (1) 
KZXNIFOXWZLCOK-OPVYWQCUSA-N

>  <InChi>  (1) 
InChI=1S/C55H73N15O9/c1-4-5-16-40(64-32(2)71)49(74)68-44-28-47(72)60-22-11-10-19-46(48(56)73)70(3)54(79)45(26-36-29-62-39-17-9-8-15-38(36)39)69-50(75)41(18-12-23-61-55(57)58)65-51(76)42(25-33-20-21-34-13-6-7-14-35(34)24-33)66-52(77)43(67-53(44)78)27-37-30-59-31-63-37/h6-9,13-15,17,20-21,24,29-31,40-46,62H,4-5,10-12,16,18-19,22-23,25-28H2,1-3H3,(H2,56,73)(H,59,63)(H,60,72)(H,64,71)(H,65,76)(H,66,77)(H,67,78)(H,68,74)(H,69,75)(H4,57,58,61)/t40-,41+,42-,43+,44+,45+,46+/m1/s1

>  <IUPAC Name>  (1) 
(3S,6S,9R,12S,15S,23S)-15-[[(2R)-2-acetamidohexanoyl]amino]-6-[3-(diaminomethylideneamino)propyl]-12-(1H-imidazol-5-ylmethyl)-3-(1H-indol-3-ylmethyl)-1-methyl-9-(naphthalen-2-ylmethyl)-2,5,8,11,14,17-hexaoxo-1,4,7,10,13,18-hexazacyclotricosane-23-carboxamide

$$$$
