
     RDKit          3D

 32 31  0  0  0  0  0  0  0  0999 V2000
   -4.8591    0.7096    0.1690 C   0  0  0  0  0  0  0  0  0  0  0  0
   -4.5097   -0.6475   -0.3577 C   0  0  0  0  0  0  0  0  0  0  0  0
   -3.0465   -0.9854   -0.1693 C   0  0  0  0  0  0  0  0  0  0  0  0
   -2.1818   -0.0031   -0.8782 C   0  0  0  0  0  0  0  0  0  0  0  0
   -0.7089   -0.2912   -0.7286 C   0  0  0  0  0  0  0  0  0  0  0  0
   -0.3296   -0.2561    0.7054 C   0  0  0  0  0  0  0  0  0  0  0  0
    1.0353   -0.5112    0.9473 O   0  0  0  0  0  0  0  0  0  0  0  0
    2.0641    0.2494    0.4478 C   0  0  0  0  0  0  0  0  0  0  0  0
    1.8050    1.2552   -0.2831 O   0  0  0  0  0  0  0  0  0  0  0  0
    3.4508   -0.1387    0.7859 C   0  0  0  0  0  0  0  0  0  0  0  0
    4.4703    0.7992    0.1591 C   0  0  0  0  0  0  0  0  0  0  0  0
    5.8728    0.3307    0.5563 C   0  0  0  0  0  0  0  0  0  0  0  0
   -5.9743    0.8008    0.0751 H   0  0  0  0  0  0  0  0  0  0  0  0
   -4.4036    1.5348   -0.3885 H   0  0  0  0  0  0  0  0  0  0  0  0
   -4.6837    0.7521    1.2754 H   0  0  0  0  0  0  0  0  0  0  0  0
   -5.0903   -1.3791    0.2636 H   0  0  0  0  0  0  0  0  0  0  0  0
   -4.8681   -0.7478   -1.3835 H   0  0  0  0  0  0  0  0  0  0  0  0
   -2.8746   -1.1154    0.8973 H   0  0  0  0  0  0  0  0  0  0  0  0
   -2.8927   -1.9759   -0.6433 H   0  0  0  0  0  0  0  0  0  0  0  0
   -2.3993   -0.1182   -1.9743 H   0  0  0  0  0  0  0  0  0  0  0  0
   -2.4365    1.0466   -0.6247 H   0  0  0  0  0  0  0  0  0  0  0  0
   -0.5602   -1.3184   -1.1161 H   0  0  0  0  0  0  0  0  0  0  0  0
   -0.1769    0.4755   -1.3076 H   0  0  0  0  0  0  0  0  0  0  0  0
   -0.8832   -1.0563    1.2643 H   0  0  0  0  0  0  0  0  0  0  0  0
   -0.5780    0.7072    1.1957 H   0  0  0  0  0  0  0  0  0  0  0  0
    3.6817   -1.1511    0.3619 H   0  0  0  0  0  0  0  0  0  0  0  0
    3.5955   -0.2210    1.8795 H   0  0  0  0  0  0  0  0  0  0  0  0
    4.3614    1.8312    0.5389 H   0  0  0  0  0  0  0  0  0  0  0  0
    4.4518    0.7313   -0.9478 H   0  0  0  0  0  0  0  0  0  0  0  0
    6.1896    0.7990    1.5138 H   0  0  0  0  0  0  0  0  0  0  0  0
    5.8857   -0.7753    0.5980 H   0  0  0  0  0  0  0  0  0  0  0  0
    6.5929    0.6690   -0.2214 H   0  0  0  0  0  0  0  0  0  0  0  0
  1  2  1  0
  2  3  1  0
  3  4  1  0
  4  5  1  0
  5  6  1  0
  6  7  1  0
  7  8  1  0
  8  9  2  0
  8 10  1  0
 10 11  1  0
 11 12  1  0
  1 13  1  0
  1 14  1  0
  1 15  1  0
  2 16  1  0
  2 17  1  0
  3 18  1  0
  3 19  1  0
  4 20  1  0
  4 21  1  0
  5 22  1  0
  5 23  1  0
  6 24  1  0
  6 25  1  0
 10 26  1  0
 10 27  1  0
 11 28  1  0
 11 29  1  0
 12 30  1  0
 12 31  1  0
 12 32  1  0
M  END
>  <Ligand ID>  (1) 
LIG0000049

>  <Ligand>  (1) 
hexyl butyrate

>  <SMILES>  (1) 
CCCCCCOC(=O)CCC

>  <CID>  (1) 
17525.0

>  <ChEMBL ID>  (1) 
nan

>  <InChiKey>  (1) 
XAPCMTMQBXLDBB-UHFFFAOYSA-N

>  <InChi>  (1) 
InChI=1S/C10H20O2/c1-3-5-6-7-9-12-10(11)8-4-2/h3-9H2,1-2H3

>  <IUPAC Name>  (1) 
hexyl butanoate

$$$$
