
     RDKit          3D

 62 69  0  0  0  0  0  0  0  0999 V2000
   -4.4052   -2.7509   -0.9144 C   0  0  0  0  0  0  0  0  0  0  0  0
   -3.0670   -2.2414   -0.7748 N   0  0  0  0  0  0  0  0  0  0  0  0
   -2.6088   -1.6848   -1.9960 C   0  0  0  0  0  0  0  0  0  0  0  0
   -1.6120   -0.5976   -1.9483 C   0  0  0  0  0  0  0  0  0  0  0  0
   -1.1444   -0.1437   -0.6021 C   0  0  2  0  0  0  0  0  0  0  0  0
   -1.4866   -1.0927    0.5029 C   0  0  1  0  0  0  0  0  0  0  0  0
   -2.9766   -1.3410    0.3612 C   0  0  1  0  0  0  0  0  0  0  0  0
   -3.7884   -0.1256    0.1140 C   0  0  0  0  0  0  0  0  0  0  0  0
   -3.0715    1.1589    0.1140 C   0  0  0  0  0  0  0  0  0  0  0  0
   -1.7090    1.2105   -0.2405 C   0  0  0  0  0  0  0  0  0  0  0  0
   -1.1182    2.4856   -0.2034 C   0  0  0  0  0  0  0  0  0  0  0  0
    0.1978    2.9049   -0.4871 O   0  0  0  0  0  0  0  0  0  0  0  0
    1.4990    2.4204   -0.2968 C   0  0  0  0  0  0  0  0  0  0  0  0
    1.7074    1.4345    0.5479 O   0  0  0  0  0  0  0  0  0  0  0  0
    0.9989    0.3062    0.6905 C   0  0  1  0  0  0  0  0  0  0  0  0
    0.3405   -0.2220   -0.5376 C   0  0  1  0  0  0  0  0  0  0  0  0
    0.4536   -1.7537   -0.4259 C   0  0  2  0  0  0  0  0  0  0  0  0
   -0.7524   -2.2117    0.0788 O   0  0  0  0  0  0  0  0  0  0  0  0
    1.4504   -1.9502    0.6472 C   0  0  0  0  0  0  0  0  0  0  0  0
    1.7186   -3.0707    1.1597 O   0  0  0  0  0  0  0  0  0  0  0  0
    2.0168   -0.7011    0.9718 N   0  0  0  0  0  0  0  0  0  0  0  0
    3.3588   -0.5465    1.4922 C   0  0  0  0  0  0  0  0  0  0  0  0
    4.3190   -0.4209    0.3949 C   0  0  0  0  0  0  0  0  0  0  0  0
    4.8457   -1.5954   -0.1339 C   0  0  0  0  0  0  0  0  0  0  0  0
    5.7673   -1.5579   -1.1713 C   0  0  0  0  0  0  0  0  0  0  0  0
    6.1931   -0.3438   -1.7146 C   0  0  0  0  0  0  0  0  0  0  0  0
    5.6744    0.8186   -1.1938 C   0  0  0  0  0  0  0  0  0  0  0  0
    4.7582    0.7501   -0.1608 C   0  0  0  0  0  0  0  0  0  0  0  0
    0.1080    0.2807    1.9238 C   0  0  0  0  0  0  0  0  0  0  0  0
   -1.0641   -0.6153    1.8273 C   0  0  0  0  0  0  0  0  0  0  0  0
   -1.8252    3.6084    0.1548 C   0  0  0  0  0  0  0  0  0  0  0  0
   -3.1562    3.5312    0.4965 C   0  0  0  0  0  0  0  0  0  0  0  0
   -3.7649    2.2953    0.4707 C   0  0  0  0  0  0  0  0  0  0  0  0
   -1.2128    4.8538    0.1811 O   0  0  0  0  0  0  0  0  0  0  0  0
   -4.3665   -3.6296   -1.6115 H   0  0  0  0  0  0  0  0  0  0  0  0
   -4.7373   -3.1651    0.0667 H   0  0  0  0  0  0  0  0  0  0  0  0
   -5.1237   -2.0295   -1.3158 H   0  0  0  0  0  0  0  0  0  0  0  0
   -3.5212   -1.4151   -2.6048 H   0  0  0  0  0  0  0  0  0  0  0  0
   -2.1796   -2.5488   -2.5859 H   0  0  0  0  0  0  0  0  0  0  0  0
   -0.7403   -0.8136   -2.6204 H   0  0  0  0  0  0  0  0  0  0  0  0
   -2.0766    0.3083   -2.4414 H   0  0  0  0  0  0  0  0  0  0  0  0
   -3.2774   -1.9098    1.2591 H   0  0  0  0  0  0  0  0  0  0  0  0
   -4.4088   -0.1824   -0.8142 H   0  0  0  0  0  0  0  0  0  0  0  0
   -4.5568   -0.0770    0.9373 H   0  0  0  0  0  0  0  0  0  0  0  0
    2.1195    3.2880    0.0180 H   0  0  0  0  0  0  0  0  0  0  0  0
    1.8721    2.1459   -1.3082 H   0  0  0  0  0  0  0  0  0  0  0  0
    0.8478    0.1492   -1.4392 H   0  0  0  0  0  0  0  0  0  0  0  0
    0.7713   -2.2042   -1.3679 H   0  0  0  0  0  0  0  0  0  0  0  0
    3.6073   -1.3989    2.1899 H   0  0  0  0  0  0  0  0  0  0  0  0
    3.4685    0.3570    2.1288 H   0  0  0  0  0  0  0  0  0  0  0  0
    4.5554   -2.5778    0.2448 H   0  0  0  0  0  0  0  0  0  0  0  0
    6.1982   -2.4499   -1.6077 H   0  0  0  0  0  0  0  0  0  0  0  0
    6.9114   -0.2959   -2.5243 H   0  0  0  0  0  0  0  0  0  0  0  0
    5.9814    1.7909   -1.5908 H   0  0  0  0  0  0  0  0  0  0  0  0
    4.3869    1.6911    0.2143 H   0  0  0  0  0  0  0  0  0  0  0  0
   -0.1819    1.3200    2.2601 H   0  0  0  0  0  0  0  0  0  0  0  0
    0.7133   -0.0582    2.8140 H   0  0  0  0  0  0  0  0  0  0  0  0
   -0.9555   -1.5297    2.4841 H   0  0  0  0  0  0  0  0  0  0  0  0
   -1.9402   -0.0837    2.3041 H   0  0  0  0  0  0  0  0  0  0  0  0
   -3.7577    4.3820    0.7853 H   0  0  0  0  0  0  0  0  0  0  0  0
   -4.8150    2.2272    0.7395 H   0  0  0  0  0  0  0  0  0  0  0  0
   -1.4391    5.6172   -0.4120 H   0  0  0  0  0  0  0  0  0  0  0  0
  1  2  1  0
  2  3  1  0
  3  4  1  0
  5  4  1  6
  5  6  1  0
  6  7  1  0
  7  8  1  0
  8  9  1  0
  9 10  2  0
 10 11  1  0
 11 12  1  0
 12 13  1  0
 13 14  1  0
 15 14  1  6
 15 16  1  0
 16 17  1  0
 17 18  1  0
 17 19  1  0
 19 20  2  0
 19 21  1  0
 21 22  1  0
 22 23  1  0
 23 24  2  0
 24 25  1  0
 25 26  2  0
 26 27  1  0
 27 28  2  0
 15 29  1  0
 29 30  1  0
 11 31  2  0
 31 32  1  0
 32 33  2  0
 31 34  1  0
  7  2  1  0
 33  9  1  0
 10  5  1  0
 21 15  1  0
 28 23  1  0
 16  5  1  0
 30  6  1  0
  6 18  1  6
  1 35  1  0
  1 36  1  0
  1 37  1  0
  3 38  1  0
  3 39  1  0
  4 40  1  0
  4 41  1  0
  7 42  1  1
  8 43  1  0
  8 44  1  0
 13 45  1  0
 13 46  1  0
 16 47  1  6
 17 48  1  6
 22 49  1  0
 22 50  1  0
 24 51  1  0
 25 52  1  0
 26 53  1  0
 27 54  1  0
 28 55  1  0
 29 56  1  0
 29 57  1  0
 30 58  1  0
 30 59  1  0
 32 60  1  0
 33 61  1  0
 34 62  1  0
M  END
>  <Ligand ID>  (1) 
LIG0004595

>  <Ligand>  (1) 
CHEMBL3264743

>  <SMILES>  (1) 
CN1CC[C@]23[C@]45[C@H]1Cc1c2c(OCO[C@]2([C@H]3[C@H](O5)C(=O)N2Cc2ccccc2)CC4)c(cc1)O

>  <CID>  (1) 
56589680.0

>  <ChEMBL ID>  (1) 
nan

>  <InChiKey>  (1) 
GMYGREYAJXZCDV-VXDHFRBISA-N

>  <InChi>  (1) 
InChI=1S/C27H28N2O5/c1-28-12-11-25-20-17-7-8-18(30)21(20)32-15-33-27-10-9-26(25,19(28)13-17)34-22(23(25)27)24(31)29(27)14-16-5-3-2-4-6-16/h2-8,19,22-23,30H,9-15H2,1H3/t19-,22+,23+,25+,26-,27+/m1/s1

>  <IUPAC Name>  (1) 
(1S,11R,15R,16R,17S,19S)-22-benzyl-6-hydroxy-12-methyl-2,4,18-trioxa-12,22-diazaheptacyclo[15.4.2.15,9.01,16.011,19.015,19.015,24]tetracosa-5,7,9(24)-trien-23-one

$$$$
