
     RDKit          3D

 61 64  0  0  0  0  0  0  0  0999 V2000
   -7.3025    1.9629   -0.3721 C   0  0  0  0  0  0  0  0  0  0  0  0
   -7.0975    1.1224    0.7228 O   0  0  0  0  0  0  0  0  0  0  0  0
   -7.0990   -0.2638    0.6995 C   0  0  0  0  0  0  0  0  0  0  0  0
   -8.2671   -0.9648    0.8976 C   0  0  0  0  0  0  0  0  0  0  0  0
   -9.7725   -0.0795    1.1839 Cl  0  0  0  0  0  0  0  0  0  0  0  0
   -8.2579   -2.3622    0.8726 C   0  0  0  0  0  0  0  0  0  0  0  0
   -7.0893   -3.0728    0.6508 C   0  0  0  0  0  0  0  0  0  0  0  0
   -5.9458   -2.3439    0.4577 C   0  0  0  0  0  0  0  0  0  0  0  0
   -5.9278   -0.9507    0.4775 C   0  0  0  0  0  0  0  0  0  0  0  0
   -4.6719   -0.3379    0.2615 N   0  0  0  0  0  0  0  0  0  0  0  0
   -4.4015    0.5510   -0.8786 C   0  0  0  0  0  0  0  0  0  0  0  0
   -2.9283    0.2527   -1.2160 C   0  0  0  0  0  0  0  0  0  0  0  0
   -2.1474    0.9984   -0.2166 N   0  0  0  0  0  0  0  0  0  0  0  0
   -2.7162    0.7492    1.1046 C   0  0  0  0  0  0  0  0  0  0  0  0
   -3.5324   -0.5358    1.1485 C   0  0  0  0  0  0  0  0  0  0  0  0
   -0.7715    0.5110   -0.2164 C   0  0  0  0  0  0  0  0  0  0  0  0
    0.0654    1.4190    0.6293 C   0  0  0  0  0  0  0  0  0  0  0  0
    1.5077    0.9574    0.7045 C   0  0  0  0  0  0  0  0  0  0  0  0
    2.0990    0.9413   -0.6708 C   0  0  0  0  0  0  0  0  0  0  0  0
    3.4875    0.5098   -0.5779 N   0  0  0  0  0  0  0  0  0  0  0  0
    4.4729    1.2148    0.1636 C   0  0  0  0  0  0  0  0  0  0  0  0
    4.1841    2.2779    0.7899 O   0  0  0  0  0  0  0  0  0  0  0  0
    5.8631    0.7809    0.2619 C   0  0  0  0  0  0  0  0  0  0  0  0
    6.7417    1.5453    1.0112 C   0  0  0  0  0  0  0  0  0  0  0  0
    8.0511    1.2016    1.1527 N   0  0  0  0  0  0  0  0  0  0  0  0
    8.5369    0.0771    0.5494 C   0  0  0  0  0  0  0  0  0  0  0  0
    7.6905   -0.7076   -0.2045 C   0  0  0  0  0  0  0  0  0  0  0  0
    6.3544   -0.3529   -0.3463 C   0  0  0  0  0  0  0  0  0  0  0  0
    8.1898   -1.8464   -0.8138 C   0  0  0  0  0  0  0  0  0  0  0  0
    9.5297   -2.1864   -0.6614 C   0  0  0  0  0  0  0  0  0  0  0  0
   10.3401   -1.3622    0.1084 C   0  0  0  0  0  0  0  0  0  0  0  0
    9.8685   -0.2301    0.7209 C   0  0  0  0  0  0  0  0  0  0  0  0
   -7.1658    1.4197   -1.3129 H   0  0  0  0  0  0  0  0  0  0  0  0
   -8.2931    2.4824   -0.3320 H   0  0  0  0  0  0  0  0  0  0  0  0
   -6.5282    2.7606   -0.3352 H   0  0  0  0  0  0  0  0  0  0  0  0
   -9.1780   -2.9247    1.0284 H   0  0  0  0  0  0  0  0  0  0  0  0
   -7.0583   -4.1623    0.6260 H   0  0  0  0  0  0  0  0  0  0  0  0
   -5.0333   -2.8961    0.2842 H   0  0  0  0  0  0  0  0  0  0  0  0
   -5.0084    0.3098   -1.7504 H   0  0  0  0  0  0  0  0  0  0  0  0
   -4.4465    1.5747   -0.5056 H   0  0  0  0  0  0  0  0  0  0  0  0
   -2.6895   -0.8068   -1.1426 H   0  0  0  0  0  0  0  0  0  0  0  0
   -2.7453    0.7075   -2.1952 H   0  0  0  0  0  0  0  0  0  0  0  0
   -3.3908    1.5832    1.3610 H   0  0  0  0  0  0  0  0  0  0  0  0
   -1.9597    0.6367    1.8872 H   0  0  0  0  0  0  0  0  0  0  0  0
   -2.9651   -1.4111    0.8258 H   0  0  0  0  0  0  0  0  0  0  0  0
   -3.8762   -0.6603    2.1911 H   0  0  0  0  0  0  0  0  0  0  0  0
   -0.3998    0.3457   -1.2256 H   0  0  0  0  0  0  0  0  0  0  0  0
   -0.8161   -0.4902    0.3078 H   0  0  0  0  0  0  0  0  0  0  0  0
    0.1050    2.4078    0.0753 H   0  0  0  0  0  0  0  0  0  0  0  0
   -0.3006    1.5577    1.6456 H   0  0  0  0  0  0  0  0  0  0  0  0
    1.5530   -0.0631    1.1838 H   0  0  0  0  0  0  0  0  0  0  0  0
    2.0706    1.6171    1.4000 H   0  0  0  0  0  0  0  0  0  0  0  0
    2.1279    1.9968   -1.0169 H   0  0  0  0  0  0  0  0  0  0  0  0
    1.5545    0.2540   -1.3196 H   0  0  0  0  0  0  0  0  0  0  0  0
    3.7885   -0.3641   -1.0813 H   0  0  0  0  0  0  0  0  0  0  0  0
    6.4460    2.4526    1.5243 H   0  0  0  0  0  0  0  0  0  0  0  0
    5.7165   -0.9736   -0.9341 H   0  0  0  0  0  0  0  0  0  0  0  0
    7.5606   -2.4878   -1.4128 H   0  0  0  0  0  0  0  0  0  0  0  0
    9.9547   -3.0704   -1.1242 H   0  0  0  0  0  0  0  0  0  0  0  0
   11.3752   -1.6431    0.2144 H   0  0  0  0  0  0  0  0  0  0  0  0
   10.5485    0.3715    1.3078 H   0  0  0  0  0  0  0  0  0  0  0  0
  1  2  1  0
  2  3  1  0
  3  4  2  0
  4  5  1  0
  4  6  1  0
  6  7  2  0
  7  8  1  0
  8  9  2  0
  9 10  1  0
 10 11  1  0
 11 12  1  0
 12 13  1  0
 13 14  1  0
 14 15  1  0
 13 16  1  0
 16 17  1  0
 17 18  1  0
 18 19  1  0
 19 20  1  0
 20 21  1  0
 21 22  2  0
 21 23  1  0
 23 24  2  0
 24 25  1  0
 25 26  2  0
 26 27  1  0
 27 28  2  0
 27 29  1  0
 29 30  2  0
 30 31  1  0
 31 32  2  0
  9  3  1  0
 15 10  1  0
 28 23  1  0
 32 26  1  0
  1 33  1  0
  1 34  1  0
  1 35  1  0
  6 36  1  0
  7 37  1  0
  8 38  1  0
 11 39  1  0
 11 40  1  0
 12 41  1  0
 12 42  1  0
 14 43  1  0
 14 44  1  0
 15 45  1  0
 15 46  1  0
 16 47  1  0
 16 48  1  0
 17 49  1  0
 17 50  1  0
 18 51  1  0
 18 52  1  0
 19 53  1  0
 19 54  1  0
 20 55  1  0
 24 56  1  0
 28 57  1  0
 29 58  1  0
 30 59  1  0
 31 60  1  0
 32 61  1  0
M  END
>  <Ligand ID>  (1) 
LIG0004759

>  <Ligand>  (1) 
CHEMBL3597637

>  <SMILES>  (1) 
COc1c(Cl)cccc1N1CCN(CC1)CCCCNC(=O)c1cnc2c(c1)cccc2

>  <CID>  (1) 
122183765.0

>  <ChEMBL ID>  (1) 
nan

>  <InChiKey>  (1) 
AENWLGXTORARIE-UHFFFAOYSA-N

>  <InChi>  (1) 
InChI=1S/C25H29ClN4O2/c1-32-24-21(26)8-6-10-23(24)30-15-13-29(14-16-30)12-5-4-11-27-25(31)20-17-19-7-2-3-9-22(19)28-18-20/h2-3,6-10,17-18H,4-5,11-16H2,1H3,(H,27,31)

>  <IUPAC Name>  (1) 
N-[4-[4-(3-chloro-2-methoxyphenyl)piperazin-1-yl]butyl]quinoline-3-carboxamide

$$$$
