
     RDKit          3D

 47 48  0  0  0  0  0  0  0  0999 V2000
   -0.0903   -1.7464    2.6870 S   0  0  0  0  0  0  0  0  0  0  0  0
    0.5982   -0.9066    1.4711 C   0  0  0  0  0  0  0  0  0  0  0  0
    1.7656   -0.1420    1.8110 N   0  0  0  0  0  0  0  0  0  0  0  0
    2.4557    0.6224    0.7996 C   0  0  0  0  0  0  0  0  0  0  0  0
    1.8391    1.6837    0.1650 C   0  0  0  0  0  0  0  0  0  0  0  0
    2.5145    2.4203   -0.7979 C   0  0  0  0  0  0  0  0  0  0  0  0
    3.8293    2.0391   -1.0863 C   0  0  0  0  0  0  0  0  0  0  0  0
    4.4428    0.9834   -0.4542 C   0  0  0  0  0  0  0  0  0  0  0  0
    3.7565    0.2574    0.5037 C   0  0  0  0  0  0  0  0  0  0  0  0
    4.3685   -0.8761    1.2062 C   0  0  0  0  0  0  0  0  0  0  0  0
    5.8686    0.6422   -0.8168 C   0  0  0  0  0  0  0  0  0  0  0  0
    0.1083   -0.9118    0.1386 N   0  0  0  0  0  0  0  0  0  0  0  0
   -1.0556   -1.6368   -0.3064 C   0  0  0  0  0  0  0  0  0  0  0  0
   -2.3461   -1.0852    0.2535 C   0  0  0  0  0  0  0  0  0  0  0  0
   -2.5559    0.3103   -0.1246 C   0  0  0  0  0  0  0  0  0  0  0  0
   -3.2134    0.7598   -1.2431 C   0  0  0  0  0  0  0  0  0  0  0  0
   -3.3575    2.1229   -1.5263 C   0  0  0  0  0  0  0  0  0  0  0  0
   -2.8323    3.0489   -0.6710 C   0  0  0  0  0  0  0  0  0  0  0  0
   -2.1902    2.6206    0.4208 N   0  0  0  0  0  0  0  0  0  0  0  0
   -2.0414    1.3183    0.7110 C   0  0  0  0  0  0  0  0  0  0  0  0
   -3.4529   -1.9366    0.1335 N   0  0  0  0  0  0  0  0  0  0  0  0
   -3.7721   -2.5522   -1.0933 C   0  0  0  0  0  0  0  0  0  0  0  0
   -4.5203   -1.7427    1.0551 C   0  0  0  0  0  0  0  0  0  0  0  0
    2.1664   -0.0941    2.7620 H   0  0  0  0  0  0  0  0  0  0  0  0
    0.8003    1.9642    0.4112 H   0  0  0  0  0  0  0  0  0  0  0  0
    2.0778    3.2522   -1.3245 H   0  0  0  0  0  0  0  0  0  0  0  0
    4.3607    2.5960   -1.8273 H   0  0  0  0  0  0  0  0  0  0  0  0
    4.6936   -0.6086    2.2154 H   0  0  0  0  0  0  0  0  0  0  0  0
    5.1497   -1.3995    0.6124 H   0  0  0  0  0  0  0  0  0  0  0  0
    3.5684   -1.6670    1.3246 H   0  0  0  0  0  0  0  0  0  0  0  0
    5.9688    0.2049   -1.8066 H   0  0  0  0  0  0  0  0  0  0  0  0
    6.3843    0.0918    0.0008 H   0  0  0  0  0  0  0  0  0  0  0  0
    6.3817    1.6488   -0.8369 H   0  0  0  0  0  0  0  0  0  0  0  0
    0.6423   -0.3435   -0.5581 H   0  0  0  0  0  0  0  0  0  0  0  0
   -0.8873   -2.7014   -0.0660 H   0  0  0  0  0  0  0  0  0  0  0  0
   -1.1089   -1.5637   -1.4106 H   0  0  0  0  0  0  0  0  0  0  0  0
   -2.1315   -1.0505    1.3888 H   0  0  0  0  0  0  0  0  0  0  0  0
   -3.6496    0.0930   -1.9474 H   0  0  0  0  0  0  0  0  0  0  0  0
   -3.8859    2.4314   -2.4244 H   0  0  0  0  0  0  0  0  0  0  0  0
   -2.9351    4.1285   -0.8780 H   0  0  0  0  0  0  0  0  0  0  0  0
   -1.5083    1.0839    1.6174 H   0  0  0  0  0  0  0  0  0  0  0  0
   -3.3065   -2.1858   -2.0047 H   0  0  0  0  0  0  0  0  0  0  0  0
   -3.6295   -3.6694   -0.9757 H   0  0  0  0  0  0  0  0  0  0  0  0
   -4.8920   -2.4800   -1.2384 H   0  0  0  0  0  0  0  0  0  0  0  0
   -4.3808   -0.7377    1.5144 H   0  0  0  0  0  0  0  0  0  0  0  0
   -5.5448   -1.8038    0.6015 H   0  0  0  0  0  0  0  0  0  0  0  0
   -4.4524   -2.4826    1.9014 H   0  0  0  0  0  0  0  0  0  0  0  0
  1  2  2  0
  2  3  1  0
  3  4  1  0
  4  5  2  0
  5  6  1  0
  6  7  2  0
  7  8  1  0
  8  9  2  0
  9 10  1  0
  8 11  1  0
  2 12  1  0
 12 13  1  0
 13 14  1  0
 14 15  1  0
 15 16  2  0
 16 17  1  0
 17 18  2  0
 18 19  1  0
 19 20  2  0
 14 21  1  0
 21 22  1  0
 21 23  1  0
  9  4  1  0
 20 15  1  0
  3 24  1  0
  5 25  1  0
  6 26  1  0
  7 27  1  0
 10 28  1  0
 10 29  1  0
 10 30  1  0
 11 31  1  0
 11 32  1  0
 11 33  1  0
 12 34  1  0
 13 35  1  0
 13 36  1  0
 14 37  1  0
 16 38  1  0
 17 39  1  0
 18 40  1  0
 20 41  1  0
 22 42  1  0
 22 43  1  0
 22 44  1  0
 23 45  1  0
 23 46  1  0
 23 47  1  0
M  END
>  <Ligand ID>  (1) 
LIG0003591

>  <Ligand>  (1) 
SMR000236205

>  <SMILES>  (1) 
S=C(Nc1cccc(c1C)C)NCC(c1cccnc1)N(C)C

>  <CID>  (1) 
3606260.0

>  <ChEMBL ID>  (1) 
nan

>  <InChiKey>  (1) 
ZUBXPOQZZQKIPO-UHFFFAOYSA-N

>  <InChi>  (1) 
InChI=1S/C18H24N4S/c1-13-7-5-9-16(14(13)2)21-18(23)20-12-17(22(3)4)15-8-6-10-19-11-15/h5-11,17H,12H2,1-4H3,(H2,20,21,23)

>  <IUPAC Name>  (1) 
1-[2-(dimethylamino)-2-pyridin-3-ylethyl]-3-(2,3-dimethylphenyl)thiourea

$$$$
