
     RDKit          3D

 27 28  0  0  0  0  0  0  0  0999 V2000
    4.2655   -1.7530    0.0158 Cl  0  0  0  0  0  0  0  0  0  0  0  0
    2.8630   -0.6904   -0.0557 C   0  0  0  0  0  0  0  0  0  0  0  0
    1.5867   -1.2156   -0.1778 C   0  0  0  0  0  0  0  0  0  0  0  0
    0.4582   -0.4014   -0.2370 C   0  0  0  0  0  0  0  0  0  0  0  0
   -0.7706   -1.1823   -0.3650 C   0  0  0  0  0  0  0  0  0  0  0  0
   -0.6573   -2.6224    0.0012 C   0  0  0  0  0  0  0  0  0  0  0  0
   -1.8069   -0.5499    0.5650 C   0  0  0  0  0  0  0  0  0  0  0  0
   -2.3098    0.5778   -0.1204 N   0  0  0  0  0  0  0  0  0  0  0  0
   -1.7463    1.8251    0.1582 C   0  0  0  0  0  0  0  0  0  0  0  0
   -0.3444    2.0713   -0.2067 C   0  0  0  0  0  0  0  0  0  0  0  0
    0.6034    0.9537   -0.1736 C   0  0  0  0  0  0  0  0  0  0  0  0
    1.9005    1.4741   -0.0500 C   0  0  0  0  0  0  0  0  0  0  0  0
    3.0079    0.6610    0.0075 C   0  0  0  0  0  0  0  0  0  0  0  0
    2.1424    3.2119    0.0357 Cl  0  0  0  0  0  0  0  0  0  0  0  0
    1.5164   -2.2927   -0.2246 H   0  0  0  0  0  0  0  0  0  0  0  0
   -1.2193   -1.1344   -1.3830 H   0  0  0  0  0  0  0  0  0  0  0  0
   -0.0929   -2.7790    0.9372 H   0  0  0  0  0  0  0  0  0  0  0  0
   -0.2786   -3.2522   -0.8510 H   0  0  0  0  0  0  0  0  0  0  0  0
   -1.7098   -2.9831    0.1911 H   0  0  0  0  0  0  0  0  0  0  0  0
   -1.2805   -0.2438    1.4832 H   0  0  0  0  0  0  0  0  0  0  0  0
   -2.5731   -1.2925    0.8927 H   0  0  0  0  0  0  0  0  0  0  0  0
   -3.0759    0.4695   -0.7669 H   0  0  0  0  0  0  0  0  0  0  0  0
   -2.3645    2.5948   -0.3615 H   0  0  0  0  0  0  0  0  0  0  0  0
   -1.9176    2.0238    1.2576 H   0  0  0  0  0  0  0  0  0  0  0  0
    0.0485    2.8429    0.5179 H   0  0  0  0  0  0  0  0  0  0  0  0
   -0.2492    2.5767   -1.1942 H   0  0  0  0  0  0  0  0  0  0  0  0
    4.0044    1.1101    0.1043 H   0  0  0  0  0  0  0  0  0  0  0  0
  1  2  1  0
  2  3  2  0
  3  4  1  0
  4  5  1  0
  5  6  1  0
  5  7  1  0
  7  8  1  0
  8  9  1  0
  9 10  1  0
 10 11  1  0
 11 12  1  0
 12 13  2  0
 12 14  1  0
 13  2  1  0
 11  4  2  0
  3 15  1  0
  5 16  1  0
  6 17  1  0
  6 18  1  0
  6 19  1  0
  7 20  1  0
  7 21  1  0
  8 22  1  0
  9 23  1  0
  9 24  1  0
 10 25  1  0
 10 26  1  0
 13 27  1  0
M  END
>  <Ligand ID>  (1) 
LIG0004016

>  <Ligand>  (1) 
CHEMBL179337

>  <SMILES>  (1) 
Clc1cc2C(C)CNCCc2c(c1)Cl

>  <CID>  (1) 
11160564.0

>  <ChEMBL ID>  (1) 
nan

>  <InChiKey>  (1) 
LVDZEHWRCDOGFA-UHFFFAOYSA-N

>  <InChi>  (1) 
InChI=1S/C11H13Cl2N/c1-7-6-14-3-2-9-10(7)4-8(12)5-11(9)13/h4-5,7,14H,2-3,6H2,1H3

>  <IUPAC Name>  (1) 
7,9-dichloro-5-methyl-2,3,4,5-tetrahydro-1H-3-benzazepine

$$$$
