
     RDKit          3D

 61 64  0  0  0  0  0  0  0  0999 V2000
   -1.0611   -0.1974   -2.2452 O   0  0  0  0  0  0  0  0  0  0  0  0
   -1.8763   -0.3277   -1.2689 C   0  0  0  0  0  0  0  0  0  0  0  0
   -1.6581    0.4140   -0.0349 N   0  0  0  0  0  0  0  0  0  0  0  0
   -0.4442    1.2375   -0.1125 C   0  0  0  0  0  0  0  0  0  0  0  0
   -0.6200    2.1226   -1.3118 C   0  0  0  0  0  0  0  0  0  0  0  0
   -0.3824    3.5829   -1.0554 C   0  0  0  0  0  0  0  0  0  0  0  0
   -1.1074    4.0608    0.1725 C   0  0  0  0  0  0  0  0  0  0  0  0
   -0.7415    3.2699    1.3957 C   0  0  0  0  0  0  0  0  0  0  0  0
   -0.0760    1.9835    1.1138 C   0  0  0  0  0  0  0  0  0  0  0  0
    0.6389    0.2066   -0.2885 C   0  0  0  0  0  0  0  0  0  0  0  0
    0.3813   -1.0265   -0.3528 O   0  0  0  0  0  0  0  0  0  0  0  0
    2.0119    0.5609   -0.3882 N   0  0  0  0  0  0  0  0  0  0  0  0
    3.0124   -0.4690   -0.5665 C   0  0  0  0  0  0  0  0  0  0  0  0
    4.0970   -0.1284   -1.5164 C   0  0  0  0  0  0  0  0  0  0  0  0
    5.4789   -0.1305   -0.9062 C   0  0  0  0  0  0  0  0  0  0  0  0
    5.7837   -1.3794   -0.1083 C   0  0  0  0  0  0  0  0  0  0  0  0
    4.5423   -2.1098    0.3305 C   0  0  0  0  0  0  0  0  0  0  0  0
    3.5588   -1.0012    0.7587 C   0  0  0  0  0  0  0  0  0  0  0  0
   -2.5501    0.3378    1.0379 C   0  0  0  0  0  0  0  0  0  0  0  0
   -2.3603   -0.6756    2.0969 C   0  0  0  0  0  0  0  0  0  0  0  0
   -1.6593   -0.5495    3.3072 C   0  0  0  0  0  0  0  0  0  0  0  0
   -1.7670   -1.7679    3.9604 C   0  0  0  0  0  0  0  0  0  0  0  0
   -2.5170   -2.5460    3.1161 C   0  0  0  0  0  0  0  0  0  0  0  0
   -2.8471   -1.8884    2.0439 O   0  0  0  0  0  0  0  0  0  0  0  0
   -2.9784   -1.2318   -1.5019 C   0  0  0  0  0  0  0  0  0  0  0  0
   -3.9696   -0.9475   -2.4661 C   0  0  0  0  0  0  0  0  0  0  0  0
   -4.9978   -1.8640   -2.6643 C   0  0  0  0  0  0  0  0  0  0  0  0
   -5.0886   -3.0275   -1.9631 C   0  0  0  0  0  0  0  0  0  0  0  0
   -4.0935   -3.2760   -1.0227 C   0  0  0  0  0  0  0  0  0  0  0  0
   -3.1323   -2.3882   -0.8581 N   0  0  0  0  0  0  0  0  0  0  0  0
   -1.6769    2.0605   -1.7032 H   0  0  0  0  0  0  0  0  0  0  0  0
    0.0276    1.8457   -2.1816 H   0  0  0  0  0  0  0  0  0  0  0  0
    0.6617    3.8892   -1.0855 H   0  0  0  0  0  0  0  0  0  0  0  0
   -0.8797    4.1336   -1.9128 H   0  0  0  0  0  0  0  0  0  0  0  0
   -0.8608    5.1562    0.2840 H   0  0  0  0  0  0  0  0  0  0  0  0
   -2.2007    4.0622   -0.0287 H   0  0  0  0  0  0  0  0  0  0  0  0
    0.0044    3.9207    1.9542 H   0  0  0  0  0  0  0  0  0  0  0  0
   -1.6142    3.2790    2.0477 H   0  0  0  0  0  0  0  0  0  0  0  0
   -0.0274    1.3525    1.9916 H   0  0  0  0  0  0  0  0  0  0  0  0
    1.0336    2.2545    0.9538 H   0  0  0  0  0  0  0  0  0  0  0  0
    2.3353    1.5383   -0.3428 H   0  0  0  0  0  0  0  0  0  0  0  0
    2.4432   -1.3491   -0.9653 H   0  0  0  0  0  0  0  0  0  0  0  0
    3.9329    0.9238   -1.8819 H   0  0  0  0  0  0  0  0  0  0  0  0
    4.1264   -0.7414   -2.4393 H   0  0  0  0  0  0  0  0  0  0  0  0
    6.1985   -0.1093   -1.7490 H   0  0  0  0  0  0  0  0  0  0  0  0
    5.6020    0.7880   -0.3276 H   0  0  0  0  0  0  0  0  0  0  0  0
    6.4458   -2.0908   -0.6500 H   0  0  0  0  0  0  0  0  0  0  0  0
    6.3398   -1.0558    0.8065 H   0  0  0  0  0  0  0  0  0  0  0  0
    4.1253   -2.7529   -0.4504 H   0  0  0  0  0  0  0  0  0  0  0  0
    4.7818   -2.6796    1.2668 H   0  0  0  0  0  0  0  0  0  0  0  0
    2.7694   -1.5356    1.3134 H   0  0  0  0  0  0  0  0  0  0  0  0
    4.1444   -0.2746    1.3151 H   0  0  0  0  0  0  0  0  0  0  0  0
   -2.7235    1.2908    1.5863 H   0  0  0  0  0  0  0  0  0  0  0  0
   -3.5841    0.1645    0.5629 H   0  0  0  0  0  0  0  0  0  0  0  0
   -1.1344    0.2912    3.7033 H   0  0  0  0  0  0  0  0  0  0  0  0
   -1.3237   -1.9836    4.9248 H   0  0  0  0  0  0  0  0  0  0  0  0
   -2.8124   -3.5898    3.2989 H   0  0  0  0  0  0  0  0  0  0  0  0
   -3.9415   -0.0383   -3.0495 H   0  0  0  0  0  0  0  0  0  0  0  0
   -5.7693   -1.6687   -3.4058 H   0  0  0  0  0  0  0  0  0  0  0  0
   -5.9127   -3.7401   -2.1235 H   0  0  0  0  0  0  0  0  0  0  0  0
   -4.0881   -4.1853   -0.4143 H   0  0  0  0  0  0  0  0  0  0  0  0
  1  2  2  0
  2  3  1  0
  3  4  1  0
  4  5  1  0
  5  6  1  0
  6  7  1  0
  7  8  1  0
  8  9  1  0
  4 10  1  0
 10 11  2  0
 10 12  1  0
 12 13  1  0
 13 14  1  0
 14 15  1  0
 15 16  1  0
 16 17  1  0
 17 18  1  0
  3 19  1  0
 19 20  1  0
 20 21  2  0
 21 22  1  0
 22 23  2  0
 23 24  1  0
  2 25  1  0
 25 26  2  0
 26 27  1  0
 27 28  2  0
 28 29  1  0
 29 30  2  0
  9  4  1  0
 18 13  1  0
 24 20  1  0
 30 25  1  0
  5 31  1  0
  5 32  1  0
  6 33  1  0
  6 34  1  0
  7 35  1  0
  7 36  1  0
  8 37  1  0
  8 38  1  0
  9 39  1  0
  9 40  1  0
 12 41  1  0
 13 42  1  0
 14 43  1  0
 14 44  1  0
 15 45  1  0
 15 46  1  0
 16 47  1  0
 16 48  1  0
 17 49  1  0
 17 50  1  0
 18 51  1  0
 18 52  1  0
 19 53  1  0
 19 54  1  0
 21 55  1  0
 22 56  1  0
 23 57  1  0
 26 58  1  0
 27 59  1  0
 28 60  1  0
 29 61  1  0
M  END
>  <Ligand ID>  (1) 
LIG0003058

>  <Ligand>  (1) 
MLS002699341

>  <SMILES>  (1) 
O=C(N(C1(CCCCC1)C(=O)NC1CCCCC1)Cc1ccco1)c1ccccn1

>  <CID>  (1) 
3950926.0

>  <ChEMBL ID>  (1) 
nan

>  <InChiKey>  (1) 
LKMUXDJRCIBCRA-UHFFFAOYSA-N

>  <InChi>  (1) 
InChI=1S/C24H31N3O3/c28-22(21-13-5-8-16-25-21)27(18-20-12-9-17-30-20)24(14-6-2-7-15-24)23(29)26-19-10-3-1-4-11-19/h5,8-9,12-13,16-17,19H,1-4,6-7,10-11,14-15,18H2,(H,26,29)

>  <IUPAC Name>  (1) 
N-[1-(cyclohexylcarbamoyl)cyclohexyl]-N-(furan-2-ylmethyl)pyridine-2-carboxamide

$$$$
