
     RDKit          3D

211219  0  0  0  0  0  0  0  0999 V2000
   -6.3184   -6.2781   -0.9658 N   0  0  0  0  0  0  0  0  0  0  0  0
   -5.4193   -5.1927   -0.8878 C   0  0  0  0  0  0  0  0  0  0  0  0
   -5.7999   -4.0886   -1.3090 O   0  0  0  0  0  0  0  0  0  0  0  0
   -4.0439   -5.3771   -0.3018 C   0  0  0  0  0  0  0  0  0  0  0  0
   -4.0439   -4.9540    1.1669 C   0  0  2  0  0  0  0  0  0  0  0  0
   -4.3962   -3.5457    1.2601 N   0  0  0  0  0  0  0  0  0  0  0  0
   -5.6841   -3.1718    1.5892 C   0  0  0  0  0  0  0  0  0  0  0  0
   -6.5170   -4.1550    1.7669 O   0  0  0  0  0  0  0  0  0  0  0  0
   -6.2660   -1.8398    1.7736 C   0  0  2  0  0  0  0  0  0  0  0  0
   -7.5139   -1.5468    1.0304 C   0  0  0  0  0  0  0  0  0  0  0  0
   -8.5597   -2.5424    1.5261 C   0  0  0  0  0  0  0  0  0  0  0  0
   -9.0878   -2.2159    2.7572 C   0  0  0  0  0  0  0  0  0  0  0  0
  -10.0391   -3.0008    3.3871 C   0  0  0  0  0  0  0  0  0  0  0  0
  -10.4307   -4.1365    2.7094 C   0  0  0  0  0  0  0  0  0  0  0  0
   -9.9026   -4.4634    1.4758 C   0  0  0  0  0  0  0  0  0  0  0  0
   -8.9402   -3.6618    0.8452 C   0  0  0  0  0  0  0  0  0  0  0  0
  -10.3669   -5.6128    0.9005 C   0  0  0  0  0  0  0  0  0  0  0  0
  -11.3171   -6.4448    1.4792 C   0  0  0  0  0  0  0  0  0  0  0  0
  -11.8307   -6.1003    2.7045 C   0  0  0  0  0  0  0  0  0  0  0  0
  -11.3812   -4.9457    3.3123 C   0  0  0  0  0  0  0  0  0  0  0  0
   -5.1553   -0.8277    1.5878 N   0  0  0  0  0  0  0  0  0  0  0  0
   -4.7337   -0.8115    0.2321 C   0  0  0  0  0  0  0  0  0  0  0  0
   -5.3682    0.3374   -0.5314 C   0  0  2  0  0  0  0  0  0  0  0  0
   -5.1892    0.0546   -1.9707 C   0  0  0  0  0  0  0  0  0  0  0  0
   -5.8328    1.1928   -2.7984 C   0  0  0  0  0  0  0  0  0  0  0  0
   -5.6564    0.9392   -4.2562 C   0  0  0  0  0  0  0  0  0  0  0  0
   -6.2714    2.0169   -4.9871 N   0  0  0  0  0  0  0  0  0  0  0  0
   -5.7907    3.3572   -5.0025 C   0  0  0  0  0  0  0  0  0  0  0  0
   -4.8064    3.6963   -4.2586 N   0  0  0  0  0  0  0  0  0  0  0  0
   -6.4583    4.2857   -5.8663 N   0  0  0  0  0  0  0  0  0  0  0  0
   -4.3953    1.4495   -0.2547 N   0  0  0  0  0  0  0  0  0  0  0  0
   -4.8262    2.5808    0.4477 C   0  0  0  0  0  0  0  0  0  0  0  0
   -6.1032    2.5049    0.7967 O   0  0  0  0  0  0  0  0  0  0  0  0
   -4.1697    3.7577    0.8479 C   0  0  1  0  0  0  0  0  0  0  0  0
   -3.9596    3.7144    2.4026 C   0  0  0  0  0  0  0  0  0  0  0  0
   -3.1034    2.2596    2.8581 S   0  0  0  0  0  0  0  0  0  0  0  0
   -3.9119    0.8204    3.3621 C   0  0  0  0  0  0  0  0  0  0  0  0
   -4.7013   -0.1430    2.7049 C   0  0  0  0  0  0  0  0  0  0  0  0
   -5.4351   -0.7781    3.6726 O   0  0  0  0  0  0  0  0  0  0  0  0
   -2.7526    4.0491    0.4759 N   0  0  0  0  0  0  0  0  0  0  0  0
   -2.3903    5.3524    0.6828 C   0  0  0  0  0  0  0  0  0  0  0  0
   -3.4328    6.1635    0.9801 O   0  0  0  0  0  0  0  0  0  0  0  0
   -1.1700    6.1885    0.6912 C   0  0  1  0  0  0  0  0  0  0  0  0
   -1.1648    6.7525    2.1397 C   0  0  0  0  0  0  0  0  0  0  0  0
   -0.1454    7.6154    2.6345 C   0  0  0  0  0  0  0  0  0  0  0  0
   -0.2291    8.9788    2.5339 C   0  0  0  0  0  0  0  0  0  0  0  0
    0.7858    9.7309    3.1571 C   0  0  0  0  0  0  0  0  0  0  0  0
    1.8143    9.1877    3.8333 C   0  0  0  0  0  0  0  0  0  0  0  0
    1.8996    7.8181    3.9368 C   0  0  0  0  0  0  0  0  0  0  0  0
    0.9265    7.0365    3.3435 C   0  0  0  0  0  0  0  0  0  0  0  0
    0.1149    5.7010    0.4289 N   0  0  0  0  0  0  0  0  0  0  0  0
    0.7961    5.4168   -0.7975 C   0  0  0  0  0  0  0  0  0  0  0  0
    0.1326    5.3079   -1.8192 O   0  0  0  0  0  0  0  0  0  0  0  0
    2.2893    5.2716   -0.6623 C   0  0  2  0  0  0  0  0  0  0  0  0
    2.7588    6.5898   -1.3174 C   0  0  0  0  0  0  0  0  0  0  0  0
    2.3160    7.8283   -0.7852 C   0  0  0  0  0  0  0  0  0  0  0  0
    2.9204    8.6214    0.1487 N   0  0  0  0  0  0  0  0  0  0  0  0
    2.1629    9.6997    0.2641 C   0  0  0  0  0  0  0  0  0  0  0  0
    1.0844    9.6627   -0.5428 N   0  0  0  0  0  0  0  0  0  0  0  0
    1.1663    8.5001   -1.2048 C   0  0  0  0  0  0  0  0  0  0  0  0
    2.9624    4.3189   -1.5026 N   0  0  0  0  0  0  0  0  0  0  0  0
    2.8825    2.8952   -1.4636 C   0  0  0  0  0  0  0  0  0  0  0  0
    1.9382    2.4217   -0.8220 O   0  0  0  0  0  0  0  0  0  0  0  0
    3.9356    2.1729   -2.2185 C   0  0  2  0  0  0  0  0  0  0  0  0
    4.2787    0.7927   -1.7958 C   0  0  0  0  0  0  0  0  0  0  0  0
    4.6373    0.6560    0.0043 S   0  0  0  0  0  0  0  0  0  0  0  0
    2.7969    0.5756    1.0516 S   0  0  0  0  0  0  0  0  0  0  0  0
    2.2496   -1.1200    1.3790 C   0  0  0  0  0  0  0  0  0  0  0  0
    2.2149   -1.9600    0.1850 C   0  0  2  0  0  0  0  0  0  0  0  0
    1.4766   -3.2417    0.4597 N   0  0  0  0  0  0  0  0  0  0  0  0
    1.5488   -4.1661   -0.6019 C   0  0  0  0  0  0  0  0  0  0  0  0
    2.2307   -3.7848   -1.6257 O   0  0  0  0  0  0  0  0  0  0  0  0
    0.9650   -5.5010   -0.6930 C   0  0  1  0  0  0  0  0  0  0  0  0
   -0.0587   -5.7912    0.2985 N   0  0  0  0  0  0  0  0  0  0  0  0
    0.2165   -6.5373    1.4965 C   0  0  0  0  0  0  0  0  0  0  0  0
    1.3772   -6.9322    1.7291 O   0  0  0  0  0  0  0  0  0  0  0  0
   -0.9380   -6.8054    2.4329 C   0  0  1  0  0  0  0  0  0  0  0  0
   -2.1712   -6.5021    1.7884 N   0  0  0  0  0  0  0  0  0  0  0  0
   -2.7718   -5.2618    1.8345 C   0  0  0  0  0  0  0  0  0  0  0  0
   -2.2400   -4.2801    2.4769 O   0  0  0  0  0  0  0  0  0  0  0  0
   -0.7883   -8.1223    3.0701 C   0  0  0  0  0  0  0  0  0  0  0  0
    0.5834   -6.0124   -2.0530 C   0  0  0  0  0  0  0  0  0  0  0  0
    1.7822   -6.0689   -2.9676 C   0  0  0  0  0  0  0  0  0  0  0  0
    2.7017   -7.1153   -2.8441 C   0  0  0  0  0  0  0  0  0  0  0  0
    3.8020   -7.2141   -3.6763 C   0  0  0  0  0  0  0  0  0  0  0  0
    3.9834   -6.2527   -4.6432 C   0  0  0  0  0  0  0  0  0  0  0  0
    3.1076   -5.1951   -4.8093 C   0  0  0  0  0  0  0  0  0  0  0  0
    2.0161   -5.1485   -3.9416 C   0  0  0  0  0  0  0  0  0  0  0  0
    3.6428   -2.5710    0.0330 C   0  0  0  0  0  0  0  0  0  0  0  0
    4.4941   -2.0702   -0.6919 O   0  0  0  0  0  0  0  0  0  0  0  0
    3.9856   -3.7486    0.7579 N   0  0  0  0  0  0  0  0  0  0  0  0
    5.2756   -4.3934    0.6334 C   0  0  2  0  0  0  0  0  0  0  0  0
    5.2935   -5.6768    1.3009 C   0  0  0  0  0  0  0  0  0  0  0  0
    6.2459   -6.5203    1.1440 O   0  0  0  0  0  0  0  0  0  0  0  0
    4.2698   -6.1590    2.2086 N   0  0  0  0  0  0  0  0  0  0  0  0
    6.4207   -3.4718    1.1230 C   0  0  0  0  0  0  0  0  0  0  0  0
    7.6747   -4.2673    0.9587 C   0  0  0  0  0  0  0  0  0  0  0  0
    8.3561   -4.3426   -0.2471 C   0  0  0  0  0  0  0  0  0  0  0  0
    9.5053   -5.1156   -0.3808 C   0  0  0  0  0  0  0  0  0  0  0  0
    9.9439   -5.8094    0.7354 C   0  0  0  0  0  0  0  0  0  0  0  0
    9.2773   -5.7432    1.9410 C   0  0  0  0  0  0  0  0  0  0  0  0
    8.1503   -4.9721    2.0432 C   0  0  0  0  0  0  0  0  0  0  0  0
   11.0879   -6.5850    0.6308 O   0  0  0  0  0  0  0  0  0  0  0  0
    5.1516    2.9611   -2.0171 N   0  0  0  0  0  0  0  0  0  0  0  0
    6.1093    3.3702   -2.9201 C   0  0  0  0  0  0  0  0  0  0  0  0
    6.0279    3.0787   -4.1152 O   0  0  0  0  0  0  0  0  0  0  0  0
    7.2575    4.1918   -2.3495 C   0  0  2  0  0  0  0  0  0  0  0  0
    6.6971    5.5546   -2.0258 C   0  0  0  0  0  0  0  0  0  0  0  0
    7.7448    6.4159   -1.4574 C   0  0  0  0  0  0  0  0  0  0  0  0
    8.5765    7.1972   -2.2542 C   0  0  0  0  0  0  0  0  0  0  0  0
    9.4914    7.9709   -1.5881 C   0  0  0  0  0  0  0  0  0  0  0  0
    9.6560    8.0424   -0.2421 C   0  0  0  0  0  0  0  0  0  0  0  0
    8.8251    7.2620    0.5451 C   0  0  0  0  0  0  0  0  0  0  0  0
    7.8825    6.4637   -0.0852 C   0  0  0  0  0  0  0  0  0  0  0  0
   10.6224    8.8761    0.2866 O   0  0  0  0  0  0  0  0  0  0  0  0
    8.3606    4.2161   -3.2778 N   0  0  0  0  0  0  0  0  0  0  0  0
   -6.9121   -6.4485   -1.8131 H   0  0  0  0  0  0  0  0  0  0  0  0
   -6.3805   -6.9136   -0.1507 H   0  0  0  0  0  0  0  0  0  0  0  0
   -3.8013   -6.4617   -0.2921 H   0  0  0  0  0  0  0  0  0  0  0  0
   -3.3398   -4.8236   -0.9273 H   0  0  0  0  0  0  0  0  0  0  0  0
   -4.8699   -5.5897    1.6076 H   0  0  0  0  0  0  0  0  0  0  0  0
   -3.5883   -2.8895    1.0635 H   0  0  0  0  0  0  0  0  0  0  0  0
   -6.6275   -1.8768    2.8412 H   0  0  0  0  0  0  0  0  0  0  0  0
   -7.4536   -1.7640   -0.0585 H   0  0  0  0  0  0  0  0  0  0  0  0
   -7.9359   -0.5530    1.2455 H   0  0  0  0  0  0  0  0  0  0  0  0
   -8.7871   -1.3199    3.3058 H   0  0  0  0  0  0  0  0  0  0  0  0
  -10.4565   -2.7607    4.3459 H   0  0  0  0  0  0  0  0  0  0  0  0
   -8.5304   -3.9022   -0.1033 H   0  0  0  0  0  0  0  0  0  0  0  0
   -9.9860   -5.9190   -0.0781 H   0  0  0  0  0  0  0  0  0  0  0  0
  -11.6664   -7.3446    1.0033 H   0  0  0  0  0  0  0  0  0  0  0  0
  -12.5668   -6.6857    3.2346 H   0  0  0  0  0  0  0  0  0  0  0  0
  -11.7905   -4.6750    4.2908 H   0  0  0  0  0  0  0  0  0  0  0  0
   -3.6506   -0.7684    0.0602 H   0  0  0  0  0  0  0  0  0  0  0  0
   -5.0547   -1.7024   -0.3532 H   0  0  0  0  0  0  0  0  0  0  0  0
   -6.3734    0.5791   -0.2861 H   0  0  0  0  0  0  0  0  0  0  0  0
   -5.6778   -0.8721   -2.3232 H   0  0  0  0  0  0  0  0  0  0  0  0
   -4.1330    0.0176   -2.3117 H   0  0  0  0  0  0  0  0  0  0  0  0
   -6.9298    1.1546   -2.5696 H   0  0  0  0  0  0  0  0  0  0  0  0
   -5.3978    2.1651   -2.5424 H   0  0  0  0  0  0  0  0  0  0  0  0
   -4.5591    0.9379   -4.4561 H   0  0  0  0  0  0  0  0  0  0  0  0
   -6.0765   -0.0555   -4.5664 H   0  0  0  0  0  0  0  0  0  0  0  0
   -7.1406    1.8072   -5.5538 H   0  0  0  0  0  0  0  0  0  0  0  0
   -4.5034    4.6865   -4.3148 H   0  0  0  0  0  0  0  0  0  0  0  0
   -7.3616    4.7322   -5.5950 H   0  0  0  0  0  0  0  0  0  0  0  0
   -6.0618    4.5562   -6.8087 H   0  0  0  0  0  0  0  0  0  0  0  0
   -3.4335    1.2861   -0.6227 H   0  0  0  0  0  0  0  0  0  0  0  0
   -4.8053    4.6846    0.6726 H   0  0  0  0  0  0  0  0  0  0  0  0
   -3.3703    4.6149    2.7030 H   0  0  0  0  0  0  0  0  0  0  0  0
   -5.0045    3.7746    2.8200 H   0  0  0  0  0  0  0  0  0  0  0  0
   -3.1370    0.2827    4.0755 H   0  0  0  0  0  0  0  0  0  0  0  0
   -4.6033    1.1902    4.2731 H   0  0  0  0  0  0  0  0  0  0  0  0
   -2.1417    3.3057    0.0887 H   0  0  0  0  0  0  0  0  0  0  0  0
   -1.4108    7.0808    0.0236 H   0  0  0  0  0  0  0  0  0  0  0  0
   -1.2863    5.8300    2.8054 H   0  0  0  0  0  0  0  0  0  0  0  0
   -2.2006    7.2312    2.2058 H   0  0  0  0  0  0  0  0  0  0  0  0
   -1.0337    9.4308    2.0019 H   0  0  0  0  0  0  0  0  0  0  0  0
    0.6993   10.8248    3.0622 H   0  0  0  0  0  0  0  0  0  0  0  0
    2.6155    9.7368    4.3268 H   0  0  0  0  0  0  0  0  0  0  0  0
    2.7157    7.3128    4.4738 H   0  0  0  0  0  0  0  0  0  0  0  0
    1.0326    5.9715    3.4789 H   0  0  0  0  0  0  0  0  0  0  0  0
    0.7200    5.4618    1.2924 H   0  0  0  0  0  0  0  0  0  0  0  0
    2.5281    5.1670    0.3836 H   0  0  0  0  0  0  0  0  0  0  0  0
    3.8929    6.5290   -1.4180 H   0  0  0  0  0  0  0  0  0  0  0  0
    2.4379    6.4867   -2.4077 H   0  0  0  0  0  0  0  0  0  0  0  0
    3.8135    8.4204    0.6822 H   0  0  0  0  0  0  0  0  0  0  0  0
    2.3520   10.5373    0.9100 H   0  0  0  0  0  0  0  0  0  0  0  0
    0.4288    8.1732   -1.9344 H   0  0  0  0  0  0  0  0  0  0  0  0
    3.6222    4.6784   -2.2807 H   0  0  0  0  0  0  0  0  0  0  0  0
    3.7423    2.1426   -3.3277 H   0  0  0  0  0  0  0  0  0  0  0  0
    3.5091    0.0248   -2.0879 H   0  0  0  0  0  0  0  0  0  0  0  0
    5.2303    0.4998   -2.2875 H   0  0  0  0  0  0  0  0  0  0  0  0
    1.2324   -1.0728    1.9070 H   0  0  0  0  0  0  0  0  0  0  0  0
    2.9795   -1.5131    2.1512 H   0  0  0  0  0  0  0  0  0  0  0  0
    2.0033   -1.5228   -0.7471 H   0  0  0  0  0  0  0  0  0  0  0  0
    0.9768   -3.3800    1.3566 H   0  0  0  0  0  0  0  0  0  0  0  0
    1.8454   -6.2191   -0.3906 H   0  0  0  0  0  0  0  0  0  0  0  0
   -1.0194   -5.4351    0.1227 H   0  0  0  0  0  0  0  0  0  0  0  0
   -0.7975   -6.0035    3.2403 H   0  0  0  0  0  0  0  0  0  0  0  0
   -2.6531   -7.2878    1.2570 H   0  0  0  0  0  0  0  0  0  0  0  0
   -1.1285   -8.1831    4.1117 H   0  0  0  0  0  0  0  0  0  0  0  0
   -1.1373   -8.9796    2.4366 H   0  0  0  0  0  0  0  0  0  0  0  0
    0.3391   -8.2996    3.1330 H   0  0  0  0  0  0  0  0  0  0  0  0
    0.1588   -7.0073   -1.9610 H   0  0  0  0  0  0  0  0  0  0  0  0
   -0.1763   -5.3388   -2.5430 H   0  0  0  0  0  0  0  0  0  0  0  0
    2.4909   -7.8247   -2.0720 H   0  0  0  0  0  0  0  0  0  0  0  0
    4.5224   -8.0123   -3.5751 H   0  0  0  0  0  0  0  0  0  0  0  0
    4.8470   -6.3391   -5.2938 H   0  0  0  0  0  0  0  0  0  0  0  0
    3.2864   -4.4643   -5.5718 H   0  0  0  0  0  0  0  0  0  0  0  0
    1.3382   -4.3114   -4.1063 H   0  0  0  0  0  0  0  0  0  0  0  0
    3.2516   -4.1283    1.3855 H   0  0  0  0  0  0  0  0  0  0  0  0
    5.4634   -4.4610   -0.4891 H   0  0  0  0  0  0  0  0  0  0  0  0
    4.0760   -7.1714    2.2981 H   0  0  0  0  0  0  0  0  0  0  0  0
    3.7417   -5.4208    2.7663 H   0  0  0  0  0  0  0  0  0  0  0  0
    6.2602   -3.2885    2.1784 H   0  0  0  0  0  0  0  0  0  0  0  0
    6.4844   -2.6051    0.4744 H   0  0  0  0  0  0  0  0  0  0  0  0
    8.0175   -3.7984   -1.1111 H   0  0  0  0  0  0  0  0  0  0  0  0
   10.0665   -5.1994   -1.2784 H   0  0  0  0  0  0  0  0  0  0  0  0
    9.6632   -6.3063    2.7746 H   0  0  0  0  0  0  0  0  0  0  0  0
    7.5986   -4.9004    2.9884 H   0  0  0  0  0  0  0  0  0  0  0  0
   11.6695   -6.7549    1.4689 H   0  0  0  0  0  0  0  0  0  0  0  0
    5.2814    3.2461   -0.9901 H   0  0  0  0  0  0  0  0  0  0  0  0
    7.5985    3.7234   -1.4106 H   0  0  0  0  0  0  0  0  0  0  0  0
    5.8863    5.3714   -1.2731 H   0  0  0  0  0  0  0  0  0  0  0  0
    6.2713    5.9626   -2.9628 H   0  0  0  0  0  0  0  0  0  0  0  0
    8.4835    7.1718   -3.3412 H   0  0  0  0  0  0  0  0  0  0  0  0
   10.1559    8.5790   -2.2042 H   0  0  0  0  0  0  0  0  0  0  0  0
    8.9205    7.2850    1.6361 H   0  0  0  0  0  0  0  0  0  0  0  0
    7.2487    5.8839    0.5965 H   0  0  0  0  0  0  0  0  0  0  0  0
   10.8470    8.8663    1.2919 H   0  0  0  0  0  0  0  0  0  0  0  0
    8.4134    3.3196   -3.8416 H   0  0  0  0  0  0  0  0  0  0  0  0
    9.2913    4.2502   -2.7842 H   0  0  0  0  0  0  0  0  0  0  0  0
  1  2  1  0
  2  3  2  0
  2  4  1  0
  4  5  1  0
  5  6  1  0
  6  7  1  0
  7  8  2  0
  7  9  1  0
  9 10  1  0
 10 11  1  0
 11 12  2  0
 12 13  1  0
 13 14  2  0
 14 15  1  0
 15 16  2  0
 15 17  1  0
 17 18  2  0
 18 19  1  0
 19 20  2  0
  9 21  1  0
 21 22  1  0
 22 23  1  0
 23 24  1  0
 24 25  1  0
 25 26  1  0
 26 27  1  0
 27 28  1  0
 28 29  2  3
 28 30  1  0
 23 31  1  0
 31 32  1  0
 32 33  2  0
 32 34  1  0
 34 35  1  0
 35 36  1  0
 36 37  1  0
 37 38  1  0
 38 39  2  0
 34 40  1  0
 40 41  1  0
 41 42  2  0
 41 43  1  0
 43 44  1  0
 44 45  1  0
 45 46  2  0
 46 47  1  0
 47 48  2  0
 48 49  1  0
 49 50  2  0
 43 51  1  0
 51 52  1  0
 52 53  2  0
 52 54  1  0
 54 55  1  0
 55 56  1  0
 56 57  1  0
 57 58  1  0
 58 59  2  0
 59 60  1  0
 54 61  1  0
 61 62  1  0
 62 63  2  0
 62 64  1  0
 64 65  1  0
 65 66  1  0
 66 67  1  0
 67 68  1  0
 68 69  1  0
 69 70  1  0
 70 71  1  0
 71 72  2  0
 71 73  1  0
 73 74  1  0
 74 75  1  0
 75 76  2  0
 75 77  1  0
 77 78  1  0
 78 79  1  0
 79 80  2  0
 77 81  1  0
 73 82  1  0
 82 83  1  0
 83 84  2  0
 84 85  1  0
 85 86  2  0
 86 87  1  0
 87 88  2  0
 69 89  1  0
 89 90  2  0
 89 91  1  0
 91 92  1  0
 92 93  1  0
 93 94  2  0
 93 95  1  0
 92 96  1  0
 96 97  1  0
 97 98  2  0
 98 99  1  0
 99100  2  0
100101  1  0
101102  2  0
100103  1  0
 64104  1  0
104105  1  0
105106  2  0
105107  1  0
107108  1  0
108109  1  0
109110  2  0
110111  1  0
111112  2  0
112113  1  0
113114  2  0
112115  1  0
107116  1  0
 79  5  1  0
 88 83  1  0
102 97  1  0
114109  1  0
 16 11  1  0
 38 21  1  0
 50 45  1  0
 60 56  2  0
 20 14  1  0
  1117  1  0
  1118  1  0
  4119  1  0
  4120  1  0
  5121  1  1
  6122  1  0
  9123  1  1
 10124  1  0
 10125  1  0
 12126  1  0
 13127  1  0
 16128  1  0
 17129  1  0
 18130  1  0
 19131  1  0
 20132  1  0
 22133  1  0
 22134  1  0
 23135  1  6
 24136  1  0
 24137  1  0
 25138  1  0
 25139  1  0
 26140  1  0
 26141  1  0
 27142  1  0
 29143  1  0
 30144  1  0
 30145  1  0
 31146  1  0
 34147  1  1
 35148  1  0
 35149  1  0
 37150  1  0
 37151  1  0
 40152  1  0
 43153  1  6
 44154  1  0
 44155  1  0
 46156  1  0
 47157  1  0
 48158  1  0
 49159  1  0
 50160  1  0
 51161  1  0
 54162  1  1
 55163  1  0
 55164  1  0
 57165  1  0
 58166  1  0
 60167  1  0
 61168  1  0
 64169  1  6
 65170  1  0
 65171  1  0
 68172  1  0
 68173  1  0
 69174  1  6
 70175  1  0
 73176  1  1
 74177  1  0
 77178  1  1
 78179  1  0
 81180  1  0
 81181  1  0
 81182  1  0
 82183  1  0
 82184  1  0
 84185  1  0
 85186  1  0
 86187  1  0
 87188  1  0
 88189  1  0
 91190  1  0
 92191  1  6
 95192  1  0
 95193  1  0
 96194  1  0
 96195  1  0
 98196  1  0
 99197  1  0
101198  1  0
102199  1  0
103200  1  0
104201  1  0
107202  1  1
108203  1  0
108204  1  0
110205  1  0
111206  1  0
113207  1  0
114208  1  0
115209  1  0
116210  1  0
116211  1  0
M  END
>  <Ligand ID>  (1) 
LIG0001143

>  <Ligand>  (1) 
CID 71719885

>  <SMILES>  (1) 
NC(=O)C[C@@H]1NC(=O)[C@H](Cc2ccc3c(c2)cccc3)N2C[C@H](CCCNC(=N)N)NC(=O)[C@@H](CSCC2=O)NC(=O)[C@@H](Cc2ccccc2)NC(=O)[C@H](Cc2[nH]cnc2)NC(=O)[C@H](CSSC[C@H](NC(=O)[C@@H](NC(=O)[C@@H](NC1=O)C)Cc1ccccc1)C(=O)N[C@H](C(=O)N)Cc1ccc(cc1)O)NC(=O)[C@H](Cc1ccc(cc1)O)N

>  <CID>  (1) 
71719885.0

>  <ChEMBL ID>  (1) 
nan

>  <InChiKey>  (1) 
KIRVLPVFDKQTQF-QLFNPVIXSA-N

>  <InChi>  (1) 
InChI=1S/C79H95N19O15S3/c1-44-69(104)91-58(32-45-11-4-2-5-12-45)72(107)97-64(76(111)90-57(68(82)103)31-48-21-26-55(100)27-22-48)41-116-115-40-63(95-70(105)56(80)30-47-19-24-54(99)25-20-47)77(112)93-60(35-53-37-85-43-87-53)74(109)92-59(33-46-13-6-3-7-14-46)73(108)96-62-39-114-42-67(102)98(38-52(89-75(62)110)17-10-28-86-79(83)84)65(78(113)94-61(36-66(81)101)71(106)88-44)34-49-18-23-50-15-8-9-16-51(50)29-49/h2-9,11-16,18-27,29,37,43-44,52,56-65,99-100H,10,17,28,30-36,38-42,80H2,1H3,(H2,81,101)(H2,82,103)(H,85,87)(H,88,106)(H,89,110)(H,90,111)(H,91,104)(H,92,109)(H,93,112)(H,94,113)(H,95,105)(H,96,108)(H,97,107)(H4,83,84,86)/t44-,52-,56-,57-,58-,59+,60-,61-,62+,63-,64-,65-/m0/s1

>  <IUPAC Name>  (1) 
(2S,5S,8S,11S,14R,19R,22S,25R,28S,34S)-N-[(2S)-1-amino-3-(4-hydroxyphenyl)-1-oxopropan-2-yl]-19-[[(2S)-2-amino-3-(4-hydroxyphenyl)propanoyl]amino]-5-(2-amino-2-oxoethyl)-11,25-dibenzyl-34-(3-carbamimidamidopropyl)-22-(1H-imidazol-5-ylmethyl)-8-methyl-2-(naphthalen-2-ylmethyl)-3,6,9,12,20,23,26,32,36-nonaoxo-16,17,30-trithia-1,4,7,10,13,21,24,27,35-nonazabicyclo[26.4.4]hexatriacontane-14-carboxamide

$$$$
