
     RDKit          3D

 62 65  0  0  0  0  0  0  0  0999 V2000
    9.5990   -2.3574    0.4640 C   0  0  0  0  0  0  0  0  0  0  0  0
    8.6484   -1.2959    0.0468 C   0  0  0  0  0  0  0  0  0  0  0  0
    8.5445   -0.1980    0.9029 C   0  0  0  0  0  0  0  0  0  0  0  0
    7.6783    0.8393    0.5748 C   0  0  0  0  0  0  0  0  0  0  0  0
    6.9140    0.7979   -0.5939 C   0  0  0  0  0  0  0  0  0  0  0  0
    7.0367   -0.2986   -1.4201 C   0  0  0  0  0  0  0  0  0  0  0  0
    7.9019   -1.3542   -1.1103 C   0  0  0  0  0  0  0  0  0  0  0  0
    5.8816    2.1562   -0.9332 S   0  0  0  0  0  0  0  0  0  0  0  0
    6.5121    3.4458   -0.4373 O   0  0  0  0  0  0  0  0  0  0  0  0
    5.6810    2.3210   -2.4152 O   0  0  0  0  0  0  0  0  0  0  0  0
    4.3478    1.9180   -0.2249 N   0  0  0  0  0  0  0  0  0  0  0  0
    3.7306    0.7423   -0.7870 C   0  0  0  0  0  0  0  0  0  0  0  0
    2.3858    0.5586   -0.1617 C   0  0  0  0  0  0  0  0  0  0  0  0
    1.3218    1.1852   -0.8260 C   0  0  0  0  0  0  0  0  0  0  0  0
    0.0434    1.1012   -0.3360 C   0  0  0  0  0  0  0  0  0  0  0  0
   -0.1997    0.3846    0.8368 C   0  0  0  0  0  0  0  0  0  0  0  0
    0.8621   -0.2225    1.4713 C   0  0  0  0  0  0  0  0  0  0  0  0
    2.1652   -0.1484    0.9890 C   0  0  0  0  0  0  0  0  0  0  0  0
   -1.5730    0.3287    1.3435 C   0  0  0  0  0  0  0  0  0  0  0  0
   -1.7462    0.9300    2.4637 O   0  0  0  0  0  0  0  0  0  0  0  0
   -2.6325   -0.3219    0.6782 N   0  0  0  0  0  0  0  0  0  0  0  0
   -2.5161   -1.0224   -0.5757 C   0  0  0  0  0  0  0  0  0  0  0  0
   -3.6647   -0.7139   -1.5066 C   0  0  0  0  0  0  0  0  0  0  0  0
   -4.9402   -0.7227   -0.8324 N   0  0  0  0  0  0  0  0  0  0  0  0
   -4.8737   -1.1176    0.5275 C   0  0  0  0  0  0  0  0  0  0  0  0
   -3.9467   -0.2625    1.3169 C   0  0  0  0  0  0  0  0  0  0  0  0
   -5.7498    0.4351   -1.1209 C   0  0  0  0  0  0  0  0  0  0  0  0
   -7.0430    0.3304   -0.4179 C   0  0  0  0  0  0  0  0  0  0  0  0
   -7.3034    0.8504    0.8287 C   0  0  0  0  0  0  0  0  0  0  0  0
   -8.5372    0.7102    1.4278 C   0  0  0  0  0  0  0  0  0  0  0  0
   -9.5585    0.0331    0.7816 C   0  0  0  0  0  0  0  0  0  0  0  0
   -9.3057   -0.4914   -0.4688 C   0  0  0  0  0  0  0  0  0  0  0  0
   -8.0637   -0.3489   -1.0696 C   0  0  0  0  0  0  0  0  0  0  0  0
   10.6588   -1.9775    0.3566 H   0  0  0  0  0  0  0  0  0  0  0  0
    9.5500   -3.2544   -0.1959 H   0  0  0  0  0  0  0  0  0  0  0  0
    9.4373   -2.5905    1.5246 H   0  0  0  0  0  0  0  0  0  0  0  0
    9.1059   -0.1154    1.8057 H   0  0  0  0  0  0  0  0  0  0  0  0
    7.6017    1.6734    1.2284 H   0  0  0  0  0  0  0  0  0  0  0  0
    6.4479   -0.3396   -2.3276 H   0  0  0  0  0  0  0  0  0  0  0  0
    8.0139   -2.2143   -1.7352 H   0  0  0  0  0  0  0  0  0  0  0  0
    3.7447    2.7452   -0.4378 H   0  0  0  0  0  0  0  0  0  0  0  0
    4.3781   -0.1367   -0.5837 H   0  0  0  0  0  0  0  0  0  0  0  0
    3.6647    0.8152   -1.8826 H   0  0  0  0  0  0  0  0  0  0  0  0
    1.4991    1.7457   -1.7324 H   0  0  0  0  0  0  0  0  0  0  0  0
   -0.7585    1.6001   -0.8713 H   0  0  0  0  0  0  0  0  0  0  0  0
    0.6579   -0.7693    2.3716 H   0  0  0  0  0  0  0  0  0  0  0  0
    3.0015   -0.6255    1.4854 H   0  0  0  0  0  0  0  0  0  0  0  0
   -1.5824   -0.6769   -1.0642 H   0  0  0  0  0  0  0  0  0  0  0  0
   -2.3998   -2.1153   -0.4049 H   0  0  0  0  0  0  0  0  0  0  0  0
   -3.7000   -1.5494   -2.2349 H   0  0  0  0  0  0  0  0  0  0  0  0
   -3.5398    0.2491   -2.0070 H   0  0  0  0  0  0  0  0  0  0  0  0
   -4.4891   -2.1662    0.5711 H   0  0  0  0  0  0  0  0  0  0  0  0
   -5.8822   -1.1312    0.9827 H   0  0  0  0  0  0  0  0  0  0  0  0
   -4.2395    0.8045    1.3367 H   0  0  0  0  0  0  0  0  0  0  0  0
   -3.8340   -0.5866    2.3719 H   0  0  0  0  0  0  0  0  0  0  0  0
   -5.1610    1.3161   -0.7918 H   0  0  0  0  0  0  0  0  0  0  0  0
   -5.8795    0.5101   -2.2342 H   0  0  0  0  0  0  0  0  0  0  0  0
   -6.5429    1.3783    1.3497 H   0  0  0  0  0  0  0  0  0  0  0  0
   -8.7367    1.1282    2.4265 H   0  0  0  0  0  0  0  0  0  0  0  0
  -10.5383   -0.0981    1.2190 H   0  0  0  0  0  0  0  0  0  0  0  0
  -10.1305   -1.0249   -0.9618 H   0  0  0  0  0  0  0  0  0  0  0  0
   -7.9473   -0.7859   -2.0464 H   0  0  0  0  0  0  0  0  0  0  0  0
  1  2  1  0
  2  3  2  0
  3  4  1  0
  4  5  2  0
  5  6  1  0
  6  7  2  0
  5  8  1  0
  8  9  2  0
  8 10  2  0
  8 11  1  0
 11 12  1  0
 12 13  1  0
 13 14  2  0
 14 15  1  0
 15 16  2  0
 16 17  1  0
 17 18  2  0
 16 19  1  0
 19 20  2  0
 19 21  1  0
 21 22  1  0
 22 23  1  0
 23 24  1  0
 24 25  1  0
 25 26  1  0
 24 27  1  0
 27 28  1  0
 28 29  2  0
 29 30  1  0
 30 31  2  0
 31 32  1  0
 32 33  2  0
  7  2  1  0
 18 13  1  0
 26 21  1  0
 33 28  1  0
  1 34  1  0
  1 35  1  0
  1 36  1  0
  3 37  1  0
  4 38  1  0
  6 39  1  0
  7 40  1  0
 11 41  1  0
 12 42  1  0
 12 43  1  0
 14 44  1  0
 15 45  1  0
 17 46  1  0
 18 47  1  0
 22 48  1  0
 22 49  1  0
 23 50  1  0
 23 51  1  0
 25 52  1  0
 25 53  1  0
 26 54  1  0
 26 55  1  0
 27 56  1  0
 27 57  1  0
 29 58  1  0
 30 59  1  0
 31 60  1  0
 32 61  1  0
 33 62  1  0
M  END
>  <Ligand ID>  (1) 
LIG0003836

>  <Ligand>  (1) 
SMR000132203

>  <SMILES>  (1) 
Cc1ccc(cc1)S(=O)(=O)NCc1ccc(cc1)C(=O)N1CCN(CC1)Cc1ccccc1

>  <CID>  (1) 
9551230.0

>  <ChEMBL ID>  (1) 
nan

>  <InChiKey>  (1) 
ASPBUUVBTWTTAK-UHFFFAOYSA-N

>  <InChi>  (1) 
InChI=1S/C26H29N3O3S/c1-21-7-13-25(14-8-21)33(31,32)27-19-22-9-11-24(12-10-22)26(30)29-17-15-28(16-18-29)20-23-5-3-2-4-6-23/h2-14,27H,15-20H2,1H3

>  <IUPAC Name>  (1) 
N-[[4-(4-benzylpiperazine-1-carbonyl)phenyl]methyl]-4-methylbenzenesulfonamide

$$$$
