
     RDKit          3D

100103  0  0  0  0  0  0  0  0999 V2000
    2.3924    5.2309    3.3719 C   0  0  0  0  0  0  0  0  0  0  0  0
    3.8898    5.3675    3.3064 C   0  0  0  0  0  0  0  0  0  0  0  0
    4.5558    4.1565    2.9781 O   0  0  0  0  0  0  0  0  0  0  0  0
    4.2948    3.5119    1.7751 C   0  0  0  0  0  0  0  0  0  0  0  0
    3.4456    4.0621    1.0229 O   0  0  0  0  0  0  0  0  0  0  0  0
    4.9377    2.2926    1.3864 N   0  0  0  0  0  0  0  0  0  0  0  0
    4.5201    1.7711    0.0831 C   0  0  2  0  0  0  0  0  0  0  0  0
    3.9924    0.3587    0.2512 C   0  0  0  0  0  0  0  0  0  0  0  0
    4.3527   -0.2455    1.2384 O   0  0  0  0  0  0  0  0  0  0  0  0
    3.1518   -0.1343   -0.7055 N   0  0  0  0  0  0  0  0  0  0  0  0
    2.4646   -1.3574   -0.9534 C   0  0  2  0  0  0  0  0  0  0  0  0
    1.1649   -1.0052   -1.6284 C   0  0  0  0  0  0  0  0  0  0  0  0
    1.1038    0.2191   -2.0087 O   0  0  0  0  0  0  0  0  0  0  0  0
    0.0770   -1.8139   -1.8700 N   0  0  0  0  0  0  0  0  0  0  0  0
   -1.0510   -1.1802   -2.5708 C   0  0  2  0  0  0  0  0  0  0  0  0
   -1.9132   -0.3767   -1.6220 C   0  0  0  0  0  0  0  0  0  0  0  0
   -2.6952    0.4507   -2.1468 O   0  0  0  0  0  0  0  0  0  0  0  0
   -1.8157   -0.5705   -0.2300 N   0  0  0  0  0  0  0  0  0  0  0  0
   -2.5209    0.1353    0.7988 C   0  0  2  0  0  0  0  0  0  0  0  0
   -3.1411   -0.6870    1.8146 C   0  0  0  0  0  0  0  0  0  0  0  0
   -3.7186   -0.2468    2.8444 O   0  0  0  0  0  0  0  0  0  0  0  0
   -3.0964   -2.1115    1.6290 N   0  0  0  0  0  0  0  0  0  0  0  0
   -3.6265    1.0289    0.1721 C   0  0  0  0  0  0  0  0  0  0  0  0
   -4.3657    1.7446    1.2720 C   0  0  0  0  0  0  0  0  0  0  0  0
   -5.6390    1.4842    1.7503 C   0  0  0  0  0  0  0  0  0  0  0  0
   -5.9233    2.3522    2.7222 N   0  0  0  0  0  0  0  0  0  0  0  0
   -4.8859    3.1944    2.9215 C   0  0  0  0  0  0  0  0  0  0  0  0
   -3.8942    2.8268    2.0158 C   0  0  0  0  0  0  0  0  0  0  0  0
   -2.7402    3.5519    2.0459 C   0  0  0  0  0  0  0  0  0  0  0  0
   -2.5274    4.6065    2.9168 C   0  0  0  0  0  0  0  0  0  0  0  0
   -3.5288    4.9735    3.8296 C   0  0  0  0  0  0  0  0  0  0  0  0
   -4.6974    4.2416    3.8018 C   0  0  0  0  0  0  0  0  0  0  0  0
   -1.8805   -2.2016   -3.2736 C   0  0  0  0  0  0  0  0  0  0  0  0
   -2.4403   -3.2305   -2.3100 C   0  0  0  0  0  0  0  0  0  0  0  0
   -3.2435   -4.2556   -3.0567 C   0  0  0  0  0  0  0  0  0  0  0  0
   -4.3656   -3.7516   -3.7722 N   0  0  0  0  0  0  0  0  0  0  0  0
   -5.5495   -3.9167   -3.2853 C   0  0  0  0  0  0  0  0  0  0  0  0
   -5.5912   -4.6210   -2.0194 N   0  0  0  0  0  0  0  0  0  0  0  0
   -6.7298   -3.4583   -3.9237 N   0  0  0  0  0  0  0  0  0  0  0  0
    2.4863   -2.5472   -0.1378 C   0  0  0  0  0  0  0  0  0  0  0  0
    2.0786   -2.7547    1.2238 C   0  0  0  0  0  0  0  0  0  0  0  0
    2.8767   -2.6977    2.3565 C   0  0  0  0  0  0  0  0  0  0  0  0
    2.4623   -2.9333    3.6377 C   0  0  0  0  0  0  0  0  0  0  0  0
    1.1524   -3.2583    3.8451 C   0  0  0  0  0  0  0  0  0  0  0  0
    0.2932   -3.3393    2.7840 C   0  0  0  0  0  0  0  0  0  0  0  0
    0.7373   -3.0949    1.5016 C   0  0  0  0  0  0  0  0  0  0  0  0
    5.7392    1.6078   -0.8030 C   0  0  0  0  0  0  0  0  0  0  0  0
    5.4996    1.1017   -2.1452 C   0  0  0  0  0  0  0  0  0  0  0  0
    5.2614    2.0159   -3.1570 C   0  0  0  0  0  0  0  0  0  0  0  0
    5.0379    1.6017   -4.4795 C   0  0  0  0  0  0  0  0  0  0  0  0
    5.0484    0.2786   -4.8073 C   0  0  0  0  0  0  0  0  0  0  0  0
    5.2856   -0.6346   -3.8006 C   0  0  0  0  0  0  0  0  0  0  0  0
    5.5092   -0.2562   -2.4904 C   0  0  0  0  0  0  0  0  0  0  0  0
    4.7677   -0.2212   -6.4497 Cl  0  0  0  0  0  0  0  0  0  0  0  0
    2.0573    4.2948    2.8672 H   0  0  0  0  0  0  0  0  0  0  0  0
    1.8790    6.0883    2.8549 H   0  0  0  0  0  0  0  0  0  0  0  0
    2.0001    5.2216    4.4065 H   0  0  0  0  0  0  0  0  0  0  0  0
    4.3186    5.7187    4.2657 H   0  0  0  0  0  0  0  0  0  0  0  0
    4.1052    6.1316    2.5080 H   0  0  0  0  0  0  0  0  0  0  0  0
    5.6306    1.8341    1.9956 H   0  0  0  0  0  0  0  0  0  0  0  0
    3.7222    2.3668   -0.3089 H   0  0  0  0  0  0  0  0  0  0  0  0
    2.9430    0.6008   -1.5208 H   0  0  0  0  0  0  0  0  0  0  0  0
    3.0638   -1.7817   -1.9195 H   0  0  0  0  0  0  0  0  0  0  0  0
    0.0972   -2.7946   -1.5735 H   0  0  0  0  0  0  0  0  0  0  0  0
   -0.6935   -0.4101   -3.2824 H   0  0  0  0  0  0  0  0  0  0  0  0
   -1.1421   -1.3165    0.0880 H   0  0  0  0  0  0  0  0  0  0  0  0
   -1.8242    0.9405    1.1741 H   0  0  0  0  0  0  0  0  0  0  0  0
   -2.1919   -2.5942    1.5491 H   0  0  0  0  0  0  0  0  0  0  0  0
   -3.9700   -2.6742    1.5689 H   0  0  0  0  0  0  0  0  0  0  0  0
   -4.3332    0.4726   -0.4175 H   0  0  0  0  0  0  0  0  0  0  0  0
   -3.1656    1.8371   -0.4440 H   0  0  0  0  0  0  0  0  0  0  0  0
   -6.2484    0.6711    1.3319 H   0  0  0  0  0  0  0  0  0  0  0  0
   -6.8362    2.3455    3.2329 H   0  0  0  0  0  0  0  0  0  0  0  0
   -1.9287    3.3117    1.3669 H   0  0  0  0  0  0  0  0  0  0  0  0
   -1.5885    5.1512    2.8964 H   0  0  0  0  0  0  0  0  0  0  0  0
   -3.3337    5.7956    4.4988 H   0  0  0  0  0  0  0  0  0  0  0  0
   -5.4855    4.5235    4.5081 H   0  0  0  0  0  0  0  0  0  0  0  0
   -1.3175   -2.7490   -4.0451 H   0  0  0  0  0  0  0  0  0  0  0  0
   -2.7469   -1.7092   -3.7619 H   0  0  0  0  0  0  0  0  0  0  0  0
   -1.6582   -3.7724   -1.7512 H   0  0  0  0  0  0  0  0  0  0  0  0
   -3.1064   -2.7613   -1.5508 H   0  0  0  0  0  0  0  0  0  0  0  0
   -2.6065   -4.8219   -3.7884 H   0  0  0  0  0  0  0  0  0  0  0  0
   -3.5999   -5.0011   -2.3043 H   0  0  0  0  0  0  0  0  0  0  0  0
   -5.8053   -5.6335   -1.9503 H   0  0  0  0  0  0  0  0  0  0  0  0
   -5.4021   -4.1288   -1.1173 H   0  0  0  0  0  0  0  0  0  0  0  0
   -7.5196   -3.1650   -3.2989 H   0  0  0  0  0  0  0  0  0  0  0  0
   -6.8517   -3.4001   -4.9618 H   0  0  0  0  0  0  0  0  0  0  0  0
    1.9838   -3.3809   -0.7643 H   0  0  0  0  0  0  0  0  0  0  0  0
    3.5754   -2.9840   -0.1598 H   0  0  0  0  0  0  0  0  0  0  0  0
    3.9343   -2.4885    2.2326 H   0  0  0  0  0  0  0  0  0  0  0  0
    3.1055   -2.8740    4.5038 H   0  0  0  0  0  0  0  0  0  0  0  0
    0.8034   -3.4478    4.8522 H   0  0  0  0  0  0  0  0  0  0  0  0
   -0.7283   -3.6096    3.0046 H   0  0  0  0  0  0  0  0  0  0  0  0
    0.0074   -3.2009    0.7187 H   0  0  0  0  0  0  0  0  0  0  0  0
    6.3317    2.5496   -0.8656 H   0  0  0  0  0  0  0  0  0  0  0  0
    6.4467    0.8645   -0.3137 H   0  0  0  0  0  0  0  0  0  0  0  0
    5.2363    3.0919   -2.9812 H   0  0  0  0  0  0  0  0  0  0  0  0
    4.8527    2.3315   -5.2719 H   0  0  0  0  0  0  0  0  0  0  0  0
    5.3003   -1.7122   -4.0156 H   0  0  0  0  0  0  0  0  0  0  0  0
    5.6911   -0.9969   -1.7061 H   0  0  0  0  0  0  0  0  0  0  0  0
  1  2  1  0
  2  3  1  0
  3  4  1  0
  4  5  2  0
  4  6  1  0
  6  7  1  0
  7  8  1  0
  8  9  2  0
  8 10  1  0
 10 11  1  0
 11 12  1  0
 12 13  2  0
 12 14  1  0
 14 15  1  0
 15 16  1  0
 16 17  2  0
 16 18  1  0
 18 19  1  0
 19 20  1  0
 20 21  2  0
 20 22  1  0
 19 23  1  0
 23 24  1  0
 24 25  2  0
 25 26  1  0
 26 27  1  0
 27 28  2  0
 28 29  1  0
 29 30  2  0
 30 31  1  0
 31 32  2  0
 15 33  1  0
 33 34  1  0
 34 35  1  0
 35 36  1  0
 36 37  2  3
 37 38  1  0
 37 39  1  0
 11 40  1  0
 40 41  1  0
 41 42  2  0
 42 43  1  0
 43 44  2  0
 44 45  1  0
 45 46  2  0
  7 47  1  0
 47 48  1  0
 48 49  2  0
 49 50  1  0
 50 51  2  0
 51 52  1  0
 52 53  2  0
 51 54  1  0
 28 24  1  0
 46 41  1  0
 53 48  1  0
 32 27  1  0
  1 55  1  0
  1 56  1  0
  1 57  1  0
  2 58  1  0
  2 59  1  0
  6 60  1  0
  7 61  1  6
 10 62  1  0
 11 63  1  6
 14 64  1  0
 15 65  1  6
 18 66  1  0
 19 67  1  1
 22 68  1  0
 22 69  1  0
 23 70  1  0
 23 71  1  0
 25 72  1  0
 26 73  1  0
 29 74  1  0
 30 75  1  0
 31 76  1  0
 32 77  1  0
 33 78  1  0
 33 79  1  0
 34 80  1  0
 34 81  1  0
 35 82  1  0
 35 83  1  0
 38 84  1  0
 38 85  1  0
 39 86  1  0
 39 87  1  0
 40 88  1  0
 40 89  1  0
 42 90  1  0
 43 91  1  0
 44 92  1  0
 45 93  1  0
 46 94  1  0
 47 95  1  0
 47 96  1  0
 49 97  1  0
 50 98  1  0
 52 99  1  0
 53100  1  0
M  END
>  <Ligand ID>  (1) 
LIG0004458

>  <Ligand>  (1) 
CHEMBL185869

>  <SMILES>  (1) 
CCOC(=O)N[C@H](C(=O)N[C@H](C(=O)N[C@H](C(=O)N[C@H](C(=O)N)Cc1c[nH]c2c1cccc2)CCCN=C(N)N)Cc1ccccc1)Cc1ccc(cc1)Cl

>  <CID>  (1) 
44394655.0

>  <ChEMBL ID>  (1) 
nan

>  <InChiKey>  (1) 
FMGXNNFWENCWMH-YDPTYEFTSA-N

>  <InChi>  (1) 
InChI=1S/C38H46ClN9O6/c1-2-54-38(53)48-32(20-24-14-16-26(39)17-15-24)36(52)47-31(19-23-9-4-3-5-10-23)35(51)45-29(13-8-18-43-37(41)42)34(50)46-30(33(40)49)21-25-22-44-28-12-7-6-11-27(25)28/h3-7,9-12,14-17,22,29-32,44H,2,8,13,18-21H2,1H3,(H2,40,49)(H,45,51)(H,46,50)(H,47,52)(H,48,53)(H4,41,42,43)/t29-,30-,31-,32-/m0/s1

>  <IUPAC Name>  (1) 
ethyl N-[(2S)-1-[[(2S)-1-[[(2S)-1-[[(2S)-1-amino-3-(1H-indol-3-yl)-1-oxopropan-2-yl]amino]-5-(diaminomethylideneamino)-1-oxopentan-2-yl]amino]-1-oxo-3-phenylpropan-2-yl]amino]-3-(4-chlorophenyl)-1-oxopropan-2-yl]carbamate

$$$$
