
     RDKit          3D

 64 68  0  0  0  0  0  0  0  0999 V2000
    5.2354    2.2548   -3.8355 C   0  0  0  0  0  0  0  0  0  0  0  0
    4.7295    3.4088   -3.1332 N   0  0  0  0  0  0  0  0  0  0  0  0
    5.0672    3.3920   -1.7277 C   0  0  0  0  0  0  0  0  0  0  0  0
    4.1967    2.4469   -0.9257 C   0  0  0  0  0  0  0  0  0  0  0  0
    2.8034    2.5584   -1.2833 N   0  0  0  0  0  0  0  0  0  0  0  0
    2.5930    3.7579   -2.0181 C   0  0  0  0  0  0  0  0  0  0  0  0
    3.3236    3.6014   -3.3626 C   0  0  0  0  0  0  0  0  0  0  0  0
    1.9056    2.3539   -0.1663 C   0  0  0  0  0  0  0  0  0  0  0  0
    2.0231    0.9846    0.3889 C   0  0  0  0  0  0  0  0  0  0  0  0
    2.9413    0.7778    1.3736 N   0  0  0  0  0  0  0  0  0  0  0  0
    3.1339   -0.4348    1.9177 C   0  0  0  0  0  0  0  0  0  0  0  0
    4.0605   -0.6749    2.9202 C   0  0  0  0  0  0  0  0  0  0  0  0
    4.2322   -1.9497    3.4606 C   0  0  0  0  0  0  0  0  0  0  0  0
    3.4679   -3.0123    2.9970 C   0  0  0  0  0  0  0  0  0  0  0  0
    2.5488   -2.7577    1.9978 C   0  0  0  0  0  0  0  0  0  0  0  0
    2.3740   -1.4851    1.4549 C   0  0  0  0  0  0  0  0  0  0  0  0
    1.4609   -1.2489    0.4674 C   0  0  0  0  0  0  0  0  0  0  0  0
    0.7781   -2.2272    0.0618 O   0  0  0  0  0  0  0  0  0  0  0  0
    1.2635   -0.0145   -0.0864 N   0  0  0  0  0  0  0  0  0  0  0  0
    0.2877    0.0832   -1.1141 C   0  0  0  0  0  0  0  0  0  0  0  0
   -1.1005    0.2940   -0.6605 C   0  0  0  0  0  0  0  0  0  0  0  0
   -1.9296    1.9048   -0.4898 S   0  0  0  0  0  0  0  0  0  0  0  0
   -3.5002    1.0881    0.0931 C   0  0  0  0  0  0  0  0  0  0  0  0
   -3.1817   -0.2560    0.0761 C   0  0  0  0  0  0  0  0  0  0  0  0
   -1.9696   -0.5359   -0.3125 N   0  0  0  0  0  0  0  0  0  0  0  0
   -4.1711   -1.2820    0.4728 C   0  0  0  0  0  0  0  0  0  0  0  0
   -3.8377   -2.6318    0.4460 C   0  0  0  0  0  0  0  0  0  0  0  0
   -4.7223   -3.6260    0.8029 C   0  0  0  0  0  0  0  0  0  0  0  0
   -5.9897   -3.2330    1.2009 C   0  0  0  0  0  0  0  0  0  0  0  0
   -6.3518   -1.9030    1.2387 C   0  0  0  0  0  0  0  0  0  0  0  0
   -5.4413   -0.9272    0.8744 C   0  0  0  0  0  0  0  0  0  0  0  0
   -7.6003   -1.4644    1.6279 C   0  0  0  0  0  0  0  0  0  0  0  0
   -8.5248   -2.4250    1.9964 C   0  0  0  0  0  0  0  0  0  0  0  0
   -8.2116   -3.7896    1.9774 C   0  0  0  0  0  0  0  0  0  0  0  0
   -6.9358   -4.1740    1.5753 C   0  0  0  0  0  0  0  0  0  0  0  0
    0.6864    0.0000    0.0000 Cl  0  0  0  0  0  0  0  0  0  0  0  0
    4.3727    1.6056   -4.1273 H   0  0  0  0  0  0  0  0  0  0  0  0
    5.9306    1.6500   -3.2070 H   0  0  0  0  0  0  0  0  0  0  0  0
    5.6933    2.5935   -4.7871 H   0  0  0  0  0  0  0  0  0  0  0  0
    4.9463    4.4300   -1.3384 H   0  0  0  0  0  0  0  0  0  0  0  0
    6.1185    3.0684   -1.6401 H   0  0  0  0  0  0  0  0  0  0  0  0
    4.3497    2.7509    0.1423 H   0  0  0  0  0  0  0  0  0  0  0  0
    4.5904    1.4026   -1.0084 H   0  0  0  0  0  0  0  0  0  0  0  0
    1.5333    3.9393   -2.2927 H   0  0  0  0  0  0  0  0  0  0  0  0
    2.9434    4.6428   -1.4890 H   0  0  0  0  0  0  0  0  0  0  0  0
    3.0776    4.4258   -4.0549 H   0  0  0  0  0  0  0  0  0  0  0  0
    2.9037    2.6708   -3.8171 H   0  0  0  0  0  0  0  0  0  0  0  0
    0.8985    2.5743   -0.5025 H   0  0  0  0  0  0  0  0  0  0  0  0
    2.1905    3.0696    0.6575 H   0  0  0  0  0  0  0  0  0  0  0  0
    4.6692    0.1334    3.3014 H   0  0  0  0  0  0  0  0  0  0  0  0
    4.9543   -2.1504    4.2460 H   0  0  0  0  0  0  0  0  0  0  0  0
    3.5621   -4.0181    3.3804 H   0  0  0  0  0  0  0  0  0  0  0  0
    1.9510   -3.5803    1.6321 H   0  0  0  0  0  0  0  0  0  0  0  0
    0.2612   -0.8735   -1.7125 H   0  0  0  0  0  0  0  0  0  0  0  0
    0.4909    0.8793   -1.8586 H   0  0  0  0  0  0  0  0  0  0  0  0
   -4.3857    1.6595    0.3530 H   0  0  0  0  0  0  0  0  0  0  0  0
   -2.8252   -2.8764    0.1216 H   0  0  0  0  0  0  0  0  0  0  0  0
   -4.4578   -4.6728    0.7804 H   0  0  0  0  0  0  0  0  0  0  0  0
   -5.7099    0.1205    0.9002 H   0  0  0  0  0  0  0  0  0  0  0  0
   -7.9052   -0.4324    1.6635 H   0  0  0  0  0  0  0  0  0  0  0  0
   -9.5158   -2.0904    2.3062 H   0  0  0  0  0  0  0  0  0  0  0  0
   -8.9474   -4.5395    2.2713 H   0  0  0  0  0  0  0  0  0  0  0  0
   -6.6484   -5.2361    1.5456 H   0  0  0  0  0  0  0  0  0  0  0  0
   -0.6864    0.0000    0.0000 H   0  0  0  0  0  0  0  0  0  0  0  0
  1  2  1  0
  2  3  1  0
  3  4  1  0
  4  5  1  0
  5  6  1  0
  6  7  1  0
  5  8  1  0
  8  9  1  0
  9 10  2  0
 10 11  1  0
 11 12  2  0
 12 13  1  0
 13 14  2  0
 14 15  1  0
 15 16  2  0
 16 17  1  0
 17 18  2  0
 17 19  1  0
 19 20  1  0
 20 21  1  0
 21 22  1  0
 22 23  1  0
 23 24  2  0
 24 25  1  0
 24 26  1  0
 26 27  2  0
 27 28  1  0
 28 29  2  0
 29 30  1  0
 30 31  2  0
 30 32  1  0
 32 33  2  0
 33 34  1  0
 34 35  2  0
  7  2  1  0
 19  9  1  0
 25 21  2  0
 31 26  1  0
 16 11  1  0
 35 29  1  0
  1 37  1  0
  1 38  1  0
  1 39  1  0
  3 40  1  0
  3 41  1  0
  4 42  1  0
  4 43  1  0
  6 44  1  0
  6 45  1  0
  7 46  1  0
  7 47  1  0
  8 48  1  0
  8 49  1  0
 12 50  1  0
 13 51  1  0
 14 52  1  0
 15 53  1  0
 20 54  1  0
 20 55  1  0
 23 56  1  0
 27 57  1  0
 28 58  1  0
 31 59  1  0
 32 60  1  0
 33 61  1  0
 34 62  1  0
 35 63  1  0
 36 64  1  0
M  END
>  <Ligand ID>  (1) 
LIG0004638

>  <Ligand>  (1) 
MLS002634535

>  <SMILES>  (1) 
CN1CCN(CC1)Cc1nc2ccccc2c(=O)n1Cc1scc(n1)c1ccc2c(c1)cccc2.Cl

>  <CID>  (1) 
42917017.0

>  <ChEMBL ID>  (1) 
nan

>  <InChiKey>  (1) 
WYGZPXJYEVPPBG-UHFFFAOYSA-N

>  <InChi>  (1) 
InChI=1S/C28H27N5OS.ClH/c1-31-12-14-32(15-13-31)17-26-29-24-9-5-4-8-23(24)28(34)33(26)18-27-30-25(19-35-27)22-11-10-20-6-2-3-7-21(20)16-22;/h2-11,16,19H,12-15,17-18H2,1H3;1H

>  <IUPAC Name>  (1) 
2-[(4-methylpiperazin-1-yl)methyl]-3-[(4-naphthalen-2-yl-1,3-thiazol-2-yl)methyl]quinazolin-4-one;hydrochloride

$$$$
