
     RDKit          3D

 32 34  0  0  0  0  0  0  0  0999 V2000
   -3.4056   -2.1881   -1.1143 C   0  0  0  0  0  0  0  0  0  0  0  0
   -2.4199   -1.1592   -0.6882 C   0  0  0  0  0  0  0  0  0  0  0  0
   -1.0558   -1.3303   -0.8504 C   0  0  0  0  0  0  0  0  0  0  0  0
   -0.1762   -0.3520   -0.4419 C   0  0  0  0  0  0  0  0  0  0  0  0
    1.2942   -0.3229   -0.5191 C   0  0  2  0  0  0  0  0  0  0  0  0
    1.9739   -1.4633    0.1954 C   0  0  0  0  0  0  0  0  0  0  0  0
    3.0443   -0.9803    1.0491 N   0  0  0  0  0  0  0  0  0  0  0  0
    3.8075    0.0057    0.2813 C   0  0  0  0  0  0  0  0  0  0  0  0
    3.0208    1.3053    0.1643 C   0  0  0  0  0  0  0  0  0  0  0  0
    1.6167    0.9598    0.0747 N   0  0  0  0  0  0  0  0  0  0  0  0
    0.4428    1.6518    0.4689 C   0  0  0  0  0  0  0  0  0  0  0  0
    0.4530    2.7897    1.0054 O   0  0  0  0  0  0  0  0  0  0  0  0
   -0.6829    0.7943    0.1288 C   0  0  0  0  0  0  0  0  0  0  0  0
   -2.0304    1.0151    0.3133 C   0  0  0  0  0  0  0  0  0  0  0  0
   -2.8779   -0.0055   -0.1171 C   0  0  0  0  0  0  0  0  0  0  0  0
   -2.5368    2.2624    0.9315 C   0  0  0  0  0  0  0  0  0  0  0  0
   -3.9167    2.1652    0.9681 F   0  0  0  0  0  0  0  0  0  0  0  0
   -2.0750    2.4952    2.1952 F   0  0  0  0  0  0  0  0  0  0  0  0
   -2.2610    3.3137    0.0524 F   0  0  0  0  0  0  0  0  0  0  0  0
   -3.0012   -2.7240   -2.0078 H   0  0  0  0  0  0  0  0  0  0  0  0
   -3.4844   -2.9278   -0.2671 H   0  0  0  0  0  0  0  0  0  0  0  0
   -4.3671   -1.6899   -1.3244 H   0  0  0  0  0  0  0  0  0  0  0  0
   -0.6972   -2.2354   -1.2984 H   0  0  0  0  0  0  0  0  0  0  0  0
    1.5991   -0.2576   -1.5874 H   0  0  0  0  0  0  0  0  0  0  0  0
    2.4347   -2.1078   -0.6052 H   0  0  0  0  0  0  0  0  0  0  0  0
    1.2703   -2.1079    0.7599 H   0  0  0  0  0  0  0  0  0  0  0  0
    2.5939   -0.4703    1.8594 H   0  0  0  0  0  0  0  0  0  0  0  0
    4.0038   -0.4557   -0.7043 H   0  0  0  0  0  0  0  0  0  0  0  0
    4.7841    0.1380    0.7804 H   0  0  0  0  0  0  0  0  0  0  0  0
    3.3341    1.7901   -0.7726 H   0  0  0  0  0  0  0  0  0  0  0  0
    3.2477    1.9198    1.0406 H   0  0  0  0  0  0  0  0  0  0  0  0
   -3.9329    0.1718    0.0295 H   0  0  0  0  0  0  0  0  0  0  0  0
  1  2  1  0
  2  3  2  0
  3  4  1  0
  4  5  1  0
  5  6  1  0
  6  7  1  0
  7  8  1  0
  8  9  1  0
  9 10  1  0
 10 11  1  0
 11 12  2  0
 11 13  1  0
 13 14  1  0
 14 15  2  0
 14 16  1  0
 16 17  1  0
 16 18  1  0
 16 19  1  0
 15  2  1  0
 13  4  2  0
 10  5  1  0
  1 20  1  0
  1 21  1  0
  1 22  1  0
  3 23  1  0
  5 24  1  6
  6 25  1  0
  6 26  1  0
  7 27  1  0
  8 28  1  0
  8 29  1  0
  9 30  1  0
  9 31  1  0
 15 32  1  0
M  END
>  <Ligand ID>  (1) 
LIG0003734

>  <Ligand>  (1) 
CHEMBL374562

>  <SMILES>  (1) 
Cc1cc2[C@@H]3CNCCN3C(=O)c2c(c1)C(F)(F)F

>  <CID>  (1) 
16115654.0

>  <ChEMBL ID>  (1) 
nan

>  <InChiKey>  (1) 
KLRMJWTUNWLVEF-JTQLQIEISA-N

>  <InChi>  (1) 
InChI=1S/C13H13F3N2O/c1-7-4-8-10-6-17-2-3-18(10)12(19)11(8)9(5-7)13(14,15)16/h4-5,10,17H,2-3,6H2,1H3/t10-/m0/s1

>  <IUPAC Name>  (1) 
(10bR)-9-methyl-7-(trifluoromethyl)-2,3,4,10b-tetrahydro-1H-pyrazino[1,2-b]isoindol-6-one

$$$$
