
     RDKit          3D

 34 35  0  0  0  0  0  0  0  0999 V2000
   -1.1326   -1.9054   -2.1895 O   0  0  0  0  0  0  0  0  0  0  0  0
   -0.7649   -0.6764   -1.6180 C   0  0  2  0  0  0  0  0  0  0  0  0
    0.7648   -0.7517   -1.5412 C   0  0  2  0  0  0  0  0  0  0  0  0
    1.2992   -1.7198   -2.3564 O   0  0  0  0  0  0  0  0  0  0  0  0
    0.9350   -1.0646   -0.0688 C   0  0  2  0  0  0  0  0  0  0  0  0
   -0.0261   -0.2116    0.4710 O   0  0  0  0  0  0  0  0  0  0  0  0
   -1.1796   -0.6628   -0.2104 C   0  0  1  0  0  0  0  0  0  0  0  0
   -2.2481    0.2030    0.1770 N   0  0  0  0  0  0  0  0  0  0  0  0
   -2.2143    0.8547    1.3620 C   0  0  0  0  0  0  0  0  0  0  0  0
   -3.2212    1.7003    1.7795 C   0  0  0  0  0  0  0  0  0  0  0  0
   -4.3253    1.9041    0.9620 C   0  0  0  0  0  0  0  0  0  0  0  0
   -5.2060    2.6720    1.3770 O   0  0  0  0  0  0  0  0  0  0  0  0
   -4.3387    1.2516   -0.2027 N   0  0  0  0  0  0  0  0  0  0  0  0
   -3.3473    0.4347   -0.5862 C   0  0  0  0  0  0  0  0  0  0  0  0
   -3.4791   -0.3008   -2.0234 S   0  0  0  0  0  0  0  0  0  0  0  0
    2.3235   -0.7255    0.4194 C   0  0  0  0  0  0  0  0  0  0  0  0
    2.6696    0.5779    0.0634 O   0  0  0  0  0  0  0  0  0  0  0  0
    4.2302    0.9090    0.6322 P   0  0  0  0  0  0  0  0  0  0  0  0
    5.2540    0.2346   -0.2199 O   0  0  0  0  0  0  0  0  0  0  0  0
    4.3412    0.2892    2.2129 O   0  0  0  0  0  0  0  0  0  0  0  0
    4.4507    2.5810    0.7532 O   0  0  0  0  0  0  0  0  0  0  0  0
   -1.2956   -2.5690   -1.4728 H   0  0  0  0  0  0  0  0  0  0  0  0
   -0.9863    0.1920   -2.2380 H   0  0  0  0  0  0  0  0  0  0  0  0
    1.2122    0.2497   -1.7112 H   0  0  0  0  0  0  0  0  0  0  0  0
    2.2451   -1.4727   -2.5373 H   0  0  0  0  0  0  0  0  0  0  0  0
    0.6846   -2.0870    0.2109 H   0  0  0  0  0  0  0  0  0  0  0  0
   -1.3254   -1.7039    0.1588 H   0  0  0  0  0  0  0  0  0  0  0  0
   -1.3497    0.7062    2.0218 H   0  0  0  0  0  0  0  0  0  0  0  0
   -3.1074    2.1787    2.7443 H   0  0  0  0  0  0  0  0  0  0  0  0
   -5.1647    1.3941   -0.8318 H   0  0  0  0  0  0  0  0  0  0  0  0
    3.0185   -1.4586   -0.0290 H   0  0  0  0  0  0  0  0  0  0  0  0
    2.3115   -0.8682    1.5268 H   0  0  0  0  0  0  0  0  0  0  0  0
    3.7881    0.8994    2.7959 H   0  0  0  0  0  0  0  0  0  0  0  0
    5.1842    2.8800    0.1685 H   0  0  0  0  0  0  0  0  0  0  0  0
  1  2  1  0
  2  3  1  0
  3  4  1  0
  3  5  1  0
  5  6  1  0
  6  7  1  0
  7  8  1  0
  8  9  1  0
  9 10  2  0
 10 11  1  0
 11 12  2  0
 11 13  1  0
 13 14  1  0
 14 15  2  0
  5 16  1  0
 16 17  1  0
 17 18  1  0
 18 19  2  0
 18 20  1  0
 18 21  1  0
  7  2  1  0
 14  8  1  0
  1 22  1  0
  2 23  1  6
  3 24  1  1
  4 25  1  0
  5 26  1  6
  7 27  1  1
  9 28  1  0
 10 29  1  0
 13 30  1  0
 16 31  1  0
 16 32  1  0
 20 33  1  0
 21 34  1  0
M  END
>  <Ligand ID>  (1) 
LIG0002840

>  <Ligand>  (1) 
2-Thiouridine 5'-phosphate

>  <SMILES>  (1) 
O[C@@H]1[C@H](O)[C@H](O[C@H]1n1ccc(=O)[nH]c1=S)COP(=O)(O)O

>  <CID>  (1) 
3081495.0

>  <ChEMBL ID>  (1) 
nan

>  <InChiKey>  (1) 
OEUXFECIJDETRF-XVFCMESISA-N

>  <InChi>  (1) 
InChI=1S/C9H13N2O8PS/c12-5-1-2-11(9(21)10-5)8-7(14)6(13)4(19-8)3-18-20(15,16)17/h1-2,4,6-8,13-14H,3H2,(H,10,12,21)(H2,15,16,17)/t4-,6-,7-,8-/m1/s1

>  <IUPAC Name>  (1) 
[(2R,3S,4R,5R)-3,4-dihydroxy-5-(4-oxo-2-sulfanylidenepyrimidin-1-yl)oxolan-2-yl]methyl dihydrogen phosphate

$$$$
