
     RDKit          3D

 80 82  0  0  0  0  0  0  0  0999 V2000
    4.2351    1.3837    1.6019 O   0  0  0  0  0  0  0  0  0  0  0  0
    4.5397    0.2884    1.0869 C   0  0  0  0  0  0  0  0  0  0  0  0
    3.8534   -0.1942   -0.0718 N   0  0  0  0  0  0  0  0  0  0  0  0
    2.8108    0.6174   -0.6171 C   0  0  2  0  0  0  0  0  0  0  0  0
    1.4928   -0.0332   -0.6977 C   0  0  0  0  0  0  0  0  0  0  0  0
    1.3583   -1.2263   -0.3217 O   0  0  0  0  0  0  0  0  0  0  0  0
    0.4080    0.7451   -1.2110 N   0  0  0  0  0  0  0  0  0  0  0  0
   -0.9012    0.1305   -1.3002 C   0  0  1  0  0  0  0  0  0  0  0  0
   -1.9470    0.8529   -0.5440 C   0  0  0  0  0  0  0  0  0  0  0  0
   -1.6884    1.9410    0.0523 O   0  0  0  0  0  0  0  0  0  0  0  0
   -3.2451    0.2830   -0.5095 N   0  0  0  0  0  0  0  0  0  0  0  0
   -4.3151    0.9723    0.2374 C   0  0  1  0  0  0  0  0  0  0  0  0
   -5.5508    1.0503   -0.5709 C   0  0  0  0  0  0  0  0  0  0  0  0
   -6.6011    1.6387   -0.2072 O   0  0  0  0  0  0  0  0  0  0  0  0
   -5.6229    0.4295   -1.8738 N   0  0  0  0  0  0  0  0  0  0  0  0
   -4.6141    0.0320    1.4162 C   0  0  0  0  0  0  0  0  0  0  0  0
   -5.6780    0.5322    2.3266 C   0  0  0  0  0  0  0  0  0  0  0  0
   -5.8254   -0.5148    3.4389 C   0  0  0  0  0  0  0  0  0  0  0  0
   -6.1959   -1.7593    2.7963 N   0  0  0  0  0  0  0  0  0  0  0  0
   -7.4351   -2.1557    2.8643 C   0  0  0  0  0  0  0  0  0  0  0  0
   -7.7908   -3.3710    2.2353 N   0  0  0  0  0  0  0  0  0  0  0  0
   -8.4292   -1.4011    3.5502 N   0  0  0  0  0  0  0  0  0  0  0  0
   -1.3632    0.0693   -2.7600 C   0  0  0  0  0  0  0  0  0  0  0  0
   -1.4344    1.4304   -3.3472 C   0  0  0  0  0  0  0  0  0  0  0  0
   -0.3238    1.9859   -3.9938 C   0  0  0  0  0  0  0  0  0  0  0  0
   -0.3746    3.2577   -4.5467 C   0  0  0  0  0  0  0  0  0  0  0  0
   -1.5152    4.0255   -4.4836 C   0  0  0  0  0  0  0  0  0  0  0  0
   -2.6175    3.4921   -3.8498 C   0  0  0  0  0  0  0  0  0  0  0  0
   -2.5556    2.2276   -3.3041 C   0  0  0  0  0  0  0  0  0  0  0  0
    3.2290    1.0047   -2.0263 C   0  0  0  0  0  0  0  0  0  0  0  0
    3.4130   -0.2281   -2.8178 C   0  0  0  0  0  0  0  0  0  0  0  0
    2.5496   -0.9302   -3.5667 N   0  0  0  0  0  0  0  0  0  0  0  0
    3.1451   -2.0001   -4.1226 C   0  0  0  0  0  0  0  0  0  0  0  0
    4.4273   -1.9671   -3.7071 N   0  0  0  0  0  0  0  0  0  0  0  0
    4.6274   -0.9124   -2.9180 C   0  0  0  0  0  0  0  0  0  0  0  0
    5.6086   -0.5251    1.6618 C   0  0  0  0  0  0  0  0  0  0  0  0
    6.2508   -0.0939    2.7318 C   0  0  0  0  0  0  0  0  0  0  0  0
    7.3283   -0.8207    3.3849 C   0  0  0  0  0  0  0  0  0  0  0  0
    7.9582   -0.2935    4.5180 C   0  0  0  0  0  0  0  0  0  0  0  0
    8.9727   -0.9347    5.1675 C   0  0  0  0  0  0  0  0  0  0  0  0
    9.4233   -2.1558    4.7176 C   0  0  0  0  0  0  0  0  0  0  0  0
    8.8257   -2.7079    3.6018 C   0  0  0  0  0  0  0  0  0  0  0  0
    7.7992   -2.0418    2.9582 C   0  0  0  0  0  0  0  0  0  0  0  0
   10.7327   -2.9591    5.5750 Cl  0  0  0  0  0  0  0  0  0  0  0  0
    4.0808   -1.1036   -0.5279 H   0  0  0  0  0  0  0  0  0  0  0  0
    2.6789    1.5672   -0.0257 H   0  0  0  0  0  0  0  0  0  0  0  0
    0.5333    1.7393   -1.5217 H   0  0  0  0  0  0  0  0  0  0  0  0
   -0.7945   -0.9226   -0.9701 H   0  0  0  0  0  0  0  0  0  0  0  0
   -3.5125   -0.6067   -0.9809 H   0  0  0  0  0  0  0  0  0  0  0  0
   -3.9883    1.9597    0.6111 H   0  0  0  0  0  0  0  0  0  0  0  0
   -5.7262    1.0859   -2.6772 H   0  0  0  0  0  0  0  0  0  0  0  0
   -5.5720   -0.6145   -1.9724 H   0  0  0  0  0  0  0  0  0  0  0  0
   -4.9857   -0.9064    0.9092 H   0  0  0  0  0  0  0  0  0  0  0  0
   -3.6799   -0.2538    1.9229 H   0  0  0  0  0  0  0  0  0  0  0  0
   -6.6600    0.5306    1.7891 H   0  0  0  0  0  0  0  0  0  0  0  0
   -5.5201    1.5351    2.7181 H   0  0  0  0  0  0  0  0  0  0  0  0
   -6.6143   -0.2130    4.1563 H   0  0  0  0  0  0  0  0  0  0  0  0
   -4.8406   -0.6738    3.9329 H   0  0  0  0  0  0  0  0  0  0  0  0
   -7.0652   -4.0902    2.0004 H   0  0  0  0  0  0  0  0  0  0  0  0
   -8.7867   -3.5948    1.9828 H   0  0  0  0  0  0  0  0  0  0  0  0
   -9.2082   -1.0008    2.9769 H   0  0  0  0  0  0  0  0  0  0  0  0
   -8.3697   -1.2623    4.5782 H   0  0  0  0  0  0  0  0  0  0  0  0
   -0.8100   -0.6552   -3.3586 H   0  0  0  0  0  0  0  0  0  0  0  0
   -2.4248   -0.3070   -2.6791 H   0  0  0  0  0  0  0  0  0  0  0  0
    0.5984    1.4594   -4.0874 H   0  0  0  0  0  0  0  0  0  0  0  0
    0.4798    3.6902   -5.0465 H   0  0  0  0  0  0  0  0  0  0  0  0
   -1.5684    5.0048   -4.9042 H   0  0  0  0  0  0  0  0  0  0  0  0
   -3.5322    4.0706   -3.7825 H   0  0  0  0  0  0  0  0  0  0  0  0
   -3.4461    1.8639   -2.8214 H   0  0  0  0  0  0  0  0  0  0  0  0
    4.1388    1.6394   -2.0083 H   0  0  0  0  0  0  0  0  0  0  0  0
    2.3608    1.5706   -2.4624 H   0  0  0  0  0  0  0  0  0  0  0  0
    1.5602   -0.6987   -3.7097 H   0  0  0  0  0  0  0  0  0  0  0  0
    2.7602   -2.7664   -4.7694 H   0  0  0  0  0  0  0  0  0  0  0  0
    5.5767   -0.6480   -2.4448 H   0  0  0  0  0  0  0  0  0  0  0  0
    5.8802   -1.4741    1.2234 H   0  0  0  0  0  0  0  0  0  0  0  0
    5.9501    0.8561    3.1379 H   0  0  0  0  0  0  0  0  0  0  0  0
    7.5828    0.6766    4.8556 H   0  0  0  0  0  0  0  0  0  0  0  0
    9.4013   -0.4365    6.0483 H   0  0  0  0  0  0  0  0  0  0  0  0
    9.1847   -3.6655    3.2553 H   0  0  0  0  0  0  0  0  0  0  0  0
    7.3740   -2.5193    2.0977 H   0  0  0  0  0  0  0  0  0  0  0  0
  1  2  2  0
  2  3  1  0
  3  4  1  0
  4  5  1  0
  5  6  2  0
  5  7  1  0
  7  8  1  0
  8  9  1  0
  9 10  2  0
  9 11  1  0
 11 12  1  0
 12 13  1  0
 13 14  2  0
 13 15  1  0
 12 16  1  0
 16 17  1  0
 17 18  1  0
 18 19  1  0
 19 20  2  3
 20 21  1  0
 20 22  1  0
  8 23  1  0
 23 24  1  0
 24 25  2  0
 25 26  1  0
 26 27  2  0
 27 28  1  0
 28 29  2  0
  4 30  1  0
 30 31  1  0
 31 32  1  0
 32 33  1  0
 33 34  2  0
 34 35  1  0
  2 36  1  0
 36 37  2  0
 37 38  1  0
 38 39  2  0
 39 40  1  0
 40 41  2  0
 41 42  1  0
 42 43  2  0
 41 44  1  0
 29 24  1  0
 35 31  2  0
 43 38  1  0
  3 45  1  0
  4 46  1  1
  7 47  1  0
  8 48  1  1
 11 49  1  0
 12 50  1  1
 15 51  1  0
 15 52  1  0
 16 53  1  0
 16 54  1  0
 17 55  1  0
 17 56  1  0
 18 57  1  0
 18 58  1  0
 21 59  1  0
 21 60  1  0
 22 61  1  0
 22 62  1  0
 23 63  1  0
 23 64  1  0
 25 65  1  0
 26 66  1  0
 27 67  1  0
 28 68  1  0
 29 69  1  0
 30 70  1  0
 30 71  1  0
 32 72  1  0
 33 73  1  0
 35 74  1  0
 36 75  1  0
 37 76  1  0
 39 77  1  0
 40 78  1  0
 42 79  1  0
 43 80  1  0
M  END
>  <Ligand ID>  (1) 
LIG0001253

>  <Ligand>  (1) 
CHEMBL568577

>  <SMILES>  (1) 
O=C(N[C@H](C(=O)N[C@@H](C(=O)N[C@@H](C(=O)N)CCCN=C(N)N)Cc1ccccc1)Cc1[nH]cnc1)/C=C/c1ccc(cc1)Cl

>  <CID>  (1) 
45487414.0

>  <ChEMBL ID>  (1) 
nan

>  <InChiKey>  (1) 
CVVWWYJPDWRAEB-FULHUOFVSA-N

>  <InChi>  (1) 
InChI=1S/C30H36ClN9O4/c31-21-11-8-19(9-12-21)10-13-26(41)38-25(16-22-17-35-18-37-22)29(44)40-24(15-20-5-2-1-3-6-20)28(43)39-23(27(32)42)7-4-14-36-30(33)34/h1-3,5-6,8-13,17-18,23-25H,4,7,14-16H2,(H2,32,42)(H,35,37)(H,38,41)(H,39,43)(H,40,44)(H4,33,34,36)/b13-10+/t23-,24-,25+/m1/s1

>  <IUPAC Name>  (1) 
(2R)-2-[[(2R)-2-[[(2S)-2-[[(E)-3-(4-chlorophenyl)prop-2-enoyl]amino]-3-(1H-imidazol-5-yl)propanoyl]amino]-3-phenylpropanoyl]amino]-5-(diaminomethylideneamino)pentanamide

$$$$
