
     RDKit          3D

 34 36  0  0  0  0  0  0  0  0999 V2000
   -3.7469    3.0024   -1.1061 N   0  0  0  0  0  0  0  0  0  0  0  0
   -3.7824    1.9271   -1.8854 C   0  0  0  0  0  0  0  0  0  0  0  0
   -3.1430    0.7529   -1.5378 C   0  0  0  0  0  0  0  0  0  0  0  0
   -2.4506    0.7345   -0.3263 C   0  0  0  0  0  0  0  0  0  0  0  0
   -2.4254    1.8431    0.4570 C   0  0  0  0  0  0  0  0  0  0  0  0
   -3.0844    3.0119    0.0710 C   0  0  0  0  0  0  0  0  0  0  0  0
   -1.7519   -0.4800    0.0994 C   0  0  0  0  0  0  0  0  0  0  0  0
   -2.3881   -1.7167   -0.0150 C   0  0  0  0  0  0  0  0  0  0  0  0
   -1.7336   -2.8823    0.3870 C   0  0  0  0  0  0  0  0  0  0  0  0
   -0.4491   -2.8145    0.9014 C   0  0  0  0  0  0  0  0  0  0  0  0
    0.1691   -1.5641    1.0070 C   0  0  0  0  0  0  0  0  0  0  0  0
   -0.4557   -0.4061    0.6177 C   0  0  0  0  0  0  0  0  0  0  0  0
    0.0981    0.8545    0.6969 O   0  0  0  0  0  0  0  0  0  0  0  0
    1.3918    1.1375    1.1803 C   0  0  0  0  0  0  0  0  0  0  0  0
    2.3811    0.4511    0.3125 C   0  0  0  0  0  0  0  0  0  0  0  0
    2.2187   -0.2296   -0.7670 N   0  0  0  0  0  0  0  0  0  0  0  0
    3.4685   -0.7273   -1.2944 C   0  0  0  0  0  0  0  0  0  0  0  0
    4.4148   -0.5937   -0.1304 C   0  0  0  0  0  0  0  0  0  0  0  0
    3.7918    0.4852    0.6108 N   0  0  0  0  0  0  0  0  0  0  0  0
   -4.3357    1.9872   -2.8232 H   0  0  0  0  0  0  0  0  0  0  0  0
   -3.1762   -0.1177   -2.1764 H   0  0  0  0  0  0  0  0  0  0  0  0
   -1.9053    1.8830    1.4029 H   0  0  0  0  0  0  0  0  0  0  0  0
   -3.0541    3.8865    0.7074 H   0  0  0  0  0  0  0  0  0  0  0  0
   -3.3936   -1.7340   -0.4217 H   0  0  0  0  0  0  0  0  0  0  0  0
   -2.2477   -3.8302    0.2883 H   0  0  0  0  0  0  0  0  0  0  0  0
    0.0409   -3.7242    1.2066 H   0  0  0  0  0  0  0  0  0  0  0  0
    1.1632   -1.5375    1.4165 H   0  0  0  0  0  0  0  0  0  0  0  0
    1.4589    0.7268    2.2309 H   0  0  0  0  0  0  0  0  0  0  0  0
    1.5964    2.2101    1.2608 H   0  0  0  0  0  0  0  0  0  0  0  0
    3.8626   -0.0752   -2.1104 H   0  0  0  0  0  0  0  0  0  0  0  0
    3.3703   -1.7905   -1.6159 H   0  0  0  0  0  0  0  0  0  0  0  0
    5.4483   -0.3445   -0.4423 H   0  0  0  0  0  0  0  0  0  0  0  0
    4.3764   -1.4869    0.5552 H   0  0  0  0  0  0  0  0  0  0  0  0
    4.2727    1.1612    1.2427 H   0  0  0  0  0  0  0  0  0  0  0  0
  1  2  2  0
  2  3  1  0
  3  4  2  0
  4  5  1  0
  5  6  2  0
  4  7  1  0
  7  8  2  0
  8  9  1  0
  9 10  2  0
 10 11  1  0
 11 12  2  0
 12 13  1  0
 13 14  1  0
 14 15  1  0
 15 16  2  0
 16 17  1  0
 17 18  1  0
 18 19  1  0
  6  1  1  0
 12  7  1  0
 19 15  1  0
  2 20  1  0
  3 21  1  0
  5 22  1  0
  6 23  1  0
  8 24  1  0
  9 25  1  0
 10 26  1  0
 11 27  1  0
 14 28  1  0
 14 29  1  0
 17 30  1  0
 17 31  1  0
 18 32  1  0
 18 33  1  0
 19 34  1  0
M  END
>  <Ligand ID>  (1) 
LIG0003193

>  <Ligand>  (1) 
CHEMBL144956

>  <SMILES>  (1) 
n1ccc(cc1)c1ccccc1OCC1=NCCN1

>  <CID>  (1) 
44362541.0

>  <ChEMBL ID>  (1) 
nan

>  <InChiKey>  (1) 
XUDKBTKAFPWCCT-UHFFFAOYSA-N

>  <InChi>  (1) 
InChI=1S/C15H15N3O/c1-2-4-14(19-11-15-17-9-10-18-15)13(3-1)12-5-7-16-8-6-12/h1-8H,9-11H2,(H,17,18)

>  <IUPAC Name>  (1) 
4-[2-(4,5-dihydro-1H-imidazol-2-ylmethoxy)phenyl]pyridine

$$$$
