
     RDKit          3D

 51 52  0  0  0  0  0  0  0  0999 V2000
   -0.6933    1.9870    0.7088 O   0  0  0  0  0  0  0  0  0  0  0  0
   -0.6650    0.7540    1.0540 C   0  0  0  0  0  0  0  0  0  0  0  0
    0.1348    0.4741    2.2834 C   0  0  2  0  0  0  0  0  0  0  0  0
    1.5371    0.9971    2.1245 C   0  0  0  0  0  0  0  0  0  0  0  0
    2.2884    0.4058    1.0001 C   0  0  0  0  0  0  0  0  0  0  0  0
    3.0382   -0.7481    1.2172 C   0  0  0  0  0  0  0  0  0  0  0  0
    3.7646   -1.3359    0.1777 C   0  0  0  0  0  0  0  0  0  0  0  0
    3.7672   -0.7990   -1.0968 C   0  0  0  0  0  0  0  0  0  0  0  0
    3.0189    0.3513   -1.3105 C   0  0  0  0  0  0  0  0  0  0  0  0
    2.3089    0.9187   -0.2772 C   0  0  0  0  0  0  0  0  0  0  0  0
    4.4961   -1.3635   -2.1779 N   0  0  0  0  0  0  0  0  0  0  0  0
    5.7326   -1.6914   -2.0710 C   0  0  0  0  0  0  0  0  0  0  0  0
    6.3463   -2.2500   -3.2381 N   0  0  0  0  0  0  0  0  0  0  0  0
    6.4986   -1.5279   -0.8830 N   0  0  0  0  0  0  0  0  0  0  0  0
    0.0767   -0.9269    2.5504 N   0  0  0  0  0  0  0  0  0  0  0  0
   -1.3379   -0.2538    0.3267 N   0  0  0  0  0  0  0  0  0  0  0  0
   -2.1274   -0.0612   -0.8447 C   0  0  2  0  0  0  0  0  0  0  0  0
   -1.4344   -0.1336   -2.1239 C   0  0  0  0  0  0  0  0  0  0  0  0
   -0.1909   -0.3542   -2.1812 O   0  0  0  0  0  0  0  0  0  0  0  0
   -2.1815    0.0486   -3.3195 N   0  0  0  0  0  0  0  0  0  0  0  0
   -3.0349    1.1627   -0.8108 C   0  0  0  0  0  0  0  0  0  0  0  0
   -4.0305    1.0953    0.2574 C   0  0  0  0  0  0  0  0  0  0  0  0
   -5.2308    0.4417   -0.0424 C   0  0  0  0  0  0  0  0  0  0  0  0
   -6.2514    0.3165    0.8677 C   0  0  0  0  0  0  0  0  0  0  0  0
   -6.1448    0.8338    2.1380 C   0  0  0  0  0  0  0  0  0  0  0  0
   -4.9678    1.4821    2.4518 C   0  0  0  0  0  0  0  0  0  0  0  0
   -3.9309    1.6065    1.5187 C   0  0  0  0  0  0  0  0  0  0  0  0
   -0.3337    1.0521    3.1045 H   0  0  0  0  0  0  0  0  0  0  0  0
    1.4530    2.1048    1.9531 H   0  0  0  0  0  0  0  0  0  0  0  0
    2.1363    0.8937    3.0456 H   0  0  0  0  0  0  0  0  0  0  0  0
    3.0860   -1.2271    2.1879 H   0  0  0  0  0  0  0  0  0  0  0  0
    4.3378   -2.2349    0.3760 H   0  0  0  0  0  0  0  0  0  0  0  0
    2.9989    0.8046   -2.3141 H   0  0  0  0  0  0  0  0  0  0  0  0
    1.7490    1.8122   -0.5057 H   0  0  0  0  0  0  0  0  0  0  0  0
    6.7752   -3.2198   -3.2133 H   0  0  0  0  0  0  0  0  0  0  0  0
    6.3790   -1.7016   -4.1406 H   0  0  0  0  0  0  0  0  0  0  0  0
    6.2411   -0.8682   -0.1170 H   0  0  0  0  0  0  0  0  0  0  0  0
    7.3637   -2.0966   -0.7703 H   0  0  0  0  0  0  0  0  0  0  0  0
   -0.9171   -1.1907    2.7222 H   0  0  0  0  0  0  0  0  0  0  0  0
    0.4639   -1.5137    1.8072 H   0  0  0  0  0  0  0  0  0  0  0  0
   -1.2262   -1.2412    0.7114 H   0  0  0  0  0  0  0  0  0  0  0  0
   -2.9151   -0.9074   -0.8301 H   0  0  0  0  0  0  0  0  0  0  0  0
   -3.0584   -0.5234   -3.5008 H   0  0  0  0  0  0  0  0  0  0  0  0
   -1.8471    0.7565   -4.0130 H   0  0  0  0  0  0  0  0  0  0  0  0
   -3.5499    1.1713   -1.7988 H   0  0  0  0  0  0  0  0  0  0  0  0
   -2.4819    2.1160   -0.7714 H   0  0  0  0  0  0  0  0  0  0  0  0
   -5.3983    0.0044   -1.0214 H   0  0  0  0  0  0  0  0  0  0  0  0
   -7.1676   -0.1909    0.6152 H   0  0  0  0  0  0  0  0  0  0  0  0
   -6.9342    0.7451    2.8651 H   0  0  0  0  0  0  0  0  0  0  0  0
   -4.8739    1.8932    3.4504 H   0  0  0  0  0  0  0  0  0  0  0  0
   -3.0671    2.1322    1.8582 H   0  0  0  0  0  0  0  0  0  0  0  0
  1  2  2  0
  2  3  1  0
  3  4  1  0
  4  5  1  0
  5  6  2  0
  6  7  1  0
  7  8  2  0
  8  9  1  0
  9 10  2  0
  8 11  1  0
 11 12  2  3
 12 13  1  0
 12 14  1  0
  3 15  1  0
  2 16  1  0
 16 17  1  0
 17 18  1  0
 18 19  2  0
 18 20  1  0
 17 21  1  0
 21 22  1  0
 22 23  2  0
 23 24  1  0
 24 25  2  0
 25 26  1  0
 26 27  2  0
 10  5  1  0
 27 22  1  0
  3 28  1  1
  4 29  1  0
  4 30  1  0
  6 31  1  0
  7 32  1  0
  9 33  1  0
 10 34  1  0
 13 35  1  0
 13 36  1  0
 14 37  1  0
 14 38  1  0
 15 39  1  0
 15 40  1  0
 16 41  1  0
 17 42  1  6
 20 43  1  0
 20 44  1  0
 21 45  1  0
 21 46  1  0
 23 47  1  0
 24 48  1  0
 25 49  1  0
 26 50  1  0
 27 51  1  0
M  END
>  <Ligand ID>  (1) 
LIG0002614

>  <Ligand>  (1) 
CHEMBL3343993

>  <SMILES>  (1) 
O=C([C@H](Cc1ccc(cc1)N=C(N)N)N)N[C@H](C(=O)N)Cc1ccccc1

>  <CID>  (1) 
118717467.0

>  <ChEMBL ID>  (1) 
nan

>  <InChiKey>  (1) 
JGVSHHWPQVGYRT-HOTGVXAUSA-N

>  <InChi>  (1) 
InChI=1S/C19H24N6O2/c20-15(10-13-6-8-14(9-7-13)24-19(22)23)18(27)25-16(17(21)26)11-12-4-2-1-3-5-12/h1-9,15-16H,10-11,20H2,(H2,21,26)(H,25,27)(H4,22,23,24)/t15-,16-/m0/s1

>  <IUPAC Name>  (1) 
(2S)-2-amino-N-[(2S)-1-amino-1-oxo-3-phenylpropan-2-yl]-3-[4-(diaminomethylideneamino)phenyl]propanamide

$$$$
