
     RDKit          3D

 58 62  0  0  0  0  0  0  0  0999 V2000
    6.3304    2.5765   -0.6770 O   0  0  0  0  0  0  0  0  0  0  0  0
    5.8527    1.6842    0.0856 C   0  0  0  0  0  0  0  0  0  0  0  0
    4.5276    1.1970   -0.0921 N   0  0  0  0  0  0  0  0  0  0  0  0
    3.9376    0.1774    0.7578 C   0  0  0  0  0  0  0  0  0  0  0  0
    2.7743   -0.4088   -0.0343 C   0  0  2  0  0  0  0  0  0  0  0  0
    3.3730   -0.7396   -1.4085 C   0  0  0  0  0  0  0  0  0  0  0  0
    3.5226    0.5608   -2.1468 C   0  0  0  0  0  0  0  0  0  0  0  0
    3.7057    1.7241   -1.1653 C   0  0  1  0  0  0  0  0  0  0  0  0
    2.3198    1.9642   -0.5480 C   0  0  0  0  0  0  0  0  0  0  0  0
    1.7882    0.6443   -0.3397 N   0  0  0  0  0  0  0  0  0  0  0  0
    0.4234    0.2998   -0.4117 C   0  0  0  0  0  0  0  0  0  0  0  0
   -0.5295    1.2309   -0.7677 C   0  0  0  0  0  0  0  0  0  0  0  0
   -1.8669    0.8570   -0.8259 C   0  0  0  0  0  0  0  0  0  0  0  0
   -2.2906   -0.4252   -0.5396 C   0  0  0  0  0  0  0  0  0  0  0  0
   -1.2772   -1.3235   -0.1846 C   0  0  0  0  0  0  0  0  0  0  0  0
    0.0132   -0.9353   -0.1352 N   0  0  0  0  0  0  0  0  0  0  0  0
   -1.8894   -2.4969    0.0518 N   0  0  0  0  0  0  0  0  0  0  0  0
   -1.2311   -3.7337    0.4570 C   0  0  0  0  0  0  0  0  0  0  0  0
   -3.2039   -2.3271   -0.1468 C   0  0  0  0  0  0  0  0  0  0  0  0
   -4.0377   -3.2556   -0.0001 O   0  0  0  0  0  0  0  0  0  0  0  0
   -3.4808   -1.0637   -0.5112 N   0  0  0  0  0  0  0  0  0  0  0  0
   -4.7574   -0.4583   -0.8244 C   0  0  0  0  0  0  0  0  0  0  0  0
   -5.4466    0.1405    0.3742 C   0  0  0  0  0  0  0  0  0  0  0  0
   -4.6332    1.2188    1.0270 C   0  0  0  0  0  0  0  0  0  0  0  0
   -5.8445   -0.8726    1.4150 C   0  0  0  0  0  0  0  0  0  0  0  0
   -6.7192    0.8182   -0.1544 C   0  0  0  0  0  0  0  0  0  0  0  0
    6.6864    1.1538    1.1635 C   0  0  0  0  0  0  0  0  0  0  0  0
    7.2909   -0.1136    1.0418 C   0  0  0  0  0  0  0  0  0  0  0  0
    8.1604   -0.3252    2.5163 S   0  0  0  0  0  0  0  0  0  0  0  0
    7.6110    1.3719    3.1857 N   0  0  0  0  0  0  0  0  0  0  0  0
    6.9787    1.7168    2.3079 N   0  0  0  0  0  0  0  0  0  0  0  0
    3.6481    0.5509    1.7448 H   0  0  0  0  0  0  0  0  0  0  0  0
    4.6649   -0.6788    0.8452 H   0  0  0  0  0  0  0  0  0  0  0  0
    2.2932   -1.2587    0.4449 H   0  0  0  0  0  0  0  0  0  0  0  0
    2.6858   -1.4454   -1.9581 H   0  0  0  0  0  0  0  0  0  0  0  0
    4.3651   -1.1956   -1.2017 H   0  0  0  0  0  0  0  0  0  0  0  0
    4.4386    0.4949   -2.7774 H   0  0  0  0  0  0  0  0  0  0  0  0
    2.6737    0.7938   -2.8277 H   0  0  0  0  0  0  0  0  0  0  0  0
    4.1069    2.6104   -1.6516 H   0  0  0  0  0  0  0  0  0  0  0  0
    2.5572    2.4808    0.4282 H   0  0  0  0  0  0  0  0  0  0  0  0
    1.7148    2.6513   -1.1271 H   0  0  0  0  0  0  0  0  0  0  0  0
   -0.2800    2.2549   -1.0110 H   0  0  0  0  0  0  0  0  0  0  0  0
   -2.5876    1.5941   -1.1036 H   0  0  0  0  0  0  0  0  0  0  0  0
   -1.4468   -4.0178    1.5010 H   0  0  0  0  0  0  0  0  0  0  0  0
   -0.1538   -3.7239    0.2696 H   0  0  0  0  0  0  0  0  0  0  0  0
   -1.6666   -4.5298   -0.2078 H   0  0  0  0  0  0  0  0  0  0  0  0
   -4.6322    0.4021   -1.5462 H   0  0  0  0  0  0  0  0  0  0  0  0
   -5.4219   -1.1612   -1.3767 H   0  0  0  0  0  0  0  0  0  0  0  0
   -3.6846    0.8103    1.4235 H   0  0  0  0  0  0  0  0  0  0  0  0
   -5.1877    1.5719    1.9440 H   0  0  0  0  0  0  0  0  0  0  0  0
   -4.4211    2.0746    0.3567 H   0  0  0  0  0  0  0  0  0  0  0  0
   -6.7607   -0.5155    1.9701 H   0  0  0  0  0  0  0  0  0  0  0  0
   -5.0665   -0.9847    2.1699 H   0  0  0  0  0  0  0  0  0  0  0  0
   -6.1672   -1.7885    0.9077 H   0  0  0  0  0  0  0  0  0  0  0  0
   -6.3813    1.7853   -0.5793 H   0  0  0  0  0  0  0  0  0  0  0  0
   -7.1463    0.1712   -0.9315 H   0  0  0  0  0  0  0  0  0  0  0  0
   -7.4259    1.0023    0.6861 H   0  0  0  0  0  0  0  0  0  0  0  0
    7.1941   -0.8058    0.1475 H   0  0  0  0  0  0  0  0  0  0  0  0
  1  2  2  0
  2  3  1  0
  3  4  1  0
  4  5  1  0
  5  6  1  0
  6  7  1  0
  7  8  1  0
  8  9  1  0
  9 10  1  0
 10 11  1  0
 11 12  1  0
 12 13  2  0
 13 14  1  0
 14 15  2  0
 15 16  1  0
 15 17  1  0
 17 18  1  0
 17 19  1  0
 19 20  2  0
 19 21  1  0
 21 22  1  0
 22 23  1  0
 23 24  1  0
 23 25  1  0
 23 26  1  0
  2 27  1  0
 27 28  2  0
 28 29  1  0
 29 30  1  0
 30 31  2  0
  8  3  1  0
 16 11  2  0
 31 27  1  0
 10  5  1  0
 21 14  1  0
  4 32  1  0
  4 33  1  0
  5 34  1  1
  6 35  1  0
  6 36  1  0
  7 37  1  0
  7 38  1  0
  8 39  1  6
  9 40  1  0
  9 41  1  0
 12 42  1  0
 13 43  1  0
 18 44  1  0
 18 45  1  0
 18 46  1  0
 22 47  1  0
 22 48  1  0
 24 49  1  0
 24 50  1  0
 24 51  1  0
 25 52  1  0
 25 53  1  0
 25 54  1  0
 26 55  1  0
 26 56  1  0
 26 57  1  0
 28 58  1  0
M  END
>  <Ligand ID>  (1) 
LIG0000901

>  <Ligand>  (1) 
CHEMBL3805203

>  <SMILES>  (1) 
O=C(N1C[C@@H]2CC[C@H]1CN2c1ccc2c(n1)n(C)c(=O)n2CC(C)(C)C)c1csnn1

>  <CID>  (1) 
51036108.0

>  <ChEMBL ID>  (1) 
nan

>  <InChiKey>  (1) 
UXKSQZZBCSFGQA-KBPBESRZSA-N

>  <InChi>  (1) 
InChI=1S/C21H27N7O2S/c1-21(2,3)12-28-16-7-8-17(22-18(16)25(4)20(28)30)26-9-14-6-5-13(26)10-27(14)19(29)15-11-31-24-23-15/h7-8,11,13-14H,5-6,9-10,12H2,1-4H3/t13-,14-/m0/s1

>  <IUPAC Name>  (1) 
1-(2,2-dimethylpropyl)-3-methyl-5-[(1S,4S)-5-(thiadiazole-4-carbonyl)-2,5-diazabicyclo[2.2.2]octan-2-yl]imidazo[4,5-b]pyridin-2-one

$$$$
