
     RDKit          3D

 74 77  0  0  0  0  0  0  0  0999 V2000
    4.6288   -5.9203    0.8568 N   0  0  0  0  0  0  0  0  0  0  0  0
    5.4459   -5.9395   -0.3222 C   0  0  0  0  0  0  0  0  0  0  0  0
    6.0892   -4.5997   -0.6398 C   0  0  0  0  0  0  0  0  0  0  0  0
    5.0506   -3.5202   -0.8650 C   0  0  0  0  0  0  0  0  0  0  0  0
    5.7454   -2.1904   -1.1827 C   0  0  0  0  0  0  0  0  0  0  0  0
    4.8035   -1.1279   -1.4078 N   0  0  0  0  0  0  0  0  0  0  0  0
    3.8667   -0.7011   -0.4284 C   0  0  0  0  0  0  0  0  0  0  0  0
    3.7910   -1.2218    0.7139 O   0  0  0  0  0  0  0  0  0  0  0  0
    2.9256    0.4170   -0.7653 C   0  0  2  0  0  0  0  0  0  0  0  0
    3.6253    1.6012   -1.3741 C   0  0  0  0  0  0  0  0  0  0  0  0
    2.7586    2.7258   -1.7279 C   0  0  0  0  0  0  0  0  0  0  0  0
    2.3100    2.9866   -3.0299 C   0  0  0  0  0  0  0  0  0  0  0  0
    1.5186    4.0766   -3.0221 N   0  0  0  0  0  0  0  0  0  0  0  0
    1.4337    4.5359   -1.7702 C   0  0  0  0  0  0  0  0  0  0  0  0
    2.1846    3.7228   -0.9705 C   0  0  0  0  0  0  0  0  0  0  0  0
    2.2646    3.9906    0.3780 C   0  0  0  0  0  0  0  0  0  0  0  0
    1.6146    5.0529    0.9695 C   0  0  0  0  0  0  0  0  0  0  0  0
    0.8577    5.8700    0.1586 C   0  0  0  0  0  0  0  0  0  0  0  0
    0.7709    5.6083   -1.2051 C   0  0  0  0  0  0  0  0  0  0  0  0
    2.0463    0.7243    0.3152 N   0  0  0  0  0  0  0  0  0  0  0  0
    0.6333    0.5397    0.1269 C   0  0  0  0  0  0  0  0  0  0  0  0
    0.1588    0.1142   -0.9638 O   0  0  0  0  0  0  0  0  0  0  0  0
   -0.2852    0.8419    1.1978 N   0  0  0  0  0  0  0  0  0  0  0  0
   -1.6821    0.6498    0.9876 C   0  0  0  0  0  0  0  0  0  0  0  0
   -2.2825   -0.3523    1.9493 C   0  0  0  0  0  0  0  0  0  0  0  0
   -3.7371   -0.6175    1.6304 C   0  0  0  0  0  0  0  0  0  0  0  0
   -4.2857    0.2141    0.6476 N   0  0  0  0  0  0  0  0  0  0  0  0
   -3.8847    1.5536    0.5278 C   0  0  0  0  0  0  0  0  0  0  0  0
   -2.5238    1.8947    1.0933 C   0  0  0  0  0  0  0  0  0  0  0  0
   -5.1870   -0.3231   -0.2969 C   0  0  0  0  0  0  0  0  0  0  0  0
   -6.3847   -0.8571    0.3811 C   0  0  0  0  0  0  0  0  0  0  0  0
   -6.5428   -2.1356    0.8170 C   0  0  0  0  0  0  0  0  0  0  0  0
   -7.7188   -2.5053    1.4399 C   0  0  0  0  0  0  0  0  0  0  0  0
   -8.7493   -1.6336    1.6430 C   0  0  0  0  0  0  0  0  0  0  0  0
   -8.6080   -0.3394    1.2100 C   0  0  0  0  0  0  0  0  0  0  0  0
   -7.4344    0.0244    0.5899 C   0  0  0  0  0  0  0  0  0  0  0  0
    3.7540   -5.3720    0.7050 H   0  0  0  0  0  0  0  0  0  0  0  0
    5.1802   -5.6357    1.6728 H   0  0  0  0  0  0  0  0  0  0  0  0
    4.9204   -6.3487   -1.2063 H   0  0  0  0  0  0  0  0  0  0  0  0
    6.3021   -6.6302   -0.1061 H   0  0  0  0  0  0  0  0  0  0  0  0
    6.7557   -4.3235    0.2052 H   0  0  0  0  0  0  0  0  0  0  0  0
    6.7313   -4.7515   -1.5204 H   0  0  0  0  0  0  0  0  0  0  0  0
    4.4954   -3.3562    0.0789 H   0  0  0  0  0  0  0  0  0  0  0  0
    4.3716   -3.8173   -1.6671 H   0  0  0  0  0  0  0  0  0  0  0  0
    6.3389   -2.3775   -2.0770 H   0  0  0  0  0  0  0  0  0  0  0  0
    6.4499   -1.9169   -0.3749 H   0  0  0  0  0  0  0  0  0  0  0  0
    4.7948   -0.6356   -2.3320 H   0  0  0  0  0  0  0  0  0  0  0  0
    2.2705    0.0089   -1.5940 H   0  0  0  0  0  0  0  0  0  0  0  0
    4.2209    1.3152   -2.2635 H   0  0  0  0  0  0  0  0  0  0  0  0
    4.4132    1.8931   -0.6147 H   0  0  0  0  0  0  0  0  0  0  0  0
    2.5644    2.3961   -3.9102 H   0  0  0  0  0  0  0  0  0  0  0  0
    1.0338    4.5225   -3.8282 H   0  0  0  0  0  0  0  0  0  0  0  0
    2.8598    3.3581    1.0158 H   0  0  0  0  0  0  0  0  0  0  0  0
    1.6869    5.2493    2.0282 H   0  0  0  0  0  0  0  0  0  0  0  0
    0.3433    6.7023    0.5953 H   0  0  0  0  0  0  0  0  0  0  0  0
    0.1762    6.2431   -1.8651 H   0  0  0  0  0  0  0  0  0  0  0  0
    2.3242    1.0726    1.2570 H   0  0  0  0  0  0  0  0  0  0  0  0
    0.0627    1.2009    2.1277 H   0  0  0  0  0  0  0  0  0  0  0  0
   -1.8418    0.2581   -0.0393 H   0  0  0  0  0  0  0  0  0  0  0  0
   -2.2325    0.0665    2.9755 H   0  0  0  0  0  0  0  0  0  0  0  0
   -1.6495   -1.2493    1.9387 H   0  0  0  0  0  0  0  0  0  0  0  0
   -4.3670   -0.5570    2.5602 H   0  0  0  0  0  0  0  0  0  0  0  0
   -3.7614   -1.6791    1.2823 H   0  0  0  0  0  0  0  0  0  0  0  0
   -3.8057    1.7849   -0.5760 H   0  0  0  0  0  0  0  0  0  0  0  0
   -4.6728    2.2411    0.9013 H   0  0  0  0  0  0  0  0  0  0  0  0
   -2.0984    2.7409    0.5373 H   0  0  0  0  0  0  0  0  0  0  0  0
   -2.6807    2.1990    2.1589 H   0  0  0  0  0  0  0  0  0  0  0  0
   -4.6976   -1.1899   -0.8318 H   0  0  0  0  0  0  0  0  0  0  0  0
   -5.4843    0.3785   -1.1005 H   0  0  0  0  0  0  0  0  0  0  0  0
   -5.7461   -2.8464    0.6680 H   0  0  0  0  0  0  0  0  0  0  0  0
   -7.7705   -3.5528    1.7625 H   0  0  0  0  0  0  0  0  0  0  0  0
   -9.6741   -1.9425    2.1377 H   0  0  0  0  0  0  0  0  0  0  0  0
   -9.4373    0.3326    1.3821 H   0  0  0  0  0  0  0  0  0  0  0  0
   -7.3482    1.0586    0.2551 H   0  0  0  0  0  0  0  0  0  0  0  0
  1  2  1  0
  2  3  1  0
  3  4  1  0
  4  5  1  0
  5  6  1  0
  6  7  1  0
  7  8  2  0
  7  9  1  0
  9 10  1  0
 10 11  1  0
 11 12  2  0
 12 13  1  0
 13 14  1  0
 14 15  2  0
 15 16  1  0
 16 17  2  0
 17 18  1  0
 18 19  2  0
  9 20  1  0
 20 21  1  0
 21 22  2  0
 21 23  1  0
 23 24  1  0
 24 25  1  0
 25 26  1  0
 26 27  1  0
 27 28  1  0
 28 29  1  0
 27 30  1  0
 30 31  1  0
 31 32  2  0
 32 33  1  0
 33 34  2  0
 34 35  1  0
 35 36  2  0
 15 11  1  0
 29 24  1  0
 36 31  1  0
 19 14  1  0
  1 37  1  0
  1 38  1  0
  2 39  1  0
  2 40  1  0
  3 41  1  0
  3 42  1  0
  4 43  1  0
  4 44  1  0
  5 45  1  0
  5 46  1  0
  6 47  1  0
  9 48  1  6
 10 49  1  0
 10 50  1  0
 12 51  1  0
 13 52  1  0
 16 53  1  0
 17 54  1  0
 18 55  1  0
 19 56  1  0
 20 57  1  0
 23 58  1  0
 24 59  1  0
 25 60  1  0
 25 61  1  0
 26 62  1  0
 26 63  1  0
 28 64  1  0
 28 65  1  0
 29 66  1  0
 29 67  1  0
 30 68  1  0
 30 69  1  0
 32 70  1  0
 33 71  1  0
 34 72  1  0
 35 73  1  0
 36 74  1  0
M  END
>  <Ligand ID>  (1) 
LIG0001382

>  <Ligand>  (1) 
CHEMBL305132

>  <SMILES>  (1) 
NCCCCNC(=O)[C@H](Cc1c[nH]c2c1cccc2)NC(=O)NC1CCN(CC1)Cc1ccccc1

>  <CID>  (1) 
44305956.0

>  <ChEMBL ID>  (1) 
nan

>  <InChiKey>  (1) 
OXMXHGSZCHXXHV-SANMLTNESA-N

>  <InChi>  (1) 
InChI=1S/C28H38N6O2/c29-14-6-7-15-30-27(35)26(18-22-19-31-25-11-5-4-10-24(22)25)33-28(36)32-23-12-16-34(17-13-23)20-21-8-2-1-3-9-21/h1-5,8-11,19,23,26,31H,6-7,12-18,20,29H2,(H,30,35)(H2,32,33,36)/t26-/m0/s1

>  <IUPAC Name>  (1) 
(2S)-N-(4-aminobutyl)-2-[(1-benzylpiperidin-4-yl)carbamoylamino]-3-(1H-indol-3-yl)propanamide

$$$$
