
     RDKit          3D

102106  0  0  0  0  0  0  0  0999 V2000
   -5.1349   -3.1154   -6.9921 I   0  0  0  0  0  0  0  0  0  0  0  0
   -3.9699   -2.9450   -5.2504 C   0  0  0  0  0  0  0  0  0  0  0  0
   -2.6559   -2.5425   -5.3545 C   0  0  0  0  0  0  0  0  0  0  0  0
   -1.8812   -2.4347   -4.1965 C   0  0  0  0  0  0  0  0  0  0  0  0
   -2.4315   -2.7311   -2.9521 C   0  0  0  0  0  0  0  0  0  0  0  0
   -3.7632   -3.1349   -2.8812 C   0  0  0  0  0  0  0  0  0  0  0  0
   -4.5498   -3.2469   -4.0282 C   0  0  0  0  0  0  0  0  0  0  0  0
   -1.6926   -2.6675   -1.6875 C   0  0  0  0  0  0  0  0  0  0  0  0
   -1.7079   -1.4026   -0.9456 C   0  0  2  0  0  0  0  0  0  0  0  0
   -0.8986   -1.5051    0.3483 C   0  0  0  0  0  0  0  0  0  0  0  0
   -1.4556   -1.1784    1.4515 O   0  0  0  0  0  0  0  0  0  0  0  0
    0.4348   -1.9501    0.3025 N   0  0  0  0  0  0  0  0  0  0  0  0
    1.3065   -2.0772    1.4502 C   0  0  2  0  0  0  0  0  0  0  0  0
    2.4523   -1.1199    1.3553 C   0  0  0  0  0  0  0  0  0  0  0  0
    3.3735   -1.0704    2.1772 O   0  0  0  0  0  0  0  0  0  0  0  0
    2.4169   -0.2381    0.2223 N   0  0  0  0  0  0  0  0  0  0  0  0
    3.4775    0.7531   -0.0130 C   0  0  2  0  0  0  0  0  0  0  0  0
    2.8895    2.0694    0.3455 C   0  0  0  0  0  0  0  0  0  0  0  0
    3.5462    3.1491    0.3385 O   0  0  0  0  0  0  0  0  0  0  0  0
    1.5083    2.2098    0.7325 N   0  0  0  0  0  0  0  0  0  0  0  0
    3.9213    0.7566   -1.4239 C   0  0  0  0  0  0  0  0  0  0  0  0
    4.9759    1.7609   -1.6441 C   0  0  0  0  0  0  0  0  0  0  0  0
    4.6836    3.0245   -2.1136 C   0  0  0  0  0  0  0  0  0  0  0  0
    5.6416    3.9930   -2.3264 C   0  0  0  0  0  0  0  0  0  0  0  0
    6.9630    3.6492   -2.0447 C   0  0  0  0  0  0  0  0  0  0  0  0
    7.2951    2.3835   -1.5695 C   0  0  0  0  0  0  0  0  0  0  0  0
    6.2894    1.4571   -1.3768 C   0  0  0  0  0  0  0  0  0  0  0  0
    8.6112    2.0421   -1.2888 C   0  0  0  0  0  0  0  0  0  0  0  0
    9.5761    3.0029   -1.4983 C   0  0  0  0  0  0  0  0  0  0  0  0
    9.2516    4.2512   -1.9668 C   0  0  0  0  0  0  0  0  0  0  0  0
    7.9378    4.6076   -2.2527 C   0  0  0  0  0  0  0  0  0  0  0  0
    1.7510   -3.4797    1.6613 C   0  0  0  0  0  0  0  0  0  0  0  0
    2.5105   -4.0947    0.5554 C   0  0  0  0  0  0  0  0  0  0  0  0
    2.8553   -5.5434    0.9857 C   0  0  0  0  0  0  0  0  0  0  0  0
    3.5881   -5.6788    2.0861 N   0  0  0  0  0  0  0  0  0  0  0  0
    4.2990   -5.6617    3.0506 C   0  0  0  0  0  0  0  0  0  0  0  0
    4.3690   -6.8048    3.9429 N   0  0  0  0  0  0  0  0  0  0  0  0
    5.1595   -4.5720    3.4605 N   0  0  0  0  0  0  0  0  0  0  0  0
   -3.0078   -0.8489   -0.6322 N   0  0  0  0  0  0  0  0  0  0  0  0
   -2.9989    0.5404   -0.2499 C   0  0  0  0  0  0  0  0  0  0  0  0
   -1.8455    1.0728   -0.2284 O   0  0  0  0  0  0  0  0  0  0  0  0
   -4.2265    1.2918    0.0966 C   0  0  2  0  0  0  0  0  0  0  0  0
   -4.1963    1.3498    1.6412 C   0  0  0  0  0  0  0  0  0  0  0  0
   -5.3298    2.0800    2.2117 C   0  0  0  0  0  0  0  0  0  0  0  0
   -6.5047    1.5963    2.7657 C   0  0  0  0  0  0  0  0  0  0  0  0
   -7.2633    2.6232    3.1632 N   0  0  0  0  0  0  0  0  0  0  0  0
   -6.6003    3.7506    2.8764 C   0  0  0  0  0  0  0  0  0  0  0  0
   -5.3946    3.4600    2.2838 C   0  0  0  0  0  0  0  0  0  0  0  0
   -4.5306    4.4777    1.9138 C   0  0  0  0  0  0  0  0  0  0  0  0
   -4.8752    5.7981    2.1387 C   0  0  0  0  0  0  0  0  0  0  0  0
   -6.0776    6.0925    2.7297 C   0  0  0  0  0  0  0  0  0  0  0  0
   -6.9459    5.0536    3.1003 C   0  0  0  0  0  0  0  0  0  0  0  0
   -5.4436    0.5701   -0.2868 N   0  0  0  0  0  0  0  0  0  0  0  0
   -6.3663    1.3085   -1.0846 C   0  0  0  0  0  0  0  0  0  0  0  0
   -6.0641    2.5069   -1.3889 O   0  0  0  0  0  0  0  0  0  0  0  0
   -7.6483    0.7424   -1.5684 C   0  0  0  0  0  0  0  0  0  0  0  0
   -2.2255   -2.3123   -6.3177 H   0  0  0  0  0  0  0  0  0  0  0  0
   -0.8508   -2.1229   -4.2434 H   0  0  0  0  0  0  0  0  0  0  0  0
   -4.2477   -3.3771   -1.9434 H   0  0  0  0  0  0  0  0  0  0  0  0
   -5.5885   -3.5596   -3.9901 H   0  0  0  0  0  0  0  0  0  0  0  0
   -1.9659   -3.5327   -1.0284 H   0  0  0  0  0  0  0  0  0  0  0  0
   -0.6109   -2.8916   -1.9456 H   0  0  0  0  0  0  0  0  0  0  0  0
   -1.1243   -0.5940   -1.4809 H   0  0  0  0  0  0  0  0  0  0  0  0
    0.8231   -2.2102   -0.6514 H   0  0  0  0  0  0  0  0  0  0  0  0
    0.6852   -1.7877    2.3203 H   0  0  0  0  0  0  0  0  0  0  0  0
    1.6391   -0.2726   -0.4713 H   0  0  0  0  0  0  0  0  0  0  0  0
    4.3376    0.5565    0.6709 H   0  0  0  0  0  0  0  0  0  0  0  0
    1.0261    3.1278    0.7710 H   0  0  0  0  0  0  0  0  0  0  0  0
    0.9455    1.3760    0.9878 H   0  0  0  0  0  0  0  0  0  0  0  0
    3.0215    1.0326   -2.0544 H   0  0  0  0  0  0  0  0  0  0  0  0
    4.2674   -0.2363   -1.7916 H   0  0  0  0  0  0  0  0  0  0  0  0
    3.6544    3.3288   -2.3563 H   0  0  0  0  0  0  0  0  0  0  0  0
    5.3596    4.9580   -2.6930 H   0  0  0  0  0  0  0  0  0  0  0  0
    6.5254    0.4679   -1.0097 H   0  0  0  0  0  0  0  0  0  0  0  0
    8.8855    1.0501   -0.9163 H   0  0  0  0  0  0  0  0  0  0  0  0
   10.6223    2.7639   -1.2865 H   0  0  0  0  0  0  0  0  0  0  0  0
   10.0457    4.9564   -2.1075 H   0  0  0  0  0  0  0  0  0  0  0  0
    7.7477    5.6002   -2.6198 H   0  0  0  0  0  0  0  0  0  0  0  0
    2.3731   -3.5847    2.5982 H   0  0  0  0  0  0  0  0  0  0  0  0
    0.8264   -4.0957    1.8597 H   0  0  0  0  0  0  0  0  0  0  0  0
    1.9810   -4.1800   -0.3944 H   0  0  0  0  0  0  0  0  0  0  0  0
    3.5036   -3.5969    0.4335 H   0  0  0  0  0  0  0  0  0  0  0  0
    1.8816   -6.1170    1.0638 H   0  0  0  0  0  0  0  0  0  0  0  0
    3.3400   -6.0542    0.0909 H   0  0  0  0  0  0  0  0  0  0  0  0
    5.3042   -7.2697    4.0920 H   0  0  0  0  0  0  0  0  0  0  0  0
    3.4895   -7.1474    4.4205 H   0  0  0  0  0  0  0  0  0  0  0  0
    6.0909   -4.4160    2.9691 H   0  0  0  0  0  0  0  0  0  0  0  0
    4.8729   -3.9277    4.2499 H   0  0  0  0  0  0  0  0  0  0  0  0
   -3.9030   -1.3763   -0.6669 H   0  0  0  0  0  0  0  0  0  0  0  0
   -4.1736    2.3075   -0.2638 H   0  0  0  0  0  0  0  0  0  0  0  0
   -4.3068    0.2803    1.9830 H   0  0  0  0  0  0  0  0  0  0  0  0
   -3.2084    1.6823    1.9809 H   0  0  0  0  0  0  0  0  0  0  0  0
   -6.7888    0.5714    2.8733 H   0  0  0  0  0  0  0  0  0  0  0  0
   -8.2042    2.5552    3.6127 H   0  0  0  0  0  0  0  0  0  0  0  0
   -3.5863    4.2571    1.4484 H   0  0  0  0  0  0  0  0  0  0  0  0
   -4.1947    6.5651    1.8471 H   0  0  0  0  0  0  0  0  0  0  0  0
   -6.4051    7.1036    2.9357 H   0  0  0  0  0  0  0  0  0  0  0  0
   -7.9045    5.2793    3.5705 H   0  0  0  0  0  0  0  0  0  0  0  0
   -5.6312   -0.4109   -0.0045 H   0  0  0  0  0  0  0  0  0  0  0  0
   -7.4437   -0.1032   -2.2669 H   0  0  0  0  0  0  0  0  0  0  0  0
   -8.3526    0.4624   -0.7797 H   0  0  0  0  0  0  0  0  0  0  0  0
   -8.1572    1.5131   -2.1958 H   0  0  0  0  0  0  0  0  0  0  0  0
  1  2  1  0
  2  3  2  0
  3  4  1  0
  4  5  2  0
  5  6  1  0
  6  7  2  0
  5  8  1  0
  8  9  1  0
  9 10  1  0
 10 11  2  0
 10 12  1  0
 12 13  1  0
 13 14  1  0
 14 15  2  0
 14 16  1  0
 16 17  1  0
 17 18  1  0
 18 19  2  0
 18 20  1  0
 17 21  1  0
 21 22  1  0
 22 23  2  0
 23 24  1  0
 24 25  2  0
 25 26  1  0
 26 27  2  0
 26 28  1  0
 28 29  2  0
 29 30  1  0
 30 31  2  0
 13 32  1  0
 32 33  1  0
 33 34  1  0
 34 35  1  0
 35 36  2  3
 36 37  1  0
 36 38  1  0
  9 39  1  0
 39 40  1  0
 40 41  2  0
 40 42  1  0
 42 43  1  0
 43 44  1  0
 44 45  2  0
 45 46  1  0
 46 47  1  0
 47 48  2  0
 48 49  1  0
 49 50  2  0
 50 51  1  0
 51 52  2  0
 42 53  1  0
 53 54  1  0
 54 55  2  0
 54 56  1  0
  7  2  1  0
 27 22  1  0
 48 44  1  0
 31 25  1  0
 52 47  1  0
  3 57  1  0
  4 58  1  0
  6 59  1  0
  7 60  1  0
  8 61  1  0
  8 62  1  0
  9 63  1  6
 12 64  1  0
 13 65  1  1
 16 66  1  0
 17 67  1  1
 20 68  1  0
 20 69  1  0
 21 70  1  0
 21 71  1  0
 23 72  1  0
 24 73  1  0
 27 74  1  0
 28 75  1  0
 29 76  1  0
 30 77  1  0
 31 78  1  0
 32 79  1  0
 32 80  1  0
 33 81  1  0
 33 82  1  0
 34 83  1  0
 34 84  1  0
 37 85  1  0
 37 86  1  0
 38 87  1  0
 38 88  1  0
 39 89  1  0
 42 90  1  6
 43 91  1  0
 43 92  1  0
 45 93  1  0
 46 94  1  0
 49 95  1  0
 50 96  1  0
 51 97  1  0
 52 98  1  0
 53 99  1  0
 56100  1  0
 56101  1  0
 56102  1  0
M  END
>  <Ligand ID>  (1) 
LIG0001448

>  <Ligand>  (1) 
CHEMBL3422432

>  <SMILES>  (1) 
Ic1ccc(cc1)C[C@H](C(=O)N[C@H](C(=O)N[C@H](C(=O)N)Cc1ccc2c(c1)cccc2)CCCN=C(N)N)NC(=O)[C@H](Cc1c[nH]c2c1cccc2)NC(=O)C

>  <CID>  (1) 
118735609.0

>  <ChEMBL ID>  (1) 
nan

>  <InChiKey>  (1) 
CFEVUEANPOINQN-KFIZHRIMSA-N

>  <InChi>  (1) 
InChI=1S/C41H46IN9O5/c1-24(52)48-36(22-29-23-47-32-10-5-4-9-31(29)32)40(56)51-35(20-25-13-16-30(42)17-14-25)39(55)49-33(11-6-18-46-41(44)45)38(54)50-34(37(43)53)21-26-12-15-27-7-2-3-8-28(27)19-26/h2-5,7-10,12-17,19,23,33-36,47H,6,11,18,20-22H2,1H3,(H2,43,53)(H,48,52)(H,49,55)(H,50,54)(H,51,56)(H4,44,45,46)/t33-,34-,35+,36-/m0/s1

>  <IUPAC Name>  (1) 
(2S)-2-[[(2R)-2-[[(2S)-2-acetamido-3-(1H-indol-3-yl)propanoyl]amino]-3-(4-iodophenyl)propanoyl]amino]-N-[(2S)-1-amino-3-naphthalen-2-yl-1-oxopropan-2-yl]-5-(diaminomethylideneamino)pentanamide

$$$$
