
     RDKit          3D

 29 29  0  0  0  0  0  0  0  0999 V2000
    5.0521   -0.2703    0.7691 C   0  0  0  0  0  0  0  0  0  0  0  0
    3.5896   -0.3922    0.4291 C   0  0  0  0  0  0  0  0  0  0  0  0
    2.8194    0.6786    0.4382 C   0  0  0  0  0  0  0  0  0  0  0  0
    1.4126    0.6921    0.1328 C   0  0  0  0  0  0  0  0  0  0  0  0
    0.6803    1.8835    0.1702 C   0  0  0  0  0  0  0  0  0  0  0  0
   -0.6682    1.9209   -0.1183 C   0  0  0  0  0  0  0  0  0  0  0  0
   -1.3551    0.7729   -0.4586 C   0  0  0  0  0  0  0  0  0  0  0  0
   -0.6551   -0.4132   -0.5021 C   0  0  0  0  0  0  0  0  0  0  0  0
    0.7012   -0.4344   -0.2093 C   0  0  0  0  0  0  0  0  0  0  0  0
   -1.3495   -1.5600   -0.8439 O   0  0  0  0  0  0  0  0  0  0  0  0
   -0.7931   -2.8346   -0.9335 C   0  0  0  0  0  0  0  0  0  0  0  0
   -2.7125    0.8702   -0.7391 O   0  0  0  0  0  0  0  0  0  0  0  0
   -3.6801    0.7298    0.2690 C   0  0  0  0  0  0  0  0  0  0  0  0
   -3.3387    0.5097    1.4658 O   0  0  0  0  0  0  0  0  0  0  0  0
   -5.1330    0.8297   -0.0057 C   0  0  0  0  0  0  0  0  0  0  0  0
    5.4831   -1.2279    1.0831 H   0  0  0  0  0  0  0  0  0  0  0  0
    5.1906    0.5659    1.4842 H   0  0  0  0  0  0  0  0  0  0  0  0
    5.5654    0.0374   -0.1653 H   0  0  0  0  0  0  0  0  0  0  0  0
    3.1647   -1.3337    0.1801 H   0  0  0  0  0  0  0  0  0  0  0  0
    3.3066    1.6153    0.7000 H   0  0  0  0  0  0  0  0  0  0  0  0
    1.2022    2.7918    0.4348 H   0  0  0  0  0  0  0  0  0  0  0  0
   -1.1890    2.8850   -0.0723 H   0  0  0  0  0  0  0  0  0  0  0  0
    1.1818   -1.3931   -0.2631 H   0  0  0  0  0  0  0  0  0  0  0  0
   -0.0139   -3.0598   -0.1781 H   0  0  0  0  0  0  0  0  0  0  0  0
   -0.2915   -2.9669   -1.9337 H   0  0  0  0  0  0  0  0  0  0  0  0
   -1.6116   -3.5787   -0.9062 H   0  0  0  0  0  0  0  0  0  0  0  0
   -5.7260    0.0358    0.4802 H   0  0  0  0  0  0  0  0  0  0  0  0
   -5.4695    1.8165    0.3793 H   0  0  0  0  0  0  0  0  0  0  0  0
   -5.3628    0.8297   -1.0868 H   0  0  0  0  0  0  0  0  0  0  0  0
  1  2  1  0
  2  3  2  0
  3  4  1  0
  4  5  2  0
  5  6  1  0
  6  7  2  0
  7  8  1  0
  8  9  2  0
  8 10  1  0
 10 11  1  0
  7 12  1  0
 12 13  1  0
 13 14  2  0
 13 15  1  0
  9  4  1  0
  1 16  1  0
  1 17  1  0
  1 18  1  0
  2 19  1  0
  3 20  1  0
  5 21  1  0
  6 22  1  0
  9 23  1  0
 11 24  1  0
 11 25  1  0
 11 26  1  0
 15 27  1  0
 15 28  1  0
 15 29  1  0
M  END
>  <Ligand ID>  (1) 
LIG0004982

>  <Ligand>  (1) 
2-Methoxy-4-prop-1-enylphenyl acetate

>  <SMILES>  (1) 
C/C=C/c1ccc(c(c1)OC)OC(=O)C

>  <CID>  (1) 
876160.0

>  <ChEMBL ID>  (1) 
nan

>  <InChiKey>  (1) 
IUSBVFZKQJGVEP-SNAWJCMRSA-N

>  <InChi>  (1) 
InChI=1S/C12H14O3/c1-4-5-10-6-7-11(15-9(2)13)12(8-10)14-3/h4-8H,1-3H3/b5-4+

>  <IUPAC Name>  (1) 
[2-methoxy-4-[(E)-prop-1-enyl]phenyl] acetate

$$$$
