
     RDKit          3D

 45 47  0  0  0  0  0  0  0  0999 V2000
    4.4591   -3.0171    2.7412 N   0  0  0  0  0  0  0  0  0  0  0  0
    4.1467   -2.7493    1.6635 C   0  0  0  0  0  0  0  0  0  0  0  0
    3.7734   -2.4088    0.3211 C   0  0  0  0  0  0  0  0  0  0  0  0
    2.6881   -1.5962    0.1232 C   0  0  0  0  0  0  0  0  0  0  0  0
    2.2966   -1.2461   -1.1484 C   0  0  0  0  0  0  0  0  0  0  0  0
    1.1872   -0.4262   -1.4457 N   0  0  0  0  0  0  0  0  0  0  0  0
    0.2713    0.1329   -0.5013 C   0  0  0  0  0  0  0  0  0  0  0  0
   -0.6266   -0.8584    0.1826 C   0  0  0  0  0  0  0  0  0  0  0  0
   -1.5646   -0.2101    1.1711 C   0  0  0  0  0  0  0  0  0  0  0  0
   -2.4803    0.7776    0.5611 C   0  0  0  0  0  0  0  0  0  0  0  0
   -2.6377    1.1920   -0.6528 O   0  0  0  0  0  0  0  0  0  0  0  0
   -3.5851    2.0958   -0.7473 N   0  0  0  0  0  0  0  0  0  0  0  0
   -4.0759    2.2833    0.4759 C   0  0  0  0  0  0  0  0  0  0  0  0
   -3.3915    1.4642    1.2976 N   0  0  0  0  0  0  0  0  0  0  0  0
   -5.1414    3.1854    0.8890 C   0  0  0  0  0  0  0  0  0  0  0  0
   -5.7872    3.9885   -0.0277 C   0  0  0  0  0  0  0  0  0  0  0  0
   -6.7976    4.8421    0.3757 C   0  0  0  0  0  0  0  0  0  0  0  0
   -7.1661    4.8935    1.7081 C   0  0  0  0  0  0  0  0  0  0  0  0
   -6.5333    4.0967    2.6515 C   0  0  0  0  0  0  0  0  0  0  0  0
   -5.5326    3.2614    2.2055 C   0  0  0  0  0  0  0  0  0  0  0  0
   -4.7209    2.2475    3.3785 Cl  0  0  0  0  0  0  0  0  0  0  0  0
   -8.1501    5.7108    2.1661 F   0  0  0  0  0  0  0  0  0  0  0  0
    3.0579   -1.7593   -2.1873 C   0  0  0  0  0  0  0  0  0  0  0  0
    4.1127   -2.5500   -1.9676 N   0  0  0  0  0  0  0  0  0  0  0  0
    4.5253   -2.9147   -0.7309 C   0  0  0  0  0  0  0  0  0  0  0  0
    5.5777   -3.7072   -0.4512 O   0  0  0  0  0  0  0  0  0  0  0  0
    6.5064   -4.3554   -1.2266 C   0  0  0  0  0  0  0  0  0  0  0  0
    7.2788   -3.3413   -2.0418 C   0  0  0  0  0  0  0  0  0  0  0  0
    7.9382   -2.4334   -1.2030 F   0  0  0  0  0  0  0  0  0  0  0  0
    8.3204   -3.9698   -2.7400 F   0  0  0  0  0  0  0  0  0  0  0  0
    6.5119   -2.6984   -2.9823 F   0  0  0  0  0  0  0  0  0  0  0  0
    2.1628   -1.2357    0.9686 H   0  0  0  0  0  0  0  0  0  0  0  0
    1.0028   -0.1932   -2.4689 H   0  0  0  0  0  0  0  0  0  0  0  0
   -0.3626    0.9315   -0.9365 H   0  0  0  0  0  0  0  0  0  0  0  0
    0.8742    0.6791    0.2858 H   0  0  0  0  0  0  0  0  0  0  0  0
   -0.1140   -1.6643    0.7185 H   0  0  0  0  0  0  0  0  0  0  0  0
   -1.2915   -1.3256   -0.6042 H   0  0  0  0  0  0  0  0  0  0  0  0
   -2.1404   -1.0298    1.6684 H   0  0  0  0  0  0  0  0  0  0  0  0
   -1.0048    0.2836    2.0065 H   0  0  0  0  0  0  0  0  0  0  0  0
   -5.5189    3.9672   -1.0717 H   0  0  0  0  0  0  0  0  0  0  0  0
   -7.3181    5.4788   -0.3152 H   0  0  0  0  0  0  0  0  0  0  0  0
   -6.8058    4.1214    3.6976 H   0  0  0  0  0  0  0  0  0  0  0  0
    2.7958   -1.5165   -3.2057 H   0  0  0  0  0  0  0  0  0  0  0  0
    6.0040   -5.0047   -1.9743 H   0  0  0  0  0  0  0  0  0  0  0  0
    7.2560   -4.8881   -0.6267 H   0  0  0  0  0  0  0  0  0  0  0  0
  1  2  3  0
  2  3  1  0
  3  4  2  0
  4  5  1  0
  5  6  1  0
  6  7  1  0
  7  8  1  0
  8  9  1  0
  9 10  1  0
 10 11  1  0
 11 12  1  0
 12 13  2  0
 13 14  1  0
 13 15  1  0
 15 16  2  0
 16 17  1  0
 17 18  2  0
 18 19  1  0
 19 20  2  0
 20 21  1  0
 18 22  1  0
  5 23  2  0
 23 24  1  0
 24 25  2  0
 25 26  1  0
 26 27  1  0
 27 28  1  0
 28 29  1  0
 28 30  1  0
 28 31  1  0
 25  3  1  0
 14 10  2  0
 20 15  1  0
  4 32  1  0
  6 33  1  0
  7 34  1  0
  7 35  1  0
  8 36  1  0
  8 37  1  0
  9 38  1  0
  9 39  1  0
 16 40  1  0
 17 41  1  0
 19 42  1  0
 23 43  1  0
 27 44  1  0
 27 45  1  0
M  END
>  <Ligand ID>  (1) 
LIG0002488

>  <Ligand>  (1) 
CHEMBL524839

>  <SMILES>  (1) 
N#Cc1cc(NCCCc2onc(n2)c2ccc(cc2Cl)F)cnc1OCC(F)(F)F

>  <CID>  (1) 
25034006.0

>  <ChEMBL ID>  (1) 
nan

>  <InChiKey>  (1) 
YVAYPXZJQGIWMD-UHFFFAOYSA-N

>  <InChi>  (1) 
InChI=1S/C19H14ClF4N5O2/c20-15-7-12(21)3-4-14(15)17-28-16(31-29-17)2-1-5-26-13-6-11(8-25)18(27-9-13)30-10-19(22,23)24/h3-4,6-7,9,26H,1-2,5,10H2

>  <IUPAC Name>  (1) 
5-[3-[3-(2-chloro-4-fluorophenyl)-1,2,4-oxadiazol-5-yl]propylamino]-2-(2,2,2-trifluoroethoxy)pyridine-3-carbonitrile

$$$$
