
     RDKit          3D

 32 34  0  0  0  0  0  0  0  0999 V2000
   -4.1499    0.9412    0.0885 C   0  0  0  0  0  0  0  0  0  0  0  0
   -2.7793    0.3886   -0.1301 C   0  0  2  0  0  0  0  0  0  0  0  0
   -2.7674   -1.0667    0.0741 N   0  0  0  0  0  0  0  0  0  0  0  0
   -1.5774   -1.5601   -0.5503 C   0  0  0  0  0  0  0  0  0  0  0  0
   -0.3576   -1.0230    0.1249 C   0  0  2  0  0  0  0  0  0  0  0  0
   -0.4913    0.3158    0.6352 N   0  0  0  0  0  0  0  0  0  0  0  0
   -1.7517    1.0075    0.7906 C   0  0  0  0  0  0  0  0  0  0  0  0
    0.6986    1.0013    1.0107 C   0  0  0  0  0  0  0  0  0  0  0  0
    0.6428    1.9503    1.8374 O   0  0  0  0  0  0  0  0  0  0  0  0
    1.9926    0.5901    0.4238 C   0  0  0  0  0  0  0  0  0  0  0  0
    2.0033   -0.4523   -0.4751 C   0  0  0  0  0  0  0  0  0  0  0  0
    0.7800   -1.1576   -0.8617 C   0  0  0  0  0  0  0  0  0  0  0  0
    3.1984   -0.8756   -1.0546 C   0  0  0  0  0  0  0  0  0  0  0  0
    4.3500   -0.2087   -0.6882 C   0  0  0  0  0  0  0  0  0  0  0  0
    4.3450    0.8368    0.2123 C   0  0  0  0  0  0  0  0  0  0  0  0
    3.1483    1.2641    0.7956 C   0  0  0  0  0  0  0  0  0  0  0  0
   -4.8728    0.2515   -0.4270 H   0  0  0  0  0  0  0  0  0  0  0  0
   -4.3803    0.9830    1.1789 H   0  0  0  0  0  0  0  0  0  0  0  0
   -4.1801    1.9526   -0.3969 H   0  0  0  0  0  0  0  0  0  0  0  0
   -2.4317    0.5859   -1.1612 H   0  0  0  0  0  0  0  0  0  0  0  0
   -2.7224   -1.2313    1.0974 H   0  0  0  0  0  0  0  0  0  0  0  0
   -1.5837   -2.6769   -0.4520 H   0  0  0  0  0  0  0  0  0  0  0  0
   -1.5925   -1.3182   -1.6444 H   0  0  0  0  0  0  0  0  0  0  0  0
   -0.1372   -1.6780    1.0039 H   0  0  0  0  0  0  0  0  0  0  0  0
   -1.6327    2.0733    0.4983 H   0  0  0  0  0  0  0  0  0  0  0  0
   -2.1015    0.9956    1.8401 H   0  0  0  0  0  0  0  0  0  0  0  0
    1.0311   -2.2445   -0.9625 H   0  0  0  0  0  0  0  0  0  0  0  0
    0.4436   -0.8090   -1.8695 H   0  0  0  0  0  0  0  0  0  0  0  0
    3.2172   -1.6858   -1.7552 H   0  0  0  0  0  0  0  0  0  0  0  0
    5.2732   -0.5664   -1.1623 H   0  0  0  0  0  0  0  0  0  0  0  0
    5.2755    1.3417    0.4792 H   0  0  0  0  0  0  0  0  0  0  0  0
    3.1098    2.0747    1.5000 H   0  0  0  0  0  0  0  0  0  0  0  0
  1  2  1  0
  2  3  1  0
  3  4  1  0
  4  5  1  0
  5  6  1  0
  6  7  1  0
  6  8  1  0
  8  9  2  0
  8 10  1  0
 10 11  2  0
 11 12  1  0
 11 13  1  0
 13 14  2  0
 14 15  1  0
 15 16  2  0
  7  2  1  0
 16 10  1  0
 12  5  1  0
  1 17  1  0
  1 18  1  0
  1 19  1  0
  2 20  1  6
  3 21  1  0
  4 22  1  0
  4 23  1  0
  5 24  1  1
  7 25  1  0
  7 26  1  0
 12 27  1  0
 12 28  1  0
 13 29  1  0
 14 30  1  0
 15 31  1  0
 16 32  1  0
M  END
>  <Ligand ID>  (1) 
LIG0002311

>  <Ligand>  (1) 
SCHEMBL3561492

>  <SMILES>  (1) 
C[C@@H]1NC[C@@H]2N(C1)C(=O)c1c(C2)cccc1

>  <CID>  (1) 
11148641.0

>  <ChEMBL ID>  (1) 
nan

>  <InChiKey>  (1) 
AELIJLHYRIRWPT-GXSJLCMTSA-N

>  <InChi>  (1) 
InChI=1S/C13H16N2O/c1-9-8-15-11(7-14-9)6-10-4-2-3-5-12(10)13(15)16/h2-5,9,11,14H,6-8H2,1H3/t9-,11+/m0/s1

>  <IUPAC Name>  (1) 
(3S,11aR)-3-methyl-1,2,3,4,11,11a-hexahydropyrazino[1,2-b]isoquinolin-6-one

$$$$
