
     RDKit          3D

 66 68  0  0  0  0  0  0  0  0999 V2000
   -4.3163   -0.9870   -3.0118 C   0  0  0  0  0  0  0  0  0  0  0  0
   -5.3674   -0.9110   -1.9545 C   0  0  0  0  0  0  0  0  0  0  0  0
   -5.4337    0.3047   -1.1540 C   0  0  0  0  0  0  0  0  0  0  0  0
   -4.3214    0.7528   -0.2821 C   0  0  0  0  0  0  0  0  0  0  0  0
   -4.8278    2.0485    0.4270 C   0  0  0  0  0  0  0  0  0  0  0  0
   -5.3276    1.0935    1.5244 C   0  0  0  0  0  0  0  0  0  0  0  0
   -4.2233    0.1845    1.0831 C   0  0  0  0  0  0  0  0  0  0  0  0
   -2.9839    0.9732   -0.9188 C   0  0  2  0  0  0  0  0  0  0  0  0
   -1.9097    1.3984   -0.0062 C   0  0  0  0  0  0  0  0  0  0  0  0
   -1.6235    2.7071    0.3132 C   0  0  0  0  0  0  0  0  0  0  0  0
   -0.5979    3.0271    1.1892 C   0  0  0  0  0  0  0  0  0  0  0  0
    0.1842    2.0640    1.7820 C   0  0  0  0  0  0  0  0  0  0  0  0
   -0.0916    0.7487    1.4698 C   0  0  0  0  0  0  0  0  0  0  0  0
   -1.0967    0.4385    0.6121 C   0  0  0  0  0  0  0  0  0  0  0  0
    0.7256   -0.2977    2.0861 C   0  0  1  0  0  0  0  0  0  0  0  0
   -0.0131   -1.4119    2.7393 C   0  0  0  0  0  0  0  0  0  0  0  0
    0.1411   -2.6340    1.8724 C   0  0  0  0  0  0  0  0  0  0  0  0
    0.8714   -2.2105    0.6476 C   0  0  0  0  0  0  0  0  0  0  0  0
    0.8592   -2.8408   -0.3958 O   0  0  0  0  0  0  0  0  0  0  0  0
    1.5572   -0.9463    0.9762 C   0  0  2  0  0  0  0  0  0  0  0  0
    2.9712   -1.2159    1.4728 C   0  0  0  0  0  0  0  0  0  0  0  0
    3.7555   -1.8359    0.4020 C   0  0  0  0  0  0  0  0  0  0  0  0
    4.8479   -1.3964   -0.1606 C   0  0  0  0  0  0  0  0  0  0  0  0
    5.5730   -0.1437    0.1511 C   0  0  0  0  0  0  0  0  0  0  0  0
    5.6562    0.7684   -1.0570 C   0  0  0  0  0  0  0  0  0  0  0  0
    6.3738    0.0961   -2.1885 C   0  0  0  0  0  0  0  0  0  0  0  0
    7.7574   -0.2918   -1.9158 C   0  0  0  0  0  0  0  0  0  0  0  0
    8.3909   -0.0926   -0.8555 O   0  0  0  0  0  0  0  0  0  0  0  0
    8.4546   -0.9535   -2.9350 O   0  0  0  0  0  0  0  0  0  0  0  0
   -3.1177    1.9466   -1.9257 O   0  0  0  0  0  0  0  0  0  0  0  0
   -3.4597   -1.6623   -2.7681 H   0  0  0  0  0  0  0  0  0  0  0  0
   -4.0092   -0.0169   -3.4252 H   0  0  0  0  0  0  0  0  0  0  0  0
   -4.7418   -1.5169   -3.9477 H   0  0  0  0  0  0  0  0  0  0  0  0
   -5.4144   -1.8622   -1.3521 H   0  0  0  0  0  0  0  0  0  0  0  0
   -6.3574   -0.9731   -2.5258 H   0  0  0  0  0  0  0  0  0  0  0  0
   -6.4263    0.3270   -0.6021 H   0  0  0  0  0  0  0  0  0  0  0  0
   -5.5922    1.1674   -1.8929 H   0  0  0  0  0  0  0  0  0  0  0  0
   -4.0496    2.6679    0.8556 H   0  0  0  0  0  0  0  0  0  0  0  0
   -5.6221    2.5681   -0.1045 H   0  0  0  0  0  0  0  0  0  0  0  0
   -6.3619    0.7952    1.3230 H   0  0  0  0  0  0  0  0  0  0  0  0
   -5.1896    1.5421    2.5400 H   0  0  0  0  0  0  0  0  0  0  0  0
   -4.3927   -0.8963    1.2064 H   0  0  0  0  0  0  0  0  0  0  0  0
   -3.2949    0.4698    1.5997 H   0  0  0  0  0  0  0  0  0  0  0  0
   -2.6680    0.0457   -1.4491 H   0  0  0  0  0  0  0  0  0  0  0  0
   -2.1626    3.5242   -0.1120 H   0  0  0  0  0  0  0  0  0  0  0  0
   -0.3912    4.0499    1.4255 H   0  0  0  0  0  0  0  0  0  0  0  0
    0.9765    2.3396    2.4606 H   0  0  0  0  0  0  0  0  0  0  0  0
   -1.3078   -0.6004    0.3712 H   0  0  0  0  0  0  0  0  0  0  0  0
    1.4796    0.1922    2.7528 H   0  0  0  0  0  0  0  0  0  0  0  0
   -1.0732   -1.2545    2.9173 H   0  0  0  0  0  0  0  0  0  0  0  0
    0.5186   -1.6356    3.7057 H   0  0  0  0  0  0  0  0  0  0  0  0
    0.6774   -3.4623    2.3893 H   0  0  0  0  0  0  0  0  0  0  0  0
   -0.8505   -3.0589    1.5780 H   0  0  0  0  0  0  0  0  0  0  0  0
    1.6176   -0.3296    0.0690 H   0  0  0  0  0  0  0  0  0  0  0  0
    3.4402   -0.2676    1.7790 H   0  0  0  0  0  0  0  0  0  0  0  0
    2.9371   -1.8482    2.3983 H   0  0  0  0  0  0  0  0  0  0  0  0
    3.3678   -2.8065    0.0210 H   0  0  0  0  0  0  0  0  0  0  0  0
    5.2990   -2.0128   -0.9595 H   0  0  0  0  0  0  0  0  0  0  0  0
    6.5913   -0.4192    0.5294 H   0  0  0  0  0  0  0  0  0  0  0  0
    5.1190    0.4199    0.9937 H   0  0  0  0  0  0  0  0  0  0  0  0
    6.2002    1.6955   -0.7520 H   0  0  0  0  0  0  0  0  0  0  0  0
    4.6426    1.0226   -1.4016 H   0  0  0  0  0  0  0  0  0  0  0  0
    6.3557    0.7587   -3.0969 H   0  0  0  0  0  0  0  0  0  0  0  0
    5.7689   -0.7965   -2.5166 H   0  0  0  0  0  0  0  0  0  0  0  0
    9.4726   -1.0122   -2.8829 H   0  0  0  0  0  0  0  0  0  0  0  0
   -3.9665    2.4636   -1.7747 H   0  0  0  0  0  0  0  0  0  0  0  0
  1  2  1  0
  2  3  1  0
  3  4  1  0
  4  5  1  0
  5  6  1  0
  6  7  1  0
  4  8  1  0
  8  9  1  0
  9 10  2  0
 10 11  1  0
 11 12  2  0
 12 13  1  0
 13 14  2  0
 13 15  1  0
 15 16  1  0
 16 17  1  0
 17 18  1  0
 18 19  2  0
 18 20  1  0
 20 21  1  0
 21 22  1  0
 22 23  2  0
 23 24  1  0
 24 25  1  0
 25 26  1  0
 26 27  1  0
 27 28  2  0
 27 29  1  0
  8 30  1  0
  7  4  1  0
 14  9  1  0
 20 15  1  0
  1 31  1  0
  1 32  1  0
  1 33  1  0
  2 34  1  0
  2 35  1  0
  3 36  1  0
  3 37  1  0
  5 38  1  0
  5 39  1  0
  6 40  1  0
  6 41  1  0
  7 42  1  0
  7 43  1  0
  8 44  1  6
 10 45  1  0
 11 46  1  0
 12 47  1  0
 14 48  1  0
 15 49  1  1
 16 50  1  0
 16 51  1  0
 17 52  1  0
 17 53  1  0
 20 54  1  6
 21 55  1  0
 21 56  1  0
 22 57  1  0
 23 58  1  0
 24 59  1  0
 24 60  1  0
 25 61  1  0
 25 62  1  0
 26 63  1  0
 26 64  1  0
 29 65  1  0
 30 66  1  0
M  END
>  <Ligand ID>  (1) 
LIG0004171

>  <Ligand>  (1) 
CHEMBL3976452

>  <SMILES>  (1) 
CCCC1(CCC1)[C@H](c1cccc(c1)[C@H]1CCC(=O)[C@@H]1C/C=C\CCCC(=O)O)O

>  <CID>  (1) 
58708282.0

>  <ChEMBL ID>  (1) 
nan

>  <InChiKey>  (1) 
RZBTWORZBVBXMU-TUHXMILOSA-N

>  <InChi>  (1) 
InChI=1S/C26H36O4/c1-2-15-26(16-8-17-26)25(30)20-10-7-9-19(18-20)21-13-14-23(27)22(21)11-5-3-4-6-12-24(28)29/h3,5,7,9-10,18,21-22,25,30H,2,4,6,8,11-17H2,1H3,(H,28,29)/b5-3-/t21-,22-,25+/m1/s1

>  <IUPAC Name>  (1) 
(Z)-7-[(1R,2S)-2-[3-[(R)-hydroxy-(1-propylcyclobutyl)methyl]phenyl]-5-oxocyclopentyl]hept-5-enoic acid

$$$$
