
     RDKit          3D

 28 27  0  0  0  0  0  0  0  0999 V2000
    4.2776    1.7237    1.6052 O   0  0  0  0  0  0  0  0  0  0  0  0
    3.7902    0.7744    0.7433 C   0  0  0  0  0  0  0  0  0  0  0  0
    4.5235   -0.1706    0.3808 O   0  0  0  0  0  0  0  0  0  0  0  0
    2.3699    0.9033    0.2559 C   0  0  0  0  0  0  0  0  0  0  0  0
    2.1498   -0.2683   -0.6528 C   0  0  0  0  0  0  0  0  0  0  0  0
    0.8018   -0.3507   -1.2577 C   0  0  0  0  0  0  0  0  0  0  0  0
   -0.3286   -0.4570   -0.2828 C   0  0  0  0  0  0  0  0  0  0  0  0
   -1.6166   -0.5306   -1.0735 C   0  0  0  0  0  0  0  0  0  0  0  0
   -2.8228   -0.6408   -0.1616 C   0  0  0  0  0  0  0  0  0  0  0  0
   -2.9229    0.5308    0.7454 C   0  0  0  0  0  0  0  0  0  0  0  0
   -2.9927    0.4252    2.0013 O   0  0  0  0  0  0  0  0  0  0  0  0
   -2.9375    1.7867    0.1442 O   0  0  0  0  0  0  0  0  0  0  0  0
   -2.8152   -1.8918    0.5517 N   0  0  0  0  0  0  0  0  0  0  0  0
    4.9800    1.4646    2.3146 H   0  0  0  0  0  0  0  0  0  0  0  0
    2.3474    1.8711   -0.2742 H   0  0  0  0  0  0  0  0  0  0  0  0
    1.7388    0.9543    1.1376 H   0  0  0  0  0  0  0  0  0  0  0  0
    2.8755   -0.1523   -1.4949 H   0  0  0  0  0  0  0  0  0  0  0  0
    2.4280   -1.2234   -0.1661 H   0  0  0  0  0  0  0  0  0  0  0  0
    0.6085    0.5049   -1.9297 H   0  0  0  0  0  0  0  0  0  0  0  0
    0.7723   -1.2551   -1.9006 H   0  0  0  0  0  0  0  0  0  0  0  0
   -0.2684   -1.3539    0.3488 H   0  0  0  0  0  0  0  0  0  0  0  0
   -0.4364    0.4004    0.3803 H   0  0  0  0  0  0  0  0  0  0  0  0
   -1.7611    0.3795   -1.7015 H   0  0  0  0  0  0  0  0  0  0  0  0
   -1.6190   -1.3746   -1.7630 H   0  0  0  0  0  0  0  0  0  0  0  0
   -3.7127   -0.6316   -0.8221 H   0  0  0  0  0  0  0  0  0  0  0  0
   -3.3091    2.5858    0.6577 H   0  0  0  0  0  0  0  0  0  0  0  0
   -2.3333   -1.8028    1.4734 H   0  0  0  0  0  0  0  0  0  0  0  0
   -3.7868   -2.2011    0.7405 H   0  0  0  0  0  0  0  0  0  0  0  0
  1  2  1  0
  2  3  2  0
  2  4  1  0
  4  5  1  0
  5  6  1  0
  6  7  1  0
  7  8  1  0
  8  9  1  0
  9 10  1  0
 10 11  2  0
 10 12  1  0
  9 13  1  0
  1 14  1  0
  4 15  1  0
  4 16  1  0
  5 17  1  0
  5 18  1  0
  6 19  1  0
  6 20  1  0
  7 21  1  0
  7 22  1  0
  8 23  1  0
  8 24  1  0
  9 25  1  0
 12 26  1  0
 13 27  1  0
 13 28  1  0
M  END
>  <Ligand ID>  (1) 
LIG0002119

>  <Ligand>  (1) 
2-aminooctanedioic acid

>  <SMILES>  (1) 
OC(=O)CCCCCC(C(=O)O)N

>  <CID>  (1) 
77937.0

>  <ChEMBL ID>  (1) 
nan

>  <InChiKey>  (1) 
YOFPFYYTUIARDI-UHFFFAOYSA-N

>  <InChi>  (1) 
InChI=1S/C8H15NO4/c9-6(8(12)13)4-2-1-3-5-7(10)11/h6H,1-5,9H2,(H,10,11)(H,12,13)

>  <IUPAC Name>  (1) 
2-aminooctanedioic acid

$$$$
