
     RDKit          3D

 71 74  0  0  0  0  0  0  0  0999 V2000
   -7.3518    0.0233   -0.8085 O   0  0  0  0  0  0  0  0  0  0  0  0
   -6.4648   -1.0451   -0.7989 C   0  0  2  0  0  0  0  0  0  0  0  0
   -6.7137   -1.9460    0.4080 C   0  0  0  0  0  0  0  0  0  0  0  0
   -6.5755   -1.3439    1.5611 O   0  0  0  0  0  0  0  0  0  0  0  0
   -6.3555   -0.7398    2.6645 C   0  0  0  0  0  0  0  0  0  0  0  0
   -7.3704   -0.5885    3.6314 C   0  0  0  0  0  0  0  0  0  0  0  0
   -7.1715    0.0478    4.8163 C   0  0  0  0  0  0  0  0  0  0  0  0
   -5.9199    0.5615    5.0702 C   0  0  0  0  0  0  0  0  0  0  0  0
   -4.8817    0.4552    4.1818 C   0  0  0  0  0  0  0  0  0  0  0  0
   -5.1141   -0.1911    2.9979 C   0  0  0  0  0  0  0  0  0  0  0  0
   -5.0472   -0.5274   -0.7632 C   0  0  0  0  0  0  0  0  0  0  0  0
   -4.7749    0.2797   -1.9354 N   0  0  0  0  0  0  0  0  0  0  0  0
   -3.4342    0.7731   -1.8638 C   0  0  0  0  0  0  0  0  0  0  0  0
   -2.4418   -0.3481   -2.0136 C   0  0  0  0  0  0  0  0  0  0  0  0
   -1.0827    0.3034   -1.9343 C   0  0  0  0  0  0  0  0  0  0  0  0
   -0.4357    0.7492   -3.0734 C   0  0  0  0  0  0  0  0  0  0  0  0
    0.8023    1.3439   -2.9753 C   0  0  0  0  0  0  0  0  0  0  0  0
    1.4282    1.5120   -1.7557 C   0  0  0  0  0  0  0  0  0  0  0  0
    0.8014    1.0757   -0.6129 C   0  0  0  0  0  0  0  0  0  0  0  0
   -0.4455    0.4766   -0.7106 C   0  0  0  0  0  0  0  0  0  0  0  0
    2.7037    2.1351   -1.7704 N   0  0  0  0  0  0  0  0  0  0  0  0
    3.8402    1.2912   -1.8785 C   0  0  0  0  0  0  0  0  0  0  0  0
    3.6110    0.0424   -1.9386 O   0  0  0  0  0  0  0  0  0  0  0  0
    5.2356    1.8342   -1.9204 C   0  0  0  0  0  0  0  0  0  0  0  0
    6.2285    0.7440   -2.0234 C   0  0  0  0  0  0  0  0  0  0  0  0
    6.6114    0.1903   -3.1789 N   0  0  0  0  0  0  0  0  0  0  0  0
    7.5261   -0.7663   -2.9157 C   0  0  0  0  0  0  0  0  0  0  0  0
    7.6846   -0.7714   -1.5466 C   0  0  0  0  0  0  0  0  0  0  0  0
    6.8761    0.1711   -0.9812 N   0  0  0  0  0  0  0  0  0  0  0  0
    6.7980    0.4299    0.4185 C   0  0  0  0  0  0  0  0  0  0  0  0
    5.8173   -0.3401    1.1769 C   0  0  0  0  0  0  0  0  0  0  0  0
    4.5276    0.0981    1.3938 C   0  0  0  0  0  0  0  0  0  0  0  0
    3.6029   -0.6313    2.1126 C   0  0  0  0  0  0  0  0  0  0  0  0
    3.9277   -1.8705    2.6673 C   0  0  0  0  0  0  0  0  0  0  0  0
    5.2212   -2.3058    2.4475 C   0  0  0  0  0  0  0  0  0  0  0  0
    6.1467   -1.5796    1.7301 C   0  0  0  0  0  0  0  0  0  0  0  0
    2.8694    3.5869   -1.6808 C   0  0  0  0  0  0  0  0  0  0  0  0
   -7.4003    0.4384    0.1046 H   0  0  0  0  0  0  0  0  0  0  0  0
   -6.6687   -1.6176   -1.7324 H   0  0  0  0  0  0  0  0  0  0  0  0
   -6.0773   -2.8752    0.2817 H   0  0  0  0  0  0  0  0  0  0  0  0
   -7.7862   -2.3368    0.2831 H   0  0  0  0  0  0  0  0  0  0  0  0
   -8.3648   -0.9954    3.4309 H   0  0  0  0  0  0  0  0  0  0  0  0
   -7.9796    0.1512    5.5510 H   0  0  0  0  0  0  0  0  0  0  0  0
   -5.7488    1.0633    5.9948 H   0  0  0  0  0  0  0  0  0  0  0  0
   -3.9074    0.8719    4.4133 H   0  0  0  0  0  0  0  0  0  0  0  0
   -4.2782   -0.2675    2.3141 H   0  0  0  0  0  0  0  0  0  0  0  0
   -4.9611    0.1975    0.1000 H   0  0  0  0  0  0  0  0  0  0  0  0
   -4.3641   -1.3658   -0.6298 H   0  0  0  0  0  0  0  0  0  0  0  0
   -5.4698    1.0307   -2.0416 H   0  0  0  0  0  0  0  0  0  0  0  0
   -3.3195    1.5552   -2.6203 H   0  0  0  0  0  0  0  0  0  0  0  0
   -3.2508    1.2122   -0.8541 H   0  0  0  0  0  0  0  0  0  0  0  0
   -2.4720   -1.0991   -1.2271 H   0  0  0  0  0  0  0  0  0  0  0  0
   -2.4993   -0.7701   -3.0566 H   0  0  0  0  0  0  0  0  0  0  0  0
   -0.9233    0.6193   -4.0365 H   0  0  0  0  0  0  0  0  0  0  0  0
    1.2821    1.6827   -3.8906 H   0  0  0  0  0  0  0  0  0  0  0  0
    1.2958    1.2095    0.3402 H   0  0  0  0  0  0  0  0  0  0  0  0
   -0.9623    0.1248    0.1651 H   0  0  0  0  0  0  0  0  0  0  0  0
    5.4269    2.4692   -1.0058 H   0  0  0  0  0  0  0  0  0  0  0  0
    5.3954    2.5117   -2.7858 H   0  0  0  0  0  0  0  0  0  0  0  0
    8.0463   -1.4125   -3.6109 H   0  0  0  0  0  0  0  0  0  0  0  0
    8.3478   -1.4221   -0.9971 H   0  0  0  0  0  0  0  0  0  0  0  0
    6.5388    1.5164    0.5901 H   0  0  0  0  0  0  0  0  0  0  0  0
    7.8111    0.2127    0.8610 H   0  0  0  0  0  0  0  0  0  0  0  0
    4.2650    1.0566    0.9692 H   0  0  0  0  0  0  0  0  0  0  0  0
    2.6202   -0.2163    2.2330 H   0  0  0  0  0  0  0  0  0  0  0  0
    3.2055   -2.4212    3.2190 H   0  0  0  0  0  0  0  0  0  0  0  0
    5.5315   -3.2571    2.8536 H   0  0  0  0  0  0  0  0  0  0  0  0
    7.1535   -1.9816    1.5929 H   0  0  0  0  0  0  0  0  0  0  0  0
    2.9816    3.9977   -2.6988 H   0  0  0  0  0  0  0  0  0  0  0  0
    3.8303    3.7785   -1.1293 H   0  0  0  0  0  0  0  0  0  0  0  0
    2.0225    4.0690   -1.1785 H   0  0  0  0  0  0  0  0  0  0  0  0
  1  2  1  0
  2  3  1  0
  3  4  1  0
  4  5  1  0
  5  6  2  0
  6  7  1  0
  7  8  2  0
  8  9  1  0
  9 10  2  0
  2 11  1  0
 11 12  1  0
 12 13  1  0
 13 14  1  0
 14 15  1  0
 15 16  2  0
 16 17  1  0
 17 18  2  0
 18 19  1  0
 19 20  2  0
 18 21  1  0
 21 22  1  0
 22 23  2  0
 22 24  1  0
 24 25  1  0
 25 26  2  0
 26 27  1  0
 27 28  2  0
 28 29  1  0
 29 30  1  0
 30 31  1  0
 31 32  2  0
 32 33  1  0
 33 34  2  0
 34 35  1  0
 35 36  2  0
 21 37  1  0
 10  5  1  0
 20 15  1  0
 29 25  1  0
 36 31  1  0
  1 38  1  0
  2 39  1  6
  3 40  1  0
  3 41  1  0
  6 42  1  0
  7 43  1  0
  8 44  1  0
  9 45  1  0
 10 46  1  0
 11 47  1  0
 11 48  1  0
 12 49  1  0
 13 50  1  0
 13 51  1  0
 14 52  1  0
 14 53  1  0
 16 54  1  0
 17 55  1  0
 19 56  1  0
 20 57  1  0
 24 58  1  0
 24 59  1  0
 27 60  1  0
 28 61  1  0
 30 62  1  0
 30 63  1  0
 32 64  1  0
 33 65  1  0
 34 66  1  0
 35 67  1  0
 36 68  1  0
 37 69  1  0
 37 70  1  0
 37 71  1  0
M  END
>  <Ligand ID>  (1) 
LIG0004553

>  <Ligand>  (1) 
CHEMBL467116

>  <SMILES>  (1) 
O[C@H](COc1ccccc1)CNCCc1ccc(cc1)N(C(=O)Cc1nccn1Cc1ccccc1)C

>  <CID>  (1) 
44219630.0

>  <ChEMBL ID>  (1) 
nan

>  <InChiKey>  (1) 
FLMNFZLPIOZTQJ-MHZLTWQESA-N

>  <InChi>  (1) 
InChI=1S/C30H34N4O3/c1-33(30(36)20-29-32-18-19-34(29)22-25-8-4-2-5-9-25)26-14-12-24(13-15-26)16-17-31-21-27(35)23-37-28-10-6-3-7-11-28/h2-15,18-19,27,31,35H,16-17,20-23H2,1H3/t27-/m0/s1

>  <IUPAC Name>  (1) 
2-(1-benzylimidazol-2-yl)-N-[4-[2-[[(2S)-2-hydroxy-3-phenoxypropyl]amino]ethyl]phenyl]-N-methylacetamide

$$$$
