
     RDKit          3D

 57 61  0  0  0  0  0  0  0  0999 V2000
    2.8707    3.0057   -1.1190 O   0  0  0  0  0  0  0  0  0  0  0  0
    3.6127    2.0793   -0.7008 C   0  0  0  0  0  0  0  0  0  0  0  0
    4.9644    2.1948   -0.7119 N   0  0  0  0  0  0  0  0  0  0  0  0
    5.4824    1.0668   -0.2136 C   0  0  0  0  0  0  0  0  0  0  0  0
    4.4257    0.2606    0.1020 C   0  0  0  0  0  0  0  0  0  0  0  0
    3.2499    0.8868   -0.1999 N   0  0  0  0  0  0  0  0  0  0  0  0
    1.9082    0.3833   -0.0221 C   0  0  1  0  0  0  0  0  0  0  0  0
    0.9008    1.3762    0.4135 C   0  0  0  0  0  0  0  0  0  0  0  0
   -0.4212    1.1442   -0.3348 C   0  0  0  0  0  0  0  0  0  0  0  0
   -0.7185   -0.2335   -0.1613 N   0  0  0  0  0  0  0  0  0  0  0  0
    0.1680   -1.0121   -1.0089 C   0  0  1  0  0  0  0  0  0  0  0  0
    1.4630   -0.3375   -1.2901 C   0  0  0  0  0  0  0  0  0  0  0  0
    0.2659   -2.3623   -0.3647 C   0  0  0  0  0  0  0  0  0  0  0  0
   -0.8494   -2.6159    0.6245 C   0  0  0  0  0  0  0  0  0  0  0  0
   -2.1802   -2.0426    0.1928 C   0  0  0  0  0  0  0  0  0  0  0  0
   -2.0303   -0.6743   -0.4617 C   0  0  1  0  0  0  0  0  0  0  0  0
   -3.1540    0.2429   -0.1640 C   0  0  0  0  0  0  0  0  0  0  0  0
   -4.4269   -0.5001   -0.5906 C   0  0  0  0  0  0  0  0  0  0  0  0
   -5.6031    0.2155   -0.0156 C   0  0  0  0  0  0  0  0  0  0  0  0
   -5.2749    1.6788    0.1855 C   0  0  0  0  0  0  0  0  0  0  0  0
   -4.2305    1.8653    1.2728 C   0  0  0  0  0  0  0  0  0  0  0  0
   -3.3398    0.6156    1.2635 C   0  0  0  0  0  0  0  0  0  0  0  0
    4.5983   -0.9960    0.6456 C   0  0  0  0  0  0  0  0  0  0  0  0
    5.8889   -1.4524    0.8779 C   0  0  0  0  0  0  0  0  0  0  0  0
    6.9828   -0.6624    0.5703 C   0  0  0  0  0  0  0  0  0  0  0  0
    6.7696    0.5872    0.0286 C   0  0  0  0  0  0  0  0  0  0  0  0
    5.5377    3.0119   -1.0458 H   0  0  0  0  0  0  0  0  0  0  0  0
    1.9907   -0.4471    0.7344 H   0  0  0  0  0  0  0  0  0  0  0  0
    1.1874    2.4273    0.3961 H   0  0  0  0  0  0  0  0  0  0  0  0
    0.6200    1.1766    1.4899 H   0  0  0  0  0  0  0  0  0  0  0  0
   -0.3252    1.4432   -1.3883 H   0  0  0  0  0  0  0  0  0  0  0  0
   -1.1835    1.8298    0.0999 H   0  0  0  0  0  0  0  0  0  0  0  0
   -0.3508   -1.1608   -1.9995 H   0  0  0  0  0  0  0  0  0  0  0  0
    1.3177    0.4333   -2.0691 H   0  0  0  0  0  0  0  0  0  0  0  0
    2.2081   -1.0479   -1.6464 H   0  0  0  0  0  0  0  0  0  0  0  0
    1.2035   -2.3541    0.2400 H   0  0  0  0  0  0  0  0  0  0  0  0
    0.3357   -3.1342   -1.1306 H   0  0  0  0  0  0  0  0  0  0  0  0
   -0.9771   -3.7240    0.6646 H   0  0  0  0  0  0  0  0  0  0  0  0
   -0.5843   -2.2930    1.6489 H   0  0  0  0  0  0  0  0  0  0  0  0
   -2.7567   -1.8579    1.1393 H   0  0  0  0  0  0  0  0  0  0  0  0
   -2.7760   -2.7279   -0.4109 H   0  0  0  0  0  0  0  0  0  0  0  0
   -2.0907   -0.8928   -1.5631 H   0  0  0  0  0  0  0  0  0  0  0  0
   -3.0608    1.1309   -0.7969 H   0  0  0  0  0  0  0  0  0  0  0  0
   -4.4621   -0.6892   -1.6682 H   0  0  0  0  0  0  0  0  0  0  0  0
   -4.3570   -1.4846   -0.0697 H   0  0  0  0  0  0  0  0  0  0  0  0
   -5.9573   -0.2382    0.9280 H   0  0  0  0  0  0  0  0  0  0  0  0
   -6.4464    0.1642   -0.7317 H   0  0  0  0  0  0  0  0  0  0  0  0
   -6.2286    2.1862    0.4053 H   0  0  0  0  0  0  0  0  0  0  0  0
   -4.9050    2.0503   -0.8105 H   0  0  0  0  0  0  0  0  0  0  0  0
   -4.6758    2.0623    2.2560 H   0  0  0  0  0  0  0  0  0  0  0  0
   -3.6379    2.7672    0.9477 H   0  0  0  0  0  0  0  0  0  0  0  0
   -2.4328    0.7541    1.8554 H   0  0  0  0  0  0  0  0  0  0  0  0
   -3.9547   -0.1702    1.7639 H   0  0  0  0  0  0  0  0  0  0  0  0
    3.7946   -1.6485    0.9025 H   0  0  0  0  0  0  0  0  0  0  0  0
    6.0405   -2.4448    1.3077 H   0  0  0  0  0  0  0  0  0  0  0  0
    7.9910   -1.0526    0.7663 H   0  0  0  0  0  0  0  0  0  0  0  0
    7.6133    1.2165   -0.2172 H   0  0  0  0  0  0  0  0  0  0  0  0
  1  2  2  0
  2  3  1  0
  3  4  1  0
  4  5  2  0
  5  6  1  0
  6  7  1  0
  7  8  1  0
  8  9  1  0
  9 10  1  0
 10 11  1  0
 11 12  1  0
 11 13  1  0
 13 14  1  0
 14 15  1  0
 15 16  1  0
 16 17  1  0
 17 18  1  0
 18 19  1  0
 19 20  1  0
 20 21  1  0
 21 22  1  0
  5 23  1  0
 23 24  2  0
 24 25  1  0
 25 26  2  0
  6  2  1  0
 12  7  1  0
 22 17  1  0
 26  4  1  0
 16 10  1  0
  3 27  1  0
  7 28  1  1
  8 29  1  0
  8 30  1  0
  9 31  1  0
  9 32  1  0
 11 33  1  6
 12 34  1  0
 12 35  1  0
 13 36  1  0
 13 37  1  0
 14 38  1  0
 14 39  1  0
 15 40  1  0
 15 41  1  0
 16 42  1  6
 17 43  1  0
 18 44  1  0
 18 45  1  0
 19 46  1  0
 19 47  1  0
 20 48  1  0
 20 49  1  0
 21 50  1  0
 21 51  1  0
 22 52  1  0
 22 53  1  0
 23 54  1  0
 24 55  1  0
 25 56  1  0
 26 57  1  0
M  END
>  <Ligand ID>  (1) 
LIG0003047

>  <Ligand>  (1) 
SR-14139

>  <SMILES>  (1) 
O=c1[nH]c2c(n1[C@H]1CCN3[C@@H](C1)CCC[C@H]3C1CCCCC1)cccc2

>  <CID>  (1) 
44297727.0

>  <ChEMBL ID>  (1) 
nan

>  <InChiKey>  (1) 
YREGMDIGXZOSIF-HBFSDRIKSA-N

>  <InChi>  (1) 
InChI=1S/C22H31N3O/c26-22-23-19-10-4-5-11-21(19)25(22)18-13-14-24-17(15-18)9-6-12-20(24)16-7-2-1-3-8-16/h4-5,10-11,16-18,20H,1-3,6-9,12-15H2,(H,23,26)/t17-,18+,20+/m1/s1

>  <IUPAC Name>  (1) 
3-[(2S,6S,9aR)-6-cyclohexyl-2,3,4,6,7,8,9,9a-octahydro-1H-quinolizin-2-yl]-1H-benzimidazol-2-one

$$$$
