
     RDKit          3D

 77 79  0  0  0  0  0  0  0  0999 V2000
  -10.2606   -1.5280    2.3155 C   0  0  0  0  0  0  0  0  0  0  0  0
   -9.9769   -0.7091    1.0694 C   0  0  0  0  0  0  0  0  0  0  0  0
   -8.5011   -0.4745    1.0236 C   0  0  0  0  0  0  0  0  0  0  0  0
   -8.0324    0.3240   -0.1556 C   0  0  1  0  0  0  0  0  0  0  0  0
   -8.6293    1.6789   -0.2145 C   0  0  0  0  0  0  0  0  0  0  0  0
   -9.8650    1.8916   -0.3615 O   0  0  0  0  0  0  0  0  0  0  0  0
   -7.8428    2.8465   -0.1083 O   0  0  0  0  0  0  0  0  0  0  0  0
   -6.5871    0.5045    0.0065 N   0  0  0  0  0  0  0  0  0  0  0  0
   -5.6602    0.0447   -0.9816 C   0  0  0  0  0  0  0  0  0  0  0  0
   -6.1416   -0.5206   -1.9974 O   0  0  0  0  0  0  0  0  0  0  0  0
   -4.2373    0.2267   -0.8108 C   0  0  0  0  0  0  0  0  0  0  0  0
   -3.6512    0.8047    0.2949 C   0  0  0  0  0  0  0  0  0  0  0  0
   -2.2811    0.9658    0.4238 C   0  0  0  0  0  0  0  0  0  0  0  0
   -1.4902    0.5197   -0.6140 C   0  0  0  0  0  0  0  0  0  0  0  0
   -2.0238   -0.0654   -1.7420 C   0  0  0  0  0  0  0  0  0  0  0  0
   -3.3901   -0.1990   -1.8148 C   0  0  0  0  0  0  0  0  0  0  0  0
   -0.0823    0.6617   -0.5199 N   0  0  0  0  0  0  0  0  0  0  0  0
    0.5600    1.1531    0.7007 C   0  0  0  0  0  0  0  0  0  0  0  0
    1.9185    0.4892    0.7645 C   0  0  0  0  0  0  0  0  0  0  0  0
    2.8366    1.0081   -0.3254 C   0  0  0  0  0  0  0  0  0  0  0  0
    1.9679    1.3293   -1.4990 C   0  0  0  0  0  0  0  0  0  0  0  0
    0.8042    0.3361   -1.6204 C   0  0  0  0  0  0  0  0  0  0  0  0
    3.8039   -0.0308   -0.5785 N   0  0  0  0  0  0  0  0  0  0  0  0
    4.7709    0.2966   -1.5718 C   0  0  0  0  0  0  0  0  0  0  0  0
    5.6823   -0.8737   -1.7925 C   0  0  1  0  0  0  0  0  0  0  0  0
    6.3448   -1.2378   -0.5163 C   0  0  0  0  0  0  0  0  0  0  0  0
    5.7856   -2.0600    0.4325 C   0  0  0  0  0  0  0  0  0  0  0  0
    6.4578   -2.3436    1.5843 C   0  0  0  0  0  0  0  0  0  0  0  0
    7.7058   -1.8042    1.8011 C   0  0  0  0  0  0  0  0  0  0  0  0
    8.3231   -0.9609    0.8687 C   0  0  0  0  0  0  0  0  0  0  0  0
    7.6090   -0.6981   -0.2852 C   0  0  0  0  0  0  0  0  0  0  0  0
    9.6202   -0.4103    1.1143 N   0  0  0  0  0  0  0  0  0  0  0  0
   10.3225    0.7368    0.0104 S   0  0  0  0  0  0  0  0  0  0  0  0
   11.6933    1.0848    0.5078 O   0  0  0  0  0  0  0  0  0  0  0  0
   10.3526    0.1223   -1.3477 O   0  0  0  0  0  0  0  0  0  0  0  0
    9.2677    2.1617   -0.0323 C   0  0  0  0  0  0  0  0  0  0  0  0
    8.3781   -2.1026    2.9787 O   0  0  0  0  0  0  0  0  0  0  0  0
    5.0120   -2.0296   -2.2324 O   0  0  0  0  0  0  0  0  0  0  0  0
  -10.4872   -1.4572   -0.1370 C   0  0  0  0  0  0  0  0  0  0  0  0
   -9.3763   -2.0929    2.6643 H   0  0  0  0  0  0  0  0  0  0  0  0
  -10.5383   -0.8412    3.1344 H   0  0  0  0  0  0  0  0  0  0  0  0
  -11.0630   -2.2721    2.0813 H   0  0  0  0  0  0  0  0  0  0  0  0
  -10.4911    0.2622    1.1530 H   0  0  0  0  0  0  0  0  0  0  0  0
   -7.9211   -1.4362    1.0384 H   0  0  0  0  0  0  0  0  0  0  0  0
   -8.2070    0.0303    1.9730 H   0  0  0  0  0  0  0  0  0  0  0  0
   -8.1419   -0.2190   -1.1146 H   0  0  0  0  0  0  0  0  0  0  0  0
   -8.1669    3.7151   -0.5439 H   0  0  0  0  0  0  0  0  0  0  0  0
   -6.2899    0.9828    0.8781 H   0  0  0  0  0  0  0  0  0  0  0  0
   -4.2776    1.1509    1.1009 H   0  0  0  0  0  0  0  0  0  0  0  0
   -1.9105    1.4273    1.3195 H   0  0  0  0  0  0  0  0  0  0  0  0
   -1.4458   -0.4279   -2.5731 H   0  0  0  0  0  0  0  0  0  0  0  0
   -3.8344   -0.6632   -2.7038 H   0  0  0  0  0  0  0  0  0  0  0  0
    0.6820    2.2357    0.7241 H   0  0  0  0  0  0  0  0  0  0  0  0
   -0.0162    0.7222    1.5361 H   0  0  0  0  0  0  0  0  0  0  0  0
    2.4148    0.5777    1.7296 H   0  0  0  0  0  0  0  0  0  0  0  0
    1.7870   -0.6143    0.5661 H   0  0  0  0  0  0  0  0  0  0  0  0
    3.3724    1.8849    0.0831 H   0  0  0  0  0  0  0  0  0  0  0  0
    1.4704    2.3103   -1.2862 H   0  0  0  0  0  0  0  0  0  0  0  0
    2.4439    1.3832   -2.4691 H   0  0  0  0  0  0  0  0  0  0  0  0
    0.3190    0.5864   -2.5840 H   0  0  0  0  0  0  0  0  0  0  0  0
    1.2180   -0.6717   -1.5942 H   0  0  0  0  0  0  0  0  0  0  0  0
    4.2850   -0.1597    0.3686 H   0  0  0  0  0  0  0  0  0  0  0  0
    5.4242    1.1020   -1.1222 H   0  0  0  0  0  0  0  0  0  0  0  0
    4.3767    0.7396   -2.4852 H   0  0  0  0  0  0  0  0  0  0  0  0
    6.4391   -0.6658   -2.5922 H   0  0  0  0  0  0  0  0  0  0  0  0
    4.8019   -2.4861    0.2570 H   0  0  0  0  0  0  0  0  0  0  0  0
    5.9680   -3.0018    2.3030 H   0  0  0  0  0  0  0  0  0  0  0  0
    8.0492   -0.0513   -1.0324 H   0  0  0  0  0  0  0  0  0  0  0  0
   10.1159   -0.7173    1.9627 H   0  0  0  0  0  0  0  0  0  0  0  0
    8.2685    1.8933    0.3386 H   0  0  0  0  0  0  0  0  0  0  0  0
    9.7235    2.9856    0.5837 H   0  0  0  0  0  0  0  0  0  0  0  0
    9.1661    2.5067   -1.0764 H   0  0  0  0  0  0  0  0  0  0  0  0
    8.9962   -2.9222    3.0015 H   0  0  0  0  0  0  0  0  0  0  0  0
    4.0172   -1.8925   -2.2755 H   0  0  0  0  0  0  0  0  0  0  0  0
  -11.1826   -2.2621    0.1856 H   0  0  0  0  0  0  0  0  0  0  0  0
   -9.6470   -2.0066   -0.6529 H   0  0  0  0  0  0  0  0  0  0  0  0
  -10.9058   -0.7735   -0.8822 H   0  0  0  0  0  0  0  0  0  0  0  0
  1  2  1  0
  2  3  1  0
  3  4  1  0
  4  5  1  0
  5  6  2  0
  5  7  1  0
  4  8  1  0
  8  9  1  0
  9 10  2  0
  9 11  1  0
 11 12  2  0
 12 13  1  0
 13 14  2  0
 14 15  1  0
 15 16  2  0
 14 17  1  0
 17 18  1  0
 18 19  1  0
 19 20  1  0
 20 21  1  0
 21 22  1  0
 20 23  1  0
 23 24  1  0
 24 25  1  0
 25 26  1  0
 26 27  2  0
 27 28  1  0
 28 29  2  0
 29 30  1  0
 30 31  2  0
 30 32  1  0
 32 33  1  0
 33 34  2  0
 33 35  2  0
 33 36  1  0
 29 37  1  0
 25 38  1  0
  2 39  1  0
 16 11  1  0
 22 17  1  0
 31 26  1  0
  1 40  1  0
  1 41  1  0
  1 42  1  0
  2 43  1  0
  3 44  1  0
  3 45  1  0
  4 46  1  6
  7 47  1  0
  8 48  1  0
 12 49  1  0
 13 50  1  0
 15 51  1  0
 16 52  1  0
 18 53  1  0
 18 54  1  0
 19 55  1  0
 19 56  1  0
 20 57  1  0
 21 58  1  0
 21 59  1  0
 22 60  1  0
 22 61  1  0
 23 62  1  0
 24 63  1  0
 24 64  1  0
 25 65  1  6
 27 66  1  0
 28 67  1  0
 31 68  1  0
 32 69  1  0
 36 70  1  0
 36 71  1  0
 36 72  1  0
 37 73  1  0
 38 74  1  0
 39 75  1  0
 39 76  1  0
 39 77  1  0
M  END
>  <Ligand ID>  (1) 
LIG0003447

>  <Ligand>  (1) 
CHEMBL285881

>  <SMILES>  (1) 
CC(C[C@@H](C(=O)O)NC(=O)c1ccc(cc1)N1CCC(CC1)NC[C@@H](c1ccc(c(c1)NS(=O)(=O)C)O)O)C

>  <CID>  (1) 
10008017.0

>  <ChEMBL ID>  (1) 
nan

>  <InChiKey>  (1) 
UCLMKQWLGHPTKX-ZCYQVOJMSA-N

>  <InChi>  (1) 
InChI=1S/C27H38N4O7S/c1-17(2)14-23(27(35)36)29-26(34)18-4-7-21(8-5-18)31-12-10-20(11-13-31)28-16-25(33)19-6-9-24(32)22(15-19)30-39(3,37)38/h4-9,15,17,20,23,25,28,30,32-33H,10-14,16H2,1-3H3,(H,29,34)(H,35,36)/t23-,25-/m0/s1

>  <IUPAC Name>  (1) 
(2S)-2-[[4-[4-[[(2R)-2-hydroxy-2-[4-hydroxy-3-(methanesulfonamido)phenyl]ethyl]amino]piperidin-1-yl]benzoyl]amino]-4-methylpentanoic acid

$$$$
