
     RDKit          3D

 58 61  0  0  0  0  0  0  0  0999 V2000
    9.1545   -0.6235   -0.1278 C   0  0  0  0  0  0  0  0  0  0  0  0
    8.1278    0.3184   -0.3170 O   0  0  0  0  0  0  0  0  0  0  0  0
    6.8205    0.0670    0.0146 C   0  0  0  0  0  0  0  0  0  0  0  0
    5.8976    1.0651   -0.2171 C   0  0  0  0  0  0  0  0  0  0  0  0
    4.5591    0.9187    0.0794 C   0  0  0  0  0  0  0  0  0  0  0  0
    4.0708   -0.2635    0.6357 C   0  0  0  0  0  0  0  0  0  0  0  0
    5.0040   -1.2527    0.8618 C   0  0  0  0  0  0  0  0  0  0  0  0
    6.3495   -1.1031    0.5625 C   0  0  0  0  0  0  0  0  0  0  0  0
    2.6482   -0.4277    0.9607 C   0  0  0  0  0  0  0  0  0  0  0  0
    2.0307   -1.4492    1.4811 O   0  0  0  0  0  0  0  0  0  0  0  0
    0.7811   -1.1802    1.6031 N   0  0  0  0  0  0  0  0  0  0  0  0
    0.4927    0.0417    1.1687 C   0  0  0  0  0  0  0  0  0  0  0  0
    1.7261    0.5607    0.7355 C   0  0  0  0  0  0  0  0  0  0  0  0
   -0.7123    0.8193    1.0878 C   0  0  0  0  0  0  0  0  0  0  0  0
   -0.6745    1.9741    1.6537 O   0  0  0  0  0  0  0  0  0  0  0  0
   -1.9279    0.4871    0.4688 N   0  0  0  0  0  0  0  0  0  0  0  0
   -2.9801    1.5271    0.5370 C   0  0  0  0  0  0  0  0  0  0  0  0
   -4.1963    1.0931    1.2677 C   0  0  0  0  0  0  0  0  0  0  0  0
   -5.2487    2.1699    1.0360 C   0  0  0  0  0  0  0  0  0  0  0  0
   -4.6513    3.4579    0.5077 C   0  0  0  0  0  0  0  0  0  0  0  0
   -3.9754    3.2953   -0.8289 C   0  0  0  0  0  0  0  0  0  0  0  0
   -3.3070    1.9375   -0.8764 C   0  0  0  0  0  0  0  0  0  0  0  0
   -2.2816   -0.7252   -0.1918 C   0  0  0  0  0  0  0  0  0  0  0  0
   -2.3840   -1.8286    0.8680 C   0  0  0  0  0  0  0  0  0  0  0  0
   -1.8236   -3.1234    0.3692 C   0  0  0  0  0  0  0  0  0  0  0  0
   -2.3263   -3.4481   -1.0259 C   0  0  0  0  0  0  0  0  0  0  0  0
   -2.1025   -2.3143   -2.0041 C   0  0  0  0  0  0  0  0  0  0  0  0
   -1.3543   -1.2015   -1.2546 C   0  0  0  0  0  0  0  0  0  0  0  0
    9.3082   -1.2539   -1.0393 H   0  0  0  0  0  0  0  0  0  0  0  0
   10.1297   -0.0937    0.0474 H   0  0  0  0  0  0  0  0  0  0  0  0
    8.9463   -1.2893    0.7254 H   0  0  0  0  0  0  0  0  0  0  0  0
    6.2306    2.0157   -0.6540 H   0  0  0  0  0  0  0  0  0  0  0  0
    3.8917    1.7432   -0.1294 H   0  0  0  0  0  0  0  0  0  0  0  0
    4.6558   -2.1979    1.2992 H   0  0  0  0  0  0  0  0  0  0  0  0
    7.0330   -1.9137    0.7613 H   0  0  0  0  0  0  0  0  0  0  0  0
    1.9091    1.5438    0.3102 H   0  0  0  0  0  0  0  0  0  0  0  0
   -2.5132    2.3640    1.0971 H   0  0  0  0  0  0  0  0  0  0  0  0
   -4.0383    1.0525    2.3660 H   0  0  0  0  0  0  0  0  0  0  0  0
   -4.5592    0.1417    0.8353 H   0  0  0  0  0  0  0  0  0  0  0  0
   -5.7858    2.4531    1.9642 H   0  0  0  0  0  0  0  0  0  0  0  0
   -6.0394    1.8333    0.3123 H   0  0  0  0  0  0  0  0  0  0  0  0
   -4.0108    3.9536    1.2575 H   0  0  0  0  0  0  0  0  0  0  0  0
   -5.5112    4.1395    0.3522 H   0  0  0  0  0  0  0  0  0  0  0  0
   -4.7149    3.4487   -1.6407 H   0  0  0  0  0  0  0  0  0  0  0  0
   -3.2282    4.1257   -0.9095 H   0  0  0  0  0  0  0  0  0  0  0  0
   -2.3325    2.0363   -1.3961 H   0  0  0  0  0  0  0  0  0  0  0  0
   -3.9990    1.2112   -1.3080 H   0  0  0  0  0  0  0  0  0  0  0  0
   -3.3130   -0.6903   -0.6346 H   0  0  0  0  0  0  0  0  0  0  0  0
   -3.4756   -1.9753    1.1114 H   0  0  0  0  0  0  0  0  0  0  0  0
   -1.9218   -1.5293    1.8172 H   0  0  0  0  0  0  0  0  0  0  0  0
   -2.2443   -3.9362    1.0252 H   0  0  0  0  0  0  0  0  0  0  0  0
   -0.7441   -3.1892    0.4521 H   0  0  0  0  0  0  0  0  0  0  0  0
   -3.3868   -3.7328   -0.9494 H   0  0  0  0  0  0  0  0  0  0  0  0
   -1.7816   -4.3695   -1.3361 H   0  0  0  0  0  0  0  0  0  0  0  0
   -3.0865   -1.9258   -2.3094 H   0  0  0  0  0  0  0  0  0  0  0  0
   -1.5094   -2.6937   -2.8602 H   0  0  0  0  0  0  0  0  0  0  0  0
   -1.1985   -0.3850   -1.9847 H   0  0  0  0  0  0  0  0  0  0  0  0
   -0.4269   -1.6785   -0.8982 H   0  0  0  0  0  0  0  0  0  0  0  0
  1  2  1  0
  2  3  1  0
  3  4  2  0
  4  5  1  0
  5  6  2  0
  6  7  1  0
  7  8  2  0
  6  9  1  0
  9 10  1  0
 10 11  1  0
 11 12  2  0
 12 13  1  0
 12 14  1  0
 14 15  2  0
 14 16  1  0
 16 17  1  0
 17 18  1  0
 18 19  1  0
 19 20  1  0
 20 21  1  0
 21 22  1  0
 16 23  1  0
 23 24  1  0
 24 25  1  0
 25 26  1  0
 26 27  1  0
 27 28  1  0
  8  3  1  0
 13  9  2  0
 22 17  1  0
 28 23  1  0
  1 29  1  0
  1 30  1  0
  1 31  1  0
  4 32  1  0
  5 33  1  0
  7 34  1  0
  8 35  1  0
 13 36  1  0
 17 37  1  0
 18 38  1  0
 18 39  1  0
 19 40  1  0
 19 41  1  0
 20 42  1  0
 20 43  1  0
 21 44  1  0
 21 45  1  0
 22 46  1  0
 22 47  1  0
 23 48  1  0
 24 49  1  0
 24 50  1  0
 25 51  1  0
 25 52  1  0
 26 53  1  0
 26 54  1  0
 27 55  1  0
 27 56  1  0
 28 57  1  0
 28 58  1  0
M  END
>  <Ligand ID>  (1) 
LIG0002013

>  <Ligand>  (1) 
MLS003675928

>  <SMILES>  (1) 
COc1ccc(cc1)c1onc(c1)C(=O)N(C1CCCCC1)C1CCCCC1

>  <CID>  (1) 
25110484.0

>  <ChEMBL ID>  (1) 
nan

>  <InChiKey>  (1) 
RFMKOOPRTSYQNO-UHFFFAOYSA-N

>  <InChi>  (1) 
InChI=1S/C23H30N2O3/c1-27-20-14-12-17(13-15-20)22-16-21(24-28-22)23(26)25(18-8-4-2-5-9-18)19-10-6-3-7-11-19/h12-16,18-19H,2-11H2,1H3

>  <IUPAC Name>  (1) 
N,N-dicyclohexyl-5-(4-methoxyphenyl)-1,2-oxazole-3-carboxamide

$$$$
