
     RDKit          3D

 45 46  0  0  0  0  0  0  0  0999 V2000
   -3.4361   -0.4912    1.5685 C   0  0  0  0  0  0  0  0  0  0  0  0
   -2.6070   -0.2040    0.3170 C   0  0  0  0  0  0  0  0  0  0  0  0
   -2.1752    1.2304    0.4370 C   0  0  0  0  0  0  0  0  0  0  0  0
   -1.1247    1.6163   -0.5535 C   0  0  0  0  0  0  0  0  0  0  0  0
   -1.5480    1.5017   -1.9883 C   0  0  0  0  0  0  0  0  0  0  0  0
   -0.7623    3.0648   -0.3170 C   0  0  0  0  0  0  0  0  0  0  0  0
    0.0599    0.7238   -0.2850 C   0  0  0  0  0  0  0  0  0  0  0  0
   -0.1544   -0.5838    0.0262 C   0  0  0  0  0  0  0  0  0  0  0  0
   -1.5026   -1.1736    0.1139 C   0  0  0  0  0  0  0  0  0  0  0  0
   -1.4711   -2.2057    1.2347 C   0  0  0  0  0  0  0  0  0  0  0  0
   -1.7695   -1.9880   -1.1602 C   0  0  0  0  0  0  0  0  0  0  0  0
    0.9490   -1.3725    0.2656 C   0  0  0  0  0  0  0  0  0  0  0  0
    2.2548   -0.8576    0.1944 C   0  0  0  0  0  0  0  0  0  0  0  0
    2.4800    0.4605   -0.1183 C   0  0  0  0  0  0  0  0  0  0  0  0
    1.3293    1.2269   -0.3546 C   0  0  0  0  0  0  0  0  0  0  0  0
    3.7519    1.1121   -0.2082 C   0  0  0  0  0  0  0  0  0  0  0  0
    3.7385    2.3568   -0.5326 O   0  0  0  0  0  0  0  0  0  0  0  0
    5.0958    0.5569    0.0213 C   0  0  0  0  0  0  0  0  0  0  0  0
    3.3436   -1.7930    0.4601 C   0  0  0  0  0  0  0  0  0  0  0  0
   -4.0589    0.4294    1.7716 H   0  0  0  0  0  0  0  0  0  0  0  0
   -2.8276   -0.6168    2.4671 H   0  0  0  0  0  0  0  0  0  0  0  0
   -4.1573   -1.2991    1.4396 H   0  0  0  0  0  0  0  0  0  0  0  0
   -3.3324   -0.2534   -0.5201 H   0  0  0  0  0  0  0  0  0  0  0  0
   -3.0840    1.8553    0.3891 H   0  0  0  0  0  0  0  0  0  0  0  0
   -1.7423    1.3619    1.4426 H   0  0  0  0  0  0  0  0  0  0  0  0
   -1.5588    2.4829   -2.5321 H   0  0  0  0  0  0  0  0  0  0  0  0
   -0.8151    0.8767   -2.5709 H   0  0  0  0  0  0  0  0  0  0  0  0
   -2.5436    1.0551   -2.1458 H   0  0  0  0  0  0  0  0  0  0  0  0
   -0.0697    3.1541    0.5500 H   0  0  0  0  0  0  0  0  0  0  0  0
   -0.3412    3.4855   -1.2479 H   0  0  0  0  0  0  0  0  0  0  0  0
   -1.6840    3.6445   -0.1018 H   0  0  0  0  0  0  0  0  0  0  0  0
   -0.7477   -1.9170    2.0319 H   0  0  0  0  0  0  0  0  0  0  0  0
   -1.0865   -3.1735    0.8338 H   0  0  0  0  0  0  0  0  0  0  0  0
   -2.4799   -2.4433    1.6304 H   0  0  0  0  0  0  0  0  0  0  0  0
   -1.7106   -1.3918   -2.0707 H   0  0  0  0  0  0  0  0  0  0  0  0
   -2.7488   -2.5111   -1.0472 H   0  0  0  0  0  0  0  0  0  0  0  0
   -1.0052   -2.8174   -1.1450 H   0  0  0  0  0  0  0  0  0  0  0  0
    0.7765   -2.4115    0.5127 H   0  0  0  0  0  0  0  0  0  0  0  0
    1.4055    2.2893   -0.6115 H   0  0  0  0  0  0  0  0  0  0  0  0
    5.5171   -0.0029   -0.8507 H   0  0  0  0  0  0  0  0  0  0  0  0
    5.1799   -0.0441    0.9416 H   0  0  0  0  0  0  0  0  0  0  0  0
    5.8384    1.4166    0.1323 H   0  0  0  0  0  0  0  0  0  0  0  0
    4.1477   -1.7533   -0.2733 H   0  0  0  0  0  0  0  0  0  0  0  0
    3.7506   -1.7622    1.5016 H   0  0  0  0  0  0  0  0  0  0  0  0
    2.9260   -2.8345    0.3514 H   0  0  0  0  0  0  0  0  0  0  0  0
  1  2  1  0
  2  3  1  0
  3  4  1  0
  4  5  1  0
  4  6  1  0
  4  7  1  0
  7  8  2  0
  8  9  1  0
  9 10  1  0
  9 11  1  0
  8 12  1  0
 12 13  2  0
 13 14  1  0
 14 15  2  0
 14 16  1  0
 16 17  2  0
 16 18  1  0
 13 19  1  0
  9  2  1  0
 15  7  1  0
  1 20  1  0
  1 21  1  0
  1 22  1  0
  2 23  1  0
  3 24  1  0
  3 25  1  0
  5 26  1  0
  5 27  1  0
  5 28  1  0
  6 29  1  0
  6 30  1  0
  6 31  1  0
 10 32  1  0
 10 33  1  0
 10 34  1  0
 11 35  1  0
 11 36  1  0
 11 37  1  0
 12 38  1  0
 15 39  1  0
 18 40  1  0
 18 41  1  0
 18 42  1  0
 19 43  1  0
 19 44  1  0
 19 45  1  0
M  END
>  <Ligand ID>  (1) 
LIG0000535

>  <Ligand>  (1) 
Tonalide

>  <SMILES>  (1) 
CC1CC(C)(C)c2c(C1(C)C)cc(c(c2)C(=O)C)C

>  <CID>  (1) 
89440.0

>  <ChEMBL ID>  (1) 
nan

>  <InChiKey>  (1) 
DNRJTBAOUJJKDY-UHFFFAOYSA-N

>  <InChi>  (1) 
InChI=1S/C18H26O/c1-11-8-16-15(9-14(11)13(3)19)17(4,5)10-12(2)18(16,6)7/h8-9,12H,10H2,1-7H3

>  <IUPAC Name>  (1) 
1-(3,5,5,6,8,8-hexamethyl-6,7-dihydronaphthalen-2-yl)ethanone

$$$$
