
     RDKit          3D

 52 53  0  0  0  0  0  0  0  0999 V2000
    8.4831    0.8868    0.6759 C   0  0  0  0  0  0  0  0  0  0  0  0
    7.4306    1.7850    0.3219 O   0  0  0  0  0  0  0  0  0  0  0  0
    6.2213    1.2073   -0.0519 C   0  0  0  0  0  0  0  0  0  0  0  0
    6.0535   -0.1652   -0.0773 C   0  0  0  0  0  0  0  0  0  0  0  0
    4.8126   -0.6574   -0.4629 C   0  0  0  0  0  0  0  0  0  0  0  0
    3.7667    0.1558   -0.8131 C   0  0  0  0  0  0  0  0  0  0  0  0
    3.9434    1.5442   -0.7852 C   0  0  0  0  0  0  0  0  0  0  0  0
    5.1718    2.0480   -0.4038 C   0  0  0  0  0  0  0  0  0  0  0  0
    2.4960   -0.4442   -1.2059 C   0  0  0  0  0  0  0  0  0  0  0  0
    1.5271   -0.6797   -0.0790 C   0  0  0  0  0  0  0  0  0  0  0  0
    0.2930   -1.3027   -0.7120 C   0  0  1  0  0  0  0  0  0  0  0  0
   -0.7492   -1.6011    0.2185 N   0  0  0  0  0  0  0  0  0  0  0  0
   -1.2600   -0.4544    0.9400 C   0  0  0  0  0  0  0  0  0  0  0  0
   -2.3591   -1.0171    1.8628 C   0  0  2  0  0  0  0  0  0  0  0  0
   -3.2472   -1.8269    0.9572 C   0  0  0  0  0  0  0  0  0  0  0  0
   -3.9018   -1.1292    0.0243 O   0  0  0  0  0  0  0  0  0  0  0  0
   -4.8649   -0.2063    0.0256 C   0  0  0  0  0  0  0  0  0  0  0  0
   -5.2320    0.3106   -1.2422 C   0  0  0  0  0  0  0  0  0  0  0  0
   -6.2015    1.2551   -1.4007 C   0  0  0  0  0  0  0  0  0  0  0  0
   -6.8844    1.7635   -0.3224 C   0  0  0  0  0  0  0  0  0  0  0  0
   -6.5628    1.2930    0.9153 C   0  0  0  0  0  0  0  0  0  0  0  0
   -5.5680    0.3229    1.0772 C   0  0  0  0  0  0  0  0  0  0  0  0
   -7.8662    2.7189   -0.4678 O   0  0  0  0  0  0  0  0  0  0  0  0
   -2.9342   -0.0437    2.6101 O   0  0  0  0  0  0  0  0  0  0  0  0
   -0.1701   -0.4639   -1.8711 C   0  0  0  0  0  0  0  0  0  0  0  0
    8.0584    0.2507    1.5067 H   0  0  0  0  0  0  0  0  0  0  0  0
    9.2998    1.4778    1.1493 H   0  0  0  0  0  0  0  0  0  0  0  0
    8.8205    0.2563   -0.1495 H   0  0  0  0  0  0  0  0  0  0  0  0
    6.8761   -0.8284    0.1986 H   0  0  0  0  0  0  0  0  0  0  0  0
    4.6970   -1.7226   -0.4779 H   0  0  0  0  0  0  0  0  0  0  0  0
    3.1101    2.2014   -1.0644 H   0  0  0  0  0  0  0  0  0  0  0  0
    5.3012    3.1190   -0.3845 H   0  0  0  0  0  0  0  0  0  0  0  0
    2.0005    0.2962   -1.8939 H   0  0  0  0  0  0  0  0  0  0  0  0
    2.6592   -1.3511   -1.8204 H   0  0  0  0  0  0  0  0  0  0  0  0
    1.8993   -1.3167    0.7172 H   0  0  0  0  0  0  0  0  0  0  0  0
    1.1741    0.2671    0.3779 H   0  0  0  0  0  0  0  0  0  0  0  0
    0.6471   -2.2733   -1.1325 H   0  0  0  0  0  0  0  0  0  0  0  0
   -0.4197   -2.3225    0.8921 H   0  0  0  0  0  0  0  0  0  0  0  0
   -0.4741    0.0407    1.5473 H   0  0  0  0  0  0  0  0  0  0  0  0
   -1.7655    0.2087    0.2187 H   0  0  0  0  0  0  0  0  0  0  0  0
   -1.7950   -1.7569    2.5052 H   0  0  0  0  0  0  0  0  0  0  0  0
   -2.5270   -2.5488    0.4282 H   0  0  0  0  0  0  0  0  0  0  0  0
   -3.9204   -2.4995    1.5735 H   0  0  0  0  0  0  0  0  0  0  0  0
   -4.7341   -0.0453   -2.1413 H   0  0  0  0  0  0  0  0  0  0  0  0
   -6.4467    1.6190   -2.3892 H   0  0  0  0  0  0  0  0  0  0  0  0
   -7.0942    1.6840    1.7888 H   0  0  0  0  0  0  0  0  0  0  0  0
   -5.4101   -0.0030    2.0770 H   0  0  0  0  0  0  0  0  0  0  0  0
   -8.8360    2.4907   -0.2885 H   0  0  0  0  0  0  0  0  0  0  0  0
   -2.6449   -0.1482    3.5701 H   0  0  0  0  0  0  0  0  0  0  0  0
   -0.1132    0.6206   -1.6809 H   0  0  0  0  0  0  0  0  0  0  0  0
   -1.2092   -0.7841   -2.1136 H   0  0  0  0  0  0  0  0  0  0  0  0
    0.4490   -0.7153   -2.7475 H   0  0  0  0  0  0  0  0  0  0  0  0
  1  2  1  0
  2  3  1  0
  3  4  2  0
  4  5  1  0
  5  6  2  0
  6  7  1  0
  7  8  2  0
  6  9  1  0
  9 10  1  0
 10 11  1  0
 11 12  1  0
 12 13  1  0
 13 14  1  0
 14 15  1  0
 15 16  1  0
 16 17  1  0
 17 18  2  0
 18 19  1  0
 19 20  2  0
 20 21  1  0
 21 22  2  0
 20 23  1  0
 14 24  1  0
 11 25  1  0
  8  3  1  0
 22 17  1  0
  1 26  1  0
  1 27  1  0
  1 28  1  0
  4 29  1  0
  5 30  1  0
  7 31  1  0
  8 32  1  0
  9 33  1  0
  9 34  1  0
 10 35  1  0
 10 36  1  0
 11 37  1  6
 12 38  1  0
 13 39  1  0
 13 40  1  0
 14 41  1  1
 15 42  1  0
 15 43  1  0
 18 44  1  0
 19 45  1  0
 21 46  1  0
 22 47  1  0
 23 48  1  0
 24 49  1  0
 25 50  1  0
 25 51  1  0
 25 52  1  0
M  END
>  <Ligand ID>  (1) 
LIG0005217

>  <Ligand>  (1) 
CHEMBL12949

>  <SMILES>  (1) 
COc1ccc(cc1)CC[C@@H](NC[C@H](COc1ccc(cc1)O)O)C

>  <CID>  (1) 
44268262.0

>  <ChEMBL ID>  (1) 
nan

>  <InChiKey>  (1) 
FVXAAPNMRWHMJD-MAUKXSAKSA-N

>  <InChi>  (1) 
InChI=1S/C20H27NO4/c1-15(3-4-16-5-9-19(24-2)10-6-16)21-13-18(23)14-25-20-11-7-17(22)8-12-20/h5-12,15,18,21-23H,3-4,13-14H2,1-2H3/t15-,18+/m0/s1

>  <IUPAC Name>  (1) 
4-[(2R)-2-hydroxy-3-[[(2S)-4-(4-methoxyphenyl)butan-2-yl]amino]propoxy]phenol

$$$$
