
     RDKit          3D

 37 39  0  0  0  0  0  0  0  0999 V2000
    3.2258   -1.2067   -2.2425 Cl  0  0  0  0  0  0  0  0  0  0  0  0
    1.7582   -0.7136   -1.4250 C   0  0  0  0  0  0  0  0  0  0  0  0
    0.6681   -0.2813   -2.1612 C   0  0  0  0  0  0  0  0  0  0  0  0
   -0.5071    0.1155   -1.5625 C   0  0  0  0  0  0  0  0  0  0  0  0
   -0.5565    0.0646   -0.1812 C   0  0  0  0  0  0  0  0  0  0  0  0
    0.5482   -0.3732    0.5592 C   0  0  0  0  0  0  0  0  0  0  0  0
    1.7212   -0.7688   -0.0468 C   0  0  0  0  0  0  0  0  0  0  0  0
    2.7838   -1.1943    0.7658 N   0  0  0  0  0  0  0  0  0  0  0  0
    3.9739   -0.0940    1.3645 S   0  0  0  0  0  0  0  0  0  0  0  0
    3.3935    0.9350    2.2819 O   0  0  0  0  0  0  0  0  0  0  0  0
    5.0072   -0.8371    2.1639 O   0  0  0  0  0  0  0  0  0  0  0  0
    4.8394    0.6534    0.0032 C   0  0  0  0  0  0  0  0  0  0  0  0
    0.3584   -0.3781    2.0391 C   0  0  0  0  0  0  0  0  0  0  0  0
   -0.9117   -1.1739    2.2713 C   0  0  0  0  0  0  0  0  0  0  0  0
   -2.1052   -0.4958    1.6844 C   0  0  0  0  0  0  0  0  0  0  0  0
   -1.7474    0.4588    0.5873 C   0  0  0  0  0  0  0  0  0  0  0  0
   -2.9207    0.6212   -0.3432 C   0  0  0  0  0  0  0  0  0  0  0  0
   -3.8052   -0.3552   -0.6958 N   0  0  0  0  0  0  0  0  0  0  0  0
   -4.7213    0.1801   -1.5522 C   0  0  0  0  0  0  0  0  0  0  0  0
   -4.3841    1.5222   -1.7258 C   0  0  0  0  0  0  0  0  0  0  0  0
   -3.2996    1.7539   -0.9868 N   0  0  0  0  0  0  0  0  0  0  0  0
    0.7133   -0.2441   -3.2381 H   0  0  0  0  0  0  0  0  0  0  0  0
   -1.3506    0.4498   -2.1273 H   0  0  0  0  0  0  0  0  0  0  0  0
    2.8356   -2.2277    1.0052 H   0  0  0  0  0  0  0  0  0  0  0  0
    5.4263   -0.1309   -0.5118 H   0  0  0  0  0  0  0  0  0  0  0  0
    4.1709    1.1833   -0.6972 H   0  0  0  0  0  0  0  0  0  0  0  0
    5.5836    1.3972    0.3497 H   0  0  0  0  0  0  0  0  0  0  0  0
    1.1543   -0.8927    2.5714 H   0  0  0  0  0  0  0  0  0  0  0  0
    0.2043    0.6914    2.3608 H   0  0  0  0  0  0  0  0  0  0  0  0
   -0.9808   -1.3044    3.3703 H   0  0  0  0  0  0  0  0  0  0  0  0
   -0.7464   -2.1558    1.7588 H   0  0  0  0  0  0  0  0  0  0  0  0
   -2.6629    0.0319    2.4838 H   0  0  0  0  0  0  0  0  0  0  0  0
   -2.8139   -1.2487    1.2599 H   0  0  0  0  0  0  0  0  0  0  0  0
   -1.5169    1.4638    1.0216 H   0  0  0  0  0  0  0  0  0  0  0  0
   -5.5630   -0.3358   -2.0189 H   0  0  0  0  0  0  0  0  0  0  0  0
   -4.9408    2.2102   -2.3613 H   0  0  0  0  0  0  0  0  0  0  0  0
   -2.8319    2.6798   -0.9305 H   0  0  0  0  0  0  0  0  0  0  0  0
  1  2  1  0
  2  3  2  0
  3  4  1  0
  4  5  2  0
  5  6  1  0
  6  7  2  0
  7  8  1  0
  8  9  1  0
  9 10  2  0
  9 11  2  0
  9 12  1  0
  6 13  1  0
 13 14  1  0
 14 15  1  0
 15 16  1  0
 16 17  1  0
 17 18  2  0
 18 19  1  0
 19 20  2  0
 20 21  1  0
  7  2  1  0
 21 17  1  0
 16  5  1  0
  3 22  1  0
  4 23  1  0
  8 24  1  0
 12 25  1  0
 12 26  1  0
 12 27  1  0
 13 28  1  0
 13 29  1  0
 14 30  1  0
 14 31  1  0
 15 32  1  0
 15 33  1  0
 16 34  1  0
 19 35  1  0
 20 36  1  0
 21 37  1  0
M  END
>  <Ligand ID>  (1) 
LIG0002028

>  <Ligand>  (1) 
CHEMBL256982

>  <SMILES>  (1) 
Clc1ccc2c(c1NS(=O)(=O)C)CCCC2c1ncc[nH]1

>  <CID>  (1) 
25066019.0

>  <ChEMBL ID>  (1) 
nan

>  <InChiKey>  (1) 
IWGVFEQPKZLBMA-UHFFFAOYSA-N

>  <InChi>  (1) 
InChI=1S/C14H16ClN3O2S/c1-21(19,20)18-13-10-3-2-4-11(14-16-7-8-17-14)9(10)5-6-12(13)15/h5-8,11,18H,2-4H2,1H3,(H,16,17)

>  <IUPAC Name>  (1) 
N-[2-chloro-5-(1H-imidazol-2-yl)-5,6,7,8-tetrahydronaphthalen-1-yl]methanesulfonamide

$$$$
