
     RDKit          3D

 51 55  0  0  0  0  0  0  0  0999 V2000
    3.2470    1.1154   -0.3498 O   0  0  0  0  0  0  0  0  0  0  0  0
    2.6097    0.0564   -0.0715 C   0  0  0  0  0  0  0  0  0  0  0  0
    1.2167    0.0851    0.2223 N   0  0  0  0  0  0  0  0  0  0  0  0
    0.5321    1.3637    0.1970 C   0  0  0  0  0  0  0  0  0  0  0  0
   -0.7848    1.1389   -0.5322 C   0  0  0  0  0  0  0  0  0  0  0  0
   -1.5562    0.1653    0.3187 C   0  0  0  0  0  0  0  0  0  0  0  0
   -0.8995   -1.1781    0.2065 C   0  0  0  0  0  0  0  0  0  0  0  0
    0.5594   -1.1619    0.5302 C   0  0  0  0  0  0  0  0  0  0  0  0
   -2.9390    0.0458   -0.0204 N   0  0  0  0  0  0  0  0  0  0  0  0
   -3.9565    0.3803    0.7495 N   0  0  0  0  0  0  0  0  0  0  0  0
   -5.1163    0.1298    0.1027 C   0  0  0  0  0  0  0  0  0  0  0  0
   -4.7580   -0.3581   -1.0616 O   0  0  0  0  0  0  0  0  0  0  0  0
   -3.4340   -0.4190   -1.1601 C   0  0  0  0  0  0  0  0  0  0  0  0
   -2.8252   -0.8492   -2.1762 O   0  0  0  0  0  0  0  0  0  0  0  0
   -6.4717    0.3562    0.5996 C   0  0  0  0  0  0  0  0  0  0  0  0
   -7.5267    0.0303   -0.2253 C   0  0  0  0  0  0  0  0  0  0  0  0
   -8.8128    0.2486    0.2545 C   0  0  0  0  0  0  0  0  0  0  0  0
   -9.0047    0.7803    1.5303 C   0  0  0  0  0  0  0  0  0  0  0  0
   -7.9100    1.0969    2.3343 C   0  0  0  0  0  0  0  0  0  0  0  0
   -6.6302    0.8830    1.8649 C   0  0  0  0  0  0  0  0  0  0  0  0
    3.3868   -1.2024   -0.0685 C   0  0  0  0  0  0  0  0  0  0  0  0
    4.7990   -0.8870   -0.4125 C   0  0  0  0  0  0  0  0  0  0  0  0
    5.2788   -0.8773   -1.7041 C   0  0  0  0  0  0  0  0  0  0  0  0
    6.6253   -0.5639   -1.8811 C   0  0  0  0  0  0  0  0  0  0  0  0
    7.4432   -0.2748   -0.7978 C   0  0  0  0  0  0  0  0  0  0  0  0
    6.9642   -0.2845    0.4913 C   0  0  0  0  0  0  0  0  0  0  0  0
    5.6333   -0.5939    0.6704 C   0  0  0  0  0  0  0  0  0  0  0  0
    8.0159    0.0433    1.3549 O   0  0  0  0  0  0  0  0  0  0  0  0
    8.9898    0.7473    0.5710 C   0  0  0  0  0  0  0  0  0  0  0  0
    8.7999    0.0659   -0.6746 O   0  0  0  0  0  0  0  0  0  0  0  0
    0.3219    1.5903    1.2785 H   0  0  0  0  0  0  0  0  0  0  0  0
    1.1473    2.1266   -0.2781 H   0  0  0  0  0  0  0  0  0  0  0  0
   -1.2558    2.1102   -0.6773 H   0  0  0  0  0  0  0  0  0  0  0  0
   -0.5172    0.6378   -1.4997 H   0  0  0  0  0  0  0  0  0  0  0  0
   -1.4097    0.4972    1.3773 H   0  0  0  0  0  0  0  0  0  0  0  0
   -1.3995   -1.9079    0.9081 H   0  0  0  0  0  0  0  0  0  0  0  0
   -1.0602   -1.6407   -0.8043 H   0  0  0  0  0  0  0  0  0  0  0  0
    0.6683   -1.3690    1.6305 H   0  0  0  0  0  0  0  0  0  0  0  0
    1.0274   -2.0253    0.0141 H   0  0  0  0  0  0  0  0  0  0  0  0
   -7.3470   -0.3733   -1.1926 H   0  0  0  0  0  0  0  0  0  0  0  0
   -9.6508   -0.0022   -0.3813 H   0  0  0  0  0  0  0  0  0  0  0  0
  -10.0154    0.9554    1.9159 H   0  0  0  0  0  0  0  0  0  0  0  0
   -8.1093    1.5106    3.3252 H   0  0  0  0  0  0  0  0  0  0  0  0
   -5.8053    1.1406    2.5168 H   0  0  0  0  0  0  0  0  0  0  0  0
    3.0298   -1.8772   -0.8726 H   0  0  0  0  0  0  0  0  0  0  0  0
    3.2916   -1.6423    0.9354 H   0  0  0  0  0  0  0  0  0  0  0  0
    4.6193   -1.1057   -2.5205 H   0  0  0  0  0  0  0  0  0  0  0  0
    7.0515   -0.5421   -2.8690 H   0  0  0  0  0  0  0  0  0  0  0  0
    5.2455   -0.6032    1.6965 H   0  0  0  0  0  0  0  0  0  0  0  0
   10.0054    0.6466    0.9564 H   0  0  0  0  0  0  0  0  0  0  0  0
    8.6869    1.7915    0.4286 H   0  0  0  0  0  0  0  0  0  0  0  0
  1  2  2  0
  2  3  1  0
  3  4  1  0
  4  5  1  0
  5  6  1  0
  6  7  1  0
  7  8  1  0
  6  9  1  0
  9 10  1  0
 10 11  2  0
 11 12  1  0
 12 13  1  0
 13 14  2  0
 11 15  1  0
 15 16  2  0
 16 17  1  0
 17 18  2  0
 18 19  1  0
 19 20  2  0
  2 21  1  0
 21 22  1  0
 22 23  2  0
 23 24  1  0
 24 25  2  0
 25 26  1  0
 26 27  2  0
 26 28  1  0
 28 29  1  0
 29 30  1  0
  8  3  1  0
 13  9  1  0
 20 15  1  0
 27 22  1  0
 30 25  1  0
  4 31  1  0
  4 32  1  0
  5 33  1  0
  5 34  1  0
  6 35  1  0
  7 36  1  0
  7 37  1  0
  8 38  1  0
  8 39  1  0
 16 40  1  0
 17 41  1  0
 18 42  1  0
 19 43  1  0
 20 44  1  0
 21 45  1  0
 21 46  1  0
 23 47  1  0
 24 48  1  0
 27 49  1  0
 29 50  1  0
 29 51  1  0
M  END
>  <Ligand ID>  (1) 
LIG0003145

>  <Ligand>  (1) 
MLS-0437153.0001

>  <SMILES>  (1) 
O=C(N1CCC(CC1)n1nc(oc1=O)c1ccccc1)Cc1ccc2c(c1)OCO2

>  <CID>  (1) 
23612548.0

>  <ChEMBL ID>  (1) 
nan

>  <InChiKey>  (1) 
YISNSDXPXOUONZ-UHFFFAOYSA-N

>  <InChi>  (1) 
InChI=1S/C22H21N3O5/c26-20(13-15-6-7-18-19(12-15)29-14-28-18)24-10-8-17(9-11-24)25-22(27)30-21(23-25)16-4-2-1-3-5-16/h1-7,12,17H,8-11,13-14H2

>  <IUPAC Name>  (1) 
3-[1-[2-(1,3-benzodioxol-5-yl)acetyl]piperidin-4-yl]-5-phenyl-1,3,4-oxadiazol-2-one

$$$$
