
     RDKit          3D

 61 63  0  0  0  0  0  0  0  0999 V2000
    0.1767   -3.4539   -1.5492 C   0  0  0  0  0  0  0  0  0  0  0  0
    0.8840   -2.5442   -0.6278 C   0  0  0  0  0  0  0  0  0  0  0  0
    0.3533   -2.2164    0.6222 C   0  0  0  0  0  0  0  0  0  0  0  0
   -0.8693   -2.7991    0.9312 O   0  0  0  0  0  0  0  0  0  0  0  0
   -1.4715   -2.5191    2.1730 C   0  0  0  0  0  0  0  0  0  0  0  0
   -2.7764   -3.2633    2.2678 C   0  0  0  0  0  0  0  0  0  0  0  0
   -3.6756   -2.8288    1.1546 C   0  0  0  0  0  0  0  0  0  0  0  0
   -3.9924   -1.3553    1.1826 C   0  0  0  0  0  0  0  0  0  0  0  0
   -4.8544   -1.1056    0.0734 O   0  0  0  0  0  0  0  0  0  0  0  0
   -5.3169    0.1913   -0.1552 C   0  0  0  0  0  0  0  0  0  0  0  0
   -4.9389    1.2336    0.6943 C   0  0  0  0  0  0  0  0  0  0  0  0
   -5.4161    2.5199    0.4421 C   0  0  0  0  0  0  0  0  0  0  0  0
   -6.2527    2.7556   -0.6364 C   0  0  0  0  0  0  0  0  0  0  0  0
   -6.6083    1.7055   -1.4574 C   0  0  0  0  0  0  0  0  0  0  0  0
   -6.1493    0.4232   -1.2291 C   0  0  0  0  0  0  0  0  0  0  0  0
   -6.6279   -0.8945   -2.3040 Cl  0  0  0  0  0  0  0  0  0  0  0  0
   -6.7398    4.1009   -0.8836 C   0  0  0  0  0  0  0  0  0  0  0  0
   -6.4132    5.0436   -0.1365 O   0  0  0  0  0  0  0  0  0  0  0  0
   -7.5840    4.3262   -1.9758 O   0  0  0  0  0  0  0  0  0  0  0  0
    1.0067   -1.3660    1.4926 C   0  0  0  0  0  0  0  0  0  0  0  0
    2.2169   -0.8418    1.0857 C   0  0  0  0  0  0  0  0  0  0  0  0
    2.7934   -1.1263   -0.1347 C   0  0  0  0  0  0  0  0  0  0  0  0
    2.1140   -1.9814   -0.9838 C   0  0  0  0  0  0  0  0  0  0  0  0
    2.6108   -2.3337   -2.2414 O   0  0  0  0  0  0  0  0  0  0  0  0
    4.0733   -0.5657   -0.5532 C   0  0  0  0  0  0  0  0  0  0  0  0
    4.5080   -0.8903   -1.6846 O   0  0  0  0  0  0  0  0  0  0  0  0
    4.7629    0.3406    0.3823 C   0  0  0  0  0  0  0  0  0  0  0  0
    6.0663    0.8583   -0.1456 C   0  0  0  0  0  0  0  0  0  0  0  0
    6.6614    1.7694    0.9094 C   0  0  0  0  0  0  0  0  0  0  0  0
    6.5849    3.1818    0.3578 C   0  0  0  0  0  0  0  0  0  0  0  0
    5.5986    3.0750   -0.8100 C   0  0  0  0  0  0  0  0  0  0  0  0
    5.9545    1.7272   -1.3500 C   0  0  0  0  0  0  0  0  0  0  0  0
   -0.6582   -2.9337   -2.0553 H   0  0  0  0  0  0  0  0  0  0  0  0
    0.9286   -3.8490   -2.2715 H   0  0  0  0  0  0  0  0  0  0  0  0
   -0.2421   -4.2807   -0.9237 H   0  0  0  0  0  0  0  0  0  0  0  0
   -1.6374   -1.4482    2.3249 H   0  0  0  0  0  0  0  0  0  0  0  0
   -0.8195   -2.9302    2.9815 H   0  0  0  0  0  0  0  0  0  0  0  0
   -3.2666   -3.0907    3.2607 H   0  0  0  0  0  0  0  0  0  0  0  0
   -2.5238   -4.3429    2.2120 H   0  0  0  0  0  0  0  0  0  0  0  0
   -3.2587   -3.0464    0.1630 H   0  0  0  0  0  0  0  0  0  0  0  0
   -4.6421   -3.3923    1.2847 H   0  0  0  0  0  0  0  0  0  0  0  0
   -3.0849   -0.7298    1.1232 H   0  0  0  0  0  0  0  0  0  0  0  0
   -4.5123   -1.0804    2.1362 H   0  0  0  0  0  0  0  0  0  0  0  0
   -4.2832    1.0320    1.5343 H   0  0  0  0  0  0  0  0  0  0  0  0
   -5.1119    3.3185    1.1130 H   0  0  0  0  0  0  0  0  0  0  0  0
   -7.2622    1.8415   -2.3157 H   0  0  0  0  0  0  0  0  0  0  0  0
   -8.0493    5.2067   -2.1400 H   0  0  0  0  0  0  0  0  0  0  0  0
    0.5568   -1.1386    2.4553 H   0  0  0  0  0  0  0  0  0  0  0  0
    2.7289   -0.1786    1.7616 H   0  0  0  0  0  0  0  0  0  0  0  0
    2.3677   -1.6803   -3.0000 H   0  0  0  0  0  0  0  0  0  0  0  0
    5.0145   -0.2668    1.2842 H   0  0  0  0  0  0  0  0  0  0  0  0
    4.1475    1.1706    0.7546 H   0  0  0  0  0  0  0  0  0  0  0  0
    6.8144    0.0371   -0.2778 H   0  0  0  0  0  0  0  0  0  0  0  0
    7.6685    1.4796    1.2303 H   0  0  0  0  0  0  0  0  0  0  0  0
    6.0339    1.7923    1.8452 H   0  0  0  0  0  0  0  0  0  0  0  0
    7.5881    3.3652   -0.1056 H   0  0  0  0  0  0  0  0  0  0  0  0
    6.2747    3.9335    1.0830 H   0  0  0  0  0  0  0  0  0  0  0  0
    5.7730    3.8866   -1.5460 H   0  0  0  0  0  0  0  0  0  0  0  0
    4.5527    3.0366   -0.4446 H   0  0  0  0  0  0  0  0  0  0  0  0
    5.2455    1.3588   -2.1148 H   0  0  0  0  0  0  0  0  0  0  0  0
    6.9786    1.7631   -1.8130 H   0  0  0  0  0  0  0  0  0  0  0  0
  1  2  1  0
  2  3  2  0
  3  4  1  0
  4  5  1  0
  5  6  1  0
  6  7  1  0
  7  8  1  0
  8  9  1  0
  9 10  1  0
 10 11  2  0
 11 12  1  0
 12 13  2  0
 13 14  1  0
 14 15  2  0
 15 16  1  0
 13 17  1  0
 17 18  2  0
 17 19  1  0
  3 20  1  0
 20 21  2  0
 21 22  1  0
 22 23  2  0
 23 24  1  0
 22 25  1  0
 25 26  2  0
 25 27  1  0
 27 28  1  0
 28 29  1  0
 29 30  1  0
 30 31  1  0
 31 32  1  0
 23  2  1  0
 32 28  1  0
 15 10  1  0
  1 33  1  0
  1 34  1  0
  1 35  1  0
  5 36  1  0
  5 37  1  0
  6 38  1  0
  6 39  1  0
  7 40  1  0
  7 41  1  0
  8 42  1  0
  8 43  1  0
 11 44  1  0
 12 45  1  0
 14 46  1  0
 19 47  1  0
 20 48  1  0
 21 49  1  0
 24 50  1  0
 27 51  1  0
 27 52  1  0
 28 53  1  0
 29 54  1  0
 29 55  1  0
 30 56  1  0
 30 57  1  0
 31 58  1  0
 31 59  1  0
 32 60  1  0
 32 61  1  0
M  END
>  <Ligand ID>  (1) 
LIG0003647

>  <Ligand>  (1) 
CHEMBL3287698

>  <SMILES>  (1) 
Cc1c(OCCCCOc2ccc(cc2Cl)C(=O)O)ccc(c1O)C(=O)CC1CCCC1

>  <CID>  (1) 
90643875.0

>  <ChEMBL ID>  (1) 
nan

>  <InChiKey>  (1) 
XIWVJTYJVVEJHE-UHFFFAOYSA-N

>  <InChi>  (1) 
InChI=1S/C25H29ClO6/c1-16-22(11-9-19(24(16)28)21(27)14-17-6-2-3-7-17)31-12-4-5-13-32-23-10-8-18(25(29)30)15-20(23)26/h8-11,15,17,28H,2-7,12-14H2,1H3,(H,29,30)

>  <IUPAC Name>  (1) 
3-chloro-4-[4-[4-(2-cyclopentylacetyl)-3-hydroxy-2-methylphenoxy]butoxy]benzoic acid

$$$$
