
     RDKit          3D

 19 19  0  0  0  0  0  0  0  0999 V2000
    0.4915    3.0765   -0.1060 O   0  0  0  0  0  0  0  0  0  0  0  0
    0.1792    1.7182   -0.0920 C   0  0  0  0  0  0  0  0  0  0  0  0
    1.2419    0.8297   -0.0619 C   0  0  0  0  0  0  0  0  0  0  0  0
    1.0164   -0.5173   -0.0465 C   0  0  0  0  0  0  0  0  0  0  0  0
   -0.2784   -0.9940   -0.0612 C   0  0  0  0  0  0  0  0  0  0  0  0
   -1.3357   -0.1020   -0.0912 C   0  0  0  0  0  0  0  0  0  0  0  0
   -1.1393    1.2662   -0.1074 C   0  0  0  0  0  0  0  0  0  0  0  0
   -2.7439   -0.5749   -0.1078 C   0  0  0  0  0  0  0  0  0  0  0  0
   -3.4845   -0.0460    0.9546 F   0  0  0  0  0  0  0  0  0  0  0  0
   -3.3980   -0.1465   -1.2448 F   0  0  0  0  0  0  0  0  0  0  0  0
   -2.8358   -1.9410   -0.0668 F   0  0  0  0  0  0  0  0  0  0  0  0
    2.1034   -1.5029   -0.0146 C   0  0  0  0  0  0  0  0  0  0  0  0
    1.8715   -2.7530   -0.0008 O   0  0  0  0  0  0  0  0  0  0  0  0
    3.4364   -1.1155    0.0020 O   0  0  0  0  0  0  0  0  0  0  0  0
    0.9903    3.4049    0.7097 H   0  0  0  0  0  0  0  0  0  0  0  0
    2.2410    1.1935   -0.0505 H   0  0  0  0  0  0  0  0  0  0  0  0
   -0.4619   -2.0599   -0.0491 H   0  0  0  0  0  0  0  0  0  0  0  0
   -1.9589    1.9733   -0.1309 H   0  0  0  0  0  0  0  0  0  0  0  0
    4.0646   -1.7093    0.5652 H   0  0  0  0  0  0  0  0  0  0  0  0
  1  2  1  0
  2  3  2  0
  3  4  1  0
  4  5  2  0
  5  6  1  0
  6  7  2  0
  6  8  1  0
  8  9  1  0
  8 10  1  0
  8 11  1  0
  4 12  1  0
 12 13  2  0
 12 14  1  0
  7  2  1  0
  1 15  1  0
  3 16  1  0
  5 17  1  0
  7 18  1  0
 14 19  1  0
M  END
>  <Ligand ID>  (1) 
LIG0005747

>  <Ligand>  (1) 
3-hydroxy-5-(trifluoromethyl)benzoic Acid

>  <SMILES>  (1) 
Oc1cc(cc(c1)C(F)(F)F)C(=O)O

>  <CID>  (1) 
2783146.0

>  <ChEMBL ID>  (1) 
nan

>  <InChiKey>  (1) 
BJUOAPFXYPEEMK-UHFFFAOYSA-N

>  <InChi>  (1) 
InChI=1S/C8H5F3O3/c9-8(10,11)5-1-4(7(13)14)2-6(12)3-5/h1-3,12H,(H,13,14)

>  <IUPAC Name>  (1) 
3-hydroxy-5-(trifluoromethyl)benzoic acid

$$$$
