
     RDKit          3D

 23 24  0  0  0  0  0  0  0  0999 V2000
    1.4892   -2.7253    0.3003 Cl  0  0  0  0  0  0  0  0  0  0  0  0
    1.9934   -1.0638    0.0335 C   0  0  0  0  0  0  0  0  0  0  0  0
    3.2206   -0.5956    0.5119 C   0  0  0  0  0  0  0  0  0  0  0  0
    3.5793    0.7256    0.2783 C   0  0  0  0  0  0  0  0  0  0  0  0
    2.7257    1.5633   -0.4214 C   0  0  0  0  0  0  0  0  0  0  0  0
    1.5091    1.1223   -0.9029 C   0  0  0  0  0  0  0  0  0  0  0  0
    1.1664   -0.2026   -0.6599 C   0  0  0  0  0  0  0  0  0  0  0  0
   -0.1054   -0.6192   -1.1773 N   0  0  0  0  0  0  0  0  0  0  0  0
   -1.2261   -0.4533   -0.2991 C   0  0  0  0  0  0  0  0  0  0  0  0
   -1.1864   -0.1123    0.9351 N   0  0  0  0  0  0  0  0  0  0  0  0
   -2.5564   -0.0579    1.4673 C   0  0  0  0  0  0  0  0  0  0  0  0
   -3.4304    0.0313    0.2242 C   0  0  0  0  0  0  0  0  0  0  0  0
   -2.5666   -0.6624   -0.7356 N   0  0  0  0  0  0  0  0  0  0  0  0
    0.4284    2.1929   -1.7918 Cl  0  0  0  0  0  0  0  0  0  0  0  0
    3.8680   -1.2718    1.0554 H   0  0  0  0  0  0  0  0  0  0  0  0
    4.5292    1.1222    0.6377 H   0  0  0  0  0  0  0  0  0  0  0  0
    2.9690    2.6063   -0.6261 H   0  0  0  0  0  0  0  0  0  0  0  0
   -0.1936   -1.0175   -2.1378 H   0  0  0  0  0  0  0  0  0  0  0  0
   -2.6922    0.8618    2.0535 H   0  0  0  0  0  0  0  0  0  0  0  0
   -2.7843   -0.9325    2.0786 H   0  0  0  0  0  0  0  0  0  0  0  0
   -3.4568    1.1062   -0.1167 H   0  0  0  0  0  0  0  0  0  0  0  0
   -4.4151   -0.4152    0.3365 H   0  0  0  0  0  0  0  0  0  0  0  0
   -2.8652   -1.2023   -1.5720 H   0  0  0  0  0  0  0  0  0  0  0  0
  1  2  1  0
  2  3  2  0
  3  4  1  0
  4  5  2  0
  5  6  1  0
  6  7  2  0
  7  8  1  0
  8  9  1  0
  9 10  2  0
 10 11  1  0
 11 12  1  0
 12 13  1  0
  6 14  1  0
  7  2  1  0
 13  9  1  0
  3 15  1  0
  4 16  1  0
  5 17  1  0
  8 18  1  0
 11 19  1  0
 11 20  1  0
 12 21  1  0
 12 22  1  0
 13 23  1  0
M  END
>  <Ligand ID>  (1) 
LIG0001383

>  <Ligand>  (1) 
clonidine

>  <SMILES>  (1) 
Clc1cccc(c1NC1=NCCN1)Cl

>  <CID>  (1) 
2803.0

>  <ChEMBL ID>  (1) 
nan

>  <InChiKey>  (1) 
GJSURZIOUXUGAL-UHFFFAOYSA-N

>  <InChi>  (1) 
InChI=1S/C9H9Cl2N3/c10-6-2-1-3-7(11)8(6)14-9-12-4-5-13-9/h1-3H,4-5H2,(H2,12,13,14)

>  <IUPAC Name>  (1) 
N-(2,6-dichlorophenyl)-4,5-dihydro-1H-imidazol-2-amine

$$$$
