
     RDKit          3D

 61 62  0  0  0  0  0  0  0  0999 V2000
   -5.5061    4.4626   -0.1132 O   0  0  0  0  0  0  0  0  0  0  0  0
   -6.2870    3.3493    0.2767 C   0  0  0  0  0  0  0  0  0  0  0  0
   -7.0750    3.4397    1.2878 O   0  0  0  0  0  0  0  0  0  0  0  0
   -6.2110    2.0621   -0.4620 C   0  0  0  0  0  0  0  0  0  0  0  0
   -5.8879    0.9085    0.4975 C   0  0  0  0  0  0  0  0  0  0  0  0
   -4.5437    1.2552    1.0955 C   0  0  0  0  0  0  0  0  0  0  0  0
   -4.0602    0.2595    2.0529 C   0  0  0  0  0  0  0  0  0  0  0  0
   -2.9430   -0.4395    1.9594 C   0  0  0  0  0  0  0  0  0  0  0  0
   -1.9655   -0.3379    0.8477 C   0  0  0  0  0  0  0  0  0  0  0  0
   -1.8866   -1.7064    0.2358 C   0  0  1  0  0  0  0  0  0  0  0  0
   -3.1967   -2.2076   -0.3083 C   0  0  1  0  0  0  0  0  0  0  0  0
   -3.6640   -1.2773   -1.2499 O   0  0  0  0  0  0  0  0  0  0  0  0
   -2.7364   -3.4307   -1.1112 C   0  0  0  0  0  0  0  0  0  0  0  0
   -1.2403   -3.3134   -1.2680 C   0  0  2  0  0  0  0  0  0  0  0  0
   -1.0279   -1.8199   -0.9821 C   0  0  2  0  0  0  0  0  0  0  0  0
    0.4130   -1.5382   -0.7471 C   0  0  0  0  0  0  0  0  0  0  0  0
    1.0612   -0.5429   -1.3870 C   0  0  0  0  0  0  0  0  0  0  0  0
    2.4878   -0.2930   -1.1307 C   0  0  2  0  0  0  0  0  0  0  0  0
    2.8073   -0.1479    0.3570 C   0  0  0  0  0  0  0  0  0  0  0  0
    4.0925    0.0152    0.5918 O   0  0  0  0  0  0  0  0  0  0  0  0
    5.3290    0.2926    0.7378 C   0  0  0  0  0  0  0  0  0  0  0  0
    6.1789   -0.5275    1.5135 C   0  0  0  0  0  0  0  0  0  0  0  0
    7.5098   -0.2385    1.6747 C   0  0  0  0  0  0  0  0  0  0  0  0
    8.0046    0.8849    1.0551 C   0  0  0  0  0  0  0  0  0  0  0  0
    7.2342    1.7350    0.2822 C   0  0  0  0  0  0  0  0  0  0  0  0
    5.9158    1.4237    0.1382 C   0  0  0  0  0  0  0  0  0  0  0  0
    7.8325    2.9512   -0.3731 C   0  0  0  0  0  0  0  0  0  0  0  0
    9.0549    2.5938   -0.9311 F   0  0  0  0  0  0  0  0  0  0  0  0
    6.9651    3.4404   -1.3121 F   0  0  0  0  0  0  0  0  0  0  0  0
    8.0641    3.8651    0.6441 F   0  0  0  0  0  0  0  0  0  0  0  0
    2.8875    0.8385   -1.8343 O   0  0  0  0  0  0  0  0  0  0  0  0
   -0.7811   -3.6640   -2.5107 O   0  0  0  0  0  0  0  0  0  0  0  0
   -5.5334    5.2731    0.4756 H   0  0  0  0  0  0  0  0  0  0  0  0
   -5.4660    2.1638   -1.2489 H   0  0  0  0  0  0  0  0  0  0  0  0
   -7.2292    1.8720   -0.9260 H   0  0  0  0  0  0  0  0  0  0  0  0
   -5.8265   -0.0100   -0.1414 H   0  0  0  0  0  0  0  0  0  0  0  0
   -6.6909    0.7930    1.2367 H   0  0  0  0  0  0  0  0  0  0  0  0
   -3.8699    1.5269    0.2846 H   0  0  0  0  0  0  0  0  0  0  0  0
   -4.7007    2.2159    1.6717 H   0  0  0  0  0  0  0  0  0  0  0  0
   -4.6829    0.0714    2.9384 H   0  0  0  0  0  0  0  0  0  0  0  0
   -2.6927   -1.1573    2.7493 H   0  0  0  0  0  0  0  0  0  0  0  0
   -0.9749   -0.1049    1.3303 H   0  0  0  0  0  0  0  0  0  0  0  0
   -2.1717    0.4424    0.1221 H   0  0  0  0  0  0  0  0  0  0  0  0
   -1.5203   -2.4728    0.9620 H   0  0  0  0  0  0  0  0  0  0  0  0
   -3.9454   -2.4713    0.4436 H   0  0  0  0  0  0  0  0  0  0  0  0
   -3.4590   -1.5468   -2.1823 H   0  0  0  0  0  0  0  0  0  0  0  0
   -3.0374   -4.3189   -0.5480 H   0  0  0  0  0  0  0  0  0  0  0  0
   -3.1964   -3.4693   -2.1151 H   0  0  0  0  0  0  0  0  0  0  0  0
   -0.7565   -3.8319   -0.4283 H   0  0  0  0  0  0  0  0  0  0  0  0
   -1.4225   -1.3034   -1.8731 H   0  0  0  0  0  0  0  0  0  0  0  0
    0.9268   -2.1696   -0.0298 H   0  0  0  0  0  0  0  0  0  0  0  0
    0.4504    0.0356   -2.0858 H   0  0  0  0  0  0  0  0  0  0  0  0
    3.0764   -1.1632   -1.4901 H   0  0  0  0  0  0  0  0  0  0  0  0
    2.3657   -1.0552    0.8665 H   0  0  0  0  0  0  0  0  0  0  0  0
    2.2293    0.7708    0.7101 H   0  0  0  0  0  0  0  0  0  0  0  0
    5.7371   -1.3919    1.9760 H   0  0  0  0  0  0  0  0  0  0  0  0
    8.1205   -0.9065    2.2853 H   0  0  0  0  0  0  0  0  0  0  0  0
    9.0443    1.1203    1.1730 H   0  0  0  0  0  0  0  0  0  0  0  0
    5.3062    2.0888   -0.4746 H   0  0  0  0  0  0  0  0  0  0  0  0
    2.9314    0.6367   -2.8045 H   0  0  0  0  0  0  0  0  0  0  0  0
    0.1622   -3.9300   -2.4043 H   0  0  0  0  0  0  0  0  0  0  0  0
  1  2  1  0
  2  3  2  0
  2  4  1  0
  4  5  1  0
  5  6  1  0
  6  7  1  0
  7  8  2  0
  8  9  1  0
  9 10  1  0
 10 11  1  0
 11 12  1  0
 11 13  1  0
 13 14  1  0
 14 15  1  0
 15 16  1  0
 16 17  2  0
 17 18  1  0
 18 19  1  0
 19 20  1  0
 20 21  1  0
 21 22  2  0
 22 23  1  0
 23 24  2  0
 24 25  1  0
 25 26  2  0
 25 27  1  0
 27 28  1  0
 27 29  1  0
 27 30  1  0
 18 31  1  0
 14 32  1  0
 15 10  1  0
 26 21  1  0
  1 33  1  0
  4 34  1  0
  4 35  1  0
  5 36  1  0
  5 37  1  0
  6 38  1  0
  6 39  1  0
  7 40  1  0
  8 41  1  0
  9 42  1  0
  9 43  1  0
 10 44  1  1
 11 45  1  1
 12 46  1  0
 13 47  1  0
 13 48  1  0
 14 49  1  1
 15 50  1  6
 16 51  1  0
 17 52  1  0
 18 53  1  6
 19 54  1  0
 19 55  1  0
 22 56  1  0
 23 57  1  0
 24 58  1  0
 26 59  1  0
 31 60  1  0
 32 61  1  0
M  END
>  <Ligand ID>  (1) 
LIG0002344

>  <Ligand>  (1) 
fluprostenol

>  <SMILES>  (1) 
OC(=O)CCC/C=C\C[C@H]1[C@@H](O)C[C@H]([C@@H]1/C=C/[C@H](COc1cccc(c1)C(F)(F)F)O)O

>  <CID>  (1) 
5311100.0

>  <ChEMBL ID>  (1) 
nan

>  <InChiKey>  (1) 
WWSWYXNVCBLWNZ-QIZQQNKQSA-N

>  <InChi>  (1) 
InChI=1S/C23H29F3O6/c24-23(25,26)15-6-5-7-17(12-15)32-14-16(27)10-11-19-18(20(28)13-21(19)29)8-3-1-2-4-9-22(30)31/h1,3,5-7,10-12,16,18-21,27-29H,2,4,8-9,13-14H2,(H,30,31)/b3-1-,11-10+/t16-,18-,19-,20+,21-/m1/s1

>  <IUPAC Name>  (1) 
(Z)-7-[(1R,2R,3R,5S)-3,5-dihydroxy-2-[(E,3R)-3-hydroxy-4-[3-(trifluoromethyl)phenoxy]but-1-enyl]cyclopentyl]hept-5-enoic acid

$$$$
