
     RDKit          3D

192199  0  0  0  0  0  0  0  0999 V2000
   -6.0010    4.0319   -5.2365 O   0  0  0  0  0  0  0  0  0  0  0  0
   -5.8150    4.5579   -3.9571 C   0  0  0  0  0  0  0  0  0  0  0  0
   -6.7319    5.4357   -3.3879 C   0  0  0  0  0  0  0  0  0  0  0  0
   -6.4798    5.9198   -2.1100 C   0  0  0  0  0  0  0  0  0  0  0  0
   -5.3544    5.5515   -1.4067 C   0  0  0  0  0  0  0  0  0  0  0  0
   -4.4594    4.6642   -2.0213 C   0  0  0  0  0  0  0  0  0  0  0  0
   -4.6805    4.1663   -3.2874 C   0  0  0  0  0  0  0  0  0  0  0  0
   -5.0066    6.0261   -0.0643 C   0  0  0  0  0  0  0  0  0  0  0  0
   -5.5535    5.1744    1.0691 C   0  0  1  0  0  0  0  0  0  0  0  0
   -5.0102    3.7656    0.9317 C   0  0  0  0  0  0  0  0  0  0  0  0
   -5.5893    3.0846    0.0566 O   0  0  0  0  0  0  0  0  0  0  0  0
   -3.9529    3.3660    1.7591 N   0  0  0  0  0  0  0  0  0  0  0  0
   -3.2962    2.0824    1.8120 C   0  0  1  0  0  0  0  0  0  0  0  0
   -4.0053    1.0168    0.9752 C   0  0  0  0  0  0  0  0  0  0  0  0
   -3.5475   -0.3545    1.2586 C   0  0  0  0  0  0  0  0  0  0  0  0
   -2.3793   -0.6719    1.2919 O   0  0  0  0  0  0  0  0  0  0  0  0
   -4.4071   -1.4897    1.5418 N   0  0  0  0  0  0  0  0  0  0  0  0
   -5.7977   -1.1086    1.6075 C   0  0  2  0  0  0  0  0  0  0  0  0
   -6.3677   -0.7764    0.3110 C   0  0  0  0  0  0  0  0  0  0  0  0
   -5.6125   -0.8947   -0.7238 O   0  0  0  0  0  0  0  0  0  0  0  0
   -7.6825   -0.3333    0.0538 N   0  0  0  0  0  0  0  0  0  0  0  0
   -6.1897   -0.2599    2.7521 C   0  0  0  0  0  0  0  0  0  0  0  0
   -7.6174    0.1386    2.7591 C   0  0  0  0  0  0  0  0  0  0  0  0
   -8.5044   -0.7544    3.3501 C   0  0  0  0  0  0  0  0  0  0  0  0
   -9.8410   -0.4591    3.4149 C   0  0  0  0  0  0  0  0  0  0  0  0
  -10.2697    0.7259    2.8868 C   0  0  0  0  0  0  0  0  0  0  0  0
   -9.4350    1.6487    2.2892 C   0  0  0  0  0  0  0  0  0  0  0  0
   -8.0879    1.3256    2.2366 C   0  0  0  0  0  0  0  0  0  0  0  0
  -11.6325    1.0746    2.9301 O   0  0  0  0  0  0  0  0  0  0  0  0
   -3.9552   -2.8359    1.6995 C   0  0  2  0  0  0  0  0  0  0  0  0
   -2.8292   -3.0633    2.6832 C   0  0  0  0  0  0  0  0  0  0  0  0
   -3.7813   -3.5871    0.5177 N   0  0  0  0  0  0  0  0  0  0  0  0
   -2.6579   -3.7535   -0.3202 C   0  0  0  0  0  0  0  0  0  0  0  0
   -1.6197   -3.1838   -0.0508 O   0  0  0  0  0  0  0  0  0  0  0  0
   -2.6949   -4.6327   -1.5522 C   0  0  2  0  0  0  0  0  0  0  0  0
   -3.0678   -6.0204   -0.9975 C   0  0  0  0  0  0  0  0  0  0  0  0
   -3.1571   -7.0428   -2.0421 C   0  0  0  0  0  0  0  0  0  0  0  0
   -4.3839   -7.2530   -2.6571 C   0  0  0  0  0  0  0  0  0  0  0  0
   -4.4954   -8.2187   -3.6428 C   0  0  0  0  0  0  0  0  0  0  0  0
   -3.4207   -8.9851   -4.0389 C   0  0  0  0  0  0  0  0  0  0  0  0
   -2.2009   -8.7809   -3.4330 C   0  0  0  0  0  0  0  0  0  0  0  0
   -2.0572   -7.8126   -2.4334 C   0  0  0  0  0  0  0  0  0  0  0  0
   -1.3958   -4.8138   -2.1385 N   0  0  0  0  0  0  0  0  0  0  0  0
   -1.0634   -4.5717   -3.5059 C   0  0  0  0  0  0  0  0  0  0  0  0
   -1.9893   -4.1117   -4.1897 O   0  0  0  0  0  0  0  0  0  0  0  0
    0.3067   -4.8617   -4.0342 C   0  0  2  0  0  0  0  0  0  0  0  0
    0.1514   -5.9617   -5.0845 C   0  0  0  0  0  0  0  0  0  0  0  0
    1.1505   -5.4400   -3.0079 N   0  0  0  0  0  0  0  0  0  0  0  0
    2.5012   -4.9609   -2.7668 C   0  0  0  0  0  0  0  0  0  0  0  0
    2.8462   -4.0583   -3.5240 O   0  0  0  0  0  0  0  0  0  0  0  0
    3.3255   -5.5739   -1.6714 C   0  0  2  0  0  0  0  0  0  0  0  0
    2.5525   -5.6657   -0.3914 C   0  0  0  0  0  0  0  0  0  0  0  0
    3.4126   -6.2710    0.6508 C   0  0  0  0  0  0  0  0  0  0  0  0
    4.5907   -6.6639    0.4578 O   0  0  0  0  0  0  0  0  0  0  0  0
    2.8643   -6.4205    1.9787 N   0  0  0  0  0  0  0  0  0  0  0  0
    4.6022   -4.9481   -1.5259 N   0  0  0  0  0  0  0  0  0  0  0  0
    4.8762   -3.5576   -1.5443 C   0  0  0  0  0  0  0  0  0  0  0  0
    3.9295   -2.7905   -1.6780 O   0  0  0  0  0  0  0  0  0  0  0  0
    6.2689   -2.9970   -1.4033 C   0  0  1  0  0  0  0  0  0  0  0  0
    6.1232   -1.6315   -0.7941 N   0  0  0  0  0  0  0  0  0  0  0  0
    6.0079   -0.5138   -1.6243 C   0  0  0  0  0  0  0  0  0  0  0  0
    6.1014   -0.9011   -2.8569 O   0  0  0  0  0  0  0  0  0  0  0  0
    5.8236    0.8951   -1.4392 C   0  0  1  0  0  0  0  0  0  0  0  0
    5.4942    1.3505   -0.1138 N   0  0  0  0  0  0  0  0  0  0  0  0
    4.2321    1.9630    0.0749 C   0  0  0  0  0  0  0  0  0  0  0  0
    3.5105    2.0997   -0.9209 O   0  0  0  0  0  0  0  0  0  0  0  0
    3.6685    2.4787    1.3682 C   0  0  2  0  0  0  0  0  0  0  0  0
    2.4413    3.2032    1.0305 N   0  0  0  0  0  0  0  0  0  0  0  0
    1.1721    3.0253    1.6024 C   0  0  0  0  0  0  0  0  0  0  0  0
    1.0520    2.2247    2.5157 O   0  0  0  0  0  0  0  0  0  0  0  0
    0.0563    3.8607    1.0133 C   0  0  1  0  0  0  0  0  0  0  0  0
   -1.2260    3.5935    1.5704 N   0  0  0  0  0  0  0  0  0  0  0  0
   -1.8960    2.3059    1.4199 C   0  0  0  0  0  0  0  0  0  0  0  0
   -1.1232    1.4523    0.9390 O   0  0  0  0  0  0  0  0  0  0  0  0
    0.4643    5.2677    1.2138 C   0  0  0  0  0  0  0  0  0  0  0  0
   -0.4499    6.3225    0.7381 C   0  0  0  0  0  0  0  0  0  0  0  0
   -1.4443    7.0123    1.4070 C   0  0  0  0  0  0  0  0  0  0  0  0
   -2.0008    7.9208    0.5912 N   0  0  0  0  0  0  0  0  0  0  0  0
   -1.3749    7.8235   -0.5983 C   0  0  0  0  0  0  0  0  0  0  0  0
   -0.4447    6.8626   -0.5061 N   0  0  0  0  0  0  0  0  0  0  0  0
    4.6519    3.4943    1.8988 C   0  0  0  0  0  0  0  0  0  0  0  0
    4.1970    4.0750    3.1884 C   0  0  0  0  0  0  0  0  0  0  0  0
    3.4517    5.2344    3.2791 C   0  0  0  0  0  0  0  0  0  0  0  0
    3.0435    5.7269    4.5021 C   0  0  0  0  0  0  0  0  0  0  0  0
    3.3630    5.0825    5.6652 C   0  0  0  0  0  0  0  0  0  0  0  0
    4.1007    3.9301    5.6141 C   0  0  0  0  0  0  0  0  0  0  0  0
    4.5049    3.4472    4.3816 C   0  0  0  0  0  0  0  0  0  0  0  0
    6.9954    1.7595   -1.8775 C   0  0  0  0  0  0  0  0  0  0  0  0
    7.3641    1.6500   -3.3071 C   0  0  0  0  0  0  0  0  0  0  0  0
    8.5379    2.5983   -3.5973 C   0  0  0  0  0  0  0  0  0  0  0  0
    8.1470    3.9698   -3.3104 N   0  0  0  0  0  0  0  0  0  0  0  0
    8.4283    4.5920   -2.2218 C   0  0  0  0  0  0  0  0  0  0  0  0
    9.1506    4.0609   -1.1416 N   0  0  0  0  0  0  0  0  0  0  0  0
    7.9482    5.9427   -2.1250 N   0  0  0  0  0  0  0  0  0  0  0  0
    6.1485   -1.6396    0.6266 C   0  0  0  0  0  0  0  0  0  0  0  0
    7.5856   -2.0076    0.9609 C   0  0  0  0  0  0  0  0  0  0  0  0
    8.3799   -1.2836    1.7744 C   0  0  0  0  0  0  0  0  0  0  0  0
    9.6901   -1.7421    1.9563 C   0  0  0  0  0  0  0  0  0  0  0  0
   10.1492   -2.8834    1.3312 C   0  0  0  0  0  0  0  0  0  0  0  0
    9.3123   -3.6278    0.4870 C   0  0  0  0  0  0  0  0  0  0  0  0
    8.0024   -3.1765    0.3013 C   0  0  0  0  0  0  0  0  0  0  0  0
    7.0588   -3.9244   -0.5645 C   0  0  0  0  0  0  0  0  0  0  0  0
   -5.1106   -3.6182    2.4093 C   0  0  0  0  0  0  0  0  0  0  0  0
   -5.4186   -3.3170    3.5796 O   0  0  0  0  0  0  0  0  0  0  0  0
   -5.7755   -4.6225    1.7460 O   0  0  0  0  0  0  0  0  0  0  0  0
   -5.0314    5.7620    2.2881 N   0  0  0  0  0  0  0  0  0  0  0  0
   -5.4430    4.4112   -5.9969 H   0  0  0  0  0  0  0  0  0  0  0  0
   -7.6087    5.7078   -3.9586 H   0  0  0  0  0  0  0  0  0  0  0  0
   -7.1705    6.6030   -1.6377 H   0  0  0  0  0  0  0  0  0  0  0  0
   -3.5565    4.3636   -1.4683 H   0  0  0  0  0  0  0  0  0  0  0  0
   -3.9422    3.4886   -3.6903 H   0  0  0  0  0  0  0  0  0  0  0  0
   -5.3986    7.0551    0.0572 H   0  0  0  0  0  0  0  0  0  0  0  0
   -3.8975    6.0279    0.0260 H   0  0  0  0  0  0  0  0  0  0  0  0
   -6.6325    5.1387    1.1221 H   0  0  0  0  0  0  0  0  0  0  0  0
   -3.5993    4.0910    2.4507 H   0  0  0  0  0  0  0  0  0  0  0  0
   -3.4319    1.7305    2.8786 H   0  0  0  0  0  0  0  0  0  0  0  0
   -3.5622    1.2251   -0.0759 H   0  0  0  0  0  0  0  0  0  0  0  0
   -5.0556    1.1623    0.8317 H   0  0  0  0  0  0  0  0  0  0  0  0
   -6.3221   -2.1293    1.8520 H   0  0  0  0  0  0  0  0  0  0  0  0
   -8.5409   -0.8378    0.4396 H   0  0  0  0  0  0  0  0  0  0  0  0
   -7.8007    0.5112   -0.5358 H   0  0  0  0  0  0  0  0  0  0  0  0
   -5.9753   -0.7598    3.7504 H   0  0  0  0  0  0  0  0  0  0  0  0
   -5.6007    0.6631    2.8285 H   0  0  0  0  0  0  0  0  0  0  0  0
   -8.1910   -1.6989    3.7764 H   0  0  0  0  0  0  0  0  0  0  0  0
  -10.5743   -1.1244    3.8651 H   0  0  0  0  0  0  0  0  0  0  0  0
   -9.7724    2.5864    1.8705 H   0  0  0  0  0  0  0  0  0  0  0  0
   -7.3679    1.9866    1.7871 H   0  0  0  0  0  0  0  0  0  0  0  0
  -12.3558    0.3698    3.0814 H   0  0  0  0  0  0  0  0  0  0  0  0
   -2.9758   -2.5610    3.6408 H   0  0  0  0  0  0  0  0  0  0  0  0
   -1.8503   -2.8396    2.2416 H   0  0  0  0  0  0  0  0  0  0  0  0
   -2.8296   -4.1651    2.8891 H   0  0  0  0  0  0  0  0  0  0  0  0
   -4.6250   -4.1248    0.1511 H   0  0  0  0  0  0  0  0  0  0  0  0
   -3.4665   -4.2549   -2.2187 H   0  0  0  0  0  0  0  0  0  0  0  0
   -3.9515   -5.9198   -0.3778 H   0  0  0  0  0  0  0  0  0  0  0  0
   -2.1991   -6.2691   -0.3178 H   0  0  0  0  0  0  0  0  0  0  0  0
   -5.2229   -6.6511   -2.3415 H   0  0  0  0  0  0  0  0  0  0  0  0
   -5.4773   -8.3579   -4.1011 H   0  0  0  0  0  0  0  0  0  0  0  0
   -3.4902   -9.7411   -4.8060 H   0  0  0  0  0  0  0  0  0  0  0  0
   -1.3167   -9.3630   -3.7152 H   0  0  0  0  0  0  0  0  0  0  0  0
   -1.0815   -7.6523   -1.9552 H   0  0  0  0  0  0  0  0  0  0  0  0
   -0.6269   -5.1361   -1.5520 H   0  0  0  0  0  0  0  0  0  0  0  0
    0.7134   -3.9726   -4.4997 H   0  0  0  0  0  0  0  0  0  0  0  0
    0.0792   -6.9697   -4.6212 H   0  0  0  0  0  0  0  0  0  0  0  0
    1.0330   -5.9880   -5.7450 H   0  0  0  0  0  0  0  0  0  0  0  0
   -0.7277   -5.7404   -5.7015 H   0  0  0  0  0  0  0  0  0  0  0  0
    0.8702   -6.2041   -2.3977 H   0  0  0  0  0  0  0  0  0  0  0  0
    3.5564   -6.6232   -2.0687 H   0  0  0  0  0  0  0  0  0  0  0  0
    2.3396   -4.6120   -0.0646 H   0  0  0  0  0  0  0  0  0  0  0  0
    1.6158   -6.2309   -0.4945 H   0  0  0  0  0  0  0  0  0  0  0  0
    3.5230   -6.3744    2.7902 H   0  0  0  0  0  0  0  0  0  0  0  0
    1.8356   -6.5681    2.1187 H   0  0  0  0  0  0  0  0  0  0  0  0
    5.4418   -5.5361   -1.3834 H   0  0  0  0  0  0  0  0  0  0  0  0
    6.6895   -2.9442   -2.4123 H   0  0  0  0  0  0  0  0  0  0  0  0
    4.9784    1.2705   -2.1310 H   0  0  0  0  0  0  0  0  0  0  0  0
    6.0854    1.3144    0.7179 H   0  0  0  0  0  0  0  0  0  0  0  0
    3.4770    1.6710    2.0906 H   0  0  0  0  0  0  0  0  0  0  0  0
    2.5343    3.9022    0.2898 H   0  0  0  0  0  0  0  0  0  0  0  0
    0.1024    3.5800   -0.0809 H   0  0  0  0  0  0  0  0  0  0  0  0
   -1.7304    4.2756    2.1062 H   0  0  0  0  0  0  0  0  0  0  0  0
    1.4735    5.4903    0.7260 H   0  0  0  0  0  0  0  0  0  0  0  0
    0.7300    5.4530    2.3132 H   0  0  0  0  0  0  0  0  0  0  0  0
   -1.7012    6.8149    2.4479 H   0  0  0  0  0  0  0  0  0  0  0  0
   -2.7715    8.5608    0.8756 H   0  0  0  0  0  0  0  0  0  0  0  0
   -1.5784    8.4172   -1.4937 H   0  0  0  0  0  0  0  0  0  0  0  0
    5.6646    3.0539    1.9775 H   0  0  0  0  0  0  0  0  0  0  0  0
    4.7298    4.2920    1.1059 H   0  0  0  0  0  0  0  0  0  0  0  0
    3.1820    5.7760    2.3819 H   0  0  0  0  0  0  0  0  0  0  0  0
    2.4543    6.6407    4.5659 H   0  0  0  0  0  0  0  0  0  0  0  0
    3.0397    5.4721    6.6244 H   0  0  0  0  0  0  0  0  0  0  0  0
    4.3438    3.4334    6.5475 H   0  0  0  0  0  0  0  0  0  0  0  0
    5.0839    2.5382    4.3677 H   0  0  0  0  0  0  0  0  0  0  0  0
    7.8965    1.5644   -1.2565 H   0  0  0  0  0  0  0  0  0  0  0  0
    6.6892    2.8061   -1.6642 H   0  0  0  0  0  0  0  0  0  0  0  0
    6.5266    2.0723   -3.9176 H   0  0  0  0  0  0  0  0  0  0  0  0
    7.5616    0.6511   -3.7002 H   0  0  0  0  0  0  0  0  0  0  0  0
    9.3866    2.3799   -2.9120 H   0  0  0  0  0  0  0  0  0  0  0  0
    8.8028    2.5604   -4.6705 H   0  0  0  0  0  0  0  0  0  0  0  0
    8.6802    4.0837   -0.1970 H   0  0  0  0  0  0  0  0  0  0  0  0
   10.1160    3.6548   -1.2606 H   0  0  0  0  0  0  0  0  0  0  0  0
    7.0602    6.2524   -2.5836 H   0  0  0  0  0  0  0  0  0  0  0  0
    8.4599    6.6767   -1.5929 H   0  0  0  0  0  0  0  0  0  0  0  0
    5.5797   -2.5729    0.9735 H   0  0  0  0  0  0  0  0  0  0  0  0
    5.7658   -0.8049    1.1681 H   0  0  0  0  0  0  0  0  0  0  0  0
    8.0072   -0.4033    2.2479 H   0  0  0  0  0  0  0  0  0  0  0  0
   10.3815   -1.2126    2.5948 H   0  0  0  0  0  0  0  0  0  0  0  0
   11.1455   -3.2733    1.4360 H   0  0  0  0  0  0  0  0  0  0  0  0
    9.6732   -4.5194   -0.0085 H   0  0  0  0  0  0  0  0  0  0  0  0
    7.6762   -4.5790   -1.2312 H   0  0  0  0  0  0  0  0  0  0  0  0
    6.4130   -4.5542    0.1090 H   0  0  0  0  0  0  0  0  0  0  0  0
   -6.5120   -5.1830    2.1704 H   0  0  0  0  0  0  0  0  0  0  0  0
   -5.7008    6.5397    2.5600 H   0  0  0  0  0  0  0  0  0  0  0  0
   -4.1264    6.2178    2.0703 H   0  0  0  0  0  0  0  0  0  0  0  0
  1  2  1  0
  2  3  2  0
  3  4  1  0
  4  5  2  0
  5  6  1  0
  6  7  2  0
  5  8  1  0
  8  9  1  0
  9 10  1  0
 10 11  2  0
 10 12  1  0
 12 13  1  0
 13 14  1  0
 14 15  1  0
 15 16  2  0
 15 17  1  0
 17 18  1  0
 18 19  1  0
 19 20  2  0
 19 21  1  0
 18 22  1  0
 22 23  1  0
 23 24  2  0
 24 25  1  0
 25 26  2  0
 26 27  1  0
 27 28  2  0
 26 29  1  0
 17 30  1  0
 30 31  1  1
 30 32  1  0
 32 33  1  0
 33 34  2  0
 33 35  1  0
 35 36  1  0
 36 37  1  0
 37 38  2  0
 38 39  1  0
 39 40  2  0
 40 41  1  0
 41 42  2  0
 35 43  1  0
 43 44  1  0
 44 45  2  0
 44 46  1  0
 46 47  1  0
 46 48  1  0
 48 49  1  0
 49 50  2  0
 49 51  1  0
 51 52  1  0
 52 53  1  0
 53 54  2  0
 53 55  1  0
 51 56  1  0
 56 57  1  0
 57 58  2  0
 57 59  1  0
 59 60  1  0
 60 61  1  0
 61 62  2  0
 61 63  1  0
 63 64  1  0
 64 65  1  0
 65 66  2  0
 65 67  1  0
 67 68  1  0
 68 69  1  0
 69 70  2  0
 69 71  1  0
 71 72  1  0
 72 73  1  0
 73 74  2  0
 71 75  1  0
 75 76  1  0
 76 77  2  0
 77 78  1  0
 78 79  1  0
 79 80  2  0
 67 81  1  0
 81 82  1  0
 82 83  2  0
 83 84  1  0
 84 85  2  0
 85 86  1  0
 86 87  2  0
 63 88  1  0
 88 89  1  0
 89 90  1  0
 90 91  1  0
 91 92  2  3
 92 93  1  0
 92 94  1  0
 60 95  1  0
 95 96  1  0
 96 97  2  0
 97 98  1  0
 98 99  2  0
 99100  1  0
100101  2  0
101102  1  0
 30103  1  0
103104  2  0
103105  1  0
  9106  1  0
  7  2  1  0
 73 13  1  0
 80 76  1  0
 87 82  1  0
101 96  1  0
 28 23  1  0
 42 37  1  0
102 59  1  0
  1107  1  0
  3108  1  0
  4109  1  0
  6110  1  0
  7111  1  0
  8112  1  0
  8113  1  0
  9114  1  1
 12115  1  0
 13116  1  1
 14117  1  0
 14118  1  0
 18119  1  1
 21120  1  0
 21121  1  0
 22122  1  0
 22123  1  0
 24124  1  0
 25125  1  0
 27126  1  0
 28127  1  0
 29128  1  0
 31129  1  0
 31130  1  0
 31131  1  0
 32132  1  0
 35133  1  6
 36134  1  0
 36135  1  0
 38136  1  0
 39137  1  0
 40138  1  0
 41139  1  0
 42140  1  0
 43141  1  0
 46142  1  6
 47143  1  0
 47144  1  0
 47145  1  0
 48146  1  0
 51147  1  6
 52148  1  0
 52149  1  0
 55150  1  0
 55151  1  0
 56152  1  0
 59153  1  6
 63154  1  6
 64155  1  0
 67156  1  1
 68157  1  0
 71158  1  6
 72159  1  0
 75160  1  0
 75161  1  0
 77162  1  0
 78163  1  0
 79164  1  0
 81165  1  0
 81166  1  0
 83167  1  0
 84168  1  0
 85169  1  0
 86170  1  0
 87171  1  0
 88172  1  0
 88173  1  0
 89174  1  0
 89175  1  0
 90176  1  0
 90177  1  0
 93178  1  0
 93179  1  0
 94180  1  0
 94181  1  0
 95182  1  0
 95183  1  0
 97184  1  0
 98185  1  0
 99186  1  0
100187  1  0
102188  1  0
102189  1  0
105190  1  0
106191  1  0
106192  1  0
M  END
>  <Ligand ID>  (1) 
LIG0001131

>  <Ligand>  (1) 
CHEMBL2369966

>  <SMILES>  (1) 
Oc1ccc(cc1)C[C@@H](C(=O)N[C@H]1CC(=O)N([C@H](C(=O)N)Cc2ccc(cc2)O)[C@](C)(NC(=O)[C@H](Cc2ccccc2)NC(=O)[C@H](C)NC(=O)[C@H](CC(=O)N)NC(=O)[C@H]2N(C(=O)[C@@H](NC(=O)[C@H](NC(=O)[C@@H](NC1=O)Cc1c[nH]cn1)Cc1ccccc1)CCCN=C(N)N)Cc1ccccc1C2)C(=O)O)N

>  <CID>  (1) 
73356087.0

>  <ChEMBL ID>  (1) 
nan

>  <InChiKey>  (1) 
XLEDYEJZOMFGJB-AOEQFBKDSA-N

>  <InChi>  (1) 
InChI=1S/C72H86N18O16/c1-39-61(96)83-52(30-41-14-7-4-8-15-41)67(102)88-72(2,70(105)106)90(56(60(75)95)31-43-21-25-48(92)26-22-43)59(94)35-55(84-62(97)49(73)28-42-19-23-47(91)24-20-42)66(101)86-53(33-46-36-78-38-80-46)65(100)85-51(29-40-12-5-3-6-13-40)64(99)82-50(18-11-27-79-71(76)77)69(104)89-37-45-17-10-9-16-44(45)32-57(89)68(103)87-54(34-58(74)93)63(98)81-39/h3-10,12-17,19-26,36,38-39,49-57,91-92H,11,18,27-35,37,73H2,1-2H3,(H2,74,93)(H2,75,95)(H,78,80)(H,81,98)(H,82,99)(H,83,96)(H,84,97)(H,85,100)(H,86,101)(H,87,103)(H,88,102)(H,105,106)(H4,76,77,79)/t39-,49-,50-,51+,52-,53-,54-,55-,56-,57-,72-/m0/s1

>  <IUPAC Name>  (1) 
(3S,6R,9S,12S,16S,19S,22S,25S,28S)-15-[(2S)-1-amino-3-(4-hydroxyphenyl)-1-oxopropan-2-yl]-12-[[(2S)-2-amino-3-(4-hydroxyphenyl)propanoyl]amino]-25-(2-amino-2-oxoethyl)-6,19-dibenzyl-3-[3-(diaminomethylideneamino)propyl]-9-(1H-imidazol-4-ylmethyl)-16,22-dimethyl-2,5,8,11,14,18,21,24,27-nonaoxo-1,4,7,10,15,17,20,23,26-nonazatricyclo[26.8.0.030,35]hexatriaconta-30,32,34-triene-16-carboxylic acid

$$$$
