
     RDKit          3D

 27 28  0  0  0  0  0  0  0  0999 V2000
    3.9914   -0.3698    0.3482 N   0  0  0  0  0  0  0  0  0  0  0  0
    2.9686   -0.0999   -0.6143 C   0  0  0  0  0  0  0  0  0  0  0  0
    1.5655   -0.3967   -0.0568 C   0  0  1  0  0  0  0  0  0  0  0  0
    1.2000    0.4353    1.1939 C   0  0  0  0  0  0  0  0  0  0  0  0
    0.5660    0.6197   -0.2166 C   0  0  2  0  0  0  0  0  0  0  0  0
   -0.8811    0.5457   -0.1645 C   0  0  0  0  0  0  0  0  0  0  0  0
   -1.6567   -0.5650   -0.4035 C   0  0  0  0  0  0  0  0  0  0  0  0
   -1.0076   -1.8420   -0.7706 C   0  0  0  0  0  0  0  0  0  0  0  0
   -3.0351   -0.5543   -0.3253 C   0  0  0  0  0  0  0  0  0  0  0  0
   -3.6928    0.6027    0.0035 C   0  0  0  0  0  0  0  0  0  0  0  0
   -2.9530    1.7405    0.2511 C   0  0  0  0  0  0  0  0  0  0  0  0
   -1.5886    1.7107    0.1690 C   0  0  0  0  0  0  0  0  0  0  0  0
   -0.7188    3.2080    0.5003 Cl  0  0  0  0  0  0  0  0  0  0  0  0
    4.8983   -0.3790   -0.1703 H   0  0  0  0  0  0  0  0  0  0  0  0
    3.8927   -1.2795    0.8296 H   0  0  0  0  0  0  0  0  0  0  0  0
    3.0271    0.9425   -0.9438 H   0  0  0  0  0  0  0  0  0  0  0  0
    3.0941   -0.7684   -1.4961 H   0  0  0  0  0  0  0  0  0  0  0  0
    1.4561   -1.4614    0.1575 H   0  0  0  0  0  0  0  0  0  0  0  0
    1.9503    1.1768    1.5184 H   0  0  0  0  0  0  0  0  0  0  0  0
    0.6000   -0.0162    1.9818 H   0  0  0  0  0  0  0  0  0  0  0  0
    0.9218    1.5823   -0.7009 H   0  0  0  0  0  0  0  0  0  0  0  0
   -0.7322   -2.3924    0.1315 H   0  0  0  0  0  0  0  0  0  0  0  0
   -1.7441   -2.5284   -1.2943 H   0  0  0  0  0  0  0  0  0  0  0  0
   -0.2145   -1.6958   -1.5155 H   0  0  0  0  0  0  0  0  0  0  0  0
   -3.6160   -1.4645   -0.5240 H   0  0  0  0  0  0  0  0  0  0  0  0
   -4.7743    0.6175    0.0665 H   0  0  0  0  0  0  0  0  0  0  0  0
   -3.5168    2.6317    0.5074 H   0  0  0  0  0  0  0  0  0  0  0  0
  1  2  1  0
  2  3  1  0
  3  4  1  0
  4  5  1  0
  5  6  1  0
  6  7  2  0
  7  8  1  0
  7  9  1  0
  9 10  2  0
 10 11  1  0
 11 12  2  0
 12 13  1  0
  5  3  1  0
 12  6  1  0
  1 14  1  0
  1 15  1  0
  2 16  1  0
  2 17  1  0
  3 18  1  1
  4 19  1  0
  4 20  1  0
  5 21  1  6
  8 22  1  0
  8 23  1  0
  8 24  1  0
  9 25  1  0
 10 26  1  0
 11 27  1  0
M  END
>  <Ligand ID>  (1) 
LIG0003586

>  <Ligand>  (1) 
CHEMBL474634

>  <SMILES>  (1) 
NC[C@H]1C[C@@H]1c1c(C)cccc1Cl

>  <CID>  (1) 
44572174.0

>  <ChEMBL ID>  (1) 
nan

>  <InChiKey>  (1) 
VMWCRTICMSOLFF-BDAKNGLRSA-N

>  <InChi>  (1) 
InChI=1S/C11H14ClN/c1-7-3-2-4-10(12)11(7)9-5-8(9)6-13/h2-4,8-9H,5-6,13H2,1H3/t8-,9+/m1/s1

>  <IUPAC Name>  (1) 
[(1S,2S)-2-(2-chloro-6-methylphenyl)cyclopropyl]methanamine

$$$$
