
     RDKit          3D

 70 77  0  0  0  0  0  0  0  0999 V2000
    0.4412    0.3385   -3.0968 C   0  0  0  0  0  0  0  0  0  0  0  0
    0.5812   -0.4189   -1.9748 O   0  0  0  0  0  0  0  0  0  0  0  0
   -0.4344   -0.3275   -1.0368 C   0  0  2  0  0  0  0  0  0  0  0  0
   -0.6250    1.0660   -0.5162 C   0  0  0  0  0  0  0  0  0  0  0  0
   -1.4880    1.0277    0.6994 C   0  0  0  0  0  0  0  0  0  0  0  0
   -2.0495   -0.3554    0.9300 C   0  0  2  0  0  0  0  0  0  0  0  0
   -0.9346   -1.2539    1.2742 C   0  0  0  0  0  0  0  0  0  0  0  0
    0.0747   -1.1765    0.1455 C   0  0  2  0  0  0  0  0  0  0  0  0
    1.4030   -0.6403    0.6293 C   0  0  0  0  0  0  0  0  0  0  0  0
    2.3366   -0.7012   -0.4361 O   0  0  0  0  0  0  0  0  0  0  0  0
    3.6429   -0.2726   -0.2772 C   0  0  0  0  0  0  0  0  0  0  0  0
    4.4620   -0.3859   -1.4038 C   0  0  0  0  0  0  0  0  0  0  0  0
    5.7753    0.0120   -1.3500 C   0  0  0  0  0  0  0  0  0  0  0  0
    6.3012    0.5308   -0.1745 C   0  0  0  0  0  0  0  0  0  0  0  0
    5.4811    0.6320    0.9143 C   0  0  0  0  0  0  0  0  0  0  0  0
    4.1454    0.2393    0.8981 C   0  0  0  0  0  0  0  0  0  0  0  0
    7.6616    0.9171   -0.2021 N   0  0  0  0  0  0  0  0  0  0  0  0
    8.2806    1.9798    0.3345 C   0  0  0  0  0  0  0  0  0  0  0  0
    9.6325    1.9349    0.0417 C   0  0  0  0  0  0  0  0  0  0  0  0
    9.8210    0.8143   -0.6892 N   0  0  0  0  0  0  0  0  0  0  0  0
    8.6310    0.2141   -0.8274 C   0  0  0  0  0  0  0  0  0  0  0  0
   -2.6848   -0.8675   -0.3432 C   0  0  2  0  0  0  0  0  0  0  0  0
   -1.6948   -0.9440   -1.5029 C   0  0  1  0  0  0  0  0  0  0  0  0
   -2.3677   -0.2952   -2.5724 O   0  0  0  0  0  0  0  0  0  0  0  0
   -3.3533    0.5739   -2.0899 C   0  0  0  0  0  0  0  0  0  0  0  0
   -3.5249    0.2631   -0.7749 C   0  0  0  0  0  0  0  0  0  0  0  0
   -4.3697    0.8461    0.1163 C   0  0  0  0  0  0  0  0  0  0  0  0
   -4.3834    0.4325    1.5253 C   0  0  0  0  0  0  0  0  0  0  0  0
   -3.1599   -0.3234    1.9407 C   0  0  1  0  0  0  0  0  0  0  0  0
   -3.4802   -1.7364    2.1818 N   0  0  0  0  0  0  0  0  0  0  0  0
   -4.1719   -2.2964    1.0580 C   0  0  0  0  0  0  0  0  0  0  0  0
   -3.4791   -2.1075   -0.2295 C   0  0  0  0  0  0  0  0  0  0  0  0
   -4.1580   -1.9316    3.4227 C   0  0  0  0  0  0  0  0  0  0  0  0
   -5.1553    1.8851   -0.3956 C   0  0  0  0  0  0  0  0  0  0  0  0
   -5.0236    2.2456   -1.7431 C   0  0  0  0  0  0  0  0  0  0  0  0
   -4.1271    1.5961   -2.5915 C   0  0  0  0  0  0  0  0  0  0  0  0
   -3.9841    1.9414   -3.9268 O   0  0  0  0  0  0  0  0  0  0  0  0
   -0.4223    0.1665   -3.7307 H   0  0  0  0  0  0  0  0  0  0  0  0
    1.3351    0.1225   -3.7469 H   0  0  0  0  0  0  0  0  0  0  0  0
    0.5667    1.4039   -2.7993 H   0  0  0  0  0  0  0  0  0  0  0  0
   -1.0432    1.7532   -1.2697 H   0  0  0  0  0  0  0  0  0  0  0  0
    0.4005    1.4778   -0.3014 H   0  0  0  0  0  0  0  0  0  0  0  0
   -2.2337    1.8327    0.6776 H   0  0  0  0  0  0  0  0  0  0  0  0
   -0.8171    1.2180    1.5813 H   0  0  0  0  0  0  0  0  0  0  0  0
   -0.5041   -0.9259    2.2496 H   0  0  0  0  0  0  0  0  0  0  0  0
   -1.2862   -2.3009    1.4095 H   0  0  0  0  0  0  0  0  0  0  0  0
    0.2623   -2.1905   -0.2294 H   0  0  0  0  0  0  0  0  0  0  0  0
    1.7817   -1.3495    1.3964 H   0  0  0  0  0  0  0  0  0  0  0  0
    1.3577    0.3437    1.0980 H   0  0  0  0  0  0  0  0  0  0  0  0
    4.0716   -0.7891   -2.3346 H   0  0  0  0  0  0  0  0  0  0  0  0
    6.3771   -0.0897   -2.2374 H   0  0  0  0  0  0  0  0  0  0  0  0
    5.9140    1.0415    1.8256 H   0  0  0  0  0  0  0  0  0  0  0  0
    3.5004    0.3207    1.7603 H   0  0  0  0  0  0  0  0  0  0  0  0
    7.8051    2.7455    0.9018 H   0  0  0  0  0  0  0  0  0  0  0  0
   10.4267    2.6008    0.2982 H   0  0  0  0  0  0  0  0  0  0  0  0
    8.4894   -0.7044   -1.3684 H   0  0  0  0  0  0  0  0  0  0  0  0
   -1.5457   -1.9841   -1.8371 H   0  0  0  0  0  0  0  0  0  0  0  0
   -4.4404    1.3650    2.1696 H   0  0  0  0  0  0  0  0  0  0  0  0
   -5.3198   -0.1318    1.7173 H   0  0  0  0  0  0  0  0  0  0  0  0
   -2.7815    0.0778    2.8926 H   0  0  0  0  0  0  0  0  0  0  0  0
   -5.2528   -1.9973    0.9935 H   0  0  0  0  0  0  0  0  0  0  0  0
   -4.2177   -3.4051    1.2592 H   0  0  0  0  0  0  0  0  0  0  0  0
   -2.9158   -3.0217   -0.5662 H   0  0  0  0  0  0  0  0  0  0  0  0
   -4.2934   -2.0315   -1.0234 H   0  0  0  0  0  0  0  0  0  0  0  0
   -4.6861   -2.9211    3.3429 H   0  0  0  0  0  0  0  0  0  0  0  0
   -4.9531   -1.1914    3.6243 H   0  0  0  0  0  0  0  0  0  0  0  0
   -3.4788   -1.9464    4.2995 H   0  0  0  0  0  0  0  0  0  0  0  0
   -5.8442    2.3836    0.2622 H   0  0  0  0  0  0  0  0  0  0  0  0
   -5.6315    3.0552   -2.1580 H   0  0  0  0  0  0  0  0  0  0  0  0
   -4.6430    1.6159   -4.6118 H   0  0  0  0  0  0  0  0  0  0  0  0
  1  2  1  0
  3  2  1  6
  3  4  1  0
  4  5  1  0
  6  5  1  6
  6  7  1  0
  7  8  1  0
  8  9  1  0
  9 10  1  0
 10 11  1  0
 11 12  2  0
 12 13  1  0
 13 14  2  0
 14 15  1  0
 15 16  2  0
 14 17  1  0
 17 18  1  0
 18 19  2  0
 19 20  1  0
 20 21  2  0
  6 22  1  0
 22 23  1  0
 23 24  1  0
 24 25  1  0
 25 26  2  0
 26 27  1  0
 27 28  1  0
 28 29  1  0
 29 30  1  0
 30 31  1  0
 31 32  1  0
 30 33  1  0
 27 34  2  0
 34 35  1  0
 35 36  2  0
 36 37  1  0
  8  3  1  0
 16 11  1  0
 21 17  1  0
 22 32  1  1
 23  3  1  0
 36 25  1  0
 29  6  1  0
 26 22  1  0
  1 38  1  0
  1 39  1  0
  1 40  1  0
  4 41  1  0
  4 42  1  0
  5 43  1  0
  5 44  1  0
  7 45  1  0
  7 46  1  0
  8 47  1  6
  9 48  1  0
  9 49  1  0
 12 50  1  0
 13 51  1  0
 15 52  1  0
 16 53  1  0
 18 54  1  0
 19 55  1  0
 21 56  1  0
 23 57  1  6
 28 58  1  0
 28 59  1  0
 29 60  1  1
 31 61  1  0
 31 62  1  0
 32 63  1  0
 32 64  1  0
 33 65  1  0
 33 66  1  0
 33 67  1  0
 34 68  1  0
 35 69  1  0
 37 70  1  0
M  END
>  <Ligand ID>  (1) 
LIG0004591

>  <Ligand>  (1) 
SCHEMBL878576

>  <SMILES>  (1) 
CO[C@]12CC[C@]3(C[C@@H]1COc1ccc(cc1)n1ccnc1)[C@@]14[C@H]2Oc2c4c(C[C@H]3N(CC1)C)ccc2O

>  <CID>  (1) 
66827012.0

>  <ChEMBL ID>  (1) 
nan

>  <InChiKey>  (1) 
NILYQWCAXZIPIK-SNYCAXESSA-N

>  <InChi>  (1) 
InChI=1S/C30H33N3O4/c1-32-13-11-29-25-19-3-8-23(34)26(25)37-27(29)30(35-2)10-9-28(29,24(32)15-19)16-20(30)17-36-22-6-4-21(5-7-22)33-14-12-31-18-33/h3-8,12,14,18,20,24,27,34H,9-11,13,15-17H2,1-2H3/t20-,24-,27-,28-,29+,30-/m1/s1

>  <IUPAC Name>  (1) 
(1S,2S,6R,14R,15R,16R)-16-[(4-imidazol-1-ylphenoxy)methyl]-15-methoxy-5-methyl-13-oxa-5-azahexacyclo[13.2.2.12,8.01,6.02,14.012,20]icosa-8(20),9,11-trien-11-ol

$$$$
