
     RDKit          3D

 48 51  0  0  0  0  0  0  0  0999 V2000
    1.5932   -1.3903    2.7854 O   0  0  0  0  0  0  0  0  0  0  0  0
    1.9751   -1.3350    1.4497 C   0  0  0  0  0  0  0  0  0  0  0  0
    2.2787   -2.4212    0.8647 O   0  0  0  0  0  0  0  0  0  0  0  0
    2.0386   -0.0502    0.6880 C   0  0  2  0  0  0  0  0  0  0  0  0
    1.6552    1.0234    1.5481 N   0  0  0  0  0  0  0  0  0  0  0  0
    1.1082   -0.0679   -0.5116 C   0  0  1  0  0  0  0  0  0  0  0  0
    1.8637   -0.8242   -1.5240 C   0  0  0  0  0  0  0  0  0  0  0  0
    3.3280   -0.5135   -1.2951 C   0  0  2  0  0  0  0  0  0  0  0  0
    3.4152    0.0636    0.1347 C   0  0  1  0  0  0  0  0  0  0  0  0
    3.7924    0.8618   -1.0341 C   0  0  2  0  0  0  0  0  0  0  0  0
    3.0770    1.9778   -1.4262 F   0  0  0  0  0  0  0  0  0  0  0  0
    5.2545    1.0900   -1.2001 C   0  0  0  0  0  0  0  0  0  0  0  0
    5.7131    2.2695   -1.3215 O   0  0  0  0  0  0  0  0  0  0  0  0
    6.1734    0.0458   -1.2300 O   0  0  0  0  0  0  0  0  0  0  0  0
   -0.1593   -0.4398   -0.2040 O   0  0  0  0  0  0  0  0  0  0  0  0
   -1.1832    0.4494   -0.3281 C   0  0  0  0  0  0  0  0  0  0  0  0
   -2.1744   -0.1421   -1.2682 C   0  0  0  0  0  0  0  0  0  0  0  0
   -3.5483   -0.1215   -0.9959 C   0  0  0  0  0  0  0  0  0  0  0  0
   -4.4705   -0.6667   -1.8631 C   0  0  0  0  0  0  0  0  0  0  0  0
   -4.0704   -1.2584   -3.0423 C   0  0  0  0  0  0  0  0  0  0  0  0
   -2.7174   -1.2915   -3.3346 C   0  0  0  0  0  0  0  0  0  0  0  0
   -1.8189   -0.7433   -2.4580 C   0  0  0  0  0  0  0  0  0  0  0  0
   -1.9215    0.6534    0.9699 C   0  0  0  0  0  0  0  0  0  0  0  0
   -2.2681   -0.4200    1.7558 C   0  0  0  0  0  0  0  0  0  0  0  0
   -2.9485   -0.2780    2.9530 C   0  0  0  0  0  0  0  0  0  0  0  0
   -3.2944    1.0073    3.3755 C   0  0  0  0  0  0  0  0  0  0  0  0
   -2.9580    2.1101    2.6038 C   0  0  0  0  0  0  0  0  0  0  0  0
   -2.2783    1.9049    1.4177 C   0  0  0  0  0  0  0  0  0  0  0  0
    1.7186   -2.2420    3.3468 H   0  0  0  0  0  0  0  0  0  0  0  0
    1.1177    0.6329    2.3536 H   0  0  0  0  0  0  0  0  0  0  0  0
    2.4326    1.6105    1.8910 H   0  0  0  0  0  0  0  0  0  0  0  0
    1.0560    0.9966   -0.8403 H   0  0  0  0  0  0  0  0  0  0  0  0
    1.6044   -0.5574   -2.5895 H   0  0  0  0  0  0  0  0  0  0  0  0
    1.7793   -1.9228   -1.4582 H   0  0  0  0  0  0  0  0  0  0  0  0
    4.0649   -1.3023   -1.5673 H   0  0  0  0  0  0  0  0  0  0  0  0
    4.2104   -0.3428    0.8037 H   0  0  0  0  0  0  0  0  0  0  0  0
    7.1751    0.1995   -1.2041 H   0  0  0  0  0  0  0  0  0  0  0  0
   -0.9301    1.4380   -0.6826 H   0  0  0  0  0  0  0  0  0  0  0  0
   -3.8414    0.3440   -0.0719 H   0  0  0  0  0  0  0  0  0  0  0  0
   -5.5120   -0.6015   -1.5629 H   0  0  0  0  0  0  0  0  0  0  0  0
   -4.8181   -1.6742   -3.6971 H   0  0  0  0  0  0  0  0  0  0  0  0
   -2.4470   -1.7671   -4.2729 H   0  0  0  0  0  0  0  0  0  0  0  0
   -0.7733   -0.7927   -2.7289 H   0  0  0  0  0  0  0  0  0  0  0  0
   -2.0182   -1.4313    1.4641 H   0  0  0  0  0  0  0  0  0  0  0  0
   -3.2065   -1.1458    3.5484 H   0  0  0  0  0  0  0  0  0  0  0  0
   -3.8237    1.1772    4.2972 H   0  0  0  0  0  0  0  0  0  0  0  0
   -3.2263    3.1277    2.9271 H   0  0  0  0  0  0  0  0  0  0  0  0
   -2.0175    2.7601    0.8181 H   0  0  0  0  0  0  0  0  0  0  0  0
  1  2  1  0
  2  3  2  0
  2  4  1  0
  4  5  1  1
  4  6  1  0
  6  7  1  0
  7  8  1  0
  8  9  1  0
  9 10  1  0
 10 11  1  6
 10 12  1  0
 12 13  2  0
 12 14  1  0
  6 15  1  0
 15 16  1  0
 16 17  1  0
 17 18  2  0
 18 19  1  0
 19 20  2  0
 20 21  1  0
 21 22  2  0
 16 23  1  0
 23 24  2  0
 24 25  1  0
 25 26  2  0
 26 27  1  0
 27 28  2  0
  9  4  1  0
 22 17  1  0
 28 23  1  0
 10  8  1  0
  1 29  1  0
  5 30  1  0
  5 31  1  0
  6 32  1  6
  7 33  1  0
  7 34  1  0
  8 35  1  1
  9 36  1  1
 14 37  1  0
 16 38  1  0
 18 39  1  0
 19 40  1  0
 20 41  1  0
 21 42  1  0
 22 43  1  0
 24 44  1  0
 25 45  1  0
 26 46  1  0
 27 47  1  0
 28 48  1  0
M  END
>  <Ligand ID>  (1) 
LIG0005704

>  <Ligand>  (1) 
CHEMBL434536

>  <SMILES>  (1) 
OC(=O)[C@]1(N)[C@@H](C[C@@H]2[C@H]1[C@@]2(F)C(=O)O)OC(c1ccccc1)c1ccccc1

>  <CID>  (1) 
11257636.0

>  <ChEMBL ID>  (1) 
nan

>  <InChiKey>  (1) 
JDGNIRIWWBLMNA-NROPHMHMSA-N

>  <InChi>  (1) 
InChI=1S/C21H20FNO5/c22-20(18(24)25)14-11-15(21(23,17(14)20)19(26)27)28-16(12-7-3-1-4-8-12)13-9-5-2-6-10-13/h1-10,14-17H,11,23H2,(H,24,25)(H,26,27)/t14-,15-,17+,20-,21+/m1/s1

>  <IUPAC Name>  (1) 
(1R,2R,3R,5R,6R)-2-amino-3-benzhydryloxy-6-fluorobicyclo[3.1.0]hexane-2,6-dicarboxylic acid

$$$$
