
     RDKit          3D

 24 25  0  0  0  0  0  0  0  0999 V2000
    3.7227   -0.4050   -0.4066 O   0  0  0  0  0  0  0  0  0  0  0  0
    2.5911   -0.3048    0.3946 C   0  0  0  0  0  0  0  0  0  0  0  0
    2.7046   -0.6909    1.6051 O   0  0  0  0  0  0  0  0  0  0  0  0
    1.2980    0.2057   -0.0493 C   0  0  1  0  0  0  0  0  0  0  0  0
    0.6343   -0.5439   -1.1960 C   0  0  1  0  0  0  0  0  0  0  0  0
    0.2321   -1.5718   -0.1327 C   0  0  0  0  0  0  0  0  0  0  0  0
    0.1118   -0.3520    0.7323 C   0  0  2  0  0  0  0  0  0  0  0  0
   -0.9785    0.4560    0.0968 C   0  0  2  0  0  0  0  0  0  0  0  0
   -0.6910    0.1303   -1.3606 C   0  0  0  0  0  0  0  0  0  0  0  0
   -0.7397    1.8908    0.2463 N   0  0  0  0  0  0  0  0  0  0  0  0
   -2.3121    0.0449    0.5506 C   0  0  0  0  0  0  0  0  0  0  0  0
   -2.6910   -1.1453    0.4976 O   0  0  0  0  0  0  0  0  0  0  0  0
   -3.2409    0.9642    1.0711 O   0  0  0  0  0  0  0  0  0  0  0  0
    4.6340   -0.1387   -0.0143 H   0  0  0  0  0  0  0  0  0  0  0  0
    1.2121    1.3054   -0.1878 H   0  0  0  0  0  0  0  0  0  0  0  0
    1.1993   -0.8623   -2.0268 H   0  0  0  0  0  0  0  0  0  0  0  0
   -0.7112   -2.0331   -0.4749 H   0  0  0  0  0  0  0  0  0  0  0  0
    1.0025   -2.2964    0.1334 H   0  0  0  0  0  0  0  0  0  0  0  0
    0.1762   -0.4368    1.7872 H   0  0  0  0  0  0  0  0  0  0  0  0
   -0.6672    1.0235   -2.0065 H   0  0  0  0  0  0  0  0  0  0  0  0
   -1.4150   -0.6450   -1.6530 H   0  0  0  0  0  0  0  0  0  0  0  0
   -1.1824    2.2652    1.1057 H   0  0  0  0  0  0  0  0  0  0  0  0
   -1.0885    2.4001   -0.5953 H   0  0  0  0  0  0  0  0  0  0  0  0
   -3.8012    0.7398    1.8830 H   0  0  0  0  0  0  0  0  0  0  0  0
  1  2  1  0
  2  3  2  0
  2  4  1  0
  4  5  1  0
  5  6  1  0
  6  7  1  0
  7  8  1  0
  8  9  1  0
  8 10  1  6
  8 11  1  0
 11 12  2  0
 11 13  1  0
  7  4  1  0
  9  5  1  0
  1 14  1  0
  4 15  1  6
  5 16  1  6
  6 17  1  0
  6 18  1  0
  7 19  1  1
  9 20  1  0
  9 21  1  0
 10 22  1  0
 10 23  1  0
 13 24  1  0
M  END
>  <Ligand ID>  (1) 
LIG0000821

>  <Ligand>  (1) 
CHEMBL296054

>  <SMILES>  (1) 
OC(=O)[C@H]1[C@H]2C[C@@H]1[C@](C2)(N)C(=O)O

>  <CID>  (1) 
10846649.0

>  <ChEMBL ID>  (1) 
nan

>  <InChiKey>  (1) 
JCGJEPFYMOHIDP-RGDLXGNYSA-N

>  <InChi>  (1) 
InChI=1S/C8H11NO4/c9-8(7(12)13)2-3-1-4(8)5(3)6(10)11/h3-5H,1-2,9H2,(H,10,11)(H,12,13)/t3-,4-,5-,8-/m0/s1

>  <IUPAC Name>  (1) 
(1S,2S,4S,5S)-2-aminobicyclo[2.1.1]hexane-2,5-dicarboxylic acid

$$$$
