
     RDKit          3D

 92 96  0  0  0  0  0  0  0  0999 V2000
   -0.1229    5.7514   -2.1592 N   0  0  0  0  0  0  0  0  0  0  0  0
    0.9629    5.4117   -3.0356 C   0  0  0  0  0  0  0  0  0  0  0  0
    1.0385    4.2860   -3.6459 N   0  0  0  0  0  0  0  0  0  0  0  0
    0.0833    3.2286   -3.5511 C   0  0  0  0  0  0  0  0  0  0  0  0
    0.6996    2.1162   -2.6939 C   0  0  0  0  0  0  0  0  0  0  0  0
    1.0241    2.6209   -1.3403 C   0  0  0  0  0  0  0  0  0  0  0  0
    1.6338    1.6458   -0.3857 C   0  0  2  0  0  0  0  0  0  0  0  0
    2.9156    1.0674   -0.8147 C   0  0  0  0  0  0  0  0  0  0  0  0
    2.8015   -0.4124   -0.6105 C   0  0  2  0  0  0  0  0  0  0  0  0
    1.6424   -0.5936    0.3839 C   0  0  0  0  0  0  0  0  0  0  0  0
    0.7958    0.5538    0.0138 N   0  0  0  0  0  0  0  0  0  0  0  0
   -0.6212    0.4903    0.0863 C   0  0  0  0  0  0  0  0  0  0  0  0
   -1.3605    1.4792   -0.2639 O   0  0  0  0  0  0  0  0  0  0  0  0
   -1.3716   -0.7000    0.5639 C   0  0  2  0  0  0  0  0  0  0  0  0
   -2.8176   -0.4878    0.3846 N   0  0  0  0  0  0  0  0  0  0  0  0
   -3.5618   -1.4287   -0.3808 C   0  0  0  0  0  0  0  0  0  0  0  0
   -2.9709   -2.4345   -0.8963 O   0  0  0  0  0  0  0  0  0  0  0  0
   -5.0144   -1.3221   -0.6292 C   0  0  2  0  0  0  0  0  0  0  0  0
   -5.2713   -1.3813   -2.1065 C   0  0  0  0  0  0  0  0  0  0  0  0
   -6.7183   -1.2804   -2.4203 C   0  0  0  0  0  0  0  0  0  0  0  0
   -7.5533   -2.3451   -2.5181 N   0  0  0  0  0  0  0  0  0  0  0  0
   -8.8015   -1.9254   -2.8145 C   0  0  0  0  0  0  0  0  0  0  0  0
   -8.7651   -0.5815   -2.9071 N   0  0  0  0  0  0  0  0  0  0  0  0
   -7.5023   -0.1816   -2.6685 C   0  0  0  0  0  0  0  0  0  0  0  0
   -5.5875   -0.1529   -0.0272 N   0  0  0  0  0  0  0  0  0  0  0  0
   -6.5743   -0.1781    0.9976 C   0  0  0  0  0  0  0  0  0  0  0  0
   -7.0405   -1.2533    1.4758 O   0  0  0  0  0  0  0  0  0  0  0  0
   -7.0624    1.1500    1.5118 C   0  0  0  0  0  0  0  0  0  0  0  0
   -1.0842   -0.9435    2.0346 C   0  0  0  0  0  0  0  0  0  0  0  0
   -1.4768    0.2105    2.8699 C   0  0  0  0  0  0  0  0  0  0  0  0
   -2.7451    0.3368    3.4305 C   0  0  0  0  0  0  0  0  0  0  0  0
   -3.0441    1.4416    4.1969 C   0  0  0  0  0  0  0  0  0  0  0  0
   -2.1249    2.4286    4.4271 C   0  0  0  0  0  0  0  0  0  0  0  0
   -0.8730    2.3176    3.8818 C   0  0  0  0  0  0  0  0  0  0  0  0
   -0.5532    1.2120    3.1067 C   0  0  0  0  0  0  0  0  0  0  0  0
    3.9439   -0.8951   -0.0145 O   0  0  0  0  0  0  0  0  0  0  0  0
    4.4784   -1.9406   -0.7929 C   0  0  0  0  0  0  0  0  0  0  0  0
    5.7010   -2.4149   -0.0972 C   0  0  0  0  0  0  0  0  0  0  0  0
    6.9378   -1.8374   -0.3845 C   0  0  0  0  0  0  0  0  0  0  0  0
    8.1013   -2.2356    0.2257 C   0  0  0  0  0  0  0  0  0  0  0  0
    8.0805   -3.2519    1.1721 C   0  0  0  0  0  0  0  0  0  0  0  0
    6.8565   -3.8343    1.4668 C   0  0  0  0  0  0  0  0  0  0  0  0
    5.6810   -3.4303    0.8487 C   0  0  0  0  0  0  0  0  0  0  0  0
    6.8176   -4.8545    2.4132 C   0  0  0  0  0  0  0  0  0  0  0  0
    7.9615   -5.2955    3.0591 C   0  0  0  0  0  0  0  0  0  0  0  0
    9.1506   -4.6874    2.7329 C   0  0  0  0  0  0  0  0  0  0  0  0
    9.2392   -3.6703    1.8000 C   0  0  0  0  0  0  0  0  0  0  0  0
    1.9895    6.3770   -3.2227 N   0  0  0  0  0  0  0  0  0  0  0  0
   -0.0306    5.5882   -1.1273 H   0  0  0  0  0  0  0  0  0  0  0  0
   -1.0128    6.1656   -2.5553 H   0  0  0  0  0  0  0  0  0  0  0  0
   -0.8167    3.6421   -3.0466 H   0  0  0  0  0  0  0  0  0  0  0  0
   -0.2414    2.8328   -4.5298 H   0  0  0  0  0  0  0  0  0  0  0  0
   -0.0421    1.3072   -2.6621 H   0  0  0  0  0  0  0  0  0  0  0  0
    1.5808    1.7918   -3.2841 H   0  0  0  0  0  0  0  0  0  0  0  0
    0.1399    3.0976   -0.8899 H   0  0  0  0  0  0  0  0  0  0  0  0
    1.7753    3.4668   -1.4166 H   0  0  0  0  0  0  0  0  0  0  0  0
    1.8410    2.2320    0.5600 H   0  0  0  0  0  0  0  0  0  0  0  0
    3.7936    1.4843   -0.2408 H   0  0  0  0  0  0  0  0  0  0  0  0
    3.1338    1.1948   -1.9047 H   0  0  0  0  0  0  0  0  0  0  0  0
    2.5736   -0.9596   -1.5580 H   0  0  0  0  0  0  0  0  0  0  0  0
    1.1589   -1.5569    0.2576 H   0  0  0  0  0  0  0  0  0  0  0  0
    1.9822   -0.4172    1.4027 H   0  0  0  0  0  0  0  0  0  0  0  0
   -1.1202   -1.6124    0.0014 H   0  0  0  0  0  0  0  0  0  0  0  0
   -3.3093    0.3320    0.8036 H   0  0  0  0  0  0  0  0  0  0  0  0
   -5.4655   -2.2393   -0.1599 H   0  0  0  0  0  0  0  0  0  0  0  0
   -4.8668   -2.3382   -2.5148 H   0  0  0  0  0  0  0  0  0  0  0  0
   -4.6775   -0.5912   -2.6351 H   0  0  0  0  0  0  0  0  0  0  0  0
   -7.2600   -3.3451   -2.3815 H   0  0  0  0  0  0  0  0  0  0  0  0
   -9.6352   -2.6067   -2.9401 H   0  0  0  0  0  0  0  0  0  0  0  0
   -7.1465    0.8503   -2.6700 H   0  0  0  0  0  0  0  0  0  0  0  0
   -5.2398    0.7806   -0.3827 H   0  0  0  0  0  0  0  0  0  0  0  0
   -6.2595    1.8897    1.6137 H   0  0  0  0  0  0  0  0  0  0  0  0
   -7.5677    0.9626    2.4798 H   0  0  0  0  0  0  0  0  0  0  0  0
   -7.8044    1.5422    0.7584 H   0  0  0  0  0  0  0  0  0  0  0  0
   -0.0660   -1.2730    2.2532 H   0  0  0  0  0  0  0  0  0  0  0  0
   -1.7412   -1.8024    2.3676 H   0  0  0  0  0  0  0  0  0  0  0  0
   -3.4792   -0.4541    3.2452 H   0  0  0  0  0  0  0  0  0  0  0  0
   -4.0327    1.5469    4.6381 H   0  0  0  0  0  0  0  0  0  0  0  0
   -2.4025    3.2770    5.0343 H   0  0  0  0  0  0  0  0  0  0  0  0
   -0.1427    3.0904    4.0574 H   0  0  0  0  0  0  0  0  0  0  0  0
    0.4536    1.1935    2.7110 H   0  0  0  0  0  0  0  0  0  0  0  0
    3.7235   -2.7676   -0.8791 H   0  0  0  0  0  0  0  0  0  0  0  0
    4.7235   -1.5264   -1.7949 H   0  0  0  0  0  0  0  0  0  0  0  0
    6.9972   -1.0337   -1.1238 H   0  0  0  0  0  0  0  0  0  0  0  0
    9.0680   -1.7946    0.0102 H   0  0  0  0  0  0  0  0  0  0  0  0
    4.7537   -3.9015    1.0992 H   0  0  0  0  0  0  0  0  0  0  0  0
    5.8702   -5.3265    2.6602 H   0  0  0  0  0  0  0  0  0  0  0  0
    7.8880   -6.1024    3.7992 H   0  0  0  0  0  0  0  0  0  0  0  0
   10.0421   -5.0574    3.2601 H   0  0  0  0  0  0  0  0  0  0  0  0
   10.2010   -3.2099    1.5662 H   0  0  0  0  0  0  0  0  0  0  0  0
    1.8122    7.2108   -3.8243 H   0  0  0  0  0  0  0  0  0  0  0  0
    2.9301    6.2616   -2.7608 H   0  0  0  0  0  0  0  0  0  0  0  0
  1  2  1  0
  2  3  2  3
  3  4  1  0
  4  5  1  0
  5  6  1  0
  6  7  1  0
  7  8  1  0
  8  9  1  0
  9 10  1  0
 10 11  1  0
 11 12  1  0
 12 13  2  0
 12 14  1  0
 14 15  1  0
 15 16  1  0
 16 17  2  0
 16 18  1  0
 18 19  1  0
 19 20  1  0
 20 21  1  0
 21 22  1  0
 22 23  2  0
 23 24  1  0
 18 25  1  0
 25 26  1  0
 26 27  2  0
 26 28  1  0
 14 29  1  0
 29 30  1  0
 30 31  2  0
 31 32  1  0
 32 33  2  0
 33 34  1  0
 34 35  2  0
  9 36  1  0
 36 37  1  0
 37 38  1  0
 38 39  2  0
 39 40  1  0
 40 41  2  0
 41 42  1  0
 42 43  2  0
 42 44  1  0
 44 45  2  0
 45 46  1  0
 46 47  2  0
  2 48  1  0
 11  7  1  0
 24 20  2  0
 35 30  1  0
 43 38  1  0
 47 41  1  0
  1 49  1  0
  1 50  1  0
  4 51  1  0
  4 52  1  0
  5 53  1  0
  5 54  1  0
  6 55  1  0
  6 56  1  0
  7 57  1  1
  8 58  1  0
  8 59  1  0
  9 60  1  6
 10 61  1  0
 10 62  1  0
 14 63  1  6
 15 64  1  0
 18 65  1  1
 19 66  1  0
 19 67  1  0
 21 68  1  0
 22 69  1  0
 24 70  1  0
 25 71  1  0
 28 72  1  0
 28 73  1  0
 28 74  1  0
 29 75  1  0
 29 76  1  0
 31 77  1  0
 32 78  1  0
 33 79  1  0
 34 80  1  0
 35 81  1  0
 37 82  1  0
 37 83  1  0
 39 84  1  0
 40 85  1  0
 43 86  1  0
 44 87  1  0
 45 88  1  0
 46 89  1  0
 47 90  1  0
 48 91  1  0
 48 92  1  0
M  END
>  <Ligand ID>  (1) 
LIG0003307

>  <Ligand>  (1) 
CHEMBL211419

>  <SMILES>  (1) 
NC(=NCCC[C@@H]1C[C@H](CN1C(=O)[C@H](NC(=O)[C@H](Cc1[nH]cnc1)NC(=O)C)Cc1ccccc1)OCc1ccc2c(c1)cccc2)N

>  <CID>  (1) 
11845804.0

>  <ChEMBL ID>  (1) 
nan

>  <InChiKey>  (1) 
NSMUITYTUDRYSP-NXVJRICRSA-N

>  <InChi>  (1) 
InChI=1S/C36H44N8O4/c1-24(45)42-32(18-29-20-39-23-41-29)34(46)43-33(17-25-8-3-2-4-9-25)35(47)44-21-31(19-30(44)12-7-15-40-36(37)38)48-22-26-13-14-27-10-5-6-11-28(27)16-26/h2-6,8-11,13-14,16,20,23,30-33H,7,12,15,17-19,21-22H2,1H3,(H,39,41)(H,42,45)(H,43,46)(H4,37,38,40)/t30-,31-,32+,33-/m1/s1

>  <IUPAC Name>  (1) 
(2S)-2-acetamido-N-[(2R)-1-[(2R,4R)-2-[3-(diaminomethylideneamino)propyl]-4-(naphthalen-2-ylmethoxy)pyrrolidin-1-yl]-1-oxo-3-phenylpropan-2-yl]-3-(1H-imidazol-5-yl)propanamide

$$$$
