
     RDKit          3D

 41 44  0  0  0  0  0  0  0  0999 V2000
   -1.2713   -3.0404    1.9345 C   0  0  0  0  0  0  0  0  0  0  0  0
   -1.0315   -1.7074    1.3028 C   0  0  0  0  0  0  0  0  0  0  0  0
    0.1511   -1.1673    0.9442 N   0  0  0  0  0  0  0  0  0  0  0  0
   -0.0166    0.0321    0.4120 N   0  0  0  0  0  0  0  0  0  0  0  0
   -1.3364    0.2861    0.4206 C   0  0  0  0  0  0  0  0  0  0  0  0
   -2.0052   -0.7839    0.9727 C   0  0  0  0  0  0  0  0  0  0  0  0
   -3.4530   -0.5673    1.0104 C   0  0  1  0  0  0  0  0  0  0  0  0
   -3.6188    0.8464    0.6243 C   0  0  1  0  0  0  0  0  0  0  0  0
   -2.3248    1.3448    0.0301 C   0  0  0  0  0  0  0  0  0  0  0  0
   -4.2401   -0.2699   -0.1974 C   0  0  0  0  0  0  0  0  0  0  0  0
   -3.6883   -0.5658   -1.5755 C   0  0  0  0  0  0  0  0  0  0  0  0
   -5.7263   -0.3176   -0.1078 C   0  0  0  0  0  0  0  0  0  0  0  0
    0.9820    0.9129   -0.0849 C   0  0  0  0  0  0  0  0  0  0  0  0
    0.6617    2.0456   -0.5722 O   0  0  0  0  0  0  0  0  0  0  0  0
    2.3945    0.5267   -0.0418 C   0  0  0  0  0  0  0  0  0  0  0  0
    3.3223    1.3408   -0.5015 C   0  0  0  0  0  0  0  0  0  0  0  0
    4.7324    1.0574   -0.5053 C   0  0  0  0  0  0  0  0  0  0  0  0
    5.2657   -0.1166   -0.0192 C   0  0  0  0  0  0  0  0  0  0  0  0
    6.6300   -0.3602   -0.0367 C   0  0  0  0  0  0  0  0  0  0  0  0
    7.4808    0.5570   -0.5361 N   0  0  0  0  0  0  0  0  0  0  0  0
    7.0001    1.7092   -1.0172 C   0  0  0  0  0  0  0  0  0  0  0  0
    5.6299    1.9798   -1.0115 C   0  0  0  0  0  0  0  0  0  0  0  0
   -0.4387   -3.3262    2.6158 H   0  0  0  0  0  0  0  0  0  0  0  0
   -2.1956   -3.0125    2.5533 H   0  0  0  0  0  0  0  0  0  0  0  0
   -1.3536   -3.8471    1.1813 H   0  0  0  0  0  0  0  0  0  0  0  0
   -4.0263   -0.9686    1.8811 H   0  0  0  0  0  0  0  0  0  0  0  0
   -4.2370    1.5008    1.2430 H   0  0  0  0  0  0  0  0  0  0  0  0
   -2.3768    1.3474   -1.0806 H   0  0  0  0  0  0  0  0  0  0  0  0
   -2.0509    2.3089    0.4662 H   0  0  0  0  0  0  0  0  0  0  0  0
   -2.5924   -0.6255   -1.6178 H   0  0  0  0  0  0  0  0  0  0  0  0
   -4.0793   -1.5735   -1.8645 H   0  0  0  0  0  0  0  0  0  0  0  0
   -4.0979    0.1874   -2.2818 H   0  0  0  0  0  0  0  0  0  0  0  0
   -6.0969   -0.8255    0.8126 H   0  0  0  0  0  0  0  0  0  0  0  0
   -6.2156   -0.7262   -1.0317 H   0  0  0  0  0  0  0  0  0  0  0  0
   -6.1065    0.7343   -0.0258 H   0  0  0  0  0  0  0  0  0  0  0  0
    2.6681   -0.4230    0.3663 H   0  0  0  0  0  0  0  0  0  0  0  0
    2.9659    2.2918   -0.9024 H   0  0  0  0  0  0  0  0  0  0  0  0
    4.6379   -0.8919    0.3944 H   0  0  0  0  0  0  0  0  0  0  0  0
    7.0678   -1.2707    0.3380 H   0  0  0  0  0  0  0  0  0  0  0  0
    7.7014    2.4342   -1.4148 H   0  0  0  0  0  0  0  0  0  0  0  0
    5.2878    2.9436   -1.4196 H   0  0  0  0  0  0  0  0  0  0  0  0
  1  2  1  0
  2  3  2  0
  3  4  1  0
  4  5  1  0
  5  6  2  0
  6  7  1  0
  7  8  1  0
  8  9  1  0
  8 10  1  0
 10 11  1  0
 10 12  1  0
  4 13  1  0
 13 14  2  0
 13 15  1  0
 15 16  2  0
 16 17  1  0
 17 18  2  0
 18 19  1  0
 19 20  2  0
 20 21  1  0
 21 22  2  0
  6  2  1  0
 10  7  1  0
 22 17  1  0
  9  5  1  0
  1 23  1  0
  1 24  1  0
  1 25  1  0
  7 26  1  1
  8 27  1  1
  9 28  1  0
  9 29  1  0
 11 30  1  0
 11 31  1  0
 11 32  1  0
 12 33  1  0
 12 34  1  0
 12 35  1  0
 15 36  1  0
 16 37  1  0
 18 38  1  0
 19 39  1  0
 21 40  1  0
 22 41  1  0
M  END
>  <Ligand ID>  (1) 
LIG0003971

>  <Ligand>  (1) 
CHEMBL590383

>  <SMILES>  (1) 
Cc1nn(c2c1[C@H]1[C@@H](C2)C1(C)C)C(=O)/C=C/c1ccncc1

>  <CID>  (1) 
46224767.0

>  <ChEMBL ID>  (1) 
nan

>  <InChiKey>  (1) 
NEXHZTSGFKLJQD-SSDWJNDTSA-N

>  <InChi>  (1) 
InChI=1S/C18H19N3O/c1-11-16-14(10-13-17(16)18(13,2)3)21(20-11)15(22)5-4-12-6-8-19-9-7-12/h4-9,13,17H,10H2,1-3H3/b5-4+/t13-,17-/m1/s1

>  <IUPAC Name>  (1) 
(E)-3-pyridin-4-yl-1-[(2S,4R)-3,3,9-trimethyl-7,8-diazatricyclo[4.3.0.02,4]nona-1(6),8-dien-7-yl]prop-2-en-1-one

$$$$
