
     RDKit          3D

 57 63  0  0  0  0  0  0  0  0999 V2000
    0.2766   -4.0911   -1.7138 C   0  0  0  0  0  0  0  0  0  0  0  0
   -0.1590   -3.1002   -0.6200 C   0  0  0  0  0  0  0  0  0  0  0  0
   -0.2464   -1.7797   -1.1224 N   0  0  0  0  0  0  0  0  0  0  0  0
   -0.6723   -0.7506   -0.2216 C   0  0  1  0  0  0  0  0  0  0  0  0
    0.2937   -0.6680    0.9229 C   0  0  0  0  0  0  0  0  0  0  0  0
    1.5309   -0.0062    0.5296 C   0  0  0  0  0  0  0  0  0  0  0  0
    2.7805   -0.0381    1.1663 C   0  0  0  0  0  0  0  0  0  0  0  0
    3.2271   -0.6838    2.3235 C   0  0  0  0  0  0  0  0  0  0  0  0
    4.5433   -0.5491    2.7475 C   0  0  0  0  0  0  0  0  0  0  0  0
    5.4404    0.2324    2.0260 C   0  0  0  0  0  0  0  0  0  0  0  0
    4.9998    0.8738    0.8780 C   0  0  0  0  0  0  0  0  0  0  0  0
    3.6771    0.7348    0.4571 C   0  0  0  0  0  0  0  0  0  0  0  0
    3.0068    1.2388   -0.5981 N   0  0  0  0  0  0  0  0  0  0  0  0
    1.7305    0.8025   -0.5616 C   0  0  0  0  0  0  0  0  0  0  0  0
    0.6213    1.0610   -1.4720 C   0  0  1  0  0  0  0  0  0  0  0  0
   -0.6898    0.5539   -0.9352 C   0  0  1  0  0  0  0  0  0  0  0  0
   -1.6810    0.5854   -2.0639 C   0  0  0  0  0  0  0  0  0  0  0  0
   -3.0490    0.3374   -1.4769 C   0  0  0  0  0  0  0  0  0  0  0  0
   -3.0862   -0.8897   -0.7199 N   0  0  0  0  0  0  0  0  0  0  0  0
   -2.0771   -0.9705    0.2922 C   0  0  0  0  0  0  0  0  0  0  0  0
   -2.4232    0.0389    1.3442 C   0  0  0  0  0  0  0  0  0  0  0  0
   -1.8824    1.3896    1.0934 C   0  0  0  0  0  0  0  0  0  0  0  0
   -1.0490    1.5893    0.0471 C   0  0  0  0  0  0  0  0  0  0  0  0
   -0.4285    2.7431   -0.3052 C   0  0  0  0  0  0  0  0  0  0  0  0
    0.3350    2.4839   -1.4352 O   0  0  0  0  0  0  0  0  0  0  0  0
   -0.6832    3.8503    0.5025 C   0  0  0  0  0  0  0  0  0  0  0  0
   -1.5386    3.7121    1.6000 C   0  0  0  0  0  0  0  0  0  0  0  0
   -2.1426    2.4874    1.9045 C   0  0  0  0  0  0  0  0  0  0  0  0
   -0.0766    5.0570    0.1882 O   0  0  0  0  0  0  0  0  0  0  0  0
   -3.2014   -1.9943   -1.6043 C   0  0  0  0  0  0  0  0  0  0  0  0
    0.9763   -4.8538   -1.3283 H   0  0  0  0  0  0  0  0  0  0  0  0
    0.6797   -3.5084   -2.5736 H   0  0  0  0  0  0  0  0  0  0  0  0
   -0.6001   -4.6647   -2.1096 H   0  0  0  0  0  0  0  0  0  0  0  0
    0.5596   -3.2739    0.2050 H   0  0  0  0  0  0  0  0  0  0  0  0
   -1.1291   -3.4795   -0.2428 H   0  0  0  0  0  0  0  0  0  0  0  0
    0.6036   -1.4677   -1.6130 H   0  0  0  0  0  0  0  0  0  0  0  0
   -0.0998   -0.0848    1.8039 H   0  0  0  0  0  0  0  0  0  0  0  0
    0.5406   -1.6565    1.3657 H   0  0  0  0  0  0  0  0  0  0  0  0
    2.5317   -1.2873    2.8794 H   0  0  0  0  0  0  0  0  0  0  0  0
    4.8527   -1.0716    3.6595 H   0  0  0  0  0  0  0  0  0  0  0  0
    6.4813    0.3412    2.3580 H   0  0  0  0  0  0  0  0  0  0  0  0
    5.6677    1.4857    0.2966 H   0  0  0  0  0  0  0  0  0  0  0  0
    3.4142    1.8653   -1.3238 H   0  0  0  0  0  0  0  0  0  0  0  0
    0.7330    0.7416   -2.5038 H   0  0  0  0  0  0  0  0  0  0  0  0
   -1.4455   -0.1569   -2.8551 H   0  0  0  0  0  0  0  0  0  0  0  0
   -1.6595    1.6057   -2.4977 H   0  0  0  0  0  0  0  0  0  0  0  0
   -3.3970    1.2116   -0.9097 H   0  0  0  0  0  0  0  0  0  0  0  0
   -3.7514    0.2154   -2.3349 H   0  0  0  0  0  0  0  0  0  0  0  0
   -2.1273   -1.9825    0.7278 H   0  0  0  0  0  0  0  0  0  0  0  0
   -3.5511    0.1611    1.3747 H   0  0  0  0  0  0  0  0  0  0  0  0
   -2.1850   -0.3245    2.3712 H   0  0  0  0  0  0  0  0  0  0  0  0
   -1.7460    4.5641    2.2358 H   0  0  0  0  0  0  0  0  0  0  0  0
   -2.8051    2.3670    2.7502 H   0  0  0  0  0  0  0  0  0  0  0  0
   -0.0282    5.8278    0.8223 H   0  0  0  0  0  0  0  0  0  0  0  0
   -2.4307   -1.9982   -2.4155 H   0  0  0  0  0  0  0  0  0  0  0  0
   -4.1670   -1.8464   -2.1706 H   0  0  0  0  0  0  0  0  0  0  0  0
   -3.2941   -2.9799   -1.1444 H   0  0  0  0  0  0  0  0  0  0  0  0
  1  2  1  0
  2  3  1  0
  4  3  1  6
  4  5  1  0
  5  6  1  0
  6  7  1  0
  7  8  2  0
  8  9  1  0
  9 10  2  0
 10 11  1  0
 11 12  2  0
 12 13  1  0
 13 14  1  0
 14 15  1  0
 15 16  1  0
 16 17  1  6
 17 18  1  0
 18 19  1  0
 19 20  1  0
 20 21  1  0
 21 22  1  0
 22 23  2  0
 23 24  1  0
 24 25  1  0
 24 26  2  0
 26 27  1  0
 27 28  2  0
 26 29  1  0
 19 30  1  0
 20  4  1  0
 28 22  1  0
 16  4  1  0
 14  6  2  0
 25 15  1  0
 12  7  1  0
 23 16  1  0
  1 31  1  0
  1 32  1  0
  1 33  1  0
  2 34  1  0
  2 35  1  0
  3 36  1  0
  5 37  1  0
  5 38  1  0
  8 39  1  0
  9 40  1  0
 10 41  1  0
 11 42  1  0
 13 43  1  0
 15 44  1  6
 17 45  1  0
 17 46  1  0
 18 47  1  0
 18 48  1  0
 20 49  1  0
 21 50  1  0
 21 51  1  0
 27 52  1  0
 28 53  1  0
 29 54  1  0
 30 55  1  0
 30 56  1  0
 30 57  1  0
M  END
>  <Ligand ID>  (1) 
LIG0004385

>  <Ligand>  (1) 
CHEMBL2113383

>  <SMILES>  (1) 
CCN[C@]12Cc3c4ccccc4[nH]c3[C@H]3[C@]42CCN(C1Cc1c4c(O3)c(cc1)O)C

>  <CID>  (1) 
71452746.0

>  <ChEMBL ID>  (1) 
nan

>  <InChiKey>  (1) 
KNIJPQOCIDQTJR-DYZJZLFBSA-N

>  <InChi>  (1) 
InChI=1S/C25H27N3O2/c1-3-26-25-13-16-15-6-4-5-7-17(15)27-21(16)23-24(25)10-11-28(2)19(25)12-14-8-9-18(29)22(30-23)20(14)24/h4-9,19,23,26-27,29H,3,10-13H2,1-2H3/t19?,23-,24-,25+/m0/s1

>  <IUPAC Name>  (1) 
(1R,2S,13R)-2-(ethylamino)-22-methyl-14-oxa-11,22-diazaheptacyclo[13.9.1.01,13.02,21.04,12.05,10.019,25]pentacosa-4(12),5,7,9,15,17,19(25)-heptaen-16-ol

$$$$
