
     RDKit          3D

 56 60  0  0  0  0  0  0  0  0999 V2000
   -3.8704   -0.3959   -5.9132 Cl  0  0  0  0  0  0  0  0  0  0  0  0
   -3.5883   -0.2398   -4.1945 C   0  0  0  0  0  0  0  0  0  0  0  0
   -4.2868   -0.9632   -3.2526 C   0  0  0  0  0  0  0  0  0  0  0  0
   -4.0446   -0.8227   -1.8843 C   0  0  0  0  0  0  0  0  0  0  0  0
   -3.0761    0.0708   -1.5074 C   0  0  0  0  0  0  0  0  0  0  0  0
   -2.3817    0.7909   -2.4585 C   0  0  0  0  0  0  0  0  0  0  0  0
   -2.6063    0.6656   -3.8026 C   0  0  0  0  0  0  0  0  0  0  0  0
   -2.7196    0.3117   -0.0623 C   0  0  0  0  0  0  0  0  0  0  0  0
   -1.5858   -0.5978    0.2086 C   0  0  0  0  0  0  0  0  0  0  0  0
   -1.6926   -1.9644    0.0372 C   0  0  0  0  0  0  0  0  0  0  0  0
   -0.6447   -2.8362    0.2957 C   0  0  0  0  0  0  0  0  0  0  0  0
    0.5439   -2.3034    0.7401 C   0  0  0  0  0  0  0  0  0  0  0  0
    0.7068   -0.9477    0.9286 C   0  0  0  0  0  0  0  0  0  0  0  0
   -0.3446   -0.1318    0.6636 C   0  0  0  0  0  0  0  0  0  0  0  0
    1.9334   -0.4475    1.3822 C   0  0  0  0  0  0  0  0  0  0  0  0
    2.8866   -1.3472    1.6066 N   0  0  0  0  0  0  0  0  0  0  0  0
    2.7565   -2.6649    1.4327 C   0  0  0  0  0  0  0  0  0  0  0  0
    1.5763   -3.1458    0.9963 N   0  0  0  0  0  0  0  0  0  0  0  0
    2.1391    0.9375    1.5916 N   0  0  0  0  0  0  0  0  0  0  0  0
    3.3897    1.5117    2.0584 C   0  0  0  0  0  0  0  0  0  0  0  0
    4.5334    1.2899    1.1544 C   0  0  0  0  0  0  0  0  0  0  0  0
    4.6747    2.1893    0.0932 C   0  0  0  0  0  0  0  0  0  0  0  0
    5.7135    2.0948   -0.8081 C   0  0  0  0  0  0  0  0  0  0  0  0
    6.6122    1.0634   -0.6108 C   0  0  0  0  0  0  0  0  0  0  0  0
    6.4922    0.1899    0.4039 N   0  0  0  0  0  0  0  0  0  0  0  0
    5.4643    0.2900    1.2894 C   0  0  0  0  0  0  0  0  0  0  0  0
    7.7351    0.9541   -1.5778 C   0  0  0  0  0  0  0  0  0  0  0  0
    7.5016   -0.0744   -2.4906 F   0  0  0  0  0  0  0  0  0  0  0  0
    8.9370    0.6758   -0.9814 F   0  0  0  0  0  0  0  0  0  0  0  0
    7.8988    2.1019   -2.3110 F   0  0  0  0  0  0  0  0  0  0  0  0
   -3.8863    0.1492    0.7883 C   0  0  0  0  0  0  0  0  0  0  0  0
   -4.1397   -0.8861    1.6529 C   0  0  0  0  0  0  0  0  0  0  0  0
   -5.2777   -0.9808    2.4277 C   0  0  0  0  0  0  0  0  0  0  0  0
   -6.2407   -0.0006    2.3604 C   0  0  0  0  0  0  0  0  0  0  0  0
   -6.0102    1.0525    1.4985 C   0  0  0  0  0  0  0  0  0  0  0  0
   -4.8720    1.1429    0.7262 C   0  0  0  0  0  0  0  0  0  0  0  0
   -7.7138   -0.0268    3.2974 Cl  0  0  0  0  0  0  0  0  0  0  0  0
   -5.0487   -1.6629   -3.5998 H   0  0  0  0  0  0  0  0  0  0  0  0
   -4.5898   -1.3854   -1.1500 H   0  0  0  0  0  0  0  0  0  0  0  0
   -1.6172    1.4942   -2.1335 H   0  0  0  0  0  0  0  0  0  0  0  0
   -2.0368    1.2517   -4.5126 H   0  0  0  0  0  0  0  0  0  0  0  0
   -2.2946    1.3604    0.0288 H   0  0  0  0  0  0  0  0  0  0  0  0
   -2.6039   -2.4285   -0.3188 H   0  0  0  0  0  0  0  0  0  0  0  0
   -0.7161   -3.9054    0.1656 H   0  0  0  0  0  0  0  0  0  0  0  0
   -0.2904    0.9393    0.7882 H   0  0  0  0  0  0  0  0  0  0  0  0
    3.6119   -3.2914    1.6520 H   0  0  0  0  0  0  0  0  0  0  0  0
    1.3778    1.6394    1.4150 H   0  0  0  0  0  0  0  0  0  0  0  0
    3.5942    0.9768    3.0324 H   0  0  0  0  0  0  0  0  0  0  0  0
    3.2823    2.5707    2.3519 H   0  0  0  0  0  0  0  0  0  0  0  0
    3.9631    3.0003   -0.0573 H   0  0  0  0  0  0  0  0  0  0  0  0
    5.7919    2.8073   -1.6166 H   0  0  0  0  0  0  0  0  0  0  0  0
    5.4039   -0.4180    2.0967 H   0  0  0  0  0  0  0  0  0  0  0  0
   -3.4202   -1.6818    1.7567 H   0  0  0  0  0  0  0  0  0  0  0  0
   -5.4299   -1.8235    3.0976 H   0  0  0  0  0  0  0  0  0  0  0  0
   -6.7492    1.8482    1.4172 H   0  0  0  0  0  0  0  0  0  0  0  0
   -4.7414    2.0037    0.0578 H   0  0  0  0  0  0  0  0  0  0  0  0
  1  2  1  0
  2  3  2  0
  3  4  1  0
  4  5  2  0
  5  6  1  0
  6  7  2  0
  5  8  1  0
  8  9  1  0
  9 10  2  0
 10 11  1  0
 11 12  2  0
 12 13  1  0
 13 14  2  0
 13 15  1  0
 15 16  2  0
 16 17  1  0
 17 18  2  0
 15 19  1  0
 19 20  1  0
 20 21  1  0
 21 22  2  0
 22 23  1  0
 23 24  2  0
 24 25  1  0
 25 26  2  0
 24 27  1  0
 27 28  1  0
 27 29  1  0
 27 30  1  0
  8 31  1  0
 31 32  2  0
 32 33  1  0
 33 34  2  0
 34 35  1  0
 35 36  2  0
 34 37  1  0
  7  2  1  0
 14  9  1  0
 26 21  1  0
 36 31  1  0
 18 12  1  0
  3 38  1  0
  4 39  1  0
  6 40  1  0
  7 41  1  0
  8 42  1  0
 10 43  1  0
 11 44  1  0
 14 45  1  0
 17 46  1  0
 19 47  1  0
 20 48  1  0
 20 49  1  0
 22 50  1  0
 23 51  1  0
 26 52  1  0
 32 53  1  0
 33 54  1  0
 35 55  1  0
 36 56  1  0
M  END
>  <Ligand ID>  (1) 
LIG0005889

>  <Ligand>  (1) 
SCHEMBL17557563

>  <SMILES>  (1) 
Clc1ccc(cc1)C(c1ccc2c(c1)c(ncn2)NCc1ccc(nc1)C(F)(F)F)c1ccc(cc1)Cl

>  <CID>  (1) 
118916049.0

>  <ChEMBL ID>  (1) 
nan

>  <InChiKey>  (1) 
BHAYSBUXZPLWPB-UHFFFAOYSA-N

>  <InChi>  (1) 
InChI=1S/C28H19Cl2F3N4/c29-21-7-2-18(3-8-21)26(19-4-9-22(30)10-5-19)20-6-11-24-23(13-20)27(37-16-36-24)35-15-17-1-12-25(34-14-17)28(31,32)33/h1-14,16,26H,15H2,(H,35,36,37)

>  <IUPAC Name>  (1) 
6-[bis(4-chlorophenyl)methyl]-N-[[6-(trifluoromethyl)pyridin-3-yl]methyl]quinazolin-4-amine

$$$$
