
     RDKit          3D

 41 42  0  0  0  0  0  0  0  0999 V2000
    2.1806    1.8437    1.9134 S   0  0  0  0  0  0  0  0  0  0  0  0
    1.5169    0.6736    0.9707 C   0  0  0  0  0  0  0  0  0  0  0  0
    2.3409   -0.1865    0.1963 N   0  0  0  0  0  0  0  0  0  0  0  0
    3.7706   -0.1240    0.2009 C   0  0  0  0  0  0  0  0  0  0  0  0
    4.4712    0.0507    1.3891 C   0  0  0  0  0  0  0  0  0  0  0  0
    5.8613    0.1229    1.4141 C   0  0  0  0  0  0  0  0  0  0  0  0
    6.5871    0.0199    0.2311 C   0  0  0  0  0  0  0  0  0  0  0  0
    5.9023   -0.1543   -0.9646 C   0  0  0  0  0  0  0  0  0  0  0  0
    4.5042   -0.2252   -0.9751 C   0  0  0  0  0  0  0  0  0  0  0  0
    3.6163   -0.4368   -2.4689 Cl  0  0  0  0  0  0  0  0  0  0  0  0
    0.0747    0.5516    0.9413 N   0  0  0  0  0  0  0  0  0  0  0  0
   -0.5797   -0.4454    0.1488 C   0  0  0  0  0  0  0  0  0  0  0  0
   -2.0666   -0.4563    0.1815 C   0  0  0  0  0  0  0  0  0  0  0  0
   -2.7179    0.7830   -0.2854 C   0  0  0  0  0  0  0  0  0  0  0  0
   -3.3256    1.6638    0.6234 C   0  0  0  0  0  0  0  0  0  0  0  0
   -3.9354    2.8212    0.1556 C   0  0  0  0  0  0  0  0  0  0  0  0
   -3.9240    3.0688   -1.2052 C   0  0  0  0  0  0  0  0  0  0  0  0
   -3.3460    2.2353   -2.0912 N   0  0  0  0  0  0  0  0  0  0  0  0
   -2.7568    1.1158   -1.6290 C   0  0  0  0  0  0  0  0  0  0  0  0
   -2.4820   -1.6059   -0.6149 N   0  0  0  0  0  0  0  0  0  0  0  0
   -2.0220   -2.8440   -0.0552 C   0  0  0  0  0  0  0  0  0  0  0  0
   -3.8936   -1.5884   -0.9377 C   0  0  0  0  0  0  0  0  0  0  0  0
    1.9264   -0.9178   -0.4239 H   0  0  0  0  0  0  0  0  0  0  0  0
    3.9809    0.1307    2.3477 H   0  0  0  0  0  0  0  0  0  0  0  0
    6.3658    0.2619    2.3756 H   0  0  0  0  0  0  0  0  0  0  0  0
    7.6800    0.0740    0.2472 H   0  0  0  0  0  0  0  0  0  0  0  0
    6.4342   -0.2388   -1.9080 H   0  0  0  0  0  0  0  0  0  0  0  0
   -0.4971    1.2180    1.5212 H   0  0  0  0  0  0  0  0  0  0  0  0
   -0.1875   -0.3616   -0.9088 H   0  0  0  0  0  0  0  0  0  0  0  0
   -0.1642   -1.4319    0.4929 H   0  0  0  0  0  0  0  0  0  0  0  0
   -2.3894   -0.6916    1.2137 H   0  0  0  0  0  0  0  0  0  0  0  0
   -3.3015    1.4194    1.6777 H   0  0  0  0  0  0  0  0  0  0  0  0
   -4.3974    3.4865    0.8764 H   0  0  0  0  0  0  0  0  0  0  0  0
   -4.4124    3.9925   -1.5514 H   0  0  0  0  0  0  0  0  0  0  0  0
   -2.2972    0.4671   -2.3785 H   0  0  0  0  0  0  0  0  0  0  0  0
   -2.8437   -3.5948   -0.0911 H   0  0  0  0  0  0  0  0  0  0  0  0
   -1.1191   -3.1700   -0.6145 H   0  0  0  0  0  0  0  0  0  0  0  0
   -1.7170   -2.6487    1.0163 H   0  0  0  0  0  0  0  0  0  0  0  0
   -4.4928   -2.3089   -0.3114 H   0  0  0  0  0  0  0  0  0  0  0  0
   -3.9829   -1.9716   -1.9892 H   0  0  0  0  0  0  0  0  0  0  0  0
   -4.3615   -0.5978   -0.9179 H   0  0  0  0  0  0  0  0  0  0  0  0
  1  2  2  0
  2  3  1  0
  3  4  1  0
  4  5  2  0
  5  6  1  0
  6  7  2  0
  7  8  1  0
  8  9  2  0
  9 10  1  0
  2 11  1  0
 11 12  1  0
 12 13  1  0
 13 14  1  0
 14 15  2  0
 15 16  1  0
 16 17  2  0
 17 18  1  0
 18 19  2  0
 13 20  1  0
 20 21  1  0
 20 22  1  0
  9  4  1  0
 19 14  1  0
  3 23  1  0
  5 24  1  0
  6 25  1  0
  7 26  1  0
  8 27  1  0
 11 28  1  0
 12 29  1  0
 12 30  1  0
 13 31  1  0
 15 32  1  0
 16 33  1  0
 17 34  1  0
 19 35  1  0
 21 36  1  0
 21 37  1  0
 21 38  1  0
 22 39  1  0
 22 40  1  0
 22 41  1  0
M  END
>  <Ligand ID>  (1) 
LIG0004531

>  <Ligand>  (1) 
MLS000730946

>  <SMILES>  (1) 
S=C(Nc1ccccc1Cl)NCC(c1cccnc1)N(C)C

>  <CID>  (1) 
5113106.0

>  <ChEMBL ID>  (1) 
nan

>  <InChiKey>  (1) 
JJEXYTGDQNIOLN-UHFFFAOYSA-N

>  <InChi>  (1) 
InChI=1S/C16H19ClN4S/c1-21(2)15(12-6-5-9-18-10-12)11-19-16(22)20-14-8-4-3-7-13(14)17/h3-10,15H,11H2,1-2H3,(H2,19,20,22)

>  <IUPAC Name>  (1) 
1-(2-chlorophenyl)-3-[2-(dimethylamino)-2-pyridin-3-ylethyl]thiourea

$$$$
