
     RDKit          3D

 61 64  0  0  0  0  0  0  0  0999 V2000
    4.6780   -3.0780   -0.0389 O   0  0  0  0  0  0  0  0  0  0  0  0
    3.4991   -2.7527   -0.2634 C   0  0  0  0  0  0  0  0  0  0  0  0
    2.4705   -3.5122   -0.8304 O   0  0  0  0  0  0  0  0  0  0  0  0
    1.2171   -3.0758   -0.3743 C   0  0  0  0  0  0  0  0  0  0  0  0
    1.5340   -1.7718    0.3358 C   0  0  1  0  0  0  0  0  0  0  0  0
    2.9391   -1.5032    0.0205 N   0  0  0  0  0  0  0  0  0  0  0  0
    3.4694   -0.1586    0.0403 C   0  0  0  0  0  0  0  0  0  0  0  0
    4.0349    0.2242    1.3701 C   0  0  0  0  0  0  0  0  0  0  0  0
    5.4676   -0.7979    1.7874 S   0  0  0  0  0  0  0  0  0  0  0  0
    6.8463   -0.3302    0.7605 C   0  0  0  0  0  0  0  0  0  0  0  0
    7.1477   -1.1439   -0.9217 S   0  0  0  0  0  0  0  0  0  0  0  0
    8.6488   -0.0923   -1.1749 C   0  0  0  0  0  0  0  0  0  0  0  0
    8.7108    0.6985    0.0041 C   0  0  0  0  0  0  0  0  0  0  0  0
    7.7378    0.4304    0.8264 N   0  0  0  0  0  0  0  0  0  0  0  0
    9.7885    1.6671    0.1624 C   0  0  0  0  0  0  0  0  0  0  0  0
   10.6425    1.7853   -0.7460 O   0  0  0  0  0  0  0  0  0  0  0  0
    9.8909    2.4503    1.2784 O   0  0  0  0  0  0  0  0  0  0  0  0
    0.7053   -0.6857   -0.2325 C   0  0  0  0  0  0  0  0  0  0  0  0
   -0.3648   -0.2911    0.4705 C   0  0  0  0  0  0  0  0  0  0  0  0
   -1.2539    0.7951   -0.0267 C   0  0  2  0  0  0  0  0  0  0  0  0
   -2.7019    0.2641   -0.2003 C   0  0  0  0  0  0  0  0  0  0  0  0
   -2.7507   -0.8524   -1.1680 C   0  0  0  0  0  0  0  0  0  0  0  0
   -3.3943    0.0280   -2.1926 C   0  0  0  0  0  0  0  0  0  0  0  0
   -3.3698    1.1638   -1.2078 C   0  0  0  0  0  0  0  0  0  0  0  0
   -3.2908    0.1301    1.1451 C   0  0  0  0  0  0  0  0  0  0  0  0
   -4.6353   -0.3750    1.3470 C   0  0  0  0  0  0  0  0  0  0  0  0
   -5.8054    0.2382    0.7846 C   0  0  0  0  0  0  0  0  0  0  0  0
   -6.4242   -0.1333   -0.4174 C   0  0  0  0  0  0  0  0  0  0  0  0
   -7.5420    0.5086   -0.8927 C   0  0  0  0  0  0  0  0  0  0  0  0
   -8.1109    1.5550   -0.2045 C   0  0  0  0  0  0  0  0  0  0  0  0
   -7.5261    1.9420    0.9782 C   0  0  0  0  0  0  0  0  0  0  0  0
   -6.4033    1.3047    1.4651 C   0  0  0  0  0  0  0  0  0  0  0  0
   -0.7934    1.3258   -1.2183 O   0  0  0  0  0  0  0  0  0  0  0  0
    0.7431   -3.7793    0.3381 H   0  0  0  0  0  0  0  0  0  0  0  0
    0.5053   -2.8924   -1.2098 H   0  0  0  0  0  0  0  0  0  0  0  0
    1.4420   -1.8706    1.4273 H   0  0  0  0  0  0  0  0  0  0  0  0
    4.2596   -0.0613   -0.7410 H   0  0  0  0  0  0  0  0  0  0  0  0
    2.6847    0.5886   -0.2470 H   0  0  0  0  0  0  0  0  0  0  0  0
    4.3990    1.2783    1.3478 H   0  0  0  0  0  0  0  0  0  0  0  0
    3.2806    0.2017    2.1835 H   0  0  0  0  0  0  0  0  0  0  0  0
    9.2807   -0.1328   -2.0508 H   0  0  0  0  0  0  0  0  0  0  0  0
   10.3801    3.3465    1.2451 H   0  0  0  0  0  0  0  0  0  0  0  0
    0.9609   -0.2310   -1.1828 H   0  0  0  0  0  0  0  0  0  0  0  0
   -0.5842   -0.7661    1.4075 H   0  0  0  0  0  0  0  0  0  0  0  0
   -1.2300    1.6106    0.7352 H   0  0  0  0  0  0  0  0  0  0  0  0
   -3.3129   -1.7591   -0.8786 H   0  0  0  0  0  0  0  0  0  0  0  0
   -1.7454   -1.1843   -1.5135 H   0  0  0  0  0  0  0  0  0  0  0  0
   -4.3879   -0.2722   -2.5803 H   0  0  0  0  0  0  0  0  0  0  0  0
   -2.7499    0.1960   -3.1087 H   0  0  0  0  0  0  0  0  0  0  0  0
   -2.6867    1.9739   -1.6109 H   0  0  0  0  0  0  0  0  0  0  0  0
   -4.3009    1.6490   -0.9355 H   0  0  0  0  0  0  0  0  0  0  0  0
   -3.0634    1.1008    1.6848 H   0  0  0  0  0  0  0  0  0  0  0  0
   -2.5930   -0.5790    1.7009 H   0  0  0  0  0  0  0  0  0  0  0  0
   -4.6528   -1.4649    1.0253 H   0  0  0  0  0  0  0  0  0  0  0  0
   -4.8330   -0.4806    2.4643 H   0  0  0  0  0  0  0  0  0  0  0  0
   -5.9526   -0.9611   -0.9280 H   0  0  0  0  0  0  0  0  0  0  0  0
   -7.9874    0.1797   -1.8376 H   0  0  0  0  0  0  0  0  0  0  0  0
   -8.9885    2.0814   -0.5486 H   0  0  0  0  0  0  0  0  0  0  0  0
   -7.9514    2.7711    1.5532 H   0  0  0  0  0  0  0  0  0  0  0  0
   -5.9818    1.6430    2.3944 H   0  0  0  0  0  0  0  0  0  0  0  0
    0.0038    1.8570   -1.0047 H   0  0  0  0  0  0  0  0  0  0  0  0
  1  2  2  0
  2  3  1  0
  3  4  1  0
  4  5  1  0
  5  6  1  0
  6  7  1  0
  7  8  1  0
  8  9  1  0
  9 10  1  0
 10 11  1  0
 11 12  1  0
 12 13  2  0
 13 14  1  0
 13 15  1  0
 15 16  2  0
 15 17  1  0
  5 18  1  0
 18 19  2  0
 19 20  1  0
 20 21  1  0
 21 22  1  0
 22 23  1  0
 23 24  1  0
 21 25  1  0
 25 26  1  0
 26 27  1  0
 27 28  2  0
 28 29  1  0
 29 30  2  0
 30 31  1  0
 31 32  2  0
 20 33  1  0
  6  2  1  0
 14 10  2  0
 24 21  1  0
 32 27  1  0
  4 34  1  0
  4 35  1  0
  5 36  1  1
  7 37  1  0
  7 38  1  0
  8 39  1  0
  8 40  1  0
 12 41  1  0
 17 42  1  0
 18 43  1  0
 19 44  1  0
 20 45  1  1
 22 46  1  0
 22 47  1  0
 23 48  1  0
 23 49  1  0
 24 50  1  0
 24 51  1  0
 25 52  1  0
 25 53  1  0
 26 54  1  0
 26 55  1  0
 28 56  1  0
 29 57  1  0
 30 58  1  0
 31 59  1  0
 32 60  1  0
 33 61  1  0
M  END
>  <Ligand ID>  (1) 
LIG0002925

>  <Ligand>  (1) 
CHEMBL3753622

>  <SMILES>  (1) 
O=C1OC[C@@H](N1CCSc1scc(n1)C(=O)O)/C=C/[C@H](C1(CCC1)CCc1ccccc1)O

>  <CID>  (1) 
66858111.0

>  <ChEMBL ID>  (1) 
nan

>  <InChiKey>  (1) 
HGTLOKDXNMQMEE-QWCIBIBSSA-N

>  <InChi>  (1) 
InChI=1S/C24H28N2O5S2/c27-20(24(10-4-11-24)12-9-17-5-2-1-3-6-17)8-7-18-15-31-23(30)26(18)13-14-32-22-25-19(16-33-22)21(28)29/h1-3,5-8,16,18,20,27H,4,9-15H2,(H,28,29)/b8-7+/t18-,20+/m0/s1

>  <IUPAC Name>  (1) 
2-[2-[(4S)-4-[(E,3R)-3-hydroxy-3-[1-(2-phenylethyl)cyclobutyl]prop-1-enyl]-2-oxo-1,3-oxazolidin-3-yl]ethylsulfanyl]-1,3-thiazole-4-carboxylic acid

$$$$
