
     RDKit          3D

 84 84  0  0  0  0  0  0  0  0999 V2000
   -0.9827   -0.1196    0.0277 C   0  0  0  0  0  0  0  0  0  0  0  0
    0.4290    0.3200   -0.0816 C   0  0  0  0  0  0  0  0  0  0  0  0
    0.7003    1.5346    0.0764 O   0  0  0  0  0  0  0  0  0  0  0  0
    1.4803   -0.5519   -0.3529 O   0  0  0  0  0  0  0  0  0  0  0  0
    9.9992   -1.7403    0.4895 O   0  0  0  0  0  0  0  0  0  0  0  0
   10.3831   -0.4132    0.6763 C   0  0  0  0  0  0  0  0  0  0  0  0
    9.2281    0.5209    0.5376 C   0  0  0  0  0  0  0  0  0  0  0  0
    7.9447    0.0561    0.2807 C   0  0  0  0  0  0  0  0  0  0  0  0
    6.9476    0.9557    0.1701 C   0  0  0  0  0  0  0  0  0  0  0  0
    7.2138    2.3051    0.3123 C   0  0  0  0  0  0  0  0  0  0  0  0
    8.4793    2.7892    0.5676 C   0  0  0  0  0  0  0  0  0  0  0  0
    9.5084    1.8695    0.6815 C   0  0  0  0  0  0  0  0  0  0  0  0
   10.8044    2.2990    0.9367 O   0  0  0  0  0  0  0  0  0  0  0  0
    5.4896    0.5575   -0.0991 C   0  0  2  0  0  0  0  0  0  0  0  0
    5.5424   -0.8277   -0.6118 C   0  0  0  0  0  0  0  0  0  0  0  0
    4.4645   -1.4284   -1.2516 N   0  0  0  0  0  0  0  0  0  0  0  0
    3.3128   -1.7674   -0.5504 C   0  0  0  0  0  0  0  0  0  0  0  0
    2.4411   -0.6119   -0.1523 C   0  0  0  0  0  0  0  0  0  0  0  0
    1.2435   -1.2357    0.5699 C   0  0  0  0  0  0  0  0  0  0  0  0
    0.2385   -0.2253    1.0262 C   0  0  0  0  0  0  0  0  0  0  0  0
   -0.3378    0.5634   -0.1488 C   0  0  0  0  0  0  0  0  0  0  0  0
   -0.9980   -0.4094   -1.1005 C   0  0  0  0  0  0  0  0  0  0  0  0
   -2.0510   -1.1138   -0.4810 O   0  0  0  0  0  0  0  0  0  0  0  0
   -2.5516   -2.0437   -1.3554 C   0  0  0  0  0  0  0  0  0  0  0  0
   -3.6823   -2.8226   -0.7941 C   0  0  0  0  0  0  0  0  0  0  0  0
   -4.9102   -2.0797   -0.4360 C   0  0  0  0  0  0  0  0  0  0  0  0
   -4.7705   -0.9934    0.5949 C   0  0  0  0  0  0  0  0  0  0  0  0
   -6.1515   -0.4011    0.7530 C   0  0  0  0  0  0  0  0  0  0  0  0
   -6.4875    0.6645   -0.0773 C   0  0  0  0  0  0  0  0  0  0  0  0
   -7.7449    1.2414    0.0084 C   0  0  0  0  0  0  0  0  0  0  0  0
   -8.1314    2.3258   -0.8247 N   0  0  0  0  0  0  0  0  0  0  0  0
   -7.9380    3.6787   -0.5078 C   0  0  0  0  0  0  0  0  0  0  0  0
   -7.3758    3.9337    0.6059 O   0  0  0  0  0  0  0  0  0  0  0  0
   -8.3219    4.7704   -1.3335 N   0  0  0  0  0  0  0  0  0  0  0  0
   -8.6767    0.7710    0.9129 C   0  0  0  0  0  0  0  0  0  0  0  0
   -8.3173   -0.2952    1.7326 C   0  0  0  0  0  0  0  0  0  0  0  0
   -7.0594   -0.8849    1.6586 C   0  0  0  0  0  0  0  0  0  0  0  0
   -9.3648   -0.7643    2.6848 C   0  0  0  0  0  0  0  0  0  0  0  0
   -8.8213   -1.6513    3.5925 F   0  0  0  0  0  0  0  0  0  0  0  0
  -10.0028    0.2754    3.3251 F   0  0  0  0  0  0  0  0  0  0  0  0
  -10.2688   -1.4812    1.8893 F   0  0  0  0  0  0  0  0  0  0  0  0
    5.1482    1.4193   -1.1573 O   0  0  0  0  0  0  0  0  0  0  0  0
   -1.1096   -1.0416   -0.5768 H   0  0  0  0  0  0  0  0  0  0  0  0
   -1.1741   -0.3319    1.1148 H   0  0  0  0  0  0  0  0  0  0  0  0
   -1.6929    0.6306   -0.3761 H   0  0  0  0  0  0  0  0  0  0  0  0
    2.3499   -0.4402    0.1686 H   0  0  0  0  0  0  0  0  0  0  0  0
    9.4618   -2.0950    1.2427 H   0  0  0  0  0  0  0  0  0  0  0  0
   10.9230   -0.2843    1.6381 H   0  0  0  0  0  0  0  0  0  0  0  0
   11.0670   -0.1738   -0.1714 H   0  0  0  0  0  0  0  0  0  0  0  0
    7.8186   -0.9872    0.1805 H   0  0  0  0  0  0  0  0  0  0  0  0
    6.4009    3.0344    0.2223 H   0  0  0  0  0  0  0  0  0  0  0  0
    8.7082    3.8449    0.6846 H   0  0  0  0  0  0  0  0  0  0  0  0
   11.6064    1.7434    0.6945 H   0  0  0  0  0  0  0  0  0  0  0  0
    4.9051    0.7750    0.7828 H   0  0  0  0  0  0  0  0  0  0  0  0
    6.4293   -0.8798   -1.3354 H   0  0  0  0  0  0  0  0  0  0  0  0
    5.9372   -1.5132    0.2367 H   0  0  0  0  0  0  0  0  0  0  0  0
    4.2766   -1.0559   -2.2066 H   0  0  0  0  0  0  0  0  0  0  0  0
    3.5939   -2.3741    0.3845 H   0  0  0  0  0  0  0  0  0  0  0  0
    2.6998   -2.5330   -1.1173 H   0  0  0  0  0  0  0  0  0  0  0  0
    2.8539    0.0954    0.5447 H   0  0  0  0  0  0  0  0  0  0  0  0
    2.1337   -0.0673   -1.0659 H   0  0  0  0  0  0  0  0  0  0  0  0
    0.8128   -2.0436   -0.0424 H   0  0  0  0  0  0  0  0  0  0  0  0
    1.6780   -1.7171    1.4702 H   0  0  0  0  0  0  0  0  0  0  0  0
    0.6561    0.4443    1.8028 H   0  0  0  0  0  0  0  0  0  0  0  0
   -0.6104   -0.7885    1.4707 H   0  0  0  0  0  0  0  0  0  0  0  0
   -1.0604    1.2707    0.2920 H   0  0  0  0  0  0  0  0  0  0  0  0
    0.4711    1.1279   -0.6426 H   0  0  0  0  0  0  0  0  0  0  0  0
   -0.2957   -1.1632   -1.4945 H   0  0  0  0  0  0  0  0  0  0  0  0
   -1.4300    0.2229   -1.9149 H   0  0  0  0  0  0  0  0  0  0  0  0
   -2.8418   -1.5989   -2.3447 H   0  0  0  0  0  0  0  0  0  0  0  0
   -1.7537   -2.7919   -1.6382 H   0  0  0  0  0  0  0  0  0  0  0  0
   -3.9817   -3.6162   -1.5255 H   0  0  0  0  0  0  0  0  0  0  0  0
   -3.3180   -3.3639    0.1218 H   0  0  0  0  0  0  0  0  0  0  0  0
   -5.6346   -2.8400   -0.0103 H   0  0  0  0  0  0  0  0  0  0  0  0
   -5.4619   -1.6715   -1.3149 H   0  0  0  0  0  0  0  0  0  0  0  0
   -4.1046   -0.1862    0.2554 H   0  0  0  0  0  0  0  0  0  0  0  0
   -4.4688   -1.3915    1.5942 H   0  0  0  0  0  0  0  0  0  0  0  0
   -5.8094    1.0658   -0.7904 H   0  0  0  0  0  0  0  0  0  0  0  0
   -8.5983    2.1062   -1.7530 H   0  0  0  0  0  0  0  0  0  0  0  0
   -7.8562    5.7128   -1.2204 H   0  0  0  0  0  0  0  0  0  0  0  0
   -9.0620    4.6963   -2.0723 H   0  0  0  0  0  0  0  0  0  0  0  0
   -9.6684    1.2101    0.9947 H   0  0  0  0  0  0  0  0  0  0  0  0
   -6.8195   -1.7033    2.3103 H   0  0  0  0  0  0  0  0  0  0  0  0
    5.9162    1.6831   -1.7072 H   0  0  0  0  0  0  0  0  0  0  0  0
  1  2  1  0
  2  3  2  0
  2  4  1  0
  5  6  1  0
  6  7  1  0
  7  8  2  0
  8  9  1  0
  9 10  2  0
 10 11  1  0
 11 12  2  0
 12 13  1  0
  9 14  1  0
 14 15  1  0
 15 16  1  0
 16 17  1  0
 17 18  1  0
 18 19  1  0
 19 20  1  0
 20 21  1  0
 21 22  1  0
 22 23  1  0
 23 24  1  0
 24 25  1  0
 25 26  1  0
 26 27  1  0
 27 28  1  0
 28 29  2  0
 29 30  1  0
 30 31  1  0
 31 32  1  0
 32 33  2  0
 32 34  1  0
 30 35  2  0
 35 36  1  0
 36 37  2  0
 36 38  1  0
 38 39  1  0
 38 40  1  0
 38 41  1  0
 14 42  1  0
 12  7  1  0
 37 28  1  0
  1 43  1  0
  1 44  1  0
  1 45  1  0
  4 46  1  0
  5 47  1  0
  6 48  1  0
  6 49  1  0
  8 50  1  0
 10 51  1  0
 11 52  1  0
 13 53  1  0
 14 54  1  1
 15 55  1  0
 15 56  1  0
 16 57  1  0
 17 58  1  0
 17 59  1  0
 18 60  1  0
 18 61  1  0
 19 62  1  0
 19 63  1  0
 20 64  1  0
 20 65  1  0
 21 66  1  0
 21 67  1  0
 22 68  1  0
 22 69  1  0
 24 70  1  0
 24 71  1  0
 25 72  1  0
 25 73  1  0
 26 74  1  0
 26 75  1  0
 27 76  1  0
 27 77  1  0
 29 78  1  0
 31 79  1  0
 34 80  1  0
 34 81  1  0
 35 82  1  0
 37 83  1  0
 42 84  1  0
M  END
>  <Ligand ID>  (1) 
LIG0003334

>  <Ligand>  (1) 
CHEMBL1835861

>  <SMILES>  (1) 
CC(=O)O.OCc1cc(ccc1O)[C@H](CNCCCCCCOCCCCc1cc(NC(=O)N)cc(c1)C(F)(F)F)O

>  <CID>  (1) 
56675662.0

>  <ChEMBL ID>  (1) 
nan

>  <InChiKey>  (1) 
JVYHUYQWUWTOHZ-UQIIZPHYSA-N

>  <InChi>  (1) 
InChI=1S/C27H38F3N3O5.C2H4O2/c28-27(29,30)22-13-19(14-23(16-22)33-26(31)37)7-3-6-12-38-11-5-2-1-4-10-32-17-25(36)20-8-9-24(35)21(15-20)18-34;1-2(3)4/h8-9,13-16,25,32,34-36H,1-7,10-12,17-18H2,(H3,31,33,37);1H3,(H,3,4)/t25-;/m0./s1

>  <IUPAC Name>  (1) 
acetic acid;[3-[4-[6-[[(2R)-2-hydroxy-2-[4-hydroxy-3-(hydroxymethyl)phenyl]ethyl]amino]hexoxy]butyl]-5-(trifluoromethyl)phenyl]urea

$$$$
