
     RDKit          3D

 23 23  0  0  0  0  0  0  0  0999 V2000
    3.0317    1.0087    1.2573 O   0  0  0  0  0  0  0  0  0  0  0  0
    2.3361    0.3416    0.2618 C   0  0  0  0  0  0  0  0  0  0  0  0
    2.6359    0.5954   -0.9529 O   0  0  0  0  0  0  0  0  0  0  0  0
    1.2729   -0.6420    0.4962 C   0  0  2  0  0  0  0  0  0  0  0  0
    0.7732   -1.1341   -0.8406 C   0  0  0  0  0  0  0  0  0  0  0  0
   -0.2137   -0.0425   -1.2163 C   0  0  0  0  0  0  0  0  0  0  0  0
   -0.8710    0.3357    0.0704 C   0  0  1  0  0  0  0  0  0  0  0  0
    0.0615   -0.0701    1.1783 C   0  0  0  0  0  0  0  0  0  0  0  0
   -1.0786    1.7646    0.1023 N   0  0  0  0  0  0  0  0  0  0  0  0
   -2.2060   -0.3158    0.1623 C   0  0  0  0  0  0  0  0  0  0  0  0
   -3.2760    0.3654    0.2498 O   0  0  0  0  0  0  0  0  0  0  0  0
   -2.2925   -1.7145    0.1526 O   0  0  0  0  0  0  0  0  0  0  0  0
    3.2923    1.9855    1.0695 H   0  0  0  0  0  0  0  0  0  0  0  0
    1.6929   -1.4720    1.1058 H   0  0  0  0  0  0  0  0  0  0  0  0
    1.5929   -1.2006   -1.5997 H   0  0  0  0  0  0  0  0  0  0  0  0
    0.2489   -2.1010   -0.7060 H   0  0  0  0  0  0  0  0  0  0  0  0
    0.3827    0.7802   -1.6659 H   0  0  0  0  0  0  0  0  0  0  0  0
   -0.9821   -0.4157   -1.9211 H   0  0  0  0  0  0  0  0  0  0  0  0
    0.3210    0.7998    1.8366 H   0  0  0  0  0  0  0  0  0  0  0  0
   -0.4354   -0.8819    1.7628 H   0  0  0  0  0  0  0  0  0  0  0  0
   -1.8040    2.0447   -0.5863 H   0  0  0  0  0  0  0  0  0  0  0  0
   -1.3372    2.0728    1.0603 H   0  0  0  0  0  0  0  0  0  0  0  0
   -3.1456   -2.1040   -0.2498 H   0  0  0  0  0  0  0  0  0  0  0  0
  1  2  1  0
  2  3  2  0
  2  4  1  0
  4  5  1  0
  5  6  1  0
  6  7  1  0
  7  8  1  0
  7  9  1  6
  7 10  1  0
 10 11  2  0
 10 12  1  0
  8  4  1  0
  1 13  1  0
  4 14  1  1
  5 15  1  0
  5 16  1  0
  6 17  1  0
  6 18  1  0
  8 19  1  0
  8 20  1  0
  9 21  1  0
  9 22  1  0
 12 23  1  0
M  END
>  <Ligand ID>  (1) 
LIG0000297

>  <Ligand>  (1) 
(1S,3R)-ACPD

>  <SMILES>  (1) 
OC(=O)[C@@H]1CC[C@@](C1)(N)C(=O)O

>  <CID>  (1) 
104766.0

>  <ChEMBL ID>  (1) 
nan

>  <InChiKey>  (1) 
YFYNOWXBIBKGHB-FBCQKBJTSA-N

>  <InChi>  (1) 
InChI=1S/C7H11NO4/c8-7(6(11)12)2-1-4(3-7)5(9)10/h4H,1-3,8H2,(H,9,10)(H,11,12)/t4-,7+/m1/s1

>  <IUPAC Name>  (1) 
(1S,3R)-1-aminocyclopentane-1,3-dicarboxylic acid

$$$$
