
     RDKit          3D

 12 11  0  0  0  0  0  0  0  0999 V2000
   -1.2768   -0.1095   -0.1292 C   0  0  0  0  0  0  0  0  0  0  0  0
   -0.0262    0.7280   -0.1133 C   0  0  0  0  0  0  0  0  0  0  0  0
    1.1564   -0.2214   -0.1545 C   0  0  0  0  0  0  0  0  0  0  0  0
    1.1953   -1.0909    0.9131 O   0  0  0  0  0  0  0  0  0  0  0  0
   -1.1417   -1.1174    0.3043 H   0  0  0  0  0  0  0  0  0  0  0  0
   -1.6081   -0.2268   -1.1928 H   0  0  0  0  0  0  0  0  0  0  0  0
   -2.0665    0.4818    0.3995 H   0  0  0  0  0  0  0  0  0  0  0  0
    0.0328    1.4271    0.7336 H   0  0  0  0  0  0  0  0  0  0  0  0
    0.0541    1.3419   -1.0438 H   0  0  0  0  0  0  0  0  0  0  0  0
    1.0539   -0.7666   -1.1289 H   0  0  0  0  0  0  0  0  0  0  0  0
    2.0604    0.4283   -0.2169 H   0  0  0  0  0  0  0  0  0  0  0  0
    0.5663   -0.8745    1.6289 H   0  0  0  0  0  0  0  0  0  0  0  0
  1  2  1  0
  2  3  1  0
  3  4  1  0
  1  5  1  0
  1  6  1  0
  1  7  1  0
  2  8  1  0
  2  9  1  0
  3 10  1  0
  3 11  1  0
  4 12  1  0
M  END
>  <Ligand ID>  (1) 
LIG0000171

>  <Ligand>  (1) 
1-propanol

>  <SMILES>  (1) 
CCCO

>  <CID>  (1) 
1031.0

>  <ChEMBL ID>  (1) 
nan

>  <InChiKey>  (1) 
BDERNNFJNOPAEC-UHFFFAOYSA-N

>  <InChi>  (1) 
InChI=1S/C3H8O/c1-2-3-4/h4H,2-3H2,1H3

>  <IUPAC Name>  (1) 
propan-1-ol

$$$$
