
     RDKit          3D

 48 52  0  0  0  0  0  0  0  0999 V2000
   -8.3898    1.1507   -1.0953 F   0  0  0  0  0  0  0  0  0  0  0  0
   -7.0592    0.9591   -0.9388 C   0  0  0  0  0  0  0  0  0  0  0  0
   -6.2163    0.6681   -2.0060 C   0  0  0  0  0  0  0  0  0  0  0  0
   -4.8542    0.4765   -1.8138 C   0  0  0  0  0  0  0  0  0  0  0  0
   -4.2988    0.5709   -0.5487 C   0  0  0  0  0  0  0  0  0  0  0  0
   -5.1315    0.8605    0.5203 C   0  0  0  0  0  0  0  0  0  0  0  0
   -6.4744    1.0466    0.3117 C   0  0  0  0  0  0  0  0  0  0  0  0
   -4.6644    0.9695    1.7882 F   0  0  0  0  0  0  0  0  0  0  0  0
   -2.8938    0.3758   -0.3329 N   0  0  0  0  0  0  0  0  0  0  0  0
   -1.9450    1.0898   -0.9124 N   0  0  0  0  0  0  0  0  0  0  0  0
   -0.7358    0.6634   -0.5049 C   0  0  0  0  0  0  0  0  0  0  0  0
   -0.9099   -0.3785    0.3826 C   0  0  0  0  0  0  0  0  0  0  0  0
   -2.2984   -0.5304    0.4649 C   0  0  0  0  0  0  0  0  0  0  0  0
   -2.6399   -1.6248    1.3916 C   0  0  1  0  0  0  0  0  0  0  0  0
   -2.1562   -3.0035    1.1423 C   0  0  0  0  0  0  0  0  0  0  0  0
   -1.3655   -2.0287    1.9865 C   0  0  1  0  0  0  0  0  0  0  0  0
   -0.2348   -1.3593    1.2470 C   0  0  0  0  0  0  0  0  0  0  0  0
    0.5107    1.2580   -0.9717 C   0  0  0  0  0  0  0  0  0  0  0  0
    0.4404    2.2108   -1.7913 O   0  0  0  0  0  0  0  0  0  0  0  0
    1.7859    0.8036   -0.5380 N   0  0  0  0  0  0  0  0  0  0  0  0
    2.9490    1.4565   -1.0577 C   0  0  0  0  0  0  0  0  0  0  0  0
    4.2375    0.8905   -0.5277 C   0  0  0  0  0  0  0  0  0  0  0  0
    4.4001   -0.5760   -0.8622 C   0  0  0  0  0  0  0  0  0  0  0  0
    5.5269   -1.0555    0.0632 C   0  0  0  0  0  0  0  0  0  0  0  0
    6.3905   -0.0084    0.3668 O   0  0  0  0  0  0  0  0  0  0  0  0
    5.8634    0.9142    1.2545 C   0  0  0  0  0  0  0  0  0  0  0  0
    4.3610    1.0139    0.9663 C   0  0  0  0  0  0  0  0  0  0  0  0
   -6.6728    0.5981   -2.9940 H   0  0  0  0  0  0  0  0  0  0  0  0
   -4.2093    0.2485   -2.6671 H   0  0  0  0  0  0  0  0  0  0  0  0
   -7.1255    1.2716    1.1379 H   0  0  0  0  0  0  0  0  0  0  0  0
   -3.5518   -1.5305    2.0288 H   0  0  0  0  0  0  0  0  0  0  0  0
   -2.6118   -3.8130    1.7187 H   0  0  0  0  0  0  0  0  0  0  0  0
   -1.7602   -3.3109    0.1566 H   0  0  0  0  0  0  0  0  0  0  0  0
   -1.3481   -2.1337    3.0860 H   0  0  0  0  0  0  0  0  0  0  0  0
    0.2186   -2.1510    0.6071 H   0  0  0  0  0  0  0  0  0  0  0  0
    0.5190   -0.9358    1.9302 H   0  0  0  0  0  0  0  0  0  0  0  0
    1.8306    0.0164    0.1387 H   0  0  0  0  0  0  0  0  0  0  0  0
    2.9552    2.5504   -0.8734 H   0  0  0  0  0  0  0  0  0  0  0  0
    2.9590    1.3410   -2.1579 H   0  0  0  0  0  0  0  0  0  0  0  0
    5.0892    1.4068   -1.0128 H   0  0  0  0  0  0  0  0  0  0  0  0
    4.6359   -0.7707   -1.9182 H   0  0  0  0  0  0  0  0  0  0  0  0
    3.4527   -1.0801   -0.5197 H   0  0  0  0  0  0  0  0  0  0  0  0
    6.1232   -1.7857   -0.5241 H   0  0  0  0  0  0  0  0  0  0  0  0
    5.1003   -1.4601    0.9962 H   0  0  0  0  0  0  0  0  0  0  0  0
    6.2825    1.9115    0.9307 H   0  0  0  0  0  0  0  0  0  0  0  0
    6.0869    0.7342    2.3062 H   0  0  0  0  0  0  0  0  0  0  0  0
    3.9316    1.9370    1.3658 H   0  0  0  0  0  0  0  0  0  0  0  0
    3.8972    0.1428    1.4953 H   0  0  0  0  0  0  0  0  0  0  0  0
  1  2  1  0
  2  3  2  0
  3  4  1  0
  4  5  2  0
  5  6  1  0
  6  7  2  0
  6  8  1  0
  5  9  1  0
  9 10  1  0
 10 11  2  0
 11 12  1  0
 12 13  2  0
 13 14  1  0
 14 15  1  0
 15 16  1  0
 16 17  1  0
 11 18  1  0
 18 19  2  0
 18 20  1  0
 20 21  1  0
 21 22  1  0
 22 23  1  0
 23 24  1  0
 24 25  1  0
 25 26  1  0
 26 27  1  0
  7  2  1  0
 13  9  1  0
 16 14  1  0
 27 22  1  0
 17 12  1  0
  3 28  1  0
  4 29  1  0
  7 30  1  0
 14 31  1  1
 15 32  1  0
 15 33  1  0
 16 34  1  1
 17 35  1  0
 17 36  1  0
 20 37  1  0
 21 38  1  0
 21 39  1  0
 22 40  1  0
 23 41  1  0
 23 42  1  0
 24 43  1  0
 24 44  1  0
 26 45  1  0
 26 46  1  0
 27 47  1  0
 27 48  1  0
M  END
>  <Ligand ID>  (1) 
LIG0001391

>  <Ligand>  (1) 
CHEMBL3354966

>  <SMILES>  (1) 
Fc1ccc(c(c1)F)n1nc(c2c1[C@H]1C[C@H]1C2)C(=O)NCC1CCOCC1

>  <CID>  (1) 
86688570.0

>  <ChEMBL ID>  (1) 
nan

>  <InChiKey>  (1) 
BIMFLDLUJSAALT-JSGCOSHPSA-N

>  <InChi>  (1) 
InChI=1S/C20H21F2N3O2/c21-13-1-2-17(16(22)9-13)25-19-14-7-12(14)8-15(19)18(24-25)20(26)23-10-11-3-5-27-6-4-11/h1-2,9,11-12,14H,3-8,10H2,(H,23,26)/t12-,14-/m0/s1

>  <IUPAC Name>  (1) 
(2S,4S)-9-(2,4-difluorophenyl)-N-(oxan-4-ylmethyl)-8,9-diazatricyclo[4.3.0.02,4]nona-1(6),7-diene-7-carboxamide

$$$$
