
     RDKit          3D

 29 29  0  0  0  0  0  0  0  0999 V2000
    3.4631   -0.8885   -1.3891 N   0  0  0  0  0  0  0  0  0  0  0  0
    3.0447   -0.4862   -0.0818 C   0  0  0  0  0  0  0  0  0  0  0  0
    1.5457   -0.7693    0.1663 C   0  0  1  0  0  0  0  0  0  0  0  0
    1.1402   -0.3218    1.5812 C   0  0  0  0  0  0  0  0  0  0  0  0
    0.7041    0.3995    0.2610 C   0  0  2  0  0  0  0  0  0  0  0  0
   -0.7314    0.5823    0.1861 C   0  0  0  0  0  0  0  0  0  0  0  0
   -1.2553    1.6945    0.8779 C   0  0  0  0  0  0  0  0  0  0  0  0
   -2.5655    2.0324    0.8928 C   0  0  0  0  0  0  0  0  0  0  0  0
   -3.4695    1.2661    0.2014 C   0  0  0  0  0  0  0  0  0  0  0  0
   -2.9988    0.1797   -0.4805 C   0  0  0  0  0  0  0  0  0  0  0  0
   -1.6426   -0.1755   -0.4988 C   0  0  0  0  0  0  0  0  0  0  0  0
   -1.2880   -1.3901   -1.2320 C   0  0  0  0  0  0  0  0  0  0  0  0
   -2.4233   -1.8644   -1.9270 F   0  0  0  0  0  0  0  0  0  0  0  0
   -0.2850   -1.2891   -2.1353 F   0  0  0  0  0  0  0  0  0  0  0  0
   -1.1091   -2.4096   -0.2826 F   0  0  0  0  0  0  0  0  0  0  0  0
    0.6861    0.0000    0.0000 Cl  0  0  0  0  0  0  0  0  0  0  0  0
    3.5018   -0.1185   -2.0937 H   0  0  0  0  0  0  0  0  0  0  0  0
    4.4489   -1.2713   -1.3260 H   0  0  0  0  0  0  0  0  0  0  0  0
    3.2607    0.5953    0.0391 H   0  0  0  0  0  0  0  0  0  0  0  0
    3.6207   -1.0104    0.7211 H   0  0  0  0  0  0  0  0  0  0  0  0
    1.2993   -1.7945   -0.0530 H   0  0  0  0  0  0  0  0  0  0  0  0
    0.3747   -0.9279    2.0936 H   0  0  0  0  0  0  0  0  0  0  0  0
    1.8643    0.1794    2.2208 H   0  0  0  0  0  0  0  0  0  0  0  0
    1.2449    1.4017    0.1625 H   0  0  0  0  0  0  0  0  0  0  0  0
   -0.5713    2.3444    1.4502 H   0  0  0  0  0  0  0  0  0  0  0  0
   -2.9213    2.8985    1.4405 H   0  0  0  0  0  0  0  0  0  0  0  0
   -4.5101    1.5552    0.2270 H   0  0  0  0  0  0  0  0  0  0  0  0
   -3.7421   -0.4119   -1.0219 H   0  0  0  0  0  0  0  0  0  0  0  0
   -0.6861    0.0000    0.0000 H   0  0  0  0  0  0  0  0  0  0  0  0
  1  2  1  0
  2  3  1  0
  3  4  1  0
  4  5  1  0
  5  6  1  0
  6  7  2  0
  7  8  1  0
  8  9  2  0
  9 10  1  0
 10 11  2  0
 11 12  1  0
 12 13  1  0
 12 14  1  0
 12 15  1  0
  5  3  1  0
 11  6  1  0
  1 17  1  0
  1 18  1  0
  2 19  1  0
  2 20  1  0
  3 21  1  6
  4 22  1  0
  4 23  1  0
  5 24  1  1
  7 25  1  0
  8 26  1  0
  9 27  1  0
 10 28  1  0
 16 29  1  0
M  END
>  <Ligand ID>  (1) 
LIG0005675

>  <Ligand>  (1) 
CHEMBL492917

>  <SMILES>  (1) 
NC[C@H]1C[C@@H]1c1ccccc1C(F)(F)F.Cl

>  <CID>  (1) 
44572756.0

>  <ChEMBL ID>  (1) 
nan

>  <InChiKey>  (1) 
QDPCUEJRHIBPPU-JXLXBRSFSA-N

>  <InChi>  (1) 
InChI=1S/C11H12F3N.ClH/c12-11(13,14)10-4-2-1-3-8(10)9-5-7(9)6-15;/h1-4,7,9H,5-6,15H2;1H/t7-,9+;/m1./s1

>  <IUPAC Name>  (1) 
[(1S,2S)-2-[2-(trifluoromethyl)phenyl]cyclopropyl]methanamine;hydrochloride

$$$$
