
     RDKit          3D

 41 43  0  0  0  0  0  0  0  0999 V2000
    2.8404    1.3343   -1.2483 C   0  0  0  0  0  0  0  0  0  0  0  0
    2.1355    0.0788   -0.7491 C   0  0  0  0  0  0  0  0  0  0  0  0
    2.7887   -0.2970    0.5613 C   0  0  0  0  0  0  0  0  0  0  0  0
    2.2214   -0.3891    1.7191 N   0  0  0  0  0  0  0  0  0  0  0  0
    3.1716   -0.7729    2.7321 C   0  0  0  0  0  0  0  0  0  0  0  0
    4.5206   -0.6316    2.0605 C   0  0  0  0  0  0  0  0  0  0  0  0
    4.1742   -0.6052    0.6595 N   0  0  0  0  0  0  0  0  0  0  0  0
    0.7633    0.2731   -0.5924 O   0  0  0  0  0  0  0  0  0  0  0  0
   -0.1790   -0.4611   -1.2590 C   0  0  0  0  0  0  0  0  0  0  0  0
    0.0628   -1.4695   -2.1561 C   0  0  0  0  0  0  0  0  0  0  0  0
   -0.9475   -2.1764   -2.7992 C   0  0  0  0  0  0  0  0  0  0  0  0
   -2.2628   -1.8648   -2.5369 C   0  0  0  0  0  0  0  0  0  0  0  0
   -2.5321   -0.8381   -1.6236 C   0  0  0  0  0  0  0  0  0  0  0  0
   -1.5216   -0.1429   -0.9912 C   0  0  0  0  0  0  0  0  0  0  0  0
   -1.8227    0.9286   -0.0296 C   0  0  0  0  0  0  0  0  0  0  0  0
   -2.0708    0.3380    1.3613 C   0  0  0  0  0  0  0  0  0  0  0  0
   -3.5849    0.4238    1.5369 C   0  0  0  0  0  0  0  0  0  0  0  0
   -3.8977    1.7369    0.8974 C   0  0  0  0  0  0  0  0  0  0  0  0
   -3.0218    1.7562   -0.3223 C   0  0  0  0  0  0  0  0  0  0  0  0
    3.7238    1.5712   -0.6300 H   0  0  0  0  0  0  0  0  0  0  0  0
    2.1625    2.2106   -1.2338 H   0  0  0  0  0  0  0  0  0  0  0  0
    3.1672    1.2372   -2.3108 H   0  0  0  0  0  0  0  0  0  0  0  0
    2.4366   -0.7160   -1.4540 H   0  0  0  0  0  0  0  0  0  0  0  0
    3.0776   -0.2176    3.6726 H   0  0  0  0  0  0  0  0  0  0  0  0
    3.0115   -1.8639    2.9053 H   0  0  0  0  0  0  0  0  0  0  0  0
    5.0350    0.2764    2.3811 H   0  0  0  0  0  0  0  0  0  0  0  0
    5.1794   -1.5202    2.2409 H   0  0  0  0  0  0  0  0  0  0  0  0
    4.8469   -0.7859   -0.1364 H   0  0  0  0  0  0  0  0  0  0  0  0
    1.0683   -1.7651   -2.4077 H   0  0  0  0  0  0  0  0  0  0  0  0
   -0.7176   -2.9673   -3.5025 H   0  0  0  0  0  0  0  0  0  0  0  0
   -3.0649   -2.4010   -3.0251 H   0  0  0  0  0  0  0  0  0  0  0  0
   -3.5843   -0.6480   -1.4609 H   0  0  0  0  0  0  0  0  0  0  0  0
   -0.9672    1.6294    0.1092 H   0  0  0  0  0  0  0  0  0  0  0  0
   -1.7504   -0.7241    1.3774 H   0  0  0  0  0  0  0  0  0  0  0  0
   -1.5950    0.9320    2.1592 H   0  0  0  0  0  0  0  0  0  0  0  0
   -3.7902    0.4040    2.6260 H   0  0  0  0  0  0  0  0  0  0  0  0
   -4.0986   -0.3900    1.0030 H   0  0  0  0  0  0  0  0  0  0  0  0
   -4.9861    1.8050    0.6348 H   0  0  0  0  0  0  0  0  0  0  0  0
   -3.6490    2.5609    1.5914 H   0  0  0  0  0  0  0  0  0  0  0  0
   -2.7404    2.8175   -0.5948 H   0  0  0  0  0  0  0  0  0  0  0  0
   -3.6025    1.3338   -1.1655 H   0  0  0  0  0  0  0  0  0  0  0  0
  1  2  1  0
  2  3  1  0
  3  4  2  0
  4  5  1  0
  5  6  1  0
  6  7  1  0
  2  8  1  0
  8  9  1  0
  9 10  2  0
 10 11  1  0
 11 12  2  0
 12 13  1  0
 13 14  2  0
 14 15  1  0
 15 16  1  0
 16 17  1  0
 17 18  1  0
 18 19  1  0
  7  3  1  0
 14  9  1  0
 19 15  1  0
  1 20  1  0
  1 21  1  0
  1 22  1  0
  2 23  1  0
  5 24  1  0
  5 25  1  0
  6 26  1  0
  6 27  1  0
  7 28  1  0
 10 29  1  0
 11 30  1  0
 12 31  1  0
 13 32  1  0
 15 33  1  0
 16 34  1  0
 16 35  1  0
 17 36  1  0
 17 37  1  0
 18 38  1  0
 18 39  1  0
 19 40  1  0
 19 41  1  0
M  END
>  <Ligand ID>  (1) 
LIG0003518

>  <Ligand>  (1) 
CHEMBL495096

>  <SMILES>  (1) 
CC(C1=NCCN1)Oc1ccccc1C1CCCC1

>  <CID>  (1) 
24906199.0

>  <ChEMBL ID>  (1) 
nan

>  <InChiKey>  (1) 
WIQCERUTOBWUOL-UHFFFAOYSA-N

>  <InChi>  (1) 
InChI=1S/C16H22N2O/c1-12(16-17-10-11-18-16)19-15-9-5-4-8-14(15)13-6-2-3-7-13/h4-5,8-9,12-13H,2-3,6-7,10-11H2,1H3,(H,17,18)

>  <IUPAC Name>  (1) 
2-[1-(2-cyclopentylphenoxy)ethyl]-4,5-dihydro-1H-imidazole

$$$$
