
     RDKit          3D

 20 19  0  0  0  0  0  0  0  0999 V2000
   -1.3698    1.5206    0.2844 C   0  0  0  0  0  0  0  0  0  0  0  0
   -1.5263    0.0215    0.3729 C   0  0  0  0  0  0  0  0  0  0  0  0
   -0.5934   -0.6961   -0.5959 C   0  0  0  0  0  0  0  0  0  0  0  0
    0.8168   -0.3599   -0.2856 C   0  0  0  0  0  0  0  0  0  0  0  0
    1.6750   -1.2475    0.0343 O   0  0  0  0  0  0  0  0  0  0  0  0
    1.2593    0.9470   -0.3323 O   0  0  0  0  0  0  0  0  0  0  0  0
    2.6220    1.1832   -0.0218 C   0  0  0  0  0  0  0  0  0  0  0  0
   -0.7627   -2.1829   -0.3781 C   0  0  0  0  0  0  0  0  0  0  0  0
   -0.5092    1.8979    0.8642 H   0  0  0  0  0  0  0  0  0  0  0  0
   -2.3378    1.9632    0.6492 H   0  0  0  0  0  0  0  0  0  0  0  0
   -1.2077    1.7843   -0.7930 H   0  0  0  0  0  0  0  0  0  0  0  0
   -1.2045   -0.3202    1.3978 H   0  0  0  0  0  0  0  0  0  0  0  0
   -2.5846   -0.2333    0.1748 H   0  0  0  0  0  0  0  0  0  0  0  0
   -0.8827   -0.4402   -1.6287 H   0  0  0  0  0  0  0  0  0  0  0  0
    2.6676    2.0854    0.6262 H   0  0  0  0  0  0  0  0  0  0  0  0
    3.2080    1.3146   -0.9632 H   0  0  0  0  0  0  0  0  0  0  0  0
    3.0346    0.3491    0.5833 H   0  0  0  0  0  0  0  0  0  0  0  0
    0.0061   -2.6919   -0.9806 H   0  0  0  0  0  0  0  0  0  0  0  0
   -1.7874   -2.5365   -0.6006 H   0  0  0  0  0  0  0  0  0  0  0  0
   -0.5236   -2.3582    0.7074 H   0  0  0  0  0  0  0  0  0  0  0  0
  1  2  1  0
  2  3  1  0
  3  4  1  0
  4  5  2  0
  4  6  1  0
  6  7  1  0
  3  8  1  0
  1  9  1  0
  1 10  1  0
  1 11  1  0
  2 12  1  0
  2 13  1  0
  3 14  1  0
  7 15  1  0
  7 16  1  0
  7 17  1  0
  8 18  1  0
  8 19  1  0
  8 20  1  0
M  END
>  <Ligand ID>  (1) 
LIG0002062

>  <Ligand>  (1) 
Methyl 2-methylbutyrate

>  <SMILES>  (1) 
CCC(C(=O)OC)C

>  <CID>  (1) 
13357.0

>  <ChEMBL ID>  (1) 
nan

>  <InChiKey>  (1) 
OCWLYWIFNDCWRZ-UHFFFAOYSA-N

>  <InChi>  (1) 
InChI=1S/C6H12O2/c1-4-5(2)6(7)8-3/h5H,4H2,1-3H3

>  <IUPAC Name>  (1) 
methyl 2-methylbutanoate

$$$$
