
     RDKit          3D

 49 52  0  0  0  0  0  0  0  0999 V2000
   -6.0577   -1.4652   -1.9171 N   0  0  0  0  0  0  0  0  0  0  0  0
   -6.4442   -0.6108   -1.2318 C   0  0  0  0  0  0  0  0  0  0  0  0
   -6.9437    0.4380   -0.3697 C   0  0  0  0  0  0  0  0  0  0  0  0
   -8.2042    0.9630   -0.5669 C   0  0  0  0  0  0  0  0  0  0  0  0
   -8.6789    1.9249    0.2138 N   0  0  0  0  0  0  0  0  0  0  0  0
   -7.9669    2.4495    1.2439 C   0  0  0  0  0  0  0  0  0  0  0  0
   -6.6994    1.9298    1.4513 C   0  0  0  0  0  0  0  0  0  0  0  0
   -6.1718    0.9330    0.6646 C   0  0  0  0  0  0  0  0  0  0  0  0
   -4.8259    0.4009    0.9068 C   0  0  0  0  0  0  0  0  0  0  0  0
   -3.9518    0.9273   -0.0651 O   0  0  0  0  0  0  0  0  0  0  0  0
   -2.6067    0.5490   -0.0222 C   0  0  0  0  0  0  0  0  0  0  0  0
   -1.6792    1.0125   -0.9316 C   0  0  0  0  0  0  0  0  0  0  0  0
   -0.3878    0.6486   -0.8898 N   0  0  0  0  0  0  0  0  0  0  0  0
    0.0344   -0.1827    0.0471 C   0  0  0  0  0  0  0  0  0  0  0  0
   -0.8369   -0.6593    0.9548 N   0  0  0  0  0  0  0  0  0  0  0  0
   -2.1365   -0.3192    0.9467 C   0  0  0  0  0  0  0  0  0  0  0  0
    1.4301   -0.5583    0.0657 N   0  0  0  0  0  0  0  0  0  0  0  0
    1.8289   -1.4552    1.1313 C   0  0  0  0  0  0  0  0  0  0  0  0
    3.2783   -1.7000    1.2681 C   0  0  0  0  0  0  0  0  0  0  0  0
    4.0744   -1.2090    0.1647 N   0  0  0  0  0  0  0  0  0  0  0  0
    3.4118   -1.0977   -1.1225 C   0  0  0  0  0  0  0  0  0  0  0  0
    2.3284   -0.0539   -0.9251 C   0  0  1  0  0  0  0  0  0  0  0  0
    1.6899    0.2538   -2.2576 C   0  0  0  0  0  0  0  0  0  0  0  0
    5.4381   -0.8622    0.3706 C   0  0  0  0  0  0  0  0  0  0  0  0
    6.0326   -0.9591    1.5742 N   0  0  0  0  0  0  0  0  0  0  0  0
    7.2809   -0.5651    1.4137 O   0  0  0  0  0  0  0  0  0  0  0  0
    7.4891   -0.2295    0.1717 C   0  0  0  0  0  0  0  0  0  0  0  0
    6.3324   -0.4069   -0.5234 N   0  0  0  0  0  0  0  0  0  0  0  0
    8.7499    0.2592   -0.4008 C   0  0  0  0  0  0  0  0  0  0  0  0
   -8.8164    0.5822   -1.3739 H   0  0  0  0  0  0  0  0  0  0  0  0
   -8.3565    3.2287    1.8735 H   0  0  0  0  0  0  0  0  0  0  0  0
   -6.1221    2.3282    2.2563 H   0  0  0  0  0  0  0  0  0  0  0  0
   -4.8493   -0.7264    0.8570 H   0  0  0  0  0  0  0  0  0  0  0  0
   -4.4968    0.6491    1.9330 H   0  0  0  0  0  0  0  0  0  0  0  0
   -1.9887    1.6990   -1.7187 H   0  0  0  0  0  0  0  0  0  0  0  0
   -2.8217   -0.7042    1.6742 H   0  0  0  0  0  0  0  0  0  0  0  0
    1.4420   -0.9730    2.0771 H   0  0  0  0  0  0  0  0  0  0  0  0
    1.2368   -2.3896    1.0501 H   0  0  0  0  0  0  0  0  0  0  0  0
    3.4372   -2.8198    1.2508 H   0  0  0  0  0  0  0  0  0  0  0  0
    3.6512   -1.3831    2.2636 H   0  0  0  0  0  0  0  0  0  0  0  0
    2.8756   -2.0540   -1.3753 H   0  0  0  0  0  0  0  0  0  0  0  0
    4.1217   -0.8215   -1.9282 H   0  0  0  0  0  0  0  0  0  0  0  0
    2.8304    0.8584   -0.4952 H   0  0  0  0  0  0  0  0  0  0  0  0
    0.9462   -0.5160   -2.4731 H   0  0  0  0  0  0  0  0  0  0  0  0
    2.5257    0.1390   -3.0109 H   0  0  0  0  0  0  0  0  0  0  0  0
    1.3727    1.2920   -2.3449 H   0  0  0  0  0  0  0  0  0  0  0  0
    8.7692    1.3764   -0.3867 H   0  0  0  0  0  0  0  0  0  0  0  0
    8.7927   -0.0730   -1.4649 H   0  0  0  0  0  0  0  0  0  0  0  0
    9.6426   -0.0481    0.1706 H   0  0  0  0  0  0  0  0  0  0  0  0
  1  2  3  0
  2  3  1  0
  3  4  2  0
  4  5  1  0
  5  6  2  0
  6  7  1  0
  7  8  2  0
  8  9  1  0
  9 10  1  0
 10 11  1  0
 11 12  2  0
 12 13  1  0
 13 14  2  0
 14 15  1  0
 15 16  2  0
 14 17  1  0
 17 18  1  0
 18 19  1  0
 19 20  1  0
 20 21  1  0
 21 22  1  0
 22 23  1  0
 20 24  1  0
 24 25  2  0
 25 26  1  0
 26 27  1  0
 27 28  2  0
 27 29  1  0
  8  3  1  0
 16 11  1  0
 22 17  1  0
 28 24  1  0
  4 30  1  0
  6 31  1  0
  7 32  1  0
  9 33  1  0
  9 34  1  0
 12 35  1  0
 16 36  1  0
 18 37  1  0
 18 38  1  0
 19 39  1  0
 19 40  1  0
 21 41  1  0
 21 42  1  0
 22 43  1  1
 23 44  1  0
 23 45  1  0
 23 46  1  0
 29 47  1  0
 29 48  1  0
 29 49  1  0
M  END
>  <Ligand ID>  (1) 
LIG0005311

>  <Ligand>  (1) 
CHEMBL2086692

>  <SMILES>  (1) 
N#Cc1cnccc1COc1cnc(nc1)N1CCN(C[C@H]1C)c1noc(n1)C

>  <CID>  (1) 
58190401.0

>  <ChEMBL ID>  (1) 
nan

>  <InChiKey>  (1) 
QIRMKHKIAOSXTB-CYBMUJFWSA-N

>  <InChi>  (1) 
InChI=1S/C19H20N8O2/c1-13-11-26(19-24-14(2)29-25-19)5-6-27(13)18-22-9-17(10-23-18)28-12-15-3-4-21-8-16(15)7-20/h3-4,8-10,13H,5-6,11-12H2,1-2H3/t13-/m1/s1

>  <IUPAC Name>  (1) 
4-[[2-[(2R)-2-methyl-4-(5-methyl-1,2,4-oxadiazol-3-yl)piperazin-1-yl]pyrimidin-5-yl]oxymethyl]pyridine-3-carbonitrile

$$$$
