
     RDKit          3D

 48 50  0  0  0  0  0  0  0  0999 V2000
    2.8456   -0.9058   -0.2772 O   0  0  0  0  0  0  0  0  0  0  0  0
    2.8275    0.1405    0.3934 C   0  0  0  0  0  0  0  0  0  0  0  0
    1.5502    0.4986    1.0673 C   0  0  0  0  0  0  0  0  0  0  0  0
    0.5216   -0.4923    0.7999 N   0  0  0  0  0  0  0  0  0  0  0  0
    0.3969   -1.5228    1.6182 N   0  0  0  0  0  0  0  0  0  0  0  0
   -0.5530   -2.4685    1.3988 C   0  0  0  0  0  0  0  0  0  0  0  0
   -0.6558   -3.5997    2.3364 C   0  0  0  0  0  0  0  0  0  0  0  0
   -1.3925   -2.3246    0.2891 C   0  0  0  0  0  0  0  0  0  0  0  0
   -1.2561   -1.2439   -0.5625 C   0  0  0  0  0  0  0  0  0  0  0  0
   -0.2830   -0.3365   -0.2804 C   0  0  0  0  0  0  0  0  0  0  0  0
   -0.1183    0.6631   -1.0239 O   0  0  0  0  0  0  0  0  0  0  0  0
   -2.1844   -1.1660   -1.7075 C   0  0  0  0  0  0  0  0  0  0  0  0
   -3.2433   -0.1647   -1.4373 C   0  0  0  0  0  0  0  0  0  0  0  0
   -3.1750    1.1525   -1.8319 C   0  0  0  0  0  0  0  0  0  0  0  0
   -4.2063    2.0317   -1.5370 C   0  0  0  0  0  0  0  0  0  0  0  0
   -5.3093    1.5783   -0.8416 C   0  0  0  0  0  0  0  0  0  0  0  0
   -5.4019    0.2614   -0.4348 C   0  0  0  0  0  0  0  0  0  0  0  0
   -4.3612   -0.6185   -0.7342 C   0  0  0  0  0  0  0  0  0  0  0  0
   -6.3938    2.5027   -0.5306 C   0  0  0  0  0  0  0  0  0  0  0  0
   -6.2614    3.7100   -0.9273 O   0  0  0  0  0  0  0  0  0  0  0  0
   -7.5425    2.0644    0.1838 N   0  0  0  0  0  0  0  0  0  0  0  0
    3.9636    0.9686    0.5214 N   0  0  0  0  0  0  0  0  0  0  0  0
    5.2263    0.7470   -0.0601 C   0  0  0  0  0  0  0  0  0  0  0  0
    5.5904   -0.3074   -0.8365 C   0  0  0  0  0  0  0  0  0  0  0  0
    6.8787   -0.4278   -1.3696 C   0  0  0  0  0  0  0  0  0  0  0  0
    7.8494    0.5212   -1.1339 C   0  0  0  0  0  0  0  0  0  0  0  0
    7.4791    1.5961   -0.3427 C   0  0  0  0  0  0  0  0  0  0  0  0
    6.2133    1.7099    0.1784 C   0  0  0  0  0  0  0  0  0  0  0  0
    9.5886    0.3293   -1.8723 Br  0  0  0  0  0  0  0  0  0  0  0  0
    1.2061    1.4569    0.6112 H   0  0  0  0  0  0  0  0  0  0  0  0
    1.6667    0.5691    2.1482 H   0  0  0  0  0  0  0  0  0  0  0  0
   -1.6581   -4.0772    2.2436 H   0  0  0  0  0  0  0  0  0  0  0  0
    0.0741   -4.4051    2.0633 H   0  0  0  0  0  0  0  0  0  0  0  0
   -0.4844   -3.3106    3.3998 H   0  0  0  0  0  0  0  0  0  0  0  0
   -2.1376   -3.0968    0.1448 H   0  0  0  0  0  0  0  0  0  0  0  0
   -2.6475   -2.1261   -1.9530 H   0  0  0  0  0  0  0  0  0  0  0  0
   -1.5946   -0.8691   -2.6227 H   0  0  0  0  0  0  0  0  0  0  0  0
   -2.3263    1.5160   -2.3751 H   0  0  0  0  0  0  0  0  0  0  0  0
   -4.1078    3.0615   -1.8689 H   0  0  0  0  0  0  0  0  0  0  0  0
   -6.2498   -0.1310    0.1115 H   0  0  0  0  0  0  0  0  0  0  0  0
   -4.4411   -1.6391   -0.4145 H   0  0  0  0  0  0  0  0  0  0  0  0
   -7.7572    2.2973    1.1632 H   0  0  0  0  0  0  0  0  0  0  0  0
   -8.2189    1.4528   -0.3456 H   0  0  0  0  0  0  0  0  0  0  0  0
    3.8237    1.8357    1.1213 H   0  0  0  0  0  0  0  0  0  0  0  0
    4.9125   -1.0815   -1.0685 H   0  0  0  0  0  0  0  0  0  0  0  0
    7.1241   -1.2988   -1.9911 H   0  0  0  0  0  0  0  0  0  0  0  0
    8.2087    2.3613   -0.1340 H   0  0  0  0  0  0  0  0  0  0  0  0
    6.0142    2.5879    0.7879 H   0  0  0  0  0  0  0  0  0  0  0  0
  1  2  2  0
  2  3  1  0
  3  4  1  0
  4  5  1  0
  5  6  2  0
  6  7  1  0
  6  8  1  0
  8  9  2  0
  9 10  1  0
 10 11  2  0
  9 12  1  0
 12 13  1  0
 13 14  2  0
 14 15  1  0
 15 16  2  0
 16 17  1  0
 17 18  2  0
 16 19  1  0
 19 20  2  0
 19 21  1  0
  2 22  1  0
 22 23  1  0
 23 24  2  0
 24 25  1  0
 25 26  2  0
 26 27  1  0
 27 28  2  0
 26 29  1  0
 10  4  1  0
 18 13  1  0
 28 23  1  0
  3 30  1  0
  3 31  1  0
  7 32  1  0
  7 33  1  0
  7 34  1  0
  8 35  1  0
 12 36  1  0
 12 37  1  0
 14 38  1  0
 15 39  1  0
 17 40  1  0
 18 41  1  0
 21 42  1  0
 21 43  1  0
 22 44  1  0
 24 45  1  0
 25 46  1  0
 27 47  1  0
 28 48  1  0
M  END
>  <Ligand ID>  (1) 
LIG0003944

>  <Ligand>  (1) 
CHEMBL2391440

>  <SMILES>  (1) 
O=C(Cn1nc(C)cc(c1=O)Cc1ccc(cc1)C(=O)N)Nc1ccc(cc1)Br

>  <CID>  (1) 
71699063.0

>  <ChEMBL ID>  (1) 
nan

>  <InChiKey>  (1) 
IMSKONLMQRQUQO-UHFFFAOYSA-N

>  <InChi>  (1) 
InChI=1S/C21H19BrN4O3/c1-13-10-16(11-14-2-4-15(5-3-14)20(23)28)21(29)26(25-13)12-19(27)24-18-8-6-17(22)7-9-18/h2-10H,11-12H2,1H3,(H2,23,28)(H,24,27)

>  <IUPAC Name>  (1) 
4-[[2-[2-(4-bromoanilino)-2-oxoethyl]-6-methyl-3-oxopyridazin-4-yl]methyl]benzamide

$$$$
