
     RDKit          3D

 26 24  0  0  0  0  0  0  0  0999 V2000
    4.3909    0.8012   -0.1090 N   0  0  0  0  0  0  0  0  0  0  0  0
    3.0145    0.6885   -0.4588 C   0  0  0  0  0  0  0  0  0  0  0  0
    2.4533    1.5534   -1.1790 O   0  0  0  0  0  0  0  0  0  0  0  0
    2.3047   -0.3981    0.0129 O   0  0  0  0  0  0  0  0  0  0  0  0
    0.9539   -0.6653   -0.2312 C   0  0  0  0  0  0  0  0  0  0  0  0
   -0.0065    0.3805    0.2420 C   0  0  0  0  0  0  0  0  0  0  0  0
   -1.3419   -0.0804   -0.1022 N   0  0  0  0  0  0  0  0  0  0  0  0
   -1.6278   -0.0906   -1.5016 C   0  0  0  0  0  0  0  0  0  0  0  0
   -2.3174    0.7898    0.5330 C   0  0  0  0  0  0  0  0  0  0  0  0
   -1.5498   -1.4393    0.3943 C   0  0  0  0  0  0  0  0  0  0  0  0
    0.0000    0.0000    0.0000 Cl  0  0  0  0  0  0  0  0  0  0  0  0
    4.7391    1.2363    0.7635 H   0  0  0  0  0  0  0  0  0  0  0  0
    5.1087    0.4234   -0.7685 H   0  0  0  0  0  0  0  0  0  0  0  0
    0.7233   -1.6068    0.3031 H   0  0  0  0  0  0  0  0  0  0  0  0
    0.7376   -0.7927   -1.3324 H   0  0  0  0  0  0  0  0  0  0  0  0
    0.1296    1.3557   -0.2673 H   0  0  0  0  0  0  0  0  0  0  0  0
    0.0103    0.5949    1.3112 H   0  0  0  0  0  0  0  0  0  0  0  0
   -1.2400   -0.9764   -2.0355 H   0  0  0  0  0  0  0  0  0  0  0  0
   -1.3141    0.8104   -2.0585 H   0  0  0  0  0  0  0  0  0  0  0  0
   -2.7499   -0.2038   -1.5681 H   0  0  0  0  0  0  0  0  0  0  0  0
   -2.0353    0.8629    1.5909 H   0  0  0  0  0  0  0  0  0  0  0  0
   -2.2536    1.7950    0.0876 H   0  0  0  0  0  0  0  0  0  0  0  0
   -3.3178    0.3158    0.3727 H   0  0  0  0  0  0  0  0  0  0  0  0
   -2.6431   -1.6074    0.4721 H   0  0  0  0  0  0  0  0  0  0  0  0
   -1.0299   -1.5701    1.3767 H   0  0  0  0  0  0  0  0  0  0  0  0
   -1.1388   -2.1768   -0.3246 H   0  0  0  0  0  0  0  0  0  0  0  0
  1  2  1  0
  2  3  2  0
  2  4  1  0
  4  5  1  0
  5  6  1  0
  6  7  1  0
  7  8  1  0
  7  9  1  0
  7 10  1  0
  1 12  1  0
  1 13  1  0
  5 14  1  0
  5 15  1  0
  6 16  1  0
  6 17  1  0
  8 18  1  0
  8 19  1  0
  8 20  1  0
  9 21  1  0
  9 22  1  0
  9 23  1  0
 10 24  1  0
 10 25  1  0
 10 26  1  0
M  CHG  2   7   1  11  -1
M  END
>  <Ligand ID>  (1) 
LIG0001177

>  <Ligand>  (1) 
carbachol

>  <SMILES>  (1) 
NC(=O)OCC[N+](C)(C)C.[Cl-]

>  <CID>  (1) 
5831.0

>  <ChEMBL ID>  (1) 
nan

>  <InChiKey>  (1) 
AIXAANGOTKPUOY-UHFFFAOYSA-N

>  <InChi>  (1) 
InChI=1S/C6H14N2O2.ClH/c1-8(2,3)4-5-10-6(7)9;/h4-5H2,1-3H3,(H-,7,9);1H

>  <IUPAC Name>  (1) 
2-carbamoyloxyethyl(trimethyl)azanium;chloride

$$$$
