
     RDKit          3D

 41 44  0  0  0  0  0  0  0  0999 V2000
   -8.4000   -1.3055   -1.2920 F   0  0  0  0  0  0  0  0  0  0  0  0
   -7.1406   -1.0249   -0.8926 C   0  0  0  0  0  0  0  0  0  0  0  0
   -6.8459    0.2470   -0.4602 C   0  0  0  0  0  0  0  0  0  0  0  0
   -5.5613    0.6074   -0.0317 C   0  0  0  0  0  0  0  0  0  0  0  0
   -4.5197   -0.3175   -0.0264 C   0  0  0  0  0  0  0  0  0  0  0  0
   -4.8269   -1.5793   -0.4594 C   0  0  0  0  0  0  0  0  0  0  0  0
   -6.1128   -1.9401   -0.8880 C   0  0  0  0  0  0  0  0  0  0  0  0
   -3.2235    0.0773    0.3916 N   0  0  0  0  0  0  0  0  0  0  0  0
   -2.8398    1.4534    0.6574 C   0  0  0  0  0  0  0  0  0  0  0  0
   -1.5550    1.8117   -0.0616 C   0  0  0  0  0  0  0  0  0  0  0  0
   -0.5317    0.8306    0.1090 N   0  0  0  0  0  0  0  0  0  0  0  0
   -0.7681   -0.4518    0.4108 C   0  0  0  0  0  0  0  0  0  0  0  0
   -2.1531   -0.8812    0.5666 C   0  0  0  0  0  0  0  0  0  0  0  0
   -2.3720   -2.0610    0.8475 O   0  0  0  0  0  0  0  0  0  0  0  0
    0.4137   -1.1281    0.5107 C   0  0  0  0  0  0  0  0  0  0  0  0
    1.4008   -0.1854    0.2516 C   0  0  0  0  0  0  0  0  0  0  0  0
    0.7972    0.9905    0.0121 N   0  0  0  0  0  0  0  0  0  0  0  0
    2.7800   -0.4016    0.2379 O   0  0  0  0  0  0  0  0  0  0  0  0
    3.6721    0.6443   -0.0403 C   0  0  0  0  0  0  0  0  0  0  0  0
    5.0934    0.2584   -0.0175 C   0  0  0  0  0  0  0  0  0  0  0  0
    5.7404   -0.1896   -1.1432 C   0  0  0  0  0  0  0  0  0  0  0  0
    7.0678   -0.5420   -1.0883 C   0  0  0  0  0  0  0  0  0  0  0  0
    7.7725   -0.4518    0.0978 C   0  0  0  0  0  0  0  0  0  0  0  0
    7.1428   -0.0002    1.2583 C   0  0  0  0  0  0  0  0  0  0  0  0
    5.8073    0.3443    1.1613 C   0  0  0  0  0  0  0  0  0  0  0  0
   -7.6538    0.9846   -0.4589 H   0  0  0  0  0  0  0  0  0  0  0  0
   -5.4614    1.6214    0.2844 H   0  0  0  0  0  0  0  0  0  0  0  0
   -4.1048   -2.3609   -0.5045 H   0  0  0  0  0  0  0  0  0  0  0  0
   -6.3333   -2.9339   -1.2232 H   0  0  0  0  0  0  0  0  0  0  0  0
   -3.6018    2.1835    0.3344 H   0  0  0  0  0  0  0  0  0  0  0  0
   -2.7283    1.5972    1.7531 H   0  0  0  0  0  0  0  0  0  0  0  0
   -1.2065    2.7624    0.4186 H   0  0  0  0  0  0  0  0  0  0  0  0
   -1.7754    2.0709   -1.1012 H   0  0  0  0  0  0  0  0  0  0  0  0
    0.5485   -2.1574    0.7383 H   0  0  0  0  0  0  0  0  0  0  0  0
    3.4978    1.4609    0.7165 H   0  0  0  0  0  0  0  0  0  0  0  0
    3.3824    1.0724   -1.0383 H   0  0  0  0  0  0  0  0  0  0  0  0
    5.2122   -0.2670   -2.0729 H   0  0  0  0  0  0  0  0  0  0  0  0
    7.6044   -0.8960   -1.9486 H   0  0  0  0  0  0  0  0  0  0  0  0
    8.8130   -0.7220    0.1660 H   0  0  0  0  0  0  0  0  0  0  0  0
    7.6655    0.0819    2.2016 H   0  0  0  0  0  0  0  0  0  0  0  0
    5.3039    0.6972    2.0554 H   0  0  0  0  0  0  0  0  0  0  0  0
  1  2  1  0
  2  3  2  0
  3  4  1  0
  4  5  2  0
  5  6  1  0
  6  7  2  0
  5  8  1  0
  8  9  1  0
  9 10  1  0
 10 11  1  0
 11 12  1  0
 12 13  1  0
 13 14  2  0
 12 15  2  0
 15 16  1  0
 16 17  2  0
 16 18  1  0
 18 19  1  0
 19 20  1  0
 20 21  2  0
 21 22  1  0
 22 23  2  0
 23 24  1  0
 24 25  2  0
  7  2  1  0
 13  8  1  0
 25 20  1  0
 17 11  1  0
  3 26  1  0
  4 27  1  0
  6 28  1  0
  7 29  1  0
  9 30  1  0
  9 31  1  0
 10 32  1  0
 10 33  1  0
 15 34  1  0
 19 35  1  0
 19 36  1  0
 21 37  1  0
 22 38  1  0
 23 39  1  0
 24 40  1  0
 25 41  1  0
M  END
>  <Ligand ID>  (1) 
LIG0000506

>  <Ligand>  (1) 
CHEMBL3747116

>  <SMILES>  (1) 
Fc1ccc(cc1)N1CCn2c(C1=O)cc(n2)OCc1ccccc1

>  <CID>  (1) 
72714783.0

>  <ChEMBL ID>  (1) 
nan

>  <InChiKey>  (1) 
PVXQBLCMLZKSAX-UHFFFAOYSA-N

>  <InChi>  (1) 
InChI=1S/C19H16FN3O2/c20-15-6-8-16(9-7-15)22-10-11-23-17(19(22)24)12-18(21-23)25-13-14-4-2-1-3-5-14/h1-9,12H,10-11,13H2

>  <IUPAC Name>  (1) 
5-(4-fluorophenyl)-2-phenylmethoxy-6,7-dihydropyrazolo[1,5-a]pyrazin-4-one

$$$$
