
     RDKit          3D

 22 22  0  0  0  0  0  0  0  0999 V2000
    5.0585   -0.3344   -0.3051 O   0  0  0  0  0  0  0  0  0  0  0  0
    3.9474    0.2695   -0.3462 C   0  0  0  0  0  0  0  0  0  0  0  0
    2.6847   -0.4450   -0.1040 C   0  0  0  0  0  0  0  0  0  0  0  0
    1.5441    0.1834   -0.1480 C   0  0  0  0  0  0  0  0  0  0  0  0
    0.2681   -0.4336    0.0751 C   0  0  0  0  0  0  0  0  0  0  0  0
    0.1138   -1.7712    0.3624 C   0  0  0  0  0  0  0  0  0  0  0  0
   -1.1258   -2.3585    0.5766 C   0  0  0  0  0  0  0  0  0  0  0  0
   -2.2773   -1.6023    0.5072 C   0  0  0  0  0  0  0  0  0  0  0  0
   -2.1503   -0.2605    0.2210 C   0  0  0  0  0  0  0  0  0  0  0  0
   -0.9057    0.3141    0.0090 C   0  0  0  0  0  0  0  0  0  0  0  0
   -0.7738    1.6567   -0.2777 O   0  0  0  0  0  0  0  0  0  0  0  0
   -1.8319    2.5769   -0.3879 C   0  0  0  0  0  0  0  0  0  0  0  0
    3.9151    1.3355   -0.5635 H   0  0  0  0  0  0  0  0  0  0  0  0
    2.7331   -1.4959    0.1090 H   0  0  0  0  0  0  0  0  0  0  0  0
    1.5820    1.2562   -0.3720 H   0  0  0  0  0  0  0  0  0  0  0  0
    0.9643   -2.4300    0.4344 H   0  0  0  0  0  0  0  0  0  0  0  0
   -1.2284   -3.4118    0.8015 H   0  0  0  0  0  0  0  0  0  0  0  0
   -3.2477   -2.0371    0.6697 H   0  0  0  0  0  0  0  0  0  0  0  0
   -3.0279    0.3932    0.1521 H   0  0  0  0  0  0  0  0  0  0  0  0
   -1.4296    3.4410   -0.9902 H   0  0  0  0  0  0  0  0  0  0  0  0
   -2.7234    2.1635   -0.8822 H   0  0  0  0  0  0  0  0  0  0  0  0
   -2.0895    2.9900    0.6285 H   0  0  0  0  0  0  0  0  0  0  0  0
  1  2  2  0
  2  3  1  0
  3  4  2  0
  4  5  1  0
  5  6  2  0
  6  7  1  0
  7  8  2  0
  8  9  1  0
  9 10  2  0
 10 11  1  0
 11 12  1  0
 10  5  1  0
  2 13  1  0
  3 14  1  0
  4 15  1  0
  6 16  1  0
  7 17  1  0
  8 18  1  0
  9 19  1  0
 12 20  1  0
 12 21  1  0
 12 22  1  0
M  END
>  <Ligand ID>  (1) 
LIG0000565

>  <Ligand>  (1) 
(E)-3-(2-methoxyphenyl)prop-2-enal

>  <SMILES>  (1) 
O=C/C=C/c1ccccc1OC

>  <CID>  (1) 
641298.0

>  <ChEMBL ID>  (1) 
nan

>  <InChiKey>  (1) 
KKVZAVRSVHUSPL-GQCTYLIASA-N

>  <InChi>  (1) 
InChI=1S/C10H10O2/c1-12-10-7-3-2-5-9(10)6-4-8-11/h2-8H,1H3/b6-4+

>  <IUPAC Name>  (1) 
(E)-3-(2-methoxyphenyl)prop-2-enal

$$$$
