
     RDKit          3D

 49 51  0  0  0  0  0  0  0  0999 V2000
    8.4101   -0.5984    2.8776 C   0  0  0  0  0  0  0  0  0  0  0  0
    6.9938   -0.3409    2.4893 C   0  0  0  0  0  0  0  0  0  0  0  0
    6.1365   -0.4107    3.3718 O   0  0  0  0  0  0  0  0  0  0  0  0
    6.6968   -0.0320    1.1458 N   0  0  0  0  0  0  0  0  0  0  0  0
    5.4213    0.2373    0.6123 C   0  0  0  0  0  0  0  0  0  0  0  0
    4.2456    0.2451    1.3168 C   0  0  0  0  0  0  0  0  0  0  0  0
    3.0227    0.5226    0.7108 C   0  0  0  0  0  0  0  0  0  0  0  0
    2.9658    0.8005   -0.6353 C   0  0  0  0  0  0  0  0  0  0  0  0
    4.1276    0.7950   -1.3428 C   0  0  0  0  0  0  0  0  0  0  0  0
    5.3273    0.5209   -0.7387 C   0  0  0  0  0  0  0  0  0  0  0  0
    1.4326    1.1665   -1.4881 S   0  0  0  0  0  0  0  0  0  0  0  0
    0.6889   -0.3852   -2.1263 C   0  0  0  0  0  0  0  0  0  0  0  0
   -0.5464   -0.0153   -2.8076 C   0  0  0  0  0  0  0  0  0  0  0  0
   -0.4385    0.2819   -4.0551 O   0  0  0  0  0  0  0  0  0  0  0  0
   -1.8637    0.0481   -2.2211 C   0  0  0  0  0  0  0  0  0  0  0  0
   -3.0319    0.4104   -2.9070 C   0  0  0  0  0  0  0  0  0  0  0  0
   -4.1067    0.3656   -2.0484 C   0  0  0  0  0  0  0  0  0  0  0  0
   -3.6393   -0.0149   -0.8466 N   0  0  0  0  0  0  0  0  0  0  0  0
   -2.2975   -0.2077   -0.9383 C   0  0  0  0  0  0  0  0  0  0  0  0
   -1.4365   -0.6350    0.1938 C   0  0  0  0  0  0  0  0  0  0  0  0
   -4.4813   -0.1682    0.2863 C   0  0  0  0  0  0  0  0  0  0  0  0
   -4.3904    0.6163    1.4173 C   0  0  0  0  0  0  0  0  0  0  0  0
   -5.2627    0.3926    2.4818 C   0  0  0  0  0  0  0  0  0  0  0  0
   -6.2261   -0.6191    2.4101 C   0  0  0  0  0  0  0  0  0  0  0  0
   -6.3134   -1.4105    1.2621 C   0  0  0  0  0  0  0  0  0  0  0  0
   -5.4390   -1.1690    0.2233 C   0  0  0  0  0  0  0  0  0  0  0  0
   -7.2618   -2.3956    1.2085 F   0  0  0  0  0  0  0  0  0  0  0  0
   -5.4986    0.6840   -2.4204 C   0  0  0  0  0  0  0  0  0  0  0  0
    9.0566    0.0764    2.2785 H   0  0  0  0  0  0  0  0  0  0  0  0
    8.6757   -1.6447    2.7295 H   0  0  0  0  0  0  0  0  0  0  0  0
    8.5486   -0.3051    3.9348 H   0  0  0  0  0  0  0  0  0  0  0  0
    7.5188   -0.0034    0.4880 H   0  0  0  0  0  0  0  0  0  0  0  0
    4.2128    0.0389    2.3633 H   0  0  0  0  0  0  0  0  0  0  0  0
    2.0921    0.5273    1.2760 H   0  0  0  0  0  0  0  0  0  0  0  0
    4.1032    1.0072   -2.3831 H   0  0  0  0  0  0  0  0  0  0  0  0
    6.2215    0.5359   -1.3804 H   0  0  0  0  0  0  0  0  0  0  0  0
    1.4336   -0.8078   -2.8519 H   0  0  0  0  0  0  0  0  0  0  0  0
    0.6326   -1.0909   -1.3103 H   0  0  0  0  0  0  0  0  0  0  0  0
   -3.1055    0.6907   -3.9641 H   0  0  0  0  0  0  0  0  0  0  0  0
   -0.5942    0.0402    0.3977 H   0  0  0  0  0  0  0  0  0  0  0  0
   -1.1509   -1.7191    0.1349 H   0  0  0  0  0  0  0  0  0  0  0  0
   -2.0363   -0.6207    1.1566 H   0  0  0  0  0  0  0  0  0  0  0  0
   -3.6401    1.3983    1.4636 H   0  0  0  0  0  0  0  0  0  0  0  0
   -5.2214    0.9880    3.3851 H   0  0  0  0  0  0  0  0  0  0  0  0
   -6.9157   -0.8049    3.2366 H   0  0  0  0  0  0  0  0  0  0  0  0
   -5.5324   -1.8087   -0.6673 H   0  0  0  0  0  0  0  0  0  0  0  0
   -5.4440    1.5485   -3.1465 H   0  0  0  0  0  0  0  0  0  0  0  0
   -6.1029    1.0790   -1.5733 H   0  0  0  0  0  0  0  0  0  0  0  0
   -5.9875   -0.1144   -2.9998 H   0  0  0  0  0  0  0  0  0  0  0  0
  1  2  1  0
  2  3  2  0
  2  4  1  0
  4  5  1  0
  5  6  2  0
  6  7  1  0
  7  8  2  0
  8  9  1  0
  9 10  2  0
  8 11  1  0
 11 12  1  0
 12 13  1  0
 13 14  2  0
 13 15  1  0
 15 16  1  0
 16 17  2  0
 17 18  1  0
 18 19  1  0
 19 20  1  0
 18 21  1  0
 21 22  2  0
 22 23  1  0
 23 24  2  0
 24 25  1  0
 25 26  2  0
 25 27  1  0
 17 28  1  0
 10  5  1  0
 19 15  2  0
 26 21  1  0
  1 29  1  0
  1 30  1  0
  1 31  1  0
  4 32  1  0
  6 33  1  0
  7 34  1  0
  9 35  1  0
 10 36  1  0
 12 37  1  0
 12 38  1  0
 16 39  1  0
 20 40  1  0
 20 41  1  0
 20 42  1  0
 22 43  1  0
 23 44  1  0
 24 45  1  0
 26 46  1  0
 28 47  1  0
 28 48  1  0
 28 49  1  0
M  END
>  <Ligand ID>  (1) 
LIG0003718

>  <Ligand>  (1) 
CHEMBL3561545

>  <SMILES>  (1) 
CC(=O)Nc1ccc(cc1)SCC(=O)c1cc(n(c1C)c1cccc(c1)F)C

>  <CID>  (1) 
24382981.0

>  <ChEMBL ID>  (1) 
nan

>  <InChiKey>  (1) 
JOIHRJCYZWQSEI-UHFFFAOYSA-N

>  <InChi>  (1) 
InChI=1S/C22H21FN2O2S/c1-14-11-21(15(2)25(14)19-6-4-5-17(23)12-19)22(27)13-28-20-9-7-18(8-10-20)24-16(3)26/h4-12H,13H2,1-3H3,(H,24,26)

>  <IUPAC Name>  (1) 
N-[4-[2-[1-(3-fluorophenyl)-2,5-dimethylpyrrol-3-yl]-2-oxoethyl]sulfanylphenyl]acetamide

$$$$
