
     RDKit          3D

 27 26  0  0  0  0  0  0  0  0999 V2000
   -4.6862   -1.7584    0.8160 O   0  0  0  0  0  0  0  0  0  0  0  0
   -3.5739   -1.3805    0.0518 C   0  0  0  0  0  0  0  0  0  0  0  0
   -3.1179   -2.2336   -0.7535 O   0  0  0  0  0  0  0  0  0  0  0  0
   -2.9603   -0.0666    0.1696 C   0  0  0  0  0  0  0  0  0  0  0  0
   -1.9150    0.2327   -0.5758 C   0  0  0  0  0  0  0  0  0  0  0  0
   -1.0706    1.7885   -0.5368 P   0  0  0  0  0  0  0  0  0  0  0  0
   -0.8785    2.2906   -1.9579 O   0  0  0  0  0  0  0  0  0  0  0  0
    0.5852    1.4856    0.1800 C   0  0  0  0  0  0  0  0  0  0  0  0
    0.9498    0.0216    0.0179 C   0  0  0  0  0  0  0  0  0  0  0  0
    2.3191   -0.2833    0.5981 C   0  0  1  0  0  0  0  0  0  0  0  0
    2.6311   -1.7372    0.4133 C   0  0  0  0  0  0  0  0  0  0  0  0
    1.7977   -2.5433    0.9018 O   0  0  0  0  0  0  0  0  0  0  0  0
    3.7755   -2.1644   -0.2591 O   0  0  0  0  0  0  0  0  0  0  0  0
    3.3668    0.5012   -0.0167 N   0  0  0  0  0  0  0  0  0  0  0  0
   -1.8996    2.9365    0.3542 O   0  0  0  0  0  0  0  0  0  0  0  0
   -4.8331   -2.6983    1.1178 H   0  0  0  0  0  0  0  0  0  0  0  0
   -3.3361    0.6624    0.8459 H   0  0  0  0  0  0  0  0  0  0  0  0
   -1.5289   -0.5227   -1.2738 H   0  0  0  0  0  0  0  0  0  0  0  0
    0.5876    1.7618    1.2594 H   0  0  0  0  0  0  0  0  0  0  0  0
    1.3317    2.0766   -0.3968 H   0  0  0  0  0  0  0  0  0  0  0  0
    0.2348   -0.6229    0.5864 H   0  0  0  0  0  0  0  0  0  0  0  0
    0.9222   -0.2210   -1.0671 H   0  0  0  0  0  0  0  0  0  0  0  0
    2.2787   -0.1176    1.6875 H   0  0  0  0  0  0  0  0  0  0  0  0
    4.0956   -3.1264   -0.1364 H   0  0  0  0  0  0  0  0  0  0  0  0
    3.2999    0.3628   -1.0469 H   0  0  0  0  0  0  0  0  0  0  0  0
    3.3067    1.4976    0.2284 H   0  0  0  0  0  0  0  0  0  0  0  0
   -1.6825    3.8585    0.0967 H   0  0  0  0  0  0  0  0  0  0  0  0
  1  2  1  0
  2  3  2  0
  2  4  1  0
  4  5  2  0
  5  6  1  0
  6  7  2  0
  6  8  1  0
  8  9  1  0
  9 10  1  0
 10 11  1  0
 11 12  2  0
 11 13  1  0
 10 14  1  0
  6 15  1  0
  1 16  1  0
  4 17  1  0
  5 18  1  0
  8 19  1  0
  8 20  1  0
  9 21  1  0
  9 22  1  0
 10 23  1  1
 13 24  1  0
 14 25  1  0
 14 26  1  0
 15 27  1  0
M  END
>  <Ligand ID>  (1) 
LIG0000788

>  <Ligand>  (1) 
CID 46197778

>  <SMILES>  (1) 
OC(=O)/C=C/P(=O)(CC[C@@H](C(=O)O)N)O

>  <CID>  (1) 
46197778.0

>  <ChEMBL ID>  (1) 
nan

>  <InChiKey>  (1) 
YSSZPJMQTGZZCC-FYTLMZHYSA-N

>  <InChi>  (1) 
InChI=1S/C7H12NO6P/c8-5(7(11)12)1-3-15(13,14)4-2-6(9)10/h2,4-5H,1,3,8H2,(H,9,10)(H,11,12)(H,13,14)/b4-2+/t5-/m0/s1

>  <IUPAC Name>  (1) 
(2S)-2-amino-4-[[(E)-2-carboxyethenyl]-hydroxyphosphoryl]butanoic acid

$$$$
