
     RDKit          3D

 60 63  0  0  0  0  0  0  0  0999 V2000
    9.9858   -1.4485   -0.6821 C   0  0  0  0  0  0  0  0  0  0  0  0
    9.6429   -1.8903    0.5622 O   0  0  0  0  0  0  0  0  0  0  0  0
    8.5789   -2.7515    0.5283 C   0  0  0  0  0  0  0  0  0  0  0  0
    7.3543   -2.0840   -0.0421 C   0  0  0  0  0  0  0  0  0  0  0  0
    6.8744   -0.6637    0.8895 S   0  0  0  0  0  0  0  0  0  0  0  0
    6.5530   -1.1503    2.2857 O   0  0  0  0  0  0  0  0  0  0  0  0
    7.9677    0.3407    1.0034 O   0  0  0  0  0  0  0  0  0  0  0  0
    5.4890    0.0791    0.2297 N   0  0  0  0  0  0  0  0  0  0  0  0
    4.3190   -0.7711    0.2196 C   0  0  2  0  0  0  0  0  0  0  0  0
    3.7724   -0.9627   -1.1776 C   0  0  0  0  0  0  0  0  0  0  0  0
    2.3155   -1.2142   -0.9322 C   0  0  0  0  0  0  0  0  0  0  0  0
    1.9996   -0.3353    0.2380 C   0  0  0  0  0  0  0  0  0  0  0  0
    3.1858   -0.0875    0.8979 C   0  0  0  0  0  0  0  0  0  0  0  0
    3.1931    0.7012    2.0241 C   0  0  0  0  0  0  0  0  0  0  0  0
    2.0605    1.2772    2.5526 C   0  0  0  0  0  0  0  0  0  0  0  0
    0.8685    1.0157    1.8717 C   0  0  0  0  0  0  0  0  0  0  0  0
    0.8451    0.2263    0.7403 C   0  0  0  0  0  0  0  0  0  0  0  0
   -0.4094   -0.0378    0.0402 C   0  0  0  0  0  0  0  0  0  0  0  0
   -0.5838   -0.7886   -1.0863 N   0  0  0  0  0  0  0  0  0  0  0  0
   -1.8404   -0.7909   -1.4083 O   0  0  0  0  0  0  0  0  0  0  0  0
   -2.5353   -0.0757   -0.5537 C   0  0  0  0  0  0  0  0  0  0  0  0
   -1.6498    0.3909    0.3434 N   0  0  0  0  0  0  0  0  0  0  0  0
   -3.9706    0.1604   -0.5780 C   0  0  0  0  0  0  0  0  0  0  0  0
   -4.7697   -0.3744   -1.5598 C   0  0  0  0  0  0  0  0  0  0  0  0
   -6.1165   -0.1485   -1.5759 C   0  0  0  0  0  0  0  0  0  0  0  0
   -6.7850    0.6309   -0.6137 C   0  0  0  0  0  0  0  0  0  0  0  0
   -5.9700    1.1575    0.3603 C   0  0  0  0  0  0  0  0  0  0  0  0
   -4.5872    0.9294    0.3822 C   0  0  0  0  0  0  0  0  0  0  0  0
   -6.4735    1.9755    1.4159 C   0  0  0  0  0  0  0  0  0  0  0  0
   -6.8604    2.6407    2.2711 N   0  0  0  0  0  0  0  0  0  0  0  0
   -8.0986    0.7601   -0.7621 O   0  0  0  0  0  0  0  0  0  0  0  0
   -9.0930    1.3852   -0.0986 C   0  0  0  0  0  0  0  0  0  0  0  0
  -10.2335    0.3600    0.1596 C   0  0  0  0  0  0  0  0  0  0  0  0
   -9.7588    2.3482   -1.1271 C   0  0  0  0  0  0  0  0  0  0  0  0
    9.1604   -0.8936   -1.1412 H   0  0  0  0  0  0  0  0  0  0  0  0
   10.1863   -2.3555   -1.3139 H   0  0  0  0  0  0  0  0  0  0  0  0
   10.8975   -0.8011   -0.6781 H   0  0  0  0  0  0  0  0  0  0  0  0
    8.3658   -3.1865    1.5459 H   0  0  0  0  0  0  0  0  0  0  0  0
    8.8540   -3.6574   -0.0829 H   0  0  0  0  0  0  0  0  0  0  0  0
    6.5425   -2.8766    0.0176 H   0  0  0  0  0  0  0  0  0  0  0  0
    7.4881   -1.9049   -1.1162 H   0  0  0  0  0  0  0  0  0  0  0  0
    5.6479    0.4059   -0.7446 H   0  0  0  0  0  0  0  0  0  0  0  0
    4.4999   -1.7838    0.6421 H   0  0  0  0  0  0  0  0  0  0  0  0
    3.8604    0.0340   -1.6725 H   0  0  0  0  0  0  0  0  0  0  0  0
    4.2765   -1.7630   -1.7432 H   0  0  0  0  0  0  0  0  0  0  0  0
    2.0983   -2.2773   -0.6737 H   0  0  0  0  0  0  0  0  0  0  0  0
    1.7596   -0.9253   -1.8459 H   0  0  0  0  0  0  0  0  0  0  0  0
    4.1264    0.9060    2.5563 H   0  0  0  0  0  0  0  0  0  0  0  0
    2.0757    1.8962    3.4395 H   0  0  0  0  0  0  0  0  0  0  0  0
   -0.0773    1.4339    2.2241 H   0  0  0  0  0  0  0  0  0  0  0  0
   -4.3146   -0.9886   -2.3362 H   0  0  0  0  0  0  0  0  0  0  0  0
   -6.6824   -0.6134   -2.3969 H   0  0  0  0  0  0  0  0  0  0  0  0
   -3.9494    1.3450    1.1500 H   0  0  0  0  0  0  0  0  0  0  0  0
   -8.8875    1.9354    0.8151 H   0  0  0  0  0  0  0  0  0  0  0  0
  -11.1095    0.9337    0.5069 H   0  0  0  0  0  0  0  0  0  0  0  0
  -10.4959   -0.0273   -0.8458 H   0  0  0  0  0  0  0  0  0  0  0  0
   -9.9200   -0.4162    0.8634 H   0  0  0  0  0  0  0  0  0  0  0  0
   -9.7695    1.9028   -2.1234 H   0  0  0  0  0  0  0  0  0  0  0  0
  -10.7692    2.5403   -0.7235 H   0  0  0  0  0  0  0  0  0  0  0  0
   -9.1339    3.2814   -1.1408 H   0  0  0  0  0  0  0  0  0  0  0  0
  1  2  1  0
  2  3  1  0
  3  4  1  0
  4  5  1  0
  5  6  2  0
  5  7  2  0
  5  8  1  0
  8  9  1  0
  9 10  1  0
 10 11  1  0
 11 12  1  0
 12 13  2  0
 13 14  1  0
 14 15  2  0
 15 16  1  0
 16 17  2  0
 17 18  1  0
 18 19  2  0
 19 20  1  0
 20 21  1  0
 21 22  2  0
 21 23  1  0
 23 24  2  0
 24 25  1  0
 25 26  2  0
 26 27  1  0
 27 28  2  0
 27 29  1  0
 29 30  3  0
 26 31  1  0
 31 32  1  0
 32 33  1  0
 32 34  1  0
 13  9  1  0
 22 18  1  0
 28 23  1  0
 17 12  1  0
  1 35  1  0
  1 36  1  0
  1 37  1  0
  3 38  1  0
  3 39  1  0
  4 40  1  0
  4 41  1  0
  8 42  1  0
  9 43  1  1
 10 44  1  0
 10 45  1  0
 11 46  1  0
 11 47  1  0
 14 48  1  0
 15 49  1  0
 16 50  1  0
 24 51  1  0
 25 52  1  0
 28 53  1  0
 32 54  1  0
 33 55  1  0
 33 56  1  0
 33 57  1  0
 34 58  1  0
 34 59  1  0
 34 60  1  0
M  END
>  <Ligand ID>  (1) 
LIG0001534

>  <Ligand>  (1) 
SCHEMBL1875982

>  <SMILES>  (1) 
COCCS(=O)(=O)N[C@@H]1CCc2c1cccc2c1noc(n1)c1ccc(c(c1)C#N)OC(C)C

>  <CID>  (1) 
67196597.0

>  <ChEMBL ID>  (1) 
nan

>  <InChiKey>  (1) 
CCEAKDWEXPIAPE-OAQYLSRUSA-N

>  <InChi>  (1) 
InChI=1S/C24H26N4O5S/c1-15(2)32-22-10-7-16(13-17(22)14-25)24-26-23(27-33-24)20-6-4-5-19-18(20)8-9-21(19)28-34(29,30)12-11-31-3/h4-7,10,13,15,21,28H,8-9,11-12H2,1-3H3/t21-/m1/s1

>  <IUPAC Name>  (1) 
N-[(1R)-4-[5-(3-cyano-4-propan-2-yloxyphenyl)-1,2,4-oxadiazol-3-yl]-2,3-dihydro-1H-inden-1-yl]-2-methoxyethanesulfonamide

$$$$
