
     RDKit          3D

 57 60  0  0  0  0  0  0  0  0999 V2000
    2.9164    0.0979    1.3828 O   0  0  0  0  0  0  0  0  0  0  0  0
    3.2740    0.5194    0.2716 C   0  0  0  0  0  0  0  0  0  0  0  0
    2.4515    1.6408   -0.3103 C   0  0  0  0  0  0  0  0  0  0  0  0
    1.2076    2.2234    0.8208 S   0  0  0  0  0  0  0  0  0  0  0  0
   -0.0707    1.0402    1.1889 C   0  0  0  0  0  0  0  0  0  0  0  0
    0.0614    0.1561    2.2270 N   0  0  0  0  0  0  0  0  0  0  0  0
   -1.0205   -0.6006    2.2628 N   0  0  0  0  0  0  0  0  0  0  0  0
   -1.8424   -0.1952    1.2432 C   0  0  0  0  0  0  0  0  0  0  0  0
   -1.2599    0.8228    0.5746 N   0  0  0  0  0  0  0  0  0  0  0  0
   -1.7508    1.5710   -0.5336 C   0  0  0  0  0  0  0  0  0  0  0  0
   -2.5152    2.7975   -0.1844 C   0  0  0  0  0  0  0  0  0  0  0  0
   -1.8497    4.0224   -0.0391 C   0  0  0  0  0  0  0  0  0  0  0  0
   -2.5438    5.1841    0.2842 C   0  0  0  0  0  0  0  0  0  0  0  0
   -3.8915    5.1867    0.4731 C   0  0  0  0  0  0  0  0  0  0  0  0
   -4.5663    3.9964    0.3354 C   0  0  0  0  0  0  0  0  0  0  0  0
   -3.8691    2.8290    0.0105 C   0  0  0  0  0  0  0  0  0  0  0  0
   -3.1463   -0.8653    1.0233 C   0  0  0  0  0  0  0  0  0  0  0  0
   -2.9615   -2.0611    0.2400 N   0  0  0  0  0  0  0  0  0  0  0  0
   -2.3876   -1.8678   -1.0531 C   0  0  0  0  0  0  0  0  0  0  0  0
   -2.4350   -3.2970   -1.6094 C   0  0  0  0  0  0  0  0  0  0  0  0
   -3.8348   -3.7229   -1.1474 C   0  0  0  0  0  0  0  0  0  0  0  0
   -4.1919   -2.7414   -0.0475 C   0  0  0  0  0  0  0  0  0  0  0  0
    1.8471    1.2442   -1.6141 C   0  0  0  0  0  0  0  0  0  0  0  0
    4.3797    0.0122   -0.4468 N   0  0  0  0  0  0  0  0  0  0  0  0
    5.2333   -1.0267   -0.0299 C   0  0  0  0  0  0  0  0  0  0  0  0
    5.1348   -1.7243    1.1445 C   0  0  0  0  0  0  0  0  0  0  0  0
    6.0270   -2.7482    1.4888 C   0  0  0  0  0  0  0  0  0  0  0  0
    7.0522   -3.0844    0.6277 C   0  0  0  0  0  0  0  0  0  0  0  0
    7.1391   -2.3775   -0.5453 C   0  0  0  0  0  0  0  0  0  0  0  0
    6.2700   -1.3836   -0.8754 C   0  0  0  0  0  0  0  0  0  0  0  0
    7.9532   -4.0571    0.8839 F   0  0  0  0  0  0  0  0  0  0  0  0
    3.1313    2.5041   -0.5266 H   0  0  0  0  0  0  0  0  0  0  0  0
   -0.9314    1.9154   -1.2242 H   0  0  0  0  0  0  0  0  0  0  0  0
   -2.4200    0.9752   -1.1808 H   0  0  0  0  0  0  0  0  0  0  0  0
   -0.7941    4.1312   -0.1725 H   0  0  0  0  0  0  0  0  0  0  0  0
   -2.0197    6.1360    0.3964 H   0  0  0  0  0  0  0  0  0  0  0  0
   -4.4050    6.0860    0.7201 H   0  0  0  0  0  0  0  0  0  0  0  0
   -5.6241    3.9875    0.4813 H   0  0  0  0  0  0  0  0  0  0  0  0
   -4.4596    1.9498   -0.0856 H   0  0  0  0  0  0  0  0  0  0  0  0
   -3.8612   -0.2231    0.4913 H   0  0  0  0  0  0  0  0  0  0  0  0
   -3.5891   -1.1323    2.0186 H   0  0  0  0  0  0  0  0  0  0  0  0
   -3.0651   -1.2695   -1.7193 H   0  0  0  0  0  0  0  0  0  0  0  0
   -1.3858   -1.4400   -1.0586 H   0  0  0  0  0  0  0  0  0  0  0  0
   -2.3461   -3.2950   -2.7018 H   0  0  0  0  0  0  0  0  0  0  0  0
   -1.6347   -3.8569   -1.0818 H   0  0  0  0  0  0  0  0  0  0  0  0
   -3.7541   -4.7412   -0.7175 H   0  0  0  0  0  0  0  0  0  0  0  0
   -4.4987   -3.6888   -2.0119 H   0  0  0  0  0  0  0  0  0  0  0  0
   -4.9592   -2.0548   -0.4641 H   0  0  0  0  0  0  0  0  0  0  0  0
   -4.5258   -3.2601    0.8788 H   0  0  0  0  0  0  0  0  0  0  0  0
    1.1130    0.4445   -1.4424 H   0  0  0  0  0  0  0  0  0  0  0  0
    2.6609    0.9025   -2.2950 H   0  0  0  0  0  0  0  0  0  0  0  0
    1.3503    2.1607   -2.0182 H   0  0  0  0  0  0  0  0  0  0  0  0
    4.5592    0.4780   -1.3861 H   0  0  0  0  0  0  0  0  0  0  0  0
    4.3723   -1.5172    1.8490 H   0  0  0  0  0  0  0  0  0  0  0  0
    5.9307   -3.2859    2.4210 H   0  0  0  0  0  0  0  0  0  0  0  0
    7.9283   -2.6257   -1.2238 H   0  0  0  0  0  0  0  0  0  0  0  0
    6.4177   -0.8715   -1.8377 H   0  0  0  0  0  0  0  0  0  0  0  0
  1  2  2  0
  2  3  1  0
  3  4  1  0
  4  5  1  0
  5  6  2  0
  6  7  1  0
  7  8  2  0
  8  9  1  0
  9 10  1  0
 10 11  1  0
 11 12  2  0
 12 13  1  0
 13 14  2  0
 14 15  1  0
 15 16  2  0
  8 17  1  0
 17 18  1  0
 18 19  1  0
 19 20  1  0
 20 21  1  0
 21 22  1  0
  3 23  1  0
  2 24  1  0
 24 25  1  0
 25 26  2  0
 26 27  1  0
 27 28  2  0
 28 29  1  0
 29 30  2  0
 28 31  1  0
  9  5  1  0
 16 11  1  0
 22 18  1  0
 30 25  1  0
  3 32  1  0
 10 33  1  0
 10 34  1  0
 12 35  1  0
 13 36  1  0
 14 37  1  0
 15 38  1  0
 16 39  1  0
 17 40  1  0
 17 41  1  0
 19 42  1  0
 19 43  1  0
 20 44  1  0
 20 45  1  0
 21 46  1  0
 21 47  1  0
 22 48  1  0
 22 49  1  0
 23 50  1  0
 23 51  1  0
 23 52  1  0
 24 53  1  0
 26 54  1  0
 27 55  1  0
 29 56  1  0
 30 57  1  0
M  END
>  <Ligand ID>  (1) 
LIG0003370

>  <Ligand>  (1) 
MLS001129904

>  <SMILES>  (1) 
O=C(C(Sc1nnc(n1Cc1ccccc1)CN1CCCC1)C)Nc1ccc(cc1)F

>  <CID>  (1) 
24817992.0

>  <ChEMBL ID>  (1) 
nan

>  <InChiKey>  (1) 
LEFUHFJKYVLFQY-UHFFFAOYSA-N

>  <InChi>  (1) 
InChI=1S/C23H26FN5OS/c1-17(22(30)25-20-11-9-19(24)10-12-20)31-23-27-26-21(16-28-13-5-6-14-28)29(23)15-18-7-3-2-4-8-18/h2-4,7-12,17H,5-6,13-16H2,1H3,(H,25,30)

>  <IUPAC Name>  (1) 
2-[[4-benzyl-5-(pyrrolidin-1-ylmethyl)-1,2,4-triazol-3-yl]sulfanyl]-N-(4-fluorophenyl)propanamide

$$$$
