
     RDKit          3D

 25 25  0  0  0  0  0  0  0  0999 V2000
   -0.8390    2.4405    0.2414 C   0  0  0  0  0  0  0  0  0  0  0  0
    0.0004    1.7999   -0.8073 C   0  0  0  0  0  0  0  0  0  0  0  0
    0.3938    0.3970   -0.5309 C   0  0  0  0  0  0  0  0  0  0  0  0
    1.6474    0.1437   -0.0707 N   0  0  0  0  0  0  0  0  0  0  0  0
    2.0842   -1.1019    0.2007 C   0  0  0  0  0  0  0  0  0  0  0  0
    3.4515   -1.3844    0.7091 C   0  0  0  0  0  0  0  0  0  0  0  0
    1.2523   -2.1893    0.0161 C   0  0  0  0  0  0  0  0  0  0  0  0
    0.0133   -1.9361   -0.4381 N   0  0  0  0  0  0  0  0  0  0  0  0
   -0.4351   -0.6854   -0.7145 C   0  0  0  0  0  0  0  0  0  0  0  0
   -1.8320   -0.5452   -1.1955 C   0  0  0  0  0  0  0  0  0  0  0  0
   -2.8021   -0.1388   -0.1034 C   0  0  0  0  0  0  0  0  0  0  0  0
   -0.9569    1.7931    1.1173 H   0  0  0  0  0  0  0  0  0  0  0  0
   -0.3936    3.4383    0.5486 H   0  0  0  0  0  0  0  0  0  0  0  0
   -1.8383    2.7079   -0.1940 H   0  0  0  0  0  0  0  0  0  0  0  0
    0.9356    2.4106   -0.9469 H   0  0  0  0  0  0  0  0  0  0  0  0
   -0.4804    1.8719   -1.8357 H   0  0  0  0  0  0  0  0  0  0  0  0
    4.1062   -0.4850    0.6748 H   0  0  0  0  0  0  0  0  0  0  0  0
    3.4320   -1.7244    1.7680 H   0  0  0  0  0  0  0  0  0  0  0  0
    3.9633   -2.1344    0.0575 H   0  0  0  0  0  0  0  0  0  0  0  0
    1.5923   -3.1958    0.2318 H   0  0  0  0  0  0  0  0  0  0  0  0
   -2.1305   -1.5080   -1.6611 H   0  0  0  0  0  0  0  0  0  0  0  0
   -1.9158    0.2196   -2.0024 H   0  0  0  0  0  0  0  0  0  0  0  0
   -2.3411   -0.1116    0.8943 H   0  0  0  0  0  0  0  0  0  0  0  0
   -3.2768    0.8316   -0.3144 H   0  0  0  0  0  0  0  0  0  0  0  0
   -3.6306   -0.9140   -0.1162 H   0  0  0  0  0  0  0  0  0  0  0  0
  1  2  1  0
  2  3  1  0
  3  4  2  0
  4  5  1  0
  5  6  1  0
  5  7  2  0
  7  8  1  0
  8  9  2  0
  9 10  1  0
 10 11  1  0
  9  3  1  0
  1 12  1  0
  1 13  1  0
  1 14  1  0
  2 15  1  0
  2 16  1  0
  6 17  1  0
  6 18  1  0
  6 19  1  0
  7 20  1  0
 10 21  1  0
 10 22  1  0
 11 23  1  0
 11 24  1  0
 11 25  1  0
M  END
>  <Ligand ID>  (1) 
LIG0000142

>  <Ligand>  (1) 
2,3-Diethyl-5-methylpyrazine

>  <SMILES>  (1) 
CCc1nc(C)cnc1CC

>  <CID>  (1) 
28905.0

>  <ChEMBL ID>  (1) 
nan

>  <InChiKey>  (1) 
PSINWXIDJYEXLO-UHFFFAOYSA-N

>  <InChi>  (1) 
InChI=1S/C9H14N2/c1-4-8-9(5-2)11-7(3)6-10-8/h6H,4-5H2,1-3H3

>  <IUPAC Name>  (1) 
2,3-diethyl-5-methylpyrazine

$$$$
