
     RDKit          3D

 47 50  0  0  0  0  0  0  0  0999 V2000
    2.5321   -2.3723   -0.4776 O   0  0  0  0  0  0  0  0  0  0  0  0
    1.5915   -1.5407   -0.5781 C   0  0  0  0  0  0  0  0  0  0  0  0
    0.2001   -1.9482   -0.3986 C   0  0  0  0  0  0  0  0  0  0  0  0
   -0.0725   -3.2666   -0.1159 C   0  0  0  0  0  0  0  0  0  0  0  0
   -1.3522   -3.6361    0.0480 N   0  0  0  0  0  0  0  0  0  0  0  0
   -2.3551   -2.7491   -0.0587 C   0  0  0  0  0  0  0  0  0  0  0  0
   -2.1034   -1.3907   -0.3481 C   0  0  0  0  0  0  0  0  0  0  0  0
   -0.8109   -1.0819   -0.5007 N   0  0  0  0  0  0  0  0  0  0  0  0
   -3.1671   -0.5866   -0.4363 O   0  0  0  0  0  0  0  0  0  0  0  0
   -3.4917    0.7108   -0.6695 C   0  0  0  0  0  0  0  0  0  0  0  0
   -2.9524    1.7127    0.3125 C   0  0  0  0  0  0  0  0  0  0  0  0
   -1.5271    1.9677    0.5601 C   0  0  0  0  0  0  0  0  0  0  0  0
   -2.3932    3.0191   -0.0897 C   0  0  0  0  0  0  0  0  0  0  0  0
   -3.7296   -3.2637    0.1471 C   0  0  0  0  0  0  0  0  0  0  0  0
   -4.2753   -3.3586    1.5380 C   0  0  0  0  0  0  0  0  0  0  0  0
   -4.8918   -2.4454    0.4550 C   0  0  0  0  0  0  0  0  0  0  0  0
    1.9432   -0.1932   -0.8730 N   0  0  0  0  0  0  0  0  0  0  0  0
    3.3401    0.1807   -1.0462 C   0  0  2  0  0  0  0  0  0  0  0  0
    3.7767    1.1648   -0.0324 C   0  0  0  0  0  0  0  0  0  0  0  0
    4.9855    1.0560    0.6527 C   0  0  0  0  0  0  0  0  0  0  0  0
    5.3892    1.9718    1.5945 C   0  0  0  0  0  0  0  0  0  0  0  0
    4.5851    3.0418    1.8857 C   0  0  0  0  0  0  0  0  0  0  0  0
    3.3887    3.1473    1.2060 C   0  0  0  0  0  0  0  0  0  0  0  0
    3.0165    2.2279    0.2815 N   0  0  0  0  0  0  0  0  0  0  0  0
    3.5354    0.6730   -2.4611 C   0  0  0  0  0  0  0  0  0  0  0  0
    0.7586   -3.9512   -0.0376 H   0  0  0  0  0  0  0  0  0  0  0  0
   -3.2435    1.0503   -1.7229 H   0  0  0  0  0  0  0  0  0  0  0  0
   -4.6299    0.7893   -0.5562 H   0  0  0  0  0  0  0  0  0  0  0  0
   -3.5811    1.8059    1.2607 H   0  0  0  0  0  0  0  0  0  0  0  0
   -0.7766    1.5493   -0.1278 H   0  0  0  0  0  0  0  0  0  0  0  0
   -1.1616    2.1495    1.5938 H   0  0  0  0  0  0  0  0  0  0  0  0
   -2.5290    3.9291    0.5166 H   0  0  0  0  0  0  0  0  0  0  0  0
   -2.2775    3.2370   -1.1662 H   0  0  0  0  0  0  0  0  0  0  0  0
   -3.9484   -4.2003   -0.4490 H   0  0  0  0  0  0  0  0  0  0  0  0
   -3.6296   -2.9181    2.3020 H   0  0  0  0  0  0  0  0  0  0  0  0
   -4.8706   -4.2260    1.8545 H   0  0  0  0  0  0  0  0  0  0  0  0
   -5.8943   -2.7756    0.0677 H   0  0  0  0  0  0  0  0  0  0  0  0
   -4.9197   -1.4143    0.7974 H   0  0  0  0  0  0  0  0  0  0  0  0
    1.2318    0.5441   -0.9709 H   0  0  0  0  0  0  0  0  0  0  0  0
    3.9938   -0.7038   -0.9149 H   0  0  0  0  0  0  0  0  0  0  0  0
    5.6101    0.2056    0.4121 H   0  0  0  0  0  0  0  0  0  0  0  0
    6.3516    1.7995    2.0758 H   0  0  0  0  0  0  0  0  0  0  0  0
    4.9235    3.7461    2.6277 H   0  0  0  0  0  0  0  0  0  0  0  0
    2.7650    3.9996    1.4486 H   0  0  0  0  0  0  0  0  0  0  0  0
    2.6946    0.2883   -3.0947 H   0  0  0  0  0  0  0  0  0  0  0  0
    4.4526    0.2732   -2.9472 H   0  0  0  0  0  0  0  0  0  0  0  0
    3.5182    1.7820   -2.4309 H   0  0  0  0  0  0  0  0  0  0  0  0
  1  2  2  0
  2  3  1  0
  3  4  2  0
  4  5  1  0
  5  6  2  0
  6  7  1  0
  7  8  2  0
  7  9  1  0
  9 10  1  0
 10 11  1  0
 11 12  1  0
 12 13  1  0
  6 14  1  0
 14 15  1  0
 15 16  1  0
  2 17  1  0
 17 18  1  0
 18 19  1  0
 19 20  2  0
 20 21  1  0
 21 22  2  0
 22 23  1  0
 23 24  2  0
 18 25  1  0
  8  3  1  0
 13 11  1  0
 16 14  1  0
 24 19  1  0
  4 26  1  0
 10 27  1  0
 10 28  1  0
 11 29  1  0
 12 30  1  0
 12 31  1  0
 13 32  1  0
 13 33  1  0
 14 34  1  0
 15 35  1  0
 15 36  1  0
 16 37  1  0
 16 38  1  0
 17 39  1  0
 18 40  1  6
 20 41  1  0
 21 42  1  0
 22 43  1  0
 23 44  1  0
 25 45  1  0
 25 46  1  0
 25 47  1  0
M  END
>  <Ligand ID>  (1) 
LIG0005199

>  <Ligand>  (1) 
CHEMBL3941506

>  <SMILES>  (1) 
O=C(c1cnc(c(n1)OCC1CC1)C1CC1)N[C@H](c1ccccn1)C

>  <CID>  (1) 
71525945.0

>  <ChEMBL ID>  (1) 
nan

>  <InChiKey>  (1) 
NSQXRZAAAOFSHC-LBPRGKRZSA-N

>  <InChi>  (1) 
InChI=1S/C19H22N4O2/c1-12(15-4-2-3-9-20-15)22-18(24)16-10-21-17(14-7-8-14)19(23-16)25-11-13-5-6-13/h2-4,9-10,12-14H,5-8,11H2,1H3,(H,22,24)/t12-/m0/s1

>  <IUPAC Name>  (1) 
5-cyclopropyl-6-(cyclopropylmethoxy)-N-[(1S)-1-pyridin-2-ylethyl]pyrazine-2-carboxamide

$$$$
