
     RDKit          3D

 31 33  0  0  0  0  0  0  0  0999 V2000
    6.2600    1.5758   -0.8161 Br  0  0  0  0  0  0  0  0  0  0  0  0
    4.6547    0.6447   -0.3835 C   0  0  0  0  0  0  0  0  0  0  0  0
    4.5428    0.0970    0.8637 C   0  0  0  0  0  0  0  0  0  0  0  0
    3.3962   -0.5822    1.1915 C   0  0  0  0  0  0  0  0  0  0  0  0
    2.3603   -0.7070    0.2536 C   0  0  0  0  0  0  0  0  0  0  0  0
    2.4683   -0.1596   -0.9954 C   0  0  0  0  0  0  0  0  0  0  0  0
    3.6357    0.5250   -1.3117 C   0  0  0  0  0  0  0  0  0  0  0  0
    1.2326   -1.4542    0.7019 N   0  0  0  0  0  0  0  0  0  0  0  0
   -0.1131   -0.9582    0.5128 C   0  0  0  0  0  0  0  0  0  0  0  0
   -0.2623    0.2372    0.0715 N   0  0  0  0  0  0  0  0  0  0  0  0
   -1.6046    0.7135   -0.1167 C   0  0  0  0  0  0  0  0  0  0  0  0
   -2.6769   -0.0952    0.1633 C   0  0  0  0  0  0  0  0  0  0  0  0
   -2.5778   -1.5195    0.5497 C   0  0  0  0  0  0  0  0  0  0  0  0
   -1.1968   -1.8840    0.9047 C   0  0  0  0  0  0  0  0  0  0  0  0
   -3.9822    0.4094    0.0440 C   0  0  0  0  0  0  0  0  0  0  0  0
   -4.1570    1.7290   -0.3611 C   0  0  0  0  0  0  0  0  0  0  0  0
   -3.0774    2.5355   -0.6438 C   0  0  0  0  0  0  0  0  0  0  0  0
   -1.8042    2.0260   -0.5212 C   0  0  0  0  0  0  0  0  0  0  0  0
    5.3146    0.1691    1.6171 H   0  0  0  0  0  0  0  0  0  0  0  0
    3.2798   -1.0303    2.1946 H   0  0  0  0  0  0  0  0  0  0  0  0
    1.6723   -0.2673   -1.6903 H   0  0  0  0  0  0  0  0  0  0  0  0
    3.7497    0.9720   -2.3098 H   0  0  0  0  0  0  0  0  0  0  0  0
    1.4176   -2.3711    1.1701 H   0  0  0  0  0  0  0  0  0  0  0  0
   -2.9670   -2.1478   -0.3162 H   0  0  0  0  0  0  0  0  0  0  0  0
   -3.2532   -1.7575    1.4229 H   0  0  0  0  0  0  0  0  0  0  0  0
   -0.9402   -2.9460    0.6440 H   0  0  0  0  0  0  0  0  0  0  0  0
   -1.1509   -1.8893    2.0554 H   0  0  0  0  0  0  0  0  0  0  0  0
   -4.8324   -0.2198    0.2614 H   0  0  0  0  0  0  0  0  0  0  0  0
   -5.1623    2.0962   -0.4450 H   0  0  0  0  0  0  0  0  0  0  0  0
   -3.2490    3.5617   -0.9568 H   0  0  0  0  0  0  0  0  0  0  0  0
   -0.9773    2.6969   -0.7596 H   0  0  0  0  0  0  0  0  0  0  0  0
  1  2  1  0
  2  3  2  0
  3  4  1  0
  4  5  2  0
  5  6  1  0
  6  7  2  0
  5  8  1  0
  8  9  1  0
  9 10  2  0
 10 11  1  0
 11 12  2  0
 12 13  1  0
 13 14  1  0
 12 15  1  0
 15 16  2  0
 16 17  1  0
 17 18  2  0
  7  2  1  0
 14  9  1  0
 18 11  1  0
  3 19  1  0
  4 20  1  0
  6 21  1  0
  7 22  1  0
  8 23  1  0
 13 24  1  0
 13 25  1  0
 14 26  1  0
 14 27  1  0
 15 28  1  0
 16 29  1  0
 17 30  1  0
 18 31  1  0
M  END
>  <Ligand ID>  (1) 
LIG0002915

>  <Ligand>  (1) 
SMR000155645

>  <SMILES>  (1) 
Brc1ccc(cc1)NC1=Nc2c(CC1)cccc2

>  <CID>  (1) 
2318144.0

>  <ChEMBL ID>  (1) 
nan

>  <InChiKey>  (1) 
XOIQLBAJZANGKX-UHFFFAOYSA-N

>  <InChi>  (1) 
InChI=1S/C15H13BrN2/c16-12-6-8-13(9-7-12)17-15-10-5-11-3-1-2-4-14(11)18-15/h1-4,6-9H,5,10H2,(H,17,18)

>  <IUPAC Name>  (1) 
N-(4-bromophenyl)-3,4-dihydroquinolin-2-amine

$$$$
