
     RDKit          3D

 44 46  0  0  0  0  0  0  0  0999 V2000
    1.5259    0.1460    0.2672 O   0  0  0  0  0  0  0  0  0  0  0  0
    2.0028    0.3585   -0.8822 C   0  0  0  0  0  0  0  0  0  0  0  0
    1.2230    1.0939   -1.9317 C   0  0  0  0  0  0  0  0  0  0  0  0
   -0.0796    1.4866   -1.4238 N   0  0  0  0  0  0  0  0  0  0  0  0
   -0.1832    2.6658   -0.8336 N   0  0  0  0  0  0  0  0  0  0  0  0
   -1.3296    3.1510   -0.3197 C   0  0  0  0  0  0  0  0  0  0  0  0
   -1.3978    4.4966    0.3416 C   0  0  0  0  0  0  0  0  0  0  0  0
   -2.4492    2.3629   -0.4223 C   0  0  0  0  0  0  0  0  0  0  0  0
   -2.3590    1.1187   -1.0404 C   0  0  0  0  0  0  0  0  0  0  0  0
   -1.1546    0.6851   -1.5439 C   0  0  0  0  0  0  0  0  0  0  0  0
   -1.0707   -0.4312   -2.0995 O   0  0  0  0  0  0  0  0  0  0  0  0
   -3.6141    0.3273   -1.1090 C   0  0  0  0  0  0  0  0  0  0  0  0
   -3.6818   -0.7751   -0.1296 C   0  0  0  0  0  0  0  0  0  0  0  0
   -4.1810   -0.4694    1.1292 C   0  0  0  0  0  0  0  0  0  0  0  0
   -4.2735   -1.4592    2.0917 C   0  0  0  0  0  0  0  0  0  0  0  0
   -3.8787   -2.7714    1.8420 C   0  0  0  0  0  0  0  0  0  0  0  0
   -3.3831   -3.0532    0.5768 C   0  0  0  0  0  0  0  0  0  0  0  0
   -3.2880   -2.0695   -0.3892 C   0  0  0  0  0  0  0  0  0  0  0  0
   -2.8507   -4.6799    0.1404 Cl  0  0  0  0  0  0  0  0  0  0  0  0
    3.3041   -0.0864   -1.2467 N   0  0  0  0  0  0  0  0  0  0  0  0
    4.1024   -0.7916   -0.3011 C   0  0  0  0  0  0  0  0  0  0  0  0
    4.9258   -0.0005    0.5020 C   0  0  0  0  0  0  0  0  0  0  0  0
    5.7529   -0.5514    1.4614 C   0  0  0  0  0  0  0  0  0  0  0  0
    5.7476   -1.9215    1.6111 C   0  0  0  0  0  0  0  0  0  0  0  0
    4.9255   -2.7056    0.8087 C   0  0  0  0  0  0  0  0  0  0  0  0
    4.1035   -2.1432   -0.1466 C   0  0  0  0  0  0  0  0  0  0  0  0
    7.0094   -2.7514    3.0735 I   0  0  0  0  0  0  0  0  0  0  0  0
    1.8253    1.9585   -2.2818 H   0  0  0  0  0  0  0  0  0  0  0  0
    1.1129    0.4232   -2.8286 H   0  0  0  0  0  0  0  0  0  0  0  0
   -2.2647    5.0517   -0.0893 H   0  0  0  0  0  0  0  0  0  0  0  0
   -1.4936    4.4317    1.4340 H   0  0  0  0  0  0  0  0  0  0  0  0
   -0.4928    5.0849    0.0675 H   0  0  0  0  0  0  0  0  0  0  0  0
   -3.3827    2.7318   -0.0165 H   0  0  0  0  0  0  0  0  0  0  0  0
   -4.5143    0.9829   -1.0163 H   0  0  0  0  0  0  0  0  0  0  0  0
   -3.6935   -0.0598   -2.1686 H   0  0  0  0  0  0  0  0  0  0  0  0
   -4.5095    0.5209    1.4076 H   0  0  0  0  0  0  0  0  0  0  0  0
   -4.6635   -1.2183    3.0739 H   0  0  0  0  0  0  0  0  0  0  0  0
   -3.9479   -3.5472    2.5867 H   0  0  0  0  0  0  0  0  0  0  0  0
   -2.9004   -2.3240   -1.3621 H   0  0  0  0  0  0  0  0  0  0  0  0
    3.7148    0.0809   -2.1938 H   0  0  0  0  0  0  0  0  0  0  0  0
    4.9414    1.0861    0.3956 H   0  0  0  0  0  0  0  0  0  0  0  0
    6.3918    0.0743    2.0832 H   0  0  0  0  0  0  0  0  0  0  0  0
    4.9648   -3.7681    0.9718 H   0  0  0  0  0  0  0  0  0  0  0  0
    3.4634   -2.7416   -0.7727 H   0  0  0  0  0  0  0  0  0  0  0  0
  1  2  2  0
  2  3  1  0
  3  4  1  0
  4  5  1  0
  5  6  2  0
  6  7  1  0
  6  8  1  0
  8  9  2  0
  9 10  1  0
 10 11  2  0
  9 12  1  0
 12 13  1  0
 13 14  2  0
 14 15  1  0
 15 16  2  0
 16 17  1  0
 17 18  2  0
 17 19  1  0
  2 20  1  0
 20 21  1  0
 21 22  2  0
 22 23  1  0
 23 24  2  0
 24 25  1  0
 25 26  2  0
 24 27  1  0
 10  4  1  0
 18 13  1  0
 26 21  1  0
  3 28  1  0
  3 29  1  0
  7 30  1  0
  7 31  1  0
  7 32  1  0
  8 33  1  0
 12 34  1  0
 12 35  1  0
 14 36  1  0
 15 37  1  0
 16 38  1  0
 18 39  1  0
 20 40  1  0
 22 41  1  0
 23 42  1  0
 25 43  1  0
 26 44  1  0
M  END
>  <Ligand ID>  (1) 
LIG0003941

>  <Ligand>  (1) 
CHEMBL2391443

>  <SMILES>  (1) 
O=C(Cn1nc(C)cc(c1=O)Cc1cccc(c1)Cl)Nc1ccc(cc1)I

>  <CID>  (1) 
71699139.0

>  <ChEMBL ID>  (1) 
nan

>  <InChiKey>  (1) 
PSLAZNCKJKOLBS-UHFFFAOYSA-N

>  <InChi>  (1) 
InChI=1S/C20H17ClIN3O2/c1-13-9-15(10-14-3-2-4-16(21)11-14)20(27)25(24-13)12-19(26)23-18-7-5-17(22)6-8-18/h2-9,11H,10,12H2,1H3,(H,23,26)

>  <IUPAC Name>  (1) 
2-[5-[(3-chlorophenyl)methyl]-3-methyl-6-oxopyridazin-1-yl]-N-(4-iodophenyl)acetamide

$$$$
