
     RDKit          3D

 36 38  0  0  0  0  0  0  0  0999 V2000
   -3.8452   -1.7122   -0.4831 C   0  0  0  0  0  0  0  0  0  0  0  0
   -2.9553   -0.6964   -0.8891 O   0  0  0  0  0  0  0  0  0  0  0  0
   -2.6780    0.0096    0.3026 C   0  0  0  0  0  0  0  0  0  0  0  0
   -1.7539    1.1342    0.0987 C   0  0  0  0  0  0  0  0  0  0  0  0
   -2.3039    2.4190    0.0780 C   0  0  0  0  0  0  0  0  0  0  0  0
   -1.5354    3.5426   -0.1072 C   0  0  0  0  0  0  0  0  0  0  0  0
   -0.1793    3.3606   -0.2751 C   0  0  0  0  0  0  0  0  0  0  0  0
    0.3625    2.0933   -0.2546 C   0  0  0  0  0  0  0  0  0  0  0  0
   -0.4086    0.9507   -0.0678 C   0  0  0  0  0  0  0  0  0  0  0  0
    0.1914   -0.4143   -0.0508 C   0  0  0  0  0  0  0  0  0  0  0  0
    0.6036   -0.8229    1.3127 C   0  0  0  0  0  0  0  0  0  0  0  0
    1.4483   -2.1016    1.1962 C   0  0  0  0  0  0  0  0  0  0  0  0
    2.7508   -1.5918    0.6821 C   0  0  0  0  0  0  0  0  0  0  0  0
    2.6485   -0.7681   -0.4477 C   0  0  0  0  0  0  0  0  0  0  0  0
    1.3343   -0.5010   -1.0216 C   0  0  0  0  0  0  0  0  0  0  0  0
    3.9117   -0.4143   -0.7371 N   0  0  0  0  0  0  0  0  0  0  0  0
    4.7850   -0.9581    0.1275 C   0  0  0  0  0  0  0  0  0  0  0  0
    4.0440   -1.6922    1.0097 N   0  0  0  0  0  0  0  0  0  0  0  0
   -3.3381   -2.3295    0.2636 H   0  0  0  0  0  0  0  0  0  0  0  0
   -4.2702   -2.2481   -1.3475 H   0  0  0  0  0  0  0  0  0  0  0  0
   -4.7295   -1.2419    0.0406 H   0  0  0  0  0  0  0  0  0  0  0  0
   -2.3471   -0.7490    1.0295 H   0  0  0  0  0  0  0  0  0  0  0  0
   -3.6753    0.3690    0.6627 H   0  0  0  0  0  0  0  0  0  0  0  0
   -3.3794    2.5350    0.2135 H   0  0  0  0  0  0  0  0  0  0  0  0
   -2.0296    4.4946   -0.1108 H   0  0  0  0  0  0  0  0  0  0  0  0
    0.4176    4.2617   -0.4213 H   0  0  0  0  0  0  0  0  0  0  0  0
    1.4250    2.0112   -0.3900 H   0  0  0  0  0  0  0  0  0  0  0  0
   -0.6234   -1.0866   -0.4138 H   0  0  0  0  0  0  0  0  0  0  0  0
   -0.2008   -0.9496    2.0534 H   0  0  0  0  0  0  0  0  0  0  0  0
    1.2741   -0.0399    1.7381 H   0  0  0  0  0  0  0  0  0  0  0  0
    1.5068   -2.6376    2.1405 H   0  0  0  0  0  0  0  0  0  0  0  0
    0.9590   -2.6804    0.3748 H   0  0  0  0  0  0  0  0  0  0  0  0
    1.3856    0.4311   -1.6640 H   0  0  0  0  0  0  0  0  0  0  0  0
    1.1283   -1.2994   -1.7999 H   0  0  0  0  0  0  0  0  0  0  0  0
    4.2153    0.2043   -1.5285 H   0  0  0  0  0  0  0  0  0  0  0  0
    5.8611   -0.8820    0.1835 H   0  0  0  0  0  0  0  0  0  0  0  0
  1  2  1  0
  2  3  1  0
  3  4  1  0
  4  5  2  0
  5  6  1  0
  6  7  2  0
  7  8  1  0
  8  9  2  0
  9 10  1  0
 10 11  1  0
 11 12  1  0
 12 13  1  0
 13 14  2  0
 14 15  1  0
 14 16  1  0
 16 17  1  0
 17 18  2  0
  9  4  1  0
 15 10  1  0
 18 13  1  0
  1 19  1  0
  1 20  1  0
  1 21  1  0
  3 22  1  0
  3 23  1  0
  5 24  1  0
  6 25  1  0
  7 26  1  0
  8 27  1  0
 10 28  1  0
 11 29  1  0
 11 30  1  0
 12 31  1  0
 12 32  1  0
 15 33  1  0
 15 34  1  0
 16 35  1  0
 17 36  1  0
M  END
>  <Ligand ID>  (1) 
LIG0004898

>  <Ligand>  (1) 
CHEMBL466876

>  <SMILES>  (1) 
COCc1ccccc1C1CCc2c(C1)[nH]cn2

>  <CID>  (1) 
44593580.0

>  <ChEMBL ID>  (1) 
nan

>  <InChiKey>  (1) 
PAMROTRMNXQKOE-UHFFFAOYSA-N

>  <InChi>  (1) 
InChI=1S/C15H18N2O/c1-18-9-12-4-2-3-5-13(12)11-6-7-14-15(8-11)17-10-16-14/h2-5,10-11H,6-9H2,1H3,(H,16,17)

>  <IUPAC Name>  (1) 
6-[2-(methoxymethyl)phenyl]-4,5,6,7-tetrahydro-1H-benzimidazole

$$$$
