
     RDKit          3D

 21 21  0  0  0  0  0  0  0  0999 V2000
    3.5315    0.1428    1.0375 C   0  0  0  0  0  0  0  0  0  0  0  0
    2.2119   -0.4621    0.6748 C   0  0  0  0  0  0  0  0  0  0  0  0
    1.5111   -1.1021    1.4947 O   0  0  0  0  0  0  0  0  0  0  0  0
    1.7837   -0.2866   -0.6244 O   0  0  0  0  0  0  0  0  0  0  0  0
    0.6089   -0.7433   -1.2055 C   0  0  0  0  0  0  0  0  0  0  0  0
   -0.6434   -0.2665   -0.6063 C   0  0  0  0  0  0  0  0  0  0  0  0
   -1.3477   -0.9213    0.3797 C   0  0  0  0  0  0  0  0  0  0  0  0
   -2.5063   -0.4131    0.8970 C   0  0  0  0  0  0  0  0  0  0  0  0
   -3.0422    0.7811    0.4674 C   0  0  0  0  0  0  0  0  0  0  0  0
   -2.3548    1.4550   -0.5196 C   0  0  0  0  0  0  0  0  0  0  0  0
   -1.1853    0.9419   -1.0414 C   0  0  0  0  0  0  0  0  0  0  0  0
    3.7072   -0.0946    2.1074 H   0  0  0  0  0  0  0  0  0  0  0  0
    4.3685   -0.3321    0.4700 H   0  0  0  0  0  0  0  0  0  0  0  0
    3.5559    1.2395    0.9095 H   0  0  0  0  0  0  0  0  0  0  0  0
    0.5378   -1.8592   -1.2459 H   0  0  0  0  0  0  0  0  0  0  0  0
    0.6208   -0.3768   -2.2658 H   0  0  0  0  0  0  0  0  0  0  0  0
   -0.9924   -1.8561    0.7564 H   0  0  0  0  0  0  0  0  0  0  0  0
   -3.0429   -0.9611    1.6827 H   0  0  0  0  0  0  0  0  0  0  0  0
   -3.9575    1.1952    0.8673 H   0  0  0  0  0  0  0  0  0  0  0  0
   -2.7012    2.4129   -0.9270 H   0  0  0  0  0  0  0  0  0  0  0  0
   -0.6638    1.5065   -1.8274 H   0  0  0  0  0  0  0  0  0  0  0  0
  1  2  1  0
  2  3  2  0
  2  4  1  0
  4  5  1  0
  5  6  1  0
  6  7  2  0
  7  8  1  0
  8  9  2  0
  9 10  1  0
 10 11  2  0
 11  6  1  0
  1 12  1  0
  1 13  1  0
  1 14  1  0
  5 15  1  0
  5 16  1  0
  7 17  1  0
  8 18  1  0
  9 19  1  0
 10 20  1  0
 11 21  1  0
M  END
>  <Ligand ID>  (1) 
LIG0000076

>  <Ligand>  (1) 
Benzyl acetate

>  <SMILES>  (1) 
CC(=O)OCc1ccccc1

>  <CID>  (1) 
8785.0

>  <ChEMBL ID>  (1) 
nan

>  <InChiKey>  (1) 
QUKGYYKBILRGFE-UHFFFAOYSA-N

>  <InChi>  (1) 
InChI=1S/C9H10O2/c1-8(10)11-7-9-5-3-2-4-6-9/h2-6H,7H2,1H3

>  <IUPAC Name>  (1) 
benzyl acetate

$$$$
