
     RDKit          3D

 32 33  0  0  0  0  0  0  0  0999 V2000
   -1.0734   -2.0578   -0.3601 O   0  0  0  0  0  0  0  0  0  0  0  0
   -1.0085   -0.8494   -0.0560 C   0  0  0  0  0  0  0  0  0  0  0  0
   -2.2438   -0.1211    0.1771 C   0  0  0  0  0  0  0  0  0  0  0  0
   -2.2724    1.2158    0.5175 C   0  0  0  0  0  0  0  0  0  0  0  0
   -3.5024    1.8110    0.7166 C   0  0  0  0  0  0  0  0  0  0  0  0
   -4.6990    1.1441    0.5942 C   0  0  0  0  0  0  0  0  0  0  0  0
   -4.6491   -0.1961    0.2523 C   0  0  0  0  0  0  0  0  0  0  0  0
   -3.4249   -0.8302    0.0435 C   0  0  0  0  0  0  0  0  0  0  0  0
   -3.4510   -2.1805   -0.2981 O   0  0  0  0  0  0  0  0  0  0  0  0
    0.2494   -0.2719    0.0412 O   0  0  0  0  0  0  0  0  0  0  0  0
    1.4367   -0.9931   -0.1883 C   0  0  0  0  0  0  0  0  0  0  0  0
    2.3084   -0.4295   -1.2683 C   0  0  0  0  0  0  0  0  0  0  0  0
    2.8041    0.9514   -0.9757 C   0  0  0  0  0  0  0  0  0  0  0  0
    3.6440    0.8440    0.2975 C   0  0  0  0  0  0  0  0  0  0  0  0
    2.7147    0.3893    1.4147 C   0  0  0  0  0  0  0  0  0  0  0  0
    2.2574   -1.0177    1.0851 C   0  0  0  0  0  0  0  0  0  0  0  0
   -1.3302    1.7472    0.6154 H   0  0  0  0  0  0  0  0  0  0  0  0
   -3.5401    2.8726    0.9874 H   0  0  0  0  0  0  0  0  0  0  0  0
   -5.6629    1.6013    0.7479 H   0  0  0  0  0  0  0  0  0  0  0  0
   -5.5830   -0.7666    0.1441 H   0  0  0  0  0  0  0  0  0  0  0  0
   -3.2949   -2.3914   -1.2815 H   0  0  0  0  0  0  0  0  0  0  0  0
    1.2072   -2.0482   -0.4471 H   0  0  0  0  0  0  0  0  0  0  0  0
    3.2077   -1.0850   -1.3024 H   0  0  0  0  0  0  0  0  0  0  0  0
    1.8677   -0.5252   -2.2899 H   0  0  0  0  0  0  0  0  0  0  0  0
    2.0171    1.7070   -0.8234 H   0  0  0  0  0  0  0  0  0  0  0  0
    3.5074    1.2336   -1.7867 H   0  0  0  0  0  0  0  0  0  0  0  0
    4.4079    0.0471    0.1588 H   0  0  0  0  0  0  0  0  0  0  0  0
    4.1004    1.8237    0.5448 H   0  0  0  0  0  0  0  0  0  0  0  0
    3.2927    0.4033    2.3479 H   0  0  0  0  0  0  0  0  0  0  0  0
    1.8423    1.0500    1.4013 H   0  0  0  0  0  0  0  0  0  0  0  0
    1.6974   -1.4775    1.9239 H   0  0  0  0  0  0  0  0  0  0  0  0
    3.1734   -1.6002    0.8475 H   0  0  0  0  0  0  0  0  0  0  0  0
  1  2  2  0
  2  3  1  0
  3  4  2  0
  4  5  1  0
  5  6  2  0
  6  7  1  0
  7  8  2  0
  8  9  1  0
  2 10  1  0
 10 11  1  0
 11 12  1  0
 12 13  1  0
 13 14  1  0
 14 15  1  0
 15 16  1  0
  8  3  1  0
 16 11  1  0
  4 17  1  0
  5 18  1  0
  6 19  1  0
  7 20  1  0
  9 21  1  0
 11 22  1  0
 12 23  1  0
 12 24  1  0
 13 25  1  0
 13 26  1  0
 14 27  1  0
 14 28  1  0
 15 29  1  0
 15 30  1  0
 16 31  1  0
 16 32  1  0
M  END
>  <Ligand ID>  (1) 
LIG0005046

>  <Ligand>  (1) 
cyclohexyl 2-hydroxybenzoate

>  <SMILES>  (1) 
O=C(c1ccccc1O)OC1CCCCC1

>  <CID>  (1) 
101330.0

>  <ChEMBL ID>  (1) 
nan

>  <InChiKey>  (1) 
NUQDJSMHGCTKNL-UHFFFAOYSA-N

>  <InChi>  (1) 
InChI=1S/C13H16O3/c14-12-9-5-4-8-11(12)13(15)16-10-6-2-1-3-7-10/h4-5,8-10,14H,1-3,6-7H2

>  <IUPAC Name>  (1) 
cyclohexyl 2-hydroxybenzoate

$$$$
