
     RDKit          3D

 22 22  0  0  0  0  0  0  0  0999 V2000
    2.8214    1.7651    0.1669 O   0  0  0  0  0  0  0  0  0  0  0  0
    2.7359    0.3815    0.3637 C   0  0  0  0  0  0  0  0  0  0  0  0
    3.3933   -0.1765    1.2609 O   0  0  0  0  0  0  0  0  0  0  0  0
    1.8171   -0.3453   -0.5655 C   0  0  2  0  0  0  0  0  0  0  0  0
    0.4345    0.1530   -0.2338 C   0  0  0  0  0  0  0  0  0  0  0  0
   -0.6674   -0.4390   -1.0440 C   0  0  0  0  0  0  0  0  0  0  0  0
   -1.9294    0.2130   -0.5246 C   0  0  0  0  0  0  0  0  0  0  0  0
   -2.5055    1.2053   -1.2901 N   0  0  0  0  0  0  0  0  0  0  0  0
   -3.9801    1.6806   -0.2705 S   0  0  0  0  0  0  0  0  0  0  0  0
   -3.6233    0.5506    0.9468 N   0  0  0  0  0  0  0  0  0  0  0  0
   -2.5341   -0.0904    0.6122 C   0  0  0  0  0  0  0  0  0  0  0  0
   -2.0639   -1.0178    1.4070 O   0  0  0  0  0  0  0  0  0  0  0  0
    1.8480   -1.7664   -0.1962 N   0  0  0  0  0  0  0  0  0  0  0  0
    3.2126    2.3815    0.8860 H   0  0  0  0  0  0  0  0  0  0  0  0
    2.0942   -0.2309   -1.6216 H   0  0  0  0  0  0  0  0  0  0  0  0
    0.3495    1.2612   -0.3358 H   0  0  0  0  0  0  0  0  0  0  0  0
    0.2191   -0.0925    0.8300 H   0  0  0  0  0  0  0  0  0  0  0  0
   -0.5499   -0.3063   -2.1150 H   0  0  0  0  0  0  0  0  0  0  0  0
   -0.8200   -1.5239   -0.8498 H   0  0  0  0  0  0  0  0  0  0  0  0
   -4.2274    0.4127    1.8456 H   0  0  0  0  0  0  0  0  0  0  0  0
    1.1859   -1.9454    0.6037 H   0  0  0  0  0  0  0  0  0  0  0  0
    2.7896   -2.0700    0.1240 H   0  0  0  0  0  0  0  0  0  0  0  0
  1  2  1  0
  2  3  2  0
  2  4  1  0
  4  5  1  0
  5  6  1  0
  6  7  1  0
  7  8  2  0
  8  9  1  0
  9 10  1  0
 10 11  1  0
 11 12  2  0
  4 13  1  0
 11  7  1  0
  1 14  1  0
  4 15  1  6
  5 16  1  0
  5 17  1  0
  6 18  1  0
  6 19  1  0
 10 20  1  0
 13 21  1  0
 13 22  1  0
M  END
>  <Ligand ID>  (1) 
LIG0000486

>  <Ligand>  (1) 
CHEMBL131922

>  <SMILES>  (1) 
OC(=O)[C@H](CCc1ns[nH]c1=O)N

>  <CID>  (1) 
10465478.0

>  <ChEMBL ID>  (1) 
nan

>  <InChiKey>  (1) 
AJASJCCJLLTPOF-VKHMYHEASA-N

>  <InChi>  (1) 
InChI=1S/C6H9N3O3S/c7-3(6(11)12)1-2-4-5(10)9-13-8-4/h3H,1-2,7H2,(H,9,10)(H,11,12)/t3-/m0/s1

>  <IUPAC Name>  (1) 
(2S)-2-amino-4-(4-oxo-1,2,5-thiadiazol-3-yl)butanoic acid

$$$$
