
     RDKit          3D

 33 32  0  0  0  0  0  0  0  0999 V2000
   -4.5363    1.2848    0.5252 C   0  0  0  0  0  0  0  0  0  0  0  0
   -4.5164   -0.2000    0.3610 C   0  0  0  0  0  0  0  0  0  0  0  0
   -3.3999   -0.6708   -0.5484 C   0  0  0  0  0  0  0  0  0  0  0  0
   -2.0964   -0.2248    0.0751 C   0  0  0  0  0  0  0  0  0  0  0  0
   -0.9095   -0.6472   -0.7596 C   0  0  0  0  0  0  0  0  0  0  0  0
    0.3284   -0.1387   -0.0236 C   0  0  0  0  0  0  0  0  0  0  0  0
    1.5587   -0.5454   -0.8360 C   0  0  0  0  0  0  0  0  0  0  0  0
    2.7540   -0.0427   -0.1053 C   0  0  0  0  0  0  0  0  0  0  0  0
    4.0793   -0.3397   -0.7415 C   0  0  0  0  0  0  0  0  0  0  0  0
    5.1336    0.2626    0.1718 C   0  0  0  0  0  0  0  0  0  0  0  0
    4.8557    1.6199    0.2220 O   0  0  0  0  0  0  0  0  0  0  0  0
   -4.3725    1.5869    1.5999 H   0  0  0  0  0  0  0  0  0  0  0  0
   -5.5415    1.6617    0.2595 H   0  0  0  0  0  0  0  0  0  0  0  0
   -3.8086    1.8093   -0.1301 H   0  0  0  0  0  0  0  0  0  0  0  0
   -5.4577   -0.5602   -0.1260 H   0  0  0  0  0  0  0  0  0  0  0  0
   -4.3638   -0.7350    1.3341 H   0  0  0  0  0  0  0  0  0  0  0  0
   -3.4116   -1.7622   -0.6041 H   0  0  0  0  0  0  0  0  0  0  0  0
   -3.4691   -0.2502   -1.5646 H   0  0  0  0  0  0  0  0  0  0  0  0
   -2.0400    0.8553    0.2271 H   0  0  0  0  0  0  0  0  0  0  0  0
   -1.9565   -0.7260    1.0703 H   0  0  0  0  0  0  0  0  0  0  0  0
   -0.9334   -0.2655   -1.7830 H   0  0  0  0  0  0  0  0  0  0  0  0
   -0.8783   -1.7500   -0.8143 H   0  0  0  0  0  0  0  0  0  0  0  0
    0.3960   -0.5290    0.9897 H   0  0  0  0  0  0  0  0  0  0  0  0
    0.2274    0.9595    0.0278 H   0  0  0  0  0  0  0  0  0  0  0  0
    1.5661   -1.6627   -0.8567 H   0  0  0  0  0  0  0  0  0  0  0  0
    1.4752   -0.2161   -1.8711 H   0  0  0  0  0  0  0  0  0  0  0  0
    2.6488    1.0764   -0.0179 H   0  0  0  0  0  0  0  0  0  0  0  0
    2.7362   -0.4269    0.9245 H   0  0  0  0  0  0  0  0  0  0  0  0
    4.2203   -1.4305   -0.8162 H   0  0  0  0  0  0  0  0  0  0  0  0
    4.1631    0.1218   -1.7404 H   0  0  0  0  0  0  0  0  0  0  0  0
    4.9576   -0.1508    1.1898 H   0  0  0  0  0  0  0  0  0  0  0  0
    6.1487    0.1083   -0.1912 H   0  0  0  0  0  0  0  0  0  0  0  0
    4.4424    1.9279    1.0522 H   0  0  0  0  0  0  0  0  0  0  0  0
  1  2  1  0
  2  3  1  0
  3  4  1  0
  4  5  1  0
  5  6  1  0
  6  7  1  0
  7  8  1  0
  8  9  1  0
  9 10  1  0
 10 11  1  0
  1 12  1  0
  1 13  1  0
  1 14  1  0
  2 15  1  0
  2 16  1  0
  3 17  1  0
  3 18  1  0
  4 19  1  0
  4 20  1  0
  5 21  1  0
  5 22  1  0
  6 23  1  0
  6 24  1  0
  7 25  1  0
  7 26  1  0
  8 27  1  0
  8 28  1  0
  9 29  1  0
  9 30  1  0
 10 31  1  0
 10 32  1  0
 11 33  1  0
M  END
>  <Ligand ID>  (1) 
LIG0000100

>  <Ligand>  (1) 
1-Decanol

>  <SMILES>  (1) 
CCCCCCCCCCO

>  <CID>  (1) 
8174.0

>  <ChEMBL ID>  (1) 
nan

>  <InChiKey>  (1) 
MWKFXSUHUHTGQN-UHFFFAOYSA-N

>  <InChi>  (1) 
InChI=1S/C10H22O/c1-2-3-4-5-6-7-8-9-10-11/h11H,2-10H2,1H3

>  <IUPAC Name>  (1) 
decan-1-ol

$$$$
