
     RDKit          3D

 36 36  0  0  0  0  0  0  0  0999 V2000
    5.0835   -0.9556    0.2395 C   0  0  0  0  0  0  0  0  0  0  0  0
    4.7523    0.5337    0.3822 C   0  0  0  0  0  0  0  0  0  0  0  0
    3.4890    0.7976   -0.4440 C   0  0  0  0  0  0  0  0  0  0  0  0
    2.3449   -0.0449    0.0696 C   0  0  0  0  0  0  0  0  0  0  0  0
    1.1246    0.2466   -0.7710 C   0  0  0  0  0  0  0  0  0  0  0  0
   -0.0761   -0.5822   -0.2975 C   0  0  0  0  0  0  0  0  0  0  0  0
   -1.1921   -0.1706   -1.2353 C   0  0  0  0  0  0  0  0  0  0  0  0
   -2.4876   -0.8848   -0.9344 C   0  0  0  0  0  0  0  0  0  0  0  0
   -2.9525   -0.5945    0.4575 C   0  0  0  0  0  0  0  0  0  0  0  0
   -3.1729    0.8809    0.6206 C   0  0  0  0  0  0  0  0  0  0  0  0
   -4.6406    1.0060    0.9845 C   0  0  0  0  0  0  0  0  0  0  0  0
   -5.2277   -0.2659    0.4419 C   0  0  0  0  0  0  0  0  0  0  0  0
   -6.3652   -0.4449   -0.0670 O   0  0  0  0  0  0  0  0  0  0  0  0
   -4.2050   -1.2109    0.6370 O   0  0  0  0  0  0  0  0  0  0  0  0
    6.1996   -1.0764    0.2084 H   0  0  0  0  0  0  0  0  0  0  0  0
    4.6923   -1.3250   -0.7270 H   0  0  0  0  0  0  0  0  0  0  0  0
    4.6571   -1.5446    1.0804 H   0  0  0  0  0  0  0  0  0  0  0  0
    5.6050    1.0804   -0.0697 H   0  0  0  0  0  0  0  0  0  0  0  0
    4.5731    0.8275    1.4268 H   0  0  0  0  0  0  0  0  0  0  0  0
    3.6719    0.6056   -1.5112 H   0  0  0  0  0  0  0  0  0  0  0  0
    3.2083    1.8617   -0.3298 H   0  0  0  0  0  0  0  0  0  0  0  0
    2.0928    0.3409    1.0986 H   0  0  0  0  0  0  0  0  0  0  0  0
    2.5700   -1.1080    0.1377 H   0  0  0  0  0  0  0  0  0  0  0  0
    0.7905    1.2985   -0.6724 H   0  0  0  0  0  0  0  0  0  0  0  0
    1.2651   -0.0023   -1.8437 H   0  0  0  0  0  0  0  0  0  0  0  0
    0.1361   -1.6651   -0.3715 H   0  0  0  0  0  0  0  0  0  0  0  0
   -0.3122   -0.3787    0.7623 H   0  0  0  0  0  0  0  0  0  0  0  0
   -0.8440   -0.4435   -2.2555 H   0  0  0  0  0  0  0  0  0  0  0  0
   -1.2739    0.9126   -1.2166 H   0  0  0  0  0  0  0  0  0  0  0  0
   -3.2393   -0.4413   -1.6403 H   0  0  0  0  0  0  0  0  0  0  0  0
   -2.4088   -1.9516   -1.1706 H   0  0  0  0  0  0  0  0  0  0  0  0
   -2.2755   -1.0106    1.2241 H   0  0  0  0  0  0  0  0  0  0  0  0
   -2.6044    1.3177    1.4671 H   0  0  0  0  0  0  0  0  0  0  0  0
   -3.0295    1.4389   -0.3194 H   0  0  0  0  0  0  0  0  0  0  0  0
   -5.1352    1.8327    0.3989 H   0  0  0  0  0  0  0  0  0  0  0  0
   -4.8135    1.1204    2.0703 H   0  0  0  0  0  0  0  0  0  0  0  0
  1  2  1  0
  2  3  1  0
  3  4  1  0
  4  5  1  0
  5  6  1  0
  6  7  1  0
  7  8  1  0
  8  9  1  0
  9 10  1  0
 10 11  1  0
 11 12  1  0
 12 13  2  0
 12 14  1  0
 14  9  1  0
  1 15  1  0
  1 16  1  0
  1 17  1  0
  2 18  1  0
  2 19  1  0
  3 20  1  0
  3 21  1  0
  4 22  1  0
  4 23  1  0
  5 24  1  0
  5 25  1  0
  6 26  1  0
  6 27  1  0
  7 28  1  0
  7 29  1  0
  8 30  1  0
  8 31  1  0
  9 32  1  0
 10 33  1  0
 10 34  1  0
 11 35  1  0
 11 36  1  0
M  END
>  <Ligand ID>  (1) 
LIG0001053

>  <Ligand>  (1) 
Gamma-Dodecalactone

>  <SMILES>  (1) 
CCCCCCCCC1CCC(=O)O1

>  <CID>  (1) 
16821.0

>  <ChEMBL ID>  (1) 
nan

>  <InChiKey>  (1) 
WGPCZPLRVAWXPW-UHFFFAOYSA-N

>  <InChi>  (1) 
InChI=1S/C12H22O2/c1-2-3-4-5-6-7-8-11-9-10-12(13)14-11/h11H,2-10H2,1H3

>  <IUPAC Name>  (1) 
5-octyloxolan-2-one

$$$$
