
     RDKit          3D

 22 23  0  0  0  0  0  0  0  0999 V2000
    0.9376    1.0192    1.1538 O   0  0  0  0  0  0  0  0  0  0  0  0
    1.2150    0.1836    0.2383 C   0  0  0  0  0  0  0  0  0  0  0  0
    2.6204   -0.1131   -0.0136 C   0  0  0  0  0  0  0  0  0  0  0  0
    3.7094    0.4297    0.6524 C   0  0  0  0  0  0  0  0  0  0  0  0
    4.8113   -0.1594    0.0578 C   0  0  0  0  0  0  0  0  0  0  0  0
    4.3832   -0.9969   -0.8995 N   0  0  0  0  0  0  0  0  0  0  0  0
    3.1028   -0.9420   -0.9102 O   0  0  0  0  0  0  0  0  0  0  0  0
    0.2206   -0.4640   -0.5390 N   0  0  0  0  0  0  0  0  0  0  0  0
   -1.1632   -0.2233   -0.3485 C   0  0  0  0  0  0  0  0  0  0  0  0
   -1.8789   -1.0137    0.5577 C   0  0  0  0  0  0  0  0  0  0  0  0
   -3.2405   -0.7894    0.7563 C   0  0  0  0  0  0  0  0  0  0  0  0
   -3.8610    0.2167    0.0488 C   0  0  0  0  0  0  0  0  0  0  0  0
   -3.1791    1.0213   -0.8601 C   0  0  0  0  0  0  0  0  0  0  0  0
   -1.8123    0.7931   -1.0567 C   0  0  0  0  0  0  0  0  0  0  0  0
   -3.9552    2.2920   -1.7559 Cl  0  0  0  0  0  0  0  0  0  0  0  0
   -5.5700    0.5198    0.2790 Cl  0  0  0  0  0  0  0  0  0  0  0  0
    3.6998    1.1641    1.4703 H   0  0  0  0  0  0  0  0  0  0  0  0
    5.8490    0.0237    0.3201 H   0  0  0  0  0  0  0  0  0  0  0  0
    0.5270   -1.1443   -1.2799 H   0  0  0  0  0  0  0  0  0  0  0  0
   -1.3857   -1.8122    1.1190 H   0  0  0  0  0  0  0  0  0  0  0  0
   -3.7785   -1.4214    1.4709 H   0  0  0  0  0  0  0  0  0  0  0  0
   -1.2515    1.4166   -1.7704 H   0  0  0  0  0  0  0  0  0  0  0  0
  1  2  2  0
  2  3  1  0
  3  4  2  0
  4  5  1  0
  5  6  2  0
  6  7  1  0
  2  8  1  0
  8  9  1  0
  9 10  2  0
 10 11  1  0
 11 12  2  0
 12 13  1  0
 13 14  2  0
 13 15  1  0
 12 16  1  0
  7  3  1  0
 14  9  1  0
  4 17  1  0
  5 18  1  0
  8 19  1  0
 10 20  1  0
 11 21  1  0
 14 22  1  0
M  END
>  <Ligand ID>  (1) 
LIG0005792

>  <Ligand>  (1) 
CHEMBL538868

>  <SMILES>  (1) 
O=C(c1ccno1)Nc1ccc(c(c1)Cl)Cl

>  <CID>  (1) 
44191098.0

>  <ChEMBL ID>  (1) 
nan

>  <InChiKey>  (1) 
UUHVRJUKMHUDDA-UHFFFAOYSA-N

>  <InChi>  (1) 
InChI=1S/C10H6Cl2N2O2/c11-7-2-1-6(5-8(7)12)14-10(15)9-3-4-13-16-9/h1-5H,(H,14,15)

>  <IUPAC Name>  (1) 
N-(3,4-dichlorophenyl)-1,2-oxazole-5-carboxamide

$$$$
