
     RDKit          3D

 46 48  0  0  0  0  0  0  0  0999 V2000
    6.9874   -0.1293    0.4399 C   0  0  0  0  0  0  0  0  0  0  0  0
    6.3742    0.7644   -0.6136 C   0  0  0  0  0  0  0  0  0  0  0  0
    4.8930    0.9624   -0.2905 C   0  0  0  0  0  0  0  0  0  0  0  0
    4.2412   -0.3903   -0.2983 C   0  0  0  0  0  0  0  0  0  0  0  0
    2.7737   -0.3400    0.0063 C   0  0  0  0  0  0  0  0  0  0  0  0
    2.0233    0.5112   -1.0206 C   0  0  0  0  0  0  0  0  0  0  0  0
    0.2744    0.4984   -0.5517 S   0  0  0  0  0  0  0  0  0  0  0  0
   -0.4262   -1.1349   -0.7240 C   0  0  0  0  0  0  0  0  0  0  0  0
    0.2999   -2.1947   -1.1599 N   0  0  0  0  0  0  0  0  0  0  0  0
   -0.2728   -3.4294   -1.2766 C   0  0  0  0  0  0  0  0  0  0  0  0
   -1.6039   -3.5595   -0.9386 C   0  0  0  0  0  0  0  0  0  0  0  0
   -2.3611   -2.5363   -0.5022 N   0  0  0  0  0  0  0  0  0  0  0  0
   -1.7510   -1.3413   -0.4047 C   0  0  0  0  0  0  0  0  0  0  0  0
   -2.4868   -0.2671    0.0374 O   0  0  0  0  0  0  0  0  0  0  0  0
   -3.8071   -0.2189    0.4162 C   0  0  1  0  0  0  0  0  0  0  0  0
   -4.0245    0.2754    1.8364 C   0  0  0  0  0  0  0  0  0  0  0  0
   -5.2147    1.1167    1.7901 N   0  0  0  0  0  0  0  0  0  0  0  0
   -5.9032    0.6745    0.5676 C   0  0  0  0  0  0  0  0  0  0  0  0
   -4.6758    0.7433   -0.3494 C   0  0  0  0  0  0  0  0  0  0  0  0
   -4.3037    2.1815   -0.1418 C   0  0  0  0  0  0  0  0  0  0  0  0
   -4.7364    2.4223    1.2979 C   0  0  0  0  0  0  0  0  0  0  0  0
    6.4710    0.0667    1.3979 H   0  0  0  0  0  0  0  0  0  0  0  0
    6.7811   -1.1979    0.1491 H   0  0  0  0  0  0  0  0  0  0  0  0
    8.0805    0.0275    0.5259 H   0  0  0  0  0  0  0  0  0  0  0  0
    6.4396    0.3115   -1.6186 H   0  0  0  0  0  0  0  0  0  0  0  0
    6.9120    1.7358   -0.6506 H   0  0  0  0  0  0  0  0  0  0  0  0
    4.4777    1.6335   -1.0583 H   0  0  0  0  0  0  0  0  0  0  0  0
    4.7996    1.3768    0.7430 H   0  0  0  0  0  0  0  0  0  0  0  0
    4.7353   -1.0063    0.4738 H   0  0  0  0  0  0  0  0  0  0  0  0
    4.3948   -0.9044   -1.2654 H   0  0  0  0  0  0  0  0  0  0  0  0
    2.5515    0.0828    0.9977 H   0  0  0  0  0  0  0  0  0  0  0  0
    2.3391   -1.3529   -0.0923 H   0  0  0  0  0  0  0  0  0  0  0  0
    2.3725    1.5660   -0.9309 H   0  0  0  0  0  0  0  0  0  0  0  0
    2.1433    0.1018   -2.0309 H   0  0  0  0  0  0  0  0  0  0  0  0
    0.3217   -4.2860   -1.6316 H   0  0  0  0  0  0  0  0  0  0  0  0
   -2.0842   -4.5436   -1.0252 H   0  0  0  0  0  0  0  0  0  0  0  0
   -4.2771   -1.2118    0.3362 H   0  0  0  0  0  0  0  0  0  0  0  0
   -3.1472    0.9167    2.1413 H   0  0  0  0  0  0  0  0  0  0  0  0
   -4.1712   -0.5515    2.5474 H   0  0  0  0  0  0  0  0  0  0  0  0
   -6.2547   -0.3557    0.7087 H   0  0  0  0  0  0  0  0  0  0  0  0
   -6.6773    1.4054    0.2958 H   0  0  0  0  0  0  0  0  0  0  0  0
   -4.8987    0.4504   -1.3813 H   0  0  0  0  0  0  0  0  0  0  0  0
   -4.9213    2.7884   -0.8388 H   0  0  0  0  0  0  0  0  0  0  0  0
   -3.2264    2.3975   -0.1789 H   0  0  0  0  0  0  0  0  0  0  0  0
   -5.5468    3.1867    1.3605 H   0  0  0  0  0  0  0  0  0  0  0  0
   -3.9146    2.7541    1.9484 H   0  0  0  0  0  0  0  0  0  0  0  0
  1  2  1  0
  2  3  1  0
  3  4  1  0
  4  5  1  0
  5  6  1  0
  6  7  1  0
  7  8  1  0
  8  9  2  0
  9 10  1  0
 10 11  2  0
 11 12  1  0
 12 13  2  0
 13 14  1  0
 14 15  1  0
 15 16  1  0
 16 17  1  0
 17 18  1  0
 18 19  1  0
 19 20  1  0
 20 21  1  0
 13  8  1  0
 19 15  1  0
 21 17  1  0
  1 22  1  0
  1 23  1  0
  1 24  1  0
  2 25  1  0
  2 26  1  0
  3 27  1  0
  3 28  1  0
  4 29  1  0
  4 30  1  0
  5 31  1  0
  5 32  1  0
  6 33  1  0
  6 34  1  0
 10 35  1  0
 11 36  1  0
 15 37  1  1
 16 38  1  0
 16 39  1  0
 18 40  1  0
 18 41  1  0
 19 42  1  0
 20 43  1  0
 20 44  1  0
 21 45  1  0
 21 46  1  0
M  END
>  <Ligand ID>  (1) 
LIG0004316

>  <Ligand>  (1) 
CHEMBL291339

>  <SMILES>  (1) 
CCCCCCSc1nccnc1O[C@H]1CN2CC1CC2

>  <CID>  (1) 
9883040.0

>  <ChEMBL ID>  (1) 
nan

>  <InChiKey>  (1) 
CBUABSHDAKLYKZ-KZUDCZAMSA-N

>  <InChi>  (1) 
InChI=1S/C16H25N3OS/c1-2-3-4-5-10-21-16-15(17-7-8-18-16)20-14-12-19-9-6-13(14)11-19/h7-8,13-14H,2-6,9-12H2,1H3/t13?,14-/m0/s1

>  <IUPAC Name>  (1) 
(3R)-3-(3-hexylsulfanylpyrazin-2-yl)oxy-1-azabicyclo[2.2.1]heptane

$$$$
