
     RDKit          3D

143144  0  0  0  0  0  0  0  0999 V2000
    6.4922   -5.9938    2.6220 C   0  0  0  0  0  0  0  0  0  0  0  0
    6.6517   -5.2195    1.3166 C   0  0  0  0  0  0  0  0  0  0  0  0
    5.3271   -5.2620    0.5811 C   0  0  0  0  0  0  0  0  0  0  0  0
    5.3695   -4.5122   -0.7081 C   0  0  0  0  0  0  0  0  0  0  0  0
    5.6518   -3.0606   -0.6340 C   0  0  0  0  0  0  0  0  0  0  0  0
    4.6291   -2.2942    0.1185 N   0  0  0  0  0  0  0  0  0  0  0  0
    3.5417   -1.8774   -0.6805 C   0  0  0  0  0  0  0  0  0  0  0  0
    3.6463   -2.1902   -1.9285 O   0  0  0  0  0  0  0  0  0  0  0  0
    2.3221   -1.1557   -0.3132 C   0  0  2  0  0  0  0  0  0  0  0  0
    1.5141   -1.9818    0.6749 C   0  0  0  0  0  0  0  0  0  0  0  0
    1.0493   -1.1641    2.1948 S   0  0  0  0  0  0  0  0  0  0  0  0
   -0.0234    0.2701    1.9989 C   0  0  0  0  0  0  0  0  0  0  0  0
   -1.3556   -0.1559    1.4382 C   0  0  0  0  0  0  0  0  0  0  0  0
   -2.1821   -0.8078    2.5027 C   0  0  0  0  0  0  0  0  0  0  0  0
   -3.3492   -1.5120    1.9328 C   0  0  0  0  0  0  0  0  0  0  0  0
   -3.2314   -2.0787    0.8380 O   0  0  0  0  0  0  0  0  0  0  0  0
   -4.6305   -1.5831    2.5394 N   0  0  0  0  0  0  0  0  0  0  0  0
   -5.6105   -2.4495    1.9393 C   0  0  1  0  0  0  0  0  0  0  0  0
   -6.4995   -2.9986    2.9864 C   0  0  0  0  0  0  0  0  0  0  0  0
   -7.2578   -2.0398    3.7939 C   0  0  0  0  0  0  0  0  0  0  0  0
   -6.7204   -1.5203    4.9621 C   0  0  0  0  0  0  0  0  0  0  0  0
   -7.4417   -0.6132    5.7532 C   0  0  0  0  0  0  0  0  0  0  0  0
   -8.7177   -0.2310    5.3556 C   0  0  0  0  0  0  0  0  0  0  0  0
   -9.2679   -0.7441    4.1855 C   0  0  0  0  0  0  0  0  0  0  0  0
   -8.5272   -1.6303    3.4398 C   0  0  0  0  0  0  0  0  0  0  0  0
   -9.4784    0.6726    6.1166 O   0  0  0  0  0  0  0  0  0  0  0  0
   -6.2565   -1.8168    0.7779 C   0  0  0  0  0  0  0  0  0  0  0  0
   -7.1462   -2.4504    0.1918 O   0  0  0  0  0  0  0  0  0  0  0  0
   -5.9604   -0.5130    0.2365 N   0  0  0  0  0  0  0  0  0  0  0  0
   -6.6503   -0.1023   -0.9354 C   0  0  2  0  0  0  0  0  0  0  0  0
   -5.8582    0.2746   -2.1057 C   0  0  0  0  0  0  0  0  0  0  0  0
   -6.4875    0.3789   -3.1962 O   0  0  0  0  0  0  0  0  0  0  0  0
   -4.4655    0.5600   -2.2177 N   0  0  0  0  0  0  0  0  0  0  0  0
   -3.9664    0.7505   -3.5734 C   0  0  2  0  0  0  0  0  0  0  0  0
   -2.5650    0.4226   -3.7701 C   0  0  0  0  0  0  0  0  0  0  0  0
   -2.2046    0.0326   -4.9143 O   0  0  0  0  0  0  0  0  0  0  0  0
   -1.4903    0.4932   -2.8397 N   0  0  0  0  0  0  0  0  0  0  0  0
   -0.1788   -0.0951   -3.1793 C   0  0  2  0  0  0  0  0  0  0  0  0
    0.5708   -0.1514   -1.9103 C   0  0  0  0  0  0  0  0  0  0  0  0
    0.3157    0.6768   -1.0450 O   0  0  0  0  0  0  0  0  0  0  0  0
    1.5713   -1.1075   -1.6034 N   0  0  0  0  0  0  0  0  0  0  0  0
    0.6111    0.8651   -4.0694 C   0  0  0  0  0  0  0  0  0  0  0  0
    0.8661    2.1515   -3.4310 C   0  0  0  0  0  0  0  0  0  0  0  0
    1.7428    2.2398   -2.5092 O   0  0  0  0  0  0  0  0  0  0  0  0
    0.1962    3.3477   -3.7657 N   0  0  0  0  0  0  0  0  0  0  0  0
   -4.2482    2.2191   -3.9891 C   0  0  0  0  0  0  0  0  0  0  0  0
   -3.5948    3.2191   -3.0994 C   0  0  0  0  0  0  0  0  0  0  0  0
   -3.9677    4.5746   -3.6174 C   0  0  0  0  0  0  0  0  0  0  0  0
   -4.7478    4.6731   -4.6256 O   0  0  0  0  0  0  0  0  0  0  0  0
   -3.5069    5.7849   -3.0587 N   0  0  0  0  0  0  0  0  0  0  0  0
   -7.7887    0.8722   -0.6782 C   0  0  2  0  0  0  0  0  0  0  0  0
   -7.3959    2.1572   -0.0383 C   0  0  0  0  0  0  0  0  0  0  0  0
   -8.6149    3.0722    0.1811 C   0  0  0  0  0  0  0  0  0  0  0  0
   -8.9366    0.1757   -0.0235 C   0  0  0  0  0  0  0  0  0  0  0  0
    4.8032   -1.9676    1.5136 C   0  0  0  0  0  0  0  0  0  0  0  0
    5.6533   -0.7503    1.7055 C   0  0  0  0  0  0  0  0  0  0  0  0
    5.8009   -0.3822    2.9141 O   0  0  0  0  0  0  0  0  0  0  0  0
    6.2585   -0.0529    0.6473 N   0  0  0  0  0  0  0  0  0  0  0  0
    7.1007    1.1594    0.9745 C   0  0  2  0  0  0  0  0  0  0  0  0
    6.7084    2.2540    0.1381 C   0  0  0  0  0  0  0  0  0  0  0  0
    7.1814    3.4336    0.1248 O   0  0  0  0  0  0  0  0  0  0  0  0
    5.6492    2.0709   -0.8291 N   0  0  0  0  0  0  0  0  0  0  0  0
    5.2184    3.1579   -1.6960 C   0  0  0  0  0  0  0  0  0  0  0  0
    6.2967    3.6520   -2.5719 C   0  0  0  0  0  0  0  0  0  0  0  0
    6.0281    4.6124   -3.3715 O   0  0  0  0  0  0  0  0  0  0  0  0
    7.6145    3.1519   -2.6102 N   0  0  0  0  0  0  0  0  0  0  0  0
    8.4887    0.6697    0.9222 C   0  0  0  0  0  0  0  0  0  0  0  0
    9.6275    1.5419    1.2247 C   0  0  0  0  0  0  0  0  0  0  0  0
   10.8780    0.5843    1.1198 C   0  0  0  0  0  0  0  0  0  0  0  0
    9.9190    2.6621    0.2528 C   0  0  0  0  0  0  0  0  0  0  0  0
    6.1122   -5.3073    3.4142 H   0  0  0  0  0  0  0  0  0  0  0  0
    5.7965   -6.8136    2.4457 H   0  0  0  0  0  0  0  0  0  0  0  0
    7.4925   -6.4239    2.9086 H   0  0  0  0  0  0  0  0  0  0  0  0
    7.0365   -4.2245    1.5261 H   0  0  0  0  0  0  0  0  0  0  0  0
    7.4544   -5.7264    0.7051 H   0  0  0  0  0  0  0  0  0  0  0  0
    5.1761   -6.3596    0.3371 H   0  0  0  0  0  0  0  0  0  0  0  0
    4.5318   -4.8900    1.2252 H   0  0  0  0  0  0  0  0  0  0  0  0
    4.4613   -4.7484   -1.3239 H   0  0  0  0  0  0  0  0  0  0  0  0
    6.2049   -4.9845   -1.3102 H   0  0  0  0  0  0  0  0  0  0  0  0
    5.7270   -2.6624   -1.6593 H   0  0  0  0  0  0  0  0  0  0  0  0
    6.6122   -2.9324   -0.0878 H   0  0  0  0  0  0  0  0  0  0  0  0
    2.4864   -0.1553    0.0070 H   0  0  0  0  0  0  0  0  0  0  0  0
    0.6059   -2.3441    0.1177 H   0  0  0  0  0  0  0  0  0  0  0  0
    2.0828   -2.8964    0.8994 H   0  0  0  0  0  0  0  0  0  0  0  0
   -0.2713    0.5817    3.0697 H   0  0  0  0  0  0  0  0  0  0  0  0
    0.4266    1.1499    1.5683 H   0  0  0  0  0  0  0  0  0  0  0  0
   -1.9187    0.7698    1.1172 H   0  0  0  0  0  0  0  0  0  0  0  0
   -1.2685   -0.8374    0.5543 H   0  0  0  0  0  0  0  0  0  0  0  0
   -1.5952   -1.4177    3.2227 H   0  0  0  0  0  0  0  0  0  0  0  0
   -2.6143    0.0315    3.1306 H   0  0  0  0  0  0  0  0  0  0  0  0
   -4.7498   -0.9876    3.3626 H   0  0  0  0  0  0  0  0  0  0  0  0
   -5.0485   -3.3605    1.4850 H   0  0  0  0  0  0  0  0  0  0  0  0
   -7.2048   -3.7586    2.5475 H   0  0  0  0  0  0  0  0  0  0  0  0
   -5.8255   -3.5448    3.7171 H   0  0  0  0  0  0  0  0  0  0  0  0
   -5.7411   -1.7778    5.3290 H   0  0  0  0  0  0  0  0  0  0  0  0
   -6.9985   -0.2103    6.6657 H   0  0  0  0  0  0  0  0  0  0  0  0
  -10.2548   -0.4163    3.9308 H   0  0  0  0  0  0  0  0  0  0  0  0
   -8.9290   -2.0334    2.5299 H   0  0  0  0  0  0  0  0  0  0  0  0
   -9.7833    1.5597    5.7297 H   0  0  0  0  0  0  0  0  0  0  0  0
   -5.2712    0.0014    0.7559 H   0  0  0  0  0  0  0  0  0  0  0  0
   -7.2031   -1.0436   -1.3086 H   0  0  0  0  0  0  0  0  0  0  0  0
   -3.9468    0.6051   -1.3578 H   0  0  0  0  0  0  0  0  0  0  0  0
   -4.6154    0.1253   -4.2536 H   0  0  0  0  0  0  0  0  0  0  0  0
   -1.6928    0.9685   -1.9658 H   0  0  0  0  0  0  0  0  0  0  0  0
   -0.2587   -1.0203   -3.7382 H   0  0  0  0  0  0  0  0  0  0  0  0
    1.7527   -1.7837   -2.3587 H   0  0  0  0  0  0  0  0  0  0  0  0
    1.6173    0.3650   -4.1965 H   0  0  0  0  0  0  0  0  0  0  0  0
    0.2052    0.9315   -5.0951 H   0  0  0  0  0  0  0  0  0  0  0  0
    0.0632    3.5905   -4.7919 H   0  0  0  0  0  0  0  0  0  0  0  0
   -0.1492    3.9677   -3.0275 H   0  0  0  0  0  0  0  0  0  0  0  0
   -5.3374    2.3711   -4.0787 H   0  0  0  0  0  0  0  0  0  0  0  0
   -3.8463    2.3497   -5.0254 H   0  0  0  0  0  0  0  0  0  0  0  0
   -2.4843    3.1773   -3.1265 H   0  0  0  0  0  0  0  0  0  0  0  0
   -3.9461    3.0602   -2.0725 H   0  0  0  0  0  0  0  0  0  0  0  0
   -3.1028    5.7781   -2.1080 H   0  0  0  0  0  0  0  0  0  0  0  0
   -3.5716    6.6666   -3.5974 H   0  0  0  0  0  0  0  0  0  0  0  0
   -8.1787    1.1430   -1.7032 H   0  0  0  0  0  0  0  0  0  0  0  0
   -6.8413    2.0711    0.9131 H   0  0  0  0  0  0  0  0  0  0  0  0
   -6.7399    2.7848   -0.6961 H   0  0  0  0  0  0  0  0  0  0  0  0
   -9.1428    2.8437    1.1003 H   0  0  0  0  0  0  0  0  0  0  0  0
   -8.3133    4.1427    0.2518 H   0  0  0  0  0  0  0  0  0  0  0  0
   -9.3105    2.9818   -0.6837 H   0  0  0  0  0  0  0  0  0  0  0  0
   -9.8442    0.8294   -0.1316 H   0  0  0  0  0  0  0  0  0  0  0  0
   -9.1463   -0.7336   -0.6608 H   0  0  0  0  0  0  0  0  0  0  0  0
   -8.7764   -0.1206    1.0152 H   0  0  0  0  0  0  0  0  0  0  0  0
    3.8244   -1.7678    1.9733 H   0  0  0  0  0  0  0  0  0  0  0  0
    5.2368   -2.8288    2.0803 H   0  0  0  0  0  0  0  0  0  0  0  0
    6.1544   -0.3589   -0.3299 H   0  0  0  0  0  0  0  0  0  0  0  0
    6.8055    1.3556    2.0559 H   0  0  0  0  0  0  0  0  0  0  0  0
    5.1438    1.1722   -0.9432 H   0  0  0  0  0  0  0  0  0  0  0  0
    4.3542    2.8493   -2.3040 H   0  0  0  0  0  0  0  0  0  0  0  0
    4.8500    4.0106   -1.0475 H   0  0  0  0  0  0  0  0  0  0  0  0
    8.3812    3.8338   -2.3872 H   0  0  0  0  0  0  0  0  0  0  0  0
    7.8648    2.1595   -2.8451 H   0  0  0  0  0  0  0  0  0  0  0  0
    8.5765   -0.2295    1.6188 H   0  0  0  0  0  0  0  0  0  0  0  0
    8.6692    0.2486   -0.1263 H   0  0  0  0  0  0  0  0  0  0  0  0
    9.6227    1.9328    2.2546 H   0  0  0  0  0  0  0  0  0  0  0  0
   11.7415    1.1099    1.5443 H   0  0  0  0  0  0  0  0  0  0  0  0
   10.9988    0.3596    0.0409 H   0  0  0  0  0  0  0  0  0  0  0  0
   10.6341   -0.3073    1.7235 H   0  0  0  0  0  0  0  0  0  0  0  0
   11.0483    2.6526    0.1231 H   0  0  0  0  0  0  0  0  0  0  0  0
    9.4984    2.4817   -0.7382 H   0  0  0  0  0  0  0  0  0  0  0  0
    9.7017    3.6257    0.7318 H   0  0  0  0  0  0  0  0  0  0  0  0
  1  2  1  0
  2  3  1  0
  3  4  1  0
  4  5  1  0
  5  6  1  0
  6  7  1  0
  7  8  2  0
  7  9  1  0
  9 10  1  0
 10 11  1  0
 11 12  1  0
 12 13  1  0
 13 14  1  0
 14 15  1  0
 15 16  2  0
 15 17  1  0
 17 18  1  0
 18 19  1  0
 19 20  1  0
 20 21  2  0
 21 22  1  0
 22 23  2  0
 23 24  1  0
 24 25  2  0
 23 26  1  0
 18 27  1  0
 27 28  2  0
 27 29  1  0
 29 30  1  0
 30 31  1  0
 31 32  2  0
 31 33  1  0
 33 34  1  0
 34 35  1  0
 35 36  2  0
 35 37  1  0
 37 38  1  0
 38 39  1  0
 39 40  2  0
 39 41  1  0
 38 42  1  0
 42 43  1  0
 43 44  2  0
 43 45  1  0
 34 46  1  0
 46 47  1  0
 47 48  1  0
 48 49  2  0
 48 50  1  0
 30 51  1  0
 51 52  1  0
 52 53  1  0
 51 54  1  0
  6 55  1  0
 55 56  1  0
 56 57  2  0
 56 58  1  0
 58 59  1  0
 59 60  1  0
 60 61  2  0
 60 62  1  0
 62 63  1  0
 63 64  1  0
 64 65  2  0
 64 66  1  0
 59 67  1  0
 67 68  1  0
 68 69  1  0
 68 70  1  0
 41  9  1  0
 25 20  1  0
  1 71  1  0
  1 72  1  0
  1 73  1  0
  2 74  1  0
  2 75  1  0
  3 76  1  0
  3 77  1  0
  4 78  1  0
  4 79  1  0
  5 80  1  0
  5 81  1  0
  9 82  1  1
 10 83  1  0
 10 84  1  0
 12 85  1  0
 12 86  1  0
 13 87  1  0
 13 88  1  0
 14 89  1  0
 14 90  1  0
 17 91  1  0
 18 92  1  6
 19 93  1  0
 19 94  1  0
 21 95  1  0
 22 96  1  0
 24 97  1  0
 25 98  1  0
 26 99  1  0
 29100  1  0
 30101  1  6
 33102  1  0
 34103  1  6
 37104  1  0
 38105  1  6
 41106  1  0
 42107  1  0
 42108  1  0
 45109  1  0
 45110  1  0
 46111  1  0
 46112  1  0
 47113  1  0
 47114  1  0
 50115  1  0
 50116  1  0
 51117  1  6
 52118  1  0
 52119  1  0
 53120  1  0
 53121  1  0
 53122  1  0
 54123  1  0
 54124  1  0
 54125  1  0
 55126  1  0
 55127  1  0
 58128  1  0
 59129  1  1
 62130  1  0
 63131  1  0
 63132  1  0
 66133  1  0
 66134  1  0
 67135  1  0
 67136  1  0
 68137  1  0
 69138  1  0
 69139  1  0
 69140  1  0
 70141  1  0
 70142  1  0
 70143  1  0
M  END
>  <Ligand ID>  (1) 
LIG0001897

>  <Ligand>  (1) 
CHEMBL3354585

>  <SMILES>  (1) 
CCCCCN(C(=O)[C@@H]1CSCCCC(=O)N[C@@H](Cc2ccc(cc2)O)C(=O)N[C@H](C(=O)N[C@H](C(=O)N[C@H](C(=O)N1)CC(=O)N)CCC(=O)N)[C@H](CC)C)CC(=O)N[C@H](C(=O)NCC(=O)N)CC(C)C

>  <CID>  (1) 
118720275.0

>  <ChEMBL ID>  (1) 
nan

>  <InChiKey>  (1) 
COMIMQQIDBGQFG-SFKWGLIHSA-N

>  <InChi>  (1) 
InChI=1S/C46H73N11O12S/c1-6-8-9-18-57(24-39(63)52-31(20-26(3)4)41(64)50-23-37(49)61)46(69)34-25-70-19-10-11-38(62)51-32(21-28-12-14-29(58)15-13-28)44(67)56-40(27(5)7-2)45(68)53-30(16-17-35(47)59)42(65)54-33(22-36(48)60)43(66)55-34/h12-15,26-27,30-34,40,58H,6-11,16-25H2,1-5H3,(H2,47,59)(H2,48,60)(H2,49,61)(H,50,64)(H,51,62)(H,52,63)(H,53,68)(H,54,65)(H,55,66)(H,56,67)/t27-,30-,31-,32-,33-,34-,40-/m0/s1

>  <IUPAC Name>  (1) 
(3R,6S,9S,12S,15S)-6-(2-amino-2-oxoethyl)-N-[2-[[(2S)-1-[(2-amino-2-oxoethyl)amino]-4-methyl-1-oxopentan-2-yl]amino]-2-oxoethyl]-9-(3-amino-3-oxopropyl)-12-[(2S)-butan-2-yl]-15-[(4-hydroxyphenyl)methyl]-5,8,11,14,17-pentaoxo-N-pentyl-1-thia-4,7,10,13,16-pentazacycloicosane-3-carboxamide

$$$$
