
     RDKit          3D

 45 48  0  0  0  0  0  0  0  0999 V2000
   -3.0709   -2.0834    2.4964 C   0  0  0  0  0  0  0  0  0  0  0  0
   -2.0821   -2.6319    1.5166 C   0  0  0  0  0  0  0  0  0  0  0  0
   -1.4237   -1.5916    0.7464 N   0  0  0  0  0  0  0  0  0  0  0  0
   -1.8539   -1.0454   -0.4942 C   0  0  0  0  0  0  0  0  0  0  0  0
   -2.9794   -1.3672   -1.2245 C   0  0  0  0  0  0  0  0  0  0  0  0
   -3.2746   -0.7383   -2.4148 C   0  0  0  0  0  0  0  0  0  0  0  0
   -2.3735    0.2403   -2.8386 C   0  0  0  0  0  0  0  0  0  0  0  0
   -1.2517    0.5560   -2.1026 C   0  0  0  0  0  0  0  0  0  0  0  0
   -0.9507   -0.0812   -0.8961 C   0  0  0  0  0  0  0  0  0  0  0  0
    0.1568    0.0713    0.0453 C   0  0  0  0  0  0  0  0  0  0  0  0
   -0.2182   -0.9190    1.0891 C   0  0  0  0  0  0  0  0  0  0  0  0
    0.4118   -1.1628    2.1453 O   0  0  0  0  0  0  0  0  0  0  0  0
    1.4676   -0.4418   -0.4990 C   0  0  0  0  0  0  0  0  0  0  0  0
    2.5488   -0.6666    0.3328 C   0  0  0  0  0  0  0  0  0  0  0  0
    3.7634   -1.1446   -0.1299 C   0  0  0  0  0  0  0  0  0  0  0  0
    3.9168   -1.4119   -1.4747 C   0  0  0  0  0  0  0  0  0  0  0  0
    2.8534   -1.1953   -2.3268 C   0  0  0  0  0  0  0  0  0  0  0  0
    1.6455   -0.7155   -1.8339 C   0  0  0  0  0  0  0  0  0  0  0  0
    5.1482   -1.8917   -1.9153 O   0  0  0  0  0  0  0  0  0  0  0  0
    0.3422    1.4288    0.5943 C   0  0  0  0  0  0  0  0  0  0  0  0
    0.9104    2.4100   -0.1903 C   0  0  0  0  0  0  0  0  0  0  0  0
    1.0999    3.6927    0.2826 C   0  0  0  0  0  0  0  0  0  0  0  0
    0.7054    3.9830    1.5738 C   0  0  0  0  0  0  0  0  0  0  0  0
    0.1290    3.0039    2.3822 C   0  0  0  0  0  0  0  0  0  0  0  0
   -0.0545    1.7341    1.9028 C   0  0  0  0  0  0  0  0  0  0  0  0
    0.9029    5.2904    2.0444 O   0  0  0  0  0  0  0  0  0  0  0  0
   -2.6873   -2.2389    3.5350 H   0  0  0  0  0  0  0  0  0  0  0  0
   -4.0482   -2.6061    2.4416 H   0  0  0  0  0  0  0  0  0  0  0  0
   -3.2312   -1.0027    2.3072 H   0  0  0  0  0  0  0  0  0  0  0  0
   -2.5600   -3.3139    0.7833 H   0  0  0  0  0  0  0  0  0  0  0  0
   -1.3237   -3.2825    2.0417 H   0  0  0  0  0  0  0  0  0  0  0  0
   -3.6750   -2.1308   -0.8848 H   0  0  0  0  0  0  0  0  0  0  0  0
   -4.1357   -0.9753   -2.9856 H   0  0  0  0  0  0  0  0  0  0  0  0
   -2.6191    0.7266   -3.7775 H   0  0  0  0  0  0  0  0  0  0  0  0
   -0.6114    1.3304   -2.5135 H   0  0  0  0  0  0  0  0  0  0  0  0
    2.4932   -0.4715    1.3956 H   0  0  0  0  0  0  0  0  0  0  0  0
    4.6075   -1.3136    0.5528 H   0  0  0  0  0  0  0  0  0  0  0  0
    2.9848   -1.4103   -3.3901 H   0  0  0  0  0  0  0  0  0  0  0  0
    0.8652   -0.5721   -2.5469 H   0  0  0  0  0  0  0  0  0  0  0  0
    5.2231   -2.8638   -2.1969 H   0  0  0  0  0  0  0  0  0  0  0  0
    1.2131    2.1617   -1.2001 H   0  0  0  0  0  0  0  0  0  0  0  0
    1.5526    4.4436   -0.3675 H   0  0  0  0  0  0  0  0  0  0  0  0
   -0.1682    3.2829    3.4002 H   0  0  0  0  0  0  0  0  0  0  0  0
   -0.5083    0.9438    2.5241 H   0  0  0  0  0  0  0  0  0  0  0  0
    0.1598    5.9702    2.0699 H   0  0  0  0  0  0  0  0  0  0  0  0
  1  2  1  0
  2  3  1  0
  3  4  1  0
  4  5  2  0
  5  6  1  0
  6  7  2  0
  7  8  1  0
  8  9  2  0
  9 10  1  0
 10 11  1  0
 11 12  2  0
 10 13  1  0
 13 14  2  0
 14 15  1  0
 15 16  2  0
 16 17  1  0
 17 18  2  0
 16 19  1  0
 10 20  1  0
 20 21  2  0
 21 22  1  0
 22 23  2  0
 23 24  1  0
 24 25  2  0
 23 26  1  0
 11  3  1  0
 18 13  1  0
 25 20  1  0
  9  4  1  0
  1 27  1  0
  1 28  1  0
  1 29  1  0
  2 30  1  0
  2 31  1  0
  5 32  1  0
  6 33  1  0
  7 34  1  0
  8 35  1  0
 14 36  1  0
 15 37  1  0
 17 38  1  0
 18 39  1  0
 19 40  1  0
 21 41  1  0
 22 42  1  0
 24 43  1  0
 25 44  1  0
 26 45  1  0
M  END
>  <Ligand ID>  (1) 
LIG0004400

>  <Ligand>  (1) 
MLS000676723

>  <SMILES>  (1) 
CCN1c2ccccc2C(C1=O)(c1ccc(cc1)O)c1ccc(cc1)O

>  <CID>  (1) 
2895148.0

>  <ChEMBL ID>  (1) 
nan

>  <InChiKey>  (1) 
TZPXYCYKOYZUNZ-UHFFFAOYSA-N

>  <InChi>  (1) 
InChI=1S/C22H19NO3/c1-2-23-20-6-4-3-5-19(20)22(21(23)26,15-7-11-17(24)12-8-15)16-9-13-18(25)14-10-16/h3-14,24-25H,2H2,1H3

>  <IUPAC Name>  (1) 
1-ethyl-3,3-bis(4-hydroxyphenyl)indol-2-one

$$$$
