
     RDKit          3D

 70 74  0  0  0  0  0  0  0  0999 V2000
   -7.9019   -2.5510    1.2864 C   0  0  0  0  0  0  0  0  0  0  0  0
   -7.7467   -1.4413    0.4217 O   0  0  0  0  0  0  0  0  0  0  0  0
   -6.4649   -0.9436    0.2339 C   0  0  0  0  0  0  0  0  0  0  0  0
   -5.3661   -1.4941    0.8569 C   0  0  0  0  0  0  0  0  0  0  0  0
   -4.1059   -0.9636    0.6396 C   0  0  0  0  0  0  0  0  0  0  0  0
   -3.8710    0.1128   -0.1845 C   0  0  0  0  0  0  0  0  0  0  0  0
   -5.0054    0.6520   -0.8047 C   0  0  0  0  0  0  0  0  0  0  0  0
   -6.2663    0.1362   -0.5995 C   0  0  0  0  0  0  0  0  0  0  0  0
   -7.4465    0.7070   -1.2531 C   0  0  0  0  0  0  0  0  0  0  0  0
   -8.4129   -0.0530   -1.8559 C   0  0  0  0  0  0  0  0  0  0  0  0
   -9.5053    0.5798   -2.4544 C   0  0  0  0  0  0  0  0  0  0  0  0
   -9.6040    1.9630   -2.4344 C   0  0  0  0  0  0  0  0  0  0  0  0
   -8.6274    2.7433   -1.8245 C   0  0  0  0  0  0  0  0  0  0  0  0
   -7.5504    2.0903   -1.2362 C   0  0  0  0  0  0  0  0  0  0  0  0
   -2.6332    0.7016   -0.4295 N   0  0  0  0  0  0  0  0  0  0  0  0
   -1.4946    0.6931    0.4073 C   0  0  0  0  0  0  0  0  0  0  0  0
   -1.5305    0.5139    1.7723 C   0  0  0  0  0  0  0  0  0  0  0  0
   -0.3880    0.4976    2.5595 C   0  0  0  0  0  0  0  0  0  0  0  0
    0.8597    0.6642    1.9974 C   0  0  0  0  0  0  0  0  0  0  0  0
    0.9205    0.8452    0.6365 C   0  0  0  0  0  0  0  0  0  0  0  0
   -0.2169    0.8606   -0.1432 C   0  0  0  0  0  0  0  0  0  0  0  0
    2.0348    0.6431    2.8954 C   0  0  0  0  0  0  0  0  0  0  0  0
    2.6178   -0.7180    3.1107 C   0  0  0  0  0  0  0  0  0  0  0  0
    3.0576   -1.2670    1.8694 N   0  0  0  0  0  0  0  0  0  0  0  0
    4.2035   -0.6103    1.2834 C   0  0  0  0  0  0  0  0  0  0  0  0
    4.6198   -1.2611   -0.0180 C   0  0  1  0  0  0  0  0  0  0  0  0
    5.5418   -0.4305   -0.8231 C   0  0  0  0  0  0  0  0  0  0  0  0
    5.0583    0.3881   -1.8533 C   0  0  0  0  0  0  0  0  0  0  0  0
    5.8961    1.1639   -2.6234 C   0  0  0  0  0  0  0  0  0  0  0  0
    7.2536    1.1745   -2.4199 C   0  0  0  0  0  0  0  0  0  0  0  0
    7.7564    0.3776   -1.4116 C   0  0  0  0  0  0  0  0  0  0  0  0
    6.9081   -0.3986   -0.6425 C   0  0  0  0  0  0  0  0  0  0  0  0
    7.4931   -1.1601    0.3436 C   0  0  0  0  0  0  0  0  0  0  0  0
    8.8544   -1.1263    0.5259 C   0  0  0  0  0  0  0  0  0  0  0  0
    9.6819   -0.3385   -0.2606 C   0  0  0  0  0  0  0  0  0  0  0  0
   10.9417   -0.3087   -0.0905 O   0  0  0  0  0  0  0  0  0  0  0  0
    9.0942    0.3998   -1.2198 N   0  0  0  0  0  0  0  0  0  0  0  0
    8.0300    1.9736   -3.2275 O   0  0  0  0  0  0  0  0  0  0  0  0
    4.9761   -2.5847    0.1043 O   0  0  0  0  0  0  0  0  0  0  0  0
   -7.4030   -2.2925    2.2486 H   0  0  0  0  0  0  0  0  0  0  0  0
   -7.4911   -3.4846    0.8373 H   0  0  0  0  0  0  0  0  0  0  0  0
   -8.9869   -2.6934    1.4978 H   0  0  0  0  0  0  0  0  0  0  0  0
   -5.4984   -2.3328    1.5076 H   0  0  0  0  0  0  0  0  0  0  0  0
   -3.2914   -1.4538    1.1496 H   0  0  0  0  0  0  0  0  0  0  0  0
   -4.9158    1.5044   -1.4740 H   0  0  0  0  0  0  0  0  0  0  0  0
   -8.3135   -1.1276   -1.8580 H   0  0  0  0  0  0  0  0  0  0  0  0
  -10.2682   -0.0101   -2.9304 H   0  0  0  0  0  0  0  0  0  0  0  0
  -10.4508    2.4828   -2.8965 H   0  0  0  0  0  0  0  0  0  0  0  0
   -8.6909    3.8272   -1.8004 H   0  0  0  0  0  0  0  0  0  0  0  0
   -6.7813    2.7036   -0.7561 H   0  0  0  0  0  0  0  0  0  0  0  0
   -2.5147    1.2228   -1.3523 H   0  0  0  0  0  0  0  0  0  0  0  0
   -2.4635    0.3894    2.2942 H   0  0  0  0  0  0  0  0  0  0  0  0
   -0.4678    0.3522    3.6359 H   0  0  0  0  0  0  0  0  0  0  0  0
    1.8752    0.9797    0.1574 H   0  0  0  0  0  0  0  0  0  0  0  0
   -0.1609    1.0053   -1.2242 H   0  0  0  0  0  0  0  0  0  0  0  0
    1.7750    1.0302    3.9192 H   0  0  0  0  0  0  0  0  0  0  0  0
    2.8277    1.3653    2.5501 H   0  0  0  0  0  0  0  0  0  0  0  0
    3.3904   -0.7344    3.9019 H   0  0  0  0  0  0  0  0  0  0  0  0
    1.7684   -1.3567    3.4901 H   0  0  0  0  0  0  0  0  0  0  0  0
    2.3116   -1.5224    1.2169 H   0  0  0  0  0  0  0  0  0  0  0  0
    5.0328   -0.7669    2.0282 H   0  0  0  0  0  0  0  0  0  0  0  0
    3.9721    0.4551    1.1520 H   0  0  0  0  0  0  0  0  0  0  0  0
    3.6482   -1.2914   -0.6200 H   0  0  0  0  0  0  0  0  0  0  0  0
    3.9737    0.3954   -2.0344 H   0  0  0  0  0  0  0  0  0  0  0  0
    5.4032    1.7635   -3.4006 H   0  0  0  0  0  0  0  0  0  0  0  0
    6.8999   -1.7894    0.9869 H   0  0  0  0  0  0  0  0  0  0  0  0
    9.3345   -1.7285    1.3089 H   0  0  0  0  0  0  0  0  0  0  0  0
    9.7282    1.0024   -1.8213 H   0  0  0  0  0  0  0  0  0  0  0  0
    8.5515    2.7823   -2.8726 H   0  0  0  0  0  0  0  0  0  0  0  0
    5.5446   -2.9076   -0.6373 H   0  0  0  0  0  0  0  0  0  0  0  0
  1  2  1  0
  2  3  1  0
  3  4  2  0
  4  5  1  0
  5  6  2  0
  6  7  1  0
  7  8  2  0
  8  9  1  0
  9 10  2  0
 10 11  1  0
 11 12  2  0
 12 13  1  0
 13 14  2  0
  6 15  1  0
 15 16  1  0
 16 17  2  0
 17 18  1  0
 18 19  2  0
 19 20  1  0
 20 21  2  0
 19 22  1  0
 22 23  1  0
 23 24  1  0
 24 25  1  0
 25 26  1  0
 26 27  1  0
 27 28  2  0
 28 29  1  0
 29 30  2  0
 30 31  1  0
 31 32  2  0
 32 33  1  0
 33 34  2  0
 34 35  1  0
 35 36  2  0
 35 37  1  0
 30 38  1  0
 26 39  1  0
  8  3  1  0
 14  9  1  0
 21 16  1  0
 32 27  1  0
 37 31  1  0
  1 40  1  0
  1 41  1  0
  1 42  1  0
  4 43  1  0
  5 44  1  0
  7 45  1  0
 10 46  1  0
 11 47  1  0
 12 48  1  0
 13 49  1  0
 14 50  1  0
 15 51  1  0
 17 52  1  0
 18 53  1  0
 20 54  1  0
 21 55  1  0
 22 56  1  0
 22 57  1  0
 23 58  1  0
 23 59  1  0
 24 60  1  0
 25 61  1  0
 25 62  1  0
 26 63  1  6
 28 64  1  0
 29 65  1  0
 33 66  1  0
 34 67  1  0
 37 68  1  0
 38 69  1  0
 39 70  1  0
M  END
>  <Ligand ID>  (1) 
LIG0001993

>  <Ligand>  (1) 
CHEMBL3290999

>  <SMILES>  (1) 
COc1ccc(cc1c1ccccc1)Nc1ccc(cc1)CCNC[C@@H](c1ccc(c2c1ccc(=O)[nH]2)O)O

>  <CID>  (1) 
9871386.0

>  <ChEMBL ID>  (1) 
nan

>  <InChiKey>  (1) 
LGFPFBZHAODPHC-LJAQVGFWSA-N

>  <InChi>  (1) 
InChI=1S/C32H31N3O4/c1-39-30-15-11-24(19-27(30)22-5-3-2-4-6-22)34-23-9-7-21(8-10-23)17-18-33-20-29(37)25-12-14-28(36)32-26(25)13-16-31(38)35-32/h2-16,19,29,33-34,36-37H,17-18,20H2,1H3,(H,35,38)/t29-/m0/s1

>  <IUPAC Name>  (1) 
8-hydroxy-5-[(1R)-1-hydroxy-2-[2-[4-(4-methoxy-3-phenylanilino)phenyl]ethylamino]ethyl]-1H-quinolin-2-one

$$$$
