
     RDKit          3D

 54 58  0  0  0  0  0  0  0  0999 V2000
   -3.0521    5.7880   -0.2006 Cl  0  0  0  0  0  0  0  0  0  0  0  0
   -2.8741    4.0467   -0.1958 C   0  0  0  0  0  0  0  0  0  0  0  0
   -2.9095    3.3540    0.9788 C   0  0  0  0  0  0  0  0  0  0  0  0
   -2.7703    1.9713    1.0061 C   0  0  0  0  0  0  0  0  0  0  0  0
   -2.5889    1.2328   -0.1658 C   0  0  0  0  0  0  0  0  0  0  0  0
   -2.5608    1.9924   -1.3322 C   0  0  0  0  0  0  0  0  0  0  0  0
   -2.6976    3.3521   -1.3581 C   0  0  0  0  0  0  0  0  0  0  0  0
   -2.4516   -0.2418   -0.1617 C   0  0  0  0  0  0  0  0  0  0  0  0
   -1.3037   -0.7500    0.6245 C   0  0  0  0  0  0  0  0  0  0  0  0
   -1.3931   -1.2249    1.9121 C   0  0  0  0  0  0  0  0  0  0  0  0
   -0.3005   -1.6908    2.6283 C   0  0  0  0  0  0  0  0  0  0  0  0
    0.9217   -1.6725    2.0134 C   0  0  0  0  0  0  0  0  0  0  0  0
    1.0804   -1.2107    0.7275 C   0  0  0  0  0  0  0  0  0  0  0  0
   -0.0173   -0.7635    0.0631 C   0  0  0  0  0  0  0  0  0  0  0  0
    2.3484   -1.2078    0.1319 C   0  0  0  0  0  0  0  0  0  0  0  0
    3.3443   -1.6739    0.8935 N   0  0  0  0  0  0  0  0  0  0  0  0
    3.2191   -2.1261    2.1385 C   0  0  0  0  0  0  0  0  0  0  0  0
    1.9828   -2.1271    2.7146 N   0  0  0  0  0  0  0  0  0  0  0  0
    2.5575   -0.7508   -1.1756 N   0  0  0  0  0  0  0  0  0  0  0  0
    3.8464   -0.7193   -1.8500 C   0  0  0  0  0  0  0  0  0  0  0  0
    4.8336    0.1541   -1.1839 C   0  0  0  0  0  0  0  0  0  0  0  0
    5.7780   -0.2481   -0.2950 C   0  0  0  0  0  0  0  0  0  0  0  0
    6.6593    0.6555    0.2953 C   0  0  0  0  0  0  0  0  0  0  0  0
    6.5930    2.0038   -0.0151 C   0  0  0  0  0  0  0  0  0  0  0  0
    5.6346    2.4143   -0.9185 C   0  0  0  0  0  0  0  0  0  0  0  0
    4.7762    1.5065   -1.4877 C   0  0  0  0  0  0  0  0  0  0  0  0
    5.5454    3.7177   -1.2404 F   0  0  0  0  0  0  0  0  0  0  0  0
   -3.7021   -0.9974   -0.0195 C   0  0  0  0  0  0  0  0  0  0  0  0
   -4.1215   -1.8976   -1.0128 C   0  0  0  0  0  0  0  0  0  0  0  0
   -5.2889   -2.6128   -0.9255 C   0  0  0  0  0  0  0  0  0  0  0  0
   -6.1177   -2.4863    0.1467 C   0  0  0  0  0  0  0  0  0  0  0  0
   -5.7481   -1.6152    1.1455 C   0  0  0  0  0  0  0  0  0  0  0  0
   -4.5637   -0.8884    1.0582 C   0  0  0  0  0  0  0  0  0  0  0  0
   -7.5821   -3.4079    0.2180 Cl  0  0  0  0  0  0  0  0  0  0  0  0
   -3.0487    3.9004    1.8973 H   0  0  0  0  0  0  0  0  0  0  0  0
   -2.7996    1.5067    1.9579 H   0  0  0  0  0  0  0  0  0  0  0  0
   -2.4231    1.4937   -2.2883 H   0  0  0  0  0  0  0  0  0  0  0  0
   -2.6715    3.9138   -2.2798 H   0  0  0  0  0  0  0  0  0  0  0  0
   -2.1433   -0.4540   -1.2591 H   0  0  0  0  0  0  0  0  0  0  0  0
   -2.3382   -1.2562    2.4254 H   0  0  0  0  0  0  0  0  0  0  0  0
   -0.4071   -2.0578    3.6411 H   0  0  0  0  0  0  0  0  0  0  0  0
    0.0297   -0.3866   -0.9474 H   0  0  0  0  0  0  0  0  0  0  0  0
    4.0941   -2.4823    2.6678 H   0  0  0  0  0  0  0  0  0  0  0  0
    1.7598   -0.3944   -1.7550 H   0  0  0  0  0  0  0  0  0  0  0  0
    4.3045   -1.7470   -1.8600 H   0  0  0  0  0  0  0  0  0  0  0  0
    3.7854   -0.4193   -2.8966 H   0  0  0  0  0  0  0  0  0  0  0  0
    5.8824   -1.2701   -0.0285 H   0  0  0  0  0  0  0  0  0  0  0  0
    7.4107    0.3021    1.0093 H   0  0  0  0  0  0  0  0  0  0  0  0
    7.2894    2.6915    0.4562 H   0  0  0  0  0  0  0  0  0  0  0  0
    4.0327    1.8901   -2.2008 H   0  0  0  0  0  0  0  0  0  0  0  0
   -3.5055   -2.0544   -1.9097 H   0  0  0  0  0  0  0  0  0  0  0  0
   -5.5518   -3.2984   -1.7413 H   0  0  0  0  0  0  0  0  0  0  0  0
   -6.4146   -1.5236    1.9915 H   0  0  0  0  0  0  0  0  0  0  0  0
   -4.3620   -0.2299    1.8752 H   0  0  0  0  0  0  0  0  0  0  0  0
  1  2  1  0
  2  3  2  0
  3  4  1  0
  4  5  2  0
  5  6  1  0
  6  7  2  0
  5  8  1  0
  8  9  1  0
  9 10  2  0
 10 11  1  0
 11 12  2  0
 12 13  1  0
 13 14  2  0
 13 15  1  0
 15 16  2  0
 16 17  1  0
 17 18  2  0
 15 19  1  0
 19 20  1  0
 20 21  1  0
 21 22  2  0
 22 23  1  0
 23 24  2  0
 24 25  1  0
 25 26  2  0
 25 27  1  0
  8 28  1  0
 28 29  2  0
 29 30  1  0
 30 31  2  0
 31 32  1  0
 32 33  2  0
 31 34  1  0
  7  2  1  0
 14  9  1  0
 26 21  1  0
 33 28  1  0
 18 12  1  0
  3 35  1  0
  4 36  1  0
  6 37  1  0
  7 38  1  0
  8 39  1  0
 10 40  1  0
 11 41  1  0
 14 42  1  0
 17 43  1  0
 19 44  1  0
 20 45  1  0
 20 46  1  0
 22 47  1  0
 23 48  1  0
 24 49  1  0
 26 50  1  0
 29 51  1  0
 30 52  1  0
 32 53  1  0
 33 54  1  0
M  END
>  <Ligand ID>  (1) 
LIG0005860

>  <Ligand>  (1) 
SCHEMBL17557591

>  <SMILES>  (1) 
Clc1ccc(cc1)C(c1ccc2c(c1)c(ncn2)NCc1cccc(c1)F)c1ccc(cc1)Cl

>  <CID>  (1) 
118916077.0

>  <ChEMBL ID>  (1) 
nan

>  <InChiKey>  (1) 
SDVMBMPIABHSSR-UHFFFAOYSA-N

>  <InChi>  (1) 
InChI=1S/C28H20Cl2FN3/c29-22-9-4-19(5-10-22)27(20-6-11-23(30)12-7-20)21-8-13-26-25(15-21)28(34-17-33-26)32-16-18-2-1-3-24(31)14-18/h1-15,17,27H,16H2,(H,32,33,34)

>  <IUPAC Name>  (1) 
6-[bis(4-chlorophenyl)methyl]-N-[(3-fluorophenyl)methyl]quinazolin-4-amine

$$$$
