
     RDKit          3D

 81 81  0  0  0  0  0  0  0  0999 V2000
    9.2602   -0.4762   -2.1261 C   0  0  0  0  0  0  0  0  0  0  0  0
   10.4759   -0.2168   -1.3010 C   0  0  0  0  0  0  0  0  0  0  0  0
   10.6227    1.0933   -0.6738 C   0  0  0  0  0  0  0  0  0  0  0  0
    9.7540    1.6542    0.3422 C   0  0  0  0  0  0  0  0  0  0  0  0
    8.3478    1.9954    0.2278 C   0  0  0  0  0  0  0  0  0  0  0  0
    7.2735    1.0444   -0.0569 C   0  0  0  0  0  0  0  0  0  0  0  0
    7.1370   -0.1158    0.9045 C   0  0  0  0  0  0  0  0  0  0  0  0
    5.9829   -0.9581    0.4068 C   0  0  0  0  0  0  0  0  0  0  0  0
    4.6794   -0.2387    0.3479 C   0  0  0  0  0  0  0  0  0  0  0  0
    4.2846    0.2380    1.7382 C   0  0  0  0  0  0  0  0  0  0  0  0
    2.9708    0.9720    1.5866 C   0  0  0  0  0  0  0  0  0  0  0  0
    1.9953    0.1916    1.0675 O   0  0  0  0  0  0  0  0  0  0  0  0
    1.3174   -0.9273    1.3787 C   0  0  0  0  0  0  0  0  0  0  0  0
    1.4432   -1.7065    2.5029 C   0  0  0  0  0  0  0  0  0  0  0  0
    0.6817   -2.8556    2.7183 C   0  0  0  0  0  0  0  0  0  0  0  0
   -0.2394   -3.2292    1.7629 C   0  0  0  0  0  0  0  0  0  0  0  0
   -0.4008   -2.4796    0.6204 C   0  0  0  0  0  0  0  0  0  0  0  0
    0.3593   -1.3705    0.4494 C   0  0  0  0  0  0  0  0  0  0  0  0
   -1.3629   -2.8839   -0.4239 C   0  0  0  0  0  0  0  0  0  0  0  0
   -2.7588   -2.4370   -0.2052 C   0  0  0  0  0  0  0  0  0  0  0  0
   -2.8945   -0.9862   -0.0994 C   0  0  0  0  0  0  0  0  0  0  0  0
   -2.1390   -0.2737    0.6534 O   0  0  0  0  0  0  0  0  0  0  0  0
   -3.8463   -0.2892   -0.8082 O   0  0  0  0  0  0  0  0  0  0  0  0
   -4.0494    1.0997   -0.7686 C   0  0  0  0  0  0  0  0  0  0  0  0
   -5.1617    1.4569   -1.7260 C   0  0  0  0  0  0  0  0  0  0  0  0
   -6.4181    0.7358   -1.3161 C   0  0  0  0  0  0  0  0  0  0  0  0
   -6.7623    1.1198   -0.0398 O   0  0  0  0  0  0  0  0  0  0  0  0
   -8.2033    0.3998    0.4762 P   0  0  0  0  0  0  0  0  0  0  0  0
   -8.2065    0.2367    1.9867 O   0  0  0  0  0  0  0  0  0  0  0  0
   -9.4713    1.4587    0.1043 O   0  0  0  0  0  0  0  0  0  0  0  0
  -10.4381    0.8574   -0.7067 C   0  0  0  0  0  0  0  0  0  0  0  0
  -11.6222    1.7933   -0.8656 C   0  0  1  0  0  0  0  0  0  0  0  0
  -12.6353    1.0798   -1.7160 C   0  0  0  0  0  0  0  0  0  0  0  0
  -13.7889    0.8138   -1.2569 O   0  0  0  0  0  0  0  0  0  0  0  0
  -12.2729    0.7220   -3.0128 O   0  0  0  0  0  0  0  0  0  0  0  0
  -12.1963    2.0828    0.4302 N   0  0  0  0  0  0  0  0  0  0  0  0
   -8.5073   -1.0706   -0.2645 O   0  0  0  0  0  0  0  0  0  0  0  0
    9.5030   -1.0721   -3.0506 H   0  0  0  0  0  0  0  0  0  0  0  0
    8.4907   -1.0673   -1.5778 H   0  0  0  0  0  0  0  0  0  0  0  0
    8.8951    0.4944   -2.4913 H   0  0  0  0  0  0  0  0  0  0  0  0
   10.6846   -1.0789   -0.5990 H   0  0  0  0  0  0  0  0  0  0  0  0
   11.3523   -0.3221   -2.0325 H   0  0  0  0  0  0  0  0  0  0  0  0
   10.6846    1.8626   -1.5258 H   0  0  0  0  0  0  0  0  0  0  0  0
   11.6925    1.1647   -0.2534 H   0  0  0  0  0  0  0  0  0  0  0  0
    9.9467    1.1044    1.3713 H   0  0  0  0  0  0  0  0  0  0  0  0
   10.2723    2.6556    0.6471 H   0  0  0  0  0  0  0  0  0  0  0  0
    8.2740    2.8696   -0.5062 H   0  0  0  0  0  0  0  0  0  0  0  0
    8.0388    2.5497    1.1987 H   0  0  0  0  0  0  0  0  0  0  0  0
    7.0579    0.7182   -1.0618 H   0  0  0  0  0  0  0  0  0  0  0  0
    6.2854    1.6441    0.1844 H   0  0  0  0  0  0  0  0  0  0  0  0
    8.0538   -0.7538    0.7660 H   0  0  0  0  0  0  0  0  0  0  0  0
    6.9781    0.1837    1.9384 H   0  0  0  0  0  0  0  0  0  0  0  0
    6.2321   -1.4651   -0.5435 H   0  0  0  0  0  0  0  0  0  0  0  0
    5.8589   -1.7624    1.1928 H   0  0  0  0  0  0  0  0  0  0  0  0
    4.6747    0.5752   -0.3745 H   0  0  0  0  0  0  0  0  0  0  0  0
    3.9087   -0.9958    0.0759 H   0  0  0  0  0  0  0  0  0  0  0  0
    4.1278   -0.6371    2.3787 H   0  0  0  0  0  0  0  0  0  0  0  0
    5.0822    0.9000    2.1399 H   0  0  0  0  0  0  0  0  0  0  0  0
    2.7082    1.4879    2.5488 H   0  0  0  0  0  0  0  0  0  0  0  0
    3.1978    1.7907    0.8327 H   0  0  0  0  0  0  0  0  0  0  0  0
    2.1331   -1.4481    3.2643 H   0  0  0  0  0  0  0  0  0  0  0  0
    0.7985   -3.4531    3.6106 H   0  0  0  0  0  0  0  0  0  0  0  0
   -0.8358   -4.1124    1.9133 H   0  0  0  0  0  0  0  0  0  0  0  0
    0.2377   -0.7817   -0.4737 H   0  0  0  0  0  0  0  0  0  0  0  0
   -1.2835   -3.9900   -0.5659 H   0  0  0  0  0  0  0  0  0  0  0  0
   -1.0223   -2.4194   -1.3922 H   0  0  0  0  0  0  0  0  0  0  0  0
   -3.2648   -2.9822    0.6313 H   0  0  0  0  0  0  0  0  0  0  0  0
   -3.3443   -2.7748   -1.1151 H   0  0  0  0  0  0  0  0  0  0  0  0
   -3.0949    1.5624   -1.1523 H   0  0  0  0  0  0  0  0  0  0  0  0
   -4.3021    1.4951    0.2364 H   0  0  0  0  0  0  0  0  0  0  0  0
   -4.8571    1.1203   -2.7584 H   0  0  0  0  0  0  0  0  0  0  0  0
   -5.2912    2.5636   -1.7124 H   0  0  0  0  0  0  0  0  0  0  0  0
   -7.2271    0.9919   -2.0536 H   0  0  0  0  0  0  0  0  0  0  0  0
   -6.2069   -0.3563   -1.4018 H   0  0  0  0  0  0  0  0  0  0  0  0
  -10.7454   -0.0747   -0.2284 H   0  0  0  0  0  0  0  0  0  0  0  0
   -9.9894    0.7119   -1.7252 H   0  0  0  0  0  0  0  0  0  0  0  0
  -11.3422    2.7336   -1.3571 H   0  0  0  0  0  0  0  0  0  0  0  0
  -12.9233    0.0539   -3.4523 H   0  0  0  0  0  0  0  0  0  0  0  0
  -11.7079    1.5166    1.1431 H   0  0  0  0  0  0  0  0  0  0  0  0
  -13.2176    1.8633    0.4041 H   0  0  0  0  0  0  0  0  0  0  0  0
   -7.7242   -1.5966   -0.4936 H   0  0  0  0  0  0  0  0  0  0  0  0
  1  2  1  0
  2  3  1  0
  3  4  1  0
  4  5  1  0
  5  6  1  0
  6  7  1  0
  7  8  1  0
  8  9  1  0
  9 10  1  0
 10 11  1  0
 11 12  1  0
 12 13  1  0
 13 14  2  0
 14 15  1  0
 15 16  2  0
 16 17  1  0
 17 18  2  0
 17 19  1  0
 19 20  1  0
 20 21  1  0
 21 22  2  0
 21 23  1  0
 23 24  1  0
 24 25  1  0
 25 26  1  0
 26 27  1  0
 27 28  1  0
 28 29  2  0
 28 30  1  0
 30 31  1  0
 31 32  1  0
 32 33  1  0
 33 34  2  0
 33 35  1  0
 32 36  1  0
 28 37  1  0
 18 13  1  0
  1 38  1  0
  1 39  1  0
  1 40  1  0
  2 41  1  0
  2 42  1  0
  3 43  1  0
  3 44  1  0
  4 45  1  0
  4 46  1  0
  5 47  1  0
  5 48  1  0
  6 49  1  0
  6 50  1  0
  7 51  1  0
  7 52  1  0
  8 53  1  0
  8 54  1  0
  9 55  1  0
  9 56  1  0
 10 57  1  0
 10 58  1  0
 11 59  1  0
 11 60  1  0
 14 61  1  0
 15 62  1  0
 16 63  1  0
 18 64  1  0
 19 65  1  0
 19 66  1  0
 20 67  1  0
 20 68  1  0
 24 69  1  0
 24 70  1  0
 25 71  1  0
 25 72  1  0
 26 73  1  0
 26 74  1  0
 31 75  1  0
 31 76  1  0
 32 77  1  6
 35 78  1  0
 36 79  1  0
 36 80  1  0
 37 81  1  0
M  END
>  <Ligand ID>  (1) 
LIG0004281

>  <Ligand>  (1) 
CHEMBL3577180

>  <SMILES>  (1) 
CCCCCCCCCCCOc1cccc(c1)CCC(=O)OCCCOP(=O)(OC[C@@H](C(=O)O)N)O

>  <CID>  (1) 
122177526.0

>  <ChEMBL ID>  (1) 
nan

>  <InChiKey>  (1) 
FDJQCIZKQRKPLN-DEOSSOPVSA-N

>  <InChi>  (1) 
InChI=1S/C26H44NO9P/c1-2-3-4-5-6-7-8-9-10-17-33-23-14-11-13-22(20-23)15-16-25(28)34-18-12-19-35-37(31,32)36-21-24(27)26(29)30/h11,13-14,20,24H,2-10,12,15-19,21,27H2,1H3,(H,29,30)(H,31,32)/t24-/m0/s1

>  <IUPAC Name>  (1) 
(2S)-2-amino-3-[hydroxy-[3-[3-(3-undecoxyphenyl)propanoyloxy]propoxy]phosphoryl]oxypropanoic acid

$$$$
