
     RDKit          3D

 32 34  0  0  0  0  0  0  0  0999 V2000
    4.7148    0.2958   -0.5736 C   0  0  0  0  0  0  0  0  0  0  0  0
    3.3385    0.3242   -0.0216 C   0  0  0  0  0  0  0  0  0  0  0  0
    3.1069    0.8929    1.2246 C   0  0  0  0  0  0  0  0  0  0  0  0
    1.8394    0.9366    1.7690 C   0  0  0  0  0  0  0  0  0  0  0  0
    0.7917    0.4125    1.0727 C   0  0  0  0  0  0  0  0  0  0  0  0
    0.9833   -0.1601   -0.1673 C   0  0  0  0  0  0  0  0  0  0  0  0
    2.2563   -0.2055   -0.7170 C   0  0  0  0  0  0  0  0  0  0  0  0
   -0.1126   -0.7464   -0.9780 C   0  0  0  0  0  0  0  0  0  0  0  0
   -1.2753   -1.1598   -0.1221 C   0  0  1  0  0  0  0  0  0  0  0  0
   -1.5899   -0.1281    0.8306 N   0  0  0  0  0  0  0  0  0  0  0  0
   -0.5567    0.4384    1.6141 C   0  0  0  0  0  0  0  0  0  0  0  0
   -0.8291    0.9384    2.7345 O   0  0  0  0  0  0  0  0  0  0  0  0
   -2.9654    0.3091    0.9691 C   0  0  0  0  0  0  0  0  0  0  0  0
   -3.5880    0.6408   -0.3610 C   0  0  0  0  0  0  0  0  0  0  0  0
   -3.0429   -0.1396   -1.4512 N   0  0  0  0  0  0  0  0  0  0  0  0
   -2.4662   -1.3782   -1.0147 C   0  0  0  0  0  0  0  0  0  0  0  0
    4.9190   -0.6226   -1.1529 H   0  0  0  0  0  0  0  0  0  0  0  0
    4.8912    1.2132   -1.1375 H   0  0  0  0  0  0  0  0  0  0  0  0
    5.4153    0.2805    0.2871 H   0  0  0  0  0  0  0  0  0  0  0  0
    3.9273    1.3266    1.8173 H   0  0  0  0  0  0  0  0  0  0  0  0
    1.6761    1.3850    2.7447 H   0  0  0  0  0  0  0  0  0  0  0  0
    2.4202   -0.6477   -1.6802 H   0  0  0  0  0  0  0  0  0  0  0  0
   -0.4828    0.0277   -1.6932 H   0  0  0  0  0  0  0  0  0  0  0  0
    0.2484   -1.5746   -1.6258 H   0  0  0  0  0  0  0  0  0  0  0  0
   -1.0350   -2.1253    0.4094 H   0  0  0  0  0  0  0  0  0  0  0  0
   -3.0117    1.2159    1.6389 H   0  0  0  0  0  0  0  0  0  0  0  0
   -3.5829   -0.4598    1.4977 H   0  0  0  0  0  0  0  0  0  0  0  0
   -4.6898    0.4295   -0.3256 H   0  0  0  0  0  0  0  0  0  0  0  0
   -3.4709    1.7289   -0.5856 H   0  0  0  0  0  0  0  0  0  0  0  0
   -2.4406    0.4596   -2.0245 H   0  0  0  0  0  0  0  0  0  0  0  0
   -3.2499   -1.9673   -0.5042 H   0  0  0  0  0  0  0  0  0  0  0  0
   -2.1385   -1.9407   -1.9091 H   0  0  0  0  0  0  0  0  0  0  0  0
  1  2  1  0
  2  3  2  0
  3  4  1  0
  4  5  2  0
  5  6  1  0
  6  7  2  0
  6  8  1  0
  8  9  1  0
  9 10  1  0
 10 11  1  0
 11 12  2  0
 10 13  1  0
 13 14  1  0
 14 15  1  0
 15 16  1  0
  7  2  1  0
 16  9  1  0
 11  5  1  0
  1 17  1  0
  1 18  1  0
  1 19  1  0
  3 20  1  0
  4 21  1  0
  7 22  1  0
  8 23  1  0
  8 24  1  0
  9 25  1  1
 13 26  1  0
 13 27  1  0
 14 28  1  0
 14 29  1  0
 15 30  1  0
 16 31  1  0
 16 32  1  0
M  END
>  <Ligand ID>  (1) 
LIG0003892

>  <Ligand>  (1) 
CHEMBL2397880

>  <SMILES>  (1) 
Cc1ccc2c(c1)C[C@H]1N(C2=O)CCNC1

>  <CID>  (1) 
11324968.0

>  <ChEMBL ID>  (1) 
nan

>  <InChiKey>  (1) 
IKMJAJWWCYQNSA-LLVKDONJSA-N

>  <InChi>  (1) 
InChI=1S/C13H16N2O/c1-9-2-3-12-10(6-9)7-11-8-14-4-5-15(11)13(12)16/h2-3,6,11,14H,4-5,7-8H2,1H3/t11-/m1/s1

>  <IUPAC Name>  (1) 
(11aR)-9-methyl-1,2,3,4,11,11a-hexahydropyrazino[1,2-b]isoquinolin-6-one

$$$$
