
     RDKit          3D

 87 87  0  0  0  0  0  0  0  0999 V2000
   -0.9732   -0.0866    0.0267 C   0  0  0  0  0  0  0  0  0  0  0  0
    0.4639    0.2678   -0.1335 C   0  0  0  0  0  0  0  0  0  0  0  0
    0.7990    1.4995   -0.1878 O   0  0  0  0  0  0  0  0  0  0  0  0
    1.4743   -0.6506   -0.2290 O   0  0  0  0  0  0  0  0  0  0  0  0
   12.8021    1.2566   -1.3155 C   0  0  0  0  0  0  0  0  0  0  0  0
   12.8882   -0.2504   -1.2732 C   0  0  0  0  0  0  0  0  0  0  0  0
   11.5158   -0.7557   -1.4318 N   0  0  0  0  0  0  0  0  0  0  0  0
   10.5646   -0.3462   -0.4273 C   0  0  0  0  0  0  0  0  0  0  0  0
   10.9915    0.3876    0.4680 O   0  0  0  0  0  0  0  0  0  0  0  0
    9.2298   -0.7835   -0.5022 N   0  0  0  0  0  0  0  0  0  0  0  0
    8.1907   -0.4727    0.3976 C   0  0  0  0  0  0  0  0  0  0  0  0
    8.3157    0.3194    1.5126 C   0  0  0  0  0  0  0  0  0  0  0  0
    7.2432    0.5877    2.3682 C   0  0  0  0  0  0  0  0  0  0  0  0
    6.0004    0.0518    2.1102 C   0  0  0  0  0  0  0  0  0  0  0  0
    5.8851   -0.7411    0.9897 C   0  0  0  0  0  0  0  0  0  0  0  0
    6.9380   -1.0006    0.1554 C   0  0  0  0  0  0  0  0  0  0  0  0
    4.5573   -1.3254    0.7023 C   0  0  0  0  0  0  0  0  0  0  0  0
    3.7601   -0.3559   -0.1743 C   0  0  0  0  0  0  0  0  0  0  0  0
    2.4305   -1.0256   -0.4136 C   0  0  0  0  0  0  0  0  0  0  0  0
    1.4813   -0.2419   -1.2549 C   0  0  0  0  0  0  0  0  0  0  0  0
    1.1441    0.9956   -0.7278 O   0  0  0  0  0  0  0  0  0  0  0  0
    0.5456    0.9308    0.4994 C   0  0  0  0  0  0  0  0  0  0  0  0
   -0.7502    0.1490    0.5391 C   0  0  0  0  0  0  0  0  0  0  0  0
   -1.8193    0.6986   -0.3532 C   0  0  0  0  0  0  0  0  0  0  0  0
   -3.0840   -0.1335   -0.2809 C   0  0  0  0  0  0  0  0  0  0  0  0
   -3.6664   -0.2028    1.0985 C   0  0  0  0  0  0  0  0  0  0  0  0
   -4.0229    1.1619    1.5874 C   0  0  0  0  0  0  0  0  0  0  0  0
   -4.9657    1.8401    0.8273 N   0  0  0  0  0  0  0  0  0  0  0  0
   -6.3186    1.5655    0.7599 C   0  0  0  0  0  0  0  0  0  0  0  0
   -6.8530    0.3446    0.0874 C   0  0  1  0  0  0  0  0  0  0  0  0
   -8.3741    0.3647    0.1272 C   0  0  0  0  0  0  0  0  0  0  0  0
   -9.0747    1.2579    0.8855 C   0  0  0  0  0  0  0  0  0  0  0  0
  -10.4647    1.1611    0.8410 C   0  0  0  0  0  0  0  0  0  0  0  0
  -11.1034    0.2106    0.0696 C   0  0  0  0  0  0  0  0  0  0  0  0
  -10.3706   -0.6813   -0.6890 C   0  0  0  0  0  0  0  0  0  0  0  0
   -8.9731   -0.6089   -0.6649 C   0  0  0  0  0  0  0  0  0  0  0  0
  -11.0868   -1.6964   -1.5092 C   0  0  0  0  0  0  0  0  0  0  0  0
  -11.5468   -2.7017   -0.6591 O   0  0  0  0  0  0  0  0  0  0  0  0
  -12.4962    0.1527    0.0572 O   0  0  0  0  0  0  0  0  0  0  0  0
   -6.4709    0.3009   -1.2712 O   0  0  0  0  0  0  0  0  0  0  0  0
   -1.2917   -0.8814   -0.6761 H   0  0  0  0  0  0  0  0  0  0  0  0
   -1.2120   -0.4451    1.0517 H   0  0  0  0  0  0  0  0  0  0  0  0
   -1.6005    0.7954   -0.1608 H   0  0  0  0  0  0  0  0  0  0  0  0
    2.3402   -0.4990    0.3089 H   0  0  0  0  0  0  0  0  0  0  0  0
   12.7444    1.7163   -0.3158 H   0  0  0  0  0  0  0  0  0  0  0  0
   11.8853    1.6206   -1.8539 H   0  0  0  0  0  0  0  0  0  0  0  0
   13.6496    1.7288   -1.8603 H   0  0  0  0  0  0  0  0  0  0  0  0
   13.5626   -0.6724   -2.0151 H   0  0  0  0  0  0  0  0  0  0  0  0
   13.1584   -0.5130   -0.2167 H   0  0  0  0  0  0  0  0  0  0  0  0
   11.2476   -1.3762   -2.2287 H   0  0  0  0  0  0  0  0  0  0  0  0
    9.0004   -1.4124   -1.3294 H   0  0  0  0  0  0  0  0  0  0  0  0
    9.2461    0.7735    1.7836 H   0  0  0  0  0  0  0  0  0  0  0  0
    7.3794    1.2197    3.2425 H   0  0  0  0  0  0  0  0  0  0  0  0
    5.1469    0.2399    2.7531 H   0  0  0  0  0  0  0  0  0  0  0  0
    6.7527   -1.6349   -0.7010 H   0  0  0  0  0  0  0  0  0  0  0  0
    4.0534   -1.5270    1.6477 H   0  0  0  0  0  0  0  0  0  0  0  0
    4.6518   -2.3023    0.1849 H   0  0  0  0  0  0  0  0  0  0  0  0
    3.5633    0.5753    0.3899 H   0  0  0  0  0  0  0  0  0  0  0  0
    4.3199   -0.1732   -1.1060 H   0  0  0  0  0  0  0  0  0  0  0  0
    2.6078   -1.9913   -0.9515 H   0  0  0  0  0  0  0  0  0  0  0  0
    2.0357   -1.2783    0.5926 H   0  0  0  0  0  0  0  0  0  0  0  0
    2.0213   -0.0296   -2.2204 H   0  0  0  0  0  0  0  0  0  0  0  0
    0.6179   -0.8495   -1.5158 H   0  0  0  0  0  0  0  0  0  0  0  0
    0.3155    1.9714    0.8075 H   0  0  0  0  0  0  0  0  0  0  0  0
    1.1841    0.5187    1.3079 H   0  0  0  0  0  0  0  0  0  0  0  0
   -1.1072    0.2721    1.6033 H   0  0  0  0  0  0  0  0  0  0  0  0
   -0.6376   -0.9179    0.3645 H   0  0  0  0  0  0  0  0  0  0  0  0
   -1.4987    0.7269   -1.4248 H   0  0  0  0  0  0  0  0  0  0  0  0
   -2.1079    1.7484   -0.1306 H   0  0  0  0  0  0  0  0  0  0  0  0
   -2.7574   -1.1745   -0.5870 H   0  0  0  0  0  0  0  0  0  0  0  0
   -3.8105    0.1784   -1.0274 H   0  0  0  0  0  0  0  0  0  0  0  0
   -4.4718   -0.9478    1.1876 H   0  0  0  0  0  0  0  0  0  0  0  0
   -2.8916   -0.5930    1.8333 H   0  0  0  0  0  0  0  0  0  0  0  0
   -3.0212    1.7150    1.6513 H   0  0  0  0  0  0  0  0  0  0  0  0
   -4.2912    1.1237    2.6985 H   0  0  0  0  0  0  0  0  0  0  0  0
   -4.7324    2.8515    0.7251 H   0  0  0  0  0  0  0  0  0  0  0  0
   -6.8180    2.4713    0.2584 H   0  0  0  0  0  0  0  0  0  0  0  0
   -6.7268    1.5348    1.8296 H   0  0  0  0  0  0  0  0  0  0  0  0
   -6.5697   -0.6143    0.5428 H   0  0  0  0  0  0  0  0  0  0  0  0
   -8.6162    2.0141    1.4958 H   0  0  0  0  0  0  0  0  0  0  0  0
  -11.0992    1.8281    1.4096 H   0  0  0  0  0  0  0  0  0  0  0  0
   -8.3864   -1.3107   -1.2623 H   0  0  0  0  0  0  0  0  0  0  0  0
  -11.9327   -1.2387   -2.0652 H   0  0  0  0  0  0  0  0  0  0  0  0
  -10.3440   -2.1516   -2.1932 H   0  0  0  0  0  0  0  0  0  0  0  0
  -11.1186   -3.5680   -0.8565 H   0  0  0  0  0  0  0  0  0  0  0  0
  -12.9093   -0.3482    0.8561 H   0  0  0  0  0  0  0  0  0  0  0  0
   -6.3386   -0.6172   -1.5810 H   0  0  0  0  0  0  0  0  0  0  0  0
  1  2  1  0
  2  3  2  0
  2  4  1  0
  5  6  1  0
  6  7  1  0
  7  8  1  0
  8  9  2  0
  8 10  1  0
 10 11  1  0
 11 12  2  0
 12 13  1  0
 13 14  2  0
 14 15  1  0
 15 16  2  0
 15 17  1  0
 17 18  1  0
 18 19  1  0
 19 20  1  0
 20 21  1  0
 21 22  1  0
 22 23  1  0
 23 24  1  0
 24 25  1  0
 25 26  1  0
 26 27  1  0
 27 28  1  0
 28 29  1  0
 29 30  1  0
 30 31  1  0
 31 32  2  0
 32 33  1  0
 33 34  2  0
 34 35  1  0
 35 36  2  0
 35 37  1  0
 37 38  1  0
 34 39  1  0
 30 40  1  0
 16 11  1  0
 36 31  1  0
  1 41  1  0
  1 42  1  0
  1 43  1  0
  4 44  1  0
  5 45  1  0
  5 46  1  0
  5 47  1  0
  6 48  1  0
  6 49  1  0
  7 50  1  0
 10 51  1  0
 12 52  1  0
 13 53  1  0
 14 54  1  0
 16 55  1  0
 17 56  1  0
 17 57  1  0
 18 58  1  0
 18 59  1  0
 19 60  1  0
 19 61  1  0
 20 62  1  0
 20 63  1  0
 22 64  1  0
 22 65  1  0
 23 66  1  0
 23 67  1  0
 24 68  1  0
 24 69  1  0
 25 70  1  0
 25 71  1  0
 26 72  1  0
 26 73  1  0
 27 74  1  0
 27 75  1  0
 28 76  1  0
 29 77  1  0
 29 78  1  0
 30 79  1  1
 32 80  1  0
 33 81  1  0
 36 82  1  0
 37 83  1  0
 37 84  1  0
 38 85  1  0
 39 86  1  0
 40 87  1  0
M  END
>  <Ligand ID>  (1) 
LIG0001933

>  <Ligand>  (1) 
CHEMBL1835854

>  <SMILES>  (1) 
CC(=O)O.CCNC(=O)Nc1cccc(c1)CCCCOCCCCCCNC[C@@H](c1ccc(c(c1)CO)O)O

>  <CID>  (1) 
56665367.0

>  <ChEMBL ID>  (1) 
nan

>  <InChiKey>  (1) 
XFIQUQPVZISZJX-YCBFMBTMSA-N

>  <InChi>  (1) 
InChI=1S/C28H43N3O5.C2H4O2/c1-2-30-28(35)31-25-12-9-11-22(18-25)10-5-8-17-36-16-7-4-3-6-15-29-20-27(34)23-13-14-26(33)24(19-23)21-32;1-2(3)4/h9,11-14,18-19,27,29,32-34H,2-8,10,15-17,20-21H2,1H3,(H2,30,31,35);1H3,(H,3,4)/t27-;/m0./s1

>  <IUPAC Name>  (1) 
acetic acid;1-ethyl-3-[3-[4-[6-[[(2R)-2-hydroxy-2-[4-hydroxy-3-(hydroxymethyl)phenyl]ethyl]amino]hexoxy]butyl]phenyl]urea

$$$$
