
     RDKit          3D

 94 98  0  0  0  0  0  0  0  0999 V2000
    5.1906    0.6295   -2.6906 O   0  0  0  0  0  0  0  0  0  0  0  0
    4.6781    0.9265   -1.5980 C   0  0  0  0  0  0  0  0  0  0  0  0
    5.5498    1.1619   -0.4185 C   0  0  2  0  0  0  0  0  0  0  0  0
    6.5671    0.0554   -0.2984 C   0  0  0  0  0  0  0  0  0  0  0  0
    7.4644    0.2193    0.8587 C   0  0  0  0  0  0  0  0  0  0  0  0
    8.6530    0.9594    0.7896 C   0  0  0  0  0  0  0  0  0  0  0  0
    9.4769    1.0805    1.9079 C   0  0  0  0  0  0  0  0  0  0  0  0
    9.1276    0.4640    3.1149 C   0  0  0  0  0  0  0  0  0  0  0  0
    7.9542   -0.2605    3.1649 C   0  0  0  0  0  0  0  0  0  0  0  0
    7.1185   -0.3964    2.0698 C   0  0  0  0  0  0  0  0  0  0  0  0
    9.9408    0.5751    4.2412 O   0  0  0  0  0  0  0  0  0  0  0  0
    4.8351    1.2891    0.8158 N   0  0  0  0  0  0  0  0  0  0  0  0
    3.2552    1.0397   -1.4848 N   0  0  0  0  0  0  0  0  0  0  0  0
    2.4429    0.8019   -2.6150 C   0  0  2  0  0  0  0  0  0  0  0  0
    1.9423    2.0737   -3.2890 C   0  0  0  0  0  0  0  0  0  0  0  0
    1.0480    3.1278   -2.1332 S   0  0  0  0  0  0  0  0  0  0  0  0
    0.3257    4.5602   -2.9203 C   0  0  0  0  0  0  0  0  0  0  0  0
   -1.0362    4.0455   -4.0699 S   0  0  0  0  0  0  0  0  0  0  0  0
   -2.2316    3.2168   -3.0004 C   0  0  0  0  0  0  0  0  0  0  0  0
   -3.4565    2.6795   -3.6857 C   0  0  2  0  0  0  0  0  0  0  0  0
   -4.1098    1.8807   -2.6229 N   0  0  0  0  0  0  0  0  0  0  0  0
   -3.4607    0.6811   -2.2741 C   0  0  0  0  0  0  0  0  0  0  0  0
   -2.4541    0.3668   -2.9159 O   0  0  0  0  0  0  0  0  0  0  0  0
   -3.9126   -0.2537   -1.1646 C   0  0  1  0  0  0  0  0  0  0  0  0
   -2.8242   -1.2213   -1.1457 N   0  0  0  0  0  0  0  0  0  0  0  0
   -1.4586   -0.7709   -1.0073 C   0  0  0  0  0  0  0  0  0  0  0  0
   -1.3355    0.4280   -0.7262 O   0  0  0  0  0  0  0  0  0  0  0  0
   -0.2706   -1.6003   -1.1700 C   0  0  1  0  0  0  0  0  0  0  0  0
    0.8765   -0.6933   -1.2061 N   0  0  0  0  0  0  0  0  0  0  0  0
    1.3025   -0.0981   -2.4603 C   0  0  0  0  0  0  0  0  0  0  0  0
    0.6094   -0.4110   -3.4306 O   0  0  0  0  0  0  0  0  0  0  0  0
   -0.0967   -2.8049   -0.3837 C   0  0  0  0  0  0  0  0  0  0  0  0
   -0.0338   -2.7825    1.0610 C   0  0  0  0  0  0  0  0  0  0  0  0
   -1.1487   -2.9276    1.9086 C   0  0  0  0  0  0  0  0  0  0  0  0
   -0.9533   -2.8920    3.2642 C   0  0  0  0  0  0  0  0  0  0  0  0
    0.2955   -2.7182    3.8546 C   0  0  0  0  0  0  0  0  0  0  0  0
    1.3826   -2.5762    3.0269 C   0  0  0  0  0  0  0  0  0  0  0  0
    1.2108   -2.6093    1.6625 C   0  0  0  0  0  0  0  0  0  0  0  0
   -4.1892    0.5376    0.0247 C   0  0  0  0  0  0  0  0  0  0  0  0
   -4.6703   -0.2035    1.2224 C   0  0  0  0  0  0  0  0  0  0  0  0
   -3.8376   -0.7014    2.1971 C   0  0  0  0  0  0  0  0  0  0  0  0
   -4.4176   -1.3740    3.2474 C   0  0  0  0  0  0  0  0  0  0  0  0
   -5.7872   -1.5610    3.3508 C   0  0  0  0  0  0  0  0  0  0  0  0
   -6.6281   -1.0645    2.3779 C   0  0  0  0  0  0  0  0  0  0  0  0
   -6.0426   -0.3925    1.3293 C   0  0  0  0  0  0  0  0  0  0  0  0
   -8.0055   -1.2230    2.4289 C   0  0  0  0  0  0  0  0  0  0  0  0
   -8.5114   -1.9088    3.5093 C   0  0  0  0  0  0  0  0  0  0  0  0
   -7.7319   -2.4322    4.5181 C   0  0  0  0  0  0  0  0  0  0  0  0
   -6.3640   -2.2362    4.4026 C   0  0  0  0  0  0  0  0  0  0  0  0
   -3.2370    1.9520   -4.9250 C   0  0  0  0  0  0  0  0  0  0  0  0
   -2.6247    2.5577   -5.8678 O   0  0  0  0  0  0  0  0  0  0  0  0
   -3.6350    0.6218   -5.2105 N   0  0  0  0  0  0  0  0  0  0  0  0
    6.1196    2.1291   -0.5387 H   0  0  0  0  0  0  0  0  0  0  0  0
    7.1488   -0.0875   -1.2459 H   0  0  0  0  0  0  0  0  0  0  0  0
    6.0175   -0.9217   -0.1580 H   0  0  0  0  0  0  0  0  0  0  0  0
    8.9191    1.4396   -0.1541 H   0  0  0  0  0  0  0  0  0  0  0  0
   10.4061    1.6662    1.8299 H   0  0  0  0  0  0  0  0  0  0  0  0
    7.6505   -0.7580    4.0951 H   0  0  0  0  0  0  0  0  0  0  0  0
    6.1936   -0.9702    2.1148 H   0  0  0  0  0  0  0  0  0  0  0  0
   10.7946    1.1108    4.1469 H   0  0  0  0  0  0  0  0  0  0  0  0
    4.4579    0.3454    1.0633 H   0  0  0  0  0  0  0  0  0  0  0  0
    5.3641    1.7427    1.5666 H   0  0  0  0  0  0  0  0  0  0  0  0
    2.8987    1.3024   -0.5322 H   0  0  0  0  0  0  0  0  0  0  0  0
    3.1263    0.3444   -3.4035 H   0  0  0  0  0  0  0  0  0  0  0  0
    1.1962    1.7319   -4.0382 H   0  0  0  0  0  0  0  0  0  0  0  0
    2.7112    2.6023   -3.8591 H   0  0  0  0  0  0  0  0  0  0  0  0
   -0.1329    5.2119   -2.1494 H   0  0  0  0  0  0  0  0  0  0  0  0
    1.0718    5.1488   -3.4595 H   0  0  0  0  0  0  0  0  0  0  0  0
   -2.5854    3.9175   -2.1822 H   0  0  0  0  0  0  0  0  0  0  0  0
   -1.6773    2.4359   -2.4479 H   0  0  0  0  0  0  0  0  0  0  0  0
   -4.0950    3.5734   -3.9103 H   0  0  0  0  0  0  0  0  0  0  0  0
   -4.9591    2.1214   -2.1470 H   0  0  0  0  0  0  0  0  0  0  0  0
   -4.8388   -0.6926   -1.5874 H   0  0  0  0  0  0  0  0  0  0  0  0
   -2.9175   -2.2323   -1.2172 H   0  0  0  0  0  0  0  0  0  0  0  0
   -0.3343   -1.9426   -2.2571 H   0  0  0  0  0  0  0  0  0  0  0  0
    1.4418   -0.4142   -0.4134 H   0  0  0  0  0  0  0  0  0  0  0  0
   -0.9810   -3.4752   -0.6270 H   0  0  0  0  0  0  0  0  0  0  0  0
    0.7465   -3.3983   -0.8560 H   0  0  0  0  0  0  0  0  0  0  0  0
   -2.1291   -3.0637    1.4520 H   0  0  0  0  0  0  0  0  0  0  0  0
   -1.7778   -3.0014    3.9542 H   0  0  0  0  0  0  0  0  0  0  0  0
    0.3984   -2.6964    4.9305 H   0  0  0  0  0  0  0  0  0  0  0  0
    2.3450   -2.4417    3.5057 H   0  0  0  0  0  0  0  0  0  0  0  0
    2.0916   -2.4955    1.0259 H   0  0  0  0  0  0  0  0  0  0  0  0
   -5.0296    1.2423   -0.2598 H   0  0  0  0  0  0  0  0  0  0  0  0
   -3.3882    1.2693    0.3069 H   0  0  0  0  0  0  0  0  0  0  0  0
   -2.7742   -0.5466    2.1046 H   0  0  0  0  0  0  0  0  0  0  0  0
   -3.8201   -1.7810    4.0338 H   0  0  0  0  0  0  0  0  0  0  0  0
   -6.6993    0.0023    0.5590 H   0  0  0  0  0  0  0  0  0  0  0  0
   -8.6168   -0.8088    1.6338 H   0  0  0  0  0  0  0  0  0  0  0  0
   -9.5850   -2.0307    3.5455 H   0  0  0  0  0  0  0  0  0  0  0  0
   -8.1477   -2.9710    5.3635 H   0  0  0  0  0  0  0  0  0  0  0  0
   -5.7470   -2.6398    5.1825 H   0  0  0  0  0  0  0  0  0  0  0  0
   -3.0782   -0.0555   -5.7623 H   0  0  0  0  0  0  0  0  0  0  0  0
   -4.5674    0.2692   -4.8430 H   0  0  0  0  0  0  0  0  0  0  0  0
  1  2  2  0
  2  3  1  0
  3  4  1  0
  4  5  1  0
  5  6  2  0
  6  7  1  0
  7  8  2  0
  8  9  1  0
  9 10  2  0
  8 11  1  0
  3 12  1  0
  2 13  1  0
 13 14  1  0
 14 15  1  0
 15 16  1  0
 16 17  1  0
 17 18  1  0
 18 19  1  0
 19 20  1  0
 20 21  1  0
 21 22  1  0
 22 23  2  0
 22 24  1  0
 24 25  1  0
 25 26  1  0
 26 27  2  0
 26 28  1  0
 28 29  1  0
 29 30  1  0
 30 31  2  0
 28 32  1  0
 32 33  1  0
 33 34  2  0
 34 35  1  0
 35 36  2  0
 36 37  1  0
 37 38  2  0
 24 39  1  0
 39 40  1  0
 40 41  2  0
 41 42  1  0
 42 43  2  0
 43 44  1  0
 44 45  2  0
 44 46  1  0
 46 47  2  0
 47 48  1  0
 48 49  2  0
 20 50  1  0
 50 51  2  0
 50 52  1  0
 10  5  1  0
 30 14  1  0
 38 33  1  0
 45 40  1  0
 49 43  1  0
  3 53  1  6
  4 54  1  0
  4 55  1  0
  6 56  1  0
  7 57  1  0
  9 58  1  0
 10 59  1  0
 11 60  1  0
 12 61  1  0
 12 62  1  0
 13 63  1  0
 14 64  1  6
 15 65  1  0
 15 66  1  0
 17 67  1  0
 17 68  1  0
 19 69  1  0
 19 70  1  0
 20 71  1  6
 21 72  1  0
 24 73  1  6
 25 74  1  0
 28 75  1  6
 29 76  1  0
 32 77  1  0
 32 78  1  0
 34 79  1  0
 35 80  1  0
 36 81  1  0
 37 82  1  0
 38 83  1  0
 39 84  1  0
 39 85  1  0
 41 86  1  0
 42 87  1  0
 45 88  1  0
 46 89  1  0
 47 90  1  0
 48 91  1  0
 49 92  1  0
 52 93  1  0
 52 94  1  0
M  END
>  <Ligand ID>  (1) 
LIG0002419

>  <Ligand>  (1) 
CHEMBL572525

>  <SMILES>  (1) 
O=C([C@H](Cc1ccc(cc1)O)N)N[C@@H]1CSCSC[C@H](NC(=O)[C@@H](NC(=O)[C@@H](NC1=O)Cc1ccccc1)Cc1ccc2c(c1)cccc2)C(=O)N

>  <CID>  (1) 
44598284.0

>  <ChEMBL ID>  (1) 
nan

>  <InChiKey>  (1) 
FWDMWCQXNFZSCZ-PMUGGPHNSA-N

>  <InChi>  (1) 
InChI=1S/C38H42N6O6S2/c39-29(17-24-11-14-28(45)15-12-24)35(47)44-33-21-52-22-51-20-32(34(40)46)43-37(49)31(19-25-10-13-26-8-4-5-9-27(26)16-25)41-36(48)30(42-38(33)50)18-23-6-2-1-3-7-23/h1-16,29-33,45H,17-22,39H2,(H2,40,46)(H,41,48)(H,42,50)(H,43,49)(H,44,47)/t29-,30-,31-,32-,33+/m0/s1

>  <IUPAC Name>  (1) 
(5R,8S,11S,14S)-14-[[(2S)-2-amino-3-(4-hydroxyphenyl)propanoyl]amino]-11-benzyl-8-(naphthalen-2-ylmethyl)-7,10,13-trioxo-1,3-dithia-6,9,12-triazacyclopentadecane-5-carboxamide

$$$$
