
     RDKit          3D

 34 35  0  0  0  0  0  0  0  0999 V2000
    4.8342    0.7048    1.3720 N   0  0  0  0  0  0  0  0  0  0  0  0
    5.2005    0.5792   -0.0242 C   0  0  0  0  0  0  0  0  0  0  0  0
    4.5071   -0.6348   -0.6465 C   0  0  0  0  0  0  0  0  0  0  0  0
    3.0311   -0.4796   -0.5489 C   0  0  0  0  0  0  0  0  0  0  0  0
    2.3513    0.1472   -1.5745 C   0  0  0  0  0  0  0  0  0  0  0  0
    0.9817    0.2897   -1.4814 C   0  0  0  0  0  0  0  0  0  0  0  0
    0.2413   -0.1584   -0.4187 C   0  0  0  0  0  0  0  0  0  0  0  0
    0.9200   -0.7851    0.6069 C   0  0  0  0  0  0  0  0  0  0  0  0
    2.2938   -0.9339    0.5250 C   0  0  0  0  0  0  0  0  0  0  0  0
   -1.1182    0.0371   -0.4307 O   0  0  0  0  0  0  0  0  0  0  0  0
   -1.9178   -0.4117    0.6492 C   0  0  0  0  0  0  0  0  0  0  0  0
   -3.3378   -0.0685    0.3690 C   0  0  0  0  0  0  0  0  0  0  0  0
   -3.8506    1.1585    0.7921 C   0  0  0  0  0  0  0  0  0  0  0  0
   -5.1626    1.5004    0.5449 C   0  0  0  0  0  0  0  0  0  0  0  0
   -5.9637    0.6105   -0.1281 C   0  0  0  0  0  0  0  0  0  0  0  0
   -5.4916   -0.6131   -0.5622 C   0  0  0  0  0  0  0  0  0  0  0  0
   -4.1703   -0.9409   -0.3055 C   0  0  0  0  0  0  0  0  0  0  0  0
   -7.2701    0.9556   -0.3719 F   0  0  0  0  0  0  0  0  0  0  0  0
    4.8310   -0.2472    1.7972 H   0  0  0  0  0  0  0  0  0  0  0  0
    3.8835    1.1230    1.4664 H   0  0  0  0  0  0  0  0  0  0  0  0
    4.8541    1.5019   -0.5298 H   0  0  0  0  0  0  0  0  0  0  0  0
    6.2866    0.4759   -0.1689 H   0  0  0  0  0  0  0  0  0  0  0  0
    4.7498   -0.7079   -1.7128 H   0  0  0  0  0  0  0  0  0  0  0  0
    4.7667   -1.5564   -0.0907 H   0  0  0  0  0  0  0  0  0  0  0  0
    2.8993    0.5246   -2.4491 H   0  0  0  0  0  0  0  0  0  0  0  0
    0.5100    0.7988   -2.3362 H   0  0  0  0  0  0  0  0  0  0  0  0
    0.3752   -1.1475    1.4519 H   0  0  0  0  0  0  0  0  0  0  0  0
    2.7927   -1.4298    1.3467 H   0  0  0  0  0  0  0  0  0  0  0  0
   -1.8565   -1.5056    0.8164 H   0  0  0  0  0  0  0  0  0  0  0  0
   -1.5526    0.0991    1.5513 H   0  0  0  0  0  0  0  0  0  0  0  0
   -3.1831    1.8460    1.3272 H   0  0  0  0  0  0  0  0  0  0  0  0
   -5.5131    2.4515    0.8875 H   0  0  0  0  0  0  0  0  0  0  0  0
   -6.1614   -1.2874   -1.0918 H   0  0  0  0  0  0  0  0  0  0  0  0
   -3.7604   -1.8962   -0.6316 H   0  0  0  0  0  0  0  0  0  0  0  0
  1  2  1  0
  2  3  1  0
  3  4  1  0
  4  5  2  0
  5  6  1  0
  6  7  2  0
  7  8  1  0
  8  9  2  0
  7 10  1  0
 10 11  1  0
 11 12  1  0
 12 13  2  0
 13 14  1  0
 14 15  2  0
 15 16  1  0
 16 17  2  0
 15 18  1  0
  9  4  1  0
 17 12  1  0
  1 19  1  0
  1 20  1  0
  2 21  1  0
  2 22  1  0
  3 23  1  0
  3 24  1  0
  5 25  1  0
  6 26  1  0
  8 27  1  0
  9 28  1  0
 11 29  1  0
 11 30  1  0
 13 31  1  0
 14 32  1  0
 16 33  1  0
 17 34  1  0
M  END
>  <Ligand ID>  (1) 
LIG0005935

>  <Ligand>  (1) 
CHEMBL201864

>  <SMILES>  (1) 
NCCc1ccc(cc1)OCc1ccc(cc1)F

>  <CID>  (1) 
11565006.0

>  <ChEMBL ID>  (1) 
nan

>  <InChiKey>  (1) 
YMXMVTIEFGIJHO-UHFFFAOYSA-N

>  <InChi>  (1) 
InChI=1S/C15H16FNO/c16-14-5-1-13(2-6-14)11-18-15-7-3-12(4-8-15)9-10-17/h1-8H,9-11,17H2

>  <IUPAC Name>  (1) 
2-[4-[(4-fluorophenyl)methoxy]phenyl]ethanamine

$$$$
