
     RDKit          3D

 49 51  0  0  0  0  0  0  0  0999 V2000
    9.2867   -0.1595    0.3265 O   0  0  0  0  0  0  0  0  0  0  0  0
    8.2694   -0.6530   -0.4709 C   0  0  0  0  0  0  0  0  0  0  0  0
    8.4410   -1.4476   -1.4241 O   0  0  0  0  0  0  0  0  0  0  0  0
    6.8872   -0.2099   -0.1747 C   0  0  0  0  0  0  0  0  0  0  0  0
    5.9720   -0.8906   -1.1854 C   0  0  0  0  0  0  0  0  0  0  0  0
    4.5861   -0.4333   -0.8722 C   0  0  0  0  0  0  0  0  0  0  0  0
    4.0278    0.6920   -1.4405 C   0  0  0  0  0  0  0  0  0  0  0  0
    2.7333    1.0504   -1.0972 C   0  0  0  0  0  0  0  0  0  0  0  0
    1.9718    0.3217   -0.2020 C   0  0  0  0  0  0  0  0  0  0  0  0
    2.5736   -0.8118    0.3519 C   0  0  0  0  0  0  0  0  0  0  0  0
    3.8578   -1.1911    0.0289 C   0  0  0  0  0  0  0  0  0  0  0  0
    0.6424    0.6831    0.1555 N   0  0  0  0  0  0  0  0  0  0  0  0
   -0.0912   -0.1322    1.1014 C   0  0  0  0  0  0  0  0  0  0  0  0
   -1.4358    0.4629    1.2936 C   0  0  0  0  0  0  0  0  0  0  0  0
   -1.5814    1.4076    2.3076 C   0  0  0  0  0  0  0  0  0  0  0  0
   -2.8335    1.9913    2.5199 C   0  0  0  0  0  0  0  0  0  0  0  0
   -3.9202    1.6302    1.7250 C   0  0  0  0  0  0  0  0  0  0  0  0
   -3.7605    0.6823    0.7124 C   0  0  0  0  0  0  0  0  0  0  0  0
   -2.5245    0.1090    0.5060 C   0  0  0  0  0  0  0  0  0  0  0  0
   -4.9412    0.3606   -0.0764 C   0  0  0  0  0  0  0  0  0  0  0  0
   -5.6979    1.4395   -0.5336 C   0  0  0  0  0  0  0  0  0  0  0  0
   -6.8419    1.2223   -1.2985 C   0  0  0  0  0  0  0  0  0  0  0  0
   -7.2306   -0.0714   -1.6071 C   0  0  0  0  0  0  0  0  0  0  0  0
   -6.4693   -1.1478   -1.1467 C   0  0  0  0  0  0  0  0  0  0  0  0
   -5.3348   -0.9153   -0.3873 C   0  0  0  0  0  0  0  0  0  0  0  0
   -4.5556   -2.0648    0.0865 C   0  0  0  0  0  0  0  0  0  0  0  0
   10.2139   -0.5516    0.1870 H   0  0  0  0  0  0  0  0  0  0  0  0
    6.5956   -0.4846    0.8695 H   0  0  0  0  0  0  0  0  0  0  0  0
    6.7531    0.8752   -0.2870 H   0  0  0  0  0  0  0  0  0  0  0  0
    6.0438   -1.9772   -1.1469 H   0  0  0  0  0  0  0  0  0  0  0  0
    6.2709   -0.4647   -2.1858 H   0  0  0  0  0  0  0  0  0  0  0  0
    4.6229    1.2685   -2.1452 H   0  0  0  0  0  0  0  0  0  0  0  0
    2.3220    1.9370   -1.5583 H   0  0  0  0  0  0  0  0  0  0  0  0
    2.0494   -1.4432    1.0638 H   0  0  0  0  0  0  0  0  0  0  0  0
    4.3075   -2.0872    0.4790 H   0  0  0  0  0  0  0  0  0  0  0  0
    0.2527    1.5404   -0.2942 H   0  0  0  0  0  0  0  0  0  0  0  0
   -0.1112   -1.1621    0.7066 H   0  0  0  0  0  0  0  0  0  0  0  0
    0.4629   -0.1603    2.0822 H   0  0  0  0  0  0  0  0  0  0  0  0
   -0.7633    1.7118    2.9425 H   0  0  0  0  0  0  0  0  0  0  0  0
   -3.0022    2.7291    3.2922 H   0  0  0  0  0  0  0  0  0  0  0  0
   -4.8865    2.0792    1.8871 H   0  0  0  0  0  0  0  0  0  0  0  0
   -2.3929   -0.6179   -0.2705 H   0  0  0  0  0  0  0  0  0  0  0  0
   -5.4291    2.4668   -0.3149 H   0  0  0  0  0  0  0  0  0  0  0  0
   -7.4132    2.0955   -1.6413 H   0  0  0  0  0  0  0  0  0  0  0  0
   -8.1216   -0.2456   -2.2031 H   0  0  0  0  0  0  0  0  0  0  0  0
   -6.7511   -2.1793   -1.3741 H   0  0  0  0  0  0  0  0  0  0  0  0
   -3.9883   -1.8520    1.0177 H   0  0  0  0  0  0  0  0  0  0  0  0
   -5.2237   -2.9194    0.3485 H   0  0  0  0  0  0  0  0  0  0  0  0
   -3.8425   -2.4830   -0.6536 H   0  0  0  0  0  0  0  0  0  0  0  0
  1  2  1  0
  2  3  2  0
  2  4  1  0
  4  5  1  0
  5  6  1  0
  6  7  2  0
  7  8  1  0
  8  9  2  0
  9 10  1  0
 10 11  2  0
  9 12  1  0
 12 13  1  0
 13 14  1  0
 14 15  2  0
 15 16  1  0
 16 17  2  0
 17 18  1  0
 18 19  2  0
 18 20  1  0
 20 21  2  0
 21 22  1  0
 22 23  2  0
 23 24  1  0
 24 25  2  0
 25 26  1  0
 11  6  1  0
 19 14  1  0
 25 20  1  0
  1 27  1  0
  4 28  1  0
  4 29  1  0
  5 30  1  0
  5 31  1  0
  7 32  1  0
  8 33  1  0
 10 34  1  0
 11 35  1  0
 12 36  1  0
 13 37  1  0
 13 38  1  0
 15 39  1  0
 16 40  1  0
 17 41  1  0
 19 42  1  0
 21 43  1  0
 22 44  1  0
 23 45  1  0
 24 46  1  0
 26 47  1  0
 26 48  1  0
 26 49  1  0
M  END
>  <Ligand ID>  (1) 
LIG0003862

>  <Ligand>  (1) 
CHEMBL1773261

>  <SMILES>  (1) 
OC(=O)CCc1ccc(cc1)NCc1cccc(c1)c1ccccc1C

>  <CID>  (1) 
46941175.0

>  <ChEMBL ID>  (1) 
nan

>  <InChiKey>  (1) 
RUPXKSLKGSSZCP-UHFFFAOYSA-N

>  <InChi>  (1) 
InChI=1S/C23H23NO2/c1-17-5-2-3-8-22(17)20-7-4-6-19(15-20)16-24-21-12-9-18(10-13-21)11-14-23(25)26/h2-10,12-13,15,24H,11,14,16H2,1H3,(H,25,26)

>  <IUPAC Name>  (1) 
3-[4-[[3-(2-methylphenyl)phenyl]methylamino]phenyl]propanoic acid

$$$$
