
     RDKit          3D

146149  0  0  0  0  0  0  0  0999 V2000
    6.2465   -4.2848   -2.1316 C   0  0  0  0  0  0  0  0  0  0  0  0
    5.4902   -4.1573   -0.8465 C   0  0  0  0  0  0  0  0  0  0  0  0
    5.9481   -2.8545   -0.1706 C   0  0  0  0  0  0  0  0  0  0  0  0
    5.6857   -1.6559   -1.0187 C   0  0  0  0  0  0  0  0  0  0  0  0
    6.1043   -0.3741   -0.4287 C   0  0  1  0  0  0  0  0  0  0  0  0
    5.4837    0.0191    0.8414 C   0  0  0  0  0  0  0  0  0  0  0  0
    6.2757    0.2986    1.7992 O   0  0  0  0  0  0  0  0  0  0  0  0
    4.0451    0.1074    1.0341 N   0  0  0  0  0  0  0  0  0  0  0  0
    3.6149    0.5397    2.3021 C   0  0  2  0  0  0  0  0  0  0  0  0
    2.3812    0.0848    2.9025 C   0  0  0  0  0  0  0  0  0  0  0  0
    2.1423    0.6049    4.0805 O   0  0  0  0  0  0  0  0  0  0  0  0
    1.3974   -0.8058    2.4514 N   0  0  0  0  0  0  0  0  0  0  0  0
    0.2446   -1.0228    3.3222 C   0  0  1  0  0  0  0  0  0  0  0  0
   -0.9981   -0.4579    2.7284 C   0  0  0  0  0  0  0  0  0  0  0  0
   -2.0311   -0.1888    3.3840 O   0  0  0  0  0  0  0  0  0  0  0  0
   -1.0583   -0.1881    1.3230 N   0  0  0  0  0  0  0  0  0  0  0  0
   -2.2650    0.4222    0.7187 C   0  0  2  0  0  0  0  0  0  0  0  0
   -3.4978   -0.3743    1.0686 C   0  0  0  0  0  0  0  0  0  0  0  0
   -3.4577   -1.5536    1.4601 O   0  0  0  0  0  0  0  0  0  0  0  0
   -4.7361    0.3581    0.9266 N   0  0  0  0  0  0  0  0  0  0  0  0
   -6.0226   -0.2536    1.2497 C   0  0  2  0  0  0  0  0  0  0  0  0
   -7.0851    0.0874    0.3318 C   0  0  0  0  0  0  0  0  0  0  0  0
   -8.1779   -0.5642    0.4335 O   0  0  0  0  0  0  0  0  0  0  0  0
   -7.0617    1.0784   -0.6808 N   0  0  0  0  0  0  0  0  0  0  0  0
   -8.2747    1.2590   -1.4848 C   0  0  2  0  0  0  0  0  0  0  0  0
   -7.9553    1.0199   -2.8953 C   0  0  0  0  0  0  0  0  0  0  0  0
   -6.7498    0.7813   -3.1864 O   0  0  0  0  0  0  0  0  0  0  0  0
   -8.8814    1.0290   -3.9599 N   0  0  0  0  0  0  0  0  0  0  0  0
   -8.8086    2.6589   -1.3035 C   0  0  0  0  0  0  0  0  0  0  0  0
  -10.0533    2.9433   -2.0719 C   0  0  0  0  0  0  0  0  0  0  0  0
  -10.5119    4.3171   -1.8081 N   0  0  0  0  0  0  0  0  0  0  0  0
   -9.7717    5.1389   -1.2649 N   0  0  0  0  0  0  0  0  0  0  0  0
   -9.0348    5.9666   -0.7147 N   0  0  0  0  0  0  0  0  0  0  0  0
   -6.3897    0.2094    2.6711 C   0  0  0  0  0  0  0  0  0  0  0  0
   -7.6790   -0.2864    3.0902 C   0  0  0  0  0  0  0  0  0  0  0  0
   -7.9403   -1.4998    3.7329 C   0  0  0  0  0  0  0  0  0  0  0  0
   -9.2639   -1.6149    3.9196 N   0  0  0  0  0  0  0  0  0  0  0  0
   -9.9116   -0.5455    3.4395 C   0  0  0  0  0  0  0  0  0  0  0  0
   -8.9495    0.2872    2.9222 C   0  0  0  0  0  0  0  0  0  0  0  0
   -9.3676    1.5001    2.3713 C   0  0  0  0  0  0  0  0  0  0  0  0
  -10.6902    1.8826    2.3274 C   0  0  0  0  0  0  0  0  0  0  0  0
  -11.6264    1.0312    2.8491 C   0  0  0  0  0  0  0  0  0  0  0  0
  -11.2414   -0.1668    3.3975 C   0  0  0  0  0  0  0  0  0  0  0  0
   -2.0517    0.6576   -0.7191 C   0  0  0  0  0  0  0  0  0  0  0  0
   -3.1789    1.2348   -1.5220 C   0  0  0  0  0  0  0  0  0  0  0  0
   -2.7452    1.4219   -2.9818 C   0  0  0  0  0  0  0  0  0  0  0  0
   -2.3144    0.2487   -3.6275 N   0  0  0  0  0  0  0  0  0  0  0  0
   -2.9126   -0.7746   -4.0426 C   0  0  0  0  0  0  0  0  0  0  0  0
   -2.1949   -1.8626   -4.6900 N   0  0  0  0  0  0  0  0  0  0  0  0
   -4.3284   -1.0044   -3.9410 N   0  0  0  0  0  0  0  0  0  0  0  0
    0.1303   -2.4571    3.7397 C   0  0  0  0  0  0  0  0  0  0  0  0
   -0.0320   -3.4430    2.6789 C   0  0  0  0  0  0  0  0  0  0  0  0
    1.1254   -3.9517    2.0814 C   0  0  0  0  0  0  0  0  0  0  0  0
    1.0248   -4.9108    1.0723 C   0  0  0  0  0  0  0  0  0  0  0  0
   -0.2018   -5.3669    0.6523 C   0  0  0  0  0  0  0  0  0  0  0  0
   -1.3417   -4.8862    1.2207 C   0  0  0  0  0  0  0  0  0  0  0  0
   -1.2252   -3.9429    2.2124 C   0  0  0  0  0  0  0  0  0  0  0  0
    3.5849    2.0766    2.3941 C   0  0  0  0  0  0  0  0  0  0  0  0
    2.6548    2.6830    1.4236 C   0  0  0  0  0  0  0  0  0  0  0  0
    1.7913    2.1530    0.5207 C   0  0  0  0  0  0  0  0  0  0  0  0
    1.1328    3.1665   -0.1252 N   0  0  0  0  0  0  0  0  0  0  0  0
    1.6026    4.3409    0.3918 C   0  0  0  0  0  0  0  0  0  0  0  0
    2.5149    4.0273    1.3200 N   0  0  0  0  0  0  0  0  0  0  0  0
    7.5587   -0.3227   -0.3464 N   0  0  0  0  0  0  0  0  0  0  0  0
    8.2693    0.8047   -0.7757 C   0  0  0  0  0  0  0  0  0  0  0  0
    7.6162    1.7786   -1.2344 O   0  0  0  0  0  0  0  0  0  0  0  0
    9.7470    0.9575   -0.7328 C   0  0  1  0  0  0  0  0  0  0  0  0
   10.4638   -0.2175   -0.3495 N   0  0  0  0  0  0  0  0  0  0  0  0
   11.1405   -0.2985    0.9340 C   0  0  0  0  0  0  0  0  0  0  0  0
   11.0943    0.6799    1.7188 O   0  0  0  0  0  0  0  0  0  0  0  0
   11.8829   -1.5461    1.3032 C   0  0  0  0  0  0  0  0  0  0  0  0
   10.3232    1.7481   -1.8566 C   0  0  0  0  0  0  0  0  0  0  0  0
   10.0327    1.1705   -3.2194 C   0  0  0  0  0  0  0  0  0  0  0  0
   10.6738    2.0865   -4.2610 C   0  0  0  0  0  0  0  0  0  0  0  0
   10.1221    3.4829   -4.1919 C   0  0  0  0  0  0  0  0  0  0  0  0
    5.7228   -3.8580   -3.0160 H   0  0  0  0  0  0  0  0  0  0  0  0
    7.2482   -3.7922   -1.9726 H   0  0  0  0  0  0  0  0  0  0  0  0
    6.4299   -5.3496   -2.3744 H   0  0  0  0  0  0  0  0  0  0  0  0
    5.8315   -4.9777   -0.1597 H   0  0  0  0  0  0  0  0  0  0  0  0
    4.4071   -4.2175   -0.9500 H   0  0  0  0  0  0  0  0  0  0  0  0
    6.9966   -3.0083    0.0870 H   0  0  0  0  0  0  0  0  0  0  0  0
    5.3745   -2.8224    0.7960 H   0  0  0  0  0  0  0  0  0  0  0  0
    4.6373   -1.6828   -1.3787 H   0  0  0  0  0  0  0  0  0  0  0  0
    6.2938   -1.7973   -1.9630 H   0  0  0  0  0  0  0  0  0  0  0  0
    5.8493    0.4649   -1.1495 H   0  0  0  0  0  0  0  0  0  0  0  0
    3.4941   -0.1677    0.2028 H   0  0  0  0  0  0  0  0  0  0  0  0
    4.4681    0.3062    3.0313 H   0  0  0  0  0  0  0  0  0  0  0  0
    1.5310   -1.2624    1.5322 H   0  0  0  0  0  0  0  0  0  0  0  0
    0.3798   -0.4495    4.2693 H   0  0  0  0  0  0  0  0  0  0  0  0
   -0.2305   -0.4308    0.7238 H   0  0  0  0  0  0  0  0  0  0  0  0
   -2.4254    1.3671    1.2743 H   0  0  0  0  0  0  0  0  0  0  0  0
   -4.7721    1.3433    0.6026 H   0  0  0  0  0  0  0  0  0  0  0  0
   -5.8928   -1.3605    1.3781 H   0  0  0  0  0  0  0  0  0  0  0  0
   -6.2036    1.6256   -0.8089 H   0  0  0  0  0  0  0  0  0  0  0  0
   -9.0741    0.5658   -1.1854 H   0  0  0  0  0  0  0  0  0  0  0  0
   -9.7934    0.5196   -3.8068 H   0  0  0  0  0  0  0  0  0  0  0  0
   -8.7062    1.5064   -4.8661 H   0  0  0  0  0  0  0  0  0  0  0  0
   -8.0180    3.4041   -1.5714 H   0  0  0  0  0  0  0  0  0  0  0  0
   -9.0369    2.8773   -0.2297 H   0  0  0  0  0  0  0  0  0  0  0  0
   -9.9088    2.9319   -3.1856 H   0  0  0  0  0  0  0  0  0  0  0  0
  -10.8954    2.2797   -1.8728 H   0  0  0  0  0  0  0  0  0  0  0  0
   -5.5435   -0.0990    3.3282 H   0  0  0  0  0  0  0  0  0  0  0  0
   -6.3432    1.3289    2.6513 H   0  0  0  0  0  0  0  0  0  0  0  0
   -7.1989   -2.2129    4.0262 H   0  0  0  0  0  0  0  0  0  0  0  0
   -9.6826   -2.4569    4.3862 H   0  0  0  0  0  0  0  0  0  0  0  0
   -8.5724    2.1204    1.9832 H   0  0  0  0  0  0  0  0  0  0  0  0
  -10.9072    2.8421    1.8792 H   0  0  0  0  0  0  0  0  0  0  0  0
  -12.6653    1.3182    2.8212 H   0  0  0  0  0  0  0  0  0  0  0  0
  -11.9685   -0.8491    3.8157 H   0  0  0  0  0  0  0  0  0  0  0  0
   -1.1809    1.3687   -0.8967 H   0  0  0  0  0  0  0  0  0  0  0  0
   -1.7117   -0.2622   -1.2712 H   0  0  0  0  0  0  0  0  0  0  0  0
   -4.0905    0.5884   -1.5212 H   0  0  0  0  0  0  0  0  0  0  0  0
   -3.5058    2.2439   -1.2024 H   0  0  0  0  0  0  0  0  0  0  0  0
   -1.8949    2.1395   -2.9508 H   0  0  0  0  0  0  0  0  0  0  0  0
   -3.5841    1.9138   -3.5060 H   0  0  0  0  0  0  0  0  0  0  0  0
   -1.9664   -2.7442   -4.1540 H   0  0  0  0  0  0  0  0  0  0  0  0
   -1.9045   -1.7711   -5.6908 H   0  0  0  0  0  0  0  0  0  0  0  0
   -4.9801   -0.8484   -4.7536 H   0  0  0  0  0  0  0  0  0  0  0  0
   -4.7577   -1.3385   -3.0512 H   0  0  0  0  0  0  0  0  0  0  0  0
   -0.7547   -2.5715    4.4364 H   0  0  0  0  0  0  0  0  0  0  0  0
    1.0050   -2.6973    4.4103 H   0  0  0  0  0  0  0  0  0  0  0  0
    2.0731   -3.5998    2.4061 H   0  0  0  0  0  0  0  0  0  0  0  0
    1.9274   -5.3018    0.6092 H   0  0  0  0  0  0  0  0  0  0  0  0
   -0.1869   -6.1196   -0.1471 H   0  0  0  0  0  0  0  0  0  0  0  0
   -2.3040   -5.2471    0.8872 H   0  0  0  0  0  0  0  0  0  0  0  0
   -2.1207   -3.5766    2.6585 H   0  0  0  0  0  0  0  0  0  0  0  0
    3.1643    2.2914    3.3983 H   0  0  0  0  0  0  0  0  0  0  0  0
    4.5982    2.4949    2.3993 H   0  0  0  0  0  0  0  0  0  0  0  0
    1.5937    1.1211    0.2994 H   0  0  0  0  0  0  0  0  0  0  0  0
    1.3191    5.3503    0.1275 H   0  0  0  0  0  0  0  0  0  0  0  0
    3.0408    4.7627    1.8804 H   0  0  0  0  0  0  0  0  0  0  0  0
    8.0951   -1.1437    0.0438 H   0  0  0  0  0  0  0  0  0  0  0  0
    9.8843    1.6610    0.1855 H   0  0  0  0  0  0  0  0  0  0  0  0
   10.5380   -1.0685   -0.9747 H   0  0  0  0  0  0  0  0  0  0  0  0
   12.6990   -1.3034    2.0243 H   0  0  0  0  0  0  0  0  0  0  0  0
   11.2417   -2.2869    1.8164 H   0  0  0  0  0  0  0  0  0  0  0  0
   12.3105   -2.0346    0.4086 H   0  0  0  0  0  0  0  0  0  0  0  0
    9.9168    2.8022   -1.8573 H   0  0  0  0  0  0  0  0  0  0  0  0
   11.4275    1.9021   -1.7489 H   0  0  0  0  0  0  0  0  0  0  0  0
   10.4707    0.1664   -3.3819 H   0  0  0  0  0  0  0  0  0  0  0  0
    8.9467    1.1865   -3.4411 H   0  0  0  0  0  0  0  0  0  0  0  0
   11.7765    2.1376   -4.1310 H   0  0  0  0  0  0  0  0  0  0  0  0
   10.4449    1.6453   -5.2497 H   0  0  0  0  0  0  0  0  0  0  0  0
   10.2536    3.9850   -5.1884 H   0  0  0  0  0  0  0  0  0  0  0  0
   10.7716    4.0755   -3.4852 H   0  0  0  0  0  0  0  0  0  0  0  0
    9.0924    3.5618   -3.8222 H   0  0  0  0  0  0  0  0  0  0  0  0
  1  2  1  0
  2  3  1  0
  3  4  1  0
  4  5  1  0
  5  6  1  0
  6  7  2  0
  6  8  1  0
  8  9  1  0
  9 10  1  0
 10 11  2  0
 10 12  1  0
 12 13  1  0
 13 14  1  0
 14 15  2  0
 14 16  1  0
 16 17  1  0
 17 18  1  0
 18 19  2  0
 18 20  1  0
 20 21  1  0
 21 22  1  0
 22 23  2  0
 22 24  1  0
 24 25  1  0
 25 26  1  0
 26 27  2  0
 26 28  1  0
 25 29  1  0
 29 30  1  0
 30 31  1  0
 31 32  2  0
 32 33  2  0
 21 34  1  0
 34 35  1  0
 35 36  2  0
 36 37  1  0
 37 38  1  0
 38 39  2  0
 39 40  1  0
 40 41  2  0
 41 42  1  0
 42 43  2  0
 17 44  1  0
 44 45  1  0
 45 46  1  0
 46 47  1  0
 47 48  2  3
 48 49  1  0
 48 50  1  0
 13 51  1  0
 51 52  1  0
 52 53  2  0
 53 54  1  0
 54 55  2  0
 55 56  1  0
 56 57  2  0
  9 58  1  0
 58 59  1  0
 59 60  2  0
 60 61  1  0
 61 62  2  0
 62 63  1  0
  5 64  1  0
 64 65  1  0
 65 66  2  0
 65 67  1  0
 67 68  1  0
 68 69  1  0
 69 70  2  0
 69 71  1  0
 67 72  1  0
 72 73  1  0
 73 74  1  0
 74 75  1  0
 39 35  1  0
 57 52  1  0
 63 59  1  0
 43 38  1  0
  1 76  1  0
  1 77  1  0
  1 78  1  0
  2 79  1  0
  2 80  1  0
  3 81  1  0
  3 82  1  0
  4 83  1  0
  4 84  1  0
  5 85  1  6
  8 86  1  0
  9 87  1  1
 12 88  1  0
 13 89  1  1
 16 90  1  0
 17 91  1  1
 20 92  1  0
 21 93  1  1
 24 94  1  0
 25 95  1  1
 28 96  1  0
 28 97  1  0
 29 98  1  0
 29 99  1  0
 30100  1  0
 30101  1  0
 34102  1  0
 34103  1  0
 36104  1  0
 37105  1  0
 40106  1  0
 41107  1  0
 42108  1  0
 43109  1  0
 44110  1  0
 44111  1  0
 45112  1  0
 45113  1  0
 46114  1  0
 46115  1  0
 49116  1  0
 49117  1  0
 50118  1  0
 50119  1  0
 51120  1  0
 51121  1  0
 53122  1  0
 54123  1  0
 55124  1  0
 56125  1  0
 57126  1  0
 58127  1  0
 58128  1  0
 60129  1  0
 62130  1  0
 63131  1  0
 64132  1  0
 67133  1  1
 68134  1  0
 71135  1  0
 71136  1  0
 71137  1  0
 72138  1  0
 72139  1  0
 73140  1  0
 73141  1  0
 74142  1  0
 74143  1  0
 75144  1  0
 75145  1  0
 75146  1  0
M  CHG  2  32   1  33  -1
M  END
>  <Ligand ID>  (1) 
LIG0001765

>  <Ligand>  (1) 
CHEMBL3352878

>  <SMILES>  (1) 
CCCC[C@@H](C(=O)N[C@H](C(=O)N[C@@H](C(=O)N[C@H](C(=O)N[C@H](C(=O)N[C@H](C(=O)N)CCN=[N+]=[N-])Cc1c[nH]c2c1cccc2)CCCN=C(N)N)Cc1ccccc1)Cc1cnc[nH]1)NC(=O)[C@@H](NC(=O)C)CCCC

>  <CID>  (1) 
118722932.0

>  <ChEMBL ID>  (1) 
nan

>  <InChiKey>  (1) 
FAONKRMCZFSASU-PCYFNTAWSA-N

>  <InChi>  (1) 
InChI=1S/C50H71N17O8/c1-4-6-17-37(60-30(3)68)44(70)62-38(18-7-5-2)45(71)66-42(26-33-28-55-29-58-33)49(75)64-40(24-31-14-9-8-10-15-31)47(73)63-39(20-13-22-56-50(52)53)46(72)65-41(25-32-27-57-35-19-12-11-16-34(32)35)48(74)61-36(43(51)69)21-23-59-67-54/h8-12,14-16,19,27-29,36-42,57H,4-7,13,17-18,20-26H2,1-3H3,(H2,51,69)(H,55,58)(H,60,68)(H,61,74)(H,62,70)(H,63,73)(H,64,75)(H,65,72)(H,66,71)(H4,52,53,56)/t36-,37-,38-,39-,40+,41-,42-/m0/s1

>  <IUPAC Name>  (1) 
(2S)-2-acetamido-N-[(2S)-1-[[(2S)-1-[[(2R)-1-[[(2S)-1-[[(2S)-1-[[(2S)-1-amino-4-azido-1-oxobutan-2-yl]amino]-3-(1H-indol-3-yl)-1-oxopropan-2-yl]amino]-5-(diaminomethylideneamino)-1-oxopentan-2-yl]amino]-1-oxo-3-phenylpropan-2-yl]amino]-3-(1H-imidazol-5-yl)-1-oxopropan-2-yl]amino]-1-oxohexan-2-yl]hexanamide

$$$$
