
     RDKit          3D

 47 47  0  0  0  0  0  0  0  0999 V2000
    7.2365   -0.3936   -1.7585 O   0  0  0  0  0  0  0  0  0  0  0  0
    6.0129   -0.7152   -1.1131 C   0  0  0  0  0  0  0  0  0  0  0  0
    5.4207   -1.7025   -1.5873 O   0  0  0  0  0  0  0  0  0  0  0  0
    5.6252    0.1381   -0.0052 C   0  0  0  0  0  0  0  0  0  0  0  0
    4.4835   -0.0842    0.7008 O   0  0  0  0  0  0  0  0  0  0  0  0
    3.1673   -0.1464    0.4217 C   0  0  0  0  0  0  0  0  0  0  0  0
    2.4619    1.0694    0.3984 C   0  0  0  0  0  0  0  0  0  0  0  0
    3.1670    2.3594    0.6723 C   0  0  0  0  0  0  0  0  0  0  0  0
    1.1164    1.1326    0.1282 C   0  0  0  0  0  0  0  0  0  0  0  0
    0.4117    0.0024   -0.1297 C   0  0  0  0  0  0  0  0  0  0  0  0
    1.0450   -1.1994   -0.1192 C   0  0  0  0  0  0  0  0  0  0  0  0
    2.4144   -1.2655    0.1562 C   0  0  0  0  0  0  0  0  0  0  0  0
    3.0168   -2.5994    0.1857 C   0  0  0  0  0  0  0  0  0  0  0  0
   -1.0583    0.0670   -0.4259 C   0  0  0  0  0  0  0  0  0  0  0  0
   -2.0382   -0.3564    1.0233 P   0  0  0  0  0  0  0  0  0  0  0  0
   -2.8001   -1.6351    0.7404 O   0  0  0  0  0  0  0  0  0  0  0  0
   -3.1820    0.9604    1.4383 C   0  0  0  0  0  0  0  0  0  0  0  0
   -4.6197    0.6439    1.1059 C   0  0  0  0  0  0  0  0  0  0  0  0
   -4.8534    0.3738   -0.3491 C   0  0  1  0  0  0  0  0  0  0  0  0
   -6.3069    0.0719   -0.5686 C   0  0  0  0  0  0  0  0  0  0  0  0
   -6.9630    0.8010   -1.3541 O   0  0  0  0  0  0  0  0  0  0  0  0
   -6.9464   -0.9841    0.0670 O   0  0  0  0  0  0  0  0  0  0  0  0
   -4.5458    1.5193   -1.1603 N   0  0  0  0  0  0  0  0  0  0  0  0
   -1.0108   -0.6109    2.3464 O   0  0  0  0  0  0  0  0  0  0  0  0
   -1.3668   -0.7414   -1.5194 O   0  0  0  0  0  0  0  0  0  0  0  0
    7.7082   -1.1019   -2.3194 H   0  0  0  0  0  0  0  0  0  0  0  0
    6.4828    0.0858    0.7561 H   0  0  0  0  0  0  0  0  0  0  0  0
    5.7358    1.2083   -0.3610 H   0  0  0  0  0  0  0  0  0  0  0  0
    4.1024    2.2470    1.2250 H   0  0  0  0  0  0  0  0  0  0  0  0
    2.4751    3.1055    1.0986 H   0  0  0  0  0  0  0  0  0  0  0  0
    3.4480    2.7452   -0.3497 H   0  0  0  0  0  0  0  0  0  0  0  0
    0.6061    2.1029    0.1205 H   0  0  0  0  0  0  0  0  0  0  0  0
    0.4890   -2.1021   -0.3238 H   0  0  0  0  0  0  0  0  0  0  0  0
    2.3615   -3.3027    0.7711 H   0  0  0  0  0  0  0  0  0  0  0  0
    3.9971   -2.6359    0.7193 H   0  0  0  0  0  0  0  0  0  0  0  0
    3.0722   -3.0203   -0.8379 H   0  0  0  0  0  0  0  0  0  0  0  0
   -1.2914    1.1108   -0.7103 H   0  0  0  0  0  0  0  0  0  0  0  0
   -2.9306    1.8754    0.8313 H   0  0  0  0  0  0  0  0  0  0  0  0
   -3.1182    1.2279    2.4996 H   0  0  0  0  0  0  0  0  0  0  0  0
   -4.9453   -0.2154    1.7201 H   0  0  0  0  0  0  0  0  0  0  0  0
   -5.2134    1.5289    1.4321 H   0  0  0  0  0  0  0  0  0  0  0  0
   -4.2522   -0.4782   -0.6787 H   0  0  0  0  0  0  0  0  0  0  0  0
   -7.9649   -0.9115    0.1441 H   0  0  0  0  0  0  0  0  0  0  0  0
   -5.1805    1.5593   -1.9675 H   0  0  0  0  0  0  0  0  0  0  0  0
   -3.5411    1.5266   -1.4330 H   0  0  0  0  0  0  0  0  0  0  0  0
   -0.6917   -1.5619    2.3810 H   0  0  0  0  0  0  0  0  0  0  0  0
   -1.2368   -1.6987   -1.3442 H   0  0  0  0  0  0  0  0  0  0  0  0
  1  2  1  0
  2  3  2  0
  2  4  1  0
  4  5  1  0
  5  6  1  0
  6  7  2  0
  7  8  1  0
  7  9  1  0
  9 10  2  0
 10 11  1  0
 11 12  2  0
 12 13  1  0
 10 14  1  0
 14 15  1  0
 15 16  2  0
 15 17  1  0
 17 18  1  0
 18 19  1  0
 19 20  1  0
 20 21  2  0
 20 22  1  0
 19 23  1  0
 15 24  1  0
 14 25  1  0
 12  6  1  0
  1 26  1  0
  4 27  1  0
  4 28  1  0
  8 29  1  0
  8 30  1  0
  8 31  1  0
  9 32  1  0
 11 33  1  0
 13 34  1  0
 13 35  1  0
 13 36  1  0
 14 37  1  0
 17 38  1  0
 17 39  1  0
 18 40  1  0
 18 41  1  0
 19 42  1  6
 22 43  1  0
 23 44  1  0
 23 45  1  0
 24 46  1  0
 25 47  1  0
M  END
>  <Ligand ID>  (1) 
LIG0001717

>  <Ligand>  (1) 
CHEMBL3912541

>  <SMILES>  (1) 
OC(=O)COc1c(C)cc(cc1C)C(P(=O)(CC[C@@H](C(=O)O)N)O)O

>  <CID>  (1) 
71041746.0

>  <ChEMBL ID>  (1) 
nan

>  <InChiKey>  (1) 
HECCCCVGDLWFAY-VPHXOMNUSA-N

>  <InChi>  (1) 
InChI=1S/C15H22NO8P/c1-8-5-10(6-9(2)13(8)24-7-12(17)18)15(21)25(22,23)4-3-11(16)14(19)20/h5-6,11,15,21H,3-4,7,16H2,1-2H3,(H,17,18)(H,19,20)(H,22,23)/t11-,15?/m0/s1

>  <IUPAC Name>  (1) 
(2S)-2-amino-4-[[[4-(carboxymethoxy)-3,5-dimethylphenyl]-hydroxymethyl]-hydroxyphosphoryl]butanoic acid

$$$$
