
     RDKit          3D

 39 42  0  0  0  0  0  0  0  0999 V2000
    5.6380   -0.5046    2.3086 C   0  0  0  0  0  0  0  0  0  0  0  0
    4.6477    0.6505    2.4013 C   0  0  0  0  0  0  0  0  0  0  0  0
    3.8903    0.6401    1.1450 N   0  0  0  0  0  0  0  0  0  0  0  0
    4.2639    1.3106    0.0733 N   0  0  0  0  0  0  0  0  0  0  0  0
    3.3636    1.0770   -0.8574 N   0  0  0  0  0  0  0  0  0  0  0  0
    2.4316    0.2625   -0.3648 C   0  0  0  0  0  0  0  0  0  0  0  0
    2.7573   -0.0198    0.9041 N   0  0  0  0  0  0  0  0  0  0  0  0
    1.2455   -0.2428   -1.0886 C   0  0  1  0  0  0  0  0  0  0  0  0
    0.0667   -0.1700   -0.3243 O   0  0  0  0  0  0  0  0  0  0  0  0
   -0.8679   -0.3504   -1.3202 C   0  0  2  0  0  0  0  0  0  0  0  0
   -0.5214    0.8317   -2.2349 C   0  0  1  0  0  0  0  0  0  0  0  0
    0.9981    0.6444   -2.2968 C   0  0  2  0  0  0  0  0  0  0  0  0
    1.3625   -0.0889   -3.4169 O   0  0  0  0  0  0  0  0  0  0  0  0
   -1.1277    0.7225   -3.4636 O   0  0  0  0  0  0  0  0  0  0  0  0
   -2.2294   -0.2710   -0.8643 N   0  0  0  0  0  0  0  0  0  0  0  0
   -3.2761   -0.1111   -1.7078 C   0  0  0  0  0  0  0  0  0  0  0  0
   -4.4107   -0.0727   -0.9928 N   0  0  0  0  0  0  0  0  0  0  0  0
   -4.1048   -0.2055    0.2935 C   0  0  0  0  0  0  0  0  0  0  0  0
   -2.7418   -0.3290    0.3689 C   0  0  0  0  0  0  0  0  0  0  0  0
   -2.1759   -0.4760    1.5556 N   0  0  0  0  0  0  0  0  0  0  0  0
   -2.9506   -0.5002    2.6534 C   0  0  0  0  0  0  0  0  0  0  0  0
   -2.2689   -0.6930    4.2730 Cl  0  0  0  0  0  0  0  0  0  0  0  0
   -4.3018   -0.3794    2.5979 N   0  0  0  0  0  0  0  0  0  0  0  0
   -4.9092   -0.2280    1.4010 C   0  0  0  0  0  0  0  0  0  0  0  0
   -6.3223   -0.0952    1.2664 N   0  0  0  0  0  0  0  0  0  0  0  0
    5.1155   -1.3412    1.7701 H   0  0  0  0  0  0  0  0  0  0  0  0
    6.4260   -0.1778    1.5900 H   0  0  0  0  0  0  0  0  0  0  0  0
    6.0401   -0.7951    3.2916 H   0  0  0  0  0  0  0  0  0  0  0  0
    4.0092    0.5919    3.2901 H   0  0  0  0  0  0  0  0  0  0  0  0
    5.2623    1.5689    2.4585 H   0  0  0  0  0  0  0  0  0  0  0  0
    1.3530   -1.3034   -1.3877 H   0  0  0  0  0  0  0  0  0  0  0  0
   -0.6941   -1.3149   -1.8397 H   0  0  0  0  0  0  0  0  0  0  0  0
   -0.7875    1.7485   -1.6855 H   0  0  0  0  0  0  0  0  0  0  0  0
    1.5431    1.5848   -2.2205 H   0  0  0  0  0  0  0  0  0  0  0  0
    0.9818   -0.9998   -3.3304 H   0  0  0  0  0  0  0  0  0  0  0  0
   -0.7601   -0.0779   -3.9147 H   0  0  0  0  0  0  0  0  0  0  0  0
   -3.2627   -0.0228   -2.7881 H   0  0  0  0  0  0  0  0  0  0  0  0
   -6.7701    0.7610    1.6710 H   0  0  0  0  0  0  0  0  0  0  0  0
   -6.9134   -0.8120    0.7858 H   0  0  0  0  0  0  0  0  0  0  0  0
  1  2  1  0
  2  3  1  0
  3  4  1  0
  4  5  2  0
  5  6  1  0
  6  7  2  0
  6  8  1  0
  8  9  1  0
  9 10  1  0
 10 11  1  0
 11 12  1  0
 12 13  1  0
 11 14  1  0
 10 15  1  0
 15 16  1  0
 16 17  2  0
 17 18  1  0
 18 19  2  0
 19 20  1  0
 20 21  2  0
 21 22  1  0
 21 23  1  0
 23 24  2  0
 24 25  1  0
  7  3  1  0
 12  8  1  0
 19 15  1  0
 24 18  1  0
  1 26  1  0
  1 27  1  0
  1 28  1  0
  2 29  1  0
  2 30  1  0
  8 31  1  6
 10 32  1  6
 11 33  1  1
 12 34  1  1
 13 35  1  0
 14 36  1  0
 16 37  1  0
 25 38  1  0
 25 39  1  0
M  END
>  <Ligand ID>  (1) 
LIG0001919

>  <Ligand>  (1) 
CHEMBL3414937

>  <SMILES>  (1) 
CCn1nnc(n1)[C@H]1O[C@H]([C@@H]([C@@H]1O)O)n1cnc2c1nc(Cl)nc2N

>  <CID>  (1) 
56627882.0

>  <ChEMBL ID>  (1) 
nan

>  <InChiKey>  (1) 
KCFSAWYFAYDKQD-QMWPFBOUSA-N

>  <InChi>  (1) 
InChI=1S/C12H14ClN9O3/c1-2-22-19-9(18-20-22)7-5(23)6(24)11(25-7)21-3-15-4-8(14)16-12(13)17-10(4)21/h3,5-7,11,23-24H,2H2,1H3,(H2,14,16,17)/t5-,6+,7-,11+/m0/s1

>  <IUPAC Name>  (1) 
(2R,3R,4S,5R)-2-(6-amino-2-chloropurin-9-yl)-5-(2-ethyltetrazol-5-yl)oxolane-3,4-diol

$$$$
