
     RDKit          3D

 29 29  0  0  0  0  0  0  0  0999 V2000
   -4.0283    1.1083   -0.3358 N   0  0  0  0  0  0  0  0  0  0  0  0
   -3.5933   -0.2769   -0.4108 C   0  0  0  0  0  0  0  0  0  0  0  0
   -2.2579   -0.3723    0.3329 C   0  0  1  0  0  0  0  0  0  0  0  0
   -1.6466   -1.7771    0.3544 C   0  0  0  0  0  0  0  0  0  0  0  0
   -1.0621   -0.6570   -0.4517 C   0  0  2  0  0  0  0  0  0  0  0  0
    0.3003   -0.1915   -0.1326 C   0  0  0  0  0  0  0  0  0  0  0  0
    1.3507   -1.0247   -0.5291 C   0  0  0  0  0  0  0  0  0  0  0  0
    2.6686   -0.7105   -0.2734 C   0  0  0  0  0  0  0  0  0  0  0  0
    2.9743    0.4720    0.4007 C   0  0  0  0  0  0  0  0  0  0  0  0
    1.9495    1.3059    0.7988 C   0  0  0  0  0  0  0  0  0  0  0  0
    0.6232    0.9611    0.5252 C   0  0  0  0  0  0  0  0  0  0  0  0
   -0.7105    2.1866    1.0899 Br  0  0  0  0  0  0  0  0  0  0  0  0
    4.3601    0.8645    0.7044 C   0  0  0  0  0  0  0  0  0  0  0  0
    0.6886    0.0000    0.0000 Cl  0  0  0  0  0  0  0  0  0  0  0  0
   -3.8516    1.4568    0.6529 H   0  0  0  0  0  0  0  0  0  0  0  0
   -3.4559    1.6792   -1.0191 H   0  0  0  0  0  0  0  0  0  0  0  0
   -3.4362   -0.5474   -1.4783 H   0  0  0  0  0  0  0  0  0  0  0  0
   -4.3323   -0.9569    0.0257 H   0  0  0  0  0  0  0  0  0  0  0  0
   -2.2173    0.1425    1.2948 H   0  0  0  0  0  0  0  0  0  0  0  0
   -1.1319   -2.1000    1.2856 H   0  0  0  0  0  0  0  0  0  0  0  0
   -2.1750   -2.5956   -0.1728 H   0  0  0  0  0  0  0  0  0  0  0  0
   -1.2318   -0.7831   -1.5643 H   0  0  0  0  0  0  0  0  0  0  0  0
    1.1712   -1.9546   -1.0554 H   0  0  0  0  0  0  0  0  0  0  0  0
    3.4953   -1.3528   -0.5780 H   0  0  0  0  0  0  0  0  0  0  0  0
    2.1800    2.2273    1.3236 H   0  0  0  0  0  0  0  0  0  0  0  0
    4.7517    1.5235   -0.0954 H   0  0  0  0  0  0  0  0  0  0  0  0
    4.9511   -0.0507    0.8469 H   0  0  0  0  0  0  0  0  0  0  0  0
    4.3546    1.4235    1.6598 H   0  0  0  0  0  0  0  0  0  0  0  0
   -0.6886    0.0000    0.0000 H   0  0  0  0  0  0  0  0  0  0  0  0
  1  2  1  0
  2  3  1  0
  3  4  1  0
  4  5  1  0
  5  6  1  0
  6  7  2  0
  7  8  1  0
  8  9  2  0
  9 10  1  0
 10 11  2  0
 11 12  1  0
  9 13  1  0
  5  3  1  0
 11  6  1  0
  1 15  1  0
  1 16  1  0
  2 17  1  0
  2 18  1  0
  3 19  1  1
  4 20  1  0
  4 21  1  0
  5 22  1  6
  7 23  1  0
  8 24  1  0
 10 25  1  0
 13 26  1  0
 13 27  1  0
 13 28  1  0
 14 29  1  0
M  END
>  <Ligand ID>  (1) 
LIG0003700

>  <Ligand>  (1) 
CHEMBL475641

>  <SMILES>  (1) 
NC[C@H]1C[C@@H]1c1ccc(cc1Br)C.Cl

>  <CID>  (1) 
44572175.0

>  <ChEMBL ID>  (1) 
nan

>  <InChiKey>  (1) 
MZHBKCSRGMUWGL-SCYNACPDSA-N

>  <InChi>  (1) 
InChI=1S/C11H14BrN.ClH/c1-7-2-3-9(11(12)4-7)10-5-8(10)6-13;/h2-4,8,10H,5-6,13H2,1H3;1H/t8-,10+;/m1./s1

>  <IUPAC Name>  (1) 
[(1S,2S)-2-(2-bromo-4-methylphenyl)cyclopropyl]methanamine;hydrochloride

$$$$
