
     RDKit          3D

 73 76  0  0  0  0  0  0  0  0999 V2000
    2.3453    7.5191    0.7135 N   0  0  0  0  0  0  0  0  0  0  0  0
    1.2310    6.6315    0.7433 C   0  0  0  0  0  0  0  0  0  0  0  0
    1.4479    5.3794    0.9473 N   0  0  0  0  0  0  0  0  0  0  0  0
    0.3645    4.4204    0.9904 C   0  0  0  0  0  0  0  0  0  0  0  0
    0.7282    3.1848    0.1492 C   0  0  0  0  0  0  0  0  0  0  0  0
   -0.4286    2.2335    0.2339 C   0  0  0  0  0  0  0  0  0  0  0  0
   -0.2794    0.9616   -0.5482 C   0  0  1  0  0  0  0  0  0  0  0  0
    0.8835    0.1465   -0.1418 C   0  0  0  0  0  0  0  0  0  0  0  0
    0.6168   -0.9152    0.5201 O   0  0  0  0  0  0  0  0  0  0  0  0
    2.2255    0.4272   -0.4146 N   0  0  0  0  0  0  0  0  0  0  0  0
    3.2777   -0.4833    0.0583 C   0  0  2  0  0  0  0  0  0  0  0  0
    4.1515    0.2699    0.9571 C   0  0  0  0  0  0  0  0  0  0  0  0
    4.0065    1.5045    1.2299 O   0  0  0  0  0  0  0  0  0  0  0  0
    5.2728   -0.3524    1.6186 N   0  0  0  0  0  0  0  0  0  0  0  0
    3.9744   -1.1480   -1.0987 C   0  0  0  0  0  0  0  0  0  0  0  0
    5.0539   -2.0815   -0.6978 C   0  0  0  0  0  0  0  0  0  0  0  0
    4.7893   -3.4256   -0.4279 C   0  0  0  0  0  0  0  0  0  0  0  0
    5.7759   -4.3116   -0.0612 C   0  0  0  0  0  0  0  0  0  0  0  0
    7.0860   -3.9007    0.0561 C   0  0  0  0  0  0  0  0  0  0  0  0
    7.3686   -2.5785   -0.2058 C   0  0  0  0  0  0  0  0  0  0  0  0
    6.3780   -1.7013   -0.5712 C   0  0  0  0  0  0  0  0  0  0  0  0
   -1.4503    0.1434   -0.1304 N   0  0  0  0  0  0  0  0  0  0  0  0
   -2.3776   -0.2518   -1.1399 C   0  0  0  0  0  0  0  0  0  0  0  0
   -2.2091    0.0840   -2.3564 O   0  0  0  0  0  0  0  0  0  0  0  0
   -3.5402   -1.0689   -0.6997 C   0  0  0  0  0  0  0  0  0  0  0  0
   -4.3747   -1.3641   -1.9277 C   0  0  0  0  0  0  0  0  0  0  0  0
   -5.5357   -2.2554   -1.5755 C   0  0  0  0  0  0  0  0  0  0  0  0
   -6.3835   -1.5358   -0.5530 C   0  0  0  0  0  0  0  0  0  0  0  0
   -5.5446   -1.2798    0.6578 C   0  0  0  0  0  0  0  0  0  0  0  0
   -4.3597   -0.3815    0.3484 C   0  0  0  0  0  0  0  0  0  0  0  0
   -5.0686   -2.6061    1.2496 C   0  0  0  0  0  0  0  0  0  0  0  0
   -4.2098   -3.2741    0.2013 C   0  0  0  0  0  0  0  0  0  0  0  0
   -3.0410   -2.3793   -0.0857 C   0  0  0  0  0  0  0  0  0  0  0  0
   -5.0099   -3.5619   -1.0447 C   0  0  0  0  0  0  0  0  0  0  0  0
   -0.0543    7.1937    0.5443 N   0  0  0  0  0  0  0  0  0  0  0  0
    2.3409    8.3979    0.1447 H   0  0  0  0  0  0  0  0  0  0  0  0
    3.2011    7.3024    1.2696 H   0  0  0  0  0  0  0  0  0  0  0  0
   -0.5259    4.9043    0.5259 H   0  0  0  0  0  0  0  0  0  0  0  0
    0.1237    4.1584    2.0283 H   0  0  0  0  0  0  0  0  0  0  0  0
    0.9498    3.5396   -0.8542 H   0  0  0  0  0  0  0  0  0  0  0  0
    1.6422    2.7514    0.6488 H   0  0  0  0  0  0  0  0  0  0  0  0
   -1.3693    2.7224   -0.1412 H   0  0  0  0  0  0  0  0  0  0  0  0
   -0.5992    1.9240    1.2994 H   0  0  0  0  0  0  0  0  0  0  0  0
   -0.3811    1.1017   -1.6356 H   0  0  0  0  0  0  0  0  0  0  0  0
    2.4784    1.2691   -0.9567 H   0  0  0  0  0  0  0  0  0  0  0  0
    2.7812   -1.3210    0.6246 H   0  0  0  0  0  0  0  0  0  0  0  0
    6.1980    0.1034    1.6956 H   0  0  0  0  0  0  0  0  0  0  0  0
    5.0828   -1.3076    2.0196 H   0  0  0  0  0  0  0  0  0  0  0  0
    3.2999   -1.6529   -1.7845 H   0  0  0  0  0  0  0  0  0  0  0  0
    4.4921   -0.3370   -1.6826 H   0  0  0  0  0  0  0  0  0  0  0  0
    3.7857   -3.8119   -0.5012 H   0  0  0  0  0  0  0  0  0  0  0  0
    5.5696   -5.3618    0.1497 H   0  0  0  0  0  0  0  0  0  0  0  0
    7.8926   -4.5419    0.3366 H   0  0  0  0  0  0  0  0  0  0  0  0
    8.4003   -2.2335   -0.1184 H   0  0  0  0  0  0  0  0  0  0  0  0
    6.6659   -0.6775   -0.7667 H   0  0  0  0  0  0  0  0  0  0  0  0
   -1.5638   -0.1178    0.8748 H   0  0  0  0  0  0  0  0  0  0  0  0
   -4.7901   -0.3906   -2.2735 H   0  0  0  0  0  0  0  0  0  0  0  0
   -3.7183   -1.8389   -2.6744 H   0  0  0  0  0  0  0  0  0  0  0  0
   -6.1331   -2.4147   -2.4874 H   0  0  0  0  0  0  0  0  0  0  0  0
   -7.2683   -2.1061   -0.2330 H   0  0  0  0  0  0  0  0  0  0  0  0
   -6.6632   -0.5518   -0.9907 H   0  0  0  0  0  0  0  0  0  0  0  0
   -6.1918   -0.8043    1.4413 H   0  0  0  0  0  0  0  0  0  0  0  0
   -3.7740   -0.3252    1.2938 H   0  0  0  0  0  0  0  0  0  0  0  0
   -4.7559    0.5982    0.0461 H   0  0  0  0  0  0  0  0  0  0  0  0
   -5.9712   -3.2015    1.4521 H   0  0  0  0  0  0  0  0  0  0  0  0
   -4.4437   -2.4254    2.1355 H   0  0  0  0  0  0  0  0  0  0  0  0
   -3.7814   -4.2227    0.6195 H   0  0  0  0  0  0  0  0  0  0  0  0
   -2.2739   -2.8360   -0.7378 H   0  0  0  0  0  0  0  0  0  0  0  0
   -2.5443   -2.1226    0.8722 H   0  0  0  0  0  0  0  0  0  0  0  0
   -4.3545   -3.9874   -1.8118 H   0  0  0  0  0  0  0  0  0  0  0  0
   -5.8526   -4.2336   -0.7694 H   0  0  0  0  0  0  0  0  0  0  0  0
   -0.5648    7.5917    1.3714 H   0  0  0  0  0  0  0  0  0  0  0  0
   -0.4943    7.2159   -0.4068 H   0  0  0  0  0  0  0  0  0  0  0  0
  1  2  1  0
  2  3  2  3
  3  4  1  0
  4  5  1  0
  5  6  1  0
  6  7  1  0
  7  8  1  0
  8  9  2  0
  8 10  1  0
 10 11  1  0
 11 12  1  0
 12 13  2  0
 12 14  1  0
 11 15  1  0
 15 16  1  0
 16 17  2  0
 17 18  1  0
 18 19  2  0
 19 20  1  0
 20 21  2  0
  7 22  1  0
 22 23  1  0
 23 24  2  0
 23 25  1  0
 25 26  1  0
 26 27  1  0
 27 28  1  0
 28 29  1  0
 29 30  1  0
 29 31  1  0
 31 32  1  0
 32 33  1  0
 32 34  1  0
  2 35  1  0
 21 16  1  0
 33 25  1  0
 30 25  1  0
 34 27  1  0
  1 36  1  0
  1 37  1  0
  4 38  1  0
  4 39  1  0
  5 40  1  0
  5 41  1  0
  6 42  1  0
  6 43  1  0
  7 44  1  6
 10 45  1  0
 11 46  1  1
 14 47  1  0
 14 48  1  0
 15 49  1  0
 15 50  1  0
 17 51  1  0
 18 52  1  0
 19 53  1  0
 20 54  1  0
 21 55  1  0
 22 56  1  0
 26 57  1  0
 26 58  1  0
 27 59  1  0
 28 60  1  0
 28 61  1  0
 29 62  1  0
 30 63  1  0
 30 64  1  0
 31 65  1  0
 31 66  1  0
 32 67  1  0
 33 68  1  0
 33 69  1  0
 34 70  1  0
 34 71  1  0
 35 72  1  0
 35 73  1  0
M  END
>  <Ligand ID>  (1) 
LIG0000846

>  <Ligand>  (1) 
RF 9

>  <SMILES>  (1) 
NC(=NCCC[C@@H](C(=O)N[C@H](C(=O)N)Cc1ccccc1)NC(=O)C12CC3CC(C2)CC(C1)C3)N

>  <CID>  (1) 
53320361.0

>  <ChEMBL ID>  (1) 
nan

>  <InChiKey>  (1) 
UMKHUSRDQFQHAK-RNJMTYCLSA-N

>  <InChi>  (1) 
InChI=1S/C26H38N6O3/c27-22(33)21(12-16-5-2-1-3-6-16)31-23(34)20(7-4-8-30-25(28)29)32-24(35)26-13-17-9-18(14-26)11-19(10-17)15-26/h1-3,5-6,17-21H,4,7-15H2,(H2,27,33)(H,31,34)(H,32,35)(H4,28,29,30)/t17?,18?,19?,20-,21-,26?/m0/s1

>  <IUPAC Name>  (1) 
N-[(2S)-1-[[(2S)-1-amino-1-oxo-3-phenylpropan-2-yl]amino]-5-(diaminomethylideneamino)-1-oxopentan-2-yl]adamantane-1-carboxamide

$$$$
