
     RDKit          3D

100104  0  0  0  0  0  0  0  0999 V2000
   -1.8039    5.1103   -6.2120 I   0  0  0  0  0  0  0  0  0  0  0  0
   -1.2295    3.6246   -4.8101 C   0  0  0  0  0  0  0  0  0  0  0  0
   -0.1470    3.8573   -3.9501 C   0  0  0  0  0  0  0  0  0  0  0  0
    0.1580    2.8443   -3.0728 C   0  0  0  0  0  0  0  0  0  0  0  0
   -0.5368    1.6613   -3.0172 C   0  0  0  0  0  0  0  0  0  0  0  0
   -1.5978    1.4581   -3.8734 C   0  0  0  0  0  0  0  0  0  0  0  0
   -1.9337    2.4593   -4.7734 C   0  0  0  0  0  0  0  0  0  0  0  0
   -0.1079    0.5975   -2.0632 C   0  0  0  0  0  0  0  0  0  0  0  0
   -0.6805    0.6967   -0.7028 C   0  0  2  0  0  0  0  0  0  0  0  0
   -0.2363   -0.4371    0.2127 C   0  0  0  0  0  0  0  0  0  0  0  0
   -1.0547   -1.0712    0.9043 O   0  0  0  0  0  0  0  0  0  0  0  0
    1.1649   -0.6765    0.1838 N   0  0  0  0  0  0  0  0  0  0  0  0
    1.8081   -1.7203    0.9720 C   0  0  2  0  0  0  0  0  0  0  0  0
    2.8808   -1.2295    1.8248 C   0  0  0  0  0  0  0  0  0  0  0  0
    3.5669   -1.9297    2.6164 O   0  0  0  0  0  0  0  0  0  0  0  0
    3.2169    0.1705    1.7801 N   0  0  0  0  0  0  0  0  0  0  0  0
    4.2864    0.5901    2.6309 C   0  0  2  0  0  0  0  0  0  0  0  0
    3.6903    1.5672    3.5886 C   0  0  0  0  0  0  0  0  0  0  0  0
    2.4669    1.8325    3.6302 O   0  0  0  0  0  0  0  0  0  0  0  0
    4.6303    2.2119    4.4844 N   0  0  0  0  0  0  0  0  0  0  0  0
    5.4032    1.3807    1.9673 C   0  0  0  0  0  0  0  0  0  0  0  0
    6.0109    0.6412    0.8601 C   0  0  0  0  0  0  0  0  0  0  0  0
    6.3983   -0.6843    0.8053 C   0  0  0  0  0  0  0  0  0  0  0  0
    6.8025   -1.0150   -0.4423 N   0  0  0  0  0  0  0  0  0  0  0  0
    6.6840    0.1084   -1.2174 C   0  0  0  0  0  0  0  0  0  0  0  0
    6.2024    1.1353   -0.4502 C   0  0  0  0  0  0  0  0  0  0  0  0
    6.0395    2.3797   -1.0204 C   0  0  0  0  0  0  0  0  0  0  0  0
    6.3660    2.5820   -2.3700 C   0  0  0  0  0  0  0  0  0  0  0  0
    6.8474    1.5693   -3.1585 C   0  0  0  0  0  0  0  0  0  0  0  0
    7.0112    0.3086   -2.5802 C   0  0  0  0  0  0  0  0  0  0  0  0
    2.2043   -2.8744    0.1068 C   0  0  0  0  0  0  0  0  0  0  0  0
    2.8908   -4.0056    0.8425 C   0  0  0  0  0  0  0  0  0  0  0  0
    3.1915   -5.1114   -0.1995 C   0  0  0  0  0  0  0  0  0  0  0  0
    3.8462   -6.1827    0.4933 N   0  0  0  0  0  0  0  0  0  0  0  0
    3.1145   -7.1492    0.9755 C   0  0  0  0  0  0  0  0  0  0  0  0
    1.7124   -7.2176    0.8625 N   0  0  0  0  0  0  0  0  0  0  0  0
    3.7688   -8.2334    1.6460 N   0  0  0  0  0  0  0  0  0  0  0  0
   -2.1100    0.8522   -0.6891 N   0  0  0  0  0  0  0  0  0  0  0  0
   -2.8057    1.2363    0.5124 C   0  0  0  0  0  0  0  0  0  0  0  0
   -2.2545    1.4400    1.6032 O   0  0  0  0  0  0  0  0  0  0  0  0
   -4.3071    1.3983    0.4669 C   0  0  2  0  0  0  0  0  0  0  0  0
   -4.9098    0.0561    0.7950 C   0  0  0  0  0  0  0  0  0  0  0  0
   -6.3967    0.1100    0.7995 C   0  0  0  0  0  0  0  0  0  0  0  0
   -7.1782   -0.3427   -0.2630 C   0  0  0  0  0  0  0  0  0  0  0  0
   -8.4825   -0.1340    0.0346 N   0  0  0  0  0  0  0  0  0  0  0  0
   -8.5100    0.4459    1.2791 C   0  0  0  0  0  0  0  0  0  0  0  0
   -7.2447    0.5987    1.7547 C   0  0  0  0  0  0  0  0  0  0  0  0
   -7.0396    1.1616    2.9934 C   0  0  0  0  0  0  0  0  0  0  0  0
   -8.0700    1.5925    3.7973 C   0  0  0  0  0  0  0  0  0  0  0  0
   -9.3729    1.4330    3.3014 C   0  0  0  0  0  0  0  0  0  0  0  0
   -9.5941    0.8635    2.0521 C   0  0  0  0  0  0  0  0  0  0  0  0
   -4.6581    1.7558   -0.9160 N   0  0  0  0  0  0  0  0  0  0  0  0
   -5.1742    3.0705   -1.0833 C   0  0  0  0  0  0  0  0  0  0  0  0
   -5.3182    3.8566   -0.0836 O   0  0  0  0  0  0  0  0  0  0  0  0
   -5.5845    3.6568   -2.3910 C   0  0  0  0  0  0  0  0  0  0  0  0
    0.3979    4.7706   -4.0001 H   0  0  0  0  0  0  0  0  0  0  0  0
    0.9613    2.9534   -2.3791 H   0  0  0  0  0  0  0  0  0  0  0  0
   -2.1752    0.5344   -3.8615 H   0  0  0  0  0  0  0  0  0  0  0  0
   -2.7479    2.2904   -5.4305 H   0  0  0  0  0  0  0  0  0  0  0  0
    1.0099    0.5400   -2.0446 H   0  0  0  0  0  0  0  0  0  0  0  0
   -0.4189   -0.3619   -2.5661 H   0  0  0  0  0  0  0  0  0  0  0  0
   -0.2323    1.5819   -0.1233 H   0  0  0  0  0  0  0  0  0  0  0  0
    1.8432   -0.1096   -0.3998 H   0  0  0  0  0  0  0  0  0  0  0  0
    0.9771   -2.1077    1.6359 H   0  0  0  0  0  0  0  0  0  0  0  0
    2.7330    0.8539    1.1776 H   0  0  0  0  0  0  0  0  0  0  0  0
    4.7091   -0.2743    3.2179 H   0  0  0  0  0  0  0  0  0  0  0  0
    4.9072    1.8102    5.3965 H   0  0  0  0  0  0  0  0  0  0  0  0
    5.0488    3.1210    4.1984 H   0  0  0  0  0  0  0  0  0  0  0  0
    4.9211    2.3016    1.5343 H   0  0  0  0  0  0  0  0  0  0  0  0
    6.1031    1.7034    2.7585 H   0  0  0  0  0  0  0  0  0  0  0  0
    6.3855   -1.4114    1.6361 H   0  0  0  0  0  0  0  0  0  0  0  0
    7.1385   -1.9645   -0.7835 H   0  0  0  0  0  0  0  0  0  0  0  0
    5.6568    3.2231   -0.4295 H   0  0  0  0  0  0  0  0  0  0  0  0
    6.2466    3.5624   -2.8331 H   0  0  0  0  0  0  0  0  0  0  0  0
    7.0972    1.7236   -4.2000 H   0  0  0  0  0  0  0  0  0  0  0  0
    7.3972   -0.5337   -3.1717 H   0  0  0  0  0  0  0  0  0  0  0  0
    2.9816   -2.4696   -0.6134 H   0  0  0  0  0  0  0  0  0  0  0  0
    1.3783   -3.2238   -0.5538 H   0  0  0  0  0  0  0  0  0  0  0  0
    2.3178   -4.3998    1.6751 H   0  0  0  0  0  0  0  0  0  0  0  0
    3.8941   -3.6854    1.1851 H   0  0  0  0  0  0  0  0  0  0  0  0
    3.8405   -4.6695   -0.9559 H   0  0  0  0  0  0  0  0  0  0  0  0
    2.2365   -5.5248   -0.6244 H   0  0  0  0  0  0  0  0  0  0  0  0
    1.0992   -6.7526    1.5847 H   0  0  0  0  0  0  0  0  0  0  0  0
    1.2023   -7.7070    0.1013 H   0  0  0  0  0  0  0  0  0  0  0  0
    3.6843   -9.2378    1.2857 H   0  0  0  0  0  0  0  0  0  0  0  0
    4.3407   -8.1099    2.4977 H   0  0  0  0  0  0  0  0  0  0  0  0
   -2.6353    0.6764   -1.5677 H   0  0  0  0  0  0  0  0  0  0  0  0
   -4.6376    2.1568    1.1529 H   0  0  0  0  0  0  0  0  0  0  0  0
   -4.5322   -0.7205    0.0917 H   0  0  0  0  0  0  0  0  0  0  0  0
   -4.5944   -0.2304    1.8289 H   0  0  0  0  0  0  0  0  0  0  0  0
   -6.8442   -0.7845   -1.1869 H   0  0  0  0  0  0  0  0  0  0  0  0
   -9.3331   -0.3447   -0.5627 H   0  0  0  0  0  0  0  0  0  0  0  0
   -6.0105    1.2683    3.3674 H   0  0  0  0  0  0  0  0  0  0  0  0
   -7.9603    2.0400    4.7779 H   0  0  0  0  0  0  0  0  0  0  0  0
  -10.2462    1.7452    3.8575 H   0  0  0  0  0  0  0  0  0  0  0  0
  -10.6193    0.7576    1.6980 H   0  0  0  0  0  0  0  0  0  0  0  0
   -4.5630    1.1346   -1.7201 H   0  0  0  0  0  0  0  0  0  0  0  0
   -5.2239    4.7591   -2.3829 H   0  0  0  0  0  0  0  0  0  0  0  0
   -6.6801    3.6703   -2.4837 H   0  0  0  0  0  0  0  0  0  0  0  0
   -5.0784    3.1453   -3.2222 H   0  0  0  0  0  0  0  0  0  0  0  0
  1  2  1  0
  2  3  2  0
  3  4  1  0
  4  5  2  0
  5  6  1  0
  6  7  2  0
  5  8  1  0
  8  9  1  0
  9 10  1  0
 10 11  2  0
 10 12  1  0
 12 13  1  0
 13 14  1  0
 14 15  2  0
 14 16  1  0
 16 17  1  0
 17 18  1  0
 18 19  2  0
 18 20  1  0
 17 21  1  0
 21 22  1  0
 22 23  2  0
 23 24  1  0
 24 25  1  0
 25 26  2  0
 26 27  1  0
 27 28  2  0
 28 29  1  0
 29 30  2  0
 13 31  1  0
 31 32  1  0
 32 33  1  0
 33 34  1  0
 34 35  2  3
 35 36  1  0
 35 37  1  0
  9 38  1  0
 38 39  1  0
 39 40  2  0
 39 41  1  0
 41 42  1  0
 42 43  1  0
 43 44  2  0
 44 45  1  0
 45 46  1  0
 46 47  2  0
 47 48  1  0
 48 49  2  0
 49 50  1  0
 50 51  2  0
 41 52  1  0
 52 53  1  0
 53 54  2  0
 53 55  1  0
  7  2  1  0
 26 22  1  0
 47 43  1  0
 30 25  1  0
 51 46  1  0
  3 56  1  0
  4 57  1  0
  6 58  1  0
  7 59  1  0
  8 60  1  0
  8 61  1  0
  9 62  1  1
 12 63  1  0
 13 64  1  1
 16 65  1  0
 17 66  1  1
 20 67  1  0
 20 68  1  0
 21 69  1  0
 21 70  1  0
 23 71  1  0
 24 72  1  0
 27 73  1  0
 28 74  1  0
 29 75  1  0
 30 76  1  0
 31 77  1  0
 31 78  1  0
 32 79  1  0
 32 80  1  0
 33 81  1  0
 33 82  1  0
 36 83  1  0
 36 84  1  0
 37 85  1  0
 37 86  1  0
 38 87  1  0
 41 88  1  1
 42 89  1  0
 42 90  1  0
 44 91  1  0
 45 92  1  0
 48 93  1  0
 49 94  1  0
 50 95  1  0
 51 96  1  0
 52 97  1  0
 55 98  1  0
 55 99  1  0
 55100  1  0
M  END
>  <Ligand ID>  (1) 
LIG0001449

>  <Ligand>  (1) 
CHEMBL3422427

>  <SMILES>  (1) 
Ic1ccc(cc1)C[C@H](C(=O)N[C@H](C(=O)N[C@H](C(=O)N)Cc1c[nH]c2c1cccc2)CCCN=C(N)N)NC(=O)[C@H](Cc1c[nH]c2c1cccc2)NC(=O)C

>  <CID>  (1) 
118735604.0

>  <ChEMBL ID>  (1) 
nan

>  <InChiKey>  (1) 
SQUAUCLQDKENKJ-HVRNLMOBSA-N

>  <InChi>  (1) 
InChI=1S/C39H45IN10O5/c1-22(51)47-34(19-25-21-46-30-10-5-3-8-28(25)30)38(55)50-33(17-23-12-14-26(40)15-13-23)37(54)48-31(11-6-16-44-39(42)43)36(53)49-32(35(41)52)18-24-20-45-29-9-4-2-7-27(24)29/h2-5,7-10,12-15,20-21,31-34,45-46H,6,11,16-19H2,1H3,(H2,41,52)(H,47,51)(H,48,54)(H,49,53)(H,50,55)(H4,42,43,44)/t31-,32-,33+,34-/m0/s1

>  <IUPAC Name>  (1) 
(2S)-2-[[(2R)-2-[[(2S)-2-acetamido-3-(1H-indol-3-yl)propanoyl]amino]-3-(4-iodophenyl)propanoyl]amino]-N-[(2S)-1-amino-3-(1H-indol-3-yl)-1-oxopropan-2-yl]-5-(diaminomethylideneamino)pentanamide

$$$$
