
     RDKit          3D

 25 25  0  0  0  0  0  0  0  0999 V2000
   -4.0460   -0.7349    1.4746 O   0  0  0  0  0  0  0  0  0  0  0  0
   -3.5647    0.1498    0.7005 C   0  0  0  0  0  0  0  0  0  0  0  0
   -2.1451    0.1816    0.3629 C   0  0  0  0  0  0  0  0  0  0  0  0
   -1.6229    1.1037   -0.4485 C   0  0  0  0  0  0  0  0  0  0  0  0
   -0.1815    1.1425   -0.7962 C   0  0  0  0  0  0  0  0  0  0  0  0
    0.4360   -0.2339   -0.9256 C   0  0  2  0  0  0  0  0  0  0  0  0
   -0.1904   -1.2904   -0.0997 C   0  0  0  0  0  0  0  0  0  0  0  0
   -1.2001   -0.8213    0.9110 C   0  0  0  0  0  0  0  0  0  0  0  0
    1.8967   -0.0547   -0.6981 C   0  0  0  0  0  0  0  0  0  0  0  0
    2.8066   -0.2109   -1.6609 C   0  0  0  0  0  0  0  0  0  0  0  0
    2.3967    0.3150    0.6523 C   0  0  0  0  0  0  0  0  0  0  0  0
   -4.1894    0.9188    0.2580 H   0  0  0  0  0  0  0  0  0  0  0  0
   -2.3435    1.8297   -0.8373 H   0  0  0  0  0  0  0  0  0  0  0  0
   -0.0819    1.7195   -1.7511 H   0  0  0  0  0  0  0  0  0  0  0  0
    0.3925    1.7396   -0.0477 H   0  0  0  0  0  0  0  0  0  0  0  0
    0.3221   -0.4889   -2.0013 H   0  0  0  0  0  0  0  0  0  0  0  0
   -0.7001   -2.0469   -0.7337 H   0  0  0  0  0  0  0  0  0  0  0  0
    0.5867   -1.8532    0.4720 H   0  0  0  0  0  0  0  0  0  0  0  0
   -0.7360   -0.4134    1.8393 H   0  0  0  0  0  0  0  0  0  0  0  0
   -1.8093   -1.6942    1.2297 H   0  0  0  0  0  0  0  0  0  0  0  0
    3.8746   -0.0807   -1.4976 H   0  0  0  0  0  0  0  0  0  0  0  0
    2.5324   -0.4830   -2.6875 H   0  0  0  0  0  0  0  0  0  0  0  0
    1.8345   -0.1526    1.4699 H   0  0  0  0  0  0  0  0  0  0  0  0
    2.2618    1.4124    0.7601 H   0  0  0  0  0  0  0  0  0  0  0  0
    3.4700    0.0463    0.7715 H   0  0  0  0  0  0  0  0  0  0  0  0
  1  2  2  0
  2  3  1  0
  3  4  2  0
  4  5  1  0
  5  6  1  0
  6  7  1  0
  7  8  1  0
  6  9  1  0
  9 10  2  0
  9 11  1  0
  8  3  1  0
  2 12  1  0
  4 13  1  0
  5 14  1  0
  5 15  1  0
  6 16  1  6
  7 17  1  0
  7 18  1  0
  8 19  1  0
  8 20  1  0
 10 21  1  0
 10 22  1  0
 11 23  1  0
 11 24  1  0
 11 25  1  0
M  END
>  <Ligand ID>  (1) 
LIG0000216

>  <Ligand>  (1) 
(-)-Perillaaldehyde

>  <SMILES>  (1) 
O=CC1=CC[C@H](CC1)C(=C)C

>  <CID>  (1) 
2724159.0

>  <ChEMBL ID>  (1) 
nan

>  <InChiKey>  (1) 
RUMOYJJNUMEFDD-SNVBAGLBSA-N

>  <InChi>  (1) 
InChI=1S/C10H14O/c1-8(2)10-5-3-9(7-11)4-6-10/h3,7,10H,1,4-6H2,2H3/t10-/m1/s1

>  <IUPAC Name>  (1) 
(4S)-4-prop-1-en-2-ylcyclohexene-1-carbaldehyde

$$$$
