
     RDKit          3D

 26 26  0  0  0  0  0  0  0  0999 V2000
   -3.3001   -0.0259    0.5406 N   0  0  0  0  0  0  0  0  0  0  0  0
   -2.8901    0.0750   -0.8478 C   0  0  0  0  0  0  0  0  0  0  0  0
   -1.4003    0.4066   -0.9427 C   0  0  1  0  0  0  0  0  0  0  0  0
   -0.9439    1.7053   -0.3012 C   0  0  0  0  0  0  0  0  0  0  0  0
   -0.6230    0.4303    0.3413 C   0  0  2  0  0  0  0  0  0  0  0  0
    0.7815   -0.1018    0.3376 C   0  0  0  0  0  0  0  0  0  0  0  0
    1.2665   -0.8028    1.4470 C   0  0  0  0  0  0  0  0  0  0  0  0
    2.5736   -1.2971    1.4417 C   0  0  0  0  0  0  0  0  0  0  0  0
    3.3715   -1.0877    0.3412 C   0  0  0  0  0  0  0  0  0  0  0  0
    2.9188   -0.3944   -0.7780 C   0  0  0  0  0  0  0  0  0  0  0  0
    1.6099    0.0978   -0.7670 C   0  0  0  0  0  0  0  0  0  0  0  0
    3.9607   -0.1401   -2.1743 Cl  0  0  0  0  0  0  0  0  0  0  0  0
    0.6859    0.0000    0.0000 Cl  0  0  0  0  0  0  0  0  0  0  0  0
   -3.0830    0.8313    1.0633 H   0  0  0  0  0  0  0  0  0  0  0  0
   -2.9214   -0.8967    0.9362 H   0  0  0  0  0  0  0  0  0  0  0  0
   -3.4932    0.8802   -1.3266 H   0  0  0  0  0  0  0  0  0  0  0  0
   -3.0367   -0.9041   -1.3480 H   0  0  0  0  0  0  0  0  0  0  0  0
   -0.8707    0.0277   -1.8334 H   0  0  0  0  0  0  0  0  0  0  0  0
   -1.6969    2.3864    0.1313 H   0  0  0  0  0  0  0  0  0  0  0  0
   -0.2022    2.2551   -0.9313 H   0  0  0  0  0  0  0  0  0  0  0  0
   -1.1522    0.1906    1.2877 H   0  0  0  0  0  0  0  0  0  0  0  0
    0.6353   -0.9719    2.3253 H   0  0  0  0  0  0  0  0  0  0  0  0
    2.8881   -1.8269    2.3228 H   0  0  0  0  0  0  0  0  0  0  0  0
    4.3706   -1.4849    0.3786 H   0  0  0  0  0  0  0  0  0  0  0  0
    1.2373    0.6481   -1.6444 H   0  0  0  0  0  0  0  0  0  0  0  0
   -0.6859    0.0000    0.0000 H   0  0  0  0  0  0  0  0  0  0  0  0
  1  2  1  0
  2  3  1  0
  3  4  1  0
  4  5  1  0
  5  6  1  0
  6  7  2  0
  7  8  1  0
  8  9  2  0
  9 10  1  0
 10 11  2  0
 10 12  1  0
  5  3  1  0
 11  6  1  0
  1 14  1  0
  1 15  1  0
  2 16  1  0
  2 17  1  0
  3 18  1  6
  4 19  1  0
  4 20  1  0
  5 21  1  1
  7 22  1  0
  8 23  1  0
  9 24  1  0
 11 25  1  0
 13 26  1  0
M  END
>  <Ligand ID>  (1) 
LIG0002375

>  <Ligand>  (1) 
CHEMBL493128

>  <SMILES>  (1) 
NC[C@H]1C[C@@H]1c1cccc(c1)Cl.Cl

>  <CID>  (1) 
44572799.0

>  <ChEMBL ID>  (1) 
nan

>  <InChiKey>  (1) 
RDEMTRGFRJXDQJ-GHXDPTCOSA-N

>  <InChi>  (1) 
InChI=1S/C10H12ClN.ClH/c11-9-3-1-2-7(4-9)10-5-8(10)6-12;/h1-4,8,10H,5-6,12H2;1H/t8-,10-;/m1./s1

>  <IUPAC Name>  (1) 
[(1S,2S)-2-(3-chlorophenyl)cyclopropyl]methanamine;hydrochloride

$$$$
