
     RDKit          3D

 26 26  0  0  0  0  0  0  0  0999 V2000
   -3.6286    2.6200   -2.3273 N   0  0  0  0  0  0  0  0  0  0  0  0
   -3.3776    1.7066   -1.6600 C   0  0  0  0  0  0  0  0  0  0  0  0
   -3.0424    0.5625   -0.8009 C   0  0  0  0  0  0  0  0  0  0  0  0
   -1.8116    0.2913   -0.7383 N   0  0  0  0  0  0  0  0  0  0  0  0
   -1.2512   -0.7173   -0.0108 N   0  0  0  0  0  0  0  0  0  0  0  0
    0.1655   -0.5539    0.2805 C   0  0  0  0  0  0  0  0  0  0  0  0
    0.9997   -1.3399   -0.4865 C   0  0  0  0  0  0  0  0  0  0  0  0
    2.3593   -1.1938   -0.2604 C   0  0  0  0  0  0  0  0  0  0  0  0
    2.8685   -0.3163    0.6755 C   0  0  0  0  0  0  0  0  0  0  0  0
    1.9822    0.4494    1.4189 C   0  0  0  0  0  0  0  0  0  0  0  0
    0.6041    0.3389    1.2292 C   0  0  0  0  0  0  0  0  0  0  0  0
    4.2406   -0.2056    0.8663 O   0  0  0  0  0  0  0  0  0  0  0  0
    5.0620    0.6988    0.1586 C   0  0  0  0  0  0  0  0  0  0  0  0
    4.9545    0.3990   -1.1787 F   0  0  0  0  0  0  0  0  0  0  0  0
    6.3391    0.6071    0.6081 F   0  0  0  0  0  0  0  0  0  0  0  0
    4.5717    1.9768    0.4304 F   0  0  0  0  0  0  0  0  0  0  0  0
   -4.0893   -0.1452   -0.1116 C   0  0  0  0  0  0  0  0  0  0  0  0
   -3.9374   -1.4075    0.8789 S   0  0  0  0  0  0  0  0  0  0  0  0
   -5.4287    0.3294   -0.3343 N   0  0  0  0  0  0  0  0  0  0  0  0
   -1.6525   -1.5850    0.3619 H   0  0  0  0  0  0  0  0  0  0  0  0
    0.6045   -2.0356   -1.2293 H   0  0  0  0  0  0  0  0  0  0  0  0
    3.0366   -1.8144   -0.8678 H   0  0  0  0  0  0  0  0  0  0  0  0
    2.3832    1.1408    2.1487 H   0  0  0  0  0  0  0  0  0  0  0  0
   -0.0991    0.9248    1.7971 H   0  0  0  0  0  0  0  0  0  0  0  0
   -6.1102   -0.2925   -0.8275 H   0  0  0  0  0  0  0  0  0  0  0  0
   -5.7431    1.2620   -0.0207 H   0  0  0  0  0  0  0  0  0  0  0  0
  1  2  3  0
  2  3  1  0
  3  4  2  0
  4  5  1  0
  5  6  1  0
  6  7  2  0
  7  8  1  0
  8  9  2  0
  9 10  1  0
 10 11  2  0
  9 12  1  0
 12 13  1  0
 13 14  1  0
 13 15  1  0
 13 16  1  0
  3 17  1  0
 17 18  2  0
 17 19  1  0
 11  6  1  0
  5 20  1  0
  7 21  1  0
  8 22  1  0
 10 23  1  0
 11 24  1  0
 19 25  1  0
 19 26  1  0
M  END
>  <Ligand ID>  (1) 
LIG0005961

>  <Ligand>  (1) 
MLS000834858

>  <SMILES>  (1) 
N#C/C(=N/Nc1ccc(cc1)OC(F)(F)F)/C(=S)N

>  <CID>  (1) 
5883623.0

>  <ChEMBL ID>  (1) 
nan

>  <InChiKey>  (1) 
TYHJLVQXPFKZIB-IUXPMGMMSA-N

>  <InChi>  (1) 
InChI=1S/C10H7F3N4OS/c11-10(12,13)18-7-3-1-6(2-4-7)16-17-8(5-14)9(15)19/h1-4,16H,(H2,15,19)/b17-8-

>  <IUPAC Name>  (1) 
(1Z)-2-amino-2-sulfanylidene-N-[4-(trifluoromethoxy)anilino]ethanimidoyl cyanide

$$$$
