
     RDKit          3D

145150  0  0  0  0  0  0  0  0999 V2000
   11.2268   -0.3236   -0.1363 C   0  0  0  0  0  0  0  0  0  0  0  0
   11.0333   -0.1797    1.3382 C   0  0  0  0  0  0  0  0  0  0  0  0
   10.0355   -1.1852    1.8744 C   0  0  0  0  0  0  0  0  0  0  0  0
    8.6949   -1.0312    1.2486 C   0  0  0  0  0  0  0  0  0  0  0  0
    7.7353   -2.1068    1.8249 C   0  0  1  0  0  0  0  0  0  0  0  0
    6.3872   -1.9062    1.2664 C   0  0  0  0  0  0  0  0  0  0  0  0
    5.9487   -2.8564    0.5234 O   0  0  0  0  0  0  0  0  0  0  0  0
    5.5829   -0.7416    1.5099 N   0  0  0  0  0  0  0  0  0  0  0  0
    4.2844   -0.5739    0.9453 C   0  0  1  0  0  0  0  0  0  0  0  0
    3.1440   -0.8753    1.9217 C   0  0  0  0  0  0  0  0  0  0  0  0
    3.1106   -2.3067    2.1564 N   0  0  0  0  0  0  0  0  0  0  0  0
    3.2809   -3.1775    3.1025 N   0  0  0  0  0  0  0  0  0  0  0  0
    3.0791   -4.4365    2.6859 N   0  0  0  0  0  0  0  0  0  0  0  0
    2.7598   -4.3955    1.4062 C   0  0  0  0  0  0  0  0  0  0  0  0
    2.7752   -3.0449    1.0488 C   0  0  0  0  0  0  0  0  0  0  0  0
    2.3887   -5.3229    0.2832 C   0  0  0  0  0  0  0  0  0  0  0  0
    1.0229   -4.8403   -0.2674 C   0  0  0  0  0  0  0  0  0  0  0  0
    0.0332   -5.0770    0.8353 C   0  0  0  0  0  0  0  0  0  0  0  0
   -1.2391   -4.3557    0.7457 C   0  0  0  0  0  0  0  0  0  0  0  0
   -1.9613   -4.4499   -0.5850 C   0  0  2  0  0  0  0  0  0  0  0  0
   -3.1919   -3.6330   -0.4645 N   0  0  0  0  0  0  0  0  0  0  0  0
   -3.1311   -2.2033   -0.7018 C   0  0  0  0  0  0  0  0  0  0  0  0
   -1.9947   -1.8031   -1.0024 O   0  0  0  0  0  0  0  0  0  0  0  0
   -4.3124   -1.3368   -0.5795 C   0  0  1  0  0  0  0  0  0  0  0  0
   -3.9698    0.0970   -0.4973 N   0  0  0  0  0  0  0  0  0  0  0  0
   -4.6312    0.8218    0.5098 C   0  0  0  0  0  0  0  0  0  0  0  0
   -5.4671    0.1923    1.1899 O   0  0  0  0  0  0  0  0  0  0  0  0
   -4.4690    2.2658    0.8806 C   0  0  1  0  0  0  0  0  0  0  0  0
   -3.4590    2.9726    0.1624 N   0  0  0  0  0  0  0  0  0  0  0  0
   -2.0766    2.6379    0.4057 C   0  0  0  0  0  0  0  0  0  0  0  0
   -1.9335    1.6616    1.1747 O   0  0  0  0  0  0  0  0  0  0  0  0
   -0.9104    3.2869   -0.1396 C   0  0  2  0  0  0  0  0  0  0  0  0
    0.3283    2.4881   -0.0967 N   0  0  0  0  0  0  0  0  0  0  0  0
    1.3430    2.8250   -1.0544 C   0  0  0  0  0  0  0  0  0  0  0  0
    1.0564    3.8183   -1.7559 O   0  0  0  0  0  0  0  0  0  0  0  0
    2.6171    2.1580   -1.2708 C   0  0  1  0  0  0  0  0  0  0  0  0
    2.8105    0.9594   -0.4852 N   0  0  0  0  0  0  0  0  0  0  0  0
    4.0486    0.6713    0.2059 C   0  0  0  0  0  0  0  0  0  0  0  0
    4.8899    1.5834    0.1082 O   0  0  0  0  0  0  0  0  0  0  0  0
    2.7514    1.7315   -2.7491 C   0  0  0  0  0  0  0  0  0  0  0  0
    2.6876    2.8594   -3.6621 C   0  0  0  0  0  0  0  0  0  0  0  0
    3.7560    3.5943   -4.0495 N   0  0  0  0  0  0  0  0  0  0  0  0
    3.3997    4.5416   -4.9243 C   0  0  0  0  0  0  0  0  0  0  0  0
    2.0825    4.4438   -5.1267 N   0  0  0  0  0  0  0  0  0  0  0  0
    1.6274    3.4107   -4.3554 C   0  0  0  0  0  0  0  0  0  0  0  0
   -0.5860    4.6631    0.4279 C   0  0  0  0  0  0  0  0  0  0  0  0
   -1.6101    5.6849    0.1803 C   0  0  0  0  0  0  0  0  0  0  0  0
   -2.6533    6.0184    0.9670 C   0  0  0  0  0  0  0  0  0  0  0  0
   -3.4953    7.0276    0.5754 C   0  0  0  0  0  0  0  0  0  0  0  0
   -3.3477    7.7434   -0.5940 C   0  0  0  0  0  0  0  0  0  0  0  0
   -2.2899    7.4120   -1.4007 C   0  0  0  0  0  0  0  0  0  0  0  0
   -1.4422    6.4068   -1.0213 C   0  0  0  0  0  0  0  0  0  0  0  0
   -5.8223    2.8317    0.9103 C   0  0  0  0  0  0  0  0  0  0  0  0
   -6.0945    4.2338    1.2792 C   0  0  0  0  0  0  0  0  0  0  0  0
   -5.7016    4.6014    2.6676 C   0  0  0  0  0  0  0  0  0  0  0  0
   -6.0376    5.9500    2.9594 N   0  0  0  0  0  0  0  0  0  0  0  0
   -6.8179    6.7602    2.4192 C   0  0  0  0  0  0  0  0  0  0  0  0
   -7.6534    6.5846    1.2928 N   0  0  0  0  0  0  0  0  0  0  0  0
   -6.9025    8.0838    3.0261 N   0  0  0  0  0  0  0  0  0  0  0  0
   -5.1777   -1.4710   -1.8303 C   0  0  0  0  0  0  0  0  0  0  0  0
   -5.6655   -2.8489   -2.0569 C   0  0  0  0  0  0  0  0  0  0  0  0
   -5.2311   -3.7340   -3.0331 C   0  0  0  0  0  0  0  0  0  0  0  0
   -5.9812   -4.8317   -2.8571 N   0  0  0  0  0  0  0  0  0  0  0  0
   -6.8451   -4.7045   -1.8527 C   0  0  0  0  0  0  0  0  0  0  0  0
   -6.6786   -3.4589   -1.3161 C   0  0  0  0  0  0  0  0  0  0  0  0
   -7.4661   -3.0864   -0.2487 C   0  0  0  0  0  0  0  0  0  0  0  0
   -8.4225   -3.8921    0.3224 C   0  0  0  0  0  0  0  0  0  0  0  0
   -8.5722   -5.1609   -0.2494 C   0  0  0  0  0  0  0  0  0  0  0  0
   -7.8036   -5.5671   -1.3158 C   0  0  0  0  0  0  0  0  0  0  0  0
   -2.3369   -5.8189   -0.8668 C   0  0  0  0  0  0  0  0  0  0  0  0
   -1.5333   -6.7943   -1.0211 O   0  0  0  0  0  0  0  0  0  0  0  0
   -3.7305   -6.1921   -1.0012 N   0  0  0  0  0  0  0  0  0  0  0  0
    8.2202   -3.4336    1.5043 N   0  0  0  0  0  0  0  0  0  0  0  0
    9.0643   -3.8054    0.4467 C   0  0  0  0  0  0  0  0  0  0  0  0
    9.5543   -3.0798   -0.4283 O   0  0  0  0  0  0  0  0  0  0  0  0
    9.4196   -5.2731    0.3600 C   0  0  0  0  0  0  0  0  0  0  0  0
   11.8515    0.5460   -0.4717 H   0  0  0  0  0  0  0  0  0  0  0  0
   11.7891   -1.2842   -0.3020 H   0  0  0  0  0  0  0  0  0  0  0  0
   10.3230   -0.3381   -0.7429 H   0  0  0  0  0  0  0  0  0  0  0  0
   10.7406    0.8611    1.6443 H   0  0  0  0  0  0  0  0  0  0  0  0
   11.9942   -0.4147    1.8455 H   0  0  0  0  0  0  0  0  0  0  0  0
    9.9489   -0.9476    2.9885 H   0  0  0  0  0  0  0  0  0  0  0  0
   10.4515   -2.1757    1.8068 H   0  0  0  0  0  0  0  0  0  0  0  0
    8.6425   -1.0424    0.1683 H   0  0  0  0  0  0  0  0  0  0  0  0
    8.2379   -0.0568    1.5663 H   0  0  0  0  0  0  0  0  0  0  0  0
    7.7759   -1.9441    2.9011 H   0  0  0  0  0  0  0  0  0  0  0  0
    5.9660    0.0173    2.1302 H   0  0  0  0  0  0  0  0  0  0  0  0
    4.1829   -1.4239    0.1863 H   0  0  0  0  0  0  0  0  0  0  0  0
    3.3886   -0.2772    2.8210 H   0  0  0  0  0  0  0  0  0  0  0  0
    2.2319   -0.4583    1.5006 H   0  0  0  0  0  0  0  0  0  0  0  0
    2.5626   -2.6245    0.0497 H   0  0  0  0  0  0  0  0  0  0  0  0
    3.1879   -5.2350   -0.4738 H   0  0  0  0  0  0  0  0  0  0  0  0
    2.3319   -6.3391    0.6470 H   0  0  0  0  0  0  0  0  0  0  0  0
    1.0941   -3.7859   -0.5559 H   0  0  0  0  0  0  0  0  0  0  0  0
    0.8617   -5.4892   -1.1619 H   0  0  0  0  0  0  0  0  0  0  0  0
   -0.0784   -6.1847    0.9613 H   0  0  0  0  0  0  0  0  0  0  0  0
    0.5526   -4.7482    1.7866 H   0  0  0  0  0  0  0  0  0  0  0  0
   -1.1301   -3.2968    1.0624 H   0  0  0  0  0  0  0  0  0  0  0  0
   -1.9336   -4.7953    1.5216 H   0  0  0  0  0  0  0  0  0  0  0  0
   -1.3316   -3.9971   -1.3837 H   0  0  0  0  0  0  0  0  0  0  0  0
   -4.1013   -3.9850   -0.2169 H   0  0  0  0  0  0  0  0  0  0  0  0
   -4.9453   -1.6628    0.2738 H   0  0  0  0  0  0  0  0  0  0  0  0
   -3.3184    0.5801   -1.0901 H   0  0  0  0  0  0  0  0  0  0  0  0
   -4.0661    2.1676    1.9384 H   0  0  0  0  0  0  0  0  0  0  0  0
   -3.5743    3.7150   -0.5328 H   0  0  0  0  0  0  0  0  0  0  0  0
   -1.0666    3.5093   -1.2417 H   0  0  0  0  0  0  0  0  0  0  0  0
    0.5381    1.7339    0.5269 H   0  0  0  0  0  0  0  0  0  0  0  0
    3.4738    2.8735   -1.1163 H   0  0  0  0  0  0  0  0  0  0  0  0
    2.0945    0.2522   -0.3714 H   0  0  0  0  0  0  0  0  0  0  0  0
    1.9671    0.9564   -2.9479 H   0  0  0  0  0  0  0  0  0  0  0  0
    3.7082    1.2110   -2.8656 H   0  0  0  0  0  0  0  0  0  0  0  0
    4.7566    3.4808   -3.7382 H   0  0  0  0  0  0  0  0  0  0  0  0
    4.0451    5.2838   -5.4063 H   0  0  0  0  0  0  0  0  0  0  0  0
    0.5965    3.0850   -4.3131 H   0  0  0  0  0  0  0  0  0  0  0  0
    0.3903    5.0328    0.1072 H   0  0  0  0  0  0  0  0  0  0  0  0
   -0.5672    4.4947    1.5475 H   0  0  0  0  0  0  0  0  0  0  0  0
   -2.7904    5.4726    1.8914 H   0  0  0  0  0  0  0  0  0  0  0  0
   -4.3218    7.3018    1.2055 H   0  0  0  0  0  0  0  0  0  0  0  0
   -4.0344    8.5372   -0.8654 H   0  0  0  0  0  0  0  0  0  0  0  0
   -2.1237    7.9373   -2.3309 H   0  0  0  0  0  0  0  0  0  0  0  0
   -0.6125    6.1786   -1.6935 H   0  0  0  0  0  0  0  0  0  0  0  0
   -6.3533    2.6570   -0.0878 H   0  0  0  0  0  0  0  0  0  0  0  0
   -6.4455    2.1968    1.6292 H   0  0  0  0  0  0  0  0  0  0  0  0
   -5.7327    4.9742    0.5145 H   0  0  0  0  0  0  0  0  0  0  0  0
   -7.2285    4.3352    1.2453 H   0  0  0  0  0  0  0  0  0  0  0  0
   -6.2567    3.8968    3.3652 H   0  0  0  0  0  0  0  0  0  0  0  0
   -4.6339    4.3706    2.8949 H   0  0  0  0  0  0  0  0  0  0  0  0
   -7.3176    6.7691    0.3042 H   0  0  0  0  0  0  0  0  0  0  0  0
   -8.6543    6.2676    1.3454 H   0  0  0  0  0  0  0  0  0  0  0  0
   -7.7565    8.2382    3.6152 H   0  0  0  0  0  0  0  0  0  0  0  0
   -6.1587    8.7932    2.8680 H   0  0  0  0  0  0  0  0  0  0  0  0
   -6.0812   -0.8019   -1.7291 H   0  0  0  0  0  0  0  0  0  0  0  0
   -4.6459   -1.0806   -2.7395 H   0  0  0  0  0  0  0  0  0  0  0  0
   -4.4546   -3.5201   -3.7480 H   0  0  0  0  0  0  0  0  0  0  0  0
   -5.9079   -5.7058   -3.4346 H   0  0  0  0  0  0  0  0  0  0  0  0
   -7.3123   -2.0875    0.1653 H   0  0  0  0  0  0  0  0  0  0  0  0
   -9.0444   -3.6059    1.1606 H   0  0  0  0  0  0  0  0  0  0  0  0
   -9.3247   -5.8177    0.1856 H   0  0  0  0  0  0  0  0  0  0  0  0
   -7.9563   -6.5717   -1.7374 H   0  0  0  0  0  0  0  0  0  0  0  0
   -4.3510   -6.0062   -0.2006 H   0  0  0  0  0  0  0  0  0  0  0  0
   -4.0317   -6.6294   -1.9009 H   0  0  0  0  0  0  0  0  0  0  0  0
    7.8745   -4.1972    2.1759 H   0  0  0  0  0  0  0  0  0  0  0  0
   10.0411   -5.5194    1.2501 H   0  0  0  0  0  0  0  0  0  0  0  0
   10.0142   -5.4896   -0.5326 H   0  0  0  0  0  0  0  0  0  0  0  0
    8.4941   -5.8938    0.4392 H   0  0  0  0  0  0  0  0  0  0  0  0
  1  2  1  0
  2  3  1  0
  3  4  1  0
  4  5  1  0
  5  6  1  0
  6  7  2  0
  6  8  1  0
  8  9  1  0
  9 10  1  0
 10 11  1  0
 11 12  1  0
 12 13  2  0
 13 14  1  0
 14 15  2  0
 14 16  1  0
 16 17  1  0
 17 18  1  0
 18 19  1  0
 19 20  1  0
 20 21  1  0
 21 22  1  0
 22 23  2  0
 22 24  1  0
 24 25  1  0
 25 26  1  0
 26 27  2  0
 26 28  1  0
 28 29  1  0
 29 30  1  0
 30 31  2  0
 30 32  1  0
 32 33  1  0
 33 34  1  0
 34 35  2  0
 34 36  1  0
 36 37  1  0
 37 38  1  0
 38 39  2  0
 36 40  1  0
 40 41  1  0
 41 42  1  0
 42 43  1  0
 43 44  2  0
 44 45  1  0
 32 46  1  0
 46 47  1  0
 47 48  2  0
 48 49  1  0
 49 50  2  0
 50 51  1  0
 51 52  2  0
 28 53  1  0
 53 54  1  0
 54 55  1  0
 55 56  1  0
 56 57  2  3
 57 58  1  0
 57 59  1  0
 24 60  1  0
 60 61  1  0
 61 62  2  0
 62 63  1  0
 63 64  1  0
 64 65  2  0
 65 66  1  0
 66 67  2  0
 67 68  1  0
 68 69  2  0
 20 70  1  0
 70 71  2  0
 70 72  1  0
  5 73  1  0
 73 74  1  0
 74 75  2  0
 74 76  1  0
 38  9  1  0
 45 41  2  0
 52 47  1  0
 65 61  1  0
 15 11  1  0
 69 64  1  0
  1 77  1  0
  1 78  1  0
  1 79  1  0
  2 80  1  0
  2 81  1  0
  3 82  1  0
  3 83  1  0
  4 84  1  0
  4 85  1  0
  5 86  1  1
  8 87  1  0
  9 88  1  6
 10 89  1  0
 10 90  1  0
 15 91  1  0
 16 92  1  0
 16 93  1  0
 17 94  1  0
 17 95  1  0
 18 96  1  0
 18 97  1  0
 19 98  1  0
 19 99  1  0
 20100  1  6
 21101  1  0
 24102  1  1
 25103  1  0
 28104  1  1
 29105  1  0
 32106  1  6
 33107  1  0
 36108  1  1
 37109  1  0
 40110  1  0
 40111  1  0
 42112  1  0
 43113  1  0
 45114  1  0
 46115  1  0
 46116  1  0
 48117  1  0
 49118  1  0
 50119  1  0
 51120  1  0
 52121  1  0
 53122  1  0
 53123  1  0
 54124  1  0
 54125  1  0
 55126  1  0
 55127  1  0
 58128  1  0
 58129  1  0
 59130  1  0
 59131  1  0
 60132  1  0
 60133  1  0
 62134  1  0
 63135  1  0
 66136  1  0
 67137  1  0
 68138  1  0
 69139  1  0
 72140  1  0
 72141  1  0
 73142  1  0
 76143  1  0
 76144  1  0
 76145  1  0
M  END
>  <Ligand ID>  (1) 
LIG0001797

>  <Ligand>  (1) 
CHEMBL3358550

>  <SMILES>  (1) 
CCCC[C@@H](C(=O)N[C@H]1Cn2nnc(c2)CCCC[C@H](NC(=O)[C@@H](NC(=O)[C@@H](NC(=O)[C@H](NC(=O)[C@@H](NC1=O)Cc1[nH]cnc1)Cc1ccccc1)CCCN=C(N)N)Cc1c[nH]c2c1cccc2)C(=O)N)NC(=O)C

>  <CID>  (1) 
118722942.0

>  <ChEMBL ID>  (1) 
nan

>  <InChiKey>  (1) 
PEHRFDFLAZQRNT-ZRBRQIMBSA-N

>  <InChi>  (1) 
InChI=1S/C51H69N17O8/c1-3-4-17-38(59-30(2)69)45(71)65-43-28-68-27-33(66-67-68)15-8-10-19-37(44(52)70)60-48(74)41(23-32-25-57-36-18-11-9-16-35(32)36)63-46(72)39(20-12-21-56-51(53)54)61-47(73)40(22-31-13-6-5-7-14-31)62-49(75)42(64-50(43)76)24-34-26-55-29-58-34/h5-7,9,11,13-14,16,18,25-27,29,37-43,57H,3-4,8,10,12,15,17,19-24,28H2,1-2H3,(H2,52,70)(H,55,58)(H,59,69)(H,60,74)(H,61,73)(H,62,75)(H,63,72)(H,64,76)(H,65,71)(H4,53,54,56)/t37-,38-,39-,40+,41-,42-,43-/m0/s1

>  <IUPAC Name>  (1) 
(3S,6S,9R,12S,15S,18S)-3-[[(2S)-2-acetamidohexanoyl]amino]-9-benzyl-12-[3-(diaminomethylideneamino)propyl]-6-(1H-imidazol-5-ylmethyl)-15-(1H-indol-3-ylmethyl)-4,7,10,13,16-pentaoxo-1,5,8,11,14,17,24,25-octazabicyclo[21.2.1]hexacosa-23(26),24-diene-18-carboxamide

$$$$
