
     RDKit          3D

 21 20  0  0  0  0  0  0  0  0999 V2000
    2.8967    0.8499    0.5399 C   0  0  0  0  0  0  0  0  0  0  0  0
    1.3747    0.9875    0.3510 C   0  0  0  0  0  0  0  0  0  0  0  0
    1.0771    0.3367   -0.9405 C   0  0  0  0  0  0  0  0  0  0  0  0
    0.2805   -0.6862   -1.1341 C   0  0  0  0  0  0  0  0  0  0  0  0
   -0.4928   -1.4089   -0.0972 C   0  0  0  0  0  0  0  0  0  0  0  0
   -1.9297   -1.2750   -0.4914 C   0  0  0  0  0  0  0  0  0  0  0  0
   -2.3208   -2.1014   -1.3868 O   0  0  0  0  0  0  0  0  0  0  0  0
   -2.8240   -0.2881    0.0877 C   0  0  0  0  0  0  0  0  0  0  0  0
   -2.4657    0.5848    1.0152 C   0  0  0  0  0  0  0  0  0  0  0  0
    3.4550    1.2337   -0.3354 H   0  0  0  0  0  0  0  0  0  0  0  0
    3.1369   -0.2126    0.7252 H   0  0  0  0  0  0  0  0  0  0  0  0
    3.1761    1.5061    1.3891 H   0  0  0  0  0  0  0  0  0  0  0  0
    1.0826    2.0414    0.3257 H   0  0  0  0  0  0  0  0  0  0  0  0
    0.9033    0.5157    1.2203 H   0  0  0  0  0  0  0  0  0  0  0  0
    1.5825    0.7647   -1.8236 H   0  0  0  0  0  0  0  0  0  0  0  0
    0.1579   -1.0649   -2.1628 H   0  0  0  0  0  0  0  0  0  0  0  0
   -0.4005   -0.9798    0.9174 H   0  0  0  0  0  0  0  0  0  0  0  0
   -0.1840   -2.4898   -0.1089 H   0  0  0  0  0  0  0  0  0  0  0  0
   -3.8384   -0.2744   -0.2665 H   0  0  0  0  0  0  0  0  0  0  0  0
   -3.1953    1.3108    1.4156 H   0  0  0  0  0  0  0  0  0  0  0  0
   -1.4721    0.6500    1.4353 H   0  0  0  0  0  0  0  0  0  0  0  0
  1  2  1  0
  2  3  1  0
  3  4  2  0
  4  5  1  0
  5  6  1  0
  6  7  2  0
  6  8  1  0
  8  9  2  0
  1 10  1  0
  1 11  1  0
  1 12  1  0
  2 13  1  0
  2 14  1  0
  3 15  1  0
  4 16  1  0
  5 17  1  0
  5 18  1  0
  8 19  1  0
  9 20  1  0
  9 21  1  0
M  END
>  <Ligand ID>  (1) 
LIG0001028

>  <Ligand>  (1) 
(Z)-Octa-1,5-dien-3-one

>  <SMILES>  (1) 
CC/C=C\CC(=O)C=C

>  <CID>  (1) 
6429343.0

>  <ChEMBL ID>  (1) 
nan

>  <InChiKey>  (1) 
VWYBQOFZVSNDAW-WAYWQWQTSA-N

>  <InChi>  (1) 
InChI=1S/C8H12O/c1-3-5-6-7-8(9)4-2/h4-6H,2-3,7H2,1H3/b6-5-

>  <IUPAC Name>  (1) 
(5Z)-octa-1,5-dien-3-one

$$$$
