
     RDKit          3D

144149  0  0  0  0  0  0  0  0999 V2000
   -5.3342    3.2769   -2.3134 C   0  0  0  0  0  0  0  0  0  0  0  0
   -4.5392    2.0102   -2.5386 C   0  0  0  0  0  0  0  0  0  0  0  0
   -3.3855    1.8158   -1.6485 C   0  0  0  0  0  0  0  0  0  0  0  0
   -3.6099    1.7585   -0.1605 C   0  0  1  0  0  0  0  0  0  0  0  0
   -4.4914    0.6663    0.3042 C   0  0  0  0  0  0  0  0  0  0  0  0
   -3.9501   -0.3308    0.8228 O   0  0  0  0  0  0  0  0  0  0  0  0
   -5.9384    0.7596    0.1612 N   0  0  0  0  0  0  0  0  0  0  0  0
   -6.7169   -0.3387    0.6052 C   0  0  2  0  0  0  0  0  0  0  0  0
   -7.5642   -0.9211   -0.4779 C   0  0  0  0  0  0  0  0  0  0  0  0
   -6.9928   -1.7175   -1.2609 O   0  0  0  0  0  0  0  0  0  0  0  0
   -8.8960   -0.6167   -0.6332 O   0  0  0  0  0  0  0  0  0  0  0  0
   -9.7956   -1.0937   -1.5907 C   0  0  0  0  0  0  0  0  0  0  0  0
   -9.9453   -2.5574   -1.4752 C   0  0  0  0  0  0  0  0  0  0  0  0
  -10.9325   -3.0003   -0.5824 C   0  0  0  0  0  0  0  0  0  0  0  0
  -11.1466   -4.3607   -0.4319 C   0  0  0  0  0  0  0  0  0  0  0  0
  -10.3990   -5.3073   -1.1509 C   0  0  0  0  0  0  0  0  0  0  0  0
   -9.4324   -4.8672   -2.0242 C   0  0  0  0  0  0  0  0  0  0  0  0
   -9.2258   -3.4819   -2.1696 C   0  0  0  0  0  0  0  0  0  0  0  0
   -8.5540   -5.7629   -2.8148 C   0  0  0  0  0  0  0  0  0  0  0  0
   -7.3159   -5.8277   -2.1947 F   0  0  0  0  0  0  0  0  0  0  0  0
   -8.4271   -5.2509   -4.1068 F   0  0  0  0  0  0  0  0  0  0  0  0
   -9.0845   -7.0150   -2.8814 F   0  0  0  0  0  0  0  0  0  0  0  0
  -12.1866   -4.9064    0.4937 C   0  0  0  0  0  0  0  0  0  0  0  0
  -11.7476   -6.0657    1.1047 F   0  0  0  0  0  0  0  0  0  0  0  0
  -12.3957   -3.9810    1.5159 F   0  0  0  0  0  0  0  0  0  0  0  0
  -13.3497   -5.1122   -0.2276 F   0  0  0  0  0  0  0  0  0  0  0  0
   -7.4855   -0.0383    1.8391 C   0  0  0  0  0  0  0  0  0  0  0  0
   -8.4772    1.0237    1.8183 C   0  0  0  0  0  0  0  0  0  0  0  0
   -8.8771    1.9407    0.8840 C   0  0  0  0  0  0  0  0  0  0  0  0
   -9.8676    2.7293    1.3647 N   0  0  0  0  0  0  0  0  0  0  0  0
  -10.1173    2.3246    2.6173 C   0  0  0  0  0  0  0  0  0  0  0  0
   -9.2911    1.2812    2.9429 C   0  0  0  0  0  0  0  0  0  0  0  0
   -9.3622    0.6766    4.1917 C   0  0  0  0  0  0  0  0  0  0  0  0
  -10.2550    1.0841    5.1651 C   0  0  0  0  0  0  0  0  0  0  0  0
  -11.0860    2.1412    4.8247 C   0  0  0  0  0  0  0  0  0  0  0  0
  -11.0268    2.7574    3.5784 C   0  0  0  0  0  0  0  0  0  0  0  0
   -2.2883    1.6172    0.4862 N   0  0  0  0  0  0  0  0  0  0  0  0
   -1.5939    2.8504    0.7996 C   0  0  0  0  0  0  0  0  0  0  0  0
   -2.1800    3.8932    0.4787 O   0  0  0  0  0  0  0  0  0  0  0  0
   -0.2437    2.7986    1.4710 C   0  0  2  0  0  0  0  0  0  0  0  0
   -0.5039    3.0113    2.9845 C   0  0  0  0  0  0  0  0  0  0  0  0
   -0.8264    4.4944    3.0352 C   0  0  0  0  0  0  0  0  0  0  0  0
   -0.2324    5.0889    1.8063 C   0  0  0  0  0  0  0  0  0  0  0  0
    0.5311    3.9671    1.2128 N   0  0  0  0  0  0  0  0  0  0  0  0
    1.7269    4.2516    0.5151 C   0  0  0  0  0  0  0  0  0  0  0  0
    1.8735    5.5505    0.3305 O   0  0  0  0  0  0  0  0  0  0  0  0
    2.7902    3.4546   -0.0237 C   0  0  0  0  0  0  0  0  0  0  0  0
    2.8535    2.0582    0.2008 N   0  0  0  0  0  0  0  0  0  0  0  0
    3.9275    1.2525   -0.3808 C   0  0  0  0  0  0  0  0  0  0  0  0
    4.8051    1.7669   -1.1079 O   0  0  0  0  0  0  0  0  0  0  0  0
    3.8650   -0.1866   -0.0225 C   0  0  2  0  0  0  0  0  0  0  0  0
    4.0412   -0.3181    1.5073 C   0  0  0  0  0  0  0  0  0  0  0  0
    5.3250    0.2273    1.9729 C   0  0  0  0  0  0  0  0  0  0  0  0
    5.4930    1.5421    2.3695 C   0  0  0  0  0  0  0  0  0  0  0  0
    6.7029    2.0107    2.8060 C   0  0  0  0  0  0  0  0  0  0  0  0
    7.8317    1.1918    2.8759 C   0  0  0  0  0  0  0  0  0  0  0  0
    7.6607   -0.1206    2.4779 C   0  0  0  0  0  0  0  0  0  0  0  0
    6.4325   -0.6040    2.0325 C   0  0  0  0  0  0  0  0  0  0  0  0
    4.9020   -0.9976   -0.5989 N   0  0  0  0  0  0  0  0  0  0  0  0
    4.5599   -2.2431   -1.1478 C   0  0  0  0  0  0  0  0  0  0  0  0
    3.3400   -2.5821   -1.0983 O   0  0  0  0  0  0  0  0  0  0  0  0
    5.4860   -3.2001   -1.7729 C   0  0  0  0  0  0  0  0  0  0  0  0
    6.8161   -2.6490   -1.8042 N   0  0  0  0  0  0  0  0  0  0  0  0
    7.1643   -1.4802   -2.5343 C   0  0  0  0  0  0  0  0  0  0  0  0
    6.2859   -0.8508   -3.2199 O   0  0  0  0  0  0  0  0  0  0  0  0
    8.5698   -0.9553   -2.5252 C   0  0  2  0  0  0  0  0  0  0  0  0
    9.4324   -1.7318   -1.6590 N   0  0  0  0  0  0  0  0  0  0  0  0
   10.2124   -2.8137   -2.1429 C   0  0  0  0  0  0  0  0  0  0  0  0
   10.1631   -3.1312   -3.3683 O   0  0  0  0  0  0  0  0  0  0  0  0
   11.1077   -3.6255   -1.2739 C   0  0  2  0  0  0  0  0  0  0  0  0
   12.4337   -2.9044   -1.1500 C   0  0  0  0  0  0  0  0  0  0  0  0
   12.2910   -1.5685   -0.5527 C   0  0  0  0  0  0  0  0  0  0  0  0
   12.3563   -1.4761    0.8258 C   0  0  0  0  0  0  0  0  0  0  0  0
   12.2497   -0.2426    1.4700 C   0  0  0  0  0  0  0  0  0  0  0  0
   12.0788    0.8658    0.6751 C   0  0  0  0  0  0  0  0  0  0  0  0
   12.0138    0.7692   -0.7164 C   0  0  0  0  0  0  0  0  0  0  0  0
   12.1205   -0.4634   -1.3447 C   0  0  0  0  0  0  0  0  0  0  0  0
   11.9715    2.1113    1.3147 O   0  0  0  0  0  0  0  0  0  0  0  0
   11.3298   -4.9480   -1.8809 N   0  0  0  0  0  0  0  0  0  0  0  0
    8.6771    0.4821   -2.1890 C   0  0  0  0  0  0  0  0  0  0  0  0
   -5.3740    0.7930   -2.8339 C   0  0  0  0  0  0  0  0  0  0  0  0
   -6.3684    3.1552   -2.6904 H   0  0  0  0  0  0  0  0  0  0  0  0
   -4.9309    4.1576   -2.8863 H   0  0  0  0  0  0  0  0  0  0  0  0
   -5.2651    3.5806   -1.2518 H   0  0  0  0  0  0  0  0  0  0  0  0
   -4.0454    2.2331   -3.5751 H   0  0  0  0  0  0  0  0  0  0  0  0
   -2.8113    0.9378   -2.0249 H   0  0  0  0  0  0  0  0  0  0  0  0
   -2.6784    2.6809   -1.8347 H   0  0  0  0  0  0  0  0  0  0  0  0
   -3.9814    2.7535    0.1122 H   0  0  0  0  0  0  0  0  0  0  0  0
   -6.2637    1.6479   -0.2501 H   0  0  0  0  0  0  0  0  0  0  0  0
   -5.9836   -1.1574    0.8902 H   0  0  0  0  0  0  0  0  0  0  0  0
  -10.7923   -0.6264   -1.4213 H   0  0  0  0  0  0  0  0  0  0  0  0
   -9.4295   -0.8374   -2.6228 H   0  0  0  0  0  0  0  0  0  0  0  0
  -11.5142   -2.2766   -0.0246 H   0  0  0  0  0  0  0  0  0  0  0  0
  -10.5548   -6.3578   -1.0441 H   0  0  0  0  0  0  0  0  0  0  0  0
   -8.4758   -3.1773   -2.8751 H   0  0  0  0  0  0  0  0  0  0  0  0
   -8.0038   -0.9936    2.1754 H   0  0  0  0  0  0  0  0  0  0  0  0
   -6.7804    0.1875    2.7114 H   0  0  0  0  0  0  0  0  0  0  0  0
   -8.5022    2.0567   -0.1140 H   0  0  0  0  0  0  0  0  0  0  0  0
  -10.3733    3.5146    0.8955 H   0  0  0  0  0  0  0  0  0  0  0  0
   -8.7161   -0.1486    4.4610 H   0  0  0  0  0  0  0  0  0  0  0  0
  -10.2817    0.5891    6.1204 H   0  0  0  0  0  0  0  0  0  0  0  0
  -11.7913    2.4650    5.5862 H   0  0  0  0  0  0  0  0  0  0  0  0
  -11.6850    3.5694    3.3550 H   0  0  0  0  0  0  0  0  0  0  0  0
   -1.8797    0.6863    0.6981 H   0  0  0  0  0  0  0  0  0  0  0  0
    0.2141    1.8545    1.2891 H   0  0  0  0  0  0  0  0  0  0  0  0
   -1.3184    2.3629    3.3296 H   0  0  0  0  0  0  0  0  0  0  0  0
    0.4535    2.8466    3.4898 H   0  0  0  0  0  0  0  0  0  0  0  0
   -1.9300    4.6577    3.1032 H   0  0  0  0  0  0  0  0  0  0  0  0
   -0.4107    4.9924    3.9302 H   0  0  0  0  0  0  0  0  0  0  0  0
    0.4916    5.8929    2.1237 H   0  0  0  0  0  0  0  0  0  0  0  0
   -0.8887    5.5713    1.0987 H   0  0  0  0  0  0  0  0  0  0  0  0
    3.7694    3.8907    0.3539 H   0  0  0  0  0  0  0  0  0  0  0  0
    2.8595    3.6508   -1.1418 H   0  0  0  0  0  0  0  0  0  0  0  0
    2.2006    1.5249    0.7715 H   0  0  0  0  0  0  0  0  0  0  0  0
    2.8793   -0.6509   -0.2392 H   0  0  0  0  0  0  0  0  0  0  0  0
    3.9709   -1.3765    1.8286 H   0  0  0  0  0  0  0  0  0  0  0  0
    3.2115    0.2284    2.0225 H   0  0  0  0  0  0  0  0  0  0  0  0
    4.6510    2.2296    2.3414 H   0  0  0  0  0  0  0  0  0  0  0  0
    6.7757    3.0623    3.1092 H   0  0  0  0  0  0  0  0  0  0  0  0
    8.7708    1.5901    3.2253 H   0  0  0  0  0  0  0  0  0  0  0  0
    8.5462   -0.7469    2.5355 H   0  0  0  0  0  0  0  0  0  0  0  0
    6.3869   -1.6344    1.7382 H   0  0  0  0  0  0  0  0  0  0  0  0
    5.8813   -0.6676   -0.5941 H   0  0  0  0  0  0  0  0  0  0  0  0
    5.4570   -4.1742   -1.2330 H   0  0  0  0  0  0  0  0  0  0  0  0
    5.1126   -3.3844   -2.8183 H   0  0  0  0  0  0  0  0  0  0  0  0
    7.5610   -3.1211   -1.2700 H   0  0  0  0  0  0  0  0  0  0  0  0
    8.9325   -1.1635   -3.5608 H   0  0  0  0  0  0  0  0  0  0  0  0
    9.4989   -1.5098   -0.6485 H   0  0  0  0  0  0  0  0  0  0  0  0
   10.6973   -3.8093   -0.2655 H   0  0  0  0  0  0  0  0  0  0  0  0
   13.1275   -3.5158   -0.5226 H   0  0  0  0  0  0  0  0  0  0  0  0
   12.9049   -2.7559   -2.1577 H   0  0  0  0  0  0  0  0  0  0  0  0
   12.4883   -2.3415    1.4574 H   0  0  0  0  0  0  0  0  0  0  0  0
   12.3004   -0.1854    2.5527 H   0  0  0  0  0  0  0  0  0  0  0  0
   11.8764    1.6609   -1.3376 H   0  0  0  0  0  0  0  0  0  0  0  0
   12.0736   -0.5729   -2.4130 H   0  0  0  0  0  0  0  0  0  0  0  0
   12.7720    2.7486    1.1972 H   0  0  0  0  0  0  0  0  0  0  0  0
   11.7668   -4.7935   -2.8014 H   0  0  0  0  0  0  0  0  0  0  0  0
   11.8918   -5.4927   -1.2141 H   0  0  0  0  0  0  0  0  0  0  0  0
    8.4433    0.6069   -1.1039 H   0  0  0  0  0  0  0  0  0  0  0  0
    9.6850    0.8264   -2.4354 H   0  0  0  0  0  0  0  0  0  0  0  0
    7.8895    1.0682   -2.7508 H   0  0  0  0  0  0  0  0  0  0  0  0
   -6.4448    0.8918   -2.5552 H   0  0  0  0  0  0  0  0  0  0  0  0
   -5.4159    0.5607   -3.9421 H   0  0  0  0  0  0  0  0  0  0  0  0
   -5.0005   -0.1111   -2.2821 H   0  0  0  0  0  0  0  0  0  0  0  0
  1  2  1  0
  2  3  1  0
  3  4  1  0
  4  5  1  0
  5  6  2  0
  5  7  1  0
  7  8  1  0
  8  9  1  0
  9 10  2  0
  9 11  1  0
 11 12  1  0
 12 13  1  0
 13 14  2  0
 14 15  1  0
 15 16  2  0
 16 17  1  0
 17 18  2  0
 17 19  1  0
 19 20  1  0
 19 21  1  0
 19 22  1  0
 15 23  1  0
 23 24  1  0
 23 25  1  0
 23 26  1  0
  8 27  1  0
 27 28  1  0
 28 29  2  0
 29 30  1  0
 30 31  1  0
 31 32  2  0
 32 33  1  0
 33 34  2  0
 34 35  1  0
 35 36  2  0
  4 37  1  0
 37 38  1  0
 38 39  2  0
 38 40  1  0
 40 41  1  0
 41 42  1  0
 42 43  1  0
 43 44  1  0
 44 45  1  0
 45 46  2  0
 45 47  1  0
 47 48  1  0
 48 49  1  0
 49 50  2  0
 49 51  1  0
 51 52  1  0
 52 53  1  0
 53 54  2  0
 54 55  1  0
 55 56  2  0
 56 57  1  0
 57 58  2  0
 51 59  1  0
 59 60  1  0
 60 61  2  0
 60 62  1  0
 62 63  1  0
 63 64  1  0
 64 65  2  0
 64 66  1  0
 66 67  1  0
 67 68  1  0
 68 69  2  0
 68 70  1  0
 70 71  1  0
 71 72  1  0
 72 73  2  0
 73 74  1  0
 74 75  2  0
 75 76  1  0
 76 77  2  0
 75 78  1  0
 70 79  1  0
 66 80  1  0
  2 81  1  0
 18 13  1  0
 32 28  1  0
 44 40  1  0
 58 53  1  0
 77 72  1  0
 36 31  1  0
  1 82  1  0
  1 83  1  0
  1 84  1  0
  2 85  1  0
  3 86  1  0
  3 87  1  0
  4 88  1  1
  7 89  1  0
  8 90  1  1
 12 91  1  0
 12 92  1  0
 14 93  1  0
 16 94  1  0
 18 95  1  0
 27 96  1  0
 27 97  1  0
 29 98  1  0
 30 99  1  0
 33100  1  0
 34101  1  0
 35102  1  0
 36103  1  0
 37104  1  0
 40105  1  1
 41106  1  0
 41107  1  0
 42108  1  0
 42109  1  0
 43110  1  0
 43111  1  0
 47112  1  0
 47113  1  0
 48114  1  0
 51115  1  1
 52116  1  0
 52117  1  0
 54118  1  0
 55119  1  0
 56120  1  0
 57121  1  0
 58122  1  0
 59123  1  0
 62124  1  0
 62125  1  0
 63126  1  0
 66127  1  6
 67128  1  0
 70129  1  1
 71130  1  0
 71131  1  0
 73132  1  0
 74133  1  0
 76134  1  0
 77135  1  0
 78136  1  0
 79137  1  0
 79138  1  0
 80139  1  0
 80140  1  0
 80141  1  0
 81142  1  0
 81143  1  0
 81144  1  0
M  END
>  <Ligand ID>  (1) 
LIG0005393

>  <Ligand>  (1) 
CHEMBL426363

>  <SMILES>  (1) 
CC(C[C@@H](C(=O)N[C@H](C(=O)OCc1cc(cc(c1)C(F)(F)F)C(F)(F)F)Cc1c[nH]c2c1cccc2)NC(=O)[C@@H]1CCCN1C(=O)CNC(=O)[C@H](Cc1ccccc1)NC(=O)CNC(=O)[C@H](NC(=O)[C@H](Cc1ccc(cc1)O)N)C)C

>  <CID>  (1) 
16737294.0

>  <ChEMBL ID>  (1) 
nan

>  <InChiKey>  (1) 
BGGTUZUVWQJOOJ-CKWXOEDFSA-N

>  <InChi>  (1) 
InChI=1S/C56H63F6N9O10/c1-31(2)20-43(52(78)70-45(25-36-27-64-42-13-8-7-12-40(36)42)54(80)81-30-35-21-37(55(57,58)59)26-38(22-35)56(60,61)62)69-53(79)46-14-9-19-71(46)48(74)29-66-51(77)44(24-33-10-5-4-6-11-33)68-47(73)28-65-49(75)32(3)67-50(76)41(63)23-34-15-17-39(72)18-16-34/h4-8,10-13,15-18,21-22,26-27,31-32,41,43-46,64,72H,9,14,19-20,23-25,28-30,63H2,1-3H3,(H,65,75)(H,66,77)(H,67,76)(H,68,73)(H,69,79)(H,70,78)/t32-,41+,43+,44+,45+,46+/m1/s1

>  <IUPAC Name>  (1) 
[3,5-bis(trifluoromethyl)phenyl]methyl (2S)-2-[[(2S)-2-[[(2S)-1-[2-[[(2S)-2-[[2-[[(2R)-2-[[(2S)-2-amino-3-(4-hydroxyphenyl)propanoyl]amino]propanoyl]amino]acetyl]amino]-3-phenylpropanoyl]amino]acetyl]pyrrolidine-2-carbonyl]amino]-4-methylpentanoyl]amino]-3-(1H-indol-3-yl)propanoate

$$$$
