
     RDKit          3D

 12 11  0  0  0  0  0  0  0  0999 V2000
    2.6807   -0.2054   -0.2185 S   0  0  0  0  0  0  0  0  0  0  0  0
    0.9892   -0.8996   -0.1288 C   0  0  0  0  0  0  0  0  0  0  0  0
   -0.1236    0.5023   -0.1590 S   0  0  0  0  0  0  0  0  0  0  0  0
    0.1903    1.2743   -1.4110 O   0  0  0  0  0  0  0  0  0  0  0  0
    0.2678    1.3557    1.0359 O   0  0  0  0  0  0  0  0  0  0  0  0
   -1.8125    0.0284   -0.0801 C   0  0  0  0  0  0  0  0  0  0  0  0
    2.6608    1.0831   -0.7810 H   0  0  0  0  0  0  0  0  0  0  0  0
    0.9147   -1.4469    0.8196 H   0  0  0  0  0  0  0  0  0  0  0  0
    0.8426   -1.5816   -0.9706 H   0  0  0  0  0  0  0  0  0  0  0  0
   -2.2149    0.2908    0.9220 H   0  0  0  0  0  0  0  0  0  0  0  0
   -2.3895    0.6319   -0.8215 H   0  0  0  0  0  0  0  0  0  0  0  0
   -2.0055   -1.0329   -0.2615 H   0  0  0  0  0  0  0  0  0  0  0  0
  1  2  1  0
  2  3  1  0
  3  4  2  0
  3  5  2  0
  3  6  1  0
  1  7  1  0
  2  8  1  0
  2  9  1  0
  6 10  1  0
  6 11  1  0
  6 12  1  0
M  END
>  <Ligand ID>  (1) 
LIG0005068

>  <Ligand>  (1) 
(Methanesulfonyl)methanethiol

>  <SMILES>  (1) 
SCS(=O)(=O)C

>  <CID>  (1) 
13262432.0

>  <ChEMBL ID>  (1) 
nan

>  <InChiKey>  (1) 
GQKMQCUGCFCEJP-UHFFFAOYSA-N

>  <InChi>  (1) 
InChI=1S/C2H6O2S2/c1-6(3,4)2-5/h5H,2H2,1H3

>  <IUPAC Name>  (1) 
methylsulfonylmethanethiol

$$$$
