
     RDKit          3D

 13 13  0  0  0  0  0  0  0  0999 V2000
    1.0700   -0.3494   -0.6736 C   0  0  0  0  0  0  0  0  0  0  0  0
    0.5662    0.9403   -0.0408 C   0  0  0  0  0  0  0  0  0  0  0  0
   -0.5009    0.3130    0.8511 C   0  0  0  0  0  0  0  0  0  0  0  0
   -1.0605   -0.7109   -0.1198 C   0  0  0  0  0  0  0  0  0  0  0  0
   -0.1316   -0.9078   -1.1131 O   0  0  0  0  0  0  0  0  0  0  0  0
    1.7652   -0.1922   -1.4864 H   0  0  0  0  0  0  0  0  0  0  0  0
    1.4278   -0.9943    0.1448 H   0  0  0  0  0  0  0  0  0  0  0  0
    1.3458    1.4632    0.5319 H   0  0  0  0  0  0  0  0  0  0  0  0
    0.0375    1.5670   -0.7732 H   0  0  0  0  0  0  0  0  0  0  0  0
    0.0051   -0.2548    1.6456 H   0  0  0  0  0  0  0  0  0  0  0  0
   -1.2481    1.0368    1.1966 H   0  0  0  0  0  0  0  0  0  0  0  0
   -1.9972   -0.2288   -0.5137 H   0  0  0  0  0  0  0  0  0  0  0  0
   -1.2793   -1.6821    0.3505 H   0  0  0  0  0  0  0  0  0  0  0  0
  1  2  1  0
  2  3  1  0
  3  4  1  0
  4  5  1  0
  5  1  1  0
  1  6  1  0
  1  7  1  0
  2  8  1  0
  2  9  1  0
  3 10  1  0
  3 11  1  0
  4 12  1  0
  4 13  1  0
M  END
>  <Ligand ID>  (1) 
LIG0000183

>  <Ligand>  (1) 
Tetrahydrofuran

>  <SMILES>  (1) 
C1CCCO1

>  <CID>  (1) 
8028.0

>  <ChEMBL ID>  (1) 
nan

>  <InChiKey>  (1) 
WYURNTSHIVDZCO-UHFFFAOYSA-N

>  <InChi>  (1) 
InChI=1S/C4H8O/c1-2-4-5-3-1/h1-4H2

>  <IUPAC Name>  (1) 
oxolane

$$$$
