
     RDKit          3D

 70 74  0  0  0  0  0  0  0  0999 V2000
   -5.4641   -2.4331   -1.8741 C   0  0  0  0  0  0  0  0  0  0  0  0
   -6.1425   -1.1069   -1.6350 C   0  0  0  0  0  0  0  0  0  0  0  0
   -5.6608   -0.5613   -0.3267 C   0  0  0  0  0  0  0  0  0  0  0  0
   -4.7691   -1.2256    0.4298 N   0  0  0  0  0  0  0  0  0  0  0  0
   -4.3187   -0.7967    1.5759 N   0  0  0  0  0  0  0  0  0  0  0  0
   -3.3589   -1.4934    2.4067 C   0  0  0  0  0  0  0  0  0  0  0  0
   -1.9819   -1.4727    1.8597 C   0  0  0  0  0  0  0  0  0  0  0  0
   -1.3066   -2.5146    1.6316 O   0  0  0  0  0  0  0  0  0  0  0  0
   -1.3805   -0.2162    1.5734 N   0  0  0  0  0  0  0  0  0  0  0  0
   -0.0126   -0.2758    1.0356 C   0  0  0  0  0  0  0  0  0  0  0  0
    0.5744    1.0544    0.7460 C   0  0  0  0  0  0  0  0  0  0  0  0
    1.9168    1.0618    0.2286 N   0  0  0  0  0  0  0  0  0  0  0  0
    2.8124    0.6298    1.2619 C   0  0  0  0  0  0  0  0  0  0  0  0
    4.0151   -0.1339    0.7789 C   0  0  0  0  0  0  0  0  0  0  0  0
    4.4513    0.3697   -0.5149 N   0  0  0  0  0  0  0  0  0  0  0  0
    3.4385    0.4498   -1.5508 C   0  0  0  0  0  0  0  0  0  0  0  0
    2.0515    0.3408   -1.0098 C   0  0  0  0  0  0  0  0  0  0  0  0
    5.7999    0.7453   -0.6972 C   0  0  0  0  0  0  0  0  0  0  0  0
    6.0628    2.0518   -1.0349 C   0  0  0  0  0  0  0  0  0  0  0  0
    7.3788    2.4264   -1.2120 C   0  0  0  0  0  0  0  0  0  0  0  0
    8.4179    1.5218   -1.0574 C   0  0  0  0  0  0  0  0  0  0  0  0
    8.0969    0.2157   -0.7162 C   0  0  0  0  0  0  0  0  0  0  0  0
    6.7970   -0.2070   -0.5284 C   0  0  0  0  0  0  0  0  0  0  0  0
    6.5054   -1.6155   -0.1644 C   0  0  0  0  0  0  0  0  0  0  0  0
    9.1910   -0.7980   -0.5380 C   0  0  0  0  0  0  0  0  0  0  0  0
   -3.7388   -2.9577    2.5789 C   0  0  0  0  0  0  0  0  0  0  0  0
   -4.7954    0.4048    2.0173 C   0  0  0  0  0  0  0  0  0  0  0  0
   -4.3718    0.8390    3.1262 O   0  0  0  0  0  0  0  0  0  0  0  0
   -5.7115    1.1207    1.2735 C   0  0  0  0  0  0  0  0  0  0  0  0
   -6.1550    0.6377    0.0841 N   0  0  0  0  0  0  0  0  0  0  0  0
   -7.0126    1.5345   -0.3856 C   0  0  0  0  0  0  0  0  0  0  0  0
   -7.8587    1.8131   -1.4545 C   0  0  0  0  0  0  0  0  0  0  0  0
   -8.4559    3.0439   -1.1748 C   0  0  0  0  0  0  0  0  0  0  0  0
   -8.0004    3.4774   -0.0160 O   0  0  0  0  0  0  0  0  0  0  0  0
   -7.1373    2.6133    0.4946 C   0  0  0  0  0  0  0  0  0  0  0  0
   -6.2952    2.3293    1.5521 C   0  0  0  0  0  0  0  0  0  0  0  0
   -5.0152   -2.7944   -0.9256 H   0  0  0  0  0  0  0  0  0  0  0  0
   -6.1889   -3.2227   -2.1735 H   0  0  0  0  0  0  0  0  0  0  0  0
   -4.6267   -2.3476   -2.6018 H   0  0  0  0  0  0  0  0  0  0  0  0
   -5.9148   -0.4324   -2.4889 H   0  0  0  0  0  0  0  0  0  0  0  0
   -7.2384   -1.3250   -1.5483 H   0  0  0  0  0  0  0  0  0  0  0  0
   -3.3919   -1.0723    3.4401 H   0  0  0  0  0  0  0  0  0  0  0  0
   -1.8572    0.6985    1.7267 H   0  0  0  0  0  0  0  0  0  0  0  0
    0.5766   -0.9728    1.6223 H   0  0  0  0  0  0  0  0  0  0  0  0
   -0.1597   -0.7913    0.0390 H   0  0  0  0  0  0  0  0  0  0  0  0
    0.5536    1.6363    1.6984 H   0  0  0  0  0  0  0  0  0  0  0  0
   -0.0420    1.6216    0.0195 H   0  0  0  0  0  0  0  0  0  0  0  0
    2.2781    0.0463    2.0111 H   0  0  0  0  0  0  0  0  0  0  0  0
    3.1657    1.5713    1.7786 H   0  0  0  0  0  0  0  0  0  0  0  0
    3.8152   -1.1991    0.6767 H   0  0  0  0  0  0  0  0  0  0  0  0
    4.8115    0.0253    1.5382 H   0  0  0  0  0  0  0  0  0  0  0  0
    3.6124   -0.4503   -2.2119 H   0  0  0  0  0  0  0  0  0  0  0  0
    3.5655    1.3353   -2.2178 H   0  0  0  0  0  0  0  0  0  0  0  0
    1.8012   -0.7386   -0.8964 H   0  0  0  0  0  0  0  0  0  0  0  0
    1.3968    0.8555   -1.7589 H   0  0  0  0  0  0  0  0  0  0  0  0
    5.2304    2.7546   -1.1534 H   0  0  0  0  0  0  0  0  0  0  0  0
    7.5481    3.4632   -1.4771 H   0  0  0  0  0  0  0  0  0  0  0  0
    9.4347    1.8234   -1.1970 H   0  0  0  0  0  0  0  0  0  0  0  0
    6.3045   -1.7415    0.9013 H   0  0  0  0  0  0  0  0  0  0  0  0
    7.4167   -2.2300   -0.4198 H   0  0  0  0  0  0  0  0  0  0  0  0
    5.6300   -1.9796   -0.7366 H   0  0  0  0  0  0  0  0  0  0  0  0
    9.0387   -1.3270    0.4314 H   0  0  0  0  0  0  0  0  0  0  0  0
   10.1872   -0.3063   -0.4938 H   0  0  0  0  0  0  0  0  0  0  0  0
    9.1869   -1.4940   -1.4025 H   0  0  0  0  0  0  0  0  0  0  0  0
   -2.9575   -3.4521    3.1750 H   0  0  0  0  0  0  0  0  0  0  0  0
   -4.7486   -3.1115    2.9557 H   0  0  0  0  0  0  0  0  0  0  0  0
   -3.6707   -3.4413    1.5613 H   0  0  0  0  0  0  0  0  0  0  0  0
   -8.0189    1.1950   -2.3290 H   0  0  0  0  0  0  0  0  0  0  0  0
   -9.1830    3.5833   -1.7932 H   0  0  0  0  0  0  0  0  0  0  0  0
   -6.1218    2.9478    2.4458 H   0  0  0  0  0  0  0  0  0  0  0  0
  1  2  1  0
  2  3  1  0
  3  4  2  0
  4  5  1  0
  5  6  1  0
  6  7  1  0
  7  8  2  0
  7  9  1  0
  9 10  1  0
 10 11  1  0
 11 12  1  0
 12 13  1  0
 13 14  1  0
 14 15  1  0
 15 16  1  0
 16 17  1  0
 15 18  1  0
 18 19  2  0
 19 20  1  0
 20 21  2  0
 21 22  1  0
 22 23  2  0
 23 24  1  0
 22 25  1  0
  6 26  1  0
  5 27  1  0
 27 28  2  0
 27 29  1  0
 29 30  1  0
 30 31  1  0
 31 32  1  0
 32 33  2  0
 33 34  1  0
 34 35  1  0
 35 36  1  0
 30  3  1  0
 35 31  2  0
 17 12  1  0
 23 18  1  0
 36 29  2  0
  1 37  1  0
  1 38  1  0
  1 39  1  0
  2 40  1  0
  2 41  1  0
  6 42  1  0
  9 43  1  0
 10 44  1  0
 10 45  1  0
 11 46  1  0
 11 47  1  0
 13 48  1  0
 13 49  1  0
 14 50  1  0
 14 51  1  0
 16 52  1  0
 16 53  1  0
 17 54  1  0
 17 55  1  0
 19 56  1  0
 20 57  1  0
 21 58  1  0
 24 59  1  0
 24 60  1  0
 24 61  1  0
 25 62  1  0
 25 63  1  0
 25 64  1  0
 26 65  1  0
 26 66  1  0
 26 67  1  0
 32 68  1  0
 33 69  1  0
 36 70  1  0
M  END
>  <Ligand ID>  (1) 
LIG0004127

>  <Ligand>  (1) 
MLS000093991

>  <SMILES>  (1) 
CCc1nn(C(C(=O)NCCN2CCN(CC2)c2cccc(c2C)C)C)c(=O)c2n1c1ccoc1c2

>  <CID>  (1) 
3235665.0

>  <ChEMBL ID>  (1) 
nan

>  <InChiKey>  (1) 
JRAWDWVNMXSWBO-UHFFFAOYSA-N

>  <InChi>  (1) 
InChI=1S/C27H34N6O3/c1-5-25-29-33(27(35)23-17-24-22(32(23)25)9-16-36-24)20(4)26(34)28-10-11-30-12-14-31(15-13-30)21-8-6-7-18(2)19(21)3/h6-9,16-17,20H,5,10-15H2,1-4H3,(H,28,34)

>  <IUPAC Name>  (1) 
N-[2-[4-(2,3-dimethylphenyl)piperazin-1-yl]ethyl]-2-(12-ethyl-9-oxo-5-oxa-1,10,11-triazatricyclo[6.4.0.02,6]dodeca-2(6),3,7,11-tetraen-10-yl)propanamide

$$$$
