
     RDKit          3D

 92 95  0  0  0  0  0  0  0  0999 V2000
    1.0594    7.2136    0.9287 N   0  0  0  0  0  0  0  0  0  0  0  0
    1.9862    7.3047   -0.1403 C   0  0  0  0  0  0  0  0  0  0  0  0
    2.2551    6.2475   -0.8592 N   0  0  0  0  0  0  0  0  0  0  0  0
    1.5949    4.9949   -0.5456 C   0  0  0  0  0  0  0  0  0  0  0  0
    2.5481    4.1959    0.3320 C   0  0  0  0  0  0  0  0  0  0  0  0
    1.9748    2.8807    0.7181 C   0  0  0  0  0  0  0  0  0  0  0  0
    1.6404    2.0199   -0.4908 C   0  0  1  0  0  0  0  0  0  0  0  0
    2.9061    1.7656   -1.2571 C   0  0  0  0  0  0  0  0  0  0  0  0
    3.3803    0.4360   -0.6908 C   0  0  2  0  0  0  0  0  0  0  0  0
    2.3724    0.0100    0.3433 C   0  0  0  0  0  0  0  0  0  0  0  0
    1.1486    0.7366   -0.0773 N   0  0  0  0  0  0  0  0  0  0  0  0
   -0.1046    0.1372    0.0266 C   0  0  0  0  0  0  0  0  0  0  0  0
   -0.1229   -1.0333    0.5533 O   0  0  0  0  0  0  0  0  0  0  0  0
   -1.4241    0.6586   -0.3813 C   0  0  2  0  0  0  0  0  0  0  0  0
   -2.4818   -0.1807    0.1615 N   0  0  0  0  0  0  0  0  0  0  0  0
   -2.6511   -1.5483   -0.1709 C   0  0  0  0  0  0  0  0  0  0  0  0
   -1.9024   -2.1631   -0.9716 O   0  0  0  0  0  0  0  0  0  0  0  0
   -3.7793   -2.3436    0.4489 C   0  0  1  0  0  0  0  0  0  0  0  0
   -4.5319   -1.4755    1.3366 N   0  0  0  0  0  0  0  0  0  0  0  0
   -4.6217   -1.6588    2.7315 C   0  0  0  0  0  0  0  0  0  0  0  0
   -4.0491   -2.6091    3.3506 O   0  0  0  0  0  0  0  0  0  0  0  0
   -5.4234   -0.7038    3.5486 C   0  0  0  0  0  0  0  0  0  0  0  0
   -4.6568   -2.9763   -0.5857 C   0  0  0  0  0  0  0  0  0  0  0  0
   -5.7677   -3.7527    0.0579 C   0  0  0  0  0  0  0  0  0  0  0  0
   -5.2378   -4.8510    0.8738 C   0  0  0  0  0  0  0  0  0  0  0  0
   -4.0557   -5.2461    0.9217 O   0  0  0  0  0  0  0  0  0  0  0  0
   -6.1749   -5.5537    1.7082 N   0  0  0  0  0  0  0  0  0  0  0  0
   -1.5784    0.8387   -1.8692 C   0  0  0  0  0  0  0  0  0  0  0  0
   -2.9225    1.3593   -2.1478 C   0  0  0  0  0  0  0  0  0  0  0  0
   -4.0233    0.5873   -2.4428 C   0  0  0  0  0  0  0  0  0  0  0  0
   -5.2764    1.1058   -2.6900 C   0  0  0  0  0  0  0  0  0  0  0  0
   -5.4796    2.4684   -2.6491 C   0  0  0  0  0  0  0  0  0  0  0  0
   -4.3993    3.2771   -2.3563 C   0  0  0  0  0  0  0  0  0  0  0  0
   -3.1546    2.7422   -2.1122 C   0  0  0  0  0  0  0  0  0  0  0  0
    4.5994    0.6371   -0.1067 O   0  0  0  0  0  0  0  0  0  0  0  0
    5.6590   -0.0973   -0.5603 C   0  0  0  0  0  0  0  0  0  0  0  0
    5.4825   -1.5423   -0.4278 C   0  0  0  0  0  0  0  0  0  0  0  0
    5.0256   -2.3847   -1.4145 C   0  0  0  0  0  0  0  0  0  0  0  0
    4.8650   -3.7504   -1.2271 C   0  0  0  0  0  0  0  0  0  0  0  0
    5.1691   -4.3114   -0.0114 C   0  0  0  0  0  0  0  0  0  0  0  0
    5.6298   -3.4992    1.0016 C   0  0  0  0  0  0  0  0  0  0  0  0
    5.7817   -2.1492    0.7954 C   0  0  0  0  0  0  0  0  0  0  0  0
    5.9208   -4.1217    2.2051 C   0  0  0  0  0  0  0  0  0  0  0  0
    5.7514   -5.4806    2.3583 C   0  0  0  0  0  0  0  0  0  0  0  0
    5.2876   -6.2768    1.3271 C   0  0  0  0  0  0  0  0  0  0  0  0
    4.9923   -5.6703    0.1189 C   0  0  0  0  0  0  0  0  0  0  0  0
    2.6117    8.5437   -0.4145 N   0  0  0  0  0  0  0  0  0  0  0  0
    1.3702    7.2816    1.9271 H   0  0  0  0  0  0  0  0  0  0  0  0
    0.0532    7.0772    0.7107 H   0  0  0  0  0  0  0  0  0  0  0  0
    0.6550    5.2306   -0.0230 H   0  0  0  0  0  0  0  0  0  0  0  0
    1.4391    4.4656   -1.5037 H   0  0  0  0  0  0  0  0  0  0  0  0
    2.6931    4.7815    1.2983 H   0  0  0  0  0  0  0  0  0  0  0  0
    3.5245    4.1436   -0.1403 H   0  0  0  0  0  0  0  0  0  0  0  0
    1.1016    2.9867    1.3919 H   0  0  0  0  0  0  0  0  0  0  0  0
    2.7509    2.3244    1.2956 H   0  0  0  0  0  0  0  0  0  0  0  0
    0.8706    2.5231   -1.1156 H   0  0  0  0  0  0  0  0  0  0  0  0
    2.5698    1.5483   -2.3176 H   0  0  0  0  0  0  0  0  0  0  0  0
    3.6635    2.5337   -1.2303 H   0  0  0  0  0  0  0  0  0  0  0  0
    3.4018   -0.3401   -1.4914 H   0  0  0  0  0  0  0  0  0  0  0  0
    2.7101    0.3086    1.3383 H   0  0  0  0  0  0  0  0  0  0  0  0
    2.1960   -1.0861    0.3357 H   0  0  0  0  0  0  0  0  0  0  0  0
   -1.5453    1.6531    0.0724 H   0  0  0  0  0  0  0  0  0  0  0  0
   -3.1941    0.2077    0.8513 H   0  0  0  0  0  0  0  0  0  0  0  0
   -3.3180   -3.1301    1.0672 H   0  0  0  0  0  0  0  0  0  0  0  0
   -5.0377   -0.6657    0.9092 H   0  0  0  0  0  0  0  0  0  0  0  0
   -5.3003    0.3351    3.1492 H   0  0  0  0  0  0  0  0  0  0  0  0
   -6.4821   -1.0003    3.5984 H   0  0  0  0  0  0  0  0  0  0  0  0
   -5.0121   -0.6786    4.5875 H   0  0  0  0  0  0  0  0  0  0  0  0
   -5.0488   -2.2412   -1.3243 H   0  0  0  0  0  0  0  0  0  0  0  0
   -4.0582   -3.7032   -1.1880 H   0  0  0  0  0  0  0  0  0  0  0  0
   -6.3404   -3.0332    0.7069 H   0  0  0  0  0  0  0  0  0  0  0  0
   -6.4986   -4.1270   -0.7101 H   0  0  0  0  0  0  0  0  0  0  0  0
   -6.5736   -4.9980    2.5130 H   0  0  0  0  0  0  0  0  0  0  0  0
   -6.4354   -6.5472    1.5198 H   0  0  0  0  0  0  0  0  0  0  0  0
   -0.8785    1.6121   -2.2008 H   0  0  0  0  0  0  0  0  0  0  0  0
   -1.3197   -0.0649   -2.4474 H   0  0  0  0  0  0  0  0  0  0  0  0
   -3.9238   -0.4830   -2.4952 H   0  0  0  0  0  0  0  0  0  0  0  0
   -6.1291    0.4509   -2.9227 H   0  0  0  0  0  0  0  0  0  0  0  0
   -6.4742    2.8367   -2.8485 H   0  0  0  0  0  0  0  0  0  0  0  0
   -4.5864    4.3372   -2.3303 H   0  0  0  0  0  0  0  0  0  0  0  0
   -2.2996    3.3641   -1.8838 H   0  0  0  0  0  0  0  0  0  0  0  0
    5.9284    0.1835   -1.6254 H   0  0  0  0  0  0  0  0  0  0  0  0
    6.5521    0.2353    0.0207 H   0  0  0  0  0  0  0  0  0  0  0  0
    4.7819   -2.0060   -2.3841 H   0  0  0  0  0  0  0  0  0  0  0  0
    4.5010   -4.3705   -2.0385 H   0  0  0  0  0  0  0  0  0  0  0  0
    6.1534   -1.5565    1.6417 H   0  0  0  0  0  0  0  0  0  0  0  0
    6.2850   -3.5315    3.0353 H   0  0  0  0  0  0  0  0  0  0  0  0
    5.9721   -5.9959    3.2886 H   0  0  0  0  0  0  0  0  0  0  0  0
    5.1482   -7.3470    1.4267 H   0  0  0  0  0  0  0  0  0  0  0  0
    4.6330   -6.2960   -0.6754 H   0  0  0  0  0  0  0  0  0  0  0  0
    2.1392    9.1998   -1.0558 H   0  0  0  0  0  0  0  0  0  0  0  0
    3.5391    8.8004    0.0192 H   0  0  0  0  0  0  0  0  0  0  0  0
  1  2  1  0
  2  3  2  3
  3  4  1  0
  4  5  1  0
  5  6  1  0
  6  7  1  0
  7  8  1  0
  8  9  1  0
  9 10  1  0
 10 11  1  0
 11 12  1  0
 12 13  2  0
 12 14  1  0
 14 15  1  0
 15 16  1  0
 16 17  2  0
 16 18  1  0
 18 19  1  0
 19 20  1  0
 20 21  2  0
 20 22  1  0
 18 23  1  0
 23 24  1  0
 24 25  1  0
 25 26  2  0
 25 27  1  0
 14 28  1  0
 28 29  1  0
 29 30  2  0
 30 31  1  0
 31 32  2  0
 32 33  1  0
 33 34  2  0
  9 35  1  0
 35 36  1  0
 36 37  1  0
 37 38  2  0
 38 39  1  0
 39 40  2  0
 40 41  1  0
 41 42  2  0
 41 43  1  0
 43 44  2  0
 44 45  1  0
 45 46  2  0
  2 47  1  0
 11  7  1  0
 34 29  1  0
 42 37  1  0
 46 40  1  0
  1 48  1  0
  1 49  1  0
  4 50  1  0
  4 51  1  0
  5 52  1  0
  5 53  1  0
  6 54  1  0
  6 55  1  0
  7 56  1  6
  8 57  1  0
  8 58  1  0
  9 59  1  6
 10 60  1  0
 10 61  1  0
 14 62  1  1
 15 63  1  0
 18 64  1  1
 19 65  1  0
 22 66  1  0
 22 67  1  0
 22 68  1  0
 23 69  1  0
 23 70  1  0
 24 71  1  0
 24 72  1  0
 27 73  1  0
 27 74  1  0
 28 75  1  0
 28 76  1  0
 30 77  1  0
 31 78  1  0
 32 79  1  0
 33 80  1  0
 34 81  1  0
 36 82  1  0
 36 83  1  0
 38 84  1  0
 39 85  1  0
 42 86  1  0
 43 87  1  0
 44 88  1  0
 45 89  1  0
 46 90  1  0
 47 91  1  0
 47 92  1  0
M  END
>  <Ligand ID>  (1) 
LIG0003312

>  <Ligand>  (1) 
CHEMBL209789

>  <SMILES>  (1) 
NC(=NCCC[C@H]1C[C@H](CN1C(=O)[C@H](NC(=O)[C@@H](NC(=O)C)CCC(=O)N)Cc1ccccc1)OCc1ccc2c(c1)cccc2)N

>  <CID>  (1) 
44413931.0

>  <ChEMBL ID>  (1) 
nan

>  <InChiKey>  (1) 
HTSRDLNRKNCSLJ-XFBWMNOSSA-N

>  <InChi>  (1) 
InChI=1S/C35H45N7O5/c1-23(43)40-30(15-16-32(36)44)33(45)41-31(19-24-8-3-2-4-9-24)34(46)42-21-29(20-28(42)12-7-17-39-35(37)38)47-22-25-13-14-26-10-5-6-11-27(26)18-25/h2-6,8-11,13-14,18,28-31H,7,12,15-17,19-22H2,1H3,(H2,36,44)(H,40,43)(H,41,45)(H4,37,38,39)/t28-,29+,30-,31+/m0/s1

>  <IUPAC Name>  (1) 
(2S)-2-acetamido-N-[(2R)-1-[(2S,4R)-2-[3-(diaminomethylideneamino)propyl]-4-(naphthalen-2-ylmethoxy)pyrrolidin-1-yl]-1-oxo-3-phenylpropan-2-yl]pentanediamide

$$$$
