
     RDKit          3D

 58 61  0  0  0  0  0  0  0  0999 V2000
    1.5244    1.0327    1.2101 O   0  0  0  0  0  0  0  0  0  0  0  0
    1.8596    1.1286   -0.0166 C   0  0  0  0  0  0  0  0  0  0  0  0
    0.8787    1.1431   -1.0411 N   0  0  0  0  0  0  0  0  0  0  0  0
   -0.5127    1.0781   -0.7137 C   0  0  2  0  0  0  0  0  0  0  0  0
   -0.8956    2.4376   -0.1186 C   0  0  0  0  0  0  0  0  0  0  0  0
   -2.2314    2.3947    0.5423 C   0  0  0  0  0  0  0  0  0  0  0  0
   -3.0962    1.2216    0.1985 C   0  0  1  0  0  0  0  0  0  0  0  0
   -2.4108   -0.1056    0.1988 C   0  0  0  0  0  0  0  0  0  0  0  0
   -0.9203    0.0622    0.2797 C   0  0  1  0  0  0  0  0  0  0  0  0
   -0.1825   -1.1524    0.2897 N   0  0  0  0  0  0  0  0  0  0  0  0
   -0.1559   -1.9101   -0.9114 C   0  0  0  0  0  0  0  0  0  0  0  0
    0.2798   -3.2887   -0.4609 C   0  0  0  0  0  0  0  0  0  0  0  0
    0.2200   -3.2503    1.0717 C   0  0  0  0  0  0  0  0  0  0  0  0
   -0.7360   -2.0873    1.2542 C   0  0  0  0  0  0  0  0  0  0  0  0
   -4.2191    1.2115    1.2193 C   0  0  0  0  0  0  0  0  0  0  0  0
   -5.4156    1.6517    0.4384 C   0  0  0  0  0  0  0  0  0  0  0  0
   -4.8115    2.2062   -0.8286 C   0  0  0  0  0  0  0  0  0  0  0  0
   -3.7059    1.4257   -1.0347 O   0  0  0  0  0  0  0  0  0  0  0  0
    1.3372    1.2250   -2.4282 C   0  0  0  0  0  0  0  0  0  0  0  0
    3.3200    1.2198   -0.2712 C   0  0  0  0  0  0  0  0  0  0  0  0
    4.0502   -0.0163    0.1288 C   0  0  0  0  0  0  0  0  0  0  0  0
    4.3651   -0.3150    1.4360 C   0  0  0  0  0  0  0  0  0  0  0  0
    5.0602   -1.4830    1.6965 C   0  0  0  0  0  0  0  0  0  0  0  0
    5.4414   -2.3515    0.6631 C   0  0  0  0  0  0  0  0  0  0  0  0
    5.0998   -2.0063   -0.6477 C   0  0  0  0  0  0  0  0  0  0  0  0
    4.4193   -0.8666   -0.9223 C   0  0  0  0  0  0  0  0  0  0  0  0
   -1.0975    1.0650   -1.6798 H   0  0  0  0  0  0  0  0  0  0  0  0
   -0.8225    3.2369   -0.9002 H   0  0  0  0  0  0  0  0  0  0  0  0
   -0.1389    2.6581    0.6568 H   0  0  0  0  0  0  0  0  0  0  0  0
   -2.7884    3.3140    0.2584 H   0  0  0  0  0  0  0  0  0  0  0  0
   -2.1892    2.4403    1.6680 H   0  0  0  0  0  0  0  0  0  0  0  0
   -2.7906   -0.7390    1.0550 H   0  0  0  0  0  0  0  0  0  0  0  0
   -2.6114   -0.6801   -0.7293 H   0  0  0  0  0  0  0  0  0  0  0  0
   -0.7446    0.5269    1.3033 H   0  0  0  0  0  0  0  0  0  0  0  0
   -1.1535   -1.9295   -1.4376 H   0  0  0  0  0  0  0  0  0  0  0  0
    0.6081   -1.5586   -1.6445 H   0  0  0  0  0  0  0  0  0  0  0  0
   -0.4180   -4.0913   -0.7954 H   0  0  0  0  0  0  0  0  0  0  0  0
    1.3317   -3.5276   -0.7250 H   0  0  0  0  0  0  0  0  0  0  0  0
   -0.2723   -4.1250    1.5027 H   0  0  0  0  0  0  0  0  0  0  0  0
    1.2148   -3.0120    1.4979 H   0  0  0  0  0  0  0  0  0  0  0  0
   -0.7458   -1.7064    2.2835 H   0  0  0  0  0  0  0  0  0  0  0  0
   -1.7312   -2.4725    0.8995 H   0  0  0  0  0  0  0  0  0  0  0  0
   -4.0527    1.9182    2.0607 H   0  0  0  0  0  0  0  0  0  0  0  0
   -4.3435    0.1982    1.6661 H   0  0  0  0  0  0  0  0  0  0  0  0
   -6.0835    0.7931    0.2158 H   0  0  0  0  0  0  0  0  0  0  0  0
   -6.0217    2.4146    0.9785 H   0  0  0  0  0  0  0  0  0  0  0  0
   -4.5958    3.2870   -0.6513 H   0  0  0  0  0  0  0  0  0  0  0  0
   -5.5340    2.0764   -1.6649 H   0  0  0  0  0  0  0  0  0  0  0  0
    0.4342    1.1581   -3.1011 H   0  0  0  0  0  0  0  0  0  0  0  0
    1.8136    2.1808   -2.6745 H   0  0  0  0  0  0  0  0  0  0  0  0
    1.9989    0.3569   -2.6386 H   0  0  0  0  0  0  0  0  0  0  0  0
    3.7582    2.0979    0.2920 H   0  0  0  0  0  0  0  0  0  0  0  0
    3.4820    1.4541   -1.3314 H   0  0  0  0  0  0  0  0  0  0  0  0
    4.0666    0.3634    2.2385 H   0  0  0  0  0  0  0  0  0  0  0  0
    5.3352   -1.7724    2.7007 H   0  0  0  0  0  0  0  0  0  0  0  0
    5.9752   -3.2478    0.8575 H   0  0  0  0  0  0  0  0  0  0  0  0
    5.3895   -2.6678   -1.4483 H   0  0  0  0  0  0  0  0  0  0  0  0
    4.1649   -0.6156   -1.9454 H   0  0  0  0  0  0  0  0  0  0  0  0
  1  2  2  0
  2  3  1  0
  3  4  1  0
  4  5  1  0
  5  6  1  0
  6  7  1  0
  7  8  1  0
  8  9  1  0
  9 10  1  0
 10 11  1  0
 11 12  1  0
 12 13  1  0
 13 14  1  0
  7 15  1  0
 15 16  1  0
 16 17  1  0
 17 18  1  0
  3 19  1  0
  2 20  1  0
 20 21  1  0
 21 22  2  0
 22 23  1  0
 23 24  2  0
 24 25  1  0
 25 26  2  0
  9  4  1  0
 14 10  1  0
 26 21  1  0
  7 18  1  6
  4 27  1  6
  5 28  1  0
  5 29  1  0
  6 30  1  0
  6 31  1  0
  8 32  1  0
  8 33  1  0
  9 34  1  1
 11 35  1  0
 11 36  1  0
 12 37  1  0
 12 38  1  0
 13 39  1  0
 13 40  1  0
 14 41  1  0
 14 42  1  0
 15 43  1  0
 15 44  1  0
 16 45  1  0
 16 46  1  0
 17 47  1  0
 17 48  1  0
 19 49  1  0
 19 50  1  0
 19 51  1  0
 20 52  1  0
 20 53  1  0
 22 54  1  0
 23 55  1  0
 24 56  1  0
 25 57  1  0
 26 58  1  0
M  END
>  <Ligand ID>  (1) 
LIG0004501

>  <Ligand>  (1) 
Lopac0_001206

>  <SMILES>  (1) 
O=C(N([C@@H]1CC[C@@]2(C[C@H]1N1CCCC1)CCCO2)C)Cc1ccccc1

>  <CID>  (1) 
11957712.0

>  <ChEMBL ID>  (1) 
nan

>  <InChiKey>  (1) 
PGZRDDYTKFZSFR-KCZVDYSFSA-N

>  <InChi>  (1) 
InChI=1S/C22H32N2O2/c1-23(21(25)16-18-8-3-2-4-9-18)19-10-12-22(11-7-15-26-22)17-20(19)24-13-5-6-14-24/h2-4,8-9,19-20H,5-7,10-17H2,1H3/t19-,20-,22-/m1/s1

>  <IUPAC Name>  (1) 
N-methyl-2-phenyl-N-[(5S,7R,8R)-7-pyrrolidin-1-yl-1-oxaspiro[4.5]decan-8-yl]acetamide

$$$$
