
     RDKit          3D

 27 26  0  0  0  0  0  0  0  0999 V2000
    4.7416    0.8605    0.1861 C   0  0  0  0  0  0  0  0  0  0  0  0
    4.0503   -0.1370    0.1594 C   0  0  0  0  0  0  0  0  0  0  0  0
    3.2216   -1.3619    0.1115 C   0  0  0  0  0  0  0  0  0  0  0  0
    1.9636   -1.0139    0.7108 O   0  0  0  0  0  0  0  0  0  0  0  0
    1.2283    0.0058    0.1197 C   0  0  0  0  0  0  0  0  0  0  0  0
    1.6279    0.6256   -0.9129 O   0  0  0  0  0  0  0  0  0  0  0  0
   -0.0930    0.3737    0.7465 C   0  0  0  0  0  0  0  0  0  0  0  0
   -0.9343   -0.8881    0.6911 C   0  0  0  0  0  0  0  0  0  0  0  0
   -1.9461   -0.7274   -0.4446 C   0  0  0  0  0  0  0  0  0  0  0  0
   -2.7936    0.4357   -0.0559 C   0  0  0  0  0  0  0  0  0  0  0  0
   -2.1610    1.5479    0.1779 N   0  0  0  0  0  0  0  0  0  0  0  0
   -0.7187    1.5310    0.0356 C   0  0  0  0  0  0  0  0  0  0  0  0
   -4.2102    0.3536    0.0577 N   0  0  0  0  0  0  0  0  0  0  0  0
    0.6868    0.0000    0.0000 Cl  0  0  0  0  0  0  0  0  0  0  0  0
    5.3469    1.7338    0.2255 H   0  0  0  0  0  0  0  0  0  0  0  0
    3.0074   -1.6742   -0.9256 H   0  0  0  0  0  0  0  0  0  0  0  0
    3.6655   -2.1470    0.7441 H   0  0  0  0  0  0  0  0  0  0  0  0
    0.1166    0.6495    1.8106 H   0  0  0  0  0  0  0  0  0  0  0  0
   -1.5588   -0.8793    1.6181 H   0  0  0  0  0  0  0  0  0  0  0  0
   -0.3425   -1.8093    0.5788 H   0  0  0  0  0  0  0  0  0  0  0  0
   -2.5534   -1.6459   -0.5137 H   0  0  0  0  0  0  0  0  0  0  0  0
   -1.4265   -0.4777   -1.3924 H   0  0  0  0  0  0  0  0  0  0  0  0
   -0.3407    2.4892    0.4915 H   0  0  0  0  0  0  0  0  0  0  0  0
   -0.4240    1.4913   -1.0493 H   0  0  0  0  0  0  0  0  0  0  0  0
   -4.6837   -0.2415    0.7905 H   0  0  0  0  0  0  0  0  0  0  0  0
   -4.7831    0.9055   -0.6124 H   0  0  0  0  0  0  0  0  0  0  0  0
   -0.6868    0.0000    0.0000 H   0  0  0  0  0  0  0  0  0  0  0  0
  1  2  3  0
  2  3  1  0
  3  4  1  0
  4  5  1  0
  5  6  2  0
  5  7  1  0
  7  8  1  0
  8  9  1  0
  9 10  1  0
 10 11  2  0
 11 12  1  0
 10 13  1  0
 12  7  1  0
  1 15  1  0
  3 16  1  0
  3 17  1  0
  7 18  1  0
  8 19  1  0
  8 20  1  0
  9 21  1  0
  9 22  1  0
 12 23  1  0
 12 24  1  0
 13 25  1  0
 13 26  1  0
 14 27  1  0
M  END
>  <Ligand ID>  (1) 
LIG0005606

>  <Ligand>  (1) 
CHEMBL557795

>  <SMILES>  (1) 
C#CCOC(=O)C1CCC(=NC1)N.Cl

>  <CID>  (1) 
45263948.0

>  <ChEMBL ID>  (1) 
nan

>  <InChiKey>  (1) 
ULLUJDHCDARZJN-UHFFFAOYSA-N

>  <InChi>  (1) 
InChI=1S/C9H12N2O2.ClH/c1-2-5-13-9(12)7-3-4-8(10)11-6-7;/h1,7H,3-6H2,(H2,10,11);1H

>  <IUPAC Name>  (1) 
prop-2-ynyl 6-amino-2,3,4,5-tetrahydropyridine-3-carboxylate;hydrochloride

$$$$
