
     RDKit          3D

 92 96  0  0  0  0  0  0  0  0999 V2000
    2.9777    3.4902   -4.5491 C   0  0  0  0  0  0  0  0  0  0  0  0
    2.5831    2.7503   -3.3665 N   0  0  0  0  0  0  0  0  0  0  0  0
    3.5567    1.9680   -2.7206 C   0  0  0  0  0  0  0  0  0  0  0  0
    4.7178    1.9544   -3.1960 O   0  0  0  0  0  0  0  0  0  0  0  0
    3.2961    1.1459   -1.4878 C   0  0  1  0  0  0  0  0  0  0  0  0
    1.8932    0.9875   -1.3432 N   0  0  0  0  0  0  0  0  0  0  0  0
    1.0362    0.1646   -2.1879 C   0  0  0  0  0  0  0  0  0  0  0  0
    0.0317   -0.4598   -1.1958 C   0  0  0  0  0  0  0  0  0  0  0  0
   -0.8984    0.5556   -0.6642 N   0  0  0  0  0  0  0  0  0  0  0  0
   -0.2896    1.9213   -0.6385 C   0  0  2  0  0  0  0  0  0  0  0  0
    1.1455    1.6202   -0.2545 C   0  0  0  0  0  0  0  0  0  0  0  0
    1.6809    1.8449    0.8262 O   0  0  0  0  0  0  0  0  0  0  0  0
   -0.9741    2.8953    0.2091 C   0  0  0  0  0  0  0  0  0  0  0  0
   -0.4185    4.2793    0.1456 C   0  0  0  0  0  0  0  0  0  0  0  0
    0.9715    4.5311    0.5328 C   0  0  0  0  0  0  0  0  0  0  0  0
    1.1802    6.0175    0.3687 N   0  0  0  0  0  0  0  0  0  0  0  0
    1.0464    6.7301    1.4373 C   0  0  0  0  0  0  0  0  0  0  0  0
    0.7163    6.0245    2.6470 N   0  0  0  0  0  0  0  0  0  0  0  0
    1.2070    8.1253    1.4638 N   0  0  0  0  0  0  0  0  0  0  0  0
   -2.2015    0.2543   -0.2506 C   0  0  0  0  0  0  0  0  0  0  0  0
   -3.0430    1.0613    0.2079 O   0  0  0  0  0  0  0  0  0  0  0  0
   -2.6918   -1.1644   -0.3479 C   0  0  2  0  0  0  0  0  0  0  0  0
   -4.0857   -1.2684   -0.1818 N   0  0  0  0  0  0  0  0  0  0  0  0
   -4.7317   -0.8226    0.9727 C   0  0  0  0  0  0  0  0  0  0  0  0
   -6.1070   -1.5195    1.0145 C   0  0  0  0  0  0  0  0  0  0  0  0
   -6.8822   -1.0402   -0.1143 N   0  0  0  0  0  0  0  0  0  0  0  0
   -6.2377   -1.3370   -1.3748 C   0  0  0  0  0  0  0  0  0  0  0  0
   -4.8454   -1.8938   -1.1868 C   0  0  0  0  0  0  0  0  0  0  0  0
   -2.0178   -2.0871    0.6323 C   0  0  0  0  0  0  0  0  0  0  0  0
   -2.4864   -3.4844    0.5177 C   0  0  0  0  0  0  0  0  0  0  0  0
   -3.4945   -4.0518    1.2418 C   0  0  0  0  0  0  0  0  0  0  0  0
   -3.8750   -5.3735    1.0693 C   0  0  0  0  0  0  0  0  0  0  0  0
   -3.1986   -6.1371    0.1232 C   0  0  0  0  0  0  0  0  0  0  0  0
   -2.1784   -5.5968   -0.6229 C   0  0  0  0  0  0  0  0  0  0  0  0
   -1.8287   -4.2821   -0.4243 C   0  0  0  0  0  0  0  0  0  0  0  0
   -3.5487   -7.4235   -0.0623 F   0  0  0  0  0  0  0  0  0  0  0  0
    4.1391   -0.0611   -1.5862 C   0  0  0  0  0  0  0  0  0  0  0  0
    4.0516   -1.0202   -0.4641 C   0  0  0  0  0  0  0  0  0  0  0  0
    3.2076   -2.1030   -0.4276 C   0  0  0  0  0  0  0  0  0  0  0  0
    3.1429   -2.9835    0.6369 C   0  0  0  0  0  0  0  0  0  0  0  0
    3.9751   -2.7503    1.7117 C   0  0  0  0  0  0  0  0  0  0  0  0
    4.8504   -1.6750    1.7360 C   0  0  0  0  0  0  0  0  0  0  0  0
    4.8678   -0.8381    0.6512 C   0  0  0  0  0  0  0  0  0  0  0  0
    5.6627   -1.4867    2.8339 C   0  0  0  0  0  0  0  0  0  0  0  0
    5.5717   -2.3849    3.8752 C   0  0  0  0  0  0  0  0  0  0  0  0
    4.7116   -3.4532    3.8655 C   0  0  0  0  0  0  0  0  0  0  0  0
    3.9008   -3.6389    2.7666 C   0  0  0  0  0  0  0  0  0  0  0  0
    4.0908    3.5201   -4.6545 H   0  0  0  0  0  0  0  0  0  0  0  0
    2.6007    2.9656   -5.4632 H   0  0  0  0  0  0  0  0  0  0  0  0
    2.5728    4.5265   -4.5533 H   0  0  0  0  0  0  0  0  0  0  0  0
    1.6237    2.8175   -3.0212 H   0  0  0  0  0  0  0  0  0  0  0  0
    3.7247    1.7755   -0.6410 H   0  0  0  0  0  0  0  0  0  0  0  0
    0.4796    0.8147   -2.8661 H   0  0  0  0  0  0  0  0  0  0  0  0
    1.5447   -0.6710   -2.6676 H   0  0  0  0  0  0  0  0  0  0  0  0
    0.6930   -0.7520   -0.3320 H   0  0  0  0  0  0  0  0  0  0  0  0
   -0.4549   -1.3333   -1.5960 H   0  0  0  0  0  0  0  0  0  0  0  0
   -0.3089    2.2206   -1.7021 H   0  0  0  0  0  0  0  0  0  0  0  0
   -2.0830    2.9371   -0.0387 H   0  0  0  0  0  0  0  0  0  0  0  0
   -0.9115    2.5719    1.2847 H   0  0  0  0  0  0  0  0  0  0  0  0
   -1.1395    5.0148    0.6310 H   0  0  0  0  0  0  0  0  0  0  0  0
   -0.4906    4.5870   -0.9643 H   0  0  0  0  0  0  0  0  0  0  0  0
    1.2273    4.2751    1.5579 H   0  0  0  0  0  0  0  0  0  0  0  0
    1.6795    4.1514   -0.2462 H   0  0  0  0  0  0  0  0  0  0  0  0
    1.4598    5.8113    3.3282 H   0  0  0  0  0  0  0  0  0  0  0  0
   -0.2531    5.7195    2.8620 H   0  0  0  0  0  0  0  0  0  0  0  0
    0.5500    8.7196    0.9310 H   0  0  0  0  0  0  0  0  0  0  0  0
    2.0012    8.5058    2.0331 H   0  0  0  0  0  0  0  0  0  0  0  0
   -2.4412   -1.5000   -1.3796 H   0  0  0  0  0  0  0  0  0  0  0  0
   -4.2189   -1.1143    1.9095 H   0  0  0  0  0  0  0  0  0  0  0  0
   -5.0145    0.2681    0.9995 H   0  0  0  0  0  0  0  0  0  0  0  0
   -6.6377   -1.3492    1.9473 H   0  0  0  0  0  0  0  0  0  0  0  0
   -5.9413   -2.5996    0.8576 H   0  0  0  0  0  0  0  0  0  0  0  0
   -7.8687   -1.3210   -0.0789 H   0  0  0  0  0  0  0  0  0  0  0  0
   -6.2576   -0.4746   -2.0586 H   0  0  0  0  0  0  0  0  0  0  0  0
   -6.8233   -2.1531   -1.8564 H   0  0  0  0  0  0  0  0  0  0  0  0
   -4.8707   -3.0083   -1.0734 H   0  0  0  0  0  0  0  0  0  0  0  0
   -4.3245   -1.7513   -2.1796 H   0  0  0  0  0  0  0  0  0  0  0  0
   -0.9296   -2.0753    0.6299 H   0  0  0  0  0  0  0  0  0  0  0  0
   -2.2988   -1.7505    1.6811 H   0  0  0  0  0  0  0  0  0  0  0  0
   -4.0182   -3.4682    1.9793 H   0  0  0  0  0  0  0  0  0  0  0  0
   -4.6643   -5.8209    1.6350 H   0  0  0  0  0  0  0  0  0  0  0  0
   -1.6343   -6.1661   -1.3695 H   0  0  0  0  0  0  0  0  0  0  0  0
   -1.0178   -3.8672   -1.0237 H   0  0  0  0  0  0  0  0  0  0  0  0
    4.0233   -0.5985   -2.5791 H   0  0  0  0  0  0  0  0  0  0  0  0
    5.2311    0.2402   -1.6211 H   0  0  0  0  0  0  0  0  0  0  0  0
    2.5519   -2.3020   -1.2629 H   0  0  0  0  0  0  0  0  0  0  0  0
    2.4491   -3.8181    0.5897 H   0  0  0  0  0  0  0  0  0  0  0  0
    5.5628   -0.0009    0.6914 H   0  0  0  0  0  0  0  0  0  0  0  0
    6.3481   -0.6525    2.8592 H   0  0  0  0  0  0  0  0  0  0  0  0
    6.2012   -2.2607    4.7596 H   0  0  0  0  0  0  0  0  0  0  0  0
    4.6744   -4.1390    4.7085 H   0  0  0  0  0  0  0  0  0  0  0  0
    3.2264   -4.4794    2.7621 H   0  0  0  0  0  0  0  0  0  0  0  0
  1  2  1  0
  2  3  1  0
  3  4  2  0
  3  5  1  0
  5  6  1  0
  6  7  1  0
  7  8  1  0
  8  9  1  0
  9 10  1  0
 10 11  1  0
 11 12  2  0
 10 13  1  0
 13 14  1  0
 14 15  1  0
 15 16  1  0
 16 17  2  3
 17 18  1  0
 17 19  1  0
  9 20  1  0
 20 21  2  0
 20 22  1  0
 22 23  1  0
 23 24  1  0
 24 25  1  0
 25 26  1  0
 26 27  1  0
 27 28  1  0
 22 29  1  0
 29 30  1  0
 30 31  2  0
 31 32  1  0
 32 33  2  0
 33 34  1  0
 34 35  2  0
 33 36  1  0
  5 37  1  0
 37 38  1  0
 38 39  2  0
 39 40  1  0
 40 41  2  0
 41 42  1  0
 42 43  2  0
 42 44  1  0
 44 45  2  0
 45 46  1  0
 46 47  2  0
 11  6  1  0
 28 23  1  0
 35 30  1  0
 43 38  1  0
 47 41  1  0
  1 48  1  0
  1 49  1  0
  1 50  1  0
  2 51  1  0
  5 52  1  1
  7 53  1  0
  7 54  1  0
  8 55  1  0
  8 56  1  0
 10 57  1  6
 13 58  1  0
 13 59  1  0
 14 60  1  0
 14 61  1  0
 15 62  1  0
 15 63  1  0
 18 64  1  0
 18 65  1  0
 19 66  1  0
 19 67  1  0
 22 68  1  6
 24 69  1  0
 24 70  1  0
 25 71  1  0
 25 72  1  0
 26 73  1  0
 27 74  1  0
 27 75  1  0
 28 76  1  0
 28 77  1  0
 29 78  1  0
 29 79  1  0
 31 80  1  0
 32 81  1  0
 34 82  1  0
 35 83  1  0
 37 84  1  0
 37 85  1  0
 39 86  1  0
 40 87  1  0
 43 88  1  0
 44 89  1  0
 45 90  1  0
 46 91  1  0
 47 92  1  0
M  END
>  <Ligand ID>  (1) 
LIG0004643

>  <Ligand>  (1) 
CHEMBL214410

>  <SMILES>  (1) 
CNC(=O)[C@@H](N1CCN([C@H](C1=O)CCCN=C(N)N)C(=O)[C@H](N1CCNCC1)Cc1ccc(cc1)F)Cc1ccc2c(c1)cccc2

>  <CID>  (1) 
44415920.0

>  <ChEMBL ID>  (1) 
nan

>  <InChiKey>  (1) 
BZEWEHPSOMSRJV-RWSKJCERSA-N

>  <InChi>  (1) 
InChI=1S/C35H45FN8O3/c1-39-32(45)30(23-25-8-11-26-5-2-3-6-27(26)21-25)44-20-19-43(29(33(44)46)7-4-14-41-35(37)38)34(47)31(42-17-15-40-16-18-42)22-24-9-12-28(36)13-10-24/h2-3,5-6,8-13,21,29-31,40H,4,7,14-20,22-23H2,1H3,(H,39,45)(H4,37,38,41)/t29-,30-,31+/m0/s1

>  <IUPAC Name>  (1) 
(2S)-2-[(3S)-3-[3-(diaminomethylideneamino)propyl]-4-[(2R)-3-(4-fluorophenyl)-2-piperazin-1-ylpropanoyl]-2-oxopiperazin-1-yl]-N-methyl-3-naphthalen-2-ylpropanamide

$$$$
