
     RDKit          3D

 50 54  0  0  0  0  0  0  0  0999 V2000
    5.7230    0.7890    2.1956 C   0  0  0  0  0  0  0  0  0  0  0  0
    4.5648    0.4510    1.4667 O   0  0  0  0  0  0  0  0  0  0  0  0
    4.6189    0.1562    0.1328 C   0  0  0  0  0  0  0  0  0  0  0  0
    5.8708    0.2039   -0.4768 C   0  0  0  0  0  0  0  0  0  0  0  0
    6.0105   -0.0805   -1.8191 C   0  0  0  0  0  0  0  0  0  0  0  0
    4.8789   -0.4065   -2.5138 C   0  0  0  0  0  0  0  0  0  0  0  0
    3.6572   -0.4517   -1.9137 C   0  0  0  0  0  0  0  0  0  0  0  0
    3.4694   -0.1686   -0.5448 C   0  0  0  0  0  0  0  0  0  0  0  0
    2.2174   -0.2480   -0.0769 O   0  0  0  0  0  0  0  0  0  0  0  0
    1.7190   -0.0432    1.1897 C   0  0  0  0  0  0  0  0  0  0  0  0
    0.4911    0.9027    1.2153 C   0  0  0  0  0  0  0  0  0  0  0  0
   -0.3851   -0.2092    0.9566 N   0  0  0  0  0  0  0  0  0  0  0  0
    0.6592   -1.0641    1.5886 C   0  0  0  0  0  0  0  0  0  0  0  0
   -1.6264   -0.6302    0.4409 C   0  0  0  0  0  0  0  0  0  0  0  0
   -2.5703    0.2540    0.0745 C   0  0  0  0  0  0  0  0  0  0  0  0
   -2.2038    1.7094    0.3226 C   0  0  0  0  0  0  0  0  0  0  0  0
   -3.4346    2.4433    0.3971 C   0  0  0  0  0  0  0  0  0  0  0  0
   -4.7030    2.7992    0.4168 N   0  0  0  0  0  0  0  0  0  0  0  0
   -5.6016    1.6694    0.0403 C   0  0  0  0  0  0  0  0  0  0  0  0
   -4.9564    0.6940   -0.9152 C   0  0  0  0  0  0  0  0  0  0  0  0
   -3.8283   -0.1377   -0.4760 C   0  0  0  0  0  0  0  0  0  0  0  0
   -4.0454   -1.4883   -0.6213 N   0  0  0  0  0  0  0  0  0  0  0  0
   -3.0921   -2.3618   -0.2500 C   0  0  0  0  0  0  0  0  0  0  0  0
   -1.9181   -1.9539    0.2651 N   0  0  0  0  0  0  0  0  0  0  0  0
   -1.2152   -3.0338    0.5221 N   0  0  0  0  0  0  0  0  0  0  0  0
   -1.8950   -4.1362    0.1897 C   0  0  0  0  0  0  0  0  0  0  0  0
   -3.1146   -3.7383   -0.3135 C   0  0  0  0  0  0  0  0  0  0  0  0
    5.4681    1.1043    3.2334 H   0  0  0  0  0  0  0  0  0  0  0  0
    6.5143    0.0050    2.1705 H   0  0  0  0  0  0  0  0  0  0  0  0
    6.1282    1.7091    1.6962 H   0  0  0  0  0  0  0  0  0  0  0  0
    6.7416    0.4657    0.1101 H   0  0  0  0  0  0  0  0  0  0  0  0
    7.0001   -0.0278   -2.2307 H   0  0  0  0  0  0  0  0  0  0  0  0
    4.9777   -0.6295   -3.5626 H   0  0  0  0  0  0  0  0  0  0  0  0
    2.8046   -0.7205   -2.5420 H   0  0  0  0  0  0  0  0  0  0  0  0
    2.4304    0.1779    1.9985 H   0  0  0  0  0  0  0  0  0  0  0  0
    0.4722    1.3364    2.2387 H   0  0  0  0  0  0  0  0  0  0  0  0
    0.6277    1.6642    0.4441 H   0  0  0  0  0  0  0  0  0  0  0  0
    0.5288   -1.2243    2.6599 H   0  0  0  0  0  0  0  0  0  0  0  0
    0.8368   -2.0113    1.0504 H   0  0  0  0  0  0  0  0  0  0  0  0
   -1.4761    2.0760   -0.4340 H   0  0  0  0  0  0  0  0  0  0  0  0
   -1.6121    1.7712    1.2855 H   0  0  0  0  0  0  0  0  0  0  0  0
   -3.7183    1.7566    1.2433 H   0  0  0  0  0  0  0  0  0  0  0  0
   -3.5924    2.1595   -0.6759 H   0  0  0  0  0  0  0  0  0  0  0  0
   -4.9421    3.6777   -0.0223 H   0  0  0  0  0  0  0  0  0  0  0  0
   -5.9306    1.1159    0.9218 H   0  0  0  0  0  0  0  0  0  0  0  0
   -6.4029    2.1250   -0.5383 H   0  0  0  0  0  0  0  0  0  0  0  0
   -4.8064    1.1271   -1.9418 H   0  0  0  0  0  0  0  0  0  0  0  0
   -5.8116   -0.0249   -1.1082 H   0  0  0  0  0  0  0  0  0  0  0  0
   -1.6228   -5.1817    0.2650 H   0  0  0  0  0  0  0  0  0  0  0  0
   -3.9052   -4.3717   -0.6729 H   0  0  0  0  0  0  0  0  0  0  0  0
  1  2  1  0
  2  3  1  0
  3  4  2  0
  4  5  1  0
  5  6  2  0
  6  7  1  0
  7  8  2  0
  8  9  1  0
  9 10  1  0
 10 11  1  0
 11 12  1  0
 12 13  1  0
 12 14  1  0
 14 15  2  0
 15 16  1  0
 16 17  1  0
 17 18  1  0
 18 19  1  0
 19 20  1  0
 20 21  1  0
 21 22  2  0
 22 23  1  0
 23 24  1  0
 24 25  1  0
 25 26  2  0
 26 27  1  0
  8  3  1  0
 13 10  1  0
 24 14  1  0
 21 15  1  0
 27 23  2  0
  1 28  1  0
  1 29  1  0
  1 30  1  0
  4 31  1  0
  5 32  1  0
  6 33  1  0
  7 34  1  0
 10 35  1  0
 11 36  1  0
 11 37  1  0
 13 38  1  0
 13 39  1  0
 16 40  1  0
 16 41  1  0
 17 42  1  0
 17 43  1  0
 18 44  1  0
 19 45  1  0
 19 46  1  0
 20 47  1  0
 20 48  1  0
 26 49  1  0
 27 50  1  0
M  END
>  <Ligand ID>  (1) 
LIG0004876

>  <Ligand>  (1) 
CHEMBL1643679

>  <SMILES>  (1) 
COc1ccccc1OC1CN(C1)c1c2CCNCCc2nc2n1ncc2

>  <CID>  (1) 
53325938.0

>  <ChEMBL ID>  (1) 
nan

>  <InChiKey>  (1) 
ZXMLRTRVPLFERQ-UHFFFAOYSA-N

>  <InChi>  (1) 
InChI=1S/C20H23N5O2/c1-26-17-4-2-3-5-18(17)27-14-12-24(13-14)20-15-6-9-21-10-7-16(15)23-19-8-11-22-25(19)20/h2-5,8,11,14,21H,6-7,9-10,12-13H2,1H3

>  <IUPAC Name>  (1) 
8-[3-(2-methoxyphenoxy)azetidin-1-yl]-2,6,7,12-tetrazatricyclo[7.5.0.03,7]tetradeca-1,3,5,8-tetraene

$$$$
