
     RDKit          3D

 32 32  0  0  0  0  0  0  0  0999 V2000
    2.9765   -1.8109   -0.6701 O   0  0  0  0  0  0  0  0  0  0  0  0
    2.2160   -0.9690    0.1196 C   0  0  2  0  0  0  0  0  0  0  0  0
    0.7494   -0.9318   -0.3342 C   0  0  0  0  0  0  0  0  0  0  0  0
    0.4129    0.5106   -0.1903 C   0  0  2  0  0  0  0  0  0  0  0  0
    1.4788    1.0971    0.5331 O   0  0  0  0  0  0  0  0  0  0  0  0
    2.5871    0.4838   -0.0572 C   0  0  1  0  0  0  0  0  0  0  0  0
    3.8611    0.7697    0.6837 C   0  0  0  0  0  0  0  0  0  0  0  0
   -0.9003    0.7992    0.4786 C   0  0  0  0  0  0  0  0  0  0  0  0
   -2.0509    0.2558   -0.1617 N   0  0  0  0  0  0  0  0  0  0  0  0
   -3.1130    1.2592   -0.3267 C   0  0  0  0  0  0  0  0  0  0  0  0
   -2.6230   -0.7595    0.7366 C   0  0  0  0  0  0  0  0  0  0  0  0
   -1.8175   -0.4002   -1.4174 C   0  0  0  0  0  0  0  0  0  0  0  0
    3.0275   -2.6849   -0.2061 H   0  0  0  0  0  0  0  0  0  0  0  0
    2.2888   -1.2576    1.1701 H   0  0  0  0  0  0  0  0  0  0  0  0
    0.7954   -1.2486   -1.4054 H   0  0  0  0  0  0  0  0  0  0  0  0
    0.2285   -1.6237    0.3279 H   0  0  0  0  0  0  0  0  0  0  0  0
    0.4314    1.0575   -1.1668 H   0  0  0  0  0  0  0  0  0  0  0  0
    2.7190    0.7466   -1.1058 H   0  0  0  0  0  0  0  0  0  0  0  0
    4.5958   -0.0499    0.4535 H   0  0  0  0  0  0  0  0  0  0  0  0
    4.2779    1.7471    0.3691 H   0  0  0  0  0  0  0  0  0  0  0  0
    3.6910    0.7523    1.7712 H   0  0  0  0  0  0  0  0  0  0  0  0
   -1.0258    1.9186    0.4521 H   0  0  0  0  0  0  0  0  0  0  0  0
   -0.8786    0.5305    1.5387 H   0  0  0  0  0  0  0  0  0  0  0  0
   -3.7550    1.3224    0.5624 H   0  0  0  0  0  0  0  0  0  0  0  0
   -3.7287    1.0208   -1.2022 H   0  0  0  0  0  0  0  0  0  0  0  0
   -2.6593    2.2542   -0.5168 H   0  0  0  0  0  0  0  0  0  0  0  0
   -3.7258   -0.8016    0.5610 H   0  0  0  0  0  0  0  0  0  0  0  0
   -2.4084   -0.4501    1.7887 H   0  0  0  0  0  0  0  0  0  0  0  0
   -2.1595   -1.7472    0.5180 H   0  0  0  0  0  0  0  0  0  0  0  0
   -1.1152    0.1106   -2.0857 H   0  0  0  0  0  0  0  0  0  0  0  0
   -1.5864   -1.4700   -1.2333 H   0  0  0  0  0  0  0  0  0  0  0  0
   -2.7898   -0.4311   -1.9926 H   0  0  0  0  0  0  0  0  0  0  0  0
  1  2  1  0
  2  3  1  0
  3  4  1  0
  4  5  1  0
  5  6  1  0
  6  7  1  0
  4  8  1  0
  8  9  1  0
  9 10  1  0
  9 11  1  0
  9 12  1  0
  6  2  1  0
  1 13  1  0
  2 14  1  1
  3 15  1  0
  3 16  1  0
  4 17  1  6
  6 18  1  6
  7 19  1  0
  7 20  1  0
  7 21  1  0
  8 22  1  0
  8 23  1  0
 10 24  1  0
 10 25  1  0
 10 26  1  0
 11 27  1  0
 11 28  1  0
 11 29  1  0
 12 30  1  0
 12 31  1  0
 12 32  1  0
M  CHG  1   9   1
M  END
>  <Ligand ID>  (1) 
LIG0000808

>  <Ligand>  (1) 
MUSCARINE

>  <SMILES>  (1) 
O[C@@H]1C[C@H](O[C@H]1C)C[N+](C)(C)C

>  <CID>  (1) 
9308.0

>  <ChEMBL ID>  (1) 
nan

>  <InChiKey>  (1) 
UQOFGTXDASPNLL-XHNCKOQMSA-N

>  <InChi>  (1) 
InChI=1S/C9H20NO2/c1-7-9(11)5-8(12-7)6-10(2,3)4/h7-9,11H,5-6H2,1-4H3/q+1/t7-,8-,9+/m0/s1

>  <IUPAC Name>  (1) 
[(2S,4R,5S)-4-hydroxy-5-methyloxolan-2-yl]methyl-trimethylazanium

$$$$
