
     RDKit          3D

 48 49  0  0  0  0  0  0  0  0999 V2000
    2.0830   -2.0548    1.4996 O   0  0  0  0  0  0  0  0  0  0  0  0
    1.9234   -1.8402    0.2619 C   0  0  0  0  0  0  0  0  0  0  0  0
    0.8434   -2.4240   -0.4775 N   0  0  0  0  0  0  0  0  0  0  0  0
   -0.1119   -3.2909    0.1840 C   0  0  0  0  0  0  0  0  0  0  0  0
    0.0205   -4.7247   -0.2852 C   0  0  0  0  0  0  0  0  0  0  0  0
    1.6449   -5.3644    0.0513 Cl  0  0  0  0  0  0  0  0  0  0  0  0
   -0.3984   -4.8867   -2.0040 Cl  0  0  0  0  0  0  0  0  0  0  0  0
   -1.1283   -5.7193    0.6391 Cl  0  0  0  0  0  0  0  0  0  0  0  0
   -1.4608   -2.8214    0.1469 N   0  0  0  0  0  0  0  0  0  0  0  0
   -1.8852   -1.5206    0.5232 C   0  0  0  0  0  0  0  0  0  0  0  0
   -0.8016   -0.4202    1.0492 S   0  0  0  0  0  0  0  0  0  0  0  0
   -3.2595   -1.1468    0.4507 N   0  0  0  0  0  0  0  0  0  0  0  0
   -3.6885    0.1562    0.8269 C   0  0  0  0  0  0  0  0  0  0  0  0
   -4.0679    0.5026    2.0910 C   0  0  0  0  0  0  0  0  0  0  0  0
   -4.4679    1.8210    2.3210 C   0  0  0  0  0  0  0  0  0  0  0  0
   -4.4786    2.7564    1.2856 C   0  0  0  0  0  0  0  0  0  0  0  0
   -4.0947    2.4038    0.0090 C   0  0  0  0  0  0  0  0  0  0  0  0
   -3.7046    1.1054   -0.2008 C   0  0  0  0  0  0  0  0  0  0  0  0
   -3.2922    0.7379   -1.5861 C   0  0  0  0  0  0  0  0  0  0  0  0
   -4.9004    4.1659    1.5046 C   0  0  0  0  0  0  0  0  0  0  0  0
    2.8566   -1.0056   -0.3372 O   0  0  0  0  0  0  0  0  0  0  0  0
    3.9045   -0.4604    0.4599 C   0  0  0  0  0  0  0  0  0  0  0  0
    4.8094    0.4011   -0.3170 C   0  0  0  0  0  0  0  0  0  0  0  0
    4.5072    1.7518   -0.4010 C   0  0  0  0  0  0  0  0  0  0  0  0
    5.3231    2.5976   -1.1162 C   0  0  0  0  0  0  0  0  0  0  0  0
    6.4565    2.1640   -1.7723 C   0  0  0  0  0  0  0  0  0  0  0  0
    6.7572    0.8043   -1.6853 C   0  0  0  0  0  0  0  0  0  0  0  0
    5.9327   -0.0626   -0.9602 C   0  0  0  0  0  0  0  0  0  0  0  0
    0.7439   -2.2230   -1.5022 H   0  0  0  0  0  0  0  0  0  0  0  0
    0.2203   -3.3148    1.2594 H   0  0  0  0  0  0  0  0  0  0  0  0
   -2.1960   -3.5093   -0.1908 H   0  0  0  0  0  0  0  0  0  0  0  0
   -3.9936   -1.8119    0.1212 H   0  0  0  0  0  0  0  0  0  0  0  0
   -4.0505   -0.2412    2.8759 H   0  0  0  0  0  0  0  0  0  0  0  0
   -4.7709    2.1102    3.3160 H   0  0  0  0  0  0  0  0  0  0  0  0
   -4.1046    3.1310   -0.7882 H   0  0  0  0  0  0  0  0  0  0  0  0
   -2.4856   -0.0368   -1.5638 H   0  0  0  0  0  0  0  0  0  0  0  0
   -4.1671    0.2892   -2.0999 H   0  0  0  0  0  0  0  0  0  0  0  0
   -2.8578    1.6070   -2.0908 H   0  0  0  0  0  0  0  0  0  0  0  0
   -4.2169    4.8696    0.9884 H   0  0  0  0  0  0  0  0  0  0  0  0
   -5.9505    4.2504    1.1386 H   0  0  0  0  0  0  0  0  0  0  0  0
   -4.9339    4.4541    2.5698 H   0  0  0  0  0  0  0  0  0  0  0  0
    3.4208    0.1448    1.2535 H   0  0  0  0  0  0  0  0  0  0  0  0
    4.4733   -1.3225    0.8885 H   0  0  0  0  0  0  0  0  0  0  0  0
    3.6230    2.1419    0.0999 H   0  0  0  0  0  0  0  0  0  0  0  0
    5.0287    3.6429   -1.1414 H   0  0  0  0  0  0  0  0  0  0  0  0
    7.0658    2.8611   -2.3200 H   0  0  0  0  0  0  0  0  0  0  0  0
    7.6430    0.4536   -2.1957 H   0  0  0  0  0  0  0  0  0  0  0  0
    6.1869   -1.1220   -0.9056 H   0  0  0  0  0  0  0  0  0  0  0  0
  1  2  2  0
  2  3  1  0
  3  4  1  0
  4  5  1  0
  5  6  1  0
  5  7  1  0
  5  8  1  0
  4  9  1  0
  9 10  1  0
 10 11  2  0
 10 12  1  0
 12 13  1  0
 13 14  2  0
 14 15  1  0
 15 16  2  0
 16 17  1  0
 17 18  2  0
 18 19  1  0
 16 20  1  0
  2 21  1  0
 21 22  1  0
 22 23  1  0
 23 24  2  0
 24 25  1  0
 25 26  2  0
 26 27  1  0
 27 28  2  0
 18 13  1  0
 28 23  1  0
  3 29  1  0
  4 30  1  0
  9 31  1  0
 12 32  1  0
 14 33  1  0
 15 34  1  0
 17 35  1  0
 19 36  1  0
 19 37  1  0
 19 38  1  0
 20 39  1  0
 20 40  1  0
 20 41  1  0
 22 42  1  0
 22 43  1  0
 24 44  1  0
 25 45  1  0
 26 46  1  0
 27 47  1  0
 28 48  1  0
M  END
>  <Ligand ID>  (1) 
LIG0003714

>  <Ligand>  (1) 
MLS-0425689.0001

>  <SMILES>  (1) 
O=C(NC(C(Cl)(Cl)Cl)NC(=S)Nc1ccc(cc1C)C)OCc1ccccc1

>  <CID>  (1) 
3091259.0

>  <ChEMBL ID>  (1) 
nan

>  <InChiKey>  (1) 
GEVJSBMETISKOB-UHFFFAOYSA-N

>  <InChi>  (1) 
InChI=1S/C19H20Cl3N3O2S/c1-12-8-9-15(13(2)10-12)23-17(28)24-16(19(20,21)22)25-18(26)27-11-14-6-4-3-5-7-14/h3-10,16H,11H2,1-2H3,(H,25,26)(H2,23,24,28)

>  <IUPAC Name>  (1) 
benzyl N-[2,2,2-trichloro-1-[(2,4-dimethylphenyl)carbamothioylamino]ethyl]carbamate

$$$$
