
     RDKit          3D

131135  0  0  0  0  0  0  0  0999 V2000
   -4.0036    3.2086   -2.8250 C   0  0  0  0  0  0  0  0  0  0  0  0
   -4.1497    2.8575   -1.3741 C   0  0  0  0  0  0  0  0  0  0  0  0
   -3.6333    3.9598   -0.4756 C   0  0  0  0  0  0  0  0  0  0  0  0
   -3.7223    3.7081    0.9535 C   0  0  0  0  0  0  0  0  0  0  0  0
   -3.0796    2.6127    1.6862 C   0  0  2  0  0  0  0  0  0  0  0  0
   -1.6809    2.4392    1.7589 N   0  0  0  0  0  0  0  0  0  0  0  0
   -0.7371    1.8662    0.9148 C   0  0  0  0  0  0  0  0  0  0  0  0
    0.5062    1.8951    1.3655 O   0  0  0  0  0  0  0  0  0  0  0  0
   -0.8183    1.2087   -0.3867 C   0  0  1  0  0  0  0  0  0  0  0  0
   -0.5724    2.1618   -1.5206 C   0  0  0  0  0  0  0  0  0  0  0  0
    0.7592    2.8541   -1.4598 C   0  0  0  0  0  0  0  0  0  0  0  0
    1.9323    2.5182   -2.0996 C   0  0  0  0  0  0  0  0  0  0  0  0
    2.9209    3.3837   -1.7657 N   0  0  0  0  0  0  0  0  0  0  0  0
    2.4172    4.2937   -0.9104 C   0  0  0  0  0  0  0  0  0  0  0  0
    1.0717    3.9909   -0.7006 C   0  0  0  0  0  0  0  0  0  0  0  0
    0.3845    4.8221    0.1383 C   0  0  0  0  0  0  0  0  0  0  0  0
    0.9288    5.9154    0.7758 C   0  0  0  0  0  0  0  0  0  0  0  0
    2.2622    6.1743    0.5392 C   0  0  0  0  0  0  0  0  0  0  0  0
    3.0206    5.3762   -0.2990 C   0  0  0  0  0  0  0  0  0  0  0  0
    0.4156    0.3311   -0.4469 N   0  0  0  0  0  0  0  0  0  0  0  0
    0.2436   -1.0729   -0.3413 C   0  0  0  0  0  0  0  0  0  0  0  0
   -0.9345   -1.5331   -0.1939 O   0  0  0  0  0  0  0  0  0  0  0  0
    1.3382   -2.0644   -0.3897 C   0  0  0  0  0  0  0  0  0  0  0  0
    2.6578   -1.5088   -0.5590 N   0  0  0  0  0  0  0  0  0  0  0  0
    3.2924   -0.6367    0.3664 C   0  0  0  0  0  0  0  0  0  0  0  0
    2.7218   -0.2750    1.4435 O   0  0  0  0  0  0  0  0  0  0  0  0
    4.6737   -0.1159    0.0655 C   0  0  2  0  0  0  0  0  0  0  0  0
    5.3819   -0.8797   -0.9049 N   0  0  0  0  0  0  0  0  0  0  0  0
    5.4764   -2.3000   -0.9385 C   0  0  0  0  0  0  0  0  0  0  0  0
    4.9232   -3.0448   -0.0566 O   0  0  0  0  0  0  0  0  0  0  0  0
    6.2218   -2.9997   -2.0058 C   0  0  2  0  0  0  0  0  0  0  0  0
    7.0878   -4.1198   -1.5651 C   0  0  0  0  0  0  0  0  0  0  0  0
    8.1562   -3.7872   -0.6122 C   0  0  0  0  0  0  0  0  0  0  0  0
    8.0241   -3.8606    0.7590 C   0  0  0  0  0  0  0  0  0  0  0  0
    9.0571   -3.5469    1.6177 C   0  0  0  0  0  0  0  0  0  0  0  0
   10.2909   -3.1371    1.1154 C   0  0  0  0  0  0  0  0  0  0  0  0
   10.4259   -3.0626   -0.2504 C   0  0  0  0  0  0  0  0  0  0  0  0
    9.3790   -3.3811   -1.1125 C   0  0  0  0  0  0  0  0  0  0  0  0
   11.3258   -2.8225    1.9963 O   0  0  0  0  0  0  0  0  0  0  0  0
    6.9696   -2.0213   -2.7993 N   0  0  0  0  0  0  0  0  0  0  0  0
    5.3966    0.3078    1.2805 C   0  0  0  0  0  0  0  0  0  0  0  0
    6.7631    0.8333    0.9365 C   0  0  0  0  0  0  0  0  0  0  0  0
    7.8794    0.0326    0.9018 C   0  0  0  0  0  0  0  0  0  0  0  0
    9.0879    0.6399    0.5451 C   0  0  0  0  0  0  0  0  0  0  0  0
    9.1652    1.9594    0.2447 C   0  0  0  0  0  0  0  0  0  0  0  0
    8.0462    2.7932    0.2736 C   0  0  0  0  0  0  0  0  0  0  0  0
    6.8416    2.1866    0.6296 C   0  0  0  0  0  0  0  0  0  0  0  0
   -1.0686    3.0119    3.0328 C   0  0  0  0  0  0  0  0  0  0  0  0
   -3.8209    1.3061    1.7246 C   0  0  0  0  0  0  0  0  0  0  0  0
   -3.0745    0.2811    1.9120 O   0  0  0  0  0  0  0  0  0  0  0  0
   -5.2151    1.1841    1.5707 N   0  0  0  0  0  0  0  0  0  0  0  0
   -5.9391   -0.0673    1.6076 C   0  0  2  0  0  0  0  0  0  0  0  0
   -6.4302   -0.4576    0.2618 C   0  0  0  0  0  0  0  0  0  0  0  0
   -6.1008    0.2862   -0.7033 O   0  0  0  0  0  0  0  0  0  0  0  0
   -7.2315   -1.5924    0.0029 N   0  0  0  0  0  0  0  0  0  0  0  0
   -7.6194   -1.8240   -1.3801 C   0  0  2  0  0  0  0  0  0  0  0  0
   -9.0951   -1.7425   -1.4725 C   0  0  0  0  0  0  0  0  0  0  0  0
   -9.8245   -1.5279   -0.4627 O   0  0  0  0  0  0  0  0  0  0  0  0
   -9.7862   -1.8984   -2.7109 N   0  0  0  0  0  0  0  0  0  0  0  0
   -7.1879   -3.1938   -1.8469 C   0  0  0  0  0  0  0  0  0  0  0  0
   -7.7640   -4.2951   -1.0496 C   0  0  0  0  0  0  0  0  0  0  0  0
   -8.9526   -4.9296   -1.3278 C   0  0  0  0  0  0  0  0  0  0  0  0
   -9.4705   -5.9578   -0.5642 C   0  0  0  0  0  0  0  0  0  0  0  0
   -8.7761   -6.3902    0.5434 C   0  0  0  0  0  0  0  0  0  0  0  0
   -7.5885   -5.7644    0.8294 C   0  0  0  0  0  0  0  0  0  0  0  0
   -7.0557   -4.7400    0.0829 C   0  0  0  0  0  0  0  0  0  0  0  0
   -7.0070    0.0106    2.6499 C   0  0  0  0  0  0  0  0  0  0  0  0
   -6.4131    0.2621    3.9802 C   0  0  0  0  0  0  0  0  0  0  0  0
   -5.1720    0.3885    4.1744 O   0  0  0  0  0  0  0  0  0  0  0  0
   -7.2251    0.3759    5.1244 O   0  0  0  0  0  0  0  0  0  0  0  0
   -3.6764    2.3380   -3.4394 H   0  0  0  0  0  0  0  0  0  0  0  0
   -3.2120    3.9959   -2.8828 H   0  0  0  0  0  0  0  0  0  0  0  0
   -4.9370    3.6412   -3.2143 H   0  0  0  0  0  0  0  0  0  0  0  0
   -3.7757    1.8611   -1.0965 H   0  0  0  0  0  0  0  0  0  0  0  0
   -5.2534    2.8000   -1.1790 H   0  0  0  0  0  0  0  0  0  0  0  0
   -4.4205    4.7871   -0.6995 H   0  0  0  0  0  0  0  0  0  0  0  0
   -2.7289    4.4793   -0.8549 H   0  0  0  0  0  0  0  0  0  0  0  0
   -4.8284    3.7818    1.2344 H   0  0  0  0  0  0  0  0  0  0  0  0
   -3.3756    4.7113    1.4370 H   0  0  0  0  0  0  0  0  0  0  0  0
   -3.3430    2.9852    2.7874 H   0  0  0  0  0  0  0  0  0  0  0  0
   -1.6974    0.5858   -0.5231 H   0  0  0  0  0  0  0  0  0  0  0  0
   -0.5894    1.5749   -2.5125 H   0  0  0  0  0  0  0  0  0  0  0  0
   -1.3592    2.8867   -1.6505 H   0  0  0  0  0  0  0  0  0  0  0  0
    2.0689    1.6711   -2.7873 H   0  0  0  0  0  0  0  0  0  0  0  0
    3.9152    3.3789   -2.0917 H   0  0  0  0  0  0  0  0  0  0  0  0
   -0.6640    4.6323    0.3240 H   0  0  0  0  0  0  0  0  0  0  0  0
    0.3204    6.5361    1.4334 H   0  0  0  0  0  0  0  0  0  0  0  0
    2.6842    7.0268    1.0386 H   0  0  0  0  0  0  0  0  0  0  0  0
    4.0488    5.6533   -0.4258 H   0  0  0  0  0  0  0  0  0  0  0  0
    1.3442    0.7641   -0.5691 H   0  0  0  0  0  0  0  0  0  0  0  0
    1.3400   -2.7036    0.5523 H   0  0  0  0  0  0  0  0  0  0  0  0
    1.1258   -2.8049   -1.1878 H   0  0  0  0  0  0  0  0  0  0  0  0
    3.1454   -1.7724   -1.4707 H   0  0  0  0  0  0  0  0  0  0  0  0
    4.3851    0.8743   -0.4785 H   0  0  0  0  0  0  0  0  0  0  0  0
    5.9026   -0.3852   -1.6932 H   0  0  0  0  0  0  0  0  0  0  0  0
    5.4386   -3.3721   -2.7520 H   0  0  0  0  0  0  0  0  0  0  0  0
    6.4264   -4.9025   -1.1108 H   0  0  0  0  0  0  0  0  0  0  0  0
    7.5211   -4.5915   -2.4904 H   0  0  0  0  0  0  0  0  0  0  0  0
    7.0824   -4.1751    1.1840 H   0  0  0  0  0  0  0  0  0  0  0  0
    8.8847   -3.6267    2.6888 H   0  0  0  0  0  0  0  0  0  0  0  0
   11.3530   -2.7513   -0.6929 H   0  0  0  0  0  0  0  0  0  0  0  0
    9.5170   -3.3146   -2.1773 H   0  0  0  0  0  0  0  0  0  0  0  0
   11.4926   -1.8539    2.2004 H   0  0  0  0  0  0  0  0  0  0  0  0
    7.5852   -1.4380   -2.2008 H   0  0  0  0  0  0  0  0  0  0  0  0
    6.3304   -1.4411   -3.3741 H   0  0  0  0  0  0  0  0  0  0  0  0
    4.8502    1.1253    1.7850 H   0  0  0  0  0  0  0  0  0  0  0  0
    5.5859   -0.5184    1.9984 H   0  0  0  0  0  0  0  0  0  0  0  0
    7.7906   -1.0049    1.1415 H   0  0  0  0  0  0  0  0  0  0  0  0
    9.9805    0.0456    0.5037 H   0  0  0  0  0  0  0  0  0  0  0  0
   10.1005    2.4682   -0.0387 H   0  0  0  0  0  0  0  0  0  0  0  0
    8.1216    3.8459    0.0280 H   0  0  0  0  0  0  0  0  0  0  0  0
    5.9387    2.8104    0.6623 H   0  0  0  0  0  0  0  0  0  0  0  0
   -1.1597    4.1032    2.9099 H   0  0  0  0  0  0  0  0  0  0  0  0
   -0.0654    2.6301    3.1811 H   0  0  0  0  0  0  0  0  0  0  0  0
   -1.7373    2.6460    3.8442 H   0  0  0  0  0  0  0  0  0  0  0  0
   -5.7854    2.0407    1.4205 H   0  0  0  0  0  0  0  0  0  0  0  0
   -5.2480   -0.9171    1.8985 H   0  0  0  0  0  0  0  0  0  0  0  0
   -7.5174   -2.2144    0.7860 H   0  0  0  0  0  0  0  0  0  0  0  0
   -7.1852   -1.0655   -2.0575 H   0  0  0  0  0  0  0  0  0  0  0  0
  -10.6576   -1.3597   -2.9016 H   0  0  0  0  0  0  0  0  0  0  0  0
   -9.4377   -2.5501   -3.4521 H   0  0  0  0  0  0  0  0  0  0  0  0
   -7.5219   -3.2586   -2.9200 H   0  0  0  0  0  0  0  0  0  0  0  0
   -6.0635   -3.2361   -1.8374 H   0  0  0  0  0  0  0  0  0  0  0  0
   -9.5102   -4.6173   -2.1813 H   0  0  0  0  0  0  0  0  0  0  0  0
  -10.4195   -6.4205   -0.8400 H   0  0  0  0  0  0  0  0  0  0  0  0
   -9.2046   -7.1893    1.1145 H   0  0  0  0  0  0  0  0  0  0  0  0
   -7.0541   -6.1300    1.7215 H   0  0  0  0  0  0  0  0  0  0  0  0
   -6.1021   -4.2761    0.3573 H   0  0  0  0  0  0  0  0  0  0  0  0
   -7.7352    0.8231    2.4790 H   0  0  0  0  0  0  0  0  0  0  0  0
   -7.5235   -0.9972    2.7271 H   0  0  0  0  0  0  0  0  0  0  0  0
   -6.7866    0.4993    6.0511 H   0  0  0  0  0  0  0  0  0  0  0  0
  1  2  1  0
  2  3  1  0
  3  4  1  0
  4  5  1  0
  5  6  1  0
  6  7  1  0
  7  8  2  0
  7  9  1  0
  9 10  1  0
 10 11  1  0
 11 12  2  0
 12 13  1  0
 13 14  1  0
 14 15  2  0
 15 16  1  0
 16 17  2  0
 17 18  1  0
 18 19  2  0
  9 20  1  0
 20 21  1  0
 21 22  2  0
 21 23  1  0
 23 24  1  0
 24 25  1  0
 25 26  2  0
 25 27  1  0
 27 28  1  0
 28 29  1  0
 29 30  2  0
 29 31  1  0
 31 32  1  0
 32 33  1  0
 33 34  2  0
 34 35  1  0
 35 36  2  0
 36 37  1  0
 37 38  2  0
 36 39  1  0
 31 40  1  0
 27 41  1  0
 41 42  1  0
 42 43  2  0
 43 44  1  0
 44 45  2  0
 45 46  1  0
 46 47  2  0
  6 48  1  0
  5 49  1  0
 49 50  2  0
 49 51  1  0
 51 52  1  0
 52 53  1  0
 53 54  2  0
 53 55  1  0
 55 56  1  0
 56 57  1  0
 57 58  2  0
 57 59  1  0
 56 60  1  0
 60 61  1  0
 61 62  2  0
 62 63  1  0
 63 64  2  0
 64 65  1  0
 65 66  2  0
 52 67  1  0
 67 68  1  0
 68 69  2  0
 68 70  1  0
 15 11  1  0
 38 33  1  0
 47 42  1  0
 66 61  1  0
 19 14  1  0
  1 71  1  0
  1 72  1  0
  1 73  1  0
  2 74  1  0
  2 75  1  0
  3 76  1  0
  3 77  1  0
  4 78  1  0
  4 79  1  0
  5 80  1  1
  9 81  1  6
 10 82  1  0
 10 83  1  0
 12 84  1  0
 13 85  1  0
 16 86  1  0
 17 87  1  0
 18 88  1  0
 19 89  1  0
 20 90  1  0
 23 91  1  0
 23 92  1  0
 24 93  1  0
 27 94  1  6
 28 95  1  0
 31 96  1  6
 32 97  1  0
 32 98  1  0
 34 99  1  0
 35100  1  0
 37101  1  0
 38102  1  0
 39103  1  0
 40104  1  0
 40105  1  0
 41106  1  0
 41107  1  0
 43108  1  0
 44109  1  0
 45110  1  0
 46111  1  0
 47112  1  0
 48113  1  0
 48114  1  0
 48115  1  0
 51116  1  0
 52117  1  1
 55118  1  0
 56119  1  6
 59120  1  0
 59121  1  0
 60122  1  0
 60123  1  0
 62124  1  0
 63125  1  0
 64126  1  0
 65127  1  0
 66128  1  0
 67129  1  0
 67130  1  0
 70131  1  0
M  END
>  <Ligand ID>  (1) 
LIG0004145

>  <Ligand>  (1) 
Tyr-D-Phe-Gly-D-Trp-NMeNle-Asp-Phe-NH2

>  <SMILES>  (1) 
CCCC[C@H](N(C(=O)[C@@H](Cc1c[nH]c2c1cccc2)NC(=O)CNC(=O)[C@H](NC(=O)[C@H](Cc1ccc(cc1)O)N)Cc1ccccc1)C)C(=O)N[C@H](C(=O)N[C@H](C(=O)N)Cc1ccccc1)CC(=O)O

>  <CID>  (1) 
10942040.0

>  <ChEMBL ID>  (1) 
nan

>  <InChiKey>  (1) 
KKPFQTRKARZYLE-YKEIYGJZSA-N

>  <InChi>  (1) 
InChI=1S/C51H61N9O10/c1-3-4-19-43(50(69)59-41(28-45(63)64)49(68)57-39(46(53)65)25-31-13-7-5-8-14-31)60(2)51(70)42(27-34-29-54-38-18-12-11-17-36(34)38)56-44(62)30-55-48(67)40(26-32-15-9-6-10-16-32)58-47(66)37(52)24-33-20-22-35(61)23-21-33/h5-18,20-23,29,37,39-43,54,61H,3-4,19,24-28,30,52H2,1-2H3,(H2,53,65)(H,55,67)(H,56,62)(H,57,68)(H,58,66)(H,59,69)(H,63,64)/t37-,39-,40+,41-,42+,43-/m0/s1

>  <IUPAC Name>  (1) 
(3S)-3-[[(2S)-2-[[(2R)-2-[[2-[[(2R)-2-[[(2S)-2-amino-3-(4-hydroxyphenyl)propanoyl]amino]-3-phenylpropanoyl]amino]acetyl]amino]-3-(1H-indol-3-yl)propanoyl]-methylamino]hexanoyl]amino]-4-[[(2S)-1-amino-1-oxo-3-phenylpropan-2-yl]amino]-4-oxobutanoic acid

$$$$
