
     RDKit          3D

103104  0  0  0  0  0  0  0  0999 V2000
   12.5009   -0.3821   -1.9818 C   0  0  0  0  0  0  0  0  0  0  0  0
   11.7574    1.0558   -2.7876 S   0  0  0  0  0  0  0  0  0  0  0  0
   10.4855    1.8025   -1.6846 C   0  0  0  0  0  0  0  0  0  0  0  0
    9.3230    0.8719   -1.5239 C   0  0  0  0  0  0  0  0  0  0  0  0
    8.3067    1.4778   -0.5725 C   0  0  2  0  0  0  0  0  0  0  0  0
    8.9383    1.6662    0.7398 C   0  0  0  0  0  0  0  0  0  0  0  0
    9.8893    2.2720    1.1483 O   0  0  0  0  0  0  0  0  0  0  0  0
    8.2176    0.9220    1.8265 N   0  0  0  0  0  0  0  0  0  0  0  0
    7.1424    0.6713   -0.4789 N   0  0  0  0  0  0  0  0  0  0  0  0
    5.7726    1.1409   -0.7187 C   0  0  0  0  0  0  0  0  0  0  0  0
    5.6908    2.3324   -1.0063 O   0  0  0  0  0  0  0  0  0  0  0  0
    4.7641    0.0968   -0.5668 C   0  0  1  0  0  0  0  0  0  0  0  0
    3.4182    0.5871   -0.8129 N   0  0  0  0  0  0  0  0  0  0  0  0
    2.3607    0.5307    0.1831 C   0  0  0  0  0  0  0  0  0  0  0  0
    2.5171    0.0743    1.3134 O   0  0  0  0  0  0  0  0  0  0  0  0
    1.0628    1.1056   -0.3447 C   0  0  1  0  0  0  0  0  0  0  0  0
   -0.0039    0.9690    0.5832 N   0  0  0  0  0  0  0  0  0  0  0  0
   -1.1983    0.3325    0.1636 C   0  0  0  0  0  0  0  0  0  0  0  0
   -1.2192   -0.0865   -1.0498 O   0  0  0  0  0  0  0  0  0  0  0  0
   -2.3568    0.1354    0.9843 C   0  0  2  0  0  0  0  0  0  0  0  0
   -2.2934   -0.5866    2.2736 C   0  0  0  0  0  0  0  0  0  0  0  0
   -1.4596   -0.1301    3.3622 C   0  0  0  0  0  0  0  0  0  0  0  0
   -0.1798   -0.6599    3.5633 C   0  0  0  0  0  0  0  0  0  0  0  0
    0.6314   -0.2546    4.6299 C   0  0  0  0  0  0  0  0  0  0  0  0
    0.0897    0.6827    5.4479 C   0  0  0  0  0  0  0  0  0  0  0  0
   -1.1333    1.2562    5.3432 C   0  0  0  0  0  0  0  0  0  0  0  0
   -1.9127    0.8308    4.2727 C   0  0  0  0  0  0  0  0  0  0  0  0
   -3.4500   -0.5180    0.1748 N   0  0  0  0  0  0  0  0  0  0  0  0
   -4.7079    0.1314    0.1553 C   0  0  0  0  0  0  0  0  0  0  0  0
   -4.9369    1.2223    0.7396 O   0  0  0  0  0  0  0  0  0  0  0  0
   -5.7906   -0.5782   -0.6121 C   0  0  2  0  0  0  0  0  0  0  0  0
   -5.4981   -0.8653   -1.9880 C   0  0  0  0  0  0  0  0  0  0  0  0
   -6.5329   -1.5829   -2.7903 C   0  0  0  0  0  0  0  0  0  0  0  0
   -7.5078   -0.9447   -3.5139 C   0  0  0  0  0  0  0  0  0  0  0  0
   -8.4704   -1.5859   -4.2613 C   0  0  0  0  0  0  0  0  0  0  0  0
   -8.4338   -2.9422   -4.2658 C   0  0  0  0  0  0  0  0  0  0  0  0
   -7.4920   -3.7068   -3.5649 C   0  0  0  0  0  0  0  0  0  0  0  0
   -6.5619   -2.9838   -2.8431 C   0  0  0  0  0  0  0  0  0  0  0  0
   -6.9666    0.2250   -0.3744 N   0  0  0  0  0  0  0  0  0  0  0  0
   -7.4120    0.2987    1.0000 C   0  0  0  0  0  0  0  0  0  0  0  0
   -6.8556   -0.2597    1.9528 O   0  0  0  0  0  0  0  0  0  0  0  0
   -8.6591    1.1550    1.1638 C   0  0  0  0  0  0  0  0  0  0  0  0
   -8.8703    1.5296    2.5876 C   0  0  0  0  0  0  0  0  0  0  0  0
  -10.1424    2.3587    2.7452 C   0  0  0  0  0  0  0  0  0  0  0  0
  -11.3117    1.5899    2.3559 N   0  0  0  0  0  0  0  0  0  0  0  0
    1.3389    2.6110   -0.4993 C   0  0  0  0  0  0  0  0  0  0  0  0
    5.0840   -0.9727   -1.6365 C   0  0  0  0  0  0  0  0  0  0  0  0
    4.1695   -2.1444   -1.5334 C   0  0  0  0  0  0  0  0  0  0  0  0
    4.5186   -3.1386   -2.6753 C   0  0  0  0  0  0  0  0  0  0  0  0
    4.4904   -2.9762   -0.2751 C   0  0  0  0  0  0  0  0  0  0  0  0
   12.3587   -0.3088   -0.8694 H   0  0  0  0  0  0  0  0  0  0  0  0
   13.5998   -0.4450   -2.1619 H   0  0  0  0  0  0  0  0  0  0  0  0
   12.0156   -1.2987   -2.3240 H   0  0  0  0  0  0  0  0  0  0  0  0
   11.0124    2.0817   -0.7773 H   0  0  0  0  0  0  0  0  0  0  0  0
   10.1538    2.7379   -2.2145 H   0  0  0  0  0  0  0  0  0  0  0  0
    9.7177   -0.0938   -1.1144 H   0  0  0  0  0  0  0  0  0  0  0  0
    8.8715    0.6788   -2.5040 H   0  0  0  0  0  0  0  0  0  0  0  0
    8.0968    2.5200   -0.9534 H   0  0  0  0  0  0  0  0  0  0  0  0
    8.6012    0.0120    2.0974 H   0  0  0  0  0  0  0  0  0  0  0  0
    7.3815    1.3950    2.2201 H   0  0  0  0  0  0  0  0  0  0  0  0
    7.2973   -0.3448   -0.2190 H   0  0  0  0  0  0  0  0  0  0  0  0
    4.8348   -0.3653    0.3950 H   0  0  0  0  0  0  0  0  0  0  0  0
    3.2469    0.9834   -1.7607 H   0  0  0  0  0  0  0  0  0  0  0  0
    0.9259    0.6996   -1.3391 H   0  0  0  0  0  0  0  0  0  0  0  0
    0.1097    1.3333    1.5476 H   0  0  0  0  0  0  0  0  0  0  0  0
   -2.7963    1.1244    1.2284 H   0  0  0  0  0  0  0  0  0  0  0  0
   -3.3684   -0.5847    2.6619 H   0  0  0  0  0  0  0  0  0  0  0  0
   -2.1105   -1.6917    2.1536 H   0  0  0  0  0  0  0  0  0  0  0  0
    0.1215   -1.3928    2.8371 H   0  0  0  0  0  0  0  0  0  0  0  0
    1.6035   -0.7080    4.7173 H   0  0  0  0  0  0  0  0  0  0  0  0
    0.7150    1.0061    6.2945 H   0  0  0  0  0  0  0  0  0  0  0  0
   -1.5650    2.0018    5.9794 H   0  0  0  0  0  0  0  0  0  0  0  0
   -2.9202    1.2297    4.0933 H   0  0  0  0  0  0  0  0  0  0  0  0
   -3.2359   -1.4048   -0.3343 H   0  0  0  0  0  0  0  0  0  0  0  0
   -5.9270   -1.5158    0.0147 H   0  0  0  0  0  0  0  0  0  0  0  0
   -5.4126    0.1347   -2.5374 H   0  0  0  0  0  0  0  0  0  0  0  0
   -4.5483   -1.3678   -2.2366 H   0  0  0  0  0  0  0  0  0  0  0  0
   -7.4865    0.1621   -3.4656 H   0  0  0  0  0  0  0  0  0  0  0  0
   -9.1658   -0.9625   -4.7881 H   0  0  0  0  0  0  0  0  0  0  0  0
   -9.1985   -3.4477   -4.8705 H   0  0  0  0  0  0  0  0  0  0  0  0
   -7.5016   -4.7928   -3.5901 H   0  0  0  0  0  0  0  0  0  0  0  0
   -5.8305   -3.5842   -2.3014 H   0  0  0  0  0  0  0  0  0  0  0  0
   -7.5028    0.7334   -1.1399 H   0  0  0  0  0  0  0  0  0  0  0  0
   -8.4958    2.0795    0.5705 H   0  0  0  0  0  0  0  0  0  0  0  0
   -9.5420    0.6730    0.7088 H   0  0  0  0  0  0  0  0  0  0  0  0
   -9.0087    0.6452    3.2290 H   0  0  0  0  0  0  0  0  0  0  0  0
   -8.0262    2.1842    2.9050 H   0  0  0  0  0  0  0  0  0  0  0  0
  -10.2414    2.7775    3.7430 H   0  0  0  0  0  0  0  0  0  0  0  0
  -10.0732    3.1867    1.9824 H   0  0  0  0  0  0  0  0  0  0  0  0
  -11.4586    1.5050    1.3473 H   0  0  0  0  0  0  0  0  0  0  0  0
  -12.1977    1.9265    2.7940 H   0  0  0  0  0  0  0  0  0  0  0  0
    1.1415    2.9113   -1.5644 H   0  0  0  0  0  0  0  0  0  0  0  0
    0.6203    3.1734    0.1146 H   0  0  0  0  0  0  0  0  0  0  0  0
    2.3949    2.8596   -0.2566 H   0  0  0  0  0  0  0  0  0  0  0  0
    4.9034   -0.5020   -2.6457 H   0  0  0  0  0  0  0  0  0  0  0  0
    6.1443   -1.1919   -1.5888 H   0  0  0  0  0  0  0  0  0  0  0  0
    3.1224   -1.8810   -1.5898 H   0  0  0  0  0  0  0  0  0  0  0  0
    5.6123   -3.1141   -2.7836 H   0  0  0  0  0  0  0  0  0  0  0  0
    4.0482   -2.7136   -3.5627 H   0  0  0  0  0  0  0  0  0  0  0  0
    4.0973   -4.1343   -2.4596 H   0  0  0  0  0  0  0  0  0  0  0  0
    4.4911   -2.3208    0.5897 H   0  0  0  0  0  0  0  0  0  0  0  0
    3.7717   -3.7947   -0.1393 H   0  0  0  0  0  0  0  0  0  0  0  0
    5.4895   -3.4299   -0.4803 H   0  0  0  0  0  0  0  0  0  0  0  0
  1  2  1  0
  2  3  1  0
  3  4  1  0
  4  5  1  0
  5  6  1  0
  6  7  2  0
  6  8  1  0
  5  9  1  0
  9 10  1  0
 10 11  2  0
 10 12  1  0
 12 13  1  0
 13 14  1  0
 14 15  2  0
 14 16  1  0
 16 17  1  0
 17 18  1  0
 18 19  2  0
 18 20  1  0
 20 21  1  0
 21 22  1  0
 22 23  2  0
 23 24  1  0
 24 25  2  0
 25 26  1  0
 26 27  2  0
 20 28  1  0
 28 29  1  0
 29 30  2  0
 29 31  1  0
 31 32  1  0
 32 33  1  0
 33 34  2  0
 34 35  1  0
 35 36  2  0
 36 37  1  0
 37 38  2  0
 31 39  1  0
 39 40  1  0
 40 41  2  0
 40 42  1  0
 42 43  1  0
 43 44  1  0
 44 45  1  0
 16 46  1  0
 12 47  1  0
 47 48  1  0
 48 49  1  0
 48 50  1  0
 27 22  1  0
 38 33  1  0
  1 51  1  0
  1 52  1  0
  1 53  1  0
  3 54  1  0
  3 55  1  0
  4 56  1  0
  4 57  1  0
  5 58  1  6
  8 59  1  0
  8 60  1  0
  9 61  1  0
 12 62  1  1
 13 63  1  0
 16 64  1  6
 17 65  1  0
 20 66  1  1
 21 67  1  0
 21 68  1  0
 23 69  1  0
 24 70  1  0
 25 71  1  0
 26 72  1  0
 27 73  1  0
 28 74  1  0
 31 75  1  1
 32 76  1  0
 32 77  1  0
 34 78  1  0
 35 79  1  0
 36 80  1  0
 37 81  1  0
 38 82  1  0
 39 83  1  0
 42 84  1  0
 42 85  1  0
 43 86  1  0
 43 87  1  0
 44 88  1  0
 44 89  1  0
 45 90  1  0
 45 91  1  0
 46 92  1  0
 46 93  1  0
 46 94  1  0
 47 95  1  0
 47 96  1  0
 48 97  1  0
 49 98  1  0
 49 99  1  0
 49100  1  0
 50101  1  0
 50102  1  0
 50103  1  0
M  END
>  <Ligand ID>  (1) 
LIG0005160

>  <Ligand>  (1) 
CHEMBL2372949

>  <SMILES>  (1) 
CSCC[C@H](C(=O)N)NC(=O)[C@@H](NC(=O)[C@@H](NC(=O)[C@H](Cc1ccccc1)NC(=O)[C@H](Cc1ccccc1)NC(=O)CCCN)C)CC(C)C

>  <CID>  (1) 
73356363.0

>  <ChEMBL ID>  (1) 
nan

>  <InChiKey>  (1) 
LJNVNRGOILXPRJ-WCSHJNDUSA-N

>  <InChi>  (1) 
InChI=1S/C36H53N7O6S/c1-23(2)20-28(35(48)41-27(32(38)45)17-19-50-4)42-33(46)24(3)39-34(47)30(22-26-14-9-6-10-15-26)43-36(49)29(40-31(44)16-11-18-37)21-25-12-7-5-8-13-25/h5-10,12-15,23-24,27-30H,11,16-22,37H2,1-4H3,(H2,38,45)(H,39,47)(H,40,44)(H,41,48)(H,42,46)(H,43,49)/t24-,27+,28-,29-,30-/m0/s1

>  <IUPAC Name>  (1) 
(2S)-2-[[(2S)-2-[[(2S)-2-[[(2S)-2-(4-aminobutanoylamino)-3-phenylpropanoyl]amino]-3-phenylpropanoyl]amino]propanoyl]amino]-N-[(2R)-1-amino-4-methylsulfanyl-1-oxobutan-2-yl]-4-methylpentanamide

$$$$
