
     RDKit          3D

158163  0  0  0  0  0  0  0  0999 V2000
   12.6825   -1.2445    0.6701 C   0  0  0  0  0  0  0  0  0  0  0  0
   11.3200   -1.3009   -0.0267 C   0  0  0  0  0  0  0  0  0  0  0  0
   10.6165    0.0170    0.1661 C   0  0  0  0  0  0  0  0  0  0  0  0
    9.2915   -0.0103   -0.5169 C   0  0  0  0  0  0  0  0  0  0  0  0
    8.3771   -1.0809    0.0056 C   0  0  2  0  0  0  0  0  0  0  0  0
    7.0577   -1.0944   -0.7046 C   0  0  0  0  0  0  0  0  0  0  0  0
    7.1232   -1.3011   -1.9488 O   0  0  0  0  0  0  0  0  0  0  0  0
    5.8170   -0.8946   -0.0272 N   0  0  0  0  0  0  0  0  0  0  0  0
    4.5907   -0.9434   -0.7969 C   0  0  1  0  0  0  0  0  0  0  0  0
    3.8972   -2.1575   -0.2559 C   0  0  0  0  0  0  0  0  0  0  0  0
    2.6208   -2.5702   -0.8108 C   0  0  0  0  0  0  0  0  0  0  0  0
    1.8197   -1.9812   -1.5321 O   0  0  0  0  0  0  0  0  0  0  0  0
    2.1614   -3.9256   -0.4865 N   0  0  0  0  0  0  0  0  0  0  0  0
    0.8783   -4.3217   -1.0405 C   0  0  0  0  0  0  0  0  0  0  0  0
    0.5560   -5.7411   -0.6897 C   0  0  0  0  0  0  0  0  0  0  0  0
   -0.8214   -6.1163   -1.2607 C   0  0  0  0  0  0  0  0  0  0  0  0
   -1.8674   -5.3374   -0.5649 C   0  0  0  0  0  0  0  0  0  0  0  0
   -3.2797   -5.4872   -1.1319 C   0  0  2  0  0  0  0  0  0  0  0  0
   -4.1935   -4.6979   -0.3031 N   0  0  0  0  0  0  0  0  0  0  0  0
   -4.2272   -3.2475   -0.4399 C   0  0  0  0  0  0  0  0  0  0  0  0
   -3.4327   -2.8219   -1.2891 O   0  0  0  0  0  0  0  0  0  0  0  0
   -5.1323   -2.4152    0.3868 C   0  0  1  0  0  0  0  0  0  0  0  0
   -4.3744   -1.1384    0.5295 N   0  0  0  0  0  0  0  0  0  0  0  0
   -3.8733   -0.7181    1.7775 C   0  0  0  0  0  0  0  0  0  0  0  0
   -4.2174   -1.5447    2.6878 O   0  0  0  0  0  0  0  0  0  0  0  0
   -3.0885    0.4159    2.1875 C   0  0  1  0  0  0  0  0  0  0  0  0
   -2.5991    1.3420    1.2079 N   0  0  0  0  0  0  0  0  0  0  0  0
   -1.2033    1.6796    1.0759 C   0  0  0  0  0  0  0  0  0  0  0  0
   -0.4444    1.0772    1.8284 O   0  0  0  0  0  0  0  0  0  0  0  0
   -0.7494    2.7156    0.0604 C   0  0  2  0  0  0  0  0  0  0  0  0
    0.6835    2.8748    0.1823 N   0  0  0  0  0  0  0  0  0  0  0  0
    1.6011    2.4663   -0.8739 C   0  0  0  0  0  0  0  0  0  0  0  0
    0.9748    1.9587   -1.8066 O   0  0  0  0  0  0  0  0  0  0  0  0
    3.0448    2.6298   -0.8346 C   0  0  1  0  0  0  0  0  0  0  0  0
    3.8559    1.5117   -0.3848 N   0  0  0  0  0  0  0  0  0  0  0  0
    3.7999    0.2047   -1.0083 C   0  0  0  0  0  0  0  0  0  0  0  0
    2.8636    0.2045   -1.8446 O   0  0  0  0  0  0  0  0  0  0  0  0
    4.7511    1.6302    0.7079 C   0  0  0  0  0  0  0  0  0  0  0  0
    3.4770    2.9933   -2.2629 C   0  0  0  0  0  0  0  0  0  0  0  0
    2.9175    4.2295   -2.7762 C   0  0  0  0  0  0  0  0  0  0  0  0
    3.1517    4.7107   -4.0259 N   0  0  0  0  0  0  0  0  0  0  0  0
    2.5013    5.8748   -4.1607 C   0  0  0  0  0  0  0  0  0  0  0  0
    1.8501    6.1619   -3.0276 N   0  0  0  0  0  0  0  0  0  0  0  0
    2.0975    5.1577   -2.1669 C   0  0  0  0  0  0  0  0  0  0  0  0
    1.3349    3.4215    1.3259 C   0  0  0  0  0  0  0  0  0  0  0  0
   -1.5532    3.9272    0.3468 C   0  0  0  0  0  0  0  0  0  0  0  0
   -1.3453    5.1247   -0.4799 C   0  0  0  0  0  0  0  0  0  0  0  0
   -2.0325    5.2485   -1.6890 C   0  0  0  0  0  0  0  0  0  0  0  0
   -1.9233    6.3617   -2.4897 C   0  0  0  0  0  0  0  0  0  0  0  0
   -1.1068    7.4227   -2.1144 C   0  0  0  0  0  0  0  0  0  0  0  0
   -0.4326    7.3147   -0.9413 C   0  0  0  0  0  0  0  0  0  0  0  0
   -0.5450    6.1899   -0.1352 C   0  0  0  0  0  0  0  0  0  0  0  0
    0.4012    8.3362   -0.4987 C   0  0  0  0  0  0  0  0  0  0  0  0
    0.5434    9.4606   -1.2527 C   0  0  0  0  0  0  0  0  0  0  0  0
   -0.1621    9.5457   -2.4558 C   0  0  0  0  0  0  0  0  0  0  0  0
   -0.9864    8.5391   -2.8959 C   0  0  0  0  0  0  0  0  0  0  0  0
   -3.9166    1.1634    3.2477 C   0  0  0  0  0  0  0  0  0  0  0  0
   -5.2240    1.6205    2.6670 C   0  0  0  0  0  0  0  0  0  0  0  0
   -6.0147    2.3668    3.7147 C   0  0  0  0  0  0  0  0  0  0  0  0
   -6.3344    1.6070    4.8794 N   0  0  0  0  0  0  0  0  0  0  0  0
   -7.4806    1.6989    5.4951 C   0  0  0  0  0  0  0  0  0  0  0  0
   -7.7070    0.8999    6.6501 N   0  0  0  0  0  0  0  0  0  0  0  0
   -8.4643    2.6044    4.9789 N   0  0  0  0  0  0  0  0  0  0  0  0
   -4.1794   -0.3307   -0.6046 C   0  0  0  0  0  0  0  0  0  0  0  0
   -6.4861   -2.1796   -0.1630 C   0  0  0  0  0  0  0  0  0  0  0  0
   -7.1825   -3.4708   -0.3803 C   0  0  0  0  0  0  0  0  0  0  0  0
   -8.0671   -4.1329    0.4776 C   0  0  0  0  0  0  0  0  0  0  0  0
   -8.4273   -5.3060   -0.1036 N   0  0  0  0  0  0  0  0  0  0  0  0
   -7.8311   -5.4474   -1.2900 C   0  0  0  0  0  0  0  0  0  0  0  0
   -7.0471   -4.3134   -1.4894 C   0  0  0  0  0  0  0  0  0  0  0  0
   -6.3495   -4.2554   -2.6737 C   0  0  0  0  0  0  0  0  0  0  0  0
   -6.3826   -5.2269   -3.6418 C   0  0  0  0  0  0  0  0  0  0  0  0
   -7.1613   -6.3313   -3.4194 C   0  0  0  0  0  0  0  0  0  0  0  0
   -7.8838   -6.4436   -2.2482 C   0  0  0  0  0  0  0  0  0  0  0  0
   -3.6779   -6.8369   -1.3906 C   0  0  0  0  0  0  0  0  0  0  0  0
   -3.0003   -7.6483   -2.0572 O   0  0  0  0  0  0  0  0  0  0  0  0
   -4.9250   -7.3358   -0.8745 N   0  0  0  0  0  0  0  0  0  0  0  0
    8.0829   -0.7898    1.3958 N   0  0  0  0  0  0  0  0  0  0  0  0
    8.3287   -1.7846    2.3924 C   0  0  0  0  0  0  0  0  0  0  0  0
    8.7896   -2.9145    2.1495 O   0  0  0  0  0  0  0  0  0  0  0  0
    8.0172   -1.4592    3.8084 C   0  0  0  0  0  0  0  0  0  0  0  0
   13.4984   -1.0984   -0.0886 H   0  0  0  0  0  0  0  0  0  0  0  0
   12.8714   -2.2123    1.1482 H   0  0  0  0  0  0  0  0  0  0  0  0
   12.6976   -0.3846    1.3598 H   0  0  0  0  0  0  0  0  0  0  0  0
   11.5042   -1.4786   -1.1050 H   0  0  0  0  0  0  0  0  0  0  0  0
   10.7630   -2.1383    0.4077 H   0  0  0  0  0  0  0  0  0  0  0  0
   10.4698    0.2685    1.2264 H   0  0  0  0  0  0  0  0  0  0  0  0
   11.2645    0.8447   -0.2445 H   0  0  0  0  0  0  0  0  0  0  0  0
    9.3702   -0.0147   -1.6243 H   0  0  0  0  0  0  0  0  0  0  0  0
    8.7881    0.9674   -0.2586 H   0  0  0  0  0  0  0  0  0  0  0  0
    8.8350   -2.1051   -0.0861 H   0  0  0  0  0  0  0  0  0  0  0  0
    5.8783   -0.7462    0.9991 H   0  0  0  0  0  0  0  0  0  0  0  0
    4.9578   -1.2771   -1.8408 H   0  0  0  0  0  0  0  0  0  0  0  0
    4.5861   -3.0608   -0.3041 H   0  0  0  0  0  0  0  0  0  0  0  0
    3.8081   -2.0141    0.8630 H   0  0  0  0  0  0  0  0  0  0  0  0
    2.7792   -4.4587    0.0933 H   0  0  0  0  0  0  0  0  0  0  0  0
    0.1511   -3.6079   -0.6356 H   0  0  0  0  0  0  0  0  0  0  0  0
    0.9474   -4.1781   -2.1557 H   0  0  0  0  0  0  0  0  0  0  0  0
    0.4715   -5.8085    0.4162 H   0  0  0  0  0  0  0  0  0  0  0  0
    1.3028   -6.4570   -1.0353 H   0  0  0  0  0  0  0  0  0  0  0  0
   -0.8125   -5.9455   -2.3530 H   0  0  0  0  0  0  0  0  0  0  0  0
   -0.9397   -7.2056   -1.0670 H   0  0  0  0  0  0  0  0  0  0  0  0
   -1.6475   -4.2591   -0.6094 H   0  0  0  0  0  0  0  0  0  0  0  0
   -1.9069   -5.5674    0.5386 H   0  0  0  0  0  0  0  0  0  0  0  0
   -3.2079   -4.8643   -2.0857 H   0  0  0  0  0  0  0  0  0  0  0  0
   -4.8351   -5.0627    0.3893 H   0  0  0  0  0  0  0  0  0  0  0  0
   -5.2426   -2.9213    1.3831 H   0  0  0  0  0  0  0  0  0  0  0  0
   -2.1753    0.0827    2.7813 H   0  0  0  0  0  0  0  0  0  0  0  0
   -3.2115    1.8231    0.5579 H   0  0  0  0  0  0  0  0  0  0  0  0
   -1.0190    2.2790   -0.9253 H   0  0  0  0  0  0  0  0  0  0  0  0
    3.2876    3.4832   -0.1543 H   0  0  0  0  0  0  0  0  0  0  0  0
    5.8188    1.5072    0.4465 H   0  0  0  0  0  0  0  0  0  0  0  0
    4.5760    2.6653    1.1410 H   0  0  0  0  0  0  0  0  0  0  0  0
    4.4180    0.9682    1.5321 H   0  0  0  0  0  0  0  0  0  0  0  0
    3.2422    2.1896   -2.9838 H   0  0  0  0  0  0  0  0  0  0  0  0
    4.6007    3.1053   -2.2948 H   0  0  0  0  0  0  0  0  0  0  0  0
    3.7259    4.2965   -4.7895 H   0  0  0  0  0  0  0  0  0  0  0  0
    2.5051    6.4916   -5.0667 H   0  0  0  0  0  0  0  0  0  0  0  0
    1.7661    5.0239   -1.1533 H   0  0  0  0  0  0  0  0  0  0  0  0
    2.2523    2.8549    1.6095 H   0  0  0  0  0  0  0  0  0  0  0  0
    0.6178    3.4658    2.1934 H   0  0  0  0  0  0  0  0  0  0  0  0
    1.6775    4.4645    1.1774 H   0  0  0  0  0  0  0  0  0  0  0  0
   -1.5061    4.2045    1.4398 H   0  0  0  0  0  0  0  0  0  0  0  0
   -2.6315    3.6599    0.2078 H   0  0  0  0  0  0  0  0  0  0  0  0
   -2.6839    4.4349   -2.0198 H   0  0  0  0  0  0  0  0  0  0  0  0
   -2.4859    6.3856   -3.4051 H   0  0  0  0  0  0  0  0  0  0  0  0
    0.0132    6.1465    0.7915 H   0  0  0  0  0  0  0  0  0  0  0  0
    0.9460    8.2467    0.4480 H   0  0  0  0  0  0  0  0  0  0  0  0
    1.1869   10.2603   -0.9145 H   0  0  0  0  0  0  0  0  0  0  0  0
   -0.0563   10.4413   -3.0661 H   0  0  0  0  0  0  0  0  0  0  0  0
   -1.5412    8.5838   -3.8170 H   0  0  0  0  0  0  0  0  0  0  0  0
   -4.1345    0.4092    4.0276 H   0  0  0  0  0  0  0  0  0  0  0  0
   -3.3361    1.9699    3.7318 H   0  0  0  0  0  0  0  0  0  0  0  0
   -5.1082    2.2154    1.7476 H   0  0  0  0  0  0  0  0  0  0  0  0
   -5.8724    0.7575    2.3708 H   0  0  0  0  0  0  0  0  0  0  0  0
   -5.4654    3.2885    4.0427 H   0  0  0  0  0  0  0  0  0  0  0  0
   -6.9781    2.7500    3.2872 H   0  0  0  0  0  0  0  0  0  0  0  0
   -7.4532   -0.1183    6.5853 H   0  0  0  0  0  0  0  0  0  0  0  0
   -8.1032    1.3500    7.4875 H   0  0  0  0  0  0  0  0  0  0  0  0
   -9.0640    2.3776    4.1520 H   0  0  0  0  0  0  0  0  0  0  0  0
   -8.6340    3.5422    5.4081 H   0  0  0  0  0  0  0  0  0  0  0  0
   -4.8499    0.5802   -0.5182 H   0  0  0  0  0  0  0  0  0  0  0  0
   -3.1460   -0.0608   -0.8267 H   0  0  0  0  0  0  0  0  0  0  0  0
   -4.5938   -0.8565   -1.5267 H   0  0  0  0  0  0  0  0  0  0  0  0
   -7.0878   -1.6287    0.5976 H   0  0  0  0  0  0  0  0  0  0  0  0
   -6.4495   -1.6263   -1.1275 H   0  0  0  0  0  0  0  0  0  0  0  0
   -8.4146   -3.7719    1.4511 H   0  0  0  0  0  0  0  0  0  0  0  0
   -9.0977   -5.9829    0.3684 H   0  0  0  0  0  0  0  0  0  0  0  0
   -5.7304   -3.3827   -2.8750 H   0  0  0  0  0  0  0  0  0  0  0  0
   -5.8077   -5.1044   -4.5395 H   0  0  0  0  0  0  0  0  0  0  0  0
   -7.1744   -7.0917   -4.1992 H   0  0  0  0  0  0  0  0  0  0  0  0
   -8.4845   -7.3408   -2.1202 H   0  0  0  0  0  0  0  0  0  0  0  0
   -5.3102   -7.0163    0.0482 H   0  0  0  0  0  0  0  0  0  0  0  0
   -5.4722   -8.0379   -1.4269 H   0  0  0  0  0  0  0  0  0  0  0  0
    7.6956    0.1509    1.6201 H   0  0  0  0  0  0  0  0  0  0  0  0
    7.2369   -0.6434    3.8520 H   0  0  0  0  0  0  0  0  0  0  0  0
    7.6820   -2.3778    4.3368 H   0  0  0  0  0  0  0  0  0  0  0  0
    8.9347   -1.0392    4.2631 H   0  0  0  0  0  0  0  0  0  0  0  0
  1  2  1  0
  2  3  1  0
  3  4  1  0
  4  5  1  0
  5  6  1  0
  6  7  2  0
  6  8  1  0
  8  9  1  0
  9 10  1  0
 10 11  1  0
 11 12  2  0
 11 13  1  0
 13 14  1  0
 14 15  1  0
 15 16  1  0
 16 17  1  0
 17 18  1  0
 18 19  1  0
 19 20  1  0
 20 21  2  0
 20 22  1  0
 22 23  1  0
 23 24  1  0
 24 25  2  0
 24 26  1  0
 26 27  1  0
 27 28  1  0
 28 29  2  0
 28 30  1  0
 30 31  1  0
 31 32  1  0
 32 33  2  0
 32 34  1  0
 34 35  1  0
 35 36  1  0
 36 37  2  0
 35 38  1  0
 34 39  1  0
 39 40  1  0
 40 41  1  0
 41 42  1  0
 42 43  2  0
 43 44  1  0
 31 45  1  0
 30 46  1  0
 46 47  1  0
 47 48  2  0
 48 49  1  0
 49 50  2  0
 50 51  1  0
 51 52  2  0
 51 53  1  0
 53 54  2  0
 54 55  1  0
 55 56  2  0
 26 57  1  0
 57 58  1  0
 58 59  1  0
 59 60  1  0
 60 61  2  3
 61 62  1  0
 61 63  1  0
 23 64  1  0
 22 65  1  0
 65 66  1  0
 66 67  2  0
 67 68  1  0
 68 69  1  0
 69 70  2  0
 70 71  1  0
 71 72  2  0
 72 73  1  0
 73 74  2  0
 18 75  1  0
 75 76  2  0
 75 77  1  0
  5 78  1  0
 78 79  1  0
 79 80  2  0
 79 81  1  0
 36  9  1  0
 44 40  2  0
 52 47  1  0
 70 66  1  0
 56 50  1  0
 74 69  1  0
  1 82  1  0
  1 83  1  0
  1 84  1  0
  2 85  1  0
  2 86  1  0
  3 87  1  0
  3 88  1  0
  4 89  1  0
  4 90  1  0
  5 91  1  1
  8 92  1  0
  9 93  1  6
 10 94  1  0
 10 95  1  0
 13 96  1  0
 14 97  1  0
 14 98  1  0
 15 99  1  0
 15100  1  0
 16101  1  0
 16102  1  0
 17103  1  0
 17104  1  0
 18105  1  6
 19106  1  0
 22107  1  1
 26108  1  1
 27109  1  0
 30110  1  6
 34111  1  1
 38112  1  0
 38113  1  0
 38114  1  0
 39115  1  0
 39116  1  0
 41117  1  0
 42118  1  0
 44119  1  0
 45120  1  0
 45121  1  0
 45122  1  0
 46123  1  0
 46124  1  0
 48125  1  0
 49126  1  0
 52127  1  0
 53128  1  0
 54129  1  0
 55130  1  0
 56131  1  0
 57132  1  0
 57133  1  0
 58134  1  0
 58135  1  0
 59136  1  0
 59137  1  0
 62138  1  0
 62139  1  0
 63140  1  0
 63141  1  0
 64142  1  0
 64143  1  0
 64144  1  0
 65145  1  0
 65146  1  0
 67147  1  0
 68148  1  0
 71149  1  0
 72150  1  0
 73151  1  0
 74152  1  0
 77153  1  0
 77154  1  0
 78155  1  0
 81156  1  0
 81157  1  0
 81158  1  0
M  END
>  <Ligand ID>  (1) 
LIG0001820

>  <Ligand>  (1) 
CHEMBL3600922

>  <SMILES>  (1) 
CCCC[C@H](C(=O)N[C@H]1CC(=O)NCCCC[C@H](NC(=O)[C@@H](N(C(=O)[C@@H](NC(=O)[C@H](N(C(=O)[C@@H](N(C1=O)C)Cc1[nH]cnc1)C)Cc1ccc2c(c1)cccc2)CCCN=C(N)N)C)Cc1c[nH]c2c1cccc2)C(=O)N)NC(=O)C

>  <CID>  (1) 
122184641.0

>  <ChEMBL ID>  (1) 
nan

>  <InChiKey>  (1) 
WPTWHZNTLXWKHC-HAGGNINDSA-N

>  <InChi>  (1) 
InChI=1S/C57H77N15O9/c1-6-7-18-43(66-34(2)73)51(76)69-45-30-49(74)62-24-13-12-20-42(50(58)75)67-53(78)47(28-38-31-64-41-19-11-10-17-40(38)41)70(3)54(79)44(21-14-25-63-57(59)60)68-52(77)46(27-35-22-23-36-15-8-9-16-37(36)26-35)71(4)56(81)48(72(5)55(45)80)29-39-32-61-33-65-39/h8-11,15-17,19,22-23,26,31-33,42-48,64H,6-7,12-14,18,20-21,24-25,27-30H2,1-5H3,(H2,58,75)(H,61,65)(H,62,74)(H,66,73)(H,67,78)(H,68,77)(H,69,76)(H4,59,60,63)/t42-,43+,44-,45-,46+,47-,48-/m0/s1

>  <IUPAC Name>  (1) 
(3S,6S,9R,12S,15S,23S)-15-[[(2R)-2-acetamidohexanoyl]amino]-6-[3-(diaminomethylideneamino)propyl]-12-(1H-imidazol-5-ylmethyl)-3-(1H-indol-3-ylmethyl)-4,10,13-trimethyl-9-(naphthalen-2-ylmethyl)-2,5,8,11,14,17-hexaoxo-1,4,7,10,13,18-hexazacyclotricosane-23-carboxamide

$$$$
