
     RDKit          3D

 71 74  0  0  0  0  0  0  0  0999 V2000
   -2.2840   -1.1054    3.2042 O   0  0  0  0  0  0  0  0  0  0  0  0
   -2.4744   -0.5426    1.9407 C   0  0  2  0  0  0  0  0  0  0  0  0
   -3.9310   -0.8312    1.5568 C   0  0  2  0  0  0  0  0  0  0  0  0
   -4.6337   -1.4034    2.6067 O   0  0  0  0  0  0  0  0  0  0  0  0
   -3.7754   -1.8236    0.4386 C   0  0  2  0  0  0  0  0  0  0  0  0
   -2.6018   -1.3680   -0.2006 O   0  0  0  0  0  0  0  0  0  0  0  0
   -1.7430   -1.3559    0.9246 C   0  0  1  0  0  0  0  0  0  0  0  0
   -0.4807   -0.8312    0.5016 N   0  0  0  0  0  0  0  0  0  0  0  0
    0.0161   -1.0314   -0.7541 C   0  0  0  0  0  0  0  0  0  0  0  0
    1.2460   -0.5167   -1.1367 C   0  0  0  0  0  0  0  0  0  0  0  0
    1.9891    0.2113   -0.2434 C   0  0  0  0  0  0  0  0  0  0  0  0
    1.4866    0.3971    0.9806 N   0  0  0  0  0  0  0  0  0  0  0  0
    0.2816   -0.1069    1.3569 C   0  0  0  0  0  0  0  0  0  0  0  0
   -0.0666    0.1447    2.5377 O   0  0  0  0  0  0  0  0  0  0  0  0
    3.2606    0.7738   -0.5224 N   0  0  0  0  0  0  0  0  0  0  0  0
    4.3436    0.0447   -0.1502 O   0  0  0  0  0  0  0  0  0  0  0  0
    4.0719   -1.2891   -0.3235 C   0  0  0  0  0  0  0  0  0  0  0  0
    5.1308   -2.2129    0.2348 C   0  0  0  0  0  0  0  0  0  0  0  0
    6.4659   -2.0022   -0.3949 C   0  0  0  0  0  0  0  0  0  0  0  0
    7.0336   -0.6586   -0.2476 C   0  0  0  0  0  0  0  0  0  0  0  0
    7.7924   -0.3832    0.8881 C   0  0  0  0  0  0  0  0  0  0  0  0
    8.3727    0.8477    1.1091 C   0  0  0  0  0  0  0  0  0  0  0  0
    8.2102    1.8556    0.1890 C   0  0  0  0  0  0  0  0  0  0  0  0
    7.4604    1.6054   -0.9473 C   0  0  0  0  0  0  0  0  0  0  0  0
    6.8745    0.3634   -1.1711 C   0  0  0  0  0  0  0  0  0  0  0  0
    7.3270    2.6497   -1.8401 C   0  0  0  0  0  0  0  0  0  0  0  0
    7.8945    3.8835   -1.6426 C   0  0  0  0  0  0  0  0  0  0  0  0
    8.6399    4.1181   -0.5037 C   0  0  0  0  0  0  0  0  0  0  0  0
    8.7881    3.0902    0.4041 C   0  0  0  0  0  0  0  0  0  0  0  0
   -4.9558   -1.8038   -0.5085 C   0  0  0  0  0  0  0  0  0  0  0  0
   -6.1055   -2.2556    0.1329 O   0  0  0  0  0  0  0  0  0  0  0  0
   -7.4694   -2.2557   -0.8524 P   0  0  0  0  0  0  0  0  0  0  0  0
   -7.8467   -3.7287   -1.0376 O   0  0  0  0  0  0  0  0  0  0  0  0
   -8.7847   -1.5443   -0.0650 O   0  0  0  0  0  0  0  0  0  0  0  0
   -9.0354    0.0589   -0.5343 P   0  0  0  0  0  0  0  0  0  0  0  0
  -10.5349    0.2998   -0.4364 O   0  0  0  0  0  0  0  0  0  0  0  0
   -8.2104    1.0310    0.5692 O   0  0  0  0  0  0  0  0  0  0  0  0
   -8.8160    2.5836    0.6570 P   0  0  0  0  0  0  0  0  0  0  0  0
   -9.4845    2.8940    1.9836 O   0  0  0  0  0  0  0  0  0  0  0  0
   -7.4778    3.6413    0.5600 O   0  0  0  0  0  0  0  0  0  0  0  0
   -9.8775    2.9499   -0.5958 O   0  0  0  0  0  0  0  0  0  0  0  0
   -8.5272    0.3666   -2.1028 O   0  0  0  0  0  0  0  0  0  0  0  0
   -7.2020   -1.6126   -2.3757 O   0  0  0  0  0  0  0  0  0  0  0  0
   -2.1323   -2.0735    3.0607 H   0  0  0  0  0  0  0  0  0  0  0  0
   -2.2604    0.5328    1.8918 H   0  0  0  0  0  0  0  0  0  0  0  0
   -4.4220    0.0960    1.1755 H   0  0  0  0  0  0  0  0  0  0  0  0
   -4.2953   -1.1498    3.4977 H   0  0  0  0  0  0  0  0  0  0  0  0
   -3.5432   -2.8240    0.8091 H   0  0  0  0  0  0  0  0  0  0  0  0
   -1.6493   -2.4243    1.2269 H   0  0  0  0  0  0  0  0  0  0  0  0
   -0.5754   -1.6074   -1.4548 H   0  0  0  0  0  0  0  0  0  0  0  0
    1.6461   -0.6719   -2.1309 H   0  0  0  0  0  0  0  0  0  0  0  0
    3.3664    1.6973   -0.9881 H   0  0  0  0  0  0  0  0  0  0  0  0
    3.8930   -1.4911   -1.4027 H   0  0  0  0  0  0  0  0  0  0  0  0
    3.0796   -1.4801    0.1695 H   0  0  0  0  0  0  0  0  0  0  0  0
    4.7859   -3.2596    0.0300 H   0  0  0  0  0  0  0  0  0  0  0  0
    5.1842   -2.1249    1.3429 H   0  0  0  0  0  0  0  0  0  0  0  0
    6.3927   -2.3016   -1.4791 H   0  0  0  0  0  0  0  0  0  0  0  0
    7.2155   -2.7164    0.0357 H   0  0  0  0  0  0  0  0  0  0  0  0
    7.9266   -1.1775    1.6249 H   0  0  0  0  0  0  0  0  0  0  0  0
    8.9523    0.9946    2.0159 H   0  0  0  0  0  0  0  0  0  0  0  0
    6.2986    0.1846   -2.0581 H   0  0  0  0  0  0  0  0  0  0  0  0
    6.7374    2.4466   -2.7308 H   0  0  0  0  0  0  0  0  0  0  0  0
    7.7693    4.6673   -2.3547 H   0  0  0  0  0  0  0  0  0  0  0  0
    9.0826    5.0855   -0.3522 H   0  0  0  0  0  0  0  0  0  0  0  0
    9.3620    3.2161    1.3158 H   0  0  0  0  0  0  0  0  0  0  0  0
   -5.0560   -0.7974   -0.9498 H   0  0  0  0  0  0  0  0  0  0  0  0
   -4.7432   -2.5163   -1.3307 H   0  0  0  0  0  0  0  0  0  0  0  0
   -7.7652    4.5802    0.4385 H   0  0  0  0  0  0  0  0  0  0  0  0
  -10.7559    3.2646   -0.2268 H   0  0  0  0  0  0  0  0  0  0  0  0
   -7.7656    1.0308   -2.0969 H   0  0  0  0  0  0  0  0  0  0  0  0
   -7.0952   -2.3282   -3.0487 H   0  0  0  0  0  0  0  0  0  0  0  0
  1  2  1  0
  2  3  1  0
  3  4  1  0
  3  5  1  0
  5  6  1  0
  6  7  1  0
  7  8  1  0
  8  9  1  0
  9 10  2  0
 10 11  1  0
 11 12  2  0
 12 13  1  0
 13 14  2  0
 11 15  1  0
 15 16  1  0
 16 17  1  0
 17 18  1  0
 18 19  1  0
 19 20  1  0
 20 21  2  0
 21 22  1  0
 22 23  2  0
 23 24  1  0
 24 25  2  0
 24 26  1  0
 26 27  2  0
 27 28  1  0
 28 29  2  0
  5 30  1  0
 30 31  1  0
 31 32  1  0
 32 33  2  0
 32 34  1  0
 34 35  1  0
 35 36  2  0
 35 37  1  0
 37 38  1  0
 38 39  2  0
 38 40  1  0
 38 41  1  0
 35 42  1  0
 32 43  1  0
  7  2  1  0
 13  8  1  0
 25 20  1  0
 29 23  1  0
  1 44  1  0
  2 45  1  1
  3 46  1  6
  4 47  1  0
  5 48  1  1
  7 49  1  1
  9 50  1  0
 10 51  1  0
 15 52  1  0
 17 53  1  0
 17 54  1  0
 18 55  1  0
 18 56  1  0
 19 57  1  0
 19 58  1  0
 21 59  1  0
 22 60  1  0
 25 61  1  0
 26 62  1  0
 27 63  1  0
 28 64  1  0
 29 65  1  0
 30 66  1  0
 30 67  1  0
 40 68  1  0
 41 69  1  0
 42 70  1  0
 43 71  1  0
M  END
>  <Ligand ID>  (1) 
LIG0002754

>  <Ligand>  (1) 
CHEMBL3261374

>  <SMILES>  (1) 
O[C@@H]1[C@H](O)[C@H](O[C@H]1n1ccc(nc1=O)NOCCCc1ccc2c(c1)cccc2)COP(=O)(OP(=O)(OP(=O)(O)O)O)O

>  <CID>  (1) 
90656225.0

>  <ChEMBL ID>  (1) 
nan

>  <InChiKey>  (1) 
MXBRGZVUXNVHNI-CWJKEVGVSA-N

>  <InChi>  (1) 
InChI=1S/C22H28N3O15P3/c26-19-17(13-37-42(32,33)40-43(34,35)39-41(29,30)31)38-21(20(19)27)25-10-9-18(23-22(25)28)24-36-11-3-4-14-7-8-15-5-1-2-6-16(15)12-14/h1-2,5-10,12,17,19-21,26-27H,3-4,11,13H2,(H,32,33)(H,34,35)(H,23,24,28)(H2,29,30,31)/t17-,19-,20-,21-/m1/s1

>  <IUPAC Name>  (1) 
[[(2R,3S,4R,5R)-3,4-dihydroxy-5-[4-(3-naphthalen-2-ylpropoxyamino)-2-oxopyrimidin-1-yl]oxolan-2-yl]methoxy-hydroxyphosphoryl] phosphono hydrogen phosphate

$$$$
