
     RDKit          3D

 43 46  0  0  0  0  0  0  0  0999 V2000
   -4.6408    0.9646   -1.0935 N   0  0  0  0  0  0  0  0  0  0  0  0
   -4.4294    1.5093    0.2088 C   0  0  0  0  0  0  0  0  0  0  0  0
   -2.9633    1.8349    0.4450 C   0  0  0  0  0  0  0  0  0  0  0  0
   -2.1045    0.7637   -0.0082 N   0  0  0  0  0  0  0  0  0  0  0  0
   -2.3405    0.2973   -1.3768 C   0  0  0  0  0  0  0  0  0  0  0  0
   -3.8058   -0.1671   -1.3499 C   0  0  0  0  0  0  0  0  0  0  0  0
   -1.4944   -0.9244   -1.6278 C   0  0  0  0  0  0  0  0  0  0  0  0
   -0.0274   -0.6406   -1.2467 C   0  0  0  0  0  0  0  0  0  0  0  0
   -0.0147   -0.5217    0.2216 C   0  0  0  0  0  0  0  0  0  0  0  0
   -1.0868    0.1755    0.7928 C   0  0  0  0  0  0  0  0  0  0  0  0
   -1.1825    0.3152    2.1630 C   0  0  0  0  0  0  0  0  0  0  0  0
   -0.1839   -0.2575    2.9228 C   0  0  0  0  0  0  0  0  0  0  0  0
    0.8674   -0.9405    2.3516 C   0  0  0  0  0  0  0  0  0  0  0  0
    0.9774   -1.0893    0.9757 C   0  0  0  0  0  0  0  0  0  0  0  0
    2.1409   -1.8095    0.4595 C   0  0  0  0  0  0  0  0  0  0  0  0
    3.2141   -0.9227   -0.0065 C   0  0  0  0  0  0  0  0  0  0  0  0
    4.1092   -0.4567    0.9600 C   0  0  0  0  0  0  0  0  0  0  0  0
    5.1670    0.3750    0.6366 C   0  0  0  0  0  0  0  0  0  0  0  0
    5.3696    0.7735   -0.6713 C   0  0  0  0  0  0  0  0  0  0  0  0
    4.4798    0.3136   -1.6490 C   0  0  0  0  0  0  0  0  0  0  0  0
    3.4279   -0.5196   -1.2976 C   0  0  0  0  0  0  0  0  0  0  0  0
   -4.6218    1.6602   -1.8542 H   0  0  0  0  0  0  0  0  0  0  0  0
   -4.7761    0.8055    0.9884 H   0  0  0  0  0  0  0  0  0  0  0  0
   -4.9917    2.4825    0.2379 H   0  0  0  0  0  0  0  0  0  0  0  0
   -2.7547    2.2624    1.4071 H   0  0  0  0  0  0  0  0  0  0  0  0
   -2.7551    2.6706   -0.2929 H   0  0  0  0  0  0  0  0  0  0  0  0
   -2.1926    1.0704   -2.1364 H   0  0  0  0  0  0  0  0  0  0  0  0
   -3.9110   -0.8774   -0.5008 H   0  0  0  0  0  0  0  0  0  0  0  0
   -4.1015   -0.6188   -2.3083 H   0  0  0  0  0  0  0  0  0  0  0  0
   -1.8533   -1.6908   -0.8791 H   0  0  0  0  0  0  0  0  0  0  0  0
   -1.5759   -1.2959   -2.6498 H   0  0  0  0  0  0  0  0  0  0  0  0
    0.2120    0.3386   -1.7038 H   0  0  0  0  0  0  0  0  0  0  0  0
    0.5763   -1.4824   -1.6435 H   0  0  0  0  0  0  0  0  0  0  0  0
   -2.0076    0.8488    2.6109 H   0  0  0  0  0  0  0  0  0  0  0  0
   -0.2225   -0.1716    4.0013 H   0  0  0  0  0  0  0  0  0  0  0  0
    1.6134   -1.3611    3.0139 H   0  0  0  0  0  0  0  0  0  0  0  0
    1.8402   -2.4448   -0.4033 H   0  0  0  0  0  0  0  0  0  0  0  0
    2.5810   -2.4493    1.2815 H   0  0  0  0  0  0  0  0  0  0  0  0
    3.9972   -0.7389    2.0135 H   0  0  0  0  0  0  0  0  0  0  0  0
    5.8308    0.7010    1.4465 H   0  0  0  0  0  0  0  0  0  0  0  0
    6.2012    1.4271   -0.9257 H   0  0  0  0  0  0  0  0  0  0  0  0
    4.6523    0.6343   -2.6683 H   0  0  0  0  0  0  0  0  0  0  0  0
    2.7799   -0.8435   -2.0854 H   0  0  0  0  0  0  0  0  0  0  0  0
  1  2  1  0
  2  3  1  0
  3  4  1  0
  4  5  1  0
  5  6  1  0
  5  7  1  0
  7  8  1  0
  8  9  1  0
  9 10  2  0
 10 11  1  0
 11 12  2  0
 12 13  1  0
 13 14  2  0
 14 15  1  0
 15 16  1  0
 16 17  2  0
 17 18  1  0
 18 19  2  0
 19 20  1  0
 20 21  2  0
  6  1  1  0
 14  9  1  0
 21 16  1  0
 10  4  1  0
  1 22  1  0
  2 23  1  0
  2 24  1  0
  3 25  1  0
  3 26  1  0
  5 27  1  0
  6 28  1  0
  6 29  1  0
  7 30  1  0
  7 31  1  0
  8 32  1  0
  8 33  1  0
 11 34  1  0
 12 35  1  0
 13 36  1  0
 15 37  1  0
 15 38  1  0
 17 39  1  0
 18 40  1  0
 19 41  1  0
 20 42  1  0
 21 43  1  0
M  END
>  <Ligand ID>  (1) 
LIG0003000

>  <Ligand>  (1) 
CHEMBL3919795

>  <SMILES>  (1) 
N1CCN2C(C1)CCc1c2cccc1Cc1ccccc1

>  <CID>  (1) 
134139964.0

>  <ChEMBL ID>  (1) 
nan

>  <InChiKey>  (1) 
IAJGHVPYWZBQQT-UHFFFAOYSA-N

>  <InChi>  (1) 
InChI=1S/C19H22N2/c1-2-5-15(6-3-1)13-16-7-4-8-19-18(16)10-9-17-14-20-11-12-21(17)19/h1-8,17,20H,9-14H2

>  <IUPAC Name>  (1) 
7-benzyl-2,3,4,4a,5,6-hexahydro-1H-pyrazino[1,2-a]quinoline

$$$$
