
     RDKit          3D

 37 37  0  0  0  0  0  0  0  0999 V2000
    4.5898   -1.8014   -0.7562 C   0  0  0  0  0  0  0  0  0  0  0  0
    3.1902   -1.6787   -0.2465 C   0  0  0  0  0  0  0  0  0  0  0  0
    2.6513   -0.2804   -0.5118 C   0  0  0  0  0  0  0  0  0  0  0  0
    1.2065   -0.1786    0.0229 C   0  0  0  0  0  0  0  0  0  0  0  0
    0.7081    1.2134   -0.2562 C   0  0  0  0  0  0  0  0  0  0  0  0
   -0.6754    1.4883    0.2277 C   0  0  0  0  0  0  0  0  0  0  0  0
   -0.9844    2.9291   -0.1430 C   0  0  0  0  0  0  0  0  0  0  0  0
   -2.3131    3.2789    0.0350 O   0  0  0  0  0  0  0  0  0  0  0  0
   -3.0059    2.5123   -0.9381 C   0  0  0  0  0  0  0  0  0  0  0  0
   -3.0665    1.1356   -0.3593 C   0  0  0  0  0  0  0  0  0  0  0  0
   -1.6733    0.4928   -0.1957 C   0  0  0  0  0  0  0  0  0  0  0  0
   -1.9215   -0.5317    0.7853 O   0  0  0  0  0  0  0  0  0  0  0  0
   -1.8849   -1.8567    0.4338 C   0  0  0  0  0  0  0  0  0  0  0  0
   -1.6521   -2.3070   -0.7127 O   0  0  0  0  0  0  0  0  0  0  0  0
   -2.1442   -2.8622    1.5054 C   0  0  0  0  0  0  0  0  0  0  0  0
    4.5764   -2.3745   -1.7060 H   0  0  0  0  0  0  0  0  0  0  0  0
    4.9716   -0.7792   -0.9852 H   0  0  0  0  0  0  0  0  0  0  0  0
    5.2481   -2.2720    0.0103 H   0  0  0  0  0  0  0  0  0  0  0  0
    2.5324   -2.4043   -0.7551 H   0  0  0  0  0  0  0  0  0  0  0  0
    3.1550   -1.8569    0.8560 H   0  0  0  0  0  0  0  0  0  0  0  0
    2.5996   -0.0967   -1.5996 H   0  0  0  0  0  0  0  0  0  0  0  0
    3.3070    0.4787   -0.0575 H   0  0  0  0  0  0  0  0  0  0  0  0
    1.1441   -0.4851    1.0622 H   0  0  0  0  0  0  0  0  0  0  0  0
    0.5967   -0.8629   -0.6024 H   0  0  0  0  0  0  0  0  0  0  0  0
    1.4620    1.9253    0.1800 H   0  0  0  0  0  0  0  0  0  0  0  0
    0.8186    1.3588   -1.3607 H   0  0  0  0  0  0  0  0  0  0  0  0
   -0.6178    1.4794    1.3500 H   0  0  0  0  0  0  0  0  0  0  0  0
   -0.3832    3.5774    0.5242 H   0  0  0  0  0  0  0  0  0  0  0  0
   -0.7508    3.0731   -1.2129 H   0  0  0  0  0  0  0  0  0  0  0  0
   -2.3933    2.4734   -1.8546 H   0  0  0  0  0  0  0  0  0  0  0  0
   -4.0305    2.8538   -1.0846 H   0  0  0  0  0  0  0  0  0  0  0  0
   -3.6659    0.4362   -0.9457 H   0  0  0  0  0  0  0  0  0  0  0  0
   -3.4417    1.2577    0.6993 H   0  0  0  0  0  0  0  0  0  0  0  0
   -1.3897    0.0068   -1.1384 H   0  0  0  0  0  0  0  0  0  0  0  0
   -2.6819   -3.7170    1.0463 H   0  0  0  0  0  0  0  0  0  0  0  0
   -1.2089   -3.2071    1.9905 H   0  0  0  0  0  0  0  0  0  0  0  0
   -2.8724   -2.4186    2.2091 H   0  0  0  0  0  0  0  0  0  0  0  0
  1  2  1  0
  2  3  1  0
  3  4  1  0
  4  5  1  0
  5  6  1  0
  6  7  1  0
  7  8  1  0
  8  9  1  0
  9 10  1  0
 10 11  1  0
 11 12  1  0
 12 13  1  0
 13 14  2  0
 13 15  1  0
 11  6  1  0
  1 16  1  0
  1 17  1  0
  1 18  1  0
  2 19  1  0
  2 20  1  0
  3 21  1  0
  3 22  1  0
  4 23  1  0
  4 24  1  0
  5 25  1  0
  5 26  1  0
  6 27  1  0
  7 28  1  0
  7 29  1  0
  9 30  1  0
  9 31  1  0
 10 32  1  0
 10 33  1  0
 11 34  1  0
 15 35  1  0
 15 36  1  0
 15 37  1  0
M  END
>  <Ligand ID>  (1) 
LIG0000409

>  <Ligand>  (1) 
4-Acetoxy-3-pentyltetrahydropyran

>  <SMILES>  (1) 
CCCCCC1COCCC1OC(=O)C

>  <CID>  (1) 
86799.0

>  <ChEMBL ID>  (1) 
nan

>  <InChiKey>  (1) 
VSRVCSJJKWDZSH-UHFFFAOYSA-N

>  <InChi>  (1) 
InChI=1S/C12H22O3/c1-3-4-5-6-11-9-14-8-7-12(11)15-10(2)13/h11-12H,3-9H2,1-2H3

>  <IUPAC Name>  (1) 
(3-pentyloxan-4-yl) acetate

$$$$
