
     RDKit          3D

139141  0  0  0  0  0  0  0  0999 V2000
   -9.4776    1.5781    2.0936 C   0  0  0  0  0  0  0  0  0  0  0  0
   -8.2049    1.2693    1.3343 C   0  0  0  0  0  0  0  0  0  0  0  0
   -8.4163    1.6741   -0.1065 C   0  0  1  0  0  0  0  0  0  0  0  0
   -7.2464    1.4275   -0.9724 C   0  0  2  0  0  0  0  0  0  0  0  0
   -6.8377   -0.0047   -1.0294 N   0  0  0  0  0  0  0  0  0  0  0  0
   -6.5320   -0.6310   -2.2724 C   0  0  0  0  0  0  0  0  0  0  0  0
   -6.7974    0.0078   -3.2826 O   0  0  0  0  0  0  0  0  0  0  0  0
   -5.9249   -2.0048   -2.2322 C   0  0  2  0  0  0  0  0  0  0  0  0
   -6.5806   -3.0188   -3.0559 C   0  0  0  0  0  0  0  0  0  0  0  0
   -8.0025   -3.2959   -2.8111 C   0  0  0  0  0  0  0  0  0  0  0  0
   -8.5006   -4.1994   -1.9049 C   0  0  0  0  0  0  0  0  0  0  0  0
   -9.8661   -4.3429   -1.8392 C   0  0  0  0  0  0  0  0  0  0  0  0
  -10.7213   -3.6369   -2.6230 C   0  0  0  0  0  0  0  0  0  0  0  0
  -10.2490   -2.7197   -3.5436 C   0  0  0  0  0  0  0  0  0  0  0  0
   -8.8934   -2.5612   -3.6258 C   0  0  0  0  0  0  0  0  0  0  0  0
   -5.5602   -2.3473   -0.8764 N   0  0  0  0  0  0  0  0  0  0  0  0
   -4.2603   -1.9396   -0.4439 C   0  0  0  0  0  0  0  0  0  0  0  0
   -3.5980   -1.2779   -1.2507 O   0  0  0  0  0  0  0  0  0  0  0  0
   -3.6405   -2.2325    0.8716 C   0  0  1  0  0  0  0  0  0  0  0  0
   -4.4381   -3.0158    1.7547 N   0  0  0  0  0  0  0  0  0  0  0  0
   -2.3171   -2.9195    0.5055 C   0  0  0  0  0  0  0  0  0  0  0  0
   -1.2944   -3.4681    1.7880 S   0  0  0  0  0  0  0  0  0  0  0  0
   -0.2497   -2.2238    3.0448 S   0  0  0  0  0  0  0  0  0  0  0  0
    1.3915   -1.8605    2.4254 C   0  0  0  0  0  0  0  0  0  0  0  0
    1.5274   -0.6480    1.5414 C   0  0  2  0  0  0  0  0  0  0  0  0
    0.4767   -0.3861    0.6287 N   0  0  0  0  0  0  0  0  0  0  0  0
   -0.1938    0.9118    0.7735 C   0  0  0  0  0  0  0  0  0  0  0  0
    0.1818    1.5573    1.7497 O   0  0  0  0  0  0  0  0  0  0  0  0
   -1.2115    1.4311   -0.0972 C   0  0  1  0  0  0  0  0  0  0  0  0
   -1.9628    2.5706    0.5047 N   0  0  0  0  0  0  0  0  0  0  0  0
   -3.2539    2.7646   -0.0116 C   0  0  0  0  0  0  0  0  0  0  0  0
   -3.5346    1.9764   -0.9739 O   0  0  0  0  0  0  0  0  0  0  0  0
   -4.2995    3.7101    0.3774 C   0  0  1  0  0  0  0  0  0  0  0  0
   -5.6314    3.2998   -0.1369 N   0  0  0  0  0  0  0  0  0  0  0  0
   -5.9754    1.9654   -0.3085 C   0  0  0  0  0  0  0  0  0  0  0  0
   -5.2339    1.0696    0.0906 O   0  0  0  0  0  0  0  0  0  0  0  0
   -4.2560    4.2361    1.7236 C   0  0  0  0  0  0  0  0  0  0  0  0
   -4.3266    3.2119    2.7689 C   0  0  0  0  0  0  0  0  0  0  0  0
   -4.1297    1.9870    2.6497 O   0  0  0  0  0  0  0  0  0  0  0  0
   -4.6667    3.6521    4.1052 N   0  0  0  0  0  0  0  0  0  0  0  0
   -0.5583    2.1356   -1.3047 C   0  0  0  0  0  0  0  0  0  0  0  0
    0.3013    3.2667   -0.8917 C   0  0  0  0  0  0  0  0  0  0  0  0
    0.4826    3.6421    0.2840 O   0  0  0  0  0  0  0  0  0  0  0  0
    0.9623    3.9687   -1.9527 N   0  0  0  0  0  0  0  0  0  0  0  0
    2.8438   -0.8873    0.8193 C   0  0  0  0  0  0  0  0  0  0  0  0
    3.8106   -1.0570    1.6637 O   0  0  0  0  0  0  0  0  0  0  0  0
    3.0908   -0.9431   -0.5397 N   0  0  0  0  0  0  0  0  0  0  0  0
    2.2428   -0.7610   -1.7111 C   0  0  0  0  0  0  0  0  0  0  0  0
    3.1871   -0.0290   -2.6726 C   0  0  0  0  0  0  0  0  0  0  0  0
    4.5702   -0.1916   -2.1352 C   0  0  0  0  0  0  0  0  0  0  0  0
    4.3883   -1.3096   -1.1138 C   0  0  1  0  0  0  0  0  0  0  0  0
    5.5130   -1.3860   -0.2046 C   0  0  0  0  0  0  0  0  0  0  0  0
    6.0773   -2.5189   -0.0276 O   0  0  0  0  0  0  0  0  0  0  0  0
    6.0290   -0.2797    0.4890 N   0  0  0  0  0  0  0  0  0  0  0  0
    7.2042   -0.5665    1.3553 C   0  0  2  0  0  0  0  0  0  0  0  0
    7.2090    0.3676    2.4657 C   0  0  0  0  0  0  0  0  0  0  0  0
    6.4317    1.3780    2.5631 O   0  0  0  0  0  0  0  0  0  0  0  0
    8.1184    0.2012    3.5565 N   0  0  0  0  0  0  0  0  0  0  0  0
    8.0890    1.1624    4.6427 C   0  0  0  0  0  0  0  0  0  0  0  0
    9.1146    0.8357    5.6790 C   0  0  0  0  0  0  0  0  0  0  0  0
    9.1788    1.5855    6.6701 O   0  0  0  0  0  0  0  0  0  0  0  0
    9.9773   -0.3010    5.5117 N   0  0  0  0  0  0  0  0  0  0  0  0
    8.3588   -0.1651    0.3850 C   0  0  0  0  0  0  0  0  0  0  0  0
    9.7079   -0.3214    0.9478 C   0  0  0  0  0  0  0  0  0  0  0  0
   10.7704    0.0415   -0.0831 C   0  0  0  0  0  0  0  0  0  0  0  0
   10.6745   -0.8325   -1.2123 N   0  0  0  0  0  0  0  0  0  0  0  0
   11.7233   -0.5633   -2.1998 C   0  0  0  0  0  0  0  0  0  0  0  0
   11.5684    0.8320   -2.7172 C   0  0  0  0  0  0  0  0  0  0  0  0
   11.5669   -1.5441   -3.3172 C   0  0  0  0  0  0  0  0  0  0  0  0
   -9.6494    0.9681   -0.6196 C   0  0  0  0  0  0  0  0  0  0  0  0
   -9.3424    1.3385    3.1864 H   0  0  0  0  0  0  0  0  0  0  0  0
   -9.7357    2.6553    2.0517 H   0  0  0  0  0  0  0  0  0  0  0  0
  -10.3499    1.0318    1.6617 H   0  0  0  0  0  0  0  0  0  0  0  0
   -7.3731    1.8064    1.8290 H   0  0  0  0  0  0  0  0  0  0  0  0
   -8.0840    0.1674    1.3434 H   0  0  0  0  0  0  0  0  0  0  0  0
   -8.6570    2.7641   -0.0820 H   0  0  0  0  0  0  0  0  0  0  0  0
   -7.3939    1.8541   -1.9636 H   0  0  0  0  0  0  0  0  0  0  0  0
   -6.7718   -0.5781   -0.1972 H   0  0  0  0  0  0  0  0  0  0  0  0
   -4.9259   -1.7744   -2.8081 H   0  0  0  0  0  0  0  0  0  0  0  0
   -6.3949   -2.7577   -4.1407 H   0  0  0  0  0  0  0  0  0  0  0  0
   -5.9848   -3.9781   -2.9411 H   0  0  0  0  0  0  0  0  0  0  0  0
   -7.7946   -4.7442   -1.2967 H   0  0  0  0  0  0  0  0  0  0  0  0
  -10.2681   -5.0514   -1.1280 H   0  0  0  0  0  0  0  0  0  0  0  0
  -11.7881   -3.8141   -2.5088 H   0  0  0  0  0  0  0  0  0  0  0  0
  -10.9435   -2.1652   -4.1585 H   0  0  0  0  0  0  0  0  0  0  0  0
   -8.5249   -1.8414   -4.3475 H   0  0  0  0  0  0  0  0  0  0  0  0
   -6.1121   -2.8453   -0.1882 H   0  0  0  0  0  0  0  0  0  0  0  0
   -3.3546   -1.2376    1.3228 H   0  0  0  0  0  0  0  0  0  0  0  0
   -4.5341   -2.4930    2.6614 H   0  0  0  0  0  0  0  0  0  0  0  0
   -3.8697   -3.8750    2.0310 H   0  0  0  0  0  0  0  0  0  0  0  0
   -1.8129   -2.2939   -0.2977 H   0  0  0  0  0  0  0  0  0  0  0  0
   -2.6074   -3.8397   -0.1249 H   0  0  0  0  0  0  0  0  0  0  0  0
    2.0906   -1.8091    3.2937 H   0  0  0  0  0  0  0  0  0  0  0  0
    1.7060   -2.7976    1.8547 H   0  0  0  0  0  0  0  0  0  0  0  0
    1.6867    0.2107    2.2530 H   0  0  0  0  0  0  0  0  0  0  0  0
    0.0669   -0.9602   -0.0941 H   0  0  0  0  0  0  0  0  0  0  0  0
   -1.8790    0.6966   -0.5460 H   0  0  0  0  0  0  0  0  0  0  0  0
   -1.6170    3.1760    1.2186 H   0  0  0  0  0  0  0  0  0  0  0  0
   -4.0590    4.5814   -0.3992 H   0  0  0  0  0  0  0  0  0  0  0  0
   -6.3446    3.9988   -0.3794 H   0  0  0  0  0  0  0  0  0  0  0  0
   -5.0654    5.0120    1.8524 H   0  0  0  0  0  0  0  0  0  0  0  0
   -3.2948    4.8470    1.8613 H   0  0  0  0  0  0  0  0  0  0  0  0
   -5.4109    4.3964    4.2471 H   0  0  0  0  0  0  0  0  0  0  0  0
   -4.2250    3.2752    4.9500 H   0  0  0  0  0  0  0  0  0  0  0  0
   -1.4070    2.5380   -1.9430 H   0  0  0  0  0  0  0  0  0  0  0  0
   -0.0438    1.4327   -1.9481 H   0  0  0  0  0  0  0  0  0  0  0  0
    1.7863    4.5523   -1.7560 H   0  0  0  0  0  0  0  0  0  0  0  0
    0.6472    3.9221   -2.9493 H   0  0  0  0  0  0  0  0  0  0  0  0
    2.0411   -1.7563   -2.1948 H   0  0  0  0  0  0  0  0  0  0  0  0
    1.3417   -0.2001   -1.5604 H   0  0  0  0  0  0  0  0  0  0  0  0
    3.1631   -0.5038   -3.6918 H   0  0  0  0  0  0  0  0  0  0  0  0
    2.8535    1.0305   -2.7818 H   0  0  0  0  0  0  0  0  0  0  0  0
    4.9421    0.7277   -1.6336 H   0  0  0  0  0  0  0  0  0  0  0  0
    5.3030   -0.4927   -2.9205 H   0  0  0  0  0  0  0  0  0  0  0  0
    4.2390   -2.2324   -1.7295 H   0  0  0  0  0  0  0  0  0  0  0  0
    5.6328    0.6755    0.4199 H   0  0  0  0  0  0  0  0  0  0  0  0
    7.3052   -1.6282    1.5747 H   0  0  0  0  0  0  0  0  0  0  0  0
    8.7942   -0.5835    3.6332 H   0  0  0  0  0  0  0  0  0  0  0  0
    7.0851    1.2696    5.1041 H   0  0  0  0  0  0  0  0  0  0  0  0
    8.3609    2.1833    4.2649 H   0  0  0  0  0  0  0  0  0  0  0  0
   10.5375   -0.4733    4.6552 H   0  0  0  0  0  0  0  0  0  0  0  0
    9.9926   -0.9551    6.3505 H   0  0  0  0  0  0  0  0  0  0  0  0
    8.1181    0.8599    0.0591 H   0  0  0  0  0  0  0  0  0  0  0  0
    8.2387   -0.8027   -0.5374 H   0  0  0  0  0  0  0  0  0  0  0  0
    9.9091   -1.3637    1.2526 H   0  0  0  0  0  0  0  0  0  0  0  0
    9.8728    0.3577    1.8386 H   0  0  0  0  0  0  0  0  0  0  0  0
   10.6113    1.0828   -0.4436 H   0  0  0  0  0  0  0  0  0  0  0  0
   11.7850   -0.0248    0.3902 H   0  0  0  0  0  0  0  0  0  0  0  0
    9.7612   -0.7006   -1.7309 H   0  0  0  0  0  0  0  0  0  0  0  0
   12.6948   -0.7240   -1.6893 H   0  0  0  0  0  0  0  0  0  0  0  0
   10.4799    1.0915   -2.6056 H   0  0  0  0  0  0  0  0  0  0  0  0
   11.7727    0.8897   -3.8116 H   0  0  0  0  0  0  0  0  0  0  0  0
   12.1581    1.5181   -2.1107 H   0  0  0  0  0  0  0  0  0  0  0  0
   12.5195   -2.0583   -3.5752 H   0  0  0  0  0  0  0  0  0  0  0  0
   10.8313   -2.3526   -3.0637 H   0  0  0  0  0  0  0  0  0  0  0  0
   11.2278   -1.0208   -4.2362 H   0  0  0  0  0  0  0  0  0  0  0  0
   -9.5536    0.9595   -1.7353 H   0  0  0  0  0  0  0  0  0  0  0  0
   -9.7725   -0.0551   -0.2098 H   0  0  0  0  0  0  0  0  0  0  0  0
  -10.5363    1.5877   -0.3648 H   0  0  0  0  0  0  0  0  0  0  0  0
  1  2  1  0
  2  3  1  0
  3  4  1  0
  4  5  1  0
  5  6  1  0
  6  7  2  0
  6  8  1  0
  8  9  1  0
  9 10  1  0
 10 11  2  0
 11 12  1  0
 12 13  2  0
 13 14  1  0
 14 15  2  0
  8 16  1  0
 16 17  1  0
 17 18  2  0
 17 19  1  0
 19 20  1  0
 19 21  1  0
 21 22  1  0
 22 23  1  0
 23 24  1  0
 24 25  1  0
 25 26  1  0
 26 27  1  0
 27 28  2  0
 27 29  1  0
 29 30  1  0
 30 31  1  0
 31 32  2  0
 31 33  1  0
 33 34  1  0
 34 35  1  0
 35 36  2  0
 33 37  1  0
 37 38  1  0
 38 39  2  0
 38 40  1  0
 29 41  1  0
 41 42  1  0
 42 43  2  0
 42 44  1  0
 25 45  1  0
 45 46  2  0
 45 47  1  0
 47 48  1  0
 48 49  1  0
 49 50  1  0
 50 51  1  0
 51 52  1  0
 52 53  2  0
 52 54  1  0
 54 55  1  0
 55 56  1  0
 56 57  2  0
 56 58  1  0
 58 59  1  0
 59 60  1  0
 60 61  2  0
 60 62  1  0
 55 63  1  0
 63 64  1  0
 64 65  1  0
 65 66  1  0
 66 67  1  0
 67 68  1  0
 67 69  1  0
  3 70  1  0
 35  4  1  0
 51 47  1  0
 15 10  1  0
  1 71  1  0
  1 72  1  0
  1 73  1  0
  2 74  1  0
  2 75  1  0
  3 76  1  1
  4 77  1  6
  5 78  1  0
  8 79  1  6
  9 80  1  0
  9 81  1  0
 11 82  1  0
 12 83  1  0
 13 84  1  0
 14 85  1  0
 15 86  1  0
 16 87  1  0
 19 88  1  1
 20 89  1  0
 20 90  1  0
 21 91  1  0
 21 92  1  0
 24 93  1  0
 24 94  1  0
 25 95  1  1
 26 96  1  0
 29 97  1  6
 30 98  1  0
 33 99  1  6
 34100  1  0
 37101  1  0
 37102  1  0
 40103  1  0
 40104  1  0
 41105  1  0
 41106  1  0
 44107  1  0
 44108  1  0
 48109  1  0
 48110  1  0
 49111  1  0
 49112  1  0
 50113  1  0
 50114  1  0
 51115  1  6
 54116  1  0
 55117  1  1
 58118  1  0
 59119  1  0
 59120  1  0
 62121  1  0
 62122  1  0
 63123  1  0
 63124  1  0
 64125  1  0
 64126  1  0
 65127  1  0
 65128  1  0
 66129  1  0
 67130  1  0
 68131  1  0
 68132  1  0
 68133  1  0
 69134  1  0
 69135  1  0
 69136  1  0
 70137  1  0
 70138  1  0
 70139  1  0
M  END
>  <Ligand ID>  (1) 
LIG0001599

>  <Ligand>  (1) 
CHEMBL1817752

>  <SMILES>  (1) 
CC[C@@H]([C@@H]1NC(=O)[C@H](Cc2ccccc2)NC(=O)[C@@H](N)CSSC[C@H](NC(=O)[C@@H](NC(=O)[C@@H](NC1=O)CC(=O)N)CC(=O)N)C(=O)N1CCC[C@H]1C(=O)N[C@H](C(=O)NCC(=O)N)CCCNC(C)C)C

>  <CID>  (1) 
53362603.0

>  <ChEMBL ID>  (1) 
nan

>  <InChiKey>  (1) 
VENAYOBYKBHEQI-PFCVTPPASA-N

>  <InChi>  (1) 
InChI=1S/C44H69N13O11S2/c1-5-24(4)36-43(67)54-30(19-34(47)59)39(63)53-29(18-33(46)58)40(64)55-31(22-70-69-21-26(45)37(61)52-28(41(65)56-36)17-25-11-7-6-8-12-25)44(68)57-16-10-14-32(57)42(66)51-27(13-9-15-49-23(2)3)38(62)50-20-35(48)60/h6-8,11-12,23-24,26-32,36,49H,5,9-10,13-22,45H2,1-4H3,(H2,46,58)(H2,47,59)(H2,48,60)(H,50,62)(H,51,66)(H,52,61)(H,53,63)(H,54,67)(H,55,64)(H,56,65)/t24-,26-,27-,28-,29-,30-,31-,32-,36-/m0/s1

>  <IUPAC Name>  (1) 
(2S)-1-[(4R,7S,10S,13S,16S,19R)-19-amino-7,10-bis(2-amino-2-oxoethyl)-16-benzyl-13-[(2S)-butan-2-yl]-6,9,12,15,18-pentaoxo-1,2-dithia-5,8,11,14,17-pentazacycloicosane-4-carbonyl]-N-[(2S)-1-[(2-amino-2-oxoethyl)amino]-1-oxo-5-(propan-2-ylamino)pentan-2-yl]pyrrolidine-2-carboxamide

$$$$
