
     RDKit          3D

 75 79  0  0  0  0  0  0  0  0999 V2000
    3.7769    2.1342    0.8529 O   0  0  0  0  0  0  0  0  0  0  0  0
    4.4278    0.9359    0.6231 C   0  0  2  0  0  0  0  0  0  0  0  0
    5.9195    1.2559    0.4261 C   0  0  0  0  0  0  0  0  0  0  0  0
    6.6034    0.0320    0.1843 O   0  0  0  0  0  0  0  0  0  0  0  0
    7.9597    0.0675   -0.0518 C   0  0  0  0  0  0  0  0  0  0  0  0
    8.6966    1.2217   -0.0744 C   0  0  0  0  0  0  0  0  0  0  0  0
   10.0559    1.1384   -0.3230 C   0  0  0  0  0  0  0  0  0  0  0  0
   10.6802   -0.0691   -0.5471 C   0  0  0  0  0  0  0  0  0  0  0  0
    9.9380   -1.2310   -0.5236 C   0  0  0  0  0  0  0  0  0  0  0  0
    8.5790   -1.1551   -0.2751 C   0  0  0  0  0  0  0  0  0  0  0  0
    3.9326    0.4215   -0.7391 C   0  0  0  0  0  0  0  0  0  0  0  0
    4.5388   -0.7856   -1.0960 N   0  0  0  0  0  0  0  0  0  0  0  0
    4.2880   -1.9953   -0.4628 C   0  0  0  0  0  0  0  0  0  0  0  0
    3.0187   -2.6806   -0.7890 C   0  0  0  0  0  0  0  0  0  0  0  0
    1.7271   -2.0551   -0.5591 C   0  0  0  0  0  0  0  0  0  0  0  0
    1.0347   -1.3122   -1.5264 C   0  0  0  0  0  0  0  0  0  0  0  0
   -0.2012   -0.7828   -1.3119 C   0  0  0  0  0  0  0  0  0  0  0  0
   -0.8077   -0.9789   -0.1031 C   0  0  0  0  0  0  0  0  0  0  0  0
   -0.1668   -1.7130    0.9118 C   0  0  0  0  0  0  0  0  0  0  0  0
    1.0878   -2.2364    0.6646 C   0  0  0  0  0  0  0  0  0  0  0  0
   -0.8665   -1.8889    2.1879 C   0  0  0  0  0  0  0  0  0  0  0  0
   -1.8553   -0.8741    2.5756 C   0  0  0  0  0  0  0  0  0  0  0  0
   -2.4307   -0.0238    1.4926 C   0  0  0  0  0  0  0  0  0  0  0  0
   -2.1402   -0.4916    0.1704 N   0  0  0  0  0  0  0  0  0  0  0  0
   -3.0452   -0.5120   -0.9192 C   0  0  0  0  0  0  0  0  0  0  0  0
   -2.7317   -0.8095   -2.1066 O   0  0  0  0  0  0  0  0  0  0  0  0
   -4.5087   -0.1739   -0.7595 C   0  0  0  0  0  0  0  0  0  0  0  0
   -4.8419    1.1407   -1.3471 C   0  0  0  0  0  0  0  0  0  0  0  0
   -4.4516    1.6867   -2.5105 N   0  0  0  0  0  0  0  0  0  0  0  0
   -5.0404    2.9027   -2.6282 C   0  0  0  0  0  0  0  0  0  0  0  0
   -5.8292    3.1181   -1.4906 C   0  0  0  0  0  0  0  0  0  0  0  0
   -5.6900    2.0038   -0.7071 N   0  0  0  0  0  0  0  0  0  0  0  0
   -6.3663    1.7791    0.5754 C   0  0  0  0  0  0  0  0  0  0  0  0
   -7.6878    1.1290    0.3872 C   0  0  0  0  0  0  0  0  0  0  0  0
   -8.8049    1.9377    0.2685 C   0  0  0  0  0  0  0  0  0  0  0  0
  -10.0479    1.3642    0.0831 C   0  0  0  0  0  0  0  0  0  0  0  0
  -10.2257   -0.0076    0.0096 C   0  0  0  0  0  0  0  0  0  0  0  0
   -9.1223   -0.8215    0.1254 C   0  0  0  0  0  0  0  0  0  0  0  0
   -7.8808   -0.2299    0.3116 C   0  0  0  0  0  0  0  0  0  0  0  0
    4.2764    2.7418    1.4553 H   0  0  0  0  0  0  0  0  0  0  0  0
    4.2461    0.2452    1.4395 H   0  0  0  0  0  0  0  0  0  0  0  0
    6.0866    1.9011   -0.4431 H   0  0  0  0  0  0  0  0  0  0  0  0
    6.2501    1.7372    1.3557 H   0  0  0  0  0  0  0  0  0  0  0  0
    8.1799    2.1526    0.1047 H   0  0  0  0  0  0  0  0  0  0  0  0
   10.5852    2.0935   -0.3273 H   0  0  0  0  0  0  0  0  0  0  0  0
   11.7451   -0.1133   -0.7401 H   0  0  0  0  0  0  0  0  0  0  0  0
   10.3974   -2.1931   -0.6957 H   0  0  0  0  0  0  0  0  0  0  0  0
    7.9704   -2.0739   -0.2513 H   0  0  0  0  0  0  0  0  0  0  0  0
    2.8608    0.4796   -0.6969 H   0  0  0  0  0  0  0  0  0  0  0  0
    4.2738    1.2082   -1.4640 H   0  0  0  0  0  0  0  0  0  0  0  0
    5.2286   -0.7658   -1.8821 H   0  0  0  0  0  0  0  0  0  0  0  0
    5.1378   -2.7494   -0.6649 H   0  0  0  0  0  0  0  0  0  0  0  0
    4.3498   -1.9354    0.6707 H   0  0  0  0  0  0  0  0  0  0  0  0
    3.0098   -3.7372   -0.3165 H   0  0  0  0  0  0  0  0  0  0  0  0
    3.1186   -2.9947   -1.8988 H   0  0  0  0  0  0  0  0  0  0  0  0
    1.5117   -1.1469   -2.4962 H   0  0  0  0  0  0  0  0  0  0  0  0
   -0.6834   -0.2131   -2.0745 H   0  0  0  0  0  0  0  0  0  0  0  0
    1.5790   -2.8024    1.4585 H   0  0  0  0  0  0  0  0  0  0  0  0
   -1.3074   -2.9242    2.1774 H   0  0  0  0  0  0  0  0  0  0  0  0
   -0.0744   -1.9609    2.9910 H   0  0  0  0  0  0  0  0  0  0  0  0
   -1.4584   -0.1954    3.3687 H   0  0  0  0  0  0  0  0  0  0  0  0
   -2.7143   -1.4049    3.0837 H   0  0  0  0  0  0  0  0  0  0  0  0
   -3.4983    0.1651    1.6850 H   0  0  0  0  0  0  0  0  0  0  0  0
   -1.9628    1.0069    1.5544 H   0  0  0  0  0  0  0  0  0  0  0  0
   -4.8131   -0.2895    0.2740 H   0  0  0  0  0  0  0  0  0  0  0  0
   -5.1226   -0.9148   -1.3621 H   0  0  0  0  0  0  0  0  0  0  0  0
   -4.9361    3.6001   -3.4475 H   0  0  0  0  0  0  0  0  0  0  0  0
   -6.4246    3.9882   -1.2761 H   0  0  0  0  0  0  0  0  0  0  0  0
   -5.7641    1.1704    1.2551 H   0  0  0  0  0  0  0  0  0  0  0  0
   -6.5298    2.7720    1.0703 H   0  0  0  0  0  0  0  0  0  0  0  0
   -8.6949    3.0219    0.3230 H   0  0  0  0  0  0  0  0  0  0  0  0
  -10.9199    1.9960   -0.0106 H   0  0  0  0  0  0  0  0  0  0  0  0
  -11.1764   -0.4846   -0.1335 H   0  0  0  0  0  0  0  0  0  0  0  0
   -9.1987   -1.9092    0.0729 H   0  0  0  0  0  0  0  0  0  0  0  0
   -7.0497   -0.9120    0.4027 H   0  0  0  0  0  0  0  0  0  0  0  0
  1  2  1  0
  2  3  1  0
  3  4  1  0
  4  5  1  0
  5  6  2  0
  6  7  1  0
  7  8  2  0
  8  9  1  0
  9 10  2  0
  2 11  1  0
 11 12  1  0
 12 13  1  0
 13 14  1  0
 14 15  1  0
 15 16  2  0
 16 17  1  0
 17 18  2  0
 18 19  1  0
 19 20  2  0
 19 21  1  0
 21 22  1  0
 22 23  1  0
 23 24  1  0
 24 25  1  0
 25 26  2  0
 25 27  1  0
 27 28  1  0
 28 29  2  0
 29 30  1  0
 30 31  2  0
 31 32  1  0
 32 33  1  0
 33 34  1  0
 34 35  2  0
 35 36  1  0
 36 37  2  0
 37 38  1  0
 38 39  2  0
 10  5  1  0
 20 15  1  0
 32 28  1  0
 39 34  1  0
 24 18  1  0
  1 40  1  0
  2 41  1  1
  3 42  1  0
  3 43  1  0
  6 44  1  0
  7 45  1  0
  8 46  1  0
  9 47  1  0
 10 48  1  0
 11 49  1  0
 11 50  1  0
 12 51  1  0
 13 52  1  0
 13 53  1  0
 14 54  1  0
 14 55  1  0
 16 56  1  0
 17 57  1  0
 20 58  1  0
 21 59  1  0
 21 60  1  0
 22 61  1  0
 22 62  1  0
 23 63  1  0
 23 64  1  0
 27 65  1  0
 27 66  1  0
 30 67  1  0
 31 68  1  0
 33 69  1  0
 33 70  1  0
 35 71  1  0
 36 72  1  0
 37 73  1  0
 38 74  1  0
 39 75  1  0
M  END
>  <Ligand ID>  (1) 
LIG0002998

>  <Ligand>  (1) 
CHEMBL512099

>  <SMILES>  (1) 
O[C@H](COc1ccccc1)CNCCc1ccc2c(c1)CCCN2C(=O)Cc1nccn1Cc1ccccc1

>  <CID>  (1) 
44574978.0

>  <ChEMBL ID>  (1) 
nan

>  <InChiKey>  (1) 
YMGPFSYBGCDOLQ-NDEPHWFRSA-N

>  <InChi>  (1) 
InChI=1S/C32H36N4O3/c37-28(24-39-29-11-5-2-6-12-29)22-33-16-15-25-13-14-30-27(20-25)10-7-18-36(30)32(38)21-31-34-17-19-35(31)23-26-8-3-1-4-9-26/h1-6,8-9,11-14,17,19-20,28,33,37H,7,10,15-16,18,21-24H2/t28-/m0/s1

>  <IUPAC Name>  (1) 
2-(1-benzylimidazol-2-yl)-1-[6-[2-[[(2S)-2-hydroxy-3-phenoxypropyl]amino]ethyl]-3,4-dihydro-2H-quinolin-1-yl]ethanone

$$$$
