
     RDKit          3D

 50 53  0  0  0  0  0  0  0  0999 V2000
   -4.6434    0.1646   -0.9050 O   0  0  0  0  0  0  0  0  0  0  0  0
   -5.3803    0.2886    0.0826 C   0  0  0  0  0  0  0  0  0  0  0  0
   -6.1764    1.4823    0.1612 N   0  0  0  0  0  0  0  0  0  0  0  0
   -6.0192    2.3980   -0.9263 C   0  0  0  0  0  0  0  0  0  0  0  0
   -6.8733    2.2316   -2.0185 C   0  0  0  0  0  0  0  0  0  0  0  0
   -6.7887    3.0781   -3.1181 C   0  0  0  0  0  0  0  0  0  0  0  0
   -5.8299    4.0841   -3.0843 C   0  0  0  0  0  0  0  0  0  0  0  0
   -4.9810    4.2517   -2.0024 C   0  0  0  0  0  0  0  0  0  0  0  0
   -5.0652    3.4079   -0.9062 C   0  0  0  0  0  0  0  0  0  0  0  0
   -5.5174   -0.6823    1.1937 C   0  0  0  0  0  0  0  0  0  0  0  0
   -4.7201   -1.8103    1.0604 O   0  0  0  0  0  0  0  0  0  0  0  0
   -3.3421   -1.7984    1.0133 C   0  0  0  0  0  0  0  0  0  0  0  0
   -2.5505   -0.6922    1.0990 C   0  0  0  0  0  0  0  0  0  0  0  0
   -1.1732   -0.7727    1.0432 C   0  0  0  0  0  0  0  0  0  0  0  0
   -0.5162   -1.9797    0.8981 C   0  0  0  0  0  0  0  0  0  0  0  0
   -1.3059   -3.1087    0.8108 C   0  0  0  0  0  0  0  0  0  0  0  0
   -2.6841   -3.0245    0.8665 C   0  0  0  0  0  0  0  0  0  0  0  0
   -3.7295   -4.6306    0.7397 Br  0  0  0  0  0  0  0  0  0  0  0  0
    0.9268   -1.9909    0.8456 C   0  0  0  0  0  0  0  0  0  0  0  0
    1.5633   -0.9043    0.9290 N   0  0  0  0  0  0  0  0  0  0  0  0
    2.9340   -0.7011    0.8997 N   0  0  0  0  0  0  0  0  0  0  0  0
    3.9032   -1.6214    0.4543 C   0  0  0  0  0  0  0  0  0  0  0  0
    3.6756   -2.7687    0.0157 O   0  0  0  0  0  0  0  0  0  0  0  0
    5.3215   -1.2171    0.5003 C   0  0  0  0  0  0  0  0  0  0  0  0
    6.4067   -2.0017    0.1021 C   0  0  0  0  0  0  0  0  0  0  0  0
    7.5522   -1.2350    0.3136 C   0  0  0  0  0  0  0  0  0  0  0  0
    7.0979   -0.0389    0.8241 C   0  0  0  0  0  0  0  0  0  0  0  0
    5.8007   -0.0476    0.9251 O   0  0  0  0  0  0  0  0  0  0  0  0
    7.9673    1.0002    1.1656 C   0  0  0  0  0  0  0  0  0  0  0  0
    9.3270    0.8378    0.9918 C   0  0  0  0  0  0  0  0  0  0  0  0
    9.7825   -0.3797    0.4728 C   0  0  0  0  0  0  0  0  0  0  0  0
    8.8940   -1.3960    0.1419 C   0  0  0  0  0  0  0  0  0  0  0  0
   -6.8275    1.6630    0.9653 H   0  0  0  0  0  0  0  0  0  0  0  0
   -7.6193    1.4304   -2.0179 H   0  0  0  0  0  0  0  0  0  0  0  0
   -7.4451    2.9625   -3.9745 H   0  0  0  0  0  0  0  0  0  0  0  0
   -5.7868    4.7309   -3.9585 H   0  0  0  0  0  0  0  0  0  0  0  0
   -4.2359    5.0526   -2.0040 H   0  0  0  0  0  0  0  0  0  0  0  0
   -4.4334    3.5019   -0.0574 H   0  0  0  0  0  0  0  0  0  0  0  0
   -5.3861   -0.1802    2.1808 H   0  0  0  0  0  0  0  0  0  0  0  0
   -6.5980   -1.0127    1.2098 H   0  0  0  0  0  0  0  0  0  0  0  0
   -2.9904    0.2818    1.2225 H   0  0  0  0  0  0  0  0  0  0  0  0
   -0.5757    0.1447    1.1153 H   0  0  0  0  0  0  0  0  0  0  0  0
   -0.7773   -4.0487    0.6973 H   0  0  0  0  0  0  0  0  0  0  0  0
    1.4881   -2.9083    0.7374 H   0  0  0  0  0  0  0  0  0  0  0  0
    3.2668    0.2472    1.2506 H   0  0  0  0  0  0  0  0  0  0  0  0
    6.3886   -2.9981   -0.2915 H   0  0  0  0  0  0  0  0  0  0  0  0
    7.5763    1.9422    1.5703 H   0  0  0  0  0  0  0  0  0  0  0  0
   10.0010    1.6397    1.2548 H   0  0  0  0  0  0  0  0  0  0  0  0
   10.8568   -0.5244    0.3294 H   0  0  0  0  0  0  0  0  0  0  0  0
    9.2413   -2.3477   -0.2630 H   0  0  0  0  0  0  0  0  0  0  0  0
  1  2  2  0
  2  3  1  0
  3  4  1  0
  4  5  2  0
  5  6  1  0
  6  7  2  0
  7  8  1  0
  8  9  2  0
  2 10  1  0
 10 11  1  0
 11 12  1  0
 12 13  2  0
 13 14  1  0
 14 15  2  0
 15 16  1  0
 16 17  2  0
 17 18  1  0
 15 19  1  0
 19 20  2  0
 20 21  1  0
 21 22  1  0
 22 23  2  0
 22 24  1  0
 24 25  2  0
 25 26  1  0
 26 27  2  0
 27 28  1  0
 27 29  1  0
 29 30  2  0
 30 31  1  0
 31 32  2  0
  9  4  1  0
 17 12  1  0
 28 24  1  0
 32 26  1  0
  3 33  1  0
  5 34  1  0
  6 35  1  0
  7 36  1  0
  8 37  1  0
  9 38  1  0
 10 39  1  0
 10 40  1  0
 13 41  1  0
 14 42  1  0
 16 43  1  0
 19 44  1  0
 21 45  1  0
 25 46  1  0
 29 47  1  0
 30 48  1  0
 31 49  1  0
 32 50  1  0
M  END
>  <Ligand ID>  (1) 
LIG0002717

>  <Ligand>  (1) 
SMR000160814

>  <SMILES>  (1) 
O=C(Nc1ccccc1)COc1ccc(cc1Br)/C=N/NC(=O)c1cc2c(o1)cccc2

>  <CID>  (1) 
6871588.0

>  <ChEMBL ID>  (1) 
nan

>  <InChiKey>  (1) 
BIOLJPLPUJUMME-VULFUBBASA-N

>  <InChi>  (1) 
InChI=1S/C24H18BrN3O4/c25-19-12-16(10-11-21(19)31-15-23(29)27-18-7-2-1-3-8-18)14-26-28-24(30)22-13-17-6-4-5-9-20(17)32-22/h1-14H,15H2,(H,27,29)(H,28,30)/b26-14+

>  <IUPAC Name>  (1) 
N-[(E)-[4-(2-anilino-2-oxoethoxy)-3-bromophenyl]methylideneamino]-1-benzofuran-2-carboxamide

$$$$
