
     RDKit          3D

 38 40  0  0  0  0  0  0  0  0999 V2000
    3.1149   -0.6153    1.1306 C   0  0  0  0  0  0  0  0  0  0  0  0
    3.0858    0.1353   -0.1817 C   0  0  0  0  0  0  0  0  0  0  0  0
    2.0229   -0.2245   -1.0566 N   0  0  0  0  0  0  0  0  0  0  0  0
    0.7169    0.0289   -0.5423 C   0  0  1  0  0  0  0  0  0  0  0  0
    0.4391    1.4667   -0.2473 C   0  0  0  0  0  0  0  0  0  0  0  0
   -0.1501    1.6300    1.1364 C   0  0  0  0  0  0  0  0  0  0  0  0
   -1.4694    1.0300    1.1434 N   0  0  0  0  0  0  0  0  0  0  0  0
   -2.0810    0.1535    0.3323 C   0  0  0  0  0  0  0  0  0  0  0  0
   -1.6296   -0.4773   -0.8089 C   0  0  0  0  0  0  0  0  0  0  0  0
   -0.3378   -0.4191   -1.5386 C   0  0  2  0  0  0  0  0  0  0  0  0
   -0.0156   -1.6296   -2.1347 O   0  0  0  0  0  0  0  0  0  0  0  0
   -2.5203   -1.3427   -1.4303 C   0  0  0  0  0  0  0  0  0  0  0  0
   -3.7945   -1.5670   -0.9390 C   0  0  0  0  0  0  0  0  0  0  0  0
   -4.2475   -0.9253    0.2180 C   0  0  0  0  0  0  0  0  0  0  0  0
   -3.3502   -0.0703    0.8211 C   0  0  0  0  0  0  0  0  0  0  0  0
   -3.5062    0.6814    1.9422 N   0  0  0  0  0  0  0  0  0  0  0  0
   -2.3401    1.3593    2.1362 C   0  0  0  0  0  0  0  0  0  0  0  0
   -2.1535    2.1533    3.1007 O   0  0  0  0  0  0  0  0  0  0  0  0
    4.4382    0.0161   -0.8983 C   0  0  0  0  0  0  0  0  0  0  0  0
    3.8480   -0.0735    1.7864 H   0  0  0  0  0  0  0  0  0  0  0  0
    2.1415   -0.4977    1.6198 H   0  0  0  0  0  0  0  0  0  0  0  0
    3.4263   -1.6698    1.0061 H   0  0  0  0  0  0  0  0  0  0  0  0
    3.0508    1.2140    0.1162 H   0  0  0  0  0  0  0  0  0  0  0  0
    2.0611   -1.2396   -1.2915 H   0  0  0  0  0  0  0  0  0  0  0  0
    0.5561   -0.6204    0.3572 H   0  0  0  0  0  0  0  0  0  0  0  0
   -0.3434    1.9165   -0.9293 H   0  0  0  0  0  0  0  0  0  0  0  0
    1.3147    2.1389   -0.4046 H   0  0  0  0  0  0  0  0  0  0  0  0
    0.4160    1.1185    1.9305 H   0  0  0  0  0  0  0  0  0  0  0  0
   -0.2003    2.7275    1.3186 H   0  0  0  0  0  0  0  0  0  0  0  0
   -0.3739    0.3421   -2.3444 H   0  0  0  0  0  0  0  0  0  0  0  0
   -0.0671   -2.3812   -1.4935 H   0  0  0  0  0  0  0  0  0  0  0  0
   -2.2496   -1.8777   -2.3280 H   0  0  0  0  0  0  0  0  0  0  0  0
   -4.4950   -2.2369   -1.4130 H   0  0  0  0  0  0  0  0  0  0  0  0
   -5.2403   -1.0979    0.6037 H   0  0  0  0  0  0  0  0  0  0  0  0
   -4.3297    0.7494    2.5497 H   0  0  0  0  0  0  0  0  0  0  0  0
    4.2436    0.3760   -1.9323 H   0  0  0  0  0  0  0  0  0  0  0  0
    4.8419   -1.0024   -0.8602 H   0  0  0  0  0  0  0  0  0  0  0  0
    5.1773    0.7308   -0.4746 H   0  0  0  0  0  0  0  0  0  0  0  0
  1  2  1  0
  2  3  1  0
  3  4  1  0
  4  5  1  0
  5  6  1  0
  6  7  1  0
  7  8  1  0
  8  9  2  0
  9 10  1  0
 10 11  1  0
  9 12  1  0
 12 13  2  0
 13 14  1  0
 14 15  2  0
 15 16  1  0
 16 17  1  0
 17 18  2  0
  2 19  1  0
 10  4  1  0
 17  7  1  0
 15  8  1  0
  1 20  1  0
  1 21  1  0
  1 22  1  0
  2 23  1  0
  3 24  1  0
  4 25  1  1
  5 26  1  0
  5 27  1  0
  6 28  1  0
  6 29  1  0
 10 30  1  6
 11 31  1  0
 12 32  1  0
 13 33  1  0
 14 34  1  0
 16 35  1  0
 19 36  1  0
 19 37  1  0
 19 38  1  0
M  END
>  <Ligand ID>  (1) 
LIG0003480

>  <Ligand>  (1) 
(+)-Zilpaterol

>  <SMILES>  (1) 
CC(N[C@H]1CCn2c3c([C@@H]1O)cccc3[nH]c2=O)C

>  <CID>  (1) 
25218684.0

>  <ChEMBL ID>  (1) 
nan

>  <InChiKey>  (1) 
ZSTCZWJCLIRCOJ-AAEUAGOBSA-N

>  <InChi>  (1) 
InChI=1S/C14H19N3O2/c1-8(2)15-11-6-7-17-12-9(13(11)18)4-3-5-10(12)16-14(17)19/h3-5,8,11,13,15,18H,6-7H2,1-2H3,(H,16,19)/t11-,13-/m0/s1

>  <IUPAC Name>  (1) 
(9S,10S)-9-hydroxy-10-(propan-2-ylamino)-1,3-diazatricyclo[6.4.1.04,13]trideca-4,6,8(13)-trien-2-one

$$$$
