
     RDKit          3D

 65 67  0  0  0  0  0  0  0  0999 V2000
    5.1966    1.5306   -2.4937 C   0  0  0  0  0  0  0  0  0  0  0  0
    4.3291    1.5008   -1.3726 O   0  0  0  0  0  0  0  0  0  0  0  0
    4.7734    0.8227   -0.2456 C   0  0  0  0  0  0  0  0  0  0  0  0
    5.9981    0.1951   -0.1846 C   0  0  0  0  0  0  0  0  0  0  0  0
    6.4412   -0.4829    0.9438 C   0  0  0  0  0  0  0  0  0  0  0  0
    5.5854   -0.5045    2.0295 C   0  0  0  0  0  0  0  0  0  0  0  0
    4.3588    0.1226    1.9718 C   0  0  0  0  0  0  0  0  0  0  0  0
    3.9117    0.7971    0.8572 C   0  0  0  0  0  0  0  0  0  0  0  0
    2.6038    1.4754    0.7752 C   0  0  0  0  0  0  0  0  0  0  0  0
    1.6343    0.7674    0.0075 N   0  0  0  0  0  0  0  0  0  0  0  0
    0.3448    1.4565   -0.0671 C   0  0  0  0  0  0  0  0  0  0  0  0
   -0.5265    0.6455   -0.9577 C   0  0  0  0  0  0  0  0  0  0  0  0
   -0.8296   -0.6884   -0.4865 N   0  0  0  0  0  0  0  0  0  0  0  0
   -0.0174   -0.8740    0.7146 C   0  0  0  0  0  0  0  0  0  0  0  0
    1.4516   -0.5978    0.4672 C   0  0  0  0  0  0  0  0  0  0  0  0
   -2.2005   -0.8342   -0.0819 C   0  0  0  0  0  0  0  0  0  0  0  0
   -3.1529   -0.3122   -1.0896 C   0  0  0  0  0  0  0  0  0  0  0  0
   -3.0746   -0.5580   -2.3930 N   0  0  0  0  0  0  0  0  0  0  0  0
   -4.1027    0.0739   -2.9736 N   0  0  0  0  0  0  0  0  0  0  0  0
   -4.8041    0.6988   -2.0501 N   0  0  0  0  0  0  0  0  0  0  0  0
   -4.2218    0.4664   -0.8672 N   0  0  0  0  0  0  0  0  0  0  0  0
   -4.7309    1.0117    0.3590 C   0  0  0  0  0  0  0  0  0  0  0  0
   -4.2030    2.3475    0.6979 C   0  0  0  0  0  0  0  0  0  0  0  0
   -3.0975    2.6998    1.4738 C   0  0  0  0  0  0  0  0  0  0  0  0
   -2.8357    3.9950    1.6222 C   0  0  0  0  0  0  0  0  0  0  0  0
   -3.6381    4.9184    1.0247 C   0  0  0  0  0  0  0  0  0  0  0  0
   -4.8931    3.9230    0.1614 S   0  0  0  0  0  0  0  0  0  0  0  0
   -2.4928   -2.2512    0.2779 C   0  0  0  0  0  0  0  0  0  0  0  0
   -2.3087   -3.2617   -0.7927 C   0  0  0  0  0  0  0  0  0  0  0  0
   -0.9513   -3.3935   -1.3802 C   0  0  0  0  0  0  0  0  0  0  0  0
   -2.6565   -4.6248   -0.1759 C   0  0  0  0  0  0  0  0  0  0  0  0
    0.6916    0.0000    0.0000 Cl  0  0  0  0  0  0  0  0  0  0  0  0
    4.7860    2.1153   -3.3352 H   0  0  0  0  0  0  0  0  0  0  0  0
    5.4142    0.5038   -2.8837 H   0  0  0  0  0  0  0  0  0  0  0  0
    6.1885    1.9718   -2.2656 H   0  0  0  0  0  0  0  0  0  0  0  0
    6.6522    0.2298   -1.0585 H   0  0  0  0  0  0  0  0  0  0  0  0
    7.3935   -0.9759    1.0045 H   0  0  0  0  0  0  0  0  0  0  0  0
    5.9113   -1.0295    2.9227 H   0  0  0  0  0  0  0  0  0  0  0  0
    3.7349    0.0723    2.8516 H   0  0  0  0  0  0  0  0  0  0  0  0
    2.2463    1.5866    1.8406 H   0  0  0  0  0  0  0  0  0  0  0  0
    2.6925    2.4955    0.3905 H   0  0  0  0  0  0  0  0  0  0  0  0
   -0.0732    1.7103    0.9120 H   0  0  0  0  0  0  0  0  0  0  0  0
    0.4978    2.4430   -0.5841 H   0  0  0  0  0  0  0  0  0  0  0  0
   -1.4316    1.2402   -1.1847 H   0  0  0  0  0  0  0  0  0  0  0  0
    0.0257    0.5167   -1.9198 H   0  0  0  0  0  0  0  0  0  0  0  0
   -0.0780   -1.8946    1.1054 H   0  0  0  0  0  0  0  0  0  0  0  0
   -0.3308   -0.2000    1.5481 H   0  0  0  0  0  0  0  0  0  0  0  0
    1.9436   -0.6897    1.4565 H   0  0  0  0  0  0  0  0  0  0  0  0
    1.9222   -1.3521   -0.1988 H   0  0  0  0  0  0  0  0  0  0  0  0
   -2.3162   -0.2207    0.8342 H   0  0  0  0  0  0  0  0  0  0  0  0
   -4.5013    0.3561    1.2251 H   0  0  0  0  0  0  0  0  0  0  0  0
   -5.8462    1.1410    0.2834 H   0  0  0  0  0  0  0  0  0  0  0  0
   -2.4967    1.8886    1.9262 H   0  0  0  0  0  0  0  0  0  0  0  0
   -1.9633    4.3550    2.2326 H   0  0  0  0  0  0  0  0  0  0  0  0
   -3.5998    5.9797    1.0209 H   0  0  0  0  0  0  0  0  0  0  0  0
   -3.5850   -2.3075    0.5697 H   0  0  0  0  0  0  0  0  0  0  0  0
   -1.9604   -2.5957    1.1884 H   0  0  0  0  0  0  0  0  0  0  0  0
   -3.0556   -3.1175   -1.6210 H   0  0  0  0  0  0  0  0  0  0  0  0
   -0.7251   -2.4978   -1.9912 H   0  0  0  0  0  0  0  0  0  0  0  0
   -0.1377   -3.4967   -0.6371 H   0  0  0  0  0  0  0  0  0  0  0  0
   -0.8972   -4.3286   -1.9882 H   0  0  0  0  0  0  0  0  0  0  0  0
   -2.5026   -5.4557   -0.8954 H   0  0  0  0  0  0  0  0  0  0  0  0
   -3.7577   -4.6584    0.0720 H   0  0  0  0  0  0  0  0  0  0  0  0
   -2.0415   -4.8500    0.7099 H   0  0  0  0  0  0  0  0  0  0  0  0
   -0.6916    0.0000    0.0000 H   0  0  0  0  0  0  0  0  0  0  0  0
  1  2  1  0
  2  3  1  0
  3  4  2  0
  4  5  1  0
  5  6  2  0
  6  7  1  0
  7  8  2  0
  8  9  1  0
  9 10  1  0
 10 11  1  0
 11 12  1  0
 12 13  1  0
 13 14  1  0
 14 15  1  0
 13 16  1  0
 16 17  1  0
 17 18  2  0
 18 19  1  0
 19 20  2  0
 20 21  1  0
 21 22  1  0
 22 23  1  0
 23 24  2  0
 24 25  1  0
 25 26  2  0
 26 27  1  0
 16 28  1  0
 28 29  1  0
 29 30  1  0
 29 31  1  0
  8  3  1  0
 15 10  1  0
 21 17  1  0
 27 23  1  0
  1 33  1  0
  1 34  1  0
  1 35  1  0
  4 36  1  0
  5 37  1  0
  6 38  1  0
  7 39  1  0
  9 40  1  0
  9 41  1  0
 11 42  1  0
 11 43  1  0
 12 44  1  0
 12 45  1  0
 14 46  1  0
 14 47  1  0
 15 48  1  0
 15 49  1  0
 16 50  1  0
 22 51  1  0
 22 52  1  0
 24 53  1  0
 25 54  1  0
 26 55  1  0
 28 56  1  0
 28 57  1  0
 29 58  1  0
 30 59  1  0
 30 60  1  0
 30 61  1  0
 31 62  1  0
 31 63  1  0
 31 64  1  0
 32 65  1  0
M  END
>  <Ligand ID>  (1) 
LIG0003464

>  <Ligand>  (1) 
SMR000005041

>  <SMILES>  (1) 
COc1ccccc1CN1CCN(CC1)C(c1nnnn1Cc1cccs1)CC(C)C.Cl

>  <CID>  (1) 
6603071.0

>  <ChEMBL ID>  (1) 
nan

>  <InChiKey>  (1) 
BPASMERXDNINHC-UHFFFAOYSA-N

>  <InChi>  (1) 
InChI=1S/C23H32N6OS.ClH/c1-18(2)15-21(23-24-25-26-29(23)17-20-8-6-14-31-20)28-12-10-27(11-13-28)16-19-7-4-5-9-22(19)30-3;/h4-9,14,18,21H,10-13,15-17H2,1-3H3;1H

>  <IUPAC Name>  (1) 
1-[(2-methoxyphenyl)methyl]-4-[3-methyl-1-[1-(thiophen-2-ylmethyl)tetrazol-5-yl]butyl]piperazine;hydrochloride

$$$$
