
     RDKit          3D

 54 57  0  0  0  0  0  0  0  0999 V2000
    5.5897   -4.4020    1.4575 Cl  0  0  0  0  0  0  0  0  0  0  0  0
    5.7303   -2.7474    0.8790 C   0  0  0  0  0  0  0  0  0  0  0  0
    6.9433   -2.3660    0.3369 C   0  0  0  0  0  0  0  0  0  0  0  0
    7.0557   -1.0700   -0.1167 C   0  0  0  0  0  0  0  0  0  0  0  0
    5.9922   -0.1829   -0.0323 C   0  0  0  0  0  0  0  0  0  0  0  0
    4.7750   -0.5717    0.5137 C   0  0  0  0  0  0  0  0  0  0  0  0
    4.6608   -1.8601    0.9655 C   0  0  0  0  0  0  0  0  0  0  0  0
    3.9588    0.5398    0.4406 C   0  0  0  0  0  0  0  0  0  0  0  0
    2.5558    0.5335    0.9275 C   0  0  0  0  0  0  0  0  0  0  0  0
    1.6595   -0.1848   -0.0338 C   0  0  0  0  0  0  0  0  0  0  0  0
    2.0955   -0.6957   -1.0968 O   0  0  0  0  0  0  0  0  0  0  0  0
    0.2767   -0.2893    0.2692 N   0  0  0  0  0  0  0  0  0  0  0  0
   -0.6124   -0.9857   -0.6554 C   0  0  0  0  0  0  0  0  0  0  0  0
   -1.6981    0.0149   -0.9811 C   0  0  0  0  0  0  0  0  0  0  0  0
   -2.4313    0.2421    0.2619 N   0  0  0  0  0  0  0  0  0  0  0  0
   -1.7612    0.1966    1.5451 C   0  0  0  0  0  0  0  0  0  0  0  0
   -0.2755    0.2807    1.4775 C   0  0  0  0  0  0  0  0  0  0  0  0
   -3.8308    0.5169    0.2799 C   0  0  0  0  0  0  0  0  0  0  0  0
   -4.2253    1.7387    0.8064 C   0  0  0  0  0  0  0  0  0  0  0  0
   -5.5591    2.1049    0.8681 C   0  0  0  0  0  0  0  0  0  0  0  0
   -6.5004    1.2091    0.3846 C   0  0  0  0  0  0  0  0  0  0  0  0
   -6.1071   -0.0150   -0.1431 C   0  0  0  0  0  0  0  0  0  0  0  0
   -4.7771   -0.3658   -0.1980 C   0  0  0  0  0  0  0  0  0  0  0  0
   -4.3757   -1.6633   -0.7562 C   0  0  0  0  0  0  0  0  0  0  0  0
   -7.0985   -0.9815   -0.6627 C   0  0  0  0  0  0  0  0  0  0  0  0
    4.6648    1.5750   -0.1351 C   0  0  0  0  0  0  0  0  0  0  0  0
    5.9002    1.0997   -0.4108 N   0  0  0  0  0  0  0  0  0  0  0  0
    4.1779    2.9187   -0.3965 C   0  0  0  0  0  0  0  0  0  0  0  0
    3.0217    3.3175   -0.1241 O   0  0  0  0  0  0  0  0  0  0  0  0
    5.0307    3.8533   -0.9906 O   0  0  0  0  0  0  0  0  0  0  0  0
    7.7926   -3.0173    0.2510 H   0  0  0  0  0  0  0  0  0  0  0  0
    7.9967   -0.7084   -0.5584 H   0  0  0  0  0  0  0  0  0  0  0  0
    3.7266   -2.1860    1.3934 H   0  0  0  0  0  0  0  0  0  0  0  0
    2.1649    1.5499    1.1378 H   0  0  0  0  0  0  0  0  0  0  0  0
    2.4727   -0.0123    1.9069 H   0  0  0  0  0  0  0  0  0  0  0  0
   -0.1045   -1.2793   -1.5770 H   0  0  0  0  0  0  0  0  0  0  0  0
   -0.9789   -1.9024   -0.1792 H   0  0  0  0  0  0  0  0  0  0  0  0
   -1.1695    0.9793   -1.1661 H   0  0  0  0  0  0  0  0  0  0  0  0
   -2.3662   -0.2747   -1.7887 H   0  0  0  0  0  0  0  0  0  0  0  0
   -2.0389   -0.7341    2.0912 H   0  0  0  0  0  0  0  0  0  0  0  0
   -2.1097    1.0177    2.2261 H   0  0  0  0  0  0  0  0  0  0  0  0
    0.1613   -0.3235    2.3067 H   0  0  0  0  0  0  0  0  0  0  0  0
    0.0616    1.3332    1.6042 H   0  0  0  0  0  0  0  0  0  0  0  0
   -3.5052    2.4304    1.1790 H   0  0  0  0  0  0  0  0  0  0  0  0
   -5.8870    3.0549    1.2758 H   0  0  0  0  0  0  0  0  0  0  0  0
   -7.5659    1.4248    0.3986 H   0  0  0  0  0  0  0  0  0  0  0  0
   -3.3694   -1.9148   -0.3572 H   0  0  0  0  0  0  0  0  0  0  0  0
   -5.1098   -2.4191   -0.3871 H   0  0  0  0  0  0  0  0  0  0  0  0
   -4.2919   -1.6959   -1.8617 H   0  0  0  0  0  0  0  0  0  0  0  0
   -6.7001   -1.6187   -1.4696 H   0  0  0  0  0  0  0  0  0  0  0  0
   -7.9458   -0.4134   -1.1161 H   0  0  0  0  0  0  0  0  0  0  0  0
   -7.5236   -1.5542    0.1850 H   0  0  0  0  0  0  0  0  0  0  0  0
    6.6575    1.6638   -0.8535 H   0  0  0  0  0  0  0  0  0  0  0  0
    4.7967    4.8398   -0.9337 H   0  0  0  0  0  0  0  0  0  0  0  0
  1  2  1  0
  2  3  2  0
  3  4  1  0
  4  5  2  0
  5  6  1  0
  6  7  2  0
  6  8  1  0
  8  9  1  0
  9 10  1  0
 10 11  2  0
 10 12  1  0
 12 13  1  0
 13 14  1  0
 14 15  1  0
 15 16  1  0
 16 17  1  0
 15 18  1  0
 18 19  2  0
 19 20  1  0
 20 21  2  0
 21 22  1  0
 22 23  2  0
 23 24  1  0
 22 25  1  0
  8 26  2  0
 26 27  1  0
 26 28  1  0
 28 29  2  0
 28 30  1  0
  7  2  1  0
 17 12  1  0
 23 18  1  0
 27  5  1  0
  3 31  1  0
  4 32  1  0
  7 33  1  0
  9 34  1  0
  9 35  1  0
 13 36  1  0
 13 37  1  0
 14 38  1  0
 14 39  1  0
 16 40  1  0
 16 41  1  0
 17 42  1  0
 17 43  1  0
 19 44  1  0
 20 45  1  0
 21 46  1  0
 24 47  1  0
 24 48  1  0
 24 49  1  0
 25 50  1  0
 25 51  1  0
 25 52  1  0
 27 53  1  0
 30 54  1  0
M  END
>  <Ligand ID>  (1) 
LIG0003588

>  <Ligand>  (1) 
SMR000025686

>  <SMILES>  (1) 
Clc1ccc2c(c1)c(CC(=O)N1CCN(CC1)c1cccc(c1C)C)c([nH]2)C(=O)O

>  <CID>  (1) 
3237041.0

>  <ChEMBL ID>  (1) 
nan

>  <InChiKey>  (1) 
DKPWDKDIPZQOLB-UHFFFAOYSA-N

>  <InChi>  (1) 
InChI=1S/C23H24ClN3O3/c1-14-4-3-5-20(15(14)2)26-8-10-27(11-9-26)21(28)13-18-17-12-16(24)6-7-19(17)25-22(18)23(29)30/h3-7,12,25H,8-11,13H2,1-2H3,(H,29,30)

>  <IUPAC Name>  (1) 
5-chloro-3-[2-[4-(2,3-dimethylphenyl)piperazin-1-yl]-2-oxoethyl]-1H-indole-2-carboxylic acid

$$$$
