
     RDKit          3D

 57 59  0  0  0  0  0  0  0  0999 V2000
   -8.9667   -1.5078    2.3755 O   0  0  0  0  0  0  0  0  0  0  0  0
   -8.1686   -0.4451    1.9709 C   0  0  0  0  0  0  0  0  0  0  0  0
   -8.4173    0.0088    0.8043 O   0  0  0  0  0  0  0  0  0  0  0  0
   -7.0952    0.1325    2.8284 C   0  0  0  0  0  0  0  0  0  0  0  0
   -6.4475    1.1354    2.1088 O   0  0  0  0  0  0  0  0  0  0  0  0
   -5.7596    0.9637    0.9430 C   0  0  0  0  0  0  0  0  0  0  0  0
   -5.1899    2.0775    0.3546 C   0  0  0  0  0  0  0  0  0  0  0  0
   -4.4677    1.9956   -0.8376 C   0  0  0  0  0  0  0  0  0  0  0  0
   -4.3038    0.7785   -1.4664 C   0  0  0  0  0  0  0  0  0  0  0  0
   -4.8715   -0.3577   -0.8874 C   0  0  0  0  0  0  0  0  0  0  0  0
   -5.5785   -0.2381    0.2922 C   0  0  0  0  0  0  0  0  0  0  0  0
   -3.5642    0.5842   -2.7221 C   0  0  0  0  0  0  0  0  0  0  0  0
   -2.1205    0.3001   -2.5414 C   0  0  0  0  0  0  0  0  0  0  0  0
   -1.6950   -1.0264   -2.4127 C   0  0  0  0  0  0  0  0  0  0  0  0
   -0.3505   -1.3047   -2.2446 C   0  0  0  0  0  0  0  0  0  0  0  0
    0.5662   -0.2697   -2.2046 C   0  0  0  0  0  0  0  0  0  0  0  0
    0.1167    1.0462   -2.3353 C   0  0  0  0  0  0  0  0  0  0  0  0
   -1.2184    1.3506   -2.5040 C   0  0  0  0  0  0  0  0  0  0  0  0
    2.0368   -0.5213   -2.0238 C   0  0  0  0  0  0  0  0  0  0  0  0
    2.3283   -0.5095   -0.5644 C   0  0  0  0  0  0  0  0  0  0  0  0
    3.7240   -0.7409   -0.2534 N   0  0  0  0  0  0  0  0  0  0  0  0
    4.5793    0.3272   -0.6599 C   0  0  0  0  0  0  0  0  0  0  0  0
    6.0458    0.1110   -0.3776 C   0  0  1  0  0  0  0  0  0  0  0  0
    6.2935   -0.0775    1.0754 C   0  0  0  0  0  0  0  0  0  0  0  0
    6.1604   -1.2880    1.7195 C   0  0  0  0  0  0  0  0  0  0  0  0
    6.3950   -1.4255    3.0867 C   0  0  0  0  0  0  0  0  0  0  0  0
    6.7726   -0.3257    3.8299 C   0  0  0  0  0  0  0  0  0  0  0  0
    6.9133    0.8974    3.2091 C   0  0  0  0  0  0  0  0  0  0  0  0
    6.6761    1.0099    1.8570 C   0  0  0  0  0  0  0  0  0  0  0  0
    7.3960    2.3252    4.1360 Cl  0  0  0  0  0  0  0  0  0  0  0  0
    6.5784   -1.0043   -1.0134 O   0  0  0  0  0  0  0  0  0  0  0  0
   -9.2766   -2.2290    1.7054 H   0  0  0  0  0  0  0  0  0  0  0  0
   -7.5681    0.5636    3.7359 H   0  0  0  0  0  0  0  0  0  0  0  0
   -6.3520   -0.6359    3.1336 H   0  0  0  0  0  0  0  0  0  0  0  0
   -5.3010    3.0478    0.8234 H   0  0  0  0  0  0  0  0  0  0  0  0
   -4.0234    2.8769   -1.2926 H   0  0  0  0  0  0  0  0  0  0  0  0
   -4.7593   -1.3406   -1.3610 H   0  0  0  0  0  0  0  0  0  0  0  0
   -5.9876   -1.1502    0.7006 H   0  0  0  0  0  0  0  0  0  0  0  0
   -4.0800   -0.2304   -3.3106 H   0  0  0  0  0  0  0  0  0  0  0  0
   -3.7521    1.4994   -3.3501 H   0  0  0  0  0  0  0  0  0  0  0  0
   -2.4312   -1.8163   -2.4476 H   0  0  0  0  0  0  0  0  0  0  0  0
    0.0222   -2.3061   -2.1418 H   0  0  0  0  0  0  0  0  0  0  0  0
    0.8679    1.8418   -2.2992 H   0  0  0  0  0  0  0  0  0  0  0  0
   -1.5208    2.3707   -2.6004 H   0  0  0  0  0  0  0  0  0  0  0  0
    2.3190   -1.4909   -2.5164 H   0  0  0  0  0  0  0  0  0  0  0  0
    2.5592    0.3369   -2.4964 H   0  0  0  0  0  0  0  0  0  0  0  0
    1.7508   -1.2967   -0.0250 H   0  0  0  0  0  0  0  0  0  0  0  0
    2.0483    0.4839   -0.1746 H   0  0  0  0  0  0  0  0  0  0  0  0
    3.8526   -1.0157    0.7479 H   0  0  0  0  0  0  0  0  0  0  0  0
    4.2482    1.2356   -0.1044 H   0  0  0  0  0  0  0  0  0  0  0  0
    4.4996    0.5890   -1.7233 H   0  0  0  0  0  0  0  0  0  0  0  0
    6.6393    1.0275   -0.6907 H   0  0  0  0  0  0  0  0  0  0  0  0
    5.8754   -2.1653    1.1759 H   0  0  0  0  0  0  0  0  0  0  0  0
    6.2822   -2.3948    3.5713 H   0  0  0  0  0  0  0  0  0  0  0  0
    6.9627   -0.4097    4.9081 H   0  0  0  0  0  0  0  0  0  0  0  0
    6.7784    1.9573    1.3411 H   0  0  0  0  0  0  0  0  0  0  0  0
    5.9790   -1.7724   -0.8519 H   0  0  0  0  0  0  0  0  0  0  0  0
  1  2  1  0
  2  3  2  0
  2  4  1  0
  4  5  1  0
  5  6  1  0
  6  7  2  0
  7  8  1  0
  8  9  2  0
  9 10  1  0
 10 11  2  0
  9 12  1  0
 12 13  1  0
 13 14  2  0
 14 15  1  0
 15 16  2  0
 16 17  1  0
 17 18  2  0
 16 19  1  0
 19 20  1  0
 20 21  1  0
 21 22  1  0
 22 23  1  0
 23 24  1  0
 24 25  2  0
 25 26  1  0
 26 27  2  0
 27 28  1  0
 28 29  2  0
 28 30  1  0
 23 31  1  0
 11  6  1  0
 18 13  1  0
 29 24  1  0
  1 32  1  0
  4 33  1  0
  4 34  1  0
  7 35  1  0
  8 36  1  0
 10 37  1  0
 11 38  1  0
 12 39  1  0
 12 40  1  0
 14 41  1  0
 15 42  1  0
 17 43  1  0
 18 44  1  0
 19 45  1  0
 19 46  1  0
 20 47  1  0
 20 48  1  0
 21 49  1  0
 22 50  1  0
 22 51  1  0
 23 52  1  6
 25 53  1  0
 26 54  1  0
 27 55  1  0
 29 56  1  0
 31 57  1  0
M  END
>  <Ligand ID>  (1) 
LIG0005827

>  <Ligand>  (1) 
CHEMBL270027

>  <SMILES>  (1) 
OC(=O)COc1ccc(cc1)Cc1ccc(cc1)CCNC[C@@H](c1cccc(c1)Cl)O

>  <CID>  (1) 
24824226.0

>  <ChEMBL ID>  (1) 
nan

>  <InChiKey>  (1) 
XUITYTKWUCWVPD-DEOSSOPVSA-N

>  <InChi>  (1) 
InChI=1S/C25H26ClNO4/c26-22-3-1-2-21(15-22)24(28)16-27-13-12-18-4-6-19(7-5-18)14-20-8-10-23(11-9-20)31-17-25(29)30/h1-11,15,24,27-28H,12-14,16-17H2,(H,29,30)/t24-/m0/s1

>  <IUPAC Name>  (1) 
2-[4-[[4-[2-[[(2R)-2-(3-chlorophenyl)-2-hydroxyethyl]amino]ethyl]phenyl]methyl]phenoxy]acetic acid

$$$$
