
     RDKit          3D

 44 47  0  0  0  0  0  0  0  0999 V2000
   -6.7428   -0.3080   -1.7063 F   0  0  0  0  0  0  0  0  0  0  0  0
   -5.6511    0.1369   -1.0428 C   0  0  0  0  0  0  0  0  0  0  0  0
   -4.6163    0.8098   -1.6508 C   0  0  0  0  0  0  0  0  0  0  0  0
   -3.5260    1.2405   -0.9265 C   0  0  0  0  0  0  0  0  0  0  0  0
   -3.3946    1.0332    0.4298 C   0  0  0  0  0  0  0  0  0  0  0  0
   -4.4506    0.3482    1.0437 C   0  0  0  0  0  0  0  0  0  0  0  0
   -5.5396   -0.0809    0.3154 C   0  0  0  0  0  0  0  0  0  0  0  0
   -4.4302    0.0639    2.5064 C   0  0  0  0  0  0  0  0  0  0  0  0
   -5.5724   -0.6148    2.8842 F   0  0  0  0  0  0  0  0  0  0  0  0
   -4.3348    1.2001    3.2729 F   0  0  0  0  0  0  0  0  0  0  0  0
   -3.3498   -0.7625    2.8100 F   0  0  0  0  0  0  0  0  0  0  0  0
   -2.2472    1.4833    1.2222 C   0  0  0  0  0  0  0  0  0  0  0  0
   -0.8716    2.1213    0.2396 S   0  0  0  0  0  0  0  0  0  0  0  0
   -0.1134    0.8266   -0.7281 C   0  0  0  0  0  0  0  0  0  0  0  0
   -0.3964    0.3983   -1.9670 N   0  0  0  0  0  0  0  0  0  0  0  0
    0.4038   -0.5745   -2.2846 N   0  0  0  0  0  0  0  0  0  0  0  0
    1.2333   -0.8003   -1.2434 C   0  0  0  0  0  0  0  0  0  0  0  0
    0.9155    0.0761   -0.2606 N   0  0  0  0  0  0  0  0  0  0  0  0
    1.5976    0.1256    1.0006 C   0  0  0  0  0  0  0  0  0  0  0  0
    2.7499    1.0550    0.9223 C   0  0  0  0  0  0  0  0  0  0  0  0
    2.8036    2.4058    1.2348 C   0  0  0  0  0  0  0  0  0  0  0  0
    3.9491    3.0599    1.0889 C   0  0  0  0  0  0  0  0  0  0  0  0
    5.0484    2.3508    0.6249 C   0  0  0  0  0  0  0  0  0  0  0  0
    4.3761    0.6304    0.3873 S   0  0  0  0  0  0  0  0  0  0  0  0
    2.2592   -1.8305   -1.2667 C   0  0  0  0  0  0  0  0  0  0  0  0
    2.9559   -2.1167   -2.4461 C   0  0  0  0  0  0  0  0  0  0  0  0
    3.9437   -3.1086   -2.4624 C   0  0  0  0  0  0  0  0  0  0  0  0
    4.2445   -3.8231   -1.3033 C   0  0  0  0  0  0  0  0  0  0  0  0
    3.5346   -3.5104   -0.1619 C   0  0  0  0  0  0  0  0  0  0  0  0
    2.5960   -2.5538   -0.1855 N   0  0  0  0  0  0  0  0  0  0  0  0
   -4.6987    0.9820   -2.7073 H   0  0  0  0  0  0  0  0  0  0  0  0
   -2.7455    1.7677   -1.4492 H   0  0  0  0  0  0  0  0  0  0  0  0
   -6.3525   -0.6178    0.8301 H   0  0  0  0  0  0  0  0  0  0  0  0
   -2.5956    2.2592    1.9035 H   0  0  0  0  0  0  0  0  0  0  0  0
   -1.8299    0.5933    1.7726 H   0  0  0  0  0  0  0  0  0  0  0  0
    0.9614    0.5144    1.8232 H   0  0  0  0  0  0  0  0  0  0  0  0
    1.9174   -0.8785    1.3409 H   0  0  0  0  0  0  0  0  0  0  0  0
    1.8690    2.8925    1.5998 H   0  0  0  0  0  0  0  0  0  0  0  0
    4.0781    4.1381    1.3162 H   0  0  0  0  0  0  0  0  0  0  0  0
    6.0870    2.6084    0.4110 H   0  0  0  0  0  0  0  0  0  0  0  0
    2.7328   -1.5740   -3.3439 H   0  0  0  0  0  0  0  0  0  0  0  0
    4.5002   -3.3597   -3.3450 H   0  0  0  0  0  0  0  0  0  0  0  0
    5.0047   -4.5979   -1.2818 H   0  0  0  0  0  0  0  0  0  0  0  0
    3.6973   -4.0093    0.7824 H   0  0  0  0  0  0  0  0  0  0  0  0
  1  2  1  0
  2  3  2  0
  3  4  1  0
  4  5  2  0
  5  6  1  0
  6  7  2  0
  6  8  1  0
  8  9  1  0
  8 10  1  0
  8 11  1  0
  5 12  1  0
 12 13  1  0
 13 14  1  0
 14 15  2  0
 15 16  1  0
 16 17  2  0
 17 18  1  0
 18 19  1  0
 19 20  1  0
 20 21  2  0
 21 22  1  0
 22 23  2  0
 23 24  1  0
 17 25  1  0
 25 26  2  0
 26 27  1  0
 27 28  2  0
 28 29  1  0
 29 30  2  0
  7  2  1  0
 18 14  1  0
 24 20  1  0
 30 25  1  0
  3 31  1  0
  4 32  1  0
  7 33  1  0
 12 34  1  0
 12 35  1  0
 19 36  1  0
 19 37  1  0
 21 38  1  0
 22 39  1  0
 23 40  1  0
 26 41  1  0
 27 42  1  0
 28 43  1  0
 29 44  1  0
M  END
>  <Ligand ID>  (1) 
LIG0002772

>  <Ligand>  (1) 
KUC104205N

>  <SMILES>  (1) 
Fc1ccc(c(c1)C(F)(F)F)CSc1nnc(n1Cc1cccs1)c1ccccn1

>  <CID>  (1) 
44620911.0

>  <ChEMBL ID>  (1) 
nan

>  <InChiKey>  (1) 
XOGVBSMKUGDSAF-UHFFFAOYSA-N

>  <InChi>  (1) 
InChI=1S/C20H14F4N4S2/c21-14-7-6-13(16(10-14)20(22,23)24)12-30-19-27-26-18(17-5-1-2-8-25-17)28(19)11-15-4-3-9-29-15/h1-10H,11-12H2

>  <IUPAC Name>  (1) 
2-[5-[[4-fluoro-2-(trifluoromethyl)phenyl]methylsulfanyl]-4-(thiophen-2-ylmethyl)-1,2,4-triazol-3-yl]pyridine

$$$$
