
     RDKit          3D

201208  0  0  0  0  0  0  0  0999 V2000
    7.6450   -5.4490    4.4057 N   0  0  0  0  0  0  0  0  0  0  0  0
    6.4429   -6.0374    3.9416 C   0  0  0  0  0  0  0  0  0  0  0  0
    6.0761   -6.0036    2.6859 N   0  0  0  0  0  0  0  0  0  0  0  0
    6.9416   -5.3368    1.7314 C   0  0  0  0  0  0  0  0  0  0  0  0
    6.2165   -4.1732    1.0665 C   0  0  0  0  0  0  0  0  0  0  0  0
    5.7482   -3.1681    2.0495 C   0  0  0  0  0  0  0  0  0  0  0  0
    5.0336   -1.9539    1.4009 C   0  0  2  0  0  0  0  0  0  0  0  0
    3.8964   -2.3040    0.6578 N   0  0  0  0  0  0  0  0  0  0  0  0
    3.7531   -2.6972   -0.6937 C   0  0  0  0  0  0  0  0  0  0  0  0
    4.7809   -2.7454   -1.3655 O   0  0  0  0  0  0  0  0  0  0  0  0
    2.4262   -3.0480   -1.3102 C   0  0  1  0  0  0  0  0  0  0  0  0
    2.5267   -4.5070   -1.8044 C   0  0  0  0  0  0  0  0  0  0  0  0
    1.2719   -4.9308   -2.4401 C   0  0  0  0  0  0  0  0  0  0  0  0
    1.0384   -4.7816   -3.8106 C   0  0  0  0  0  0  0  0  0  0  0  0
   -0.1539   -5.2041   -4.3603 C   0  0  0  0  0  0  0  0  0  0  0  0
   -1.1560   -5.7823   -3.6100 C   0  0  0  0  0  0  0  0  0  0  0  0
   -0.9247   -5.9293   -2.2577 C   0  0  0  0  0  0  0  0  0  0  0  0
    0.2652   -5.5076   -1.7104 C   0  0  0  0  0  0  0  0  0  0  0  0
    1.3689   -3.0231   -0.3428 N   0  0  0  0  0  0  0  0  0  0  0  0
    0.1291   -2.3001   -0.4455 C   0  0  0  0  0  0  0  0  0  0  0  0
    0.0097   -1.6611   -1.5050 O   0  0  0  0  0  0  0  0  0  0  0  0
   -0.8907   -2.3386    0.6332 C   0  0  2  0  0  0  0  0  0  0  0  0
   -1.1210   -3.7684    1.1065 C   0  0  0  0  0  0  0  0  0  0  0  0
   -2.0821   -3.9035    2.2025 C   0  0  0  0  0  0  0  0  0  0  0  0
   -2.7896   -2.9686    2.8854 N   0  0  0  0  0  0  0  0  0  0  0  0
   -3.5191   -3.6628    3.7802 C   0  0  0  0  0  0  0  0  0  0  0  0
   -3.3041   -4.9690    3.6916 N   0  0  0  0  0  0  0  0  0  0  0  0
   -2.4186   -5.1645    2.7245 C   0  0  0  0  0  0  0  0  0  0  0  0
   -2.1024   -1.6296    0.3081 N   0  0  0  0  0  0  0  0  0  0  0  0
   -3.3646   -2.1754    0.0171 C   0  0  0  0  0  0  0  0  0  0  0  0
   -3.3848   -3.4478   -0.0680 O   0  0  0  0  0  0  0  0  0  0  0  0
   -4.6542   -1.5329   -0.2163 C   0  0  1  0  0  0  0  0  0  0  0  0
   -5.5669   -2.6186   -0.6295 N   0  0  0  0  0  0  0  0  0  0  0  0
   -6.5309   -3.2403    0.1497 C   0  0  0  0  0  0  0  0  0  0  0  0
   -6.8112   -3.0411    1.3555 O   0  0  0  0  0  0  0  0  0  0  0  0
   -7.3823   -4.3030   -0.5135 C   0  0  2  0  0  0  0  0  0  0  0  0
   -8.3286   -3.5775   -1.4497 C   0  0  0  0  0  0  0  0  0  0  0  0
   -9.2031   -4.5426   -2.1289 C   0  0  0  0  0  0  0  0  0  0  0  0
  -10.4043   -4.8615   -1.4815 C   0  0  0  0  0  0  0  0  0  0  0  0
  -11.2912   -5.7511   -2.0432 C   0  0  0  0  0  0  0  0  0  0  0  0
  -10.9759   -6.3270   -3.2625 C   0  0  0  0  0  0  0  0  0  0  0  0
   -9.8043   -6.0388   -3.9317 C   0  0  0  0  0  0  0  0  0  0  0  0
   -8.9190   -5.1306   -3.3375 C   0  0  0  0  0  0  0  0  0  0  0  0
  -11.9062   -7.2202   -3.7924 O   0  0  0  0  0  0  0  0  0  0  0  0
   -8.1889   -4.9433    0.5062 N   0  0  0  0  0  0  0  0  0  0  0  0
   -5.3400   -0.8605    0.9149 C   0  0  0  0  0  0  0  0  0  0  0  0
   -4.8925    0.4205    1.4388 C   0  0  0  0  0  0  0  0  0  0  0  0
   -4.0398    0.6548    2.2513 O   0  0  0  0  0  0  0  0  0  0  0  0
   -5.4919    1.7212    0.9928 N   0  0  0  0  0  0  0  0  0  0  0  0
   -6.3558    1.5681   -0.0515 C   0  0  2  0  0  0  0  0  0  0  0  0
   -5.7382    1.8776   -1.4217 C   0  0  0  0  0  0  0  0  0  0  0  0
   -6.5077    2.0912   -2.3807 O   0  0  0  0  0  0  0  0  0  0  0  0
   -4.3494    1.9201   -1.6220 N   0  0  0  0  0  0  0  0  0  0  0  0
   -7.7610    1.9103   -0.1275 C   0  0  0  0  0  0  0  0  0  0  0  0
   -8.7574    1.3024    0.7666 C   0  0  0  0  0  0  0  0  0  0  0  0
   -9.2100    0.0028    0.5223 C   0  0  0  0  0  0  0  0  0  0  0  0
  -10.1985   -0.5666    1.2966 C   0  0  0  0  0  0  0  0  0  0  0  0
  -10.7813    0.1271    2.3488 C   0  0  0  0  0  0  0  0  0  0  0  0
  -10.3521    1.3973    2.6023 C   0  0  0  0  0  0  0  0  0  0  0  0
   -9.3673    1.9460    1.8181 C   0  0  0  0  0  0  0  0  0  0  0  0
  -11.7823   -0.5102    3.0964 O   0  0  0  0  0  0  0  0  0  0  0  0
   -5.2101    2.9321    1.6564 C   0  0  2  0  0  0  0  0  0  0  0  0
   -6.0326    4.1211    1.2245 C   0  0  0  0  0  0  0  0  0  0  0  0
   -3.8607    3.3649    1.8861 N   0  0  0  0  0  0  0  0  0  0  0  0
   -3.0284    4.0689    0.9542 C   0  0  0  0  0  0  0  0  0  0  0  0
   -3.5272    4.3195   -0.1402 O   0  0  0  0  0  0  0  0  0  0  0  0
   -1.6492    4.4865    1.2336 C   0  0  1  0  0  0  0  0  0  0  0  0
   -0.8948    4.7581    0.0260 N   0  0  0  0  0  0  0  0  0  0  0  0
    0.5199    4.4846    0.0569 C   0  0  0  0  0  0  0  0  0  0  0  0
    0.9691    4.1766    1.1668 O   0  0  0  0  0  0  0  0  0  0  0  0
    1.4179    4.5553   -1.0963 C   0  0  1  0  0  0  0  0  0  0  0  0
    2.7617    4.4317   -0.5986 N   0  0  0  0  0  0  0  0  0  0  0  0
    3.7912    3.5942   -1.0865 C   0  0  0  0  0  0  0  0  0  0  0  0
    3.4745    2.7979   -1.9832 O   0  0  0  0  0  0  0  0  0  0  0  0
    5.1849    3.5813   -0.6046 C   0  0  1  0  0  0  0  0  0  0  0  0
    5.7907    2.2714   -0.7782 N   0  0  0  0  0  0  0  0  0  0  0  0
    7.0761    1.9370   -0.1888 C   0  0  0  0  0  0  0  0  0  0  0  0
    7.6670    2.9015    0.2828 O   0  0  0  0  0  0  0  0  0  0  0  0
    7.5384    0.5232   -0.2286 C   0  0  1  0  0  0  0  0  0  0  0  0
    6.3112   -0.3158   -0.1960 N   0  0  0  0  0  0  0  0  0  0  0  0
    6.0852   -1.0740    0.9746 C   0  0  0  0  0  0  0  0  0  0  0  0
    7.0504   -0.9237    1.8330 O   0  0  0  0  0  0  0  0  0  0  0  0
    8.3240    0.2403   -1.4854 C   0  0  0  0  0  0  0  0  0  0  0  0
    9.5237    1.1027   -1.5784 C   0  0  0  0  0  0  0  0  0  0  0  0
   10.7192    0.5817   -1.0723 C   0  0  0  0  0  0  0  0  0  0  0  0
   11.8562    1.3894   -1.1531 C   0  0  0  0  0  0  0  0  0  0  0  0
   11.8253    2.6496   -1.7045 C   0  0  0  0  0  0  0  0  0  0  0  0
   10.6465    3.1636   -2.2039 C   0  0  0  0  0  0  0  0  0  0  0  0
    9.5112    2.3714   -2.1294 C   0  0  0  0  0  0  0  0  0  0  0  0
   13.0857    3.3944   -1.7432 C   0  0  0  0  0  0  0  0  0  0  0  0
   14.0611    3.2579   -0.8040 C   0  0  0  0  0  0  0  0  0  0  0  0
   15.2273    4.0077   -0.9083 C   0  0  0  0  0  0  0  0  0  0  0  0
   15.3467    4.8668   -1.9703 C   0  0  0  0  0  0  0  0  0  0  0  0
   14.3803    5.0319   -2.9396 C   0  0  0  0  0  0  0  0  0  0  0  0
   13.2368    4.2790   -2.8154 C   0  0  0  0  0  0  0  0  0  0  0  0
    5.9735    4.4784   -1.6400 C   0  0  0  0  0  0  0  0  0  0  0  0
    5.4164    5.8390   -1.6549 C   0  0  0  0  0  0  0  0  0  0  0  0
    4.3616    6.1307   -2.2821 O   0  0  0  0  0  0  0  0  0  0  0  0
    6.0713    6.8624   -0.9520 N   0  0  0  0  0  0  0  0  0  0  0  0
    1.1054    3.3086   -2.0070 C   0  0  0  0  0  0  0  0  0  0  0  0
   -1.6486    5.6553    2.1840 C   0  0  0  0  0  0  0  0  0  0  0  0
   -2.3364    6.8677    1.7057 C   0  0  0  0  0  0  0  0  0  0  0  0
   -3.6391    7.2069    2.0096 C   0  0  0  0  0  0  0  0  0  0  0  0
   -4.1734    8.3538    1.4804 C   0  0  0  0  0  0  0  0  0  0  0  0
   -3.4744    9.2128    0.6436 C   0  0  0  0  0  0  0  0  0  0  0  0
   -2.1772    8.8560    0.3539 C   0  0  0  0  0  0  0  0  0  0  0  0
   -1.6180    7.7074    0.8738 C   0  0  0  0  0  0  0  0  0  0  0  0
   -5.6531    2.6718    3.0988 C   0  0  0  0  0  0  0  0  0  0  0  0
   -4.8049    2.9890    4.0027 O   0  0  0  0  0  0  0  0  0  0  0  0
   -6.8241    2.1519    3.4773 O   0  0  0  0  0  0  0  0  0  0  0  0
    5.6247   -6.6845    4.9249 N   0  0  0  0  0  0  0  0  0  0  0  0
    8.5871   -5.6205    3.9894 H   0  0  0  0  0  0  0  0  0  0  0  0
    7.5666   -4.8033    5.2270 H   0  0  0  0  0  0  0  0  0  0  0  0
    7.9057   -4.9984    2.1838 H   0  0  0  0  0  0  0  0  0  0  0  0
    7.2306   -6.1022    0.9834 H   0  0  0  0  0  0  0  0  0  0  0  0
    5.3210   -4.6030    0.5574 H   0  0  0  0  0  0  0  0  0  0  0  0
    6.8770   -3.8054    0.2903 H   0  0  0  0  0  0  0  0  0  0  0  0
    6.5405   -2.7387    2.6840 H   0  0  0  0  0  0  0  0  0  0  0  0
    4.9966   -3.6259    2.7325 H   0  0  0  0  0  0  0  0  0  0  0  0
    4.6496   -1.4448    2.4069 H   0  0  0  0  0  0  0  0  0  0  0  0
    2.9526   -2.2827    1.1544 H   0  0  0  0  0  0  0  0  0  0  0  0
    2.3065   -2.4279   -2.1947 H   0  0  0  0  0  0  0  0  0  0  0  0
    2.6191   -5.0898   -0.8425 H   0  0  0  0  0  0  0  0  0  0  0  0
    3.4274   -4.6528   -2.4304 H   0  0  0  0  0  0  0  0  0  0  0  0
    1.7984   -4.3316   -4.4378 H   0  0  0  0  0  0  0  0  0  0  0  0
   -0.3098   -5.0760   -5.4225 H   0  0  0  0  0  0  0  0  0  0  0  0
   -2.0598   -6.0873   -4.1089 H   0  0  0  0  0  0  0  0  0  0  0  0
   -1.6982   -6.3796   -1.6548 H   0  0  0  0  0  0  0  0  0  0  0  0
    0.4228   -5.6286   -0.6579 H   0  0  0  0  0  0  0  0  0  0  0  0
    1.4775   -3.5592    0.5190 H   0  0  0  0  0  0  0  0  0  0  0  0
   -0.4262   -1.8614    1.5572 H   0  0  0  0  0  0  0  0  0  0  0  0
   -1.4146   -4.3710    0.2410 H   0  0  0  0  0  0  0  0  0  0  0  0
   -0.1590   -4.2119    1.4654 H   0  0  0  0  0  0  0  0  0  0  0  0
   -4.1887   -3.1858    4.4724 H   0  0  0  0  0  0  0  0  0  0  0  0
   -3.7329   -5.7460    4.2631 H   0  0  0  0  0  0  0  0  0  0  0  0
   -2.0473   -6.1331    2.4194 H   0  0  0  0  0  0  0  0  0  0  0  0
   -2.0576   -0.5992    0.2749 H   0  0  0  0  0  0  0  0  0  0  0  0
   -4.6342   -0.7858   -1.0790 H   0  0  0  0  0  0  0  0  0  0  0  0
   -5.4308   -2.9134   -1.6397 H   0  0  0  0  0  0  0  0  0  0  0  0
   -6.7323   -5.0237   -0.9752 H   0  0  0  0  0  0  0  0  0  0  0  0
   -8.9448   -2.8539   -0.8451 H   0  0  0  0  0  0  0  0  0  0  0  0
   -7.7382   -2.9339   -2.1465 H   0  0  0  0  0  0  0  0  0  0  0  0
  -10.6463   -4.3995   -0.5108 H   0  0  0  0  0  0  0  0  0  0  0  0
  -12.2010   -5.9583   -1.5023 H   0  0  0  0  0  0  0  0  0  0  0  0
   -9.5588   -6.4953   -4.8871 H   0  0  0  0  0  0  0  0  0  0  0  0
   -7.9907   -4.8601   -3.8077 H   0  0  0  0  0  0  0  0  0  0  0  0
  -11.9766   -7.2351   -4.7992 H   0  0  0  0  0  0  0  0  0  0  0  0
   -8.7159   -5.7158    0.0884 H   0  0  0  0  0  0  0  0  0  0  0  0
   -8.7649   -4.1996    0.9588 H   0  0  0  0  0  0  0  0  0  0  0  0
   -5.1011   -1.5829    1.8149 H   0  0  0  0  0  0  0  0  0  0  0  0
   -6.4594   -0.9600    0.9179 H   0  0  0  0  0  0  0  0  0  0  0  0
   -6.3827    0.4003   -0.2118 H   0  0  0  0  0  0  0  0  0  0  0  0
   -3.6545    1.4371   -0.9722 H   0  0  0  0  0  0  0  0  0  0  0  0
   -3.9625    2.4442   -2.4337 H   0  0  0  0  0  0  0  0  0  0  0  0
   -7.9517    3.0165   -0.2425 H   0  0  0  0  0  0  0  0  0  0  0  0
   -8.0859    1.5302   -1.1579 H   0  0  0  0  0  0  0  0  0  0  0  0
   -8.7464   -0.5318   -0.3018 H   0  0  0  0  0  0  0  0  0  0  0  0
  -10.5542   -1.5910    1.1072 H   0  0  0  0  0  0  0  0  0  0  0  0
  -10.8185    1.9234    3.4288 H   0  0  0  0  0  0  0  0  0  0  0  0
   -9.0763    2.9683    2.0706 H   0  0  0  0  0  0  0  0  0  0  0  0
  -11.8026   -0.5200    4.1010 H   0  0  0  0  0  0  0  0  0  0  0  0
   -7.0485    4.1171    1.6726 H   0  0  0  0  0  0  0  0  0  0  0  0
   -6.0165    4.2993    0.1357 H   0  0  0  0  0  0  0  0  0  0  0  0
   -5.5688    5.0215    1.6651 H   0  0  0  0  0  0  0  0  0  0  0  0
   -3.3613    3.1872    2.7799 H   0  0  0  0  0  0  0  0  0  0  0  0
   -1.1028    3.6863    1.7523 H   0  0  0  0  0  0  0  0  0  0  0  0
   -1.2310    5.1221   -0.8529 H   0  0  0  0  0  0  0  0  0  0  0  0
    1.2520    5.3771   -1.7801 H   0  0  0  0  0  0  0  0  0  0  0  0
    3.0331    5.0118    0.2099 H   0  0  0  0  0  0  0  0  0  0  0  0
    5.3444    4.0311    0.3793 H   0  0  0  0  0  0  0  0  0  0  0  0
    5.3620    1.5387   -1.3214 H   0  0  0  0  0  0  0  0  0  0  0  0
    8.1867    0.3862    0.6290 H   0  0  0  0  0  0  0  0  0  0  0  0
    5.6505   -0.3655   -0.9401 H   0  0  0  0  0  0  0  0  0  0  0  0
    7.6578    0.5186   -2.3443 H   0  0  0  0  0  0  0  0  0  0  0  0
    8.5520   -0.8299   -1.6097 H   0  0  0  0  0  0  0  0  0  0  0  0
   10.7573   -0.3979   -0.6412 H   0  0  0  0  0  0  0  0  0  0  0  0
   12.7743    0.9480   -0.7465 H   0  0  0  0  0  0  0  0  0  0  0  0
   10.6162    4.1544   -2.6398 H   0  0  0  0  0  0  0  0  0  0  0  0
    8.5601    2.7258   -2.5057 H   0  0  0  0  0  0  0  0  0  0  0  0
   13.9560    2.5832    0.0212 H   0  0  0  0  0  0  0  0  0  0  0  0
   15.9896    3.8943   -0.1580 H   0  0  0  0  0  0  0  0  0  0  0  0
   16.2579    5.4596   -2.0578 H   0  0  0  0  0  0  0  0  0  0  0  0
   14.5286    5.7164   -3.7535 H   0  0  0  0  0  0  0  0  0  0  0  0
   12.4588    4.3864   -3.5624 H   0  0  0  0  0  0  0  0  0  0  0  0
    6.9983    4.4953   -1.2705 H   0  0  0  0  0  0  0  0  0  0  0  0
    5.9674    3.9608   -2.6100 H   0  0  0  0  0  0  0  0  0  0  0  0
    7.0776    6.7813   -0.6270 H   0  0  0  0  0  0  0  0  0  0  0  0
    5.6230    7.7834   -0.6950 H   0  0  0  0  0  0  0  0  0  0  0  0
   -0.0042    3.4270   -2.1980 H   0  0  0  0  0  0  0  0  0  0  0  0
    1.5803    3.4988   -2.9652 H   0  0  0  0  0  0  0  0  0  0  0  0
    1.2630    2.3822   -1.4910 H   0  0  0  0  0  0  0  0  0  0  0  0
   -2.2578    5.2932    3.0661 H   0  0  0  0  0  0  0  0  0  0  0  0
   -0.6462    5.8570    2.6335 H   0  0  0  0  0  0  0  0  0  0  0  0
   -4.1664    6.5375    2.6709 H   0  0  0  0  0  0  0  0  0  0  0  0
   -5.1911    8.5864    1.7366 H   0  0  0  0  0  0  0  0  0  0  0  0
   -3.9383   10.1307    0.2431 H   0  0  0  0  0  0  0  0  0  0  0  0
   -1.5592    9.4736   -0.2930 H   0  0  0  0  0  0  0  0  0  0  0  0
   -0.6120    7.4744    0.6258 H   0  0  0  0  0  0  0  0  0  0  0  0
   -6.9150    1.5672    4.3163 H   0  0  0  0  0  0  0  0  0  0  0  0
    5.2585   -6.1470    5.7611 H   0  0  0  0  0  0  0  0  0  0  0  0
    5.4093   -7.7047    4.7779 H   0  0  0  0  0  0  0  0  0  0  0  0
  1  2  1  0
  2  3  2  3
  3  4  1  0
  4  5  1  0
  5  6  1  0
  6  7  1  0
  7  8  1  0
  8  9  1  0
  9 10  2  0
  9 11  1  0
 11 12  1  0
 12 13  1  0
 13 14  2  0
 14 15  1  0
 15 16  2  0
 16 17  1  0
 17 18  2  0
 11 19  1  0
 19 20  1  0
 20 21  2  0
 20 22  1  0
 22 23  1  0
 23 24  1  0
 24 25  1  0
 25 26  2  0
 26 27  1  0
 27 28  1  0
 22 29  1  0
 29 30  1  0
 30 31  2  0
 30 32  1  0
 32 33  1  0
 33 34  1  0
 34 35  2  0
 34 36  1  0
 36 37  1  0
 37 38  1  0
 38 39  2  0
 39 40  1  0
 40 41  2  0
 41 42  1  0
 42 43  2  0
 41 44  1  0
 36 45  1  0
 32 46  1  0
 46 47  1  0
 47 48  2  0
 47 49  1  0
 49 50  1  0
 50 51  1  0
 51 52  2  0
 51 53  1  0
 50 54  1  0
 54 55  1  0
 55 56  2  0
 56 57  1  0
 57 58  2  0
 58 59  1  0
 59 60  2  0
 58 61  1  0
 49 62  1  0
 62 63  1  6
 62 64  1  0
 64 65  1  0
 65 66  2  0
 65 67  1  0
 67 68  1  0
 68 69  1  0
 69 70  2  0
 69 71  1  0
 71 72  1  0
 72 73  1  0
 73 74  2  0
 73 75  1  0
 75 76  1  0
 76 77  1  0
 77 78  2  0
 77 79  1  0
 79 80  1  0
 80 81  1  0
 81 82  2  0
 79 83  1  0
 83 84  1  0
 84 85  2  0
 85 86  1  0
 86 87  2  0
 87 88  1  0
 88 89  2  0
 87 90  1  0
 90 91  2  0
 91 92  1  0
 92 93  2  0
 93 94  1  0
 94 95  2  0
 75 96  1  0
 96 97  1  0
 97 98  2  0
 97 99  1  0
 71100  1  0
 67101  1  0
101102  1  0
102103  2  0
103104  1  0
104105  2  0
105106  1  0
106107  2  0
 62108  1  0
108109  2  0
108110  1  0
  2111  1  0
 81  7  1  0
 89 84  1  0
 95 90  1  0
107102  1  0
 18 13  1  0
 28 24  2  0
 43 38  1  0
 60 55  1  0
  1112  1  0
  1113  1  0
  4114  1  0
  4115  1  0
  5116  1  0
  5117  1  0
  6118  1  0
  6119  1  0
  7120  1  1
  8121  1  0
 11122  1  6
 12123  1  0
 12124  1  0
 14125  1  0
 15126  1  0
 16127  1  0
 17128  1  0
 18129  1  0
 19130  1  0
 22131  1  1
 23132  1  0
 23133  1  0
 26134  1  0
 27135  1  0
 28136  1  0
 29137  1  0
 32138  1  6
 33139  1  0
 36140  1  6
 37141  1  0
 37142  1  0
 39143  1  0
 40144  1  0
 42145  1  0
 43146  1  0
 44147  1  0
 45148  1  0
 45149  1  0
 46150  1  0
 46151  1  0
 50152  1  6
 53153  1  0
 53154  1  0
 54155  1  0
 54156  1  0
 56157  1  0
 57158  1  0
 59159  1  0
 60160  1  0
 61161  1  0
 63162  1  0
 63163  1  0
 63164  1  0
 64165  1  0
 67166  1  1
 68167  1  0
 71168  1  6
 72169  1  0
 75170  1  1
 76171  1  0
 79172  1  1
 80173  1  0
 83174  1  0
 83175  1  0
 85176  1  0
 86177  1  0
 88178  1  0
 89179  1  0
 91180  1  0
 92181  1  0
 93182  1  0
 94183  1  0
 95184  1  0
 96185  1  0
 96186  1  0
 99187  1  0
 99188  1  0
100189  1  0
100190  1  0
100191  1  0
101192  1  0
101193  1  0
103194  1  0
104195  1  0
105196  1  0
106197  1  0
107198  1  0
110199  1  0
111200  1  0
111201  1  0
M  END
>  <Ligand ID>  (1) 
LIG0001125

>  <Ligand>  (1) 
CHEMBL2369965

>  <SMILES>  (1) 
NC(=NCCC[C@@H]1NC(=O)[C@@H](Cc2ccccc2)NC(=O)[C@H](Cc2nc[nH]c2)NC(=O)[C@@H](NC(=O)[C@H](Cc2ccc(cc2)O)N)CC(=O)N([C@H](C(=O)N)Cc2ccc(cc2)O)[C@](C)(NC(=O)[C@@H](NC(=O)[C@@H](NC(=O)[C@@H](NC(=O)[C@@H](NC1=O)Cc1ccc(cc1)c1ccccc1)CC(=O)N)C)Cc1ccccc1)C(=O)O)N

>  <CID>  (1) 
73345425.0

>  <ChEMBL ID>  (1) 
nan

>  <InChiKey>  (1) 
YGTFIKMAJAIPOE-WXEBWFAUSA-N

>  <InChi>  (1) 
InChI=1S/C77H90N18O16/c1-43-66(101)88-58(35-45-15-8-4-9-16-45)74(109)94-77(2,75(110)111)95(62(65(80)100)37-48-24-30-53(97)31-25-48)64(99)40-61(89-67(102)54(78)33-46-22-28-52(96)29-23-46)73(108)92-59(38-51-41-83-42-85-51)72(107)91-56(34-44-13-6-3-7-14-44)70(105)87-55(19-12-32-84-76(81)82)68(103)90-57(71(106)93-60(39-63(79)98)69(104)86-43)36-47-20-26-50(27-21-47)49-17-10-5-11-18-49/h3-11,13-18,20-31,41-43,54-62,96-97H,12,19,32-40,78H2,1-2H3,(H2,79,98)(H2,80,100)(H,83,85)(H,86,104)(H,87,105)(H,88,101)(H,89,102)(H,90,103)(H,91,107)(H,92,108)(H,93,106)(H,94,109)(H,110,111)(H4,81,82,84)/t43-,54-,55-,56+,57-,58-,59-,60-,61-,62-,77-/m0/s1

>  <IUPAC Name>  (1) 
(2S,5S,8S,11S,14S,17S,20R,23S,26S)-1-[(2S)-1-amino-3-(4-hydroxyphenyl)-1-oxopropan-2-yl]-26-[[(2S)-2-amino-3-(4-hydroxyphenyl)propanoyl]amino]-11-(2-amino-2-oxoethyl)-5,20-dibenzyl-17-[3-(diaminomethylideneamino)propyl]-23-(1H-imidazol-4-ylmethyl)-2,8-dimethyl-4,7,10,13,16,19,22,25,28-nonaoxo-14-[(4-phenylphenyl)methyl]-1,3,6,9,12,15,18,21,24-nonazacyclooctacosane-2-carboxylic acid

$$$$
