
     RDKit          3D

 61 61  0  0  0  0  0  0  0  0999 V2000
    7.9202   -0.5420    0.7275 C   0  0  0  0  0  0  0  0  0  0  0  0
    6.2805   -0.1160    0.0307 S   0  0  0  0  0  0  0  0  0  0  0  0
    5.7487    1.4542    0.7613 C   0  0  0  0  0  0  0  0  0  0  0  0
    4.4175    1.8575    0.1662 C   0  0  0  0  0  0  0  0  0  0  0  0
    3.4075    0.7651    0.4615 C   0  0  1  0  0  0  0  0  0  0  0  0
    2.0629    1.1143   -0.0696 C   0  0  0  0  0  0  0  0  0  0  0  0
    1.5633    2.1780    0.4234 O   0  0  0  0  0  0  0  0  0  0  0  0
    1.3242    0.3875   -1.0346 N   0  0  0  0  0  0  0  0  0  0  0  0
    0.0114    0.9136   -1.3885 C   0  0  2  0  0  0  0  0  0  0  0  0
   -1.0413    0.1611   -0.6044 C   0  0  0  0  0  0  0  0  0  0  0  0
   -0.7497   -0.9748   -0.0795 O   0  0  0  0  0  0  0  0  0  0  0  0
   -2.3286    0.7336   -0.4570 N   0  0  0  0  0  0  0  0  0  0  0  0
   -3.3978    0.0726    0.2965 C   0  0  2  0  0  0  0  0  0  0  0  0
   -4.7178    0.5903   -0.0276 C   0  0  0  0  0  0  0  0  0  0  0  0
   -4.9133    1.5276   -0.8828 O   0  0  0  0  0  0  0  0  0  0  0  0
   -5.8831    0.1011    0.5639 O   0  0  0  0  0  0  0  0  0  0  0  0
   -3.0491    0.1888    1.7860 C   0  0  0  0  0  0  0  0  0  0  0  0
   -4.0990   -0.4375    2.5900 C   0  0  0  0  0  0  0  0  0  0  0  0
   -4.1011   -1.8009    2.8200 C   0  0  0  0  0  0  0  0  0  0  0  0
   -5.0945   -2.3119    3.6355 C   0  0  0  0  0  0  0  0  0  0  0  0
   -6.0493   -1.5026    4.1996 C   0  0  0  0  0  0  0  0  0  0  0  0
   -6.0715   -0.1195    3.9814 C   0  0  0  0  0  0  0  0  0  0  0  0
   -5.0750    0.3728    3.1649 C   0  0  0  0  0  0  0  0  0  0  0  0
   -0.2485    1.0929   -2.8125 C   0  0  0  0  0  0  0  0  0  0  0  0
   -0.2111    0.0112   -3.7984 C   0  0  0  0  0  0  0  0  0  0  0  0
   -1.1481   -1.1194   -3.6307 C   0  0  0  0  0  0  0  0  0  0  0  0
    1.1947   -0.4612   -4.1747 C   0  0  0  0  0  0  0  0  0  0  0  0
    3.7873   -0.5104   -0.1047 N   0  0  0  0  0  0  0  0  0  0  0  0
    3.8443   -1.6326    0.7389 C   0  0  0  0  0  0  0  0  0  0  0  0
    3.5589   -1.4758    1.9758 O   0  0  0  0  0  0  0  0  0  0  0  0
    8.1516    0.1480    1.5701 H   0  0  0  0  0  0  0  0  0  0  0  0
    7.9458   -1.6109    1.0518 H   0  0  0  0  0  0  0  0  0  0  0  0
    8.6999   -0.3862   -0.0613 H   0  0  0  0  0  0  0  0  0  0  0  0
    5.5680    1.3503    1.8660 H   0  0  0  0  0  0  0  0  0  0  0  0
    6.4981    2.2424    0.5549 H   0  0  0  0  0  0  0  0  0  0  0  0
    4.5554    1.9863   -0.9379 H   0  0  0  0  0  0  0  0  0  0  0  0
    4.0500    2.8028    0.6044 H   0  0  0  0  0  0  0  0  0  0  0  0
    3.3074    0.6287    1.5762 H   0  0  0  0  0  0  0  0  0  0  0  0
    1.7417   -0.4638   -1.4472 H   0  0  0  0  0  0  0  0  0  0  0  0
   -0.0673    1.9237   -0.9179 H   0  0  0  0  0  0  0  0  0  0  0  0
   -2.5208    1.6740   -0.8902 H   0  0  0  0  0  0  0  0  0  0  0  0
   -3.3226   -1.0164    0.0875 H   0  0  0  0  0  0  0  0  0  0  0  0
   -6.7070    0.6839    0.6976 H   0  0  0  0  0  0  0  0  0  0  0  0
   -2.1169   -0.4656    1.8928 H   0  0  0  0  0  0  0  0  0  0  0  0
   -2.8280    1.2305    2.0765 H   0  0  0  0  0  0  0  0  0  0  0  0
   -3.3438   -2.4249    2.3590 H   0  0  0  0  0  0  0  0  0  0  0  0
   -5.1431   -3.3886    3.8479 H   0  0  0  0  0  0  0  0  0  0  0  0
   -6.8408   -1.8630    4.8447 H   0  0  0  0  0  0  0  0  0  0  0  0
   -6.8297    0.5228    4.4333 H   0  0  0  0  0  0  0  0  0  0  0  0
   -5.0460    1.4365    2.9631 H   0  0  0  0  0  0  0  0  0  0  0  0
   -1.2695    1.5872   -2.9107 H   0  0  0  0  0  0  0  0  0  0  0  0
    0.4426    1.8957   -3.1718 H   0  0  0  0  0  0  0  0  0  0  0  0
   -0.5486    0.5305   -4.7658 H   0  0  0  0  0  0  0  0  0  0  0  0
   -2.0851   -0.9499   -4.2097 H   0  0  0  0  0  0  0  0  0  0  0  0
   -0.6836   -2.0082   -4.1678 H   0  0  0  0  0  0  0  0  0  0  0  0
   -1.3245   -1.4845   -2.6190 H   0  0  0  0  0  0  0  0  0  0  0  0
    1.4368   -1.3987   -3.6257 H   0  0  0  0  0  0  0  0  0  0  0  0
    1.2535   -0.7544   -5.2501 H   0  0  0  0  0  0  0  0  0  0  0  0
    1.9488    0.3448   -4.0478 H   0  0  0  0  0  0  0  0  0  0  0  0
    4.0312   -0.6552   -1.1103 H   0  0  0  0  0  0  0  0  0  0  0  0
    4.1039   -2.6354    0.4493 H   0  0  0  0  0  0  0  0  0  0  0  0
  1  2  1  0
  2  3  1  0
  3  4  1  0
  4  5  1  0
  5  6  1  0
  6  7  2  0
  6  8  1  0
  8  9  1  0
  9 10  1  0
 10 11  2  0
 10 12  1  0
 12 13  1  0
 13 14  1  0
 14 15  2  0
 14 16  1  0
 13 17  1  0
 17 18  1  0
 18 19  2  0
 19 20  1  0
 20 21  2  0
 21 22  1  0
 22 23  2  0
  9 24  1  0
 24 25  1  0
 25 26  1  0
 25 27  1  0
  5 28  1  0
 28 29  1  0
 29 30  2  0
 23 18  1  0
  1 31  1  0
  1 32  1  0
  1 33  1  0
  3 34  1  0
  3 35  1  0
  4 36  1  0
  4 37  1  0
  5 38  1  1
  8 39  1  0
  9 40  1  1
 12 41  1  0
 13 42  1  6
 16 43  1  0
 17 44  1  0
 17 45  1  0
 19 46  1  0
 20 47  1  0
 21 48  1  0
 22 49  1  0
 23 50  1  0
 24 51  1  0
 24 52  1  0
 25 53  1  0
 26 54  1  0
 26 55  1  0
 26 56  1  0
 27 57  1  0
 27 58  1  0
 27 59  1  0
 28 60  1  0
 29 61  1  0
M  END
>  <Ligand ID>  (1) 
LIG0001503

>  <Ligand>  (1) 
fMet-Leu-Phe

>  <SMILES>  (1) 
CSCC[C@@H](C(=O)N[C@H](C(=O)N[C@H](C(=O)O)Cc1ccccc1)CC(C)C)NC=O

>  <CID>  (1) 
443295.0

>  <ChEMBL ID>  (1) 
nan

>  <InChiKey>  (1) 
PRQROPMIIGLWRP-BZSNNMDCSA-N

>  <InChi>  (1) 
InChI=1S/C21H31N3O5S/c1-14(2)11-17(23-19(26)16(22-13-25)9-10-30-3)20(27)24-18(21(28)29)12-15-7-5-4-6-8-15/h4-8,13-14,16-18H,9-12H2,1-3H3,(H,22,25)(H,23,26)(H,24,27)(H,28,29)/t16-,17-,18-/m0/s1

>  <IUPAC Name>  (1) 
(2S)-2-[[(2S)-2-[[(2S)-2-formamido-4-methylsulfanylbutanoyl]amino]-4-methylpentanoyl]amino]-3-phenylpropanoic acid

$$$$
