
     RDKit          3D

 31 33  0  0  0  0  0  0  0  0999 V2000
    4.0324    1.2046    0.0698 C   0  0  0  0  0  0  0  0  0  0  0  0
    2.9162    0.1995   -0.0109 C   0  0  0  0  0  0  0  0  0  0  0  0
    3.1436   -1.1527    0.0244 C   0  0  0  0  0  0  0  0  0  0  0  0
    2.0749   -2.0527   -0.0537 C   0  0  0  0  0  0  0  0  0  0  0  0
    0.7845   -1.5582   -0.1671 C   0  0  0  0  0  0  0  0  0  0  0  0
    0.5315   -0.1861   -0.2048 C   0  0  0  0  0  0  0  0  0  0  0  0
    1.6165    0.6630   -0.1248 C   0  0  0  0  0  0  0  0  0  0  0  0
   -0.8149    0.3009   -0.3228 N   0  0  0  0  0  0  0  0  0  0  0  0
   -1.0831    1.7066    0.0069 C   0  0  0  0  0  0  0  0  0  0  0  0
   -2.4362    1.8735    0.6677 C   0  0  0  0  0  0  0  0  0  0  0  0
   -3.0021    0.6126    1.0645 N   0  0  0  0  0  0  0  0  0  0  0  0
   -3.2227   -0.1664   -0.1428 C   0  0  0  0  0  0  0  0  0  0  0  0
   -1.8935   -0.5729   -0.7583 C   0  0  0  0  0  0  0  0  0  0  0  0
   -1.6422   -1.9492   -0.3646 N   0  0  0  0  0  0  0  0  0  0  0  0
   -0.3306   -2.4891   -0.2488 C   0  0  0  0  0  0  0  0  0  0  0  0
   -0.1544   -3.7483   -0.2189 O   0  0  0  0  0  0  0  0  0  0  0  0
    3.9266    1.9169   -0.7734 H   0  0  0  0  0  0  0  0  0  0  0  0
    3.8761    1.8174    0.9955 H   0  0  0  0  0  0  0  0  0  0  0  0
    4.9947    0.7007    0.1501 H   0  0  0  0  0  0  0  0  0  0  0  0
    4.1598   -1.5099    0.1133 H   0  0  0  0  0  0  0  0  0  0  0  0
    2.2754   -3.1291   -0.0240 H   0  0  0  0  0  0  0  0  0  0  0  0
    1.4491    1.7394   -0.1518 H   0  0  0  0  0  0  0  0  0  0  0  0
   -0.3447    2.0098    0.7809 H   0  0  0  0  0  0  0  0  0  0  0  0
   -0.9562    2.3558   -0.8613 H   0  0  0  0  0  0  0  0  0  0  0  0
   -3.1202    2.3661   -0.0397 H   0  0  0  0  0  0  0  0  0  0  0  0
   -2.3976    2.5339    1.5728 H   0  0  0  0  0  0  0  0  0  0  0  0
   -2.4316    0.0987    1.7538 H   0  0  0  0  0  0  0  0  0  0  0  0
   -3.7841    0.4840   -0.8550 H   0  0  0  0  0  0  0  0  0  0  0  0
   -3.7977   -1.0482    0.1394 H   0  0  0  0  0  0  0  0  0  0  0  0
   -1.9313   -0.4424   -1.8610 H   0  0  0  0  0  0  0  0  0  0  0  0
   -2.4384   -2.5783   -0.1557 H   0  0  0  0  0  0  0  0  0  0  0  0
  1  2  1  0
  2  3  2  0
  3  4  1  0
  4  5  2  0
  5  6  1  0
  6  7  2  0
  6  8  1  0
  8  9  1  0
  9 10  1  0
 10 11  1  0
 11 12  1  0
 12 13  1  0
 13 14  1  0
 14 15  1  0
 15 16  2  0
  7  2  1  0
 13  8  1  0
 15  5  1  0
  1 17  1  0
  1 18  1  0
  1 19  1  0
  3 20  1  0
  4 21  1  0
  7 22  1  0
  9 23  1  0
  9 24  1  0
 10 25  1  0
 10 26  1  0
 11 27  1  0
 12 28  1  0
 12 29  1  0
 13 30  1  0
 14 31  1  0
M  END
>  <Ligand ID>  (1) 
LIG0003893

>  <Ligand>  (1) 
CHEMBL590331

>  <SMILES>  (1) 
Cc1ccc2c(c1)N1CCNCC1NC2=O

>  <CID>  (1) 
11701315.0

>  <ChEMBL ID>  (1) 
nan

>  <InChiKey>  (1) 
NJFUCAPBXYJVNU-UHFFFAOYSA-N

>  <InChi>  (1) 
InChI=1S/C12H15N3O/c1-8-2-3-9-10(6-8)15-5-4-13-7-11(15)14-12(9)16/h2-3,6,11,13H,4-5,7H2,1H3,(H,14,16)

>  <IUPAC Name>  (1) 
9-methyl-1,2,3,4,4a,5-hexahydropyrazino[1,2-a]quinazolin-6-one

$$$$
