
     RDKit          3D

 50 53  0  0  0  0  0  0  0  0999 V2000
   -7.1881   -0.1999    2.1503 C   0  0  0  0  0  0  0  0  0  0  0  0
   -6.4922   -0.0424    0.8985 N   0  0  0  0  0  0  0  0  0  0  0  0
   -5.2041    0.5684    0.8563 C   0  0  0  0  0  0  0  0  0  0  0  0
   -4.7026    0.9622    1.9498 O   0  0  0  0  0  0  0  0  0  0  0  0
   -4.5446    0.7007   -0.4499 C   0  0  1  0  0  0  0  0  0  0  0  0
   -3.3137    1.3178   -0.2528 O   0  0  0  0  0  0  0  0  0  0  0  0
   -2.4195    0.7188   -1.1341 C   0  0  2  0  0  0  0  0  0  0  0  0
   -2.8104   -0.7450   -0.9918 C   0  0  1  0  0  0  0  0  0  0  0  0
   -4.3195   -0.5577   -1.1992 C   0  0  2  0  0  0  0  0  0  0  0  0
   -4.4470   -0.3388   -2.5896 O   0  0  0  0  0  0  0  0  0  0  0  0
   -2.3463   -1.5357   -2.0160 O   0  0  0  0  0  0  0  0  0  0  0  0
   -1.0647    0.9913   -0.7816 N   0  0  0  0  0  0  0  0  0  0  0  0
   -0.6129    2.1864   -0.3396 C   0  0  0  0  0  0  0  0  0  0  0  0
    0.7214    2.0886   -0.1000 N   0  0  0  0  0  0  0  0  0  0  0  0
    1.1374    0.8375   -0.3838 C   0  0  0  0  0  0  0  0  0  0  0  0
    0.0027    0.1737   -0.8071 C   0  0  0  0  0  0  0  0  0  0  0  0
    0.1547   -1.1175   -1.1558 N   0  0  0  0  0  0  0  0  0  0  0  0
    1.3721   -1.7249   -1.0893 C   0  0  0  0  0  0  0  0  0  0  0  0
    1.4981   -3.1016   -1.4684 N   0  0  0  0  0  0  0  0  0  0  0  0
    2.4606   -1.0456   -0.6709 N   0  0  0  0  0  0  0  0  0  0  0  0
    2.3786    0.2403   -0.3096 C   0  0  0  0  0  0  0  0  0  0  0  0
    3.5156    0.9705    0.1336 N   0  0  0  0  0  0  0  0  0  0  0  0
    4.7914    0.2881    0.1897 C   0  0  0  0  0  0  0  0  0  0  0  0
    4.6647   -0.8696    1.1308 C   0  0  0  0  0  0  0  0  0  0  0  0
    6.0665   -1.0425    1.6714 C   0  0  0  0  0  0  0  0  0  0  0  0
    6.8830    0.1302    1.2156 C   0  0  0  0  0  0  0  0  0  0  0  0
    5.8952    1.1585    0.6899 C   0  0  0  0  0  0  0  0  0  0  0  0
   -7.9201   -1.0178    2.0377 H   0  0  0  0  0  0  0  0  0  0  0  0
   -6.4281   -0.4964    2.9164 H   0  0  0  0  0  0  0  0  0  0  0  0
   -7.6498    0.7661    2.4258 H   0  0  0  0  0  0  0  0  0  0  0  0
   -6.9265   -0.3750    0.0115 H   0  0  0  0  0  0  0  0  0  0  0  0
   -5.1472    1.3788   -1.1224 H   0  0  0  0  0  0  0  0  0  0  0  0
   -2.7053    1.0330   -2.1459 H   0  0  0  0  0  0  0  0  0  0  0  0
   -2.5973   -1.1240    0.0275 H   0  0  0  0  0  0  0  0  0  0  0  0
   -4.9127   -1.4173   -0.9046 H   0  0  0  0  0  0  0  0  0  0  0  0
   -3.6898   -0.6890   -3.1042 H   0  0  0  0  0  0  0  0  0  0  0  0
   -2.2594   -2.4695   -1.6624 H   0  0  0  0  0  0  0  0  0  0  0  0
   -1.2081    3.0864   -0.1950 H   0  0  0  0  0  0  0  0  0  0  0  0
    0.9906   -3.8672   -0.9701 H   0  0  0  0  0  0  0  0  0  0  0  0
    2.1123   -3.3265   -2.2590 H   0  0  0  0  0  0  0  0  0  0  0  0
    3.3979    1.9713    0.4039 H   0  0  0  0  0  0  0  0  0  0  0  0
    5.0191   -0.0634   -0.8390 H   0  0  0  0  0  0  0  0  0  0  0  0
    4.3594   -1.7752    0.5706 H   0  0  0  0  0  0  0  0  0  0  0  0
    3.9197   -0.6750    1.9226 H   0  0  0  0  0  0  0  0  0  0  0  0
    6.0017   -1.1498    2.7631 H   0  0  0  0  0  0  0  0  0  0  0  0
    6.4870   -2.0162    1.2911 H   0  0  0  0  0  0  0  0  0  0  0  0
    7.5544   -0.2256    0.3878 H   0  0  0  0  0  0  0  0  0  0  0  0
    7.5278    0.5319    2.0216 H   0  0  0  0  0  0  0  0  0  0  0  0
    6.3966    1.6400   -0.1873 H   0  0  0  0  0  0  0  0  0  0  0  0
    5.6013    1.8807    1.4638 H   0  0  0  0  0  0  0  0  0  0  0  0
  1  2  1  0
  2  3  1  0
  3  4  2  0
  3  5  1  0
  5  6  1  0
  6  7  1  0
  7  8  1  0
  8  9  1  0
  9 10  1  0
  8 11  1  0
  7 12  1  0
 12 13  1  0
 13 14  2  0
 14 15  1  0
 15 16  2  0
 16 17  1  0
 17 18  2  0
 18 19  1  0
 18 20  1  0
 20 21  2  0
 21 22  1  0
 22 23  1  0
 23 24  1  0
 24 25  1  0
 25 26  1  0
 26 27  1  0
  9  5  1  0
 16 12  1  0
 27 23  1  0
 21 15  1  0
  1 28  1  0
  1 29  1  0
  1 30  1  0
  2 31  1  0
  5 32  1  6
  7 33  1  6
  8 34  1  1
  9 35  1  1
 10 36  1  0
 11 37  1  0
 13 38  1  0
 19 39  1  0
 19 40  1  0
 22 41  1  0
 23 42  1  0
 24 43  1  0
 24 44  1  0
 25 45  1  0
 25 46  1  0
 26 47  1  0
 26 48  1  0
 27 49  1  0
 27 50  1  0
M  END
>  <Ligand ID>  (1) 
LIG0001978

>  <Ligand>  (1) 
CHEMBL3133158

>  <SMILES>  (1) 
CNC(=O)[C@H]1O[C@H]([C@@H]([C@@H]1O)O)n1cnc2c1nc(N)nc2NC1CCCC1

>  <CID>  (1) 
76329265.0

>  <ChEMBL ID>  (1) 
nan

>  <InChiKey>  (1) 
LVFANRYLYOVHFI-BQVMBELUSA-N

>  <InChi>  (1) 
InChI=1S/C16H23N7O4/c1-18-14(26)11-9(24)10(25)15(27-11)23-6-19-8-12(20-7-4-2-3-5-7)21-16(17)22-13(8)23/h6-7,9-11,15,24-25H,2-5H2,1H3,(H,18,26)(H3,17,20,21,22)/t9-,10+,11-,15+/m0/s1

>  <IUPAC Name>  (1) 
(2S,3S,4R,5R)-5-[2-amino-6-(cyclopentylamino)purin-9-yl]-3,4-dihydroxy-N-methyloxolane-2-carboxamide

$$$$
