
     RDKit          3D

 21 21  0  0  0  0  0  0  0  0999 V2000
   -0.5349   -1.8347    0.0306 C   0  0  0  0  0  0  0  0  0  0  0  0
   -0.1488   -0.4189    0.0082 C   0  0  0  0  0  0  0  0  0  0  0  0
   -1.0516    0.5644   -0.2918 C   0  0  0  0  0  0  0  0  0  0  0  0
   -2.4709    0.2620   -0.6119 C   0  0  0  0  0  0  0  0  0  0  0  0
   -0.6426    1.8993   -0.3020 C   0  0  0  0  0  0  0  0  0  0  0  0
    0.6685    2.2318   -0.0107 C   0  0  0  0  0  0  0  0  0  0  0  0
    1.5760    1.2357    0.2915 C   0  0  0  0  0  0  0  0  0  0  0  0
    1.1655   -0.1024    0.3016 C   0  0  0  0  0  0  0  0  0  0  0  0
    2.1802   -1.1546    0.6345 C   0  0  0  0  0  0  0  0  0  0  0  0
   -1.5992   -2.0420    0.0176 H   0  0  0  0  0  0  0  0  0  0  0  0
   -0.1674   -2.2317    1.0236 H   0  0  0  0  0  0  0  0  0  0  0  0
    0.0198   -2.4629   -0.7114 H   0  0  0  0  0  0  0  0  0  0  0  0
   -2.6300   -0.6988   -1.1214 H   0  0  0  0  0  0  0  0  0  0  0  0
   -3.1651    0.4646    0.2295 H   0  0  0  0  0  0  0  0  0  0  0  0
   -2.7740    1.0215   -1.3936 H   0  0  0  0  0  0  0  0  0  0  0  0
   -1.3495    2.6848   -0.5382 H   0  0  0  0  0  0  0  0  0  0  0  0
    0.9899    3.2508   -0.0163 H   0  0  0  0  0  0  0  0  0  0  0  0
    2.5822    1.5321    0.5117 H   0  0  0  0  0  0  0  0  0  0  0  0
    3.1360   -0.8078    0.1507 H   0  0  0  0  0  0  0  0  0  0  0  0
    1.9433   -2.1004    0.0824 H   0  0  0  0  0  0  0  0  0  0  0  0
    2.2726   -1.2927    1.7156 H   0  0  0  0  0  0  0  0  0  0  0  0
  1  2  1  0
  2  3  2  0
  3  4  1  0
  3  5  1  0
  5  6  2  0
  6  7  1  0
  7  8  2  0
  8  9  1  0
  8  2  1  0
  1 10  1  0
  1 11  1  0
  1 12  1  0
  4 13  1  0
  4 14  1  0
  4 15  1  0
  5 16  1  0
  6 17  1  0
  7 18  1  0
  9 19  1  0
  9 20  1  0
  9 21  1  0
M  END
>  <Ligand ID>  (1) 
LIG0000533

>  <Ligand>  (1) 
Trimethylbenzene

>  <SMILES>  (1) 
Cc1c(C)cccc1C

>  <CID>  (1) 
10686.0

>  <ChEMBL ID>  (1) 
nan

>  <InChiKey>  (1) 
FYGHSUNMUKGBRK-UHFFFAOYSA-N

>  <InChi>  (1) 
InChI=1S/C9H12/c1-7-5-4-6-8(2)9(7)3/h4-6H,1-3H3

>  <IUPAC Name>  (1) 
1,2,3-trimethylbenzene

$$$$
