
     RDKit          3D

 65 64  0  0  0  0  0  0  0  0999 V2000
    7.0433   -2.5434    1.3328 C   0  0  0  0  0  0  0  0  0  0  0  0
    5.9637   -2.1943    0.2963 C   0  0  0  0  0  0  0  0  0  0  0  0
    6.4696   -1.0969   -0.6165 C   0  0  0  0  0  0  0  0  0  0  0  0
    6.7867    0.1607    0.0513 C   0  0  0  0  0  0  0  0  0  0  0  0
    5.7794    1.0574    0.6393 C   0  0  0  0  0  0  0  0  0  0  0  0
    4.8768    1.8104   -0.2480 C   0  0  0  0  0  0  0  0  0  0  0  0
    3.8880    1.3278   -1.1726 C   0  0  0  0  0  0  0  0  0  0  0  0
    2.6434    0.6406   -0.7442 C   0  0  0  0  0  0  0  0  0  0  0  0
    2.7502   -0.6287   -0.0070 C   0  0  0  0  0  0  0  0  0  0  0  0
    1.4348   -1.2599    0.3077 C   0  0  0  0  0  0  0  0  0  0  0  0
    0.4710   -0.5276    1.1551 C   0  0  0  0  0  0  0  0  0  0  0  0
   -0.0617    0.7381    0.6901 C   0  0  0  0  0  0  0  0  0  0  0  0
   -0.0963    1.7604    1.4598 O   0  0  0  0  0  0  0  0  0  0  0  0
   -0.5763    0.9708   -0.5971 O   0  0  0  0  0  0  0  0  0  0  0  0
   -1.0823    2.2625   -0.9312 C   0  0  0  0  0  0  0  0  0  0  0  0
   -2.2606    2.6747   -0.1116 C   0  0  2  0  0  0  0  0  0  0  0  0
   -3.4103    1.7455   -0.5315 C   0  0  0  0  0  0  0  0  0  0  0  0
   -4.5864    2.1755    0.0805 O   0  0  0  0  0  0  0  0  0  0  0  0
   -5.9432    1.4210   -0.5390 P   0  0  0  0  0  0  0  0  0  0  0  0
   -6.9681    2.5224   -0.8259 O   0  0  0  0  0  0  0  0  0  0  0  0
   -6.6377    0.4008    0.5804 O   0  0  0  0  0  0  0  0  0  0  0  0
   -6.4776   -0.9502    0.3047 C   0  0  0  0  0  0  0  0  0  0  0  0
   -7.4240   -1.7847    1.1462 C   0  0  1  0  0  0  0  0  0  0  0  0
   -8.7980   -1.3676    0.7434 C   0  0  0  0  0  0  0  0  0  0  0  0
   -9.1789   -0.1851    0.9412 O   0  0  0  0  0  0  0  0  0  0  0  0
   -9.7022   -2.2400    0.1455 O   0  0  0  0  0  0  0  0  0  0  0  0
   -7.2400   -3.1820    0.8407 N   0  0  0  0  0  0  0  0  0  0  0  0
   -5.6484    0.6731   -2.0295 O   0  0  0  0  0  0  0  0  0  0  0  0
   -2.6122    3.9776   -0.5479 O   0  0  0  0  0  0  0  0  0  0  0  0
    6.8707   -3.5851    1.6657 H   0  0  0  0  0  0  0  0  0  0  0  0
    8.0311   -2.5205    0.8305 H   0  0  0  0  0  0  0  0  0  0  0  0
    7.0895   -1.8199    2.1507 H   0  0  0  0  0  0  0  0  0  0  0  0
    5.8435   -3.1020   -0.3262 H   0  0  0  0  0  0  0  0  0  0  0  0
    5.0146   -1.9996    0.7976 H   0  0  0  0  0  0  0  0  0  0  0  0
    5.8053   -1.0803   -1.4791 H   0  0  0  0  0  0  0  0  0  0  0  0
    7.4458   -1.5118   -1.0269 H   0  0  0  0  0  0  0  0  0  0  0  0
    7.6571   -0.0057    0.7884 H   0  0  0  0  0  0  0  0  0  0  0  0
    7.3371    0.8000   -0.7336 H   0  0  0  0  0  0  0  0  0  0  0  0
    6.3990    1.8747    1.1773 H   0  0  0  0  0  0  0  0  0  0  0  0
    5.2287    0.6182    1.5066 H   0  0  0  0  0  0  0  0  0  0  0  0
    5.5569    2.5867   -0.8139 H   0  0  0  0  0  0  0  0  0  0  0  0
    4.3472    2.5817    0.4444 H   0  0  0  0  0  0  0  0  0  0  0  0
    3.5047    2.2379   -1.7809 H   0  0  0  0  0  0  0  0  0  0  0  0
    4.3975    0.7362   -2.0017 H   0  0  0  0  0  0  0  0  0  0  0  0
    2.0551    1.4100   -0.1535 H   0  0  0  0  0  0  0  0  0  0  0  0
    2.0165    0.4752   -1.6602 H   0  0  0  0  0  0  0  0  0  0  0  0
    3.3130   -1.3666   -0.6402 H   0  0  0  0  0  0  0  0  0  0  0  0
    3.2590   -0.4774    0.9961 H   0  0  0  0  0  0  0  0  0  0  0  0
    1.5619   -2.3328    0.6435 H   0  0  0  0  0  0  0  0  0  0  0  0
    0.9191   -1.3876   -0.7055 H   0  0  0  0  0  0  0  0  0  0  0  0
   -0.3294   -1.2577    1.4553 H   0  0  0  0  0  0  0  0  0  0  0  0
    1.0019   -0.3306    2.1429 H   0  0  0  0  0  0  0  0  0  0  0  0
   -1.4181    2.2043   -1.9882 H   0  0  0  0  0  0  0  0  0  0  0  0
   -0.2454    3.0129   -0.9158 H   0  0  0  0  0  0  0  0  0  0  0  0
   -2.1239    2.7267    0.9617 H   0  0  0  0  0  0  0  0  0  0  0  0
   -3.1805    0.7383   -0.1941 H   0  0  0  0  0  0  0  0  0  0  0  0
   -3.4311    1.7811   -1.6286 H   0  0  0  0  0  0  0  0  0  0  0  0
   -5.4445   -1.2216    0.6473 H   0  0  0  0  0  0  0  0  0  0  0  0
   -6.5633   -1.2298   -0.7433 H   0  0  0  0  0  0  0  0  0  0  0  0
   -7.2493   -1.6049    2.2186 H   0  0  0  0  0  0  0  0  0  0  0  0
  -10.3306   -1.9509   -0.5690 H   0  0  0  0  0  0  0  0  0  0  0  0
   -7.1218   -3.3383   -0.1857 H   0  0  0  0  0  0  0  0  0  0  0  0
   -8.0471   -3.7658    1.1899 H   0  0  0  0  0  0  0  0  0  0  0  0
   -5.2741   -0.2254   -1.9632 H   0  0  0  0  0  0  0  0  0  0  0  0
   -3.2992    3.9718   -1.2445 H   0  0  0  0  0  0  0  0  0  0  0  0
  1  2  1  0
  2  3  1  0
  3  4  1  0
  4  5  1  0
  5  6  1  0
  6  7  1  0
  7  8  1  0
  8  9  1  0
  9 10  1  0
 10 11  1  0
 11 12  1  0
 12 13  2  0
 12 14  1  0
 14 15  1  0
 15 16  1  0
 16 17  1  0
 17 18  1  0
 18 19  1  0
 19 20  2  0
 19 21  1  0
 21 22  1  0
 22 23  1  0
 23 24  1  0
 24 25  2  0
 24 26  1  0
 23 27  1  0
 19 28  1  0
 16 29  1  0
  1 30  1  0
  1 31  1  0
  1 32  1  0
  2 33  1  0
  2 34  1  0
  3 35  1  0
  3 36  1  0
  4 37  1  0
  4 38  1  0
  5 39  1  0
  5 40  1  0
  6 41  1  0
  6 42  1  0
  7 43  1  0
  7 44  1  0
  8 45  1  0
  8 46  1  0
  9 47  1  0
  9 48  1  0
 10 49  1  0
 10 50  1  0
 11 51  1  0
 11 52  1  0
 15 53  1  0
 15 54  1  0
 16 55  1  1
 17 56  1  0
 17 57  1  0
 22 58  1  0
 22 59  1  0
 23 60  1  1
 26 61  1  0
 27 62  1  0
 27 63  1  0
 28 64  1  0
 29 65  1  0
M  END
>  <Ligand ID>  (1) 
LIG0004258

>  <Ligand>  (1) 
CHEMBL3577147

>  <SMILES>  (1) 
CCCCCCCCCCCC(=O)OC[C@H](COP(=O)(OC[C@@H](C(=O)O)N)O)O

>  <CID>  (1) 
52926276.0

>  <ChEMBL ID>  (1) 
nan

>  <InChiKey>  (1) 
OBMNLLRGDUINGE-CVEARBPZSA-N

>  <InChi>  (1) 
InChI=1S/C18H36NO9P/c1-2-3-4-5-6-7-8-9-10-11-17(21)26-12-15(20)13-27-29(24,25)28-14-16(19)18(22)23/h15-16,20H,2-14,19H2,1H3,(H,22,23)(H,24,25)/t15-,16+/m1/s1

>  <IUPAC Name>  (1) 
(2S)-2-amino-3-[[(2R)-3-dodecanoyloxy-2-hydroxypropoxy]-hydroxyphosphoryl]oxypropanoic acid

$$$$
