
     RDKit          3D

 24 23  0  0  0  0  0  0  0  0999 V2000
   -3.4921    0.5319    0.4091 C   0  0  0  0  0  0  0  0  0  0  0  0
   -2.4972   -0.4575   -0.1365 C   0  0  0  0  0  0  0  0  0  0  0  0
   -1.0843   -0.1033    0.3039 C   0  0  0  0  0  0  0  0  0  0  0  0
   -0.0982   -1.1012   -0.2489 C   0  0  0  0  0  0  0  0  0  0  0  0
    1.3207   -0.8839    0.1234 C   0  0  0  0  0  0  0  0  0  0  0  0
    1.9272    0.4217   -0.3011 C   0  0  0  0  0  0  0  0  0  0  0  0
    1.2766    1.5226    0.2425 O   0  0  0  0  0  0  0  0  0  0  0  0
    3.3709    0.5312    0.2085 C   0  0  0  0  0  0  0  0  0  0  0  0
   -4.4060    0.0042    0.8009 H   0  0  0  0  0  0  0  0  0  0  0  0
   -3.7981    1.2551   -0.3691 H   0  0  0  0  0  0  0  0  0  0  0  0
   -3.0393    1.0496    1.2786 H   0  0  0  0  0  0  0  0  0  0  0  0
   -2.7057   -1.4908    0.2458 H   0  0  0  0  0  0  0  0  0  0  0  0
   -2.5621   -0.5214   -1.2406 H   0  0  0  0  0  0  0  0  0  0  0  0
   -0.8650    0.8849   -0.1486 H   0  0  0  0  0  0  0  0  0  0  0  0
   -1.0355   -0.0343    1.4019 H   0  0  0  0  0  0  0  0  0  0  0  0
   -0.1939   -1.1344   -1.3698 H   0  0  0  0  0  0  0  0  0  0  0  0
   -0.4804   -2.0989    0.1219 H   0  0  0  0  0  0  0  0  0  0  0  0
    1.9143   -1.6814   -0.4167 H   0  0  0  0  0  0  0  0  0  0  0  0
    1.5178   -1.0916    1.2142 H   0  0  0  0  0  0  0  0  0  0  0  0
    1.9145    0.5586   -1.3995 H   0  0  0  0  0  0  0  0  0  0  0  0
    1.8195    2.3245    0.0348 H   0  0  0  0  0  0  0  0  0  0  0  0
    3.4503    1.1691    1.1066 H   0  0  0  0  0  0  0  0  0  0  0  0
    3.6779   -0.4991    0.5370 H   0  0  0  0  0  0  0  0  0  0  0  0
    4.0677    0.8444   -0.5867 H   0  0  0  0  0  0  0  0  0  0  0  0
  1  2  1  0
  2  3  1  0
  3  4  1  0
  4  5  1  0
  5  6  1  0
  6  7  1  0
  6  8  1  0
  1  9  1  0
  1 10  1  0
  1 11  1  0
  2 12  1  0
  2 13  1  0
  3 14  1  0
  3 15  1  0
  4 16  1  0
  4 17  1  0
  5 18  1  0
  5 19  1  0
  6 20  1  0
  7 21  1  0
  8 22  1  0
  8 23  1  0
  8 24  1  0
M  END
>  <Ligand ID>  (1) 
LIG0000286

>  <Ligand>  (1) 
2-Heptanol

>  <SMILES>  (1) 
CCCCCC(O)C

>  <CID>  (1) 
10976.0

>  <ChEMBL ID>  (1) 
nan

>  <InChiKey>  (1) 
CETWDUZRCINIHU-UHFFFAOYSA-N

>  <InChi>  (1) 
InChI=1S/C7H16O/c1-3-4-5-6-7(2)8/h7-8H,3-6H2,1-2H3

>  <IUPAC Name>  (1) 
heptan-2-ol

$$$$
