
     RDKit          3D

 31 32  0  0  0  0  0  0  0  0999 V2000
   -2.7532    2.3744    1.7451 C   0  0  0  0  0  0  0  0  0  0  0  0
   -2.8153    1.1831    1.0272 O   0  0  0  0  0  0  0  0  0  0  0  0
   -1.7663    0.4791    0.4869 C   0  0  0  0  0  0  0  0  0  0  0  0
   -0.4538    0.8911    0.5970 C   0  0  0  0  0  0  0  0  0  0  0  0
    0.6024    0.1708    0.0460 C   0  0  0  0  0  0  0  0  0  0  0  0
    0.3064   -0.9914   -0.6291 C   0  0  0  0  0  0  0  0  0  0  0  0
   -1.0085   -1.3911   -0.7316 C   0  0  0  0  0  0  0  0  0  0  0  0
   -2.0581   -0.6869   -0.1910 C   0  0  0  0  0  0  0  0  0  0  0  0
   -3.3590   -1.1326   -0.3229 O   0  0  0  0  0  0  0  0  0  0  0  0
   -3.6104   -2.3357   -1.0277 C   0  0  0  0  0  0  0  0  0  0  0  0
    1.5208   -1.6445   -1.1562 C   0  0  0  0  0  0  0  0  0  0  0  0
    2.5731   -0.7223   -0.7080 C   0  0  0  0  0  0  0  0  0  0  0  0
    2.0509    0.3561    0.0037 C   0  0  0  0  0  0  0  0  0  0  0  0
    2.9939    1.1862    0.4076 N   0  0  0  0  0  0  0  0  0  0  0  0
    4.1139    1.1809    0.2845 C   0  0  0  0  0  0  0  0  0  0  0  0
    4.3593   -0.4247   -0.7182 S   0  0  0  0  0  0  0  0  0  0  0  0
    5.3427    1.9233    0.6045 N   0  0  0  0  0  0  0  0  0  0  0  0
    0.8676    0.0000    0.0000 I   0  0  0  0  0  0  0  0  0  0  0  0
   -3.5881    2.4271    2.4984 H   0  0  0  0  0  0  0  0  0  0  0  0
   -1.7630    2.4903    2.2407 H   0  0  0  0  0  0  0  0  0  0  0  0
   -2.8480    3.2083    0.9925 H   0  0  0  0  0  0  0  0  0  0  0  0
   -0.2016    1.8010    1.1234 H   0  0  0  0  0  0  0  0  0  0  0  0
   -1.2588   -2.3033   -1.2595 H   0  0  0  0  0  0  0  0  0  0  0  0
   -4.7213   -2.4649   -1.0972 H   0  0  0  0  0  0  0  0  0  0  0  0
   -3.1650   -2.3220   -2.0607 H   0  0  0  0  0  0  0  0  0  0  0  0
   -3.1689   -3.2201   -0.5148 H   0  0  0  0  0  0  0  0  0  0  0  0
    1.6519   -2.6780   -0.7757 H   0  0  0  0  0  0  0  0  0  0  0  0
    1.4821   -1.7498   -2.2669 H   0  0  0  0  0  0  0  0  0  0  0  0
    5.5980    2.7574    0.0204 H   0  0  0  0  0  0  0  0  0  0  0  0
    5.9439    1.6383    1.3817 H   0  0  0  0  0  0  0  0  0  0  0  0
   -0.8676    0.0000    0.0000 H   0  0  0  0  0  0  0  0  0  0  0  0
  1  2  1  0
  2  3  1  0
  3  4  2  0
  4  5  1  0
  5  6  2  0
  6  7  1  0
  7  8  2  0
  8  9  1  0
  9 10  1  0
  6 11  1  0
 11 12  1  0
 12 13  2  0
 13 14  1  0
 14 15  2  0
 15 16  1  0
 15 17  1  0
  8  3  1  0
 16 12  1  0
 13  5  1  0
  1 19  1  0
  1 20  1  0
  1 21  1  0
  4 22  1  0
  7 23  1  0
 10 24  1  0
 10 25  1  0
 10 26  1  0
 11 27  1  0
 11 28  1  0
 17 29  1  0
 17 30  1  0
 18 31  1  0
M  END
>  <Ligand ID>  (1) 
LIG0004756

>  <Ligand>  (1) 
CHEMBL43299

>  <SMILES>  (1) 
COc1cc2c(cc1OC)Cc1c2nc(s1)N.I

>  <CID>  (1) 
10292899.0

>  <ChEMBL ID>  (1) 
nan

>  <InChiKey>  (1) 
WIUKUZIKTRGASW-UHFFFAOYSA-N

>  <InChi>  (1) 
InChI=1S/C12H12N2O2S.HI/c1-15-8-3-6-4-10-11(14-12(13)17-10)7(6)5-9(8)16-2;/h3,5H,4H2,1-2H3,(H2,13,14);1H

>  <IUPAC Name>  (1) 
6,7-dimethoxy-4H-indeno[1,2-d][1,3]thiazol-2-amine;hydroiodide

$$$$
