
     RDKit          3D

 64 68  0  0  0  0  0  0  0  0999 V2000
    8.1453   -3.9182    2.3874 C   0  0  0  0  0  0  0  0  0  0  0  0
    7.6534   -2.7418    1.6930 N   0  0  0  0  0  0  0  0  0  0  0  0
    8.3392   -1.6147    1.5797 N   0  0  0  0  0  0  0  0  0  0  0  0
    7.6073   -0.7125    0.8776 C   0  0  0  0  0  0  0  0  0  0  0  0
    6.4283   -1.3580    0.5671 C   0  0  0  0  0  0  0  0  0  0  0  0
    6.4593   -2.6376    1.0822 C   0  0  0  0  0  0  0  0  0  0  0  0
    5.3517   -0.7321   -0.1925 C   0  0  0  0  0  0  0  0  0  0  0  0
    4.1749   -1.3813   -0.5004 C   0  0  0  0  0  0  0  0  0  0  0  0
    3.1731   -0.7561   -1.2243 C   0  0  0  0  0  0  0  0  0  0  0  0
    3.3438    0.5593   -1.6584 C   0  0  0  0  0  0  0  0  0  0  0  0
    4.5170    1.1628   -1.3349 C   0  0  0  0  0  0  0  0  0  0  0  0
    5.4938    0.5347   -0.6216 N   0  0  0  0  0  0  0  0  0  0  0  0
    2.2349    1.1383   -2.4387 C   0  0  0  0  0  0  0  0  0  0  0  0
    1.0623    1.5345   -1.6299 C   0  0  0  0  0  0  0  0  0  0  0  0
    0.0142    0.6457   -1.5369 C   0  0  0  0  0  0  0  0  0  0  0  0
   -1.1260    0.8779   -0.7761 C   0  0  0  0  0  0  0  0  0  0  0  0
   -2.1407   -0.1438   -0.7787 C   0  0  0  0  0  0  0  0  0  0  0  0
   -1.9528   -1.2307   -1.4400 O   0  0  0  0  0  0  0  0  0  0  0  0
   -3.3804   -0.0795   -0.1014 N   0  0  0  0  0  0  0  0  0  0  0  0
   -4.3648   -1.1723   -0.1561 C   0  0  1  0  0  0  0  0  0  0  0  0
   -4.5888   -1.7097    1.2041 C   0  0  0  0  0  0  0  0  0  0  0  0
   -5.6218   -0.9610    2.0119 C   0  0  0  0  0  0  0  0  0  0  0  0
   -6.9202   -1.0031    1.2249 C   0  0  0  0  0  0  0  0  0  0  0  0
   -6.6833   -0.1860   -0.0244 C   0  0  0  0  0  0  0  0  0  0  0  0
   -5.5901   -0.7120   -0.8865 C   0  0  2  0  0  0  0  0  0  0  0  0
   -6.1780   -1.7671   -1.8079 C   0  0  0  0  0  0  0  0  0  0  0  0
   -5.1797    0.3455   -1.7319 O   0  0  0  0  0  0  0  0  0  0  0  0
   -1.1771    2.0609   -0.0973 C   0  0  0  0  0  0  0  0  0  0  0  0
   -0.1472    2.9936   -0.1574 C   0  0  0  0  0  0  0  0  0  0  0  0
    0.9567    2.7088   -0.9274 C   0  0  0  0  0  0  0  0  0  0  0  0
    1.9503    3.6452   -0.9830 C   0  0  0  0  0  0  0  0  0  0  0  0
    1.8707    4.8337   -0.3005 C   0  0  0  0  0  0  0  0  0  0  0  0
    0.7669    5.1214    0.4729 C   0  0  0  0  0  0  0  0  0  0  0  0
   -0.2531    4.1889    0.5437 C   0  0  0  0  0  0  0  0  0  0  0  0
   -2.2294    2.3652    0.6574 F   0  0  0  0  0  0  0  0  0  0  0  0
    7.8401   -3.9535    3.4477 H   0  0  0  0  0  0  0  0  0  0  0  0
    9.2412   -3.9776    2.2445 H   0  0  0  0  0  0  0  0  0  0  0  0
    7.7173   -4.8023    1.8366 H   0  0  0  0  0  0  0  0  0  0  0  0
    7.9092    0.3022    0.6249 H   0  0  0  0  0  0  0  0  0  0  0  0
    5.6634   -3.3611    0.9849 H   0  0  0  0  0  0  0  0  0  0  0  0
    4.0652   -2.4034   -0.1518 H   0  0  0  0  0  0  0  0  0  0  0  0
    2.2546   -1.2959   -1.4514 H   0  0  0  0  0  0  0  0  0  0  0  0
    4.7354    2.1685   -1.6361 H   0  0  0  0  0  0  0  0  0  0  0  0
    1.9139    0.3480   -3.1554 H   0  0  0  0  0  0  0  0  0  0  0  0
    2.5919    1.9726   -3.0877 H   0  0  0  0  0  0  0  0  0  0  0  0
    0.0987   -0.2860   -2.0962 H   0  0  0  0  0  0  0  0  0  0  0  0
   -3.6473    0.7337    0.4570 H   0  0  0  0  0  0  0  0  0  0  0  0
   -3.9188   -1.9686   -0.7870 H   0  0  0  0  0  0  0  0  0  0  0  0
   -3.6300   -1.5828    1.7883 H   0  0  0  0  0  0  0  0  0  0  0  0
   -4.8133   -2.7844    1.2372 H   0  0  0  0  0  0  0  0  0  0  0  0
   -5.7280   -1.5088    2.9841 H   0  0  0  0  0  0  0  0  0  0  0  0
   -5.3689    0.0980    2.1512 H   0  0  0  0  0  0  0  0  0  0  0  0
   -7.1114   -2.0564    0.8835 H   0  0  0  0  0  0  0  0  0  0  0  0
   -7.7752   -0.5614    1.7520 H   0  0  0  0  0  0  0  0  0  0  0  0
   -7.6323   -0.2259   -0.6221 H   0  0  0  0  0  0  0  0  0  0  0  0
   -6.4898    0.8681    0.3050 H   0  0  0  0  0  0  0  0  0  0  0  0
   -6.7000   -1.2282   -2.6257 H   0  0  0  0  0  0  0  0  0  0  0  0
   -5.3615   -2.3606   -2.3017 H   0  0  0  0  0  0  0  0  0  0  0  0
   -6.9056   -2.4125   -1.2654 H   0  0  0  0  0  0  0  0  0  0  0  0
   -5.9398    0.9741   -1.8459 H   0  0  0  0  0  0  0  0  0  0  0  0
    2.8139    3.4548   -1.5886 H   0  0  0  0  0  0  0  0  0  0  0  0
    2.6747    5.5474   -0.3678 H   0  0  0  0  0  0  0  0  0  0  0  0
    0.6426    6.0363    1.0339 H   0  0  0  0  0  0  0  0  0  0  0  0
   -1.1501    4.3668    1.1419 H   0  0  0  0  0  0  0  0  0  0  0  0
  1  2  1  0
  2  3  1  0
  3  4  2  0
  4  5  1  0
  5  6  2  0
  5  7  1  0
  7  8  2  0
  8  9  1  0
  9 10  2  0
 10 11  1  0
 11 12  2  0
 10 13  1  0
 13 14  1  0
 14 15  2  0
 15 16  1  0
 16 17  1  0
 17 18  2  0
 17 19  1  0
 19 20  1  0
 20 21  1  0
 21 22  1  0
 22 23  1  0
 23 24  1  0
 24 25  1  0
 25 26  1  0
 25 27  1  6
 16 28  2  0
 28 29  1  0
 29 30  2  0
 30 31  1  0
 31 32  2  0
 32 33  1  0
 33 34  2  0
 28 35  1  0
  6  2  1  0
 12  7  1  0
 30 14  1  0
 25 20  1  0
 34 29  1  0
  1 36  1  0
  1 37  1  0
  1 38  1  0
  4 39  1  0
  6 40  1  0
  8 41  1  0
  9 42  1  0
 11 43  1  0
 13 44  1  0
 13 45  1  0
 15 46  1  0
 19 47  1  0
 20 48  1  6
 21 49  1  0
 21 50  1  0
 22 51  1  0
 22 52  1  0
 23 53  1  0
 23 54  1  0
 24 55  1  0
 24 56  1  0
 26 57  1  0
 26 58  1  0
 26 59  1  0
 27 60  1  0
 31 61  1  0
 32 62  1  0
 33 63  1  0
 34 64  1  0
M  END
>  <Ligand ID>  (1) 
LIG0005115

>  <Ligand>  (1) 
SCHEMBL16948148

>  <SMILES>  (1) 
Cn1ncc(c1)c1ccc(cn1)Cc1cc(C(=O)N[C@H]2CCCC[C@@]2(C)O)c(c2c1cccc2)F

>  <CID>  (1) 
118266818.0

>  <ChEMBL ID>  (1) 
nan

>  <InChiKey>  (1) 
DQZKNHZVLILHDP-LBNVMWSVSA-N

>  <InChi>  (1) 
InChI=1S/C28H29FN4O2/c1-28(35)12-6-5-9-25(28)32-27(34)23-14-19(21-7-3-4-8-22(21)26(23)29)13-18-10-11-24(30-15-18)20-16-31-33(2)17-20/h3-4,7-8,10-11,14-17,25,35H,5-6,9,12-13H2,1-2H3,(H,32,34)/t25-,28+/m0/s1

>  <IUPAC Name>  (1) 
1-fluoro-N-[(1S,2R)-2-hydroxy-2-methylcyclohexyl]-4-[[6-(1-methylpyrazol-4-yl)pyridin-3-yl]methyl]naphthalene-2-carboxamide

$$$$
