
     RDKit          3D

 70 77  0  0  0  0  0  0  0  0999 V2000
    1.2824   -3.5737    1.3029 C   0  0  0  0  0  0  0  0  0  0  0  0
    0.8420   -2.5606    0.3927 N   0  0  0  0  0  0  0  0  0  0  0  0
    0.0522   -3.1778   -0.6570 C   0  0  0  0  0  0  0  0  0  0  0  0
   -0.5222   -2.1891   -1.6118 C   0  0  0  0  0  0  0  0  0  0  0  0
   -1.1758   -1.0486   -0.8830 C   0  0  2  0  0  0  0  0  0  0  0  0
   -0.2323   -0.4663    0.0991 C   0  0  2  0  0  0  0  0  0  0  0  0
    0.0557   -1.5866    1.1261 C   0  0  0  0  0  0  0  0  0  0  0  0
   -1.1091   -2.1447    1.8092 C   0  0  0  0  0  0  0  0  0  0  0  0
   -2.3782   -2.1361    1.0509 C   0  0  0  0  0  0  0  0  0  0  0  0
   -2.3870   -1.6012   -0.1894 C   0  0  0  0  0  0  0  0  0  0  0  0
   -3.4656   -1.4763   -1.0233 C   0  0  0  0  0  0  0  0  0  0  0  0
   -3.0354   -0.8758   -2.1768 O   0  0  0  0  0  0  0  0  0  0  0  0
   -1.8592   -0.1031   -1.8341 C   0  0  1  0  0  0  0  0  0  0  0  0
   -2.3136    1.0869   -1.1224 C   0  0  0  0  0  0  0  0  0  0  0  0
   -1.8465    1.4172    0.1313 C   0  0  0  0  0  0  0  0  0  0  0  0
   -0.8683    0.6440    0.9047 C   0  0  0  0  0  0  0  0  0  0  0  0
   -2.4928    2.5957    0.4730 C   0  0  0  0  0  0  0  0  0  0  0  0
   -2.4733    3.4359    1.5723 C   0  0  0  0  0  0  0  0  0  0  0  0
   -3.2439    4.5796    1.6462 C   0  0  0  0  0  0  0  0  0  0  0  0
   -4.0758    4.9137    0.5846 C   0  0  0  0  0  0  0  0  0  0  0  0
   -4.1154    4.0962   -0.5215 C   0  0  0  0  0  0  0  0  0  0  0  0
   -3.3336    2.9602   -0.5657 C   0  0  0  0  0  0  0  0  0  0  0  0
   -3.2141    2.0306   -1.5321 N   0  0  0  0  0  0  0  0  0  0  0  0
   -4.6748   -1.9635   -0.5174 C   0  0  0  0  0  0  0  0  0  0  0  0
   -4.7183   -2.5277    0.7590 C   0  0  0  0  0  0  0  0  0  0  0  0
   -3.5694   -2.6175    1.5524 C   0  0  0  0  0  0  0  0  0  0  0  0
   -5.8018   -1.8747   -1.2955 O   0  0  0  0  0  0  0  0  0  0  0  0
    1.0116   -0.1779   -0.4521 N   0  0  0  0  0  0  0  0  0  0  0  0
    1.2677    0.7715   -1.4243 C   0  0  0  0  0  0  0  0  0  0  0  0
    2.8061    0.7660   -1.6210 C   0  0  0  0  0  0  0  0  0  0  0  0
    3.3948    1.1362   -0.2785 C   0  0  0  0  0  0  0  0  0  0  0  0
    4.8877    1.1636   -0.3288 C   0  0  0  0  0  0  0  0  0  0  0  0
    5.5994    2.2984   -0.6547 C   0  0  0  0  0  0  0  0  0  0  0  0
    6.9781    2.1934   -0.6668 C   0  0  0  0  0  0  0  0  0  0  0  0
    7.6435    1.0178   -0.3701 C   0  0  0  0  0  0  0  0  0  0  0  0
    6.9325   -0.1177   -0.0438 C   0  0  0  0  0  0  0  0  0  0  0  0
    5.5578   -0.0234   -0.0290 C   0  0  0  0  0  0  0  0  0  0  0  0
    2.2947   -3.9088    0.9450 H   0  0  0  0  0  0  0  0  0  0  0  0
    1.3445   -3.1630    2.3317 H   0  0  0  0  0  0  0  0  0  0  0  0
    0.6192   -4.4583    1.2132 H   0  0  0  0  0  0  0  0  0  0  0  0
   -0.7122   -3.8704   -0.2884 H   0  0  0  0  0  0  0  0  0  0  0  0
    0.7769   -3.8122   -1.2343 H   0  0  0  0  0  0  0  0  0  0  0  0
   -1.2724   -2.7482   -2.2303 H   0  0  0  0  0  0  0  0  0  0  0  0
    0.2247   -1.7803   -2.3220 H   0  0  0  0  0  0  0  0  0  0  0  0
    0.7366   -1.1151    1.8665 H   0  0  0  0  0  0  0  0  0  0  0  0
   -1.2994   -1.6800    2.7986 H   0  0  0  0  0  0  0  0  0  0  0  0
   -0.9039   -3.2250    2.0362 H   0  0  0  0  0  0  0  0  0  0  0  0
   -1.3256    0.0745   -2.7650 H   0  0  0  0  0  0  0  0  0  0  0  0
   -1.4345    0.1529    1.7300 H   0  0  0  0  0  0  0  0  0  0  0  0
   -0.0978    1.2391    1.3979 H   0  0  0  0  0  0  0  0  0  0  0  0
   -1.8248    3.1709    2.3933 H   0  0  0  0  0  0  0  0  0  0  0  0
   -3.2123    5.2150    2.5061 H   0  0  0  0  0  0  0  0  0  0  0  0
   -4.6681    5.8153    0.6693 H   0  0  0  0  0  0  0  0  0  0  0  0
   -4.7688    4.3476   -1.3685 H   0  0  0  0  0  0  0  0  0  0  0  0
   -3.7353    2.0383   -2.4510 H   0  0  0  0  0  0  0  0  0  0  0  0
   -5.6547   -2.9096    1.1581 H   0  0  0  0  0  0  0  0  0  0  0  0
   -3.5952   -3.0538    2.5423 H   0  0  0  0  0  0  0  0  0  0  0  0
   -6.6493   -1.5219   -0.8529 H   0  0  0  0  0  0  0  0  0  0  0  0
    1.7519   -0.9141   -0.3151 H   0  0  0  0  0  0  0  0  0  0  0  0
    0.8978    0.4834   -2.4241 H   0  0  0  0  0  0  0  0  0  0  0  0
    1.0566    1.8297   -1.1862 H   0  0  0  0  0  0  0  0  0  0  0  0
    3.0917    1.4655   -2.4114 H   0  0  0  0  0  0  0  0  0  0  0  0
    3.1080   -0.2855   -1.8177 H   0  0  0  0  0  0  0  0  0  0  0  0
    2.9888    2.1201    0.0301 H   0  0  0  0  0  0  0  0  0  0  0  0
    3.0891    0.3922    0.4729 H   0  0  0  0  0  0  0  0  0  0  0  0
    5.0725    3.2145   -0.8854 H   0  0  0  0  0  0  0  0  0  0  0  0
    7.5793    3.0599   -0.9171 H   0  0  0  0  0  0  0  0  0  0  0  0
    8.7234    0.9300   -0.3774 H   0  0  0  0  0  0  0  0  0  0  0  0
    7.3985   -1.0639    0.1971 H   0  0  0  0  0  0  0  0  0  0  0  0
    4.9949   -0.9038    0.2241 H   0  0  0  0  0  0  0  0  0  0  0  0
  1  2  1  0
  2  3  1  0
  3  4  1  0
  5  4  1  6
  5  6  1  0
  6  7  1  0
  7  8  1  0
  8  9  1  0
  9 10  2  0
 10 11  1  0
 11 12  1  0
 12 13  1  0
 13 14  1  0
 14 15  2  0
 15 16  1  0
 15 17  1  0
 17 18  2  0
 18 19  1  0
 19 20  2  0
 20 21  1  0
 21 22  2  0
 22 23  1  0
 11 24  2  0
 24 25  1  0
 25 26  2  0
 24 27  1  0
  6 28  1  6
 28 29  1  0
 29 30  1  0
 30 31  1  0
 31 32  1  0
 32 33  2  0
 33 34  1  0
 34 35  2  0
 35 36  1  0
 36 37  2  0
  7  2  1  0
 26  9  1  0
 37 32  1  0
 10  5  1  0
 23 14  1  0
 13  5  1  0
 22 17  1  0
 16  6  1  0
  1 38  1  0
  1 39  1  0
  1 40  1  0
  3 41  1  0
  3 42  1  0
  4 43  1  0
  4 44  1  0
  7 45  1  0
  8 46  1  0
  8 47  1  0
 13 48  1  6
 16 49  1  0
 16 50  1  0
 18 51  1  0
 19 52  1  0
 20 53  1  0
 21 54  1  0
 23 55  1  0
 25 56  1  0
 26 57  1  0
 27 58  1  0
 28 59  1  0
 29 60  1  0
 29 61  1  0
 30 62  1  0
 30 63  1  0
 31 64  1  0
 31 65  1  0
 33 66  1  0
 34 67  1  0
 35 68  1  0
 36 69  1  0
 37 70  1  0
M  END
>  <Ligand ID>  (1) 
LIG0004610

>  <Ligand>  (1) 
CHEMBL2113378

>  <SMILES>  (1) 
CN1CC[C@]23[C@@]4(C1Cc1c2c(O[C@H]3c2c(C4)c3ccccc3[nH]2)c(cc1)O)NCCCc1ccccc1

>  <CID>  (1) 
71456257.0

>  <ChEMBL ID>  (1) 
nan

>  <InChiKey>  (1) 
YTWJWDDYBVMLGJ-ZCPWPLGKSA-N

>  <InChi>  (1) 
InChI=1S/C32H33N3O2/c1-35-17-15-31-27-21-13-14-25(36)29(27)37-30(31)28-23(22-11-5-6-12-24(22)34-28)19-32(31,26(35)18-21)33-16-7-10-20-8-3-2-4-9-20/h2-6,8-9,11-14,26,30,33-34,36H,7,10,15-19H2,1H3/t26?,30-,31-,32+/m0/s1

>  <IUPAC Name>  (1) 
(1R,2S,13R)-22-methyl-2-(3-phenylpropylamino)-14-oxa-11,22-diazaheptacyclo[13.9.1.01,13.02,21.04,12.05,10.019,25]pentacosa-4(12),5,7,9,15,17,19(25)-heptaen-16-ol

$$$$
