
     RDKit          3D

 39 40  0  0  0  0  0  0  0  0999 V2000
    0.4282   -3.5937    1.1861 N   0  0  0  0  0  0  0  0  0  0  0  0
    1.3201   -2.7020    0.4394 C   0  0  0  0  0  0  0  0  0  0  0  0
    0.7207   -1.3197    0.5480 C   0  0  2  0  0  0  0  0  0  0  0  0
   -0.5644   -1.2723    0.0094 O   0  0  0  0  0  0  0  0  0  0  0  0
   -0.9581    0.0640    0.0791 C   0  0  0  0  0  0  0  0  0  0  0  0
   -0.3690    0.7235   -1.1453 C   0  0  0  0  0  0  0  0  0  0  0  0
    1.1118    0.7169   -0.8872 C   0  0  0  0  0  0  0  0  0  0  0  0
    1.5915   -0.2842   -0.0667 C   0  0  0  0  0  0  0  0  0  0  0  0
    2.9464   -0.3193    0.1910 C   0  0  0  0  0  0  0  0  0  0  0  0
    3.8006    0.6329   -0.3653 C   0  0  0  0  0  0  0  0  0  0  0  0
    3.2830    1.6143   -1.1777 C   0  0  0  0  0  0  0  0  0  0  0  0
    1.9343    1.6741   -1.4525 C   0  0  0  0  0  0  0  0  0  0  0  0
    1.3754    2.6507   -2.2685 O   0  0  0  0  0  0  0  0  0  0  0  0
    4.1165    2.5731   -1.7424 O   0  0  0  0  0  0  0  0  0  0  0  0
   -2.4184    0.2701    0.2679 C   0  0  0  0  0  0  0  0  0  0  0  0
   -2.6933    1.7486    0.3246 C   0  0  0  0  0  0  0  0  0  0  0  0
   -2.7253   -0.2761    1.6701 C   0  0  0  0  0  0  0  0  0  0  0  0
   -3.2972   -0.4694   -0.6848 C   0  0  0  0  0  0  0  0  0  0  0  0
    0.1359   -3.1285    2.0746 H   0  0  0  0  0  0  0  0  0  0  0  0
    0.9312   -4.4901    1.4023 H   0  0  0  0  0  0  0  0  0  0  0  0
    2.2838   -2.7470    0.9685 H   0  0  0  0  0  0  0  0  0  0  0  0
    1.3406   -3.0516   -0.6077 H   0  0  0  0  0  0  0  0  0  0  0  0
    0.5973   -1.0309    1.6120 H   0  0  0  0  0  0  0  0  0  0  0  0
   -0.4535    0.5650    0.9491 H   0  0  0  0  0  0  0  0  0  0  0  0
   -0.5322    0.0946   -2.0581 H   0  0  0  0  0  0  0  0  0  0  0  0
   -0.7668    1.7180   -1.3636 H   0  0  0  0  0  0  0  0  0  0  0  0
    3.4215   -1.0605    0.8190 H   0  0  0  0  0  0  0  0  0  0  0  0
    4.8629    0.6063   -0.1638 H   0  0  0  0  0  0  0  0  0  0  0  0
    1.2982    3.5739   -1.8499 H   0  0  0  0  0  0  0  0  0  0  0  0
    4.4182    3.3751   -1.1719 H   0  0  0  0  0  0  0  0  0  0  0  0
   -2.9210    2.1961   -0.6588 H   0  0  0  0  0  0  0  0  0  0  0  0
   -3.5535    1.9010    1.0126 H   0  0  0  0  0  0  0  0  0  0  0  0
   -1.8173    2.2324    0.8139 H   0  0  0  0  0  0  0  0  0  0  0  0
   -2.4991   -1.3516    1.6379 H   0  0  0  0  0  0  0  0  0  0  0  0
   -1.9389    0.1911    2.3178 H   0  0  0  0  0  0  0  0  0  0  0  0
   -3.7463   -0.0161    1.9956 H   0  0  0  0  0  0  0  0  0  0  0  0
   -3.4456    0.0472   -1.6480 H   0  0  0  0  0  0  0  0  0  0  0  0
   -2.9128   -1.4949   -0.7896 H   0  0  0  0  0  0  0  0  0  0  0  0
   -4.3052   -0.5611   -0.2171 H   0  0  0  0  0  0  0  0  0  0  0  0
  1  2  1  0
  2  3  1  0
  3  4  1  0
  4  5  1  0
  5  6  1  0
  6  7  1  0
  7  8  2  0
  8  9  1  0
  9 10  2  0
 10 11  1  0
 11 12  2  0
 12 13  1  0
 11 14  1  0
  5 15  1  0
 15 16  1  0
 15 17  1  0
 15 18  1  0
  8  3  1  0
 12  7  1  0
  1 19  1  0
  1 20  1  0
  2 21  1  0
  2 22  1  0
  3 23  1  1
  5 24  1  0
  6 25  1  0
  6 26  1  0
  9 27  1  0
 10 28  1  0
 13 29  1  0
 14 30  1  0
 16 31  1  0
 16 32  1  0
 16 33  1  0
 17 34  1  0
 17 35  1  0
 17 36  1  0
 18 37  1  0
 18 38  1  0
 18 39  1  0
M  END
>  <Ligand ID>  (1) 
LIG0003385

>  <Ligand>  (1) 
CHEMBL82899

>  <SMILES>  (1) 
NC[C@@H]1OC(Cc2c1ccc(c2O)O)C(C)(C)C

>  <CID>  (1) 
44320053.0

>  <ChEMBL ID>  (1) 
nan

>  <InChiKey>  (1) 
OOZQGBSETLAPCT-PXYINDEMSA-N

>  <InChi>  (1) 
InChI=1S/C14H21NO3/c1-14(2,3)12-6-9-8(11(7-15)18-12)4-5-10(16)13(9)17/h4-5,11-12,16-17H,6-7,15H2,1-3H3/t11-,12?/m0/s1

>  <IUPAC Name>  (1) 
(1R)-1-(aminomethyl)-3-tert-butyl-3,4-dihydro-1H-isochromene-5,6-diol

$$$$
