
     RDKit          3D

147152  0  0  0  0  0  0  0  0999 V2000
    6.5789    8.4431    2.4054 N   0  0  0  0  0  0  0  0  0  0  0  0
    6.2672    7.8905    1.1102 C   0  0  0  0  0  0  0  0  0  0  0  0
    5.4247    6.9463    0.9633 N   0  0  0  0  0  0  0  0  0  0  0  0
    4.6702    6.2940    2.0064 C   0  0  0  0  0  0  0  0  0  0  0  0
    4.2975    4.9148    1.4344 C   0  0  0  0  0  0  0  0  0  0  0  0
    3.4932    4.1994    2.4780 C   0  0  0  0  0  0  0  0  0  0  0  0
    3.0500    2.8127    2.0863 C   0  0  0  0  0  0  0  0  0  0  0  0
    2.2229    2.8066    0.8769 C   0  0  2  0  0  0  0  0  0  0  0  0
    0.9750    3.5800    0.9569 N   0  0  0  0  0  0  0  0  0  0  0  0
    0.3315    3.8269   -0.2593 C   0  0  0  0  0  0  0  0  0  0  0  0
    0.7108    3.1579   -1.2432 O   0  0  0  0  0  0  0  0  0  0  0  0
   -0.7884    4.7915   -0.5652 C   0  0  2  0  0  0  0  0  0  0  0  0
   -1.7186    5.1657    0.4669 C   0  0  0  0  0  0  0  0  0  0  0  0
   -2.5756    6.3002    0.0497 C   0  0  0  0  0  0  0  0  0  0  0  0
   -3.7226    6.3510   -0.6300 C   0  0  0  0  0  0  0  0  0  0  0  0
   -4.3941    7.5597   -0.9076 C   0  0  0  0  0  0  0  0  0  0  0  0
   -3.8840    8.7677   -0.4788 C   0  0  0  0  0  0  0  0  0  0  0  0
   -2.7148    8.7360    0.2154 C   0  0  0  0  0  0  0  0  0  0  0  0
   -2.0675    7.5607    0.4816 C   0  0  0  0  0  0  0  0  0  0  0  0
   -1.4181    4.0307   -1.7365 N   0  0  0  0  0  0  0  0  0  0  0  0
   -1.7189    2.6360   -1.5092 C   0  0  0  0  0  0  0  0  0  0  0  0
   -1.6695    2.2856   -0.3233 O   0  0  0  0  0  0  0  0  0  0  0  0
   -2.0794    1.6658   -2.6317 C   0  0  2  0  0  0  0  0  0  0  0  0
   -3.2444    2.2524   -3.3851 C   0  0  0  0  0  0  0  0  0  0  0  0
   -4.4844    2.2274   -2.5968 C   0  0  0  0  0  0  0  0  0  0  0  0
   -5.5143    1.4094   -3.1115 C   0  0  0  0  0  0  0  0  0  0  0  0
   -6.6960    1.2247   -2.4577 C   0  0  0  0  0  0  0  0  0  0  0  0
   -6.9334    1.8339   -1.2594 C   0  0  0  0  0  0  0  0  0  0  0  0
   -5.9424    2.6358   -0.7387 C   0  0  0  0  0  0  0  0  0  0  0  0
   -4.7516    2.8141   -1.4085 C   0  0  0  0  0  0  0  0  0  0  0  0
   -2.6508    0.4951   -1.9423 N   0  0  0  0  0  0  0  0  0  0  0  0
   -2.0394   -0.7077   -1.5334 C   0  0  0  0  0  0  0  0  0  0  0  0
   -0.8525   -0.8475   -1.7748 O   0  0  0  0  0  0  0  0  0  0  0  0
   -2.9538   -1.6572   -0.8441 C   0  0  2  0  0  0  0  0  0  0  0  0
   -3.4925   -0.8626    0.3750 C   0  0  0  0  0  0  0  0  0  0  0  0
   -4.4715   -1.7311    1.1147 C   0  0  0  0  0  0  0  0  0  0  0  0
   -5.0738   -1.0341    2.3231 C   0  0  0  0  0  0  0  0  0  0  0  0
   -6.0052   -1.9652    2.9299 N   0  0  0  0  0  0  0  0  0  0  0  0
   -7.1150   -2.2188    2.3442 C   0  0  0  0  0  0  0  0  0  0  0  0
   -7.9901   -3.1441    2.9954 N   0  0  0  0  0  0  0  0  0  0  0  0
   -7.5379   -1.6561    1.1193 N   0  0  0  0  0  0  0  0  0  0  0  0
   -2.3993   -2.8417   -0.2724 N   0  0  0  0  0  0  0  0  0  0  0  0
   -3.1181   -4.0923   -0.4169 C   0  0  0  0  0  0  0  0  0  0  0  0
   -4.1353   -3.9475   -1.1710 O   0  0  0  0  0  0  0  0  0  0  0  0
   -2.8500   -5.3686    0.1369 C   0  0  1  0  0  0  0  0  0  0  0  0
   -1.5886   -5.9787    0.3032 N   0  0  0  0  0  0  0  0  0  0  0  0
   -0.3800   -5.7092   -0.4329 C   0  0  0  0  0  0  0  0  0  0  0  0
   -0.5078   -4.8788   -1.3187 O   0  0  0  0  0  0  0  0  0  0  0  0
    0.8225   -6.4651   -0.0234 C   0  0  2  0  0  0  0  0  0  0  0  0
    2.0902   -5.9611   -0.4554 N   0  0  0  0  0  0  0  0  0  0  0  0
    2.4230   -4.5858   -0.5891 C   0  0  0  0  0  0  0  0  0  0  0  0
    1.5190   -3.7947   -0.3200 O   0  0  0  0  0  0  0  0  0  0  0  0
    3.7531   -4.0748   -1.0281 C   0  0  1  0  0  0  0  0  0  0  0  0
    3.6388   -2.6960   -1.4015 N   0  0  0  0  0  0  0  0  0  0  0  0
    3.4864   -1.5940   -0.5099 C   0  0  0  0  0  0  0  0  0  0  0  0
    3.4949   -1.8499    0.6899 O   0  0  0  0  0  0  0  0  0  0  0  0
    3.3352   -0.2633   -1.1319 C   0  0  1  0  0  0  0  0  0  0  0  0
    3.3302    0.8664   -0.2508 N   0  0  0  0  0  0  0  0  0  0  0  0
    2.0972    1.5368    0.1419 C   0  0  0  0  0  0  0  0  0  0  0  0
    1.0870    0.9383   -0.2044 O   0  0  0  0  0  0  0  0  0  0  0  0
    4.3756   -0.0424   -2.2064 C   0  0  0  0  0  0  0  0  0  0  0  0
    4.7560   -4.3302    0.0739 C   0  0  0  0  0  0  0  0  0  0  0  0
    6.1305   -3.9099   -0.2262 C   0  0  0  0  0  0  0  0  0  0  0  0
    6.9593   -4.8435   -0.8560 C   0  0  0  0  0  0  0  0  0  0  0  0
    8.2662   -4.5753   -1.1828 C   0  0  0  0  0  0  0  0  0  0  0  0
    8.8300   -3.3243   -0.8905 C   0  0  0  0  0  0  0  0  0  0  0  0
    8.0114   -2.4126   -0.2719 C   0  0  0  0  0  0  0  0  0  0  0  0
    6.6948   -2.6957    0.0536 C   0  0  0  0  0  0  0  0  0  0  0  0
    2.9596   -7.0757   -0.7315 C   0  0  0  0  0  0  0  0  0  0  0  0
    1.9820   -7.9375   -1.5516 C   0  0  0  0  0  0  0  0  0  0  0  0
    0.7833   -7.8835   -0.5958 C   0  0  0  0  0  0  0  0  0  0  0  0
   -1.6911   -6.9985    1.3281 C   0  0  0  0  0  0  0  0  0  0  0  0
   -3.0729   -6.8562    1.9111 C   0  0  0  0  0  0  0  0  0  0  0  0
   -3.5201   -5.4571    1.5303 C   0  0  0  0  0  0  0  0  0  0  0  0
    6.8945    8.3936   -0.0746 N   0  0  0  0  0  0  0  0  0  0  0  0
    7.1994    7.9307    3.0832 H   0  0  0  0  0  0  0  0  0  0  0  0
    6.2159    9.3538    2.7312 H   0  0  0  0  0  0  0  0  0  0  0  0
    5.3311    6.1768    2.8944 H   0  0  0  0  0  0  0  0  0  0  0  0
    3.7593    6.8721    2.1905 H   0  0  0  0  0  0  0  0  0  0  0  0
    3.7225    5.1636    0.5119 H   0  0  0  0  0  0  0  0  0  0  0  0
    5.2496    4.4150    1.2194 H   0  0  0  0  0  0  0  0  0  0  0  0
    4.1705    4.0965    3.3745 H   0  0  0  0  0  0  0  0  0  0  0  0
    2.6465    4.8197    2.7903 H   0  0  0  0  0  0  0  0  0  0  0  0
    3.9361    2.1658    1.9129 H   0  0  0  0  0  0  0  0  0  0  0  0
    2.5119    2.4109    2.9890 H   0  0  0  0  0  0  0  0  0  0  0  0
    2.7967    3.4361    0.0707 H   0  0  0  0  0  0  0  0  0  0  0  0
    0.5516    3.9277    1.8058 H   0  0  0  0  0  0  0  0  0  0  0  0
   -0.2559    5.6236   -1.1142 H   0  0  0  0  0  0  0  0  0  0  0  0
   -2.4514    4.3063    0.6395 H   0  0  0  0  0  0  0  0  0  0  0  0
   -1.2616    5.3934    1.4648 H   0  0  0  0  0  0  0  0  0  0  0  0
   -4.1927    5.4925   -1.0032 H   0  0  0  0  0  0  0  0  0  0  0  0
   -5.3158    7.5449   -1.4594 H   0  0  0  0  0  0  0  0  0  0  0  0
   -4.4300    9.6460   -0.7154 H   0  0  0  0  0  0  0  0  0  0  0  0
   -2.2983    9.6634    0.5576 H   0  0  0  0  0  0  0  0  0  0  0  0
   -1.1461    7.6181    1.0370 H   0  0  0  0  0  0  0  0  0  0  0  0
   -1.6300    4.4254   -2.6048 H   0  0  0  0  0  0  0  0  0  0  0  0
   -1.1981    1.4742   -3.2068 H   0  0  0  0  0  0  0  0  0  0  0  0
   -3.0171    3.3379   -3.5860 H   0  0  0  0  0  0  0  0  0  0  0  0
   -3.3680    1.8120   -4.3888 H   0  0  0  0  0  0  0  0  0  0  0  0
   -5.3797    0.8986   -4.0683 H   0  0  0  0  0  0  0  0  0  0  0  0
   -7.4492    0.5908   -2.8941 H   0  0  0  0  0  0  0  0  0  0  0  0
   -7.8852    1.6512   -0.7873 H   0  0  0  0  0  0  0  0  0  0  0  0
   -6.1405    3.1140    0.2135 H   0  0  0  0  0  0  0  0  0  0  0  0
   -3.9958    3.4087   -0.9494 H   0  0  0  0  0  0  0  0  0  0  0  0
   -3.6598    0.5756   -1.7356 H   0  0  0  0  0  0  0  0  0  0  0  0
   -3.8603   -1.8450   -1.4648 H   0  0  0  0  0  0  0  0  0  0  0  0
   -3.8600    0.1174    0.1278 H   0  0  0  0  0  0  0  0  0  0  0  0
   -2.5841   -0.7915    1.0447 H   0  0  0  0  0  0  0  0  0  0  0  0
   -5.3020   -2.0103    0.4170 H   0  0  0  0  0  0  0  0  0  0  0  0
   -4.0111   -2.6438    1.4851 H   0  0  0  0  0  0  0  0  0  0  0  0
   -4.2560   -0.8862    3.0607 H   0  0  0  0  0  0  0  0  0  0  0  0
   -5.4972   -0.0657    2.0639 H   0  0  0  0  0  0  0  0  0  0  0  0
   -8.0821   -3.1319    4.0482 H   0  0  0  0  0  0  0  0  0  0  0  0
   -8.5527   -3.8439    2.4635 H   0  0  0  0  0  0  0  0  0  0  0  0
   -7.6979   -0.6050    1.1284 H   0  0  0  0  0  0  0  0  0  0  0  0
   -7.6911   -2.2204    0.2355 H   0  0  0  0  0  0  0  0  0  0  0  0
   -1.5302   -2.9261    0.2453 H   0  0  0  0  0  0  0  0  0  0  0  0
   -3.4440   -6.1398   -0.4971 H   0  0  0  0  0  0  0  0  0  0  0  0
    0.8307   -6.6311    1.0882 H   0  0  0  0  0  0  0  0  0  0  0  0
    4.1420   -4.6343   -1.8937 H   0  0  0  0  0  0  0  0  0  0  0  0
    3.6663   -2.4541   -2.3979 H   0  0  0  0  0  0  0  0  0  0  0  0
    2.3278   -0.3374   -1.6636 H   0  0  0  0  0  0  0  0  0  0  0  0
    4.1725    1.2552    0.1457 H   0  0  0  0  0  0  0  0  0  0  0  0
    4.5374    1.0465   -2.3302 H   0  0  0  0  0  0  0  0  0  0  0  0
    3.9965   -0.4047   -3.1946 H   0  0  0  0  0  0  0  0  0  0  0  0
    5.3343   -0.5012   -1.9261 H   0  0  0  0  0  0  0  0  0  0  0  0
    4.4707   -3.8994    1.0554 H   0  0  0  0  0  0  0  0  0  0  0  0
    4.7584   -5.4411    0.2624 H   0  0  0  0  0  0  0  0  0  0  0  0
    6.5666   -5.8306   -1.1058 H   0  0  0  0  0  0  0  0  0  0  0  0
    8.8673   -5.3358   -1.6747 H   0  0  0  0  0  0  0  0  0  0  0  0
    9.8634   -3.1076   -1.1464 H   0  0  0  0  0  0  0  0  0  0  0  0
    8.4106   -1.4156   -0.0199 H   0  0  0  0  0  0  0  0  0  0  0  0
    6.1462   -1.9177    0.5430 H   0  0  0  0  0  0  0  0  0  0  0  0
    3.8075   -6.8030   -1.4177 H   0  0  0  0  0  0  0  0  0  0  0  0
    3.2782   -7.5964    0.1785 H   0  0  0  0  0  0  0  0  0  0  0  0
    1.7770   -7.3668   -2.4654 H   0  0  0  0  0  0  0  0  0  0  0  0
    2.3732   -8.9340   -1.7048 H   0  0  0  0  0  0  0  0  0  0  0  0
    0.9906   -8.6556    0.1707 H   0  0  0  0  0  0  0  0  0  0  0  0
   -0.0949   -8.0726   -1.2130 H   0  0  0  0  0  0  0  0  0  0  0  0
   -0.9525   -6.8802    2.1344 H   0  0  0  0  0  0  0  0  0  0  0  0
   -1.5169   -8.0093    0.9025 H   0  0  0  0  0  0  0  0  0  0  0  0
   -2.9936   -6.8674    3.0182 H   0  0  0  0  0  0  0  0  0  0  0  0
   -3.7814   -7.6311    1.6149 H   0  0  0  0  0  0  0  0  0  0  0  0
   -4.5994   -5.4821    1.3535 H   0  0  0  0  0  0  0  0  0  0  0  0
   -3.1652   -4.7012    2.2183 H   0  0  0  0  0  0  0  0  0  0  0  0
    6.2834    9.0098   -0.6685 H   0  0  0  0  0  0  0  0  0  0  0  0
    7.8771    8.1632   -0.3295 H   0  0  0  0  0  0  0  0  0  0  0  0
  1  2  1  0
  2  3  2  3
  3  4  1  0
  4  5  1  0
  5  6  1  0
  6  7  1  0
  7  8  1  0
  8  9  1  0
  9 10  1  0
 10 11  2  0
 10 12  1  0
 12 13  1  0
 13 14  1  0
 14 15  2  0
 15 16  1  0
 16 17  2  0
 17 18  1  0
 18 19  2  0
 12 20  1  0
 20 21  1  0
 21 22  2  0
 21 23  1  0
 23 24  1  0
 24 25  1  0
 25 26  2  0
 26 27  1  0
 27 28  2  0
 28 29  1  0
 29 30  2  0
 23 31  1  0
 31 32  1  0
 32 33  2  0
 32 34  1  0
 34 35  1  0
 35 36  1  0
 36 37  1  0
 37 38  1  0
 38 39  2  3
 39 40  1  0
 39 41  1  0
 34 42  1  0
 42 43  1  0
 43 44  2  0
 43 45  1  0
 45 46  1  0
 46 47  1  0
 47 48  2  0
 47 49  1  0
 49 50  1  0
 50 51  1  0
 51 52  2  0
 51 53  1  0
 53 54  1  0
 54 55  1  0
 55 56  2  0
 55 57  1  0
 57 58  1  0
 58 59  1  0
 59 60  2  0
 57 61  1  0
 53 62  1  0
 62 63  1  0
 63 64  2  0
 64 65  1  0
 65 66  2  0
 66 67  1  0
 67 68  2  0
 50 69  1  0
 69 70  1  0
 70 71  1  0
 46 72  1  0
 72 73  1  0
 73 74  1  0
  2 75  1  0
 59  8  1  0
 68 63  1  0
 19 14  1  0
 30 25  1  0
 74 45  1  0
 71 49  1  0
  1 76  1  0
  1 77  1  0
  4 78  1  0
  4 79  1  0
  5 80  1  0
  5 81  1  0
  6 82  1  0
  6 83  1  0
  7 84  1  0
  7 85  1  0
  8 86  1  6
  9 87  1  0
 12 88  1  6
 13 89  1  0
 13 90  1  0
 15 91  1  0
 16 92  1  0
 17 93  1  0
 18 94  1  0
 19 95  1  0
 20 96  1  0
 23 97  1  6
 24 98  1  0
 24 99  1  0
 26100  1  0
 27101  1  0
 28102  1  0
 29103  1  0
 30104  1  0
 31105  1  0
 34106  1  6
 35107  1  0
 35108  1  0
 36109  1  0
 36110  1  0
 37111  1  0
 37112  1  0
 40113  1  0
 40114  1  0
 41115  1  0
 41116  1  0
 42117  1  0
 45118  1  6
 49119  1  1
 53120  1  6
 54121  1  0
 57122  1  6
 58123  1  0
 61124  1  0
 61125  1  0
 61126  1  0
 62127  1  0
 62128  1  0
 64129  1  0
 65130  1  0
 66131  1  0
 67132  1  0
 68133  1  0
 69134  1  0
 69135  1  0
 70136  1  0
 70137  1  0
 71138  1  0
 71139  1  0
 72140  1  0
 72141  1  0
 73142  1  0
 73143  1  0
 74144  1  0
 74145  1  0
 75146  1  0
 75147  1  0
M  END
>  <Ligand ID>  (1) 
LIG0005501

>  <Ligand>  (1) 
CHEMBL3578000

>  <SMILES>  (1) 
NC(=NCCCC[C@@H]1NC(=O)[C@H](Cc2ccccc2)NC(=O)[C@H](Cc2ccccc2)NC(=O)[C@H](CCCN=C(N)N)NC(=O)[C@H]2N(C(=O)[C@@H]3N(C(=O)[C@@H](NC(=O)[C@@H](NC1=O)C)Cc1ccccc1)CCC3)CCC2)N

>  <CID>  (1) 
122178171.0

>  <ChEMBL ID>  (1) 
nan

>  <InChiKey>  (1) 
KEMPMTFFIIKEBA-LVXPXGLXSA-N

>  <InChi>  (1) 
InChI=1S/C53H72N14O8/c1-33-44(68)65-41(32-36-20-9-4-10-21-36)50(74)67-29-15-25-43(67)51(75)66-28-14-24-42(66)49(73)62-38(23-13-27-59-53(56)57)46(70)63-40(31-35-18-7-3-8-19-35)48(72)64-39(30-34-16-5-2-6-17-34)47(71)61-37(45(69)60-33)22-11-12-26-58-52(54)55/h2-10,16-21,33,37-43H,11-15,22-32H2,1H3,(H,60,69)(H,61,71)(H,62,73)(H,63,70)(H,64,72)(H,65,68)(H4,54,55,58)(H4,56,57,59)/t33-,37-,38-,39-,40-,41-,42-,43+/m0/s1

>  <IUPAC Name>  (1) 
2-[3-[(3R,9S,12S,15S,18S,21S,24S,27S)-9,18,21-tribenzyl-15-[4-(diaminomethylideneamino)butyl]-12-methyl-2,8,11,14,17,20,23,26-octaoxo-1,7,10,13,16,19,22,25-octazatricyclo[25.3.0.03,7]triacontan-24-yl]propyl]guanidine

$$$$
