
     RDKit          3D

 23 22  0  0  0  0  0  0  0  0999 V2000
   -3.5753    1.5316   -0.2715 O   0  0  0  0  0  0  0  0  0  0  0  0
   -3.3588    0.2649    0.2717 C   0  0  0  0  0  0  0  0  0  0  0  0
   -4.3487   -0.2781    0.8506 O   0  0  0  0  0  0  0  0  0  0  0  0
   -2.0394   -0.4191    0.1804 C   0  0  0  0  0  0  0  0  0  0  0  0
   -1.1024    0.4839   -0.5556 C   0  0  0  0  0  0  0  0  0  0  0  0
    0.2883   -0.1214   -0.7075 C   0  0  0  0  0  0  0  0  0  0  0  0
    0.9033   -0.4014    0.6447 C   0  0  0  0  0  0  0  0  0  0  0  0
    2.2693   -0.9965    0.5393 C   0  0  0  0  0  0  0  0  0  0  0  0
    3.2673   -0.1749   -0.1452 C   0  0  0  0  0  0  0  0  0  0  0  0
    4.4344   -0.6695   -0.2753 O   0  0  0  0  0  0  0  0  0  0  0  0
    3.0724    1.0807   -0.6637 O   0  0  0  0  0  0  0  0  0  0  0  0
   -4.3652    2.0905    0.0330 H   0  0  0  0  0  0  0  0  0  0  0  0
   -1.7121   -0.6518    1.2041 H   0  0  0  0  0  0  0  0  0  0  0  0
   -2.2045   -1.3544   -0.3690 H   0  0  0  0  0  0  0  0  0  0  0  0
   -1.5368    0.7081   -1.5515 H   0  0  0  0  0  0  0  0  0  0  0  0
   -0.9903    1.4426   -0.0307 H   0  0  0  0  0  0  0  0  0  0  0  0
    0.8732    0.6416   -1.2561 H   0  0  0  0  0  0  0  0  0  0  0  0
    0.2585   -1.0700   -1.2831 H   0  0  0  0  0  0  0  0  0  0  0  0
    0.2738   -1.1092    1.2340 H   0  0  0  0  0  0  0  0  0  0  0  0
    0.9912    0.5330    1.2370 H   0  0  0  0  0  0  0  0  0  0  0  0
    2.1445   -1.9405   -0.0709 H   0  0  0  0  0  0  0  0  0  0  0  0
    2.6491   -1.3713    1.5169 H   0  0  0  0  0  0  0  0  0  0  0  0
    3.8083    1.7813   -0.5317 H   0  0  0  0  0  0  0  0  0  0  0  0
  1  2  1  0
  2  3  2  0
  2  4  1  0
  4  5  1  0
  5  6  1  0
  6  7  1  0
  7  8  1  0
  8  9  1  0
  9 10  2  0
  9 11  1  0
  1 12  1  0
  4 13  1  0
  4 14  1  0
  5 15  1  0
  5 16  1  0
  6 17  1  0
  6 18  1  0
  7 19  1  0
  7 20  1  0
  8 21  1  0
  8 22  1  0
 11 23  1  0
M  END
>  <Ligand ID>  (1) 
LIG0000288

>  <Ligand>  (1) 
Pimelic Acid

>  <SMILES>  (1) 
OC(=O)CCCCCC(=O)O

>  <CID>  (1) 
385.0

>  <ChEMBL ID>  (1) 
nan

>  <InChiKey>  (1) 
WLJVNTCWHIRURA-UHFFFAOYSA-N

>  <InChi>  (1) 
InChI=1S/C7H12O4/c8-6(9)4-2-1-3-5-7(10)11/h1-5H2,(H,8,9)(H,10,11)

>  <IUPAC Name>  (1) 
heptanedioic acid

$$$$
