
     RDKit          3D

 24 24  0  0  0  0  0  0  0  0999 V2000
   -3.4030    0.0833    0.0711 C   0  0  0  0  0  0  0  0  0  0  0  0
   -2.3224    1.0004   -0.4218 C   0  0  0  0  0  0  0  0  0  0  0  0
   -1.0486    0.2163   -0.7649 C   0  0  0  0  0  0  0  0  0  0  0  0
   -0.6183   -0.4640    0.5070 C   0  0  0  0  0  0  0  0  0  0  0  0
    0.6063   -1.2839    0.4355 C   0  0  0  0  0  0  0  0  0  0  0  0
    1.8555   -0.5945    0.1427 C   0  0  0  0  0  0  0  0  0  0  0  0
    2.1644    0.7244   -0.0483 C   0  0  0  0  0  0  0  0  0  0  0  0
    3.5395    0.8372   -0.2996 C   0  0  0  0  0  0  0  0  0  0  0  0
    3.9877   -0.4639   -0.2417 C   0  0  0  0  0  0  0  0  0  0  0  0
    3.0033   -1.2560    0.0124 O   0  0  0  0  0  0  0  0  0  0  0  0
   -4.3727    0.4781   -0.3495 H   0  0  0  0  0  0  0  0  0  0  0  0
   -3.2564   -0.9725   -0.2325 H   0  0  0  0  0  0  0  0  0  0  0  0
   -3.5625    0.1335    1.1813 H   0  0  0  0  0  0  0  0  0  0  0  0
   -2.1203    1.7408    0.3747 H   0  0  0  0  0  0  0  0  0  0  0  0
   -2.6254    1.6109   -1.3146 H   0  0  0  0  0  0  0  0  0  0  0  0
   -1.2908   -0.5272   -1.5656 H   0  0  0  0  0  0  0  0  0  0  0  0
   -0.2843    0.8904   -1.1241 H   0  0  0  0  0  0  0  0  0  0  0  0
   -0.5807    0.3410    1.2780 H   0  0  0  0  0  0  0  0  0  0  0  0
   -1.5093   -1.0903    0.8146 H   0  0  0  0  0  0  0  0  0  0  0  0
    0.4396   -2.1751   -0.2333 H   0  0  0  0  0  0  0  0  0  0  0  0
    0.7347   -1.7701    1.4515 H   0  0  0  0  0  0  0  0  0  0  0  0
    1.5467    1.6017   -0.0169 H   0  0  0  0  0  0  0  0  0  0  0  0
    4.1099    1.7335   -0.4928 H   0  0  0  0  0  0  0  0  0  0  0  0
    5.0071   -0.7939   -0.3845 H   0  0  0  0  0  0  0  0  0  0  0  0
  1  2  1  0
  2  3  1  0
  3  4  1  0
  4  5  1  0
  5  6  1  0
  6  7  2  0
  7  8  1  0
  8  9  2  0
  9 10  1  0
 10  6  1  0
  1 11  1  0
  1 12  1  0
  1 13  1  0
  2 14  1  0
  2 15  1  0
  3 16  1  0
  3 17  1  0
  4 18  1  0
  4 19  1  0
  5 20  1  0
  5 21  1  0
  7 22  1  0
  8 23  1  0
  9 24  1  0
M  END
>  <Ligand ID>  (1) 
LIG0000545

>  <Ligand>  (1) 
2-pentylfuran

>  <SMILES>  (1) 
CCCCCc1ccco1

>  <CID>  (1) 
19602.0

>  <ChEMBL ID>  (1) 
nan

>  <InChiKey>  (1) 
YVBAUDVGOFCUSG-UHFFFAOYSA-N

>  <InChi>  (1) 
InChI=1S/C9H14O/c1-2-3-4-6-9-7-5-8-10-9/h5,7-8H,2-4,6H2,1H3

>  <IUPAC Name>  (1) 
2-pentylfuran

$$$$
