
     RDKit          3D

 36 38  0  0  0  0  0  0  0  0999 V2000
    2.7213    1.7064   -0.9144 C   0  0  0  0  0  0  0  0  0  0  0  0
    3.0123    0.3071   -1.1504 N   0  0  0  0  0  0  0  0  0  0  0  0
    4.1587   -0.0014   -1.8581 C   0  0  0  0  0  0  0  0  0  0  0  0
    4.2793   -1.3597   -1.8394 C   0  0  0  0  0  0  0  0  0  0  0  0
    3.2534   -1.8113   -1.1573 N   0  0  0  0  0  0  0  0  0  0  0  0
    2.4269   -0.8113   -0.7059 C   0  0  0  0  0  0  0  0  0  0  0  0
    1.3281   -1.0982    0.1779 C   0  0  0  0  0  0  0  0  0  0  0  0
    1.4359   -2.3186    0.8976 C   0  0  0  0  0  0  0  0  0  0  0  0
    0.6193   -2.6013    1.9686 C   0  0  0  0  0  0  0  0  0  0  0  0
   -0.3493   -1.7318    2.4138 C   0  0  0  0  0  0  0  0  0  0  0  0
   -0.4709   -0.5450    1.7231 C   0  0  0  0  0  0  0  0  0  0  0  0
    0.3566   -0.2701    0.6377 C   0  0  0  0  0  0  0  0  0  0  0  0
   -0.0347    0.8192   -0.1683 N   0  0  0  0  0  0  0  0  0  0  0  0
   -1.0030    1.8297    0.1661 C   0  0  0  0  0  0  0  0  0  0  0  0
   -2.3941    1.3281    0.2040 C   0  0  0  0  0  0  0  0  0  0  0  0
   -3.3275    1.4659    1.0746 N   0  0  0  0  0  0  0  0  0  0  0  0
   -4.5470    0.8018    0.7081 C   0  0  0  0  0  0  0  0  0  0  0  0
   -4.2165    0.0084   -0.5165 C   0  0  0  0  0  0  0  0  0  0  0  0
   -2.9387    0.5508   -0.8860 N   0  0  0  0  0  0  0  0  0  0  0  0
    2.1252    2.1752   -1.7103 H   0  0  0  0  0  0  0  0  0  0  0  0
    2.3567    1.8777    0.1109 H   0  0  0  0  0  0  0  0  0  0  0  0
    3.7016    2.2986   -0.9198 H   0  0  0  0  0  0  0  0  0  0  0  0
    4.8396    0.6817   -2.3397 H   0  0  0  0  0  0  0  0  0  0  0  0
    5.0477   -1.9745   -2.2838 H   0  0  0  0  0  0  0  0  0  0  0  0
    2.1566   -3.0655    0.6328 H   0  0  0  0  0  0  0  0  0  0  0  0
    0.7260   -3.5301    2.4910 H   0  0  0  0  0  0  0  0  0  0  0  0
   -0.9873   -1.9373    3.2461 H   0  0  0  0  0  0  0  0  0  0  0  0
   -1.2150    0.1436    2.0722 H   0  0  0  0  0  0  0  0  0  0  0  0
    0.3394    0.8780   -1.1483 H   0  0  0  0  0  0  0  0  0  0  0  0
   -0.6886    2.2228    1.1795 H   0  0  0  0  0  0  0  0  0  0  0  0
   -0.9419    2.7177   -0.4901 H   0  0  0  0  0  0  0  0  0  0  0  0
   -5.2871    1.5829    0.4296 H   0  0  0  0  0  0  0  0  0  0  0  0
   -4.8948    0.1800    1.5645 H   0  0  0  0  0  0  0  0  0  0  0  0
   -4.0990   -1.0565   -0.2287 H   0  0  0  0  0  0  0  0  0  0  0  0
   -5.0074    0.1479   -1.2885 H   0  0  0  0  0  0  0  0  0  0  0  0
   -2.4816    0.3891   -1.8306 H   0  0  0  0  0  0  0  0  0  0  0  0
  1  2  1  0
  2  3  1  0
  3  4  2  0
  4  5  1  0
  5  6  2  0
  6  7  1  0
  7  8  2  0
  8  9  1  0
  9 10  2  0
 10 11  1  0
 11 12  2  0
 12 13  1  0
 13 14  1  0
 14 15  1  0
 15 16  2  0
 16 17  1  0
 17 18  1  0
 18 19  1  0
  6  2  1  0
 12  7  1  0
 19 15  1  0
  1 20  1  0
  1 21  1  0
  1 22  1  0
  3 23  1  0
  4 24  1  0
  8 25  1  0
  9 26  1  0
 10 27  1  0
 11 28  1  0
 13 29  1  0
 14 30  1  0
 14 31  1  0
 17 32  1  0
 17 33  1  0
 18 34  1  0
 18 35  1  0
 19 36  1  0
M  END
>  <Ligand ID>  (1) 
LIG0004577

>  <Ligand>  (1) 
CHEMBL18256

>  <SMILES>  (1) 
Cn1ccnc1c1ccccc1NCC1=NCCN1

>  <CID>  (1) 
44271932.0

>  <ChEMBL ID>  (1) 
nan

>  <InChiKey>  (1) 
AXBPYZBFXDVVMS-UHFFFAOYSA-N

>  <InChi>  (1) 
InChI=1S/C14H17N5/c1-19-9-8-17-14(19)11-4-2-3-5-12(11)18-10-13-15-6-7-16-13/h2-5,8-9,18H,6-7,10H2,1H3,(H,15,16)

>  <IUPAC Name>  (1) 
N-(4,5-dihydro-1H-imidazol-2-ylmethyl)-2-(1-methylimidazol-2-yl)aniline

$$$$
