
     RDKit          3D

 98103  0  0  0  0  0  0  0  0999 V2000
    9.6403    2.0153   -0.7329 N   0  0  0  0  0  0  0  0  0  0  0  0
    9.0739    1.2068    0.3272 C   0  0  0  0  0  0  0  0  0  0  0  0
    8.4056   -0.0434   -0.2211 C   0  0  0  0  0  0  0  0  0  0  0  0
    7.2961    0.3080   -1.1650 C   0  0  0  0  0  0  0  0  0  0  0  0
    6.2601    1.0892   -0.5764 N   0  0  0  0  0  0  0  0  0  0  0  0
    5.4625    0.4173    0.4133 C   0  0  0  0  0  0  0  0  0  0  0  0
    4.5076   -0.5252   -0.2749 C   0  0  0  0  0  0  0  0  0  0  0  0
    3.6530    0.2073   -1.1373 N   0  0  0  0  0  0  0  0  0  0  0  0
    4.0039    1.5601   -1.4089 C   0  0  0  0  0  0  0  0  0  0  0  0
    5.4633    1.8148   -1.5382 C   0  0  0  0  0  0  0  0  0  0  0  0
    2.2343    0.0441   -0.8444 C   0  0  0  0  0  0  0  0  0  0  0  0
    1.7428   -1.3300   -1.1332 C   0  0  0  0  0  0  0  0  0  0  0  0
    0.3053   -1.5569   -0.8162 C   0  0  0  0  0  0  0  0  0  0  0  0
   -0.0588   -1.3810    0.5718 N   0  0  0  0  0  0  0  0  0  0  0  0
    0.3002   -2.5420    1.4148 C   0  0  0  0  0  0  0  0  0  0  0  0
   -0.6767   -3.5969    1.5844 C   0  0  0  0  0  0  0  0  0  0  0  0
   -0.5368   -4.3751    2.7571 C   0  0  0  0  0  0  0  0  0  0  0  0
   -1.3450   -5.4258    3.0465 C   0  0  0  0  0  0  0  0  0  0  0  0
   -2.3710   -5.8053    2.1994 C   0  0  0  0  0  0  0  0  0  0  0  0
   -2.5238   -5.0623    1.0579 C   0  0  0  0  0  0  0  0  0  0  0  0
   -1.6886   -3.9730    0.7543 C   0  0  0  0  0  0  0  0  0  0  0  0
   -3.5557   -5.3603    0.1078 O   0  0  0  0  0  0  0  0  0  0  0  0
   -4.0744   -4.1367   -0.4280 C   0  0  0  0  0  0  0  0  0  0  0  0
   -4.5322   -3.2761    0.5521 C   0  0  0  0  0  0  0  0  0  0  0  0
   -5.0329   -2.0723    0.1393 C   0  0  0  0  0  0  0  0  0  0  0  0
   -5.0453   -1.8038   -1.2203 C   0  0  0  0  0  0  0  0  0  0  0  0
   -5.5512   -0.4111   -1.5558 C   0  0  0  0  0  0  0  0  0  0  0  0
   -5.1093    0.4735   -0.4080 C   0  0  0  0  0  0  0  0  0  0  0  0
   -3.7622    0.6224   -0.1032 C   0  0  0  0  0  0  0  0  0  0  0  0
   -3.3946    1.4126    0.9421 C   0  0  0  0  0  0  0  0  0  0  0  0
   -2.0718    1.7785    1.4074 C   0  0  0  0  0  0  0  0  0  0  0  0
   -0.8476    1.1116    0.8441 C   0  0  1  0  0  0  0  0  0  0  0  0
   -0.5697   -0.2482    1.2063 C   0  0  0  0  0  0  0  0  0  0  0  0
   -0.8750   -0.4974    2.4830 O   0  0  0  0  0  0  0  0  0  0  0  0
   -0.7208    1.5850   -0.4993 N   0  0  0  0  0  0  0  0  0  0  0  0
    0.0378    2.8005   -0.7648 C   0  0  0  0  0  0  0  0  0  0  0  0
    0.5675    3.4058    0.1811 O   0  0  0  0  0  0  0  0  0  0  0  0
    0.1501    3.2788   -2.1743 C   0  0  0  0  0  0  0  0  0  0  0  0
    0.8871    4.4360   -2.2784 O   0  0  0  0  0  0  0  0  0  0  0  0
    0.3891    5.5374   -1.6261 C   0  0  0  0  0  0  0  0  0  0  0  0
   -4.4523    2.0314    1.6524 C   0  0  0  0  0  0  0  0  0  0  0  0
   -5.7571    1.8793    1.3478 C   0  0  0  0  0  0  0  0  0  0  0  0
   -6.8420    2.5448    2.1121 C   0  0  0  0  0  0  0  0  0  0  0  0
   -7.9600    2.6628    1.2893 O   0  0  0  0  0  0  0  0  0  0  0  0
   -8.4245    1.4568    0.8214 C   0  0  0  0  0  0  0  0  0  0  0  0
   -7.4483    0.9099   -0.0440 O   0  0  0  0  0  0  0  0  0  0  0  0
   -6.1209    1.0817    0.2900 C   0  0  0  0  0  0  0  0  0  0  0  0
   -4.5930   -2.6650   -2.1812 C   0  0  0  0  0  0  0  0  0  0  0  0
   -4.0885   -3.8782   -1.7646 C   0  0  0  0  0  0  0  0  0  0  0  0
    9.3282    3.0011   -0.6577 H   0  0  0  0  0  0  0  0  0  0  0  0
   10.6788    2.0200   -0.7558 H   0  0  0  0  0  0  0  0  0  0  0  0
    8.3786    1.8015    0.9597 H   0  0  0  0  0  0  0  0  0  0  0  0
    9.9102    0.9216    0.9977 H   0  0  0  0  0  0  0  0  0  0  0  0
    9.2058   -0.5816   -0.7758 H   0  0  0  0  0  0  0  0  0  0  0  0
    8.1097   -0.6942    0.5985 H   0  0  0  0  0  0  0  0  0  0  0  0
    6.8715   -0.6197   -1.5895 H   0  0  0  0  0  0  0  0  0  0  0  0
    7.7073    0.8793   -2.0254 H   0  0  0  0  0  0  0  0  0  0  0  0
    6.1424   -0.2010    1.0449 H   0  0  0  0  0  0  0  0  0  0  0  0
    4.8994    1.0834    1.0624 H   0  0  0  0  0  0  0  0  0  0  0  0
    3.9135   -1.0017    0.5332 H   0  0  0  0  0  0  0  0  0  0  0  0
    5.0902   -1.2704   -0.8576 H   0  0  0  0  0  0  0  0  0  0  0  0
    3.5190    1.9401   -2.3341 H   0  0  0  0  0  0  0  0  0  0  0  0
    3.6263    2.2122   -0.5846 H   0  0  0  0  0  0  0  0  0  0  0  0
    5.6265    2.9193   -1.3703 H   0  0  0  0  0  0  0  0  0  0  0  0
    5.8596    1.5872   -2.5457 H   0  0  0  0  0  0  0  0  0  0  0  0
    1.6749    0.7083   -1.5787 H   0  0  0  0  0  0  0  0  0  0  0  0
    2.0427    0.4281    0.1456 H   0  0  0  0  0  0  0  0  0  0  0  0
    2.4136   -2.1287   -0.7436 H   0  0  0  0  0  0  0  0  0  0  0  0
    1.8304   -1.4540   -2.2570 H   0  0  0  0  0  0  0  0  0  0  0  0
   -0.2965   -0.9720   -1.5139 H   0  0  0  0  0  0  0  0  0  0  0  0
    0.1205   -2.6536   -1.0650 H   0  0  0  0  0  0  0  0  0  0  0  0
    0.6509   -2.1033    2.3832 H   0  0  0  0  0  0  0  0  0  0  0  0
    1.2230   -3.0249    0.9909 H   0  0  0  0  0  0  0  0  0  0  0  0
    0.2469   -4.1360    3.4697 H   0  0  0  0  0  0  0  0  0  0  0  0
   -1.2254   -6.0167    3.9521 H   0  0  0  0  0  0  0  0  0  0  0  0
   -3.0272   -6.6412    2.4099 H   0  0  0  0  0  0  0  0  0  0  0  0
   -1.8819   -3.4360   -0.1626 H   0  0  0  0  0  0  0  0  0  0  0  0
   -4.5108   -3.5094    1.6079 H   0  0  0  0  0  0  0  0  0  0  0  0
   -5.3980   -1.3806    0.8802 H   0  0  0  0  0  0  0  0  0  0  0  0
   -6.6213   -0.3964   -1.7113 H   0  0  0  0  0  0  0  0  0  0  0  0
   -4.9719   -0.0887   -2.4410 H   0  0  0  0  0  0  0  0  0  0  0  0
   -3.0811    0.0720   -0.7366 H   0  0  0  0  0  0  0  0  0  0  0  0
   -1.9725    1.6864    2.5309 H   0  0  0  0  0  0  0  0  0  0  0  0
   -1.8963    2.8992    1.2557 H   0  0  0  0  0  0  0  0  0  0  0  0
    0.0532    1.6930    1.3857 H   0  0  0  0  0  0  0  0  0  0  0  0
   -1.1268    1.1602   -1.3519 H   0  0  0  0  0  0  0  0  0  0  0  0
    0.6644    2.5010   -2.7598 H   0  0  0  0  0  0  0  0  0  0  0  0
   -0.8588    3.4924   -2.5996 H   0  0  0  0  0  0  0  0  0  0  0  0
   -0.6453    5.8154   -1.9955 H   0  0  0  0  0  0  0  0  0  0  0  0
    1.0107    6.4076   -1.9981 H   0  0  0  0  0  0  0  0  0  0  0  0
    0.4887    5.5573   -0.5424 H   0  0  0  0  0  0  0  0  0  0  0  0
   -4.2162    2.6816    2.5109 H   0  0  0  0  0  0  0  0  0  0  0  0
   -6.4884    3.6029    2.2701 H   0  0  0  0  0  0  0  0  0  0  0  0
   -7.0662    2.0946    3.0803 H   0  0  0  0  0  0  0  0  0  0  0  0
   -8.6127    0.7810    1.6773 H   0  0  0  0  0  0  0  0  0  0  0  0
   -9.3803    1.6490    0.2915 H   0  0  0  0  0  0  0  0  0  0  0  0
   -4.6527   -2.3575   -3.2034 H   0  0  0  0  0  0  0  0  0  0  0  0
   -3.7072   -4.6340   -2.4351 H   0  0  0  0  0  0  0  0  0  0  0  0
  1  2  1  0
  2  3  1  0
  3  4  1  0
  4  5  1  0
  5  6  1  0
  6  7  1  0
  7  8  1  0
  8  9  1  0
  9 10  1  0
  8 11  1  0
 11 12  1  0
 12 13  1  0
 13 14  1  0
 14 15  1  0
 15 16  1  0
 16 17  2  0
 17 18  1  0
 18 19  2  0
 19 20  1  0
 20 21  2  0
 20 22  1  0
 22 23  1  0
 23 24  2  0
 24 25  1  0
 25 26  2  0
 26 27  1  0
 27 28  1  0
 28 29  1  0
 29 30  2  0
 30 31  1  0
 31 32  1  0
 32 33  1  0
 33 34  2  0
 32 35  1  0
 35 36  1  0
 36 37  2  0
 36 38  1  0
 38 39  1  0
 39 40  1  0
 30 41  1  0
 41 42  2  0
 42 43  1  0
 43 44  1  0
 44 45  1  0
 45 46  1  0
 46 47  1  0
 26 48  1  0
 48 49  2  0
 10  5  1  0
 33 14  1  0
 47 42  1  0
 21 16  1  0
 49 23  1  0
 47 28  2  0
  1 50  1  0
  1 51  1  0
  2 52  1  0
  2 53  1  0
  3 54  1  0
  3 55  1  0
  4 56  1  0
  4 57  1  0
  6 58  1  0
  6 59  1  0
  7 60  1  0
  7 61  1  0
  9 62  1  0
  9 63  1  0
 10 64  1  0
 10 65  1  0
 11 66  1  0
 11 67  1  0
 12 68  1  0
 12 69  1  0
 13 70  1  0
 13 71  1  0
 15 72  1  0
 15 73  1  0
 17 74  1  0
 18 75  1  0
 19 76  1  0
 21 77  1  0
 24 78  1  0
 25 79  1  0
 27 80  1  0
 27 81  1  0
 29 82  1  0
 31 83  1  0
 31 84  1  0
 32 85  1  1
 35 86  1  0
 38 87  1  0
 38 88  1  0
 40 89  1  0
 40 90  1  0
 40 91  1  0
 41 92  1  0
 43 93  1  0
 43 94  1  0
 45 95  1  0
 45 96  1  0
 48 97  1  0
 49 98  1  0
M  END
>  <Ligand ID>  (1) 
LIG0002018

>  <Ligand>  (1) 
CHEMBL1682208

>  <SMILES>  (1) 
NCCCN1CCN(CC1)CCCN1Cc2cccc(c2)Oc2ccc(Cc3cc(C[C@@H](C1=O)NC(=O)COC)cc1COCOc31)cc2

>  <CID>  (1) 
51346771.0

>  <ChEMBL ID>  (1) 
nan

>  <InChiKey>  (1) 
FJGOVJXGOUSTAU-DHUJRADRSA-N

>  <InChi>  (1) 
InChI=1S/C38H49N5O6/c1-46-26-36(44)40-35-23-30-20-31(37-32(21-30)25-47-27-48-37)19-28-7-9-33(10-8-28)49-34-6-2-5-29(22-34)24-43(38(35)45)14-4-13-42-17-15-41(16-18-42)12-3-11-39/h2,5-10,20-22,35H,3-4,11-19,23-27,39H2,1H3,(H,40,44)/t35-/m0/s1

>  <IUPAC Name>  (1) 
N-[(13S)-15-[3-[4-(3-aminopropyl)piperazin-1-yl]propyl]-14-oxo-5,7,22-trioxa-15-azapentacyclo[21.2.2.13,11.117,21.04,9]nonacosa-1(25),3,9,11(29),17(28),18,20,23,26-nonaen-13-yl]-2-methoxyacetamide

$$$$
