
     RDKit          3D

 30 30  0  0  0  0  0  0  0  0999 V2000
   -4.8962    1.8498    0.0664 C   0  0  0  0  0  0  0  0  0  0  0  0
   -3.6460    1.0724   -0.2332 C   0  0  0  0  0  0  0  0  0  0  0  0
   -2.8672    1.5001   -1.1498 O   0  0  0  0  0  0  0  0  0  0  0  0
   -3.3334   -0.1261    0.4956 N   0  0  0  0  0  0  0  0  0  0  0  0
   -2.1221   -0.8305    0.1662 C   0  0  0  0  0  0  0  0  0  0  0  0
   -1.4027   -0.3417   -0.7556 N   0  0  0  0  0  0  0  0  0  0  0  0
   -0.1637   -0.8516   -1.2612 C   0  0  0  0  0  0  0  0  0  0  0  0
    0.9355   -0.2014   -0.4098 C   0  0  0  0  0  0  0  0  0  0  0  0
    2.3017   -0.6642   -0.8503 C   0  0  0  0  0  0  0  0  0  0  0  0
    3.3953   -0.0612   -0.0543 C   0  0  0  0  0  0  0  0  0  0  0  0
    4.7163   -0.3121   -0.2482 C   0  0  0  0  0  0  0  0  0  0  0  0
    5.3917    0.4194    0.6671 N   0  0  0  0  0  0  0  0  0  0  0  0
    4.5428    1.1184    1.4261 C   0  0  0  0  0  0  0  0  0  0  0  0
    3.3081    0.8076    0.9640 N   0  0  0  0  0  0  0  0  0  0  0  0
   -1.8177   -2.0189    0.8928 N   0  0  0  0  0  0  0  0  0  0  0  0
   -5.0801    1.8717    1.1602 H   0  0  0  0  0  0  0  0  0  0  0  0
   -5.7472    1.3974   -0.4907 H   0  0  0  0  0  0  0  0  0  0  0  0
   -4.7645    2.8765   -0.3141 H   0  0  0  0  0  0  0  0  0  0  0  0
   -3.9843   -0.4589    1.2419 H   0  0  0  0  0  0  0  0  0  0  0  0
    0.0241   -0.5916   -2.3024 H   0  0  0  0  0  0  0  0  0  0  0  0
   -0.1027   -1.9597   -1.1810 H   0  0  0  0  0  0  0  0  0  0  0  0
    0.8124    0.8848   -0.5805 H   0  0  0  0  0  0  0  0  0  0  0  0
    0.6884   -0.4531    0.6376 H   0  0  0  0  0  0  0  0  0  0  0  0
    2.3761   -1.7533   -0.9510 H   0  0  0  0  0  0  0  0  0  0  0  0
    2.4292   -0.2497   -1.8897 H   0  0  0  0  0  0  0  0  0  0  0  0
    5.1625   -0.9766   -0.9976 H   0  0  0  0  0  0  0  0  0  0  0  0
    4.8315    1.7763    2.2246 H   0  0  0  0  0  0  0  0  0  0  0  0
    2.4229    1.1919    1.3490 H   0  0  0  0  0  0  0  0  0  0  0  0
   -1.8295   -1.9887    1.9346 H   0  0  0  0  0  0  0  0  0  0  0  0
   -1.5811   -2.9271    0.4432 H   0  0  0  0  0  0  0  0  0  0  0  0
  1  2  1  0
  2  3  2  0
  2  4  1  0
  4  5  1  0
  5  6  2  3
  6  7  1  0
  7  8  1  0
  8  9  1  0
  9 10  1  0
 10 11  2  0
 11 12  1  0
 12 13  2  0
 13 14  1  0
  5 15  1  0
 14 10  1  0
  1 16  1  0
  1 17  1  0
  1 18  1  0
  4 19  1  0
  7 20  1  0
  7 21  1  0
  8 22  1  0
  8 23  1  0
  9 24  1  0
  9 25  1  0
 11 26  1  0
 13 27  1  0
 14 28  1  0
 15 29  1  0
 15 30  1  0
M  END
>  <Ligand ID>  (1) 
LIG0000894

>  <Ligand>  (1) 
CHEMBL443896

>  <SMILES>  (1) 
CC(=O)NC(=NCCCc1cnc[nH]1)N

>  <CID>  (1) 
42625384.0

>  <ChEMBL ID>  (1) 
nan

>  <InChiKey>  (1) 
PWESNUDCWDBFNS-UHFFFAOYSA-N

>  <InChi>  (1) 
InChI=1S/C9H15N5O/c1-7(15)14-9(10)12-4-2-3-8-5-11-6-13-8/h5-6H,2-4H2,1H3,(H,11,13)(H3,10,12,14,15)

>  <IUPAC Name>  (1) 
N-[N'-[3-(1H-imidazol-5-yl)propyl]carbamimidoyl]acetamide

$$$$
