
     RDKit          3D

 30 32  0  0  0  0  0  0  0  0999 V2000
    6.0572    0.1558   -1.6174 Cl  0  0  0  0  0  0  0  0  0  0  0  0
    4.4295   -0.1753   -1.0976 C   0  0  0  0  0  0  0  0  0  0  0  0
    3.7807   -1.3055   -1.5684 C   0  0  0  0  0  0  0  0  0  0  0  0
    2.4888   -1.5676   -1.1555 C   0  0  0  0  0  0  0  0  0  0  0  0
    1.8110   -0.7388   -0.2825 C   0  0  0  0  0  0  0  0  0  0  0  0
    2.4673    0.3831    0.1793 C   0  0  0  0  0  0  0  0  0  0  0  0
    3.7574    0.6594   -0.2232 C   0  0  0  0  0  0  0  0  0  0  0  0
    1.7776    1.1668    1.0277 N   0  0  0  0  0  0  0  0  0  0  0  0
    0.5202    0.8833    1.4101 C   0  0  0  0  0  0  0  0  0  0  0  0
   -0.1458    1.9491    2.4830 S   0  0  0  0  0  0  0  0  0  0  0  0
   -0.1635   -0.2023    0.9836 N   0  0  0  0  0  0  0  0  0  0  0  0
    0.5145   -1.0130    0.1238 C   0  0  0  0  0  0  0  0  0  0  0  0
    0.0074   -2.0618   -0.3538 O   0  0  0  0  0  0  0  0  0  0  0  0
   -1.5106   -0.5068    1.3831 C   0  0  0  0  0  0  0  0  0  0  0  0
   -2.4931    0.0766    0.4494 C   0  0  0  0  0  0  0  0  0  0  0  0
   -2.9015   -0.6256   -0.6884 C   0  0  0  0  0  0  0  0  0  0  0  0
   -3.8384   -0.0764   -1.5705 C   0  0  0  0  0  0  0  0  0  0  0  0
   -4.3707    1.1491   -1.3400 C   0  0  0  0  0  0  0  0  0  0  0  0
   -3.9850    1.8259   -0.2531 N   0  0  0  0  0  0  0  0  0  0  0  0
   -3.0822    1.3151    0.6116 C   0  0  0  0  0  0  0  0  0  0  0  0
    4.3212   -1.9579   -2.2587 H   0  0  0  0  0  0  0  0  0  0  0  0
    2.0052   -2.4535   -1.5359 H   0  0  0  0  0  0  0  0  0  0  0  0
    4.2317    1.5550    0.1681 H   0  0  0  0  0  0  0  0  0  0  0  0
    2.2918    2.0211    1.3733 H   0  0  0  0  0  0  0  0  0  0  0  0
   -1.6876   -0.0821    2.4161 H   0  0  0  0  0  0  0  0  0  0  0  0
   -1.6553   -1.6238    1.4803 H   0  0  0  0  0  0  0  0  0  0  0  0
   -2.5449   -1.5967   -0.9455 H   0  0  0  0  0  0  0  0  0  0  0  0
   -4.1476   -0.6253   -2.4464 H   0  0  0  0  0  0  0  0  0  0  0  0
   -5.0887    1.5449   -2.0363 H   0  0  0  0  0  0  0  0  0  0  0  0
   -2.8467    1.9271    1.4574 H   0  0  0  0  0  0  0  0  0  0  0  0
  1  2  1  0
  2  3  2  0
  3  4  1  0
  4  5  2  0
  5  6  1  0
  6  7  2  0
  6  8  1  0
  8  9  1  0
  9 10  2  0
  9 11  1  0
 11 12  1  0
 12 13  2  0
 11 14  1  0
 14 15  1  0
 15 16  2  0
 16 17  1  0
 17 18  2  0
 18 19  1  0
 19 20  2  0
  7  2  1  0
 20 15  1  0
 12  5  1  0
  3 21  1  0
  4 22  1  0
  7 23  1  0
  8 24  1  0
 14 25  1  0
 14 26  1  0
 16 27  1  0
 17 28  1  0
 18 29  1  0
 20 30  1  0
M  END
>  <Ligand ID>  (1) 
LIG0002570

>  <Ligand>  (1) 
SMR000131265

>  <SMILES>  (1) 
Clc1ccc2c(c1)[nH]c(=S)n(c2=O)Cc1cccnc1

>  <CID>  (1) 
4305845.0

>  <ChEMBL ID>  (1) 
nan

>  <InChiKey>  (1) 
FMLUPHGXWLZZFA-UHFFFAOYSA-N

>  <InChi>  (1) 
InChI=1S/C14H10ClN3OS/c15-10-3-4-11-12(6-10)17-14(20)18(13(11)19)8-9-2-1-5-16-7-9/h1-7H,8H2,(H,17,20)

>  <IUPAC Name>  (1) 
7-chloro-3-(pyridin-3-ylmethyl)-2-sulfanylidene-1H-quinazolin-4-one

$$$$
