
     RDKit          3D

 49 51  0  0  0  0  0  0  0  0999 V2000
   -8.4257    1.1811    1.7063 C   0  0  0  0  0  0  0  0  0  0  0  0
   -7.5415    0.8914    0.5969 N   0  0  0  0  0  0  0  0  0  0  0  0
   -6.1151    0.9012    0.7207 C   0  0  0  0  0  0  0  0  0  0  0  0
   -5.5997    1.1717    1.8359 O   0  0  0  0  0  0  0  0  0  0  0  0
   -5.3109    0.5926   -0.4693 C   0  0  0  0  0  0  0  0  0  0  0  0
   -5.9041    0.3066   -1.6512 N   0  0  0  0  0  0  0  0  0  0  0  0
   -5.2176    0.0177   -2.7693 C   0  0  0  0  0  0  0  0  0  0  0  0
   -3.8490    0.0169   -2.6918 C   0  0  0  0  0  0  0  0  0  0  0  0
   -3.1967    0.3074   -1.4885 C   0  0  0  0  0  0  0  0  0  0  0  0
   -3.9275    0.5998   -0.3589 C   0  0  0  0  0  0  0  0  0  0  0  0
   -1.7172    0.2757   -1.5292 C   0  0  0  0  0  0  0  0  0  0  0  0
   -1.0951   -1.3653   -1.1419 S   0  0  0  0  0  0  0  0  0  0  0  0
    0.6883   -1.4702   -1.1748 C   0  0  0  0  0  0  0  0  0  0  0  0
    1.2586   -1.7923   -2.3696 N   0  0  0  0  0  0  0  0  0  0  0  0
    2.6044   -1.8940   -2.4871 C   0  0  0  0  0  0  0  0  0  0  0  0
    3.1507   -2.2334   -3.7587 N   0  0  0  0  0  0  0  0  0  0  0  0
    3.4052   -1.6694   -1.3865 C   0  0  0  0  0  0  0  0  0  0  0  0
    2.8315   -1.3395   -0.1602 C   0  0  0  0  0  0  0  0  0  0  0  0
    1.4680   -1.2410   -0.0601 C   0  0  0  0  0  0  0  0  0  0  0  0
    0.8548   -0.9062    1.1778 C   0  0  0  0  0  0  0  0  0  0  0  0
    0.3722   -0.6404    2.1706 N   0  0  0  0  0  0  0  0  0  0  0  0
    3.7243   -1.1123    0.9710 C   0  0  0  0  0  0  0  0  0  0  0  0
    4.1100   -2.1391    1.8161 C   0  0  0  0  0  0  0  0  0  0  0  0
    4.9482   -1.9263    2.8784 C   0  0  0  0  0  0  0  0  0  0  0  0
    5.4206   -0.6392    3.1073 C   0  0  0  0  0  0  0  0  0  0  0  0
    5.0481    0.4033    2.2749 C   0  0  0  0  0  0  0  0  0  0  0  0
    4.2023    0.1562    1.2133 C   0  0  0  0  0  0  0  0  0  0  0  0
    5.5603    1.6592    2.5673 O   0  0  0  0  0  0  0  0  0  0  0  0
    5.1997    2.7495    1.7360 C   0  0  0  0  0  0  0  0  0  0  0  0
    6.2512   -0.4080    4.1535 F   0  0  0  0  0  0  0  0  0  0  0  0
    4.8269   -1.7851   -1.5445 C   0  0  0  0  0  0  0  0  0  0  0  0
    5.9759   -1.8766   -1.6634 N   0  0  0  0  0  0  0  0  0  0  0  0
   -7.8976    0.8532    2.6255 H   0  0  0  0  0  0  0  0  0  0  0  0
   -9.3719    0.6065    1.6384 H   0  0  0  0  0  0  0  0  0  0  0  0
   -8.6088    2.2715    1.7950 H   0  0  0  0  0  0  0  0  0  0  0  0
   -7.9488    0.6649   -0.3353 H   0  0  0  0  0  0  0  0  0  0  0  0
   -5.7422   -0.2065   -3.6993 H   0  0  0  0  0  0  0  0  0  0  0  0
   -3.2781   -0.2138   -3.5834 H   0  0  0  0  0  0  0  0  0  0  0  0
   -3.4049    0.8200    0.5547 H   0  0  0  0  0  0  0  0  0  0  0  0
   -1.3051    0.6961   -2.4616 H   0  0  0  0  0  0  0  0  0  0  0  0
   -1.3586    0.9596   -0.7115 H   0  0  0  0  0  0  0  0  0  0  0  0
    3.4684   -1.4583   -4.3601 H   0  0  0  0  0  0  0  0  0  0  0  0
    3.1972   -3.2451   -4.0063 H   0  0  0  0  0  0  0  0  0  0  0  0
    3.7408   -3.1459    1.6375 H   0  0  0  0  0  0  0  0  0  0  0  0
    5.2543   -2.7366    3.5476 H   0  0  0  0  0  0  0  0  0  0  0  0
    3.9211    0.9782    0.5738 H   0  0  0  0  0  0  0  0  0  0  0  0
    4.1280    2.9254    1.8970 H   0  0  0  0  0  0  0  0  0  0  0  0
    5.3573    2.4393    0.6672 H   0  0  0  0  0  0  0  0  0  0  0  0
    5.8476    3.6113    1.9997 H   0  0  0  0  0  0  0  0  0  0  0  0
  1  2  1  0
  2  3  1  0
  3  4  2  0
  3  5  1  0
  5  6  2  0
  6  7  1  0
  7  8  2  0
  8  9  1  0
  9 10  2  0
  9 11  1  0
 11 12  1  0
 12 13  1  0
 13 14  2  0
 14 15  1  0
 15 16  1  0
 15 17  2  0
 17 18  1  0
 18 19  2  0
 19 20  1  0
 20 21  3  0
 18 22  1  0
 22 23  2  0
 23 24  1  0
 24 25  2  0
 25 26  1  0
 26 27  2  0
 26 28  1  0
 28 29  1  0
 25 30  1  0
 17 31  1  0
 31 32  3  0
 10  5  1  0
 19 13  1  0
 27 22  1  0
  1 33  1  0
  1 34  1  0
  1 35  1  0
  2 36  1  0
  7 37  1  0
  8 38  1  0
 10 39  1  0
 11 40  1  0
 11 41  1  0
 16 42  1  0
 16 43  1  0
 23 44  1  0
 24 45  1  0
 27 46  1  0
 29 47  1  0
 29 48  1  0
 29 49  1  0
M  END
>  <Ligand ID>  (1) 
LIG0004660

>  <Ligand>  (1) 
SCHEMBL3342804

>  <SMILES>  (1) 
CNC(=O)c1nccc(c1)CSc1nc(N)c(c(c1C#N)c1ccc(c(c1)OC)F)C#N

>  <CID>  (1) 
68604809.0

>  <ChEMBL ID>  (1) 
nan

>  <InChiKey>  (1) 
GRJPTWQKDOFDHF-UHFFFAOYSA-N

>  <InChi>  (1) 
InChI=1S/C22H17FN6O2S/c1-27-21(30)17-7-12(5-6-28-17)11-32-22-15(10-25)19(14(9-24)20(26)29-22)13-3-4-16(23)18(8-13)31-2/h3-8H,11H2,1-2H3,(H2,26,29)(H,27,30)

>  <IUPAC Name>  (1) 
4-[[6-amino-3,5-dicyano-4-(4-fluoro-3-methoxyphenyl)pyridin-2-yl]sulfanylmethyl]-N-methylpyridine-2-carboxamide

$$$$
