
     RDKit          3D

 86 88  0  0  0  0  0  0  0  0999 V2000
    4.9012    5.6049    0.9574 N   0  0  0  0  0  0  0  0  0  0  0  0
    5.2144    5.3191    2.3148 C   0  0  0  0  0  0  0  0  0  0  0  0
    4.3738    4.6269    3.0045 N   0  0  0  0  0  0  0  0  0  0  0  0
    3.1361    4.1451    2.4258 C   0  0  0  0  0  0  0  0  0  0  0  0
    3.4108    2.9104    1.5401 C   0  0  0  0  0  0  0  0  0  0  0  0
    2.1184    2.4217    0.9474 C   0  0  0  0  0  0  0  0  0  0  0  0
    2.3135    1.2332    0.0498 C   0  0  1  0  0  0  0  0  0  0  0  0
    2.8908    0.1120    0.7802 C   0  0  0  0  0  0  0  0  0  0  0  0
    3.9920    0.1052    1.3897 O   0  0  0  0  0  0  0  0  0  0  0  0
    2.1609   -1.1360    0.8353 N   0  0  0  0  0  0  0  0  0  0  0  0
    2.7056   -2.2855    1.5607 C   0  0  1  0  0  0  0  0  0  0  0  0
    1.7897   -2.7734    2.5858 C   0  0  0  0  0  0  0  0  0  0  0  0
    1.9978   -3.7053    3.3959 O   0  0  0  0  0  0  0  0  0  0  0  0
    0.5010   -2.1271    2.6954 N   0  0  0  0  0  0  0  0  0  0  0  0
    3.1277   -3.3680    0.6216 C   0  0  0  0  0  0  0  0  0  0  0  0
    3.6755   -4.5152    1.3717 C   0  0  0  0  0  0  0  0  0  0  0  0
    3.0574   -5.6527    1.8482 C   0  0  0  0  0  0  0  0  0  0  0  0
    3.9745   -6.4348    2.4555 N   0  0  0  0  0  0  0  0  0  0  0  0
    5.1753   -5.8090    2.3716 C   0  0  0  0  0  0  0  0  0  0  0  0
    4.9909   -4.6487    1.7158 N   0  0  0  0  0  0  0  0  0  0  0  0
    1.0250    0.9607   -0.5668 N   0  0  0  0  0  0  0  0  0  0  0  0
    0.8219    0.9531   -1.9663 C   0  0  0  0  0  0  0  0  0  0  0  0
    1.8523    1.1937   -2.6858 O   0  0  0  0  0  0  0  0  0  0  0  0
   -0.4778    0.6906   -2.6286 C   0  0  1  0  0  0  0  0  0  0  0  0
   -1.5518    0.4840   -1.6811 N   0  0  0  0  0  0  0  0  0  0  0  0
   -2.3921   -0.6258   -1.6161 C   0  0  0  0  0  0  0  0  0  0  0  0
   -2.3693   -1.6322   -2.3533 O   0  0  0  0  0  0  0  0  0  0  0  0
   -3.4584   -0.6305   -0.5386 C   0  0  2  0  0  0  0  0  0  0  0  0
   -2.7361   -0.7377    0.7750 C   0  0  0  0  0  0  0  0  0  0  0  0
   -3.5993   -0.7334    1.9678 C   0  0  0  0  0  0  0  0  0  0  0  0
   -3.0780   -0.8378    3.2538 C   0  0  0  0  0  0  0  0  0  0  0  0
   -4.0860   -0.8092    4.1309 N   0  0  0  0  0  0  0  0  0  0  0  0
   -5.2406   -0.6889    3.4393 C   0  0  0  0  0  0  0  0  0  0  0  0
   -4.9162   -0.6445    2.1354 N   0  0  0  0  0  0  0  0  0  0  0  0
   -4.2117   -1.8823   -0.7165 N   0  0  0  0  0  0  0  0  0  0  0  0
   -5.5525   -1.9232   -1.0924 C   0  0  0  0  0  0  0  0  0  0  0  0
   -6.1559   -0.8367   -1.2922 O   0  0  0  0  0  0  0  0  0  0  0  0
   -6.3495   -3.1700   -1.2821 C   0  0  0  0  0  0  0  0  0  0  0  0
   -0.7913    1.8414   -3.5709 C   0  0  0  0  0  0  0  0  0  0  0  0
   -2.0857    1.6292   -4.2684 C   0  0  0  0  0  0  0  0  0  0  0  0
   -3.2948    2.0540   -3.7633 C   0  0  0  0  0  0  0  0  0  0  0  0
   -4.4989    1.8426   -4.4369 C   0  0  0  0  0  0  0  0  0  0  0  0
   -4.4951    1.1832   -5.6560 C   0  0  0  0  0  0  0  0  0  0  0  0
   -3.2958    0.7650   -6.1523 C   0  0  0  0  0  0  0  0  0  0  0  0
   -2.0977    0.9717   -5.4901 C   0  0  0  0  0  0  0  0  0  0  0  0
    6.4104    5.7634    2.9424 N   0  0  0  0  0  0  0  0  0  0  0  0
    5.5120    5.1558    0.2181 H   0  0  0  0  0  0  0  0  0  0  0  0
    4.0978    6.2330    0.6887 H   0  0  0  0  0  0  0  0  0  0  0  0
    2.7374    4.9506    1.7760 H   0  0  0  0  0  0  0  0  0  0  0  0
    2.4218    3.8512    3.2198 H   0  0  0  0  0  0  0  0  0  0  0  0
    4.1592    3.1629    0.7676 H   0  0  0  0  0  0  0  0  0  0  0  0
    3.8305    2.1694    2.2702 H   0  0  0  0  0  0  0  0  0  0  0  0
    1.5884    3.2550    0.3996 H   0  0  0  0  0  0  0  0  0  0  0  0
    1.4230    2.1895    1.7924 H   0  0  0  0  0  0  0  0  0  0  0  0
    3.0502    1.4895   -0.7634 H   0  0  0  0  0  0  0  0  0  0  0  0
    1.2274   -1.2424    0.3595 H   0  0  0  0  0  0  0  0  0  0  0  0
    3.6510   -1.9290    2.0576 H   0  0  0  0  0  0  0  0  0  0  0  0
   -0.0632   -1.9664    1.8348 H   0  0  0  0  0  0  0  0  0  0  0  0
    0.2076   -1.8533    3.6508 H   0  0  0  0  0  0  0  0  0  0  0  0
    3.9699   -2.9877   -0.0416 H   0  0  0  0  0  0  0  0  0  0  0  0
    2.2951   -3.7297   -0.0285 H   0  0  0  0  0  0  0  0  0  0  0  0
    2.0038   -5.8837    1.7506 H   0  0  0  0  0  0  0  0  0  0  0  0
    6.1030   -6.1860    2.7610 H   0  0  0  0  0  0  0  0  0  0  0  0
    5.7442   -3.9536    1.5025 H   0  0  0  0  0  0  0  0  0  0  0  0
    0.2039    0.7604    0.0471 H   0  0  0  0  0  0  0  0  0  0  0  0
   -0.3944   -0.2278   -3.2360 H   0  0  0  0  0  0  0  0  0  0  0  0
   -1.6879    1.2762   -0.9808 H   0  0  0  0  0  0  0  0  0  0  0  0
   -4.0943    0.2378   -0.6148 H   0  0  0  0  0  0  0  0  0  0  0  0
   -2.1955   -1.7381    0.8157 H   0  0  0  0  0  0  0  0  0  0  0  0
   -1.9165    0.0084    0.8872 H   0  0  0  0  0  0  0  0  0  0  0  0
   -2.0387   -0.9269    3.5291 H   0  0  0  0  0  0  0  0  0  0  0  0
   -6.2272   -0.6405    3.8814 H   0  0  0  0  0  0  0  0  0  0  0  0
   -5.6133   -0.5486    1.3875 H   0  0  0  0  0  0  0  0  0  0  0  0
   -3.7047   -2.7805   -0.5511 H   0  0  0  0  0  0  0  0  0  0  0  0
   -6.6064   -3.5962   -0.2940 H   0  0  0  0  0  0  0  0  0  0  0  0
   -5.7950   -3.9167   -1.8734 H   0  0  0  0  0  0  0  0  0  0  0  0
   -7.2943   -2.9567   -1.8315 H   0  0  0  0  0  0  0  0  0  0  0  0
   -0.7355    2.8180   -3.0737 H   0  0  0  0  0  0  0  0  0  0  0  0
   -0.0021    1.8365   -4.3504 H   0  0  0  0  0  0  0  0  0  0  0  0
   -3.2844    2.5680   -2.8071 H   0  0  0  0  0  0  0  0  0  0  0  0
   -5.4288    2.1796   -4.0330 H   0  0  0  0  0  0  0  0  0  0  0  0
   -5.4172    0.9999   -6.2088 H   0  0  0  0  0  0  0  0  0  0  0  0
   -3.2019    0.2344   -7.1059 H   0  0  0  0  0  0  0  0  0  0  0  0
   -1.1459    0.6414   -5.8810 H   0  0  0  0  0  0  0  0  0  0  0  0
    7.3411    5.6007    2.4674 H   0  0  0  0  0  0  0  0  0  0  0  0
    6.3976    6.2427    3.8561 H   0  0  0  0  0  0  0  0  0  0  0  0
  1  2  1  0
  2  3  2  3
  3  4  1  0
  4  5  1  0
  5  6  1  0
  6  7  1  0
  7  8  1  0
  8  9  2  0
  8 10  1  0
 10 11  1  0
 11 12  1  0
 12 13  2  0
 12 14  1  0
 11 15  1  0
 15 16  1  0
 16 17  2  0
 17 18  1  0
 18 19  2  0
 19 20  1  0
  7 21  1  0
 21 22  1  0
 22 23  2  0
 22 24  1  0
 24 25  1  0
 25 26  1  0
 26 27  2  0
 26 28  1  0
 28 29  1  0
 29 30  1  0
 30 31  2  0
 31 32  1  0
 32 33  2  0
 33 34  1  0
 28 35  1  0
 35 36  1  0
 36 37  2  0
 36 38  1  0
 24 39  1  0
 39 40  1  0
 40 41  2  0
 41 42  1  0
 42 43  2  0
 43 44  1  0
 44 45  2  0
  2 46  1  0
 20 16  1  0
 34 30  1  0
 45 40  1  0
  1 47  1  0
  1 48  1  0
  4 49  1  0
  4 50  1  0
  5 51  1  0
  5 52  1  0
  6 53  1  0
  6 54  1  0
  7 55  1  6
 10 56  1  0
 11 57  1  1
 14 58  1  0
 14 59  1  0
 15 60  1  0
 15 61  1  0
 17 62  1  0
 19 63  1  0
 20 64  1  0
 21 65  1  0
 24 66  1  6
 25 67  1  0
 28 68  1  1
 29 69  1  0
 29 70  1  0
 31 71  1  0
 33 72  1  0
 34 73  1  0
 35 74  1  0
 38 75  1  0
 38 76  1  0
 38 77  1  0
 39 78  1  0
 39 79  1  0
 41 80  1  0
 42 81  1  0
 43 82  1  0
 44 83  1  0
 45 84  1  0
 46 85  1  0
 46 86  1  0
M  END
>  <Ligand ID>  (1) 
LIG0001415

>  <Ligand>  (1) 
CHEMBL350012

>  <SMILES>  (1) 
NC(=NCCC[C@@H](C(=O)N[C@@H](C(=O)N)Cc1cnc[nH]1)NC(=O)[C@@H](NC(=O)[C@H](Cc1cnc[nH]1)NC(=O)C)Cc1ccccc1)N

>  <CID>  (1) 
44369239.0

>  <ChEMBL ID>  (1) 
nan

>  <InChiKey>  (1) 
MRXXHRTVXCNCKC-KIHHCIJBSA-N

>  <InChi>  (1) 
InChI=1S/C29H40N12O5/c1-17(42)38-24(12-20-14-34-16-37-20)28(46)41-23(10-18-6-3-2-4-7-18)27(45)39-21(8-5-9-35-29(31)32)26(44)40-22(25(30)43)11-19-13-33-15-36-19/h2-4,6-7,13-16,21-24H,5,8-12H2,1H3,(H2,30,43)(H,33,36)(H,34,37)(H,38,42)(H,39,45)(H,40,44)(H,41,46)(H4,31,32,35)/t21-,22+,23-,24-/m0/s1

>  <IUPAC Name>  (1) 
(2S)-2-[[(2S)-2-[[(2S)-2-acetamido-3-(1H-imidazol-5-yl)propanoyl]amino]-3-phenylpropanoyl]amino]-N-[(2R)-1-amino-3-(1H-imidazol-5-yl)-1-oxopropan-2-yl]-5-(diaminomethylideneamino)pentanamide

$$$$
