
     RDKit          3D

 62 65  0  0  0  0  0  0  0  0999 V2000
   10.2235    0.6813   -1.6442 C   0  0  0  0  0  0  0  0  0  0  0  0
    9.5747    0.4453   -0.4170 O   0  0  0  0  0  0  0  0  0  0  0  0
    8.2092    0.2054   -0.2915 C   0  0  0  0  0  0  0  0  0  0  0  0
    7.7103   -0.0101    0.9779 C   0  0  0  0  0  0  0  0  0  0  0  0
    6.3573   -0.2528    1.1506 C   0  0  0  0  0  0  0  0  0  0  0  0
    5.4704   -0.2885    0.0841 C   0  0  0  0  0  0  0  0  0  0  0  0
    6.0038   -0.0689   -1.1693 C   0  0  0  0  0  0  0  0  0  0  0  0
    7.3513    0.1761   -1.3731 C   0  0  0  0  0  0  0  0  0  0  0  0
    4.0470   -0.5420    0.2512 C   0  0  0  0  0  0  0  0  0  0  0  0
    3.0850   -0.6026   -0.6943 N   0  0  0  0  0  0  0  0  0  0  0  0
    1.9050   -0.8572   -0.1282 N   0  0  0  0  0  0  0  0  0  0  0  0
    2.1446   -0.9566    1.2041 C   0  0  0  0  0  0  0  0  0  0  0  0
    3.4548   -0.7641    1.4385 N   0  0  0  0  0  0  0  0  0  0  0  0
    0.9716   -1.2873    2.5159 S   0  0  0  0  0  0  0  0  0  0  0  0
   -0.7072   -1.4870    1.7802 C   0  0  0  0  0  0  0  0  0  0  0  0
   -1.1421   -0.1872    1.2026 C   0  0  0  0  0  0  0  0  0  0  0  0
   -0.2818    0.7607    1.3422 O   0  0  0  0  0  0  0  0  0  0  0  0
   -2.3782    0.0311    0.5519 N   0  0  0  0  0  0  0  0  0  0  0  0
   -3.4166   -0.9009    0.3170 C   0  0  0  0  0  0  0  0  0  0  0  0
   -3.0678   -2.0515   -0.6098 C   0  0  0  0  0  0  0  0  0  0  0  0
   -4.3755   -2.5725   -1.1700 C   0  0  0  0  0  0  0  0  0  0  0  0
   -5.3620   -2.9360   -0.1005 C   0  0  0  0  0  0  0  0  0  0  0  0
   -5.4141   -2.0085    1.0722 C   0  0  0  0  0  0  0  0  0  0  0  0
   -4.0147   -1.5597    1.5314 C   0  0  0  0  0  0  0  0  0  0  0  0
   -2.5914    1.4146    0.0640 C   0  0  0  0  0  0  0  0  0  0  0  0
   -3.7826    2.0356    0.7101 C   0  0  0  0  0  0  0  0  0  0  0  0
   -3.9090    3.4568    0.2755 C   0  0  0  0  0  0  0  0  0  0  0  0
   -3.4504    3.7489   -1.1153 C   0  0  0  0  0  0  0  0  0  0  0  0
   -3.4019    2.5587   -2.0180 C   0  0  0  0  0  0  0  0  0  0  0  0
   -2.7045    1.3794   -1.4269 C   0  0  0  0  0  0  0  0  0  0  0  0
    9.5429    1.2674   -2.2861 H   0  0  0  0  0  0  0  0  0  0  0  0
   10.4356   -0.2763   -2.1639 H   0  0  0  0  0  0  0  0  0  0  0  0
   11.1354    1.2928   -1.4992 H   0  0  0  0  0  0  0  0  0  0  0  0
    8.3294    0.0002    1.8607 H   0  0  0  0  0  0  0  0  0  0  0  0
    5.9467   -0.4250    2.1503 H   0  0  0  0  0  0  0  0  0  0  0  0
    5.3586   -0.0850   -2.0371 H   0  0  0  0  0  0  0  0  0  0  0  0
    7.7270    0.3415   -2.3592 H   0  0  0  0  0  0  0  0  0  0  0  0
    3.2758   -0.4636   -1.7223 H   0  0  0  0  0  0  0  0  0  0  0  0
   -1.3316   -1.8129    2.6454 H   0  0  0  0  0  0  0  0  0  0  0  0
   -0.5999   -2.2589    0.9922 H   0  0  0  0  0  0  0  0  0  0  0  0
   -4.2623   -0.3709   -0.2274 H   0  0  0  0  0  0  0  0  0  0  0  0
   -2.4340   -1.7622   -1.4515 H   0  0  0  0  0  0  0  0  0  0  0  0
   -2.6073   -2.9030   -0.0656 H   0  0  0  0  0  0  0  0  0  0  0  0
   -4.7942   -1.8121   -1.8450 H   0  0  0  0  0  0  0  0  0  0  0  0
   -4.1361   -3.4923   -1.7414 H   0  0  0  0  0  0  0  0  0  0  0  0
   -6.3716   -2.9271   -0.5616 H   0  0  0  0  0  0  0  0  0  0  0  0
   -5.2262   -3.9765    0.2902 H   0  0  0  0  0  0  0  0  0  0  0  0
   -5.8333   -2.5642    1.9429 H   0  0  0  0  0  0  0  0  0  0  0  0
   -5.9737   -1.0755    0.8628 H   0  0  0  0  0  0  0  0  0  0  0  0
   -3.4028   -2.4809    1.7418 H   0  0  0  0  0  0  0  0  0  0  0  0
   -4.1295   -0.9250    2.4053 H   0  0  0  0  0  0  0  0  0  0  0  0
   -1.7069    2.0352    0.3130 H   0  0  0  0  0  0  0  0  0  0  0  0
   -3.5688    2.0668    1.8174 H   0  0  0  0  0  0  0  0  0  0  0  0
   -4.7212    1.4818    0.5605 H   0  0  0  0  0  0  0  0  0  0  0  0
   -3.3744    4.1626    0.9734 H   0  0  0  0  0  0  0  0  0  0  0  0
   -4.9949    3.7295    0.3766 H   0  0  0  0  0  0  0  0  0  0  0  0
   -2.4794    4.3053   -1.1082 H   0  0  0  0  0  0  0  0  0  0  0  0
   -4.1780    4.4660   -1.5934 H   0  0  0  0  0  0  0  0  0  0  0  0
   -4.4153    2.3229   -2.4085 H   0  0  0  0  0  0  0  0  0  0  0  0
   -2.8194    2.8592   -2.9270 H   0  0  0  0  0  0  0  0  0  0  0  0
   -1.6523    1.2482   -1.8133 H   0  0  0  0  0  0  0  0  0  0  0  0
   -3.2467    0.4713   -1.8092 H   0  0  0  0  0  0  0  0  0  0  0  0
  1  2  1  0
  2  3  1  0
  3  4  2  0
  4  5  1  0
  5  6  2  0
  6  7  1  0
  7  8  2  0
  6  9  1  0
  9 10  1  0
 10 11  1  0
 11 12  2  0
 12 13  1  0
 12 14  1  0
 14 15  1  0
 15 16  1  0
 16 17  2  0
 16 18  1  0
 18 19  1  0
 19 20  1  0
 20 21  1  0
 21 22  1  0
 22 23  1  0
 23 24  1  0
 18 25  1  0
 25 26  1  0
 26 27  1  0
 27 28  1  0
 28 29  1  0
 29 30  1  0
  8  3  1  0
 13  9  2  0
 24 19  1  0
 30 25  1  0
  1 31  1  0
  1 32  1  0
  1 33  1  0
  4 34  1  0
  5 35  1  0
  7 36  1  0
  8 37  1  0
 10 38  1  0
 15 39  1  0
 15 40  1  0
 19 41  1  0
 20 42  1  0
 20 43  1  0
 21 44  1  0
 21 45  1  0
 22 46  1  0
 22 47  1  0
 23 48  1  0
 23 49  1  0
 24 50  1  0
 24 51  1  0
 25 52  1  0
 26 53  1  0
 26 54  1  0
 27 55  1  0
 27 56  1  0
 28 57  1  0
 28 58  1  0
 29 59  1  0
 29 60  1  0
 30 61  1  0
 30 62  1  0
M  END
>  <Ligand ID>  (1) 
LIG0004800

>  <Ligand>  (1) 
AC1LLWXJ

>  <SMILES>  (1) 
COc1ccc(cc1)c1[nH]nc(n1)SCC(=O)N(C1CCCCC1)C1CCCCC1

>  <CID>  (1) 
1117424.0

>  <ChEMBL ID>  (1) 
nan

>  <InChiKey>  (1) 
XBZVVAAFUTUJBF-UHFFFAOYSA-N

>  <InChi>  (1) 
InChI=1S/C23H32N4O2S/c1-29-20-14-12-17(13-15-20)22-24-23(26-25-22)30-16-21(28)27(18-8-4-2-5-9-18)19-10-6-3-7-11-19/h12-15,18-19H,2-11,16H2,1H3,(H,24,25,26)

>  <IUPAC Name>  (1) 
N,N-dicyclohexyl-2-[[5-(4-methoxyphenyl)-1H-1,2,4-triazol-3-yl]sulfanyl]acetamide

$$$$
