
     RDKit          3D

136138  0  0  0  0  0  0  0  0999 V2000
    8.5783    5.1319   -1.5757 C   0  0  0  0  0  0  0  0  0  0  0  0
    8.7457    3.9273   -0.7806 N   0  0  0  0  0  0  0  0  0  0  0  0
    7.8438    2.8781   -1.1445 C   0  0  0  0  0  0  0  0  0  0  0  0
    8.0167    1.6371   -0.2904 C   0  0  0  0  0  0  0  0  0  0  0  0
    7.7743    1.9186    1.1532 C   0  0  0  0  0  0  0  0  0  0  0  0
    7.8952    0.6279    1.9892 C   0  0  1  0  0  0  0  0  0  0  0  0
    7.7722    0.9332    3.4097 C   0  0  0  0  0  0  0  0  0  0  0  0
    6.8923    0.4735    4.1868 O   0  0  0  0  0  0  0  0  0  0  0  0
    8.7577    1.8439    3.9559 N   0  0  0  0  0  0  0  0  0  0  0  0
    8.7709    2.2354    5.3378 C   0  0  0  0  0  0  0  0  0  0  0  0
    8.9500    1.0035    6.1878 C   0  0  0  0  0  0  0  0  0  0  0  0
    8.9783    1.2117    7.4288 O   0  0  0  0  0  0  0  0  0  0  0  0
    9.0745   -0.2814    5.5985 N   0  0  0  0  0  0  0  0  0  0  0  0
    6.8684   -0.3181    1.5633 N   0  0  0  0  0  0  0  0  0  0  0  0
    5.7314   -0.0605    0.7982 C   0  0  0  0  0  0  0  0  0  0  0  0
    5.3479    1.0423    0.3524 O   0  0  0  0  0  0  0  0  0  0  0  0
    4.8619   -1.2350    0.4581 C   0  0  2  0  0  0  0  0  0  0  0  0
    5.7921   -2.2022   -0.2881 C   0  0  0  0  0  0  0  0  0  0  0  0
    5.8100   -1.7422   -1.7030 C   0  0  0  0  0  0  0  0  0  0  0  0
    4.6807   -0.7207   -1.7625 C   0  0  0  0  0  0  0  0  0  0  0  0
    3.8739   -0.9674   -0.5483 N   0  0  0  0  0  0  0  0  0  0  0  0
    2.4370   -0.9899   -0.4707 C   0  0  0  0  0  0  0  0  0  0  0  0
    1.8604   -1.2024    0.6287 O   0  0  0  0  0  0  0  0  0  0  0  0
    1.6717   -0.7648   -1.7444 C   0  0  2  0  0  0  0  0  0  0  0  0
    1.7726    0.6663   -2.2306 C   0  0  0  0  0  0  0  0  0  0  0  0
    1.0986    0.8956   -3.8841 S   0  0  0  0  0  0  0  0  0  0  0  0
   -0.9906    0.8011   -3.7718 S   0  0  0  0  0  0  0  0  0  0  0  0
   -1.6773    2.4026   -3.6239 C   0  0  0  0  0  0  0  0  0  0  0  0
   -1.5093    3.2391   -2.4431 C   0  0  2  0  0  0  0  0  0  0  0  0
   -0.2133    3.6406   -2.0305 N   0  0  0  0  0  0  0  0  0  0  0  0
   -2.4429    2.9503   -1.2969 C   0  0  0  0  0  0  0  0  0  0  0  0
   -2.3983    3.5504   -0.2119 O   0  0  0  0  0  0  0  0  0  0  0  0
   -3.4495    1.9456   -1.3806 N   0  0  0  0  0  0  0  0  0  0  0  0
   -4.4235    1.6794   -0.3498 C   0  0  1  0  0  0  0  0  0  0  0  0
   -5.6466    0.9757   -0.7751 C   0  0  0  0  0  0  0  0  0  0  0  0
   -6.3949    1.7305   -1.8083 C   0  0  0  0  0  0  0  0  0  0  0  0
   -6.1427    1.5186   -3.1550 C   0  0  0  0  0  0  0  0  0  0  0  0
   -6.8302    2.2132   -4.1411 C   0  0  0  0  0  0  0  0  0  0  0  0
   -7.7868    3.1352   -3.7326 C   0  0  0  0  0  0  0  0  0  0  0  0
   -8.0258    3.3344   -2.3922 C   0  0  0  0  0  0  0  0  0  0  0  0
   -7.3565    2.6569   -1.3939 C   0  0  0  0  0  0  0  0  0  0  0  0
   -3.6992    1.0025    0.7990 C   0  0  0  0  0  0  0  0  0  0  0  0
   -2.4730    0.9008    0.8579 O   0  0  0  0  0  0  0  0  0  0  0  0
   -4.4199    0.4264    1.8964 N   0  0  0  0  0  0  0  0  0  0  0  0
   -3.6792   -0.1595    3.0129 C   0  0  2  0  0  0  0  0  0  0  0  0
   -3.3970   -1.6094    2.6814 C   0  0  0  0  0  0  0  0  0  0  0  0
   -2.8266   -2.4007    3.4196 O   0  0  0  0  0  0  0  0  0  0  0  0
   -3.8121   -2.1598    1.4019 N   0  0  0  0  0  0  0  0  0  0  0  0
   -3.5220   -3.5390    1.0551 C   0  0  2  0  0  0  0  0  0  0  0  0
   -2.7276   -3.7000   -0.1698 C   0  0  0  0  0  0  0  0  0  0  0  0
   -2.4088   -4.8413   -0.5327 O   0  0  0  0  0  0  0  0  0  0  0  0
   -2.2677   -2.6383   -1.0185 N   0  0  0  0  0  0  0  0  0  0  0  0
   -1.4904   -2.9780   -2.2121 C   0  0  2  0  0  0  0  0  0  0  0  0
   -0.2049   -2.3025   -2.3499 C   0  0  0  0  0  0  0  0  0  0  0  0
    0.5752   -2.6695   -3.2494 O   0  0  0  0  0  0  0  0  0  0  0  0
    0.2915   -1.2183   -1.5481 N   0  0  0  0  0  0  0  0  0  0  0  0
   -2.3914   -2.6048   -3.3872 C   0  0  0  0  0  0  0  0  0  0  0  0
   -1.7676   -2.8898   -4.6894 C   0  0  0  0  0  0  0  0  0  0  0  0
   -0.9458   -2.1604   -5.2858 O   0  0  0  0  0  0  0  0  0  0  0  0
   -2.1192   -4.1145   -5.3617 N   0  0  0  0  0  0  0  0  0  0  0  0
   -4.8035   -4.3630    0.9938 C   0  0  0  0  0  0  0  0  0  0  0  0
   -5.7562   -3.8395   -0.0335 C   0  0  0  0  0  0  0  0  0  0  0  0
   -6.9642   -4.6979   -0.0409 C   0  0  0  0  0  0  0  0  0  0  0  0
   -7.0741   -5.6786    0.7557 O   0  0  0  0  0  0  0  0  0  0  0  0
   -8.0495   -4.4694   -0.9307 N   0  0  0  0  0  0  0  0  0  0  0  0
   -4.5410   -0.1230    4.2297 C   0  0  2  0  0  0  0  0  0  0  0  0
   -5.8088   -0.9526    3.9900 C   0  0  0  0  0  0  0  0  0  0  0  0
   -6.7210   -0.9490    5.2104 C   0  0  0  0  0  0  0  0  0  0  0  0
   -5.0478    1.3113    4.4257 C   0  0  0  0  0  0  0  0  0  0  0  0
    9.5518    5.5744   -1.8715 H   0  0  0  0  0  0  0  0  0  0  0  0
    7.9935    4.8636   -2.4840 H   0  0  0  0  0  0  0  0  0  0  0  0
    7.9619    5.8952   -1.0407 H   0  0  0  0  0  0  0  0  0  0  0  0
    8.5730    4.2004    0.2146 H   0  0  0  0  0  0  0  0  0  0  0  0
    8.0498    2.6009   -2.2147 H   0  0  0  0  0  0  0  0  0  0  0  0
    6.7693    3.1958   -1.1262 H   0  0  0  0  0  0  0  0  0  0  0  0
    9.1578    1.4257   -0.3878 H   0  0  0  0  0  0  0  0  0  0  0  0
    7.5684    0.7903   -0.7677 H   0  0  0  0  0  0  0  0  0  0  0  0
    6.8652    2.4769    1.3763 H   0  0  0  0  0  0  0  0  0  0  0  0
    8.6297    2.5641    1.4948 H   0  0  0  0  0  0  0  0  0  0  0  0
    8.8842    0.2549    1.7107 H   0  0  0  0  0  0  0  0  0  0  0  0
    9.4983    2.2324    3.3026 H   0  0  0  0  0  0  0  0  0  0  0  0
    9.6912    2.8385    5.5205 H   0  0  0  0  0  0  0  0  0  0  0  0
    7.8725    2.8017    5.6547 H   0  0  0  0  0  0  0  0  0  0  0  0
    8.6776   -1.1472    6.0538 H   0  0  0  0  0  0  0  0  0  0  0  0
    9.5710   -0.3894    4.6825 H   0  0  0  0  0  0  0  0  0  0  0  0
    7.0516   -1.3137    1.9125 H   0  0  0  0  0  0  0  0  0  0  0  0
    4.4093   -1.6783    1.3430 H   0  0  0  0  0  0  0  0  0  0  0  0
    6.7958   -2.2013    0.1659 H   0  0  0  0  0  0  0  0  0  0  0  0
    5.3495   -3.2146   -0.1798 H   0  0  0  0  0  0  0  0  0  0  0  0
    5.5348   -2.6097   -2.3363 H   0  0  0  0  0  0  0  0  0  0  0  0
    6.7714   -1.2992   -2.0468 H   0  0  0  0  0  0  0  0  0  0  0  0
    5.0545    0.3007   -1.7833 H   0  0  0  0  0  0  0  0  0  0  0  0
    4.1245   -0.9451   -2.6872 H   0  0  0  0  0  0  0  0  0  0  0  0
    2.1565   -1.3934   -2.5082 H   0  0  0  0  0  0  0  0  0  0  0  0
    2.8345    0.9687   -2.1894 H   0  0  0  0  0  0  0  0  0  0  0  0
    1.2395    1.3360   -1.4822 H   0  0  0  0  0  0  0  0  0  0  0  0
   -1.3262    3.0249   -4.5178 H   0  0  0  0  0  0  0  0  0  0  0  0
   -2.7882    2.3379   -3.8406 H   0  0  0  0  0  0  0  0  0  0  0  0
   -1.9712    4.2730   -2.7883 H   0  0  0  0  0  0  0  0  0  0  0  0
    0.5400    3.3072   -2.6517 H   0  0  0  0  0  0  0  0  0  0  0  0
   -0.0128    3.5156   -1.0186 H   0  0  0  0  0  0  0  0  0  0  0  0
   -3.4522    1.3906   -2.2320 H   0  0  0  0  0  0  0  0  0  0  0  0
   -4.7235    2.6554    0.1645 H   0  0  0  0  0  0  0  0  0  0  0  0
   -6.3627    0.8619    0.0836 H   0  0  0  0  0  0  0  0  0  0  0  0
   -5.4614   -0.0767   -1.1039 H   0  0  0  0  0  0  0  0  0  0  0  0
   -5.4077    0.8074   -3.4935 H   0  0  0  0  0  0  0  0  0  0  0  0
   -6.6338    2.0468   -5.1859 H   0  0  0  0  0  0  0  0  0  0  0  0
   -8.3596    3.7111   -4.4588 H   0  0  0  0  0  0  0  0  0  0  0  0
   -8.7935    4.0727   -2.1066 H   0  0  0  0  0  0  0  0  0  0  0  0
   -7.5763    2.8481   -0.3688 H   0  0  0  0  0  0  0  0  0  0  0  0
   -5.4296    0.4722    1.8128 H   0  0  0  0  0  0  0  0  0  0  0  0
   -2.7052    0.3525    3.1599 H   0  0  0  0  0  0  0  0  0  0  0  0
   -4.3090   -1.4889    0.8145 H   0  0  0  0  0  0  0  0  0  0  0  0
   -2.9551   -3.9697    1.9054 H   0  0  0  0  0  0  0  0  0  0  0  0
   -2.5222   -1.7049   -0.7208 H   0  0  0  0  0  0  0  0  0  0  0  0
   -1.3563   -4.0947   -2.2663 H   0  0  0  0  0  0  0  0  0  0  0  0
   -0.3728   -0.8331   -0.8874 H   0  0  0  0  0  0  0  0  0  0  0  0
   -3.3490   -3.1829   -3.3317 H   0  0  0  0  0  0  0  0  0  0  0  0
   -2.7266   -1.5365   -3.2876 H   0  0  0  0  0  0  0  0  0  0  0  0
   -1.4359   -4.5986   -5.9586 H   0  0  0  0  0  0  0  0  0  0  0  0
   -3.0770   -4.5156   -5.2462 H   0  0  0  0  0  0  0  0  0  0  0  0
   -4.5159   -5.4002    0.7708 H   0  0  0  0  0  0  0  0  0  0  0  0
   -5.2899   -4.2802    1.9721 H   0  0  0  0  0  0  0  0  0  0  0  0
   -5.9755   -2.7645    0.1305 H   0  0  0  0  0  0  0  0  0  0  0  0
   -5.2719   -3.9276   -1.0311 H   0  0  0  0  0  0  0  0  0  0  0  0
   -9.0304   -4.7438   -0.7037 H   0  0  0  0  0  0  0  0  0  0  0  0
   -7.9349   -4.0104   -1.8756 H   0  0  0  0  0  0  0  0  0  0  0  0
   -4.0398   -0.4497    5.1509 H   0  0  0  0  0  0  0  0  0  0  0  0
   -5.5298   -1.9925    3.7289 H   0  0  0  0  0  0  0  0  0  0  0  0
   -6.4185   -0.5765    3.1603 H   0  0  0  0  0  0  0  0  0  0  0  0
   -6.5387   -1.8902    5.7962 H   0  0  0  0  0  0  0  0  0  0  0  0
   -7.7981   -1.0332    4.8841 H   0  0  0  0  0  0  0  0  0  0  0  0
   -6.6392   -0.0592    5.8304 H   0  0  0  0  0  0  0  0  0  0  0  0
   -4.2971    2.0565    4.1211 H   0  0  0  0  0  0  0  0  0  0  0  0
   -5.9427    1.4967    3.7629 H   0  0  0  0  0  0  0  0  0  0  0  0
   -5.3633    1.4734    5.4612 H   0  0  0  0  0  0  0  0  0  0  0  0
  1  2  1  0
  2  3  1  0
  3  4  1  0
  4  5  1  0
  5  6  1  0
  6  7  1  0
  7  8  2  0
  7  9  1  0
  9 10  1  0
 10 11  1  0
 11 12  2  0
 11 13  1  0
  6 14  1  0
 14 15  1  0
 15 16  2  0
 15 17  1  0
 17 18  1  0
 18 19  1  0
 19 20  1  0
 20 21  1  0
 21 22  1  0
 22 23  2  0
 22 24  1  0
 24 25  1  0
 25 26  1  0
 26 27  1  0
 27 28  1  0
 28 29  1  0
 29 30  1  0
 29 31  1  0
 31 32  2  0
 31 33  1  0
 33 34  1  0
 34 35  1  0
 35 36  1  0
 36 37  2  0
 37 38  1  0
 38 39  2  0
 39 40  1  0
 40 41  2  0
 34 42  1  0
 42 43  2  0
 42 44  1  0
 44 45  1  0
 45 46  1  0
 46 47  2  0
 46 48  1  0
 48 49  1  0
 49 50  1  0
 50 51  2  0
 50 52  1  0
 52 53  1  0
 53 54  1  0
 54 55  2  0
 54 56  1  0
 53 57  1  0
 57 58  1  0
 58 59  2  0
 58 60  1  0
 49 61  1  0
 61 62  1  0
 62 63  1  0
 63 64  2  0
 63 65  1  0
 45 66  1  0
 66 67  1  0
 67 68  1  0
 66 69  1  0
 21 17  1  0
 56 24  1  0
 41 36  1  0
  1 70  1  0
  1 71  1  0
  1 72  1  0
  2 73  1  0
  3 74  1  0
  3 75  1  0
  4 76  1  0
  4 77  1  0
  5 78  1  0
  5 79  1  0
  6 80  1  1
  9 81  1  0
 10 82  1  0
 10 83  1  0
 13 84  1  0
 13 85  1  0
 14 86  1  0
 17 87  1  1
 18 88  1  0
 18 89  1  0
 19 90  1  0
 19 91  1  0
 20 92  1  0
 20 93  1  0
 24 94  1  6
 25 95  1  0
 25 96  1  0
 28 97  1  0
 28 98  1  0
 29 99  1  6
 30100  1  0
 30101  1  0
 33102  1  0
 34103  1  1
 35104  1  0
 35105  1  0
 37106  1  0
 38107  1  0
 39108  1  0
 40109  1  0
 41110  1  0
 44111  1  0
 45112  1  1
 48113  1  0
 49114  1  1
 52115  1  0
 53116  1  1
 56117  1  0
 57118  1  0
 57119  1  0
 60120  1  0
 60121  1  0
 61122  1  0
 61123  1  0
 62124  1  0
 62125  1  0
 65126  1  0
 65127  1  0
 66128  1  1
 67129  1  0
 67130  1  0
 68131  1  0
 68132  1  0
 68133  1  0
 69134  1  0
 69135  1  0
 69136  1  0
M  END
>  <Ligand ID>  (1) 
LIG0000923

>  <Ligand>  (1) 
CHEMBL1817705

>  <SMILES>  (1) 
CNCCC[C@@H](C(=O)NCC(=O)N)NC(=O)[C@@H]1CCCN1C(=O)[C@@H]1CSSC[C@H](N)C(=O)N[C@@H](Cc2ccccc2)C(=O)N[C@H](C(=O)N[C@H](C(=O)N[C@H](C(=O)N1)CC(=O)N)CCC(=O)N)[C@H](CC)C

>  <CID>  (1) 
53362429.0

>  <ChEMBL ID>  (1) 
nan

>  <InChiKey>  (1) 
OXEVXAYISNGROP-GHDRINTISA-N

>  <InChi>  (1) 
InChI=1S/C43H67N13O11S2/c1-4-23(2)35-42(66)51-27(14-15-32(45)57)38(62)53-29(19-33(46)58)39(63)54-30(22-69-68-21-25(44)36(60)52-28(40(64)55-35)18-24-10-6-5-7-11-24)43(67)56-17-9-13-31(56)41(65)50-26(12-8-16-48-3)37(61)49-20-34(47)59/h5-7,10-11,23,25-31,35,48H,4,8-9,12-22,44H2,1-3H3,(H2,45,57)(H2,46,58)(H2,47,59)(H,49,61)(H,50,65)(H,51,66)(H,52,60)(H,53,62)(H,54,63)(H,55,64)/t23-,25-,26-,27-,28-,29-,30-,31-,35-/m0/s1

>  <IUPAC Name>  (1) 
(2S)-1-[(4R,7S,10S,13S,16S,19R)-19-amino-7-(2-amino-2-oxoethyl)-10-(3-amino-3-oxopropyl)-16-benzyl-13-[(2S)-butan-2-yl]-6,9,12,15,18-pentaoxo-1,2-dithia-5,8,11,14,17-pentazacycloicosane-4-carbonyl]-N-[(2S)-1-[(2-amino-2-oxoethyl)amino]-5-(methylamino)-1-oxopentan-2-yl]pyrrolidine-2-carboxamide

$$$$
