
     RDKit          3D

 84 84  0  0  0  0  0  0  0  0999 V2000
   -0.9733   -0.0376   -0.0361 C   0  0  0  0  0  0  0  0  0  0  0  0
    0.4509    0.3001    0.1230 C   0  0  0  0  0  0  0  0  0  0  0  0
    0.8213    1.5039    0.2103 O   0  0  0  0  0  0  0  0  0  0  0  0
    1.4287   -0.7018    0.1815 O   0  0  0  0  0  0  0  0  0  0  0  0
  -11.5833   -0.3962    0.2094 O   0  0  0  0  0  0  0  0  0  0  0  0
  -10.8079   -1.0662   -0.7229 C   0  0  0  0  0  0  0  0  0  0  0  0
   -9.5093   -1.4068   -0.0622 C   0  0  0  0  0  0  0  0  0  0  0  0
   -8.3455   -0.7143   -0.3067 C   0  0  0  0  0  0  0  0  0  0  0  0
   -7.1391   -1.0483    0.3306 C   0  0  0  0  0  0  0  0  0  0  0  0
   -7.0864   -2.0780    1.2166 C   0  0  0  0  0  0  0  0  0  0  0  0
   -8.2583   -2.7759    1.4628 C   0  0  0  0  0  0  0  0  0  0  0  0
   -9.4572   -2.4491    0.8345 C   0  0  0  0  0  0  0  0  0  0  0  0
  -10.5909   -3.2184    1.1536 O   0  0  0  0  0  0  0  0  0  0  0  0
   -5.9798   -0.1936   -0.0511 C   0  0  2  0  0  0  0  0  0  0  0  0
   -4.9277   -0.1257    1.0628 C   0  0  0  0  0  0  0  0  0  0  0  0
   -3.9912    0.8606    0.6688 N   0  0  0  0  0  0  0  0  0  0  0  0
   -3.1368    0.5970   -0.4236 C   0  0  0  0  0  0  0  0  0  0  0  0
   -2.0923   -0.4555   -0.1307 C   0  0  0  0  0  0  0  0  0  0  0  0
   -1.2509    0.0042    1.0133 C   0  0  0  0  0  0  0  0  0  0  0  0
   -0.5823    1.3195    0.6959 C   0  0  0  0  0  0  0  0  0  0  0  0
    0.3312    1.2549   -0.5132 C   0  0  0  0  0  0  0  0  0  0  0  0
    0.9451    2.6228   -0.8103 C   0  0  0  0  0  0  0  0  0  0  0  0
    1.7554    2.7246   -1.8220 O   0  0  0  0  0  0  0  0  0  0  0  0
    2.9386    2.2547   -2.1356 C   0  0  0  0  0  0  0  0  0  0  0  0
    4.1644    2.6475   -1.4043 C   0  0  0  0  0  0  0  0  0  0  0  0
    4.2426    2.2704    0.0118 C   0  0  0  0  0  0  0  0  0  0  0  0
    4.2929    0.7861    0.3124 C   0  0  0  0  0  0  0  0  0  0  0  0
    5.5349    0.2608   -0.3324 C   0  0  0  0  0  0  0  0  0  0  0  0
    5.5588   -0.3276   -1.5707 C   0  0  0  0  0  0  0  0  0  0  0  0
    6.7485   -0.7606   -2.1091 C   0  0  0  0  0  0  0  0  0  0  0  0
    7.9532   -0.6357   -1.4607 C   0  0  0  0  0  0  0  0  0  0  0  0
    7.9468   -0.0453   -0.2101 C   0  0  0  0  0  0  0  0  0  0  0  0
    6.7501    0.3897    0.3296 C   0  0  0  0  0  0  0  0  0  0  0  0
    9.2402    0.1053    0.5288 C   0  0  0  0  0  0  0  0  0  0  0  0
    9.5185   -0.9953    1.4093 N   0  0  0  0  0  0  0  0  0  0  0  0
    9.9870   -2.2690    0.9966 C   0  0  0  0  0  0  0  0  0  0  0  0
   10.2073   -2.5630   -0.1984 O   0  0  0  0  0  0  0  0  0  0  0  0
   10.2288   -3.2886    1.9748 N   0  0  0  0  0  0  0  0  0  0  0  0
   -6.4942    1.1301   -0.0943 O   0  0  0  0  0  0  0  0  0  0  0  0
   -1.4802   -0.2125    0.9520 H   0  0  0  0  0  0  0  0  0  0  0  0
   -1.5475    0.6932   -0.6502 H   0  0  0  0  0  0  0  0  0  0  0  0
   -1.0666   -1.0183   -0.5675 H   0  0  0  0  0  0  0  0  0  0  0  0
    2.3666   -0.5271   -0.2131 H   0  0  0  0  0  0  0  0  0  0  0  0
  -11.2662   -0.6022    1.1160 H   0  0  0  0  0  0  0  0  0  0  0  0
  -11.2549   -1.9839   -1.1297 H   0  0  0  0  0  0  0  0  0  0  0  0
  -10.5962   -0.3666   -1.5763 H   0  0  0  0  0  0  0  0  0  0  0  0
   -8.3934    0.1116   -1.0200 H   0  0  0  0  0  0  0  0  0  0  0  0
   -6.1568   -2.3124    1.6908 H   0  0  0  0  0  0  0  0  0  0  0  0
   -8.2400   -3.5922    2.1586 H   0  0  0  0  0  0  0  0  0  0  0  0
  -11.4770   -3.0130    0.7419 H   0  0  0  0  0  0  0  0  0  0  0  0
   -5.4962   -0.4921   -0.9690 H   0  0  0  0  0  0  0  0  0  0  0  0
   -5.3826    0.1677    2.0275 H   0  0  0  0  0  0  0  0  0  0  0  0
   -4.5220   -1.1472    1.1990 H   0  0  0  0  0  0  0  0  0  0  0  0
   -3.7291    1.5828    1.3368 H   0  0  0  0  0  0  0  0  0  0  0  0
   -3.6961    0.3034   -1.3580 H   0  0  0  0  0  0  0  0  0  0  0  0
   -2.6065    1.5269   -0.7067 H   0  0  0  0  0  0  0  0  0  0  0  0
   -1.4544   -0.6238   -1.0151 H   0  0  0  0  0  0  0  0  0  0  0  0
   -2.5692   -1.4548    0.0630 H   0  0  0  0  0  0  0  0  0  0  0  0
   -0.4708   -0.7443    1.2658 H   0  0  0  0  0  0  0  0  0  0  0  0
   -1.8156    0.1639    1.9468 H   0  0  0  0  0  0  0  0  0  0  0  0
    0.0413    1.5376    1.6253 H   0  0  0  0  0  0  0  0  0  0  0  0
   -1.2874    2.1593    0.6557 H   0  0  0  0  0  0  0  0  0  0  0  0
    1.1072    0.5132   -0.2948 H   0  0  0  0  0  0  0  0  0  0  0  0
   -0.3188    0.9893   -1.3933 H   0  0  0  0  0  0  0  0  0  0  0  0
    1.2697    3.0586    0.1869 H   0  0  0  0  0  0  0  0  0  0  0  0
    0.0390    3.3146   -1.0272 H   0  0  0  0  0  0  0  0  0  0  0  0
    3.1376    2.5539   -3.2342 H   0  0  0  0  0  0  0  0  0  0  0  0
    2.9905    1.1256   -2.2317 H   0  0  0  0  0  0  0  0  0  0  0  0
    4.3081    3.7483   -1.5696 H   0  0  0  0  0  0  0  0  0  0  0  0
    5.0587    2.1916   -1.9572 H   0  0  0  0  0  0  0  0  0  0  0  0
    3.4834    2.6881    0.6946 H   0  0  0  0  0  0  0  0  0  0  0  0
    5.2086    2.7528    0.4052 H   0  0  0  0  0  0  0  0  0  0  0  0
    3.3978    0.3096   -0.0728 H   0  0  0  0  0  0  0  0  0  0  0  0
    4.3634    0.6831    1.4113 H   0  0  0  0  0  0  0  0  0  0  0  0
    4.6742   -0.4725   -2.1407 H   0  0  0  0  0  0  0  0  0  0  0  0
    6.7468   -1.2311   -3.1050 H   0  0  0  0  0  0  0  0  0  0  0  0
    8.8390   -0.9978   -1.9553 H   0  0  0  0  0  0  0  0  0  0  0  0
    6.7953    0.8547    1.3274 H   0  0  0  0  0  0  0  0  0  0  0  0
   10.0509    0.2303   -0.2367 H   0  0  0  0  0  0  0  0  0  0  0  0
    9.2555    1.0518    1.1083 H   0  0  0  0  0  0  0  0  0  0  0  0
    9.3714   -0.8687    2.4427 H   0  0  0  0  0  0  0  0  0  0  0  0
   10.1081   -3.0778    2.9908 H   0  0  0  0  0  0  0  0  0  0  0  0
   10.5236   -4.2427    1.7237 H   0  0  0  0  0  0  0  0  0  0  0  0
   -7.1479    1.1895    0.6685 H   0  0  0  0  0  0  0  0  0  0  0  0
  1  2  1  0
  2  3  2  0
  2  4  1  0
  5  6  1  0
  6  7  1  0
  7  8  2  0
  8  9  1  0
  9 10  2  0
 10 11  1  0
 11 12  2  0
 12 13  1  0
  9 14  1  0
 14 15  1  0
 15 16  1  0
 16 17  1  0
 17 18  1  0
 18 19  1  0
 19 20  1  0
 20 21  1  0
 21 22  1  0
 22 23  1  0
 23 24  1  0
 24 25  1  0
 25 26  1  0
 26 27  1  0
 27 28  1  0
 28 29  2  0
 29 30  1  0
 30 31  2  0
 31 32  1  0
 32 33  2  0
 32 34  1  0
 34 35  1  0
 35 36  1  0
 36 37  2  0
 36 38  1  0
 14 39  1  0
 12  7  1  0
 33 28  1  0
  1 40  1  0
  1 41  1  0
  1 42  1  0
  4 43  1  0
  5 44  1  0
  6 45  1  0
  6 46  1  0
  8 47  1  0
 10 48  1  0
 11 49  1  0
 13 50  1  0
 14 51  1  6
 15 52  1  0
 15 53  1  0
 16 54  1  0
 17 55  1  0
 17 56  1  0
 18 57  1  0
 18 58  1  0
 19 59  1  0
 19 60  1  0
 20 61  1  0
 20 62  1  0
 21 63  1  0
 21 64  1  0
 22 65  1  0
 22 66  1  0
 24 67  1  0
 24 68  1  0
 25 69  1  0
 25 70  1  0
 26 71  1  0
 26 72  1  0
 27 73  1  0
 27 74  1  0
 29 75  1  0
 30 76  1  0
 31 77  1  0
 33 78  1  0
 34 79  1  0
 34 80  1  0
 35 81  1  0
 38 82  1  0
 38 83  1  0
 39 84  1  0
M  END
>  <Ligand ID>  (1) 
LIG0003337

>  <Ligand>  (1) 
CHEMBL1835857

>  <SMILES>  (1) 
CC(=O)O.OCc1cc(ccc1O)[C@H](CNCCCCCCOCCCCc1cccc(c1)CNC(=O)N)O

>  <CID>  (1) 
56658406.0

>  <ChEMBL ID>  (1) 
nan

>  <InChiKey>  (1) 
CDLQLFAZAKCSJI-SNYZSRNZSA-N

>  <InChi>  (1) 
InChI=1S/C27H41N3O5.C2H4O2/c28-27(34)30-18-22-10-7-9-21(16-22)8-3-6-15-35-14-5-2-1-4-13-29-19-26(33)23-11-12-25(32)24(17-23)20-31;1-2(3)4/h7,9-12,16-17,26,29,31-33H,1-6,8,13-15,18-20H2,(H3,28,30,34);1H3,(H,3,4)/t26-;/m0./s1

>  <IUPAC Name>  (1) 
acetic acid;[3-[4-[6-[[(2R)-2-hydroxy-2-[4-hydroxy-3-(hydroxymethyl)phenyl]ethyl]amino]hexoxy]butyl]phenyl]methylurea

$$$$
