
     RDKit          3D

 97104  0  0  0  0  0  0  0  0999 V2000
   10.1246   -2.1098    1.6090 C   0  0  0  0  0  0  0  0  0  0  0  0
    9.5162   -3.3024    1.2852 O   0  0  0  0  0  0  0  0  0  0  0  0
    8.1990   -3.3762    1.6763 C   0  0  0  0  0  0  0  0  0  0  0  0
    7.3129   -2.3094    1.0516 C   0  0  0  0  0  0  0  0  0  0  0  0
    7.3501   -2.4455   -0.3036 O   0  0  0  0  0  0  0  0  0  0  0  0
    6.5847   -1.5778   -1.0509 C   0  0  0  0  0  0  0  0  0  0  0  0
    6.9687   -0.1559   -0.8650 C   0  0  0  0  0  0  0  0  0  0  0  0
    6.2244    0.7587   -1.6097 O   0  0  0  0  0  0  0  0  0  0  0  0
    4.8650    0.7433   -1.3295 C   0  0  0  0  0  0  0  0  0  0  0  0
    4.5646    1.0490    0.1037 C   0  0  0  0  0  0  0  0  0  0  0  0
    3.2208    1.0295    0.3588 O   0  0  0  0  0  0  0  0  0  0  0  0
    2.1587    1.7639   -0.0757 C   0  0  0  0  0  0  0  0  0  0  0  0
    2.2137    2.8279   -0.9495 C   0  0  0  0  0  0  0  0  0  0  0  0
    1.0805    3.5421   -1.3622 C   0  0  0  0  0  0  0  0  0  0  0  0
   -0.1490    3.1601   -0.8665 C   0  0  0  0  0  0  0  0  0  0  0  0
   -0.1549    2.1081   -0.0054 C   0  0  0  0  0  0  0  0  0  0  0  0
    0.9012    1.3864    0.4212 C   0  0  0  0  0  0  0  0  0  0  0  0
    0.4123    0.4153    1.2781 O   0  0  0  0  0  0  0  0  0  0  0  0
   -1.0076    0.3506    1.2080 C   0  0  1  0  0  0  0  0  0  0  0  0
   -1.4280    1.6685    0.5908 C   0  0  1  0  0  0  0  0  0  0  0  0
   -1.8852    2.6628    1.5851 C   0  0  0  0  0  0  0  0  0  0  0  0
   -3.1537    3.4019    1.2881 C   0  0  0  0  0  0  0  0  0  0  0  0
   -3.4745    3.5861   -0.0533 N   0  0  0  0  0  0  0  0  0  0  0  0
   -2.6509    2.9220   -1.0214 C   0  0  1  0  0  0  0  0  0  0  0  0
   -1.4421    3.7717   -1.2431 C   0  0  0  0  0  0  0  0  0  0  0  0
   -2.3361    1.4984   -0.6129 C   0  0  1  0  0  0  0  0  0  0  0  0
   -1.5912    0.7848   -1.6902 C   0  0  0  0  0  0  0  0  0  0  0  0
   -1.0216   -0.5026   -1.1205 C   0  0  0  0  0  0  0  0  0  0  0  0
   -1.5421   -0.7169    0.2873 C   0  0  1  0  0  0  0  0  0  0  0  0
   -1.2311   -2.0051    0.7019 O   0  0  0  0  0  0  0  0  0  0  0  0
    0.1035   -2.2925    0.7996 C   0  0  0  0  0  0  0  0  0  0  0  0
   -3.0452   -0.6081    0.3557 C   0  0  1  0  0  0  0  0  0  0  0  0
   -3.5293    0.6659   -0.2894 C   0  0  0  0  0  0  0  0  0  0  0  0
   -3.7711   -1.8328   -0.1369 C   0  0  0  0  0  0  0  0  0  0  0  0
   -3.5181   -2.1612   -1.4374 O   0  0  0  0  0  0  0  0  0  0  0  0
   -4.2497   -3.2926   -1.7746 C   0  0  0  0  0  0  0  0  0  0  0  0
   -3.9340   -4.4824   -0.9506 C   0  0  0  0  0  0  0  0  0  0  0  0
   -2.9147   -5.3271   -1.3664 C   0  0  0  0  0  0  0  0  0  0  0  0
   -2.5858   -6.4636   -0.6241 C   0  0  0  0  0  0  0  0  0  0  0  0
   -3.2733   -6.7751    0.5506 C   0  0  0  0  0  0  0  0  0  0  0  0
   -4.2881   -5.9326    0.9632 C   0  0  0  0  0  0  0  0  0  0  0  0
   -4.5984   -4.8106    0.2123 C   0  0  0  0  0  0  0  0  0  0  0  0
   -4.8099    3.8203   -0.4175 C   0  0  0  0  0  0  0  0  0  0  0  0
   -5.3144    5.1456    0.0454 C   0  0  0  0  0  0  0  0  0  0  0  0
   -5.3997    5.5721    1.4412 C   0  0  0  0  0  0  0  0  0  0  0  0
   -6.6764    5.1906    0.6750 C   0  0  0  0  0  0  0  0  0  0  0  0
   10.0887   -1.9727    2.7142 H   0  0  0  0  0  0  0  0  0  0  0  0
    9.6537   -1.2501    1.1401 H   0  0  0  0  0  0  0  0  0  0  0  0
   11.1765   -2.1691    1.2508 H   0  0  0  0  0  0  0  0  0  0  0  0
    7.8194   -4.3885    1.4360 H   0  0  0  0  0  0  0  0  0  0  0  0
    8.1072   -3.2766    2.7857 H   0  0  0  0  0  0  0  0  0  0  0  0
    7.6436   -1.3196    1.3561 H   0  0  0  0  0  0  0  0  0  0  0  0
    6.2942   -2.4531    1.4818 H   0  0  0  0  0  0  0  0  0  0  0  0
    6.6421   -1.9080   -2.1132 H   0  0  0  0  0  0  0  0  0  0  0  0
    5.5285   -1.7003   -0.6672 H   0  0  0  0  0  0  0  0  0  0  0  0
    8.0208   -0.0418   -1.2613 H   0  0  0  0  0  0  0  0  0  0  0  0
    7.0439    0.1441    0.1923 H   0  0  0  0  0  0  0  0  0  0  0  0
    4.3963    1.4081   -2.0698 H   0  0  0  0  0  0  0  0  0  0  0  0
    4.4208   -0.2719   -1.5477 H   0  0  0  0  0  0  0  0  0  0  0  0
    4.9531    2.0632    0.3958 H   0  0  0  0  0  0  0  0  0  0  0  0
    5.0370    0.2718    0.7828 H   0  0  0  0  0  0  0  0  0  0  0  0
    3.1450    3.1860   -1.3603 H   0  0  0  0  0  0  0  0  0  0  0  0
    1.1320    4.3694   -2.0434 H   0  0  0  0  0  0  0  0  0  0  0  0
   -1.4214    0.2043    2.2115 H   0  0  0  0  0  0  0  0  0  0  0  0
   -2.0580    2.0935    2.5464 H   0  0  0  0  0  0  0  0  0  0  0  0
   -1.0519    3.3468    1.8473 H   0  0  0  0  0  0  0  0  0  0  0  0
   -3.0031    4.4277    1.7356 H   0  0  0  0  0  0  0  0  0  0  0  0
   -4.0105    2.9734    1.8442 H   0  0  0  0  0  0  0  0  0  0  0  0
   -3.2131    2.8663   -1.9723 H   0  0  0  0  0  0  0  0  0  0  0  0
   -1.5647    4.7247   -0.6695 H   0  0  0  0  0  0  0  0  0  0  0  0
   -1.3828    4.1281   -2.3217 H   0  0  0  0  0  0  0  0  0  0  0  0
   -0.7778    1.2961   -2.1809 H   0  0  0  0  0  0  0  0  0  0  0  0
   -2.3357    0.5436   -2.5135 H   0  0  0  0  0  0  0  0  0  0  0  0
    0.0893   -0.4530   -1.0612 H   0  0  0  0  0  0  0  0  0  0  0  0
   -1.3270   -1.3166   -1.7741 H   0  0  0  0  0  0  0  0  0  0  0  0
    0.6760   -2.1788   -0.1441 H   0  0  0  0  0  0  0  0  0  0  0  0
    0.1527   -3.4103    0.9942 H   0  0  0  0  0  0  0  0  0  0  0  0
    0.5921   -1.8519    1.6885 H   0  0  0  0  0  0  0  0  0  0  0  0
   -3.2781   -0.5721    1.4613 H   0  0  0  0  0  0  0  0  0  0  0  0
   -4.0708    0.4435   -1.2404 H   0  0  0  0  0  0  0  0  0  0  0  0
   -4.2677    1.1010    0.3792 H   0  0  0  0  0  0  0  0  0  0  0  0
   -4.8516   -1.6090   -0.0263 H   0  0  0  0  0  0  0  0  0  0  0  0
   -3.4467   -2.6747    0.5077 H   0  0  0  0  0  0  0  0  0  0  0  0
   -5.3234   -3.0532   -1.5885 H   0  0  0  0  0  0  0  0  0  0  0  0
   -4.1244   -3.5638   -2.8545 H   0  0  0  0  0  0  0  0  0  0  0  0
   -2.3400   -5.1500   -2.2637 H   0  0  0  0  0  0  0  0  0  0  0  0
   -1.7932   -7.1364   -0.9314 H   0  0  0  0  0  0  0  0  0  0  0  0
   -3.0471   -7.6393    1.1443 H   0  0  0  0  0  0  0  0  0  0  0  0
   -4.8386   -6.1436    1.8656 H   0  0  0  0  0  0  0  0  0  0  0  0
   -5.3930   -4.1620    0.5453 H   0  0  0  0  0  0  0  0  0  0  0  0
   -4.9228    3.7764   -1.5458 H   0  0  0  0  0  0  0  0  0  0  0  0
   -5.5352    3.0508   -0.0678 H   0  0  0  0  0  0  0  0  0  0  0  0
   -5.0617    5.9712   -0.6968 H   0  0  0  0  0  0  0  0  0  0  0  0
   -5.2299    4.9612    2.3287 H   0  0  0  0  0  0  0  0  0  0  0  0
   -5.2832    6.6738    1.6653 H   0  0  0  0  0  0  0  0  0  0  0  0
   -7.3194    6.0456    0.3289 H   0  0  0  0  0  0  0  0  0  0  0  0
   -7.1645    4.2504    0.9537 H   0  0  0  0  0  0  0  0  0  0  0  0
  1  2  1  0
  2  3  1  0
  3  4  1  0
  4  5  1  0
  5  6  1  0
  6  7  1  0
  7  8  1  0
  8  9  1  0
  9 10  1  0
 10 11  1  0
 11 12  1  0
 12 13  2  0
 13 14  1  0
 14 15  2  0
 15 16  1  0
 16 17  2  0
 17 18  1  0
 18 19  1  0
 19 20  1  0
 20 21  1  1
 21 22  1  0
 22 23  1  0
 23 24  1  0
 24 25  1  0
 24 26  1  0
 26 27  1  6
 27 28  1  0
 28 29  1  0
 29 30  1  1
 30 31  1  0
 29 32  1  0
 32 33  1  0
 32 34  1  0
 34 35  1  0
 35 36  1  0
 36 37  1  0
 37 38  2  0
 38 39  1  0
 39 40  2  0
 40 41  1  0
 41 42  2  0
 23 43  1  0
 43 44  1  0
 44 45  1  0
 45 46  1  0
 17 12  1  0
 29 19  1  0
 42 37  1  0
 46 44  1  0
 25 15  1  0
 33 26  1  0
 20 16  1  0
 26 20  1  0
  1 47  1  0
  1 48  1  0
  1 49  1  0
  3 50  1  0
  3 51  1  0
  4 52  1  0
  4 53  1  0
  6 54  1  0
  6 55  1  0
  7 56  1  0
  7 57  1  0
  9 58  1  0
  9 59  1  0
 10 60  1  0
 10 61  1  0
 13 62  1  0
 14 63  1  0
 19 64  1  1
 21 65  1  0
 21 66  1  0
 22 67  1  0
 22 68  1  0
 24 69  1  6
 25 70  1  0
 25 71  1  0
 27 72  1  0
 27 73  1  0
 28 74  1  0
 28 75  1  0
 31 76  1  0
 31 77  1  0
 31 78  1  0
 32 79  1  1
 33 80  1  0
 33 81  1  0
 34 82  1  0
 34 83  1  0
 36 84  1  0
 36 85  1  0
 38 86  1  0
 39 87  1  0
 40 88  1  0
 41 89  1  0
 42 90  1  0
 43 91  1  0
 43 92  1  0
 44 93  1  0
 45 94  1  0
 45 95  1  0
 46 96  1  0
 46 97  1  0
M  END
>  <Ligand ID>  (1) 
LIG0004903

>  <Ligand>  (1) 
CHEMBL3902466

>  <SMILES>  (1) 
COCCOCCOCCOc1ccc2c3c1O[C@H]1[C@]43CCN([C@@H](C2)[C@]24CC[C@]1(OC)[C@@H](C2)COCc1ccccc1)CC1CC1

>  <CID>  (1) 
134134913.0

>  <ChEMBL ID>  (1) 
nan

>  <InChiKey>  (1) 
CMUPPNWEXDPPDS-YSPQLEBHSA-N

>  <InChi>  (1) 
InChI=1S/C38H51NO7/c1-40-16-17-42-18-19-43-20-21-45-31-11-10-29-22-32-36-12-13-38(41-2,30(23-36)26-44-25-28-6-4-3-5-7-28)35-37(36,33(29)34(31)46-35)14-15-39(32)24-27-8-9-27/h3-7,10-11,27,30,32,35H,8-9,12-26H2,1-2H3/t30-,32-,35-,36-,37+,38-/m0/s1

>  <IUPAC Name>  (1) 
(1R,2R,6S,14S,15S,16S)-5-(cyclopropylmethyl)-15-methoxy-11-[2-[2-(2-methoxyethoxy)ethoxy]ethoxy]-16-(phenylmethoxymethyl)-13-oxa-5-azahexacyclo[13.2.2.12,8.01,6.02,14.012,20]icosa-8(20),9,11-triene

$$$$
