
     RDKit          3D

 81 85  0  0  0  0  0  0  0  0999 V2000
    1.7666   -0.8658    1.3556 O   0  0  0  0  0  0  0  0  0  0  0  0
    2.1238   -0.6425    0.1755 C   0  0  0  0  0  0  0  0  0  0  0  0
    1.2495   -0.1278   -0.8268 N   0  0  0  0  0  0  0  0  0  0  0  0
   -0.1426    0.1341   -0.3706 C   0  0  2  0  0  0  0  0  0  0  0  0
   -0.8966   -1.0342   -0.8755 C   0  0  0  0  0  0  0  0  0  0  0  0
   -0.2363   -1.7367   -1.7494 O   0  0  0  0  0  0  0  0  0  0  0  0
   -2.1642   -1.5005   -0.5828 N   0  0  0  0  0  0  0  0  0  0  0  0
   -2.5810   -2.6784   -1.4164 C   0  0  0  0  0  0  0  0  0  0  0  0
   -4.0767   -2.7588   -1.3852 C   0  0  2  0  0  0  0  0  0  0  0  0
   -4.5915   -3.4305   -2.6642 C   0  0  0  0  0  0  0  0  0  0  0  0
   -5.7576   -2.6080   -3.1152 C   0  0  0  0  0  0  0  0  0  0  0  0
   -5.6239   -1.3085   -2.3382 C   0  0  0  0  0  0  0  0  0  0  0  0
   -4.8255   -1.5943   -1.2050 N   0  0  0  0  0  0  0  0  0  0  0  0
   -4.2981   -0.5463   -0.4473 C   0  0  0  0  0  0  0  0  0  0  0  0
   -3.1442   -1.1055    0.3758 C   0  0  2  0  0  0  0  0  0  0  0  0
   -2.7554   -0.3018    1.5434 C   0  0  0  0  0  0  0  0  0  0  0  0
   -3.9156    0.0045    2.4509 C   0  0  0  0  0  0  0  0  0  0  0  0
   -4.2535   -0.8601    3.4929 C   0  0  0  0  0  0  0  0  0  0  0  0
   -5.3272   -0.5482    4.3126 C   0  0  0  0  0  0  0  0  0  0  0  0
   -6.0810    0.5940    4.1359 C   0  0  0  0  0  0  0  0  0  0  0  0
   -5.7525    1.4511    3.1096 C   0  0  0  0  0  0  0  0  0  0  0  0
   -4.6836    1.1511    2.2851 C   0  0  0  0  0  0  0  0  0  0  0  0
   -0.6490    1.3903   -0.9766 C   0  0  0  0  0  0  0  0  0  0  0  0
    0.0360    2.6738   -0.6827 C   0  0  0  0  0  0  0  0  0  0  0  0
    1.4510    2.7950   -1.0954 C   0  0  0  0  0  0  0  0  0  0  0  0
    2.0720    4.0486   -0.8271 N   0  0  0  0  0  0  0  0  0  0  0  0
    1.5850    5.1450   -0.4575 C   0  0  0  0  0  0  0  0  0  0  0  0
    2.5209    6.2357   -0.2751 N   0  0  0  0  0  0  0  0  0  0  0  0
    0.2365    5.4561   -0.1947 N   0  0  0  0  0  0  0  0  0  0  0  0
    3.5650   -0.9513   -0.1544 C   0  0  0  0  0  0  0  0  0  0  0  0
    4.2529   -1.5562    1.0511 C   0  0  0  0  0  0  0  0  0  0  0  0
    5.6541   -1.8299    0.6553 C   0  0  0  0  0  0  0  0  0  0  0  0
    6.2147   -3.0604    0.3298 C   0  0  0  0  0  0  0  0  0  0  0  0
    7.5257   -2.8845    0.0222 N   0  0  0  0  0  0  0  0  0  0  0  0
    7.7894   -1.5737    0.1493 C   0  0  0  0  0  0  0  0  0  0  0  0
    6.6656   -0.8797    0.5386 C   0  0  0  0  0  0  0  0  0  0  0  0
    6.6893    0.4889    0.7358 C   0  0  0  0  0  0  0  0  0  0  0  0
    7.8707    1.1411    0.5325 C   0  0  0  0  0  0  0  0  0  0  0  0
    8.9900    0.4545    0.1458 C   0  0  0  0  0  0  0  0  0  0  0  0
    8.9711   -0.9097   -0.0526 C   0  0  0  0  0  0  0  0  0  0  0  0
    1.5459    0.0492   -1.7935 H   0  0  0  0  0  0  0  0  0  0  0  0
   -0.0766    0.1865    0.7021 H   0  0  0  0  0  0  0  0  0  0  0  0
   -2.2020   -2.5238   -2.4496 H   0  0  0  0  0  0  0  0  0  0  0  0
   -2.1542   -3.6036   -1.0348 H   0  0  0  0  0  0  0  0  0  0  0  0
   -4.3202   -3.4615   -0.5246 H   0  0  0  0  0  0  0  0  0  0  0  0
   -3.7913   -3.5033   -3.4263 H   0  0  0  0  0  0  0  0  0  0  0  0
   -4.9183   -4.4436   -2.4155 H   0  0  0  0  0  0  0  0  0  0  0  0
   -5.7124   -2.3966   -4.1919 H   0  0  0  0  0  0  0  0  0  0  0  0
   -6.7250   -3.1338   -2.9028 H   0  0  0  0  0  0  0  0  0  0  0  0
   -5.3308   -0.4585   -2.9547 H   0  0  0  0  0  0  0  0  0  0  0  0
   -6.6592   -1.0915   -1.9595 H   0  0  0  0  0  0  0  0  0  0  0  0
   -5.0713   -0.0518    0.1687 H   0  0  0  0  0  0  0  0  0  0  0  0
   -3.8318    0.2831   -1.0551 H   0  0  0  0  0  0  0  0  0  0  0  0
   -3.5867   -2.1072    0.7549 H   0  0  0  0  0  0  0  0  0  0  0  0
   -2.0515   -0.8901    2.1668 H   0  0  0  0  0  0  0  0  0  0  0  0
   -2.2745    0.6244    1.2762 H   0  0  0  0  0  0  0  0  0  0  0  0
   -3.6822   -1.7588    3.6528 H   0  0  0  0  0  0  0  0  0  0  0  0
   -5.6237   -1.1967    5.1373 H   0  0  0  0  0  0  0  0  0  0  0  0
   -6.9227    0.8580    4.7620 H   0  0  0  0  0  0  0  0  0  0  0  0
   -6.2945    2.3623    2.9121 H   0  0  0  0  0  0  0  0  0  0  0  0
   -4.4415    1.8542    1.4728 H   0  0  0  0  0  0  0  0  0  0  0  0
   -1.7257    1.5190   -0.7210 H   0  0  0  0  0  0  0  0  0  0  0  0
   -0.5943    1.2502   -2.1097 H   0  0  0  0  0  0  0  0  0  0  0  0
   -0.0833    2.9630    0.4008 H   0  0  0  0  0  0  0  0  0  0  0  0
   -0.5282    3.4999   -1.2217 H   0  0  0  0  0  0  0  0  0  0  0  0
    1.4833    2.6327   -2.2103 H   0  0  0  0  0  0  0  0  0  0  0  0
    2.1097    2.0256   -0.5940 H   0  0  0  0  0  0  0  0  0  0  0  0
    3.1307    6.5134   -1.0726 H   0  0  0  0  0  0  0  0  0  0  0  0
    2.5747    6.7232    0.6385 H   0  0  0  0  0  0  0  0  0  0  0  0
   -0.3169    5.8638   -0.9840 H   0  0  0  0  0  0  0  0  0  0  0  0
   -0.2632    5.3251    0.6991 H   0  0  0  0  0  0  0  0  0  0  0  0
    3.5738   -1.6009   -1.0471 H   0  0  0  0  0  0  0  0  0  0  0  0
    4.0241    0.0199   -0.4306 H   0  0  0  0  0  0  0  0  0  0  0  0
    3.8143   -2.5154    1.3434 H   0  0  0  0  0  0  0  0  0  0  0  0
    4.2131   -0.8168    1.8581 H   0  0  0  0  0  0  0  0  0  0  0  0
    5.6678   -3.9976    0.3289 H   0  0  0  0  0  0  0  0  0  0  0  0
    8.1307   -3.6806   -0.2512 H   0  0  0  0  0  0  0  0  0  0  0  0
    5.7791    0.9630    1.0379 H   0  0  0  0  0  0  0  0  0  0  0  0
    7.8801    2.2233    0.6908 H   0  0  0  0  0  0  0  0  0  0  0  0
    9.8967    1.0281    0.0010 H   0  0  0  0  0  0  0  0  0  0  0  0
    9.8847   -1.4066   -0.3585 H   0  0  0  0  0  0  0  0  0  0  0  0
  1  2  2  0
  2  3  1  0
  3  4  1  0
  4  5  1  0
  5  6  2  0
  5  7  1  0
  7  8  1  0
  8  9  1  0
  9 10  1  0
 10 11  1  0
 11 12  1  0
 12 13  1  0
 13 14  1  0
 14 15  1  0
 15 16  1  0
 16 17  1  0
 17 18  2  0
 18 19  1  0
 19 20  2  0
 20 21  1  0
 21 22  2  0
  4 23  1  0
 23 24  1  0
 24 25  1  0
 25 26  1  0
 26 27  2  3
 27 28  1  0
 27 29  1  0
  2 30  1  0
 30 31  1  0
 31 32  1  0
 32 33  2  0
 33 34  1  0
 34 35  1  0
 35 36  2  0
 36 37  1  0
 37 38  2  0
 38 39  1  0
 39 40  2  0
 15  7  1  0
 22 17  1  0
 36 32  1  0
 13  9  1  0
 40 35  1  0
  3 41  1  0
  4 42  1  1
  8 43  1  0
  8 44  1  0
  9 45  1  1
 10 46  1  0
 10 47  1  0
 11 48  1  0
 11 49  1  0
 12 50  1  0
 12 51  1  0
 14 52  1  0
 14 53  1  0
 15 54  1  1
 16 55  1  0
 16 56  1  0
 18 57  1  0
 19 58  1  0
 20 59  1  0
 21 60  1  0
 22 61  1  0
 23 62  1  0
 23 63  1  0
 24 64  1  0
 24 65  1  0
 25 66  1  0
 25 67  1  0
 28 68  1  0
 28 69  1  0
 29 70  1  0
 29 71  1  0
 30 72  1  0
 30 73  1  0
 31 74  1  0
 31 75  1  0
 33 76  1  0
 34 77  1  0
 37 78  1  0
 38 79  1  0
 39 80  1  0
 40 81  1  0
M  END
>  <Ligand ID>  (1) 
LIG0001306

>  <Ligand>  (1) 
CHEMBL220018

>  <SMILES>  (1) 
O=C(N[C@H](C(=O)N1C[C@@H]2CCCN2C[C@@H]1Cc1ccccc1)CCCN=C(N)N)CCc1c[nH]c2c1cccc2

>  <CID>  (1) 
16049796.0

>  <ChEMBL ID>  (1) 
nan

>  <InChiKey>  (1) 
QJJUWWQDEUFNRO-VBOOUTDYSA-N

>  <InChi>  (1) 
InChI=1S/C31H41N7O2/c32-31(33)34-16-6-13-28(36-29(39)15-14-23-19-35-27-12-5-4-11-26(23)27)30(40)38-21-24-10-7-17-37(24)20-25(38)18-22-8-2-1-3-9-22/h1-5,8-9,11-12,19,24-25,28,35H,6-7,10,13-18,20-21H2,(H,36,39)(H4,32,33,34)/t24-,25-,28-/m0/s1

>  <IUPAC Name>  (1) 
N-[(2S)-1-[(3S,8aS)-3-benzyl-3,4,6,7,8,8a-hexahydro-1H-pyrrolo[1,2-a]pyrazin-2-yl]-5-(diaminomethylideneamino)-1-oxopentan-2-yl]-3-(1H-indol-3-yl)propanamide

$$$$
