
     RDKit          3D

 66 67  0  0  0  0  0  0  0  0999 V2000
   -8.9041   -2.3149   -2.2053 O   0  0  0  0  0  0  0  0  0  0  0  0
   -9.1387   -1.5044   -1.1018 C   0  0  0  0  0  0  0  0  0  0  0  0
   -8.0429   -0.5084   -0.9108 C   0  0  0  0  0  0  0  0  0  0  0  0
   -7.1008   -0.6484    0.0587 C   0  0  0  0  0  0  0  0  0  0  0  0
   -6.0638    0.2723    0.2581 C   0  0  0  0  0  0  0  0  0  0  0  0
   -6.0266    1.3526   -0.5802 C   0  0  0  0  0  0  0  0  0  0  0  0
   -6.9745    1.5324   -1.5869 C   0  0  0  0  0  0  0  0  0  0  0  0
   -7.9896    0.5865   -1.7460 C   0  0  0  0  0  0  0  0  0  0  0  0
   -8.9177    0.8083   -2.7682 O   0  0  0  0  0  0  0  0  0  0  0  0
   -5.1371   -0.0065    1.3524 C   0  0  2  0  0  0  0  0  0  0  0  0
   -3.9217    0.8340    1.4410 C   0  0  0  0  0  0  0  0  0  0  0  0
   -2.9382    0.6914    0.4329 N   0  0  0  0  0  0  0  0  0  0  0  0
   -2.2194   -0.5389    0.4001 C   0  0  0  0  0  0  0  0  0  0  0  0
   -1.1740   -0.4698   -0.6883 C   0  0  0  0  0  0  0  0  0  0  0  0
   -0.1996    0.6617   -0.4427 C   0  0  0  0  0  0  0  0  0  0  0  0
    0.5000    0.4961    0.8852 C   0  0  0  0  0  0  0  0  0  0  0  0
    1.2453   -0.8017    0.8915 C   0  0  0  0  0  0  0  0  0  0  0  0
    1.9366   -0.9619    2.2130 C   0  0  0  0  0  0  0  0  0  0  0  0
    2.8480    0.0081    2.5330 O   0  0  0  0  0  0  0  0  0  0  0  0
    3.8596    0.0221    1.5789 C   0  0  0  0  0  0  0  0  0  0  0  0
    4.8980    1.0739    1.9229 C   0  0  0  0  0  0  0  0  0  0  0  0
    5.9209    1.1281    1.0101 O   0  0  0  0  0  0  0  0  0  0  0  0
    6.6250   -0.0530    0.8839 C   0  0  0  0  0  0  0  0  0  0  0  0
    7.7201    0.0938   -0.1182 C   0  0  0  0  0  0  0  0  0  0  0  0
    8.9599    0.5134    0.3341 C   0  0  0  0  0  0  0  0  0  0  0  0
   10.0002    0.6596   -0.5730 C   0  0  0  0  0  0  0  0  0  0  0  0
    9.8140    0.3902   -1.9312 C   0  0  0  0  0  0  0  0  0  0  0  0
    8.5643   -0.0283   -2.3595 C   0  0  0  0  0  0  0  0  0  0  0  0
    7.5214   -0.1778   -1.4679 C   0  0  0  0  0  0  0  0  0  0  0  0
   10.8887    0.5501   -2.8093 O   0  0  0  0  0  0  0  0  0  0  0  0
   -4.8232   -1.3498    1.3626 O   0  0  0  0  0  0  0  0  0  0  0  0
   -8.9233   -1.7920   -3.0473 H   0  0  0  0  0  0  0  0  0  0  0  0
   -9.1088   -2.1875   -0.2024 H   0  0  0  0  0  0  0  0  0  0  0  0
  -10.1098   -0.9995   -1.0934 H   0  0  0  0  0  0  0  0  0  0  0  0
   -7.1813   -1.5377    0.7026 H   0  0  0  0  0  0  0  0  0  0  0  0
   -5.2627    2.0741   -0.4640 H   0  0  0  0  0  0  0  0  0  0  0  0
   -6.9578    2.3782   -2.2550 H   0  0  0  0  0  0  0  0  0  0  0  0
   -9.8121    1.1856   -2.4604 H   0  0  0  0  0  0  0  0  0  0  0  0
   -5.7166    0.1480    2.3240 H   0  0  0  0  0  0  0  0  0  0  0  0
   -4.1655    1.9082    1.5869 H   0  0  0  0  0  0  0  0  0  0  0  0
   -3.4190    0.5496    2.4169 H   0  0  0  0  0  0  0  0  0  0  0  0
   -3.0539    1.1982   -0.4438 H   0  0  0  0  0  0  0  0  0  0  0  0
   -2.8250   -1.4473    0.2010 H   0  0  0  0  0  0  0  0  0  0  0  0
   -1.7741   -0.7124    1.4162 H   0  0  0  0  0  0  0  0  0  0  0  0
   -0.6609   -1.4221   -0.8758 H   0  0  0  0  0  0  0  0  0  0  0  0
   -1.7297   -0.2354   -1.6241 H   0  0  0  0  0  0  0  0  0  0  0  0
    0.6067    0.5312   -1.2158 H   0  0  0  0  0  0  0  0  0  0  0  0
   -0.6423    1.6543   -0.5749 H   0  0  0  0  0  0  0  0  0  0  0  0
    1.2326    1.3258    0.9499 H   0  0  0  0  0  0  0  0  0  0  0  0
   -0.2245    0.5660    1.7304 H   0  0  0  0  0  0  0  0  0  0  0  0
    1.9139   -0.8354    0.0099 H   0  0  0  0  0  0  0  0  0  0  0  0
    0.5512   -1.6799    0.7328 H   0  0  0  0  0  0  0  0  0  0  0  0
    2.4791   -1.9497    2.1565 H   0  0  0  0  0  0  0  0  0  0  0  0
    1.1581   -1.1100    2.9887 H   0  0  0  0  0  0  0  0  0  0  0  0
    3.3997    0.3735    0.6202 H   0  0  0  0  0  0  0  0  0  0  0  0
    4.2588   -0.9931    1.5311 H   0  0  0  0  0  0  0  0  0  0  0  0
    4.3817    2.0471    1.9660 H   0  0  0  0  0  0  0  0  0  0  0  0
    5.2549    0.8600    2.9727 H   0  0  0  0  0  0  0  0  0  0  0  0
    6.0169   -0.9107    0.5236 H   0  0  0  0  0  0  0  0  0  0  0  0
    7.1056   -0.3675    1.8343 H   0  0  0  0  0  0  0  0  0  0  0  0
    9.0836    0.7186    1.3996 H   0  0  0  0  0  0  0  0  0  0  0  0
   10.9615    0.9883   -0.2039 H   0  0  0  0  0  0  0  0  0  0  0  0
    8.4326   -0.2341   -3.4233 H   0  0  0  0  0  0  0  0  0  0  0  0
    6.5539   -0.5063   -1.8221 H   0  0  0  0  0  0  0  0  0  0  0  0
   11.7156   -0.0107   -2.5553 H   0  0  0  0  0  0  0  0  0  0  0  0
   -5.2690   -1.8865    2.0414 H   0  0  0  0  0  0  0  0  0  0  0  0
  1  2  1  0
  2  3  1  0
  3  4  2  0
  4  5  1  0
  5  6  2  0
  6  7  1  0
  7  8  2  0
  8  9  1  0
  5 10  1  0
 10 11  1  0
 11 12  1  0
 12 13  1  0
 13 14  1  0
 14 15  1  0
 15 16  1  0
 16 17  1  0
 17 18  1  0
 18 19  1  0
 19 20  1  0
 20 21  1  0
 21 22  1  0
 22 23  1  0
 23 24  1  0
 24 25  2  0
 25 26  1  0
 26 27  2  0
 27 28  1  0
 28 29  2  0
 27 30  1  0
 10 31  1  0
  8  3  1  0
 29 24  1  0
  1 32  1  0
  2 33  1  0
  2 34  1  0
  4 35  1  0
  6 36  1  0
  7 37  1  0
  9 38  1  0
 10 39  1  1
 11 40  1  0
 11 41  1  0
 12 42  1  0
 13 43  1  0
 13 44  1  0
 14 45  1  0
 14 46  1  0
 15 47  1  0
 15 48  1  0
 16 49  1  0
 16 50  1  0
 17 51  1  0
 17 52  1  0
 18 53  1  0
 18 54  1  0
 20 55  1  0
 20 56  1  0
 21 57  1  0
 21 58  1  0
 23 59  1  0
 23 60  1  0
 25 61  1  0
 26 62  1  0
 28 63  1  0
 29 64  1  0
 30 65  1  0
 31 66  1  0
M  END
>  <Ligand ID>  (1) 
LIG0002561

>  <Ligand>  (1) 
CHEMBL1086535

>  <SMILES>  (1) 
OCc1cc(ccc1O)[C@H](CNCCCCCCOCCOCc1ccc(cc1)O)O

>  <CID>  (1) 
46833103.0

>  <ChEMBL ID>  (1) 
nan

>  <InChiKey>  (1) 
OQQNKEIGGYNMRM-DEOSSOPVSA-N

>  <InChi>  (1) 
InChI=1S/C24H35NO6/c26-17-21-15-20(7-10-23(21)28)24(29)16-25-11-3-1-2-4-12-30-13-14-31-18-19-5-8-22(27)9-6-19/h5-10,15,24-29H,1-4,11-14,16-18H2/t24-/m0/s1

>  <IUPAC Name>  (1) 
4-[(1R)-1-hydroxy-2-[6-[2-[(4-hydroxyphenyl)methoxy]ethoxy]hexylamino]ethyl]-2-(hydroxymethyl)phenol

$$$$
